data_POSCAR
  _audit_creation_date              2014-09-24
  _audit_creation_method            'ToBaCCo'
  _symmetry_space_group_name_H-M    'P1'
  _symmetry_Int_Tables_number       1
  _symmetry_cell_setting            triclinic
  loop_
  _symmetry_equiv_pos_as_xyz
 x,y,z
_cell_length_a 64.7957
_cell_length_b 64.8846
_cell_length_c 64.6456
_cell_angle_alpha 89.891500
_cell_angle_beta 89.542600
_cell_angle_gamma 89.655400
loop_
  _atom_site_label
  _atom_site_type_symbol
  _atom_site_fract_x
  _atom_site_fract_y
  _atom_site_fract_z
C1 C 0.11486 -0.00133 0.22854
 C2 C 0.12840 0.01776 0.22850
 C3 C 0.14115 0.01927 0.24501
 C4 C 0.13929 0.00107 0.26031
 C5 C 0.13005 -0.01935 0.23028
 C6 C 0.14285 -0.01825 0.24683
 C7 C 0.10346 -0.00084 0.24932
 C8 C 0.11612 0.00042 0.26603
 H9 H 0.12755 0.02936 0.21644
 H10 H 0.14977 0.00211 0.27376
 H11 H 0.13023 -0.03224 0.21966
 H12 H 0.08681 -0.00155 0.25058
 C13 C 0.38635 -0.00101 0.73345
 C14 C 0.37080 -0.01852 0.73405
 C15 C 0.35766 -0.01799 0.75055
 C16 C 0.36139 0.00047 0.76517
 C17 C 0.37321 0.01857 0.73434
 C18 C 0.36015 0.01961 0.75091
 C19 C 0.39685 -0.00195 0.75320
 C20 C 0.38321 -0.00096 0.77076
 H21 H 0.37076 -0.03074 0.72265
 H22 H 0.35046 0.00106 0.77849
 H23 H 0.37503 0.03102 0.72329
 H24 H 0.41349 -0.00247 0.75458
 C25 C 0.88369 0.49602 0.23145
 C26 C 0.86740 0.47918 0.23284
 C27 C 0.85464 0.48067 0.24950
 C28 C 0.85924 0.49925 0.26356
 C29 C 0.87137 0.51611 0.23212
 C30 C 0.85869 0.51810 0.24891
 C31 C 0.89496 0.49509 0.25215
 C32 C 0.88228 0.49692 0.26903
 H33 H 0.86651 0.46653 0.22198
 H34 H 0.84870 0.50055 0.27713
 H35 H 0.87333 0.52814 0.22064
 H36 H 0.91159 0.49387 0.25321
 C37 C 0.61602 0.49733 0.73140
 C38 C 0.62898 0.51680 0.73154
 C39 C 0.64169 0.51856 0.74806
 C40 C 0.64033 0.50019 0.76323
 C41 C 0.63173 0.47975 0.73301
 C42 C 0.64446 0.48107 0.74960
 C43 C 0.60459 0.49731 0.75216
 C44 C 0.61718 0.49881 0.76891
 H45 H 0.62785 0.52842 0.71952
 H46 H 0.65077 0.50142 0.77670
 H47 H 0.63224 0.46691 0.72233
 H48 H 0.58797 0.49608 0.75339
 C49 C 0.22816 0.11520 0.99875
 C50 C 0.22858 0.12869 1.01797
 C51 C 0.24542 0.14098 1.01935
 C52 C 0.26061 0.13861 1.00103
 C53 C 0.23041 0.13016 0.98069
 C54 C 0.24729 0.14248 0.98172
 C55 C 0.24855 0.10315 0.99916
 C56 C 0.26560 0.11533 1.00033
 H57 H 0.21662 0.12810 1.02977
 H58 H 0.27434 0.14870 1.00201
 H59 H 0.21969 0.13056 0.96792
 H60 H 0.24940 0.08649 0.99843
 C61 C 0.73141 0.38376 0.99806
 C62 C 0.73255 0.36993 0.98058
 C63 C 0.75031 0.35674 0.98031
 C64 C 0.76380 0.35988 0.99829
 C65 C 0.73257 0.37060 1.01615
 C66 C 0.75044 0.35752 1.01669
 C67 C 0.75083 0.39507 0.99764
 C68 C 0.76884 0.38196 0.99787
 H69 H 0.72141 0.37041 0.96813
 H70 H 0.77750 0.34950 0.99836
 H71 H 0.72169 0.37184 1.02894
 H72 H 0.75176 0.41173 0.99785
 C73 C 0.23489 0.88773 0.49553
 C74 C 0.23656 0.87147 0.47856
 C75 C 0.25330 0.85889 0.48002
 C76 C 0.26715 0.86368 0.49873
 C77 C 0.23556 0.87544 0.51564
 C78 C 0.25240 0.86297 0.51762
 C79 C 0.25543 0.89923 0.49466
 C80 C 0.27239 0.88677 0.49646
 H81 H 0.22577 0.87041 0.46591
 H82 H 0.28078 0.85332 0.50003
 H83 H 0.22395 0.87722 0.52767
 H84 H 0.25633 0.91585 0.49345
 C85 C 0.72928 0.61509 0.49820
 C86 C 0.72957 0.62871 0.51733
 C87 C 0.74635 0.64105 0.51874
 C88 C 0.76165 0.63863 0.50049
 C89 C 0.73156 0.62996 0.48005
 C90 C 0.74840 0.64236 0.48110
 C91 C 0.74970 0.60312 0.49876
 C92 C 0.76671 0.61536 0.49993
 H93 H 0.71755 0.62814 0.52908
 H94 H 0.77534 0.64878 0.50150
 H95 H 0.72087 0.63026 0.46725
 H96 H 0.75060 0.58647 0.49804
 C97 C 0.00415 0.22956 0.11584
 C98 C 0.02174 0.23078 0.13136
 C99 C 0.02118 0.24774 0.14361
 C100 C 0.00274 0.26221 0.13931
 C101 C -0.01541 0.23117 0.12903
 C102 C -0.01636 0.24820 0.14133
 C103 C 0.00511 0.24983 0.10381
 C104 C 0.00433 0.26699 0.11596
 H105 H 0.03411 0.21952 0.13216
 H106 H 0.00222 0.27603 0.14941
 H107 H -0.02758 0.21982 0.12838
 H108 H 0.00609 0.25043 0.08709
 C109 C -0.00051 0.73007 0.38634
 C110 C -0.01839 0.73088 0.37323
 C111 C -0.01931 0.74843 0.35992
 C112 C -0.00154 0.76213 0.36205
 C113 C 0.01795 0.73139 0.37149
 C114 C 0.01767 0.74819 0.35883
 C115 C -0.00045 0.75063 0.39797
 C116 C -0.00089 0.76754 0.38533
 H117 H -0.03031 0.71923 0.37381
 H118 H -0.00185 0.77576 0.35163
 H119 H 0.03092 0.72081 0.37202
 H120 H 0.00050 0.75159 0.41466
 C121 C 0.50076 0.23041 0.88784
 C122 C 0.48270 0.23134 0.87297
 C123 C 0.48260 0.24805 0.86025
 C124 C 0.50118 0.26250 0.86347
 C125 C 0.51989 0.23165 0.87392
 C126 C 0.52035 0.24840 0.86124
 C127 C 0.50015 0.25098 0.89937
 C128 C 0.50051 0.26785 0.88672
 H129 H 0.47057 0.21991 0.87306
 H130 H 0.50133 0.27607 0.85298
 H131 H 0.53264 0.22083 0.87491
 H132 H 0.50027 0.25198 0.91609
 C133 C 0.49789 0.73171 0.61701
 C134 C 0.51605 0.73164 0.63177
 C135 C 0.51712 0.74847 0.64415
 C136 C 0.49947 0.76412 0.64070
 C137 C 0.47893 0.73451 0.63083
 C138 C 0.47957 0.75137 0.64331
 C139 C 0.49974 0.75201 0.60501
 C140 C 0.50054 0.76905 0.61734
 H141 H 0.52767 0.71954 0.63170
 H142 H 0.50019 0.77783 0.65092
 H143 H 0.46591 0.72413 0.63038
 H144 H 0.50014 0.75283 0.58828
 C145 C 0.88292 1.00341 0.76861
 C146 C 0.87022 1.02157 0.76593
 C147 C 0.85712 1.02097 0.74824
 C148 C 0.85923 1.00188 0.73630
 C149 C 0.86790 0.98543 0.76894
 C150 C 0.85549 0.98437 0.75214
 C151 C 0.89487 1.00100 0.74816
 C152 C 0.88254 1.00029 0.73113
 H153 H 0.87106 1.03472 0.77620
 H154 H 0.84906 1.00103 0.72258
 H155 H 0.86785 0.97393 0.78113
 H156 H 0.91155 1.00055 0.74723
 C157 C 0.38387 0.50494 0.27146
 C158 C 0.36905 0.52301 0.26850
 C159 C 0.35659 0.52130 0.25173
 C160 C 0.36020 0.50131 0.23924
 C161 C 0.37016 0.48599 0.27203
 C162 C 0.35779 0.48385 0.25532
 C163 C 0.39580 0.50333 0.25097
 C164 C 0.38351 0.50146 0.23404
 H165 H 0.36887 0.53628 0.27865
 H166 H 0.35001 0.49973 0.22562
 H167 H 0.37085 0.47477 0.28445
 H168 H 0.41247 0.50391 0.24997
 C169 C 0.61338 1.00298 0.26756
 C170 C 0.62721 0.98386 0.26698
 C171 C 0.63980 0.98266 0.25001
 C172 C 0.63762 1.00136 0.23521
 C173 C 0.62742 1.02012 0.26585
 C174 C 0.64075 1.01953 0.24823
 C175 C 0.60177 1.00260 0.24704
 C176 C 0.61434 1.00167 0.22998
 H177 H 0.62616 0.97174 0.27849
 H178 H 0.64798 1.00056 0.22147
 H179 H 0.62762 1.03267 0.27685
 H180 H 0.58508 1.00259 0.24623
 C181 C 0.11344 0.50498 0.76649
 C182 C 0.12555 0.48476 0.76575
 C183 C 0.13800 0.48258 0.74881
 C184 C 0.13738 0.50133 0.73405
 C185 C 0.12987 0.52166 0.76477
 C186 C 0.14239 0.51995 0.74792
 C187 C 0.10188 0.50591 0.74597
 C188 C 0.11428 0.50385 0.72892
 H189 H 0.12377 0.47289 0.77743
 H190 H 0.14769 0.49985 0.72033
 H191 H 0.13109 0.53430 0.77560
 H192 H 0.08524 0.50726 0.74516
 C193 C 0.76756 0.88590 0.00494
 C194 C 0.76476 0.87154 0.02340
 C195 C 0.74822 0.85878 0.02200
 C196 C 0.73576 0.86170 0.00194
 C197 C 0.76837 0.87173 -0.01378
 C198 C 0.75187 0.85906 -0.01557
 C199 C 0.74700 0.89747 0.00313
 C200 C 0.73028 0.88489 0.00160
 H201 H 0.77491 0.87178 0.03663
 H202 H 0.72230 0.85128 0.00065
 H203 H 0.78079 0.87228 -0.02509
 H204 H 0.74578 0.91412 0.00334
 C205 C 0.26889 0.38575 0.50118
 C206 C 0.26654 0.37330 0.52109
 C207 C 0.24979 0.36068 0.52151
 C208 C 0.23676 0.36171 0.50164
 C209 C 0.26898 0.36960 0.48402
 C210 C 0.25230 0.35706 0.48412
 C211 C 0.24840 0.39725 0.49880
 C212 C 0.23151 0.38480 0.49908
 H213 H 0.27734 0.37444 0.53374
 H214 H 0.22316 0.35139 0.50175
 H215 H 0.28092 0.36855 0.47224
 H216 H 0.24744 0.41386 0.49729
 C217 C 0.26685 0.61049 -0.00086
 C218 C 0.26543 0.62381 -0.02023
 C219 C 0.24861 0.63645 -0.02083
 C220 C 0.23454 0.63465 -0.00151
 C221 C 0.26581 0.62563 0.01704
 C222 C 0.24908 0.63834 0.01695
 C223 C 0.24632 0.59888 0.00008
 C224 C 0.22932 0.61145 -0.00041
 H225 H 0.27649 0.62256 -0.03284
 H226 H 0.22089 0.64507 -0.00175
 H227 H 0.27727 0.62583 0.02915
 H228 H 0.24536 0.58223 0.00021
 C229 C 0.77018 0.11309 0.49853
 C230 C 0.76918 0.12602 0.48027
 C231 C 0.75163 0.13955 0.47973
 C232 C 0.73836 0.13772 0.49826
 C233 C 0.76953 0.12717 0.51583
 C234 C 0.75208 0.14078 0.51608
 C235 C 0.75051 0.10225 0.49927
 C236 C 0.73280 0.11575 0.49898
 H237 H 0.77995 0.12440 0.46743
 H238 H 0.72489 0.14840 0.49818
 H239 H 0.78080 0.12663 0.52815
 H240 H 0.74921 0.08561 0.49912
 C241 C 1.00286 0.76829 0.88724
 C242 C 1.02083 0.76600 0.87204
 C243 C 1.01926 0.74964 0.85900
 C244 C 0.99955 0.73679 0.86251
 C245 C 0.98372 0.76892 0.87379
 C246 C 0.98177 0.75262 0.86083
 C247 C 1.00179 0.74757 0.89856
 C248 C 1.00010 0.73100 0.88570
 H249 H 1.03388 0.77636 0.87193
 H250 H 0.99813 0.72348 0.85187
 H251 H 0.97237 0.78122 0.87488
 H252 H 1.00262 0.74616 0.91522
 C253 C 0.50599 0.27032 0.38874
 C254 C 0.52353 0.26856 0.37287
 C255 C 0.52192 0.25216 0.35985
 C256 C 0.50259 0.23889 0.36391
 C257 C 0.48644 0.27064 0.37587
 C258 C 0.48440 0.25435 0.36288
 C259 C 0.50578 0.24954 0.39987
 C260 C 0.50401 0.23300 0.38702
 H261 H 0.53649 0.27902 0.37242
 H262 H 0.50112 0.22558 0.35328
 H263 H 0.47500 0.28283 0.37722
 H264 H 0.50714 0.24815 0.41650
 C265 C 1.00495 0.26651 0.61219
 C266 C 0.98478 0.26581 0.62451
 C267 C 0.98296 0.24923 0.63734
 C268 C 1.00203 0.23483 0.63694
 C269 C 1.02175 0.26552 0.62856
 C270 C 1.02043 0.24910 0.64152
 C271 C 1.00620 0.24575 0.60106
 C272 C 1.00450 0.22909 0.61388
 H273 H 0.97258 0.27710 0.62242
 H274 H 1.00086 0.22143 0.64759
 H275 H 1.03415 0.27660 0.62950
 H276 H 1.00733 0.24449 0.58439
 C277 C 0.50339 0.76717 0.11415
 C278 C 0.48312 0.76612 0.12626
 C279 C 0.48138 0.74938 0.13890
 C280 C 0.50060 0.73517 0.13850
 C281 C 0.52006 0.76617 0.13066
 C282 C 0.51880 0.74956 0.14340
 C283 C 0.50497 0.74655 0.10279
 C284 C 0.50336 0.72973 0.11540
 H285 H 0.47085 0.77734 0.12425
 H286 H 0.49948 0.72164 0.14898
 H287 H 0.53239 0.77730 0.13177
 H288 H 0.50636 0.74549 0.08612
 O289 O -0.01243 0.98592 0.94098
 O290 O 0.02141 0.99602 0.93976
 O291 O -0.01367 0.94122 0.99090
 O292 O -0.00777 0.94029 1.02447
 O293 O -0.06060 0.99003 0.98771
 O294 O -0.06059 1.02539 0.99596
 O295 O 0.03840 0.99698 1.04416
 O296 O 0.04084 0.96463 1.03031
 O297 O 0.04361 1.03893 0.99496
 O298 O 0.02655 1.04362 0.96185
 O299 O -0.00466 1.04607 1.03801
 O300 O -0.03740 1.02961 1.04424
 O301 O 0.00989 1.01368 1.05661
 O302 O -0.02748 1.00379 1.05765
 O303 O 0.01122 1.05790 1.00887
 O304 O 0.00072 1.05725 0.97183
 O305 O 0.05595 1.01084 1.01207
 O306 O 0.05535 0.97543 0.99781
 O307 O -0.04071 1.00319 0.95323
 O308 O -0.04522 1.03614 0.96992
 O309 O -0.04832 0.96162 1.00432
 O310 O -0.03040 0.95932 1.03803
 O311 O 0.00157 0.95291 0.96134
 O312 O 0.03546 0.97010 0.95862
 Zr313 Zr 0.00696 0.98435 0.96682
 O314 O 0.02658 1.00348 0.98389
 Zr315 Zr -0.01694 0.96769 1.00929
 O316 O 0.00224 0.98553 1.02812
 Zr317 Zr -0.03461 1.00897 0.98461
 O318 O -0.01677 1.02876 1.00287
 Zr319 Zr 0.03071 0.99074 1.01341
 O320 O 0.01258 0.97042 0.99572
 Zr321 Zr 0.01251 1.03218 0.98920
 O322 O -0.00611 1.01401 0.96982
 Zr323 Zr -0.01084 1.01500 1.03169
 O324 O -0.03122 0.99643 1.01445
 O325 O -0.02208 0.97977 0.98001
 O326 O 0.01813 1.02001 1.01849
 C327 C -0.03021 0.99448 0.93869
 C328 C -0.00590 0.93853 0.97277
 C329 C -0.06292 0.97232 0.99625
 C330 C 0.02804 1.00587 1.05866
 C331 C 0.05808 1.02873 1.00386
 C332 C 0.00377 1.06035 1.02715
 H333 H 0.03990 1.00479 0.97644
 H334 H -0.02411 1.04208 1.00432
 H335 H -0.03091 0.97079 0.97148
 H336 H 0.00414 0.97838 1.04150
 H337 H 0.03757 0.95241 1.02183
 H338 H 0.00534 0.94335 1.03150
 H339 H -0.01187 1.06237 0.97895
 H340 H -0.03431 1.04026 0.95995
 H341 H 0.06775 0.97612 1.00667
 H342 H 0.03349 0.96168 0.94599
 H343 H -0.04250 1.03956 1.03383
 H344 H -0.06251 1.02105 1.01054
 H345 H 0.01699 1.01059 0.93839
 H346 H 0.03720 1.03354 0.95741
 H347 H -0.04153 0.96945 1.04096
 H348 H -0.02020 0.99141 1.06285
 O349 O 0.48797 0.48829 0.44370
 O350 O 0.52189 0.49809 0.44256
 O351 O 0.48652 0.44267 0.49276
 O352 O 0.49247 0.44107 0.52632
 O353 O 0.43998 0.49193 0.49065
 O354 O 0.44030 0.52709 0.49956
 O355 O 0.53929 0.49702 0.54687
 O356 O 0.54141 0.46496 0.53247
 O357 O 0.54460 0.53982 0.49841
 O358 O 0.52749 0.54525 0.46548
 O359 O 0.49655 0.54659 0.54173
 O360 O 0.46376 0.53026 0.54787
 O361 O 0.51096 0.51372 0.55972
 O362 O 0.47351 0.50413 0.56074
 O363 O 0.51234 0.55883 0.51273
 O364 O 0.50178 0.55886 0.47573
 O365 O 0.55686 0.51130 0.51483
 O366 O 0.55581 0.47611 0.50005
 O367 O 0.45989 0.50561 0.45634
 O368 O 0.45566 0.53822 0.47371
 O369 O 0.45201 0.46314 0.50678
 O370 O 0.47014 0.46004 0.54033
 O371 O 0.50173 0.45479 0.46335
 O372 O 0.53576 0.47168 0.46091
 Zr373 Zr 0.50741 0.48605 0.46944
 O374 O 0.52725 0.50471 0.48676
 Zr375 Zr 0.48351 0.46882 0.51168
 O376 O 0.50294 0.48616 0.53075
 Zr377 Zr 0.46612 0.51069 0.48782
 O378 O 0.48419 0.52999 0.50637
 Zr379 Zr 0.53141 0.49141 0.51603
 O380 O 0.51302 0.47156 0.49807
 Zr381 Zr 0.51344 0.53343 0.49266
 O382 O 0.49460 0.51576 0.47302
 Zr383 Zr 0.49013 0.51567 0.53492
 O384 O 0.46952 0.49760 0.51741
 O385 O 0.47837 0.48147 0.48263
 O386 O 0.51910 0.52070 0.52170
 C387 C 0.47029 0.49708 0.44161
 C388 C 0.49421 0.44025 0.47455
 C389 C 0.43749 0.47412 0.49892
 C390 C 0.52905 0.50573 0.56157
 C391 C 0.55907 0.52932 0.50694
 C392 C 0.50494 0.56103 0.53106
 H393 H 0.54055 0.50604 0.47928
 H394 H 0.47695 0.54334 0.50809
 H395 H 0.46943 0.47273 0.47398
 H396 H 0.50484 0.47875 0.54398
 H397 H 0.53798 0.45289 0.52382
 H398 H 0.50569 0.44385 0.53325
 H399 H 0.48925 0.56395 0.48297
 H400 H 0.46653 0.54244 0.46375
 H401 H 0.56828 0.47655 0.50884
 H402 H 0.53369 0.46355 0.44811
 H403 H 0.45864 0.54038 0.53763
 H404 H 0.43840 0.52252 0.51407
 H405 H 0.51760 0.51272 0.44147
 H406 H 0.53803 0.53516 0.46080
 H407 H 0.45912 0.47022 0.54352
 H408 H 0.48071 0.49159 0.56569
 O409 O 0.46405 0.00303 0.54854
 O410 O 0.45694 0.03345 0.53182
 O411 O 0.46153 -0.04251 0.49982
 O412 O 0.47839 -0.04986 0.47063
 O413 O 0.51219 -0.04213 0.54402
 O414 O 0.54291 -0.02220 0.54612
 O415 O 0.51060 0.01211 0.44250
 O416 O 0.47859 -0.00226 0.44353
 O417 O 0.51110 0.05913 0.48714
 O418 O 0.50123 0.06114 0.52387
 O419 O 0.55971 0.01700 0.48622
 O420 O 0.56506 -0.01758 0.49649
 O421 O 0.54118 -0.00027 0.45467
 O422 O 0.54975 -0.03293 0.47466
 O423 O 0.54492 0.04476 0.50193
 O424 O 0.52687 0.04897 0.53589
 O425 O 0.49621 0.04380 0.45945
 O426 O 0.46244 0.02561 0.46198
 O427 O 0.49470 -0.00889 0.56106
 O428 O 0.52949 0.00402 0.55960
 O429 O 0.49685 -0.05745 0.51657
 O430 O 0.50854 -0.05745 0.47961
 O431 O 0.44654 -0.01504 0.51597
 O432 O 0.44385 0.02054 0.50210
 Zr433 Zr 0.46999 0.00740 0.51685
 O434 O 0.48560 0.02801 0.49704
 Zr435 Zr 0.49231 -0.03350 0.49501
 O436 O 0.50814 -0.01460 0.47380
 Zr437 Zr 0.51434 -0.01099 0.53506
 O438 O 0.53177 0.00844 0.51559
 Zr439 Zr 0.49193 0.01309 0.46898
 O440 O 0.47461 -0.00705 0.48802
 Zr441 Zr 0.51468 0.03524 0.50897
 O442 O 0.49803 0.01669 0.53019
 Zr443 Zr 0.53637 -0.00554 0.48659
 O444 O 0.52141 -0.02627 0.50719
 O445 O 0.48596 -0.01974 0.52329
 O446 O 0.52068 0.02182 0.48029
 C447 C 0.47583 -0.00300 0.56331
 C448 C 0.44598 -0.03324 0.50812
 C449 C 0.50497 -0.05793 0.53464
 C450 C 0.52938 0.00619 0.44007
 C451 C 0.50375 0.05949 0.46873
 C452 C 0.56025 0.03552 0.49322
 H453 H 0.47703 0.04047 0.49483
 H454 H 0.54498 0.01158 0.52240
 H455 H 0.47804 -0.02885 0.53271
 H456 H 0.50999 -0.02228 0.46071
 H457 H 0.46630 -0.00957 0.44894
 H458 H 0.47899 -0.04082 0.45834
 H459 H 0.53957 0.04132 0.53961
 H460 H 0.52231 0.01737 0.56166
 H461 H 0.46318 0.03181 0.44796
 H462 H 0.43137 0.01769 0.51062
 H463 H 0.56701 -0.01305 0.51094
 H464 H 0.54835 -0.03178 0.53546
 H465 H 0.46838 0.04054 0.53889
 H466 H 0.48753 0.06362 0.51767
 H467 H 0.52154 -0.05974 0.48724
 H468 H 0.54135 -0.03741 0.46280
 O469 O -0.04335 0.45379 0.99764
 O470 O -0.02738 0.45011 0.96580
 O471 O 0.00731 0.45499 1.04051
 O472 O 0.03591 0.47333 1.04489
 O473 O -0.04105 0.50064 1.04537
 O474 O -0.04945 0.53083 1.02683
 O475 O 0.05500 0.51323 0.98330
 O476 O 0.05935 0.48066 0.99626
 O477 O 0.00668 0.50951 0.93971
 O478 O -0.02840 0.49648 0.94038
 O479 O 0.00599 0.55621 0.98411
 O480 O -0.00356 0.55845 1.02040
 O481 O 0.03997 0.54122 0.99857
 O482 O 0.02168 0.54584 1.03273
 O483 O -0.00965 0.54119 0.95669
 O484 O -0.04215 0.52028 0.95478
 O485 O 0.03730 0.49771 0.95216
 O486 O 0.04119 0.46355 0.96919
 O487 O -0.05871 0.48195 1.01232
 O488 O -0.06259 0.51734 1.00101
 O489 O -0.01074 0.48810 1.05787
 O490 O 0.02426 0.50250 1.05555
 O491 O -0.00847 0.43961 1.01332
 O492 O 0.00435 0.43998 0.97687
 Zr493 Zr -0.01300 0.46362 0.99173
 O494 O 0.00307 0.48244 0.97054
 Zr495 Zr 0.00889 0.48621 1.03194
 O496 O 0.02644 0.50538 1.01241
 Zr497 Zr -0.03532 0.50452 1.01353
 O498 O -0.01967 0.52509 0.99367
 Zr499 Zr 0.03122 0.49133 0.98354
 O500 O 0.01607 0.47081 1.00413
 Zr501 Zr -0.01304 0.51016 0.96561
 O502 O -0.03048 0.49022 0.98476
 Zr503 Zr 0.00947 0.53222 1.00576
 O504 O -0.00745 0.51392 1.02707
 O505 O -0.01943 0.47746 1.02007
 O506 O 0.01559 0.51878 0.97714
 C507 C -0.05906 0.46336 1.00532
 C508 C -0.00004 0.43917 1.03126
 C509 C -0.02942 0.49442 1.06015
 C510 C 0.05544 0.53181 0.99018
 C511 C 0.02570 0.50428 0.93751
 C512 C -0.00181 0.55677 0.96592
 H513 H 0.00534 0.47472 0.95753
 H514 H -0.02821 0.53757 0.99161
 H515 H -0.02727 0.46838 1.02957
 H516 H 0.03971 0.50842 1.01918
 H517 H 0.05623 0.46756 1.00349
 H518 H 0.04757 0.47762 1.03597
 H519 H -0.04627 0.53260 0.96284
 H520 H -0.06458 0.51070 0.98741
 H521 H 0.05445 0.46628 0.96195
 H522 H -0.00235 0.42653 0.97967
 H523 H -0.01769 0.56034 1.01500
 H524 H -0.03855 0.53795 1.03468
 H525 H -0.03697 0.46059 0.96015
 H526 H -0.02113 0.48345 0.93701
 H527 H 0.01589 0.51496 1.05859
 H528 H 0.03461 0.53846 1.03616
 O529 O 0.00939 0.43899 0.50634
 O530 O -0.00455 0.43991 0.47358
 O531 O 0.05705 0.48455 0.50444
 O532 O 0.05960 0.51808 0.49681
 O533 O 0.01416 0.48404 0.55574
 O534 O -0.02063 0.49463 0.56007
 O535 O -0.00113 0.54411 0.45910
 O536 O 0.02993 0.52834 0.45242
 O537 O -0.04634 0.49782 0.45793
 O538 O -0.05107 0.46491 0.47543
 O539 O -0.04482 0.54023 0.50717
 O540 O -0.02438 0.54328 0.53859
 O541 O -0.01326 0.55656 0.48983
 O542 O 0.00088 0.55556 0.52568
 O543 O -0.06023 0.51281 0.49202
 O544 O -0.06113 0.47548 0.50277
 O545 O -0.01890 0.51359 0.44266
 O546 O 0.01563 0.49724 0.43875
 O547 O -0.00355 0.45118 0.53688
 O548 O -0.03466 0.46986 0.54569
 O549 O 0.04193 0.49925 0.54044
 O550 O 0.04459 0.53273 0.52261
 O551 O 0.04183 0.45673 0.48973
 O552 O 0.02139 0.45748 0.45736
 Zr553 Zr 0.01048 0.46523 0.48742
 O554 O -0.00978 0.48420 0.47055
 Zr555 Zr 0.03255 0.50529 0.50992
 O556 O 0.01373 0.52597 0.49338
 Zr557 Zr -0.00805 0.48308 0.53211
 O558 O -0.02868 0.50325 0.51705
 Zr559 Zr 0.00424 0.51281 0.46539
 O560 O 0.02552 0.49316 0.48062
 Zr561 Zr -0.03635 0.49100 0.48808
 O562 O -0.01729 0.46981 0.50406
 Zr563 Zr -0.01378 0.53110 0.51003
 O564 O 0.00598 0.51194 0.52769
 O565 O 0.01912 0.47697 0.51601
 O566 O -0.02297 0.51940 0.48158
 C567 C 0.00304 0.43658 0.52505
 C568 C 0.05764 0.46639 0.49653
 C569 C 0.03256 0.49135 0.55612
 C570 C -0.00777 0.55873 0.47080
 C571 C -0.03739 0.50654 0.44246
 C572 C -0.06058 0.53105 0.49970
 H573 H -0.01310 0.47733 0.45735
 H574 H -0.04102 0.50545 0.52587
 H575 H 0.02837 0.46757 0.52376
 H576 H 0.02142 0.53886 0.49086
 H577 H 0.04198 0.51905 0.45407
 H578 H 0.05515 0.52705 0.48529
 H579 H -0.06469 0.48304 0.51560
 H580 H -0.04092 0.46107 0.53496
 H581 H 0.01395 0.50652 0.42666
 H582 H 0.02892 0.44413 0.45807
 H583 H -0.03515 0.53396 0.54406
 H584 H -0.01531 0.50882 0.56156
 H585 H -0.01842 0.43905 0.48003
 H586 H -0.04264 0.46011 0.46355
 H587 H 0.03579 0.53634 0.53467
 H588 H 0.01277 0.56004 0.51712
 O589 O 0.50840 0.93945 0.00785
 O590 O 0.49441 0.94035 -0.02492
 O591 O 0.55613 0.98496 0.00574
 O592 O 0.55866 1.01851 -0.00198
 O593 O 0.51341 0.98448 0.05711
 O594 O 0.47861 0.99533 0.06150
 O595 O 0.49788 1.04451 -0.03956
 O596 O 0.52898 1.02874 -0.04620
 O597 O 0.45271 0.99822 -0.04064
 O598 O 0.44804 0.96528 -0.02303
 O599 O 0.45424 1.04067 0.00858
 O600 O 0.47478 1.04374 0.04000
 O601 O 0.48575 1.05700 -0.00884
 O602 O 0.49994 1.05611 0.02695
 O603 O 0.43885 1.01322 -0.00656
 O604 O 0.43791 0.97597 0.00422
 O605 O 0.48014 1.01401 -0.05591
 O606 O 0.51465 0.99763 -0.05987
 O607 O 0.49550 0.95173 0.03838
 O608 O 0.46452 0.97046 0.04729
 O609 O 0.54115 0.99965 0.04173
 O610 O 0.54374 1.03316 0.02397
 O611 O 0.54083 0.95711 -0.00883
 O612 O 0.52040 0.95783 -0.04118
 Zr613 Zr 0.50951 0.96566 -0.01113
 O614 O 0.48926 0.98462 -0.02803
 Zr615 Zr 0.53166 1.00575 0.01126
 O616 O 0.51280 1.02642 -0.00527
 Zr617 Zr 0.49109 0.98361 0.03357
 O618 O 0.47042 1.00372 0.01847
 Zr619 Zr 0.50329 1.01323 -0.03322
 O620 O 0.52457 0.99356 -0.01800
 Zr621 Zr 0.46273 0.99143 -0.01047
 O622 O 0.48178 0.97029 0.00556
 Zr623 Zr 0.48530 1.03158 0.01141
 O624 O 0.50513 1.01246 0.02906
 O625 O 0.51821 0.97744 0.01741
 O626 O 0.47609 1.01983 -0.01701
 C627 C 0.50205 0.93709 0.02657
 C628 C 0.55666 0.96677 -0.00210
 C629 C 0.53185 0.99169 0.05741
 C630 C 0.49120 1.05915 -0.02787
 C631 C 0.46166 1.00694 -0.05611
 C632 C 0.43849 1.03147 0.00111
 H633 H 0.48594 0.97774 -0.04122
 H634 H 0.45809 1.00593 0.02731
 H635 H 0.52745 0.96804 0.02514
 H636 H 0.52048 1.03931 -0.00781
 H637 H 0.54103 1.01943 -0.04456
 H638 H 0.55417 1.02764 -0.01336
 H639 H 0.43442 0.98349 0.01709
 H640 H 0.45814 0.96175 0.03657
 H641 H 0.51297 1.00692 -0.07195
 H642 H 0.52788 0.94445 -0.04045
 H643 H 0.46399 1.03444 0.04547
 H644 H 0.48411 1.00944 0.06302
 H645 H 0.48057 0.93947 -0.01840
 H646 H 0.45640 0.96054 -0.03500
 H647 H 0.53492 1.03679 0.03601
 H648 H 0.51189 1.06049 0.01843
 O649 O 0.44085 0.50654 0.01172
 O650 O 0.44191 0.47368 -0.00186
 O651 O 0.48577 0.50510 0.06015
 O652 O 0.51928 0.49725 0.06320
 O653 O 0.48609 0.55550 0.01663
 O654 O 0.49724 0.55918 -0.01812
 O655 O 0.54614 0.45853 0.00304
 O656 O 0.52989 0.45256 0.03407
 O657 O 0.50048 0.45696 -0.04282
 O658 O 0.46767 0.47453 -0.04819
 O659 O 0.54305 0.50582 -0.04132
 O660 O 0.54590 0.53739 -0.02099
 O661 O 0.55891 0.48882 -0.00933
 O662 O 0.55787 0.52474 0.00451
 O663 O 0.51577 0.49065 -0.05694
 O664 O 0.47843 0.50155 -0.05838
 O665 O 0.51576 0.44208 -0.01494
 O666 O 0.49891 0.43889 0.01950
 O667 O 0.45340 0.53665 -0.00141
 O668 O 0.47263 0.54482 -0.03239
 O669 O 0.50087 0.54062 0.04481
 O670 O 0.53426 0.52267 0.04811
 O671 O 0.45809 0.49042 0.04468
 O672 O 0.45906 0.45782 0.02454
 Zr673 Zr 0.46707 0.48754 0.01339
 O674 O 0.48632 0.47025 -0.00649
 Zr675 Zr 0.50694 0.51001 0.03581
 O676 O 0.52788 0.49307 0.01736
 Zr677 Zr 0.48539 0.53161 -0.00540
 O678 O 0.50584 0.51611 -0.02567
 Zr679 Zr 0.51475 0.46513 0.00798
 O680 O 0.49479 0.48080 0.02889
 Zr681 Zr 0.49359 0.48722 -0.03321
 O682 O 0.47215 0.50361 -0.01456
 Zr683 Zr 0.53350 0.50916 -0.01032
 O684 O 0.51407 0.52720 0.00907
 O685 O 0.47879 0.51607 0.02191
 O686 O 0.52181 0.48075 -0.01938
 C687 C 0.43861 0.52508 0.00508
 C688 C 0.46756 0.49736 0.06058
 C689 C 0.49314 0.55614 0.03516
 C690 C 0.56092 0.46994 -0.00363
 C691 C 0.50899 0.44162 -0.03356
 C692 C 0.53404 0.49822 -0.05717
 H693 H 0.47945 0.45710 -0.00976
 H694 H 0.50825 0.52469 -0.03809
 H695 H 0.46927 0.52401 0.03097
 H696 H 0.54066 0.49059 0.02526
 H697 H 0.52041 0.45446 0.04601
 H698 H 0.52839 0.48571 0.05896
 H699 H 0.48607 0.51423 -0.06197
 H700 H 0.46388 0.53410 -0.03868
 H701 H 0.50820 0.42676 0.01808
 H702 H 0.44558 0.45875 0.03190
 H703 H 0.53677 0.54273 -0.03198
 H704 H 0.51137 0.56066 -0.01261
 H705 H 0.44129 0.47985 -0.01586
 H706 H 0.46269 0.46288 -0.03966
 H707 H 0.53809 0.53446 0.03915
 H708 H 0.56210 0.51639 0.01660
 O709 O 0.04388 0.00738 0.45658
 O710 O 0.04459 0.03813 0.47514
 O711 O 0.04783 -0.03978 0.50262
 O712 O 0.03050 -0.05014 0.53047
 O713 O 0.00032 -0.04287 0.45523
 O714 O -0.03148 -0.02542 0.45035
 O715 O -0.01364 0.00693 0.55807
 O716 O 0.01981 -0.00527 0.56003
 O717 O -0.01430 0.05517 0.51552
 O718 O -0.00300 0.05981 0.47994
 O719 O -0.05802 0.00702 0.51037
 O720 O -0.05692 -0.02804 0.49766
 O721 O -0.04091 -0.00852 0.54254
 O722 O -0.04293 -0.04126 0.52182
 O723 O -0.04560 0.03741 0.49809
 O724 O -0.02607 0.04559 0.46567
 O725 O 0.00023 0.04014 0.54373
 O726 O 0.03523 0.02457 0.54417
 O727 O 0.01632 -0.00745 0.44090
 O728 O -0.01980 0.00246 0.43951
 O729 O 0.01529 -0.05793 0.48321
 O730 O 0.00187 -0.06090 0.51910
 O731 O 0.06023 -0.00968 0.48951
 O732 O 0.05736 0.02473 0.50520
 Zr733 Zr 0.03429 0.00975 0.48767
 O734 O 0.01462 0.02718 0.50699
 Zr735 Zr 0.01587 -0.03455 0.50583
 O736 O -0.00408 -0.01885 0.52639
 Zr737 Zr -0.00549 -0.01241 0.46480
 O738 O -0.02685 0.00375 0.48351
 Zr739 Zr 0.00784 0.01018 0.53381
 O740 O 0.02923 -0.00666 0.51544
 Zr741 Zr -0.01399 0.03188 0.49278
 O742 O 0.00658 0.01661 0.47223
 Zr743 Zr -0.03197 -0.01235 0.51133
 O744 O -0.01274 -0.02994 0.49130
 O745 O 0.02260 -0.01868 0.47875
 O746 O -0.02063 0.01628 0.52017
 C747 C 0.03451 0.00043 0.44060
 C748 C 0.06256 -0.02819 0.49613
 C749 C 0.00818 -0.05843 0.46470
 C750 C -0.03188 -0.00077 0.55835
 C751 C -0.00788 0.05557 0.53429
 C752 C -0.06027 0.02583 0.50466
 H753 H 0.02147 0.04031 0.51038
 H754 H -0.03974 0.00574 0.47567
 H755 H 0.03220 -0.02655 0.46972
 H756 H -0.00618 -0.02721 0.53903
 H757 H 0.03332 -0.01116 0.55577
 H758 H 0.02653 -0.04279 0.54328
 H759 H -0.03715 0.03659 0.46049
 H760 H -0.01399 0.01652 0.43877
 H761 H 0.03266 0.02982 0.55837
 H762 H 0.07058 0.02427 0.49736
 H763 H -0.05993 -0.02117 0.48434
 H764 H -0.03721 -0.03563 0.46021
 H765 H 0.03354 0.04331 0.46597
 H766 H 0.01042 0.06283 0.48644
 H767 H -0.01065 -0.06377 0.51095
 H768 H -0.03498 -0.04520 0.53423
 O769 O 0.73053 0.23602 0.30406
 O770 O 0.73889 0.27058 0.30587
 O771 O 0.69190 0.23157 0.25067
 O772 O 0.69389 0.24052 0.21742
 O773 O 0.74275 0.18832 0.25707
 O774 O 0.77879 0.19059 0.25398
 O775 O 0.75143 0.28855 0.20223
 O776 O 0.71745 0.28924 0.21217
 O777 O 0.78620 0.29550 0.25674
 O778 O 0.78819 0.27715 0.28966
 O779 O 0.80071 0.24859 0.21351
 O780 O 0.78653 0.21392 0.20668
 O781 O 0.77027 0.26068 0.19173
 O782 O 0.76273 0.22341 0.18974
 O783 O 0.80861 0.26478 0.24354
 O784 O 0.80501 0.25308 0.28006
 O785 O 0.75975 0.30662 0.23657
 O786 O 0.72288 0.30359 0.24587
 O787 O 0.75005 0.20845 0.29389
 O788 O 0.78512 0.20608 0.28108
 O789 O 0.71588 0.19944 0.23745
 O790 O 0.71530 0.21831 0.20476
 O791 O 0.69971 0.24758 0.28087
 O792 O 0.71394 0.28278 0.28425
 Zr793 Zr 0.73102 0.25542 0.27805
 O794 O 0.75097 0.27617 0.26300
 Zr795 Zr 0.72023 0.23139 0.23428
 O796 O 0.73930 0.25159 0.21731
 Zr797 Zr 0.75951 0.21536 0.26319
 O798 O 0.78041 0.23448 0.24702
 Zr799 Zr 0.74155 0.28019 0.23224
 O800 O 0.72014 0.26087 0.24787
 Zr801 Zr 0.78088 0.26375 0.26082
 O802 O 0.76151 0.24395 0.27823
 Zr803 Zr 0.76965 0.24007 0.21692
 O804 O 0.75017 0.21872 0.23220
 O805 O 0.72940 0.22634 0.26459
 O806 O 0.77181 0.26912 0.23041
 C807 C 0.73924 0.21850 0.30740
 C808 C 0.68705 0.23868 0.26864
 C809 C 0.72653 0.18518 0.24620
 C810 C 0.76231 0.27862 0.18874
 C811 C 0.77616 0.30967 0.24714
 C812 C 0.81327 0.25801 0.22542
 H813 H 0.75063 0.28936 0.27065
 H814 H 0.79422 0.22794 0.24686
 H815 H 0.72016 0.21669 0.27203
 H816 H 0.73372 0.25330 0.20321
 H817 H 0.70437 0.28521 0.21903
 H818 H 0.69790 0.25268 0.20911
 H819 H 0.81121 0.24072 0.27354
 H820 H 0.78767 0.21734 0.29103
 H821 H 0.72395 0.31616 0.23718
 H822 H 0.70453 0.28026 0.29617
 H823 H 0.79723 0.21082 0.21708
 H824 H 0.77716 0.18924 0.23883
 H825 H 0.75309 0.26615 0.30936
 H826 H 0.77723 0.28730 0.29304
 H827 H 0.72680 0.20852 0.20216
 H828 H 0.75032 0.22974 0.18349
 O829 O 0.75423 0.71193 0.70479
 O830 O 0.78564 0.70825 0.71980
 O831 O 0.71168 0.70475 0.75682
 O832 O 0.70392 0.72075 0.78584
 O833 O 0.70344 0.75576 0.71247
 O834 O 0.72034 0.78725 0.70730
 O835 O 0.76347 0.76050 0.80954
 O836 O 0.75290 0.72753 0.81025
 O837 O 0.80799 0.76434 0.76098
 O838 O 0.80866 0.75609 0.72489
 O839 O 0.75985 0.80922 0.76424
 O840 O 0.72425 0.81005 0.75682
 O841 O 0.74680 0.78915 0.79775
 O842 O 0.71264 0.79385 0.78003
 O843 O 0.78835 0.79751 0.74714
 O844 O 0.79272 0.77941 0.71335
 O845 O 0.79610 0.74809 0.78987
 O846 O 0.78052 0.71346 0.78989
 O847 O 0.73814 0.74079 0.69268
 O848 O 0.74660 0.77672 0.69278
 O849 O 0.69150 0.73910 0.74108
 O850 O 0.69280 0.74973 0.77775
 O851 O 0.73971 0.69279 0.73906
 O852 O 0.77593 0.69433 0.75041
 Zr853 Zr 0.75908 0.71860 0.73613
 O854 O 0.77881 0.73667 0.75422
 Zr855 Zr 0.71732 0.73640 0.76043
 O856 O 0.73547 0.75447 0.78007
 Zr857 Zr 0.73490 0.76028 0.71857
 O858 O 0.75323 0.77999 0.73646
 Zr859 Zr 0.76509 0.74166 0.78327
 O860 O 0.74598 0.72197 0.76588
 Zr861 Zr 0.78219 0.76621 0.74146
 O862 O 0.76448 0.74731 0.72183
 Zr863 Zr 0.74055 0.78335 0.76631
 O864 O 0.72060 0.76592 0.74736
 O865 O 0.72986 0.73123 0.73120
 O866 O 0.77000 0.77112 0.77105
 C867 C 0.74659 0.72297 0.69018
 C868 C 0.72235 0.69023 0.74841
 C869 C 0.68890 0.74785 0.72345
 C870 C 0.75519 0.77835 0.81216
 C871 C 0.81052 0.75631 0.77897
 C872 C 0.77757 0.81188 0.75565
 H873 H 0.79220 0.72941 0.75550
 H874 H 0.75436 0.79334 0.72917
 H875 H 0.72105 0.72240 0.72249
 H876 H 0.72838 0.75556 0.79362
 H877 H 0.74633 0.71457 0.80577
 H878 H 0.71354 0.72229 0.79751
 H879 H 0.78357 0.79120 0.71005
 H880 H 0.76064 0.77124 0.69000
 H881 H 0.78751 0.71485 0.80341
 H882 H 0.77410 0.68147 0.74234
 H883 H 0.72826 0.81289 0.74231
 H884 H 0.71154 0.79255 0.71871
 H885 H 0.79093 0.72019 0.71186
 H886 H 0.81221 0.74211 0.72992
 H887 H 0.68885 0.76268 0.77064
 H888 H 0.70968 0.78502 0.79218
 O889 O 0.29155 0.20661 0.75195
 O890 O 0.29293 0.21780 0.71813
 O891 O 0.29840 0.26306 0.78708
 O892 O 0.28124 0.29239 0.79196
 O893 O 0.25077 0.21816 0.80267
 O894 O 0.21741 0.21151 0.78879
 O895 O 0.23814 0.30774 0.73197
 O896 O 0.27206 0.31030 0.74129
 O897 O 0.23313 0.25547 0.69403
 O898 O 0.24432 0.21996 0.69646
 O899 O 0.19130 0.26182 0.74345
 O900 O 0.19274 0.25829 0.78024
 O901 O 0.21026 0.29689 0.75062
 O902 O 0.20791 0.28391 0.78740
 O903 O 0.20269 0.24214 0.71658
 O904 O 0.22249 0.20875 0.71536
 O905 O 0.24844 0.28581 0.70215
 O906 O 0.28476 0.28785 0.71461
 O907 O 0.26369 0.19582 0.77070
 O908 O 0.22739 0.19389 0.76363
 O909 O 0.26672 0.24821 0.81067
 O910 O 0.25306 0.28389 0.80610
 O911 O 0.30984 0.24265 0.76073
 O912 O 0.30624 0.24964 0.72328
 Zr913 Zr 0.28329 0.23684 0.74302
 O914 O 0.26363 0.25220 0.72213
 Zr915 Zr 0.26630 0.26508 0.78273
 O916 O 0.24649 0.28199 0.76328
 Zr917 Zr 0.24331 0.22116 0.77126
 O918 O 0.22207 0.23615 0.75183
 Zr919 Zr 0.25800 0.28220 0.73287
 O920 O 0.27928 0.26760 0.75283
 Zr921 Zr 0.23449 0.23831 0.72177
 O922 O 0.25491 0.22132 0.74080
 Zr923 Zr 0.21796 0.26695 0.76120
 O924 O 0.23713 0.25098 0.78249
 O925 O 0.27203 0.23505 0.77318
 O926 O 0.22893 0.26864 0.73091
 C927 C 0.28152 0.19291 0.76233
 C928 C 0.31278 0.25373 0.77690
 C929 C 0.25971 0.23031 0.81540
 C930 C 0.22008 0.31045 0.73985
 C931 C 0.23926 0.27376 0.68954
 C932 C 0.18837 0.25143 0.72683
 H933 H 0.27007 0.25246 0.70821
 H934 H 0.20901 0.22837 0.75221
 H935 H 0.28177 0.22770 0.78238
 H936 H 0.24503 0.29618 0.76866
 H937 H 0.28560 0.30669 0.74734
 H938 H 0.27796 0.30298 0.78146
 H939 H 0.21104 0.20618 0.72523
 H940 H 0.23258 0.18953 0.74986
 H941 H 0.28221 0.30043 0.70626
 H942 H 0.31945 0.24216 0.72544
 H943 H 0.19031 0.24345 0.77791
 H944 H 0.21308 0.22343 0.79735
 H945 H 0.28100 0.20909 0.71454
 H946 H 0.25781 0.22524 0.69164
 H947 H 0.24067 0.27664 0.81134
 H948 H 0.21661 0.29633 0.78844
 O949 O 0.20398 0.75159 0.28963
 O950 O 0.21465 0.71781 0.29111
 O951 O 0.26134 0.78545 0.29602
 O952 O 0.29043 0.79002 0.27839
 O953 O 0.21606 0.80156 0.24854
 O954 O 0.20910 0.78758 0.21520
 O955 O 0.30483 0.72943 0.23567
 O956 O 0.30755 0.73874 0.26961
 O957 O 0.25176 0.69242 0.23102
 O958 O 0.21625 0.69574 0.24237
 O959 O 0.25897 0.74107 0.18890
 O960 O 0.25590 0.77753 0.18989
 O961 O 0.29421 0.74808 0.20778
 O962 O 0.28131 0.78496 0.20542
 O963 O 0.23881 0.71483 0.20046
 O964 O 0.20536 0.71452 0.22037
 O965 O 0.28240 0.70007 0.24601
 O966 O 0.28469 0.71273 0.28244
 O967 O 0.19329 0.77012 0.26167
 O968 O 0.19119 0.76286 0.22529
 O969 O 0.24630 0.80908 0.26438
 O970 O 0.28195 0.80373 0.25029
 O971 O 0.24050 0.75977 0.30774
 O972 O 0.24669 0.72228 0.30413
 Zr973 Zr 0.23410 0.74208 0.28120
 O974 O 0.24908 0.72078 0.26146
 Zr975 Zr 0.26286 0.78095 0.26384
 O976 O 0.27944 0.76105 0.24400
 Zr977 Zr 0.21862 0.77014 0.24113
 O978 O 0.23331 0.75031 0.21981
 Zr979 Zr 0.27925 0.73083 0.25561
 O980 O 0.26503 0.75123 0.27692
 Zr981 Zr 0.23506 0.72043 0.23232
 O982 O 0.21843 0.73990 0.25284
 Zr983 Zr 0.26427 0.75901 0.21549
 O984 O 0.24862 0.78070 0.23468
 O985 O 0.23267 0.77206 0.26985
 O986 O 0.26556 0.72889 0.22655
 C987 C 0.19033 0.76198 0.27957
 C988 C 0.25203 0.77558 0.31056
 C989 C 0.22842 0.81408 0.25742
 C990 C 0.30769 0.73725 0.21762
 C991 C 0.27005 0.68763 0.23700
 C992 C 0.24834 0.72466 0.18606
 H993 H 0.24914 0.70697 0.26795
 H994 H 0.22551 0.75070 0.20673
 H995 H 0.22551 0.78143 0.27966
 H996 H 0.29372 0.76617 0.24248
 H997 H 0.30405 0.74497 0.28317
 H998 H 0.30068 0.77899 0.27569
 H999 H 0.20295 0.72427 0.20884
 H1000 H 0.18666 0.74926 0.23053
 H1001 H 0.29712 0.70410 0.27982
 H1002 H 0.23935 0.72473 0.31745
 H1003 H 0.24088 0.77591 0.18791
 H1004 H 0.22116 0.79579 0.21073
 H1005 H 0.20593 0.71417 0.27917
 H1006 H 0.22155 0.69089 0.25584
 H1007 H 0.27454 0.80920 0.23810
 H1008 H 0.29392 0.78575 0.21388
 O1009 O 0.24115 0.69141 0.75799
 O1010 O 0.27603 0.69361 0.75334
 O1011 O 0.22923 0.73817 0.80540
 O1012 O 0.23239 0.77206 0.80863
 O1013 O 0.19004 0.73349 0.75134
 O1014 O 0.19381 0.74542 0.71673
 O1015 O 0.28398 0.79872 0.76039
 O1016 O 0.28343 0.78226 0.79163
 O1017 O 0.29882 0.75366 0.71567
 O1018 O 0.28561 0.71885 0.70791
 O1019 O 0.24938 0.79246 0.70474
 O1020 O 0.21515 0.79587 0.71621
 O1021 O 0.25728 0.81006 0.74057
 O1022 O 0.21824 0.80658 0.74518
 O1023 O 0.26861 0.76517 0.69364
 O1024 O 0.26132 0.72778 0.69118
 O1025 O 0.30603 0.76967 0.74600
 O1026 O 0.30218 0.75237 0.78023
 O1027 O 0.21467 0.70251 0.73772
 O1028 O 0.21273 0.72169 0.70582
 O1029 O 0.19714 0.74931 0.78180
 O1030 O 0.21123 0.78462 0.78744
 O1031 O 0.24786 0.71041 0.79432
 O1032 O 0.28434 0.71184 0.78187
 Zr1033 Zr 0.25768 0.71853 0.76414
 O1034 O 0.27838 0.73824 0.74852
 Zr1035 Zr 0.22833 0.75780 0.77959
 O1036 O 0.24827 0.77910 0.76537
 Zr1037 Zr 0.21844 0.73468 0.73518
 O1038 O 0.23742 0.75546 0.71880
 Zr1039 Zr 0.27836 0.76704 0.76319
 O1040 O 0.25898 0.74679 0.78010
 Zr1041 Zr 0.26793 0.74434 0.71850
 O1042 O 0.24855 0.72256 0.73314
 Zr1043 Zr 0.23921 0.78371 0.73458
 O1044 O 0.21777 0.76381 0.74947
 O1045 O 0.22734 0.72911 0.76548
 O1046 O 0.26952 0.77307 0.73277
 C1047 C 0.22514 0.68826 0.74680
 C1048 C 0.23748 0.72035 0.80817
 C1049 C 0.18483 0.74022 0.76934
 C1050 C 0.27378 0.81301 0.75112
 C1051 C 0.31100 0.76331 0.72782
 C1052 C 0.26044 0.78303 0.69108
 H1053 H 0.29236 0.73204 0.74846
 H1054 H 0.23195 0.75726 0.70468
 H1055 H 0.21822 0.71919 0.77271
 H1056 H 0.24795 0.79200 0.77349
 H1057 H 0.27926 0.77255 0.80272
 H1058 H 0.24534 0.77998 0.80766
 H1059 H 0.24898 0.73413 0.68482
 H1060 H 0.22487 0.71299 0.70235
 H1061 H 0.31374 0.76222 0.78157
 H1062 H 0.28215 0.69873 0.78949
 H1063 H 0.21016 0.78451 0.70742
 H1064 H 0.18971 0.75905 0.72232
 H1065 H 0.27466 0.69341 0.73810
 H1066 H 0.29618 0.71571 0.71843
 H1067 H 0.20090 0.78675 0.77642
 H1068 H 0.22361 0.81210 0.75833
 O1069 O 0.25661 0.21169 0.20503
 O1070 O 0.28804 0.20759 0.22003
 O1071 O 0.21387 0.20401 0.25664
 O1072 O 0.20621 0.21947 0.28600
 O1073 O 0.20619 0.25594 0.21332
 O1074 O 0.22348 0.28729 0.20868
 O1075 O 0.26581 0.25825 0.31069
 O1076 O 0.25521 0.22533 0.31069
 O1077 O 0.31065 0.26281 0.26236
 O1078 O 0.31140 0.25500 0.22609
 O1079 O 0.26292 0.30784 0.26627
 O1080 O 0.22743 0.30920 0.25874
 O1081 O 0.24945 0.28725 0.29933
 O1082 O 0.21543 0.29259 0.28143
 O1083 O 0.29133 0.29623 0.24894
 O1084 O 0.29574 0.27869 0.21491
 O1085 O 0.29855 0.24619 0.29094
 O1086 O 0.28282 0.21155 0.29016
 O1087 O 0.24072 0.24085 0.19338
 O1088 O 0.24970 0.27669 0.19410
 O1089 O 0.19403 0.23884 0.24157
 O1090 O 0.19533 0.24868 0.27846
 O1091 O 0.24191 0.19212 0.23887
 O1092 O 0.27809 0.19313 0.25035
 Zr1093 Zr 0.26150 0.21781 0.23647
 O1094 O 0.28133 0.23537 0.25496
 Zr1095 Zr 0.21979 0.23551 0.26094
 O1096 O 0.23803 0.25305 0.28096
 Zr1097 Zr 0.23770 0.25998 0.21956
 O1098 O 0.25613 0.27920 0.23788
 Zr1099 Zr 0.26754 0.23995 0.28405
 O1100 O 0.24831 0.22074 0.26623
 Zr1101 Zr 0.28496 0.26510 0.24273
 O1102 O 0.26716 0.24670 0.22270
 Zr1103 Zr 0.24337 0.28212 0.26774
 O1104 O 0.22335 0.26523 0.24840
 O1105 O 0.23239 0.23076 0.23167
 O1106 O 0.27271 0.26958 0.27236
 C1107 C 0.24899 0.22299 0.19061
 C1108 C 0.22446 0.18955 0.24804
 C1109 C 0.19155 0.24797 0.22412
 C1110 C 0.25759 0.27608 0.31359
 C1111 C 0.31305 0.25456 0.28027
 C1112 C 0.28066 0.31051 0.25773
 H1113 H 0.29467 0.22800 0.25618
 H1114 H 0.25739 0.29267 0.23083
 H1115 H 0.22351 0.22217 0.22279
 H1116 H 0.23086 0.25394 0.29449
 H1117 H 0.24856 0.21250 0.30591
 H1118 H 0.21585 0.22066 0.29770
 H1119 H 0.28661 0.29054 0.21171
 H1120 H 0.26365 0.27103 0.19122
 H1121 H 0.28982 0.21267 0.30371
 H1122 H 0.27622 0.18046 0.24200
 H1123 H 0.23144 0.31222 0.24425
 H1124 H 0.21472 0.29251 0.22016
 H1125 H 0.29340 0.21962 0.21228
 H1126 H 0.31488 0.24095 0.23098
 H1127 H 0.19147 0.26178 0.27159
 H1128 H 0.21237 0.28361 0.29345
 O1129 O 0.79116 0.70600 0.25096
 O1130 O 0.79220 0.71694 0.21717
 O1131 O 0.79824 0.76284 0.28558
 O1132 O 0.78099 0.79207 0.29062
 O1133 O 0.75105 0.71781 0.30216
 O1134 O 0.71760 0.71092 0.28894
 O1135 O 0.73741 0.80686 0.23082
 O1136 O 0.77141 0.80948 0.23945
 O1137 O 0.73173 0.75403 0.19354
 O1138 O 0.74297 0.71866 0.19614
 O1139 O 0.69069 0.76112 0.24336
 O1140 O 0.69218 0.75811 0.27971
 O1141 O 0.70983 0.79632 0.25010
 O1142 O 0.70821 0.78320 0.28724
 O1143 O 0.70169 0.74101 0.21665
 O1144 O 0.72156 0.70756 0.21562
 O1145 O 0.74705 0.78453 0.20103
 O1146 O 0.78367 0.78671 0.21290
 O1147 O 0.76355 0.69523 0.27009
 O1148 O 0.72701 0.69331 0.26362
 O1149 O 0.76693 0.74799 0.30974
 O1150 O 0.75307 0.78372 0.30491
 O1151 O 0.80948 0.74217 0.25935
 O1152 O 0.80534 0.74891 0.22184
 Zr1153 Zr 0.78272 0.73614 0.24198
 O1154 O 0.76271 0.75118 0.22119
 Zr1155 Zr 0.76611 0.76466 0.28164
 O1156 O 0.74612 0.78139 0.26223
 Zr1157 Zr 0.74313 0.72057 0.27087
 O1158 O 0.72157 0.73543 0.25167
 Zr1159 Zr 0.75719 0.78128 0.23165
 O1160 O 0.77873 0.76697 0.25156
 Zr1161 Zr 0.73357 0.73725 0.22143
 O1162 O 0.75435 0.72051 0.24028
 Zr1163 Zr 0.71757 0.76635 0.26073
 O1164 O 0.73697 0.75049 0.28190
 O1165 O 0.77184 0.73456 0.27230
 O1166 O 0.72810 0.76769 0.23027
 C1167 C 0.78127 0.69231 0.26147
 C1168 C 0.81255 0.75346 0.27536
 C1169 C 0.76007 0.73008 0.31469
 C1170 C 0.71954 0.80976 0.23906
 C1171 C 0.73769 0.77228 0.18872
 C1172 C 0.68753 0.75051 0.22693
 H1173 H 0.76893 0.75128 0.20717
 H1174 H 0.70851 0.72767 0.25232
 H1175 H 0.78172 0.72730 0.28142
 H1176 H 0.74476 0.79563 0.26751
 H1177 H 0.78503 0.80593 0.24538
 H1178 H 0.77822 0.80235 0.27967
 H1179 H 0.71010 0.70519 0.22553
 H1180 H 0.73216 0.68871 0.24992
 H1181 H 0.78094 0.79913 0.20436
 H1182 H 0.81864 0.74157 0.22394
 H1183 H 0.69039 0.74305 0.27839
 H1184 H 0.71326 0.72294 0.29735
 H1185 H 0.78021 0.70830 0.21364
 H1186 H 0.75643 0.72385 0.19110
 H1187 H 0.74099 0.77632 0.31066
 H1188 H 0.71645 0.79597 0.28770
 O1189 O 0.70630 0.25059 0.78966
 O1190 O 0.71699 0.21679 0.79045
 O1191 O 0.76357 0.28444 0.79608
 O1192 O 0.79256 0.28921 0.77826
 O1193 O 0.71788 0.30124 0.74925
 O1194 O 0.71059 0.28779 0.71579
 O1195 O 0.80656 0.22943 0.73431
 O1196 O 0.80964 0.23820 0.76833
 O1197 O 0.75354 0.19242 0.72956
 O1198 O 0.71823 0.19540 0.74115
 O1199 O 0.76017 0.24187 0.68810
 O1200 O 0.75710 0.27840 0.68995
 O1201 O 0.79569 0.24853 0.70683
 O1202 O 0.78280 0.28535 0.70513
 O1203 O 0.74015 0.21543 0.69941
 O1204 O 0.70692 0.21473 0.71986
 O1205 O 0.78428 0.19990 0.74440
 O1206 O 0.78692 0.21195 0.78097
 O1207 O 0.69529 0.26957 0.76213
 O1208 O 0.69280 0.26289 0.72566
 O1209 O 0.74827 0.30854 0.76491
 O1210 O 0.78378 0.30348 0.75048
 O1211 O 0.74294 0.25849 0.80757
 O1212 O 0.74919 0.22106 0.80319
 Zr1213 Zr 0.73632 0.24123 0.78076
 O1214 O 0.75109 0.22030 0.76047
 Zr1215 Zr 0.76485 0.28043 0.76379
 O1216 O 0.78123 0.26089 0.74342
 Zr1217 Zr 0.72040 0.26994 0.74132
 O1218 O 0.73489 0.25050 0.71949
 Zr1219 Zr 0.78119 0.23049 0.75451
 O1220 O 0.76719 0.25050 0.77634
 Zr1221 Zr 0.73681 0.22040 0.73145
 O1222 O 0.72037 0.23950 0.75251
 Zr1223 Zr 0.76580 0.25930 0.71500
 O1224 O 0.75033 0.28064 0.73476
 O1225 O 0.73474 0.27141 0.76993
 O1226 O 0.76724 0.22900 0.72553
 C1227 C 0.69254 0.26115 0.77994
 C1228 C 0.75440 0.27432 0.81056
 C1229 C 0.73032 0.31364 0.75821
 C1230 C 0.80926 0.23754 0.71638
 C1231 C 0.77188 0.18757 0.73532
 C1232 C 0.74948 0.22553 0.68506
 H1233 H 0.75123 0.20638 0.76672
 H1234 H 0.72694 0.25111 0.70652
 H1235 H 0.72766 0.28060 0.77996
 H1236 H 0.79548 0.26604 0.74185
 H1237 H 0.80627 0.24418 0.78204
 H1238 H 0.80283 0.27831 0.77511
 H1239 H 0.70439 0.22460 0.70846
 H1240 H 0.68832 0.24923 0.73076
 H1241 H 0.79935 0.20340 0.77810
 H1242 H 0.74200 0.22326 0.81663
 H1243 H 0.74210 0.27662 0.68795
 H1244 H 0.72260 0.29609 0.71132
 H1245 H 0.70812 0.21337 0.77856
 H1246 H 0.72343 0.19059 0.75467
 H1247 H 0.77631 0.30906 0.73838
 H1248 H 0.79539 0.28612 0.71363
 N1249 N 0.07657 1.01483 1.18930
 C1250 C 0.07908 1.00018 1.17457
 N1251 N 0.09243 0.98439 1.17789
 N1252 N 0.10319 0.98343 1.19531
 C1253 C 0.10097 0.99820 1.21003
 N1254 N 0.08734 1.01385 1.20675
 C1255 C 0.06912 1.00216 1.15501
 C1256 C 0.06153 1.00366 1.13815
 C1257 C 0.05323 1.00505 1.11777
 N1258 N 0.06395 0.99715 1.10151
 N1259 N 0.05609 0.99784 1.08255
 C1260 C 0.03729 1.00650 1.07924
 N1261 N 0.02665 1.01454 1.09556
 N1262 N 0.03451 1.01385 1.11453
 N1263 N 0.57732 0.51275 0.69228
 C1264 C 0.58039 0.49843 0.67732
 N1265 N 0.59425 0.48305 0.68045
 N1266 N 0.60497 0.48217 0.69791
 C1267 C 0.60218 0.49663 0.71285
 N1268 N 0.58804 0.51186 0.70976
 C1269 C 0.57044 0.50041 0.65775
 C1270 C 0.56282 0.50204 0.64091
 C1271 C 0.55443 0.50369 0.62058
 N1272 N 0.56500 0.49592 0.60416
 N1273 N 0.55709 0.49697 0.58525
 C1274 C 0.53837 0.50590 0.58213
 N1275 N 0.52787 0.51380 0.59860
 N1276 N 0.53579 0.51274 0.61753
 N1277 N 0.43161 -0.00393 0.69748
 C1278 C 0.42214 -0.00307 0.67885
 N1279 N 0.40133 -0.00157 0.67815
 N1280 N 0.39025 -0.00095 0.69552
 C1281 C 0.39956 -0.00180 0.71424
 N1282 N 0.42049 -0.00331 0.71492
 C1283 C 0.43369 -0.00350 0.65993
 C1284 C 0.44216 -0.00362 0.64332
 C1285 C 0.45096 -0.00350 0.62298
 N1286 N 0.43936 0.00267 0.60673
 N1287 N 0.44729 0.00275 0.58767
 C1288 C 0.46708 -0.00336 0.58425
 N1289 N 0.47867 -0.00955 0.60057
 N1290 N 0.47074 -0.00964 0.61965
 N1291 N -0.07714 0.50924 1.19138
 C1292 C -0.07994 0.49413 1.17724
 N1293 N -0.09388 0.47916 1.18116
 N1294 N -0.10491 0.47939 1.19859
 C1295 C -0.10241 0.49461 1.21273
 N1296 N -0.08818 0.50946 1.20887
 C1297 C -0.06963 0.49472 1.15762
 C1298 C -0.06187 0.49498 1.14067
 C1299 C -0.05345 0.49507 1.12016
 N1300 N -0.06517 0.50141 1.10405
 N1301 N -0.05755 0.50113 1.08486
 C1302 C -0.03799 0.49442 1.08117
 N1303 N -0.02631 0.48806 1.09735
 N1304 N -0.03392 0.48834 1.11654
 N1305 N -0.08167 0.49829 0.31288
 C1306 C -0.09453 0.50194 0.32911
 N1307 N -0.11511 0.50358 0.32572
 N1308 N -0.12256 0.50175 0.30663
 C1309 C -0.10970 0.49817 0.29031
 N1310 N -0.08911 0.49646 0.29384
 C1311 C -0.08624 0.50411 0.34954
 C1312 C -0.07858 0.50573 0.36641
 C1313 C -0.06873 0.50728 0.38619
 N1314 N -0.07778 0.49930 0.40338
 N1315 N -0.06801 0.49956 0.42145
 C1316 C -0.04885 0.50782 0.42294
 N1317 N -0.03990 0.51593 0.40571
 N1318 N -0.04968 0.51567 0.38765
 N1319 N 0.41832 1.00092 -0.18604
 C1320 C 0.40516 1.00316 -0.16981
 N1321 N 0.38455 1.00368 -0.17333
 N1322 N 0.37737 1.00214 -0.19254
 C1323 C 0.39053 1.00001 -0.20891
 N1324 N 0.41114 0.99939 -0.20521
 C1325 C 0.41317 1.00503 -0.14923
 C1326 C 0.42067 1.00647 -0.13227
 C1327 C 0.43044 1.00789 -0.11245
 N1328 N 0.42139 0.99972 -0.09534
 N1329 N 0.43111 0.99991 -0.07725
 C1330 C 0.45022 1.00826 -0.07564
 N1331 N 0.45916 1.01656 -0.09278
 N1332 N 0.44943 1.01637 -0.11087
 N1333 N 0.58068 0.49766 -0.18705
 C1334 C 0.59342 0.49890 -0.17061
 N1335 N 0.61409 0.50016 -0.17393
 N1336 N 0.62174 0.50017 -0.19317
 C1337 C 0.60897 0.49891 -0.20970
 N1338 N 0.58831 0.49766 -0.20622
 C1339 C 0.58486 0.49879 -0.15003
 C1340 C 0.57672 0.49858 -0.13318
 C1341 C 0.56610 0.49821 -0.11358
 N1342 N 0.57491 0.50611 -0.09639
 N1343 N 0.56473 0.50607 -0.07838
 C1344 C 0.54539 0.49816 -0.07696
 N1345 N 0.53665 0.49025 -0.09422
 N1346 N 0.54682 0.49029 -0.11221
 N1347 N 0.11334 0.00235 0.32315
 C1348 C 0.09266 0.00184 0.32658
 N1349 N 0.07980 0.00092 0.31021
 N1350 N 0.08733 0.00051 0.29100
 C1351 C 0.10800 0.00100 0.28743
 N1352 N 0.12089 0.00195 0.30388
 C1353 C 0.08423 0.00201 0.34720
 C1354 C 0.07621 0.00195 0.36410
 C1355 C 0.06573 0.00160 0.38376
 N1356 N 0.04638 -0.00612 0.38522
 N1357 N 0.03644 -0.00642 0.40332
 C1358 C 0.04549 0.00103 0.42062
 N1359 N 0.06489 0.00878 0.41912
 N1360 N 0.07484 0.00908 0.40098
 N1361 N 0.19123 1.07148 0.99984
 C1362 C 0.17290 1.08162 0.99891
 N1363 N 0.17269 1.10241 0.99731
 N1364 N 0.19029 1.11283 0.99683
 C1365 C 0.20871 1.10282 0.99786
 N1366 N 0.20888 1.08193 0.99934
 C1367 C 0.15380 1.07079 1.00016
 C1368 C 0.13720 1.06268 1.00125
 C1369 C 0.11700 1.05403 1.00234
 N1370 N 0.10079 1.06446 0.99422
 N1371 N 0.08192 1.05652 0.99504
 C1372 C 0.07863 1.03793 1.00409
 N1373 N 0.09489 1.02756 1.01232
 N1374 N 0.11379 1.03551 1.01149
 N1375 N 0.69251 0.57129 0.50060
 C1376 C 0.67414 0.58133 0.49933
 N1377 N 0.67388 0.60205 0.49692
 N1378 N 0.69143 0.61251 0.49601
 C1379 C 0.70989 0.60261 0.49740
 N1380 N 0.71013 0.58178 0.49968
 C1381 C 0.65508 0.57052 0.50122
 C1382 C 0.63847 0.56250 0.50283
 C1383 C 0.61820 0.55406 0.50448
 N1384 N 0.60188 0.56485 0.49710
 N1385 N 0.58294 0.55710 0.49829
 C1386 C 0.57971 0.53834 0.50700
 N1387 N 0.59609 0.52760 0.51451
 N1388 N 0.61506 0.53537 0.51331
 N1389 N 0.67662 0.39638 -0.00199
 C1390 C 0.67669 0.41718 -0.00328
 N1391 N 0.69499 0.42723 -0.00396
 N1392 N 0.71272 0.41669 -0.00342
 C1393 C 0.71273 0.39574 -0.00214
 N1394 N 0.69427 0.38587 -0.00145
 C1395 C 0.65747 0.42812 -0.00390
 C1396 C 0.64073 0.43623 -0.00427
 C1397 C 0.62035 0.44486 -0.00445
 N1398 N 0.61708 0.46451 -0.01082
 N1399 N 0.59806 0.47244 -0.01077
 C1400 C 0.58172 0.46095 -0.00442
 N1401 N 0.58507 0.44126 0.00187
 N1402 N 0.60407 0.43334 0.00183
 N1403 N 0.19423 -0.07398 0.50932
 C1404 C 0.18002 -0.07721 0.49440
 N1405 N 0.18414 -0.09107 0.47928
 N1406 N 0.20180 -0.10162 0.47921
 C1407 C 0.21600 -0.09869 0.49425
 N1408 N 0.21195 -0.08453 0.50923
 C1409 C 0.16021 -0.06739 0.49534
 C1410 C 0.14316 -0.05994 0.49589
 C1411 C 0.12262 -0.05172 0.49628
 N1412 N 0.10667 -0.06346 0.50300
 N1413 N 0.08747 -0.05602 0.50295
 C1414 C 0.08361 -0.03659 0.49610
 N1415 N 0.09963 -0.02489 0.48937
 N1416 N 0.11883 -0.03234 0.48943
 N1417 N 0.31581 -0.07667 0.49772
 C1418 C 0.33213 -0.08931 0.50124
 N1419 N 0.32894 -0.10990 0.50285
 N1420 N 0.30998 -0.11758 0.50110
 C1421 C 0.29356 -0.10494 0.49764
 N1422 N 0.29688 -0.08434 0.49597
 C1423 C 0.35246 -0.08080 0.50337
 C1424 C 0.36928 -0.07309 0.50504
 C1425 C 0.38909 -0.06337 0.50677
 N1426 N 0.40629 -0.07259 0.49896
 N1427 N 0.42448 -0.06314 0.49975
 C1428 C 0.42611 -0.04413 0.50836
 N1429 N 0.40886 -0.03499 0.51626
 N1430 N 0.39068 -0.04444 0.51547
 N1431 N -0.18917 0.41847 1.00018
 C1432 C -0.17248 0.40587 1.00138
 N1433 N -0.17531 0.38515 1.00117
 N1434 N -0.19427 0.37733 0.99989
 C1435 C -0.21108 0.38994 0.99876
 N1436 N -0.20808 0.41066 0.99891
 C1437 C -0.15215 0.41455 1.00288
 C1438 C -0.13537 0.42249 1.00406
 C1439 C -0.11567 0.43255 1.00525
 N1440 N -0.09834 0.42316 0.99795
 N1441 N -0.08026 0.43285 0.99830
 C1442 C -0.07885 0.45229 1.00596
 N1443 N -0.09623 0.46162 1.01334
 N1444 N -0.11431 0.45191 1.01299
 N1445 N -0.19015 0.57806 0.49996
 C1446 C -0.17349 0.59053 0.50062
 N1447 N -0.17638 0.61125 0.50114
 N1448 N -0.19541 0.61923 0.50099
 C1449 C -0.21215 0.60675 0.50030
 N1450 N -0.20912 0.58602 0.49981
 C1451 C -0.15314 0.58166 0.50058
 C1452 C -0.13642 0.57340 0.50042
 C1453 C -0.11692 0.56277 0.50009
 N1454 N -0.09979 0.57168 0.50789
 N1455 N -0.08181 0.56158 0.50776
 C1456 C -0.08038 0.54222 0.49988
 N1457 N -0.09758 0.53336 0.49208
 N1458 N -0.11554 0.54346 0.49220
 N1459 N 0.30876 1.07805 0.00045
 C1460 C 0.32540 1.09054 0.00137
 N1461 N 0.32247 1.11126 0.00199
 N1462 N 0.30344 1.11921 0.00170
 C1463 C 0.28672 1.10671 0.00076
 N1464 N 0.28978 1.08599 0.00016
 C1465 C 0.34576 1.08173 0.00151
 C1466 C 0.36251 1.07353 0.00149
 C1467 C 0.38204 1.06297 0.00129
 N1468 N 0.39912 1.07198 0.00912
 N1469 N 0.41714 1.06195 0.00908
 C1470 C 0.41866 1.04257 0.00124
 N1471 N 0.40152 1.03363 -0.00658
 N1472 N 0.38353 1.04365 -0.00654
 N1473 N -0.01057 1.18977 1.07746
 C1474 C 0.00480 1.17567 1.07961
 N1475 N 0.02017 1.17932 1.09313
 N1476 N 0.02015 1.19652 1.10428
 C1477 C 0.00474 1.21066 1.10237
 N1478 N -0.01058 1.20702 1.08863
 C1479 C 0.00426 1.15644 1.06889
 C1480 C 0.00411 1.13978 1.06078
 C1481 C 0.00406 1.11955 1.05205
 N1482 N 0.01237 1.11600 1.03307
 N1483 N 0.01250 1.09704 1.02520
 C1484 C 0.00444 1.08104 1.03610
 N1485 N -0.00379 1.08467 1.05512
 N1486 N -0.00393 1.10361 1.06299
 N1487 N 0.50157 0.69453 0.57330
 C1488 C 0.49929 0.67631 0.58336
 N1489 N 0.49589 0.67629 0.60404
 N1490 N 0.49498 0.69394 0.61443
 C1491 C 0.49735 0.71224 0.60451
 N1492 N 0.50064 0.71223 0.58372
 C1493 C 0.50102 0.65712 0.57264
 C1494 C 0.50240 0.64044 0.56465
 C1495 C 0.50372 0.62014 0.55617
 N1496 N 0.49637 0.60391 0.56714
 N1497 N 0.49716 0.58498 0.55928
 C1498 C 0.50542 0.58164 0.54021
 N1499 N 0.51289 0.59792 0.52929
 N1500 N 0.51209 0.61688 0.53717
 N1501 N -0.01766 0.69051 0.42428
 C1502 C -0.00316 0.67558 0.42169
 N1503 N 0.01278 0.67883 0.40845
 N1504 N 0.01406 0.69637 0.39785
 C1505 C -0.00056 0.71131 0.40012
 N1506 N -0.01637 0.70810 0.41368
 C1507 C -0.00535 0.65592 0.43147
 C1508 C -0.00681 0.63894 0.43881
 C1509 C -0.00798 0.61840 0.44678
 N1510 N -0.00207 0.60225 0.43480
 N1511 N -0.00238 0.58314 0.44233
 C1512 C -0.00864 0.57957 0.46209
 N1513 N -0.01467 0.59577 0.47401
 N1514 N -0.01436 0.61489 0.46648
 N1515 N 0.48122 1.19063 -0.07569
 C1516 C 0.49614 1.17594 -0.07702
 N1517 N 0.51304 1.17944 -0.08892
 N1518 N 0.51487 1.19697 -0.09944
 C1519 C 0.49987 1.21166 -0.09844
 N1520 N 0.48307 1.20822 -0.08622
 C1521 C 0.49355 1.15629 -0.06732
 C1522 C 0.49191 1.13931 -0.06001
 C1523 C 0.49067 1.11876 -0.05205
 N1524 N 0.49660 1.10261 -0.06401
 N1525 N 0.49639 1.08351 -0.05644
 C1526 C 0.49023 1.07996 -0.03664
 N1527 N 0.48417 1.09617 -0.02474
 N1528 N 0.48438 1.11527 -0.03232
 N1529 N 0.50321 0.31157 -0.07699
 C1530 C 0.50520 0.32785 -0.08998
 N1531 N 0.50532 0.32453 -0.11070
 N1532 N 0.50361 0.30546 -0.11816
 C1533 C 0.50169 0.28909 -0.10516
 N1534 N 0.50151 0.29254 -0.08444
 C1535 C 0.50714 0.34830 -0.08172
 C1536 C 0.50862 0.36519 -0.07412
 C1537 C 0.51001 0.38503 -0.06439
 N1538 N 0.50224 0.40208 -0.07375
 N1539 N 0.50241 0.42023 -0.06413
 C1540 C 0.51036 0.42197 -0.04482
 N1541 N 0.51826 0.40488 -0.03556
 N1542 N 0.51809 0.38674 -0.04518
 N1543 N 0.00269 -0.18879 0.42156
 C1544 C 0.00346 -0.17241 0.40857
 N1545 N 0.00257 -0.17567 0.38786
 N1546 N 0.00103 -0.19476 0.38042
 C1547 C 0.00030 -0.21123 0.39342
 N1548 N 0.00115 -0.20783 0.41413
 C1549 C 0.00520 -0.15194 0.41682
 C1550 C 0.00658 -0.13504 0.42444
 C1551 C 0.00797 -0.11523 0.43422
 N1552 N 0.00046 -0.09810 0.42480
 N1553 N 0.00089 -0.07992 0.43436
 C1554 C 0.00885 -0.07824 0.45367
 N1555 N 0.01646 -0.09541 0.46300
 N1556 N 0.01603 -0.11359 0.45344
 N1557 N 0.50415 -0.18789 0.58018
 C1558 C 0.50431 -0.17127 0.59282
 N1559 N 0.50334 -0.17418 0.61360
 N1560 N 0.50224 -0.19318 0.62146
 C1561 C 0.50203 -0.20988 0.60881
 N1562 N 0.50304 -0.20684 0.58803
 C1563 C 0.50505 -0.15092 0.58409
 C1564 C 0.50542 -0.13416 0.57598
 C1565 C 0.50552 -0.11462 0.56551
 N1566 N 0.51333 -0.09761 0.57471
 N1567 N 0.51328 -0.07953 0.56485
 C1568 C 0.50545 -0.07788 0.54547
 N1569 N 0.49769 -0.09495 0.53633
 N1570 N 0.49774 -0.11300 0.54618
 N1571 N 0.00261 0.32377 1.11129
 C1572 C 0.00405 0.32641 1.09050
 N1573 N 0.00574 0.30962 1.07818
 N1574 N 0.00595 0.29078 1.08635
 C1575 C 0.00447 0.28800 1.10714
 N1576 N 0.00282 0.30488 1.11948
 C1577 C 0.00347 0.34661 1.08141
 C1578 C 0.00290 0.36325 1.07306
 C1579 C 0.00211 0.38271 1.06248
 N1580 N -0.00631 0.38406 1.04338
 N1581 N -0.00695 0.40203 1.03340
 C1582 C 0.00085 0.41929 1.04217
 N1583 N 0.00928 0.41789 1.06131
 N1584 N 0.00992 0.39990 1.07129
 N1585 N 0.77749 0.32673 0.05527
 C1586 C 0.76348 0.32700 0.07107
 N1587 N 0.74519 0.33666 0.06827
 N1588 N 0.74106 0.34601 0.05049
 C1589 C 0.75497 0.34614 0.03464
 N1590 N 0.77329 0.33613 0.03732
 C1591 C 0.76760 0.31789 0.09095
 C1592 C 0.76908 0.31108 0.10829
 C1593 C 0.76897 0.30355 0.12928
 N1594 N 0.75858 0.31410 0.14423
 N1595 N 0.75686 0.30645 0.16333
 C1596 C 0.76545 0.28794 0.16814
 N1597 N 0.77599 0.27748 0.15316
 N1598 N 0.77769 0.28512 0.13406
 N1599 N 0.27812 0.83392 0.55966
 C1600 C 0.26291 0.83337 0.57425
 N1601 N 0.24431 0.84181 0.56990
 N1602 N 0.24102 0.85074 0.55170
 C1603 C 0.25615 0.85155 0.53706
 N1604 N 0.27479 0.84288 0.54134
 C1605 C 0.26614 0.82454 0.59438
 C1606 C 0.26727 0.81760 0.61167
 C1607 C 0.26706 0.80959 0.63242
 N1608 N 0.25629 0.81954 0.64752
 N1609 N 0.25458 0.81137 0.66639
 C1610 C 0.26356 0.79293 0.67080
 N1611 N 0.27446 0.78310 0.65568
 N1612 N 0.27616 0.79126 0.63681
 N1613 N 0.73440 0.66947 0.56642
 C1614 C 0.75312 0.67636 0.57221
 N1615 N 0.76979 0.67251 0.55989
 N1616 N 0.76773 0.66185 0.54237
 C1617 C 0.74894 0.65464 0.53676
 N1618 N 0.73236 0.65882 0.54905
 C1619 C 0.75500 0.68607 0.59198
 C1620 C 0.75490 0.69337 0.60909
 C1621 C 0.75340 0.70127 0.62974
 N1622 N 0.76025 0.68988 0.64592
 N1623 N 0.75778 0.69665 0.66523
 C1624 C 0.74814 0.71492 0.66902
 N1625 N 0.74123 0.72625 0.65278
 N1626 N 0.74370 0.71948 0.63346
 N1627 N 0.26935 0.17301 0.05975
 C1628 C 0.25302 0.17637 0.07265
 N1629 N 0.23432 0.16886 0.06756
 N1630 N 0.23199 0.15812 0.05029
 C1631 C 0.24824 0.15445 0.03741
 N1632 N 0.26699 0.16226 0.04234
 C1633 C 0.25530 0.18625 0.09227
 C1634 C 0.25562 0.19365 0.10933
 C1635 C 0.25466 0.20156 0.12999
 N1636 N 0.24527 0.21988 0.13393
 N1637 N 0.24322 0.22661 0.15330
 C1638 C 0.25026 0.21512 0.16938
 N1639 N 0.25960 0.19675 0.16536
 N1640 N 0.26166 0.19003 0.14600
 N1641 N 0.27542 0.17723 0.94606
 C1642 C 0.26032 0.18229 0.93246
 N1643 N 0.24105 0.17498 0.93560
 N1644 N 0.23694 0.16283 0.95165
 C1645 C 0.25195 0.15747 0.96520
 N1646 N 0.27126 0.16508 0.96226
 C1647 C 0.26463 0.19318 0.91361
 C1648 C 0.26625 0.20097 0.89674
 C1649 C 0.26603 0.20847 0.87587
 N1650 N 0.27214 0.22788 0.87102
 N1651 N 0.27038 0.23489 0.85168
 C1652 C 0.26231 0.22277 0.83666
 N1653 N 0.25629 0.20339 0.84163
 N1654 N 0.25809 0.19639 0.86088
 N1655 N 0.77637 0.67736 0.44552
 C1656 C 0.76131 0.68224 0.43182
 N1657 N 0.74211 0.67470 0.43484
 N1658 N 0.73804 0.66251 0.45088
 C1659 C 0.75302 0.65735 0.46453
 N1660 N 0.77226 0.66517 0.46171
 C1661 C 0.76559 0.69321 0.41299
 C1662 C 0.76717 0.70103 0.39612
 C1663 C 0.76688 0.70849 0.37522
 N1664 N 0.77274 0.72797 0.37030
 N1665 N 0.77086 0.73491 0.35094
 C1666 C 0.76291 0.72265 0.33597
 N1667 N 0.75715 0.70321 0.34101
 N1668 N 0.75907 0.69628 0.36028
 N1669 N 0.27860 0.82869 0.43859
 C1670 C 0.26198 0.82014 0.42927
 N1671 N 0.24305 0.82287 0.43783
 N1672 N 0.24067 0.83419 0.45481
 C1673 C 0.25710 0.84316 0.46399
 N1674 N 0.27621 0.84000 0.45572
 C1675 C 0.26355 0.81059 0.40925
 C1676 C 0.26315 0.80339 0.39204
 C1677 C 0.26122 0.79559 0.37132
 N1678 N 0.27023 0.80557 0.35520
 N1679 N 0.26724 0.79922 0.33585
 C1680 C 0.25498 0.78279 0.33193
 N1681 N 0.24597 0.77283 0.34812
 N1682 N 0.24896 0.77919 0.36746
 N1683 N 0.74275 0.33172 0.93112
 C1684 C 0.76054 0.32110 0.92840
 N1685 N 0.77510 0.32173 0.94346
 N1686 N 0.77188 0.33287 0.96063
 C1687 C 0.75404 0.34380 0.96321
 N1688 N 0.73960 0.34280 0.94811
 C1689 C 0.76361 0.31031 0.90915
 C1690 C 0.76414 0.30243 0.89221
 C1691 C 0.76301 0.29421 0.87155
 N1692 N 0.75092 0.27771 0.86752
 N1693 N 0.74822 0.27131 0.84813
 C1694 C 0.75734 0.28134 0.83203
 N1695 N 0.76946 0.29784 0.83612
 N1696 N 0.77215 0.30422 0.85551
 N1697 N 0.82640 0.43793 0.27402
 C1698 C 0.81741 0.42916 0.25730
 N1699 N 0.81900 0.43862 0.23870
 N1700 N 0.82970 0.45593 0.23669
 C1701 C 0.83913 0.46456 0.25321
 N1702 N 0.83708 0.45539 0.27202
 C1703 C 0.80880 0.40881 0.25825
 C1704 C 0.80237 0.39141 0.25743
 C1705 C 0.79540 0.37054 0.25519
 N1706 N 0.80605 0.35474 0.26388
 N1707 N 0.80013 0.33532 0.26102
 C1708 C 0.78347 0.33100 0.24917
 N1709 N 0.77289 0.34687 0.24042
 N1710 N 0.77882 0.36629 0.24328
 N1711 N 0.32474 0.93775 0.73903
 C1712 C 0.31936 0.93094 0.75809
 N1713 N 0.32535 0.94182 0.77494
 N1714 N 0.33669 0.95885 0.77271
 C1715 C 0.34247 0.96540 0.75355
 N1716 N 0.33608 0.95462 0.73682
 C1717 C 0.30947 0.91125 0.75996
 C1718 C 0.30210 0.89420 0.75990
 C1719 C 0.29424 0.87358 0.75849
 N1720 N 0.27732 0.86959 0.74698
 N1721 N 0.27084 0.85028 0.74451
 C1722 C 0.28121 0.83428 0.75329
 N1723 N 0.29817 0.83835 0.76478
 N1724 N 0.30463 0.85765 0.76725
 N1725 N 0.17508 0.93552 0.23957
 C1726 C 0.18220 0.93189 0.25886
 N1727 N 0.17720 0.94527 0.27428
 N1728 N 0.16529 0.96170 0.27045
 C1729 C 0.15785 0.96512 0.25112
 N1730 N 0.16316 0.95180 0.23578
 C1731 C 0.19274 0.91278 0.26281
 C1732 C 0.20024 0.89579 0.26419
 C1733 C 0.20747 0.87483 0.26380
 N1734 N 0.22678 0.86961 0.27000
 N1735 N 0.23351 0.85020 0.26820
 C1736 C 0.22119 0.83545 0.26002
 N1737 N 0.20190 0.84078 0.25391
 N1738 N 0.19519 0.86011 0.25574
 N1739 N 0.67849 0.44429 0.77702
 C1740 C 0.68429 0.43155 0.76133
 N1741 N 0.67792 0.43581 0.74190
 N1742 N 0.66592 0.45206 0.73823
 C1743 C 0.65978 0.46472 0.75383
 N1744 N 0.66650 0.46070 0.77331
 C1745 C 0.69476 0.41234 0.76504
 C1746 C 0.70222 0.39530 0.76620
 C1747 C 0.70941 0.37432 0.76554
 N1748 N 0.69704 0.35969 0.75745
 N1749 N 0.70374 0.34038 0.75533
 C1750 C 0.72310 0.33498 0.76117
 N1751 N 0.73550 0.34964 0.76938
 N1752 N 0.72879 0.36903 0.77146
 N1753 N 0.67359 0.55969 0.77094
 C1754 C 0.67581 0.57267 0.75455
 N1755 N 0.66758 0.56744 0.73616
 N1756 N 0.65725 0.54995 0.73419
 C1757 C 0.65472 0.53697 0.75049
 N1758 N 0.66323 0.54207 0.76893
 C1759 C 0.68553 0.59238 0.75643
 C1760 C 0.69284 0.60942 0.75641
 C1761 C 0.70078 0.62999 0.75503
 N1762 N 0.68977 0.64607 0.76282
 N1763 N 0.69652 0.66530 0.76048
 C1764 C 0.71438 0.66912 0.75007
 N1765 N 0.72534 0.65298 0.74223
 N1766 N 0.71859 0.63374 0.74458
 N1767 N 0.16804 0.06766 0.23337
 C1768 C 0.17638 0.07259 0.25179
 N1769 N 0.17391 0.05955 0.26809
 N1770 N 0.16319 0.04216 0.26596
 C1771 C 0.15456 0.03737 0.24750
 N1772 N 0.15734 0.05041 0.23128
 C1773 C 0.18641 0.09210 0.25388
 C1774 C 0.19397 0.10901 0.25415
 C1775 C 0.20215 0.12949 0.25322
 N1776 N 0.19128 0.14553 0.26128
 N1777 N 0.19827 0.16471 0.25939
 C1778 C 0.21626 0.16853 0.24920
 N1779 N 0.22709 0.15242 0.24110
 N1780 N 0.22009 0.13323 0.24298
 N1781 N 0.33122 0.06112 0.77781
 C1782 C 0.32934 0.07530 0.76243
 N1783 N 0.33660 0.07070 0.74332
 N1784 N 0.34576 0.05268 0.73969
 C1785 C 0.34798 0.03849 0.75499
 N1786 N 0.34039 0.04297 0.77415
 C1787 C 0.32076 0.09543 0.76608
 C1788 C 0.31413 0.11279 0.76749
 C1789 C 0.30656 0.13363 0.76761
 N1790 N 0.31700 0.14857 0.75727
 N1791 N 0.30928 0.16761 0.75591
 C1792 C 0.29081 0.17234 0.76481
 N1793 N 0.28046 0.15736 0.77526
 N1794 N 0.28818 0.13833 0.77661
 N1795 N 0.83786 0.57045 0.24150
 C1796 C 0.82936 0.57469 0.26019
 N1797 N 0.82973 0.56001 0.27521
 N1798 N 0.83859 0.54170 0.27160
 C1799 C 0.84733 0.53752 0.25287
 N1800 N 0.84668 0.55225 0.23792
 C1801 C 0.82075 0.59483 0.26381
 C1802 C 0.81406 0.61216 0.26537
 C1803 C 0.80641 0.63298 0.26577
 N1804 N 0.78815 0.63756 0.27510
 N1805 N 0.78041 0.65661 0.27409
 C1806 C 0.79061 0.67172 0.26369
 N1807 N 0.80896 0.66710 0.25447
 N1808 N 0.81671 0.64805 0.25549
 N1809 N 0.93376 0.24134 0.16799
 C1810 C 0.93069 0.25985 0.17714
 N1811 N 0.94532 0.27464 0.17501
 N1812 N 0.96247 0.27094 0.16398
 C1813 C 0.96545 0.25238 0.15463
 N1814 N 0.95079 0.23768 0.15698
 C1815 C 0.91142 0.26366 0.18763
 C1816 C 0.89442 0.26507 0.19528
 C1817 C 0.87354 0.26479 0.20290
 N1818 N 0.86868 0.27098 0.22240
 N1819 N 0.84939 0.26917 0.22958
 C1820 C 0.83441 0.26098 0.21755
 N1821 N 0.83938 0.25490 0.19805
 N1822 N 0.85858 0.25674 0.19088
 N1823 N 0.43109 0.74634 0.67271
 C1824 C 0.42835 0.76544 0.68065
 N1825 N 0.44290 0.78003 0.67697
 N1826 N 0.45963 0.77556 0.66556
 C1827 C 0.46220 0.75642 0.65735
 N1828 N 0.44767 0.74193 0.66130
 C1829 C 0.40926 0.77004 0.69111
 C1830 C 0.39225 0.77181 0.69863
 C1831 C 0.37127 0.77162 0.70595
 N1832 N 0.36625 0.77697 0.72566
 N1833 N 0.34693 0.77478 0.73263
 C1834 C 0.33208 0.76700 0.72015
 N1835 N 0.33720 0.76179 0.70045
 N1836 N 0.35643 0.76404 0.69350
 N1837 N 0.44287 0.27360 0.82812
 C1838 C 0.43048 0.25743 0.82352
 N1839 N 0.43590 0.23834 0.82998
 N1840 N 0.45293 0.23547 0.84097
 C1841 C 0.46526 0.25153 0.84593
 N1842 N 0.46004 0.27069 0.83912
 C1843 C 0.41092 0.26021 0.81351
 C1844 C 0.39395 0.26088 0.80594
 C1845 C 0.37340 0.26020 0.79772
 N1846 N 0.36934 0.24865 0.78078
 N1847 N 0.35004 0.24663 0.77411
 C1848 C 0.33410 0.25594 0.78427
 N1849 N 0.33822 0.26751 0.80122
 N1850 N 0.35752 0.26953 0.80788
 N1851 N 0.94432 0.77183 0.32405
 C1852 C 0.92913 0.75746 0.32406
 N1853 N 0.93145 0.74024 0.33561
 N1854 N 0.94828 0.73744 0.34688
 C1855 C 0.96354 0.75170 0.34715
 N1856 N 0.96129 0.76898 0.33538
 C1857 C 0.91021 0.76028 0.31291
 C1858 C 0.89355 0.76098 0.30470
 C1859 C 0.87314 0.76036 0.29614
 N1860 N 0.86914 0.74842 0.27945
 N1861 N 0.84986 0.74629 0.27272
 C1862 C 0.83389 0.75585 0.28260
 N1863 N 0.83797 0.76781 0.29928
 N1864 N 0.85723 0.76995 0.30599
 N1865 N 0.06695 0.74174 0.33112
 C1866 C 0.07215 0.76140 0.32658
 N1867 N 0.05871 0.77687 0.33136
 N1868 N 0.04076 0.77273 0.34076
 C1869 C 0.03575 0.75299 0.34570
 N1870 N 0.04913 0.73764 0.34052
 C1871 C 0.09237 0.76541 0.31829
 C1872 C 0.10981 0.76706 0.31185
 C1873 C 0.13079 0.76738 0.30447
 N1874 N 0.13557 0.77630 0.28609
 N1875 N 0.15470 0.77498 0.27847
 C1876 C 0.16969 0.76464 0.28889
 N1877 N 0.16488 0.75584 0.30736
 N1878 N 0.14574 0.75717 0.31499
 N1879 N 0.57067 0.24145 0.83551
 C1880 C 0.57528 0.26080 0.82928
 N1881 N 0.56127 0.27616 0.83251
 N1882 N 0.54331 0.27224 0.84199
 C1883 C 0.53885 0.25284 0.84856
 N1884 N 0.55284 0.23756 0.84498
 C1885 C 0.59532 0.26468 0.82052
 C1886 C 0.61263 0.26625 0.81370
 C1887 C 0.63344 0.26647 0.80588
 N1888 N 0.64854 0.25609 0.81603
 N1889 N 0.66753 0.25475 0.80804
 C1890 C 0.67205 0.26373 0.78958
 N1891 N 0.65692 0.27424 0.77953
 N1892 N 0.63794 0.27556 0.78752
 N1893 N 0.56328 0.73625 0.67437
 C1894 C 0.57039 0.75514 0.67933
 N1895 N 0.55924 0.77208 0.67390
 N1896 N 0.54162 0.77011 0.66350
 C1897 C 0.53473 0.75113 0.65814
 N1898 N 0.54581 0.73430 0.66396
 C1899 C 0.59044 0.75674 0.68836
 C1900 C 0.60769 0.75646 0.69518
 C1901 C 0.62841 0.75476 0.70264
 N1902 N 0.64444 0.76193 0.69115
 N1903 N 0.66377 0.75941 0.69760
 C1904 C 0.66774 0.74941 0.71563
 N1905 N 0.65165 0.74217 0.72704
 N1906 N 0.63232 0.74470 0.72060
 N1907 N 0.06514 0.23735 0.17736
 C1908 C 0.07303 0.25637 0.18021
 N1909 N 0.06285 0.27300 0.17244
 N1910 N 0.04546 0.27055 0.16176
 C1911 C 0.03785 0.25137 0.15846
 N1912 N 0.04792 0.23491 0.16666
 C1913 C 0.09313 0.25811 0.18916
 C1914 C 0.11040 0.25779 0.19593
 C1915 C 0.13111 0.25588 0.20341
 N1916 N 0.14721 0.26310 0.19206
 N1917 N 0.16653 0.26028 0.19847
 C1918 C 0.17040 0.24992 0.21632
 N1919 N 0.15423 0.24263 0.22759
 N1920 N 0.13493 0.24546 0.22118
 N1921 N -0.07304 0.99960 0.80514
 C1922 C -0.08284 1.00179 0.82363
 N1923 N -0.10347 1.00516 0.82407
 N1924 N -0.11407 1.00615 0.80657
 C1925 C -0.10441 1.00387 0.78799
 N1926 N -0.08367 1.00060 0.78759
 C1927 C -0.07188 0.99995 0.84265
 C1928 C -0.06369 0.99846 0.85922
 C1929 C -0.05509 0.99701 0.87947
 N1930 N -0.06561 1.00490 0.89585
 N1931 N -0.05777 1.00377 0.91477
 C1932 C -0.03918 0.99463 0.91797
 N1933 N -0.02869 0.98663 0.90154
 N1934 N -0.03654 0.98777 0.88258
 N1935 N 0.39726 0.50860 0.32680
 C1936 C 0.41797 0.50576 0.32649
 N1937 N 0.42789 0.50348 0.30807
 N1938 N 0.41730 0.50384 0.29047
 C1939 C 0.39648 0.50653 0.29076
 N1940 N 0.38670 0.50894 0.30926
 C1941 C 0.42885 0.50419 0.34557
 C1942 C 0.43699 0.50270 0.36216
 C1943 C 0.44559 0.50102 0.38239
 N1944 N 0.46396 0.49141 0.38540
 N1945 N 0.47175 0.48985 0.40436
 C1946 C 0.46135 0.49776 0.42089
 N1947 N 0.44293 0.50728 0.41779
 N1948 N 0.43515 0.50883 0.39886
 N1949 N 0.58888 0.02005 0.31692
 C1950 C 0.57718 0.00361 0.32202
 N1951 N 0.57649 -0.01274 0.30900
 N1952 N 0.58743 -0.01267 0.29144
 C1953 C 0.59952 0.00368 0.28643
 N1954 N 0.59981 0.02010 0.29944
 C1955 C 0.56722 0.00305 0.34180
 C1956 C 0.55987 0.00323 0.35892
 C1957 C 0.55201 0.00393 0.37962
 N1958 N 0.56411 -0.00199 0.39560
 N1959 N 0.55702 -0.00097 0.41496
 C1960 C 0.53766 0.00614 0.41895
 N1961 N 0.52563 0.01215 0.40289
 N1962 N 0.53272 0.01113 0.38353
 N1963 N 0.09167 0.52232 0.81694
 C1964 C 0.07742 0.50765 0.82094
 N1965 N 0.07430 0.49255 0.80685
 N1966 N 0.08527 0.49207 0.78933
 C1967 C 0.09978 0.50663 0.78537
 N1968 N 0.10264 0.52182 0.79947
 C1969 C 0.06710 0.50728 0.84056
 C1970 C 0.05925 0.50700 0.85748
 C1971 C 0.05068 0.50657 0.87793
 N1972 N 0.06240 0.50026 0.89405
 N1973 N 0.05450 0.49974 0.91312
 C1974 C 0.03464 0.50556 0.91668
 N1975 N 0.02296 0.51194 0.90050
 N1976 N 0.03086 0.51246 0.88142
 N1977 N 0.07740 0.50242 0.68577
 C1978 C 0.08991 0.49840 0.66936
 N1979 N 0.11054 0.49654 0.67239
 N1980 N 0.11838 0.49853 0.69130
 C1981 C 0.10586 0.50248 0.70780
 N1982 N 0.08523 0.50440 0.70463
 C1983 C 0.08122 0.49602 0.64912
 C1984 C 0.07332 0.49420 0.63239
 C1985 C 0.06338 0.49240 0.61269
 N1986 N 0.07263 0.49966 0.59529
 N1987 N 0.06295 0.49893 0.57720
 C1988 C 0.04368 0.49092 0.57587
 N1989 N 0.03450 0.48354 0.59331
 N1990 N 0.04419 0.48428 0.61141
 N1991 N 0.57754 0.99844 0.18689
 C1992 C 0.59023 0.99635 0.17027
 N1993 N 0.61096 0.99622 0.17315
 N1994 N 0.61873 0.99804 0.19212
 C1995 C 0.60601 1.00010 0.20883
 N1996 N 0.58529 1.00026 0.20580
 C1997 C 0.58159 0.99441 0.14997
 C1998 C 0.57357 0.99297 0.13324
 C1999 C 0.56336 0.99163 0.11364
 N2000 N 0.57244 0.99914 0.09625
 N2001 N 0.56251 0.99882 0.07828
 C2002 C 0.54315 0.99099 0.07706
 N2003 N 0.53414 0.98338 0.09449
 N2004 N 0.54407 0.98371 0.11246
 N2005 N 0.42082 0.49915 0.19074
 C2006 C 0.40832 0.49802 0.17410
 N2007 N 0.38756 0.49789 0.17706
 N2008 N 0.37958 0.49889 0.19614
 C2009 C 0.39210 0.50006 0.21286
 N2010 N 0.41286 0.50015 0.20975
 C2011 C 0.41720 0.49734 0.15368
 C2012 C 0.42549 0.49701 0.13691
 C2013 C 0.43617 0.49692 0.11735
 N2014 N 0.42706 0.48939 0.10015
 N2015 N 0.43709 0.48941 0.08206
 C2016 C 0.45659 0.49694 0.08058
 N2017 N 0.46565 0.50443 0.09785
 N2018 N 0.45562 0.50441 0.11592
 N2019 N -0.08004 -0.00264 0.68795
 C2020 C -0.09242 -0.00155 0.67120
 N2021 N -0.11316 -0.00016 0.67405
 N2022 N -0.12123 0.00020 0.69310
 C2023 C -0.10883 -0.00081 0.70994
 N2024 N -0.08810 -0.00227 0.70695
 C2025 C -0.08339 -0.00143 0.65083
 C2026 C -0.07497 -0.00120 0.63412
 C2027 C -0.06417 -0.00084 0.61463
 N2028 N -0.04492 0.00718 0.61335
 N2029 N -0.03465 0.00725 0.59541
 C2030 C -0.04326 -0.00073 0.57813
 N2031 N -0.06257 -0.00874 0.57945
 N2032 N -0.07284 -0.00881 0.59740
 N2033 N -0.19648 0.93037 1.00286
 C2034 C -0.17802 0.92076 1.00531
 N2035 N -0.17746 0.90013 1.00837
 N2036 N -0.19482 0.88933 1.00880
 C2037 C -0.21336 0.89880 1.00624
 N2038 N -0.21390 0.91954 1.00331
 C2039 C -0.15911 0.93184 1.00369
 C2040 C -0.14256 0.94000 1.00220
 C2041 C -0.12232 0.94843 1.00053
 N2042 N -0.10601 0.93771 1.00802
 N2043 N -0.08702 0.94524 1.00638
 C2044 C -0.08372 0.96372 0.99710
 N2045 N -0.10009 0.97442 0.98953
 N2046 N -0.11911 0.96686 0.99117
 N2047 N 0.30735 0.42510 0.51652
 C2048 C 0.32194 0.42294 0.50150
 N2049 N 0.31904 0.40909 0.48620
 N2050 N 0.30212 0.39763 0.48595
 C2051 C 0.28750 0.39953 0.50099
 N2052 N 0.29035 0.41361 0.51623
 C2053 C 0.34094 0.43395 0.50229
 C2054 C 0.35754 0.44211 0.50234
 C2055 C 0.37780 0.45067 0.50192
 N2056 N 0.39387 0.43976 0.50969
 N2057 N 0.41294 0.44720 0.50859
 C2058 C 0.41658 0.46573 0.49955
 N2059 N 0.40045 0.47662 0.49174
 N2060 N 0.38136 0.46917 0.49284
 N2061 N 0.30398 0.56645 0.00229
 C2062 C 0.32230 0.57644 0.00118
 N2063 N 0.32242 0.59719 -0.00079
 N2064 N 0.30479 0.60772 -0.00156
 C2065 C 0.28638 0.59789 -0.00042
 N2066 N 0.28627 0.57702 0.00151
 C2067 C 0.34152 0.56551 0.00217
 C2068 C 0.35830 0.55750 0.00289
 C2069 C 0.37876 0.54910 0.00357
 N2070 N 0.39498 0.56064 -0.00282
 N2071 N 0.41410 0.55304 -0.00219
 C2072 C 0.41763 0.53365 0.00491
 N2073 N 0.40134 0.52213 0.01133
 N2074 N 0.38221 0.52974 0.01071
 N2075 N -0.19445 0.06888 0.50235
 C2076 C -0.17592 0.07844 0.50106
 N2077 N -0.17535 0.09913 0.49858
 N2078 N -0.19275 0.11002 0.49752
 C2079 C -0.21144 0.10065 0.49885
 N2080 N -0.21193 0.07980 0.50129
 C2081 C -0.15695 0.06716 0.50245
 C2082 C -0.14030 0.05891 0.50344
 C2083 C -0.11990 0.05039 0.50425
 N2084 N -0.10357 0.06205 0.49842
 N2085 N -0.08452 0.05429 0.49884
 C2086 C -0.08116 0.03461 0.50517
 N2087 N -0.09755 0.02298 0.51109
 N2088 N -0.11663 0.03075 0.51067
 N2089 N 0.67690 0.11354 0.49541
 C2090 C 0.67372 0.09287 0.49539
 N2091 N 0.69018 0.08001 0.49684
 N2092 N 0.70920 0.08750 0.49816
 C2093 C 0.71257 0.10817 0.49811
 N2094 N 0.69599 0.12105 0.49673
 C2095 C 0.65326 0.08448 0.49387
 C2096 C 0.63642 0.07665 0.49274
 C2097 C 0.61667 0.06665 0.49173
 N2098 N 0.61513 0.04741 0.48370
 N2099 N 0.59708 0.03764 0.48375
 C2100 C 0.57991 0.04677 0.49183
 N2101 N 0.58148 0.06609 0.49975
 N2102 N 0.59954 0.07586 0.49970
 N2103 N 0.17257 0.60852 0.99459
 C2104 C 0.16939 0.58787 0.99506
 N2105 N 0.18580 0.57505 0.99738
 N2106 N 0.20478 0.58259 0.99905
 C2107 C 0.20810 0.60325 0.99851
 N2108 N 0.19160 0.61608 0.99627
 C2109 C 0.14898 0.57950 0.99306
 C2110 C 0.13210 0.57187 0.99151
 C2111 C 0.11224 0.56218 0.98999
 N2112 N 0.11062 0.54300 0.98186
 N2113 N 0.09244 0.53351 0.98145
 C2114 C 0.07522 0.54288 0.98915
 N2115 N 0.07688 0.56215 0.99715
 N2116 N 0.09507 0.57164 0.99756
 N2117 N 0.17457 0.38819 0.49799
 C2118 C 0.17149 0.40877 0.49564
 N2119 N 0.18803 0.42135 0.49423
 N2120 N 0.20708 0.41365 0.49517
 C2121 C 0.21031 0.39308 0.49758
 N2122 N 0.19368 0.38047 0.49892
 C2123 C 0.15105 0.41741 0.49521
 C2124 C 0.13424 0.42548 0.49508
 C2125 C 0.11462 0.43587 0.49523
 N2126 N 0.11300 0.45527 0.50284
 N2127 N 0.09486 0.46504 0.50311
 C2128 C 0.07771 0.45574 0.49576
 N2129 N 0.07937 0.43630 0.48811
 N2130 N 0.09753 0.42653 0.48784
 N2131 N 0.68669 0.92148 -0.00147
 C2132 C 0.67024 0.90875 -0.00217
 N2133 N 0.67343 0.88806 -0.00176
 N2134 N 0.69254 0.88037 -0.00067
 C2135 C 0.70907 0.89313 0.00007
 N2136 N 0.70574 0.91382 -0.00038
 C2137 C 0.64980 0.91733 -0.00285
 C2138 C 0.63302 0.92544 -0.00315
 C2139 C 0.61347 0.93596 -0.00316
 N2140 N 0.59635 0.92667 -0.01053
 N2141 N 0.57825 0.93654 -0.01035
 C2142 C 0.57668 0.95604 -0.00283
 N2143 N 0.59388 0.96529 0.00450
 N2144 N 0.61196 0.95542 0.00432
 N2145 N 0.00102 0.80411 0.93217
 C2146 C 0.00317 0.82260 0.92258
 N2147 N 0.00603 0.82319 0.90183
 N2148 N 0.00652 0.80587 0.89091
 C2149 C 0.00427 0.78730 0.90034
 N2150 N 0.00154 0.78672 0.92121
 C2151 C 0.00146 0.84153 0.93376
 C2152 C -0.00008 0.85817 0.94181
 C2153 C -0.00177 0.87860 0.94992
 N2154 N 0.00498 0.89473 0.93845
 N2155 N 0.00337 0.91387 0.94566
 C2156 C -0.00515 0.91752 0.96455
 N2157 N -0.01199 0.90132 0.97600
 N2158 N -0.01038 0.88215 0.96877
 N2159 N 0.52033 0.32086 0.41122
 C2160 C 0.50506 0.32381 0.42536
 N2161 N 0.49086 0.30885 0.42838
 N2162 N 0.49175 0.29154 0.41737
 C2163 C 0.50686 0.28862 0.40295
 N2164 N 0.52122 0.30355 0.40020
 C2165 C 0.50283 0.34333 0.43541
 C2166 C 0.50083 0.36017 0.44296
 C2167 C 0.49862 0.38059 0.45100
 N2168 N 0.49007 0.38390 0.46993
 N2169 N 0.48828 0.40299 0.47733
 C2170 C 0.49490 0.41936 0.46600
 N2171 N 0.50334 0.41596 0.44702
 N2172 N 0.50513 0.39690 0.43963
 N2173 N -0.00882 0.30576 0.57265
 C2174 C 0.00605 0.32009 0.57538
 N2175 N 0.02107 0.31655 0.58939
 N2176 N 0.02111 0.29931 0.60055
 C2177 C 0.00612 0.28499 0.59812
 N2178 N -0.00877 0.28847 0.58381
 C2179 C 0.00507 0.33955 0.56500
 C2180 C 0.00443 0.35639 0.55721
 C2181 C 0.00382 0.37680 0.54883
 N2182 N 0.01049 0.38051 0.52926
 N2183 N 0.01028 0.39962 0.52171
 C2184 C 0.00348 0.41562 0.53350
 N2185 N -0.00317 0.41184 0.55309
 N2186 N -0.00296 0.39273 0.56064
 N2187 N 0.48983 0.80646 0.07457
 C2188 C 0.50458 0.82087 0.07751
 N2189 N 0.51940 0.81743 0.09176
 N2190 N 0.51937 0.80020 0.10292
 C2191 C 0.50452 0.78578 0.10025
 N2192 N 0.48983 0.78917 0.08573
 C2193 C 0.50372 0.84027 0.06701
 C2194 C 0.50316 0.85706 0.05912
 C2195 C 0.50265 0.87742 0.05062
 N2196 N 0.50932 0.88101 0.03104
 N2197 N 0.50919 0.90008 0.02339
 C2198 C 0.50244 0.91617 0.03510
 N2199 N 0.49578 0.91250 0.05471
 N2200 N 0.49592 0.89343 0.06236
 N2201 N 0.50296 0.68611 0.07888
 C2202 C 0.49913 0.66991 0.09156
 N2203 N 0.49711 0.67324 0.11220
 N2204 N 0.49875 0.69223 0.11987
 C2205 C 0.50249 0.70852 0.10718
 N2206 N 0.50459 0.70506 0.08654
 C2207 C 0.49705 0.64960 0.08303
 C2208 C 0.49543 0.63280 0.07526
 C2209 C 0.49382 0.61301 0.06545
 N2210 N 0.48596 0.61145 0.04614
 N2211 N 0.48535 0.59327 0.03661
 C2212 C 0.49259 0.57601 0.04608
 N2213 N 0.50035 0.57762 0.06547
 N2214 N 0.50096 0.59580 0.07500
 N2215 N -0.00314 0.17273 0.61137
 C2216 C -0.00147 0.16915 0.59074
 N2217 N 0.00262 0.18512 0.57785
 N2218 N 0.00482 0.20409 0.58529
 C2219 C 0.00307 0.20782 0.60590
 N2220 N -0.00093 0.19175 0.61882
 C2221 C -0.00410 0.14879 0.58245
 C2222 C -0.00610 0.13196 0.57482
 C2223 C -0.00801 0.11217 0.56509
 N2224 N -0.01573 0.11070 0.54570
 N2225 N -0.01625 0.09255 0.53608
 C2226 C -0.00909 0.07524 0.54553
 N2227 N -0.00153 0.07676 0.56501
 N2228 N -0.00100 0.09490 0.57463
 N2229 N 0.50239 0.17605 0.38945
 C2230 C 0.50371 0.17261 0.41013
 N2231 N 0.50506 0.18892 0.42307
 N2232 N 0.50510 0.20805 0.41564
 C2233 C 0.50380 0.21164 0.39498
 N2234 N 0.50243 0.19525 0.38200
 C2235 C 0.50378 0.15208 0.41849
 C2236 C 0.50394 0.13528 0.42652
 C2237 C 0.50422 0.11574 0.43702
 N2238 N 0.49640 0.09866 0.42799
 N2239 N 0.49632 0.08071 0.43806
 C2240 C 0.50401 0.07923 0.45751
 N2241 N 0.51185 0.09637 0.46648
 N2242 N 0.51193 0.11430 0.45641
 N2243 N -0.00067 0.68682 0.92167
 C2244 C -0.00164 0.67057 0.90861
 N2245 N -0.00216 0.67409 0.88791
 N2246 N -0.00170 0.69331 0.88055
 C2247 C -0.00070 0.70965 0.89363
 N2248 N -0.00021 0.70599 0.91432
 C2249 C -0.00184 0.64999 0.91684
 C2250 C -0.00184 0.63309 0.92469
 C2251 C -0.00164 0.61343 0.93495
 N2252 N -0.00980 0.59654 0.92586
 N2253 N -0.00983 0.57845 0.93569
 C2254 C -0.00174 0.57665 0.95495
 N2255 N 0.00642 0.59360 0.96397
 N2256 N 0.00646 0.61167 0.95415
 N2257 N 0.25580 0.66157 0.92861
 C2258 C 0.23681 0.66932 0.92469
 N2259 N 0.22161 0.66708 0.93912
 N2260 N 0.22534 0.65715 0.95685
 C2261 C 0.24438 0.64912 0.96065
 N2262 N 0.25949 0.65167 0.94621
 C2263 C 0.23312 0.67880 0.90495
 C2264 C 0.23175 0.68610 0.88783
 C2265 C 0.23181 0.69426 0.86714
 N2266 N 0.22322 0.71290 0.86299
 N2267 N 0.22471 0.72102 0.84408
 C2268 C 0.23491 0.71082 0.82870
 N2269 N 0.24339 0.69211 0.83290
 N2270 N 0.24189 0.68400 0.85180
 N2271 N 0.72538 0.17130 0.44136
 C2272 C 0.73924 0.17055 0.42545
 N2273 N 0.75717 0.16019 0.42807
 N2274 N 0.76110 0.15065 0.44581
 C2275 C 0.74733 0.15103 0.46177
 N2276 N 0.72937 0.16171 0.45926
 C2277 C 0.73528 0.17987 0.40562
 C2278 C 0.73384 0.18678 0.38831
 C2279 C 0.73387 0.19428 0.36731
 N2280 N 0.74436 0.18379 0.35238
 N2281 N 0.74575 0.19126 0.33319
 C2282 C 0.73671 0.20953 0.32824
 N2283 N 0.72612 0.21995 0.34321
 N2284 N 0.72475 0.21248 0.36241
 N2285 N 0.22982 0.32653 0.44207
 C2286 C 0.24712 0.31874 0.43290
 N2287 N 0.26566 0.32213 0.44165
 N2288 N 0.26701 0.33336 0.45874
 C2289 C 0.24987 0.34159 0.46776
 N2290 N 0.23116 0.33774 0.45931
 C2291 C 0.24656 0.30964 0.41275
 C2292 C 0.24763 0.30300 0.39540
 C2293 C 0.25007 0.29599 0.37451
 N2294 N 0.26013 0.27807 0.37037
 N2295 N 0.26304 0.27197 0.35089
 C2296 C 0.25623 0.28372 0.33490
 N2297 N 0.24629 0.30174 0.33912
 N2298 N 0.24338 0.30783 0.35859
 N2299 N 0.73027 0.82802 0.94202
 C2300 C 0.74755 0.82375 0.93073
 N2301 N 0.76606 0.83006 0.93773
 N2302 N 0.76731 0.84061 0.95525
 C2303 C 0.75012 0.84524 0.96649
 N2304 N 0.73153 0.83856 0.95969
 C2305 C 0.74654 0.81442 0.91070
 C2306 C 0.74718 0.80744 0.89345
 C2307 C 0.74907 0.79988 0.87269
 N2308 N 0.75904 0.78186 0.86879
 N2309 N 0.76145 0.77522 0.84943
 C2310 C 0.75418 0.78650 0.83330
 N2311 N 0.74432 0.80462 0.83727
 N2312 N 0.74192 0.81125 0.85664
 N2313 N 0.71971 0.82424 0.05763
 C2314 C 0.73447 0.81988 0.07183
 N2315 N 0.75364 0.82759 0.06911
 N2316 N 0.75798 0.83945 0.05291
 C2317 C 0.74331 0.84411 0.03875
 N2318 N 0.72410 0.83611 0.04126
 C2319 C 0.72993 0.80916 0.09074
 C2320 C 0.72828 0.80151 0.10767
 C2321 C 0.72866 0.79413 0.12861
 N2322 N 0.73598 0.80664 0.14357
 N2323 N 0.73847 0.79968 0.16276
 C2324 C 0.73379 0.77991 0.16769
 N2325 N 0.72629 0.76738 0.15271
 N2326 N 0.72386 0.77436 0.13343
 N2327 N 0.22358 0.32486 0.55769
 C2328 C 0.23722 0.32415 0.57352
 N2329 N 0.25483 0.33517 0.57210
 N2330 N 0.25876 0.34658 0.55546
 C2331 C 0.24522 0.34745 0.53956
 N2332 N 0.22756 0.33630 0.54093
 C2333 C 0.23311 0.31291 0.59223
 C2334 C 0.23151 0.30477 0.60894
 C2335 C 0.23167 0.29683 0.62967
 N2336 N 0.22662 0.27699 0.63398
 N2337 N 0.22860 0.26959 0.65316
 C2338 C 0.23584 0.28176 0.66855
 N2339 N 0.24076 0.30159 0.66413
 N2340 N 0.23873 0.30897 0.64505
 N2341 N 0.72869 0.17700 0.55265
 C2342 C 0.74349 0.17754 0.56748
 N2343 N 0.76098 0.16645 0.56468
 N2344 N 0.76360 0.15502 0.54785
 C2345 C 0.74892 0.15411 0.53299
 N2346 N 0.73138 0.16551 0.53563
 C2347 C 0.74090 0.18861 0.58665
 C2348 C 0.74064 0.19661 0.60353
 C2349 C 0.74186 0.20488 0.62418
 N2350 N 0.73292 0.19477 0.64026
 N2351 N 0.73544 0.20132 0.65961
 C2352 C 0.74720 0.21810 0.66363
 N2353 N 0.75615 0.22821 0.64749
 N2354 N 0.75363 0.22163 0.62813
 N2355 N 0.22480 0.67080 0.05750
 C2356 C 0.24163 0.67683 0.06832
 N2357 N 0.26062 0.67134 0.06141
 N2358 N 0.26278 0.65987 0.04451
 C2359 C 0.24608 0.65345 0.03379
 N2360 N 0.22698 0.65933 0.04045
 C2361 C 0.23982 0.68705 0.08798
 C2362 C 0.23993 0.69475 0.10498
 C2363 C 0.24134 0.70300 0.12556
 N2364 N 0.23235 0.69306 0.14172
 N2365 N 0.23473 0.69990 0.16097
 C2366 C 0.24635 0.71682 0.16480
 N2367 N 0.25537 0.72674 0.14858
 N2368 N 0.25299 0.71988 0.12931
 N2369 N 0.17326 0.56009 0.72191
 C2370 C 0.18169 0.56977 0.73843
 N2371 N 0.17862 0.56189 0.75757
 N2372 N 0.16709 0.54522 0.76027
 C2373 C 0.15823 0.53569 0.74393
 N2374 N 0.16175 0.54325 0.72461
 C2375 C 0.19134 0.58957 0.73647
 C2376 C 0.19850 0.60669 0.73656
 C2377 C 0.20610 0.62740 0.73814
 N2378 N 0.22269 0.63157 0.75006
 N2379 N 0.22876 0.65096 0.75287
 C2380 C 0.21831 0.66686 0.74402
 N2381 N 0.20170 0.66262 0.73209
 N2382 N 0.19564 0.64324 0.72929
 N2383 N 0.67846 0.05359 0.22396
 C2384 C 0.67943 0.06881 0.23839
 N2385 N 0.66802 0.06716 0.25585
 N2386 N 0.65591 0.05102 0.25886
 C2387 C 0.65458 0.03576 0.24458
 N2388 N 0.66628 0.03725 0.22705
 C2389 C 0.69110 0.08734 0.23538
 C2390 C 0.69936 0.10395 0.23505
 C2391 C 0.70751 0.12446 0.23648
 N2392 N 0.69709 0.14048 0.22793
 N2393 N 0.70316 0.15978 0.23111
 C2394 C 0.71972 0.16380 0.24319
 N2395 N 0.73017 0.14772 0.25173
 N2396 N 0.72406 0.12839 0.24855
 N2397 N 0.83232 0.07084 0.75134
 C2398 C 0.82081 0.07126 0.73399
 N2399 N 0.82110 0.05464 0.72123
 N2400 N 0.83264 0.03811 0.72580
 C2401 C 0.84433 0.03775 0.74322
 N2402 N 0.84381 0.05444 0.75585
 C2403 C 0.80951 0.08978 0.72927
 C2404 C 0.80151 0.10651 0.72736
 C2405 C 0.79391 0.12737 0.72732
 N2406 N 0.77394 0.13196 0.72293
 N2407 N 0.76688 0.15125 0.72496
 C2408 C 0.77952 0.16648 0.73163
 N2409 N 0.79948 0.16177 0.73588
 N2410 N 0.80651 0.14258 0.73378
 N2411 N 0.32465 0.56807 0.25636
 C2412 C 0.31752 0.57065 0.23692
 N2413 N 0.32247 0.55644 0.22225
 N2414 N 0.33434 0.54020 0.22698
 C2415 C 0.34178 0.53783 0.24646
 N2416 N 0.33653 0.55199 0.26103
 C2417 C 0.30685 0.58948 0.23201
 C2418 C 0.29920 0.60635 0.22994
 C2419 C 0.29181 0.62726 0.22971
 N2420 N 0.27198 0.63199 0.22489
 N2421 N 0.26502 0.65133 0.22673
 C2422 C 0.27763 0.66648 0.23363
 N2423 N 0.29745 0.66164 0.23832
 N2424 N 0.30439 0.64240 0.23642
 N2425 N 0.32997 0.43663 0.26916
 C2426 C 0.32437 0.42924 0.25051
 N2427 N 0.32867 0.44042 0.23322
 N2428 N 0.33857 0.45836 0.23462
 C2429 C 0.34455 0.46558 0.25335
 N2430 N 0.33987 0.45443 0.27054
 C2431 C 0.31563 0.40902 0.24945
 C2432 C 0.30902 0.39170 0.25007
 C2433 C 0.30175 0.37094 0.25197
 N2434 N 0.28390 0.36692 0.26226
 N2435 N 0.27745 0.34759 0.26458
 C2436 C 0.28874 0.33160 0.25689
 N2437 N 0.30668 0.33568 0.24672
 N2438 N 0.31314 0.35502 0.24440
 N2439 N 0.82693 0.94095 0.72948
 C2440 C 0.82059 0.93084 0.74681
 N2441 N 0.82437 0.93921 0.76553
 N2442 N 0.83456 0.95684 0.76697
 C2443 C 0.84133 0.96686 0.74977
 N2444 N 0.83711 0.95874 0.73093
 C2445 C 0.81196 0.91054 0.74594
 C2446 C 0.80546 0.89318 0.74676
 C2447 C 0.79828 0.87239 0.74893
 N2448 N 0.80977 0.85642 0.74161
 N2449 N 0.80343 0.83707 0.74421
 C2450 C 0.78550 0.83303 0.75444
 N2451 N 0.77411 0.84907 0.76187
 N2452 N 0.78045 0.86841 0.75926
 N2453 N 0.66422 0.93194 0.25770
 C2454 C 0.67090 0.92709 0.23843
 N2455 N 0.66836 0.94101 0.22291
 N2456 N 0.65912 0.95912 0.22658
 C2457 C 0.65213 0.96385 0.24590
 N2458 N 0.65500 0.94994 0.26134
 C2459 C 0.67953 0.90695 0.23478
 C2460 C 0.68624 0.88961 0.23333
 C2461 C 0.69392 0.86877 0.23320
 N2462 N 0.71222 0.86410 0.22400
 N2463 N 0.72008 0.84512 0.22543
 C2464 C 0.70996 0.83017 0.23615
 N2465 N 0.69155 0.83487 0.24520
 N2466 N 0.68369 0.85385 0.24376
 N2467 N 0.15906 0.43032 0.75635
 C2468 C 0.16848 0.42647 0.73801
 N2469 N 0.16847 0.44132 0.72315
 N2470 N 0.15912 0.45942 0.72658
 C2471 C 0.14951 0.46322 0.74497
 N2472 N 0.14975 0.44832 0.75975
 C2473 C 0.17785 0.40662 0.73465
 C2474 C 0.18514 0.38952 0.73338
 C2475 C 0.19340 0.36892 0.73347
 N2476 N 0.21213 0.36475 0.72492
 N2477 N 0.22040 0.34595 0.72654
 C2478 C 0.21026 0.33072 0.73681
 N2479 N 0.19145 0.33493 0.74523
 N2480 N 0.18318 0.35371 0.74360
 N2481 N 0.05432 0.72226 0.82270
 C2482 C 0.06789 0.73742 0.81779
 N2483 N 0.06489 0.75649 0.82569
 N2484 N 0.04903 0.76034 0.83827
 C2485 C 0.03552 0.74526 0.84349
 N2486 N 0.03829 0.72615 0.83528
 C2487 C 0.08663 0.73336 0.80648
 C2488 C 0.10346 0.73202 0.79848
 C2489 C 0.12435 0.73263 0.79093
 N2490 N 0.13911 0.74056 0.80324
 N2491 N 0.15834 0.74275 0.79630
 C2492 C 0.16355 0.73714 0.77672
 N2493 N 0.14877 0.72907 0.76436
 N2494 N 0.12943 0.72693 0.77132
 N2495 N 0.56756 0.25870 0.32638
 C2496 C 0.57032 0.23961 0.31839
 N2497 N 0.55658 0.22460 0.32329
 N2498 N 0.54064 0.22863 0.33594
 C2499 C 0.53809 0.24774 0.34422
 N2500 N 0.55177 0.26268 0.33902
 C2501 C 0.58895 0.23533 0.30694
 C2502 C 0.60568 0.23358 0.29875
 C2503 C 0.62650 0.23353 0.29092
 N2504 N 0.63121 0.22724 0.27140
 N2505 N 0.65054 0.22860 0.26421
 C2506 C 0.66572 0.23641 0.27627
 N2507 N 0.66088 0.24260 0.29576
 N2508 N 0.64164 0.24120 0.30293
 N2509 N 0.55971 0.72523 0.17460
 C2510 C 0.56896 0.74208 0.18278
 N2511 N 0.56054 0.76090 0.17946
 N2512 N 0.54376 0.76295 0.16793
 C2513 C 0.53467 0.74628 0.15931
 N2514 N 0.54278 0.72728 0.16308
 C2515 C 0.58883 0.74076 0.19244
 C2516 C 0.60598 0.74120 0.19958
 C2517 C 0.62671 0.74294 0.20714
 N2518 N 0.64263 0.73412 0.19660
 N2519 N 0.66199 0.73672 0.20283
 C2520 C 0.66616 0.74841 0.21969
 N2521 N 0.65019 0.75727 0.23019
 N2522 N 0.63080 0.75467 0.22395
 N2523 N 0.06190 0.26103 0.67769
 C2524 C 0.07032 0.24227 0.68137
 N2525 N 0.06116 0.22529 0.67337
 N2526 N 0.04431 0.22714 0.66169
 C2527 C 0.03620 0.24606 0.65756
 N2528 N 0.04522 0.26288 0.66599
 C2529 C 0.09010 0.24114 0.69125
 C2530 C 0.10717 0.24173 0.69857
 C2531 C 0.12782 0.24362 0.70633
 N2532 N 0.13164 0.25518 0.72333
 N2533 N 0.15094 0.25788 0.72979
 C2534 C 0.16709 0.24930 0.71932
 N2535 N 0.16319 0.23779 0.70227
 N2536 N 0.14391 0.23509 0.69583
 N2537 N 0.93023 0.25612 0.65784
 C2538 C 0.92636 0.23763 0.66670
 N2539 N 0.94140 0.22295 0.66664
 N2540 N 0.95970 0.22667 0.65776
 C2541 C 0.96351 0.24519 0.64867
 N2542 N 0.94842 0.25981 0.64898
 C2543 C 0.90628 0.23391 0.67544
 C2544 C 0.88898 0.23231 0.68228
 C2545 C 0.86817 0.23197 0.69012
 N2546 N 0.86373 0.22282 0.70847
 N2547 N 0.84477 0.22411 0.71652
 C2548 C 0.82961 0.23463 0.70653
 N2549 N 0.83407 0.24363 0.68807
 N2550 N 0.85304 0.24233 0.68002
 N2551 N 0.44009 0.72270 0.16825
 C2552 C 0.42490 0.73723 0.16829
 N2553 N 0.42856 0.75573 0.15936
 N2554 N 0.44670 0.75958 0.15047
 C2555 C 0.46194 0.74512 0.15018
 N2556 N 0.45833 0.72658 0.15933
 C2557 C 0.40487 0.73335 0.17711
 C2558 C 0.38758 0.73169 0.18396
 C2559 C 0.36675 0.73135 0.19174
 N2560 N 0.35159 0.74137 0.18134
 N2561 N 0.33260 0.74276 0.18929
 C2562 C 0.32811 0.73419 0.20796
 N2563 N 0.34329 0.72401 0.21825
 N2564 N 0.36229 0.72263 0.21030
 N2565 N 0.43551 0.26733 0.33739
 C2566 C 0.43025 0.24933 0.32844
 N2567 N 0.44319 0.23284 0.33009
 N2568 N 0.46080 0.23438 0.34059
 C2569 C 0.46593 0.25243 0.34981
 N2570 N 0.45298 0.26884 0.34786
 C2571 C 0.41058 0.24790 0.31853
 C2572 C 0.39358 0.24813 0.31108
 C2573 C 0.37305 0.24951 0.30300
 N2574 N 0.36947 0.25920 0.28476
 N2575 N 0.35029 0.26119 0.27769
 C2576 C 0.33402 0.25377 0.28874
 N2577 N 0.33767 0.24418 0.30706
 N2578 N 0.35684 0.24219 0.31412
 N2579 N 0.93459 0.76701 0.83309
 C2580 C 0.92821 0.74878 0.82544
 N2581 N 0.93996 0.73164 0.82855
 N2582 N 0.95750 0.73277 0.83923
 C2583 C 0.96370 0.75106 0.84720
 N2584 N 0.95197 0.76812 0.84375
 C2585 C 0.90842 0.74783 0.81576
 C2586 C 0.89133 0.74851 0.80855
 C2587 C 0.87071 0.75039 0.80084
 N2588 N 0.85453 0.74354 0.81230
 N2589 N 0.83530 0.74590 0.80555
 C2590 C 0.83156 0.75541 0.78721
 N2591 N 0.84780 0.76238 0.77583
 N2592 N 0.86705 0.76002 0.78259
   
