data_POSCAR
  _audit_creation_date              2014-09-24
  _audit_creation_method            'ToBaCCo'
  _symmetry_space_group_name_H-M    'P1'
  _symmetry_Int_Tables_number       1
  _symmetry_cell_setting            triclinic
  loop_
  _symmetry_equiv_pos_as_xyz
 x,y,z
_cell_length_a 44.4366
_cell_length_b 44.7375
_cell_length_c 44.2632
_cell_angle_alpha 90.133100
_cell_angle_beta 89.795200
_cell_angle_gamma 89.840300
loop_
  _atom_site_label
  _atom_site_type_symbol
  _atom_site_fract_x
  _atom_site_fract_y
  _atom_site_fract_z
C1 C 0.39105 0.01642 0.30185
 H2 H 0.37322 0.03222 0.29777
 C3 C 0.40751 0.01878 0.32847
 H4 H 0.40170 0.03586 0.34488
 C5 C 0.42080 -0.02473 0.28598
 H6 H 0.42629 -0.04132 0.26907
 C7 C 0.43813 -0.02294 0.31240
 H8 H 0.45628 -0.03870 0.31608
 N9 N 0.39722 -0.00563 0.28150
 C10 C 0.39424 -0.02965 0.19014
 H11 H 0.37614 -0.04557 0.19240
 C12 C 0.41157 -0.02951 0.16395
 H13 H 0.40675 -0.04530 0.14603
 C14 C 0.42167 0.01147 0.20966
 H15 H 0.42503 0.02763 0.22755
 C16 C 0.43966 0.01238 0.18360
 H17 H 0.45674 0.02943 0.18121
 Zn18 Zn 0.37299 -0.00876 0.24578
 N19 N 0.39919 -0.00907 0.21215
 C20 C 0.34973 0.04550 0.22018
 N21 N 0.34641 0.02526 0.24294
 C22 C 0.32512 0.02943 0.26478
 C23 C 0.30758 0.05544 0.26532
 C24 C 0.33236 0.07173 0.21969
 C25 C 0.36444 -0.07186 0.25090
 C26 C 0.34810 -0.09847 0.25366
 C27 C 0.30251 -0.07067 0.24453
 C28 C 0.31968 -0.04455 0.24197
 N29 N 0.35004 -0.04533 0.24619
 H30 H 0.36642 0.04179 0.20275
 H31 H 0.32257 0.01302 0.28251
 H32 H 0.29164 0.05904 0.28353
 H33 H 0.33603 0.08803 0.20204
 H34 H 0.38856 -0.07236 0.25346
 H35 H 0.35973 -0.11899 0.25943
 H36 H 0.27820 -0.06930 0.24310
 H37 H 0.30853 -0.02357 0.23746
 C38 C 0.43415 -0.00816 0.16033
 C39 C 0.43105 -0.00114 0.33412
 C40 C 0.31670 -0.09787 0.25112
 C41 C 0.31141 0.07712 0.24291
 C42 C 0.07930 -0.01131 0.70745
 H43 H 0.07639 -0.03015 0.72244
 C44 C 0.06226 -0.00942 0.68085
 H45 H 0.04650 -0.02698 0.67531
 C46 C 0.10435 0.03383 0.69555
 H47 H 0.12067 0.05075 0.70114
 C48 C 0.08817 0.03634 0.66871
 H49 H 0.09255 0.05486 0.65362
 N50 N 0.10053 0.00972 0.71385
 C51 C 0.10929 -0.02488 0.80153
 H52 H 0.12539 -0.04163 0.79460
 C53 C 0.09563 -0.02732 0.82980
 H54 H 0.10149 -0.04572 0.84453
 C55 C 0.08223 0.01971 0.79150
 H56 H 0.07766 0.03834 0.77664
 C57 C 0.06770 0.01788 0.81956
 H58 H 0.05185 0.03511 0.82621
 Zn59 Zn 0.12666 0.00470 0.74784
 N60 N 0.10328 -0.00104 0.78345
 C61 C 0.14917 0.05730 0.77771
 N62 N 0.15170 0.03907 0.75305
 C63 C 0.17243 0.04468 0.73114
 C64 C 0.19023 0.07031 0.73254
 C65 C 0.16669 0.08323 0.78004
 C66 C 0.14792 -0.04927 0.71920
 C67 C 0.16510 -0.07559 0.71784
 C68 C 0.19224 -0.05902 0.76192
 C69 C 0.17480 -0.03302 0.76234
 N70 N 0.15239 -0.02908 0.74185
 H71 H 0.13319 0.05220 0.79536
 H72 H 0.17447 0.02964 0.71206
 H73 H 0.20576 0.07519 0.71432
 H74 H 0.16365 0.09811 0.79913
 H75 H 0.13039 -0.04560 0.70279
 H76 H 0.16043 -0.09208 0.70056
 H77 H 0.20897 -0.06261 0.77928
 H78 H 0.17812 -0.01656 0.77995
 C79 C 0.07508 -0.00557 0.83926
 C80 C 0.06731 0.01438 0.66085
 C81 C 0.18704 -0.08088 0.73995
 C82 C 0.18711 0.09010 0.75688
 C83 C 0.57615 0.49237 0.21823
 H84 H 0.57684 0.47251 0.23212
 C85 C 0.55635 0.49385 0.19363
 H86 H 0.54213 0.47494 0.18836
 C87 C 0.59499 0.54055 0.20691
 H88 H 0.60985 0.55889 0.21202
 C89 C 0.57577 0.54289 0.18229
 H90 H 0.57658 0.56260 0.16815
 N91 N 0.59601 0.51498 0.22344
 C92 C 0.61662 0.48451 0.31029
 H93 H 0.63265 0.46794 0.30279
 C94 C 0.60387 0.48177 0.33903
 H95 H 0.61057 0.46347 0.35352
 C96 C 0.58794 0.52819 0.30098
 H97 H 0.58191 0.54631 0.28601
 C98 C 0.57408 0.52586 0.32944
 H99 H 0.55760 0.54239 0.33637
 Zn100 Zn 0.62718 0.51125 0.25273
 N101 N 0.60899 0.50776 0.29200
 C102 C 0.65423 0.56617 0.27285
 N103 N 0.65262 0.54565 0.25017
 C104 C 0.66811 0.54961 0.22387
 C105 C 0.68460 0.57576 0.21888
 C106 C 0.67080 0.59251 0.26893
 C107 C 0.64516 0.45694 0.22198
 C108 C 0.66199 0.43052 0.21885
 C109 C 0.69313 0.44666 0.26032
 C110 C 0.67600 0.47278 0.26247
 N111 N 0.65169 0.47691 0.24435
 H112 H 0.64202 0.56256 0.29368
 H113 H 0.66662 0.53292 0.20621
 H114 H 0.69584 0.57915 0.19742
 H115 H 0.67109 0.60899 0.28687
 H116 H 0.62645 0.46091 0.20705
 H117 H 0.65567 0.41417 0.20198
 H118 H 0.71135 0.44285 0.27604
 H119 H 0.68117 0.48921 0.27965
 C120 C 0.58233 0.50245 0.34885
 C121 C 0.55696 0.51909 0.17487
 C122 C 0.68578 0.42494 0.23883
 C123 C 0.68576 0.59773 0.24136
 C124 C 0.91617 0.46974 0.79486
 H125 H 0.91604 0.45177 0.77846
 C126 C 0.93605 0.46860 0.81918
 H127 H 0.95138 0.44982 0.82119
 C128 C 0.89772 0.51686 0.81109
 H129 H 0.88321 0.53594 0.80746
 C130 C 0.91772 0.51678 0.83570
 H131 H 0.91866 0.53591 0.85071
 N132 N 0.89746 0.49356 0.79113
 C133 C 0.90079 0.46564 0.70325
 H134 H 0.88623 0.44701 0.70820
 C135 C 0.91856 0.46482 0.67724
 H136 H 0.91697 0.44593 0.66198
 C137 C 0.92048 0.51305 0.71636
 H138 H 0.92072 0.53202 0.73156
 C139 C 0.93895 0.51299 0.69053
 H140 H 0.95309 0.53207 0.68571
 Zn141 Zn 0.87360 0.49224 0.75505
 N142 N 0.90114 0.48999 0.72170
 C143 C 0.84907 0.54323 0.72430
 N144 N 0.84839 0.52689 0.75032
 C145 C 0.82897 0.53410 0.77302
 C146 C 0.81036 0.55926 0.77064
 C147 C 0.83059 0.56853 0.72092
 C148 C 0.84876 0.43754 0.77880
 C149 C 0.83287 0.41055 0.77695
 C150 C 0.81483 0.42546 0.72790
 C151 C 0.83085 0.45221 0.73075
 N152 N 0.84834 0.45733 0.75541
 H153 H 0.86397 0.53679 0.70607
 H154 H 0.82831 0.52056 0.79323
 H155 H 0.79577 0.56535 0.78932
 H156 H 0.83203 0.58175 0.70052
 H157 H 0.86199 0.44220 0.79867
 H158 H 0.83436 0.39463 0.79526
 H159 H 0.80211 0.42108 0.70755
 H160 H 0.83046 0.46836 0.71259
 C161 C 0.93742 0.48882 0.67035
 C162 C 0.93723 0.49239 0.83970
 C163 C 0.81621 0.40403 0.75085
 C164 C 0.81119 0.57689 0.74453
 C165 C 0.18850 0.38795 0.98390
 H166 H 0.19069 0.36931 0.96856
 C167 C 0.16129 0.40372 0.98519
 H168 H 0.14284 0.39696 0.97083
 C169 C 0.20940 0.41939 1.02144
 H170 H 0.22835 0.42576 1.03525
 C171 C 0.18240 0.43535 1.02387
 H172 H 0.18053 0.45371 1.03975
 N173 N 0.21178 0.39561 1.00228
 C174 C 0.30223 0.39204 1.03034
 H175 H 0.29973 0.37249 1.04441
 C176 C 0.32775 0.41001 1.03352
 H177 H 0.34477 0.40411 1.04991
 C178 C 0.28397 0.42284 0.99089
 H179 H 0.26692 0.42752 0.97415
 C180 C 0.30933 0.44108 0.99302
 H181 H 0.31196 0.45976 0.97773
 Zn182 Zn 0.24798 0.37229 1.00308
 N183 N 0.28122 0.39841 1.00890
 C184 C 0.27448 0.35960 0.94627
 N185 N 0.25274 0.35071 0.96602
 C186 C 0.23373 0.32790 0.95890
 C187 C 0.23539 0.31403 0.93050
 C188 C 0.27667 0.34661 0.91766
 C189 C 0.23837 0.35953 1.06305
 C190 C 0.23766 0.34347 1.08976
 C191 C 0.25393 0.29945 1.06249
 C192 C 0.25405 0.31649 1.03581
 N193 N 0.24635 0.34605 1.03669
 H194 H 0.28975 0.37731 0.95225
 H195 H 0.21679 0.32096 0.97501
 H196 H 0.21966 0.29647 0.92484
 H197 H 0.29348 0.35450 0.90183
 H198 H 0.23306 0.38301 1.06356
 H199 H 0.23135 0.35459 1.11061
 H200 H 0.26030 0.27609 1.06189
 H201 H 0.26086 0.30631 1.01469
 C202 C 0.33164 0.43453 1.01424
 C203 C 0.15796 0.42742 1.00581
 C204 C 0.24565 0.31335 1.08975
 C205 C 0.25681 0.32391 0.90940
 C206 C 0.79086 0.07296 0.99799
 H207 H 0.76958 0.06142 0.99863
 C208 C 0.81737 0.05648 0.99312
 H209 H 0.81602 0.03262 0.98912
 C210 C 0.81862 0.11791 1.00056
 H211 H 0.81912 0.14188 1.00348
 C212 C 0.84563 0.10229 0.99578
 H213 H 0.86655 0.11455 0.99393
 N214 N 0.79171 0.10335 1.00023
 C215 C 0.69976 0.10673 1.02694
 H216 H 0.70432 0.12314 1.04426
 C217 C 0.67224 0.09142 1.02735
 H218 H 0.65602 0.09607 1.04506
 C219 C 0.71441 0.08167 0.98203
 H220 H 0.73049 0.07855 0.96388
 C221 C 0.68715 0.06613 0.98149
 H222 H 0.68251 0.05081 0.96312
 Zn223 Zn 0.75521 0.12710 1.00108
 N224 N 0.72005 0.10206 1.00418
 C225 C 0.72794 0.14623 0.94646
 N226 N 0.75258 0.15011 0.96427
 C227 C 0.77549 0.16824 0.95508
 C228 C 0.77492 0.18165 0.92638
 C229 C 0.72673 0.15870 0.91761
 C230 C 0.76597 0.13928 1.06136
 C231 C 0.76507 0.15469 1.08872
 C232 C 0.74372 0.19731 1.06308
 C233 C 0.74520 0.18103 1.03586
 N234 N 0.75605 0.15245 1.03564
 H235 H 0.70929 0.13291 0.95417
 H236 H 0.79462 0.17179 0.96957
 H237 H 0.79372 0.19516 0.91899
 H238 H 0.70750 0.15438 0.90331
 H239 H 0.77404 0.11645 1.06069
 H240 H 0.77278 0.14379 1.10911
 H241 H 0.73469 0.21981 1.06325
 H242 H 0.73701 0.19088 1.01516
 C243 C 0.66555 0.07124 1.00401
 C244 C 0.84505 0.07132 0.99111
 C245 C 0.75361 0.18379 1.08989
 C246 C 0.75053 0.17616 0.90708
 C247 C 0.30860 0.60520 0.47308
 H248 H 0.30375 0.62067 0.45508
 C249 C 0.33541 0.58855 0.47209
 H250 H 0.35108 0.59167 0.45360
 C251 C 0.29465 0.58246 0.51931
 H252 H 0.27883 0.58039 0.53782
 C253 C 0.32111 0.56554 0.51923
 H254 H 0.32572 0.55051 0.53781
 N255 N 0.28927 0.60257 0.49697
 C256 C 0.20075 0.60673 0.53090
 H257 H 0.20592 0.62309 0.54803
 C258 C 0.17381 0.59063 0.53298
 H259 H 0.15839 0.59503 0.55146
 C260 C 0.21402 0.58124 0.48579
 H261 H 0.22960 0.57796 0.46723
 C262 C 0.18731 0.56486 0.48692
 H263 H 0.18233 0.54895 0.46917
 Zn264 Zn 0.25425 0.62748 0.50108
 N265 N 0.21975 0.60254 0.50696
 C266 C 0.22500 0.64637 0.44779
 N267 N 0.24939 0.65098 0.46566
 C268 C 0.27088 0.67129 0.45790
 C269 C 0.26929 0.68631 0.43020
 C270 C 0.22271 0.66061 0.41995
 C271 C 0.28170 0.65008 0.55405
 C272 C 0.28261 0.66597 0.58114
 C273 C 0.23640 0.69088 0.56738
 C274 C 0.23622 0.67429 0.54047
 N275 N 0.25814 0.65359 0.53485
 H276 H 0.20760 0.63102 0.45458
 H277 H 0.28985 0.67491 0.47271
 H278 H 0.28713 0.70142 0.42363
 H279 H 0.20385 0.65579 0.40531
 H280 H 0.29933 0.63420 0.54900
 H281 H 0.30073 0.66198 0.59694
 H282 H 0.21814 0.70622 0.57231
 H283 H 0.21785 0.67687 0.52471
 C284 C 0.16664 0.56994 0.51030
 C285 C 0.34204 0.56889 0.49579
 C286 C 0.25951 0.68603 0.58832
 C287 C 0.24524 0.68028 0.41069
 C288 C 0.69881 0.88560 0.46942
 H289 H 0.70252 0.86746 0.45378
 C290 C 0.67210 0.90227 0.46737
 H291 H 0.65547 0.89643 0.45057
 C292 C 0.71541 0.91542 0.51028
 H293 H 0.73262 0.92117 0.52643
 C294 C 0.68897 0.93236 0.50922
 H295 H 0.68557 0.95044 0.52519
 N296 N 0.71952 0.89179 0.49127
 C297 C 0.80968 0.88940 0.52275
 H298 H 0.80641 0.87170 0.53900
 C299 C 0.83563 0.90712 0.52435
 H300 H 0.85214 0.90287 0.54176
 C301 C 0.79305 0.91566 0.47946
 H302 H 0.77652 0.91868 0.46184
 C303 C 0.81883 0.93351 0.47999
 H304 H 0.82220 0.95020 0.46263
 Zn305 Zn 0.75515 0.86767 0.49630
 N306 N 0.78923 0.89361 0.50023
 C307 C 0.78345 0.84811 0.44252
 N308 N 0.76012 0.84250 0.46164
 C309 C 0.73919 0.82130 0.45482
 C310 C 0.73991 0.80666 0.42677
 C311 C 0.78488 0.83420 0.41435
 C312 C 0.74580 0.85944 0.55814
 C313 C 0.74419 0.84462 0.58567
 C314 C 0.75557 0.79823 0.56012
 C315 C 0.75676 0.81404 0.53270
 N316 N 0.75191 0.84419 0.53223
 H317 H 0.80027 0.86444 0.44838
 H318 H 0.72094 0.81699 0.47046
 H319 H 0.72219 0.79118 0.42087
 H320 H 0.80260 0.84015 0.39862
 H321 H 0.74276 0.88332 0.55766
 H322 H 0.73948 0.85716 0.60612
 H323 H 0.75972 0.77438 0.56039
 H324 H 0.76213 0.80229 0.51200
 C325 C 0.84057 0.92916 0.50239
 C326 C 0.66683 0.92559 0.48793
 C327 C 0.74924 0.81387 0.58693
 C328 C 0.76255 0.81397 0.40591
 C329 C 0.00081 0.28193 0.44001
 H330 H 0.00267 0.26084 0.45170
 C331 C 0.00343 0.30871 0.45613
 H332 H 0.00733 0.30830 0.48026
 C333 C -0.00655 0.30868 0.39438
 H334 H -0.01010 0.30838 0.37022
 C335 C -0.00451 0.33579 0.40959
 H336 H -0.00662 0.35640 0.39700
 N337 N -0.00369 0.28252 0.40963
 C338 C -0.02895 0.19203 0.40245
 H339 H -0.04798 0.19747 0.38843
 C340 C -0.02494 0.16254 0.41183
 H341 H -0.04093 0.14563 0.40490
 C342 C 0.01766 0.20592 0.42429
 H343 H 0.03507 0.22250 0.42732
 C344 C 0.02247 0.17673 0.43413
 H345 H 0.04366 0.17094 0.44469
 Zn346 Zn -0.00572 0.24830 0.38522
 N347 N -0.00715 0.21268 0.40774
 C348 C 0.05129 0.26618 0.36395
 N349 N 0.02892 0.24577 0.36091
 C350 C 0.03129 0.22250 0.34119
 C351 C 0.05684 0.21941 0.32301
 C352 C 0.07728 0.26377 0.34647
 C353 C -0.06713 0.25248 0.37396
 C354 C -0.09304 0.25507 0.35659
 C355 C -0.06188 0.25963 0.31194
 C356 C -0.03652 0.25641 0.33012
 N357 N -0.03966 0.25233 0.36044
 H358 H 0.04923 0.28413 0.38018
 H359 H 0.01325 0.20638 0.33961
 H360 H 0.05868 0.20086 0.30735
 H361 H 0.09496 0.28013 0.34927
 H362 H -0.06884 0.25010 0.39823
 H363 H -0.11483 0.25459 0.36759
 H364 H -0.05936 0.26259 0.28779
 H365 H -0.01442 0.25744 0.31999
 C366 C 0.00171 0.15455 0.42647
 C367 C 0.00073 0.33590 0.44082
 C368 C -0.09040 0.25838 0.32514
 C369 C 0.08018 0.24008 0.32575
 C370 C -0.00335 0.71539 0.07293
 H371 H 0.00094 0.73639 0.06175
 C372 C -0.00349 0.68898 0.05616
 H373 H 0.00030 0.68960 0.03199
 C374 C -0.01168 0.68832 0.11825
 H375 H -0.01414 0.68834 0.14258
 C376 C -0.01262 0.66154 0.10231
 H377 H -0.01585 0.64079 0.11443
 N378 N -0.00769 0.71453 0.10336
 C379 C 0.02092 0.80294 0.10709
 H380 H 0.03812 0.79835 0.12366
 C381 C 0.02147 0.82984 0.09124
 H382 H 0.03939 0.84566 0.09538
 C383 C -0.02431 0.78879 0.08263
 H384 H -0.04247 0.77293 0.08008
 C385 C -0.02434 0.81517 0.06594
 H386 H -0.04242 0.81970 0.05026
 Zn387 Zn -0.00537 0.74911 0.12706
 N388 N -0.00185 0.78319 0.10263
 C389 C 0.05437 0.73791 0.13507
 N390 N 0.02908 0.74516 0.15084
 C391 C 0.02952 0.74932 0.18127
 C392 C 0.05672 0.74723 0.19687
 C393 C 0.08182 0.73524 0.14976
 C394 C -0.06499 0.73651 0.14502
 C395 C -0.09351 0.74543 0.15470
 C396 C -0.07149 0.79018 0.17574
 C397 C -0.04332 0.78038 0.16579
 N398 N -0.04080 0.75449 0.14981
 H399 H 0.05319 0.73469 0.11088
 H400 H 0.00902 0.75475 0.19330
 H401 H 0.05732 0.75131 0.22098
 H402 H 0.10185 0.73006 0.13677
 H403 H -0.06285 0.71662 0.13135
 H404 H -0.11298 0.73219 0.14865
 H405 H -0.07371 0.81200 0.18621
 H406 H -0.02391 0.79467 0.16843
 C407 C -0.00159 0.83614 0.07061
 C408 C -0.00843 0.66186 0.07089
 C409 C -0.09691 0.77309 0.16902
 C410 C 0.08314 0.74032 0.18098
 C411 C 0.51903 0.21247 0.56710
 H412 H 0.53407 0.23069 0.56175
 C413 C 0.51985 0.18633 0.54989
 H414 H 0.53518 0.18446 0.53091
 C415 C 0.48225 0.19153 0.59977
 H416 H 0.46834 0.19333 0.61975
 C417 C 0.48254 0.16503 0.58338
 H418 H 0.46838 0.14671 0.59061
 N419 N 0.50086 0.21425 0.59187
 C420 C 0.51907 0.30624 0.61585
 H421 H 0.52654 0.30345 0.63881
 C422 C 0.51946 0.33456 0.60296
 H423 H 0.52752 0.35338 0.61602
 C424 C 0.49822 0.28552 0.57120
 H425 H 0.48898 0.26653 0.55936
 C426 C 0.49815 0.31349 0.55748
 H427 H 0.48941 0.31601 0.53482
 Zn428 Zn 0.50494 0.24561 0.61963
 N429 N 0.50859 0.28245 0.59990
 C430 C 0.56105 0.21971 0.63248
 N431 N 0.53933 0.23851 0.64315
 C432 C 0.54273 0.25351 0.66966
 C433 C 0.56940 0.25092 0.68584
 C434 C 0.58816 0.21669 0.64781
 C435 C 0.44613 0.26143 0.63162
 C436 C 0.41910 0.26282 0.64748
 C437 C 0.44234 0.23500 0.68804
 C438 C 0.46903 0.23418 0.67139
 N439 N 0.47036 0.24738 0.64377
 H440 H 0.55791 0.20773 0.61159
 H441 H 0.52500 0.26802 0.67789
 H442 H 0.57244 0.26363 0.70644
 H443 H 0.60569 0.20250 0.63854
 H444 H 0.44772 0.27128 0.60941
 H445 H 0.39992 0.27386 0.63739
 H446 H 0.44113 0.22417 0.70986
 H447 H 0.48842 0.22248 0.68017
 C448 C 0.50861 0.33825 0.57353
 C449 C 0.50220 0.16206 0.55868
 C450 C 0.41712 0.24932 0.67598
 C451 C 0.59257 0.23299 0.67445
 C452 C 0.51518 0.78941 0.92723
 H453 H 0.52955 0.77084 0.93334
 C454 C 0.51625 0.81592 0.94365
 H455 H 0.53142 0.81805 0.96262
 C456 C 0.47839 0.80984 0.89434
 H457 H 0.46374 0.80741 0.87514
 C458 C 0.47886 0.83672 0.90999
 H459 H 0.46452 0.85488 0.90264
 N460 N 0.49714 0.78730 0.90258
 C461 C 0.51846 0.69720 0.90016
 H462 H 0.53517 0.69833 0.88246
 C463 C 0.51613 0.67152 0.91751
 H464 H 0.53124 0.65301 0.91302
 C465 C 0.47817 0.71974 0.92737
 H466 H 0.46324 0.73863 0.93059
 C467 C 0.47517 0.69445 0.94543
 H468 H 0.45795 0.69365 0.96278
 Zn469 Zn 0.49995 0.75304 0.87898
 N470 N 0.49909 0.72026 0.90485
 C471 C 0.55829 0.77302 0.86456
 N472 N 0.53590 0.75374 0.85694
 C473 C 0.53883 0.73442 0.83340
 C474 C 0.56558 0.73330 0.81702
 C475 C 0.58553 0.77242 0.84897
 C476 C 0.44538 0.73076 0.85751
 C477 C 0.41943 0.73099 0.84016
 C478 C 0.44055 0.77103 0.81026
 C479 C 0.46615 0.77016 0.82839
 N480 N 0.46756 0.75091 0.85209
 H481 H 0.55533 0.78859 0.88295
 H482 H 0.52050 0.71959 0.82772
 H483 H 0.56811 0.71755 0.79857
 H484 H 0.60343 0.78742 0.85553
 H485 H 0.44724 0.71511 0.87590
 H486 H 0.40149 0.71553 0.84547
 H487 H 0.43886 0.78721 0.79219
 H488 H 0.48442 0.78561 0.82437
 C489 C 0.49379 0.66985 0.93998
 C490 C 0.49860 0.84003 0.93442
 C491 C 0.41658 0.75194 0.81681
 C492 C 0.58926 0.75210 0.82515
 C493 C -0.22445 0.64268 0.95005
 H494 H -0.20791 0.62659 0.95726
 C495 C -0.22099 0.65620 0.92199
 H496 H -0.20235 0.64985 0.90748
 C497 C -0.26868 0.67092 0.95971
 H498 H -0.28738 0.67625 0.97450
 C499 C -0.26573 0.68544 0.93187
 H500 H -0.28240 0.70176 0.92508
 N501 N -0.24863 0.64934 0.96784
 C502 C -0.27811 0.66097 1.05497
 H503 H -0.29779 0.64708 1.05257
 C504 C -0.27835 0.68433 1.07611
 H505 H -0.29817 0.68822 1.08993
 C506 C -0.22923 0.67465 1.03848
 H507 H -0.21052 0.67127 1.02313
 C508 C -0.22851 0.69811 1.05933
 H509 H -0.20918 0.71281 1.05999
 Zn510 Zn -0.25428 0.62817 1.00455
 N511 N -0.25382 0.65670 1.03653
 C512 C -0.20100 0.60250 1.02946
 N513 N -0.22283 0.59971 1.00821
 C514 C -0.22141 0.57792 0.98671
 C515 C -0.19589 0.55979 0.98415
 C516 C -0.17529 0.58452 1.02800
 C517 C -0.30956 0.60746 0.97946
 C518 C -0.33666 0.59163 0.97978
 C519 C -0.32481 0.57444 1.03007
 C520 C -0.29791 0.59038 1.02874
 N521 N -0.29109 0.60696 1.00396
 H522 H -0.20281 0.61950 1.04674
 H523 H -0.23924 0.57606 0.97023
 H524 H -0.19413 0.54373 0.96588
 H525 H -0.15748 0.58796 1.04425
 H526 H -0.30338 0.62012 0.95966
 H527 H -0.35143 0.59263 0.96042
 H528 H -0.33043 0.56187 1.05019
 H529 H -0.28258 0.58995 1.04767
 C530 C -0.25342 0.70326 1.07807
 C531 C -0.24190 0.67745 0.91254
 C532 C -0.34452 0.57514 1.00555
 C533 C -0.17218 0.56358 1.00442
 C534 C -0.22069 0.33419 0.53919
 H535 H -0.20330 0.33584 0.52211
 C536 C -0.21855 0.31357 0.56099
 H537 H -0.19960 0.29831 0.56134
 C538 C -0.26676 0.35347 0.55923
 H539 H -0.28554 0.36878 0.55853
 C540 C -0.26557 0.33072 0.58340
 H541 H -0.28432 0.32867 0.59897
 N542 N -0.24635 0.35385 0.53795
 C543 C -0.26203 0.37607 0.44341
 H544 H -0.26613 0.39976 0.44620
 C545 C -0.26415 0.36307 0.41487
 H546 H -0.26998 0.37674 0.39558
 C547 C -0.24887 0.32937 0.46496
 H548 H -0.24294 0.31632 0.48455
 C549 C -0.25041 0.31548 0.43659
 H550 H -0.24558 0.29184 0.43449
 Zn551 Zn -0.24968 0.38057 0.50450
 N552 N -0.25410 0.35929 0.46768
 C553 C -0.19642 0.40375 0.47718
 N554 N -0.21384 0.40360 0.50260
 C555 C -0.20517 0.41838 0.52797
 C556 C -0.17804 0.43402 0.52846
 C557 C -0.16906 0.41917 0.47671
 C558 C -0.31174 0.39231 0.50874
 C559 C -0.33768 0.40882 0.51550
 C560 C -0.30683 0.45279 0.52120
 C561 C -0.28143 0.43546 0.51435
 N562 N -0.28419 0.40555 0.50940
 H563 H -0.20333 0.39142 0.45740
 H564 H -0.21915 0.41754 0.54802
 H565 H -0.17107 0.44531 0.54893
 H566 H -0.15519 0.41869 0.45656
 H567 H -0.31337 0.36856 0.50441
 H568 H -0.35925 0.39766 0.51689
 H569 H -0.30421 0.47617 0.52701
 H570 H -0.25947 0.44574 0.51423
 C571 C -0.25787 0.33266 0.41119
 C572 C -0.24278 0.31107 0.58385
 C573 C -0.33514 0.43920 0.52251
 C574 C -0.15963 0.43433 0.50276
 C575 C 0.22890 -0.17123 0.03785
 H576 H 0.21185 -0.17126 0.02046
 C577 C 0.22753 -0.19104 0.06033
 H578 H 0.20956 -0.20735 0.06089
 C579 C 0.27367 -0.14903 0.05730
 H580 H 0.29145 -0.13266 0.05615
 C581 C 0.27351 -0.17128 0.08222
 H582 H 0.29185 -0.17177 0.09827
 N583 N 0.25256 -0.14936 0.03684
 C584 C 0.22225 -0.13839 -0.05136
 H585 H 0.20575 -0.12144 -0.04601
 C586 C 0.22039 -0.15368 -0.07881
 H587 H 0.20269 -0.14814 -0.09461
 C588 C 0.26580 -0.16601 -0.03806
 H589 H 0.28368 -0.17038 -0.02214
 C590 C 0.26454 -0.18212 -0.06522
 H591 H 0.28161 -0.19872 -0.07027
 Zn592 Zn 0.24946 -0.12142 0.00426
 N593 N 0.24515 -0.14420 -0.03192
 C594 C 0.30200 -0.09785 -0.02466
 N595 N 0.28477 -0.09700 0.00093
 C596 C 0.29234 -0.07895 0.02445
 C597 C 0.31872 -0.06196 0.02333
 C598 C 0.32856 -0.08108 -0.02674
 C599 C 0.19750 -0.10253 0.03611
 C600 C 0.17152 -0.08605 0.04224
 C601 C 0.18088 -0.05668 -0.00241
 C602 C 0.20678 -0.07406 -0.00796
 N603 N 0.21449 -0.09671 0.01115
 H604 H 0.29545 -0.11181 -0.04344
 H605 H 0.27817 -0.07821 0.04437
 H606 H 0.32497 -0.04836 0.04257
 H607 H 0.34237 -0.08263 -0.04688
 H608 H 0.20415 -0.11967 0.05179
 H609 H 0.15861 -0.09073 0.06250
 H610 H 0.17525 -0.03835 -0.01731
 H611 H 0.22080 -0.06936 -0.02740
 C612 C 0.24181 -0.17551 -0.08609
 C613 C 0.25110 -0.19128 0.08376
 C614 C 0.16299 -0.06294 0.02294
 C615 C 0.33730 -0.06317 -0.00228
 C616 C 0.23447 1.16643 0.45987
 H617 H 0.21549 1.16795 0.47519
 C618 C 0.23512 1.18388 0.43369
 H619 H 0.21644 1.19859 0.42862
 C620 C 0.28135 1.14428 0.44699
 H621 H 0.29937 1.12894 0.45217
 C622 C 0.28277 1.16107 0.42059
 H623 H 0.30154 1.15812 0.40519
 N624 N 0.25691 1.14639 0.46543
 C625 C 0.22408 1.14087 0.55234
 H626 H 0.20727 1.12433 0.54710
 C627 C 0.22137 1.15756 0.57883
 H628 H 0.20284 1.15338 0.59419
 C629 C 0.26895 1.16647 0.53938
 H630 H 0.28760 1.16952 0.52393
 C631 C 0.26686 1.18397 0.56555
 H632 H 0.28414 1.20026 0.57044
 Zn633 Zn 0.25323 1.12061 0.49902
 N634 N 0.24811 1.14493 0.53370
 C635 C 0.30730 1.09899 0.52678
 N636 N 0.28820 1.09636 0.50290
 C637 C 0.29352 1.07619 0.48047
 C638 C 0.31973 1.05897 0.48055
 C639 C 0.33381 1.08201 0.52781
 C640 C 0.20146 1.09694 0.46907
 C641 C 0.17575 1.07907 0.46676
 C642 C 0.18904 1.05592 0.51412
 C643 C 0.21456 1.07397 0.51541
 N644 N 0.21972 1.09476 0.49366
 H645 H 0.30239 1.11467 0.54474
 H646 H 0.27779 1.07422 0.46198
 H647 H 0.32435 1.04383 0.46197
 H648 H 0.34935 1.08503 0.54634
 H649 H 0.20634 1.11296 0.45154
 H650 H 0.16071 1.08192 0.44780
 H651 H 0.18430 1.04050 0.53233
 H652 H 0.22972 1.07225 0.53441
 C653 C 0.24305 1.17902 0.58578
 C654 C 0.25923 1.18053 0.41345
 C655 C 0.16909 1.05878 0.48994
 C656 C 0.34037 1.06213 0.50410
 C657 C 0.14267 0.44110 0.27479
 H658 H 0.13209 0.44964 0.29503
 C659 C 0.15714 0.41321 0.27575
 H660 H 0.15717 0.40049 0.29652
 C661 C 0.15602 0.44716 0.22336
 H662 H 0.15573 0.46034 0.20300
 C663 C 0.17069 0.41945 0.22336
 H664 H 0.18144 0.41141 0.20289
 N665 N 0.14169 0.45724 0.24864
 C666 C 0.13790 0.54981 0.22223
 H667 H 0.11825 0.54770 0.20812
 C668 C 0.15490 0.57613 0.22090
 H669 H 0.14834 0.59377 0.20555
 C670 C 0.16915 0.53058 0.26085
 H671 H 0.17423 0.51301 0.27681
 C672 C 0.18641 0.55674 0.26059
 H673 H 0.20484 0.55921 0.27633
 Zn674 Zn 0.11886 0.49387 0.24710
 N675 N 0.14503 0.52773 0.24221
 C676 C 0.10280 0.52235 0.30244
 N677 N 0.09732 0.49808 0.28471
 C678 C 0.07791 0.47634 0.29403
 C679 C 0.06368 0.47831 0.32230
 C680 C 0.08949 0.52490 0.33097
 C681 C 0.10095 0.49406 0.18466
 C682 C 0.08063 0.49753 0.16066
 C683 C 0.04001 0.49755 0.19695
 C684 C 0.06095 0.49456 0.22014
 N685 N 0.09092 0.49320 0.21387
 H686 H 0.11796 0.53959 0.29481
 H687 H 0.07399 0.45710 0.27974
 H688 H 0.04886 0.46058 0.32965
 H689 H 0.09470 0.54391 0.34519
 H690 H 0.12482 0.49397 0.17998
 H691 H 0.08895 0.49977 0.13774
 H692 H 0.01633 0.49975 0.20252
 H693 H 0.05309 0.49467 0.24319
 C694 C 0.17918 0.57997 0.24069
 C695 C 0.17098 0.40200 0.24957
 C696 C 0.04983 0.49964 0.16698
 C697 C 0.06988 0.50272 0.34121
 C698 C -0.14321 1.06695 0.27601
 H699 H -0.12656 1.06177 0.29290
 C700 C -0.15962 1.09366 0.27838
 H701 H -0.15509 1.10906 0.29669
 C702 C -0.16964 1.05355 0.23164
 H703 H -0.17412 1.03756 0.21394
 C704 C -0.18629 1.07996 0.23303
 H705 H -0.20292 1.08466 0.21584
 N706 N -0.14794 1.04786 0.25242
 C707 C -0.14788 0.95864 0.22145
 H708 H -0.12940 0.96107 0.20577
 C709 C -0.16613 0.93336 0.21950
 H710 H -0.16158 0.91676 0.20223
 C711 C -0.17507 0.97601 0.26421
 H712 H -0.17812 0.99258 0.28181
 C713 C -0.19345 0.95068 0.26344
 H714 H -0.21064 0.94764 0.28054
 Zn715 Zn -0.12527 1.01195 0.24758
 N716 N -0.15242 0.97926 0.24372
 C717 C -0.10499 0.98078 0.29907
 N718 N -0.10021 1.00560 0.28202
 C719 C -0.07823 1.02552 0.28941
 C720 C -0.06067 1.02121 0.31529
 C721 C -0.08836 0.97593 0.32523
 C722 C -0.11450 1.01556 0.18421
 C723 C -0.09851 1.00841 0.15786
 C724 C -0.05457 0.99931 0.18840
 C725 C -0.07140 1.00614 0.21413
 N726 N -0.10114 1.01304 0.21181
 H727 H -0.12207 0.96487 0.29277
 H728 H -0.07463 1.04499 0.27542
 H729 H -0.04392 1.03763 0.32146
 H730 H -0.09314 0.95668 0.33923
 H731 H -0.13823 1.02031 0.18265
 H732 H -0.10997 1.00793 0.13631
 H733 H -0.03153 0.99170 0.19076
 H734 H -0.06114 1.00348 0.23600
 C735 C -0.18888 0.92898 0.24104
 C736 C -0.18111 1.10042 0.25631
 C737 C -0.06853 0.99924 0.16018
 C738 C -0.06616 0.99631 0.33366
 C739 C 0.34922 0.55554 -0.21521
 H740 H 0.36441 0.55021 -0.19703
 C741 C 0.33450 0.58333 -0.21507
 H742 H 0.33871 0.59907 -0.19697
 C743 C 0.32553 0.54216 -0.26106
 H744 H 0.32171 0.52626 -0.27893
 C745 C 0.31054 0.56966 -0.26184
 H746 H 0.29570 0.57476 -0.28050
 N747 N 0.34522 0.53581 -0.23844
 C748 C 0.36572 0.43769 -0.24513
 H749 H 0.38985 0.43938 -0.24248
 C750 C 0.35331 0.41134 -0.25181
 H751 H 0.36741 0.39175 -0.25468
 C752 C 0.31817 0.46276 -0.24465
 H753 H 0.30484 0.48296 -0.24328
 C754 C 0.30354 0.43403 -0.25276
 H755 H 0.27975 0.43380 -0.25800
 Zn756 Zn 0.36999 0.50029 -0.24047
 N757 N 0.34738 0.46415 -0.24236
 C758 C 0.38834 0.47856 -0.18439
 N759 N 0.39513 0.49921 -0.20582
 C760 C 0.41724 0.51982 -0.20123
 C761 C 0.43330 0.52021 -0.17402
 C762 C 0.40364 0.47827 -0.15707
 C763 C 0.37657 0.49690 -0.30250
 C764 C 0.39053 0.49546 -0.33064
 C765 C 0.43877 0.49855 -0.30598
 C766 C 0.42376 0.50043 -0.27806
 N767 N 0.39308 0.50010 -0.27689
 H768 H 0.37017 0.46298 -0.18790
 H769 H 0.42165 0.53660 -0.21821
 H770 H 0.45023 0.53713 -0.17017
 H771 H 0.39743 0.46228 -0.13982
 H772 H 0.35248 0.49462 -0.30113
 H773 H 0.37703 0.49335 -0.35085
 H774 H 0.46311 0.49916 -0.30678
 H775 H 0.43669 0.50171 -0.25751
 C776 C 0.32060 0.40950 -0.25704
 C777 C 0.31539 0.59077 -0.23904
 C778 C 0.42182 0.49627 -0.33260
 C779 C 0.42605 0.49935 -0.15157
 C780 C 0.63877 -0.06679 -0.22956
 H781 H 0.61840 -0.06253 -0.21696
 C782 C 0.65291 -0.09302 -0.22612
 H783 H 0.64400 -0.10944 -0.21055
 C784 C 0.67480 -0.04982 -0.26562
 H785 H 0.68358 -0.03304 -0.28073
 C786 C 0.69180 -0.07821 -0.26163
 H787 H 0.71345 -0.08101 -0.27263
 N788 N 0.65056 -0.04437 -0.24968
 C789 C 0.63996 0.05358 -0.25866
 H790 H 0.61571 0.05370 -0.26061
 C791 C 0.65602 0.07998 -0.26339
 H792 H 0.64405 0.10015 -0.26969
 C793 C 0.68513 0.02662 -0.25044
 H794 H 0.69644 0.00580 -0.24552
 C795 C 0.70213 0.05260 -0.25531
 H796 H 0.72648 0.05131 -0.25517
 Zn797 Zn 0.62881 -0.00691 -0.25223
 N798 N 0.65461 0.02736 -0.25328
 C799 C 0.61336 0.01558 -0.19561
 N800 N 0.60314 -0.00288 -0.21773
 C801 C 0.57730 -0.01889 -0.21390
 C802 C 0.56101 -0.01690 -0.18669
 C803 C 0.59790 0.01818 -0.16836
 C804 C 0.62308 -0.01064 -0.31433
 C805 C 0.60979 -0.00879 -0.34267
 C806 C 0.56264 0.00422 -0.31871
 C807 C 0.57688 0.00188 -0.29052
 N808 N 0.60660 -0.00569 -0.28889
 H809 H 0.63418 0.02762 -0.19861
 H810 H 0.56981 -0.03385 -0.23155
 H811 H 0.54095 -0.03021 -0.18351
 H812 H 0.60672 0.03242 -0.15068
 H813 H 0.64676 -0.01570 -0.31270
 H814 H 0.62317 -0.01302 -0.36274
 H815 H 0.53905 0.01016 -0.31987
 H816 H 0.56433 0.00672 -0.27014
 C817 C 0.68747 0.07946 -0.26258
 C818 C 0.68139 -0.09893 -0.24239
 C819 C 0.57941 -0.00124 -0.34509
 C820 C 0.57174 0.00168 -0.16354
 C821 C 0.03871 0.26823 0.82906
 H822 H 0.01954 0.28224 0.82388
 C823 C 0.06507 0.27065 0.81212
 H824 H 0.06638 0.28644 0.79367
 C825 C 0.06077 0.23078 0.85984
 H826 H 0.05900 0.21530 0.87841
 C827 C 0.08758 0.23264 0.84368
 H828 H 0.10630 0.21846 0.84995
 N829 N 0.03730 0.24890 0.85269
 C830 C -0.05422 0.26770 0.85509
 H831 H -0.05358 0.28359 0.87344
 C832 C -0.07986 0.26574 0.83733
 H833 H -0.09885 0.28019 0.84223
 C834 C -0.03053 0.22931 0.82646
 H835 H -0.01123 0.21494 0.82279
 C836 C -0.05571 0.22673 0.80798
 H837 H -0.05600 0.21039 0.78990
 Zn838 Zn 0.00227 0.24881 0.87619
 N839 N -0.03062 0.24901 0.84992
 C840 C 0.02243 0.30443 0.89662
 N841 N 0.00169 0.28263 0.90116
 C842 C -0.01942 0.28479 0.92339
 C843 C -0.02117 0.31052 0.94116
 C844 C 0.02139 0.33049 0.91369
 C845 C -0.01930 0.19281 0.89416
 C846 C -0.01972 0.16672 0.91109
 C847 C 0.01967 0.18705 0.94255
 C848 C 0.01952 0.21276 0.92480
 N849 N 0.00070 0.21479 0.90072
 H850 H 0.03949 0.30198 0.87939
 H851 H -0.03528 0.26679 0.92678
 H852 H -0.03854 0.31264 0.95826
 H853 H 0.03758 0.34799 0.90926
 H854 H -0.03464 0.19515 0.87549
 H855 H -0.03524 0.14908 0.90510
 H856 H 0.03525 0.18507 0.96120
 H857 H 0.03479 0.23089 0.92977
 C858 C -0.08089 0.24454 0.81391
 C859 C 0.08991 0.25314 0.81982
 C860 C 0.00037 0.16355 0.93524
 C861 C -0.00102 0.33385 0.93584
 C862 C 0.45746 0.26350 0.17511
 H863 H 0.47516 0.27840 0.18237
 C864 C 0.43049 0.26237 0.19119
 H865 H 0.42731 0.27630 0.21099
 C866 C 0.43929 0.22787 0.13986
 H867 H 0.44260 0.21473 0.11967
 C868 C 0.41194 0.22622 0.15514
 H869 H 0.39445 0.21169 0.14664
 N870 N 0.46104 0.24689 0.14957
 C871 C 0.55454 0.26791 0.13498
 H872 H 0.55284 0.27678 0.11239
 C873 C 0.58199 0.26876 0.14987
 H874 H 0.60129 0.27856 0.13873
 C875 C 0.53170 0.24327 0.17657
 H876 H 0.51217 0.23267 0.18641
 C877 C 0.55884 0.24356 0.19227
 H878 H 0.56024 0.23358 0.21449
 Zn879 Zn 0.49521 0.25276 0.12526
 N880 N 0.53014 0.25539 0.14848
 C881 C 0.47612 0.31157 0.11626
 N882 N 0.49098 0.28815 0.10345
 C883 C 0.50468 0.29052 0.07604
 C884 C 0.50426 0.31759 0.06065
 C885 C 0.47516 0.33899 0.10167
 C886 C 0.51931 0.19888 0.10588
 C887 C 0.52092 0.17302 0.08857
 C888 C 0.48264 0.19332 0.05563
 C889 C 0.48163 0.21883 0.07371
 N890 N 0.49944 0.22077 0.09856
 H891 H 0.46562 0.30931 0.13811
 H892 H 0.51679 0.27167 0.06661
 H893 H 0.51583 0.31971 0.03919
 H894 H 0.46380 0.35764 0.11242
 H895 H 0.53310 0.20094 0.12582
 H896 H 0.53614 0.15531 0.09523
 H897 H 0.46769 0.19124 0.03648
 H898 H 0.46591 0.23661 0.06864
 C899 C 0.58423 0.25625 0.17877
 C900 C 0.40727 0.24419 0.18071
 C901 C 0.50186 0.16991 0.06357
 C902 C 0.48981 0.34213 0.07377
 C903 C -0.06258 0.77289 0.65149
 H904 H -0.05867 0.79343 0.63942
 C905 C -0.09024 0.76670 0.66136
 H906 H -0.10854 0.78220 0.65731
 C907 C -0.04277 0.72692 0.67060
 H908 H -0.02489 0.71050 0.67176
 C909 C -0.07300 0.71915 0.68168
 H910 H -0.07694 0.69694 0.69057
 N911 N -0.03873 0.75141 0.65532
 C912 C 0.05653 0.76156 0.63991
 H913 H 0.05565 0.76514 0.61577
 C914 C 0.08399 0.76200 0.65474
 H915 H 0.10436 0.76603 0.64191
 C916 C 0.03082 0.75129 0.68584
 H917 H 0.00999 0.74714 0.69773
 C918 C 0.05798 0.75117 0.70157
 H919 H 0.05818 0.74687 0.72563
 Zn920 Zn -0.00370 0.75372 0.63182
 N921 N 0.03080 0.75590 0.65549
 C922 C -0.00595 0.81474 0.62203
 N923 N -0.00454 0.78793 0.60759
 C924 C -0.00243 0.78603 0.57699
 C925 C -0.00245 0.81195 0.55959
 C926 C -0.00664 0.84113 0.60550
 C927 C 0.02051 0.69870 0.61216
 C928 C 0.02057 0.67170 0.59640
 C929 C -0.02564 0.68670 0.57199
 C930 C -0.02506 0.71328 0.58855
 N931 N -0.00211 0.71881 0.60800
 H932 H -0.00674 0.81549 0.64646
 H933 H -0.00024 0.76453 0.56606
 H934 H -0.00052 0.81047 0.53524
 H935 H -0.00788 0.86236 0.61723
 H936 H 0.03814 0.70317 0.62826
 H937 H 0.03850 0.65575 0.60022
 H938 H -0.04404 0.68229 0.55666
 H939 H -0.04307 0.72942 0.58619
 C940 C 0.08481 0.75637 0.68588
 C941 C -0.09599 0.73757 0.67567
 C942 C -0.00287 0.66552 0.57619
 C943 C -0.00492 0.83970 0.57390
 C944 C 0.53576 0.76081 0.32224
 H945 H 0.51623 0.77414 0.31658
 C946 C 0.56200 0.76321 0.30516
 H947 H 0.56281 0.77825 0.28605
 C948 C 0.55917 0.72575 0.35484
 H949 H 0.55806 0.71140 0.37435
 C950 C 0.58593 0.72764 0.33849
 H951 H 0.60527 0.71466 0.34550
 N952 N 0.53510 0.74287 0.34697
 C953 C 0.44408 0.76503 0.35355
 H954 H 0.44697 0.78192 0.37071
 C955 C 0.41720 0.76385 0.33761
 H956 H 0.39959 0.77987 0.34273
 C957 C 0.46333 0.72361 0.32595
 H958 H 0.48143 0.70789 0.32184
 C959 C 0.43680 0.72178 0.30927
 H960 H 0.43431 0.70463 0.29217
 Zn961 Zn 0.50101 0.74481 0.37196
 N962 N 0.46616 0.74462 0.34801
 C963 C 0.52245 0.80137 0.38821
 N964 N 0.50234 0.77962 0.39517
 C965 C 0.48321 0.78223 0.41909
 C966 C 0.48298 0.80825 0.43642
 C967 C 0.52283 0.82774 0.40477
 C968 C 0.48039 0.69043 0.39512
 C969 C 0.48083 0.66596 0.41431
 C970 C 0.52163 0.68880 0.44202
 C971 C 0.52055 0.71285 0.42210
 N972 N 0.50065 0.71278 0.39881
 H973 H 0.53789 0.79855 0.36956
 H974 H 0.46780 0.76427 0.42429
 H975 H 0.46723 0.81067 0.45500
 H976 H 0.53851 0.84518 0.39855
 H977 H 0.46426 0.69123 0.37699
 H978 H 0.46510 0.64791 0.41057
 H979 H 0.53812 0.68837 0.45996
 H980 H 0.53597 0.73133 0.42476
 C981 C 0.41328 0.74168 0.31553
 C982 C 0.58753 0.74710 0.31377
 C983 C 0.50211 0.66481 0.43766
 C984 C 0.50255 0.83143 0.42886
 Zr985 Zr 0.02284 -0.01829 1.04600
 O986 O 0.04193 0.00155 1.08496
 O987 O 0.02458 -0.06356 1.05815
 O988 O -0.00387 -0.02552 1.08433
 O989 O 0.08771 -0.02184 1.00144
 O990 O -0.04967 -0.00538 1.07290
 O991 O 0.06946 -0.02597 1.04947
 O992 O -0.00495 -0.08559 1.02253
 O993 O -0.01988 -0.03152 1.03163
 O994 O 0.02972 -0.04047 1.00504
 O995 O -0.00304 0.02108 1.04379
 O996 O 0.04476 0.01282 1.01803
 Zr997 Zr -0.01858 0.01689 0.95716
 Zr998 Zr -0.04514 0.00794 1.02709
 Zr999 Zr 0.04919 -0.00919 0.97626
 Zr1000 Zr -0.01306 -0.05214 0.99003
 O1001 O 0.08514 0.02029 0.96675
 O1002 O -0.05489 -0.07223 1.00084
 O1003 O 0.00724 -0.02270 0.95930
 O1004 O -0.04026 -0.01405 0.98538
 O1005 O -0.02553 0.03939 0.99810
 O1006 O 0.02406 0.03002 0.97178
 C1007 C 0.01073 -0.08616 1.04694
 C1008 C 0.09108 -0.02620 1.03003
 C1009 C -0.03130 -0.01903 1.09075
 O1010 O -0.08369 -0.01949 1.03065
 O1011 O -0.08147 0.02839 1.00349
 O1012 O -0.06341 0.03196 0.95534
 C1013 C -0.08425 0.03535 0.97531
 O1014 O 0.04293 0.06088 1.05252
 Zr1015 Zr 0.01727 0.05073 1.01341
 O1016 O -0.01814 0.06185 0.94420
 O1017 O -0.06008 0.04508 1.05277
 O1018 O -0.00831 0.08254 1.03818
 O1019 O 0.05725 0.07352 1.00111
 O1020 O 0.00575 0.08512 0.98315
 C1021 C -0.00769 0.08512 0.95746
 O1022 O -0.04237 -0.00316 0.92105
 O1023 O 0.06723 -0.04837 0.95625
 O1024 O 0.00602 0.01749 0.91636
 O1025 O 0.05088 -0.00398 0.92892
 O1026 O 0.01203 -0.08638 0.96823
 O1027 O -0.03392 -0.06347 0.94843
 C1028 C 0.03231 0.00728 0.90969
 H1029 H 0.04314 -0.05807 1.00683
 H1030 H -0.06004 -0.01987 0.97703
 H1031 H 0.03420 0.04373 0.95749
 H1032 H -0.00498 0.03045 1.06399
 H1033 H -0.05262 -0.09406 0.99763
 H1034 H -0.09833 -0.00852 1.04350
 H1035 H -0.08081 0.04041 1.05958
 H1036 H 0.00118 0.10231 1.03502
 H1037 H 0.00133 -0.10546 0.97179
 H1038 H 0.08747 -0.04310 0.94849
 H1039 H 0.09997 0.00884 0.95456
 H1040 H 0.05421 0.09499 1.00586
 H1041 H -0.04006 -0.08472 0.94883
 H1042 H -0.04749 0.01288 0.90647
 H1043 H 0.04772 -0.01489 1.09882
 H1044 H 0.04391 0.08283 1.05519
 Zr1045 Zr 0.52632 0.48634 0.55589
 O1046 O 0.54878 0.50673 0.59270
 O1047 O 0.52505 0.44155 0.57003
 O1048 O 0.50109 0.48576 0.59655
 O1049 O 0.59013 0.47859 0.51029
 O1050 O 0.45500 0.50286 0.58226
 O1051 O 0.57211 0.47501 0.55849
 O1052 O 0.49869 0.41848 0.53257
 O1053 O 0.48347 0.47285 0.54210
 O1054 O 0.53234 0.46322 0.51512
 O1055 O 0.50147 0.52612 0.55195
 O1056 O 0.54858 0.51625 0.52651
 Zr1057 Zr 0.48439 0.51980 0.46554
 Zr1058 Zr 0.45938 0.51256 0.53609
 Zr1059 Zr 0.55218 0.49320 0.48520
 Zr1060 Zr 0.48953 0.45164 0.50042
 O1061 O 0.58911 0.52166 0.47638
 O1062 O 0.44779 0.43236 0.51297
 O1063 O 0.50990 0.47999 0.46870
 O1064 O 0.46285 0.48980 0.49485
 O1065 O 0.47868 0.54318 0.50613
 O1066 O 0.52751 0.53257 0.47950
 C1067 C 0.51294 0.41846 0.55780
 C1068 C 0.59334 0.47329 0.53878
 C1069 C 0.47361 0.49318 0.60218
 O1070 O 0.42124 0.48490 0.54177
 O1071 O 0.42302 0.53132 0.51287
 O1072 O 0.43968 0.53712 0.46449
 C1073 C 0.41944 0.53978 0.48540
 O1074 O 0.54788 0.56613 0.55889
 Zr1075 Zr 0.52178 0.55455 0.52047
 O1076 O 0.48537 0.56411 0.45131
 O1077 O 0.44420 0.55101 0.55964
 O1078 O 0.49703 0.58754 0.54452
 O1079 O 0.56217 0.57576 0.50668
 O1080 O 0.50996 0.58824 0.48932
 C1081 C 0.49608 0.58759 0.46383
 O1082 O 0.45964 0.49910 0.43054
 O1083 O 0.56859 0.45354 0.46478
 O1084 O 0.50927 0.51921 0.42466
 O1085 O 0.55460 0.49892 0.43785
 O1086 O 0.51390 0.41709 0.47828
 O1087 O 0.46746 0.43930 0.45974
 C1088 C 0.53606 0.50983 0.41834
 H1089 H 0.54527 0.44528 0.51714
 H1090 H 0.44282 0.48407 0.48703
 H1091 H 0.53781 0.54582 0.46490
 H1092 H 0.49982 0.53659 0.57161
 H1093 H 0.44972 0.41042 0.51044
 H1094 H 0.40652 0.49637 0.55409
 H1095 H 0.42360 0.54664 0.56706
 H1096 H 0.50673 0.60707 0.54057
 H1097 H 0.50322 0.39805 0.48219
 H1098 H 0.58910 0.45803 0.45721
 H1099 H 0.60372 0.50985 0.46428
 H1100 H 0.55948 0.59754 0.50993
 H1101 H 0.46083 0.41824 0.46108
 H1102 H 0.45470 0.51491 0.41567
 H1103 H 0.55395 0.49077 0.60737
 H1104 H 0.54992 0.58814 0.56003
 Zr1105 Zr 0.48137 1.01527 0.53867
 O1106 O 0.45481 0.99679 0.57373
 O1107 O 0.48443 1.06005 0.55197
 O1108 O 0.50427 1.01557 0.58071
 O1109 O 0.42204 1.02403 0.48902
 O1110 O 0.55008 0.99551 0.56907
 O1111 O 0.43661 1.03177 0.53777
 O1112 O 0.51374 1.08125 0.51546
 O1113 O 0.52582 1.02607 0.52708
 O1114 O 0.47962 1.03729 0.49706
 O1115 O 0.50454 0.97423 0.53688
 O1116 O 0.45966 0.98547 0.50881
 Zr1117 Zr 0.52735 0.97694 0.45120
 Zr1118 Zr 0.54823 0.98507 0.52296
 Zr1119 Zr 0.46042 1.00727 0.46691
 Zr1120 Zr 0.52375 1.04647 0.48477
 O1121 O 0.42275 0.98034 0.45651
 O1122 O 0.56545 1.06368 0.50003
 O1123 O 0.50407 1.01817 0.45244
 O1124 O 0.54851 1.00676 0.48114
 O1125 O 0.52933 0.95457 0.49266
 O1126 O 0.48298 0.96661 0.46323
 C1127 C 0.49795 1.08236 0.53990
 C1128 C 0.41714 1.03303 0.51624
 C1129 C 0.53096 1.00668 0.58786
 O1130 O 0.58725 1.01100 0.53054
 O1131 O 0.58522 0.96429 0.50209
 O1132 O 0.57111 0.95763 0.45306
 C1133 C 0.59002 0.95492 0.47501
 O1134 O 0.45613 0.93622 0.54222
 Zr1135 Zr 0.48492 0.94581 0.50505
 O1136 O 0.52470 0.93219 0.43803
 O1137 O 0.56001 0.94642 0.54780
 O1138 O 0.50654 0.91245 0.53121
 O1139 O 0.44430 0.92646 0.48943
 O1140 O 0.49691 0.91069 0.47553
 C1141 C 0.51210 0.90972 0.45072
 O1142 O 0.55525 0.99512 0.41707
 O1143 O 0.44701 1.04699 0.44472
 O1144 O 0.50485 0.97795 0.40885
 O1145 O 0.46025 1.00088 0.42002
 O1146 O 0.50275 1.08125 0.46003
 O1147 O 0.54948 1.05697 0.44564
 C1148 C 0.47890 0.98870 0.40138
 H1149 H 0.46763 1.05596 0.49760
 H1150 H 0.56926 1.01130 0.47439
 H1151 H 0.47283 0.95357 0.44835
 H1152 H 0.50446 0.96421 0.55679
 H1153 H 0.56489 1.08565 0.49728
 H1154 H 0.60055 0.99911 0.54386
 H1155 H 0.58027 0.94998 0.55636
 H1156 H 0.49623 0.89325 0.52715
 H1157 H 0.51378 1.09999 0.46437
 H1158 H 0.42672 1.04330 0.43628
 H1159 H 0.40944 0.99245 0.44341
 H1160 H 0.44566 0.90463 0.49295
 H1161 H 0.55712 1.07767 0.44730
 H1162 H 0.56007 0.97861 0.40285
 H1163 H 0.44979 1.01329 0.58792
 H1164 H 0.45264 0.91440 0.54331
 Zr1165 Zr -0.03390 0.51702 1.04283
 O1166 O -0.06460 0.49795 1.07397
 O1167 O -0.03190 0.56142 1.05767
 O1168 O -0.01668 0.51871 1.08683
 O1169 O -0.08742 0.52644 0.98724
 O1170 O 0.02992 0.49742 1.08397
 O1171 O -0.07750 0.53396 1.03724
 O1172 O 0.00222 0.58252 1.02568
 O1173 O 0.01159 0.52756 1.03764
 O1174 O -0.03061 0.53939 1.00158
 O1175 O -0.01119 0.47590 1.04477
 O1176 O -0.05226 0.48767 1.01048
 Zr1177 Zr 0.02196 0.47910 0.96325
 Zr1178 Zr 0.03418 0.48642 1.03733
 Zr1179 Zr -0.04649 0.50966 0.96895
 Zr1180 Zr 0.01488 0.54820 0.99555
 O1181 O -0.08250 0.48284 0.95359
 O1182 O 0.05489 0.56529 1.01492
 O1183 O -0.00104 0.52028 0.96096
 O1184 O 0.03966 0.50837 0.99580
 O1185 O 0.01872 0.45639 1.00440
 O1186 O -0.02359 0.46888 0.96863
 C1187 C -0.01604 0.58347 1.04830
 C1188 C -0.09480 0.53517 1.01413
 C1189 C 0.00822 0.51015 1.09868
 O1190 O 0.07210 0.51195 1.05005
 O1191 O 0.07349 0.46540 1.02038
 O1192 O 0.06430 0.45899 0.97009
 C1193 C 0.08084 0.45615 0.99371
 O1194 O -0.06071 0.43917 1.04337
 Zr1195 Zr -0.02700 0.44788 1.01038
 O1196 O 0.02019 0.43465 0.94864
 O1197 O 0.04208 0.44763 1.06339
 O1198 O -0.00950 0.41417 1.03904
 O1199 O -0.06510 0.42825 0.98962
 O1200 O -0.01153 0.41277 0.98254
 C1201 C 0.00629 0.41200 0.95956
 O1202 O 0.05520 0.49653 0.93378
 O1203 O -0.05678 0.54960 0.94561
 O1204 O 0.00659 0.48311 0.91844
 O1205 O -0.04063 0.50309 0.92174
 O1206 O -0.00240 0.58413 0.96964
 O1207 O 0.04446 0.55754 0.95895
 C1208 C -0.01791 0.49297 0.90655
 H1209 H -0.04230 0.55825 1.00110
 H1210 H 0.06110 0.51275 0.99162
 H1211 H -0.03151 0.45602 0.95228
 H1212 H -0.01416 0.46612 1.06460
 H1213 H 0.05484 0.58721 1.01170
 H1214 H 0.08349 0.49975 1.06479
 H1215 H 0.06123 0.45094 1.07429
 H1216 H -0.01957 0.39517 1.03362
 H1217 H 0.00914 0.60226 0.97516
 H1218 H -0.07598 0.54607 0.93489
 H1219 H -0.09433 0.49535 0.93948
 H1220 H -0.06446 0.40653 0.99394
 H1221 H 0.05266 0.57797 0.96125
 H1222 H 0.06122 0.48023 0.91974
 H1223 H -0.07118 0.51406 1.08798
 H1224 H -0.06425 0.41736 1.04462
 Zr1225 Zr -0.02008 0.48248 0.46363
 O1226 O -0.04762 0.50099 0.42948
 O1227 O -0.01608 0.43800 0.44934
 O1228 O 0.00220 0.48205 0.42114
 O1229 O -0.07778 0.47224 0.51530
 O1230 O 0.04703 0.50480 0.43065
 O1231 O -0.06463 0.46558 0.46588
 O1232 O 0.01441 0.41663 0.48464
 O1233 O 0.02491 0.47252 0.47343
 O1234 O -0.02015 0.45975 0.50486
 O1235 O 0.00194 0.52402 0.46518
 O1236 O -0.04159 0.51143 0.49476
 Zr1237 Zr 0.02740 0.52062 0.55004
 Zr1238 Zr 0.04631 0.51396 0.47725
 Zr1239 Zr -0.03905 0.48899 0.53622
 Zr1240 Zr 0.02456 0.45133 0.51538
 O1241 O -0.07686 0.51510 0.54888
 O1242 O 0.06614 0.43514 0.49821
 O1243 O 0.00527 0.47886 0.54887
 O1244 O 0.04825 0.49159 0.51873
 O1245 O 0.02765 0.54366 0.50886
 O1246 O -0.01755 0.53012 0.53983
 C1247 C -0.00173 0.41570 0.46053
 C1248 C -0.08344 0.46381 0.48811
 C1249 C 0.02810 0.49217 0.41282
 O1250 O 0.08552 0.48879 0.46732
 O1251 O 0.08371 0.53432 0.49733
 O1252 O 0.07098 0.53990 0.54699
 C1253 C 0.08933 0.54287 0.52448
 O1254 O -0.04729 0.56129 0.46221
 Zr1255 Zr -0.01737 0.55162 0.49828
 O1256 O 0.02399 0.56539 0.56385
 O1257 O 0.05637 0.55353 0.45319
 O1258 O 0.00282 0.58584 0.47213
 O1259 O -0.05827 0.56952 0.51541
 O1260 O -0.00608 0.58663 0.52815
 C1261 C 0.01000 0.58774 0.55227
 O1262 O 0.05661 0.50275 0.58311
 O1263 O -0.05106 0.44855 0.55785
 O1264 O 0.00615 0.51817 0.59320
 O1265 O -0.03771 0.49377 0.58322
 O1266 O 0.00503 0.41607 0.54063
 O1267 O 0.05194 0.44071 0.55317
 C1268 C -0.01898 0.50608 0.60144
 H1269 H -0.03173 0.44090 0.50436
 H1270 H 0.06927 0.48721 0.52461
 H1271 H -0.02760 0.54263 0.55536
 H1272 H 0.00100 0.53425 0.44540
 H1273 H 0.06622 0.41313 0.50065
 H1274 H 0.09818 0.50124 0.45386
 H1275 H 0.07647 0.55062 0.44384
 H1276 H -0.00787 0.60477 0.47684
 H1277 H 0.01615 0.39749 0.53553
 H1278 H -0.07116 0.45171 0.56713
 H1279 H -0.08943 0.50249 0.56227
 H1280 H -0.05778 0.59144 0.51225
 H1281 H 0.05969 0.42004 0.55102
 H1282 H 0.06127 0.51919 0.59741
 H1283 H -0.05261 0.48454 0.41529
 H1284 H -0.05125 0.58308 0.46157
 Zr1285 Zr 0.47627 -0.01382 -0.04443
 O1286 O 0.44896 0.00514 -0.07849
 O1287 O 0.47885 -0.05844 -0.05810
 O1288 O 0.49841 -0.01509 -0.08704
 O1289 O 0.41850 -0.02281 0.00776
 O1290 O 0.54410 0.00583 -0.07718
 O1291 O 0.43141 -0.03040 -0.04158
 O1292 O 0.50983 -0.07964 -0.02312
 O1293 O 0.52115 -0.02465 -0.03448
 O1294 O 0.47596 -0.03606 -0.00295
 O1295 O 0.49960 0.02708 -0.04331
 O1296 O 0.45546 0.01598 -0.01372
 Zr1297 Zr 0.52497 0.02383 0.04151
 Zr1298 Zr 0.54377 0.01617 -0.03100
 Zr1299 Zr 0.45764 -0.00609 0.02794
 Zr1300 Zr 0.52048 -0.04538 0.00765
 O1301 O 0.42055 0.02125 0.04006
 O1302 O 0.56179 -0.06260 -0.00916
 O1303 O 0.50168 -0.01724 0.04074
 O1304 O 0.54528 -0.00585 0.01061
 O1305 O 0.52572 0.04652 0.00016
 O1306 O 0.48025 0.03445 0.03120
 C1307 C 0.49317 -0.08065 -0.04683
 C1308 C 0.41269 -0.03191 -0.01917
 C1309 C 0.52482 -0.00611 -0.09513
 O1310 O 0.58252 -0.00983 -0.04054
 O1311 O 0.58171 0.03620 -0.01118
 O1312 O 0.56884 0.04233 0.03837
 C1313 C 0.58735 0.04488 0.01596
 O1314 O 0.45083 0.06529 -0.04650
 Zr1315 Zr 0.48092 0.05544 -0.01062
 O1316 O 0.52259 0.06857 0.05497
 O1317 O 0.55462 0.05511 -0.05576
 O1318 O 0.50138 0.08876 -0.03775
 O1319 O 0.44102 0.07505 0.00698
 O1320 O 0.49421 0.09041 0.01824
 C1321 C 0.50997 0.09122 0.04256
 O1322 O 0.55393 0.00551 0.07457
 O1323 O 0.44458 -0.04584 0.05029
 O1324 O 0.50416 0.02180 0.08480
 O1325 O 0.45942 -0.00086 0.07469
 O1326 O 0.50032 -0.08041 0.03272
 O1327 O 0.54713 -0.05625 0.04589
 C1328 C 0.47872 0.01043 0.09296
 H1329 H 0.46403 -0.05471 -0.00310
 H1330 H 0.56620 -0.01063 0.01656
 H1331 H 0.47062 0.04738 0.04666
 H1332 H 0.49891 0.03712 -0.06321
 H1333 H 0.56137 -0.08458 -0.00652
 H1334 H 0.59537 0.00217 -0.05424
 H1335 H 0.57455 0.05151 -0.06524
 H1336 H 0.49120 0.10800 -0.03319
 H1337 H 0.51128 -0.09911 0.02772
 H1338 H 0.42477 -0.04192 0.05991
 H1339 H 0.40779 0.00931 0.05389
 H1340 H 0.44227 0.09688 0.00347
 H1341 H 0.55494 -0.07690 0.04374
 H1342 H 0.55914 0.02192 0.08871
 H1343 H 0.44336 -0.01133 -0.09240
 H1344 H 0.44698 0.08709 -0.04713
 Zr1345 Zr 0.51675 0.52530 -0.03193
 O1346 O 0.54468 0.50592 -0.06555
 O1347 O 0.51363 0.56943 -0.04656
 O1348 O 0.49526 0.52502 -0.07465
 O1349 O 0.57384 0.53665 0.01976
 O1350 O 0.45002 0.50328 -0.06452
 O1351 O 0.56112 0.54225 -0.02979
 O1352 O 0.48187 0.59131 -0.01241
 O1353 O 0.47168 0.53575 -0.02244
 O1354 O 0.51639 0.54871 0.00905
 O1355 O 0.49440 0.48403 -0.03013
 O1356 O 0.53796 0.49693 -0.00044
 Zr1357 Zr 0.46822 0.48889 0.05451
 Zr1358 Zr 0.45002 0.49456 -0.01813
 Zr1359 Zr 0.53494 0.51998 0.04080
 Zr1360 Zr 0.47161 0.55755 0.01926
 O1361 O 0.57259 0.49398 0.05376
 O1362 O 0.43009 0.57353 0.00214
 O1363 O 0.49052 0.53052 0.05313
 O1364 O 0.44763 0.51751 0.02303
 O1365 O 0.46840 0.46533 0.01359
 O1366 O 0.51324 0.47898 0.04455
 C1367 C 0.49882 0.59178 -0.03609
 C1368 C 0.57966 0.54459 -0.00757
 C1369 C 0.46931 0.51495 -0.08268
 O1370 O 0.41089 0.51963 -0.02821
 O1371 O 0.41265 0.47406 0.00189
 O1372 O 0.42510 0.46881 0.05152
 C1373 C 0.40709 0.46532 0.02897
 O1374 O 0.54459 0.44743 -0.03213
 Zr1375 Zr 0.51345 0.45702 0.00317
 O1376 O 0.47121 0.44448 0.06886
 O1377 O 0.43995 0.45486 -0.04211
 O1378 O 0.49443 0.42267 -0.02373
 O1379 O 0.55322 0.43827 0.02161
 O1380 O 0.49989 0.42245 0.03219
 C1381 C 0.48396 0.42176 0.05650
 O1382 O 0.43868 0.50774 0.08701
 O1383 O 0.54683 0.56059 0.06226
 O1384 O 0.48880 0.49115 0.09765
 O1385 O 0.53283 0.51541 0.08785
 O1386 O 0.49105 0.59350 0.04360
 O1387 O 0.44426 0.56899 0.05708
 C1388 C 0.51386 0.50310 0.10594
 H1389 H 0.52800 0.56755 0.00841
 H1390 H 0.42655 0.52191 0.02885
 H1391 H 0.52296 0.46648 0.06017
 H1392 H 0.49553 0.47350 -0.04979
 H1393 H 0.43012 0.59559 0.00416
 H1394 H 0.39839 0.50708 -0.04168
 H1395 H 0.42004 0.45787 -0.05169
 H1396 H 0.50510 0.40382 -0.01884
 H1397 H 0.47994 0.61193 0.03808
 H1398 H 0.56672 0.55738 0.07180
 H1399 H 0.58502 0.50675 0.06710
 H1400 H 0.55234 0.41638 0.01831
 H1401 H 0.43650 0.58961 0.05463
 H1402 H 0.43348 0.49160 0.10143
 H1403 H 0.55003 0.52202 -0.07996
 H1404 H 0.54895 0.42572 -0.03253
 Zr1405 Zr 0.02939 1.01147 0.45185
 O1406 O 0.05610 0.98744 0.42039
 O1407 O 0.02933 1.05400 0.43324
 O1408 O 0.00765 1.01070 0.40923
 O1409 O 0.08623 1.02412 0.50343
 O1410 O -0.03890 0.99226 0.42020
 O1411 O 0.07461 1.02651 0.45333
 O1412 O -0.00189 1.08080 0.46416
 O1413 O -0.01512 1.02498 0.45969
 O1414 O 0.02985 1.03827 0.49063
 O1415 O 0.00462 0.97181 0.45644
 O1416 O 0.04858 0.98475 0.48596
 Zr1417 Zr -0.02211 0.98485 0.54015
 Zr1418 Zr -0.03926 0.98557 0.46701
 Zr1419 Zr 0.04627 1.01129 0.52510
 Zr1420 Zr -0.01446 1.05043 0.49908
 O1421 O 0.08254 0.98473 0.54060
 O1422 O -0.05489 1.06685 0.47988
 O1423 O 0.00230 1.02516 0.53560
 O1424 O -0.04067 1.01199 0.50606
 O1425 O -0.02282 0.95806 0.50132
 O1426 O 0.02238 0.97192 0.53163
 C1427 C 0.01546 1.07797 0.44079
 C1428 C 0.09287 1.02979 0.47571
 C1429 C -0.01914 1.00255 0.40169
 O1430 O -0.07756 1.01128 0.45544
 O1431 O -0.07759 0.96761 0.48795
 O1432 O -0.06596 0.96604 0.53804
 C1433 C -0.08377 0.96111 0.51557
 O1434 O 0.05239 0.93249 0.45799
 Zr1435 Zr 0.02179 0.94662 0.49221
 O1436 O -0.02063 0.94182 0.55882
 O1437 O -0.05055 0.94505 0.44508
 O1438 O 0.00061 0.91137 0.46833
 O1439 O 0.06056 0.92730 0.51215
 O1440 O 0.00683 0.91532 0.52428
 C1441 C -0.00869 0.91756 0.54879
 O1442 O -0.05133 1.00760 0.57031
 O1443 O 0.05955 1.05291 0.54350
 O1444 O -0.00184 0.98961 0.58328
 O1445 O 0.04389 1.01008 0.57248
 O1446 O 0.00669 1.08725 0.52044
 O1447 O -0.04164 1.06674 0.53516
 C1448 C 0.02398 1.00025 0.59113
 H1449 H 0.04245 1.05636 0.48854
 H1450 H -0.06158 1.01781 0.51122
 H1451 H 0.03143 0.96029 0.54830
 H1452 H 0.00527 0.95992 0.43754
 H1453 H -0.05358 1.08896 0.47966
 H1454 H -0.09038 0.99849 0.44250
 H1455 H -0.07031 0.94824 0.43525
 H1456 H 0.01012 0.89240 0.47486
 H1457 H -0.00306 1.10568 0.51280
 H1458 H 0.07929 1.04969 0.55333
 H1459 H 0.09553 0.99793 0.55292
 H1460 H 0.05861 0.90530 0.51044
 H1461 H -0.04807 1.08747 0.53070
 H1462 H -0.05734 0.99298 0.58601
 H1463 H 0.06248 1.00190 0.40470
 H1464 H 0.05504 0.91053 0.45905
 Zr1465 Zr 0.73047 0.28333 0.20465
 O1466 O 0.75060 0.30995 0.17071
 O1467 O 0.68616 0.27938 0.18889
 O1468 O 0.73259 0.26029 0.16246
 O1469 O 0.71911 0.34220 0.25442
 O1470 O 0.75294 0.21518 0.17492
 O1471 O 0.71343 0.32779 0.20530
 O1472 O 0.66355 0.24974 0.22410
 O1473 O 0.71954 0.23908 0.21545
 O1474 O 0.70602 0.28477 0.24515
 O1475 O 0.77199 0.26085 0.20855
 O1476 O 0.75869 0.30486 0.23635
 Zr1477 Zr 0.76436 0.23761 0.29371
 Zr1478 Zr 0.76077 0.21732 0.22142
 Zr1479 Zr 0.73436 0.30396 0.27706
 Zr1480 Zr 0.69661 0.24078 0.25667
 O1481 O 0.76044 0.34157 0.28933
 O1482 O 0.68054 0.19904 0.24076
 O1483 O 0.72289 0.26050 0.29059
 O1484 O 0.73648 0.21649 0.26197
 O1485 O 0.78949 0.23601 0.25361
 O1486 O 0.77514 0.28182 0.28276
 C1487 C 0.66344 0.26518 0.19963
 C1488 C 0.71139 0.34718 0.22689
 C1489 C 0.74222 0.23380 0.15566
 O1490 O 0.73562 0.17828 0.21214
 O1491 O 0.78084 0.18090 0.24304
 O1492 O 0.78468 0.19456 0.29251
 C1493 C 0.78878 0.17601 0.27047
 O1494 O 0.81080 0.30891 0.20598
 Zr1495 Zr 0.79868 0.28020 0.24221
 O1496 O 0.80802 0.24161 0.31033
 O1497 O 0.80114 0.20621 0.19841
 O1498 O 0.83383 0.25885 0.21777
 O1499 O 0.81666 0.32073 0.25922
 O1500 O 0.83230 0.26833 0.27384
 C1501 C 0.83150 0.25390 0.29903
 O1502 O 0.74445 0.20902 0.32610
 O1503 O 0.69295 0.31683 0.29706
 O1504 O 0.75957 0.25914 0.33616
 O1505 O 0.73840 0.30411 0.32429
 O1506 O 0.65980 0.26141 0.27923
 O1507 O 0.68428 0.21547 0.29535
 C1508 C 0.74891 0.28507 0.34333
 H1509 H 0.68716 0.29649 0.24364
 H1510 H 0.73174 0.19579 0.26823
 H1511 H 0.78716 0.29200 0.29848
 H1512 H 0.78317 0.26108 0.18917
 H1513 H 0.65831 0.19929 0.24265
 H1514 H 0.74858 0.16511 0.19958
 H1515 H 0.79842 0.18594 0.18977
 H1516 H 0.85290 0.26892 0.22323
 H1517 H 0.64143 0.25003 0.27400
 H1518 H 0.69600 0.33695 0.30593
 H1519 H 0.74741 0.35461 0.30196
 H1520 H 0.83886 0.31944 0.25739
 H1521 H 0.66358 0.20774 0.29281
 H1522 H 0.76012 0.20446 0.34133
 H1523 H 0.73470 0.31466 0.15577
 H1524 H 0.83279 0.31245 0.20636
 Zr1525 Zr 0.75945 0.71438 0.70263
 O1526 O 0.73367 0.68889 0.67193
 O1527 O 0.80187 0.71171 0.68326
 O1528 O 0.75817 0.73635 0.66004
 O1529 O 0.77089 0.65705 0.75440
 O1530 O 0.74346 0.78391 0.67205
 O1531 O 0.77368 0.66864 0.70428
 O1532 O 0.83073 0.74046 0.71432
 O1533 O 0.77535 0.75787 0.71065
 O1534 O 0.78646 0.71211 0.74118
 O1535 O 0.72120 0.74183 0.70797
 O1536 O 0.73177 0.69659 0.73686
 Zr1537 Zr 0.73626 0.76609 0.79152
 Zr1538 Zr 0.73722 0.78465 0.71899
 Zr1539 Zr 0.75868 0.69703 0.77586
 Zr1540 Zr 0.80132 0.75509 0.74955
 O1541 O 0.72993 0.66226 0.79044
 O1542 O 0.81980 0.79412 0.72984
 O1543 O 0.77535 0.73956 0.78635
 O1544 O 0.76441 0.78334 0.75742
 O1545 O 0.70886 0.76931 0.75330
 O1546 O 0.72047 0.72303 0.78276
 C1547 C 0.82686 0.72344 0.69100
 C1548 C 0.77708 0.65043 0.72680
 C1549 C 0.75161 0.76364 0.65297
 O1550 O 0.76506 0.82098 0.70669
 O1551 O 0.72266 0.82443 0.74137
 O1552 O 0.72458 0.81160 0.79113
 C1553 C 0.72034 0.83059 0.76983
 O1554 O 0.67942 0.69664 0.70896
 Zr1555 Zr 0.69512 0.72567 0.74353
 O1556 O 0.69230 0.76913 0.80923
 O1557 O 0.69662 0.79868 0.69857
 O1558 O 0.66060 0.74887 0.72025
 O1559 O 0.67344 0.68822 0.76314
 O1560 O 0.66470 0.74171 0.77592
 C1561 C 0.66744 0.75791 0.79975
 O1562 O 0.76146 0.79123 0.82315
 O1563 O 0.79965 0.68164 0.79460
 O1564 O 0.73845 0.74546 0.83423
 O1565 O 0.75696 0.69913 0.82332
 O1566 O 0.83757 0.73214 0.77030
 O1567 O 0.81964 0.78074 0.78551
 C1568 C 0.74773 0.71934 0.84195
 H1569 H 0.80413 0.69877 0.73903
 H1570 H 0.77199 0.80346 0.76273
 H1571 H 0.70809 0.71474 0.79937
 H1572 H 0.70899 0.74212 0.68931
 H1573 H 0.84193 0.79142 0.72911
 H1574 H 0.75264 0.83460 0.69422
 H1575 H 0.70086 0.81812 0.68878
 H1576 H 0.64110 0.74036 0.72685
 H1577 H 0.85649 0.74089 0.76240
 H1578 H 0.79532 0.66234 0.80467
 H1579 H 0.74225 0.64874 0.80311
 H1580 H 0.65144 0.69140 0.76131
 H1581 H 0.84047 0.78669 0.78028
 H1582 H 0.74728 0.79861 0.83889
 H1583 H 0.74780 0.68169 0.65610
 H1584 H 0.65722 0.69516 0.71009
 Zr1585 Zr 0.23599 0.23017 0.79114
 O1586 O 0.25671 0.20474 0.82558
 O1587 O 0.19170 0.23322 0.80681
 O1588 O 0.23624 0.25409 0.83241
 O1589 O 0.22526 0.17035 0.74261
 O1590 O 0.25750 0.29892 0.82025
 O1591 O 0.21928 0.18557 0.79146
 O1592 O 0.16868 0.26249 0.77162
 O1593 O 0.22467 0.27427 0.77962
 O1594 O 0.21184 0.22770 0.75081
 O1595 O 0.27701 0.25342 0.78731
 O1596 O 0.26471 0.20803 0.76030
 Zr1597 Zr 0.27011 0.27387 0.70170
 Zr1598 Zr 0.26560 0.29679 0.77333
 Zr1599 Zr 0.24079 0.20805 0.71951
 Zr1600 Zr 0.20186 0.27136 0.73864
 O1601 O 0.26762 0.17050 0.70809
 O1602 O 0.18520 0.31324 0.75390
 O1603 O 0.22878 0.25107 0.70515
 O1604 O 0.24151 0.29571 0.73273
 O1605 O 0.29482 0.27710 0.74179
 O1606 O 0.28146 0.23020 0.71380
 C1607 C 0.16878 0.24701 0.79612
 C1608 C 0.21715 0.16590 0.77012
 C1609 C 0.24591 0.28038 0.83926
 O1610 O 0.23966 0.33554 0.78228
 O1611 O 0.28455 0.33377 0.75010
 O1612 O 0.28679 0.31780 0.70114
 C1613 C 0.29058 0.33767 0.72182
 O1614 O 0.31530 0.20514 0.79167
 Zr1615 Zr 0.30425 0.23316 0.75458
 O1616 O 0.31487 0.27134 0.68667
 O1617 O 0.30595 0.30888 0.79536
 O1618 O 0.33882 0.25494 0.77907
 O1619 O 0.32360 0.19267 0.73864
 O1620 O 0.33826 0.24449 0.72352
 C1621 C 0.33817 0.25904 0.69849
 O1622 O 0.24995 0.29996 0.66736
 O1623 O 0.19984 0.19427 0.69959
 O1624 O 0.26784 0.25090 0.65989
 O1625 O 0.24474 0.20721 0.67235
 O1626 O 0.16540 0.25021 0.71647
 O1627 O 0.18938 0.29580 0.69949
 C1628 C 0.25641 0.22532 0.65312
 H1629 H 0.19311 0.21590 0.75247
 H1630 H 0.23620 0.31607 0.72583
 H1631 H 0.29401 0.21987 0.69847
 H1632 H 0.28791 0.25362 0.80678
 H1633 H 0.16298 0.31270 0.75224
 H1634 H 0.25236 0.34894 0.79470
 H1635 H 0.30268 0.32913 0.80389
 H1636 H 0.35799 0.24453 0.77433
 H1637 H 0.14688 0.26153 0.72166
 H1638 H 0.20332 0.17406 0.69100
 H1639 H 0.25493 0.15712 0.69564
 H1640 H 0.34565 0.19406 0.74158
 H1641 H 0.16871 0.30374 0.70209
 H1642 H 0.26584 0.30467 0.65230
 H1643 H 0.24082 0.19988 0.84057
 H1644 H 0.33732 0.20175 0.79209
 Zr1645 Zr 0.26714 0.76703 0.28779
 O1646 O 0.24756 0.79322 0.32269
 O1647 O 0.31217 0.76584 0.30170
 O1648 O 0.26835 0.74568 0.33042
 O1649 O 0.27627 0.82569 0.23648
 O1650 O 0.24580 0.70085 0.32161
 O1651 O 0.27938 0.81222 0.28610
 O1652 O 0.33403 0.73317 0.26864
 O1653 O 0.27835 0.72251 0.27874
 O1654 O 0.29077 0.76761 0.24680
 O1655 O 0.22588 0.74438 0.28639
 O1656 O 0.23834 0.78761 0.25610
 Zr1657 Zr 0.23115 0.71792 0.20260
 Zr1658 Zr 0.23712 0.70028 0.27507
 Zr1659 Zr 0.26163 0.78565 0.21466
 Zr1660 Zr 0.30024 0.72301 0.23699
 O1661 O 0.23447 0.82189 0.20051
 O1662 O 0.31745 0.68193 0.25346
 O1663 O 0.27255 0.74115 0.20340
 O1664 O 0.26039 0.69820 0.23396
 O1665 O 0.20729 0.71800 0.24329
 O1666 O 0.22071 0.76281 0.21139
 C1667 C 0.33467 0.75060 0.29180
 C1668 C 0.28107 0.83152 0.26472
 C1669 C 0.25821 0.72015 0.33913
 O1670 O 0.26319 0.66205 0.28551
 O1671 O 0.21726 0.66230 0.25557
 O1672 O 0.21102 0.67499 0.20618
 C1673 C 0.20817 0.65676 0.22859
 O1674 O 0.18903 0.79399 0.28803
 Zr1675 Zr 0.19849 0.76285 0.25288
 O1676 O 0.18666 0.72181 0.18704
 O1677 O 0.19724 0.68999 0.29914
 O1678 O 0.16399 0.74405 0.28001
 O1679 O 0.17909 0.80198 0.23414
 O1680 O 0.16367 0.74905 0.22410
 C1681 C 0.16340 0.73399 0.19933
 O1682 O 0.24882 0.68697 0.17081
 O1683 O 0.30273 0.79823 0.19410
 O1684 O 0.23764 0.73613 0.15937
 O1685 O 0.25783 0.78246 0.16679
 O1686 O 0.33637 0.74283 0.21295
 O1687 O 0.31131 0.69657 0.19855
 C1688 C 0.24862 0.76089 0.14967
 H1689 H 0.30934 0.77974 0.24774
 H1690 H 0.26515 0.67731 0.22822
 H1691 H 0.20821 0.77189 0.19536
 H1692 H 0.21537 0.74556 0.30612
 H1693 H 0.33959 0.68230 0.25071
 H1694 H 0.25086 0.64957 0.29924
 H1695 H 0.20053 0.67035 0.30892
 H1696 H 0.14501 0.75467 0.27518
 H1697 H 0.35489 0.73153 0.21804
 H1698 H 0.29915 0.81788 0.18446
 H1699 H 0.24731 0.83451 0.18740
 H1700 H 0.15712 0.80109 0.23795
 H1701 H 0.33214 0.68892 0.20052
 H1702 H 0.23252 0.68223 0.15630
 H1703 H 0.26390 0.79913 0.33671
 H1704 H 0.16716 0.79824 0.28861
 Zr1705 Zr 0.23231 0.77765 0.70714
 O1706 O 0.25168 0.80388 0.67244
 O1707 O 0.18761 0.77408 0.69281
 O1708 O 0.23241 0.75466 0.66516
 O1709 O 0.22305 0.83698 0.75667
 O1710 O 0.25426 0.70988 0.67633
 O1711 O 0.21559 0.82208 0.70795
 O1712 O 0.16550 0.74552 0.72923
 O1713 O 0.22127 0.73353 0.71841
 O1714 O 0.20930 0.77962 0.74841
 O1715 O 0.27362 0.75468 0.70944
 O1716 O 0.26176 0.79926 0.73750
 Zr1717 Zr 0.26910 0.73211 0.79488
 Zr1718 Zr 0.26249 0.71126 0.72293
 Zr1719 Zr 0.23899 0.79871 0.77908
 Zr1720 Zr 0.19983 0.73581 0.76040
 O1721 O 0.26614 0.83584 0.79044
 O1722 O 0.18261 0.69435 0.74499
 O1723 O 0.22770 0.75536 0.79315
 O1724 O 0.23966 0.71117 0.76438
 O1725 O 0.29255 0.73002 0.75381
 O1726 O 0.27984 0.77617 0.78333
 C1727 C 0.16494 0.76065 0.70454
 C1728 C 0.21433 0.84168 0.72936
 C1729 C 0.24261 0.72863 0.65772
 O1730 O 0.23610 0.67302 0.71379
 O1731 O 0.28185 0.67402 0.74424
 O1732 O 0.28738 0.68815 0.79343
 C1733 C 0.29008 0.66907 0.77162
 O1734 O 0.31176 0.80315 0.70515
 Zr1735 Zr 0.30161 0.77417 0.74177
 O1736 O 0.31412 0.73432 0.80831
 O1737 O 0.30240 0.69918 0.69964
 O1738 O 0.33560 0.75313 0.71546
 O1739 O 0.32092 0.81424 0.75840
 O1740 O 0.33660 0.76165 0.77116
 C1741 C 0.33713 0.74638 0.79576
 O1742 O 0.25023 0.70479 0.82899
 O1743 O 0.19850 0.81250 0.80036
 O1744 O 0.26703 0.75447 0.83725
 O1745 O 0.24381 0.79863 0.82619
 O1746 O 0.16434 0.75688 0.78462
 O1747 O 0.18859 0.71054 0.79945
 C1748 C 0.25563 0.78001 0.84484
 H1749 H 0.19052 0.79153 0.74753
 H1750 H 0.23472 0.69062 0.77096
 H1751 H 0.29273 0.78609 0.79852
 H1752 H 0.28416 0.75485 0.68970
 H1753 H 0.16046 0.69495 0.74761
 H1754 H 0.24848 0.65967 0.70084
 H1755 H 0.29897 0.67914 0.69071
 H1756 H 0.35484 0.76343 0.71976
 H1757 H 0.14557 0.74588 0.78004
 H1758 H 0.20217 0.83262 0.80898
 H1759 H 0.25366 0.84916 0.80331
 H1760 H 0.34295 0.81289 0.75507
 H1761 H 0.16774 0.70303 0.79762
 H1762 H 0.26660 0.70002 0.84339
 H1763 H 0.23538 0.80879 0.65800
 H1764 H 0.33369 0.80692 0.70451
 Zr1765 Zr 0.26098 0.21582 0.20585
 O1766 O 0.24141 0.18757 0.17294
 O1767 O 0.30562 0.21920 0.19060
 O1768 O 0.26028 0.23662 0.16276
 O1769 O 0.27292 0.15946 0.25819
 O1770 O 0.23879 0.28182 0.17304
 O1771 O 0.27865 0.17181 0.20853
 O1772 O 0.32697 0.25126 0.22441
 O1773 O 0.27092 0.26075 0.21474
 O1774 O 0.28477 0.21681 0.24653
 O1775 O 0.21905 0.23783 0.20822
 O1776 O 0.23254 0.19529 0.23807
 Zr1777 Zr 0.22459 0.26547 0.29217
 Zr1778 Zr 0.22925 0.28214 0.21924
 Zr1779 Zr 0.25620 0.19866 0.27883
 Zr1780 Zr 0.29318 0.26148 0.25612
 O1781 O 0.23023 0.16161 0.29294
 O1782 O 0.30888 0.30253 0.23822
 O1783 O 0.26648 0.24302 0.29045
 O1784 O 0.25285 0.28536 0.25989
 O1785 O 0.20015 0.26459 0.25185
 O1786 O 0.21491 0.22049 0.28323
 C1787 C 0.32790 0.23434 0.20088
 C1788 C 0.28109 0.15347 0.23087
 C1789 C 0.25074 0.26272 0.15485
 O1790 O 0.25368 0.32125 0.20839
 O1791 O 0.20838 0.31967 0.23853
 O1792 O 0.20499 0.30887 0.28871
 C1793 C 0.20082 0.32627 0.26579
 O1794 O 0.18106 0.18916 0.20725
 Zr1795 Zr 0.19206 0.21961 0.24243
 O1796 O 0.18020 0.26271 0.30747
 O1797 O 0.18919 0.29113 0.19516
 O1798 O 0.15689 0.23913 0.21685
 O1799 O 0.17475 0.17949 0.26099
 O1800 O 0.15762 0.23191 0.27329
 C1801 C 0.15737 0.24868 0.29704
 O1802 O 0.24348 0.29525 0.32409
 O1803 O 0.29739 0.18696 0.29966
 O1804 O 0.22823 0.24578 0.33554
 O1805 O 0.25254 0.20176 0.32589
 O1806 O 0.32976 0.24267 0.28024
 O1807 O 0.30446 0.28898 0.29361
 C1808 C 0.24067 0.22108 0.34394
 H1809 H 0.30384 0.20533 0.24581
 H1810 H 0.25725 0.30641 0.26521
 H1811 H 0.20275 0.21100 0.29933
 H1812 H 0.20833 0.23650 0.18870
 H1813 H 0.33107 0.30275 0.24035
 H1814 H 0.24094 0.33322 0.19458
 H1815 H 0.19189 0.31075 0.18518
 H1816 H 0.13794 0.22893 0.22256
 H1817 H 0.34811 0.25392 0.27454
 H1818 H 0.29429 0.16741 0.30967
 H1819 H 0.24321 0.14955 0.30641
 H1820 H 0.15257 0.18008 0.25880
 H1821 H 0.32502 0.29700 0.29081
 H1822 H 0.22726 0.30056 0.33862
 H1823 H 0.25759 0.18203 0.15846
 H1824 H 0.15917 0.18508 0.20771
 Zr1825 Zr 0.73440 0.73566 0.27807
 O1826 O 0.75918 0.70697 0.30677
 O1827 O 0.69082 0.73335 0.29654
 O1828 O 0.73612 0.75297 0.32270
 O1829 O 0.72229 0.68220 0.22244
 O1830 O 0.75394 0.80022 0.31611
 O1831 O 0.72064 0.69096 0.27327
 O1832 O 0.66392 0.76535 0.26702
 O1833 O 0.71929 0.77980 0.27421
 O1834 O 0.70791 0.73711 0.23909
 O1835 O 0.77375 0.76152 0.27516
 O1836 O 0.76231 0.72012 0.24240
 Zr1837 Zr 0.75901 0.79437 0.19506
 Zr1838 Zr 0.75834 0.80537 0.26926
 Zr1839 Zr 0.73569 0.72376 0.20342
 Zr1840 Zr 0.69426 0.78126 0.23438
 O1841 O 0.76424 0.68967 0.18651
 O1842 O 0.67568 0.81911 0.25661
 O1843 O 0.71998 0.76774 0.19688
 O1844 O 0.73158 0.80932 0.23064
 O1845 O 0.78631 0.79292 0.23334
 O1846 O 0.77416 0.75016 0.19876
 C1847 C 0.66636 0.74676 0.28900
 C1848 C 0.71709 0.67408 0.25001
 C1849 C 0.74498 0.77852 0.33283
 O1850 O 0.73065 0.84050 0.28545
 O1851 O 0.77433 0.84587 0.25152
 O1852 O 0.77573 0.83830 0.20060
 C1853 C 0.78023 0.85432 0.22439
 O1854 O 0.81552 0.71561 0.26848
 Zr1855 Zr 0.79984 0.74855 0.23776
 O1856 O 0.80203 0.79815 0.17676
 O1857 O 0.79911 0.81683 0.29094
 O1858 O 0.83467 0.76818 0.26367
 O1859 O 0.82063 0.71311 0.21348
 O1860 O 0.83073 0.76855 0.20716
 C1861 C 0.82729 0.78729 0.18526
 O1862 O 0.73472 0.82487 0.16788
 O1863 O 0.69485 0.71081 0.18282
 O1864 O 0.75359 0.77835 0.15069
 O1865 O 0.73855 0.72984 0.15598
 O1866 O 0.65749 0.76132 0.21160
 O1867 O 0.67838 0.80993 0.19966
 C1868 C 0.74566 0.75284 0.13989
 H1869 H 0.68999 0.72406 0.24005
 H1870 H 0.72487 0.83019 0.22741
 H1871 H 0.78638 0.74363 0.18119
 H1872 H 0.78597 0.75953 0.29370
 H1873 H 0.65348 0.81729 0.25568
 H1874 H 0.74330 0.85289 0.29893
 H1875 H 0.79526 0.83542 0.30259
 H1876 H 0.85405 0.76032 0.25580
 H1877 H 0.63885 0.77117 0.21899
 H1878 H 0.69911 0.69213 0.17149
 H1879 H 0.75179 0.67723 0.17289
 H1880 H 0.84268 0.71615 0.21470
 H1881 H 0.65770 0.81668 0.20460
 H1882 H 0.74901 0.83290 0.15267
 H1883 H 0.74493 0.69903 0.32206
 H1884 H 0.83762 0.71344 0.26640
 Zr1885 Zr 0.77302 0.26201 0.78319
 O1886 O 0.75129 0.28821 0.81669
 O1887 O 0.81737 0.26173 0.79854
 O1888 O 0.77383 0.24019 0.82569
 O1889 O 0.78208 0.32024 0.73194
 O1890 O 0.75355 0.19428 0.81620
 O1891 O 0.78738 0.30714 0.78149
 O1892 O 0.84156 0.23148 0.76476
 O1893 O 0.78605 0.21788 0.77382
 O1894 O 0.79698 0.26364 0.74244
 O1895 O 0.73296 0.23717 0.78105
 O1896 O 0.74375 0.28173 0.75144
 Zr1897 Zr 0.74072 0.21256 0.69685
 Zr1898 Zr 0.74593 0.19349 0.76919
 Zr1899 Zr 0.76745 0.28081 0.71018
 Zr1900 Zr 0.80874 0.21979 0.73252
 O1901 O 0.73913 0.31680 0.69777
 O1902 O 0.82727 0.17940 0.74930
 O1903 O 0.78103 0.23727 0.69837
 O1904 O 0.77015 0.19348 0.72849
 O1905 O 0.71605 0.21062 0.73712
 O1906 O 0.72771 0.25649 0.70642
 C1907 C 0.84080 0.24818 0.78848
 C1908 C 0.78919 0.32606 0.75957
 C1909 C 0.76465 0.21414 0.83412
 O1910 O 0.77343 0.15641 0.78006
 O1911 O 0.72843 0.15449 0.74783
 O1912 O 0.72631 0.16796 0.69825
 C1913 C 0.72319 0.14891 0.71968
 O1914 O 0.69386 0.28502 0.78317
 Zr1915 Zr 0.70522 0.25494 0.74765
 O1916 O 0.69580 0.21258 0.68203
 O1917 O 0.70589 0.18109 0.79183
 O1918 O 0.67132 0.23402 0.77394
 O1919 O 0.68398 0.29340 0.72951
 O1920 O 0.67169 0.24021 0.71808
 C1921 C 0.67210 0.22445 0.69378
 O1922 O 0.76144 0.18505 0.66367
 O1923 O 0.80778 0.29452 0.68884
 O1924 O 0.74360 0.23250 0.65407
 O1925 O 0.76228 0.27920 0.66247
 O1926 O 0.84462 0.24101 0.70933
 O1927 O 0.82167 0.19417 0.69408
 C1928 C 0.75278 0.25814 0.64494
 H1929 H 0.81526 0.27618 0.74349
 H1930 H 0.77631 0.17302 0.72252
 H1931 H 0.71468 0.26524 0.69062
 H1932 H 0.72207 0.23771 0.80059
 H1933 H 0.84942 0.18074 0.74711
 H1934 H 0.76116 0.14315 0.79308
 H1935 H 0.70985 0.16146 0.80136
 H1936 H 0.65190 0.24372 0.76892
 H1937 H 0.86340 0.23023 0.71459
 H1938 H 0.80360 0.31422 0.67953
 H1939 H 0.75130 0.33011 0.68472
 H1940 H 0.66206 0.29138 0.73316
 H1941 H 0.84252 0.18679 0.69673
 H1942 H 0.74578 0.17909 0.64890
 H1943 H 0.76692 0.29434 0.83139
 H1944 H 0.67177 0.28793 0.78382
 N1945 N 0.44531 1.00027 0.36306
 N1946 N 0.46923 0.98642 0.37058
 N1947 N -0.04147 0.49332 0.85837
 N1948 N -0.01863 0.49305 0.87418
 N1949 N 0.06366 -0.00698 0.86950
 N1950 N 0.04162 0.00878 0.87881
 N1951 N 0.57030 0.49964 0.37888
 N1952 N 0.54616 0.51248 0.38765
 N1953 N 0.54288 0.51963 0.14590
 N1954 N 0.52224 0.50199 0.13710
 N1955 N 0.05478 1.01508 0.63104
 N1956 N 0.03199 1.00007 0.62250
 N1957 N -0.04870 0.48929 0.64108
 N1958 N -0.02760 0.50671 0.63271
 N1959 N 0.44819 -0.00628 0.13136
 N1960 N 0.47041 0.01021 0.12421
 N1961 N 0.35912 0.45114 0.01338
 N1962 N 0.37921 0.45010 0.03383
 N1963 N -0.13162 0.94532 0.50030
 N1964 N -0.11201 0.94661 0.52125
 N1965 N -0.13269 0.05845 0.97903
 N1966 N -0.11222 0.04688 0.96408
 N1967 N 0.37053 0.55394 0.49838
 N1968 N 0.39120 0.55371 0.47829
 N1969 N 0.13792 0.55547 0.50889
 N1970 N 0.11793 0.55669 0.52961
 N1971 N 0.63663 0.05721 0.00126
 N1972 N 0.61610 0.05837 0.02145
 N1973 N 0.63865 0.94126 0.48951
 N1974 N 0.61815 0.94005 0.46944
 N1975 N 0.12994 0.44309 1.00935
 N1976 N 0.10916 0.44139 0.98972
 N1977 N 0.00329 0.36338 0.45713
 N1978 N -0.00442 0.38798 0.44505
 N1979 N 0.50196 -0.13194 -0.05082
 N1980 N 0.48976 -0.10857 -0.06145
 N1981 N -0.00306 -0.13597 1.05505
 N1982 N 0.01301 -0.11376 1.06270
 N1983 N 0.50689 0.36695 0.55982
 N1984 N 0.51590 0.39061 0.57287
 N1985 N 0.50585 1.13409 0.54357
 N1986 N 0.49453 1.11041 0.55453
 N1987 N -0.00773 0.63478 1.05390
 N1988 N -0.01860 0.61076 1.06452
 N1989 N 0.48918 0.64296 -0.04346
 N1990 N 0.50226 0.61907 -0.05181
 N1991 N 0.01044 1.12799 0.42527
 N1992 N 0.02055 1.10269 0.42132
 N1993 N 0.76021 0.68838 0.88232
 N1994 N 0.74659 0.71168 0.87320
 N1995 N 0.25874 0.19312 0.38386
 N1996 N 0.24087 0.21368 0.37529
 N1997 N 0.74157 0.32053 0.38126
 N1998 N 0.74959 0.29402 0.37437
 N1999 N 0.24119 0.81162 0.88425
 N2000 N 0.25663 0.78899 0.87591
 N2001 N 0.25195 0.78620 0.10263
 N2002 N 0.25167 0.76297 0.11754
 N2003 N 0.75511 0.28672 0.60008
 N2004 N 0.75220 0.26250 0.61294
 N2005 N 0.24184 0.19294 0.61483
 N2006 N 0.25747 0.21553 0.62240
 N2007 N 0.74549 0.72662 0.09383
 N2008 N 0.74503 0.75054 0.10769
 N2009 N 0.19504 0.60787 0.24302
 N2010 N 0.19346 0.62867 0.22340
 N2011 N 0.70188 0.10040 0.72524
 N2012 N 0.71511 0.11941 0.71011
 N2013 N 0.80352 0.12852 0.25526
 N2014 N 0.80348 0.14810 0.27622
 N2015 N 0.30198 0.61985 0.75794
 N2016 N 0.30309 0.64038 0.77796
 N2017 N 0.31004 0.38649 0.72808
 N2018 N 0.30153 0.36595 0.71160
 N2019 N 0.79478 0.90146 0.24252
 N2020 N 0.79387 0.88297 0.22061
 N2021 N 0.69883 0.87938 0.76716
 N2022 N 0.71506 0.86072 0.77960
 N2023 N 0.18482 0.37296 0.24832
 N2024 N 0.18699 0.35496 0.27056
 N2025 N 0.11738 0.25669 0.80350
 N2026 N 0.14141 0.24416 0.81242
 N2027 N 0.61497 0.75194 0.29780
 N2028 N 0.63985 0.74038 0.30584
 N2029 N 0.61220 0.25541 0.19440
 N2030 N 0.63595 0.26694 0.18345
 N2031 N 0.11269 0.75500 0.70164
 N2032 N 0.13712 0.76298 0.68908
 N2033 N 0.87684 0.72691 0.67512
 N2034 N 0.85174 0.71596 0.67224
 N2035 N 0.37882 0.24538 0.19558
 N2036 N 0.35584 0.23193 0.18537
 N2037 N 0.38547 0.73865 0.29978
 N2038 N 0.36234 0.75364 0.30751
 N2039 N 0.89232 0.24001 0.79689
 N2040 N 0.86782 0.25247 0.80484
 N2041 N 0.56670 0.99970 0.62527
 N2042 N 0.54018 1.00840 0.61880
 N2043 N 0.03115 0.50713 1.14711
 N2044 N 0.01090 0.51596 1.13035
 N2045 N -0.05532 -0.01472 1.13783
 N2046 N -0.04208 -0.03008 1.11888
 N2047 N 0.43519 0.49594 0.63796
 N2048 N 0.46299 0.49132 0.63267
 N2049 N 0.43874 0.50017 -0.12200
 N2050 N 0.46101 0.51607 -0.11384
 N2051 N -0.05236 0.99274 0.36256
 N2052 N -0.02834 1.00578 0.37093
 N2053 N 0.05843 0.50479 0.37149
 N2054 N 0.03659 0.48934 0.38166
 N2055 N 0.55831 0.00321 -0.13417
 N2056 N 0.53384 -0.00927 -0.12609
 N2057 N 0.62712 0.56030 0.00829
 N2058 N 0.60825 0.55808 -0.01317
 N2059 N 0.14084 1.04356 0.49157
 N2060 N 0.12193 1.04231 0.47003
 N2061 N 0.14067 -0.04545 1.03114
 N2062 N 0.12074 -0.02947 1.04205
 N2063 N 0.64237 0.45318 0.53554
 N2064 N 0.62230 0.46548 0.55031
 N2065 N -0.13088 0.44860 0.50468
 N2066 N -0.11224 0.45057 0.48282
 N2067 N 0.36560 -0.04771 -0.00160
 N2068 N 0.38403 -0.04599 -0.02373
 N2069 N 0.36866 1.04689 0.50170
 N2070 N 0.38858 1.04666 0.52233
 N2071 N -0.14446 0.54785 0.99941
 N2072 N -0.12360 0.54851 1.01896
 N2073 N -0.00454 0.63758 0.56058
 N2074 N 0.01210 0.61557 0.56777
 N2075 N 0.49990 0.14231 0.04766
 N2076 N 0.51307 0.11908 0.05747
 N2077 N 0.00252 0.13613 0.95146
 N2078 N -0.01055 0.11271 0.94199
 N2079 N 0.50546 0.63862 0.45559
 N2080 N 0.49271 0.61456 0.44754
 N2081 N 0.50053 0.85902 0.44484
 N2082 N 0.51464 0.88189 0.43559
 N2083 N -0.00456 0.36130 0.95191
 N2084 N 0.01038 0.38430 0.94443
 N2085 N 0.49179 0.37038 0.05926
 N2086 N 0.48057 0.39380 0.07106
 N2087 N -0.00399 0.86615 0.55607
 N2088 N -0.01200 0.89140 0.56661
 N2089 N 0.24501 0.29854 0.11824
 N2090 N 0.25353 0.27197 0.12401
 N2091 N 0.74811 0.80007 0.61605
 N2092 N 0.75363 0.77273 0.62196
 N2093 N 0.25904 0.69872 0.61801
 N2094 N 0.24165 0.71977 0.62666
 N2095 N 0.75221 0.19806 0.11890
 N2096 N 0.74150 0.22393 0.12475
 N2097 N 0.74984 0.18617 0.87628
 N2098 N 0.76644 0.20682 0.86561
 N2099 N 0.24404 0.69154 0.38051
 N2100 N 0.26053 0.71250 0.37038
 N2101 N 0.76174 0.80438 0.37506
 N2102 N 0.74521 0.78350 0.36479
 N2103 N 0.25825 0.31252 0.87915
 N2104 N 0.24386 0.28960 0.87018
 N2105 N 0.80241 0.37536 0.74605
 N2106 N 0.80117 0.35509 0.76623
 N2107 N 0.30141 0.88073 0.26127
 N2108 N 0.28652 0.86155 0.27453
 N2109 N 0.20209 0.89087 0.74275
 N2110 N 0.20106 0.87018 0.72296
 N2111 N 0.70044 0.39642 0.24051
 N2112 N 0.69847 0.37588 0.22060
 N2113 N 0.70040 0.62571 0.23505
 N2114 N 0.70483 0.64504 0.25570
 N2115 N 0.20266 0.11809 0.75546
 N2116 N 0.20336 0.13764 0.77648
 N2117 N 0.29571 0.10512 0.24586
 N2118 N 0.29506 0.12501 0.22528
 N2119 N 0.79463 0.60454 0.74447
 N2120 N 0.79098 0.62176 0.72178
 N2121 N 0.87762 0.78499 0.17009
 N2122 N 0.85298 0.79747 0.16907
 N2123 N 0.38944 0.24875 0.69237
 N2124 N 0.36571 0.26101 0.68223
 N2125 N 0.38888 0.75533 0.80100
 N2126 N 0.36511 0.74278 0.81063
 N2127 N 0.88357 0.26024 0.30643
 N2128 N 0.85818 0.25179 0.31642
 N2129 N 0.10696 0.23623 0.30817
 N2130 N 0.13011 0.25191 0.31361
 N2131 N 0.61699 0.74942 0.80924
 N2132 N 0.64089 0.76290 0.81705
 N2133 N 0.62096 0.23359 0.68917
 N2134 N 0.64432 0.22094 0.67841
 N2135 N 0.11124 0.74041 0.19650
 N2136 N 0.13547 0.73149 0.18395
   
