data_POSCAR
  _audit_creation_date              2014-09-24
  _audit_creation_method            'ToBaCCo'
  _symmetry_space_group_name_H-M    'P1'
  _symmetry_Int_Tables_number       1
  _symmetry_cell_setting            triclinic
  loop_
  _symmetry_equiv_pos_as_xyz
 x,y,z
_cell_length_a 51.2018
_cell_length_b 51.4218
_cell_length_c 53.6711
_cell_angle_alpha 89.182800
_cell_angle_beta 90.195100
_cell_angle_gamma 91.493200
loop_
  _atom_site_label
  _atom_site_type_symbol
  _atom_site_fract_x
  _atom_site_fract_y
  _atom_site_fract_z
C1 C 0.41395 0.03608 0.29312
 H2 H 0.40033 0.05159 0.29070
 C3 C 0.43049 0.03601 0.31396
 H4 H 0.42894 0.05118 0.32762
 C5 C 0.43196 -0.00298 0.27906
 H6 H 0.43245 -0.01825 0.26548
 C7 C 0.44909 -0.00359 0.29940
 H8 H 0.46251 -0.01944 0.30135
 N9 N 0.41455 0.01645 0.27639
 C10 C 0.39680 0.00370 0.19811
 H11 H 0.37663 -0.00299 0.19939
 C12 C 0.40959 0.00375 0.17515
 H13 H 0.39925 -0.00306 0.15876
 C14 C 0.43474 0.02120 0.21778
 H15 H 0.44433 0.02832 0.23440
 C16 C 0.44831 0.02148 0.19517
 H17 H 0.46843 0.02847 0.19453
 Zn18 Zn 0.39028 0.01396 0.24916
 N19 N 0.40939 0.01252 0.21882
 C20 C 0.36717 0.05756 0.22556
 N21 N 0.36788 0.04360 0.24733
 C22 C 0.35337 0.05076 0.26721
 C23 C 0.33774 0.07273 0.26569
 C24 C 0.35141 0.07928 0.22310
 C25 C 0.38244 -0.04044 0.24803
 C26 C 0.37000 -0.06457 0.25248
 C27 C 0.33236 -0.04231 0.26716
 C28 C 0.34559 -0.01854 0.26239
 N29 N 0.37042 -0.01797 0.25344
 H30 H 0.37888 0.05200 0.20993
 H31 H 0.35424 0.03967 0.28446
 H32 H 0.32698 0.07854 0.28194
 H33 H 0.35112 0.08995 0.20556
 H34 H 0.40177 -0.03969 0.23998
 H35 H 0.37988 -0.08177 0.24653
 H36 H 0.31314 -0.04167 0.27541
 H37 H 0.33609 -0.00059 0.26642
 C38 C 0.43554 0.01305 0.17346
 C39 C 0.44838 0.01597 0.31730
 C40 C 0.34476 -0.06621 0.26312
 C41 C 0.33629 0.08711 0.24326
 C42 C 0.09862 -0.01190 0.69054
 H43 H 0.11976 -0.01109 0.69056
 C44 C 0.08494 -0.01218 0.66792
 H45 H 0.09562 -0.01143 0.65053
 C46 C 0.05889 -0.01377 0.71307
 H47 H 0.04875 -0.01465 0.73069
 C48 C 0.04444 -0.01421 0.69084
 H49 H 0.02329 -0.01500 0.69147
 N50 N 0.08551 -0.01230 0.71256
 C51 C 0.08260 -0.02959 0.78910
 H52 H 0.09473 -0.04637 0.78752
 C53 C 0.06778 -0.02638 0.81069
 H54 H 0.06853 -0.04075 0.82561
 C55 C 0.06816 0.01061 0.77269
 H56 H 0.06896 0.02527 0.75803
 C57 C 0.05311 0.01458 0.79391
 H58 H 0.04234 0.03231 0.79560
 Zn59 Zn 0.10552 -0.01182 0.74277
 N60 N 0.08272 -0.01105 0.77073
 C61 C 0.14044 0.02319 0.76637
 N62 N 0.12667 0.01940 0.74491
 C63 C 0.12567 0.03848 0.72709
 C64 C 0.13848 0.06252 0.73073
 C65 C 0.15348 0.04700 0.77079
 C66 C 0.11407 -0.06592 0.74261
 C67 C 0.12834 -0.08874 0.74136
 C68 C 0.16816 -0.06263 0.74154
 C69 C 0.15313 -0.04026 0.74301
 N70 N 0.12654 -0.04223 0.74339
 H71 H 0.14057 0.00795 0.78047
 H72 H 0.11422 0.03548 0.71040
 H73 H 0.13722 0.07763 0.71654
 H74 H 0.16384 0.04988 0.78819
 H75 H 0.09295 -0.06707 0.74270
 H76 H 0.11806 -0.10740 0.74082
 H77 H 0.18926 -0.06069 0.74088
 H78 H 0.16275 -0.02130 0.74330
 C79 C 0.05324 -0.00384 0.81337
 C80 C 0.05754 -0.01335 0.66794
 C81 C 0.15576 -0.08726 0.74024
 C82 C 0.15209 0.06722 0.75306
 C83 C 0.55850 0.48747 0.21995
 H84 H 0.54837 0.48697 0.23759
 C85 C 0.54411 0.48707 0.19768
 H86 H 0.52296 0.48663 0.19823
 C87 C 0.59828 0.48818 0.19746
 H88 H 0.61942 0.48838 0.19755
 C89 C 0.58468 0.48795 0.17484
 H90 H 0.59540 0.48819 0.15747
 N91 N 0.58513 0.48819 0.21944
 C92 C 0.58221 0.46971 0.29545
 H93 H 0.59295 0.45209 0.29311
 C94 C 0.56796 0.47327 0.31733
 H95 H 0.56768 0.45827 0.33170
 C96 C 0.57066 0.51146 0.28049
 H97 H 0.57229 0.52650 0.26624
 C98 C 0.55638 0.51588 0.30210
 H99 H 0.54688 0.53427 0.30436
 Zn100 Zn 0.60549 0.48732 0.24926
 N101 N 0.58339 0.48877 0.27762
 C102 C 0.64356 0.52022 0.27176
 N103 N 0.62773 0.51773 0.25143
 C104 C 0.62474 0.53798 0.23511
 C105 C 0.63761 0.56191 0.23918
 C106 C 0.65700 0.54376 0.27638
 C107 C 0.61088 0.43304 0.24628
 C108 C 0.62360 0.40942 0.24373
 C109 C 0.66495 0.43281 0.24616
 C110 C 0.65145 0.45604 0.24860
 N111 N 0.62483 0.45579 0.24866
 H112 H 0.64505 0.50415 0.28488
 H113 H 0.61148 0.53601 0.21952
 H114 H 0.63464 0.57801 0.22634
 H115 H 0.66921 0.54560 0.29280
 H116 H 0.58976 0.43330 0.24602
 H117 H 0.61214 0.39156 0.24176
 H118 H 0.68611 0.43332 0.24633
 H119 H 0.66230 0.47426 0.25005
 C120 C 0.55500 0.49669 0.32086
 C121 C 0.55730 0.48730 0.17484
 C122 C 0.65100 0.40912 0.24328
 C123 C 0.65362 0.56508 0.26023
 C124 C 0.90896 0.52292 0.80285
 H125 H 0.89400 0.53712 0.80038
 C126 C 0.92270 0.52188 0.82539
 H127 H 0.91753 0.53511 0.83999
 C128 C 0.93322 0.48829 0.78718
 H129 H 0.93779 0.47563 0.77201
 C130 C 0.94749 0.48663 0.80938
 H131 H 0.96314 0.47291 0.81075
 N132 N 0.91378 0.50570 0.78453
 C133 C 0.90428 0.49353 0.70533
 H134 H 0.88462 0.48531 0.70528
 C135 C 0.91866 0.49485 0.68329
 H136 H 0.91011 0.48736 0.66626
 C137 C 0.93908 0.51421 0.72735
 H138 H 0.94665 0.52229 0.74449
 C139 C 0.95420 0.51583 0.70568
 H140 H 0.97360 0.52471 0.70626
 Zn141 Zn 0.89256 0.50427 0.75505
 N142 N 0.91458 0.50325 0.72675
 C143 C 0.87631 0.55097 0.73181
 N144 N 0.87159 0.53468 0.75166
 C145 C 0.85330 0.54048 0.76898
 C146 C 0.83984 0.56384 0.76722
 C147 C 0.86317 0.57437 0.72927
 C148 C 0.88408 0.44994 0.75794
 C149 C 0.87011 0.42634 0.76036
 C150 C 0.83004 0.44996 0.75904
 C151 C 0.84482 0.47323 0.75681
 N152 N 0.87143 0.47289 0.75662
 H153 H 0.89083 0.54629 0.71817
 H154 H 0.84970 0.52734 0.78457
 H155 H 0.82608 0.56871 0.78160
 H156 H 0.86782 0.58750 0.71386
 H157 H 0.90510 0.44984 0.75700
 H158 H 0.88058 0.40833 0.76152
 H159 H 0.80892 0.45051 0.75893
 H160 H 0.83496 0.49149 0.75518
 C161 C 0.94375 0.50647 0.68325
 C162 C 0.94157 0.50275 0.82945
 C163 C 0.84275 0.42615 0.76130
 C164 C 0.84507 0.58119 0.74734
 C165 C 0.20785 0.38719 0.97259
 H166 H 0.21849 0.38400 0.95565
 C167 C 0.18385 0.39961 0.97128
 H168 H 0.17633 0.40580 0.95333
 C169 C 0.20425 0.38273 1.01639
 H170 H 0.21221 0.37610 1.03398
 C171 C 0.18029 0.39532 1.01592
 H172 H 0.17009 0.39844 1.03323
 N173 N 0.21739 0.37849 0.99485
 C174 C 0.30039 0.37394 0.98088
 H175 H 0.29952 0.35690 0.96933
 C176 C 0.32384 0.38850 0.98264
 H177 H 0.34059 0.38294 0.97186
 C178 C 0.28031 0.40114 1.01002
 H179 H 0.26347 0.40553 1.02117
 C180 C 0.30345 0.41606 1.01250
 H181 H 0.30420 0.43208 1.02538
 Zn182 Zn 0.24850 0.35817 0.99551
 N183 N 0.27914 0.38049 0.99441
 C184 C 0.24016 0.30969 0.97029
 N185 N 0.24739 0.33527 0.96748
 C186 C 0.25242 0.34561 0.94444
 C187 C 0.24989 0.33031 0.92321
 C188 C 0.23712 0.29373 0.94946
 C189 C 0.27237 0.34012 1.03989
 C190 C 0.27426 0.32688 1.06269
 C191 C 0.23053 0.30952 1.05652
 C192 C 0.22933 0.32337 1.03389
 N193 N 0.25009 0.33837 1.02600
 H194 H 0.23615 0.30166 0.98860
 H195 H 0.25821 0.36591 0.94250
 H196 H 0.25381 0.33896 0.90504
 H197 H 0.23070 0.27363 0.95194
 H198 H 0.28875 0.35202 1.03349
 H199 H 0.29184 0.32925 1.07380
 H200 H 0.21375 0.29791 1.06268
 H201 H 0.21169 0.32243 1.02275
 C202 C 0.32557 0.40990 0.99857
 C203 C 0.16941 0.40327 0.99306
 C204 C 0.25328 0.31114 1.07121
 C205 C 0.24208 0.30404 0.92555
 C206 C 0.77884 0.09286 0.99275
 H207 H 0.76009 0.08271 0.99212
 C208 C 0.80161 0.07955 0.98707
 H209 H 0.79974 0.05922 0.98224
 C210 C 0.80341 0.13195 0.99800
 H211 H 0.80395 0.15253 1.00197
 C212 C 0.82662 0.11941 0.99259
 H213 H 0.84487 0.13042 0.99392
 N214 N 0.78008 0.11867 0.99792
 C215 C 0.69799 0.12332 0.98522
 H216 H 0.70042 0.13873 0.97147
 C217 C 0.67401 0.10969 0.98688
 H218 H 0.65841 0.11427 0.97399
 C219 C 0.71465 0.09930 1.01946
 H220 H 0.73040 0.09575 1.03245
 C221 C 0.69097 0.08518 1.02174
 H222 H 0.68868 0.07051 1.03630
 Zn223 Zn 0.74932 0.13883 1.00105
 N224 N 0.71784 0.11785 1.00127
 C225 C 0.74864 0.14996 0.95034
 N226 N 0.74990 0.16159 0.97292
 C227 C 0.75371 0.18781 0.97479
 C228 C 0.75602 0.20341 0.95325
 C229 C 0.75052 0.16480 0.92845
 C230 C 0.76725 0.15420 1.04940
 C231 C 0.76517 0.16687 1.07220
 C232 C 0.72622 0.18740 1.05696
 C233 C 0.72892 0.17421 1.03453
 N234 N 0.74920 0.15803 1.03113
 H235 H 0.74629 0.12903 0.94940
 H236 H 0.75558 0.19658 0.99291
 H237 H 0.75940 0.22420 0.95487
 H238 H 0.74928 0.15525 0.91062
 H239 H 0.78283 0.14078 1.04661
 H240 H 0.77936 0.16337 1.08680
 H241 H 0.70985 0.19999 1.05956
 H242 H 0.71455 0.17653 1.01990
 C243 C 0.67035 0.09027 1.00522
 C244 C 0.82612 0.09288 0.98622
 C245 C 0.74443 0.18362 1.07611
 C246 C 0.75414 0.19186 0.92975
 C247 C 0.28734 0.59818 0.49397
 H248 H 0.26935 0.58671 0.49353
 C249 C 0.31128 0.58614 0.49026
 H250 H 0.31149 0.56536 0.48731
 C251 C 0.30901 0.63918 0.49762
 H252 H 0.30797 0.65996 0.50012
 C253 C 0.33333 0.62787 0.49450
 H254 H 0.35092 0.63998 0.49542
 N255 N 0.28662 0.62429 0.49766
 C256 C 0.20405 0.62247 0.48565
 H257 H 0.20555 0.63701 0.47097
 C258 C 0.18060 0.60819 0.48881
 H259 H 0.16446 0.61136 0.47612
 C260 C 0.22246 0.60153 0.52091
 H261 H 0.23860 0.59962 0.53380
 C262 C 0.19936 0.58681 0.52470
 H263 H 0.19795 0.57323 0.54028
 Zn264 Zn 0.25436 0.64207 0.50050
 N265 N 0.22444 0.61897 0.50162
 C266 C 0.25288 0.65403 0.44959
 N267 N 0.25269 0.66491 0.47253
 C268 C 0.25319 0.69123 0.47523
 C269 C 0.25367 0.70769 0.45425
 C270 C 0.25322 0.66975 0.42817
 C271 C 0.27294 0.66241 0.54702
 C272 C 0.27037 0.67623 0.56909
 C273 C 0.22673 0.68752 0.55638
 C274 C 0.23022 0.67375 0.53446
 N275 N 0.25303 0.66157 0.53017
 H276 H 0.25294 0.63308 0.44799
 H277 H 0.25369 0.69952 0.49361
 H278 H 0.25413 0.72860 0.45650
 H279 H 0.25333 0.66090 0.40998
 H280 H 0.29062 0.65204 0.54366
 H281 H 0.28617 0.67657 0.58256
 H282 H 0.20838 0.69683 0.55976
 H283 H 0.21457 0.67243 0.52091
 C284 C 0.17806 0.59014 0.50854
 C285 C 0.33473 0.60105 0.49031
 C286 C 0.24702 0.68891 0.57388
 C287 C 0.25379 0.69686 0.43046
 C288 C 0.71619 0.89460 0.47715
 H289 H 0.73188 0.89510 0.46369
 C290 C 0.69408 0.90952 0.47295
 H291 H 0.69292 0.92166 0.45635
 C292 C 0.69831 0.87767 0.51485
 H293 H 0.69974 0.86480 0.53086
 C294 C 0.67578 0.89227 0.51132
 H295 H 0.66021 0.89092 0.52492
 N296 N 0.71808 0.87922 0.49792
 C297 C 0.80308 0.86858 0.49580
 H298 H 0.80388 0.84781 0.49311
 C299 C 0.82621 0.88377 0.49562
 H300 H 0.84466 0.87460 0.49232
 C301 C 0.77816 0.90567 0.50371
 H302 H 0.75945 0.91409 0.50735
 C303 C 0.80088 0.92143 0.50438
 H304 H 0.79940 0.94190 0.50845
 Zn305 Zn 0.74841 0.85822 0.50007
 N306 N 0.77955 0.87977 0.49912
 C307 C 0.76270 0.83771 0.45259
 N308 N 0.74586 0.83569 0.47215
 C309 C 0.72479 0.81897 0.47152
 C310 C 0.71993 0.80352 0.45067
 C311 C 0.75858 0.82258 0.43140
 C312 C 0.74823 0.85110 0.55234
 C313 C 0.75109 0.83773 0.57504
 C314 C 0.75818 0.79838 0.55235
 C315 C 0.75478 0.81242 0.53004
 N316 N 0.74977 0.83831 0.53040
 H317 H 0.77884 0.85164 0.45299
 H318 H 0.71143 0.81805 0.48710
 H319 H 0.70293 0.79055 0.45028
 H320 H 0.77185 0.82467 0.41578
 H321 H 0.74502 0.87181 0.55219
 H322 H 0.74965 0.84822 0.59232
 H323 H 0.76269 0.77794 0.55175
 H324 H 0.75691 0.80274 0.51244
 C325 C 0.82529 0.91068 0.49954
 C326 C 0.67361 0.90859 0.49024
 C327 C 0.75601 0.81099 0.57526
 C328 C 0.73677 0.80555 0.43018
 C329 C 0.00274 0.27585 0.42506
 H330 H 0.00979 0.25750 0.43197
 C331 C -0.00120 0.29609 0.44154
 H332 H 0.00324 0.29359 0.46116
 C333 C -0.01080 0.30237 0.39101
 H334 H -0.01386 0.30475 0.37117
 C335 C -0.01542 0.32281 0.40676
 H336 H -0.02189 0.34117 0.39911
 N337 N -0.00134 0.27977 0.40026
 C338 C 0.00096 0.20266 0.37862
 H339 H -0.01409 0.20528 0.36476
 C340 C 0.00645 0.17773 0.38676
 H341 H -0.00563 0.16172 0.37998
 C342 C 0.03420 0.22051 0.40456
 H343 H 0.04524 0.23739 0.41090
 C344 C 0.04020 0.19577 0.41354
 H345 H 0.05584 0.19375 0.42701
 Zn346 Zn 0.00609 0.25630 0.37548
 N347 N 0.01440 0.22345 0.38792
 C348 C 0.04218 0.25503 0.33732
 N349 N 0.03454 0.26897 0.35718
 C350 C 0.04879 0.28981 0.36552
 C351 C 0.07223 0.29701 0.35401
 C352 C 0.06529 0.26177 0.32506
 C353 C -0.04569 0.24587 0.36934
 C354 C -0.06982 0.24432 0.35762
 C355 C -0.04917 0.25933 0.31928
 C356 C -0.02527 0.26048 0.33177
 N357 N -0.02411 0.25367 0.35631
 H358 H 0.03074 0.23813 0.33163
 H359 H 0.04270 0.30008 0.38184
 H360 H 0.08411 0.31292 0.36129
 H361 H 0.07180 0.25010 0.30975
 H362 H -0.04403 0.24106 0.38896
 H363 H -0.08704 0.23832 0.36811
 H364 H -0.05034 0.26508 0.29983
 H365 H -0.00790 0.26731 0.32207
 C366 C 0.02638 0.17386 0.40441
 C367 C -0.01006 0.31985 0.43215
 C368 C -0.07156 0.25126 0.33246
 C369 C 0.08065 0.28268 0.33377
 C370 C 0.01838 0.72211 0.09774
 H371 H 0.02999 0.73954 0.09375
 C372 C 0.02368 0.69910 0.08572
 H373 H 0.03926 0.69862 0.07215
 C374 C -0.01579 0.70111 0.12089
 H375 H -0.03055 0.70179 0.13515
 C376 C -0.01116 0.67772 0.10935
 H377 H -0.02284 0.66053 0.11420
 N378 N -0.00126 0.72270 0.11467
 C379 C -0.01492 0.80415 0.11984
 H380 H -0.01305 0.80599 0.13983
 C381 C -0.01907 0.82593 0.10501
 H382 H -0.02013 0.84489 0.11343
 C383 C -0.01484 0.77712 0.08427
 H384 H -0.01338 0.75799 0.07644
 C385 C -0.01887 0.79847 0.06866
 H386 H -0.02002 0.79599 0.04868
 Zn387 Zn -0.00540 0.75368 0.13119
 N388 N -0.01233 0.78057 0.10922
 C389 C 0.04318 0.77782 0.13791
 N390 N 0.02578 0.76009 0.14761
 C391 C 0.03199 0.74411 0.16697
 C392 C 0.05626 0.74662 0.17838
 C393 C 0.06805 0.78026 0.14811
 C394 C -0.05649 0.74506 0.14208
 C395 C -0.07841 0.74044 0.15662
 C396 C -0.05268 0.75118 0.19314
 C397 C -0.03112 0.75538 0.17777
 N398 N -0.03328 0.75115 0.15294
 H399 H 0.03817 0.78922 0.12160
 H400 H 0.01817 0.72920 0.17328
 H401 H 0.06099 0.73406 0.19404
 H402 H 0.08221 0.79370 0.13971
 H403 H -0.05771 0.74316 0.12206
 H404 H -0.09678 0.73609 0.14730
 H405 H -0.04999 0.75331 0.21303
 H406 H -0.01269 0.76166 0.18577
 C407 C -0.02078 0.82308 0.07918
 C408 C 0.00888 0.67670 0.09177
 C409 C -0.07660 0.74226 0.18277
 C410 C 0.07452 0.76492 0.16890
 C411 C 0.51385 0.21642 0.59363
 H412 H 0.53039 0.22989 0.59241
 C413 C 0.51452 0.19273 0.58172
 H414 H 0.53162 0.18776 0.57112
 C415 C 0.47186 0.20578 0.61025
 H416 H 0.45574 0.21065 0.62207
 C417 C 0.47156 0.18195 0.59834
 H418 H 0.45505 0.16854 0.60063
 N419 N 0.49294 0.22221 0.60780
 C420 C 0.49813 0.30403 0.61799
 H421 H 0.49952 0.30424 0.63811
 C422 C 0.49653 0.32711 0.60459
 H423 H 0.49693 0.34551 0.61420
 C424 C 0.49523 0.27958 0.58071
 H425 H 0.49414 0.26092 0.57173
 C426 C 0.49376 0.30230 0.56651
 H427 H 0.49192 0.30139 0.54642
 Zn428 Zn 0.49688 0.25206 0.62627
 N429 N 0.49745 0.28104 0.60589
 C430 C 0.54857 0.26546 0.63664
 N431 N 0.52819 0.24939 0.64316
 C432 C 0.53083 0.22950 0.65983
 C433 C 0.55467 0.22585 0.67162
 C434 C 0.57288 0.26209 0.64747
 C435 C 0.44589 0.25970 0.63595
 C436 C 0.42318 0.26082 0.64974
 C437 C 0.44884 0.25548 0.68744
 C438 C 0.47120 0.25464 0.67285
 N439 N 0.46903 0.25566 0.64760
 H440 H 0.54617 0.28047 0.62261
 H441 H 0.51438 0.21653 0.66389
 H442 H 0.55653 0.21055 0.68555
 H443 H 0.58911 0.27493 0.64221
 H444 H 0.44508 0.26099 0.61583
 H445 H 0.40453 0.26257 0.64036
 H446 H 0.45017 0.25315 0.70749
 H447 H 0.49001 0.25243 0.68164
 C448 C 0.49418 0.32612 0.57871
 C449 C 0.49348 0.17510 0.58463
 C450 C 0.42466 0.25790 0.67560
 C451 C 0.57600 0.24211 0.66513
 C452 C 0.51248 0.78465 0.90782
 H453 H 0.52908 0.77233 0.91058
 C454 C 0.50943 0.80621 0.92269
 H455 H 0.52376 0.81064 0.93701
 C456 C 0.47383 0.79426 0.88529
 H457 H 0.45997 0.78950 0.87080
 C458 C 0.47035 0.81638 0.89938
 H459 H 0.45420 0.82894 0.89523
 N460 N 0.49508 0.77943 0.88929
 C461 C 0.53439 0.71124 0.88852
 H462 H 0.54881 0.71783 0.87508
 C463 C 0.53831 0.68839 0.90203
 H464 H 0.55540 0.67701 0.89858
 C465 C 0.49386 0.71707 0.90885
 H466 H 0.47633 0.72815 0.91083
 C467 C 0.49694 0.69434 0.92269
 H468 H 0.48165 0.68759 0.93529
 Zn469 Zn 0.50262 0.75113 0.86960
 N470 N 0.51172 0.72412 0.89118
 C471 C 0.53726 0.74108 0.83212
 N472 N 0.53019 0.75954 0.84843
 C473 C 0.54409 0.78224 0.85099
 C474 C 0.56782 0.78578 0.83874
 C475 C 0.56092 0.74372 0.81966
 C476 C 0.46145 0.71756 0.85465
 C477 C 0.43757 0.71204 0.84326
 C478 C 0.44129 0.75339 0.82122
 C479 C 0.46512 0.75809 0.83300
 N480 N 0.47385 0.74093 0.85039
 H481 H 0.52548 0.72342 0.83036
 H482 H 0.53765 0.79687 0.86366
 H483 H 0.57987 0.80301 0.84212
 H484 H 0.56758 0.72803 0.80822
 H485 H 0.46938 0.70363 0.86763
 H486 H 0.42681 0.69421 0.84789
 H487 H 0.43339 0.76792 0.80870
 H488 H 0.47590 0.77614 0.82951
 C489 C 0.51877 0.67932 0.91834
 C490 C 0.48841 0.82251 0.91818
 C491 C 0.42698 0.73066 0.82726
 C492 C 0.57686 0.76568 0.82403
 C493 C -0.22209 0.66674 0.95789
 H494 H -0.20712 0.65251 0.96013
 C495 C -0.22222 0.68258 0.93646
 H496 H -0.20751 0.68015 0.92228
 C497 C -0.25981 0.68693 0.97296
 H498 H -0.27427 0.68888 0.98734
 C499 C -0.26071 0.70309 0.95180
 H500 H -0.27613 0.71701 0.94986
 N501 N -0.24110 0.66869 0.97540
 C502 C -0.25905 0.65264 1.05271
 H503 H -0.26898 0.63400 1.05045
 C504 C -0.25790 0.66402 1.07618
 H505 H -0.26721 0.65379 1.09169
 C506 C -0.23333 0.68728 1.03546
 H507 H -0.22337 0.69598 1.01954
 C508 C -0.23167 0.69936 1.05866
 H509 H -0.22141 0.71797 1.06003
 Zn510 Zn -0.24343 0.64488 1.00324
 N511 N -0.24654 0.66415 1.03302
 C512 C -0.19793 0.62757 1.02798
 N513 N -0.21222 0.62477 1.00663
 C514 C -0.20425 0.60858 0.98844
 C515 C -0.18114 0.59473 0.99131
 C516 C -0.17487 0.61401 1.03164
 C517 C -0.29780 0.63486 0.99913
 C518 C -0.32105 0.62065 0.99513
 C519 C -0.29606 0.58180 0.99162
 C520 C -0.27314 0.59684 0.99554
 N521 N -0.27431 0.62301 0.99897
 H522 H -0.20424 0.64041 1.04236
 H523 H -0.21572 0.60653 0.97158
 H524 H -0.17490 0.58222 0.97652
 H525 H -0.16389 0.61653 1.04875
 H526 H -0.29863 0.65541 1.00268
 H527 H -0.33947 0.63054 0.99537
 H528 H -0.29483 0.56099 0.98928
 H529 H -0.25449 0.58751 0.99590
 C530 C -0.24319 0.68726 1.07978
 C531 C -0.24188 0.70085 0.93313
 C532 C -0.32043 0.59380 0.99102
 C533 C -0.16628 0.59719 1.01328
 C534 C -0.23243 0.31581 0.53344
 H535 H -0.21808 0.31303 0.51903
 C536 C -0.23176 0.30144 0.55447
 H537 H -0.21721 0.28663 0.55644
 C538 C -0.27046 0.33761 0.54635
 H539 H -0.28530 0.35188 0.54350
 C540 C -0.27019 0.32258 0.56998
 H541 H -0.28469 0.32685 0.58387
 N542 N -0.25262 0.33438 0.52951
 C543 C -0.25458 0.34455 0.44812
 H544 H -0.25527 0.36553 0.44667
 C545 C -0.25214 0.32981 0.42661
 H546 H -0.25126 0.33945 0.40854
 C547 C -0.25416 0.30640 0.47338
 H548 H -0.25502 0.29725 0.49159
 C549 C -0.25199 0.29089 0.45229
 H550 H -0.25105 0.26995 0.45438
 Zn551 Zn -0.25315 0.35487 0.49948
 N552 N -0.25459 0.33282 0.47102
 C553 C -0.20398 0.37206 0.47928
 N554 N -0.22138 0.37585 0.49800
 C555 C -0.21578 0.39331 0.51624
 C556 C -0.19247 0.40829 0.51558
 C557 C -0.18056 0.38663 0.47790
 C558 C -0.30727 0.36226 0.49799
 C559 C -0.33086 0.37506 0.50084
 C560 C -0.30637 0.41526 0.50618
 C561 C -0.28320 0.40168 0.50305
 N562 N -0.28399 0.37549 0.49968
 H563 H -0.20786 0.35738 0.46551
 H564 H -0.22937 0.39553 0.53140
 H565 H -0.18832 0.42214 0.53018
 H566 H -0.16696 0.38323 0.46295
 H567 H -0.30750 0.34145 0.49525
 H568 H -0.34892 0.36366 0.50029
 H569 H -0.30511 0.43616 0.50837
 H570 H -0.26463 0.41211 0.50375
 C571 C -0.25031 0.30273 0.42868
 C572 C -0.25106 0.30560 0.57469
 C573 C -0.33081 0.40190 0.50594
 C574 C -0.17471 0.40525 0.49601
 C575 C 0.26464 -0.17958 0.03226
 H576 H 0.27912 -0.18268 0.01804
 C577 C 0.26683 -0.19129 0.05463
 H578 H 0.28269 -0.20445 0.05787
 C579 C 0.22499 -0.15963 0.04352
 H580 H 0.20900 -0.14695 0.03955
 C581 C 0.22678 -0.17183 0.06848
 H582 H 0.21203 -0.16726 0.08205
 N583 N 0.24287 -0.16329 0.02681
 C584 C 0.23461 -0.15961 -0.05456
 H585 H 0.23081 -0.13910 -0.05675
 C586 C 0.23641 -0.17517 -0.07557
 H587 H 0.23375 -0.16661 -0.09393
 C588 C 0.24366 -0.19553 -0.02807
 H589 H 0.24662 -0.20342 -0.00957
 C590 C 0.24572 -0.21181 -0.04865
 H591 H 0.25046 -0.23205 -0.04586
 Zn592 Zn 0.24048 -0.14561 -0.00466
 N593 N 0.23895 -0.16974 -0.03141
 C594 C 0.28714 -0.12709 -0.02864
 N595 N 0.27117 -0.12365 -0.00874
 C596 C 0.27768 -0.10602 0.00908
 C597 C 0.30078 -0.09088 0.00708
 C598 C 0.31030 -0.11232 -0.03139
 C599 C 0.18612 -0.14015 -0.00624
 C600 C 0.16216 -0.12795 -0.00387
 C601 C 0.18548 -0.08688 0.00012
 C602 C 0.20904 -0.09988 -0.00251
 N603 N 0.20899 -0.12617 -0.00504
 H604 H 0.28234 -0.14169 -0.04226
 H605 H 0.26514 -0.10400 0.02508
 H606 H 0.30585 -0.07711 0.02151
 H607 H 0.32292 -0.11559 -0.04714
 H608 H 0.18652 -0.16104 -0.00826
 H609 H 0.14442 -0.13988 -0.00405
 H610 H 0.18612 -0.06589 0.00160
 H611 H 0.22733 -0.08893 -0.00209
 C612 C 0.24240 -0.20151 -0.07275
 C613 C 0.24736 -0.18653 0.07457
 C614 C 0.16143 -0.10096 0.00027
 C615 C 0.31730 -0.09386 -0.01347
 C616 C 0.27275 1.18842 0.47125
 H617 H 0.28474 1.19231 0.48748
 C618 C 0.27308 1.20608 0.45112
 H619 H 0.28531 1.22355 0.45195
 C620 C 0.24213 1.16111 0.45033
 H621 H 0.23013 1.14353 0.44994
 C622 C 0.24229 1.17794 0.42966
 H623 H 0.23051 1.17308 0.41350
 N624 N 0.25730 1.16645 0.47060
 C625 C 0.25851 1.14845 0.55067
 H626 H 0.26318 1.12813 0.55071
 C627 C 0.25849 1.16175 0.57321
 H628 H 0.26301 1.15149 0.59039
 C629 C 0.24672 1.18659 0.52861
 H630 H 0.24179 1.19622 0.51128
 C631 C 0.24650 1.20065 0.55078
 H632 H 0.24163 1.22102 0.55033
 Zn633 Zn 0.25607 1.14237 0.49822
 N634 N 0.25307 1.16100 0.52882
 C635 C 0.28842 1.10094 0.51439
 N636 N 0.28758 1.12275 0.49968
 C637 C 0.30925 1.13155 0.48718
 C638 C 0.33294 1.11872 0.48972
 C639 C 0.31165 1.08740 0.51726
 C640 C 0.20219 1.13107 0.49627
 C641 C 0.17913 1.11664 0.49185
 C642 C 0.20501 1.07947 0.48259
 C643 C 0.22765 1.09470 0.48693
 N644 N 0.22588 1.12000 0.49384
 H645 H 0.27105 1.09402 0.52405
 H646 H 0.30840 1.14881 0.47555
 H647 H 0.35008 1.12610 0.47988
 H648 H 0.31201 1.07019 0.52911
 H649 H 0.20123 1.15128 0.50142
 H650 H 0.16047 1.12581 0.49393
 H651 H 0.20673 1.05925 0.47763
 H652 H 0.24658 1.08634 0.48441
 C653 C 0.25248 1.18816 0.57340
 C654 C 0.25814 1.20059 0.42976
 C655 C 0.18032 1.09051 0.48476
 C656 C 0.33435 1.09656 0.50517
 C657 C 0.15945 0.48114 0.26924
 H658 H 0.16590 0.49960 0.27674
 C659 C 0.17541 0.45947 0.27181
 H660 H 0.19414 0.46149 0.28111
 C661 C 0.12688 0.45545 0.24912
 H662 H 0.10759 0.45374 0.24094
 C663 C 0.14227 0.43345 0.25107
 H664 H 0.13495 0.41509 0.24385
 N665 N 0.13565 0.47882 0.25795
 C666 C 0.12318 0.55561 0.23450
 H667 H 0.11069 0.54836 0.21983
 C668 C 0.13444 0.58054 0.23177
 H669 H 0.13083 0.59175 0.21492
 C670 C 0.14295 0.55031 0.27407
 H671 H 0.14599 0.53863 0.29069
 C672 C 0.15456 0.57536 0.27211
 H673 H 0.16667 0.58266 0.28718
 Zn674 Zn 0.11106 0.50644 0.25708
 N675 N 0.12770 0.54074 0.25527
 C676 C 0.07028 0.51945 0.29103
 N677 N 0.08954 0.50250 0.28612
 C678 C 0.09394 0.48195 0.30175
 C679 C 0.07867 0.47767 0.32300
 C680 C 0.05425 0.51564 0.31198
 C681 C 0.10436 0.49902 0.20628
 C682 C 0.09190 0.49933 0.18317
 C683 C 0.05102 0.50613 0.20399
 C684 C 0.06435 0.50560 0.22682
 N685 N 0.09065 0.50252 0.22752
 H686 H 0.06735 0.53593 0.27868
 H687 H 0.10950 0.46882 0.29797
 H688 H 0.08312 0.46169 0.33554
 H689 H 0.03908 0.52935 0.31565
 H690 H 0.12529 0.49679 0.20727
 H691 H 0.10365 0.49605 0.16683
 H692 H 0.03054 0.51085 0.20409
 H693 H 0.05376 0.50881 0.24380
 C694 C 0.15015 0.59088 0.25078
 C695 C 0.16693 0.43528 0.26242
 C696 C 0.06465 0.50295 0.18142
 C697 C 0.05825 0.49438 0.32822
 C698 C -0.14319 1.02927 0.26880
 H699 H -0.14387 1.01381 0.28264
 C700 C -0.15479 1.05307 0.27394
 H701 H -0.16472 1.05548 0.29150
 C702 C -0.12816 1.04565 0.22988
 H703 H -0.11689 1.04338 0.21316
 C704 C -0.13965 1.06960 0.23418
 H705 H -0.13786 1.08498 0.22024
 N706 N -0.12999 1.02595 0.24710
 C707 C -0.13026 0.94744 0.22433
 H708 H -0.11981 0.95351 0.20779
 C709 C -0.14294 0.92305 0.22456
 H710 H -0.14256 0.91125 0.20801
 C711 C -0.14352 0.95496 0.26568
 H712 H -0.14352 0.96726 0.28183
 C713 C -0.15593 0.93023 0.26692
 H714 H -0.16548 0.92388 0.28400
 Zn715 Zn -0.10956 0.99511 0.24341
 N716 N -0.13041 0.96296 0.24473
 C717 C -0.08290 0.97713 0.28751
 N718 N -0.08473 0.99638 0.26996
 C719 C -0.07025 1.01887 0.27182
 C720 C -0.05415 1.02324 0.29251
 C721 C -0.06725 0.98085 0.30868
 C722 C -0.10492 0.99920 0.19079
 C723 C -0.09264 0.99730 0.16770
 C724 C -0.05217 0.98883 0.18907
 C725 C -0.06524 0.99097 0.21181
 N726 N -0.09119 0.99606 0.21232
 H727 H -0.09422 0.95926 0.28562
 H728 H -0.07200 1.03386 0.25761
 H729 H -0.04344 1.04159 0.29416
 H730 H -0.06687 0.96589 0.32307
 H731 H -0.12569 1.00247 0.19154
 H732 H -0.10415 1.00013 0.15096
 H733 H -0.03187 0.98341 0.18926
 H734 H -0.05481 0.98756 0.22904
 C735 C -0.15515 0.91363 0.24633
 C736 C -0.15257 1.07385 0.25674
 C737 C -0.06573 0.99234 0.16643
 C738 C -0.05334 1.00449 0.31169
 C739 C 0.35303 0.52642 -0.22900
 H740 H 0.35296 0.51120 -0.21487
 C741 C 0.33840 0.54874 -0.22545
 H742 H 0.32671 0.55041 -0.20880
 C743 C 0.36901 0.54326 -0.26748
 H744 H 0.38142 0.54135 -0.28357
 C745 C 0.35482 0.56601 -0.26455
 H746 H 0.35599 0.58125 -0.27867
 N747 N 0.36794 0.52399 -0.24979
 C748 C 0.38693 0.43920 -0.25487
 H749 H 0.40787 0.44131 -0.25720
 C750 C 0.37533 0.41557 -0.25617
 H751 H 0.38717 0.39896 -0.26005
 C752 C 0.34638 0.46013 -0.24989
 H753 H 0.33510 0.47745 -0.24805
 C754 C 0.33272 0.43431 -0.25103
 H755 H 0.31169 0.43352 -0.24890
 Zn756 Zn 0.39068 0.49485 -0.25140
 N757 N 0.37178 0.46200 -0.25119
 C758 C 0.41679 0.47745 -0.20695
 N759 N 0.41341 0.49763 -0.22324
 C760 C 0.42520 0.52128 -0.21931
 C761 C 0.44097 0.52540 -0.19832
 C762 C 0.43263 0.48067 -0.18584
 C763 C 0.39825 0.49014 -0.30302
 C764 C 0.41230 0.48759 -0.32513
 C765 C 0.45210 0.49723 -0.30246
 C766 C 0.43734 0.49925 -0.28067
 N767 N 0.41087 0.49574 -0.28131
 H768 H 0.40692 0.45895 -0.21008
 H769 H 0.42196 0.53713 -0.23234
 H770 H 0.44984 0.54443 -0.19522
 H771 H 0.43482 0.46460 -0.17280
 H772 H 0.37727 0.48704 -0.30302
 H773 H 0.40205 0.48298 -0.34226
 H774 H 0.47312 0.50011 -0.30174
 H775 H 0.44714 0.50319 -0.26323
 C776 C 0.34648 0.41235 -0.25322
 C777 C 0.33935 0.56893 -0.24329
 C778 C 0.43957 0.49095 -0.32492
 C779 C 0.44489 0.50491 -0.18134
 C780 C 0.64922 -0.03630 -0.22982
 H781 H 0.65156 -0.02094 -0.21637
 C782 C 0.66188 -0.05861 -0.22648
 H783 H 0.67428 -0.06084 -0.21025
 C784 C 0.62838 -0.05135 -0.26686
 H785 H 0.61443 -0.04920 -0.28183
 C786 C 0.64221 -0.07611 -0.26409
 H787 H 0.63956 -0.09052 -0.27846
 N788 N 0.63145 -0.03309 -0.25045
 C789 C 0.61395 0.05037 -0.25629
 H790 H 0.59329 0.04848 -0.26022
 C791 C 0.62619 0.07499 -0.25741
 H792 H 0.61458 0.09159 -0.26243
 C793 C 0.65429 0.03061 -0.24816
 H794 H 0.66539 0.01327 -0.24519
 C795 C 0.66735 0.05496 -0.24898
 H796 H 0.68824 0.05581 -0.24575
 Zn797 Zn 0.60870 -0.00391 -0.25154
 N798 N 0.62789 0.02876 -0.25121
 C799 C 0.56730 0.01141 -0.21928
 N800 N 0.58534 -0.00700 -0.22354
 C801 C 0.58719 -0.02808 -0.20800
 C802 C 0.57138 -0.03071 -0.18689
 C803 C 0.55069 0.00923 -0.19862
 C804 C 0.60340 -0.00041 -0.30316
 C805 C 0.59081 0.00262 -0.32607
 C806 C 0.54929 -0.00145 -0.30500
 C807 C 0.56271 -0.00485 -0.28244
 N808 N 0.58932 -0.00380 -0.28188
 H809 H 0.56571 0.02786 -0.23185
 H810 H 0.60113 -0.04289 -0.21167
 H811 H 0.57416 -0.04697 -0.17420
 H812 H 0.53670 0.02425 -0.19539
 H813 H 0.62452 0.00039 -0.30222
 H814 H 0.60236 0.00524 -0.34283
 H815 H 0.52813 -0.00169 -0.30513
 H816 H 0.55182 -0.00770 -0.26537
 C817 C 0.65321 0.07790 -0.25285
 C818 C 0.65747 -0.08055 -0.24399
 C819 C 0.56341 0.00301 -0.32709
 C820 C 0.55272 -0.01199 -0.18197
 C821 C 0.04944 0.26784 0.86584
 H822 H 0.04975 0.28281 0.87974
 C823 C 0.07173 0.26373 0.85205
 H824 H 0.08911 0.27578 0.85504
 C825 C 0.02718 0.23272 0.84587
 H826 H 0.00979 0.22045 0.84415
 C827 C 0.04899 0.22813 0.83139
 H828 H 0.04853 0.21248 0.81809
 N829 N 0.02776 0.25253 0.86236
 C830 C -0.05244 0.26778 0.87755
 H831 H -0.05110 0.26872 0.89764
 C832 C -0.07649 0.26964 0.86584
 H833 H -0.09401 0.27183 0.87679
 C834 C -0.03134 0.26227 0.83865
 H835 H -0.01367 0.25939 0.82825
 C836 C -0.05506 0.26396 0.82614
 H837 H -0.05588 0.26182 0.80610
 Zn838 Zn -0.00106 0.25671 0.88245
 N839 N -0.03080 0.26303 0.86394
 C840 C 0.00550 0.30804 0.88977
 N841 N 0.00399 0.28504 0.90245
 C842 C 0.00352 0.28358 0.92775
 C843 C 0.00416 0.30635 0.94143
 C844 C 0.00624 0.33113 0.90263
 C845 C -0.02740 0.21102 0.89786
 C846 C -0.02869 0.18628 0.90851
 C847 C 0.01461 0.19382 0.92576
 C848 C 0.01507 0.21846 0.91481
 N849 N -0.00558 0.22630 0.90093
 H850 H 0.00533 0.30828 0.86961
 H851 H 0.00163 0.26494 0.93720
 H852 H 0.00290 0.30549 0.96157
 H853 H 0.00667 0.34952 0.89252
 H854 H -0.04320 0.21735 0.88608
 H855 H -0.04559 0.17365 0.90524
 H856 H 0.03150 0.18711 0.93597
 H857 H 0.03232 0.23095 0.91634
 C858 C -0.07782 0.26680 0.84004
 C859 C 0.07156 0.24360 0.83483
 C860 C -0.00720 0.17744 0.92196
 C861 C 0.00505 0.33019 0.92859
 C862 C 0.46541 0.26438 0.15550
 H863 H 0.48024 0.27923 0.15911
 C864 C 0.44094 0.26580 0.16638
 H865 H 0.43690 0.28149 0.17894
 C866 C 0.45215 0.22619 0.13392
 H867 H 0.45638 0.21135 0.12060
 C868 C 0.42733 0.22699 0.14424
 H869 H 0.41259 0.21246 0.13928
 N870 N 0.47045 0.24482 0.13963
 C871 C 0.55365 0.24561 0.13180
 H872 H 0.55447 0.24715 0.11169
 C873 C 0.57634 0.24237 0.14548
 H874 H 0.59499 0.24174 0.13606
 C875 C 0.52809 0.24382 0.16874
 H876 H 0.50913 0.24367 0.17750
 C877 C 0.55043 0.24074 0.18322
 H878 H 0.54890 0.23871 0.20328
 Zn879 Zn 0.50175 0.24715 0.12243
 N880 N 0.53026 0.24626 0.14357
 C881 C 0.51902 0.29758 0.10919
 N882 N 0.50128 0.27814 0.10454
 C883 C 0.48086 0.28139 0.08867
 C884 C 0.47781 0.30506 0.07638
 C885 C 0.51659 0.32165 0.09745
 C886 C 0.50632 0.19572 0.11391
 C887 C 0.50699 0.17294 0.10052
 C888 C 0.50568 0.19857 0.06228
 C889 C 0.50510 0.22099 0.07648
 N890 N 0.50461 0.21895 0.10176
 H891 H 0.53461 0.29469 0.12247
 H892 H 0.46679 0.26563 0.08591
 H893 H 0.46162 0.30759 0.06361
 H894 H 0.53060 0.33725 0.10128
 H895 H 0.50630 0.19498 0.13407
 H896 H 0.50723 0.15432 0.11023
 H897 H 0.50495 0.19992 0.04214
 H898 H 0.50446 0.23982 0.06737
 C899 C 0.57464 0.23969 0.17135
 C900 C 0.42154 0.24729 0.16020
 C901 C 0.50604 0.17441 0.07455
 C902 C 0.49561 0.32549 0.08114
 C903 C -0.03088 0.77394 0.65270
 H904 H -0.01772 0.79075 0.65210
 C905 C -0.05131 0.77338 0.66795
 H906 H -0.05427 0.78972 0.68004
 C907 C -0.04142 0.73166 0.63701
 H908 H -0.03782 0.71589 0.62450
 C909 C -0.06449 0.73036 0.65317
 H910 H -0.07792 0.71385 0.65147
 N911 N -0.02591 0.75205 0.63731
 C912 C 0.05565 0.76470 0.62246
 H913 H 0.05544 0.76614 0.60233
 C914 C 0.07919 0.76603 0.63537
 H915 H 0.09736 0.76869 0.62527
 C916 C 0.03225 0.75791 0.66026
 H917 H 0.01404 0.75364 0.66971
 C918 C 0.05533 0.75880 0.67386
 H919 H 0.05484 0.75543 0.69383
 Zn920 Zn 0.00277 0.75544 0.61645
 N921 N 0.03290 0.76084 0.63507
 C922 C 0.01074 0.80600 0.59853
 N923 N -0.00366 0.78367 0.59579
 C924 C -0.02515 0.78242 0.58084
 C925 C -0.03270 0.80435 0.56745
 C926 C 0.00376 0.82836 0.58573
 C927 C 0.01307 0.70410 0.61362
 C928 C 0.01538 0.67982 0.60308
 C929 C 0.00744 0.69939 0.56250
 C930 C 0.00537 0.72343 0.57386
 N931 N 0.00740 0.72503 0.59906
 H932 H 0.02699 0.80680 0.61137
 H933 H -0.03670 0.76455 0.57985
 H934 H -0.04983 0.80349 0.55556
 H935 H 0.01507 0.84626 0.58810
 H936 H 0.01489 0.70623 0.63358
 H937 H 0.01870 0.66293 0.61485
 H938 H 0.00463 0.69773 0.54257
 H939 H 0.00153 0.74056 0.56270
 C940 C 0.07902 0.76288 0.66131
 C941 C -0.06922 0.75015 0.66861
 C942 C 0.01196 0.67741 0.57740
 C943 C -0.01822 0.82752 0.57024
 C944 C 0.52854 0.75761 0.33453
 H945 H 0.51733 0.77472 0.33121
 C946 C 0.54906 0.75234 0.31868
 H947 H 0.55416 0.76590 0.30373
 C948 C 0.53666 0.71955 0.35849
 H949 H 0.53170 0.70668 0.37385
 C950 C 0.55745 0.71362 0.34324
 H951 H 0.56907 0.69680 0.34745
 N952 N 0.52387 0.74216 0.35488
 C953 C 0.44942 0.76718 0.37938
 H954 H 0.45498 0.77755 0.39606
 C955 C 0.42369 0.76704 0.37116
 H956 H 0.40917 0.77761 0.38125
 C957 C 0.46160 0.74046 0.34574
 H958 H 0.47651 0.72996 0.33622
 C959 C 0.43613 0.73981 0.33686
 H960 H 0.43134 0.72924 0.32007
 Zn961 Zn 0.50094 0.75341 0.37942
 N962 N 0.46758 0.75399 0.36661
 C963 C 0.50536 0.80670 0.37276
 N964 N 0.51000 0.78703 0.38926
 C965 C 0.51783 0.79174 0.41303
 C966 C 0.52048 0.81717 0.42124
 C967 C 0.50816 0.83239 0.38006
 C968 C 0.47900 0.71611 0.41155
 C969 C 0.48012 0.69397 0.42651
 C970 C 0.52631 0.70297 0.43293
 C971 C 0.52427 0.72512 0.41797
 N972 N 0.50119 0.73031 0.40656
 H973 H 0.49761 0.80255 0.35450
 H974 H 0.52063 0.77593 0.42608
 H975 H 0.52541 0.82088 0.44053
 H976 H 0.50335 0.84798 0.36719
 H977 H 0.46089 0.72049 0.40226
 H978 H 0.46296 0.68135 0.42860
 H979 H 0.54522 0.69732 0.43994
 H980 H 0.54164 0.73657 0.41332
 C981 C 0.41701 0.75303 0.34984
 C982 C 0.56439 0.73086 0.32390
 C983 C 0.50427 0.68668 0.43606
 C984 C 0.51478 0.83756 0.40479
 Zr985 Zr 0.01263 -0.02657 1.02365
 O986 O 0.04003 -0.01623 1.05166
 O987 O 0.00364 -0.06524 1.03350
 O988 O -0.00433 -0.02598 1.05972
 O989 O 0.05912 -0.03865 0.97839
 O990 O -0.04174 -0.00343 1.05384
 O991 O 0.04914 -0.04482 1.01952
 O992 O -0.02841 -0.07729 1.00591
 O993 O -0.02757 -0.03019 1.01645
 O994 O 0.00852 -0.04376 0.98870
 O995 O -0.00163 0.01138 1.02509
 O996 O 0.03352 -0.00179 0.99868
 Zr997 Zr -0.02681 0.01592 0.95595
 Zr998 Zr -0.04137 0.00767 1.01608
 Zr999 Zr 0.02735 -0.01840 0.96359
 Zr1000 Zr -0.03129 -0.04585 0.98088
 O1001 O 0.06295 0.00106 0.95409
 O1002 O -0.06942 -0.05651 0.99334
 O1003 O -0.01239 -0.02212 0.95400
 O1004 O -0.04720 -0.00889 0.98101
 O1005 O -0.02284 0.03336 0.99087
 O1006 O 0.01329 0.01928 0.96346
 C1007 C -0.01370 -0.08124 1.02491
 C1008 C 0.06423 -0.04720 1.00045
 C1009 C -0.02552 -0.01579 1.06760
 O1010 O -0.07765 -0.01117 1.02421
 O1011 O -0.07168 0.03030 1.00197
 O1012 O -0.06238 0.03595 0.96066
 C1013 C -0.07679 0.03930 0.98008
 O1014 O 0.04567 0.03794 1.02739
 Zr1015 Zr 0.01715 0.03527 0.99859
 O1016 O -0.01926 0.05495 0.94679
 O1017 O -0.04445 0.04118 1.03821
 O1018 O 0.00533 0.06488 1.02291
 O1019 O 0.05336 0.04868 0.98345
 O1020 O 0.00960 0.06847 0.97674
 C1021 C -0.00473 0.07226 0.95739
 O1022 O -0.05486 0.00552 0.92854
 O1023 O 0.03112 -0.05282 0.94289
 O1024 O -0.01025 0.01437 0.91969
 O1025 O 0.02648 -0.00942 0.92540
 O1026 O -0.01905 -0.07801 0.95996
 O1027 O -0.05531 -0.04973 0.94870
 C1028 C 0.01067 0.00363 0.91178
 H1029 H 0.01607 -0.06127 0.98814
 H1030 H -0.06597 -0.01033 0.97659
 H1031 H 0.02282 0.03035 0.95113
 H1032 H 0.00111 0.01902 1.04175
 H1033 H -0.07236 -0.07524 0.98983
 H1034 H -0.08678 -0.00005 1.03614
 H1035 H -0.06168 0.03988 1.04657
 H1036 H 0.01670 0.08044 1.01962
 H1037 H -0.03146 -0.09270 0.96351
 H1038 H 0.04846 -0.05167 0.93474
 H1039 H 0.07189 -0.00999 0.94196
 H1040 H 0.05548 0.06736 0.98749
 H1041 H -0.06432 -0.06701 0.94902
 H1042 H -0.05742 0.02116 0.91785
 H1043 H 0.04252 -0.03187 1.06237
 H1044 H 0.05189 0.05625 1.02890
 Zr1045 Zr 0.52278 0.48010 0.53261
 O1046 O 0.55006 0.48906 0.56116
 O1047 O 0.51312 0.44133 0.54114
 O1048 O 0.50550 0.47964 0.56866
 O1049 O 0.56830 0.46742 0.48657
 O1050 O 0.47026 0.50563 0.56405
 O1051 O 0.55869 0.46086 0.52776
 O1052 O 0.48034 0.43096 0.51375
 O1053 O 0.48240 0.47843 0.52597
 O1054 O 0.51744 0.46388 0.49735
 O1055 O 0.51040 0.51865 0.53491
 O1056 O 0.54445 0.50431 0.50771
 Zr1057 Zr 0.48436 0.52564 0.46626
 Zr1058 Zr 0.47045 0.51701 0.52641
 Zr1059 Zr 0.53697 0.48879 0.47236
 Zr1060 Zr 0.47749 0.46359 0.49019
 O1061 O 0.57267 0.50739 0.46182
 O1062 O 0.43949 0.45411 0.50366
 O1063 O 0.49696 0.48701 0.46354
 O1064 O 0.46332 0.50125 0.49120
 O1065 O 0.48979 0.54226 0.50137
 O1066 O 0.52472 0.52713 0.47293
 C1067 C 0.49554 0.42587 0.53212
 C1068 C 0.57343 0.45832 0.50844
 C1069 C 0.48523 0.49111 0.57712
 O1070 O 0.43352 0.49977 0.53497
 O1071 O 0.44099 0.54126 0.51303
 O1072 O 0.44936 0.54630 0.47157
 C1073 C 0.43547 0.55019 0.49118
 O1074 O 0.55929 0.54235 0.53660
 Zr1075 Zr 0.52994 0.54206 0.50850
 O1076 O 0.49387 0.56459 0.45796
 O1077 O 0.46938 0.55042 0.54892
 O1078 O 0.52058 0.57158 0.53395
 O1079 O 0.56617 0.55423 0.49256
 O1080 O 0.52330 0.57627 0.48813
 C1081 C 0.50898 0.58110 0.46906
 O1082 O 0.45541 0.51792 0.43885
 O1083 O 0.53967 0.45421 0.45167
 O1084 O 0.49924 0.52274 0.42953
 O1085 O 0.53462 0.49685 0.43401
 O1086 O 0.48766 0.43180 0.46775
 O1087 O 0.45244 0.46170 0.45856
 C1088 C 0.51860 0.51010 0.42084
 H1089 H 0.52435 0.44613 0.49623
 H1090 H 0.44446 0.50061 0.48710
 H1091 H 0.53434 0.53787 0.46035
 H1092 H 0.51374 0.52573 0.55171
 H1093 H 0.43566 0.43564 0.49970
 H1094 H 0.42518 0.51116 0.54719
 H1095 H 0.45227 0.54987 0.55752
 H1096 H 0.53288 0.58649 0.53096
 H1097 H 0.47471 0.41751 0.47103
 H1098 H 0.55683 0.45497 0.44316
 H1099 H 0.58094 0.49600 0.44955
 H1100 H 0.56940 0.57265 0.49713
 H1101 H 0.44234 0.44502 0.45891
 H1102 H 0.45366 0.53399 0.42856
 H1103 H 0.55247 0.47289 0.57111
 H1104 H 0.56683 0.56018 0.53819
 Zr1105 Zr 0.48361 1.02034 0.52939
 O1106 O 0.45599 1.00276 0.55403
 O1107 O 0.48802 1.05743 0.54416
 O1108 O 0.49970 1.01635 0.56568
 O1109 O 0.43873 1.03742 0.48377
 O1110 O 0.53894 0.99738 0.55931
 O1111 O 0.44664 1.03777 0.52569
 O1112 O 0.51992 1.07644 0.51995
 O1113 O 0.52385 1.02746 0.52515
 O1114 O 0.48843 1.04340 0.49721
 O1115 O 0.50029 0.98352 0.52715
 O1116 O 0.46554 0.99909 0.50047
 Zr1117 Zr 0.52902 0.99215 0.45968
 Zr1118 Zr 0.54017 0.99093 0.52086
 Zr1119 Zr 0.47248 1.02179 0.46820
 Zr1120 Zr 0.52838 1.04918 0.49234
 O1121 O 0.43881 1.00230 0.45401
 O1122 O 0.56421 1.05948 0.51001
 O1123 O 0.51244 1.02926 0.46167
 O1124 O 0.54660 1.01351 0.48860
 O1125 O 0.52445 0.96880 0.49176
 O1126 O 0.48878 0.98544 0.46435
 C1127 C 0.50353 1.07643 0.53811
 C1128 C 0.43247 1.04276 0.50630
 C1129 C 0.52176 1.00751 0.57328
 O1130 O 0.57560 1.00936 0.53225
 O1131 O 0.57207 0.97179 0.50579
 O1132 O 0.56486 0.97239 0.46375
 C1133 C 0.57839 0.96649 0.48333
 O1134 O 0.45543 0.95371 0.52407
 Zr1135 Zr 0.48429 0.96345 0.49687
 O1136 O 0.52419 0.95520 0.44465
 O1137 O 0.54362 0.95480 0.53980
 O1138 O 0.49786 0.93055 0.51683
 O1139 O 0.44892 0.95103 0.47959
 O1140 O 0.49384 0.93554 0.47030
 C1141 C 0.50938 0.93595 0.45149
 O1142 O 0.55798 1.00922 0.43614
 O1143 O 0.46729 1.05905 0.45194
 O1144 O 0.51421 0.99819 0.42313
 O1145 O 0.47651 1.02008 0.42933
 O1146 O 0.51605 1.08340 0.47372
 O1147 O 0.55505 1.06009 0.46354
 C1148 C 0.49358 1.00975 0.41531
 H1149 H 0.47978 1.06035 0.49809
 H1150 H 0.56547 1.01659 0.48545
 H1151 H 0.48036 0.97633 0.45020
 H1152 H 0.49737 0.97328 0.54270
 H1153 H 0.56589 1.07873 0.50966
 H1154 H 0.58459 0.99699 0.54349
 H1155 H 0.56051 0.95550 0.54886
 H1156 H 0.48785 0.91512 0.51078
 H1157 H 0.52686 1.09814 0.48010
 H1158 H 0.45049 1.05824 0.44271
 H1159 H 0.42982 1.01492 0.44304
 H1160 H 0.44784 0.93178 0.48099
 H1161 H 0.56347 1.07711 0.46746
 H1162 H 0.56226 0.99602 0.42359
 H1163 H 0.45169 1.01601 0.56652
 H1164 H 0.45109 0.93485 0.52343
 Zr1165 Zr -0.01465 0.52559 1.03963
 O1166 O -0.04256 0.51466 1.06713
 O1167 O -0.00438 0.56332 1.05073
 O1168 O 0.00216 0.52231 1.07576
 O1169 O -0.06176 0.53890 0.99474
 O1170 O 0.03929 0.49969 1.06937
 O1171 O -0.05093 0.54460 1.03567
 O1172 O 0.02636 0.57721 1.02244
 O1173 O 0.02561 0.52871 1.03272
 O1174 O -0.01030 0.54458 1.00509
 O1175 O -0.00123 0.48725 1.04031
 O1176 O -0.03594 0.50266 1.01394
 Zr1177 Zr 0.02379 0.48598 0.97128
 Zr1178 Zr 0.03859 0.49049 1.03150
 Zr1179 Zr -0.02945 0.52092 0.97922
 Zr1180 Zr 0.02958 0.54632 0.99759
 O1181 O -0.06490 0.50256 0.96771
 O1182 O 0.06747 0.55571 1.01142
 O1183 O 0.01031 0.52443 0.97002
 O1184 O 0.04475 0.50896 0.99693
 O1185 O 0.01936 0.46672 1.00572
 O1186 O -0.01637 0.48294 0.97841
 C1187 C 0.01234 0.58006 1.04192
 C1188 C -0.06662 0.54664 1.01685
 C1189 C 0.02330 0.51151 1.08338
 O1190 O 0.07557 0.50762 1.03977
 O1191 O 0.06768 0.46689 1.01695
 O1192 O 0.05874 0.46496 0.97529
 C1193 C 0.07250 0.45931 0.99475
 O1194 O -0.04901 0.46193 1.04202
 Zr1195 Zr -0.02062 0.46529 1.01327
 O1196 O 0.01587 0.44738 0.96180
 O1197 O 0.04077 0.45599 1.05332
 O1198 O -0.00939 0.43399 1.03679
 O1199 O -0.05735 0.45382 0.99810
 O1200 O -0.01412 0.43317 0.99073
 C1201 C 0.00069 0.43000 0.97183
 O1202 O 0.05189 0.49765 0.94423
 O1203 O -0.03322 0.55703 0.96032
 O1204 O 0.00717 0.48895 0.93511
 O1205 O -0.02787 0.51482 0.94067
 O1206 O 0.01813 0.57932 0.97647
 O1207 O 0.05446 0.55139 0.96617
 C1208 C -0.01291 0.50127 0.92704
 H1209 H -0.01769 0.56219 1.00492
 H1210 H 0.06354 0.51015 0.99266
 H1211 H -0.02612 0.47277 0.96573
 H1212 H -0.00414 0.47876 1.05678
 H1213 H 0.07085 0.57453 1.00828
 H1214 H 0.08432 0.49561 1.05153
 H1215 H 0.05817 0.45627 1.06149
 H1216 H -0.02129 0.41897 1.03327
 H1217 H 0.03062 0.59378 0.98028
 H1218 H -0.05042 0.55642 0.95181
 H1219 H -0.07362 0.51479 0.95613
 H1220 H -0.06004 0.43501 1.00186
 H1221 H 0.06387 0.56841 0.96716
 H1222 H 0.05425 0.48265 0.93309
 H1223 H -0.04434 0.52970 1.07834
 H1224 H -0.05548 0.44365 1.04341
 Zr1225 Zr -0.02002 0.47721 0.47346
 O1226 O -0.04538 0.48879 0.44434
 O1227 O -0.01699 0.43747 0.46599
 O1228 O -0.00302 0.47685 0.43726
 O1229 O -0.06785 0.46933 0.51920
 O1230 O 0.03638 0.49789 0.44241
 O1231 O -0.05880 0.46213 0.47829
 O1232 O 0.01151 0.42288 0.49554
 O1233 O 0.01961 0.47083 0.48068
 O1234 O -0.01800 0.46049 0.50919
 O1235 O -0.00138 0.51411 0.47095
 O1236 O -0.03785 0.50357 0.49758
 Zr1237 Zr 0.02441 0.51798 0.53963
 Zr1238 Zr 0.03780 0.50785 0.48002
 Zr1239 Zr -0.03358 0.48715 0.53337
 Zr1240 Zr 0.02136 0.45557 0.51695
 O1241 O -0.06625 0.50933 0.54286
 O1242 O 0.05673 0.44170 0.50234
 O1243 O 0.00562 0.48098 0.54287
 O1244 O 0.04157 0.49138 0.51565
 O1245 O 0.02243 0.53518 0.50411
 O1246 O -0.01525 0.52372 0.53223
 C1247 C -0.00409 0.41949 0.47701
 C1248 C -0.07404 0.46081 0.49748
 C1249 C 0.01888 0.48655 0.42892
 O1250 O 0.07112 0.48609 0.47176
 O1251 O 0.07132 0.52743 0.49356
 O1252 O 0.06196 0.53587 0.53417
 C1253 C 0.07720 0.53679 0.51499
 O1254 O -0.04444 0.54422 0.46675
 Zr1255 Zr -0.01729 0.53946 0.49644
 O1256 O 0.02089 0.55745 0.54774
 O1257 O 0.04540 0.54131 0.45752
 O1258 O -0.00122 0.56841 0.47203
 O1259 O -0.05278 0.55418 0.50995
 O1260 O -0.00757 0.57202 0.51810
 C1261 C 0.00722 0.57513 0.53726
 O1262 O 0.05155 0.50607 0.56709
 O1263 O -0.04221 0.45320 0.55490
 O1264 O 0.00835 0.51754 0.57599
 O1265 O -0.03036 0.49489 0.57154
 O1266 O 0.00623 0.42621 0.54147
 O1267 O 0.04697 0.45010 0.54774
 C1268 C -0.01303 0.50710 0.58462
 H1269 H -0.02792 0.44378 0.51084
 H1270 H 0.06007 0.48861 0.52010
 H1271 H -0.02357 0.53514 0.54440
 H1272 H -0.00322 0.52192 0.45409
 H1273 H 0.05729 0.42282 0.50621
 H1274 H 0.08175 0.49662 0.45974
 H1275 H 0.06238 0.53880 0.44917
 H1276 H -0.01074 0.58464 0.47478
 H1277 H 0.01608 0.41018 0.53861
 H1278 H -0.05918 0.45589 0.56320
 H1279 H -0.07629 0.49901 0.55547
 H1280 H -0.05294 0.57300 0.50568
 H1281 H 0.05427 0.43248 0.54713
 H1282 H 0.05594 0.52150 0.57734
 H1283 H -0.05025 0.47296 0.43483
 H1284 H -0.04823 0.56290 0.46458
 Zr1285 Zr 0.47159 -0.02065 -0.03778
 O1286 O 0.44628 -0.00772 -0.06637
 O1287 O 0.47475 -0.05988 -0.04640
 O1288 O 0.48911 -0.02142 -0.07365
 O1289 O 0.42374 -0.02987 0.00750
 O1290 O 0.52861 -0.00070 -0.06804
 O1291 O 0.43318 -0.03684 -0.03338
 O1292 O 0.50445 -0.07457 -0.01795
 O1293 O 0.51117 -0.02709 -0.03030
 O1294 O 0.47343 -0.03804 -0.00232
 O1295 O 0.49045 0.01614 -0.03994
 O1296 O 0.45352 0.00525 -0.01347
 Zr1297 Zr 0.51540 0.01895 0.02914
 Zr1298 Zr 0.52953 0.00976 -0.03048
 Zr1299 Zr 0.45758 -0.01174 0.02213
 Zr1300 Zr 0.51269 -0.04306 0.00563
 O1301 O 0.42449 0.00998 0.03129
 O1302 O 0.54889 -0.05627 -0.00771
 O1303 O 0.49667 -0.01810 0.03187
 O1304 O 0.53289 -0.00725 0.00498
 O1305 O 0.51385 0.03668 -0.00619
 O1306 O 0.47587 0.02486 0.02137
 C1307 C 0.48896 -0.07751 -0.03664
 C1308 C 0.41787 -0.03848 -0.01426
 C1309 C 0.51138 -0.01234 -0.08166
 O1310 O 0.56309 -0.01169 -0.03864
 O1311 O 0.56288 0.02921 -0.01624
 O1312 O 0.55312 0.03663 0.02449
 C1313 C 0.56858 0.03795 0.00550
 O1314 O 0.44728 0.04596 -0.04410
 Zr1315 Zr 0.47421 0.04108 -0.01426
 O1316 O 0.51208 0.05837 0.03731
 O1317 O 0.53717 0.04334 -0.05279
 O1318 O 0.49051 0.07027 -0.03828
 O1319 O 0.43869 0.05590 -0.00095
 O1320 O 0.48383 0.07342 0.00769
 C1321 C 0.49856 0.07623 0.02692
 O1322 O 0.54196 0.00656 0.05693
 O1323 O 0.44930 -0.04587 0.04349
 O1324 O 0.49872 0.01868 0.06527
 O1325 O 0.45995 -0.00369 0.06035
 O1326 O 0.49695 -0.07375 0.02824
 O1327 O 0.53694 -0.04915 0.03729
 C1328 C 0.47703 0.00864 0.07364
 H1329 H 0.46377 -0.05493 -0.00114
 H1330 H 0.55132 -0.01010 0.00964
 H1331 H 0.46742 0.03623 0.03349
 H1332 H 0.48885 0.02401 -0.05680
 H1333 H 0.54940 -0.07523 -0.00424
 H1334 H 0.57382 -0.00094 -0.05040
 H1335 H 0.55420 0.04085 -0.06103
 H1336 H 0.48085 0.08644 -0.03557
 H1337 H 0.50707 -0.08949 0.02487
 H1338 H 0.43219 -0.04348 0.05160
 H1339 H 0.41429 -0.00060 0.04360
 H1340 H 0.43859 0.07470 -0.00527
 H1341 H 0.54417 -0.06681 0.03674
 H1342 H 0.54628 0.02184 0.06740
 H1343 H 0.44152 -0.02309 -0.07656
 H1344 H 0.44363 0.06466 -0.04635
 Zr1345 Zr 0.52677 0.51896 -0.03773
 O1346 O 0.55311 0.50474 -0.06427
 O1347 O 0.52461 0.55805 -0.04862
 O1348 O 0.51075 0.51916 -0.07437
 O1349 O 0.57337 0.52687 0.00892
 O1350 O 0.46961 0.50163 -0.06929
 O1351 O 0.56538 0.53450 -0.03237
 O1352 O 0.49603 0.57482 -0.02086
 O1353 O 0.48734 0.52725 -0.03200
 O1354 O 0.52450 0.53692 -0.00307
 O1355 O 0.50634 0.48293 -0.03909
 O1356 O 0.54274 0.49247 -0.01176
 Zr1357 Zr 0.47905 0.48233 0.02915
 Zr1358 Zr 0.46735 0.49122 -0.03146
 Zr1359 Zr 0.53839 0.51021 0.02293
 Zr1360 Zr 0.48532 0.54376 0.00323
 O1361 O 0.57016 0.48707 0.03383
 O1362 O 0.45041 0.55849 -0.01221
 O1363 O 0.49940 0.51853 0.03102
 O1364 O 0.46351 0.50883 0.00321
 O1365 O 0.48085 0.46403 -0.00540
 O1366 O 0.51842 0.47442 0.02310
 C1367 C 0.51131 0.57663 -0.03979
 C1368 C 0.58014 0.53568 -0.01275
 C1369 C 0.48810 0.51162 -0.08271
 O1370 O 0.43473 0.51378 -0.04107
 O1371 O 0.43315 0.47252 -0.01802
 O1372 O 0.44120 0.46525 0.02333
 C1373 C 0.42655 0.46385 0.00369
 O1374 O 0.54892 0.45127 -0.03949
 Zr1375 Zr 0.52032 0.45758 -0.01175
 O1376 O 0.48139 0.44338 0.04024
 O1377 O 0.45935 0.45798 -0.05329
 O1378 O 0.50453 0.42920 -0.03626
 O1379 O 0.55338 0.44022 0.00481
 O1380 O 0.50633 0.42591 0.01007
 C1381 C 0.49220 0.42412 0.02985
 O1382 O 0.45167 0.49611 0.05496
 O1383 O 0.54757 0.54414 0.04342
 O1384 O 0.49431 0.48319 0.06599
 O1385 O 0.53462 0.50267 0.06131
 O1386 O 0.50151 0.57392 0.02549
 O1387 O 0.46018 0.55116 0.03362
 C1388 C 0.51639 0.49193 0.07463
 H1389 H 0.53476 0.55346 -0.00222
 H1390 H 0.44505 0.51238 0.00700
 H1391 H 0.52586 0.46278 0.03598
 H1392 H 0.50819 0.47473 -0.05554
 H1393 H 0.45061 0.57749 -0.00936
 H1394 H 0.42405 0.50348 -0.05301
 H1395 H 0.44264 0.46099 -0.06211
 H1396 H 0.51310 0.41256 -0.03236
 H1397 H 0.49215 0.59005 0.02130
 H1398 H 0.56426 0.54103 0.05225
 H1399 H 0.58046 0.49725 0.04614
 H1400 H 0.55247 0.42146 0.00086
 H1401 H 0.45366 0.56907 0.03207
 H1402 H 0.44643 0.48115 0.06588
 H1403 H 0.55831 0.51963 -0.07529
 H1404 H 0.55217 0.43242 -0.04058
 Zr1405 Zr 0.02832 1.01573 0.45518
 O1406 O 0.05364 0.99786 0.42991
 O1407 O 0.03004 1.05437 0.44274
 O1408 O 0.01260 1.01612 0.41845
 O1409 O 0.07477 1.02207 0.50197
 O1410 O -0.03003 1.00306 0.42386
 O1411 O 0.06757 1.02941 0.46053
 O1412 O 0.00210 1.07457 0.46877
 O1413 O -0.01024 1.02756 0.46010
 O1414 O 0.02721 1.03517 0.48914
 O1415 O 0.00483 0.98153 0.45471
 O1416 O 0.04187 0.98893 0.48214
 Zr1417 Zr -0.02258 0.98595 0.52267
 Zr1418 Zr -0.03329 0.99337 0.46174
 Zr1419 Zr 0.03870 1.00828 0.51613
 Zr1420 Zr -0.01113 1.04571 0.49454
 O1421 O 0.06838 0.98286 0.52769
 O1422 O -0.04471 1.06243 0.47835
 O1423 O 0.00067 1.02043 0.52343
 O1424 O -0.03585 1.01265 0.49568
 O1425 O -0.02209 0.96636 0.48875
 O1426 O 0.01579 0.97418 0.51733
 C1427 C 0.01790 1.07436 0.45013
 C1428 C 0.08212 1.03040 0.48030
 C1429 C -0.01078 1.01118 0.41034
 O1430 O -0.06413 1.01796 0.45149
 O1431 O -0.06838 0.97658 0.47571
 O1432 O -0.06145 0.97161 0.51751
 C1433 C -0.07581 0.96951 0.49775
 O1434 O 0.04573 0.94675 0.45684
 Zr1435 Zr 0.01647 0.95607 0.48301
 O1436 O -0.02527 0.94696 0.53388
 O1437 O -0.04362 0.96042 0.44030
 O1438 O 0.00016 0.92838 0.45808
 O1439 O 0.04620 0.93549 0.50182
 O1440 O -0.00292 0.92654 0.50386
 C1441 C -0.01784 0.92637 0.52314
 O1442 O -0.04823 1.00358 0.54782
 O1443 O 0.05043 1.04194 0.53594
 O1444 O -0.00725 0.98590 0.55957
 O1445 O 0.03436 1.00212 0.55463
 O1446 O 0.00731 1.07583 0.51530
 O1447 O -0.03530 1.05661 0.52456
 C1448 C 0.01543 0.99307 0.56811
 H1449 H 0.03861 1.05099 0.48959
 H1450 H -0.05398 1.01774 0.49917
 H1451 H 0.02174 0.96214 0.53061
 H1452 H 0.00608 0.97269 0.43851
 H1453 H -0.04286 1.08154 0.48017
 H1454 H -0.07525 1.00820 0.43950
 H1455 H -0.06007 0.96449 0.43144
 H1456 H 0.00722 0.91120 0.46269
 H1457 H -0.00072 1.09241 0.51015
 H1458 H 0.06668 1.03771 0.54505
 H1459 H 0.07954 0.99257 0.53968
 H1460 H 0.04298 0.91675 0.49863
 H1461 H -0.04065 1.07483 0.52202
 H1462 H -0.05498 0.98964 0.55924
 H1463 H 0.06001 1.01168 0.41819
 H1464 H 0.04830 0.92773 0.45709
 Zr1465 Zr 0.72897 0.26097 0.22001
 O1466 O 0.73990 0.28847 0.19202
 O1467 O 0.69018 0.25251 0.21040
 O1468 O 0.72978 0.24407 0.18407
 O1469 O 0.71535 0.30637 0.26530
 O1470 O 0.75381 0.20767 0.18987
 O1471 O 0.71003 0.29708 0.22411
 O1472 O 0.67769 0.22016 0.23784
 O1473 O 0.72601 0.22074 0.22687
 O1474 O 0.71106 0.25585 0.25479
 O1475 O 0.76743 0.24757 0.21884
 O1476 O 0.75282 0.28176 0.24538
 Zr1477 Zr 0.77118 0.22144 0.28787
 Zr1478 Zr 0.76442 0.20778 0.22764
 Zr1479 Zr 0.73546 0.27457 0.28026
 Zr1480 Zr 0.70956 0.21604 0.26222
 O1481 O 0.75426 0.30984 0.29099
 O1482 O 0.69981 0.17868 0.24816
 O1483 O 0.73250 0.23476 0.28942
 O1484 O 0.74712 0.20110 0.26251
 O1485 O 0.78941 0.22636 0.25315
 O1486 O 0.77363 0.26160 0.28069
 C1487 C 0.67370 0.23561 0.21929
 C1488 C 0.70708 0.31180 0.24322
 C1489 C 0.74064 0.22331 0.17617
 O1490 O 0.74667 0.17131 0.21920
 O1491 O 0.78733 0.17763 0.24179
 O1492 O 0.79217 0.18659 0.28315
 C1493 C 0.79596 0.17250 0.26377
 O1494 O 0.79362 0.29427 0.21615
 Zr1495 Zr 0.79043 0.26636 0.24567
 O1496 O 0.80994 0.23021 0.29779
 O1497 O 0.79861 0.20596 0.20577
 O1498 O 0.82153 0.25455 0.22279
 O1499 O 0.80179 0.30339 0.25946
 O1500 O 0.82298 0.26102 0.26902
 C1501 C 0.82675 0.24643 0.28828
 O1502 O 0.76079 0.19267 0.31492
 O1503 O 0.70001 0.27777 0.30005
 O1504 O 0.76840 0.23705 0.32419
 O1505 O 0.74226 0.27207 0.31874
 O1506 O 0.67722 0.22680 0.28404
 O1507 O 0.70531 0.19041 0.29345
 C1508 C 0.75582 0.25666 0.33233
 H1509 H 0.69339 0.26317 0.25543
 H1510 H 0.74595 0.18232 0.26680
 H1511 H 0.78392 0.27127 0.29334
 H1512 H 0.77531 0.25064 0.20220
 H1513 H 0.68093 0.17534 0.25119
 H1514 H 0.75819 0.16282 0.20713
 H1515 H 0.79793 0.18892 0.19737
 H1516 H 0.83680 0.26620 0.22624
 H1517 H 0.66250 0.21459 0.28020
 H1518 H 0.70077 0.29481 0.30846
 H1519 H 0.74254 0.31816 0.30300
 H1520 H 0.82059 0.30623 0.25562
 H1521 H 0.68828 0.18091 0.29242
 H1522 H 0.77627 0.19034 0.32582
 H1523 H 0.72433 0.29105 0.18129
 H1524 H 0.81210 0.30007 0.21424
 Zr1525 Zr 0.77607 0.73242 0.72087
 O1526 O 0.76227 0.70453 0.69498
 O1527 O 0.81501 0.73757 0.70989
 O1528 O 0.77482 0.74794 0.68390
 O1529 O 0.78910 0.68834 0.76882
 O1530 O 0.75446 0.78666 0.68811
 O1531 O 0.79291 0.69545 0.72684
 O1532 O 0.83084 0.76939 0.73560
 O1533 O 0.78209 0.77264 0.72512
 O1534 O 0.79521 0.73757 0.75505
 O1535 O 0.73869 0.74843 0.71969
 O1536 O 0.75176 0.71409 0.74796
 Zr1537 Zr 0.73926 0.77707 0.78710
 Zr1538 Zr 0.74473 0.78828 0.72596
 Zr1539 Zr 0.77050 0.72135 0.78212
 Zr1540 Zr 0.79992 0.77743 0.75983
 O1541 O 0.74980 0.68742 0.79437
 O1542 O 0.81174 0.81316 0.74257
 O1543 O 0.77680 0.76119 0.78866
 O1544 O 0.76356 0.79505 0.76003
 O1545 O 0.71976 0.77215 0.75306
 O1546 O 0.73339 0.73699 0.78253
 C1547 C 0.83320 0.75293 0.71799
 C1548 C 0.79656 0.68185 0.74696
 C1549 C 0.76554 0.76936 0.67508
 O1550 O 0.76394 0.82376 0.71579
 O1551 O 0.72259 0.81923 0.73893
 O1552 O 0.71984 0.81249 0.78103
 C1553 C 0.71493 0.82537 0.76083
 O1554 O 0.71006 0.70216 0.72153
 Zr1555 Zr 0.71541 0.73214 0.74806
 O1556 O 0.70020 0.77230 0.79769
 O1557 O 0.71054 0.79132 0.70394
 O1558 O 0.68508 0.74371 0.72361
 O1559 O 0.70079 0.69790 0.76621
 O1560 O 0.68356 0.74309 0.76979
 C1561 C 0.68147 0.75858 0.78822
 O1562 O 0.75296 0.80606 0.81191
 O1563 O 0.80553 0.71714 0.80266
 O1564 O 0.74202 0.76270 0.82430
 O1565 O 0.76446 0.72513 0.82051
 O1566 O 0.83200 0.76569 0.78202
 O1567 O 0.80695 0.80425 0.78902
 C1568 C 0.75304 0.74232 0.83339
 H1569 H 0.81238 0.72921 0.75598
 H1570 H 0.76592 0.81389 0.76315
 H1571 H 0.72259 0.72880 0.79590
 H1572 H 0.73010 0.74526 0.70342
 H1573 H 0.83088 0.81523 0.74487
 H1574 H 0.75251 0.83255 0.70353
 H1575 H 0.71189 0.80821 0.69485
 H1576 H 0.66918 0.73327 0.72803
 H1577 H 0.84735 0.77674 0.77715
 H1578 H 0.80423 0.70008 0.81145
 H1579 H 0.76113 0.67865 0.80673
 H1580 H 0.68177 0.69661 0.76279
 H1581 H 0.82426 0.81295 0.78662
 H1582 H 0.73823 0.81003 0.82308
 H1583 H 0.77715 0.70053 0.68401
 H1584 H 0.69141 0.69658 0.72104
 Zr1585 Zr 0.22648 0.21900 0.78484
 O1586 O 0.23846 0.19189 0.81235
 O1587 O 0.18772 0.22383 0.79499
 O1588 O 0.22654 0.23514 0.82113
 O1589 O 0.21545 0.17306 0.73858
 O1590 O 0.24737 0.27466 0.81575
 O1591 O 0.20828 0.18178 0.77960
 O1592 O 0.17277 0.25178 0.76535
 O1593 O 0.22100 0.25892 0.77848
 O1594 O 0.20902 0.22257 0.74957
 O1595 O 0.26405 0.23653 0.78682
 O1596 O 0.25173 0.20065 0.75990
 Zr1597 Zr 0.26732 0.26347 0.71830
 Zr1598 Zr 0.25860 0.27591 0.77828
 Zr1599 Zr 0.23495 0.20660 0.72463
 Zr1600 Zr 0.20513 0.26208 0.74277
 O1601 O 0.25779 0.17457 0.71516
 O1602 O 0.19210 0.29710 0.75814
 O1603 O 0.22949 0.24610 0.71583
 O1604 O 0.24175 0.28121 0.74306
 O1605 O 0.28497 0.25991 0.75347
 O1606 O 0.27228 0.22360 0.72490
 C1607 C 0.16956 0.23679 0.78459
 C1608 C 0.20617 0.16719 0.76022
 C1609 C 0.23556 0.25720 0.82919
 O1610 O 0.23803 0.31038 0.78420
 O1611 O 0.28279 0.30686 0.76537
 O1612 O 0.28705 0.29992 0.72368
 C1613 C 0.29150 0.31317 0.74360
 O1614 O 0.29107 0.19180 0.78961
 Zr1615 Zr 0.28829 0.22006 0.76047
 O1616 O 0.30672 0.25933 0.70964
 O1617 O 0.28900 0.28434 0.80386
 O1618 O 0.31878 0.23215 0.78485
 O1619 O 0.30217 0.18522 0.74526
 O1620 O 0.32126 0.23065 0.73918
 C1621 C 0.32449 0.24587 0.72021
 O1622 O 0.25654 0.29170 0.69133
 O1623 O 0.20211 0.19442 0.70346
 O1624 O 0.26551 0.24842 0.68165
 O1625 O 0.24055 0.21118 0.68614
 O1626 O 0.17440 0.25005 0.71871
 O1627 O 0.19738 0.29039 0.71480
 C1628 C 0.25319 0.22827 0.67291
 H1629 H 0.19182 0.21353 0.74813
 H1630 H 0.23989 0.29987 0.73879
 H1631 H 0.28341 0.21560 0.71221
 H1632 H 0.27191 0.23427 0.80357
 H1633 H 0.17329 0.29830 0.75398
 H1634 H 0.24833 0.32041 0.79663
 H1635 H 0.30486 0.27658 0.79698
 H1636 H 0.33403 0.22122 0.78159
 H1637 H 0.15916 0.26083 0.72248
 H1638 H 0.19238 0.21033 0.69952
 H1639 H 0.24757 0.16479 0.70250
 H1640 H 0.32094 0.18428 0.74963
 H1641 H 0.20582 0.28452 0.69937
 H1642 H 0.27210 0.29550 0.68078
 H1643 H 0.22296 0.18755 0.82280
 H1644 H 0.30909 0.18532 0.79051
 Zr1645 Zr 0.26733 0.78394 0.28925
 O1646 O 0.25394 0.81159 0.31478
 O1647 O 0.30454 0.77717 0.30310
 O1648 O 0.26380 0.76769 0.32572
 O1649 O 0.28454 0.82952 0.24327
 O1650 O 0.24064 0.72981 0.31966
 O1651 O 0.28744 0.82042 0.28496
 O1652 O 0.31791 0.74361 0.27938
 O1653 O 0.27054 0.74371 0.28448
 O1654 O 0.28829 0.77908 0.25622
 O1655 O 0.22882 0.76870 0.28832
 O1656 O 0.24580 0.80331 0.26143
 Zr1657 Zr 0.23063 0.74149 0.22033
 Zr1658 Zr 0.23231 0.72898 0.28139
 Zr1659 Zr 0.26593 0.79638 0.22831
 Zr1660 Zr 0.28989 0.73920 0.25085
 O1661 O 0.24663 0.82982 0.21522
 O1662 O 0.29753 0.70156 0.26517
 O1663 O 0.26953 0.75656 0.22114
 O1664 O 0.25234 0.72259 0.24816
 O1665 O 0.20957 0.74600 0.25334
 O1666 O 0.22787 0.78165 0.22556
 C1667 C 0.32043 0.75926 0.29775
 C1668 C 0.29157 0.83518 0.26559
 C1669 C 0.25304 0.74613 0.33360
 O1670 O 0.24897 0.69333 0.29235
 O1671 O 0.21048 0.69756 0.26703
 O1672 O 0.20847 0.70602 0.22517
 C1673 C 0.20332 0.69187 0.24479
 O1674 O 0.20287 0.81384 0.28744
 Zr1675 Zr 0.20825 0.78601 0.25909
 O1676 O 0.19331 0.74913 0.20644
 O1677 O 0.19664 0.72583 0.30113
 O1678 O 0.17522 0.77217 0.27951
 O1679 O 0.19775 0.82264 0.24417
 O1680 O 0.17810 0.77943 0.23310
 C1681 C 0.17599 0.76491 0.21384
 O1682 O 0.24260 0.71237 0.19565
 O1683 O 0.30193 0.80572 0.21087
 O1684 O 0.23701 0.75617 0.18370
 O1685 O 0.26322 0.79222 0.18948
 O1686 O 0.32536 0.75040 0.23305
 O1687 O 0.29941 0.71264 0.22260
 C1688 C 0.25086 0.77583 0.17555
 H1689 H 0.30611 0.78701 0.25678
 H1690 H 0.25364 0.70383 0.24463
 H1691 H 0.21891 0.79067 0.21168
 H1692 H 0.21969 0.77156 0.30424
 H1693 H 0.31660 0.69905 0.26370
 H1694 H 0.23662 0.68459 0.30415
 H1695 H 0.19674 0.70902 0.31040
 H1696 H 0.16028 0.78297 0.27451
 H1697 H 0.33854 0.73765 0.23837
 H1698 H 0.31045 0.78896 0.20825
 H1699 H 0.25881 0.83879 0.20343
 H1700 H 0.17883 0.82457 0.24730
 H1701 H 0.29548 0.72108 0.20637
 H1702 H 0.22803 0.70926 0.18373
 H1703 H 0.26846 0.81518 0.32664
 H1704 H 0.18404 0.81732 0.28914
 Zr1705 Zr 0.23220 0.76380 0.71810
 O1706 O 0.24834 0.79077 0.69184
 O1707 O 0.19345 0.76082 0.70623
 O1708 O 0.23280 0.74832 0.68176
 O1709 O 0.21995 0.80903 0.76366
 O1710 O 0.25020 0.70820 0.68746
 O1711 O 0.21733 0.80158 0.72208
 O1712 O 0.17444 0.73132 0.73331
 O1713 O 0.22307 0.72413 0.72358
 O1714 O 0.21222 0.76027 0.75191
 O1715 O 0.26819 0.74511 0.71810
 O1716 O 0.25729 0.78088 0.74484
 Zr1717 Zr 0.26471 0.71715 0.78640
 Zr1718 Zr 0.25906 0.70583 0.72560
 Zr1719 Zr 0.23742 0.77533 0.77871
 Zr1720 Zr 0.20453 0.72090 0.75810
 O1721 O 0.26017 0.80823 0.78946
 O1722 O 0.19037 0.68602 0.74165
 O1723 O 0.22845 0.73590 0.78666
 O1724 O 0.23945 0.70073 0.75957
 O1725 O 0.28490 0.72035 0.75259
 O1726 O 0.27322 0.75687 0.78050
 C1727 C 0.17395 0.74734 0.71472
 C1728 C 0.21308 0.81560 0.74131
 C1729 C 0.24062 0.72631 0.67377
 O1730 O 0.23700 0.67220 0.71553
 O1731 O 0.27723 0.67262 0.73995
 O1732 O 0.28202 0.68030 0.78156
 C1733 C 0.28471 0.66616 0.76202
 O1734 O 0.29997 0.78913 0.71867
 Zr1735 Zr 0.29208 0.76004 0.74635
 O1736 O 0.30359 0.71987 0.79822
 O1737 O 0.29344 0.69981 0.70492
 O1738 O 0.32191 0.74601 0.72315
 O1739 O 0.30886 0.79348 0.76345
 O1740 O 0.32258 0.74739 0.76940
 C1741 C 0.32327 0.73231 0.78868
 O1742 O 0.24897 0.68906 0.81176
 O1743 O 0.20264 0.78243 0.79844
 O1744 O 0.26181 0.73194 0.82304
 O1745 O 0.24328 0.77160 0.81725
 O1746 O 0.17328 0.73498 0.77949
 O1747 O 0.19532 0.69484 0.78808
 C1748 C 0.25276 0.75351 0.83104
 H1749 H 0.19569 0.76971 0.75223
 H1750 H 0.23561 0.68213 0.76332
 H1751 H 0.28436 0.76450 0.79377
 H1752 H 0.27723 0.74752 0.70192
 H1753 H 0.17114 0.68537 0.74366
 H1754 H 0.24787 0.66237 0.70387
 H1755 H 0.29072 0.68322 0.69598
 H1756 H 0.33840 0.75540 0.72757
 H1757 H 0.15725 0.72497 0.77479
 H1758 H 0.20530 0.79928 0.80695
 H1759 H 0.24935 0.81800 0.80120
 H1760 H 0.32791 0.79347 0.76026
 H1761 H 0.17763 0.68710 0.78548
 H1762 H 0.26327 0.68429 0.82334
 H1763 H 0.23412 0.79560 0.68020
 H1764 H 0.31892 0.79349 0.71846
 Zr1765 Zr 0.26686 0.23853 0.21944
 O1766 O 0.24770 0.21236 0.19490
 O1767 O 0.30471 0.24013 0.20508
 O1768 O 0.26449 0.25435 0.18280
 O1769 O 0.27662 0.19160 0.26538
 O1770 O 0.24940 0.29514 0.18860
 O1771 O 0.28099 0.20027 0.22372
 O1772 O 0.32572 0.27034 0.22933
 O1773 O 0.27805 0.27773 0.22373
 O1774 O 0.28913 0.24071 0.25210
 O1775 O 0.23186 0.25896 0.22099
 O1776 O 0.24259 0.22264 0.24782
 Zr1777 Zr 0.24110 0.28619 0.28856
 Zr1778 Zr 0.24332 0.29775 0.22717
 Zr1779 Zr 0.26469 0.22691 0.28053
 Zr1780 Zr 0.29889 0.27975 0.25713
 O1781 O 0.24067 0.19614 0.29485
 O1782 O 0.31359 0.31507 0.24102
 O1783 O 0.27627 0.26570 0.28722
 O1784 O 0.26524 0.30162 0.26001
 O1785 O 0.21879 0.28431 0.25580
 O1786 O 0.23003 0.24705 0.28399
 C1787 C 0.32454 0.25449 0.21105
 C1788 C 0.28276 0.18521 0.24309
 C1789 C 0.25741 0.27685 0.17464
 O1790 O 0.26642 0.33015 0.21498
 O1791 O 0.22775 0.33164 0.24201
 O1792 O 0.22565 0.32394 0.28400
 C1793 C 0.22228 0.33834 0.26436
 O1794 O 0.19835 0.21544 0.22530
 Zr1795 Zr 0.20905 0.24513 0.25080
 O1796 O 0.20286 0.28613 0.30205
 O1797 O 0.20795 0.30574 0.20842
 O1798 O 0.17877 0.25919 0.22757
 O1799 O 0.19115 0.21364 0.27084
 O1800 O 0.18059 0.26164 0.27342
 C1801 C 0.18179 0.27682 0.29226
 O1802 O 0.26008 0.31302 0.31256
 O1803 O 0.30065 0.21652 0.29701
 O1804 O 0.24526 0.27080 0.32536
 O1805 O 0.26353 0.23133 0.31919
 O1806 O 0.33128 0.26311 0.27556
 O1807 O 0.31139 0.30385 0.28697
 C1808 C 0.25537 0.24940 0.33325
 H1809 H 0.30518 0.23042 0.25142
 H1810 H 0.27025 0.32000 0.26319
 H1811 H 0.21940 0.24017 0.29811
 H1812 H 0.22175 0.25707 0.20534
 H1813 H 0.33292 0.31481 0.24200
 H1814 H 0.25517 0.34079 0.20401
 H1815 H 0.21089 0.32226 0.19899
 H1816 H 0.16215 0.25083 0.23329
 H1817 H 0.34722 0.27256 0.26958
 H1818 H 0.29737 0.20016 0.30662
 H1819 H 0.25184 0.18554 0.30592
 H1820 H 0.17201 0.21517 0.26880
 H1821 H 0.32955 0.31016 0.28395
 H1822 H 0.24685 0.31859 0.32472
 H1823 H 0.26091 0.20682 0.18271
 H1824 H 0.17941 0.21132 0.22672
 Zr1825 Zr 0.72464 0.71863 0.29103
 O1826 O 0.73427 0.69290 0.32061
 O1827 O 0.68495 0.72364 0.29724
 O1828 O 0.72199 0.73648 0.32637
 O1829 O 0.71725 0.67050 0.24656
 O1830 O 0.74491 0.77493 0.32126
 O1831 O 0.70702 0.68107 0.28649
 O1832 O 0.67265 0.75159 0.26612
 O1833 O 0.72063 0.75832 0.28269
 O1834 O 0.70974 0.72098 0.25471
 O1835 O 0.76224 0.73556 0.29487
 O1836 O 0.75127 0.69912 0.26847
 Zr1837 Zr 0.77100 0.75977 0.22566
 Zr1838 Zr 0.75850 0.77475 0.28447
 Zr1839 Zr 0.73687 0.70374 0.23203
 Zr1840 Zr 0.70714 0.76035 0.24600
 O1841 O 0.75799 0.67011 0.22371
 O1842 O 0.69407 0.79600 0.26018
 O1843 O 0.73314 0.74296 0.22150
 O1844 O 0.74403 0.77869 0.24816
 O1845 O 0.78631 0.75756 0.26185
 O1846 O 0.77421 0.72019 0.23436
 C1847 C 0.66794 0.73673 0.28516
 C1848 C 0.70655 0.66548 0.26779
 C1849 C 0.73139 0.75841 0.33432
 O1850 O 0.73875 0.80978 0.29033
 O1851 O 0.78124 0.80663 0.27114
 O1852 O 0.79072 0.79621 0.23106
 C1853 C 0.79215 0.81150 0.24998
 O1854 O 0.78950 0.69105 0.30121
 Zr1855 Zr 0.78807 0.71790 0.27078
 O1856 O 0.81046 0.75238 0.21873
 O1857 O 0.79065 0.78042 0.30884
 O1858 O 0.81645 0.73278 0.29607
 O1859 O 0.80193 0.68180 0.25838
 O1860 O 0.82247 0.72524 0.25064
 C1861 C 0.82703 0.73849 0.23067
 O1862 O 0.76322 0.78755 0.19725
 O1863 O 0.70335 0.69641 0.20974
 O1864 O 0.76987 0.74407 0.18928
 O1865 O 0.74654 0.70596 0.19410
 O1866 O 0.67867 0.74727 0.21996
 O1867 O 0.70468 0.78627 0.21491
 C1868 C 0.75916 0.72298 0.18074
 H1869 H 0.69264 0.71186 0.25258
 H1870 H 0.74258 0.79722 0.24321
 H1871 H 0.78556 0.71105 0.22276
 H1872 H 0.76880 0.73372 0.31216
 H1873 H 0.67539 0.79742 0.25560
 H1874 H 0.74886 0.81964 0.30302
 H1875 H 0.78858 0.79761 0.31662
 H1876 H 0.83225 0.72221 0.29452
 H1877 H 0.66298 0.75787 0.22217
 H1878 H 0.70556 0.67922 0.20201
 H1879 H 0.74758 0.66030 0.21121
 H1880 H 0.82031 0.68041 0.26398
 H1881 H 0.68772 0.79508 0.21521
 H1882 H 0.77957 0.79040 0.18758
 H1883 H 0.71798 0.68913 0.33011
 H1884 H 0.80784 0.68620 0.30425
 Zr1885 Zr 0.76689 0.27389 0.78599
 O1886 O 0.75120 0.29990 0.81186
 O1887 O 0.80537 0.27182 0.79826
 O1888 O 0.76626 0.25807 0.82265
 O1889 O 0.77926 0.31946 0.73904
 O1890 O 0.74693 0.21785 0.81797
 O1891 O 0.78327 0.31195 0.78085
 O1892 O 0.82184 0.24031 0.77369
 O1893 O 0.77405 0.23415 0.78176
 O1894 O 0.78700 0.27045 0.75231
 O1895 O 0.73002 0.25491 0.78643
 O1896 O 0.74247 0.29068 0.75877
 Zr1897 Zr 0.73248 0.22695 0.71873
 Zr1898 Zr 0.73723 0.21567 0.78000
 Zr1899 Zr 0.76203 0.28508 0.72514
 Zr1900 Zr 0.79254 0.23094 0.74751
 O1901 O 0.73836 0.31596 0.71318
 O1902 O 0.80460 0.19542 0.76369
 O1903 O 0.76968 0.24583 0.71829
 O1904 O 0.75670 0.21061 0.74619
 O1905 O 0.71231 0.23001 0.75243
 O1906 O 0.72543 0.26653 0.72349
 C1907 C 0.82343 0.25668 0.79154
 C1908 C 0.78621 0.32638 0.76109
 C1909 C 0.75770 0.23587 0.83115
 O1910 O 0.75703 0.18143 0.78996
 O1911 O 0.71564 0.18348 0.76661
 O1912 O 0.71403 0.18984 0.72443
 C1913 C 0.70860 0.17675 0.74456
 O1914 O 0.70046 0.29927 0.78396
 Zr1915 Zr 0.70678 0.26953 0.75771
 O1916 O 0.69371 0.22965 0.70671
 O1917 O 0.70316 0.20990 0.80183
 O1918 O 0.67678 0.25536 0.78186
 O1919 O 0.69053 0.30221 0.73945
 O1920 O 0.67567 0.25580 0.73560
 C1921 C 0.67429 0.24107 0.71647
 O1922 O 0.74649 0.19894 0.69389
 O1923 O 0.79551 0.29846 0.70545
 O1924 O 0.73640 0.24170 0.68167
 O1925 O 0.75921 0.28004 0.68662
 O1926 O 0.82551 0.24453 0.72695
 O1927 O 0.80350 0.20389 0.72025
 C1928 C 0.74838 0.26236 0.67311
 H1929 H 0.80399 0.28009 0.75191
 H1930 H 0.75958 0.19200 0.74294
 H1931 H 0.71477 0.27387 0.70980
 H1932 H 0.72119 0.25728 0.80259
 H1933 H 0.82378 0.19466 0.76139
 H1934 H 0.74584 0.17186 0.80222
 H1935 H 0.70490 0.19306 0.81082
 H1936 H 0.66055 0.26434 0.77721
 H1937 H 0.84039 0.23372 0.73213
 H1938 H 0.80701 0.28336 0.70441
 H1939 H 0.74890 0.32614 0.70084
 H1940 H 0.67161 0.30199 0.74332
 H1941 H 0.79707 0.21049 0.70399
 H1942 H 0.73188 0.19427 0.68246
 H1943 H 0.76569 0.30545 0.82308
 H1944 H 0.68156 0.30271 0.78491
 C1945 C 0.47435 0.98919 0.37817
 C1946 C 0.46284 0.99096 0.35462
 C1947 C 0.46449 1.01415 0.34048
 C1948 C 0.47980 1.03535 0.34977
 C1949 C 0.49107 1.03366 0.37396
 C1950 C 0.48779 1.01056 0.38838
 C1951 C 0.50520 1.05533 0.38305
 N1952 N 0.50845 1.07695 0.36853
 N1953 N 0.49850 1.07833 0.34560
 C1954 C 0.48439 1.05829 0.33570
 H1955 H 0.47138 0.97149 0.38913
 H1956 H 0.45136 0.97446 0.34798
 H1957 H 0.51398 1.05510 0.40143
 H1958 H 0.47722 1.06037 0.31683
 C1959 C -0.02505 0.52315 0.88787
 C1960 C -0.03718 0.52361 0.86466
 C1961 C -0.04547 0.50056 0.85284
 C1962 C -0.04108 0.47627 0.86542
 C1963 C -0.02806 0.47594 0.88899
 C1964 C -0.02046 0.49969 0.90042
 C1965 C -0.02465 0.45182 0.90116
 N1966 N -0.03416 0.42963 0.89085
 N1967 N -0.04734 0.42994 0.86946
 C1968 C -0.05148 0.45237 0.85667
 H1969 H -0.01977 0.54149 0.89649
 H1970 H -0.03985 0.54240 0.85577
 H1971 H -0.01486 0.45027 0.91891
 H1972 H -0.06368 0.45116 0.84031
 C1973 C 0.00640 -0.00919 0.86762
 C1974 C 0.01740 -0.01181 0.84399
 C1975 C 0.04063 0.00166 0.83751
 C1976 C 0.05242 0.01890 0.85485
 C1977 C 0.04133 0.02144 0.87885
 C1978 C 0.01845 0.00682 0.88542
 C1979 C 0.05401 0.03814 0.89584
 N1980 N 0.07617 0.05139 0.88912
 N1981 N 0.08665 0.04891 0.86664
 C1982 C 0.07563 0.03307 0.84934
 H1983 H -0.01074 -0.02094 0.87254
 H1984 H 0.00824 -0.02512 0.83095
 H1985 H 0.04644 0.04092 0.91434
 H1986 H 0.08522 0.03166 0.83151
 C1987 C 0.54282 0.52596 0.38371
 C1988 C 0.55201 0.52222 0.35960
 C1989 C 0.54191 0.50192 0.34491
 C1990 C 0.52083 0.48624 0.35422
 C1991 C 0.51144 0.49013 0.37872
 C1992 C 0.52299 0.50976 0.39371
 C1993 C 0.49108 0.47370 0.38767
 N1994 N 0.48055 0.45505 0.37280
 N1995 N 0.48907 0.45167 0.34968
 C1996 C 0.50881 0.46661 0.33988
 H1997 H 0.55216 0.54076 0.39510
 H1998 H 0.56808 0.53445 0.35280
 H1999 H 0.48331 0.47568 0.40625
 H2000 H 0.51477 0.46313 0.32093
 C2001 C 0.53294 0.51218 0.11307
 C2002 C 0.54318 0.51111 0.13711
 C2003 C 0.54289 0.48777 0.15080
 C2004 C 0.53107 0.46519 0.14029
 C2005 C 0.52073 0.46617 0.11561
 C2006 C 0.52209 0.48993 0.10174
 C2007 C 0.51061 0.44294 0.10540
 N2008 N 0.51032 0.42060 0.11915
 N2009 N 0.51972 0.41981 0.14231
 C2010 C 0.53018 0.44127 0.15329
 H2011 H 0.53438 0.53047 0.10281
 H2012 H 0.55222 0.52851 0.14483
 H2013 H 0.50308 0.44213 0.08664
 H2014 H 0.53781 0.43941 0.17203
 C2015 C 0.03374 1.01255 0.60625
 C2016 C 0.04444 1.01093 0.63009
 C2017 C 0.04295 0.98771 0.64394
 C2018 C 0.02939 0.96586 0.63378
 C2019 C 0.01857 0.96741 0.60929
 C2020 C 0.02118 0.99098 0.59524
 C2021 C 0.00670 0.94483 0.59939
 N2022 N 0.00524 0.92258 0.61324
 N2023 N 0.01511 0.92124 0.63619
 C2024 C 0.02724 0.94204 0.64687
 H2025 H 0.03619 1.03067 0.59585
 H2026 H 0.05469 1.02782 0.63754
 H2027 H -0.00129 0.94446 0.58078
 H2028 H 0.03522 0.93970 0.66542
 C2029 C -0.02425 0.48534 0.62429
 C2030 C -0.03515 0.48514 0.64799
 C2031 C -0.04127 0.50838 0.65964
 C2032 C -0.03513 0.53246 0.64744
 C2033 C -0.02376 0.53265 0.62328
 C2034 C -0.01890 0.50879 0.61146
 C2035 C -0.01891 0.55678 0.61129
 N2036 N -0.02493 0.57913 0.62280
 N2037 N -0.03572 0.57898 0.64534
 C2038 C -0.04117 0.55646 0.65797
 H2039 H -0.02097 0.46692 0.61540
 H2040 H -0.03978 0.46660 0.65698
 H2041 H -0.01049 0.55814 0.59288
 H2042 H -0.05036 0.55760 0.67600
 C2043 C 0.46248 -0.01152 0.11327
 C2044 C 0.45209 -0.01048 0.13716
 C2045 C 0.44912 0.01334 0.14901
 C2046 C 0.45753 0.03665 0.13657
 C2047 C 0.46832 0.03558 0.11219
 C2048 C 0.47046 0.01120 0.10036
 C2049 C 0.47538 0.05916 0.10008
 N2050 N 0.47205 0.08209 0.11167
 N2051 N 0.46189 0.08309 0.13442
 C2052 C 0.45439 0.06122 0.14719
 H2053 H 0.46365 -0.03028 0.10446
 H2054 H 0.44569 -0.02846 0.14629
 H2055 H 0.48328 0.05972 0.08148
 H2056 H 0.44578 0.06336 0.16537
 C2057 C 0.39736 0.42501 0.01081
 C2058 C 0.37314 0.41197 0.00875
 C2059 C 0.35068 0.42513 0.00117
 C2060 C 0.35285 0.45225 -0.00406
 C2061 C 0.37739 0.46558 -0.00145
 C2062 C 0.39995 0.45172 0.00558
 C2063 C 0.37863 0.49256 -0.00622
 N2064 N 0.35701 0.50507 -0.01393
 N2065 N 0.33425 0.49246 -0.01722
 C2066 C 0.33145 0.46653 -0.01268
 H2067 H 0.41440 0.41388 0.01542
 H2068 H 0.37199 0.39126 0.01272
 H2069 H 0.39652 0.50385 -0.00375
 H2070 H 0.31259 0.45738 -0.01612
 C2071 C -0.10552 0.93428 0.51436
 C2072 C -0.12899 0.91974 0.51410
 C2073 C -0.15019 0.92726 0.49917
 C2074 C -0.14752 0.95047 0.48457
 C2075 C -0.12414 0.96598 0.48594
 C2076 C -0.10245 0.95718 0.50004
 C2077 C -0.12336 0.99008 0.47318
 N2078 N -0.14358 0.99703 0.45837
 N2079 N -0.16461 0.98159 0.45558
 C2080 C -0.16723 0.95855 0.46802
 H2081 H -0.08931 0.92705 0.52521
 H2082 H -0.13050 0.90220 0.52548
 H2083 H -0.10714 1.00371 0.47523
 H2084 H -0.18458 0.94676 0.46460
 C2085 C -0.12384 0.04160 0.98918
 C2086 C -0.14748 0.05427 0.99058
 C2087 C -0.15038 0.07959 0.98080
 C2088 C -0.12880 0.09100 0.96720
 C2089 C -0.10435 0.07821 0.96643
 C2090 C -0.10184 0.05333 0.97779
 C2091 C -0.08315 0.09103 0.95450
 N2092 N -0.08666 0.11397 0.94237
 N2093 N -0.10990 0.12494 0.94137
 C2094 C -0.13106 0.11415 0.95307
 H2095 H -0.12250 0.02253 0.99789
 H2096 H -0.16305 0.04460 1.00105
 H2097 H -0.06387 0.08309 0.95452
 H2098 H -0.14955 0.12352 0.95066
 C2099 C 0.38966 0.55539 0.50430
 C2100 C 0.36550 0.56717 0.50397
 C2101 C 0.36061 0.58830 0.48806
 C2102 C 0.38084 0.59729 0.47167
 C2103 C 0.40598 0.58582 0.47263
 C2104 C 0.41034 0.56432 0.48898
 C2105 C 0.42591 0.59685 0.45754
 N2106 N 0.42061 0.61665 0.44152
 N2107 N 0.39681 0.62631 0.43961
 C2108 C 0.37677 0.61726 0.45403
 H2109 H 0.39217 0.53899 0.51689
 H2110 H 0.35055 0.55990 0.51670
 H2111 H 0.44574 0.59034 0.45845
 H2112 H 0.35782 0.62565 0.45135
 C2113 C 0.10630 0.57570 0.52109
 C2114 C 0.13056 0.58863 0.51862
 C2115 C 0.15306 0.57513 0.51232
 C2116 C 0.15103 0.54783 0.50909
 C2117 C 0.12641 0.53469 0.51174
 C2118 C 0.10374 0.54888 0.51718
 C2119 C 0.12525 0.50755 0.50869
 N2120 N 0.14710 0.49468 0.50276
 N2121 N 0.17003 0.50709 0.49966
 C2122 C 0.17274 0.53318 0.50254
 H2123 H 0.08921 0.58691 0.52495
 H2124 H 0.13173 0.60949 0.52117
 H2125 H 0.10724 0.49640 0.51117
 H2126 H 0.19180 0.54215 0.49954
 C2127 C 0.59795 0.07611 0.01421
 C2128 C 0.62244 0.08882 0.01339
 C2129 C 0.64499 0.07547 0.00701
 C2130 C 0.64274 0.04854 0.00181
 C2131 C 0.61788 0.03560 0.00283
 C2132 C 0.59521 0.04969 0.00847
 C2133 C 0.61656 0.00874 -0.00188
 N2134 N 0.63846 -0.00396 -0.00796
 N2135 N 0.66160 0.00833 -0.00963
 C2136 C 0.66449 0.03410 -0.00504
 H2137 H 0.58089 0.08723 0.01839
 H2138 H 0.62378 0.10940 0.01742
 H2139 H 0.59839 -0.00234 -0.00053
 H2140 H 0.68375 0.04300 -0.00691
 C2141 C 0.60288 0.92579 0.47943
 C2142 C 0.62581 0.91178 0.48222
 C2143 C 0.64999 0.92455 0.48628
 C2144 C 0.65101 0.95214 0.48699
 C2145 C 0.62770 0.96633 0.48405
 C2146 C 0.60341 0.95300 0.48058
 C2147 C 0.62939 0.99363 0.48521
 N2148 N 0.65280 1.00579 0.48927
 N2149 N 0.67458 0.99251 0.49238
 C2150 C 0.67449 0.96616 0.49148
 H2151 H 0.58442 0.91523 0.47745
 H2152 H 0.62460 0.89073 0.48169
 H2153 H 0.61235 1.00540 0.48282
 H2154 H 0.69273 0.95649 0.49451
 C2155 C 0.11798 0.45364 0.98030
 C2156 C 0.14145 0.44030 0.98039
 C2157 C 0.14332 0.41570 0.99191
 C2158 C 0.12039 0.40384 1.00237
 C2159 C 0.09669 0.41766 1.00270
 C2160 C 0.09565 0.44291 0.99188
 C2161 C 0.07452 0.40552 1.01362
 N2162 N 0.07591 0.38099 1.02305
 N2163 N 0.09792 0.36781 1.02226
 C2164 C 0.12012 0.37830 1.01218
 H2165 H 0.11755 0.47297 0.97202
 H2166 H 0.15856 0.44966 0.97206
 H2167 H 0.05599 0.41511 1.01438
 H2168 H 0.13717 0.36638 1.01160
 C2169 C 0.01522 0.37856 0.46472
 C2170 C 0.01371 0.35387 0.45472
 C2171 C -0.01042 0.34292 0.44772
 C2172 C -0.03368 0.35621 0.45234
 C2173 C -0.03224 0.38119 0.46296
 C2174 C -0.00738 0.39282 0.46805
 C2175 C -0.05579 0.39334 0.46854
 N2176 N -0.07901 0.38152 0.46289
 N2177 N -0.08028 0.35828 0.45226
 C2178 C -0.05842 0.34519 0.44683
 H2179 H 0.03431 0.38701 0.46896
 H2180 H 0.03164 0.34385 0.45108
 H2181 H -0.05604 0.41176 0.47782
 H2182 H -0.06055 0.32613 0.43865
 C2183 C 0.50943 -0.11155 -0.06005
 C2184 C 0.50930 -0.13585 -0.07079
 C2185 C 0.48729 -0.15253 -0.06895
 C2186 C 0.46494 -0.14461 -0.05582
 C2187 C 0.46491 -0.11955 -0.04533
 C2188 C 0.48741 -0.10316 -0.04760
 C2189 C 0.44255 -0.11198 -0.03239
 N2190 N 0.42177 -0.12871 -0.03002
 N2191 N 0.42195 -0.15247 -0.03955
 C2192 C 0.44284 -0.16106 -0.05223
 H2193 H 0.52671 -0.09903 -0.06176
 H2194 H 0.52644 -0.14157 -0.08093
 H2195 H 0.44148 -0.09307 -0.02397
 H2196 H 0.44206 -0.18073 -0.05905
 C2197 C 0.00279 -0.12374 1.03659
 C2198 C 0.00056 -0.14745 1.04907
 C2199 C -0.02165 -0.15366 1.06330
 C2200 C -0.04247 -0.13619 1.06434
 C2201 C -0.04020 -0.11203 1.05165
 C2202 C -0.01726 -0.10596 1.03794
 C2203 C -0.06072 -0.09449 1.05368
 N2204 N -0.08228 -0.10127 1.06713
 N2205 N -0.08463 -0.12430 1.07870
 C2206 C -0.06549 -0.14200 1.07776
 H2207 H 0.02035 -0.11910 1.02603
 H2208 H 0.01670 -0.16065 1.04843
 H2209 H -0.05978 -0.07546 1.04484
 H2210 H -0.06849 -0.16046 1.08738
 C2211 C 0.51589 0.38518 0.54340
 C2212 C 0.51540 0.36050 0.55397
 C2213 C 0.49245 0.35034 0.56464
 C2214 C 0.46931 0.36470 0.56419
 C2215 C 0.46975 0.38984 0.55335
 C2216 C 0.49338 0.39999 0.54313
 C2217 C 0.44675 0.40424 0.55400
 N2218 N 0.42477 0.39363 0.56440
 N2219 N 0.42428 0.36971 0.57427
 C2220 C 0.44580 0.35489 0.57456
 H2221 H 0.53401 0.39289 0.53550
 H2222 H 0.53321 0.34957 0.55457
 H2223 H 0.44612 0.42393 0.54679
 H2224 H 0.44435 0.33560 0.58285
 C2225 C 0.50047 1.12365 0.53722
 C2226 C 0.49740 1.14748 0.54827
 C2227 C 0.49518 1.14915 0.57410
 C2228 C 0.49619 1.12645 0.58927
 C2229 C 0.49878 1.10198 0.57797
 C2230 C 0.50114 1.10078 0.55165
 C2231 C 0.49982 1.07979 0.59357
 N2232 N 0.49865 1.08217 0.61866
 N2233 N 0.49663 1.10524 0.62927
 C2234 C 0.49550 1.12746 0.61548
 H2235 H 0.50191 1.12303 0.51709
 H2236 H 0.49684 1.16483 0.53659
 H2237 H 0.50202 1.06064 0.58630
 H2238 H 0.49438 1.14564 0.62522
 C2239 C 0.00949 0.62740 1.04160
 C2240 C 0.00873 0.65098 1.05374
 C2241 C 0.01374 0.65221 1.07933
 C2242 C 0.02137 0.62977 1.09273
 C2243 C 0.02215 0.60579 1.08036
 C2244 C 0.01520 0.60466 1.05488
 C2245 C 0.03029 0.58380 1.09384
 N2246 N 0.03682 0.58585 1.11826
 N2247 N 0.03592 0.60845 1.12999
 C2248 C 0.02850 0.63050 1.11807
 H2249 H 0.00444 0.62667 1.02199
 H2250 H 0.00304 0.66816 1.04336
 H2251 H 0.03204 0.56521 1.08505
 H2252 H 0.02862 0.64841 1.12838
 C2253 C 0.52163 0.62322 -0.03693
 C2254 C 0.52394 0.64815 -0.04707
 C2255 C 0.51879 0.65250 -0.07232
 C2256 C 0.51114 0.63155 -0.08781
 C2257 C 0.50868 0.60620 -0.07746
 C2258 C 0.51410 0.60219 -0.05184
 C2259 C 0.49975 0.58596 -0.09294
 N2260 N 0.49426 0.59087 -0.11725
 N2261 N 0.49682 0.61471 -0.12707
 C2262 C 0.50492 0.63523 -0.11319
 H2263 H 0.52561 0.62031 -0.01725
 H2264 H 0.52937 0.66421 -0.03510
 H2265 H 0.49660 0.56642 -0.08589
 H2266 H 0.50617 0.65420 -0.12211
 C2267 C 0.02803 1.12122 0.45132
 C2268 C 0.03177 1.14559 0.44025
 C2269 C 0.03027 1.14874 0.41425
 C2270 C 0.02843 1.12621 0.39922
 C2271 C 0.02366 1.10151 0.41047
 C2272 C 0.02305 1.09919 0.43685
 C2273 C 0.01899 1.08021 0.39473
 N2274 N 0.02142 1.08312 0.36970
 N2275 N 0.02802 1.10597 0.35927
 C2276 C 0.03179 1.12754 0.37316
 H2277 H 0.02825 1.11966 0.47148
 H2278 H 0.03345 1.16223 0.45235
 H2279 H 0.01322 1.06137 0.40188
 H2280 H 0.03750 1.14554 0.36377
 C2281 C 0.73199 0.72262 0.87065
 C2282 C 0.73352 0.71218 0.89474
 C2283 C 0.75606 0.71593 0.90934
 C2284 C 0.77670 0.73216 0.89996
 C2285 C 0.77510 0.74278 0.87544
 C2286 C 0.75278 0.73747 0.86055
 C2287 C 0.79625 0.75809 0.86640
 N2288 N 0.81732 0.76282 0.88120
 N2289 N 0.81865 0.75323 0.90435
 C2290 C 0.79908 0.73812 0.91424
 H2291 H 0.71510 0.71772 0.85929
 H2292 H 0.71755 0.69980 0.90150
 H2293 H 0.79609 0.76652 0.84782
 H2294 H 0.80111 0.73112 0.93322
 C2295 C 0.23540 0.24091 0.37470
 C2296 C 0.23612 0.22798 0.39778
 C2297 C 0.25944 0.21766 0.40709
 C2298 C 0.28287 0.22197 0.39338
 C2299 C 0.28217 0.23572 0.37027
 C2300 C 0.25803 0.24400 0.36030
 C2301 C 0.30575 0.24008 0.35728
 N2302 N 0.32828 0.23044 0.36641
 N2303 N 0.32880 0.21664 0.38757
 C2304 C 0.30692 0.21190 0.40124
 H2305 H 0.21673 0.24679 0.36725
 H2306 H 0.21804 0.22487 0.40796
 H2307 H 0.30645 0.25118 0.34001
 H2308 H 0.30866 0.20012 0.41792
 C2309 C 0.73305 0.26348 0.37193
 C2310 C 0.73137 0.27516 0.39514
 C2311 C 0.75338 0.28708 0.40604
 C2312 C 0.77790 0.28577 0.39399
 C2313 C 0.77967 0.27367 0.37043
 C2314 C 0.75685 0.26303 0.35908
 C2315 C 0.80412 0.27372 0.35857
 N2316 N 0.82535 0.28469 0.36986
 N2317 N 0.82373 0.29579 0.39206
 C2318 C 0.80076 0.29676 0.40448
 H2319 H 0.71533 0.25585 0.36332
 H2320 H 0.71249 0.27606 0.40409
 H2321 H 0.80660 0.26511 0.34052
 H2322 H 0.80055 0.30606 0.42243
 C2323 C 0.27044 0.77901 0.86579
 C2324 C 0.26729 0.79055 0.88886
 C2325 C 0.24683 0.78265 0.90478
 C2326 C 0.23013 0.76153 0.89776
 C2327 C 0.23350 0.74965 0.87425
 C2328 C 0.25337 0.75904 0.85792
 C2329 C 0.21602 0.72948 0.86736
 N2330 N 0.19655 0.72170 0.88307
 N2331 N 0.19327 0.73291 0.90502
 C2332 C 0.20926 0.75262 0.91284
 H2333 H 0.28540 0.78678 0.85332
 H2334 H 0.28027 0.80662 0.89390
 H2335 H 0.21770 0.71983 0.84969
 H2336 H 0.20537 0.76121 0.93066
 C2337 C 0.22828 0.78204 0.13519
 C2338 C 0.22732 0.79242 0.11108
 C2339 C 0.24990 0.80270 0.09904
 C2340 C 0.27420 0.80174 0.11220
 C2341 C 0.27519 0.78980 0.13627
 C2342 C 0.25185 0.78120 0.14831
 C2343 C 0.29968 0.78730 0.14790
 N2344 N 0.32134 0.79830 0.13735
 N2345 N 0.32011 0.81172 0.11602
 C2346 C 0.29734 0.81415 0.10333
 H2347 H 0.21021 0.77559 0.14404
 H2348 H 0.20854 0.79222 0.10173
 H2349 H 0.30179 0.77658 0.16522
 H2350 H 0.29762 0.82643 0.08689
 C2351 C 0.72673 0.27055 0.63261
 C2352 C 0.72693 0.28264 0.60916
 C2353 C 0.75034 0.29228 0.59810
 C2354 C 0.77427 0.28852 0.61134
 C2355 C 0.77394 0.27497 0.63464
 C2356 C 0.74991 0.26730 0.64590
 C2357 C 0.79786 0.27035 0.64671
 N2358 N 0.82041 0.28049 0.63717
 N2359 N 0.82059 0.29514 0.61655
 C2360 C 0.79838 0.29986 0.60360
 H2361 H 0.70815 0.26501 0.64101
 H2362 H 0.70837 0.28459 0.59965
 H2363 H 0.79875 0.25883 0.66370
 H2364 H 0.79993 0.31317 0.58796
 C2365 C 0.27618 0.21614 0.63443
 C2366 C 0.27572 0.20551 0.61060
 C2367 C 0.25217 0.20227 0.59739
 C2368 C 0.22872 0.21095 0.60811
 C2369 C 0.22925 0.22185 0.63227
 C2370 C 0.25306 0.22369 0.64578
 C2371 C 0.20565 0.23020 0.64243
 N2372 N 0.18306 0.22730 0.62940
 N2373 N 0.18246 0.21656 0.60697
 C2374 C 0.20444 0.20820 0.59594
 H2375 H 0.29447 0.21703 0.64465
 H2376 H 0.29380 0.19892 0.60272
 H2377 H 0.20501 0.23917 0.66052
 H2378 H 0.20262 0.19939 0.57784
 C2379 C 0.73703 0.70772 0.14284
 C2380 C 0.73646 0.69832 0.11874
 C2381 C 0.75907 0.69809 0.10398
 C2382 C 0.78304 0.70801 0.11450
 C2383 C 0.78336 0.71825 0.13915
 C2384 C 0.76017 0.71744 0.15361
 C2385 C 0.80732 0.72752 0.14895
 N2386 N 0.82953 0.72586 0.13551
 N2387 N 0.82954 0.71517 0.11310
 C2388 C 0.80728 0.70589 0.10234
 H2389 H 0.71903 0.70699 0.15343
 H2390 H 0.71780 0.69141 0.11148
 H2391 H 0.80888 0.73572 0.16727
 H2392 H 0.80911 0.69619 0.08478
 C2393 C 0.20278 0.64387 0.24600
 C2394 C 0.18994 0.61968 0.24861
 C2395 C 0.16259 0.61741 0.24789
 C2396 C 0.14799 0.64036 0.24420
 C2397 C 0.16117 0.66498 0.24139
 C2398 C 0.18879 0.66671 0.24238
 C2399 C 0.14615 0.68731 0.23856
 N2400 N 0.11971 0.68513 0.23843
 N2401 N 0.10733 0.66218 0.24123
 C2402 C 0.12051 0.63980 0.24427
 H2403 H 0.22389 0.64488 0.24750
 H2404 H 0.20150 0.60252 0.25141
 H2405 H 0.15520 0.70647 0.23657
 H2406 H 0.10932 0.62191 0.24708
 C2407 C 0.70317 0.13035 0.73274
 C2408 C 0.69029 0.10609 0.73467
 C2409 C 0.66596 0.10294 0.74683
 C2410 C 0.65505 0.12541 0.75784
 C2411 C 0.66790 0.15017 0.75507
 C2412 C 0.69240 0.15248 0.74297
 C2413 C 0.65605 0.17206 0.76514
 N2414 N 0.63385 0.16912 0.77863
 N2415 N 0.62285 0.14578 0.78291
 C2416 C 0.63283 0.12389 0.77336
 H2417 H 0.72207 0.13173 0.72373
 H2418 H 0.69927 0.08973 0.72591
 H2419 H 0.66431 0.19149 0.76251
 H2420 H 0.62364 0.10555 0.77872
 C2421 C 0.79692 0.12465 0.26953
 C2422 C 0.80927 0.10082 0.26743
 C2423 C 0.83603 0.09976 0.26200
 C2424 C 0.85081 0.12354 0.26019
 C2425 C 0.83808 0.14775 0.26179
 C2426 C 0.81089 0.14826 0.26632
 C2427 C 0.85305 0.17082 0.25842
 N2428 N 0.87919 0.16972 0.25486
 N2429 N 0.89130 0.14713 0.25430
 C2430 C 0.87806 0.12406 0.25690
 H2431 H 0.77602 0.12465 0.27258
 H2432 H 0.79755 0.08302 0.26899
 H2433 H 0.84421 0.18969 0.25878
 H2434 H 0.88904 0.10640 0.25664
 C2435 C 0.32386 0.63932 0.76945
 C2436 C 0.33719 0.61600 0.76720
 C2437 C 0.32405 0.59294 0.76011
 C2438 C 0.29674 0.59339 0.75582
 C2439 C 0.28323 0.61707 0.75796
 C2440 C 0.29701 0.64035 0.76441
 C2441 C 0.25614 0.61669 0.75344
 N2442 N 0.24363 0.59421 0.74696
 N2443 N 0.25635 0.57211 0.74467
 C2444 C 0.28243 0.57093 0.74883
 H2445 H 0.33482 0.65693 0.77403
 H2446 H 0.35807 0.61603 0.77057
 H2447 H 0.24476 0.63397 0.75522
 H2448 H 0.29170 0.55246 0.74659
 C2449 C 0.29781 0.35948 0.73055
 C2450 C 0.31042 0.38384 0.73261
 C2451 C 0.33390 0.38719 0.74627
 C2452 C 0.34422 0.36475 0.75853
 C2453 C 0.33166 0.33989 0.75568
 C2454 C 0.30798 0.33738 0.74210
 C2455 C 0.34293 0.31809 0.76715
 N2456 N 0.36425 0.32116 0.78191
 N2457 N 0.37488 0.34456 0.78616
 C2458 C 0.36543 0.36639 0.77535
 H2459 H 0.27952 0.35802 0.72040
 H2460 H 0.30191 0.40013 0.72282
 H2461 H 0.33494 0.29863 0.76454
 H2462 H 0.37418 0.38478 0.78073
 C2463 C 0.79395 0.85937 0.25521
 C2464 C 0.80662 0.88376 0.25484
 C2465 C 0.83273 0.88675 0.24729
 C2466 C 0.84636 0.86415 0.24034
 C2467 C 0.83312 0.83939 0.23994
 C2468 C 0.80665 0.83697 0.24756
 C2469 C 0.84729 0.81766 0.23287
 N2470 N 0.87294 0.82040 0.22699
 N2471 N 0.88550 0.84335 0.22799
 C2472 C 0.87320 0.86520 0.23465
 H2473 H 0.77382 0.85799 0.26139
 H2474 H 0.79579 0.90056 0.26034
 H2475 H 0.83837 0.79847 0.23221
 H2476 H 0.88474 0.88301 0.23590
 C2477 C 0.71000 0.87225 0.76937
 C2478 C 0.69588 0.89514 0.76830
 C2479 C 0.66972 0.89515 0.75995
 C2480 C 0.65710 0.87056 0.75508
 C2481 C 0.67180 0.84746 0.75560
 C2482 C 0.69851 0.84851 0.76237
 C2483 C 0.65907 0.82370 0.74987
 N2484 N 0.63303 0.82291 0.74532
 N2485 N 0.61888 0.84421 0.74628
 C2486 C 0.62989 0.86784 0.75127
 H2487 H 0.73042 0.87328 0.77474
 H2488 H 0.70623 0.91319 0.77247
 H2489 H 0.66947 0.80567 0.74946
 H2490 H 0.61706 0.88405 0.75291
 C2491 C 0.18653 0.36641 0.27841
 C2492 C 0.17293 0.38964 0.27721
 C2493 C 0.18330 0.41173 0.26464
 C2494 C 0.20843 0.41040 0.25368
 C2495 C 0.22248 0.38695 0.25542
 C2496 C 0.21099 0.36449 0.26707
 C2497 C 0.24778 0.38672 0.24528
 N2498 N 0.25770 0.40806 0.23317
 N2499 N 0.24407 0.42962 0.23054
 C2500 C 0.21979 0.43150 0.24025
 H2501 H 0.17733 0.34947 0.28725
 H2502 H 0.15379 0.39021 0.28570
 H2503 H 0.25990 0.36990 0.24714
 H2504 H 0.20964 0.44941 0.23717
 C2505 C 0.12777 0.25723 0.79257
 C2506 C 0.10415 0.25900 0.80470
 C2507 C 0.09528 0.23905 0.82061
 C2508 C 0.10985 0.21625 0.82373
 C2509 C 0.13372 0.21395 0.81076
 C2510 C 0.14327 0.23534 0.79584
 C2511 C 0.14679 0.19022 0.81323
 N2512 N 0.13728 0.17108 0.82855
 N2513 N 0.11555 0.17389 0.84164
 C2514 C 0.10158 0.19583 0.83985
 H2515 H 0.13434 0.27372 0.78123
 H2516 H 0.09301 0.27651 0.80225
 H2517 H 0.16405 0.18612 0.80285
 H2518 H 0.08418 0.19702 0.85106
 C2519 C 0.63651 0.73831 0.31901
 C2520 C 0.61146 0.73624 0.32847
 C2521 C 0.59036 0.72982 0.31293
 C2522 C 0.59448 0.72451 0.28756
 C2523 C 0.62012 0.72624 0.27792
 C2524 C 0.64104 0.73401 0.29378
 C2525 C 0.62394 0.71929 0.25297
 N2526 N 0.60321 0.71203 0.23863
 N2527 N 0.57898 0.71104 0.24762
 C2528 C 0.57390 0.71698 0.27162
 H2529 H 0.65244 0.74376 0.33139
 H2530 H 0.60838 0.74041 0.34797
 H2531 H 0.64318 0.71898 0.24486
 H2532 H 0.55394 0.71543 0.27813
 C2533 C 0.63321 0.25722 0.20919
 C2534 C 0.60870 0.25798 0.19827
 C2535 C 0.59855 0.23635 0.18574
 C2536 C 0.61278 0.21317 0.18478
 C2537 C 0.63775 0.21237 0.19594
 C2538 C 0.64789 0.23473 0.20797
 C2539 C 0.65200 0.18947 0.19394
 N2540 N 0.64140 0.16864 0.18198
 N2541 N 0.61764 0.16926 0.17182
 C2542 C 0.60297 0.19081 0.17278
 H2543 H 0.64093 0.27438 0.21848
 H2544 H 0.59795 0.27585 0.19882
 H2545 H 0.67148 0.18797 0.20156
 H2546 H 0.58379 0.19025 0.16425
 C2547 C 0.14301 0.73655 0.68167
 C2548 C 0.12044 0.74106 0.66817
 C2549 C 0.10366 0.76079 0.67506
 C2550 C 0.10982 0.77654 0.69578
 C2551 C 0.13242 0.77142 0.70996
 C2552 C 0.14902 0.75140 0.70255
 C2553 C 0.13778 0.78676 0.73096
 N2554 N 0.12189 0.80650 0.73666
 N2555 N 0.10100 0.81182 0.72284
 C2556 C 0.09445 0.79758 0.70258
 H2557 H 0.15591 0.72143 0.67581
 H2558 H 0.11582 0.72881 0.65241
 H2559 H 0.15451 0.78342 0.74274
 H2560 H 0.07748 0.80302 0.69186
 C2561 C 0.86991 0.77371 0.69585
 C2562 C 0.89404 0.77320 0.68432
 C2563 C 0.90814 0.75011 0.68339
 C2564 C 0.89826 0.72756 0.69638
 C2565 C 0.87326 0.72802 0.70752
 C2566 C 0.85898 0.75120 0.70668
 C2567 C 0.86386 0.70552 0.72014
 N2568 N 0.87891 0.68431 0.72213
 N2569 N 0.90287 0.68421 0.71266
 C2570 C 0.91318 0.70514 0.70019
 H2571 H 0.85926 0.79166 0.69559
 H2572 H 0.90081 0.79077 0.67473
 H2573 H 0.84498 0.70478 0.72896
 H2574 H 0.93320 0.70422 0.69406
 C2575 C 0.36240 0.23023 0.19816
 C2576 C 0.38598 0.22849 0.18576
 C2577 C 0.39526 0.24911 0.17065
 C2578 C 0.37990 0.27136 0.16686
 C2579 C 0.35616 0.27331 0.17988
 C2580 C 0.34782 0.25271 0.19588
 C2581 C 0.34133 0.29572 0.17619
 N2582 N 0.34976 0.31462 0.16004
 N2583 N 0.37195 0.31260 0.14742
 C2584 C 0.38727 0.29162 0.15021
 H2585 H 0.35595 0.21437 0.21034
 H2586 H 0.39751 0.21131 0.18861
 H2587 H 0.32296 0.29818 0.18567
 H2588 H 0.40483 0.29086 0.13915
 C2589 C 0.35770 0.77924 0.31948
 C2590 C 0.38112 0.77777 0.33225
 C2591 C 0.39043 0.75364 0.33993
 C2592 C 0.37502 0.73075 0.33651
 C2593 C 0.35113 0.73226 0.32344
 C2594 C 0.34332 0.75664 0.31375
 C2595 C 0.33550 0.70947 0.32128
 N2596 N 0.34384 0.68668 0.33109
 N2597 N 0.36658 0.68521 0.34307
 C2598 C 0.38243 0.70646 0.34618
 H2599 H 0.35125 0.79808 0.31327
 H2600 H 0.39260 0.79546 0.33523
 H2601 H 0.31648 0.70962 0.31253
 H2602 H 0.40038 0.70426 0.35659
 C2603 C 0.86168 0.28237 0.80466
 C2604 C 0.88595 0.28480 0.81605
 C2605 C 0.89678 0.26339 0.82813
 C2606 C 0.88311 0.23913 0.82911
 C2607 C 0.85840 0.23669 0.81761
 C2608 C 0.84803 0.25845 0.80503
 C2609 C 0.84470 0.21265 0.81953
 N2610 N 0.85562 0.19234 0.83169
 N2611 N 0.87921 0.19448 0.84211
 C2612 C 0.89334 0.21715 0.84124
 H2613 H 0.85370 0.29910 0.79509
 H2614 H 0.89638 0.30341 0.81543
 H2615 H 0.82534 0.20987 0.81174
 H2616 H 0.91236 0.21777 0.85006
 C2617 C 0.52072 0.99023 0.61655
 C2618 C 0.53112 0.98901 0.64063
 C2619 C 0.54985 1.00751 0.64867
 C2620 C 0.55677 1.02871 0.63253
 C2621 C 0.54696 1.02937 0.60779
 C2622 C 0.52897 1.00983 0.59978
 C2623 C 0.55568 1.04963 0.59172
 N2624 N 0.57200 1.06864 0.60036
 N2625 N 0.58034 1.06864 0.62388
 C2626 C 0.57324 1.04942 0.64026
 H2627 H 0.50724 0.97498 0.61053
 H2628 H 0.52544 0.97275 0.65266
 H2629 H 0.54925 1.05081 0.57252
 H2630 H 0.58030 1.05071 0.65921
 C2631 C 0.05580 0.52131 1.11560
 C2632 C 0.06656 0.51792 1.13911
 C2633 C 0.05270 0.50502 1.15860
 C2634 C 0.02683 0.49511 1.15312
 C2635 C 0.01568 0.49938 1.12899
 C2636 C 0.03058 0.51221 1.11008
 C2637 C -0.00942 0.48892 1.12398
 N2638 N -0.02217 0.47428 1.14147
 N2639 N -0.01129 0.46888 1.16340
 C2640 C 0.01280 0.47827 1.16960
 H2641 H 0.06762 0.53083 1.10125
 H2642 H 0.08583 0.52653 1.14210
 H2643 H -0.01889 0.49177 1.10621
 H2644 H 0.02103 0.47139 1.18692
 C2645 C -0.05645 -0.02810 1.10088
 C2646 C -0.06684 -0.02492 1.12453
 C2647 C -0.05340 -0.01053 1.14293
 C2648 C -0.02837 0.00076 1.13671
 C2649 C -0.01761 -0.00305 1.11257
 C2650 C -0.03207 -0.01720 1.09445
 C2651 C 0.00666 0.00895 1.10677
 N2652 N 0.01907 0.02423 1.12367
 N2653 N 0.00862 0.02875 1.14579
 C2654 C -0.01471 0.01795 1.15272
 H2655 H -0.06799 -0.03855 1.08713
 H2656 H -0.08569 -0.03412 1.12846
 H2657 H 0.01578 0.00666 1.08888
 H2658 H -0.02260 0.02379 1.17031
 C2659 C 0.47601 0.51186 0.61708
 C2660 C 0.46460 0.51199 0.64062
 C2661 C 0.45466 0.48898 0.65161
 C2662 C 0.45784 0.46510 0.63918
 C2663 C 0.46978 0.46492 0.61527
 C2664 C 0.47830 0.48867 0.60387
 C2665 C 0.47191 0.44097 0.60327
 N2666 N 0.46311 0.41873 0.61467
 N2667 N 0.45217 0.41886 0.63715
 C2668 C 0.44920 0.44126 0.64977
 H2669 H 0.48219 0.53026 0.60862
 H2670 H 0.46240 0.53040 0.64985
 H2671 H 0.48057 0.43969 0.58504
 H2672 H 0.44024 0.44023 0.66799
 C2673 C 0.46086 0.52865 -0.11685
 C2674 C 0.45005 0.52665 -0.14065
 C2675 C 0.45992 0.50928 -0.15792
 C2676 C 0.48244 0.49509 -0.15157
 C2677 C 0.49357 0.49725 -0.12735
 C2678 C 0.48220 0.51371 -0.10966
 C2679 C 0.51514 0.48196 -0.12138
 N2680 N 0.52527 0.46623 -0.13876
 N2681 N 0.51517 0.46462 -0.16161
 C2682 C 0.49412 0.47848 -0.16860
 H2683 H 0.45165 0.54104 -0.10347
 H2684 H 0.43287 0.53769 -0.14514
 H2685 H 0.52413 0.48242 -0.10315
 H2686 H 0.48682 0.47649 -0.18743
 C2687 C -0.00761 0.99689 0.36664
 C2688 C -0.01889 0.99454 0.34299
 C2689 C -0.03976 1.01012 0.33564
 C2690 C -0.04857 1.02935 0.35215
 C2691 C -0.03690 1.03184 0.37605
 C2692 C -0.01698 1.01480 0.38363
 C2693 C -0.04613 1.05094 0.39210
 N2694 N -0.06605 1.06615 0.38478
 N2695 N -0.07746 1.06342 0.36262
 C2696 C -0.06957 1.04549 0.34616
 H2697 H 0.00727 0.98341 0.37231
 H2698 H -0.01200 0.97971 0.33066
 H2699 H -0.03759 1.05398 0.41033
 H2700 H -0.07999 1.04399 0.32870
 C2701 C 0.03375 0.51106 0.39184
 C2702 C 0.04320 0.51318 0.36764
 C2703 C 0.04359 0.49152 0.35218
 C2704 C 0.03243 0.46750 0.36111
 C2705 C 0.02318 0.46522 0.38612
 C2706 C 0.02443 0.48718 0.40176
 C2707 C 0.01378 0.44078 0.39468
 N2708 N 0.01262 0.42037 0.37894
 N2709 N 0.02036 0.42273 0.35533
 C2710 C 0.03015 0.44555 0.34588
 H2711 H 0.03466 0.52823 0.40333
 H2712 H 0.05150 0.53174 0.36141
 H2713 H 0.00733 0.43762 0.41364
 H2714 H 0.03581 0.44638 0.32649
 C2715 C 0.52940 0.00916 -0.11922
 C2716 C 0.53929 0.00946 -0.14329
 C2717 C 0.53794 -0.01281 -0.15799
 C2718 C 0.52480 -0.03551 -0.14834
 C2719 C 0.51525 -0.03604 -0.12339
 C2720 C 0.51795 -0.01346 -0.10859
 C2721 C 0.50410 -0.05947 -0.11403
 N2722 N 0.50143 -0.08038 -0.12902
 N2723 N 0.50928 -0.07952 -0.15266
 C2724 C 0.52078 -0.05783 -0.16283
 H2725 H 0.53152 0.02675 -0.10843
 H2726 H 0.54916 0.02705 -0.15006
 H2727 H 0.49753 -0.06151 -0.09501
 H2728 H 0.52644 -0.05818 -0.18220
 C2729 C 0.61232 0.56618 0.00616
 C2730 C 0.63600 0.58006 0.00721
 C2731 C 0.65456 0.57837 -0.01176
 C2732 C 0.64865 0.56228 -0.03247
 C2733 C 0.62455 0.54764 -0.03334
 C2734 C 0.60602 0.54983 -0.01386
 C2735 C 0.62026 0.53086 -0.05346
 N2736 N 0.63812 0.52984 -0.07200
 N2737 N 0.66004 0.54434 -0.07173
 C2738 C 0.66589 0.56052 -0.05267
 H2739 H 0.59864 0.56839 0.02129
 H2740 H 0.63996 0.59219 0.02320
 H2741 H 0.60314 0.51828 -0.05454
 H2742 H 0.68389 0.57194 -0.05360
 C2743 C 0.11513 1.05892 0.50065
 C2744 C 0.13832 1.07352 0.50175
 C2745 C 0.15573 1.07454 0.48173
 C2746 C 0.14925 1.06026 0.45995
 C2747 C 0.12572 1.04469 0.45903
 C2748 C 0.10818 1.04435 0.47953
 C2749 C 0.12102 1.02967 0.43773
 N2750 N 0.13779 1.03126 0.41824
 N2751 N 0.15904 1.04673 0.41863
 C2752 C 0.16531 1.06129 0.43875
 H2753 H 0.10225 1.05941 0.51658
 H2754 H 0.14275 1.08417 0.51859
 H2755 H 0.10451 1.01632 0.43646
 H2756 H 0.18269 1.07364 0.43787
 C2757 C 0.09275 -0.08245 0.98742
 C2758 C 0.11614 -0.09571 0.98747
 C2759 C 0.13712 -0.08838 1.00315
 C2760 C 0.13299 -0.06804 1.02054
 C2761 C 0.10914 -0.05425 1.02008
 C2762 C 0.08892 -0.06154 1.00329
 C2763 C 0.10646 -0.03336 1.03641
 N2764 N 0.12542 -0.02790 1.05335
 N2765 N 0.14685 -0.04192 1.05506
 C2766 C 0.15116 -0.06188 1.03948
 H2767 H 0.07755 -0.08830 0.97439
 H2768 H 0.11822 -0.11093 0.97393
 H2769 H 0.08948 -0.02135 1.03597
 H2770 H 0.16846 -0.07306 1.04255
 C2771 C 0.60095 0.42273 0.49415
 C2772 C 0.62397 0.40886 0.49361
 C2773 C 0.64524 0.41506 0.50937
 C2774 C 0.64174 0.43489 0.52744
 C2775 C 0.61827 0.44933 0.52760
 C2776 C 0.59775 0.44319 0.51071
 C2777 C 0.61626 0.46969 0.54463
 N2778 N 0.63545 0.47404 0.56162
 N2779 N 0.65649 0.45941 0.56272
 C2780 C 0.66016 0.43990 0.54647
 H2781 H 0.58554 0.41773 0.48103
 H2782 H 0.62555 0.39407 0.47956
 H2783 H 0.59962 0.48217 0.54470
 H2784 H 0.67715 0.42816 0.54907
 C2785 C -0.10747 0.43001 0.51475
 C2786 C -0.13165 0.41689 0.51468
 C2787 C -0.14948 0.42042 0.49518
 C2788 C -0.14274 0.43804 0.47546
 C2789 C -0.11811 0.45168 0.47563
 C2790 C -0.10013 0.44735 0.49539
 C2791 C -0.11292 0.46999 0.45647
 N2792 N -0.13075 0.47382 0.43814
 N2793 N -0.15359 0.46085 0.43781
 C2794 C -0.16024 0.44324 0.45587
 H2795 H -0.09420 0.42640 0.53011
 H2796 H -0.13637 0.40355 0.52991
 H2797 H -0.09519 0.48175 0.45608
 H2798 H -0.17931 0.43379 0.45491
 C2799 C 0.38554 -0.07034 0.00286
 C2800 C 0.36133 -0.08333 0.00341
 C2801 C 0.34269 -0.07912 -0.01525
 C2802 C 0.34877 -0.06118 -0.03490
 C2803 C 0.37348 -0.04772 -0.03537
 C2804 C 0.39212 -0.05248 -0.01630
 C2805 C 0.37812 -0.02915 -0.05443
 N2806 N 0.35961 -0.02485 -0.07203
 N2807 N 0.33664 -0.03761 -0.07172
 C2808 C 0.33054 -0.05549 -0.05373
 H2809 H 0.39936 -0.07429 0.01769
 H2810 H 0.35714 -0.09696 0.01853
 H2811 H 0.39602 -0.01767 -0.05534
 H2812 H 0.31137 -0.06480 -0.05415
 C2813 C 0.38487 1.04490 0.49867
 C2814 C 0.36125 1.05786 0.49824
 C2815 C 0.35938 1.08275 0.50825
 C2816 C 0.38165 1.09429 0.51991
 C2817 C 0.40576 1.08110 0.52035
 C2818 C 0.40737 1.05617 0.50946
 C2819 C 0.42765 1.09388 0.53095
 N2820 N 0.42526 1.11765 0.54120
 N2821 N 0.40252 1.12962 0.54142
 C2822 C 0.38067 1.11879 0.53114
 H2823 H 0.38574 1.02603 0.49001
 H2824 H 0.34446 1.04873 0.48927
 H2825 H 0.44666 1.08538 0.53109
 H2826 H 0.36274 1.12940 0.53191
 C2827 C -0.09419 0.58505 1.02318
 C2828 C -0.11827 0.59722 1.02151
 C2829 C -0.14149 0.58286 1.01688
 C2830 C -0.14039 0.55537 1.01543
 C2831 C -0.11588 0.54307 1.01683
 C2832 C -0.09257 0.55814 1.02022
 C2833 C -0.11548 0.51582 1.01491
 N2834 N -0.13815 0.50191 1.01218
 N2835 N -0.16115 0.51338 1.01131
 C2836 C -0.16307 0.53956 1.01294
 H2837 H -0.07656 0.59688 1.02555
 H2838 H -0.11867 0.61820 1.02295
 H2839 H -0.09741 0.50540 1.01593
 H2840 H -0.18234 0.54765 1.01263
 C2841 C 0.03131 0.61514 0.54847
 C2842 C 0.03236 0.64030 0.55758
 C2843 C 0.00984 0.65144 0.56685
 C2844 C -0.01412 0.63716 0.56737
 C2845 C -0.01518 0.61158 0.55821
 C2846 C 0.00772 0.60082 0.54840
 C2847 C -0.03905 0.59744 0.55972
 N2848 N -0.06041 0.60861 0.56935
 N2849 N -0.05950 0.63290 0.57762
 C2850 C -0.03711 0.64756 0.57699
 H2851 H 0.04889 0.60692 0.54108
 H2852 H 0.05080 0.65112 0.55749
 H2853 H -0.04087 0.57752 0.55376
 H2854 H -0.03750 0.66714 0.58406
 C2855 C 0.52311 0.11552 0.03903
 C2856 C 0.52485 0.13976 0.05001
 C2857 C 0.50277 0.15043 0.06064
 C2858 C 0.47839 0.13691 0.05998
 C2859 C 0.47664 0.11222 0.04895
 C2860 C 0.49927 0.10168 0.03840
 C2861 C 0.45244 0.09858 0.04962
 N2862 N 0.43139 0.10952 0.06010
 N2863 N 0.43294 0.13308 0.07005
 C2864 C 0.45569 0.14715 0.07037
 H2865 H 0.54046 0.10744 0.03103
 H2866 H 0.54360 0.15000 0.05076
 H2867 H 0.45010 0.07922 0.04232
 H2868 H 0.45582 0.16617 0.07873
 C2869 C -0.00847 0.11893 0.96371
 C2870 C -0.00928 0.14446 0.95523
 C2871 C -0.00642 0.15024 0.92990
 C2872 C -0.00221 0.13021 0.91268
 C2873 C -0.00137 0.10416 0.92128
 C2874 C -0.00480 0.09866 0.94703
 C2875 C 0.00375 0.08472 0.90387
 N2876 N 0.00737 0.09114 0.87952
 N2877 N 0.00640 0.11568 0.87140
 C2878 C 0.00183 0.13544 0.88713
 H2879 H -0.01108 0.11490 0.98343
 H2880 H -0.01229 0.15981 0.96846
 H2881 H 0.00532 0.06457 0.90930
 H2882 H 0.00166 0.15502 0.87953
 C2883 C 0.50529 0.62751 0.47689
 C2884 C 0.50415 0.65326 0.46907
 C2885 C 0.50741 0.65973 0.44395
 C2886 C 0.51249 0.64026 0.42631
 C2887 C 0.51385 0.61409 0.43430
 C2888 C 0.50960 0.60783 0.45971
 C2889 C 0.51989 0.59520 0.41661
 N2890 N 0.52351 0.60228 0.39240
 N2891 N 0.52164 0.62690 0.38476
 C2892 C 0.51627 0.64613 0.40085
 H2893 H 0.50212 0.62281 0.49642
 H2894 H 0.50022 0.66814 0.48254
 H2895 H 0.52215 0.57500 0.42175
 H2896 H 0.51513 0.66577 0.39359
 C2897 C 0.53417 0.90068 0.43384
 C2898 C 0.53544 0.87654 0.42279
 C2899 C 0.51267 0.86386 0.41435
 C2900 C 0.48819 0.87590 0.41631
 C2901 C 0.48705 0.90074 0.42696
 C2902 C 0.51010 0.91250 0.43667
 C2903 C 0.46283 0.91305 0.42747
 N2904 N 0.44102 0.90048 0.41904
 N2905 N 0.44185 0.87650 0.41009
 C2906 C 0.46461 0.86373 0.40852
 H2907 H 0.55191 0.90973 0.44108
 H2908 H 0.55418 0.86737 0.42134
 H2909 H 0.46108 0.93264 0.43416
 H2910 H 0.46394 0.84423 0.40130
 C2911 C 0.02401 0.39117 0.96087
 C2912 C 0.02494 0.36634 0.95135
 C2913 C 0.00236 0.35442 0.94176
 C2914 C -0.02172 0.36725 0.94194
 C2915 C -0.02265 0.39257 0.95148
 C2916 C 0.00046 0.40433 0.96104
 C2917 C -0.04650 0.40556 0.95030
 N2918 N -0.06804 0.39338 0.94076
 N2919 N -0.06728 0.36923 0.93223
 C2920 C -0.04487 0.35574 0.93245
 H2921 H 0.04176 0.40024 0.96810
 H2922 H 0.04347 0.35664 0.95082
 H2923 H -0.04814 0.42536 0.95641
 H2924 H -0.04534 0.33620 0.92522
 C2925 C 0.51156 0.38208 0.03946
 C2926 C 0.51282 0.35864 0.05222
 C2927 C 0.49289 0.35066 0.06843
 C2928 C 0.47096 0.36641 0.07175
 C2929 C 0.46918 0.39015 0.05816
 C2930 C 0.49020 0.39835 0.04230
 C2931 C 0.44624 0.40442 0.06084
 N2932 N 0.42736 0.39611 0.07695
 N2933 N 0.42969 0.37444 0.09053
 C2934 C 0.45083 0.35934 0.08852
 H2935 H 0.52793 0.38777 0.02769
 H2936 H 0.52964 0.34663 0.04954
 H2937 H 0.44262 0.42175 0.05010
 H2938 H 0.45171 0.34202 0.10012
 C2939 C -0.01666 0.87859 0.52120
 C2940 C -0.01658 0.85434 0.53259
 C2941 C -0.02543 0.85117 0.55691
 C2942 C -0.03759 0.87177 0.56904
 C2943 C -0.03870 0.89651 0.55715
 C2944 C -0.02562 0.90047 0.53383
 C2945 C -0.05272 0.91589 0.56935
 N2946 N -0.06315 0.91105 0.59219
 N2947 N -0.06092 0.88813 0.60370
 C2948 C -0.04854 0.86830 0.59288
 H2949 H -0.00791 0.88037 0.50290
 H2950 H -0.00766 0.83839 0.52308
 H2951 H -0.05669 0.93447 0.56096
 H2952 H -0.04777 0.84987 0.60280
 C2953 C 0.23587 0.29669 0.13815
 C2954 C 0.23454 0.30471 0.11334
 C2955 C 0.25422 0.29875 0.09649
 C2956 C 0.27516 0.28318 0.10484
 C2957 C 0.27686 0.27539 0.13040
 C2958 C 0.25699 0.28245 0.14731
 C2959 C 0.29887 0.26149 0.13806
 N2960 N 0.31708 0.25484 0.12118
 N2961 N 0.31488 0.26118 0.09715
 C2962 C 0.29454 0.27502 0.08841
 H2963 H 0.22031 0.30217 0.15050
 H2964 H 0.21838 0.31655 0.10747
 H2965 H 0.30208 0.25598 0.15721
 H2966 H 0.29363 0.27930 0.06865
 C2967 C 0.78221 0.79595 0.63970
 C2968 C 0.77916 0.80658 0.61582
 C2969 C 0.75992 0.79686 0.59946
 C2970 C 0.74415 0.77508 0.60725
 C2971 C 0.74770 0.76394 0.63143
 C2972 C 0.76646 0.77491 0.64796
 C2973 C 0.73136 0.74282 0.63877
 N2974 N 0.71264 0.73364 0.62304
 N2975 N 0.70897 0.74432 0.60060
 C2976 C 0.72390 0.76478 0.59225
 H2977 H 0.79622 0.80500 0.65227
 H2978 H 0.79139 0.82318 0.61035
 H2979 H 0.73329 0.73354 0.65686
 H2980 H 0.71946 0.77293 0.57413
 C2981 C 0.22380 0.69986 0.63913
 C2982 C 0.22558 0.69059 0.61495
 C2983 C 0.24329 0.70199 0.59795
 C2984 C 0.25833 0.72422 0.60500
 C2985 C 0.25644 0.73375 0.62960
 C2986 C 0.23937 0.72105 0.64688
 C2987 C 0.27251 0.75513 0.63630
 N2988 N 0.28876 0.76652 0.61923
 N2989 N 0.29016 0.75788 0.59601
 C2990 C 0.27552 0.73713 0.58831
 H2991 H 0.21092 0.68975 0.65223
 H2992 H 0.21396 0.67356 0.60983
 H2993 H 0.27232 0.76293 0.65488
 H2994 H 0.27738 0.73099 0.56922
 C2995 C 0.73074 0.19019 0.14454
 C2996 C 0.73223 0.18032 0.12057
 C2997 C 0.74114 0.19599 0.10068
 C2998 C 0.74794 0.22243 0.10497
 C2999 C 0.74675 0.23248 0.12952
 C3000 C 0.73823 0.21605 0.14956
 C3001 C 0.75537 0.25832 0.13321
 N3002 N 0.76375 0.27319 0.11359
 N3003 N 0.76442 0.26389 0.09058
 C3004 C 0.75693 0.23902 0.08562
 H3005 H 0.72446 0.17720 0.15956
 H3006 H 0.72694 0.16006 0.11759
 H3007 H 0.75583 0.26683 0.15143
 H3008 H 0.75823 0.23240 0.06663
 C3009 C 0.77799 0.21221 0.86596
 C3010 C 0.77669 0.20115 0.88979
 C3011 C 0.75671 0.20744 0.90631
 C3012 C 0.73844 0.22643 0.89898
 C3013 C 0.74010 0.23800 0.87482
 C3014 C 0.75957 0.23018 0.85804
 C3015 C 0.72137 0.25625 0.86780
 N3016 N 0.70220 0.26233 0.88390
 N3017 N 0.70036 0.25120 0.90640
 C3018 C 0.71767 0.23338 0.91443
 H3019 H 0.79272 0.20573 0.85317
 H3020 H 0.79076 0.18665 0.89501
 H3021 H 0.72183 0.26574 0.84969
 H3022 H 0.71480 0.22472 0.93269
 C3023 C 0.23111 0.72759 0.37074
 C3024 C 0.23121 0.71515 0.39390
 C3025 C 0.25424 0.71354 0.40778
 C3026 C 0.27743 0.72587 0.39866
 C3027 C 0.27739 0.73871 0.37498
 C3028 C 0.25405 0.73881 0.36050
 C3029 C 0.30107 0.74992 0.36638
 N3030 N 0.32304 0.74842 0.38046
 N3031 N 0.32303 0.73631 0.40255
 C3032 C 0.30102 0.72493 0.41210
 H3033 H 0.21303 0.72744 0.36017
 H3034 H 0.21333 0.70582 0.40067
 H3035 H 0.30249 0.75996 0.34876
 H3036 H 0.30219 0.71521 0.43005
 C3037 C 0.74679 0.75885 0.37775
 C3038 C 0.74878 0.77117 0.40071
 C3039 C 0.73144 0.79062 0.40713
 C3040 C 0.71088 0.79684 0.39044
 C3041 C 0.70895 0.78429 0.36706
 C3042 C 0.72747 0.76566 0.36050
 C3043 C 0.68896 0.79149 0.35055
 N3044 N 0.67201 0.81001 0.35711
 N3045 N 0.67390 0.82194 0.37894
 C3046 C 0.69279 0.81611 0.39574
 H3047 H 0.76152 0.74510 0.37275
 H3048 H 0.76465 0.76626 0.41317
 H3049 H 0.68663 0.78247 0.33255
 H3050 H 0.69352 0.82670 0.41299
 C3051 C 0.21795 0.28495 0.86173
 C3052 C 0.22028 0.29686 0.88484
 C3053 C 0.23814 0.28812 0.90277
 C3054 C 0.25298 0.26586 0.89759
 C3055 C 0.25026 0.25350 0.87411
 C3056 C 0.23313 0.26364 0.85583
 C3057 C 0.26589 0.23210 0.86921
 N3058 N 0.28304 0.22368 0.88666
 N3059 N 0.28582 0.23538 0.90851
 C3060 C 0.27155 0.25624 0.91450
 H3061 H 0.20518 0.29334 0.84780
 H3062 H 0.20878 0.31380 0.88838
 H3063 H 0.26464 0.22200 0.85170
 H3064 H 0.27514 0.26519 0.93231
 C3065 C 0.81860 0.35861 0.74467
 C3066 C 0.83220 0.38241 0.74465
 C3067 C 0.82774 0.40091 0.76295
 C3068 C 0.80919 0.39487 0.78195
 C3069 C 0.79483 0.37072 0.78167
 C3070 C 0.79988 0.35224 0.76296
 C3071 C 0.77545 0.36633 0.79984
 N3072 N 0.77180 0.38413 0.81781
 N3073 N 0.78607 0.40611 0.81876
 C3074 C 0.80464 0.41206 0.80151
 H3075 H 0.82287 0.34493 0.73016
 H3076 H 0.84627 0.38653 0.72998
 H3077 H 0.76287 0.34920 0.79979
 H3078 H 0.81571 0.43011 0.80337
 C3079 C 0.29217 0.88328 0.26421
 C3080 C 0.30501 0.90757 0.26405
 C3081 C 0.33234 0.91014 0.26783
 C3082 C 0.34583 0.88700 0.27494
 C3083 C 0.33273 0.86223 0.27412
 C3084 C 0.30575 0.86045 0.26863
 C3085 C 0.34720 0.83985 0.27888
 N3086 N 0.37236 0.84213 0.28658
 N3087 N 0.38393 0.86530 0.28988
 C3088 C 0.37146 0.88770 0.28475
 H3089 H 0.27148 0.88223 0.25990
 H3090 H 0.29345 0.92404 0.25859
 H3091 H 0.33862 0.82057 0.27684
 H3092 H 0.38156 0.90582 0.28896
 C3093 C 0.20329 0.85985 0.75648
 C3094 C 0.18977 0.88308 0.75643
 C3095 C 0.17129 0.88860 0.73798
 C3096 C 0.16727 0.87055 0.71847
 C3097 C 0.18053 0.84639 0.71869
 C3098 C 0.19895 0.84085 0.73816
 C3099 C 0.17410 0.82869 0.69960
 N3100 N 0.15704 0.83520 0.68133
 N3101 N 0.14575 0.85817 0.68063
 C3102 C 0.15034 0.87606 0.69846
 H3103 H 0.21712 0.85659 0.77145
 H3104 H 0.19333 0.89664 0.77140
 H3105 H 0.18170 0.80953 0.69883
 H3106 H 0.14084 0.89451 0.69666
 C3107 C 0.67319 0.34107 0.25856
 C3108 C 0.65974 0.36433 0.25871
 C3109 C 0.66487 0.38399 0.24092
 C3110 C 0.68351 0.37944 0.22200
 C3111 C 0.69760 0.35584 0.22209
 C3112 C 0.69231 0.33637 0.24058
 C3113 C 0.71709 0.35301 0.20402
 N3114 N 0.72114 0.37176 0.18633
 N3115 N 0.70719 0.39324 0.18558
 C3116 C 0.68853 0.39770 0.20274
 H3117 H 0.66880 0.32662 0.27295
 H3118 H 0.64557 0.36725 0.27329
 H3119 H 0.72934 0.33630 0.20387
 H3120 H 0.67770 0.41541 0.20104
 C3121 C 0.70630 0.61759 0.26416
 C3122 C 0.69357 0.59337 0.26208
 C3123 C 0.66652 0.59072 0.26536
 C3124 C 0.65224 0.61283 0.27212
 C3125 C 0.66522 0.63751 0.27435
 C3126 C 0.69251 0.63992 0.27001
 C3127 C 0.65011 0.65911 0.27997
 N3128 N 0.62405 0.65599 0.28382
 N3129 N 0.61202 0.63280 0.28225
 C3130 C 0.62519 0.61114 0.27653
 H3131 H 0.72709 0.61906 0.26047
 H3132 H 0.70480 0.57671 0.25693
 H3133 H 0.65868 0.67843 0.28132
 H3134 H 0.61441 0.59281 0.27555
 C3135 C 0.20479 0.11904 0.76357
 C3136 C 0.19176 0.09492 0.76149
 C3137 C 0.16461 0.09324 0.75780
 C3138 C 0.15025 0.11652 0.75741
 C3139 C 0.16358 0.14104 0.75899
 C3140 C 0.19110 0.14226 0.76208
 C3141 C 0.14884 0.16367 0.75691
 N3142 N 0.12247 0.16179 0.75479
 N3143 N 0.10988 0.13882 0.75427
 C3144 C 0.12283 0.11617 0.75549
 H3145 H 0.22586 0.11965 0.76548
 H3146 H 0.20311 0.07743 0.76184
 H3147 H 0.15796 0.18283 0.75720
 H3148 H 0.11151 0.09814 0.75512
 C3149 C 0.31967 0.15768 0.23168
 C3150 C 0.33274 0.13418 0.23235
 C3151 C 0.32042 0.11112 0.24120
 C3152 C 0.29371 0.11184 0.24828
 C3153 C 0.28064 0.13595 0.24818
 C3154 C 0.29394 0.15911 0.24019
 C3155 C 0.25434 0.13600 0.25563
 N3156 N 0.24190 0.11338 0.26231
 N3157 N 0.25392 0.09074 0.26190
 C3158 C 0.27928 0.08917 0.25498
 H3159 H 0.33019 0.17517 0.22561
 H3160 H 0.35302 0.13421 0.22666
 H3161 H 0.24340 0.15370 0.25578
 H3162 H 0.28769 0.07014 0.25438
 C3163 C 0.80187 0.63741 0.72997
 C3164 C 0.81312 0.61287 0.73059
 C3165 C 0.83389 0.60756 0.74684
 C3166 C 0.84429 0.62771 0.76192
 C3167 C 0.83308 0.65266 0.76113
 C3168 C 0.81113 0.65731 0.74554
 C3169 C 0.84472 0.67241 0.77565
 N3170 N 0.86563 0.66726 0.79029
 N3171 N 0.87584 0.64373 0.79133
 C3172 C 0.86595 0.62382 0.77764
 H3173 H 0.78525 0.64061 0.71786
 H3174 H 0.80525 0.59775 0.71866
 H3175 H 0.83790 0.69208 0.77500
 H3176 H 0.87529 0.60523 0.77901
 C3177 C 0.87287 0.75268 0.22883
 C3178 C 0.89725 0.75306 0.21766
 C3179 C 0.90215 0.73705 0.19713
 C3180 C 0.88318 0.71724 0.19104
 C3181 C 0.85824 0.71741 0.20210
 C3182 C 0.85291 0.73635 0.22002
 C3183 C 0.83968 0.69805 0.19542
 N3184 N 0.84625 0.67904 0.17958
 N3185 N 0.87020 0.67793 0.17020
 C3186 C 0.88894 0.69607 0.17565
 H3187 H 0.86926 0.76600 0.24381
 H3188 H 0.91110 0.76799 0.22362
 H3189 H 0.82022 0.69751 0.20294
 H3190 H 0.90835 0.69341 0.16840
 C3191 C 0.36336 0.27207 0.70928
 C3192 C 0.38819 0.27495 0.69921
 C3193 C 0.40051 0.25349 0.68938
 C3194 C 0.38807 0.22862 0.68987
 C3195 C 0.36270 0.22575 0.69976
 C3196 C 0.35052 0.24772 0.70959
 C3197 C 0.35004 0.20117 0.69858
 N3198 N 0.36259 0.18076 0.68887
 N3199 N 0.38680 0.18334 0.68006
 C3200 C 0.39996 0.20656 0.68015
 H3201 H 0.35399 0.28895 0.71672
 H3202 H 0.39759 0.29407 0.69847
 H3203 H 0.33019 0.19804 0.70487
 H3204 H 0.41953 0.20757 0.67260
 C3205 C 0.36941 0.72213 0.78528
 C3206 C 0.39468 0.72157 0.79457
 C3207 C 0.39976 0.72815 0.81927
 C3208 C 0.37910 0.73489 0.83524
 C3209 C 0.35335 0.73560 0.82576
 C3210 C 0.34873 0.72936 0.80049
 C3211 C 0.33339 0.74376 0.84164
 N3212 N 0.33903 0.75017 0.86552
 N3213 N 0.36326 0.74925 0.87451
 C3214 C 0.38349 0.74196 0.86019
 H3215 H 0.36599 0.71746 0.76588
 H3216 H 0.41050 0.71669 0.78225
 H3217 H 0.31346 0.74546 0.83536
 H3218 H 0.40279 0.74194 0.86843
 C3219 C 0.86646 0.22609 0.30389
 C3220 C 0.89152 0.22737 0.31377
 C3221 C 0.90277 0.25129 0.32055
 C3222 C 0.88848 0.27432 0.31808
 C3223 C 0.86289 0.27301 0.30821
 C3224 C 0.85225 0.24873 0.30045
 C3225 C 0.84847 0.29594 0.30740
 N3226 N 0.85947 0.31867 0.31524
 N3227 N 0.88381 0.31998 0.32402
 C3228 C 0.89867 0.29859 0.32579
 H3229 H 0.85822 0.20736 0.29866
 H3230 H 0.90219 0.20959 0.31627
 H3231 H 0.82837 0.29593 0.30127
 H3232 H 0.91818 0.30072 0.33341
 C3233 C 0.15292 0.27854 0.32853
 C3234 C 0.12810 0.28014 0.33865
 C3235 C 0.10692 0.28710 0.32362
 C3236 C 0.11105 0.29486 0.29857
 C3237 C 0.13633 0.29352 0.28834
 C3238 C 0.15693 0.28388 0.30321
 C3239 C 0.14012 0.30192 0.26351
 N3240 N 0.11963 0.31056 0.24992
 N3241 N 0.09570 0.31142 0.25949
 C3242 C 0.09070 0.30386 0.28335
 H3243 H 0.16867 0.27148 0.34012
 H3244 H 0.12507 0.27426 0.35792
 H3245 H 0.15921 0.30212 0.25494
 H3246 H 0.07099 0.30529 0.29032
 C3247 C 0.63477 0.76530 0.78212
 C3248 C 0.60947 0.76766 0.79071
 C3249 C 0.60416 0.76564 0.81616
 C3250 C 0.62459 0.76104 0.83343
 C3251 C 0.65044 0.75876 0.82469
 C3252 C 0.65538 0.76105 0.79879
 C3253 C 0.67018 0.75309 0.84212
 N3254 N 0.66429 0.75031 0.86664
 N3255 N 0.63997 0.75253 0.87488
 C3256 C 0.61992 0.75763 0.85915
 H3257 H 0.63831 0.76680 0.76225
 H3258 H 0.59383 0.77070 0.77741
 H3259 H 0.69012 0.75034 0.83658
 H3260 H 0.60056 0.75866 0.86693
 C3261 C 0.63412 0.26150 0.70295
 C3262 C 0.61062 0.26191 0.69034
 C3263 C 0.60108 0.23983 0.67810
 C3264 C 0.61530 0.21657 0.67896
 C3265 C 0.63891 0.21582 0.69274
 C3266 C 0.64871 0.23886 0.70413
 C3267 C 0.65146 0.19188 0.69495
 N3268 N 0.64187 0.17075 0.68280
 N3269 N 0.62050 0.17188 0.66868
 C3270 C 0.60694 0.19407 0.66626
 H3271 H 0.64118 0.27932 0.71149
 H3272 H 0.59981 0.27975 0.69000
 H3273 H 0.66844 0.18954 0.70651
 H3274 H 0.58987 0.19388 0.65436
 C3275 C 0.13968 0.74328 0.19171
 C3276 C 0.11471 0.74329 0.18170
 C3277 C 0.10095 0.76644 0.17959
 C3278 C 0.11307 0.79029 0.18671
 C3279 C 0.13915 0.79042 0.19528
 C3280 C 0.15174 0.76651 0.19939
 C3281 C 0.15190 0.81460 0.19913
 N3282 N 0.13844 0.83688 0.19699
 N3283 N 0.11318 0.83658 0.19103
 C3284 C 0.09999 0.81406 0.18594
 H3285 H 0.14930 0.72491 0.19413
 H3286 H 0.10589 0.72498 0.17586
 H3287 H 0.17254 0.81601 0.20314
 H3288 H 0.07946 0.81504 0.18146
   
