data_POSCAR
  _audit_creation_date              2014-09-24
  _audit_creation_method            'ToBaCCo'
  _symmetry_space_group_name_H-M    'P1'
  _symmetry_Int_Tables_number       1
  _symmetry_cell_setting            triclinic
  loop_
  _symmetry_equiv_pos_as_xyz
 x,y,z
_cell_length_a 44.9420
_cell_length_b 44.9340
_cell_length_c 45.9054
_cell_angle_alpha 89.765400
_cell_angle_beta 90.128500
_cell_angle_gamma 90.306700
loop_
  _atom_site_label
  _atom_site_type_symbol
  _atom_site_fract_x
  _atom_site_fract_y
  _atom_site_fract_z
C1 C 0.40459 0.02415 0.29766
 H2 H 0.39041 0.04274 0.29238
 C3 C 0.42062 0.02440 0.32366
 H4 H 0.41843 0.04329 0.33808
 C5 C 0.42396 -0.02316 0.28582
 H6 H 0.42464 -0.04192 0.27115
 C7 C 0.44031 -0.02395 0.31189
 H8 H 0.45337 -0.04345 0.31689
 N9 N 0.40575 0.00023 0.27972
 C10 C 0.38382 -0.00003 0.18683
 H11 H 0.36016 0.00333 0.18821
 C12 C 0.39715 -0.00081 0.15956
 H13 H 0.38327 0.00089 0.14030
 C14 C 0.43067 -0.00456 0.21004
 H15 H 0.44367 -0.00586 0.22982
 C16 C 0.44511 -0.00508 0.18289
 H17 H 0.46904 -0.00739 0.18209
 Zn18 Zn 0.37895 -0.00082 0.24741
 N19 N 0.40043 -0.00242 0.21149
 C20 C 0.36211 0.05725 0.22864
 N21 N 0.35540 0.03449 0.24723
 C22 C 0.33268 0.03686 0.26658
 C23 C 0.31585 0.06293 0.26788
 C24 C 0.34566 0.08361 0.22901
 C25 C 0.33195 -0.03984 0.23044
 C26 C 0.31390 -0.06520 0.23147
 C27 C 0.33753 -0.07928 0.27663
 C28 C 0.35539 -0.05368 0.27450
 N29 N 0.35297 -0.03489 0.25124
 H30 H 0.38074 0.05534 0.21394
 H31 H 0.32794 0.01863 0.28135
 H32 H 0.29818 0.06461 0.28379
 H33 H 0.35212 0.10161 0.21461
 H34 H 0.32900 -0.02418 0.21288
 H35 H 0.29789 -0.06865 0.21408
 H36 H 0.34095 -0.09376 0.29515
 H37 H 0.37125 -0.04906 0.29157
 C38 C 0.42808 -0.00340 0.15722
 C39 C 0.43811 -0.00014 0.33155
 C40 C 0.31665 -0.08580 0.25451
 C41 C 0.32216 0.08673 0.24891
 C42 C 0.07502 -0.01216 0.71372
 H43 H 0.07198 -0.03128 0.72782
 C44 C 0.05950 -0.01041 0.68720
 H45 H 0.04471 -0.02843 0.68117
 C46 C 0.09986 0.03332 0.70358
 H47 H 0.11608 0.05003 0.70956
 C48 C 0.08493 0.03594 0.67707
 H49 H 0.08984 0.05478 0.66305
 N50 N 0.09515 0.00930 0.72110
 C51 C 0.11738 0.00815 0.81370
 H52 H 0.14127 0.00709 0.81106
 C53 C 0.10529 0.01000 0.84147
 H54 H 0.12009 0.01017 0.86014
 C55 C 0.06933 0.00893 0.79237
 H56 H 0.05552 0.00847 0.77305
 C57 C 0.05617 0.01100 0.82003
 H58 H 0.03218 0.01156 0.82170
 Zn59 Zn 0.12050 0.00453 0.75402
 N60 N 0.09947 0.00715 0.78984
 C61 C 0.13915 0.06228 0.76638
 N62 N 0.14884 0.03629 0.75471
 C63 C 0.17692 0.03390 0.74394
 C64 C 0.19618 0.05853 0.74415
 C65 C 0.15781 0.08716 0.76758
 C66 C 0.13612 -0.05263 0.77448
 C67 C 0.15010 -0.08021 0.77451
 C68 C 0.16969 -0.06934 0.72674
 C69 C 0.15543 -0.04158 0.72773
 N70 N 0.13951 -0.03350 0.75167
 H71 H 0.11662 0.06381 0.77445
 H72 H 0.18430 0.01315 0.73472
 H73 H 0.21820 0.05660 0.73484
 H74 H 0.14922 0.10776 0.77625
 H75 H 0.12263 -0.04662 0.79290
 H76 H 0.14749 -0.09472 0.79326
 H77 H 0.18290 -0.07496 0.70790
 H78 H 0.15726 -0.02640 0.70947
 C79 C 0.07438 0.01134 0.84504
 C80 C 0.06488 0.01371 0.66823
 C81 C 0.16732 -0.08890 0.75063
 C82 C 0.18673 0.08551 0.75625
 C83 C 0.57710 0.48451 0.21441
 H84 H 0.57601 0.46459 0.22770
 C85 C 0.56083 0.48614 0.18834
 H86 H 0.54748 0.46723 0.18178
 C87 C 0.59770 0.53239 0.20597
 H88 H 0.61241 0.55022 0.21260
 C89 C 0.58196 0.53494 0.17989
 H90 H 0.58484 0.55480 0.16670
 N91 N 0.59553 0.50723 0.22236
 C92 C 0.61844 0.50403 0.31468
 H93 H 0.64234 0.50287 0.31216
 C94 C 0.60616 0.50465 0.34242
 H95 H 0.62083 0.50381 0.36117
 C96 C 0.57055 0.50627 0.29311
 H97 H 0.55687 0.50679 0.27371
 C98 C 0.55720 0.50717 0.32076
 H99 H 0.53321 0.50791 0.32235
 Zn100 Zn 0.62165 0.50295 0.25463
 N101 N 0.60070 0.50439 0.29067
 C102 C 0.64365 0.55877 0.27297
 N103 N 0.64943 0.53562 0.25477
 C104 C 0.67276 0.53697 0.23594
 C105 C 0.69118 0.56221 0.23497
 C106 C 0.66162 0.58423 0.27290
 C107 C 0.63835 0.44556 0.27406
 C108 C 0.65214 0.41790 0.27332
 C109 C 0.67049 0.42936 0.22524
 C110 C 0.65649 0.45723 0.22704
 N111 N 0.64127 0.46509 0.25151
 H112 H 0.62436 0.55808 0.28694
 H113 H 0.67674 0.51883 0.22114
 H114 H 0.70924 0.56315 0.21940
 H115 H 0.65567 0.60256 0.28689
 H116 H 0.62517 0.45113 0.29281
 H117 H 0.64985 0.40309 0.29188
 H118 H 0.68302 0.42386 0.20593
 H119 H 0.65763 0.47244 0.20878
 C120 C 0.57524 0.50614 0.34586
 C121 C 0.56368 0.51149 0.17043
 C122 C 0.66860 0.40944 0.24887
 C123 C 0.68577 0.58627 0.25362
 C124 C 0.90163 0.52577 0.80244
 H125 H 0.88564 0.54287 0.79746
 C126 C 0.91591 0.52609 0.82939
 H127 H 0.91048 0.54363 0.84460
 C128 C 0.92749 0.48225 0.78899
 H129 H 0.93150 0.46488 0.77325
 C130 C 0.94251 0.48175 0.81587
 H131 H 0.95789 0.46386 0.82023
 N132 N 0.90669 0.50347 0.78321
 C133 C 0.88724 0.49567 0.68976
 H134 H 0.86334 0.49429 0.69100
 C135 C 0.90093 0.49407 0.66268
 H136 H 0.88720 0.49103 0.64348
 C137 C 0.93386 0.50194 0.71308
 H138 H 0.94656 0.50517 0.73285
 C139 C 0.94861 0.50074 0.68609
 H140 H 0.97261 0.50256 0.68548
 Zn141 Zn 0.88121 0.50128 0.74971
 N142 N 0.90363 0.49928 0.71439
 C143 C 0.86192 0.55766 0.72805
 N144 N 0.85645 0.53581 0.74801
 C145 C 0.83386 0.53839 0.76750
 C146 C 0.81637 0.56404 0.76800
 C147 C 0.84477 0.58362 0.72761
 C148 C 0.83112 0.46553 0.73580
 C149 C 0.81289 0.44022 0.73592
 C150 C 0.84473 0.41842 0.77248
 C151 C 0.86250 0.44410 0.77150
 N152 N 0.85591 0.46681 0.75284
 H153 H 0.88014 0.55539 0.71290
 H154 H 0.82991 0.52077 0.78317
 H155 H 0.79902 0.56599 0.78421
 H156 H 0.85038 0.60104 0.71223
 H157 H 0.82542 0.48416 0.72196
 H158 H 0.79372 0.43939 0.72159
 H159 H 0.85129 0.40030 0.78664
 H160 H 0.88183 0.44542 0.78536
 C161 C 0.93193 0.49663 0.66043
 C162 C 0.93605 0.50349 0.83693
 C163 C 0.81969 0.41611 0.75421
 C164 C 0.82173 0.58716 0.74799
 C165 C 0.19162 0.37713 0.98078
 H166 H 0.19416 0.35620 0.96977
 C167 C 0.16400 0.39134 0.97963
 H168 H 0.14593 0.38074 0.96797
 C169 C 0.21147 0.41532 1.01047
 H170 H 0.22989 0.42443 1.02280
 C171 C 0.18419 0.43016 1.01005
 H172 H 0.18193 0.45069 1.02212
 N173 N 0.21463 0.38892 0.99643
 C174 C 0.30560 0.38541 1.02630
 H175 H 0.30269 0.36595 1.03993
 C176 C 0.33201 0.40198 1.02835
 H177 H 0.34895 0.39480 1.04355
 C178 C 0.28775 0.41685 0.98870
 H179 H 0.27067 0.42217 0.97290
 C180 C 0.31383 0.43396 0.98996
 H181 H 0.31651 0.45253 0.97506
 Zn182 Zn 0.25071 0.36680 1.00177
 N183 N 0.28427 0.39279 1.00643
 C184 C 0.27873 0.34944 0.95000
 N185 N 0.25683 0.34178 0.96900
 C186 C 0.23819 0.31848 0.96339
 C187 C 0.23963 0.30349 0.93674
 C188 C 0.28111 0.33501 0.92333
 C189 C 0.23805 0.35998 1.05993
 C190 C 0.23624 0.34655 1.08715
 C191 C 0.25395 0.30076 1.06608
 C192 C 0.25512 0.31514 1.03891
 N193 N 0.24726 0.34429 1.03646
 H194 H 0.29367 0.36762 0.95487
 H195 H 0.22130 0.31235 0.97909
 H196 H 0.22360 0.28607 0.93234
 H197 H 0.29801 0.34236 0.90808
 H198 H 0.23251 0.38321 1.05762
 H199 H 0.22893 0.35965 1.10554
 H200 H 0.26025 0.27762 1.06767
 H201 H 0.26289 0.30323 1.02000
 C202 C 0.33658 0.42646 1.00971
 C203 C 0.15987 0.41806 0.99481
 C204 C 0.24451 0.31674 1.09065
 C205 C 0.26086 0.31239 0.91594
 C206 C 0.80426 0.11315 0.97510
 H207 H 0.80066 0.13075 0.95949
 C208 C 0.83117 0.09746 0.97438
 H209 H 0.84763 0.10391 0.95840
 C210 C 0.78719 0.08382 1.01454
 H211 H 0.76975 0.07771 1.02955
 C212 C 0.81380 0.06792 1.01492
 H213 H 0.81652 0.05029 1.03088
 N214 N 0.78318 0.10678 0.99557
 C215 C 0.69080 0.11191 1.01924
 H216 H 0.69263 0.13126 1.03304
 C217 C 0.66455 0.09503 1.01958
 H218 H 0.64659 0.10187 1.03364
 C219 C 0.71125 0.08116 0.98270
 H220 H 0.72937 0.07618 0.96807
 C221 C 0.68528 0.06381 0.98217
 H222 H 0.68364 0.04543 0.96705
 Zn223 Zn 0.74764 0.13039 0.99920
 N224 N 0.71347 0.10488 1.00089
 C225 C 0.72031 0.15195 0.94834
 N226 N 0.74393 0.15641 0.96637
 C227 C 0.76502 0.17735 0.96000
 C228 C 0.76386 0.19325 0.93364
 C229 C 0.71820 0.16734 0.92204
 C230 C 0.75032 0.13550 1.05936
 C231 C 0.75054 0.14874 1.08664
 C232 C 0.74685 0.19688 1.06344
 C233 C 0.74701 0.18255 1.03625
 N234 N 0.74894 0.15231 1.03475
 H235 H 0.70347 0.13566 0.95379
 H236 H 0.78349 0.18078 0.97479
 H237 H 0.78167 0.20863 0.92847
 H238 H 0.69968 0.16254 0.90762
 H239 H 0.75052 0.11160 1.05799
 H240 H 0.75180 0.13470 1.10585
 H241 H 0.74574 0.22090 1.06428
 H242 H 0.74537 0.19559 1.01649
 C243 C 0.66144 0.07067 1.00069
 C244 C 0.83658 0.07483 0.99501
 C245 C 0.74874 0.17972 1.08906
 C246 C 0.74047 0.18771 0.91395
 C247 C 0.31068 0.61874 0.48244
 H248 H 0.30817 0.63824 0.46895
 C249 C 0.33793 0.60365 0.48224
 H250 H 0.35583 0.61228 0.46891
 C251 C 0.29093 0.58458 0.51668
 H252 H 0.27252 0.57689 0.52986
 C253 C 0.31779 0.56898 0.51729
 H254 H 0.31981 0.54967 0.53135
 N255 N 0.28797 0.60951 0.50002
 C256 C 0.19565 0.61213 0.52431
 H257 H 0.19755 0.63113 0.53856
 C258 C 0.16938 0.59521 0.52442
 H259 H 0.15154 0.60169 0.53878
 C260 C 0.21582 0.58232 0.48690
 H261 H 0.23377 0.57779 0.47193
 C262 C 0.18985 0.56496 0.48614
 H263 H 0.18811 0.54698 0.47057
 Zn264 Zn 0.25172 0.63216 0.50330
 N265 N 0.21811 0.60572 0.50550
 C266 C 0.22424 0.65124 0.45145
 N267 N 0.24710 0.65752 0.46991
 C268 C 0.26692 0.67968 0.46353
 C269 C 0.26546 0.69483 0.43674
 C270 C 0.22185 0.66581 0.42473
 C271 C 0.25758 0.63806 0.56309
 C272 C 0.25752 0.65132 0.59040
 C273 C 0.24689 0.69856 0.56756
 C274 C 0.24742 0.68428 0.54033
 N275 N 0.25273 0.65447 0.53865
 H276 H 0.20823 0.63414 0.45688
 H277 H 0.28463 0.68480 0.47873
 H278 H 0.28230 0.71130 0.43169
 H279 H 0.20398 0.65956 0.41005
 H280 H 0.26104 0.61441 0.56151
 H281 H 0.26149 0.63758 0.60946
 H282 H 0.24284 0.72224 0.56848
 H283 H 0.24319 0.69692 0.52068
 C284 C 0.16605 0.57140 0.50487
 C285 C 0.34191 0.57860 0.50023
 C286 C 0.25199 0.68185 0.59308
 C287 C 0.24299 0.68734 0.41661
 C288 C 0.69520 0.87609 0.47803
 H289 H 0.69787 0.85494 0.46747
 C290 C 0.66742 0.88999 0.47672
 H291 H 0.64938 0.87896 0.46540
 C292 C 0.71483 0.91513 0.50677
 H293 H 0.73322 0.92472 0.51878
 C294 C 0.68738 0.92969 0.50619
 H295 H 0.68497 0.95046 0.51782
 N296 N 0.71820 0.88848 0.49325
 C297 C 0.80926 0.88682 0.52298
 H298 H 0.80652 0.86762 0.53699
 C299 C 0.83547 0.90373 0.52480
 H300 H 0.85245 0.89704 0.54017
 C301 C 0.79126 0.91721 0.48464
 H302 H 0.77420 0.92200 0.46865
 C303 C 0.81720 0.93459 0.48560
 H304 H 0.81980 0.95282 0.47028
 Zn305 Zn 0.75467 0.86689 0.49864
 N306 N 0.78794 0.89349 0.50286
 C307 C 0.78243 0.84977 0.44656
 N308 N 0.76093 0.84173 0.46586
 C309 C 0.74250 0.81824 0.46033
 C310 C 0.74361 0.80357 0.43347
 C311 C 0.78446 0.83568 0.41967
 C312 C 0.74330 0.86114 0.55713
 C313 C 0.74168 0.84828 0.58464
 C314 C 0.75766 0.80162 0.56410
 C315 C 0.75874 0.81548 0.53662
 N316 N 0.75164 0.84479 0.53377
 H317 H 0.79725 0.86808 0.45132
 H318 H 0.72592 0.81177 0.47622
 H319 H 0.72766 0.78605 0.42916
 H320 H 0.80098 0.84340 0.40419
 H321 H 0.73831 0.88447 0.55447
 H322 H 0.73506 0.86193 0.60289
 H323 H 0.76334 0.77834 0.56596
 H324 H 0.76579 0.80299 0.51780
 C325 C 0.83992 0.92780 0.50563
 C326 C 0.66310 0.91701 0.49132
 C327 C 0.74913 0.81829 0.58857
 C328 C 0.76430 0.81296 0.41235
 C329 C 0.01858 0.28482 0.41846
 H330 H 0.03615 0.26849 0.41964
 C331 C 0.01968 0.30996 0.43603
 H332 H 0.03825 0.31315 0.45079
 C333 C -0.02683 0.30081 0.39724
 H334 H -0.04513 0.29688 0.38246
 C335 C -0.02668 0.32618 0.41442
 H336 H -0.04509 0.34152 0.41275
 N337 N -0.00377 0.28146 0.39874
 C338 C 0.02254 0.19550 0.39458
 H339 H 0.04070 0.19989 0.37983
 C340 C 0.02252 0.16949 0.41104
 H341 H 0.04122 0.15474 0.40860
 C342 C -0.02227 0.21106 0.41680
 H343 H -0.03962 0.22753 0.41874
 C344 C -0.02311 0.18543 0.43393
 H345 H -0.04136 0.18223 0.44903
 Zn346 Zn -0.00167 0.24908 0.37365
 N347 N -0.00017 0.21507 0.39702
 C348 C 0.03679 0.23045 0.33017
 N349 N 0.03211 0.25218 0.35011
 C350 C 0.05116 0.27557 0.35300
 C351 C 0.07742 0.27648 0.33705
 C352 C 0.06279 0.23046 0.31375
 C353 C -0.05389 0.22413 0.35036
 C354 C -0.07975 0.22419 0.33372
 C355 C -0.06487 0.27172 0.31335
 C356 C -0.03921 0.27070 0.33038
 N357 N -0.03486 0.24768 0.34917
 H358 H 0.02074 0.21259 0.32780
 H359 H 0.04627 0.29342 0.36785
 H360 H 0.09237 0.29521 0.33981
 H361 H 0.06687 0.21245 0.29869
 H362 H -0.04928 0.20541 0.36445
 H363 H -0.09472 0.20530 0.33510
 H364 H -0.06874 0.29070 0.29924
 H365 H -0.02319 0.28873 0.32942
 C366 C -0.00112 0.16368 0.43044
 C367 C -0.00253 0.33148 0.43321
 C368 C -0.08592 0.24878 0.31576
 C369 C 0.08388 0.25312 0.31791
 C370 C 0.00880 0.70463 0.07261
 H371 H 0.02641 0.71988 0.06643
 C372 C 0.00647 0.67710 0.05910
 H373 H 0.02163 0.67221 0.04155
 C374 C -0.03189 0.69279 0.10345
 H375 H -0.04635 0.69867 0.12124
 C376 C -0.03481 0.66488 0.09075
 H377 H -0.05171 0.64961 0.09868
 N378 N -0.00993 0.71172 0.09465
 C379 C -0.00689 0.80676 0.10704
 H380 H -0.00851 0.80660 0.13050
 C381 C -0.00906 0.83358 0.09213
 H382 H -0.01198 0.85379 0.10451
 C383 C -0.00461 0.78019 0.06264
 H384 H -0.00383 0.75931 0.05118
 C385 C -0.00656 0.80672 0.04674
 H386 H -0.00655 0.80611 0.02315
 Zn387 Zn -0.00295 0.74644 0.11607
 N388 N -0.00404 0.78079 0.09230
 C389 C 0.04355 0.76662 0.15185
 N390 N 0.03393 0.74336 0.13546
 C391 C 0.05033 0.71811 0.13300
 C392 C 0.07787 0.71587 0.14683
 C393 C 0.07085 0.76528 0.16613
 C394 C -0.05969 0.75909 0.13130
 C395 C -0.08465 0.76184 0.14865
 C396 C -0.05536 0.74566 0.19007
 C397 C -0.03069 0.74363 0.17175
 N398 N -0.03351 0.75025 0.14300
 H399 H 0.03013 0.78628 0.15392
 H400 H 0.04212 0.69953 0.12048
 H401 H 0.09080 0.69573 0.14456
 H402 H 0.07835 0.78446 0.17834
 H403 H -0.06122 0.76349 0.10816
 H404 H -0.10502 0.76778 0.13766
 H405 H -0.05286 0.73992 0.21290
 H406 H -0.00953 0.73622 0.18030
 C407 C -0.00813 0.83383 0.06157
 C408 C -0.01488 0.65639 0.06900
 C409 C -0.08290 0.75512 0.17872
 C410 C 0.08826 0.73953 0.16380
 C411 C 0.50925 0.20268 0.57007
 H412 H 0.52644 0.21850 0.56414
 C413 C 0.50747 0.17546 0.55582
 H414 H 0.52262 0.17142 0.53805
 C415 C 0.46939 0.18886 0.60115
 H416 H 0.45519 0.19371 0.61942
 C417 C 0.46697 0.16131 0.58766
 H418 H 0.45060 0.14539 0.59544
 N419 N 0.49063 0.20867 0.59253
 C420 C 0.49119 0.30333 0.60881
 H421 H 0.48911 0.30199 0.63222
 C422 C 0.48956 0.33089 0.59516
 H423 H 0.48648 0.35054 0.60835
 C424 C 0.49501 0.27899 0.56329
 H425 H 0.49650 0.25872 0.55090
 C426 C 0.49342 0.30627 0.54864
 H427 H 0.49422 0.30684 0.52506
 Zn428 Zn 0.49721 0.24281 0.61509
 N429 N 0.49475 0.27815 0.59293
 C430 C 0.54506 0.26371 0.64849
 N431 N 0.53478 0.24004 0.63309
 C432 C 0.55109 0.21473 0.63055
 C433 C 0.57909 0.21274 0.64353
 C434 C 0.57282 0.26267 0.66183
 C435 C 0.44006 0.25102 0.63245
 C436 C 0.41591 0.25271 0.65104
 C437 C 0.44867 0.24195 0.69164
 C438 C 0.47239 0.24042 0.67209
 N439 N 0.46750 0.24491 0.64317
 H440 H 0.53182 0.28350 0.65047
 H441 H 0.54237 0.19589 0.61872
 H442 H 0.59187 0.19250 0.64139
 H443 H 0.58079 0.28213 0.67332
 H444 H 0.43699 0.25408 0.60925
 H445 H 0.39412 0.25645 0.64171
 H446 H 0.45251 0.23812 0.71464
 H447 H 0.49451 0.23534 0.67990
 C448 C 0.49149 0.33263 0.56472
 C449 C 0.48674 0.15396 0.56536
 C450 C 0.42014 0.24852 0.68112
 C451 C 0.59002 0.23677 0.65968
 C452 C 0.52071 0.78385 0.91678
 H453 H 0.53954 0.76897 0.91742
 C454 C 0.52027 0.80879 0.93465
 H455 H 0.53884 0.81313 0.94915
 C456 C 0.47408 0.79698 0.89625
 H457 H 0.45612 0.79234 0.88126
 C458 C 0.47275 0.82217 0.91366
 H459 H 0.45350 0.83647 0.91213
 N460 N 0.49836 0.77912 0.89728
 C461 C 0.51425 0.68746 0.87205
 H462 H 0.51612 0.68916 0.84872
 C463 C 0.51727 0.65974 0.88534
 H464 H 0.52165 0.64032 0.87215
 C465 C 0.50488 0.71012 0.91764
 H466 H 0.49938 0.72960 0.93014
 C467 C 0.50772 0.68289 0.93181
 H468 H 0.50535 0.68205 0.95525
 Zn469 Zn 0.50220 0.74873 0.86958
 N470 N 0.50811 0.71194 0.88827
 C471 C 0.53748 0.74045 0.82054
 N472 N 0.53426 0.75728 0.84484
 C473 C 0.55393 0.77936 0.85143
 C474 C 0.57973 0.78292 0.83515
 C475 C 0.56296 0.74323 0.80362
 C476 C 0.44720 0.72528 0.85292
 C477 C 0.42012 0.72528 0.83821
 C478 C 0.43644 0.76890 0.81140
 C479 C 0.46321 0.76805 0.82663
 N480 N 0.46774 0.74677 0.84723
 H481 H 0.52053 0.72446 0.81459
 H482 H 0.55021 0.79383 0.86966
 H483 H 0.59549 0.80012 0.84117
 H484 H 0.56602 0.72867 0.78513
 H485 H 0.45150 0.70860 0.86941
 H486 H 0.40407 0.70793 0.84300
 H487 H 0.43270 0.78638 0.79551
 H488 H 0.48010 0.78483 0.82272
 C489 C 0.51334 0.65720 0.91544
 C490 C 0.49672 0.82889 0.93220
 C491 C 0.41427 0.74785 0.81774
 C492 C 0.58502 0.76365 0.81180
 C493 C -0.26259 0.68145 0.96104
 H494 H -0.28063 0.68599 0.97590
 C495 C -0.26036 0.69749 0.93482
 H496 H -0.27718 0.71379 0.92964
 C497 C -0.21944 0.65400 0.94950
 H498 H -0.20346 0.63705 0.95499
 C499 C -0.21631 0.66945 0.92332
 H500 H -0.19806 0.66387 0.90899
 N501 N -0.24286 0.65941 0.96737
 C502 C -0.25725 0.64081 1.05958
 H503 H -0.26284 0.61753 1.05785
 C504 C -0.25797 0.65433 1.08670
 H505 H -0.26452 0.64099 1.10537
 C506 C -0.24134 0.68578 1.03740
 H507 H -0.23459 0.69777 1.01802
 C508 C -0.24126 0.70028 1.06452
 H509 H -0.23474 0.72344 1.06544
 Zn510 Zn -0.24773 0.63396 1.00054
 N511 N -0.24916 0.65648 1.03553
 C512 C -0.19194 0.61406 1.02213
 N513 N -0.21430 0.60797 1.00296
 C514 C -0.21217 0.58492 0.98398
 C515 C -0.18646 0.56754 0.98322
 C516 C -0.16584 0.59718 1.02215
 C517 C -0.28513 0.58475 1.01300
 C518 C -0.31159 0.56827 1.01423
 C519 C -0.33427 0.60388 0.98175
 C520 C -0.30739 0.61990 0.98138
 N521 N -0.28359 0.61051 0.99735
 H522 H -0.19385 0.63274 1.03676
 H523 H -0.23009 0.58066 0.96876
 H524 H -0.18491 0.54978 0.96741
 H525 H -0.14808 0.60342 1.03685
 H526 H -0.26595 0.57728 1.02521
 H527 H -0.31253 0.54836 1.02758
 H528 H -0.35312 0.61257 0.96981
 H529 H -0.30600 0.64022 0.96890
 C530 C -0.24966 0.68435 1.08974
 C531 C -0.23725 0.69098 0.91525
 C532 C -0.33673 0.57787 0.99874
 C533 C -0.16270 0.57368 1.00223
 C534 C -0.26840 0.31895 0.54040
 H535 H -0.28614 0.31481 0.52493
 C536 C -0.26814 0.30448 0.56608
 H537 H -0.28579 0.28874 0.57068
 C538 C -0.22344 0.34502 0.55118
 H539 H -0.20654 0.36132 0.54600
 C540 C -0.22216 0.32965 0.57956
 H541 H -0.20403 0.33523 0.59420
 N542 N -0.24583 0.34079 0.53363
 C543 C -0.25849 0.36101 0.44070
 H544 H -0.26018 0.38485 0.44198
 C545 C -0.26086 0.34739 0.41364
 H546 H -0.26485 0.36109 0.39457
 C547 C -0.25033 0.31452 0.46366
 H548 H -0.24599 0.30184 0.48327
 C549 C -0.25217 0.29986 0.43667
 H550 H -0.24974 0.27594 0.43591
 Zn551 Zn -0.24981 0.36676 0.50062
 N552 N -0.25355 0.34465 0.46517
 C553 C -0.19443 0.38653 0.47690
 N554 N -0.21540 0.39181 0.49760
 C555 C -0.21193 0.41437 0.51699
 C556 C -0.18625 0.43207 0.51657
 C557 C -0.16843 0.40384 0.47559
 C558 C -0.28711 0.41589 0.48825
 C559 C -0.31240 0.43374 0.48990
 C560 C -0.33033 0.40308 0.52942
 C561 C -0.30478 0.38555 0.52670
 N562 N -0.28409 0.39165 0.50582
 H563 H -0.19742 0.36832 0.46184
 H564 H -0.22885 0.41814 0.53327
 H565 H -0.18359 0.44941 0.53271
 H566 H -0.15170 0.39836 0.45963
 H567 H -0.26981 0.42157 0.47289
 H568 H -0.31441 0.45244 0.47505
 H569 H -0.34650 0.39676 0.54571
 H570 H -0.30187 0.36685 0.54118
 C571 C -0.25755 0.31652 0.41119
 C572 C -0.24412 0.31086 0.58768
 C573 C -0.33480 0.42736 0.51038
 C574 C -0.16395 0.42686 0.49584
 C575 C 0.27323 -0.15083 0.05581
 H576 H 0.29137 -0.13648 0.04927
 C577 C 0.27442 -0.16469 0.08159
 H578 H 0.29355 -0.16108 0.09558
 C579 C 0.22686 -0.17363 0.04366
 H580 H 0.20796 -0.17621 0.02923
 C581 C 0.22735 -0.18975 0.07192
 H582 H 0.20853 -0.20379 0.07718
 N583 N 0.24790 -0.15472 0.03702
 C584 C 0.21395 -0.15150 -0.04726
 H585 H 0.19682 -0.13607 -0.04102
 C586 C 0.21124 -0.16672 -0.07358
 H587 H 0.19214 -0.16246 -0.08739
 C588 C 0.25966 -0.17542 -0.03729
 H589 H 0.27877 -0.17828 -0.02320
 C590 C 0.25784 -0.19120 -0.06355
 H591 H 0.27587 -0.20581 -0.06941
 Zn592 Zn 0.24399 -0.13029 0.00310
 N593 N 0.23843 -0.15520 -0.03018
 C594 C 0.29737 -0.10941 -0.02528
 N595 N 0.27894 -0.10612 -0.00197
 C596 C 0.28498 -0.08553 0.01886
 C597 C 0.31112 -0.06858 0.01766
 C598 C 0.32384 -0.09285 -0.02736
 C599 C 0.19247 -0.10600 0.03133
 C600 C 0.16725 -0.08789 0.03339
 C601 C 0.18074 -0.06542 -0.01258
 C602 C 0.20565 -0.08385 -0.01367
 N603 N 0.21067 -0.10426 0.00767
 H604 H 0.29199 -0.12525 -0.04211
 H605 H 0.26983 -0.08289 0.03694
 H606 H 0.31587 -0.05301 0.03504
 H607 H 0.33848 -0.09686 -0.04555
 H608 H 0.19715 -0.12170 0.04857
 H609 H 0.15309 -0.09061 0.05220
 H610 H 0.17695 -0.04999 -0.03040
 H611 H 0.22067 -0.08245 -0.03202
 C612 C 0.23363 -0.18634 -0.08243
 C613 C 0.24984 -0.18478 0.09090
 C614 C 0.16065 -0.06753 0.01085
 C615 C 0.33126 -0.07238 -0.00538
 C616 C 0.23766 1.17810 0.46183
 H617 H 0.21853 1.18020 0.47593
 C618 C 0.23894 1.19419 0.43557
 H619 H 0.22052 1.20838 0.42964
 C620 C 0.28386 1.15534 0.45157
 H621 H 0.30113 1.13982 0.45740
 C622 C 0.28604 1.17087 0.42537
 H623 H 0.30505 1.16701 0.41143
 N624 N 0.25976 1.15879 0.46905
 C625 C 0.26313 1.13805 0.56159
 H626 H 0.26404 1.11411 0.55942
 C627 C 0.26479 1.15085 0.58905
 H628 H 0.26690 1.13648 0.60794
 C629 C 0.25880 1.18555 0.53942
 H630 H 0.25634 1.19886 0.51990
 C631 C 0.26047 1.19944 0.56676
 H632 H 0.25882 1.22340 0.56802
 Zn633 Zn 0.25672 1.13347 0.50219
 N634 N 0.25964 1.15530 0.53748
 C635 C 0.31583 1.11738 0.51248
 N636 N 0.28951 1.10659 0.50212
 C637 C 0.28745 1.07854 0.49120
 C638 C 0.31270 1.06047 0.48985
 C639 C 0.34145 1.09994 0.51194
 C640 C 0.20134 1.11423 0.52482
 C641 C 0.17430 1.09891 0.52563
 C642 C 0.18344 1.08127 0.47693
 C643 C 0.21068 1.09681 0.47716
 N644 N 0.21934 1.11255 0.50110
 H645 H 0.31707 1.13990 0.52063
 H646 H 0.26646 1.07034 0.48295
 H647 H 0.31090 1.03844 0.48048
 H648 H 0.36223 1.10946 0.51949
 H649 H 0.20784 1.12739 0.54338
 H650 H 0.16066 1.10030 0.54501
 H651 H 0.17737 1.06839 0.45796
 H652 H 0.22499 1.09619 0.45826
 C653 C 0.26319 1.18183 0.59205
 C654 C 0.26327 1.19020 0.41675
 C655 C 0.16496 1.08207 0.50162
 C656 C 0.34011 1.07108 0.50036
 C657 C 0.15406 0.45700 0.27290
 H658 H 0.15669 0.47295 0.29032
 C659 C 0.16888 0.42949 0.27447
 H660 H 0.18340 0.42489 0.29276
 C661 C 0.13179 0.44335 0.22816
 H662 H 0.11657 0.44795 0.21055
 C663 C 0.14636 0.41606 0.22864
 H664 H 0.14270 0.40060 0.21092
 N665 N 0.13634 0.46370 0.24962
 C666 C 0.12728 0.56014 0.23511
 H667 H 0.10473 0.55911 0.22692
 C668 C 0.14239 0.58738 0.23522
 H669 H 0.13106 0.60698 0.22723
 C670 C 0.16830 0.53600 0.25719
 H671 H 0.17822 0.51605 0.26599
 C672 C 0.18411 0.56299 0.25810
 H673 H 0.20615 0.56353 0.26767
 Zn674 Zn 0.11487 0.50073 0.24688
 N675 N 0.14020 0.53513 0.24614
 C676 C 0.09336 0.52746 0.29776
 N677 N 0.08959 0.50346 0.28014
 C678 C 0.07170 0.48033 0.28831
 C679 C 0.05782 0.48029 0.31574
 C680 C 0.08007 0.52831 0.32513
 C681 C 0.11262 0.50113 0.18727
 C682 C 0.10144 0.50227 0.15904
 C683 C 0.05201 0.50794 0.17877
 C684 C 0.06425 0.50568 0.20696
 N685 N 0.09410 0.50209 0.21058
 H686 H 0.10788 0.54551 0.29131
 H687 H 0.06948 0.46120 0.27423
 H688 H 0.04494 0.46104 0.32237
 H689 H 0.08437 0.54721 0.33913
 H690 H 0.13634 0.49903 0.19075
 H691 H 0.11700 0.50075 0.14109
 H692 H 0.02819 0.51039 0.17668
 H693 H 0.04998 0.50702 0.22585
 C694 C 0.17115 0.58914 0.24706
 C695 C 0.16526 0.40873 0.25185
 C696 C 0.07078 0.50588 0.15414
 C697 C 0.06259 0.50434 0.33480
 C698 C -0.13638 1.05536 0.27689
 H699 H -0.12409 1.04904 0.29616
 C700 C -0.15278 1.08185 0.27698
 H701 H -0.15221 1.09556 0.29626
 C702 C -0.15178 1.04504 0.22867
 H703 H -0.15151 1.03069 0.20988
 C704 C -0.16840 1.07125 0.22782
 H705 H -0.18060 1.07674 0.20816
 N706 N -0.13579 1.03769 0.25280
 C707 C -0.12602 0.94238 0.23824
 H708 H -0.10303 0.94197 0.23135
 C709 C -0.14346 0.91662 0.23589
 H710 H -0.13354 0.89650 0.22752
 C711 C -0.16625 0.96873 0.25892
 H712 H -0.17492 0.98907 0.26803
 C713 C -0.18427 0.94323 0.25760
 H714 H -0.20678 0.94406 0.26591
 Zn715 Zn -0.11228 1.00203 0.25223
 N716 N -0.13761 0.96783 0.24945
 C717 C -0.09399 0.97546 0.30479
 N718 N -0.08933 0.99936 0.28712
 C719 C -0.07003 1.02146 0.29488
 C720 C -0.05510 1.02034 0.32171
 C721 C -0.07967 0.97349 0.33168
 C722 C -0.10056 0.99388 0.19346
 C723 C -0.08402 0.98969 0.16821
 C724 C -0.03957 1.00255 0.19503
 C725 C -0.05704 1.00575 0.22011
 N726 N -0.08704 1.00149 0.21886
 H727 H -0.10945 0.95817 0.29844
 H728 H -0.06700 1.04050 0.28068
 H729 H -0.04082 1.03872 0.32787
 H730 H -0.08435 0.95461 0.34572
 H731 H -0.12433 0.99015 0.19295
 H732 H -0.09626 0.98432 0.14866
 H733 H -0.01578 1.00630 0.19648
 H734 H -0.04646 1.01134 0.24050
 C735 C -0.17299 0.91681 0.24579
 C736 C -0.16900 1.09025 0.25205
 C737 C -0.05282 0.99376 0.16861
 C738 C -0.06021 0.99619 0.34065
 C739 C 0.34353 0.54681 -0.22085
 H740 H 0.33984 0.53086 -0.20356
 C741 C 0.32879 0.57434 -0.22017
 H742 H 0.31320 0.57883 -0.20283
 C743 C 0.36864 0.56085 -0.26403
 H744 H 0.38501 0.55647 -0.28055
 C745 C 0.35418 0.58818 -0.26444
 H746 H 0.35900 0.60384 -0.28183
 N747 N 0.36256 0.54024 -0.24300
 C748 C 0.36460 0.44649 -0.26762
 H749 H 0.38336 0.44938 -0.28201
 C750 C 0.34874 0.42130 -0.26926
 H751 H 0.35527 0.40498 -0.28520
 C752 C 0.33629 0.46466 -0.22773
 H753 H 0.33200 0.48098 -0.21112
 C754 C 0.31845 0.43685 -0.22838
 H755 H 0.30116 0.43383 -0.21219
 Zn756 Zn 0.38375 0.50309 -0.24457
 N757 N 0.35779 0.46890 -0.24629
 C758 C 0.40630 0.47555 -0.19407
 N759 N 0.40808 0.50050 -0.21082
 C760 C 0.42414 0.52462 -0.20196
 C761 C 0.43811 0.52468 -0.17461
 C762 C 0.41979 0.47469 -0.16670
 C763 C 0.38894 0.50401 -0.30384
 C764 C 0.40151 0.50256 -0.33134
 C765 C 0.44989 0.49681 -0.30897
 C766 C 0.43623 0.49865 -0.28150
 N767 N 0.40623 0.50231 -0.27957
 H768 H 0.39351 0.45659 -0.20144
 H769 H 0.42487 0.54434 -0.21554
 H770 H 0.44950 0.54463 -0.16746
 H771 H 0.41721 0.45494 -0.15330
 H772 H 0.36511 0.50642 -0.30167
 H773 H 0.38718 0.50427 -0.35028
 H774 H 0.47378 0.49440 -0.31029
 H775 H 0.44948 0.49699 -0.26187
 C776 C 0.32416 0.41563 -0.24830
 C777 C 0.33389 0.59526 -0.24250
 C778 C 0.43225 0.49884 -0.33430
 C779 C 0.43543 0.49960 -0.15634
 C780 C 0.65642 -0.04371 -0.22576
 H781 H 0.65845 -0.02827 -0.20785
 C782 C 0.67020 -0.07028 -0.22428
 H783 H 0.68359 -0.07540 -0.20533
 C784 C 0.63466 -0.05502 -0.27171
 H785 H 0.61964 -0.05044 -0.28942
 C786 C 0.65017 -0.08375 -0.27158
 H787 H 0.64697 -0.09829 -0.29014
 N788 N 0.63832 -0.03596 -0.25066
 C789 C 0.63455 0.05766 -0.27254
 H790 H 0.61697 0.05460 -0.28828
 C791 C 0.64971 0.08486 -0.27220
 H792 H 0.64340 0.10146 -0.28810
 C793 C 0.66137 0.04066 -0.23143
 H794 H 0.66540 0.02371 -0.21517
 C795 C 0.67673 0.06788 -0.22992
 H796 H 0.69277 0.07122 -0.21256
 Zn797 Zn 0.61592 0.00071 -0.25303
 N798 N 0.64064 0.03595 -0.25257
 C799 C 0.58893 0.02762 -0.20473
 N800 N 0.58945 0.00215 -0.22061
 C801 C 0.57440 -0.02261 -0.21155
 C802 C 0.55919 -0.02269 -0.18483
 C803 C 0.57427 0.02844 -0.17800
 C804 C 0.61414 0.00140 -0.31287
 C805 C 0.60291 0.00198 -0.34106
 C806 C 0.55318 0.00386 -0.32131
 C807 C 0.56548 0.00291 -0.29313
 N808 N 0.59553 0.00146 -0.28953
 H809 H 0.60085 0.04712 -0.21221
 H810 H 0.57544 -0.04274 -0.22434
 H811 H 0.54868 -0.04303 -0.17732
 H812 H 0.57521 0.04864 -0.16522
 H813 H 0.63795 0.00063 -0.30941
 H814 H 0.61825 0.00134 -0.35923
 H815 H 0.52925 0.00427 -0.32392
 H816 H 0.55112 0.00319 -0.27425
 C817 C 0.67110 0.09054 -0.25050
 C818 C 0.66729 -0.09179 -0.24885
 C819 C 0.57217 0.00320 -0.34567
 C820 C 0.55969 0.00297 -0.16737
 C821 C 0.04015 0.26847 0.82213
 H822 H 0.02470 0.28679 0.82042
 C823 C 0.06705 0.26965 0.80724
 H824 H 0.07213 0.28873 0.79359
 C825 C 0.05316 0.22213 0.84349
 H826 H 0.04797 0.20402 0.85818
 C827 C 0.08036 0.22247 0.82912
 H828 H 0.09541 0.20400 0.83218
 N829 N 0.03392 0.24512 0.84006
 C830 C -0.06014 0.24365 0.85569
 H831 H -0.05935 0.23875 0.87874
 C832 C -0.08725 0.24293 0.84127
 H833 H -0.10719 0.23786 0.85355
 C834 C -0.03463 0.25291 0.81138
 H835 H -0.01400 0.25588 0.79973
 C836 C -0.06142 0.25229 0.79596
 H837 H -0.06138 0.25542 0.77255
 Zn838 Zn -0.00002 0.24712 0.86348
 N839 N -0.03462 0.24923 0.84082
 C840 C -0.02070 0.29169 0.90176
 N841 N 0.00351 0.28085 0.88772
 C842 C 0.03034 0.29497 0.88925
 C843 C 0.03318 0.32183 0.90406
 C844 C -0.01882 0.31840 0.91697
 C845 C -0.00974 0.18717 0.86987
 C846 C -0.01443 0.16028 0.88422
 C847 C -0.00763 0.18576 0.93014
 C848 C -0.00297 0.21223 0.91483
 N849 N -0.00385 0.21227 0.88528
 H850 H -0.04178 0.28025 0.90051
 H851 H 0.04954 0.28573 0.87856
 H852 H 0.05448 0.33323 0.90440
 H853 H -0.03878 0.32724 0.92673
 H854 H -0.01084 0.18819 0.84634
 H855 H -0.01874 0.14037 0.87164
 H856 H -0.00736 0.18631 0.95368
 H857 H 0.00104 0.23274 0.92647
 C858 C -0.08809 0.24781 0.81110
 C859 C 0.08780 0.24691 0.81139
 C860 C -0.01300 0.15926 0.91465
 C861 C 0.00837 0.33396 0.91790
 C862 C 0.46032 0.27354 0.16023
 H863 H 0.47728 0.29070 0.16080
 C864 C 0.43489 0.27611 0.17740
 H865 H 0.43225 0.29539 0.19123
 C866 C 0.44295 0.22767 0.14111
 H867 H 0.44595 0.20901 0.12671
 C868 C 0.41735 0.22924 0.15799
 H869 H 0.40156 0.21103 0.15692
 N870 N 0.46386 0.24953 0.14265
 C871 C 0.55868 0.24405 0.12884
 H872 H 0.55910 0.24445 0.10528
 C873 C 0.58513 0.24213 0.14450
 H874 H 0.60592 0.24070 0.13275
 C875 C 0.53065 0.24412 0.17258
 H876 H 0.50930 0.24444 0.18333
 C877 C 0.55662 0.24200 0.18914
 H878 H 0.55521 0.24110 0.21268
 Zn879 Zn 0.49821 0.24796 0.11956
 N880 N 0.53226 0.24560 0.14303
 C881 C 0.52051 0.30365 0.10209
 N882 N 0.49926 0.28270 0.09682
 C883 C 0.47764 0.28702 0.07646
 C884 C 0.47761 0.31283 0.05949
 C885 C 0.52078 0.33009 0.08625
 C886 C 0.49885 0.18742 0.11053
 C887 C 0.49876 0.16082 0.09516
 C888 C 0.49801 0.18904 0.05020
 C889 C 0.49824 0.21517 0.06648
 N890 N 0.49806 0.21384 0.09610
 H891 H 0.53684 0.30022 0.11904
 H892 H 0.46047 0.27035 0.07342
 H893 H 0.46045 0.31614 0.04321
 H894 H 0.53755 0.34686 0.09080
 H895 H 0.49912 0.18710 0.13410
 H896 H 0.49829 0.14007 0.10721
 H897 H 0.49783 0.19030 0.02663
 H898 H 0.49875 0.23635 0.05536
 C899 C 0.58425 0.24161 0.17508
 C900 C 0.41285 0.25400 0.17609
 C901 C 0.49845 0.16151 0.06456
 C902 C 0.49917 0.33470 0.06470
 C903 C -0.03850 0.77316 0.66387
 H904 H -0.02105 0.78959 0.66665
 C905 C -0.06366 0.77517 0.67910
 H906 H -0.06644 0.79334 0.69427
 C907 C -0.05503 0.72928 0.63936
 H908 H -0.05202 0.71209 0.62330
 C909 C -0.08303 0.73054 0.65558
 H910 H -0.09882 0.71284 0.65165
 N911 N -0.03449 0.74922 0.64365
 C912 C 0.06024 0.74740 0.63145
 H913 H 0.06088 0.74879 0.60792
 C914 C 0.08652 0.74554 0.64729
 H915 H 0.10745 0.74516 0.63569
 C916 C 0.03171 0.74457 0.67483
 H917 H 0.01024 0.74351 0.68530
 C918 C 0.05752 0.74257 0.69158
 H919 H 0.05588 0.74054 0.71505
 Zn920 Zn 0.00018 0.74900 0.62150
 N921 N 0.03366 0.74743 0.64540
 C922 C 0.01953 0.80611 0.60591
 N923 N 0.00008 0.78385 0.59941
 C924 C -0.02115 0.78705 0.57850
 C925 C -0.02249 0.81311 0.56206
 C926 C 0.01837 0.83286 0.59066
 C927 C 0.00205 0.68891 0.61239
 C928 C 0.00283 0.66234 0.59710
 C929 C 0.00390 0.69054 0.55209
 C930 C 0.00319 0.71666 0.56831
 N931 N 0.00166 0.71528 0.59787
 H932 H 0.03550 0.80340 0.62333
 H933 H -0.03696 0.76927 0.57458
 H934 H -0.03913 0.81547 0.54512
 H935 H 0.03387 0.85059 0.59595
 H936 H 0.00118 0.68864 0.63594
 H937 H 0.00188 0.64162 0.60915
 H938 H 0.00469 0.69175 0.52853
 H939 H 0.00400 0.73788 0.55725
 C940 C 0.08528 0.74363 0.67781
 C941 C -0.08774 0.75294 0.67458
 C942 C 0.00384 0.66304 0.56653
 C943 C -0.00279 0.83633 0.56847
 C944 C 0.54002 0.76552 0.32118
 H945 H 0.52414 0.78347 0.31963
 C946 C 0.56698 0.76758 0.30649
 H947 H 0.57162 0.78693 0.29305
 C948 C 0.55415 0.71932 0.34216
 H949 H 0.54936 0.70096 0.35668
 C950 C 0.58148 0.72059 0.32803
 H951 H 0.59706 0.70256 0.33104
 N952 N 0.53433 0.74183 0.33885
 C953 C 0.44027 0.73974 0.35576
 H954 H 0.44133 0.73486 0.37881
 C955 C 0.41293 0.73969 0.34169
 H956 H 0.39303 0.73507 0.35420
 C957 C 0.46531 0.74882 0.31116
 H958 H 0.48582 0.75160 0.29926
 C959 C 0.43830 0.74880 0.29610
 H960 H 0.43809 0.75211 0.27271
 Zn961 Zn 0.50070 0.74331 0.36269
 N962 N 0.46567 0.74503 0.34058
 C963 C 0.48015 0.78894 0.39986
 N964 N 0.50442 0.77713 0.38671
 C965 C 0.53163 0.79041 0.38884
 C966 C 0.53489 0.81739 0.40336
 C967 C 0.48245 0.81577 0.41480
 C968 C 0.49171 0.68330 0.36994
 C969 C 0.48848 0.65644 0.38473
 C970 C 0.49782 0.68239 0.42998
 C971 C 0.50083 0.70884 0.41427
 N972 N 0.49803 0.70862 0.38482
 H973 H 0.45875 0.77820 0.39806
 H974 H 0.55083 0.78042 0.37879
 H975 H 0.55651 0.82814 0.40416
 H976 H 0.46251 0.82540 0.42387
 H977 H 0.48921 0.68410 0.34651
 H978 H 0.48374 0.63634 0.37258
 H979 H 0.49970 0.68303 0.45346
 H980 H 0.50528 0.72950 0.42550
 C981 C 0.41176 0.74486 0.31157
 C982 C 0.58835 0.74542 0.31061
 C983 C 0.49198 0.65570 0.41501
 C984 C 0.51008 0.83046 0.41632
 Zr985 Zr 0.01978 -0.01776 1.04487
 O986 O 0.04500 -0.00220 1.08076
 O987 O 0.01536 -0.06289 1.05478
 O988 O -0.00460 -0.02112 1.08440
 O989 O 0.08014 -0.02349 0.99821
 O990 O -0.05017 -0.00252 1.07205
 O991 O 0.06390 -0.03456 1.04409
 O992 O -0.01299 -0.08135 1.01758
 O993 O -0.02379 -0.02738 1.03127
 O994 O 0.02279 -0.03669 1.00340
 O995 O -0.00291 0.02305 1.04545
 O996 O 0.04274 0.01378 1.01905
 Zr997 Zr -0.02204 0.02721 0.96220
 Zr998 Zr -0.04564 0.01357 1.02948
 Zr999 Zr 0.04316 -0.00472 0.97711
 Zr1000 Zr -0.02045 -0.04471 0.98941
 O1001 O 0.08098 0.02263 0.97013
 O1002 O -0.06272 -0.06236 1.00077
 O1003 O 0.00034 -0.01407 0.96118
 O1004 O -0.04435 -0.00481 0.98776
 O1005 O -0.02535 0.04621 1.00358
 O1006 O 0.02153 0.03612 0.97593
 C1007 C 0.00149 -0.08402 1.04173
 C1008 C 0.08388 -0.03455 1.02386
 C1009 C -0.03195 -0.01459 1.09004
 O1010 O -0.08528 -0.01190 1.03278
 O1011 O -0.08134 0.03578 1.00954
 O1012 O -0.06496 0.04664 0.96379
 C1013 C -0.08485 0.04723 0.98404
 O1014 O 0.04537 0.05925 1.05534
 Zr1015 Zr 0.01827 0.05348 1.01776
 O1016 O -0.01716 0.07278 0.95302
 O1017 O -0.05737 0.04969 1.05647
 O1018 O -0.00347 0.08472 1.04479
 O1019 O 0.05922 0.07361 1.00563
 O1020 O 0.00833 0.09100 0.99218
 C1021 C -0.00504 0.09406 0.96764
 O1022 O -0.04928 0.01296 0.92717
 O1023 O 0.05679 -0.04259 0.95342
 O1024 O 0.00060 0.02744 0.92176
 O1025 O 0.04461 0.00472 0.93229
 O1026 O 0.00118 -0.07783 0.96452
 O1027 O -0.04382 -0.05228 0.94980
 C1028 C 0.02623 0.01709 0.91448
 H1029 H 0.03428 -0.05541 1.00314
 H1030 H -0.06460 -0.00869 0.98008
 H1031 H 0.03225 0.05000 0.96279
 H1032 H -0.00365 0.03132 1.06539
 H1033 H -0.06236 -0.08399 0.99670
 H1034 H -0.09871 -0.00119 1.04621
 H1035 H -0.07781 0.04563 1.06355
 H1036 H 0.00750 0.10384 1.04317
 H1037 H -0.01005 -0.09668 0.96723
 H1038 H 0.07707 -0.03832 0.94601
 H1039 H 0.09433 0.01155 0.95694
 H1040 H 0.05833 0.09486 1.01126
 H1041 H -0.05161 -0.07294 0.94961
 H1042 H -0.05303 0.03059 0.91463
 H1043 H 0.04919 -0.01968 1.09335
 H1044 H 0.04936 0.08071 1.05830
 Zr1045 Zr 0.52637 0.48001 0.54723
 O1046 O 0.55498 0.49475 0.58099
 O1047 O 0.51901 0.43551 0.55893
 O1048 O 0.50485 0.47997 0.58831
 O1049 O 0.58346 0.46919 0.49774
 O1050 O 0.46130 0.50397 0.57887
 O1051 O 0.56901 0.46016 0.54459
 O1052 O 0.48766 0.41817 0.52360
 O1053 O 0.48144 0.47325 0.53661
 O1054 O 0.52555 0.45969 0.50632
 O1055 O 0.50693 0.52253 0.54757
 O1056 O 0.54975 0.50916 0.51912
 Zr1057 Zr 0.48270 0.52517 0.46555
 Zr1058 Zr 0.46267 0.51575 0.53470
 Zr1059 Zr 0.54643 0.48935 0.47792
 Zr1060 Zr 0.48105 0.45447 0.49510
 O1061 O 0.58555 0.51368 0.46784
 O1062 O 0.43851 0.44002 0.50940
 O1063 O 0.50220 0.48247 0.46465
 O1064 O 0.45995 0.49584 0.49367
 O1065 O 0.48335 0.54588 0.50631
 O1066 O 0.52752 0.53155 0.47645
 C1067 C 0.50313 0.41503 0.54704
 C1068 C 0.58794 0.45874 0.52352
 C1069 C 0.47952 0.49066 0.59614
 O1070 O 0.42245 0.49239 0.54254
 O1071 O 0.42692 0.53907 0.51595
 O1072 O 0.44072 0.54643 0.46867
 C1073 C 0.42228 0.54910 0.49004
 O1074 O 0.55822 0.55581 0.55311
 Zr1075 Zr 0.52817 0.55053 0.51765
 O1076 O 0.48923 0.57014 0.45492
 O1077 O 0.45461 0.55428 0.55977
 O1078 O 0.51058 0.58403 0.54500
 O1079 O 0.56944 0.56728 0.50212
 O1080 O 0.51880 0.58786 0.49149
 C1081 C 0.50361 0.59107 0.46797
 O1082 O 0.45310 0.51131 0.43224
 O1083 O 0.55588 0.44982 0.45487
 O1084 O 0.50332 0.52341 0.42407
 O1085 O 0.54602 0.49765 0.43292
 O1086 O 0.49861 0.41913 0.47006
 O1087 O 0.45475 0.44771 0.45713
 C1088 C 0.52788 0.51131 0.41582
 H1089 H 0.53571 0.44020 0.50606
 H1090 H 0.43904 0.49298 0.48740
 H1091 H 0.53825 0.54435 0.46231
 H1092 H 0.50827 0.53168 0.56711
 H1093 H 0.43707 0.41834 0.50573
 H1094 H 0.41063 0.50465 0.55612
 H1095 H 0.43464 0.55176 0.56859
 H1096 H 0.52257 0.60234 0.54192
 H1097 H 0.48606 0.40130 0.47372
 H1098 H 0.57594 0.45237 0.44627
 H1099 H 0.59733 0.50121 0.45441
 H1100 H 0.57028 0.58879 0.50676
 H1101 H 0.44551 0.42767 0.45791
 H1102 H 0.44959 0.52876 0.41939
 H1103 H 0.55879 0.47740 0.59389
 H1104 H 0.56392 0.57704 0.55487
 Zr1105 Zr 0.48013 1.01700 0.53344
 O1106 O 0.45169 1.00600 0.56866
 O1107 O 0.48878 1.06226 0.54094
 O1108 O 0.50201 1.01898 0.57428
 O1109 O 0.42238 1.02626 0.48407
 O1110 O 0.54407 0.99187 0.56704
 O1111 O 0.43813 1.03766 0.52999
 O1112 O 0.52235 1.07504 0.50574
 O1113 O 0.52517 1.02113 0.52238
 O1114 O 0.48134 1.03466 0.49127
 O1115 O 0.49754 0.97373 0.53667
 O1116 O 0.45520 0.98714 0.50754
 Zr1117 Zr 0.52093 0.96488 0.45496
 Zr1118 Zr 0.54193 0.97780 0.52349
 Zr1119 Zr 0.45880 1.00424 0.46514
 Zr1120 Zr 0.52596 1.03704 0.47957
 O1121 O 0.41911 0.98050 0.45589
 O1122 O 0.56955 1.05028 0.49194
 O1123 O 0.50319 1.00821 0.45134
 O1124 O 0.54512 0.99487 0.48110
 O1125 O 0.51981 0.94680 0.49709
 O1126 O 0.47593 0.96120 0.46623
 C1127 C 0.50625 1.08086 0.52801
 C1128 C 0.41875 1.03819 0.50927
 C1129 C 0.52662 1.00739 0.58311
 O1130 O 0.58292 1.00016 0.53019
 O1131 O 0.57690 0.95278 0.50611
 O1132 O 0.56253 0.94294 0.45941
 C1133 C 0.58123 0.94146 0.48079
 O1134 O 0.44516 0.94283 0.54457
 Zr1135 Zr 0.47490 0.94482 0.50865
 O1136 O 0.51252 0.91958 0.44747
 O1137 O 0.54863 0.94024 0.55061
 O1138 O 0.49141 0.91219 0.53794
 O1139 O 0.43264 0.92933 0.49446
 O1140 O 0.48197 0.90564 0.48480
 C1141 C 0.49708 0.90023 0.46173
 O1142 O 0.55067 0.97482 0.42049
 O1143 O 0.45001 1.04308 0.44037
 O1144 O 0.50014 0.96585 0.41333
 O1145 O 0.45931 0.99487 0.42051
 O1146 O 0.50949 1.07176 0.45267
 O1147 O 0.55150 1.03984 0.44073
 C1148 C 0.47686 0.97982 0.40417
 H1149 H 0.47191 1.05446 0.48975
 H1150 H 0.56604 0.99662 0.47459
 H1151 H 0.46462 0.94814 0.45281
 H1152 H 0.49594 0.96589 0.55679
 H1153 H 0.57207 1.07147 0.48634
 H1154 H 0.59438 0.98821 0.54449
 H1155 H 0.56870 0.94246 0.55935
 H1156 H 0.47863 0.89426 0.53607
 H1157 H 0.52312 1.08902 0.45481
 H1158 H 0.42982 1.04069 0.43195
 H1159 H 0.40766 0.99278 0.44188
 H1160 H 0.43080 0.90817 0.50039
 H1161 H 0.56147 1.05951 0.43967
 H1162 H 0.55311 0.95636 0.40896
 H1163 H 0.44870 1.02438 0.58019
 H1164 H 0.43857 0.92199 0.54766
 Zr1165 Zr -0.02269 0.51880 1.03744
 O1166 O -0.05144 0.50756 1.07236
 O1167 O -0.01387 0.56391 1.04573
 O1168 O -0.00125 0.51957 1.07860
 O1169 O -0.07999 0.52898 0.98762
 O1170 O 0.04186 0.49442 1.07070
 O1171 O -0.06492 0.53918 1.03402
 O1172 O 0.02041 0.57685 1.01122
 O1173 O 0.02243 0.52304 1.02669
 O1174 O -0.02106 0.53720 0.99556
 O1175 O -0.00528 0.47549 1.04014
 O1176 O -0.04742 0.48948 1.01079
 Zr1177 Zr 0.01854 0.46785 0.95841
 Zr1178 Zr 0.03921 0.47974 1.02729
 Zr1179 Zr -0.04340 0.50731 0.96867
 Zr1180 Zr 0.02365 0.53958 0.98414
 O1181 O -0.08291 0.48374 0.95833
 O1182 O 0.06733 0.55240 0.99663
 O1183 O 0.00107 0.51131 0.95527
 O1184 O 0.04268 0.49735 0.98513
 O1185 O 0.01716 0.44920 1.00029
 O1186 O -0.02652 0.46415 0.96930
 C1187 C 0.00411 0.58245 1.03339
 C1188 C -0.08407 0.54019 1.01307
 C1189 C 0.02395 0.50901 1.08715
 O1190 O 0.08057 0.50146 1.03391
 O1191 O 0.07396 0.45447 1.00976
 O1192 O 0.05993 0.44560 0.96276
 C1193 C 0.07840 0.44356 0.98428
 O1194 O -0.05787 0.44485 1.04716
 Zr1195 Zr -0.02783 0.44711 1.01150
 O1196 O 0.01017 0.42268 0.95023
 O1197 O 0.04534 0.44218 1.05453
 O1198 O -0.01169 0.41400 1.04046
 O1199 O -0.06998 0.43182 0.99680
 O1200 O -0.02060 0.40823 0.98719
 C1201 C -0.00533 0.40312 0.96415
 O1202 O 0.04849 0.47841 0.92429
 O1203 O -0.05216 0.54675 0.94479
 O1204 O -0.00213 0.46915 0.91670
 O1205 O -0.04199 0.49942 0.92373
 O1206 O 0.00728 0.57494 0.95799
 O1207 O 0.04929 0.54307 0.94540
 C1208 C -0.02481 0.48398 0.90733
 H1209 H -0.03044 0.55705 0.99437
 H1210 H 0.06365 0.49909 0.97875
 H1211 H -0.03776 0.45134 0.95560
 H1212 H -0.00693 0.46739 1.06016
 H1213 H 0.06995 0.57368 0.99141
 H1214 H 0.09189 0.48935 1.04819
 H1215 H 0.06545 0.44416 1.06323
 H1216 H -0.02458 0.39618 1.03830
 H1217 H 0.02089 0.59215 0.96062
 H1218 H -0.07218 0.54443 0.93597
 H1219 H -0.09409 0.49628 0.94433
 H1220 H -0.07190 0.41061 1.00254
 H1221 H 0.05904 0.56287 0.94456
 H1222 H 0.05099 0.46015 0.91246
 H1223 H -0.05439 0.52581 1.08410
 H1224 H -0.06454 0.42401 1.05001
 Zr1225 Zr -0.02315 0.47955 0.45815
 O1226 O -0.05089 0.49914 0.42613
 O1227 O -0.02055 0.43558 0.44384
 O1228 O -0.00238 0.47977 0.41676
 O1229 O -0.07951 0.46830 0.50856
 O1230 O 0.04300 0.50099 0.42555
 O1231 O -0.06725 0.46262 0.46070
 O1232 O 0.01044 0.41369 0.47695
 O1233 O 0.02137 0.46892 0.46686
 O1234 O -0.02285 0.45627 0.49768
 O1235 O -0.00028 0.52051 0.45964
 O1236 O -0.04335 0.50811 0.48860
 Zr1237 Zr 0.02611 0.51513 0.54105
 Zr1238 Zr 0.04366 0.50977 0.47058
 Zr1239 Zr -0.04064 0.48502 0.52833
 Zr1240 Zr 0.02139 0.44720 0.50713
 O1241 O -0.07755 0.51121 0.54049
 O1242 O 0.06199 0.43086 0.49023
 O1243 O 0.00319 0.47402 0.53993
 O1244 O 0.04584 0.48677 0.51034
 O1245 O 0.02620 0.53882 0.50162
 O1246 O -0.01826 0.52553 0.53180
 C1247 C -0.00626 0.41323 0.45414
 C1248 C -0.08552 0.46030 0.48229
 C1249 C 0.02331 0.48950 0.40845
 O1250 O 0.08185 0.48450 0.46059
 O1251 O 0.08118 0.53012 0.48977
 O1252 O 0.06918 0.53441 0.53787
 C1253 C 0.08699 0.53815 0.51609
 O1254 O -0.04880 0.55792 0.45804
 Zr1255 Zr -0.01825 0.54761 0.49197
 O1256 O 0.02383 0.55914 0.55530
 O1257 O 0.05394 0.54921 0.44727
 O1258 O 0.00150 0.58167 0.46627
 O1259 O -0.05730 0.56656 0.50973
 O1260 O -0.00450 0.58174 0.52041
 C1261 C 0.01129 0.58197 0.54386
 O1262 O 0.05532 0.49604 0.57207
 O1263 O -0.05253 0.44478 0.54955
 O1264 O 0.00612 0.51230 0.58295
 O1265 O -0.03873 0.49032 0.57361
 O1266 O 0.00208 0.41130 0.53069
 O1267 O 0.04841 0.43592 0.54356
 C1268 C -0.01934 0.50163 0.59106
 H1269 H -0.03457 0.43757 0.49720
 H1270 H 0.06665 0.48216 0.51576
 H1271 H -0.02757 0.53802 0.54694
 H1272 H -0.00143 0.53103 0.44068
 H1273 H 0.06166 0.40891 0.49243
 H1274 H 0.09430 0.49696 0.44750
 H1275 H 0.07354 0.54609 0.43794
 H1276 H -0.00847 0.60061 0.47121
 H1277 H 0.01313 0.39303 0.52553
 H1278 H -0.07214 0.44804 0.55881
 H1279 H -0.09002 0.49873 0.55353
 H1280 H -0.05603 0.58838 0.50666
 H1281 H 0.05622 0.41552 0.54110
 H1282 H 0.06074 0.51198 0.58603
 H1283 H -0.05658 0.48318 0.41229
 H1284 H -0.05232 0.57966 0.45758
 Zr1285 Zr 0.47315 -0.02276 -0.04463
 O1286 O 0.44555 -0.00381 -0.07712
 O1287 O 0.47583 -0.06708 -0.05828
 O1288 O 0.49427 -0.02279 -0.08596
 O1289 O 0.41676 -0.03328 0.00590
 O1290 O 0.53931 -0.00087 -0.07715
 O1291 O 0.42886 -0.03939 -0.04193
 O1292 O 0.50706 -0.08830 -0.02498
 O1293 O 0.51773 -0.03300 -0.03573
 O1294 O 0.47354 -0.04567 -0.00489
 O1295 O 0.49570 0.01842 -0.04329
 O1296 O 0.45289 0.00601 -0.01436
 Zr1297 Zr 0.52222 0.01384 0.03815
 Zr1298 Zr 0.53969 0.00806 -0.03224
 Zr1299 Zr 0.45567 -0.01673 0.02554
 Zr1300 Zr 0.51785 -0.05437 0.00472
 O1301 O 0.41873 0.00939 0.03778
 O1302 O 0.55850 -0.07064 -0.01214
 O1303 O 0.49952 -0.02739 0.03728
 O1304 O 0.54207 -0.01463 0.00765
 O1305 O 0.52215 0.03729 -0.00141
 O1306 O 0.47778 0.02392 0.02885
 C1307 C 0.49029 -0.08922 -0.04771
 C1308 C 0.41058 -0.04133 -0.02030
 C1309 C 0.51988 -0.01276 -0.09424
 O1310 O 0.57805 -0.01706 -0.04203
 O1311 O 0.57704 0.02877 -0.01328
 O1312 O 0.56512 0.03347 0.03478
 C1313 C 0.58284 0.03710 0.01293
 O1314 O 0.44735 0.05599 -0.04528
 Zr1315 Zr 0.47766 0.04576 -0.01111
 O1316 O 0.51943 0.05788 0.05231
 O1317 O 0.54970 0.04740 -0.05584
 O1318 O 0.49753 0.07978 -0.03677
 O1319 O 0.43820 0.06422 0.00628
 O1320 O 0.49078 0.08015 0.01746
 C1321 C 0.50653 0.08055 0.04095
 O1322 O 0.55174 -0.00471 0.06921
 O1323 O 0.44380 -0.05696 0.04679
 O1324 O 0.50240 0.01077 0.08008
 O1325 O 0.45765 -0.01142 0.07077
 O1326 O 0.49870 -0.09004 0.02873
 O1327 O 0.54505 -0.06519 0.04116
 C1328 C 0.47700 -0.00001 0.08818
 H1329 H 0.46183 -0.06438 -0.00521
 H1330 H 0.56292 -0.01907 0.01308
 H1331 H 0.46835 0.03637 0.04394
 H1332 H 0.49453 0.02880 -0.06232
 H1333 H 0.55834 -0.09256 -0.00969
 H1334 H 0.59048 -0.00461 -0.05513
 H1335 H 0.56940 0.04443 -0.06503
 H1336 H 0.48753 0.09872 -0.03189
 H1337 H 0.50980 -0.10834 0.02379
 H1338 H 0.42419 -0.05370 0.05606
 H1339 H 0.40635 -0.00307 0.05092
 H1340 H 0.43929 0.08607 0.00334
 H1341 H 0.55289 -0.08560 0.03888
 H1342 H 0.55698 0.01136 0.08309
 H1343 H 0.44002 -0.02003 -0.09074
 H1344 H 0.44376 0.07771 -0.04573
 Zr1345 Zr 0.52088 0.52641 -0.03330
 O1346 O 0.54910 0.51108 -0.06688
 O1347 O 0.51456 0.57101 -0.04517
 O1348 O 0.49930 0.52668 -0.07438
 O1349 O 0.57817 0.53779 0.01620
 O1350 O 0.45595 0.50151 -0.06593
 O1351 O 0.56390 0.54568 -0.03094
 O1352 O 0.48215 0.58837 -0.01109
 O1353 O 0.47600 0.53337 -0.02338
 O1354 O 0.52008 0.54743 0.00723
 O1355 O 0.50112 0.48384 -0.03330
 O1356 O 0.54370 0.49761 -0.00453
 Zr1357 Zr 0.47615 0.48278 0.04850
 Zr1358 Zr 0.45684 0.49090 -0.02129
 Zr1359 Zr 0.54058 0.51828 0.03624
 Zr1360 Zr 0.47550 0.55269 0.01792
 O1361 O 0.57918 0.49391 0.04732
 O1362 O 0.43306 0.56698 0.00340
 O1363 O 0.49629 0.52537 0.04899
 O1364 O 0.45392 0.51143 0.01948
 O1365 O 0.47677 0.46128 0.00809
 O1366 O 0.52101 0.47617 0.03823
 C1367 C 0.49826 0.59144 -0.03397
 C1368 C 0.58290 0.54739 -0.00990
 C1369 C 0.47437 0.51522 -0.08278
 O1370 O 0.41706 0.51429 -0.03005
 O1371 O 0.42089 0.46783 -0.00263
 O1372 O 0.43411 0.46105 0.04495
 C1373 C 0.41591 0.45805 0.02328
 O1374 O 0.55208 0.44995 -0.03721
 Zr1375 Zr 0.52155 0.45624 -0.00250
 O1376 O 0.48267 0.43860 0.06129
 O1377 O 0.44858 0.45191 -0.04579
 O1378 O 0.50374 0.42244 -0.02963
 O1379 O 0.56219 0.43919 0.01399
 O1380 O 0.51063 0.41957 0.02439
 C1381 C 0.49610 0.41724 0.04844
 O1382 O 0.44626 0.49767 0.08083
 O1383 O 0.55061 0.55830 0.05845
 O1384 O 0.49661 0.48526 0.09011
 O1385 O 0.53957 0.51114 0.08146
 O1386 O 0.49331 0.58861 0.04234
 O1387 O 0.44928 0.55970 0.05574
 C1388 C 0.52108 0.49777 0.09851
 H1389 H 0.53053 0.56688 0.00726
 H1390 H 0.43298 0.51436 0.02542
 H1391 H 0.53151 0.46366 0.05272
 H1392 H 0.50261 0.47444 -0.05270
 H1393 H 0.43176 0.58865 0.00706
 H1394 H 0.40511 0.50173 -0.04343
 H1395 H 0.42863 0.45416 -0.05477
 H1396 H 0.51506 0.40398 -0.02570
 H1397 H 0.48071 0.60624 0.03849
 H1398 H 0.57059 0.55580 0.06729
 H1399 H 0.59109 0.50665 0.06056
 H1400 H 0.56236 0.41752 0.01001
 H1401 H 0.44035 0.57978 0.05488
 H1402 H 0.44240 0.48058 0.09407
 H1403 H 0.55314 0.52822 -0.08002
 H1404 H 0.55722 0.42860 -0.03857
 Zr1405 Zr 0.02886 1.01989 0.46245
 O1406 O 0.05717 1.00028 0.43122
 O1407 O 0.02593 1.06354 0.44717
 O1408 O 0.00830 1.01890 0.42080
 O1409 O 0.08394 1.03374 0.51363
 O1410 O -0.03671 0.99700 0.42963
 O1411 O 0.07276 1.03728 0.46521
 O1412 O -0.00713 1.08498 0.47821
 O1413 O -0.01599 1.02967 0.47015
 O1414 O 0.02743 1.04392 0.50137
 O1415 O 0.00684 0.97853 0.46445
 O1416 O 0.04924 0.99247 0.49407
 Zr1417 Zr -0.02092 0.98445 0.54522
 Zr1418 Zr -0.03742 0.98847 0.47454
 Zr1419 Zr 0.04530 1.01617 0.53320
 Zr1420 Zr -0.01714 1.05214 0.50976
 O1421 O 0.08268 0.99120 0.54676
 O1422 O -0.05814 1.06709 0.49223
 O1423 O 0.00099 1.02617 0.54357
 O1424 O -0.04073 1.01204 0.51361
 O1425 O -0.01982 0.96017 0.50639
 O1426 O 0.02387 0.97514 0.53704
 C1427 C 0.01025 1.08552 0.45591
 C1428 C 0.09041 1.04093 0.48717
 C1429 C -0.01728 1.00879 0.41253
 O1430 O -0.07615 1.01258 0.46335
 O1431 O -0.07485 0.96784 0.49326
 O1432 O -0.06357 0.96407 0.54161
 C1433 C -0.08103 0.95999 0.51955
 O1434 O 0.05662 0.94276 0.46477
 Zr1435 Zr 0.02502 0.95246 0.49773
 O1436 O -0.01702 0.94088 0.56097
 O1437 O -0.04630 0.94846 0.45189
 O1438 O 0.00690 0.91760 0.47209
 O1439 O 0.06396 0.93444 0.51694
 O1440 O 0.01119 0.91834 0.52622
 C1441 C -0.00427 0.91815 0.54978
 O1442 O -0.05114 1.00315 0.57525
 O1443 O 0.05575 1.05704 0.55368
 O1444 O -0.00181 0.98840 0.58729
 O1445 O 0.04263 1.01162 0.57870
 O1446 O 0.00134 1.08903 0.53226
 O1447 O -0.04459 1.06371 0.54557
 C1448 C 0.02302 1.00006 0.59582
 H1449 H 0.03870 1.06289 0.50053
 H1450 H -0.06171 1.01627 0.51857
 H1451 H 0.03329 0.96314 0.55263
 H1452 H 0.00843 0.96780 0.44573
 H1453 H -0.05831 1.08909 0.49371
 H1454 H -0.08810 0.99970 0.45026
 H1455 H -0.06581 0.95094 0.44210
 H1456 H 0.01734 0.89903 0.47758
 H1457 H -0.00988 1.10694 0.52614
 H1458 H 0.07530 1.05446 0.56338
 H1459 H 0.09460 1.00428 0.55967
 H1460 H 0.06324 0.91259 0.51409
 H1461 H -0.05250 1.08403 0.54259
 H1462 H -0.05639 0.98725 0.58942
 H1463 H 0.06261 1.01609 0.41702
 H1464 H 0.06087 0.92116 0.46484
 Zr1465 Zr 0.72953 0.27370 0.20776
 O1466 O 0.74832 0.30284 0.17637
 O1467 O 0.68609 0.26845 0.19205
 O1468 O 0.73188 0.25336 0.16613
 O1469 O 0.71497 0.32831 0.25871
 O1470 O 0.75390 0.20882 0.17584
 O1471 O 0.71128 0.31720 0.21039
 O1472 O 0.66516 0.23524 0.22382
 O1473 O 0.72088 0.22851 0.21590
 O1474 O 0.70539 0.27145 0.24665
 O1475 O 0.77145 0.25314 0.21022
 O1476 O 0.75638 0.29490 0.23939
 Zr1477 Zr 0.76575 0.22514 0.29124
 Zr1478 Zr 0.76257 0.20856 0.22065
 Zr1479 Zr 0.73269 0.29013 0.27848
 Zr1480 Zr 0.69821 0.22661 0.25544
 O1481 O 0.75665 0.32833 0.29205
 O1482 O 0.68438 0.18504 0.23821
 O1483 O 0.72356 0.24559 0.28924
 O1484 O 0.73884 0.20438 0.25963
 O1485 O 0.79015 0.22716 0.25246
 O1486 O 0.77419 0.27019 0.28275
 C1487 C 0.66445 0.25210 0.20106
 C1488 C 0.70767 0.33477 0.23232
 C1489 C 0.74213 0.22782 0.15831
 O1490 O 0.73971 0.16873 0.21007
 O1491 O 0.78483 0.17229 0.23964
 O1492 O 0.78691 0.18309 0.28811
 C1493 C 0.79236 0.16619 0.26606
 O1494 O 0.80612 0.30419 0.21039
 Zr1495 Zr 0.79695 0.27220 0.24346
 O1496 O 0.80955 0.22947 0.30618
 O1497 O 0.80267 0.20120 0.19775
 O1498 O 0.83232 0.25535 0.21794
 O1499 O 0.81373 0.31176 0.26263
 O1500 O 0.83136 0.25941 0.27198
 C1501 C 0.83204 0.24306 0.29506
 O1502 O 0.74749 0.19459 0.32162
 O1503 O 0.69140 0.29924 0.29859
 O1504 O 0.76147 0.24445 0.33322
 O1505 O 0.73714 0.28788 0.32393
 O1506 O 0.66089 0.24400 0.27773
 O1507 O 0.68710 0.19879 0.29141
 C1508 C 0.74934 0.26905 0.34138
 H1509 H 0.68621 0.28212 0.24562
 H1510 H 0.73515 0.18324 0.26469
 H1511 H 0.78598 0.27993 0.29829
 H1512 H 0.78226 0.25506 0.19153
 H1513 H 0.66241 0.18401 0.23974
 H1514 H 0.75294 0.15728 0.19705
 H1515 H 0.80072 0.18155 0.18817
 H1516 H 0.85060 0.26646 0.22337
 H1517 H 0.64323 0.23217 0.27177
 H1518 H 0.69346 0.31887 0.30817
 H1519 H 0.74322 0.33983 0.30482
 H1520 H 0.83562 0.31180 0.26003
 H1521 H 0.66693 0.19034 0.28851
 H1522 H 0.76344 0.18985 0.33585
 H1523 H 0.73236 0.30770 0.16218
 H1524 H 0.82757 0.30934 0.21069
 Zr1525 Zr 0.76793 0.72687 0.70988
 O1526 O 0.74711 0.69842 0.67926
 O1527 O 0.81124 0.72914 0.69400
 O1528 O 0.76664 0.74689 0.66797
 O1529 O 0.78078 0.67167 0.76145
 O1530 O 0.74686 0.79260 0.67678
 O1531 O 0.78469 0.68296 0.71307
 O1532 O 0.83433 0.76176 0.72475
 O1533 O 0.77908 0.77161 0.71710
 O1534 O 0.79253 0.72814 0.74860
 O1535 O 0.72727 0.74963 0.71194
 O1536 O 0.74044 0.70706 0.74179
 Zr1537 Zr 0.73521 0.77781 0.79246
 Zr1538 Zr 0.73855 0.79378 0.72165
 Zr1539 Zr 0.76469 0.71088 0.78075
 Zr1540 Zr 0.80220 0.77260 0.75649
 O1541 O 0.73869 0.67417 0.79479
 O1542 O 0.81799 0.81321 0.73844
 O1543 O 0.77621 0.75508 0.79065
 O1544 O 0.76285 0.79698 0.76046
 O1545 O 0.71045 0.77673 0.75377
 O1546 O 0.72432 0.73315 0.78475
 C1547 C 0.83382 0.74435 0.70250
 C1548 C 0.78779 0.66518 0.73503
 C1549 C 0.75751 0.77276 0.65964
 O1550 O 0.76315 0.83245 0.71049
 O1551 O 0.71786 0.83096 0.74042
 O1552 O 0.71704 0.82122 0.78922
 C1553 C 0.71149 0.83786 0.76689
 O1554 O 0.69074 0.69968 0.71337
 Zr1555 Zr 0.70126 0.73202 0.74550
 O1556 O 0.69115 0.77643 0.80721
 O1557 O 0.69877 0.80300 0.69864
 O1558 O 0.66666 0.74962 0.71918
 O1559 O 0.68198 0.69420 0.76601
 O1560 O 0.66776 0.74794 0.77299
 C1561 C 0.66789 0.76455 0.79573
 O1562 O 0.75564 0.80713 0.82254
 O1563 O 0.80549 0.69970 0.80103
 O1564 O 0.73844 0.75858 0.83459
 O1565 O 0.76082 0.71397 0.82620
 O1566 O 0.83893 0.75369 0.77882
 O1567 O 0.81504 0.80005 0.79201
 C1568 C 0.74972 0.73370 0.84323
 H1569 H 0.81117 0.71655 0.74773
 H1570 H 0.76770 0.81793 0.76518
 H1571 H 0.71204 0.72431 0.80047
 H1572 H 0.71626 0.74807 0.69330
 H1573 H 0.84000 0.81302 0.73974
 H1574 H 0.75033 0.84442 0.69739
 H1575 H 0.70162 0.82250 0.68884
 H1576 H 0.64794 0.73936 0.72479
 H1577 H 0.85703 0.76462 0.77251
 H1578 H 0.80240 0.68031 0.81097
 H1579 H 0.75155 0.66203 0.80771
 H1580 H 0.66015 0.69544 0.76314
 H1581 H 0.83546 0.80773 0.78872
 H1582 H 0.74018 0.81295 0.83679
 H1583 H 0.76256 0.69252 0.66504
 H1584 H 0.66915 0.69520 0.71390
 Zr1585 Zr 0.23756 0.22582 0.79338
 O1586 O 0.25613 0.19798 0.82592
 O1587 O 0.19288 0.22797 0.80621
 O1588 O 0.23671 0.24620 0.83488
 O1589 O 0.22935 0.16917 0.74284
 O1590 O 0.25755 0.29182 0.82649
 O1591 O 0.22111 0.18175 0.79026
 O1592 O 0.17203 0.25859 0.77215
 O1593 O 0.22653 0.27015 0.78426
 O1594 O 0.21583 0.22578 0.75306
 O1595 O 0.27829 0.24915 0.79308
 O1596 O 0.26765 0.20609 0.76398
 Zr1597 Zr 0.27541 0.27583 0.71174
 Zr1598 Zr 0.26719 0.29290 0.78183
 Zr1599 Zr 0.24604 0.20841 0.72351
 Zr1600 Zr 0.20644 0.26987 0.74320
 O1601 O 0.27333 0.17201 0.71225
 O1602 O 0.18877 0.31026 0.75924
 O1603 O 0.23476 0.25209 0.71147
 O1604 O 0.24562 0.29498 0.74140
 O1605 O 0.29772 0.27611 0.75184
 O1606 O 0.28625 0.23156 0.72122
 C1607 C 0.17076 0.24196 0.79499
 C1608 C 0.22010 0.16335 0.76879
 C1609 C 0.24620 0.27187 0.84337
 O1610 O 0.24068 0.33035 0.79145
 O1611 O 0.28695 0.33101 0.76356
 O1612 O 0.29362 0.31932 0.71570
 C1613 C 0.29588 0.33713 0.73763
 O1614 O 0.31677 0.20157 0.79613
 Zr1615 Zr 0.30693 0.23175 0.76170
 O1616 O 0.32001 0.27464 0.69932
 O1617 O 0.30579 0.30403 0.80602
 O1618 O 0.33979 0.25221 0.78824
 O1619 O 0.32663 0.19272 0.74471
 O1620 O 0.34193 0.24560 0.73411
 C1621 C 0.34259 0.26189 0.71097
 O1622 O 0.25727 0.30484 0.67997
 O1623 O 0.20685 0.19575 0.70099
 O1624 O 0.27415 0.25605 0.66977
 O1625 O 0.25297 0.21062 0.67846
 O1626 O 0.17171 0.24999 0.71855
 O1627 O 0.19630 0.29654 0.70617
 C1628 C 0.26437 0.23037 0.66139
 H1629 H 0.19728 0.21380 0.75290
 H1630 H 0.24081 0.31572 0.73584
 H1631 H 0.29940 0.22253 0.70646
 H1632 H 0.28825 0.24809 0.81231
 H1633 H 0.16695 0.30962 0.75614
 H1634 H 0.25243 0.34301 0.80491
 H1635 H 0.30198 0.32347 0.81539
 H1636 H 0.35905 0.24254 0.78393
 H1637 H 0.15314 0.26090 0.72291
 H1638 H 0.21086 0.17623 0.69185
 H1639 H 0.26155 0.15934 0.69882
 H1640 H 0.34835 0.19417 0.74825
 H1641 H 0.17574 0.30416 0.70784
 H1642 H 0.27373 0.31059 0.66669
 H1643 H 0.23974 0.19210 0.83924
 H1644 H 0.33853 0.19831 0.79705
 Zr1645 Zr 0.26448 0.77698 0.29444
 O1646 O 0.24927 0.80515 0.32807
 O1647 O 0.30907 0.77101 0.30599
 O1648 O 0.26558 0.75531 0.33558
 O1649 O 0.27400 0.83429 0.24453
 O1650 O 0.24125 0.71145 0.32729
 O1651 O 0.28360 0.82012 0.29137
 O1652 O 0.32666 0.73989 0.27091
 O1653 O 0.27187 0.73220 0.28429
 O1654 O 0.28469 0.77656 0.25343
 O1655 O 0.22228 0.75651 0.29532
 O1656 O 0.23499 0.79955 0.26621
 Zr1657 Zr 0.21964 0.73197 0.21359
 Zr1658 Zr 0.22966 0.71233 0.28295
 Zr1659 Zr 0.25472 0.79658 0.22492
 Zr1660 Zr 0.29046 0.73215 0.24266
 O1661 O 0.22964 0.83479 0.21402
 O1662 O 0.30569 0.69005 0.25728
 O1663 O 0.26207 0.75243 0.21216
 O1664 O 0.24941 0.71006 0.24176
 O1665 O 0.19910 0.73218 0.25447
 O1666 O 0.21276 0.77669 0.22397
 C1667 C 0.32967 0.75556 0.29415
 C1668 C 0.28458 0.83913 0.27020
 C1669 C 0.25485 0.73001 0.34404
 O1670 O 0.25387 0.67296 0.29139
 O1671 O 0.20747 0.67562 0.26444
 O1672 O 0.19905 0.68955 0.21728
 C1673 C 0.19726 0.67085 0.23865
 O1674 O 0.18837 0.80694 0.30054
 Zr1675 Zr 0.19392 0.77697 0.26529
 O1676 O 0.17461 0.73746 0.20284
 O1677 O 0.19110 0.70332 0.30789
 O1678 O 0.16068 0.75858 0.29282
 O1679 O 0.17657 0.81785 0.24965
 O1680 O 0.15675 0.76683 0.23919
 C1681 C 0.15364 0.75160 0.21576
 O1682 O 0.23384 0.70258 0.18052
 O1683 O 0.29423 0.80730 0.20205
 O1684 O 0.22079 0.75253 0.17197
 O1685 O 0.24724 0.79530 0.17970
 O1686 O 0.32539 0.75052 0.21720
 O1687 O 0.29748 0.70577 0.20498
 C1688 C 0.23347 0.77674 0.16307
 H1689 H 0.30401 0.78723 0.25300
 H1690 H 0.25262 0.68923 0.23565
 H1691 H 0.19984 0.78706 0.20973
 H1692 H 0.21323 0.75774 0.31491
 H1693 H 0.32738 0.68923 0.25354
 H1694 H 0.24175 0.66078 0.30501
 H1695 H 0.19389 0.68345 0.31690
 H1696 H 0.14220 0.77010 0.28965
 H1697 H 0.34345 0.73852 0.22097
 H1698 H 0.29130 0.82725 0.19324
 H1699 H 0.24204 0.84686 0.20056
 H1700 H 0.15508 0.81819 0.25443
 H1701 H 0.31772 0.69720 0.20566
 H1702 H 0.21642 0.69860 0.16777
 H1703 H 0.26656 0.80943 0.34090
 H1704 H 0.16704 0.81197 0.30252
 Zr1705 Zr 0.22991 0.77571 0.71189
 O1706 O 0.24925 0.80457 0.68058
 O1707 O 0.18665 0.77081 0.69581
 O1708 O 0.23254 0.75505 0.67036
 O1709 O 0.21484 0.83067 0.76236
 O1710 O 0.25432 0.71046 0.68043
 O1711 O 0.21178 0.81922 0.71405
 O1712 O 0.16523 0.73782 0.72749
 O1713 O 0.22083 0.73064 0.72016
 O1714 O 0.20536 0.77385 0.75058
 O1715 O 0.27164 0.75494 0.71483
 O1716 O 0.25644 0.79700 0.74371
 Zr1717 Zr 0.26486 0.72743 0.79593
 Zr1718 Zr 0.26234 0.71048 0.72539
 Zr1719 Zr 0.23234 0.79261 0.78264
 Zr1720 Zr 0.19777 0.72913 0.75951
 O1721 O 0.25651 0.83067 0.79621
 O1722 O 0.18380 0.68755 0.74240
 O1723 O 0.22285 0.74815 0.79347
 O1724 O 0.23818 0.70667 0.76415
 O1725 O 0.28967 0.72910 0.75737
 O1726 O 0.27369 0.77240 0.78736
 C1727 C 0.16485 0.75463 0.70470
 C1728 C 0.20784 0.83690 0.73582
 C1729 C 0.24284 0.72945 0.66270
 O1730 O 0.23938 0.67076 0.71468
 O1731 O 0.28405 0.67430 0.74506
 O1732 O 0.28503 0.68490 0.79360
 C1733 C 0.29082 0.66805 0.77164
 O1734 O 0.30624 0.80610 0.71530
 Zr1735 Zr 0.29681 0.77407 0.74825
 O1736 O 0.30868 0.73122 0.81110
 O1737 O 0.30270 0.70271 0.70308
 O1738 O 0.33233 0.75723 0.72294
 O1739 O 0.31388 0.81339 0.76764
 O1740 O 0.33087 0.76079 0.77685
 C1741 C 0.33137 0.74443 0.79992
 O1742 O 0.24590 0.69747 0.82647
 O1743 O 0.19091 0.80217 0.80226
 O1744 O 0.26046 0.74704 0.83763
 O1745 O 0.23605 0.79045 0.82825
 O1746 O 0.16028 0.74685 0.78126
 O1747 O 0.18614 0.70160 0.79553
 C1748 C 0.24802 0.77147 0.84574
 H1749 H 0.18623 0.78460 0.74930
 H1750 H 0.23423 0.68560 0.76926
 H1751 H 0.28543 0.78207 0.80299
 H1752 H 0.28266 0.75671 0.69625
 H1753 H 0.16181 0.68671 0.74371
 H1754 H 0.25280 0.65907 0.70206
 H1755 H 0.30081 0.68296 0.69371
 H1756 H 0.35059 0.76833 0.72848
 H1757 H 0.14264 0.73508 0.77517
 H1758 H 0.19301 0.82184 0.81175
 H1759 H 0.24300 0.84238 0.80871
 H1760 H 0.33577 0.81323 0.76513
 H1761 H 0.16593 0.69326 0.79249
 H1762 H 0.26159 0.69269 0.84097
 H1763 H 0.23352 0.80940 0.66615
 H1764 H 0.32769 0.81124 0.71575
 Zr1765 Zr 0.26754 0.22623 0.21152
 O1766 O 0.24790 0.19704 0.18083
 O1767 O 0.31075 0.23053 0.19544
 O1768 O 0.26539 0.24607 0.16960
 O1769 O 0.28167 0.17136 0.26311
 O1770 O 0.24398 0.29100 0.17848
 O1771 O 0.28555 0.18285 0.21477
 O1772 O 0.33286 0.26345 0.22656
 O1773 O 0.27713 0.27129 0.21882
 O1774 O 0.29206 0.22824 0.25025
 O1775 O 0.22606 0.24753 0.21362
 O1776 O 0.24062 0.20557 0.24341
 Zr1777 Zr 0.23279 0.27602 0.29408
 Zr1778 Zr 0.23584 0.29200 0.22334
 Zr1779 Zr 0.26468 0.21016 0.28238
 Zr1780 Zr 0.30017 0.27301 0.25824
 O1781 O 0.24005 0.17258 0.29663
 O1782 O 0.31464 0.31417 0.24033
 O1783 O 0.27460 0.25471 0.29233
 O1784 O 0.25995 0.29601 0.26216
 O1785 O 0.20809 0.27411 0.25540
 O1786 O 0.22357 0.23100 0.28635
 C1787 C 0.33287 0.24640 0.20403
 C1788 C 0.28885 0.16506 0.23669
 C1789 C 0.25526 0.27154 0.16132
 O1790 O 0.25933 0.33128 0.21193
 O1791 O 0.21449 0.32880 0.24192
 O1792 O 0.21298 0.31876 0.29062
 C1793 C 0.20753 0.33546 0.26828
 O1794 O 0.19078 0.19693 0.21459
 Zr1795 Zr 0.20053 0.22908 0.24714
 O1796 O 0.18882 0.27281 0.30894
 O1797 O 0.19569 0.30003 0.20051
 O1798 O 0.16527 0.24618 0.22134
 O1799 O 0.18307 0.19004 0.26701
 O1800 O 0.16653 0.24270 0.27536
 C1801 C 0.16610 0.25936 0.29807
 O1802 O 0.25199 0.30613 0.32417
 O1803 O 0.30591 0.20042 0.30257
 O1804 O 0.23660 0.25691 0.33621
 O1805 O 0.26061 0.21316 0.32782
 O1806 O 0.33733 0.25514 0.28072
 O1807 O 0.31202 0.30085 0.29379
 C1808 C 0.24872 0.23243 0.34483
 H1809 H 0.31107 0.21726 0.24931
 H1810 H 0.26410 0.31711 0.26689
 H1811 H 0.21165 0.22163 0.30204
 H1812 H 0.21509 0.24561 0.19499
 H1813 H 0.33664 0.31476 0.24176
 H1814 H 0.24620 0.34282 0.19876
 H1815 H 0.19795 0.31956 0.19062
 H1816 H 0.14687 0.23534 0.22692
 H1817 H 0.35515 0.26657 0.27447
 H1818 H 0.30350 0.18094 0.31252
 H1819 H 0.25334 0.16098 0.30959
 H1820 H 0.16119 0.19031 0.26427
 H1821 H 0.33229 0.30899 0.29067
 H1822 H 0.23625 0.31138 0.33835
 H1823 H 0.26361 0.19170 0.16666
 H1824 H 0.16927 0.19206 0.21497
 Zr1825 Zr 0.73818 0.72688 0.28978
 O1826 O 0.75801 0.69911 0.32166
 O1827 O 0.69389 0.72863 0.30408
 O1828 O 0.73876 0.74717 0.33133
 O1829 O 0.72781 0.67056 0.23917
 O1830 O 0.75944 0.79279 0.32253
 O1831 O 0.72210 0.68259 0.28707
 O1832 O 0.67186 0.75966 0.27111
 O1833 O 0.72688 0.77131 0.28138
 O1834 O 0.71485 0.72715 0.25035
 O1835 O 0.77891 0.75020 0.28799
 O1836 O 0.76706 0.70737 0.25910
 Zr1837 Zr 0.77267 0.77736 0.20694
 Zr1838 Zr 0.76744 0.79405 0.27749
 Zr1839 Zr 0.74378 0.70994 0.21956
 Zr1840 Zr 0.70515 0.77135 0.24113
 O1841 O 0.77060 0.67363 0.20702
 O1842 O 0.68823 0.81155 0.25839
 O1843 O 0.73203 0.75367 0.20820
 O1844 O 0.74427 0.79645 0.23793
 O1845 O 0.79659 0.77738 0.24615
 O1846 O 0.78388 0.73304 0.21573
 C1847 C 0.67135 0.74263 0.29369
 C1848 C 0.72001 0.66437 0.26548
 C1849 C 0.74855 0.77279 0.33966
 O1850 O 0.74154 0.83164 0.28810
 O1851 O 0.78702 0.83203 0.25863
 O1852 O 0.79201 0.82044 0.21052
 C1853 C 0.79540 0.83805 0.23248
 O1854 O 0.81748 0.70240 0.28897
 Zr1855 Zr 0.80625 0.73303 0.25535
 O1856 O 0.81646 0.77591 0.19241
 O1857 O 0.80691 0.80485 0.30048
 O1858 O 0.84010 0.75310 0.28097
 O1859 O 0.82544 0.69437 0.23705
 O1860 O 0.84011 0.74770 0.22671
 C1861 C 0.83973 0.76384 0.20342
 O1862 O 0.75320 0.80688 0.17643
 O1863 O 0.70369 0.69735 0.19855
 O1864 O 0.76938 0.75787 0.16485
 O1865 O 0.74866 0.71249 0.17435
 O1866 O 0.66944 0.75184 0.21756
 O1867 O 0.69356 0.79846 0.20483
 C1868 C 0.75911 0.73226 0.15675
 H1869 H 0.69634 0.71512 0.25079
 H1870 H 0.73938 0.81726 0.23269
 H1871 H 0.79639 0.72412 0.20037
 H1872 H 0.78961 0.74901 0.30683
 H1873 H 0.66630 0.81096 0.25614
 H1874 H 0.75387 0.84418 0.30116
 H1875 H 0.80355 0.82430 0.31000
 H1876 H 0.85918 0.74356 0.27578
 H1877 H 0.65109 0.76276 0.22268
 H1878 H 0.70734 0.67792 0.18907
 H1879 H 0.75834 0.66111 0.19388
 H1880 H 0.84728 0.69598 0.23966
 H1881 H 0.67317 0.80621 0.20747
 H1882 H 0.76904 0.81264 0.16246
 H1883 H 0.74211 0.69309 0.33547
 H1884 H 0.83924 0.69904 0.28893
 Zr1885 Zr 0.76440 0.27654 0.79181
 O1886 O 0.74831 0.30496 0.82484
 O1887 O 0.80881 0.27121 0.80415
 O1888 O 0.76496 0.25536 0.83322
 O1889 O 0.77514 0.33309 0.74119
 O1890 O 0.74091 0.21137 0.82498
 O1891 O 0.78319 0.31975 0.78860
 O1892 O 0.82735 0.23981 0.76976
 O1893 O 0.77229 0.23168 0.78240
 O1894 O 0.78542 0.27564 0.75119
 O1895 O 0.72232 0.25588 0.79217
 O1896 O 0.73542 0.29862 0.76271
 Zr1897 Zr 0.72135 0.23013 0.71074
 Zr1898 Zr 0.73022 0.21161 0.78049
 Zr1899 Zr 0.75597 0.29513 0.72183
 Zr1900 Zr 0.79166 0.23113 0.74113
 O1901 O 0.73086 0.33304 0.71008
 O1902 O 0.80686 0.18944 0.75685
 O1903 O 0.76371 0.25080 0.70987
 O1904 O 0.75074 0.20882 0.73972
 O1905 O 0.70008 0.23089 0.75124
 O1906 O 0.71411 0.27500 0.72034
 C1907 C 0.82979 0.25592 0.79278
 C1908 C 0.78488 0.33829 0.76711
 C1909 C 0.75414 0.23014 0.84174
 O1910 O 0.75451 0.17253 0.79001
 O1911 O 0.70883 0.17439 0.76228
 O1912 O 0.70078 0.18766 0.71494
 C1913 C 0.69889 0.16915 0.73650
 O1914 O 0.68825 0.30637 0.79597
 Zr1915 Zr 0.69451 0.27581 0.76132
 O1916 O 0.67649 0.23534 0.69906
 O1917 O 0.69114 0.20274 0.80472
 O1918 O 0.66083 0.25784 0.78860
 O1919 O 0.67719 0.31628 0.74466
 O1920 O 0.65789 0.26494 0.73487
 C1921 C 0.65523 0.24944 0.71158
 O1922 O 0.73608 0.20019 0.67839
 O1923 O 0.79580 0.30574 0.69945
 O1924 O 0.72356 0.24995 0.66878
 O1925 O 0.74957 0.29299 0.67651
 O1926 O 0.82683 0.24928 0.71583
 O1927 O 0.79963 0.20407 0.70411
 C1928 C 0.73645 0.27403 0.65981
 H1929 H 0.80468 0.28642 0.75092
 H1930 H 0.75418 0.18792 0.73397
 H1931 H 0.70143 0.28507 0.70569
 H1932 H 0.71288 0.25732 0.81157
 H1933 H 0.82864 0.18873 0.75362
 H1934 H 0.74224 0.16049 0.80363
 H1935 H 0.69388 0.18306 0.81415
 H1936 H 0.64239 0.26929 0.78496
 H1937 H 0.84495 0.23756 0.72015
 H1938 H 0.79291 0.32552 0.69026
 H1939 H 0.74340 0.34495 0.69661
 H1940 H 0.65562 0.31659 0.74909
 H1941 H 0.81990 0.19561 0.70539
 H1942 H 0.71883 0.19592 0.66550
 H1943 H 0.76532 0.30954 0.83793
 H1944 H 0.66690 0.31144 0.79745
 C1945 C 0.45096 0.99952 0.36137
 C1946 C 0.46917 0.97879 0.37278
 H1947 H 0.44392 1.01756 0.37535
 H1948 H 0.47824 0.96122 0.35952
 C1949 C -0.05270 0.50318 0.86560
 C1950 C -0.03150 0.48349 0.87740
 H1951 H -0.06159 0.51995 0.88007
 H1952 H -0.01936 0.46848 0.86349
 C1953 C 0.06278 0.01108 0.87527
 C1954 C 0.03536 0.01930 0.88353
 H1955 H 0.07839 0.00395 0.89190
 H1956 H 0.01957 0.02773 0.86774
 C1957 C 0.56349 0.50473 0.37598
 C1958 C 0.53637 0.51346 0.38467
 H1959 H 0.57900 0.49668 0.39229
 H1960 H 0.52074 0.52289 0.36927
 C1961 C 0.55103 0.51343 0.14058
 C1962 C 0.52919 0.49612 0.12977
 H1963 H 0.56099 0.53007 0.12642
 H1964 H 0.51747 0.48044 0.14359
 C1965 C 0.05312 1.01531 0.63800
 C1966 C 0.03020 0.99935 0.62735
 H1967 H 0.06475 1.03039 0.62340
 H1968 H 0.01697 0.98528 0.64150
 C1969 C -0.05502 0.49395 0.63088
 C1970 C -0.02780 0.50314 0.62233
 H1971 H -0.06998 0.48490 0.61457
 H1972 H -0.01245 0.51305 0.63773
 C1973 C 0.44064 -0.00570 0.12753
 C1974 C 0.46857 0.00135 0.11941
 H1975 H 0.42481 -0.01232 0.11088
 H1976 H 0.48461 0.00937 0.13520
 C1977 C 0.36527 0.44314 0.00818
 C1978 C 0.38726 0.44224 0.02820
 H1979 H 0.36840 0.45692 -0.01103
 H1980 H 0.38441 0.43006 0.04838
 C1981 C -0.13140 0.94450 0.50379
 C1982 C -0.11008 0.94494 0.52451
 H1983 H -0.12764 0.95696 0.48385
 H1984 H -0.11375 0.93419 0.54533
 C1985 C -0.13618 0.05951 0.99747
 C1986 C -0.11202 0.06133 0.97802
 H1987 H -0.13386 0.04476 1.01610
 H1988 H -0.11425 0.07306 0.95752
 C1989 C 0.37098 0.56309 0.50348
 C1990 C 0.39374 0.56465 0.48446
 H1991 H 0.37350 0.54923 0.52272
 H1992 H 0.39137 0.57683 0.46422
 C1993 C 0.13756 0.55460 0.50151
 C1994 C 0.11591 0.55318 0.52172
 H1995 H 0.13434 0.54290 0.48113
 H1996 H 0.11920 0.56321 0.54287
 C1997 C 0.63309 0.05364 -0.00220
 C1998 C 0.61166 0.05237 0.01823
 H1999 H 0.62982 0.04159 -0.02237
 H2000 H 0.61505 0.06273 0.03922
 C2001 C 0.63349 0.93145 0.49364
 C2002 C 0.61003 0.92633 0.47598
 H2003 H 0.63112 0.94761 0.51095
 H2004 H 0.61211 0.91192 0.45728
 C2005 C 0.13041 0.43273 0.99730
 C2006 C 0.10704 0.42822 0.97940
 H2007 H 0.12810 0.44854 1.01492
 H2008 H 0.10911 0.41420 0.96042
 C2009 C 0.00051 0.35948 0.44933
 C2010 C -0.00992 0.38512 0.43870
 H2011 H 0.01317 0.35924 0.46945
 H2012 H -0.02147 0.38577 0.41798
 C2013 C 0.49843 -0.14287 -0.05189
 C2014 C 0.48690 -0.11772 -0.06265
 H2015 H 0.51140 -0.14238 -0.03195
 H2016 H 0.47504 -0.11774 -0.08321
 C2017 C -0.00916 -0.13790 1.04515
 C2018 C 0.00270 -0.11303 1.05620
 H2019 H -0.01890 -0.13776 1.02353
 H2020 H 0.01425 -0.11378 1.07692
 C2021 C 0.49121 0.36158 0.54953
 C2022 C 0.50301 0.38600 0.56163
 H2023 H 0.48240 0.36247 0.52755
 H2024 H 0.51384 0.38465 0.58269
 C2025 C 0.48561 1.12347 0.55363
 C2026 C 0.50799 1.11129 0.53887
 H2027 H 0.46599 1.11014 0.55832
 H2028 H 0.52794 1.12377 0.53380
 C2029 C -0.01650 0.62568 1.05798
 C2030 C 0.00633 0.61258 1.04475
 H2031 H -0.03685 0.61313 1.06166
 H2032 H 0.02701 0.62431 1.04091
 C2033 C 0.51443 0.62756 -0.07094
 C2034 C 0.49794 0.62082 -0.04766
 H2035 H 0.52781 0.61059 -0.08124
 H2036 H 0.48326 0.63724 -0.03830
 C2037 C -0.00365 1.13706 0.44619
 C2038 C 0.01292 1.11164 0.44000
 H2039 H -0.02057 1.13564 0.46297
 H2040 H 0.02789 1.11123 0.42162
 C2041 C 0.76464 0.70336 0.88528
 C2042 C 0.74904 0.72648 0.87473
 H2043 H 0.77945 0.69178 0.87061
 H2044 H 0.73514 0.73967 0.88884
 C2045 C 0.26467 0.20261 0.38681
 C2046 C 0.24813 0.22506 0.37630
 H2047 H 0.28015 0.19181 0.37222
 H2048 H 0.23363 0.23756 0.39044
 C2049 C 0.73950 0.30352 0.38163
 C2050 C 0.75033 0.27719 0.37274
 H2051 H 0.72919 0.31793 0.36557
 H2052 H 0.76151 0.26252 0.38793
 C2053 C 0.23205 0.80158 0.88751
 C2054 C 0.24837 0.77896 0.87716
 H2055 H 0.21683 0.81274 0.87277
 H2056 H 0.26260 0.76621 0.89150
 C2057 C 0.25085 0.80384 0.11959
 C2058 C 0.23164 0.78425 0.13168
 H2059 H 0.26880 0.81209 0.13323
 H2060 H 0.21450 0.77345 0.11893
 C2061 C 0.75592 0.29988 0.61654
 C2062 C 0.73589 0.28089 0.62821
 H2063 H 0.77340 0.30806 0.63084
 H2064 H 0.71897 0.27031 0.61503
 C2065 C 0.26234 0.19376 0.62209
 C2066 C 0.26664 0.22222 0.63018
 H2067 H 0.25818 0.17728 0.63894
 H2068 H 0.27237 0.23918 0.61434
 C2069 C 0.74994 0.69629 0.11803
 C2070 C 0.75962 0.72473 0.12702
 H2071 H 0.74196 0.68122 0.13483
 H2072 H 0.76832 0.74067 0.11147
 C2073 C 0.18693 0.61809 0.25046
 C2074 C 0.18241 0.64193 0.23318
 H2075 H 0.20317 0.61967 0.26790
 H2076 H 0.16808 0.64016 0.21428
 C2077 C 0.68591 0.11821 0.75219
 C2078 C 0.68528 0.14148 0.73144
 H2079 H 0.69931 0.12148 0.77160
 H2080 H 0.67523 0.13800 0.71031
 C2081 C 0.81409 0.11866 0.24952
 C2082 C 0.80858 0.13791 0.27131
 H2083 H 0.80565 0.12396 0.22798
 H2084 H 0.81595 0.13320 0.29326
 C2085 C 0.31763 0.62379 0.75484
 C2086 C 0.30628 0.63944 0.77707
 H2087 H 0.31609 0.63297 0.73302
 H2088 H 0.30902 0.63175 0.79929
 C2089 C 0.30823 0.38847 0.75271
 C2090 C 0.31033 0.36642 0.73295
 H2091 H 0.29337 0.38500 0.77104
 H2092 H 0.32286 0.36928 0.71308
 C2093 C 0.80878 0.88920 0.24702
 C2094 C 0.81085 0.86685 0.22772
 H2095 H 0.79318 0.88718 0.26491
 H2096 H 0.82464 0.86938 0.20855
 C2097 C 0.68176 0.88038 0.74992
 C2098 C 0.69677 0.86698 0.77171
 H2099 H 0.68001 0.86831 0.72953
 H2100 H 0.69758 0.87653 0.79328
 C2101 C 0.18162 0.38010 0.25018
 C2102 C 0.19220 0.36433 0.27292
 H2103 H 0.18390 0.37089 0.22851
 H2104 H 0.18885 0.37206 0.29496
 C2105 C 0.11704 0.24968 0.79742
 C2106 C 0.14180 0.23815 0.80904
 H2107 H 0.11837 0.26307 0.77775
 H2108 H 0.14100 0.22582 0.82933
 C2109 C 0.61755 0.74914 0.29675
 C2110 C 0.64267 0.73819 0.30817
 H2111 H 0.61842 0.76265 0.27714
 H2112 H 0.64231 0.72562 0.32834
 C2113 C 0.61169 0.24026 0.19264
 C2114 C 0.63704 0.25308 0.18378
 H2115 H 0.61056 0.22972 0.21390
 H2116 H 0.63768 0.26546 0.16349
 C2117 C 0.11249 0.74227 0.69557
 C2118 C 0.13764 0.75580 0.68728
 H2119 H 0.11136 0.73099 0.71647
 H2120 H 0.13830 0.76880 0.66737
 C2121 C 0.88579 0.75632 0.69034
 C2122 C 0.86089 0.74059 0.68539
 H2123 H 0.88536 0.77337 0.70699
 H2124 H 0.85936 0.72467 0.66791
 C2125 C 0.38567 0.25721 0.19384
 C2126 C 0.35994 0.24415 0.18650
 H2127 H 0.38673 0.27133 0.21291
 H2128 H 0.35825 0.23121 0.16674
 C2129 C 0.38314 0.74534 0.29606
 C2130 C 0.35862 0.75594 0.30864
 H2131 H 0.38250 0.73773 0.27368
 H2132 H 0.35979 0.76571 0.33015
 C2133 C 0.88351 0.24736 0.79523
 C2134 C 0.85853 0.25716 0.80755
 H2135 H 0.88337 0.23969 0.77287
 H2136 H 0.85915 0.26709 0.82901
 C2137 C 0.56150 1.00142 0.62385
 C2138 C 0.53523 1.01140 0.61402
 H2139 H 0.57691 0.99177 0.60844
 H2140 H 0.51993 1.02238 0.62858
 C2141 C 0.06108 0.50634 1.12617
 C2142 C 0.03218 0.51306 1.11641
 H2143 H 0.07740 0.50163 1.10942
 H2144 H 0.01594 0.52227 1.13117
 C2145 C -0.03509 -0.00887 1.14331
 C2146 C -0.04485 -0.02143 1.11857
 H2147 H -0.01295 0.00086 1.14347
 H2148 H -0.06609 -0.03271 1.11771
 C2149 C 0.44425 0.49917 0.63573
 C2150 C 0.47061 0.48832 0.62715
 H2151 H 0.42954 0.50859 0.61942
 H2152 H 0.48553 0.47791 0.64261
 C2153 C 0.44591 0.49906 -0.12564
 C2154 C 0.46636 0.51747 -0.11402
 H2155 H 0.43618 0.48199 -0.11182
 H2156 H 0.47804 0.53351 -0.12748
 C2157 C -0.04836 0.99478 0.37078
 C2158 C -0.02532 1.01072 0.38128
 H2159 H -0.05969 0.97940 0.38532
 H2160 H -0.01227 1.02497 0.36713
 C2161 C 0.05263 0.50453 0.36566
 C2162 C 0.03072 0.48769 0.37703
 H2163 H 0.06406 0.52008 0.37987
 H2164 H 0.01749 0.47329 0.36324
 C2165 C 0.54858 0.00354 -0.13691
 C2166 C 0.52776 -0.01468 -0.12554
 H2167 H 0.55824 0.02049 -0.12299
 H2168 H 0.51602 -0.03044 -0.13920
 C2169 C 0.63462 0.56160 0.00283
 C2170 C 0.61175 0.56226 -0.01610
 H2171 H 0.63245 0.54830 0.02247
 H2172 H 0.61404 0.57391 -0.03666
 C2173 C 0.13650 1.06522 0.50424
 C2174 C 0.11974 1.05535 0.48192
 H2175 H 0.12817 1.06218 0.52620
 H2176 H 0.12658 1.05939 0.45966
 C2177 C 0.13447 -0.05021 1.00970
 C2178 C 0.11256 -0.04971 1.02981
 H2179 H 0.13137 -0.03689 0.99018
 H2180 H 0.11453 -0.06169 1.05016
 C2181 C 0.63902 0.44464 0.50977
 C2182 C 0.61624 0.44278 0.52879
 H2183 H 0.63696 0.46050 0.49200
 H2184 H 0.61759 0.42900 0.54808
 C2185 C -0.13559 0.44399 0.49802
 C2186 C -0.11493 0.44618 0.47690
 H2187 H -0.13138 0.45495 0.51863
 H2188 H -0.11903 0.43668 0.45565
 C2189 C 0.36028 -0.05622 -0.00405
 C2190 C 0.38078 -0.05482 -0.02543
 H2191 H 0.36530 -0.04542 0.01647
 H2192 H 0.37631 -0.06437 -0.04658
 C2193 C 0.36720 1.05267 0.49691
 C2194 C 0.39091 1.05460 0.51468
 H2195 H 0.36747 1.03691 0.47910
 H2196 H 0.39009 1.06872 0.53371
 C2197 C -0.13460 0.55659 0.99894
 C2198 C -0.11237 0.55595 1.01861
 H2199 H -0.13217 0.54396 0.97902
 H2200 H -0.11462 0.56719 1.03926
 C2201 C 0.00337 0.63551 0.54935
 C2202 C 0.01464 0.61004 0.55951
 H2203 H -0.00657 0.63634 0.52782
 H2204 H 0.02627 0.60947 0.58019
 C2205 C 0.49750 0.13398 0.04728
 C2206 C 0.50951 0.10859 0.05683
 H2207 H 0.48690 0.13481 0.02606
 H2208 H 0.52170 0.10807 0.07720
 C2209 C -0.01665 0.13013 0.92913
 C2210 C -0.00518 0.12417 0.95535
 H2211 H -0.02691 0.11235 0.91670
 H2212 H 0.00643 0.14123 0.96753
 C2213 C 0.48961 0.62674 0.42995
 C2214 C 0.50358 0.62089 0.45502
 H2215 H 0.47778 0.60905 0.41877
 H2216 H 0.51673 0.63788 0.46574
 C2217 C 0.51322 0.86022 0.42934
 C2218 C 0.49558 0.86971 0.45072
 H2219 H 0.53068 0.87466 0.42105
 H2220 H 0.47947 0.85477 0.46056
 C2221 C 0.01103 0.36366 0.93121
 C2222 C -0.00661 0.37271 0.95279
 H2223 H 0.02822 0.37845 0.92295
 H2224 H -0.02248 0.35750 0.96259
 C2225 C 0.49836 0.36289 0.04869
 C2226 C 0.49560 0.38839 0.06315
 H2227 H 0.49890 0.36260 0.02509
 H2228 H 0.49248 0.38802 0.08657
 C2229 C -0.00416 0.86410 0.55197
 C2230 C -0.00657 0.89008 0.56564
 H2231 H -0.00339 0.86311 0.52839
 H2232 H -0.00984 0.89070 0.58903
 C2233 C 0.24263 0.30406 0.12036
 C2234 C 0.25651 0.27949 0.13003
 H2235 H 0.22998 0.31711 0.13576
 H2236 H 0.26942 0.26581 0.11548
 C2237 C 0.74726 0.80619 0.61859
 C2238 C 0.75923 0.78063 0.62830
 H2239 H 0.73602 0.82034 0.63410
 H2240 H 0.77077 0.76584 0.61368
 C2241 C 0.25275 0.69448 0.62292
 C2242 C 0.24165 0.72082 0.63146
 H2243 H 0.26248 0.68007 0.63932
 H2244 H 0.23125 0.73569 0.61594
 C2245 C 0.75027 0.19232 0.11878
 C2246 C 0.74048 0.21920 0.12716
 H2247 H 0.75914 0.17739 0.13522
 H2248 H 0.73066 0.23440 0.11157
 C2249 C 0.73913 0.20021 0.88399
 C2250 C 0.75661 0.22186 0.87293
 H2251 H 0.72254 0.19026 0.86981
 H2252 H 0.77240 0.23366 0.88649
 C2253 C 0.24135 0.69931 0.38640
 C2254 C 0.25792 0.72157 0.37517
 H2255 H 0.22523 0.68854 0.37228
 H2256 H 0.27332 0.73398 0.38863
 C2257 C 0.76465 0.80189 0.38192
 C2258 C 0.74764 0.77985 0.37108
 H2259 H 0.77967 0.81343 0.36721
 H2260 H 0.73334 0.76665 0.38500
 C2261 C 0.26176 0.30088 0.88573
 C2262 C 0.24453 0.27911 0.87469
 H2263 H 0.27744 0.31190 0.87130
 H2264 H 0.22958 0.26634 0.88833
 C2265 C 0.80169 0.38838 0.75176
 C2266 C 0.80027 0.36701 0.77231
 H2267 H 0.78927 0.38540 0.73170
 H2268 H 0.81118 0.37012 0.79312
 C2269 C 0.29988 0.88902 0.25374
 C2270 C 0.29894 0.86646 0.27518
 H2271 H 0.28608 0.88568 0.23458
 H2272 H 0.30963 0.86953 0.29607
 C2273 C 0.18328 0.88233 0.75284
 C2274 C 0.19350 0.86612 0.73043
 H2275 H 0.18560 0.87342 0.77470
 H2276 H 0.19014 0.87347 0.70819
 C2277 C 0.68429 0.38046 0.25025
 C2278 C 0.69347 0.36419 0.22743
 H2279 H 0.68728 0.37142 0.27199
 H2280 H 0.68948 0.37171 0.20535
 C2281 C 0.70358 0.61407 0.25034
 C2282 C 0.70623 0.63493 0.27115
 H2283 H 0.71432 0.61773 0.22950
 H2284 H 0.69702 0.63099 0.29260
 C2285 C 0.20601 0.11229 0.75423
 C2286 C 0.20547 0.13430 0.77392
 H2287 H 0.22043 0.11424 0.73540
 H2288 H 0.19263 0.13162 0.79371
 C2289 C 0.30555 0.11506 0.25222
 C2290 C 0.30296 0.13590 0.23125
 H2291 H 0.29508 0.11884 0.27312
 H2292 H 0.31183 0.13189 0.20973
 C2293 C 0.80477 0.61536 0.75089
 C2294 C 0.80171 0.63586 0.72966
 H2295 H 0.79464 0.61948 0.77189
 H2296 H 0.81032 0.63162 0.70809
 C2297 C 0.89322 0.75623 0.19643
 C2298 C 0.86582 0.76822 0.18801
 H2299 H 0.89521 0.74732 0.21836
 H2300 H 0.86395 0.78159 0.16848
 C2301 C 0.39468 0.24911 0.70125
 C2302 C 0.37070 0.26557 0.69547
 H2303 H 0.39523 0.23480 0.72030
 H2304 H 0.37076 0.28089 0.67718
 C2305 C 0.38535 0.75043 0.80297
 C2306 C 0.35994 0.74045 0.81469
 H2307 H 0.38488 0.76242 0.78243
 H2308 H 0.35982 0.72938 0.83567
 C2309 C 0.88576 0.25137 0.29990
 C2310 C 0.86048 0.23951 0.31015
 H2311 H 0.88543 0.26491 0.28030
 H2312 H 0.86034 0.22722 0.33048
 C2313 C 0.11238 0.25141 0.30238
 C2314 C 0.13761 0.26318 0.31294
 H2315 H 0.11290 0.23832 0.28260
 H2316 H 0.13772 0.27523 0.33330
 C2317 C 0.61370 0.76298 0.79665
 C2318 C 0.63936 0.77001 0.80984
 H2319 H 0.61394 0.75353 0.77495
 H2320 H 0.63973 0.77876 0.83177
 C2321 C 0.61948 0.23466 0.67361
 C2322 C 0.62562 0.24900 0.69835
 H2323 H 0.63615 0.22073 0.66355
 H2324 H 0.60841 0.26146 0.70930
 C2325 C 0.11758 0.73725 0.17800
 C2326 C 0.12389 0.75154 0.20274
 H2327 H 0.13417 0.72322 0.16795
 H2328 H 0.10686 0.76418 0.21374
   
