data_POSCAR
  _audit_creation_date              2014-09-24
  _audit_creation_method            'ToBaCCo'
  _symmetry_space_group_name_H-M    'P1'
  _symmetry_Int_Tables_number       1
  _symmetry_cell_setting            triclinic
  loop_
  _symmetry_equiv_pos_as_xyz
 x,y,z
_cell_length_a 59.3044
_cell_length_b 59.1183
_cell_length_c 58.9453
_cell_angle_alpha 89.853500
_cell_angle_beta 90.052900
_cell_angle_gamma 89.825500
loop_
  _atom_site_label
  _atom_site_type_symbol
  _atom_site_fract_x
  _atom_site_fract_y
  _atom_site_fract_z
N1 N 0.36633 0.30241 0.31881
 N2 N 0.36620 0.31851 0.30338
 C3 C 0.38314 0.31484 0.28863
 C4 C 0.39445 0.29543 0.29514
 C5 C 0.38335 0.28795 0.31440
 H6 H 0.38710 0.32547 0.27422
 H7 H 0.38740 0.27327 0.32461
 Cu8 Cu 0.34369 0.34243 0.30422
 Cu9 Cu 0.34472 0.30164 0.34374
 Cu10 Cu 0.30474 0.34474 0.34529
 N11 N 0.32105 0.36623 0.30469
 N12 N 0.30573 0.36695 0.32079
 C13 C 0.29173 0.38452 0.31690
 C14 C 0.29869 0.39533 0.29726
 C15 C 0.31733 0.38334 0.29002
 H16 H 0.27754 0.38894 0.32750
 H17 H 0.32722 0.38676 0.27500
 N18 N 0.30659 0.32062 0.36841
 N19 N 0.32149 0.30399 0.36757
 C20 C 0.31819 0.29012 0.38542
 C21 C 0.30055 0.29851 0.39815
 C22 C 0.29353 0.31783 0.38689
 H23 H 0.32799 0.27511 0.38911
 H24 H 0.27983 0.32892 0.39167
 H25 H 0.31908 0.31864 0.32709
 H26 H 0.33851 0.33602 0.34473
 N27 N 0.36429 0.80148 -0.18311
 N28 N 0.36400 0.81754 -0.19856
 C29 C 0.38119 0.81417 -0.21311
 C30 C 0.39278 0.79493 -0.20646
 C31 C 0.38154 0.78728 -0.18732
 H32 H 0.38520 0.82499 -0.22736
 H33 H 0.38579 0.77283 -0.17688
 Cu34 Cu 0.34144 0.84154 -0.19803
 Cu35 Cu 0.34310 0.80071 -0.15799
 Cu36 Cu 0.30481 0.84482 -0.15442
 N37 N 0.31978 0.86622 -0.19548
 N38 N 0.30593 0.86763 -0.17814
 C39 C 0.29323 0.88641 -0.18026
 C40 C 0.29940 0.89735 -0.20011
 C41 C 0.31624 0.88404 -0.20935
 H42 H 0.28036 0.89146 -0.16832
 H43 H 0.32535 0.88730 -0.22490
 N44 N 0.30616 0.82006 -0.13211
 N45 N 0.32042 0.80297 -0.13376
 C46 C 0.31697 0.78868 -0.11629
 C47 C 0.29986 0.79725 -0.10298
 C48 C 0.29333 0.81716 -0.11349
 H49 H 0.32633 0.77325 -0.11324
 H50 H 0.28012 0.82857 -0.10812
 H51 H 0.31734 0.81852 -0.17371
 H52 H 0.33834 0.83541 -0.15723
 N53 N 0.86687 0.30479 -0.18096
 N54 N 0.86626 0.32055 -0.19672
 C55 C 0.88377 0.31749 -0.21096
 C56 C 0.89609 0.29904 -0.20354
 C57 C 0.88484 0.29131 -0.18450
 H58 H 0.88771 0.32822 -0.22530
 H59 H 0.88945 0.27709 -0.17390
 Cu60 Cu 0.84340 0.34427 -0.19634
 Cu61 Cu 0.84488 0.30331 -0.15660
 Cu62 Cu 0.80439 0.34562 -0.15475
 N63 N 0.82113 0.36845 -0.19440
 N64 N 0.80554 0.36853 -0.17855
 C65 C 0.79219 0.38678 -0.18142
 C66 C 0.79998 0.39895 -0.19985
 C67 C 0.81842 0.38683 -0.20771
 H68 H 0.77806 0.39113 -0.17067
 H69 H 0.82896 0.39091 -0.22208
 N70 N 0.80608 0.32094 -0.13219
 N71 N 0.82128 0.30461 -0.13321
 C72 C 0.81825 0.29044 -0.11557
 C73 C 0.80053 0.29834 -0.10268
 C74 C 0.79312 0.31769 -0.11370
 H75 H 0.82844 0.27566 -0.11200
 H76 H 0.77936 0.32857 -0.10861
 H77 H 0.81908 0.32008 -0.17338
 H78 H 0.83835 0.33779 -0.15578
 N79 N 0.86891 0.80607 0.32280
 N80 N 0.86922 0.82255 0.30778
 C81 C 0.88755 0.82016 0.29451
 C82 C 0.89926 0.80115 0.30166
 C83 C 0.88694 0.79260 0.31954
 H84 H 0.89187 0.83120 0.28055
 H85 H 0.89087 0.77769 0.32947
 Cu86 Cu 0.84540 0.84520 0.30666
 Cu87 Cu 0.84534 0.80341 0.34552
 Cu88 Cu 0.80227 0.84312 0.34376
 N89 N 0.82056 0.86671 0.30528
 N90 N 0.80390 0.86598 0.31996
 C91 C 0.78924 0.88281 0.31533
 C92 C 0.79707 0.89465 0.29670
 C93 C 0.81702 0.88395 0.29071
 H94 H 0.77397 0.88619 0.32476
 H95 H 0.82821 0.88841 0.27696
 N96 N 0.80364 0.81863 0.36649
 N97 N 0.82007 0.80352 0.36711
 C98 C 0.81639 0.78915 0.38446
 C99 C 0.79672 0.79542 0.39521
 C100 C 0.78903 0.81420 0.38343
 H101 H 0.82722 0.77512 0.38906
 H102 H 0.77407 0.82403 0.38701
 H103 H 0.82046 0.81894 0.32628
 H104 H 0.83654 0.83728 0.34632
 N105 N 0.63499 0.69761 0.31771
 N106 N 0.63563 0.68200 0.30188
 C107 C 0.61884 0.68583 0.28693
 C108 C 0.60705 0.70485 0.29381
 C109 C 0.61773 0.71185 0.31341
 H110 H 0.61539 0.67545 0.27228
 H111 H 0.61321 0.72624 0.32376
 Cu112 Cu 0.65819 0.65807 0.30210
 Cu113 Cu 0.65664 0.69830 0.34257
 Cu114 Cu 0.69902 0.65787 0.34192
 N115 N 0.68243 0.63584 0.30197
 N116 N 0.69853 0.63607 0.31730
 C117 C 0.71298 0.61896 0.31321
 C118 C 0.70550 0.60741 0.29425
 C119 C 0.68609 0.61854 0.28760
 H120 H 0.72759 0.61506 0.32349
 H121 H 0.67543 0.61422 0.27337
 N122 N 0.69664 0.68122 0.36555
 N123 N 0.68017 0.69627 0.36617
 C124 C 0.68269 0.70920 0.38481
 C125 C 0.70171 0.70190 0.39638
 C126 C 0.71015 0.68427 0.38366
 H127 H 0.67161 0.72294 0.38953
 H128 H 0.72491 0.67421 0.38759
 H129 H 0.68223 0.68315 0.32420
 H130 H 0.66472 0.66426 0.34252
 N131 N 0.63261 0.19495 -0.17932
 N132 N 0.63211 0.17833 -0.19409
 C133 C 0.61364 0.18066 -0.20725
 C134 C 0.60206 0.19982 -0.20032
 C135 C 0.61462 0.20848 -0.18267
 H136 H 0.60911 0.16945 -0.22096
 H137 H 0.61080 0.22345 -0.17287
 Cu138 Cu 0.65604 0.15568 -0.19491
 Cu139 Cu 0.65618 0.19757 -0.15648
 Cu140 Cu 0.69870 0.15720 -0.15731
 N141 N 0.68016 0.13325 -0.19537
 N142 N 0.69691 0.13412 -0.18077
 C143 C 0.71147 0.11715 -0.18504
 C144 C 0.70339 0.10494 -0.20336
 C145 C 0.68348 0.11560 -0.20943
 H146 H 0.72672 0.11403 -0.17546
 H147 H 0.67241 0.11090 -0.22321
 N148 N 0.69753 0.18189 -0.13492
 N149 N 0.68140 0.19733 -0.13470
 C150 C 0.68512 0.21166 -0.11738
 C151 C 0.70447 0.20497 -0.10619
 C152 C 0.71194 0.18602 -0.11773
 H153 H 0.67446 0.22586 -0.11301
 H154 H 0.72661 0.17586 -0.11381
 H155 H 0.68110 0.18164 -0.17511
 H156 H 0.66448 0.16356 -0.15524
 N157 N 0.13332 0.69677 -0.18152
 N158 N 0.13401 0.68172 -0.19789
 C159 C 0.11677 0.68559 -0.21231
 C160 C 0.10472 0.70407 -0.20448
 C161 C 0.11561 0.71064 -0.18490
 H162 H 0.11321 0.67568 -0.22728
 H163 H 0.11111 0.72470 -0.17408
 Cu164 Cu 0.15749 0.65869 -0.19864
 Cu165 Cu 0.15584 0.69788 -0.15753
 Cu166 Cu 0.19796 0.65706 -0.15872
 N167 N 0.18075 0.63544 -0.19875
 N168 N 0.19661 0.63505 -0.18316
 C169 C 0.21065 0.61761 -0.18720
 C170 C 0.20314 0.60645 -0.20637
 C171 C 0.18412 0.61815 -0.21321
 H172 H 0.22511 0.61336 -0.17685
 H173 H 0.17361 0.61429 -0.22770
 N174 N 0.19632 0.68077 -0.13539
 N175 N 0.18019 0.69621 -0.13486
 C176 C 0.18386 0.71010 -0.11719
 C177 C 0.20319 0.70313 -0.10615
 C178 C 0.21066 0.68444 -0.11808
 H179 H 0.17339 0.72441 -0.11270
 H180 H 0.22545 0.67432 -0.11450
 H181 H 0.18161 0.68292 -0.17576
 H182 H 0.16375 0.66376 -0.15813
 N183 N 0.13609 0.19521 0.31758
 N184 N 0.13447 0.17763 0.30407
 C185 C 0.11690 0.18078 0.28989
 C186 C 0.10701 0.20138 0.29477
 C187 C 0.11962 0.21011 0.31248
 H188 H 0.11157 0.16899 0.27697
 H189 H 0.11693 0.22595 0.32120
 Cu190 Cu 0.15541 0.15227 0.30614
 Cu191 Cu 0.15912 0.19730 0.34104
 Cu192 Cu 0.19791 0.15355 0.34410
 N193 N 0.17808 0.12839 0.30763
 N194 N 0.19481 0.12920 0.32224
 C195 C 0.20830 0.11113 0.31919
 C196 C 0.19955 0.09823 0.30185
 C197 C 0.18034 0.10966 0.29482
 H198 H 0.22345 0.10761 0.32883
 H199 H 0.16916 0.10495 0.28114
 N200 N 0.19835 0.17958 0.36481
 N201 N 0.18363 0.19634 0.36365
 C202 C 0.18812 0.21126 0.38030
 C203 C 0.20654 0.20344 0.39248
 C204 C 0.21254 0.18337 0.38222
 H205 H 0.17845 0.22643 0.38356
 H206 H 0.22613 0.17224 0.38734
 H207 H 0.18242 0.17775 0.32387
 H208 H 0.16426 0.16297 0.34512
 N209 N 0.63424 0.30133 0.68258
 N210 N 0.63399 0.31767 0.69766
 C211 C 0.61664 0.31433 0.71200
 C212 C 0.60551 0.29487 0.70560
 C213 C 0.61712 0.28704 0.68682
 H214 H 0.61231 0.32520 0.72607
 H215 H 0.61325 0.27229 0.67677
 Cu216 Cu 0.65636 0.34172 0.69725
 Cu217 Cu 0.65611 0.30021 0.65807
 Cu218 Cu 0.69660 0.34221 0.65690
 N219 N 0.68038 0.36413 0.69716
 N220 N 0.69594 0.36426 0.68130
 C221 C 0.71036 0.38133 0.68525
 C222 C 0.70357 0.39245 0.70463
 C223 C 0.68443 0.38112 0.71180
 H224 H 0.72481 0.38538 0.67484
 H225 H 0.67422 0.38497 0.72647
 N226 N 0.69461 0.31837 0.63375
 N227 N 0.67955 0.30200 0.63451
 C228 C 0.68270 0.28823 0.61661
 C229 C 0.70040 0.29645 0.60389
 C230 C 0.70762 0.31555 0.61525
 H231 H 0.67265 0.27349 0.61280
 H232 H 0.72139 0.32650 0.61047
 H233 H 0.68125 0.31696 0.67566
 H234 H 0.66260 0.33451 0.65698
 N235 N 0.63427 0.80572 1.18361
 N236 N 0.63618 0.82163 1.19904
 C237 C 0.62107 0.81800 1.21564
 C238 C 0.60877 0.79905 1.21024
 C239 C 0.61753 0.79157 1.18976
 H240 H 0.61900 0.82839 1.23057
 H241 H 0.61248 0.77678 1.18031
 Cu242 Cu 0.65824 0.84543 1.19577
 Cu243 Cu 0.65471 0.80401 1.15746
 Cu244 Cu 0.69703 0.84486 1.15500
 N245 N 0.68151 0.86829 1.19476
 N246 N 0.69713 0.86767 1.17897
 C247 C 0.71131 0.88516 1.18200
 C248 C 0.70401 0.89744 1.20052
 C249 C 0.68512 0.88620 1.20830
 H250 H 0.72560 0.88896 1.17127
 H251 H 0.67482 0.89070 1.22273
 N252 N 0.69380 0.82053 1.13234
 N253 N 0.67739 0.80543 1.13277
 C254 C 0.67947 0.79184 1.11451
 C255 C 0.69808 0.79874 1.10216
 C256 C 0.70674 0.81683 1.11397
 H257 H 0.66844 0.77785 1.11065
 H258 H 0.72135 0.82669 1.10929
 H259 H 0.68129 0.81961 1.17357
 H260 H 0.66295 0.83779 1.15545
 N261 N 0.13163 0.30548 1.17867
 N262 N 0.13185 0.32111 1.19449
 C263 C 0.11381 0.31828 1.20807
 C264 C 0.10175 0.29982 1.20034
 C265 C 0.11359 0.29206 1.18177
 H266 H 0.10982 0.32876 1.22252
 H267 H 0.10920 0.27784 1.17115
 Cu268 Cu 0.15566 0.34365 1.19585
 Cu269 Cu 0.15422 0.30419 1.15478
 Cu270 Cu 0.19588 0.34515 1.15556
 N271 N 0.17898 0.36673 1.19574
 N272 N 0.19439 0.36749 1.17974
 C273 C 0.20776 0.38553 1.18318
 C274 C 0.20033 0.39662 1.20244
 C275 C 0.18215 0.38419 1.21003
 H276 H 0.22181 0.39017 1.17249
 H277 H 0.17179 0.38792 1.22463
 N278 N 0.19453 0.32111 1.13250
 N279 N 0.17849 0.30568 1.13205
 C280 C 0.18171 0.29219 1.11394
 C281 C 0.20072 0.29949 1.10251
 C282 C 0.20847 0.31772 1.11479
 H283 H 0.17104 0.27812 1.10943
 H284 H 0.22305 0.32793 1.11084
 H285 H 0.17991 0.31939 1.17288
 H286 H 0.16169 0.33839 1.15527
 N287 N 0.12988 0.80559 0.68022
 N288 N 0.13207 0.81934 0.69757
 C289 C 0.11473 0.81604 0.71196
 C290 C 0.10091 0.79949 0.70308
 C291 C 0.11107 0.79318 0.68292
 H292 H 0.11210 0.82516 0.72762
 H293 H 0.10535 0.78042 0.67117
 Cu294 Cu 0.15691 0.84078 0.69943
 Cu295 Cu 0.15168 0.80453 0.65559
 Cu296 Cu 0.19528 0.84324 0.65729
 N297 N 0.18084 0.86334 0.69914
 N298 N 0.19556 0.86435 0.68251
 C299 C 0.20965 0.88177 0.68616
 C300 C 0.20352 0.89221 0.70615
 C301 C 0.18512 0.88011 0.71397
 H302 H 0.22329 0.88666 0.67502
 H303 H 0.17534 0.88352 0.72904
 N304 N 0.19221 0.82054 0.63311
 N305 N 0.17542 0.80597 0.63228
 C306 C 0.17793 0.79285 0.61378
 C307 C 0.19726 0.79952 0.60250
 C308 C 0.20590 0.81702 0.61524
 H309 H 0.16672 0.77927 0.60906
 H310 H 0.22108 0.82644 0.61166
 H311 H 0.17877 0.81703 0.67365
 H312 H 0.16076 0.83813 0.65833
 N313 N 0.36934 0.69369 0.68063
 N314 N 0.37047 0.67642 0.69469
 C315 C 0.38893 0.67865 0.70785
 C316 C 0.39986 0.69838 0.70162
 C317 C 0.38694 0.70749 0.68439
 H318 H 0.39388 0.66697 0.72110
 H319 H 0.39017 0.72304 0.67526
 Cu320 Cu 0.34752 0.65293 0.69465
 Cu321 Cu 0.34525 0.69709 0.65848
 Cu322 Cu 0.30317 0.65664 0.65906
 N323 N 0.32339 0.63066 0.69503
 N324 N 0.30597 0.63242 0.68132
 C325 C 0.29184 0.61506 0.68513
 C326 C 0.30090 0.60162 0.70202
 C327 C 0.32093 0.61201 0.70801
 H328 H 0.27621 0.61223 0.67612
 H329 H 0.33275 0.60650 0.72087
 N330 N 0.30333 0.68235 0.63774
 N331 N 0.31950 0.69765 0.63738
 C332 C 0.31535 0.71245 0.62046
 C333 C 0.29566 0.70622 0.60971
 C334 C 0.28845 0.68706 0.62109
 H335 H 0.32601 0.72657 0.61598
 H336 H 0.27380 0.67697 0.61719
 H337 H 0.32147 0.67999 0.67747
 H338 H 0.33726 0.66316 0.65584
 N339 N 0.37089 0.19100 1.17892
 N340 N 0.36979 0.17548 1.19489
 C341 C 0.38769 0.17772 1.20879
 C342 C 0.40070 0.19543 1.20102
 C343 C 0.38955 0.20353 1.18203
 H344 H 0.39111 0.16724 1.22345
 H345 H 0.39435 0.21775 1.17156
 Cu346 Cu 0.34539 0.15358 1.19581
 Cu347 Cu 0.34752 0.19459 1.15604
 Cu348 Cu 0.30383 0.15588 1.15680
 N349 N 0.32161 0.13102 1.19474
 N350 N 0.30525 0.13219 1.17972
 C351 C 0.29127 0.11454 1.18273
 C352 C 0.29942 0.10148 1.20037
 C353 C 0.31870 0.11243 1.20766
 H354 H 0.27646 0.11118 1.17259
 H355 H 0.32979 0.10726 1.22129
 N356 N 0.30541 0.18103 1.13490
 N357 N 0.32224 0.19557 1.13440
 C358 C 0.31877 0.21037 1.11733
 C359 C 0.29883 0.20491 1.10663
 C360 C 0.29077 0.18621 1.11818
 H361 H 0.32991 0.22412 1.11289
 H362 H 0.27557 0.17687 1.11452
 H363 H 0.32173 0.18005 1.17457
 H364 H 0.33832 0.16083 1.15571
 N365 N 0.87079 0.69263 1.17664
 N366 N 0.87183 0.67612 1.19159
 C367 C 0.88977 0.67946 1.20523
 C368 C 0.90044 0.69913 1.19838
 C369 C 0.88791 0.70705 1.18030
 H370 H 0.89455 0.66854 1.21917
 H371 H 0.89115 0.72214 1.17044
 Cu372 Cu 0.84947 0.65204 1.19206
 Cu373 Cu 0.84774 0.69403 1.15323
 Cu374 Cu 0.80611 0.65321 1.15496
 N375 N 0.82536 0.62973 1.19308
 N376 N 0.80824 0.63065 1.17892
 C377 C 0.79410 0.61345 1.18339
 C378 C 0.80287 0.60098 1.20115
 C379 C 0.82272 0.61180 1.20698
 H380 H 0.77873 0.60998 1.17415
 H381 H 0.83431 0.60703 1.22033
 N382 N 0.80693 0.67733 1.13189
 N383 N 0.82303 0.69266 1.13098
 C384 C 0.81955 0.70605 1.11277
 C385 C 0.80030 0.69876 1.10175
 C386 C 0.79269 0.68065 1.11437
 H387 H 0.83024 0.72000 1.10789
 H388 H 0.77807 0.67041 1.11071
 H389 H 0.82365 0.67771 1.17258
 H390 H 0.84025 0.65984 1.15242
 N391 N 0.86683 0.19674 0.68045
 N392 N 0.86707 0.18070 0.69594
 C393 C 0.88427 0.18445 0.71039
 C394 C 0.89538 0.20384 0.70347
 C395 C 0.88393 0.21111 0.68440
 H396 H 0.88847 0.17382 0.72474
 H397 H 0.88772 0.22589 0.67427
 Cu398 Cu 0.84494 0.15645 0.69562
 Cu399 Cu 0.84400 0.19832 0.65677
 Cu400 Cu 0.80331 0.15641 0.65678
 N401 N 0.82177 0.13318 0.69548
 N402 N 0.80538 0.13351 0.68045
 C403 C 0.79158 0.11589 0.68424
 C404 C 0.79982 0.10375 0.70248
 C405 C 0.81901 0.11519 0.70927
 H406 H 0.77677 0.11195 0.67431
 H407 H 0.82999 0.11085 0.72327
 N408 N 0.80405 0.18097 0.63420
 N409 N 0.81947 0.19702 0.63426
 C410 C 0.81526 0.21144 0.61702
 C411 C 0.79629 0.20403 0.60560
 C412 C 0.78972 0.18467 0.61685
 H413 H 0.82532 0.22612 0.61300
 H414 H 0.77542 0.17416 0.61268
 H415 H 0.81944 0.18153 0.67499
 H416 H 0.83731 0.16407 0.65564
 N417 N 0.30506 0.36819 0.67884
 N418 N 0.32124 0.36819 0.69410
 C419 C 0.31871 0.38635 0.70764
 C420 C 0.29986 0.39824 0.70043
 C421 C 0.29156 0.38619 0.68226
 H422 H 0.32978 0.39066 0.72153
 H423 H 0.27704 0.39050 0.67200
 Cu424 Cu 0.34429 0.34474 0.69398
 Cu425 Cu 0.30365 0.34600 0.65452
 Cu426 Cu 0.34639 0.30565 0.65290
 N427 N 0.36757 0.32153 0.69384
 N428 N 0.36872 0.30669 0.67729
 C429 C 0.38682 0.29326 0.68060
 C430 C 0.39751 0.30005 0.70034
 C431 C 0.38479 0.31793 0.70833
 H432 H 0.39164 0.27946 0.66960
 H433 H 0.38814 0.32776 0.72339
 N434 N 0.32201 0.30740 0.63004
 N435 N 0.30538 0.32227 0.63120
 C436 C 0.29122 0.31893 0.61368
 C437 C 0.29937 0.30134 0.60076
 C438 C 0.31891 0.29432 0.61159
 H439 H 0.27621 0.32879 0.61025
 H440 H 0.32990 0.28062 0.60654
 H441 H 0.32051 0.32011 0.67111
 H442 H 0.33792 0.33956 0.65347
 N443 N 0.30487 0.86528 0.18031
 N444 N 0.32127 0.86519 0.19535
 C445 C 0.31742 0.88178 0.21057
 C446 C 0.29757 0.89274 0.20459
 C447 C 0.29015 0.88183 0.18536
 H448 H 0.32832 0.88572 0.22471
 H449 H 0.27518 0.88587 0.17565
 Cu450 Cu 0.34618 0.84354 0.19339
 Cu451 Cu 0.30383 0.84449 0.15492
 Cu452 Cu 0.34557 0.80382 0.15233
 N453 N 0.36879 0.81944 0.19203
 N454 N 0.36785 0.80365 0.17639
 C455 C 0.38490 0.78893 0.17949
 C456 C 0.39742 0.79592 0.19784
 C457 C 0.38676 0.81536 0.20552
 H458 H 0.38827 0.77440 0.16890
 H459 H 0.39162 0.82561 0.21987
 N460 N 0.32172 0.80662 0.12939
 N461 N 0.30561 0.82201 0.13047
 C462 C 0.29181 0.81954 0.11250
 C463 C 0.29974 0.80192 0.09944
 C464 C 0.31871 0.79405 0.11063
 H465 H 0.27711 0.82985 0.10901
 H466 H 0.32938 0.78008 0.10562
 H467 H 0.32093 0.81918 0.17196
 H468 H 0.33804 0.83809 0.15317
 N469 N 0.80745 0.36900 0.17888
 N470 N 0.82412 0.36950 0.19359
 C471 C 0.82129 0.38738 0.20743
 C472 C 0.80182 0.39866 0.20097
 C473 C 0.79343 0.38647 0.18291
 H474 H 0.83253 0.39186 0.22112
 H475 H 0.77848 0.39038 0.17312
 Cu476 Cu 0.84809 0.34696 0.19302
 Cu477 Cu 0.80587 0.34658 0.15481
 Cu478 Cu 0.84813 0.30597 0.15347
 N479 N 0.87105 0.32339 0.19266
 N480 N 0.87084 0.30727 0.17734
 C481 C 0.88840 0.29325 0.18103
 C482 C 0.90034 0.30106 0.19953
 C483 C 0.88884 0.32020 0.20657
 H484 H 0.89240 0.27857 0.17087
 H485 H 0.89300 0.33088 0.22081
 N486 N 0.82368 0.30749 0.13081
 N487 N 0.80729 0.32263 0.13168
 C488 C 0.79323 0.31931 0.11405
 C489 C 0.80124 0.30143 0.10138
 C490 C 0.82056 0.29426 0.11249
 H491 H 0.77843 0.32940 0.11035
 H492 H 0.83149 0.28045 0.10762
 H493 H 0.82319 0.32159 0.17226
 H494 H 0.84011 0.34006 0.15301
 N495 N 0.80373 0.86697 0.68063
 N496 N 0.81965 0.86681 0.69616
 C497 C 0.81613 0.88409 0.71061
 C498 C 0.79700 0.89569 0.70368
 C499 C 0.78962 0.88439 0.68461
 H500 H 0.82674 0.88795 0.72500
 H501 H 0.77501 0.88858 0.67442
 Cu502 Cu 0.84346 0.84406 0.69633
 Cu503 Cu 0.80257 0.84474 0.65640
 Cu504 Cu 0.84310 0.80253 0.65713
 N505 N 0.86497 0.81913 0.69714
 N506 N 0.86461 0.80285 0.68200
 C507 C 0.88107 0.78783 0.68677
 C508 C 0.89235 0.79515 0.70594
 C509 C 0.88176 0.81505 0.71201
 H510 H 0.88470 0.77291 0.67685
 H511 H 0.88603 0.82572 0.72625
 N512 N 0.81995 0.80495 0.63331
 N513 N 0.80422 0.82079 0.63328
 C514 C 0.79070 0.81773 0.61518
 C515 C 0.79840 0.79926 0.60318
 C516 C 0.81696 0.79151 0.61514
 H517 H 0.77638 0.82826 0.61083
 H518 H 0.82737 0.77705 0.61104
 H519 H 0.81820 0.81951 0.67505
 H520 H 0.83654 0.83698 0.65611
 N521 N 0.69553 0.63426 0.68246
 N522 N 0.67887 0.63364 0.69715
 C523 C 0.68222 0.61620 0.71151
 C524 C 0.70202 0.60540 0.70558
 C525 C 0.71004 0.61727 0.68700
 H526 H 0.67117 0.61166 0.72534
 H527 H 0.72519 0.61380 0.67740
 Cu528 Cu 0.65475 0.65601 0.69630
 Cu529 Cu 0.69718 0.65701 0.65854
 Cu530 Cu 0.65458 0.69735 0.65702
 N531 N 0.63080 0.67855 0.69513
 N532 N 0.63107 0.69491 0.67998
 C533 C 0.61308 0.70845 0.68324
 C534 C 0.60082 0.70009 0.70129
 C535 C 0.61255 0.68110 0.70848
 H536 H 0.60912 0.72331 0.67321
 H537 H 0.60830 0.67015 0.72253
 N538 N 0.67979 0.69687 0.63524
 N539 N 0.69588 0.68139 0.63571
 C540 C 0.71033 0.68537 0.61855
 C541 C 0.70305 0.70424 0.60680
 C542 C 0.68362 0.71113 0.61780
 H543 H 0.72508 0.67528 0.61474
 H544 H 0.67293 0.72528 0.61331
 H545 H 0.67963 0.68179 0.67585
 H546 H 0.66290 0.66337 0.65638
 N547 N 0.69737 0.13374 0.18280
 N548 N 0.68067 0.13321 0.19745
 C549 C 0.68423 0.11613 0.21219
 C550 C 0.70413 0.10540 0.20645
 C551 C 0.71207 0.11702 0.18769
 H552 H 0.67307 0.11157 0.22591
 H553 H 0.72716 0.11339 0.17807
 Cu554 Cu 0.65598 0.15491 0.19566
 Cu555 Cu 0.69840 0.15542 0.15788
 Cu556 Cu 0.65467 0.19440 0.15460
 N557 N 0.63174 0.17715 0.19395
 N558 N 0.63163 0.19281 0.17807
 C559 C 0.61351 0.20627 0.18091
 C560 C 0.60155 0.19857 0.19943
 C561 C 0.61363 0.18011 0.20741
 H562 H 0.60924 0.22060 0.17027
 H563 H 0.60962 0.16970 0.22191
 N564 N 0.67953 0.19325 0.13247
 N565 N 0.69635 0.17864 0.13391
 C566 C 0.71054 0.18210 0.11641
 C567 C 0.70214 0.19952 0.10326
 C568 C 0.68249 0.20628 0.11393
 H569 H 0.72570 0.17244 0.11317
 H570 H 0.67121 0.21967 0.10862
 H571 H 0.68009 0.18034 0.17398
 H572 H 0.66392 0.16059 0.15543
 N573 N 0.19488 0.63290 0.18027
 N574 N 0.17918 0.63309 0.19600
 C575 C 0.18316 0.61611 0.21077
 C576 C 0.20239 0.60481 0.20398
 C577 C 0.20940 0.61587 0.18451
 H578 H 0.17287 0.61215 0.22538
 H579 H 0.22381 0.61177 0.17407
 Cu580 Cu 0.15514 0.65547 0.19536
 Cu581 Cu 0.19521 0.65453 0.15527
 Cu582 Cu 0.15231 0.69470 0.15425
 N583 N 0.13111 0.67787 0.19477
 N584 N 0.12997 0.69301 0.17843
 C585 C 0.11159 0.70604 0.18154
 C586 C 0.10071 0.69868 0.20095
 C587 C 0.11357 0.68089 0.20897
 H588 H 0.10669 0.71990 0.17060
 H589 H 0.11018 0.67081 0.22390
 N590 N 0.17650 0.69346 0.13139
 N591 N 0.19254 0.67791 0.13152
 C592 C 0.20605 0.68119 0.11346
 C593 C 0.19815 0.69974 0.10149
 C594 C 0.17951 0.70714 0.11335
 H595 H 0.22064 0.67098 0.10943
 H596 H 0.16883 0.72134 0.10893
 H597 H 0.17857 0.68017 0.17226
 H598 H 0.16084 0.66078 0.15479
 N599 N 0.19603 0.13271 0.68098
 N600 N 0.17878 0.13154 0.69491
 C601 C 0.18104 0.11297 0.70802
 C602 C 0.20078 0.10200 0.70190
 C603 C 0.20988 0.11503 0.68480
 H604 H 0.16929 0.10788 0.72107
 H605 H 0.22531 0.11169 0.67562
 Cu606 Cu 0.15508 0.15445 0.69467
 Cu607 Cu 0.19889 0.15646 0.65835
 Cu608 Cu 0.15815 0.19850 0.65835
 N609 N 0.13297 0.17889 0.69500
 N610 N 0.13451 0.19621 0.68107
 C611 C 0.11727 0.21054 0.68494
 C612 C 0.10412 0.20168 0.70208
 C613 C 0.11458 0.18158 0.70816
 H614 H 0.11425 0.22611 0.67573
 H615 H 0.10926 0.16984 0.72116
 N616 N 0.18336 0.19783 0.63664
 N617 N 0.19891 0.18182 0.63669
 C618 C 0.21336 0.18559 0.61950
 C619 C 0.20658 0.20484 0.60808
 C620 C 0.18750 0.21222 0.61939
 H621 H 0.22756 0.17492 0.61522
 H622 H 0.17714 0.22668 0.61514
 H623 H 0.18163 0.18050 0.67705
 H624 H 0.16492 0.16427 0.65569
 N625 N 0.30224 0.63401 0.31995
 N626 N 0.31880 0.63338 0.30514
 C627 C 0.31627 0.61506 0.29183
 C628 C 0.29705 0.60369 0.29869
 C629 C 0.28854 0.61624 0.31646
 H630 H 0.32752 0.61036 0.27821
 H631 H 0.27370 0.61243 0.32639
 Cu632 Cu 0.34203 0.65657 0.30476
 Cu633 Cu 0.30031 0.65708 0.34343
 Cu634 Cu 0.34269 0.69735 0.34434
 N635 N 0.36554 0.67947 0.30535
 N636 N 0.36579 0.69524 0.32103
 C637 C 0.38348 0.70899 0.31747
 C638 C 0.39489 0.70156 0.29851
 C639 C 0.38310 0.68271 0.29122
 H640 H 0.38760 0.72357 0.32771
 H641 H 0.38690 0.67225 0.27671
 N642 N 0.31786 0.69680 0.36643
 N643 N 0.30149 0.68173 0.36589
 C644 C 0.28707 0.68594 0.38304
 C645 C 0.29481 0.70456 0.39489
 C646 C 0.31431 0.71095 0.38394
 H647 H 0.27227 0.67601 0.38680
 H648 H 0.32512 0.72492 0.38852
 H649 H 0.31732 0.68196 0.32586
 H650 H 0.33447 0.66326 0.34481
 N651 N 0.30289 0.13256 0.81987
 N652 N 0.31886 0.13219 0.80442
 C653 C 0.31494 0.11500 0.79000
 C654 C 0.29546 0.10414 0.79670
 C655 C 0.28824 0.11570 0.81577
 H656 H 0.32537 0.11068 0.77561
 H657 H 0.27365 0.11199 0.82609
 Cu658 Cu 0.34267 0.15475 0.80460
 Cu659 Cu 0.30257 0.15448 0.84456
 Cu660 Cu 0.34545 0.19446 0.84496
 N661 N 0.36630 0.17750 0.80430
 N662 N 0.36713 0.19314 0.82010
 C663 C 0.38446 0.20715 0.81575
 C664 C 0.39503 0.19989 0.79613
 C665 C 0.38311 0.18104 0.78937
 H666 H 0.38893 0.22153 0.82610
 H667 H 0.38636 0.17087 0.77451
 N668 N 0.32186 0.19292 0.86850
 N669 N 0.30534 0.17799 0.86810
 C670 C 0.29190 0.18143 0.88617
 C671 C 0.30042 0.19919 0.89860
 C672 C 0.31941 0.20615 0.88693
 H673 H 0.27706 0.17163 0.89021
 H674 H 0.33050 0.21989 0.89142
 H675 H 0.31921 0.17987 0.82730
 H676 H 0.33684 0.16060 0.84509
 N677 N 0.80399 0.63037 0.82185
 N678 N 0.81989 0.63020 0.80631
 C679 C 0.81713 0.61191 0.79297
 C680 C 0.79845 0.60011 0.80060
 C681 C 0.79050 0.61236 0.81883
 H682 H 0.82773 0.60764 0.77869
 H683 H 0.77611 0.60825 0.82930
 Cu684 Cu 0.84206 0.65440 0.80497
 Cu685 Cu 0.80257 0.65328 0.84556
 Cu686 Cu 0.84286 0.69579 0.84382
 N687 N 0.86419 0.67863 0.80350
 N688 N 0.86419 0.69498 0.81860
 C689 C 0.88078 0.70968 0.81358
 C690 C 0.89176 0.70209 0.79431
 C691 C 0.88085 0.68234 0.78844
 H692 H 0.88469 0.72458 0.82340
 H693 H 0.88485 0.67154 0.77421
 N694 N 0.81978 0.69363 0.86789
 N695 N 0.80410 0.67781 0.86813
 C696 C 0.79080 0.68091 0.88636
 C697 C 0.79856 0.69935 0.89829
 C698 C 0.81694 0.70709 0.88611
 H699 H 0.77667 0.67033 0.89096
 H700 H 0.82739 0.72148 0.89016
 H701 H 0.81744 0.67895 0.82710
 H702 H 0.83645 0.66144 0.84529
 N703 N 0.80131 0.13648 0.31590
 N704 N 0.81769 0.13614 0.30087
 C705 C 0.81408 0.11911 0.28621
 C706 C 0.79444 0.10825 0.29237
 C707 C 0.78674 0.11969 0.31131
 H708 H 0.82497 0.11471 0.27219
 H709 H 0.77195 0.11587 0.32129
 Cu710 Cu 0.84181 0.15823 0.30230
 Cu711 Cu 0.80056 0.15806 0.34087
 Cu712 Cu 0.84377 0.19775 0.34269
 N713 N 0.86546 0.18087 0.30239
 N714 N 0.86594 0.19654 0.31818
 C715 C 0.88334 0.21056 0.31415
 C716 C 0.89432 0.20324 0.29476
 C717 C 0.88257 0.18437 0.28781
 H718 H 0.88764 0.22492 0.32458
 H719 H 0.88617 0.17414 0.27306
 N720 N 0.81965 0.19601 0.36574
 N721 N 0.80300 0.18124 0.36475
 C722 C 0.78928 0.18443 0.38266
 C723 C 0.79776 0.20182 0.39561
 C724 C 0.81701 0.20885 0.38440
 H725 H 0.77437 0.17460 0.38631
 H726 H 0.82821 0.22233 0.38942
 H727 H 0.81790 0.18345 0.32430
 H728 H 0.83484 0.16401 0.34256
 N729 N 0.69718 0.36460 0.31679
 N730 N 0.67967 0.36648 0.30323
 C731 C 0.68303 0.38395 0.28892
 C732 C 0.70374 0.39344 0.29379
 C733 C 0.71229 0.38072 0.31159
 H734 H 0.67122 0.38952 0.27604
 H735 H 0.72809 0.38315 0.32038
 Cu736 Cu 0.65393 0.34630 0.30564
 Cu737 Cu 0.69872 0.34222 0.34090
 Cu738 Cu 0.65717 0.30159 0.34133
 N739 N 0.63348 0.32073 0.30337
 N740 N 0.63498 0.30327 0.31714
 C741 C 0.61883 0.28823 0.31186
 C742 C 0.60650 0.29679 0.29381
 C743 C 0.61623 0.31743 0.28888
 H744 H 0.61616 0.27243 0.32071
 H745 H 0.61103 0.32920 0.27578
 N746 N 0.68114 0.30287 0.36436
 N747 N 0.69723 0.31823 0.36400
 C748 C 0.71132 0.31450 0.38155
 C749 C 0.70367 0.29588 0.39350
 C750 C 0.68448 0.28903 0.38222
 H751 H 0.72592 0.32469 0.38542
 H752 H 0.67386 0.27486 0.38668
 H753 H 0.68033 0.31933 0.32189
 H754 H 0.66462 0.33571 0.34415
 N755 N 0.69576 0.86806 0.82040
 N756 N 0.67982 0.86839 0.80487
 C757 C 0.68290 0.88643 0.79122
 C758 C 0.70180 0.89794 0.79864
 C759 C 0.70957 0.88577 0.81708
 H760 H 0.67225 0.89083 0.77697
 H761 H 0.72396 0.88983 0.82757
 Cu762 Cu 0.65687 0.84499 0.80405
 Cu763 Cu 0.69661 0.84564 0.84469
 Cu764 Cu 0.65480 0.80471 0.84421
 N765 N 0.63380 0.82170 0.80358
 N766 N 0.63330 0.80582 0.81923
 C767 C 0.61614 0.79164 0.81485
 C768 C 0.60531 0.79905 0.79537
 C769 C 0.61689 0.81818 0.78873
 H770 H 0.61182 0.77719 0.82521
 H771 H 0.61326 0.82862 0.77408
 N772 N 0.67811 0.80640 0.86800
 N773 N 0.69436 0.82162 0.86786
 C774 C 0.70760 0.81831 0.88615
 C775 C 0.69918 0.80036 0.89847
 C776 C 0.68051 0.79313 0.88647
 H777 H 0.72214 0.82842 0.89049
 H778 H 0.66955 0.77920 0.89080
 H779 H 0.68081 0.82021 0.82690
 H780 H 0.66251 0.83887 0.84457
 N781 N 0.19293 0.36897 0.82265
 N782 N 0.17682 0.36919 0.80731
 C783 C 0.17956 0.38734 0.79371
 C784 C 0.19848 0.39896 0.80094
 C785 C 0.20655 0.38681 0.81924
 H786 H 0.16880 0.39161 0.77952
 H787 H 0.22113 0.39086 0.82947
 Cu788 Cu 0.15430 0.34532 0.80663
 Cu789 Cu 0.19464 0.34623 0.84656
 Cu790 Cu 0.15371 0.30440 0.84622
 N791 N 0.13173 0.32151 0.80613
 N792 N 0.13182 0.30538 0.82154
 C793 C 0.11508 0.29074 0.81706
 C794 C 0.10388 0.29812 0.79780
 C795 C 0.11480 0.31772 0.79139
 H796 H 0.11131 0.27594 0.82716
 H797 H 0.11079 0.32823 0.77690
 N798 N 0.17737 0.30631 0.86965
 N799 N 0.19330 0.32187 0.86939
 C800 C 0.20700 0.31860 0.88734
 C801 C 0.19922 0.30031 0.89956
 C802 C 0.18043 0.29285 0.88787
 H803 H 0.22142 0.32894 0.89152
 H804 H 0.16987 0.27863 0.89225
 H805 H 0.17903 0.32064 0.82869
 H806 H 0.16065 0.33867 0.84695
 N807 N 0.19446 0.86707 0.32202
 N808 N 0.17763 0.86823 0.30752
 C809 C 0.18076 0.88611 0.29366
 C810 C 0.20067 0.89663 0.29985
 C811 C 0.20893 0.88406 0.31780
 H812 H 0.16950 0.89103 0.28008
 H813 H 0.22414 0.88735 0.32737
 Cu814 Cu 0.15346 0.84606 0.30829
 Cu815 Cu 0.19587 0.84434 0.34604
 Cu816 Cu 0.15235 0.80521 0.34782
 N817 N 0.12930 0.82387 0.30907
 N818 N 0.12925 0.80769 0.32441
 C819 C 0.11132 0.79424 0.32094
 C820 C 0.09940 0.80250 0.30258
 C821 C 0.11126 0.82134 0.29538
 H822 H 0.10718 0.77954 0.33105
 H823 H 0.10731 0.83208 0.28104
 N824 N 0.17724 0.80553 0.37000
 N825 N 0.19404 0.82012 0.36909
 C826 C 0.20810 0.81615 0.38664
 C827 C 0.19964 0.79841 0.39927
 C828 C 0.18010 0.79202 0.38821
 H829 H 0.22313 0.82576 0.39036
 H830 H 0.16875 0.77861 0.39312
 H831 H 0.17782 0.81989 0.32903
 H832 H 0.16158 0.83894 0.34822
 C833 C 0.25973 1.01927 0.24236
 C834 C 0.24082 1.01865 0.25693
 C835 C 0.23225 0.99760 0.26393
 C836 C 0.24191 0.97716 0.25650
 C837 C 0.26080 0.97791 0.24191
 C838 C 0.26924 0.99885 0.23478
 H839 H 0.28317 0.99917 0.22290
 H840 H 0.21837 0.99714 0.27586
 C841 C 0.26039 0.52039 0.74498
 C842 C 0.24073 0.52020 0.75856
 C843 C 0.23074 0.49954 0.76435
 C844 C 0.24025 0.47888 0.75752
 C845 C 0.26017 0.47894 0.74437
 C846 C 0.26986 0.49970 0.73806
 H847 H 0.28427 0.49976 0.72679
 H848 H 0.21592 0.49960 0.77510
 C849 C 0.76175 -0.02061 0.25948
 C850 C 0.74364 -0.02144 0.24391
 C851 C 0.73421 -0.00106 0.23594
 C852 C 0.74242 0.01996 0.24308
 C853 C 0.76015 0.02066 0.25921
 C854 C 0.76966 0.00036 0.26701
 H855 H 0.78317 0.00085 0.27942
 H856 H 0.72076 -0.00150 0.22349
 C857 C 0.75843 0.47780 0.75654
 C858 C 0.73974 0.47806 0.74164
 C859 C 0.73093 0.49875 0.73414
 C860 C 0.74014 0.51935 0.74120
 C861 C 0.75871 0.51930 0.75631
 C862 C 0.76763 0.49848 0.76377
 H863 H 0.78134 0.49836 0.77593
 H864 H 0.71688 0.49880 0.72234
 C865 C 0.26028 0.47968 0.25835
 C866 C 0.24260 0.47845 0.24231
 C867 C 0.23309 0.49861 0.23396
 C868 C 0.24142 0.51979 0.24047
 C869 C 0.25963 0.52098 0.25594
 C870 C 0.26886 0.50082 0.26462
 H871 H 0.28239 0.50154 0.27698
 H872 H 0.21920 0.49782 0.22201
 C873 C 0.76055 1.02211 0.74541
 C874 C 0.74171 1.02086 0.76007
 C875 C 0.73272 0.99966 0.76566
 C876 C 0.74233 0.97954 0.75736
 C877 C 0.76129 0.98084 0.74291
 C878 C 0.76994 1.00202 0.73686
 H879 H 0.78384 1.00283 0.72496
 H880 H 0.71849 0.99886 0.77716
 C881 C 0.76294 0.52081 0.24651
 C882 C 0.74344 0.52078 0.26033
 C883 C 0.73358 0.50017 0.26650
 C884 C 0.74314 0.47949 0.26002
 C885 C 0.76262 0.47934 0.24617
 C886 C 0.77226 0.50005 0.23959
 H887 H 0.78639 0.50002 0.22796
 H888 H 0.71868 0.50022 0.27716
 C889 C 0.25473 -0.02257 0.76159
 C890 C 0.23778 -0.02179 0.74471
 C891 C 0.22998 -0.00074 0.73693
 C892 C 0.23849 0.01961 0.74573
 C893 C 0.25580 0.01879 0.76225
 C894 C 0.26373 -0.00224 0.76987
 H895 H 0.27720 -0.00278 0.78232
 H896 H 0.21726 -0.00021 0.72371
 C897 C 0.24101 0.25589 1.02138
 C898 C 0.26048 0.24200 1.02107
 C899 C 0.27012 0.23594 1.00025
 C900 C 0.26044 0.24281 0.97958
 C901 C 0.24071 0.25626 0.97981
 C902 C 0.23136 0.26282 1.00070
 H903 H 0.21707 0.27427 1.00086
 H904 H 0.28477 0.22494 1.00020
 C905 C 0.23788 0.75406 0.52263
 C906 C 0.25726 0.74002 0.52287
 C907 C 0.26698 0.73330 0.50231
 C908 C 0.25740 0.73945 0.48145
 C909 C 0.23819 0.75369 0.48104
 C910 C 0.22868 0.76080 0.50168
 H911 H 0.21470 0.77265 0.50143
 H912 H 0.28175 0.72243 0.50254
 C913 C 0.25758 0.75641 -0.02158
 C914 C 0.24138 0.73894 -0.02075
 C915 C 0.23348 0.73126 0.00026
 C916 C 0.24186 0.74007 0.02066
 C917 C 0.25842 0.75717 0.01996
 C918 C 0.26606 0.76514 -0.00114
 H919 H 0.27867 0.77836 -0.00164
 H920 H 0.22052 0.71836 0.00070
 C921 C 0.25628 0.25872 0.47909
 C922 C 0.24072 0.24062 0.47929
 C923 C 0.23361 0.23161 0.50008
 C924 C 0.24106 0.24064 0.52070
 C925 C 0.25721 0.25817 0.52065
 C926 C 0.26446 0.26713 0.49980
 H927 H 0.27688 0.28054 0.49971
 H928 H 0.22163 0.21777 0.50023
 C929 C 0.73805 0.75486 1.02126
 C930 C 0.75792 0.74160 1.02110
 C931 C 0.76753 0.73528 1.00025
 C932 C 0.75795 0.74217 0.97954
 C933 C 0.73820 0.75562 0.97968
 C934 C 0.72848 0.76178 1.00053
 H935 H 0.71400 0.77299 1.00066
 H936 H 0.78205 0.72412 1.00013
 C937 C 0.74367 0.25945 0.52092
 C938 C 0.76066 0.24265 0.51990
 C939 C 0.76834 0.23515 0.49874
 C940 C 0.75976 0.24426 0.47844
 C941 C 0.74246 0.26075 0.47946
 C942 C 0.73453 0.26798 0.50063
 H943 H 0.72103 0.28037 0.50128
 H944 H 0.78109 0.22198 0.49809
 C945 C 0.75931 0.25727 -0.02070
 C946 C 0.74183 0.24108 -0.02012
 C947 C 0.73302 0.23416 0.00079
 C948 C 0.74189 0.24222 0.02133
 C949 C 0.76022 0.25745 0.02087
 C950 C 0.76850 0.26502 -0.00015
 H951 H 0.78200 0.27733 -0.00056
 H952 H 0.71948 0.22188 0.00103
 C953 C 0.75841 0.75865 0.48057
 C954 C 0.73999 0.74354 0.47950
 C955 C 0.73077 0.73516 0.49980
 C956 C 0.73920 0.74182 0.52096
 C957 C 0.75785 0.75663 0.52205
 C958 C 0.76727 0.76474 0.50174
 H959 H 0.78125 0.77650 0.50235
 H960 H 0.71714 0.72300 0.49918
 C961 C 1.02137 0.24058 0.25912
 C962 C 1.02147 0.26011 0.24517
 C963 C 1.00081 0.26972 0.23838
 C964 C 0.98011 0.26038 0.24523
 C965 C 0.98017 0.24087 0.25920
 C966 C 1.00075 0.23099 0.26550
 H967 H 1.00072 0.21606 0.27625
 H968 H 1.00084 0.28389 0.22668
 C969 C 0.52031 0.23842 0.75576
 C970 C 0.51955 0.25688 0.74045
 C971 C 0.49862 0.26557 0.73352
 C972 C 0.47829 0.25614 0.74124
 C973 C 0.47907 0.23815 0.75707
 C974 C 0.49998 0.22925 0.76379
 H975 H 0.50038 0.21553 0.77603
 H976 H 0.49817 0.27965 0.72169
 C977 C -0.02098 0.25619 0.75915
 C978 C -0.01967 0.23905 0.74252
 C979 C 0.00151 0.23140 0.73526
 C980 C 0.02154 0.24018 0.74443
 C981 C 0.02021 0.25770 0.76068
 C982 C -0.00097 0.26556 0.76769
 H983 H -0.00188 0.27919 0.77993
 H984 H 0.00237 0.21851 0.72224
 C985 C 0.47995 0.25766 0.25864
 C986 C 0.48006 0.23948 0.24310
 C987 C 0.50082 0.23039 0.23603
 C988 C 0.52139 0.23928 0.24376
 C989 C 0.52112 0.25798 0.25870
 C990 C 0.50042 0.26709 0.26566
 H991 H 0.50025 0.28135 0.27721
 H992 H 0.50096 0.21653 0.22403
 C993 C 1.01854 0.73844 0.75813
 C994 C 1.01889 0.75576 0.74153
 C995 C 0.99833 0.76465 0.73358
 C996 C 0.97757 0.75637 0.74136
 C997 C 0.97731 0.73901 0.75800
 C998 C 0.99782 0.73033 0.76607
 H999 H 0.99767 0.71709 0.77885
 H1000 H 0.99845 0.77826 0.72121
 C1001 C 0.52026 0.73682 0.25478
 C1002 C 0.51907 0.74978 0.23452
 C1003 C 0.49798 0.75713 0.22658
 C1004 C 0.47801 0.75155 0.23804
 C1005 C 0.47914 0.73733 0.25729
 C1006 C 0.50022 0.73098 0.26596
 H1007 H 0.50101 0.72065 0.28118
 H1008 H 0.49710 0.76758 0.21145
 C1009 C -0.02077 0.76133 0.25667
 C1010 C -0.02061 0.74236 0.24214
 C1011 C 0.00011 0.73365 0.23460
 C1012 C 0.02065 0.74300 0.24173
 C1013 C 0.02054 0.76147 0.25688
 C1014 C -0.00019 0.77051 0.26403
 H1015 H -0.00031 0.78427 0.27613
 H1016 H 0.00031 0.71955 0.22289
 C1017 C 0.47901 0.75932 0.75976
 C1018 C 0.47922 0.73949 0.74637
 C1019 C 0.50002 0.73020 0.73967
 C1020 C 0.52055 0.74010 0.74618
 C1021 C 0.52017 0.75992 0.75960
 C1022 C 0.49944 0.76954 0.76572
 H1023 H 0.49921 0.78467 0.77610
 H1024 H 0.50023 0.71580 0.72835
 C1025 C 0.41438 0.28573 0.28378
 C1026 C 0.42409 0.26637 0.29058
 C1027 C 0.44433 0.25640 0.27985
 C1028 C 0.45895 0.26810 0.26714
 H1029 H 0.41671 0.25680 0.30435
 H1030 H 0.44797 0.23884 0.28374
 H1031 H 0.42089 0.29484 0.26927
 H1032 H 0.45710 0.28619 0.26505
 C1033 C 0.41202 0.78606 0.78310
 C1034 C 0.42201 0.76683 0.79001
 C1035 C 0.44242 0.75725 0.77937
 C1036 C 0.45794 0.76961 0.76847
 H1037 H 0.41463 0.75686 0.80349
 H1038 H 0.44546 0.73935 0.78199
 H1039 H 0.41874 0.79516 0.76866
 H1040 H 0.45647 0.78786 0.76797
 C1041 C -0.08284 0.29040 0.78642
 C1042 C -0.06889 0.27669 0.79795
 C1043 C -0.04707 0.26868 0.78903
 C1044 C -0.04296 0.26524 0.76696
 H1045 H -0.07272 0.27223 0.81534
 H1046 H -0.03433 0.26410 0.80142
 H1047 H -0.07824 0.29644 0.76971
 H1048 H -0.05627 0.26760 0.75459
 C1049 C -0.07988 0.79130 0.29238
 C1050 C -0.06689 0.80229 0.27743
 C1051 C -0.04570 0.79278 0.26840
 C1052 C -0.04226 0.77054 0.26560
 H1053 H -0.07107 0.81944 0.27248
 H1054 H -0.03299 0.80467 0.26282
 H1055 H -0.07483 0.77484 0.29871
 H1056 H -0.05577 0.75877 0.26912
 C1057 C 0.58698 0.71542 0.28340
 C1058 C 0.57821 0.70831 0.26369
 C1059 C 0.55761 0.71800 0.25328
 C1060 C 0.54163 0.72885 0.26511
 H1061 H 0.58661 0.69510 0.25423
 H1062 H 0.55491 0.71472 0.23542
 H1063 H 0.57949 0.72954 0.29231
 H1064 H 0.54296 0.72997 0.28338
 C1065 C 0.58101 0.20960 0.79060
 C1066 C 0.56756 0.19836 0.77629
 C1067 C 0.54599 0.20759 0.76770
 C1068 C 0.54204 0.22975 0.76480
 H1069 H 0.57165 0.18114 0.77161
 H1070 H 0.53338 0.19548 0.76241
 H1071 H 0.57612 0.22617 0.79669
 H1072 H 0.55535 0.24183 0.76798
 C1073 C 1.08447 0.71486 0.78584
 C1074 C 1.07645 0.70973 0.76523
 C1075 C 1.05613 0.72048 0.75545
 C1076 C 1.03923 0.72860 0.76814
 H1077 H 1.08553 0.69795 0.75457
 H1078 H 1.05456 0.72057 0.73713
 H1079 H 1.07640 0.72786 0.79589
 H1080 H 1.03947 0.72621 0.78636
 C1081 C 1.08693 0.21104 0.28352
 C1082 C 1.07890 0.23167 0.28844
 C1083 C 1.05865 0.24177 0.27778
 C1084 C 1.04225 0.22978 0.26782
 H1085 H 1.08783 0.24222 0.30040
 H1086 H 1.05659 0.25990 0.27953
 H1087 H 1.07889 0.20083 0.27066
 H1088 H 1.04281 0.21148 0.26815
 C1089 C 0.58525 0.28540 0.71649
 C1090 C 0.57674 0.26524 0.71073
 C1091 C 0.55652 0.25528 0.72138
 C1092 C 0.54009 0.26752 0.73103
 H1093 H 0.58537 0.25489 0.69834
 H1094 H 0.55458 0.23712 0.72005
 H1095 H 0.57758 0.29520 0.72993
 H1096 H 0.54052 0.28581 0.73020
 C1097 C 0.59044 0.78957 0.22411
 C1098 C 0.57546 0.77487 0.21601
 C1099 C 0.55656 0.76719 0.23025
 C1100 C 0.53908 0.75636 0.22111
 H1101 H 0.57654 0.76922 0.19857
 H1102 H 0.55651 0.77114 0.24820
 H1103 H 0.58859 0.79585 0.24128
 H1104 H 0.53843 0.75396 0.20289
 C1105 C 1.08084 0.28997 0.20949
 C1106 C 1.06792 0.30077 0.22466
 C1107 C 1.04661 0.29139 0.23354
 C1108 C 1.04285 0.26916 0.23584
 H1109 H 1.07226 0.31773 0.22993
 H1110 H 1.03414 0.30337 0.23960
 H1111 H 1.07562 0.27377 0.20280
 H1112 H 1.05612 0.25721 0.23186
 C1113 C 1.07995 0.79083 0.71334
 C1114 C 1.06529 0.77813 0.70168
 C1115 C 1.04380 0.76972 0.71110
 C1116 C 1.04042 0.76542 0.73318
 H1117 H 1.06838 0.77463 0.68394
 H1118 H 1.03074 0.76549 0.69898
 H1119 H 1.07620 0.79584 0.73058
 H1120 H 1.05408 0.76751 0.74518
 C1121 C 0.42052 0.70844 0.71105
 C1122 C 0.43377 0.69765 0.72600
 C1123 C 0.45479 0.70750 0.73507
 C1124 C 0.45796 0.72981 0.73744
 H1125 H 0.42992 0.68046 0.73097
 H1126 H 0.46761 0.69580 0.74100
 H1127 H 0.42518 0.72501 0.70480
 H1128 H 0.44433 0.74144 0.73359
 C1129 C 0.42147 0.20397 0.21166
 C1130 C 0.43552 0.21808 0.20091
 C1131 C 0.45657 0.22651 0.21118
 C1132 C 0.45885 0.23042 0.23345
 H1133 H 0.43233 0.22268 0.18343
 H1134 H 0.47013 0.23100 0.19972
 H1135 H 0.42562 0.19778 0.22846
 H1136 H 0.44454 0.22803 0.24451
 C1137 C -0.07927 0.70998 0.20777
 C1138 C -0.06567 0.69968 0.22274
 C1139 C -0.04473 0.71003 0.23138
 C1140 C -0.04194 0.73241 0.23365
 H1141 H -0.06904 0.68242 0.22785
 H1142 H -0.03153 0.69862 0.23703
 H1143 H -0.07502 0.72658 0.20130
 H1144 H -0.05587 0.74377 0.23008
 C1145 C -0.08467 0.21476 0.71348
 C1146 C -0.07653 0.20907 0.73392
 C1147 C -0.05667 0.22007 0.74418
 C1148 C -0.03985 0.22891 0.73191
 H1149 H -0.08528 0.19672 0.74420
 H1150 H -0.05535 0.21978 0.76251
 H1151 H -0.07699 0.22835 0.70389
 H1152 H -0.03976 0.22696 0.71365
 C1153 C 0.28884 0.41520 0.28578
 C1154 C 0.26975 0.42515 0.29277
 C1155 C 0.25951 0.44497 0.28137
 C1156 C 0.27103 0.45938 0.26823
 H1157 H 0.26054 0.41813 0.30696
 H1158 H 0.24189 0.44839 0.28486
 H1159 H 0.29746 0.42129 0.27081
 H1160 H 0.28913 0.45783 0.26652
 C1161 C 0.29091 -0.08256 0.79065
 C1162 C 0.27574 -0.06959 0.80142
 C1163 C 0.26716 -0.04807 0.79211
 C1164 C 0.26412 -0.04428 0.76990
 H1165 H 0.27025 -0.07386 0.81839
 H1166 H 0.26182 -0.03538 0.80421
 H1167 H 0.29750 -0.07713 0.77439
 H1168 H 0.26724 -0.05765 0.75777
 C1169 C 0.79070 0.41911 0.79186
 C1170 C 0.80023 0.43139 0.77527
 C1171 C 0.79040 0.45283 0.76690
 C1172 C 0.76813 0.45620 0.76500
 H1173 H 0.81647 0.42660 0.76842
 H1174 H 0.80196 0.46566 0.76087
 H1175 H 0.77540 0.42524 0.79981
 H1176 H 0.75679 0.44248 0.76900
 C1177 C 0.78664 -0.08652 0.28683
 C1178 C 0.79461 -0.07606 0.26825
 C1179 C 0.78377 -0.05591 0.25805
 C1180 C 0.77145 -0.04113 0.26997
 H1181 H 0.80911 -0.08278 0.25939
 H1182 H 0.78703 -0.05255 0.24027
 H1183 H 0.77123 -0.08050 0.29463
 H1184 H 0.77002 -0.04281 0.28820
 C1185 C 0.29075 0.58075 0.71110
 C1186 C 0.30172 0.56679 0.72529
 C1187 C 0.29201 0.54541 0.73388
 C1188 C 0.26980 0.54195 0.73626
 H1189 H 0.31900 0.57033 0.72995
 H1190 H 0.30378 0.53252 0.73950
 H1191 H 0.27404 0.57651 0.70512
 H1192 H 0.25806 0.55556 0.73269
 C1193 C 0.28932 1.08039 0.20898
 C1194 C 0.30034 1.06635 0.22304
 C1195 C 0.29089 1.04473 0.23122
 C1196 C 0.26874 1.04110 0.23386
 H1197 H 0.31758 1.06997 0.22780
 H1198 H 0.30281 1.03180 0.23643
 H1199 H 0.27275 1.07597 0.20270
 H1200 H 0.25689 1.05471 0.23070
 C1201 C 0.79278 0.58042 0.21096
 C1202 C 0.80389 0.56691 0.22547
 C1203 C 0.79434 0.54571 0.23464
 C1204 C 0.77217 0.54227 0.23736
 H1205 H 0.82120 0.57061 0.22986
 H1206 H 0.80620 0.53293 0.24033
 H1207 H 0.77606 0.57592 0.20518
 H1208 H 0.76038 0.55580 0.23370
 C1209 C 0.78984 1.08298 0.71191
 C1210 C 0.80079 1.06963 0.72666
 C1211 C 0.79149 1.04805 0.73508
 C1212 C 0.76934 1.04417 0.73740
 H1213 H 0.81788 1.07368 0.73164
 H1214 H 0.80348 1.03523 0.74039
 H1215 H 0.77343 1.07810 0.70557
 H1216 H 0.75733 1.05764 0.73425
 C1217 C 0.71515 0.58713 0.28344
 C1218 C 0.73497 0.57821 0.28981
 C1219 C 0.74494 0.55778 0.27944
 C1220 C 0.73287 0.54175 0.26900
 H1221 H 0.74495 0.58653 0.30267
 H1222 H 0.76290 0.55528 0.28177
 H1223 H 0.70570 0.57973 0.26963
 H1224 H 0.71465 0.54272 0.26878
 C1225 C 0.71272 1.08598 0.78600
 C1226 C 0.73266 1.07695 0.79203
 C1227 C 0.74283 1.05708 0.78076
 C1228 C 0.73088 1.04113 0.77006
 H1229 H 0.74276 1.08483 0.80508
 H1230 H 0.76090 1.05494 0.78253
 H1231 H 0.70339 1.07878 0.77199
 H1232 H 0.71264 1.04166 0.77040
 C1233 C 0.21267 0.58625 0.78260
 C1234 C 0.23242 0.57714 0.78894
 C1235 C 0.24234 0.55684 0.77830
 C1236 C 0.23022 0.54106 0.76754
 H1237 H 0.24241 0.58522 0.80196
 H1238 H 0.26027 0.55419 0.78069
 H1239 H 0.20327 0.57915 0.76859
 H1240 H 0.21199 0.54213 0.76727
 C1241 C 0.20961 1.07731 0.29278
 C1242 C 0.19881 1.06382 0.27815
 C1243 C 0.20878 1.04272 0.26917
 C1244 C 0.23101 1.03984 0.26614
 H1245 H 0.18159 1.06758 0.27336
 H1246 H 0.19722 1.02967 0.26372
 H1247 H 0.22620 1.07268 0.29896
 H1248 H 0.24238 1.05372 0.26955
 C1249 C 0.71470 0.41236 0.71458
 C1250 C 0.70798 0.42192 0.73404
 C1251 C 0.71879 0.44218 0.74391
 C1252 C 0.73035 0.45727 0.73161
 H1253 H 0.69443 0.41437 0.74370
 H1254 H 0.71612 0.44534 0.76180
 H1255 H 0.72910 0.41901 0.70552
 H1256 H 0.73118 0.45577 0.71334
 C1257 C 0.71422 -0.08172 0.20946
 C1258 C 0.70317 -0.06808 0.22380
 C1259 C 0.71254 -0.04664 0.23231
 C1260 C 0.73462 -0.04331 0.23566
 H1261 H 0.68593 -0.07181 0.22844
 H1262 H 0.70059 -0.03359 0.23703
 H1263 H 0.73076 -0.07711 0.20324
 H1264 H 0.74623 -0.05717 0.23299
 C1265 C 0.20915 0.41743 0.21288
 C1266 C 0.22298 0.43149 0.20179
 C1267 C 0.23098 0.45308 0.21137
 C1268 C 0.23433 0.45647 0.23359
 H1269 H 0.22747 0.42801 0.18435
 H1270 H 0.23538 0.46628 0.19940
 H1271 H 0.20310 0.42176 0.22965
 H1272 H 0.23201 0.44261 0.24534
 C1273 C 0.21426 -0.08756 0.71592
 C1274 C 0.20925 -0.07976 0.73664
 C1275 C 0.21991 -0.05951 0.74666
 C1276 C 0.22807 -0.04235 0.73428
 H1277 H 0.19765 -0.08902 0.74731
 H1278 H 0.21985 -0.05823 0.76499
 H1279 H 0.22705 -0.07927 0.70580
 H1280 H 0.22584 -0.04228 0.71605
 C1281 C 0.29154 0.28841 0.41912
 C1282 C 0.27730 0.29952 0.43278
 C1283 C 0.26862 0.28993 0.45419
 C1284 C 0.26543 0.26774 0.45752
 H1285 H 0.27272 0.31686 0.42901
 H1286 H 0.26350 0.30181 0.46717
 H1287 H 0.29755 0.27171 0.42375
 H1288 H 0.26843 0.25596 0.44381
 C1289 C 0.29096 0.78686 -0.08212
 C1290 C 0.27708 0.79789 -0.06801
 C1291 C 0.26879 0.78805 -0.04656
 C1292 C 0.26559 0.76582 -0.04347
 H1293 H 0.27262 0.81534 -0.07139
 H1294 H 0.26420 0.79977 -0.03323
 H1295 H 0.29683 0.77000 -0.07792
 H1296 H 0.26814 0.75442 -0.05752
 C1297 C 0.79216 0.28793 -0.08159
 C1298 C 0.77855 0.29885 -0.06715
 C1299 C 0.77082 0.28889 -0.04551
 C1300 C 0.76767 0.26664 -0.04247
 H1301 H 0.77390 0.31627 -0.07046
 H1302 H 0.76638 0.30051 -0.03205
 H1303 H 0.79835 0.27117 -0.07744
 H1304 H 0.77004 0.25530 -0.05660
 C1305 C 0.78695 0.78420 0.41525
 C1306 C 0.76680 0.78989 0.42380
 C1307 C 0.75677 0.77875 0.44384
 C1308 C 0.76896 0.76861 0.46013
 H1309 H 0.75660 0.80258 0.41537
 H1310 H 0.73865 0.78008 0.44579
 H1311 H 0.79658 0.77050 0.42273
 H1312 H 0.78719 0.76944 0.45974
 C1313 C 0.70911 0.28668 0.58265
 C1314 C 0.72259 0.29831 0.56867
 C1315 C 0.73083 0.28940 0.54683
 C1316 C 0.73451 0.26739 0.54287
 H1317 H 0.72677 0.31569 0.57250
 H1318 H 0.73534 0.30172 0.53399
 H1319 H 0.70338 0.26994 0.57804
 H1320 H 0.73218 0.25511 0.55632
 C1321 C 0.70761 0.78937 1.08107
 C1322 C 0.69684 0.77422 1.06816
 C1323 C 0.70630 0.76547 1.04665
 C1324 C 0.72852 0.76328 1.04297
 H1325 H 0.67994 0.76897 1.07263
 H1326 H 0.69447 0.75971 1.03393
 H1327 H 0.72376 0.79598 1.07568
 H1328 H 0.74024 0.76705 1.05652
 C1329 C 0.21090 0.29041 1.08162
 C1330 C 0.20018 0.27563 1.06823
 C1331 C 0.20970 0.26702 1.04677
 C1332 C 0.23188 0.26480 1.04302
 H1333 H 0.18313 0.27055 1.07226
 H1334 H 0.19784 0.26119 1.03410
 H1335 H 0.22725 0.29691 1.07677
 H1336 H 0.24374 0.26855 1.05645
 C1337 C 0.20737 0.79015 0.58170
 C1338 C 0.19660 0.77532 0.56843
 C1339 C 0.20634 0.76617 0.54728
 C1340 C 0.22854 0.76350 0.54395
 H1341 H 0.17946 0.77049 0.57235
 H1342 H 0.19460 0.76029 0.53452
 H1343 H 0.22388 0.79631 0.57694
 H1344 H 0.24023 0.76732 0.55752
 C1345 C 0.28573 0.71735 0.58963
 C1346 C 0.26574 0.71129 0.58098
 C1347 C 0.25570 0.72168 0.56049
 C1348 C 0.26779 0.73162 0.54407
 H1349 H 0.25574 0.69859 0.58952
 H1350 H 0.23769 0.71965 0.55821
 H1351 H 0.29519 0.73104 0.58204
 H1352 H 0.28603 0.73147 0.54489
 C1353 C 0.28916 0.21662 1.08676
 C1354 C 0.26889 0.21139 1.07823
 C1355 C 0.25893 0.22248 1.05807
 C1356 C 0.27106 0.23287 1.04195
 H1357 H 0.25857 0.19884 1.08661
 H1358 H 0.24090 0.22067 1.05578
 H1359 H 0.29901 0.23012 1.07934
 H1360 H 0.28929 0.23260 1.04268
 C1361 C 0.78979 0.70765 1.08089
 C1362 C 0.80009 0.72259 1.06729
 C1363 C 0.79004 0.73112 1.04597
 C1364 C 0.76774 0.73291 1.04260
 H1365 H 0.81711 0.72795 1.07108
 H1366 H 0.80155 0.73724 1.03310
 H1367 H 0.77346 0.70091 1.07629
 H1368 H 0.75625 0.72880 1.05625
 C1369 C 0.78517 0.21390 0.58552
 C1370 C 0.79047 0.23436 0.57732
 C1371 C 0.77943 0.24446 0.55723
 C1372 C 0.77066 0.23214 0.54036
 H1373 H 0.80263 0.24474 0.58613
 H1374 H 0.77968 0.26272 0.55575
 H1375 H 0.77184 0.20414 0.57773
 H1376 H 0.77264 0.21392 0.54040
 C1377 C 0.71143 0.71047 0.41770
 C1378 C 0.70018 0.72447 0.43152
 C1379 C 0.70932 0.73244 0.45341
 C1380 C 0.73140 0.73511 0.45746
 H1381 H 0.68301 0.72927 0.42752
 H1382 H 0.69721 0.73745 0.46621
 H1383 H 0.72793 0.70420 0.42249
 H1384 H 0.74348 0.73224 0.44401
 C1385 C 0.71408 0.21590 -0.08593
 C1386 C 0.73317 0.20873 -0.07601
 C1387 C 0.74308 0.21934 -0.05563
 C1388 C 0.73133 0.23192 -0.04088
 H1389 H 0.74259 0.19490 -0.08340
 H1390 H 0.76066 0.21571 -0.05212
 H1391 H 0.70516 0.23045 -0.07936
 H1392 H 0.71326 0.23373 -0.04259
 C1393 C 0.21310 0.71390 -0.08601
 C1394 C 0.23249 0.70688 -0.07662
 C1395 C 0.24263 0.71750 -0.05640
 C1396 C 0.23082 0.72953 -0.04129
 H1397 H 0.24197 0.69329 -0.08437
 H1398 H 0.26040 0.71441 -0.05336
 H1399 H 0.20418 0.72832 -0.07913
 H1400 H 0.21266 0.73076 -0.04257
 C1401 C 0.21737 0.21315 0.41274
 C1402 C 0.21161 0.23333 0.42129
 C1403 C 0.22215 0.24305 0.44179
 C1404 C 0.23141 0.23049 0.45834
 H1405 H 0.19926 0.24372 0.41260
 H1406 H 0.22103 0.26122 0.44386
 H1407 H 0.23073 0.20334 0.42054
 H1408 H 0.23029 0.21223 0.45772
 C1409 C 0.29021 0.41932 0.70949
 C1410 C 0.30128 0.43254 0.72417
 C1411 C 0.29185 0.45393 0.73299
 C1412 C 0.26966 0.45747 0.73552
 H1413 H 0.31838 0.42836 0.72906
 H1414 H 0.30371 0.46662 0.73864
 H1415 H 0.27385 0.42440 0.70307
 H1416 H 0.25799 0.44394 0.73180
 C1417 C 0.28640 0.91242 0.21503
 C1418 C 0.29366 0.92224 0.23413
 C1419 C 0.28259 0.94237 0.24411
 C1420 C 0.27078 0.95738 0.23181
 H1421 H 0.30774 0.91500 0.24334
 H1422 H 0.28516 0.94545 0.26203
 H1423 H 0.27145 0.91875 0.20658
 H1424 H 0.27003 0.95594 0.21353
 C1425 C 0.79192 0.41949 0.21043
 C1426 C 0.80300 0.43266 0.22515
 C1427 C 0.79371 0.45403 0.23417
 C1428 C 0.77158 0.45790 0.23671
 H1429 H 0.82013 0.42848 0.22994
 H1430 H 0.80571 0.46648 0.24006
 H1431 H 0.77544 0.42448 0.20426
 H1432 H 0.75964 0.44465 0.23283
 C1433 C 0.78636 0.91588 0.71373
 C1434 C 0.79345 0.92510 0.73323
 C1435 C 0.78284 0.94521 0.74366
 C1436 C 0.77110 0.96068 0.73192
 H1437 H 0.80699 0.91717 0.74267
 H1438 H 0.78557 0.94777 0.76165
 H1439 H 0.77193 0.92290 0.70491
 H1440 H 0.77005 0.95977 0.71362
 C1441 C 0.71169 0.58533 0.71688
 C1442 C 0.73212 0.57707 0.71173
 C1443 C 0.74206 0.55681 0.72262
 C1444 C 0.72978 0.54033 0.73213
 H1445 H 0.74257 0.58583 0.69953
 H1446 H 0.76017 0.55479 0.72140
 H1447 H 0.70172 0.57755 0.73011
 H1448 H 0.71157 0.54089 0.73115
 C1449 C 0.71384 0.08541 0.21787
 C1450 C 0.73437 0.07729 0.21289
 C1451 C 0.74433 0.05717 0.22400
 C1452 C 0.73202 0.04044 0.23300
 H1453 H 0.74488 0.08609 0.20078
 H1454 H 0.76252 0.05559 0.22363
 H1455 H 0.70386 0.07757 0.23107
 H1456 H 0.71385 0.04060 0.23121
 C1457 C 0.21239 0.58492 0.21525
 C1458 C 0.23245 0.57634 0.20929
 C1459 C 0.24271 0.55644 0.22045
 C1460 C 0.23066 0.54011 0.23049
 H1461 H 0.24243 0.58470 0.19642
 H1462 H 0.26083 0.55456 0.21911
 H1463 H 0.20310 0.57762 0.22925
 H1464 H 0.21243 0.54041 0.22957
 C1465 C 0.21054 0.08091 0.71101
 C1466 C 0.19899 0.06697 0.72462
 C1467 C 0.20814 0.04530 0.73314
 C1468 C 0.23017 0.04142 0.73651
 H1469 H 0.18160 0.07074 0.72873
 H1470 H 0.19601 0.03249 0.73797
 H1471 H 0.22736 0.07640 0.70546
 H1472 H 0.24227 0.05483 0.73383
 C1473 C 0.28741 0.58257 0.28974
 C1474 C 0.29888 0.56886 0.27580
 C1475 C 0.28997 0.54707 0.26756
 C1476 C 0.26796 0.54301 0.26446
 H1477 H 0.31610 0.57286 0.27131
 H1478 H 0.30222 0.53432 0.26279
 H1479 H 0.27083 0.57779 0.29571
 H1480 H 0.25577 0.55642 0.26710
 C1481 C 0.28539 0.08418 0.78574
 C1482 C 0.26491 0.07637 0.79125
 C1483 C 0.25454 0.05635 0.78055
 C1484 C 0.26653 0.03928 0.77172
 H1485 H 0.25469 0.08547 0.80341
 H1486 H 0.23633 0.05511 0.78120
 H1487 H 0.29502 0.07613 0.77240
 H1488 H 0.28472 0.03917 0.77335
 C1489 C 0.78850 0.57911 0.79165
 C1490 C 0.79939 0.56565 0.77702
 C1491 C 0.78990 0.54423 0.76840
 C1492 C 0.76774 0.54072 0.76567
 H1493 H 0.81649 0.56964 0.77204
 H1494 H 0.80179 0.53145 0.76285
 H1495 H 0.77211 0.57427 0.79808
 H1496 H 0.75591 0.55425 0.76911
 C1497 C 0.78505 0.08803 0.28139
 C1498 C 0.76515 0.07910 0.28727
 C1499 C 0.75611 0.05829 0.27694
 C1500 C 0.76933 0.04191 0.26856
 H1501 H 0.75460 0.08757 0.29960
 H1502 H 0.73802 0.05588 0.27745
 H1503 H 0.79488 0.08048 0.26791
 H1504 H 0.78746 0.04300 0.27041
 C1505 C 0.71362 0.41350 0.28276
 C1506 C 0.73399 0.42151 0.28843
 C1507 C 0.74418 0.44191 0.27826
 C1508 C 0.73228 0.45856 0.26842
 H1509 H 0.74422 0.41254 0.30072
 H1510 H 0.76223 0.44384 0.28029
 H1511 H 0.70378 0.42167 0.26961
 H1512 H 0.71404 0.45811 0.26857
 C1513 C 0.71183 0.91886 0.78963
 C1514 C 0.70110 0.93234 0.77481
 C1515 C 0.71063 0.95396 0.76677
 C1516 C 0.73283 0.95739 0.76433
 H1517 H 0.68407 0.92838 0.76954
 H1518 H 0.69883 0.96713 0.76192
 H1519 H 0.72810 0.92376 0.79635
 H1520 H 0.74432 0.94344 0.76710
 C1521 C 0.20858 0.41975 0.79169
 C1522 C 0.19823 0.43278 0.77621
 C1523 C 0.20811 0.45401 0.76751
 C1524 C 0.23040 0.45732 0.76575
 H1525 H 0.18136 0.42863 0.77060
 H1526 H 0.19654 0.46688 0.76142
 H1527 H 0.22471 0.42481 0.79861
 H1528 H 0.24191 0.44364 0.76982
 C1529 C 0.21112 0.91711 0.29026
 C1530 C 0.20039 0.93075 0.27558
 C1531 C 0.21018 0.95205 0.26696
 C1532 C 0.23240 0.95528 0.26434
 H1533 H 0.18314 0.92720 0.27081
 H1534 H 0.19846 0.96517 0.26180
 H1535 H 0.22776 0.92149 0.29637
 H1536 H 0.24386 0.94138 0.26748
 C1537 C 0.41805 0.29081 0.71105
 C1538 C 0.43232 0.27716 0.69998
 C1539 C 0.45366 0.26878 0.70990
 C1540 C 0.45658 0.26483 0.73212
 H1541 H 0.42925 0.27316 0.68235
 H1542 H 0.46709 0.26463 0.69816
 H1543 H 0.42199 0.29641 0.72808
 H1544 H 0.44251 0.26694 0.74355
 C1545 C 0.41786 0.78454 0.20641
 C1546 C 0.43272 0.79472 0.22005
 C1547 C 0.45403 0.78386 0.22728
 C1548 C 0.45637 0.76148 0.23028
 H1549 H 0.43015 0.81222 0.22479
 H1550 H 0.46801 0.79491 0.23132
 H1551 H 0.42133 0.76771 0.20007
 H1552 H 0.44192 0.75056 0.22836
 C1553 C 0.92096 0.29080 0.20910
 C1554 C 0.93396 0.30152 0.22423
 C1555 C 0.95518 0.29191 0.23328
 C1556 C 0.95873 0.26966 0.23594
 H1557 H 0.92984 0.31863 0.22925
 H1558 H 0.96779 0.30377 0.23910
 H1559 H 0.92596 0.27439 0.20269
 H1560 H 0.94530 0.25788 0.23218
 C1561 C 0.91200 0.78495 0.71742
 C1562 C 0.91999 0.76439 0.71215
 C1563 C 0.94007 0.75428 0.72311
 C1564 C 0.95691 0.76665 0.73170
 H1565 H 0.91120 0.75406 0.69989
 H1566 H 0.94160 0.73602 0.72281
 H1567 H 0.91979 0.79467 0.73083
 H1568 H 0.95673 0.78486 0.72971
 C1569 C 0.58666 0.28696 0.28249
 C1570 C 0.57865 0.26643 0.28780
 C1571 C 0.55847 0.25637 0.27718
 C1572 C 0.54187 0.26856 0.26767
 H1573 H 0.58748 0.25600 0.30004
 H1574 H 0.55663 0.23819 0.27862
 H1575 H 0.57868 0.29697 0.26933
 H1576 H 0.54224 0.28684 0.26850
 C1577 C 0.58547 0.78934 0.78395
 C1578 C 0.57693 0.76920 0.78982
 C1579 C 0.55697 0.75896 0.77897
 C1580 C 0.54090 0.77084 0.76822
 H1581 H 0.58527 0.75911 0.80268
 H1582 H 0.55477 0.74093 0.78133
 H1583 H 0.57816 0.79892 0.77010
 H1584 H 0.54155 0.78913 0.76792
 C1585 C 0.08436 0.28794 0.78625
 C1586 C 0.07669 0.26726 0.79142
 C1587 C 0.05712 0.25673 0.78010
 C1588 C 0.04033 0.26864 0.77060
 H1589 H 0.08555 0.25701 0.80379
 H1590 H 0.05592 0.23847 0.78089
 H1591 H 0.07659 0.29764 0.77274
 H1592 H 0.04007 0.28689 0.77202
 C1593 C 0.07879 0.79248 0.29300
 C1594 C 0.06600 0.80311 0.27752
 C1595 C 0.04500 0.79333 0.26833
 C1596 C 0.04188 0.77103 0.26578
 H1597 H 0.07016 0.82015 0.27230
 H1598 H 0.03218 0.80506 0.26248
 H1599 H 0.07371 0.77616 0.29955
 H1600 H 0.05552 0.75949 0.26972
 C1601 C 0.58001 0.71006 0.71063
 C1602 C 0.56719 0.69929 0.72591
 C1603 C 0.54594 0.70875 0.73495
 C1604 C 0.54206 0.73099 0.73710
 H1605 H 0.57154 0.68228 0.73115
 H1606 H 0.53357 0.69680 0.74113
 H1607 H 0.57483 0.72639 0.70406
 H1608 H 0.55525 0.74293 0.73300
 C1609 C 0.58071 0.20870 0.20850
 C1610 C 0.56773 0.19816 0.22378
 C1611 C 0.54643 0.20782 0.23243
 C1612 C 0.54284 0.23010 0.23470
 H1613 H 0.57195 0.18116 0.22920
 H1614 H 0.53375 0.19602 0.23829
 H1615 H 0.57559 0.22495 0.20168
 H1616 H 0.55628 0.24189 0.23100
 C1617 C 0.07995 0.70750 0.21141
 C1618 C 0.06607 0.72174 0.20049
 C1619 C 0.04494 0.73038 0.21044
 C1620 C 0.04199 0.73362 0.23272
 H1621 H 0.06951 0.72644 0.18308
 H1622 H 0.03174 0.73540 0.19873
 H1623 H 0.07573 0.70140 0.22821
 H1624 H 0.05575 0.73050 0.24437
 C1625 C 0.08325 0.21183 0.71110
 C1626 C 0.06912 0.20041 0.72461
 C1627 C 0.04746 0.20970 0.73275
 C1628 C 0.04353 0.23182 0.73588
 H1629 H 0.07264 0.18291 0.72878
 H1630 H 0.03461 0.19757 0.73742
 H1631 H 0.07901 0.22877 0.70550
 H1632 H 0.05694 0.24395 0.73337
 C1633 C 0.41500 0.71224 0.28852
 C1634 C 0.42408 0.70524 0.26895
 C1635 C 0.44392 0.71580 0.25815
 C1636 C 0.45881 0.72891 0.26899
 H1637 H 0.41626 0.69158 0.25968
 H1638 H 0.44693 0.71159 0.24053
 H1639 H 0.42195 0.72663 0.29737
 H1640 H 0.45769 0.73145 0.28712
 C1641 C 0.41469 0.20961 0.78435
 C1642 C 0.42443 0.22895 0.79092
 C1643 C 0.44418 0.23910 0.77951
 C1644 C 0.45858 0.22751 0.76643
 H1645 H 0.41733 0.23843 0.80487
 H1646 H 0.44762 0.25672 0.78310
 H1647 H 0.42085 0.20066 0.76962
 H1648 H 0.45697 0.20939 0.76462
 C1649 C 0.91141 0.71184 0.78255
 C1650 C 0.91966 0.73236 0.78742
 C1651 C 0.93979 0.74201 0.77620
 C1652 C 0.95641 0.72926 0.76759
 H1653 H 0.91106 0.74299 0.79959
 H1654 H 0.94159 0.76023 0.77641
 H1655 H 0.91898 0.70181 0.76923
 H1656 H 0.95594 0.71106 0.76967
 C1657 C 0.91431 0.21284 0.28347
 C1658 C 0.92323 0.23275 0.28945
 C1659 C 0.94334 0.24266 0.27853
 C1660 C 0.95928 0.23042 0.26803
 H1661 H 0.91513 0.24284 0.30240
 H1662 H 0.94580 0.26069 0.28060
 H1663 H 0.92141 0.20336 0.26949
 H1664 H 0.95837 0.21214 0.26809
 C1665 C 0.28882 0.29252 0.57997
 C1666 C 0.29957 0.27865 0.56565
 C1667 C 0.28926 0.27038 0.54442
 C1668 C 0.26706 0.26682 0.54207
 H1669 H 0.31702 0.27418 0.56873
 H1670 H 0.30058 0.26593 0.53072
 H1671 H 0.27200 0.29851 0.57599
 H1672 H 0.25610 0.26919 0.55650
 C1673 C 0.28945 0.79340 0.07843
 C1674 C 0.30020 0.77900 0.06463
 C1675 C 0.29012 0.77017 0.04358
 C1676 C 0.26794 0.76679 0.04105
 H1677 H 0.31747 0.77419 0.06815
 H1678 H 0.30160 0.76490 0.03031
 H1679 H 0.27285 0.79970 0.07401
 H1680 H 0.25667 0.77008 0.05508
 C1681 C 0.79089 0.29251 0.08051
 C1682 C 0.80180 0.27841 0.06651
 C1683 C 0.79190 0.26980 0.04520
 C1684 C 0.76972 0.26666 0.04223
 H1685 H 0.81916 0.27387 0.06995
 H1686 H 0.80353 0.26464 0.03202
 H1687 H 0.77417 0.29854 0.07623
 H1688 H 0.75823 0.26979 0.05614
 C1689 C 0.78837 0.79018 0.58223
 C1690 C 0.79903 0.77511 0.56908
 C1691 C 0.78948 0.76673 0.54754
 C1692 C 0.76729 0.76410 0.54412
 H1693 H 0.81602 0.76981 0.57325
 H1694 H 0.80129 0.76171 0.53447
 H1695 H 0.77214 0.79692 0.57710
 H1696 H 0.75581 0.76709 0.55802
 C1697 C 0.28530 0.71543 0.41522
 C1698 C 0.26541 0.70942 0.42411
 C1699 C 0.25560 0.72007 0.44450
 C1700 C 0.26786 0.73027 0.46061
 H1701 H 0.25525 0.69677 0.41575
 H1702 H 0.23759 0.71825 0.44688
 H1703 H 0.29490 0.72906 0.42267
 H1704 H 0.28609 0.72997 0.45978
 C1705 C 0.29066 0.20832 0.91965
 C1706 C 0.30151 0.22318 0.93283
 C1707 C 0.29205 0.23193 0.95428
 C1708 C 0.26985 0.23432 0.95788
 H1709 H 0.31852 0.22825 0.92862
 H1710 H 0.30390 0.23760 0.96702
 H1711 H 0.27435 0.20187 0.92474
 H1712 H 0.25811 0.23065 0.94431
 C1713 C 0.78873 0.70824 0.91944
 C1714 C 0.79930 0.72331 0.93262
 C1715 C 0.78973 0.73173 0.95419
 C1716 C 0.76750 0.73375 0.95785
 H1717 H 0.81615 0.72880 0.92829
 H1718 H 0.80151 0.73751 0.96696
 H1719 H 0.77265 0.70134 0.92466
 H1720 H 0.75582 0.72997 0.94426
 C1721 C 0.78795 0.21042 0.41686
 C1722 C 0.79931 0.22406 0.43088
 C1723 C 0.79014 0.23217 0.45266
 C1724 C 0.76809 0.23543 0.45649
 H1725 H 0.81661 0.22847 0.42711
 H1726 H 0.80224 0.23683 0.46559
 H1727 H 0.77129 0.20452 0.42142
 H1728 H 0.75602 0.23296 0.44295
 C1729 C 0.71333 0.28519 0.41392
 C1730 C 0.73376 0.29057 0.42197
 C1731 C 0.74394 0.27972 0.44213
 C1732 C 0.73182 0.27066 0.45900
 H1733 H 0.74412 0.30261 0.41292
 H1734 H 0.76214 0.28030 0.44359
 H1735 H 0.70353 0.27201 0.42196
 H1736 H 0.71363 0.27229 0.45898
 C1737 C 0.70866 0.79131 0.91975
 C1738 C 0.69754 0.77656 0.93292
 C1739 C 0.70679 0.76756 0.95443
 C1740 C 0.72893 0.76485 0.95815
 H1741 H 0.68053 0.77165 0.92855
 H1742 H 0.69481 0.76178 0.96702
 H1743 H 0.72496 0.79765 0.92497
 H1744 H 0.74075 0.76867 0.94470
 C1745 C 0.20936 0.29122 0.92051
 C1746 C 0.19884 0.27614 0.93377
 C1747 C 0.20870 0.26733 0.95507
 C1748 C 0.23096 0.26511 0.95836
 H1749 H 0.18185 0.27088 0.92971
 H1750 H 0.19709 0.26140 0.96793
 H1751 H 0.22561 0.29790 0.92546
 H1752 H 0.24247 0.26904 0.94466
 C1753 C 0.20953 0.78908 0.42027
 C1754 C 0.19817 0.77499 0.43394
 C1755 C 0.20734 0.76606 0.45549
 C1756 C 0.22941 0.76294 0.45933
 H1757 H 0.18087 0.77073 0.43005
 H1758 H 0.19525 0.76072 0.46815
 H1759 H 0.22622 0.79480 0.42493
 H1760 H 0.24141 0.76624 0.44591
 C1761 C 0.71394 0.71400 0.58656
 C1762 C 0.70690 0.73329 0.57682
 C1763 C 0.71766 0.74331 0.55655
 C1764 C 0.72939 0.73127 0.54138
 H1765 H 0.69326 0.74283 0.58439
 H1766 H 0.71498 0.76121 0.55356
 H1767 H 0.72847 0.70512 0.57992
 H1768 H 0.73032 0.71303 0.54269
 C1769 C 0.71230 0.20832 0.08223
 C1770 C 0.70115 0.22214 0.06807
 C1771 C 0.71071 0.23050 0.04651
 C1772 C 0.73283 0.23359 0.04313
 H1773 H 0.68377 0.22658 0.07154
 H1774 H 0.69885 0.23540 0.03339
 H1775 H 0.72906 0.20241 0.07798
 H1776 H 0.74457 0.23074 0.05692
 C1777 C 0.20720 0.70993 0.08060
 C1778 C 0.22231 0.69929 0.06753
 C1779 C 0.23094 0.70890 0.04612
 C1780 C 0.23319 0.73115 0.04246
 H1781 H 0.22764 0.68227 0.07174
 H1782 H 0.23669 0.69706 0.03335
 H1783 H 0.20044 0.72619 0.07546
 H1784 H 0.22941 0.74298 0.05590
 C1785 C 0.21730 0.21422 0.58759
 C1786 C 0.20983 0.23304 0.57729
 C1787 C 0.22007 0.24255 0.55653
 C1788 C 0.23235 0.23047 0.54182
 H1789 H 0.19602 0.24251 0.58460
 H1790 H 0.21638 0.26012 0.55269
 H1791 H 0.23187 0.20530 0.58108
 H1792 H 0.23422 0.21237 0.54390
   
