data_POSCAR
  _audit_creation_date              2014-09-24
  _audit_creation_method            'ToBaCCo'
  _symmetry_space_group_name_H-M    'P1'
  _symmetry_Int_Tables_number       1
  _symmetry_cell_setting            triclinic
  loop_
  _symmetry_equiv_pos_as_xyz
 x,y,z
_cell_length_a 52.5928
_cell_length_b 51.1976
_cell_length_c 52.4943
_cell_angle_alpha 88.751000
_cell_angle_beta 88.630600
_cell_angle_gamma 88.616800
loop_
  _atom_site_label
  _atom_site_type_symbol
  _atom_site_fract_x
  _atom_site_fract_y
  _atom_site_fract_z
C1 C 0.79561 0.65104 1.01106
 C2 C 0.79839 0.62883 0.99197
 C3 C 0.77672 0.61554 0.98860
 C4 C 0.75404 0.62542 1.00491
 C5 C 0.77325 0.66801 1.00073
 C6 C 0.75147 0.65456 0.99762
 C7 C 0.78498 0.63811 1.03549
 C8 C 0.76315 0.62483 1.03258
 H9 H 0.81510 0.62619 0.97972
 H10 H 0.73662 0.61427 1.00183
 H11 H 0.77468 0.68823 0.99477
 H12 H 0.79427 0.63952 1.05357
 C13 C 0.78187 0.36515 0.48451
 C14 C 0.78439 0.38655 0.50410
 C15 C 0.76235 0.39979 0.50968
 C16 C 0.73938 0.39069 0.49500
 C17 C 0.76043 0.34790 0.49555
 C18 C 0.73812 0.36114 0.50082
 C19 C 0.76984 0.37902 0.46145
 C20 C 0.74775 0.39244 0.46674
 H21 H 0.80197 0.39005 0.51370
 H22 H 0.72151 0.40183 0.49935
 H23 H 0.76227 0.32712 0.49883
 H24 H 0.77830 0.37824 0.44246
 C25 C 0.30454 -0.13579 -0.04181
 C26 C 0.31123 -0.11852 -0.02140
 C27 C 0.29032 -0.10302 -0.01164
 C28 C 0.26660 -0.10715 -0.02498
 C29 C 0.28305 -0.15071 -0.03188
 C30 C 0.26172 -0.13526 -0.02238
 C31 C 0.29404 -0.11785 -0.06100
 C32 C 0.27278 -0.10223 -0.05212
 H33 H 0.33036 -0.11652 -0.01478
 H34 H 0.25157 -0.09364 -0.01798
 H35 H 0.28320 -0.17175 -0.03304
 H36 H 0.30142 -0.11666 -0.08039
 C37 C 0.28192 0.13261 0.49525
 C38 C 0.28291 0.11290 0.47364
 C39 C 0.26068 0.10071 0.47011
 C40 C 0.23910 0.10938 0.48843
 C41 C 0.25969 0.15143 0.48800
 C42 C 0.23723 0.13923 0.48431
 C43 C 0.27205 0.11731 0.51862
 C44 C 0.24968 0.10534 0.51526
 H45 H 0.29883 0.11122 0.46023
 H46 H 0.22116 0.09889 0.48588
 H47 H 0.26206 0.17186 0.48312
 H48 H 0.28120 0.11754 0.53690
 C49 C 0.14422 0.51925 0.29192
 C50 C 0.12069 0.50203 0.29488
 C51 C 0.10873 0.49787 0.27267
 C52 C 0.12071 0.51207 0.24947
 C53 C 0.16077 0.50610 0.27114
 C54 C 0.14856 0.50225 0.24895
 C55 C 0.13385 0.54443 0.27922
 C56 C 0.12193 0.54085 0.25694
 H57 H 0.11508 0.49185 0.31225
 H58 H 0.11036 0.50903 0.23164
 H59 H 0.18042 0.50018 0.27404
 H60 H 0.13590 0.56359 0.28717
 C61 C -0.12885 -0.02409 0.28713
 C62 C -0.11612 0.00116 0.29400
 C63 C -0.10253 0.01253 0.27459
 C64 C -0.10247 -0.00309 0.24981
 C65 C -0.14466 -0.01689 0.26362
 C66 C -0.13104 -0.00559 0.24396
 C67 C -0.10858 -0.04091 0.27716
 C68 C -0.09355 -0.02968 0.25674
 H69 H -0.11799 0.00937 0.31282
 H70 H -0.09140 0.00694 0.23456
 H71 H -0.16444 -0.02182 0.26219
 H72 H -0.10844 -0.06170 0.28124
 C73 C 0.35278 0.45593 0.79148
 C74 C 0.37354 0.47531 0.79702
 C75 C 0.38842 0.48185 0.77646
 C76 C 0.38127 0.46830 0.75187
 C77 C 0.33819 0.46915 0.76933
 C78 C 0.35288 0.47526 0.74831
 C79 C 0.36699 0.43263 0.77936
 C80 C 0.38183 0.43902 0.75872
 H81 H 0.37538 0.48418 0.81542
 H82 H 0.39422 0.47306 0.73559
 H83 H 0.31841 0.47492 0.77060
 H84 H 0.36455 0.41263 0.78597
 C85 C 0.64643 0.99041 0.78797
 C86 C 0.62829 0.96756 0.79227
 C87 C 0.61424 0.96235 0.77170
 C88 C 0.61958 0.98036 0.74848
 C89 C 0.66248 0.98237 0.76439
 C90 C 0.64856 0.97688 0.74353
 C91 C 0.63056 1.01210 0.77929
 C92 C 0.61566 1.00714 0.75747
 H93 H 0.62895 0.95416 0.80846
 H94 H 0.60762 0.97489 0.73254
 H95 H 0.68300 0.98068 0.76469
 H96 H 0.63236 1.03128 0.78719
 C97 C -0.02953 0.30025 -0.13516
 C98 C -0.00717 0.30597 -0.11786
 C99 C 0.00080 0.28509 -0.10340
 C100 C -0.01415 0.26021 -0.10752
 C101 C -0.01995 0.27672 -0.15070
 C102 C -0.01167 0.25568 -0.13645
 C103 C -0.04995 0.28923 -0.11691
 C104 C -0.04217 0.26828 -0.10258
 H105 H 0.00299 0.32401 -0.11806
 H106 H -0.00767 0.24375 -0.09508
 H107 H -0.02002 0.27701 -0.17131
 H108 H -0.06936 0.29682 -0.11629
 C109 C 0.50829 0.28710 0.13587
 C110 C 0.48832 0.29126 0.11535
 C111 C 0.48265 0.26933 0.10271
 C112 C 0.49784 0.24492 0.11145
 C113 C 0.49754 0.26489 0.15313
 C114 C 0.49211 0.24286 0.14024
 C115 C 0.53122 0.27440 0.12199
 C116 C 0.52581 0.25262 0.10918
 H117 H 0.47765 0.30949 0.11296
 H118 H 0.49345 0.22722 0.10067
 H119 H 0.49445 0.26600 0.17348
 H120 H 0.55035 0.28172 0.12281
 C121 C 1.00280 0.79017 0.65039
 C122 C 0.98891 0.79527 0.62696
 C123 C 0.98422 0.77230 0.61283
 C124 C 0.99592 0.74864 0.62411
 C125 C 0.98877 0.76990 0.66429
 C126 C 0.98516 0.74669 0.65006
 C127 C 1.02633 0.77749 0.64132
 C128 C 1.02299 0.75432 0.62697
 H129 H 0.98155 0.81425 0.62101
 H130 H 0.99245 0.73145 0.61253
 H131 H 0.98301 0.77168 0.68414
 H132 H 1.04436 0.78723 0.64173
 C133 C 0.47518 0.79770 0.37049
 C134 C 0.50045 0.80105 0.38408
 C135 C 0.50787 0.77984 0.39828
 C136 C 0.48981 0.75689 0.39746
 C137 C 0.47990 0.77290 0.35489
 C138 C 0.48793 0.75138 0.36872
 C139 C 0.45621 0.78956 0.39154
 C140 C 0.46352 0.76816 0.40553
 H141 H 0.51285 0.81741 0.38117
 H142 H 0.49639 0.74029 0.40966
 H143 H 0.47742 0.77303 0.33452
 H144 H 0.43756 0.79881 0.39370
 C145 C 0.37486 -0.00747 0.26848
 H146 H 0.37238 0.01165 0.27669
 C147 C 0.38819 -0.02722 0.28162
 H148 H 0.39578 -0.02316 0.30007
 C149 C 0.36687 -0.03618 0.23496
 H150 H 0.35807 -0.03983 0.21705
 C151 C 0.38012 -0.05648 0.24741
 H152 H 0.38191 -0.07533 0.23851
 N153 N 0.36472 -0.01216 0.24549
 C154 C 0.35602 0.06561 0.21059
 H155 H 0.33592 0.06584 0.20663
 C156 C 0.37060 0.08725 0.20394
 H157 H 0.36166 0.10413 0.19476
 C158 C 0.39229 0.04295 0.22661
 H159 H 0.40074 0.02550 0.23509
 C160 C 0.40767 0.06399 0.21985
 H161 H 0.42785 0.06272 0.22349
 Zn162 Zn 0.34578 0.01547 0.22976
 N163 N 0.36692 0.04420 0.22207
 C164 C 0.31876 0.04954 0.26294
 N165 N 0.31963 0.02506 0.25338
 C166 C 0.30469 0.00591 0.26342
 C167 C 0.28901 0.01072 0.28480
 C168 C 0.30315 0.05528 0.28399
 C169 C 0.35136 -0.00221 0.18097
 C170 C 0.34474 -0.01019 0.15692
 C171 C 0.30048 -0.00280 0.16862
 C172 C 0.30801 0.00461 0.19283
 N173 N 0.33312 0.00464 0.19846
 H174 H 0.33130 0.06430 0.25537
 H175 H 0.30612 -0.01354 0.25577
 H176 H 0.27810 -0.00501 0.29332
 H177 H 0.30385 0.07450 0.29212
 H178 H 0.37120 -0.00174 0.18592
 H179 H 0.35976 -0.01646 0.14383
 H180 H 0.28046 -0.00225 0.16430
 H181 H 0.29387 0.01063 0.20694
 C182 C 0.39677 0.08651 0.20847
 C183 C 0.39097 -0.05216 0.27110
 C184 C 0.31902 -0.01035 0.15022
 C185 C 0.28862 0.03554 0.29569
 C186 C 0.09432 1.05446 0.79032
 H187 H 0.10497 1.04142 0.80274
 C188 C 0.08087 1.07559 0.80071
 H189 H 0.08183 1.07881 0.82098
 C190 C 0.08042 1.06625 0.74896
 H191 H 0.08029 1.06252 0.72881
 C192 C 0.06663 1.08772 0.75859
 H193 H 0.05581 1.10021 0.74571
 N194 N 0.09418 1.05031 0.76482
 C195 C 0.10625 0.97367 0.73211
 H196 H 0.12656 0.97447 0.72852
 C197 C 0.09310 0.95163 0.72560
 H198 H 0.10338 0.93557 0.71663
 C199 C 0.06824 0.99397 0.74795
 H200 H 0.05880 1.01054 0.75684
 C201 C 0.05422 0.97227 0.74151
 H202 H 0.03393 0.97217 0.74550
 Zn203 Zn 0.11439 1.02199 0.75219
 N204 N 0.09381 0.99410 0.74334
 C205 C 0.13311 0.98596 0.78913
 N206 N 0.13662 1.01009 0.77839
 C207 C 0.15438 1.02627 0.78736
 C208 C 0.17012 1.01793 0.80718
 C209 C 0.14808 0.97707 0.80924
 C210 C 0.11910 1.03490 0.70036
 C211 C 0.13116 1.04099 0.67707
 C212 C 0.17116 1.04149 0.69863
 C213 C 0.15836 1.03506 0.72145
 N214 N 0.13270 1.03223 0.72203
 H215 H 0.11838 0.97366 0.78248
 H216 H 0.15611 1.04579 0.77932
 H217 H 0.18430 1.03090 0.81402
 H218 H 0.14514 0.95774 0.81744
 H219 H 0.09887 1.03156 0.70102
 H220 H 0.11995 1.04235 0.66006
 H221 H 0.19150 1.04419 0.69882
 H222 H 0.16911 1.03214 0.73853
 C223 C 0.06678 0.95062 0.73046
 C224 C 0.06688 1.09268 0.78480
 C225 C 0.15759 1.04444 0.67595
 C226 C 0.16694 0.99306 0.81836
 C227 C 0.57437 0.54230 0.28418
 H228 H 0.57237 0.52247 0.29134
 C229 C 0.55990 0.56258 0.29516
 H230 H 0.54634 0.55797 0.31033
 C231 C 0.59482 0.57228 0.25599
 H232 H 0.60890 0.57612 0.24115
 C233 C 0.58107 0.59313 0.26664
 H234 H 0.58499 0.61276 0.25982
 N235 N 0.59130 0.54745 0.26485
 C236 C 0.60778 0.47659 0.22279
 H237 H 0.62808 0.47910 0.22056
 C238 C 0.59633 0.45602 0.21093
 H239 H 0.60791 0.44266 0.19959
 C240 C 0.56807 0.49092 0.24046
 H241 H 0.55711 0.50473 0.25174
 C242 C 0.55586 0.47020 0.22927
 H243 H 0.53552 0.46813 0.23201
 Zn244 Zn 0.61251 0.52018 0.25190
 N245 N 0.59366 0.49352 0.23723
 C246 C 0.62938 0.47966 0.28494
 N247 N 0.63138 0.50559 0.27927
 C248 C 0.64538 0.52128 0.29381
 C249 C 0.65840 0.51085 0.31479
 C250 C 0.64208 0.46846 0.30561
 C251 C 0.62247 0.53997 0.20324
 C252 C 0.63670 0.54859 0.18207
 C253 C 0.67460 0.54444 0.20712
 C254 C 0.65965 0.53546 0.22777
 N255 N 0.63405 0.53353 0.22548
 H256 H 0.61765 0.46758 0.27367
 H257 H 0.64629 0.54193 0.28917
 H258 H 0.66968 0.52352 0.32601
 H259 H 0.63994 0.44784 0.30991
 H260 H 0.60210 0.53809 0.20191
 H261 H 0.62715 0.55362 0.16452
 H262 H 0.69497 0.54581 0.20910
 H263 H 0.66852 0.52989 0.24549
 C264 C 0.57010 0.45259 0.21420
 C265 C 0.56333 0.58851 0.28657
 C266 C 0.66310 0.55088 0.18386
 C267 C 0.65690 0.48404 0.32082
 C268 C 0.86681 0.49665 0.77429
 H269 H 0.86456 0.51456 0.78476
 C270 C 0.88095 0.47568 0.78448
 H271 H 0.88932 0.47761 0.80296
 C272 C 0.85726 0.47208 0.73815
 H273 H 0.84765 0.47057 0.72031
 C274 C 0.87140 0.45068 0.74754
 H275 H 0.87290 0.43309 0.73647
 N276 N 0.85525 0.49450 0.75157
 C277 C 0.84373 0.57389 0.72137
 H278 H 0.82334 0.57472 0.71907
 C279 C 0.85835 0.59524 0.71378
 H280 H 0.84914 0.61256 0.70573
 C281 C 0.88072 0.54990 0.73365
 H282 H 0.88944 0.53209 0.74105
 C283 C 0.89608 0.57059 0.72587
 H284 H 0.91652 0.56866 0.72766
 Zn285 Zn 0.83444 0.52306 0.74045
 N286 N 0.85501 0.55193 0.73144
 C287 C 0.80897 0.55624 0.77614
 N288 N 0.81194 0.53123 0.76812
 C289 C 0.80266 0.51084 0.78226
 C290 C 0.79138 0.51506 0.80626
 C291 C 0.79727 0.56138 0.79969
 C292 C 0.83191 0.51179 0.68955
 C293 C 0.82150 0.50441 0.66675
 C294 C 0.78046 0.50168 0.68822
 C295 C 0.79173 0.50924 0.71077
 N296 N 0.81710 0.51381 0.71100
 H297 H 0.81690 0.57218 0.76508
 H298 H 0.80562 0.49110 0.77568
 H299 H 0.78546 0.49854 0.81799
 H300 H 0.79625 0.58126 0.80635
 H301 H 0.85204 0.51552 0.69032
 H302 H 0.83390 0.50218 0.65014
 H303 H 0.76029 0.49793 0.68829
 H304 H 0.78034 0.51112 0.72808
 C305 C 0.88488 0.59361 0.71588
 C306 C 0.88329 0.45220 0.77113
 C307 C 0.79547 0.49912 0.66583
 C308 C 0.78920 0.54056 0.81543
 C309 C 0.26468 0.38230 -0.00010
 H310 H 0.27447 0.38228 0.01773
 C311 C 0.27517 0.39532 -0.02133
 H312 H 0.29287 0.40539 -0.01946
 C313 C 0.22970 0.36950 -0.02408
 H314 H 0.21192 0.35953 -0.02515
 C315 C 0.23961 0.38210 -0.04585
 H316 H 0.22954 0.38107 -0.06353
 N317 N 0.24271 0.36905 -0.00198
 C318 C 0.21906 0.35712 0.07730
 H319 H 0.22077 0.33606 0.07899
 C320 C 0.21268 0.37180 0.09870
 H321 H 0.20913 0.36179 0.11677
 C322 C 0.22113 0.39556 0.05141
 H323 H 0.22445 0.40468 0.03291
 C324 C 0.21485 0.41102 0.07236
 H325 H 0.21369 0.43205 0.06981
 Zn326 Zn 0.23213 0.34780 0.02631
 N327 N 0.22307 0.36913 0.05426
 C328 C 0.27775 0.33886 0.04996
 N329 N 0.26061 0.32655 0.03572
 C330 C 0.26578 0.30228 0.02648
 C331 C 0.28961 0.29014 0.03036
 C332 C 0.30169 0.32767 0.05400
 C333 C 0.18106 0.33253 0.02990
 C334 C 0.15858 0.32268 0.02086
 C335 C 0.18278 0.30258 -0.01343
 C336 C 0.20490 0.31268 -0.00360
 N337 N 0.20357 0.32810 0.01722
 H338 H 0.27329 0.35808 0.05718
 H339 H 0.25198 0.29274 0.01524
 H340 H 0.29405 0.27133 0.02209
 H341 H 0.31549 0.33828 0.06444
 H342 H 0.18017 0.34494 0.04627
 H343 H 0.14078 0.32722 0.03078
 H344 H 0.18402 0.29190 -0.03100
 H345 H 0.22282 0.30994 -0.01383
 C346 C 0.21052 0.39915 0.09642
 C347 C 0.26300 0.39468 -0.04481
 C348 C 0.15911 0.30837 -0.00165
 C349 C 0.30805 0.30341 0.04355
 C350 C 0.78465 0.07212 1.03694
 H351 H 0.79210 0.06876 1.01787
 C352 C 0.79526 0.05864 1.05769
 H353 H 0.81043 0.04441 1.05425
 C354 C 0.75608 0.09513 1.06440
 H355 H 0.74136 0.10998 1.06702
 C356 C 0.76640 0.08246 1.08570
 H357 H 0.75939 0.08788 1.10445
 N358 N 0.76538 0.08991 1.04062
 C359 C 0.73598 0.10386 0.96442
 H360 H 0.73578 0.12499 0.96457
 C361 C 0.72846 0.09107 0.94282
 H362 H 0.72228 0.10246 0.92638
 C363 C 0.74382 0.06340 0.98600
 H364 H 0.74957 0.05277 1.00300
 C365 C 0.73602 0.04975 0.96484
 H366 H 0.73608 0.02860 0.96553
 Zn367 Zn 0.75396 0.11048 1.01264
 N368 N 0.74396 0.08999 0.98523
 C369 C 0.79260 0.12798 0.97864
 N370 N 0.78125 0.13188 1.00184
 C371 C 0.79008 0.14987 1.01796
 C372 C 0.81050 0.16552 1.01049
 C373 C 0.81311 0.14299 0.97051
 C374 C 0.70404 0.11656 1.02947
 C375 C 0.68142 0.12930 1.03688
 C376 C 0.70185 0.17064 1.02949
 C377 C 0.72408 0.15707 1.02205
 N378 N 0.72485 0.13049 1.02252
 H379 H 0.78603 0.11297 0.96644
 H380 H 0.78121 0.15207 1.03662
 H381 H 0.81727 0.17982 1.02346
 H382 H 0.82159 0.13983 0.95180
 H383 H 0.70508 0.09544 1.02924
 H384 H 0.66504 0.11777 1.04208
 H385 H 0.70177 0.19178 1.02957
 H386 H 0.74063 0.16781 1.01590
 C387 C 0.72853 0.06369 0.94282
 C388 C 0.78644 0.06404 1.08259
 C389 C 0.68014 0.15672 1.03717
 C390 C 0.82227 0.16210 0.98646
 C391 C 0.25276 0.57778 0.55852
 H392 H 0.23478 0.57377 0.55011
 C393 C 0.26161 0.56172 0.57845
 H394 H 0.25026 0.54540 0.58491
 C395 C 0.28977 0.60306 0.55952
 H396 H 0.30093 0.61901 0.55216
 C397 C 0.29903 0.58794 0.57981
 H398 H 0.31682 0.59321 0.58800
 N399 N 0.26675 0.59818 0.54958
 C400 C 0.23129 0.61669 0.47716
 H401 H 0.22778 0.63735 0.47993
 C402 C 0.22334 0.60513 0.45506
 H403 H 0.21339 0.61695 0.44094
 C404 C 0.24844 0.57619 0.49243
 H405 H 0.25859 0.56515 0.50689
 C406 C 0.24050 0.56371 0.47064
 H407 H 0.24445 0.54301 0.46850
 Zn408 Zn 0.25384 0.62108 0.52359
 N409 N 0.24368 0.60223 0.49521
 C410 C 0.29030 0.64054 0.48876
 N411 N 0.27984 0.64438 0.51238
 C412 C 0.28906 0.66274 0.52791
 C413 C 0.30974 0.67781 0.51991
 C414 C 0.31094 0.65505 0.48009
 C415 C 0.20340 0.62449 0.54098
 C416 C 0.18065 0.63609 0.54975
 C417 C 0.20095 0.67791 0.54796
 C418 C 0.22326 0.66553 0.53891
 N419 N 0.22426 0.63917 0.53606
 H420 H 0.28322 0.62561 0.47678
 H421 H 0.28097 0.66504 0.54689
 H422 H 0.31725 0.69187 0.53271
 H423 H 0.31899 0.65153 0.46126
 H424 H 0.20427 0.60374 0.53772
 H425 H 0.16437 0.62401 0.55383
 H426 H 0.20048 0.69889 0.55022
 H427 H 0.23957 0.67712 0.53402
 C428 C 0.22795 0.57834 0.45158
 C429 C 0.28490 0.56694 0.58972
 C430 C 0.17932 0.66310 0.55356
 C431 C 0.32117 0.67370 0.49585
 C432 C 0.75762 0.89751 0.48382
 H433 H 0.74875 0.90753 0.49970
 C434 C 0.76864 0.91201 0.46366
 H435 H 0.76801 0.93315 0.46403
 C436 C 0.77039 0.85790 0.46412
 H437 H 0.77100 0.83676 0.46449
 C438 C 0.78190 0.87151 0.44396
 H439 H 0.79127 0.86077 0.42871
 N440 N 0.75853 0.87090 0.48351
 C441 C 0.74025 0.85755 0.56159
 H442 H 0.75287 0.84068 0.56336
 C443 C 0.73165 0.87025 0.58347
 H444 H 0.73775 0.86273 0.60182
 C445 C 0.71569 0.88637 0.53565
 H446 H 0.70923 0.89224 0.51693
 C447 C 0.70699 0.90005 0.55708
 H448 H 0.69436 0.91684 0.55444
 Zn449 Zn 0.74577 0.84806 0.50937
 N450 N 0.73265 0.86606 0.53821
 C451 C 0.79328 0.84315 0.52733
 N452 N 0.77466 0.82785 0.51890
 C453 C 0.77866 0.80174 0.51561
 C454 C 0.80264 0.79025 0.52053
 C455 C 0.81721 0.83262 0.53240
 C456 C 0.71006 0.83699 0.47311
 C457 C 0.68911 0.82532 0.46292
 C458 C 0.68765 0.79572 0.49935
 C459 C 0.70880 0.80810 0.50895
 N460 N 0.71950 0.82836 0.49573
 H461 H 0.78960 0.86387 0.52951
 H462 H 0.76366 0.79006 0.50841
 H463 H 0.80596 0.76962 0.51731
 H464 H 0.83169 0.84533 0.53908
 H465 H 0.71809 0.85371 0.46330
 H466 H 0.68147 0.83337 0.44538
 H467 H 0.67921 0.77974 0.51013
 H468 H 0.71634 0.80193 0.52717
 C469 C 0.71519 0.89220 0.58146
 C470 C 0.78117 0.89887 0.44361
 C471 C 0.67745 0.80447 0.47605
 C472 C 0.82240 0.80600 0.52849
 C473 C -0.01166 0.28841 0.39296
 H474 H 0.00627 0.29828 0.39117
 C475 C -0.03137 0.29884 0.40826
 H476 H -0.02833 0.31656 0.41854
 C477 C -0.03764 0.25371 0.38118
 H478 H -0.04045 0.23662 0.37002
 C479 C -0.05775 0.26338 0.39627
 H480 H -0.07571 0.25347 0.39652
 N481 N -0.01506 0.26613 0.37990
 C482 C 0.05875 0.22925 0.36276
 H483 H 0.05630 0.22546 0.34278
 C484 C 0.08029 0.21945 0.37505
 H485 H 0.09454 0.20842 0.36430
 C486 C 0.04286 0.24787 0.40106
 H487 H 0.02800 0.25846 0.41127
 C488 C 0.06424 0.23855 0.41410
 H489 H 0.06561 0.24208 0.43428
 Zn490 Zn 0.01132 0.25381 0.35751
 N491 N 0.04059 0.24320 0.37580
 C492 C 0.04356 0.28688 0.32784
 N493 N 0.01902 0.28140 0.33423
 C494 C -0.00057 0.29727 0.32645
 C495 C 0.00428 0.32038 0.31273
 C496 C 0.04921 0.30949 0.31370
 C497 C -0.00416 0.20267 0.35527
 C498 C -0.01404 0.18043 0.34481
 C499 C -0.01290 0.20210 0.30341
 C500 C -0.00341 0.22424 0.31481
 N501 N 0.00024 0.22423 0.34040
 H502 H 0.05889 0.27430 0.33445
 H503 H -0.01990 0.29258 0.33196
 H504 H -0.01138 0.33342 0.30760
 H505 H 0.06890 0.31411 0.30962
 H506 H -0.00075 0.20314 0.37549
 H507 H -0.01829 0.16370 0.35704
 H508 H -0.01645 0.20241 0.28317
 H509 H 0.00054 0.24154 0.30335
 C510 C 0.08317 0.22394 0.40109
 C511 C -0.05482 0.28629 0.40999
 C512 C -0.01883 0.18015 0.31868
 C513 C 0.02947 0.32687 0.30660
 C514 C 1.05383 0.79476 0.06279
 H515 H 1.03530 0.80375 0.05966
 C516 C 1.07497 0.80312 0.04844
 H517 H 1.07253 0.81841 0.03407
 C518 C 1.07950 0.76396 0.08541
 H519 H 1.08131 0.74881 0.09991
 C520 C 1.10107 0.77165 0.07151
 H521 H 1.11929 0.76252 0.07583
 N522 N 1.05656 0.77595 0.08129
 C523 C 0.97694 0.76801 0.08713
 H524 H 0.97406 0.78267 0.10143
 C525 C 0.95592 0.75851 0.07487
 H526 H 0.93710 0.76574 0.08031
 C527 C 1.00471 0.73997 0.06362
 H528 H 1.02381 0.73257 0.05965
 C529 C 0.98420 0.72990 0.05087
 H530 H 0.98773 0.71496 0.03685
 Zn531 Zn 1.02828 0.76698 0.10254
 N532 N 1.00065 0.75793 0.08208
 C533 C 1.02897 0.81944 0.11968
 N534 N 1.01872 0.79548 0.12358
 C535 C 1.00140 0.79114 0.14276
 C536 C 0.99298 0.81155 0.15827
 C537 C 1.02103 0.84044 0.13471
 C538 C 1.02958 0.71360 0.11924
 C539 C 1.03800 0.69225 0.13403
 C540 C 1.06135 0.72178 0.15944
 C541 C 1.05272 0.74253 0.14396
 N542 N 1.03746 0.73809 0.12405
 H543 H 1.04317 0.82246 0.10481
 H544 H 0.99378 0.77183 0.14568
 H545 H 0.97859 0.80783 0.17291
 H546 H 1.02925 0.85941 0.13120
 H547 H 1.01723 0.71036 0.10358
 H548 H 1.03230 0.67286 0.12909
 H549 H 1.07348 0.72583 0.17517
 H550 H 1.05854 0.76221 0.14756
 C551 C 0.95930 0.73861 0.05702
 C552 C 1.09909 0.79178 0.05302
 C553 C 1.05439 0.69610 0.15428
 C554 C 1.00262 0.83669 0.15416
 C555 C 0.53547 0.27029 0.58084
 H556 H 0.51670 0.27934 0.58057
 C557 C 0.55602 0.28324 0.56933
 H558 H 0.55282 0.30191 0.55971
 C559 C 0.56280 0.23568 0.59469
 H560 H 0.56578 0.21769 0.60532
 C561 C 0.58374 0.24772 0.58314
 H562 H 0.60244 0.23858 0.58477
 N563 N 0.53908 0.24676 0.59299
 C564 C 0.47790 0.19434 0.58966
 H565 H 0.48480 0.18205 0.60508
 C566 C 0.45858 0.18531 0.57472
 H567 H 0.45113 0.16608 0.57876
 C568 C 0.47762 0.23488 0.56704
 H569 H 0.48467 0.25440 0.56450
 C570 C 0.45794 0.22669 0.55180
 H571 H 0.45029 0.23988 0.53735
 Zn572 Zn 0.51058 0.23088 0.60968
 N573 N 0.48698 0.21881 0.58580
 C574 C 0.46907 0.26252 0.62674
 N575 N 0.49412 0.25654 0.63010
 C576 C 0.50798 0.26946 0.64717
 C577 C 0.49666 0.28944 0.66157
 C578 C 0.45714 0.28261 0.64040
 C579 C 0.53393 0.18149 0.61900
 C580 C 0.54206 0.15973 0.63335
 C581 C 0.52314 0.17946 0.67083
 C582 C 0.51573 0.20106 0.65581
 N583 N 0.52144 0.20185 0.63041
 H584 H 0.45828 0.25190 0.61331
 H585 H 0.52791 0.26439 0.64937
 H586 H 0.50794 0.29979 0.67489
 H587 H 0.43723 0.28728 0.63736
 H588 H 0.53767 0.18223 0.59864
 H589 H 0.55276 0.14430 0.62386
 H590 H 0.51800 0.17915 0.69092
 H591 H 0.50513 0.21704 0.66445
 C592 C 0.44808 0.20166 0.55575
 C593 C 0.58049 0.27178 0.57025
 C594 C 0.53676 0.15845 0.65971
 C595 C 0.47101 0.29641 0.65795
 C596 C 0.49600 0.74577 0.88627
 H597 H 0.51480 0.75270 0.88966
 C598 C 0.47494 0.75806 0.89797
 H599 H 0.47785 0.77439 0.91025
 C600 C 0.46919 0.71755 0.86465
 H601 H 0.46687 0.70248 0.85087
 C602 C 0.44764 0.72926 0.87593
 H603 H 0.42901 0.72248 0.87126
 N604 N 0.49281 0.72606 0.86976
 C605 C 0.55825 0.68357 0.87768
 H606 H 0.54847 0.66673 0.87132
 C607 C 0.57963 0.67990 0.89272
 H608 H 0.58600 0.66023 0.89778
 C609 C 0.56265 0.72949 0.87822
 H610 H 0.55618 0.74879 0.87217
 C611 C 0.58434 0.72668 0.89300
 H612 H 0.59416 0.74391 0.89862
 Zn613 Zn 0.52105 0.71321 0.85009
 N614 N 0.54997 0.70810 0.87096
 C615 C 0.55266 0.74202 0.81577
 N616 N 0.52842 0.73905 0.82484
 C617 C 0.50980 0.75711 0.81957
 C618 C 0.51563 0.78024 0.80648
 C619 C 0.55933 0.76493 0.80249
 C620 C 0.50256 0.66270 0.85148
 C621 C 0.49373 0.63947 0.84207
 C622 C 0.50502 0.65464 0.79948
 C623 C 0.51358 0.67777 0.80977
 N624 N 0.51206 0.68137 0.83536
 H625 H 0.56717 0.72747 0.82042
 H626 H 0.49065 0.75433 0.82686
 H627 H 0.50084 0.79505 0.80367
 H628 H 0.57904 0.76787 0.79696
 H629 H 0.50115 0.66627 0.87171
 H630 H 0.48537 0.62542 0.85530
 H631 H 0.50628 0.65209 0.77907
 H632 H 0.52108 0.69298 0.79731
 C633 C 0.59296 0.70162 0.90054
 C634 C 0.45033 0.75016 0.89243
 C635 C 0.49473 0.63518 0.81573
 C636 C 0.54086 0.78483 0.79874
 C637 C 0.44289 -0.13622 0.32709
 C638 C 0.43257 -0.16141 0.32592
 C639 C 0.44360 -0.18245 0.33963
 C640 C 0.46491 -0.17905 0.35481
 C641 C 0.47470 -0.15380 0.35629
 C642 C 0.46402 -0.13280 0.34254
 C643 C 0.43036 -0.11418 0.31240
 C644 C 0.43943 -0.08849 0.31190
 C645 C 0.42674 -0.06854 0.29838
 C646 C 0.40470 -0.07361 0.28497
 C647 C 0.39574 -0.09923 0.28505
 C648 C 0.40839 -0.11946 0.29850
 C649 C 0.41103 -0.16541 0.31145
 C650 C 0.39912 -0.14486 0.29816
 H651 H 0.40308 -0.18470 0.31058
 H652 H 0.38236 -0.14894 0.28744
 H653 H 0.43530 -0.20159 0.33886
 H654 H 0.49023 -0.14965 0.36850
 H655 H 0.43438 -0.04909 0.29825
 H656 H 0.37858 -0.10339 0.27499
 H657 H 0.47236 -0.11397 0.34468
 H658 H 0.45631 -0.08333 0.32171
 C659 C 0.93515 0.36315 0.81947
 C660 C 0.95596 0.36861 0.83492
 C661 C 0.96791 0.34848 0.84918
 C662 C 0.95964 0.32255 0.84824
 C663 C 0.93951 0.31724 0.83212
 C664 C 0.92746 0.33709 0.81797
 C665 C 0.92197 0.38548 0.80578
 C666 C 0.90013 0.38236 0.79120
 C667 C 0.88793 0.40392 0.77972
 C668 C 0.89719 0.42919 0.78228
 C669 C 0.91923 0.43241 0.79636
 C670 C 0.93144 0.41091 0.80830
 C671 C 0.96455 0.39421 0.83636
 C672 C 0.95270 0.41486 0.82318
 H673 H 0.98063 0.39842 0.84802
 H674 H 0.95999 0.43432 0.82509
 H675 H 0.98321 0.35361 0.86126
 H676 H 0.93270 0.29751 0.83089
 H677 H 0.87073 0.40082 0.76938
 H678 H 0.92682 0.45176 0.79823
 H679 H 0.91203 0.33160 0.80619
 H680 H 0.89183 0.36355 0.78882
 C681 C 0.01937 1.18435 0.83083
 C682 C 0.02022 1.20819 0.81676
 C683 C 0.01011 1.23129 0.82740
 C684 C -0.00073 1.23122 0.85221
 C685 C -0.00060 1.20758 0.86628
 C686 C 0.00911 1.18454 0.85581
 C687 C 0.03017 1.16009 0.81882
 C688 C 0.02912 1.13526 0.83086
 C689 C 0.04045 1.11344 0.81944
 C690 C 0.05311 1.11567 0.79570
 C691 C 0.05338 1.14013 0.78305
 C692 C 0.04196 1.16225 0.79437
 C693 C 0.03156 1.20891 0.79232
 C694 C 0.04243 1.18650 0.78149
 H695 H 0.03235 1.22717 0.78152
 H696 H 0.05130 1.18819 0.76269
 H697 H 0.01131 1.24938 0.81643
 H698 H -0.00806 1.20644 0.88552
 H699 H 0.03935 1.09469 0.82931
 H700 H 0.06311 1.14212 0.76469
 H701 H 0.00861 1.16717 0.86778
 H702 H 0.01968 1.13220 0.84910
 C703 C 0.51517 0.67873 0.33531
 C704 C 0.51153 0.70140 0.31985
 C705 C 0.50252 0.72479 0.33071
 C706 C 0.49629 0.72609 0.35692
 C707 C 0.49905 0.70312 0.37189
 C708 C 0.50834 0.67988 0.36134
 C709 C 0.52638 0.65461 0.32325
 C710 C 0.53286 0.63176 0.33733
 C711 C 0.54435 0.61027 0.32536
 C712 C 0.54947 0.61076 0.29898
 C713 C 0.54248 0.63326 0.28473
 C714 C 0.53152 0.65522 0.29666
 C715 C 0.51703 0.70069 0.29362
 C716 C 0.52645 0.67800 0.28223
 H717 H 0.51399 0.71797 0.28169
 H718 H 0.53043 0.67850 0.26187
 H719 H 0.50109 0.74202 0.31853
 H720 H 0.49415 0.70270 0.39193
 H721 H 0.54995 0.59351 0.33703
 H722 H 0.54592 0.63390 0.26429
 H723 H 0.51000 0.66304 0.37394
 H724 H 0.52987 0.63031 0.35770
 C725 C 0.53043 0.36126 0.16704
 C726 C 0.51833 0.34266 0.18325
 C727 C 0.51086 0.31865 0.17354
 C728 C 0.51515 0.31289 0.14766
 C729 C 0.52614 0.33205 0.13161
 C730 C 0.53371 0.35575 0.14104
 C731 C 0.53944 0.38592 0.17834
 C732 C 0.55345 0.40458 0.16413
 C733 C 0.56271 0.42649 0.17578
 C734 C 0.55803 0.43061 0.20176
 C735 C 0.54348 0.41265 0.21601
 C736 C 0.53454 0.39013 0.20459
 C737 C 0.51385 0.34810 0.20905
 C738 C 0.52156 0.37142 0.21942
 H739 H 0.50435 0.33404 0.22147
 H740 H 0.51780 0.37459 0.23952
 H741 H 0.50178 0.30480 0.18636
 H742 H 0.52916 0.32847 0.11148
 H743 H 0.57388 0.44019 0.16449
 H744 H 0.54015 0.41562 0.23621
 H745 H 0.54211 0.36939 0.12757
 H746 H 0.55806 0.40237 0.14417
 C747 C 0.02013 0.85793 0.69315
 C748 C 0.03392 0.83414 0.69670
 C749 C 0.02696 0.81177 0.68387
 C750 C 0.00714 0.81271 0.66615
 C751 C -0.00829 0.83568 0.66521
 C752 C -0.00173 0.85798 0.67822
 C753 C 0.02991 0.88208 0.70490
 C754 C 0.01874 0.90714 0.70096
 C755 C 0.03011 0.92934 0.71023
 C756 C 0.05284 0.92708 0.72358
 C757 C 0.06335 0.90214 0.72873
 C758 C 0.05227 0.87977 0.71934
 C759 C 0.05515 0.83297 0.71230
 C760 C 0.06410 0.85530 0.72344
 H761 H 0.06549 0.81464 0.71534
 H762 H 0.08106 0.85351 0.73474
 H763 H 0.03789 0.79376 0.68682
 H764 H -0.02551 0.83685 0.65440
 H765 H 0.02170 0.94841 0.70598
 H766 H 0.08072 0.90023 0.73941
 H767 H -0.01386 0.87513 0.67605
 H768 H 0.00174 0.91014 0.69009
 C769 C 0.94591 0.67992 0.67839
 C770 C 0.94012 0.70492 0.68825
 C771 C 0.95380 0.72675 0.67951
 C772 C 0.97253 0.72445 0.65999
 C773 C 0.97793 0.69949 0.65020
 C774 C 0.96498 0.67762 0.65929
 C775 C 0.93098 0.65710 0.68826
 C776 C 0.93649 0.63119 0.68097
 C777 C 0.92166 0.61068 0.69025
 C778 C 0.90088 0.61545 0.70681
 C779 C 0.89543 0.64107 0.71454
 C780 C 0.91054 0.66181 0.70573
 C781 C 0.92021 0.70812 0.70622
 C782 C 0.90549 0.68712 0.71446
 H783 H 0.91560 0.72727 0.71368
 H784 H 0.89001 0.69072 0.72803
 H785 H 0.94865 0.74575 0.68700
 H786 H 0.99290 0.69631 0.63605
 H787 H 0.92619 0.59101 0.68410
 H788 H 0.87963 0.64475 0.72773
 H789 H 0.97009 0.65916 0.65086
 H790 H 0.95219 0.62627 0.66825
 C791 C 0.45596 0.17447 0.17192
 C792 C 0.44790 0.19968 0.17981
 C793 C 0.46052 0.22191 0.17035
 C794 C 0.48045 0.21947 0.15224
 C795 C 0.48795 0.19453 0.14406
 C796 C 0.47611 0.17231 0.15389
 C797 C 0.44189 0.15125 0.18219
 C798 C 0.44948 0.12530 0.17684
 C799 C 0.43509 0.10437 0.18589
 C800 C 0.41274 0.10875 0.20037
 C801 C 0.40541 0.13443 0.20651
 C802 C 0.41999 0.15563 0.19786
 C803 C 0.42675 0.20259 0.19632
 C804 C 0.41284 0.18108 0.20480
 H805 H 0.42045 0.22187 0.20227
 H806 H 0.39626 0.18443 0.21705
 H807 H 0.45407 0.24119 0.17619
 H808 H 0.50293 0.19210 0.12982
 H809 H 0.44111 0.08469 0.18103
 H810 H 0.38839 0.13785 0.21815
 H811 H 0.48260 0.15373 0.14659
 H812 H 0.46643 0.12071 0.16570
 C813 C 0.31132 0.43240 -0.13896
 C814 C 0.33807 0.42933 -0.14116
 C815 C 0.35091 0.43716 -0.16368
 C816 C 0.33764 0.44784 -0.18455
 C817 C 0.31093 0.45005 -0.18246
 C818 C 0.29802 0.44261 -0.16003
 C819 C 0.29829 0.42396 -0.11452
 C820 C 0.27188 0.42720 -0.11000
 C821 C 0.26057 0.41822 -0.08722
 C822 C 0.27523 0.40580 -0.06833
 C823 C 0.30166 0.40312 -0.07241
 C824 C 0.31325 0.41222 -0.09516
 C825 C 0.35183 0.41812 -0.12102
 C826 C 0.33966 0.40951 -0.09862
 H827 H 0.37233 0.41567 -0.12272
 H828 H 0.35114 0.40064 -0.08373
 H829 H 0.37145 0.43480 -0.16511
 H830 H 0.29948 0.45719 -0.19797
 H831 H 0.24024 0.42107 -0.08439
 H832 H 0.31323 0.39333 -0.05813
 H833 H 0.27757 0.44470 -0.15976
 H834 H 0.25960 0.43662 -0.12374
 C835 C 0.83052 0.94683 0.35510
 C836 C 0.85588 0.93851 0.34968
 C837 C 0.86872 0.94787 0.32779
 C838 C 0.85646 0.96467 0.31013
 C839 C 0.83145 0.97333 0.31589
 C840 C 0.81858 0.96443 0.33790
 C841 C 0.81756 0.93630 0.37882
 C842 C 0.79263 0.94390 0.38657
 C843 C 0.78109 0.93250 0.40824
 C844 C 0.79406 0.91319 0.42247
 C845 C 0.81915 0.90623 0.41551
 C846 C 0.83100 0.91768 0.39401
 C847 C 0.86836 0.92074 0.36604
 C848 C 0.85609 0.91033 0.38758
 H849 H 0.88781 0.91441 0.36189
 H850 H 0.86641 0.89625 0.39937
 H851 H 0.88849 0.94213 0.32469
 H852 H 0.82183 0.98742 0.30360
 H853 H 0.76168 0.93812 0.41339
 H854 H 0.82936 0.89159 0.42677
 H855 H 0.79935 0.97161 0.34109
 H856 H 0.78163 0.95834 0.37605
 C857 C 0.83560 0.02100 1.17305
 C858 C 0.82034 0.01864 1.19550
 C859 C 0.83129 0.01018 1.21849
 C860 C 0.85730 0.00321 1.21950
 C861 C 0.87209 0.00481 1.19695
 C862 C 0.86152 0.01362 1.17411
 C863 C 0.82343 0.03120 1.14915
 C864 C 0.83735 0.03631 1.12640
 C865 C 0.82527 0.04655 1.10487
 C866 C 0.79892 0.05174 1.10522
 C867 C 0.78486 0.04633 1.12777
 C868 C 0.79693 0.03664 1.14973
 C869 C 0.79423 0.02461 1.19486
 C870 C 0.78271 0.03304 1.17239
 H871 H 0.78246 0.02259 1.21199
 H872 H 0.76242 0.03731 1.17290
 H873 H 0.81946 0.00942 1.23565
 H874 H 0.89190 -0.00101 1.19663
 H875 H 0.83685 0.05110 1.08810
 H876 H 0.76447 0.04992 1.12838
 H877 H 0.87394 0.01423 1.15748
 H878 H 0.85767 0.03317 1.12496
 C879 C 0.32157 0.51059 0.67969
 C880 C 0.34801 0.51100 0.68386
 C881 C 0.35802 0.49983 0.70626
 C882 C 0.34224 0.48721 0.72446
 C883 C 0.31618 0.48556 0.71933
 C884 C 0.30595 0.49722 0.69748
 C885 C 0.31145 0.52412 0.65631
 C886 C 0.28524 0.52753 0.65195
 C887 C 0.27674 0.54107 0.63028
 C888 C 0.29408 0.55126 0.61211
 C889 C 0.32027 0.54755 0.61619
 C890 C 0.32900 0.53478 0.63835
 C891 C 0.36437 0.52232 0.66553
 C892 C 0.35512 0.53344 0.64301
 H893 H 0.38469 0.52235 0.66851
 H894 H 0.36859 0.54176 0.62934
 H895 H 0.37815 0.50131 0.70926
 H896 H 0.30341 0.47493 0.73198
 H897 H 0.25646 0.54415 0.62821
 H898 H 0.33403 0.55490 0.60230
 H899 H 0.28585 0.49518 0.69469
 H900 H 0.27099 0.52061 0.66541
 C901 C 0.18535 0.53671 0.36055
 C902 C 0.18934 0.55116 0.33758
 C903 C 0.17678 0.54444 0.31547
 C904 C 0.15914 0.52422 0.31588
 C905 C 0.15637 0.50902 0.33840
 C906 C 0.16918 0.51521 0.36039
 C907 C 0.19794 0.54547 0.38413
 C908 C 0.19497 0.53267 0.40806
 C909 C 0.20555 0.54282 0.42980
 C910 C 0.21923 0.56595 0.42823
 C911 C 0.22327 0.57818 0.40437
 C912 C 0.21279 0.56817 0.38240
 C913 C 0.20525 0.57271 0.33695
 C914 C 0.21660 0.58113 0.35891
 H915 H 0.20844 0.58367 0.31931
 H916 H 0.22821 0.59834 0.35756
 H917 H 0.18013 0.55562 0.29798
 H918 H 0.14451 0.49214 0.33944
 H919 H 0.20222 0.53308 0.44806
 H920 H 0.23424 0.59585 0.40300
 H921 H 0.16586 0.50306 0.37712
 H922 H 0.18416 0.51514 0.41053
 C923 C 0.68838 0.01714 0.85290
 C924 C 0.66798 -0.00010 0.85687
 C925 C 0.65486 -0.00931 0.83601
 C926 C 0.66203 -0.00218 0.81082
 C927 C 0.68256 0.01467 0.80710
 C928 C 0.69565 0.02405 0.82770
 C929 C 0.70061 0.02805 0.87579
 C930 C 0.71986 0.04673 0.87391
 C931 C 0.72932 0.05769 0.89575
 C932 C 0.72016 0.05009 0.92001
 C933 C 0.70174 0.03079 0.92221
 C934 C 0.69165 0.02004 0.90034
 C935 C 0.66034 -0.00759 0.88166
 C936 C 0.67205 0.00210 0.90291
 H937 H 0.64484 -0.02097 0.88471
 H938 H 0.66521 -0.00408 0.92168
 H939 H 0.63844 -0.02116 0.83982
 H940 H 0.68814 0.02122 0.78806
 H941 H 0.74370 0.07243 0.89368
 H942 H 0.69439 0.02507 0.94094
 H943 H 0.71108 0.03703 0.82342
 H944 H 0.72747 0.05361 0.85581
 C945 C 0.68070 0.94351 0.67444
 C946 C 0.65655 0.95623 0.67435
 C947 C 0.64674 0.96798 0.69656
 C948 C 0.66000 0.96619 0.71951
 C949 C 0.68371 0.95288 0.71956
 C950 C 0.69400 0.94191 0.69739
 C951 C 0.69056 0.93134 0.65033
 C952 C 0.71524 0.92032 0.64783
 C953 C 0.72322 0.90827 0.62536
 C954 C 0.70680 0.90654 0.60476
 C955 C 0.68245 0.91840 0.60677
 C956 C 0.67444 0.93111 0.62915
 C957 C 0.64198 0.95646 0.65233
 C958 C 0.65049 0.94368 0.63041
 H959 H 0.62338 0.96605 0.65227
 H960 H 0.63822 0.94385 0.61411
 H961 H 0.62861 0.97826 0.69580
 H962 H 0.69424 0.95018 0.73689
 H963 H 0.74248 0.90037 0.62414
 H964 H 0.66947 0.91741 0.59112
 H965 H 0.71205 0.93160 0.69885
 H966 H 0.72877 0.92100 0.66290
 C967 C 0.17992 0.45937 0.18524
 C968 C 0.16259 0.48058 0.18128
 C969 C 0.15313 0.49497 0.20205
 C970 C 0.16031 0.48836 0.22698
 C971 C 0.17771 0.46754 0.23084
 C972 C 0.18746 0.45327 0.21031
 C973 C 0.18898 0.44402 0.16261
 C974 C 0.20622 0.42260 0.16448
 C975 C 0.21337 0.40838 0.14298
 C976 C 0.20360 0.41506 0.11901
 C977 C 0.18683 0.43672 0.11685
 C978 C 0.17951 0.45119 0.13835
 C979 C 0.15441 0.48702 0.15669
 C980 C 0.16260 0.47257 0.13571
 H981 H 0.14118 0.50328 0.15364
 H982 H 0.15545 0.47816 0.11713
 H983 H 0.14004 0.51130 0.19875
 H984 H 0.18329 0.46171 0.24989
 H985 H 0.22675 0.39211 0.14513
 H986 H 0.17895 0.44197 0.09849
 H987 H 0.20047 0.43727 0.21459
 H988 H 0.21437 0.41641 0.18233
 C989 C -0.14556 0.32926 0.46032
 C990 C -0.15049 0.35636 0.45689
 C991 C -0.17360 0.36753 0.46571
 C992 C -0.19253 0.35213 0.47748
 C993 C -0.18709 0.32535 0.48163
 C994 C -0.16402 0.31411 0.47321
 C995 C -0.12126 0.31781 0.44934
 C996 C -0.11485 0.29096 0.45116
 C997 C -0.09289 0.28099 0.43907
 C998 C -0.07665 0.29745 0.42494
 C999 C -0.08229 0.32439 0.42391
 C1000 C -0.10444 0.33462 0.43585
 C1001 C -0.13265 0.37207 0.44410
 C1002 C -0.11015 0.36143 0.43375
 H1003 H -0.13636 0.39288 0.44160
 H1004 H -0.09720 0.37435 0.42359
 H1005 H -0.17729 0.38829 0.46271
 H1006 H -0.20040 0.31258 0.49118
 H1007 H -0.08873 0.26020 0.44057
 H1008 H -0.06999 0.33728 0.41287
 H1009 H -0.16123 0.29343 0.47671
 H1010 H -0.12668 0.27722 0.46144
 C1011 C 0.36375 0.81236 0.92940
 C1012 C 0.36483 0.82177 0.95445
 C1013 C 0.34538 0.83838 0.96401
 C1014 C 0.32493 0.84695 0.94864
 C1015 C 0.32321 0.83568 0.92444
 C1016 C 0.34234 0.81904 0.91487
 C1017 C 0.38533 0.79541 0.91961
 C1018 C 0.38651 0.78596 0.89459
 C1019 C 0.40736 0.77092 0.88612
 C1020 C 0.42763 0.76486 0.90227
 C1021 C 0.42654 0.77394 0.92732
 C1022 C 0.40567 0.78918 0.93604
 C1023 C 0.38531 0.81452 0.96990
 C1024 C 0.40525 0.79855 0.96091
 H1025 H 0.38606 0.82152 0.98920
 H1026 H 0.42076 0.79373 0.97354
 H1027 H 0.34625 0.84415 0.98366
 H1028 H 0.30684 0.83960 0.91272
 H1029 H 0.40792 0.76461 0.86655
 H1030 H 0.44204 0.76923 0.94001
 H1031 H 0.33983 0.81152 0.89610
 H1032 H 0.37181 0.79032 0.88108
 C1033 C 1.19283 0.83113 0.00730
 C1034 C 1.19462 0.85848 0.00413
 C1035 C 1.21720 0.86947 -0.00555
 C1036 C 1.23875 0.85375 -0.01225
 C1037 C 1.23664 0.82646 -0.00841
 C1038 C 1.21423 0.81542 0.00105
 C1039 C 1.16839 0.82019 0.01774
 C1040 C 1.16452 0.79318 0.02111
 C1041 C 1.14181 0.78405 0.03190
 C1042 C 1.12229 0.80152 0.03956
 C1043 C 1.12562 0.82843 0.03550
 C1044 C 1.14840 0.83784 0.02468
 C1045 C 1.17389 0.87486 0.01085
 C1046 C 1.15137 0.86478 0.02106
 H1047 H 1.17517 0.89587 0.00845
 H1048 H 1.13604 0.87832 0.02624
 H1049 H 1.21721 0.89041 -0.00774
 H1050 H 1.25226 0.81298 -0.01214
 H1051 H 1.13956 0.76316 0.03434
 H1052 H 1.11077 0.84216 0.04150
 H1053 H 1.21425 0.79446 0.00357
 H1054 H 1.17878 0.77874 0.01568
 C1055 C 0.67017 0.32181 0.52699
 C1056 C 0.67426 0.34792 0.53390
 C1057 C 0.69641 0.36064 0.52540
 C1058 C 0.71459 0.34783 0.50977
 C1059 C 0.70998 0.32223 0.50232
 C1060 C 0.68820 0.30937 0.51081
 C1061 C 0.64678 0.30857 0.53718
 C1062 C 0.64185 0.28213 0.53273
 C1063 C 0.62020 0.27048 0.54323
 C1064 C 0.60273 0.28484 0.55823
 C1065 C 0.60721 0.31127 0.56254
 C1066 C 0.62923 0.32310 0.55246
 C1067 C 0.65621 0.36117 0.54922
 C1068 C 0.63408 0.34912 0.55808
 H1069 H 0.65922 0.38122 0.55441
 H1070 H 0.62072 0.36025 0.56984
 H1071 H 0.69958 0.38040 0.53133
 H1072 H 0.72307 0.31207 0.48953
 H1073 H 0.61706 0.25007 0.53960
 H1074 H 0.59397 0.32237 0.57447
 H1075 H 0.68582 0.28978 0.50429
 H1076 H 0.65463 0.26995 0.52155
 C1077 C 0.35610 0.16270 0.51324
 C1078 C 0.33469 0.17997 0.51227
 C1079 C 0.31079 0.17067 0.50568
 C1080 C 0.30774 0.14415 0.50019
 C1081 C 0.32906 0.12715 0.50171
 C1082 C 0.35285 0.13622 0.50784
 C1083 C 0.38098 0.17305 0.52145
 C1084 C 0.40335 0.15740 0.52285
 C1085 C 0.42539 0.16718 0.53293
 C1086 C 0.42589 0.19286 0.54158
 C1087 C 0.40426 0.20918 0.53871
 C1088 C 0.38182 0.19943 0.52884
 C1089 C 0.33708 0.20620 0.51876
 C1090 C 0.36008 0.21566 0.52704
 H1091 H 0.32075 0.21949 0.51802
 H1092 H 0.36073 0.23593 0.53247
 H1093 H 0.29456 0.18403 0.50591
 H1094 H 0.32723 0.10646 0.49853
 H1095 H 0.44203 0.15440 0.53445
 H1096 H 0.40446 0.22906 0.54538
 H1097 H 0.36822 0.12197 0.50887
 H1098 H 0.40416 0.13743 0.51676
 C1099 C 0.86805 0.68696 0.02632
 C1100 C 0.84632 0.70299 0.02151
 C1101 C 0.82295 0.69167 0.01630
 C1102 C 0.82073 0.66434 0.01565
 C1103 C 0.84233 0.64863 0.02096
 C1104 C 0.86561 0.65965 0.02602
 C1105 C 0.89246 0.69981 0.03243
 C1106 C 0.91515 0.68560 0.03743
 C1107 C 0.93696 0.69835 0.04453
 C1108 C 0.93689 0.72562 0.04666
 C1109 C 0.91469 0.74005 0.04068
 C1110 C 0.89256 0.72739 0.03370
 C1111 C 0.84789 0.73024 0.02241
 C1112 C 0.87047 0.74216 0.02845
 H1113 H 0.83129 0.74257 0.01871
 H1114 H 0.87055 0.76330 0.02927
 H1115 H 0.80657 0.70443 0.01352
 H1116 H 0.84113 0.62754 0.02135
 H1117 H 0.95368 0.68665 0.04926
 H1118 H 0.91450 0.76117 0.04183
 H1119 H 0.88131 0.64638 0.02999
 H1120 H 0.91640 0.66460 0.03643
 C1121 C 0.68442 0.68203 0.95862
 C1122 C 0.68257 0.66390 0.97930
 C1123 C 0.70434 0.65629 0.99278
 C1124 C 0.72831 0.66576 0.98556
 C1125 C 0.73008 0.68408 0.96538
 C1126 C 0.70845 0.69223 0.95213
 C1127 C 0.66085 0.68872 0.94402
 C1128 C 0.66046 0.70678 0.92334
 C1129 C 0.63828 0.71135 0.90962
 C1130 C 0.61600 0.69797 0.91606
 C1131 C 0.61598 0.68053 0.93703
 C1132 C 0.63807 0.67594 0.95108
 C1133 C 0.65920 0.65278 0.98593
 C1134 C 0.63749 0.65850 0.97199
 H1135 H 0.65780 0.63894 1.00179
 H1136 H 0.61999 0.64894 0.97756
 H1137 H 0.70264 0.64247 1.00864
 H1138 H 0.74837 0.69141 0.95908
 H1139 H 0.63872 0.72490 0.89349
 H1140 H 0.59867 0.67048 0.94238
 H1141 H 0.71110 0.70591 0.93645
 H1142 H 0.67707 0.71741 0.91732
 C1143 C 0.17116 0.17811 0.45204
 C1144 C 0.17735 0.15176 0.44651
 C1145 C 0.19853 0.13930 0.45751
 C1146 C 0.21432 0.15268 0.47371
 C1147 C 0.20828 0.17885 0.47914
 C1148 C 0.18694 0.19142 0.46855
 C1149 C 0.14829 0.19062 0.43969
 C1150 C 0.13992 0.21651 0.44430
 C1151 C 0.11868 0.22726 0.43197
 C1152 C 0.10538 0.21255 0.41467
 C1153 C 0.11335 0.18669 0.41025
 C1154 C 0.13449 0.17564 0.42261
 C1155 C 0.16264 0.13796 0.42973
 C1156 C 0.14176 0.14969 0.41794
 H1157 H 0.16748 0.11780 0.42545
 H1158 H 0.13112 0.13822 0.40494
 H1159 H 0.20298 0.11925 0.45270
 H1160 H 0.21995 0.18962 0.49177
 H1161 H 0.11289 0.24729 0.43565
 H1162 H 0.10285 0.17499 0.39731
 H1163 H 0.18328 0.21155 0.47336
 H1164 H 0.14949 0.22877 0.45729
 C1165 C 0.57616 0.07023 0.71997
 C1166 C 0.58034 0.04633 0.70740
 C1167 C 0.59255 0.02511 0.71999
 C1168 C 0.60077 0.02717 0.74529
 C1169 C 0.59437 0.05047 0.75811
 C1170 C 0.58244 0.07157 0.74573
 C1171 C 0.56521 0.09311 0.70529
 C1172 C 0.56317 0.11842 0.71525
 C1173 C 0.55378 0.13935 0.70054
 C1174 C 0.54586 0.13571 0.67553
 C1175 C 0.54765 0.11042 0.66553
 C1176 C 0.55772 0.08933 0.67998
 C1177 C 0.57256 0.04385 0.68223
 C1178 C 0.56108 0.06475 0.66898
 H1179 H 0.57542 0.02547 0.67259
 H1180 H 0.55542 0.06181 0.64955
 H1181 H 0.59644 0.00767 0.70931
 H1182 H 0.59815 0.05271 0.77807
 H1183 H 0.55338 0.15862 0.70864
 H1184 H 0.54145 0.10710 0.64636
 H1185 H 0.57826 0.08874 0.75676
 H1186 H 0.56940 0.12267 0.73411
 C1187 C 1.09593 0.60707 0.21194
 C1188 C 1.08031 0.58505 0.21553
 C1189 C 1.08916 0.56305 0.22955
 C1190 C 1.11305 0.56308 0.24080
 C1191 C 1.12841 0.58491 0.23726
 C1192 C 1.12008 0.60656 0.22298
 C1193 C 1.08582 0.63022 0.19702
 C1194 C 1.10032 0.65251 0.19147
 C1195 C 1.09002 0.67369 0.17775
 C1196 C 1.06492 0.67345 0.16927
 C1197 C 1.05037 0.65119 0.17455
 C1198 C 1.06070 0.62957 0.18806
 C1199 C 1.05580 0.58542 0.20564
 C1200 C 1.04611 0.60729 0.19245
 H1201 H 1.04377 0.56866 0.20845
 H1202 H 1.02692 0.60669 0.18545
 H1203 H 1.07713 0.54629 0.23247
 H1204 H 1.14705 0.58520 0.24558
 H1205 H 1.10202 0.69016 0.17338
 H1206 H 1.03091 0.65069 0.16831
 H1207 H 1.13274 0.62278 0.22119
 H1208 H 1.11976 0.65393 0.19723
 C1209 C 0.95655 0.92044 0.21383
 C1210 C 0.94987 0.91409 0.23938
 C1211 C 0.93483 0.93152 0.25384
 C1212 C 0.92528 0.95527 0.24323
 C1213 C 0.93424 0.96251 0.21861
 C1214 C 0.94942 0.94533 0.20408
 C1215 C 0.97034 0.90007 0.19823
 C1216 C 0.97617 0.90359 0.17204
 C1217 C 0.98728 0.88326 0.15797
 C1218 C 0.99289 0.85892 0.16959
 C1219 C 0.98799 0.85555 0.19582
 C1220 C 0.97662 0.87573 0.21010
 C1221 C 0.95757 0.89004 0.25025
 C1222 C 0.97076 0.87132 0.23595
 H1223 H 0.95277 0.88533 0.26999
 H1224 H 0.97577 0.85278 0.24510
 H1225 H 0.93050 0.92611 0.27348
 H1226 H 0.92891 0.98085 0.20964
 H1227 H 0.99066 0.88633 0.13771
 H1228 H 0.99261 0.83695 0.20508
 H1229 H 0.95491 0.95171 0.18506
 H1230 H 0.97169 0.92161 0.16192
 C1231 C 0.42111 0.38090 0.71348
 C1232 C 0.42190 0.37941 0.74042
 C1233 C 0.40902 0.39839 0.75510
 C1234 C 0.39582 0.41931 0.74333
 C1235 C 0.39581 0.42128 0.71669
 C1236 C 0.40819 0.40232 0.70189
 C1237 C 0.43414 0.35961 0.69852
 C1238 C 0.43267 0.35811 0.67182
 C1239 C 0.44472 0.33762 0.65881
 C1240 C 0.45876 0.31828 0.67198
 C1241 C 0.46050 0.31960 0.69852
 C1242 C 0.44797 0.33981 0.71190
 C1243 C 0.43566 0.35913 0.75251
 C1244 C 0.44870 0.33997 0.73855
 H1245 H 0.43648 0.35813 0.77312
 H1246 H 0.45916 0.32476 0.74882
 H1247 H 0.40950 0.39708 0.77573
 H1248 H 0.38570 0.43727 0.70722
 H1249 H 0.44319 0.33695 0.63829
 H1250 H 0.47101 0.30443 0.70882
 H1251 H 0.40743 0.40485 0.68148
 H1252 H 0.42203 0.37229 0.66064
 C1253 C 0.44092 0.54402 0.78427
 C1254 C 0.44119 0.52234 0.80149
 C1255 C 0.42474 0.50158 0.79818
 C1256 C 0.40806 0.50189 0.77776
 C1257 C 0.40885 0.52251 0.75984
 C1258 C 0.42505 0.54339 0.76300
 C1259 C 0.45675 0.56707 0.79011
 C1260 C 0.45598 0.59063 0.77569
 C1261 C 0.46916 0.61239 0.78341
 C1262 C 0.48366 0.61117 0.80553
 C1263 C 0.48567 0.58732 0.81915
 C1264 C 0.47201 0.56558 0.81197
 C1265 C 0.45735 0.52179 0.82231
 C1266 C 0.47263 0.54284 0.82728
 H1267 H 0.45783 0.50502 0.83526
 H1268 H 0.48443 0.54166 0.84394
 H1269 H 0.42444 0.48540 0.81186
 H1270 H 0.39604 0.52315 0.74401
 H1271 H 0.46703 0.63054 0.77263
 H1272 H 0.49720 0.58593 0.83599
 H1273 H 0.42442 0.55905 0.74894
 H1274 H 0.44459 0.59301 0.75896
 C1275 C -0.06697 0.08645 0.28559
 C1276 C -0.09073 0.08078 0.29740
 C1277 C -0.10250 0.05719 0.29277
 C1278 C -0.09068 0.03833 0.27720
 C1279 C -0.06737 0.04404 0.26506
 C1280 C -0.05563 0.06783 0.26914
 C1281 C -0.05462 0.11157 0.29204
 C1282 C -0.03124 0.11964 0.28106
 C1283 C -0.01993 0.14249 0.28900
 C1284 C -0.03156 0.15754 0.30815
 C1285 C -0.05519 0.15028 0.31844
 C1286 C -0.06687 0.12769 0.31044
 C1287 C -0.10236 0.09826 0.31445
 C1288 C -0.09055 0.12106 0.32106
 H1289 H -0.12060 0.09389 0.32341
 H1290 H -0.10002 0.13360 0.33488
 H1291 H -0.12085 0.05334 0.30174
 H1292 H -0.05779 0.02978 0.25304
 H1293 H -0.00169 0.14799 0.28077
 H1294 H -0.06436 0.16220 0.33300
 H1295 H -0.03746 0.07099 0.25977
 H1296 H -0.02132 0.10846 0.26658
 C1297 C 0.06478 0.42871 0.27452
 C1298 C 0.05831 0.44935 0.29117
 C1299 C 0.07140 0.47290 0.28923
 C1300 C 0.09076 0.47630 0.27074
 C1301 C 0.09539 0.45690 0.25268
 C1302 C 0.08256 0.43333 0.25450
 C1303 C 0.05352 0.40247 0.27995
 C1304 C 0.06180 0.37970 0.26722
 C1305 C 0.05312 0.35520 0.27515
 C1306 C 0.03558 0.35285 0.29552
 C1307 C 0.02615 0.37547 0.30741
 C1308 C 0.03546 0.40009 0.30026
 C1309 C 0.03964 0.44596 0.31034
 C1310 C 0.02813 0.42196 0.31449
 H1311 H 0.03429 0.46193 0.32273
 H1312 H 0.01422 0.42017 0.32997
 H1313 H 0.06748 0.48811 0.30294
 H1314 H 0.11016 0.45920 0.23813
 H1315 H 0.06065 0.33791 0.26580
 H1316 H 0.01297 0.37367 0.32353
 H1317 H 0.08746 0.41871 0.24062
 H1318 H 0.07583 0.38024 0.25190
 C1319 C 0.57673 0.88891 0.77422
 C1320 C 0.57042 0.90825 0.79236
 C1321 C 0.58189 0.93267 0.79070
 C1322 C 0.59923 0.93845 0.77087
 C1323 C 0.60406 0.92015 0.75180
 C1324 C 0.59301 0.89557 0.75345
 C1325 C 0.56639 0.86205 0.77848
 C1326 C 0.57406 0.84046 0.76364
 C1327 C 0.56534 0.81541 0.76973
 C1328 C 0.54841 0.81143 0.79039
 C1329 C 0.54016 0.83290 0.80481
 C1330 C 0.54936 0.85791 0.79939
 C1331 C 0.55318 0.90293 0.81241
 C1332 C 0.54254 0.87841 0.81560
 H1333 H 0.54804 0.91787 0.82604
 H1334 H 0.52950 0.87519 0.83159
 H1335 H 0.57789 0.94703 0.80525
 H1336 H 0.61738 0.92439 0.73629
 H1337 H 0.57204 0.79906 0.75845
 H1338 H 0.52762 0.82985 0.82125
 H1339 H 0.59782 0.88193 0.73862
 H1340 H 0.58738 0.84235 0.74780
 C1341 C 0.72094 0.58963 0.09570
 C1342 C 0.73668 0.61114 0.09959
 C1343 C 0.75020 0.62250 0.07899
 C1344 C 0.74893 0.61245 0.05435
 C1345 C 0.73379 0.59073 0.05067
 C1346 C 0.71993 0.57949 0.07099
 C1347 C 0.70613 0.57868 0.11814
 C1348 C 0.68861 0.55847 0.11605
 C1349 C 0.67487 0.54940 0.13743
 C1350 C 0.67842 0.55999 0.16147
 C1351 C 0.69596 0.57991 0.16384
 C1352 C 0.70950 0.58957 0.14238
 C1353 C 0.73894 0.62118 0.12403
 C1354 C 0.72589 0.61044 0.14499
 H1355 H 0.75113 0.63756 0.12703
 H1356 H 0.72838 0.61888 0.16350
 H1357 H 0.76142 0.63952 0.08224
 H1358 H 0.73283 0.58207 0.03212
 H1359 H 0.66144 0.53395 0.13520
 H1360 H 0.69847 0.58847 0.18231
 H1361 H 0.70873 0.56277 0.06696
 H1362 H 0.68496 0.54966 0.09808
 C1363 C 0.21086 1.07262 0.58107
 C1364 C 0.19757 1.08901 0.56355
 C1365 C 0.20997 1.09835 0.54126
 C1366 C 0.23580 1.09243 0.53665
 C1367 C 0.24888 1.07603 0.55385
 C1368 C 0.23658 1.06605 0.57568
 C1369 C 0.19726 1.06398 0.60515
 C1370 C 0.20852 1.04710 0.62344
 C1371 C 0.19552 1.04060 0.64610
 C1372 C 0.17096 1.05078 0.65131
 C1373 C 0.15932 1.06705 0.63284
 C1374 C 0.17214 1.07350 0.60984
 C1375 C 0.17234 1.09687 0.56888
 C1376 C 0.16001 1.08953 0.59164
 H1377 H 0.16217 1.10944 0.55551
 H1378 H 0.14067 1.09662 0.59509
 H1379 H 0.19992 1.11141 0.52822
 H1380 H 0.26884 1.07123 0.55056
 H1381 H 0.20474 1.02735 0.65953
 H1382 H 0.14042 1.07521 0.63653
 H1383 H 0.24778 1.05389 0.58837
 H1384 H 0.22732 1.03863 0.62065
 C1385 C 0.23102 0.94584 0.89577
 C1386 C 0.21880 0.93499 0.91771
 C1387 C 0.23294 0.92041 0.93569
 C1388 C 0.25908 0.91502 0.93152
 C1389 C 0.27101 0.92605 0.90967
 C1390 C 0.25733 0.94136 0.89224
 C1391 C 0.21515 0.96032 0.87650
 C1392 C 0.22565 0.97293 0.85466
 C1393 C 0.20993 0.98437 0.83627
 C1394 C 0.18343 0.98342 0.83914
 C1395 C 0.17277 0.97209 0.86137
 C1396 C 0.18840 0.96084 0.88015
 C1397 C 0.19234 0.93761 0.92093
 C1398 C 0.17743 0.94987 0.90236
 H1399 H 0.18290 0.92926 0.93768
 H1400 H 0.15696 0.95061 0.90536
 H1401 H 0.22293 0.91157 0.95177
 H1402 H 0.29123 0.92338 0.90603
 H1403 H 0.21850 0.99320 0.81931
 H1404 H 0.15225 0.97184 0.86388
 H1405 H 0.26767 0.94890 0.87580
 H1406 H 0.24591 0.97395 0.85127
 C1407 C 0.70746 0.43391 0.40708
 C1408 C 0.71934 0.40927 0.40260
 C1409 C 0.73193 0.39578 0.42229
 C1410 C 0.73310 0.40636 0.44664
 C1411 C 0.72082 0.43043 0.45134
 C1412 C 0.70817 0.44411 0.43182
 C1413 C 0.69467 0.44786 0.38520
 C1414 C 0.68280 0.47277 0.38724
 C1415 C 0.67093 0.48471 0.36628
 C1416 C 0.67054 0.47213 0.34281
 C1417 C 0.68270 0.44759 0.34051
 C1418 C 0.69467 0.43544 0.36136
 C1419 C 0.71871 0.39817 0.37851
 C1420 C 0.70659 0.41093 0.35836
 H1421 H 0.72777 0.37927 0.37515
 H1422 H 0.70660 0.40146 0.34009
 H1423 H 0.74081 0.37687 0.41861
 H1424 H 0.72153 0.43903 0.46996
 H1425 H 0.66154 0.50359 0.36860
 H1426 H 0.68295 0.43792 0.32233
 H1427 H 0.69926 0.46265 0.43644
 H1428 H 0.68236 0.48328 0.40483
 C1429 C 0.76653 0.45206 0.57184
 C1430 C 0.75083 0.42997 0.57389
 C1431 C 0.74771 0.41416 0.55267
 C1432 C 0.76099 0.41939 0.52977
 C1433 C 0.77609 0.44147 0.52754
 C1434 C 0.77862 0.45784 0.54818
 C1435 C 0.77133 0.46698 0.59547
 C1436 C 0.78657 0.48922 0.59540
 C1437 C 0.79321 0.50040 0.61822
 C1438 C 0.78476 0.48986 0.64175
 C1439 C 0.76783 0.46904 0.64193
 C1440 C 0.76110 0.45755 0.61901
 C1441 C 0.73971 0.42284 0.59747
 C1442 C 0.74499 0.43613 0.61960
 H1443 H 0.72761 0.40602 0.59905
 H1444 H 0.73678 0.42914 0.63754
 H1445 H 0.73656 0.39666 0.55453
 H1446 H 0.78664 0.44554 0.50998
 H1447 H 0.80557 0.51702 0.61748
 H1448 H 0.76102 0.46081 0.65995
 H1449 H 0.79105 0.47416 0.54550
 H1450 H 0.79405 0.49796 0.57800
 C1451 C 0.29985 -0.05519 0.05231
 C1452 C 0.27669 -0.06808 0.04918
 C1453 C 0.27288 -0.08236 0.02702
 C1454 C 0.29279 -0.08600 0.00890
 C1455 C 0.31596 -0.07365 0.01263
 C1456 C 0.31933 -0.05819 0.03372
 C1457 C 0.30351 -0.04066 0.07630
 C1458 C 0.32453 -0.02480 0.07980
 C1459 C 0.32863 -0.01392 0.10339
 C1460 C 0.31210 -0.01878 0.12430
 C1461 C 0.28985 -0.03274 0.12032
 C1462 C 0.28526 -0.04328 0.09634
 C1463 C 0.25824 -0.06804 0.06893
 C1464 C 0.26277 -0.05661 0.09230
 H1465 H 0.24055 -0.07809 0.06675
 H1466 H 0.24844 -0.05818 0.10739
 H1467 H 0.25521 -0.09253 0.02519
 H1468 H 0.33157 -0.07535 -0.00109
 H1469 H 0.34514 -0.00195 0.10529
 H1470 H 0.27654 -0.03629 0.13600
 H1471 H 0.33768 -0.04955 0.03559
 H1472 H 0.33808 -0.02064 0.06457
 C1473 C 0.25853 0.06406 0.39786
 C1474 C 0.24903 0.08997 0.40086
 C1475 C 0.24800 0.10108 0.42504
 C1476 C 0.25661 0.08691 0.44636
 C1477 C 0.26513 0.06103 0.44373
 C1478 C 0.26590 0.04957 0.41978
 C1479 C 0.26241 0.05417 0.37130
 C1480 C 0.27295 0.02922 0.36608
 C1481 C 0.27979 0.02247 0.34115
 C1482 C 0.27608 0.04029 0.32083
 C1483 C 0.26349 0.06421 0.32557
 C1484 C 0.25685 0.07136 0.35056
 C1485 C 0.24210 0.10522 0.37956
 C1486 C 0.24601 0.09615 0.35493
 H1487 H 0.23452 0.12492 0.38193
 H1488 H 0.24137 0.10913 0.33905
 H1489 H 0.24223 0.12142 0.42702
 H1490 H 0.27219 0.05005 0.46007
 H1491 H 0.28947 0.00386 0.33801
 H1492 H 0.26014 0.07790 0.30988
 H1493 H 0.27330 0.02979 0.41873
 H1494 H 0.27707 0.01507 0.38101
 C1495 C 0.77459 0.57241 0.91962
 C1496 C 0.75670 0.59296 0.92437
 C1497 C 0.75605 0.60534 0.94799
 C1498 C 0.77407 0.59870 0.96642
 C1499 C 0.79166 0.57830 0.96185
 C1500 C 0.79174 0.56502 0.93889
 C1501 C 0.77597 0.56107 0.89350
 C1502 C 0.79231 0.53988 0.88710
 C1503 C 0.79526 0.53218 0.86183
 C1504 C 0.78205 0.54540 0.84238
 C1505 C 0.76434 0.56524 0.84877
 C1506 C 0.76097 0.57292 0.87420
 C1507 C 0.74082 0.60227 0.90496
 C1508 C 0.74328 0.59284 0.88027
 H1509 H 0.72713 0.61799 0.90859
 H1510 H 0.73141 0.60155 0.86563
 H1511 H 0.74282 0.62156 0.95125
 H1512 H 0.80586 0.57316 0.97583
 H1513 H 0.80896 0.51673 0.85729
 H1514 H 0.75379 0.57522 0.83381
 H1515 H 0.80615 0.54994 0.93615
 H1516 H 0.80341 0.52942 0.90120
 C1517 C 0.08689 0.71265 0.59456
 C1518 C 0.08986 0.72993 0.61483
 C1519 C 0.06862 0.74289 0.62567
 C1520 C 0.04392 0.73978 0.61639
 C1521 C 0.04112 0.72225 0.59636
 C1522 C 0.06220 0.70893 0.58565
 C1523 C 0.11027 0.69936 0.58344
 C1524 C 0.10949 0.68126 0.56362
 C1525 C 0.13187 0.66953 0.55396
 C1526 C 0.15558 0.67569 0.56362
 C1527 C 0.15657 0.69360 0.58334
 C1528 C 0.13422 0.70525 0.59341
 C1529 C 0.11406 0.73448 0.62413
 C1530 C 0.13577 0.72257 0.61353
 H1531 H 0.11632 0.74774 0.63969
 H1532 H 0.15407 0.72695 0.62127
 H1533 H 0.07167 0.75504 0.64187
 H1534 H 0.02295 0.71931 0.58788
 H1535 H 0.13068 0.65578 0.53866
 H1536 H 0.17480 0.69811 0.59120
 H1537 H 0.05877 0.69615 0.57009
 H1538 H 0.09184 0.67582 0.55539
 C1539 C 0.58830 0.21156 1.07296
 C1540 C 0.57483 0.19997 1.09382
 C1541 C 0.55359 0.21296 1.10476
 C1542 C 0.54576 0.23759 1.09549
 C1543 C 0.55888 0.24905 1.07480
 C1544 C 0.57979 0.23616 1.06347
 C1545 C 0.61160 0.19758 1.06262
 C1546 C 0.62636 0.20736 1.04193
 C1547 C 0.64842 0.19403 1.03363
 C1548 C 0.65638 0.17062 1.04569
 C1549 C 0.64157 0.16053 1.06605
 C1550 C 0.61932 0.17369 1.07449
 C1551 C 0.58312 0.17593 1.10423
 C1552 C 0.60496 0.16314 1.09486
 H1553 H 0.57281 0.16707 1.12018
 H1554 H 0.61079 0.14476 1.10383
 H1555 H 0.54400 0.20457 1.12136
 H1556 H 0.55316 0.26829 1.06770
 H1557 H 0.65916 0.20201 1.01755
 H1558 H 0.64762 0.14263 1.07577
 H1559 H 0.58932 0.24607 1.04778
 H1560 H 0.62126 0.22523 1.03187
 C1561 C 0.90312 0.22564 0.94327
 C1562 C 0.92262 0.21231 0.92934
 C1563 C 0.94092 0.22642 0.91534
 C1564 C 0.94011 0.25376 0.91457
 C1565 C 0.92119 0.26701 0.92888
 C1566 C 0.90298 0.25319 0.94314
 C1567 C 0.88295 0.20978 0.95657
 C1568 C 0.86236 0.22104 0.97050
 C1569 C 0.84309 0.20547 0.98092
 C1570 C 0.84388 0.17835 0.97773
 C1571 C 0.86485 0.16686 0.96491
 C1572 C 0.88423 0.18227 0.95427
 C1573 C 0.92328 0.18498 0.92868
 C1574 C 0.90448 0.17029 0.94084
 H1575 H 0.93830 0.17480 0.91811
 H1576 H 0.90556 0.14921 0.93930
 H1577 H 0.95497 0.21601 0.90395
 H1578 H 0.92031 0.28817 0.92882
 H1579 H 0.82707 0.21478 0.99074
 H1580 H 0.86586 0.14583 0.96281
 H1581 H 0.88871 0.26446 0.95347
 H1582 H 0.86048 0.24183 0.97314
 C1583 C 0.40725 0.73011 0.45323
 C1584 C 0.42548 0.71525 0.43907
 C1585 C 0.44464 0.72779 0.42474
 C1586 C 0.44585 0.75508 0.42386
 C1587 C 0.42849 0.76976 0.43877
 C1588 C 0.40948 0.75749 0.45335
 C1589 C 0.38576 0.71607 0.46641
 C1590 C 0.36596 0.72904 0.48011
 C1591 C 0.34535 0.71520 0.49031
 C1592 C 0.34398 0.68817 0.48714
 C1593 C 0.36413 0.67495 0.47456
 C1594 C 0.38479 0.68862 0.46409
 C1595 C 0.42393 0.68802 0.43842
 C1596 C 0.40404 0.67498 0.45069
 H1597 H 0.43801 0.67663 0.42775
 H1598 H 0.40339 0.65394 0.44913
 H1599 H 0.45763 0.71627 0.41305
 H1600 H 0.42928 0.79087 0.43874
 H1601 H 0.33003 0.72582 0.49998
 H1602 H 0.36348 0.65395 0.47251
 H1603 H 0.39642 0.76984 0.46403
 H1604 H 0.36573 0.74988 0.48268
 C1605 C 0.58050 0.77883 0.43399
 C1606 C 0.57876 0.78215 0.40722
 C1607 C 0.55499 0.78199 0.39573
 C1608 C 0.53282 0.77802 0.41041
 C1609 C 0.53455 0.77301 0.43662
 C1610 C 0.55812 0.77356 0.44840
 C1611 C 0.60598 0.78196 0.44574
 C1612 C 0.60943 0.78206 0.47231
 C1613 C 0.63302 0.78798 0.48224
 C1614 C 0.65382 0.79359 0.46596
 C1615 C 0.65096 0.79169 0.43955
 C1616 C 0.62722 0.78668 0.42936
 C1617 C 0.60066 0.78604 0.39209
 C1618 C 0.62443 0.78787 0.40290
 H1619 H 0.59935 0.78809 0.37156
 H1620 H 0.64074 0.79137 0.39038
 H1621 H 0.55363 0.78522 0.37530
 H1622 H 0.51753 0.76952 0.44809
 H1623 H 0.63458 0.78947 0.50268
 H1624 H 0.66701 0.79546 0.42676
 H1625 H 0.55838 0.77012 0.46873
 H1626 H 0.59391 0.77880 0.48572
 C1627 C 0.06681 0.28947 -0.05665
 C1628 C 0.04871 0.31039 -0.05769
 C1629 C 0.02704 0.30855 -0.07253
 C1630 C 0.02293 0.28612 -0.08656
 C1631 C 0.04042 0.26509 -0.08499
 C1632 C 0.06211 0.26668 -0.07025
 C1633 C 0.09035 0.29284 -0.04151
 C1634 C 0.11014 0.27379 -0.04005
 C1635 C 0.13220 0.27851 -0.02666
 C1636 C 0.13502 0.30220 -0.01423
 C1637 C 0.11519 0.32102 -0.01517
 C1638 C 0.09311 0.31662 -0.02871
 C1639 C 0.05245 0.33321 -0.04420
 C1640 C 0.07413 0.33623 -0.02998
 H1641 H 0.03851 0.34913 -0.04487
 H1642 H 0.07625 0.35440 -0.02011
 H1643 H 0.01335 0.32472 -0.07327
 H1644 H 0.03773 0.24761 -0.09577
 H1645 H 0.14717 0.26361 -0.02612
 H1646 H 0.11735 0.33966 -0.00615
 H1647 H 0.07507 0.25004 -0.07004
 H1648 H 0.10914 0.25530 -0.04939
 C1649 C 0.41267 0.27561 0.06311
 C1650 C 0.41716 0.25430 0.08021
 C1651 C 0.44111 0.25078 0.09131
 C1652 C 0.46031 0.26884 0.08630
 C1653 C 0.45634 0.28894 0.06824
 C1654 C 0.43295 0.29215 0.05653
 C1655 C 0.38604 0.28092 0.05449
 C1656 C 0.37940 0.30280 0.03910
 C1657 C 0.35399 0.30913 0.03463
 C1658 C 0.33458 0.29361 0.04490
 C1659 C 0.34088 0.27066 0.05858
 C1660 C 0.36649 0.26440 0.06377
 C1661 C 0.39731 0.23768 0.08735
 C1662 C 0.37251 0.24263 0.07930
 H1663 H 0.40079 0.22119 0.10019
 H1664 H 0.35765 0.22977 0.08616
 H1665 H 0.44409 0.23531 0.10545
 H1666 H 0.47110 0.30289 0.06400
 H1667 H 0.34936 0.32679 0.02379
 H1668 H 0.32581 0.25869 0.06656
 H1669 H 0.43091 0.30842 0.04331
 H1670 H 0.39337 0.31589 0.03113
 C1671 C 0.92287 0.77875 0.56239
 C1672 C 0.92605 0.75605 0.57794
 C1673 C 0.94810 0.75249 0.59243
 C1674 C 0.96586 0.77259 0.59368
 C1675 C 0.96272 0.79480 0.57779
 C1676 C 0.94186 0.79765 0.56206
 C1677 C 0.89815 0.78319 0.54926
 C1678 C 0.89379 0.80450 0.53246
 C1679 C 0.86934 0.81060 0.52433
 C1680 C 0.84861 0.79561 0.53261
 C1681 C 0.85321 0.77251 0.54686
 C1682 C 0.87793 0.76617 0.55517
 C1683 C 0.90620 0.73831 0.58074
 C1684 C 0.88243 0.74360 0.57014
 H1685 H 0.90853 0.72089 0.59265
 H1686 H 0.86721 0.73012 0.57419
 H1687 H 0.94966 0.73550 0.60502
 H1688 H 0.97635 0.81034 0.57770
 H1689 H 0.86643 0.82784 0.51232
 H1690 H 0.83741 0.76045 0.55286
 H1691 H 0.94026 0.81557 0.55096
 H1692 H 0.90885 0.81712 0.52595
   
