data_POSCAR
  _audit_creation_date              2014-09-24
  _audit_creation_method            'ToBaCCo'
  _symmetry_space_group_name_H-M    'P1'
  _symmetry_Int_Tables_number       1
  _symmetry_cell_setting            triclinic
  loop_
  _symmetry_equiv_pos_as_xyz
 x,y,z
_cell_length_a 48.8114
_cell_length_b 48.8113
_cell_length_c 48.8177
_cell_angle_alpha 90.007900
_cell_angle_beta 89.976500
_cell_angle_gamma 90.012300
loop_
  _atom_site_label
  _atom_site_type_symbol
  _atom_site_fract_x
  _atom_site_fract_y
  _atom_site_fract_z
C1 C 0.12562 0.00082 0.25059
 C2 C 0.37460 -0.00054 0.75082
 C3 C 0.87503 0.50087 0.24887
 C4 C 0.62543 0.50012 0.74876
 C5 C 0.24975 0.12528 1.00100
 C6 C 0.75073 0.37452 0.99902
 C7 C 0.24953 0.87473 0.50030
 C8 C 0.74870 0.62579 0.50101
 C9 C 0.00166 0.25010 0.12524
 C10 C -0.00041 0.75134 0.37470
 C11 C 0.49962 0.24804 0.87432
 C12 C 0.50047 0.74965 0.62532
 C13 C 0.87562 1.00033 0.75063
 C14 C 0.37581 0.50085 0.24875
 C15 C 0.62462 1.00077 0.25079
 C16 C 0.12502 0.49922 0.74868
 C17 C 0.74960 0.87536 0.00101
 C18 C 0.24874 0.37532 0.50092
 C19 C 0.25099 0.62467 0.00030
 C20 C 0.74939 0.12456 0.49881
 C21 C 1.00037 0.75008 0.87525
 C22 C 0.50169 0.24958 0.37530
 C23 C 0.99993 0.25142 0.62431
 C24 C 0.49926 0.74818 0.12482
 O25 O -0.07781 0.98647 0.98367
 O26 O -0.07829 1.03155 0.99727
 O27 O -0.01296 0.98377 0.92314
 O28 O 0.03168 0.99161 0.92121
 O29 O -0.01694 0.92193 0.98792
 O30 O -0.00502 0.92217 1.03482
 O31 O 0.06049 1.05285 0.99606
 O32 O 0.04133 1.05605 0.95357
 O33 O -0.00392 1.06082 1.05304
 O34 O -0.04782 1.03838 1.06001
 O35 O 0.05235 0.99585 1.06173
 O36 O 0.05955 0.95248 1.03950
 O37 O 0.07671 1.01497 1.01802
 O38 O 0.07683 0.96526 1.00488
 O39 O 0.01443 1.01745 1.07807
 O40 O -0.03487 1.00411 1.07784
 O41 O 0.01836 1.07681 1.01532
 O42 O -0.00116 1.07568 0.96850
 O43 O -0.06191 0.94889 1.00642
 O44 O -0.03897 0.94290 1.04972
 O45 O 0.00481 0.93780 0.94985
 O46 O 0.04967 0.96129 0.94611
 O47 O -0.05141 1.00465 0.93931
 O48 O -0.05363 1.04974 0.96226
 Zr49 Zr -0.04315 1.01191 0.98102
 O50 O -0.01959 1.03788 1.00613
 Zr51 Zr 0.01213 0.97954 0.95791
 O52 O 0.03794 1.00493 0.98130
 Zr53 Zr -0.01996 0.95664 1.01329
 O54 O 0.00512 0.98031 1.03923
 Zr55 Zr 0.01932 1.04300 0.98861
 O56 O -0.00503 1.01895 0.96195
 Zr57 Zr -0.01215 1.01941 1.04420
 O58 O -0.03868 0.99475 1.02039
 Zr59 Zr 0.04316 0.98778 1.02041
 O60 O 0.01936 0.96079 0.99604
 O61 O -0.02647 0.97316 0.97461
 O62 O 0.02650 1.02647 1.02743
 C63 C -0.08103 0.96298 0.99508
 C64 C -0.03685 0.99429 0.92003
 C65 C -0.00608 0.91866 0.96421
 C66 C 0.07961 1.03896 1.00755
 C67 C 0.00785 1.07983 1.03921
 C68 C 0.03844 1.00720 1.08092
 H69 H -0.02913 1.05564 1.00803
 H70 H 0.00719 0.97062 1.05688
 H71 H -0.03819 0.96147 0.96288
 H72 H 0.05553 1.00723 0.97152
 H73 H 0.02978 1.05164 0.93749
 H74 H 0.04174 1.00868 0.92532
 H75 H -0.02570 0.98726 1.08438
 H76 H -0.05175 0.95756 1.05549
 H77 H 0.01083 1.09207 0.96920
 H78 H -0.07070 1.04729 0.95151
 H79 H 0.04570 0.94565 1.05263
 H80 H 0.01405 0.91931 1.02854
 H81 H -0.07996 1.02558 1.01657
 H82 H -0.05385 1.05232 1.04660
 H83 H 0.05363 0.94665 0.95958
 H84 H 0.08355 0.97474 0.98828
 O85 O 0.48579 0.48266 0.42176
 O86 O 0.53076 0.49635 0.42119
 O87 O 0.48339 0.42205 0.48658
 O88 O 0.49118 0.42012 0.53118
 O89 O 0.42127 0.48666 0.48281
 O90 O 0.42137 0.53354 0.49467
 O91 O 0.55233 0.49519 0.55987
 O92 O 0.55565 0.45271 0.54068
 O93 O 0.55996 0.55226 0.49558
 O94 O 0.53743 0.55918 0.45174
 O95 O 0.49507 0.56064 0.55201
 O96 O 0.45182 0.53829 0.55929
 O97 O 0.51440 0.51699 0.57623
 O98 O 0.46469 0.50363 0.57643
 O99 O 0.51654 0.57710 0.51407
 O100 O 0.50310 0.57686 0.46478
 O101 O 0.57613 0.51458 0.51775
 O102 O 0.57513 0.46775 0.49815
 O103 O 0.44815 0.50528 0.43774
 O104 O 0.44203 0.54854 0.46077
 O105 O 0.43728 0.44863 0.50449
 O106 O 0.46092 0.44494 0.54928
 O107 O 0.50416 0.43830 0.44811
 O108 O 0.54915 0.46146 0.44580
 Zr109 Zr 0.51125 0.48006 0.45637
 O110 O 0.53716 0.50526 0.47989
 Zr111 Zr 0.47903 0.45681 0.51168
 O112 O 0.50440 0.48026 0.53745
 Zr113 Zr 0.45591 0.51213 0.47969
 O114 O 0.47952 0.53812 0.50477
 Zr115 Zr 0.54241 0.48772 0.51875
 O116 O 0.51841 0.46099 0.49445
 Zr117 Zr 0.51857 0.54326 0.48742
 O118 O 0.49397 0.51937 0.46092
 Zr119 Zr 0.48712 0.51930 0.54276
 O120 O 0.46018 0.49488 0.51898
 O121 O 0.47254 0.47350 0.47310
 O122 O 0.52576 0.52647 0.52602
 C123 C 0.46229 0.49403 0.41857
 C124 C 0.49392 0.41897 0.46269
 C125 C 0.41807 0.46296 0.49370
 C126 C 0.53843 0.50662 0.57905
 C127 C 0.57904 0.53850 0.50729
 C128 C 0.50634 0.57988 0.53811
 H129 H 0.55491 0.50724 0.47030
 H130 H 0.46977 0.55574 0.50689
 H131 H 0.46086 0.46172 0.46141
 H132 H 0.50678 0.47046 0.55501
 H133 H 0.55128 0.43662 0.52913
 H134 H 0.50838 0.42422 0.54103
 H135 H 0.48627 0.58336 0.47403
 H136 H 0.45665 0.55437 0.44797
 H137 H 0.59155 0.46851 0.51009
 H138 H 0.54671 0.45066 0.42875
 H139 H 0.44489 0.55136 0.54546
 H140 H 0.41860 0.52732 0.51378
 H141 H 0.52484 0.51567 0.41961
 H142 H 0.55143 0.54584 0.44567
 H143 H 0.44623 0.45833 0.55327
 H144 H 0.47431 0.48712 0.58317
 O145 O 0.43818 -0.05239 0.49572
 O146 O 0.45843 -0.05693 0.45338
 O147 O 0.50592 -0.06168 0.55205
 O148 O 0.54516 -0.04083 0.56139
 O149 O 0.44774 0.00553 0.56218
 O150 O 0.44171 0.04804 0.53968
 O151 O 0.57705 0.01255 0.48202
 O152 O 0.57781 -0.03161 0.49703
 O153 O 0.51344 0.01771 0.42350
 O154 O 0.46528 0.00592 0.42285
 O155 O 0.51782 0.07688 0.48662
 O156 O 0.50661 0.07798 0.53430
 O157 O 0.56124 0.05065 0.50392
 O158 O 0.53788 0.05674 0.54955
 O159 O 0.49554 0.06111 0.44886
 O160 O 0.45028 0.03770 0.44350
 O161 O 0.55162 -0.00376 0.43947
 O162 O 0.55129 -0.05017 0.46014
 O163 O 0.42205 -0.01399 0.51692
 O164 O 0.42235 0.03379 0.50469
 O165 O 0.48552 -0.01656 0.57824
 O166 O 0.53407 -0.00193 0.57655
 O167 O 0.48278 -0.07763 0.51482
 O168 O 0.49875 -0.07586 0.46682
 Zr169 Zr 0.47971 -0.04342 0.48870
 O170 O 0.50403 -0.01948 0.46233
 Zr171 Zr 0.51159 -0.01974 0.54401
 O172 O 0.53787 0.00433 0.51976
 Zr173 Zr 0.45634 0.01208 0.52048
 O174 O 0.48029 0.03824 0.49589
 Zr175 Zr 0.54236 -0.01281 0.48057
 O176 O 0.51900 -0.03899 0.50609
 Zr177 Zr 0.48715 0.01975 0.45764
 O178 O 0.46085 -0.00528 0.48134
 Zr179 Zr 0.51967 0.04267 0.51278
 O180 O 0.49435 0.01951 0.53945
 O181 O 0.47307 -0.02646 0.52728
 O182 O 0.52611 0.02623 0.47390
 C183 C 0.41895 -0.03790 0.50632
 C184 C 0.49445 -0.08083 0.53815
 C185 C 0.46190 -0.00546 0.58139
 C186 C 0.58021 0.03651 0.49236
 C187 C 0.53751 0.00758 0.42045
 C188 C 0.50727 0.08005 0.46278
 H189 H 0.50595 -0.02909 0.44460
 H190 H 0.47078 0.05603 0.49416
 H191 H 0.46141 -0.03818 0.53905
 H192 H 0.55579 0.00590 0.52906
 H193 H 0.57171 -0.04890 0.50571
 H194 H 0.56101 -0.03757 0.54922
 H195 H 0.44600 0.05344 0.45554
 H196 H 0.41885 0.02638 0.48615
 H197 H 0.56929 -0.04821 0.45092
 H198 H 0.48775 -0.09281 0.46919
 H199 H 0.48778 0.08221 0.52818
 H200 H 0.45672 0.05472 0.55157
 H201 H 0.44749 -0.04121 0.44673
 H202 H 0.47250 -0.01236 0.41789
 H203 H 0.52462 0.01531 0.58155
 H204 H 0.55388 0.04495 0.55348
 O205 O 0.00601 0.43870 1.05176
 O206 O 0.04826 0.45920 1.05631
 O207 O -0.05073 0.50614 1.06042
 O208 O -0.06015 0.54525 1.03936
 O209 O -0.06024 0.44752 0.99359
 O210 O -0.03756 0.44138 0.95117
 O211 O 0.01923 0.57726 0.98606
 O212 O 0.00409 0.57821 1.03013
 O213 O 0.07817 0.51389 0.98151
 O214 O 0.07905 0.46587 0.99345
 O215 O 0.01516 0.51754 0.92204
 O216 O -0.03236 0.50622 0.92082
 O217 O -0.00247 0.56111 0.94800
 O218 O -0.04797 0.53739 0.94195
 O219 O 0.05299 0.49555 0.93802
 O220 O 0.05852 0.45050 0.96179
 O221 O 0.06193 0.55210 1.00273
 O222 O 0.04100 0.55196 1.04901
 O223 O -0.01495 0.42222 1.01339
 O224 O -0.00248 0.42230 0.96563
 O225 O -0.07660 0.48536 1.01538
 O226 O -0.07512 0.53385 1.00045
 O227 O -0.01344 0.48332 1.07665
 O228 O 0.03450 0.49956 1.07496
 Zr229 Zr 0.01287 0.48021 1.04255
 O230 O 0.03920 0.50451 1.01855
 Zr231 Zr -0.04252 0.51165 1.01850
 O232 O -0.01831 0.53791 0.99439
 Zr233 Zr -0.01856 0.45633 0.98709
 O234 O 0.00598 0.48026 0.96088
 Zr235 Zr 0.02080 0.54271 1.01161
 O236 O -0.00471 0.51938 1.03783
 Zr237 Zr 0.04414 0.48743 0.97943
 O238 O 0.02049 0.46116 1.00455
 Zr239 Zr -0.01110 0.51953 0.95617
 O240 O -0.03771 0.49419 0.97938
 O241 O -0.02561 0.47326 1.02550
 O242 O 0.02771 0.52629 0.97268
 C243 C -0.00445 0.41932 1.03735
 C244 C -0.03687 0.49484 1.07968
 C245 C -0.07957 0.46164 1.00445
 C246 C 0.00890 0.58024 0.96207
 C247 C 0.08109 0.53800 0.99157
 C248 C 0.03904 0.50704 0.91896
 H249 H 0.05688 0.50657 1.02822
 H250 H 0.00782 0.47065 0.94316
 H251 H -0.03736 0.46161 1.03725
 H252 H -0.02770 0.55577 0.99269
 H253 H -0.00466 0.57217 1.04741
 H254 H -0.04807 0.56115 1.03602
 H255 H 0.04657 0.44606 0.94605
 H256 H 0.01602 0.41890 0.97318
 H257 H 0.05015 0.57000 1.04698
 H258 H 0.03212 0.48865 1.09196
 H259 H -0.02633 0.48729 0.91687
 H260 H -0.04957 0.45625 0.94441
 H261 H 0.05499 0.44815 1.04069
 H262 H 0.08378 0.47307 1.01178
 H263 H -0.08004 0.52422 0.98329
 H264 H -0.05199 0.55350 0.95358
 O265 O 0.00419 0.56245 0.44721
 O266 O 0.04650 0.54207 0.44266
 O267 O -0.05242 0.49501 0.43796
 O268 O -0.06182 0.45571 0.45872
 O269 O -0.06226 0.55311 0.50521
 O270 O -0.03966 0.55906 0.54770
 O271 O 0.01743 0.42354 0.51209
 O272 O 0.00236 0.42282 0.46796
 O273 O 0.07622 0.48692 0.51718
 O274 O 0.07705 0.53508 0.50543
 O275 O 0.01307 0.48280 0.57643
 O276 O -0.03460 0.49418 0.57752
 O277 O -0.00438 0.43944 0.55021
 O278 O -0.04992 0.46290 0.55635
 O279 O 0.05092 0.50494 0.56064
 O280 O 0.05649 0.55015 0.53724
 O281 O 0.06007 0.44882 0.49570
 O282 O 0.03934 0.44923 0.44934
 O283 O -0.01696 0.57864 0.48561
 O284 O -0.00462 0.57833 0.53336
 O285 O -0.07849 0.51539 0.48313
 O286 O -0.07697 0.46683 0.49767
 O287 O -0.01508 0.51798 0.42199
 O288 O 0.03285 0.50180 0.42368
 Zr289 Zr 0.01109 0.52090 0.45617
 O290 O 0.03738 0.49648 0.48006
 Zr291 Zr -0.04435 0.48921 0.47987
 O292 O -0.02018 0.46285 0.50390
 Zr293 Zr -0.02057 0.54437 0.51170
 O294 O 0.00395 0.52034 0.53781
 Zr295 Zr 0.01899 0.45822 0.48673
 O296 O -0.00646 0.48167 0.46059
 Zr297 Zr 0.04217 0.51334 0.51929
 O298 O 0.01855 0.53973 0.49430
 Zr299 Zr -0.01311 0.48102 0.54224
 O300 O -0.03969 0.50643 0.51912
 O301 O -0.02746 0.52767 0.47317
 O302 O 0.02575 0.47444 0.52576
 C303 C -0.00638 0.58170 0.46169
 C304 C -0.03849 0.50645 0.41882
 C305 C -0.08154 0.53901 0.49424
 C306 C 0.00708 0.42042 0.53606
 C307 C 0.07918 0.46285 0.50703
 C308 C 0.03695 0.49328 0.57960
 H309 H 0.05509 0.49451 0.47042
 H310 H 0.00573 0.52984 0.55560
 H311 H -0.03920 0.53937 0.46147
 H312 H -0.02955 0.44496 0.50548
 H313 H -0.00632 0.42894 0.45068
 H314 H -0.04978 0.43979 0.46207
 H315 H 0.04445 0.55451 0.55295
 H316 H 0.01393 0.58177 0.52592
 H317 H 0.04848 0.43119 0.45127
 H318 H 0.03053 0.51283 0.40676
 H319 H -0.02834 0.51296 0.58181
 H320 H -0.05163 0.54411 0.55437
 H321 H 0.05316 0.55303 0.45837
 H322 H 0.08194 0.52788 0.48714
 H323 H -0.08190 0.47626 0.51494
 H324 H -0.05394 0.44693 0.54452
 O325 O 0.51639 0.92126 0.01469
 O326 O 0.50281 0.92055 -0.03033
 O327 O 0.57679 0.98627 0.01709
 O328 O 0.57865 1.03084 0.00900
 O329 O 0.51214 0.98245 0.07901
 O330 O 0.46522 0.99422 0.07883
 O331 O 0.50371 1.05920 -0.05227
 O332 O 0.54618 1.04008 -0.05550
 O333 O 0.44676 0.99465 -0.05979
 O334 O 0.43990 0.95089 -0.03713
 O335 O 0.43810 1.05127 0.00492
 O336 O 0.46023 1.05886 0.04803
 O337 O 0.48180 1.07562 -0.01443
 O338 O 0.49505 1.07586 0.03538
 O339 O 0.42177 1.01321 -0.01643
 O340 O 0.42213 0.96397 -0.00287
 O341 O 0.48441 1.01691 -0.07598
 O342 O 0.53128 0.99746 -0.07485
 O343 O 0.49366 0.93727 0.05225
 O344 O 0.45031 0.96023 0.05823
 O345 O 0.55011 1.00424 0.06296
 O346 O 0.55372 1.04899 0.03921
 O347 O 0.56071 0.94768 -0.00359
 O348 O 0.53772 0.94522 -0.04867
 Zr349 Zr 0.51896 0.95582 -0.01087
 O350 O 0.49375 0.97919 -0.03688
 Zr351 Zr 0.54198 1.01131 0.02120
 O352 O 0.51853 1.03694 -0.00428
 Zr353 Zr 0.48671 0.97920 0.04436
 O354 O 0.46071 1.00414 0.02063
 Zr355 Zr 0.51120 1.01810 -0.04224
 O356 O 0.53794 0.99394 -0.01811
 Zr357 Zr 0.45569 0.98667 -0.01837
 O358 O 0.47960 0.96029 0.00635
 Zr359 Zr 0.47945 1.04218 0.01292
 O360 O 0.50386 1.01854 0.03999
 O361 O 0.52538 0.97269 0.02780
 O362 O 0.47238 1.02532 -0.02567
 C363 C 0.50500 0.91810 0.03819
 C364 C 0.57995 0.96233 0.00670
 C365 C 0.53581 0.99341 0.08218
 C366 C 0.49226 1.07841 -0.03844
 C367 C 0.46053 1.00633 -0.07890
 C368 C 0.41890 1.03727 -0.00629
 H369 H 0.49183 0.96954 -0.05459
 H370 H 0.44308 1.00624 0.03035
 H371 H 0.53715 0.96106 0.03952
 H372 H 0.52830 1.05452 -0.00668
 H373 H 0.56229 1.02858 -0.05105
 H374 H 0.57452 1.04072 -0.00818
 H375 H 0.41559 0.97322 0.01394
 H376 H 0.44457 0.94733 0.04367
 H377 H 0.53052 1.00935 -0.09131
 H378 H 0.54855 0.92820 -0.04615
 H379 H 0.44743 1.04487 0.05520
 H380 H 0.47144 1.01333 0.08158
 H381 H 0.48349 0.91890 -0.02439
 H382 H 0.45329 0.94479 -0.05106
 H383 H 0.54033 1.05296 0.05392
 H384 H 0.51148 1.08272 0.02571
 O385 O 0.55243 0.50375 -0.06267
 O386 O 0.55697 0.54608 -0.04235
 O387 O 0.56179 0.44727 0.00488
 O388 O 0.54101 0.43784 0.04416
 O389 O 0.49454 0.43726 -0.05320
 O390 O 0.45199 0.45979 -0.05908
 O391 O 0.48766 0.51718 0.07629
 O392 O 0.53180 0.50213 0.07697
 O393 O 0.48245 0.57585 0.01284
 O394 O 0.49417 0.57658 -0.03535
 O395 O 0.42325 0.51266 0.01713
 O396 O 0.42213 0.46504 0.00589
 O397 O 0.44954 0.49531 0.06050
 O398 O 0.44346 0.44968 0.03705
 O399 O 0.43899 0.55049 -0.00507
 O400 O 0.46234 0.55600 -0.05031
 O401 O 0.50400 0.55978 0.05093
 O402 O 0.55038 0.53906 0.05048
 O403 O 0.51402 0.48258 -0.07879
 O404 O 0.46624 0.49482 -0.07841
 O405 O 0.51667 0.42111 -0.01548
 O406 O 0.50207 0.42270 0.03310
 O407 O 0.57770 0.48456 -0.01819
 O408 O 0.57598 0.53252 -0.00210
 Zr409 Zr 0.54350 0.51070 -0.02113
 O410 O 0.51960 0.53701 0.00329
 Zr411 Zr 0.51986 0.45529 0.01066
 O412 O 0.49584 0.47950 0.03703
 Zr413 Zr 0.48798 0.47896 -0.04448
 O414 O 0.46186 0.50350 -0.02044
 Zr415 Zr 0.51298 0.51868 0.04158
 O416 O 0.53913 0.49321 0.01813
 Zr417 Zr 0.48035 0.54175 -0.01353
 O418 O 0.50534 0.51809 -0.03991
 Zr419 Zr 0.45747 0.48651 0.01891
 O420 O 0.48059 0.45990 -0.00650
 O421 O 0.52653 0.47212 -0.02783
 O422 O 0.47393 0.52539 0.02541
 C423 C 0.53793 0.49318 -0.08190
 C424 C 0.58091 0.46119 -0.00661
 C425 C 0.50557 0.41802 -0.03910
 C426 C 0.46370 0.50683 0.07947
 C427 C 0.49263 0.57885 0.03689
 C428 C 0.42006 0.53652 0.00663
 H429 H 0.52923 0.55474 0.00522
 H430 H 0.44406 0.50525 -0.02991
 H431 H 0.53824 0.46038 -0.03952
 H432 H 0.49429 0.47016 0.05493
 H433 H 0.54908 0.49344 0.07083
 H434 H 0.53774 0.44996 0.06004
 H435 H 0.44664 0.54393 -0.05463
 H436 H 0.47364 0.51338 -0.08188
 H437 H 0.54845 0.54824 0.06851
 H438 H 0.59290 0.53019 -0.01315
 H439 H 0.41794 0.47111 -0.01297
 H440 H 0.44538 0.44780 -0.04411
 H441 H 0.54124 0.55272 -0.05328
 H442 H 0.51245 0.58153 -0.02814
 H443 H 0.48484 0.41771 0.02365
 H444 H 0.45524 0.44575 0.05306
 O445 O -0.07776 0.01428 0.51751
 O446 O -0.07835 -0.03078 0.50401
 O447 O -0.01292 0.01690 0.57806
 O448 O 0.03168 0.00897 0.58001
 O449 O -0.01674 0.07870 0.51329
 O450 O -0.00479 0.07848 0.46643
 O451 O 0.06034 -0.05244 0.50517
 O452 O 0.04115 -0.05559 0.54763
 O453 O -0.00401 -0.06015 0.44814
 O454 O -0.04778 -0.03766 0.44113
 O455 O 0.05246 0.00469 0.43949
 O456 O 0.05989 0.04788 0.46168
 O457 O 0.07673 -0.01460 0.48323
 O458 O 0.07691 0.03520 0.49644
 O459 O 0.01448 -0.01678 0.42313
 O460 O -0.03482 -0.00333 0.42342
 O461 O 0.01813 -0.07625 0.48587
 O462 O -0.00141 -0.07507 0.53270
 O463 O -0.06175 0.05182 0.49474
 O464 O -0.03868 0.05778 0.45145
 O465 O 0.00499 0.06281 0.55134
 O466 O 0.04980 0.03918 0.55508
 O467 O -0.05143 -0.00388 0.56191
 O468 O -0.05372 -0.04901 0.53897
 Zr469 Zr -0.04316 -0.01121 0.52020
 O470 O -0.01966 -0.03721 0.49507
 Zr471 Zr 0.01220 0.02104 0.54329
 O472 O 0.03794 -0.00443 0.51992
 Zr473 Zr -0.01980 0.04401 0.48792
 O474 O 0.00527 0.02030 0.46200
 Zr475 Zr 0.01921 -0.04245 0.51260
 O476 O -0.00507 -0.01833 0.53926
 Zr477 Zr -0.01213 -0.01875 0.45701
 O478 O -0.03862 0.00595 0.48083
 Zr479 Zr 0.04327 0.01271 0.48083
 O480 O 0.01951 0.03976 0.50516
 O481 O -0.02639 0.02751 0.52660
 O482 O 0.02649 -0.02593 0.47378
 C483 C -0.08093 0.03774 0.50605
 C484 C -0.03685 0.00645 0.58119
 C485 C -0.00586 0.08196 0.53698
 C486 C 0.07954 -0.03860 0.49371
 C487 C 0.00764 -0.07922 0.46197
 C488 C 0.03851 -0.00657 0.42028
 H489 H -0.02927 -0.05495 0.49315
 H490 H 0.00738 0.03000 0.44436
 H491 H -0.03808 0.03923 0.53833
 H492 H 0.05551 -0.00679 0.52972
 H493 H 0.02961 -0.05114 0.56372
 H494 H 0.04159 -0.00821 0.57593
 H495 H -0.02555 0.01345 0.41684
 H496 H -0.05156 0.04320 0.44572
 H497 H 0.01052 -0.09151 0.53199
 H498 H -0.07077 -0.04652 0.54977
 H499 H 0.04597 0.05494 0.44877
 H500 H 0.01430 0.08129 0.47270
 H501 H -0.07995 -0.02490 0.48467
 H502 H -0.05392 -0.05153 0.45457
 H503 H 0.05378 0.05384 0.54165
 H504 H 0.08370 0.02559 0.51294
 O505 O 0.81222 0.24491 0.19705
 O506 O 0.79188 0.20255 0.19266
 O507 O 0.74467 0.30137 0.18773
 O508 O 0.70539 0.31078 0.20852
 O509 O 0.80285 0.31149 0.25481
 O510 O 0.80882 0.28907 0.29740
 O511 O 0.67334 0.23160 0.26213
 O512 O 0.67258 0.24652 0.21795
 O513 O 0.73687 0.17293 0.26732
 O514 O 0.78501 0.17218 0.25555
 O515 O 0.73262 0.23625 0.32639
 O516 O 0.74388 0.28385 0.32741
 O517 O 0.68922 0.25358 0.30015
 O518 O 0.71271 0.29920 0.30608
 O519 O 0.75481 0.19839 0.31069
 O520 O 0.80005 0.19287 0.28728
 O521 O 0.69871 0.18893 0.24584
 O522 O 0.69904 0.20956 0.19942
 O523 O 0.82840 0.26617 0.23539
 O524 O 0.82811 0.25399 0.28320
 O525 O 0.76508 0.32759 0.23274
 O526 O 0.71652 0.32604 0.24741
 O527 O 0.76771 0.26405 0.17184
 O528 O 0.75159 0.21610 0.17368
 Zr529 Zr 0.77069 0.23796 0.20609
 O530 O 0.74632 0.21170 0.23009
 Zr531 Zr 0.73892 0.29340 0.22966
 O532 O 0.71260 0.26925 0.25378
 Zr533 Zr 0.79414 0.26982 0.26149
 O534 O 0.77015 0.24534 0.28771
 Zr535 Zr 0.70802 0.23003 0.23674
 O536 O 0.73143 0.25545 0.21050
 Zr537 Zr 0.76321 0.20705 0.26932
 O538 O 0.78955 0.23065 0.24422
 Zr539 Zr 0.73080 0.26233 0.29213
 O540 O 0.75617 0.28889 0.26890
 O541 O 0.77741 0.27657 0.22296
 O542 O 0.72427 0.22341 0.27578
 C543 C 0.83148 0.25554 0.21149
 C544 C 0.75615 0.28743 0.16862
 C545 C 0.78873 0.33071 0.24377
 C546 C 0.67021 0.24203 0.28606
 C547 C 0.71280 0.16989 0.25719
 C548 C 0.74313 0.21239 0.32961
 H549 H 0.74437 0.19395 0.22051
 H550 H 0.77966 0.24362 0.30550
 H551 H 0.78909 0.28829 0.21122
 H552 H 0.69471 0.27859 0.25535
 H553 H 0.67869 0.25518 0.20065
 H554 H 0.68950 0.29869 0.21189
 H555 H 0.80437 0.20495 0.30297
 H556 H 0.83159 0.23543 0.27580
 H557 H 0.68103 0.20037 0.20141
 H558 H 0.76261 0.21839 0.15674
 H559 H 0.76276 0.27780 0.33156
 H560 H 0.79386 0.30106 0.30402
 H561 H 0.80288 0.19597 0.20836
 H562 H 0.77782 0.16724 0.23726
 H563 H 0.72601 0.33108 0.26461
 H564 H 0.69667 0.30311 0.29433
 O565 O 0.68893 0.75577 0.69888
 O566 O 0.70931 0.79816 0.69453
 O567 O 0.75641 0.69927 0.68957
 O568 O 0.79570 0.68988 0.71034
 O569 O 0.69820 0.68919 0.75664
 O570 O 0.69218 0.71164 0.79923
 O571 O 0.82775 0.76894 0.76401
 O572 O 0.82854 0.75405 0.71983
 O573 O 0.76427 0.82771 0.76918
 O574 O 0.71614 0.82850 0.75738
 O575 O 0.76834 0.76440 0.82825
 O576 O 0.75704 0.71678 0.82923
 O577 O 0.81179 0.74700 0.80203
 O578 O 0.78826 0.70144 0.80797
 O579 O 0.74621 0.80226 0.81255
 O580 O 0.70105 0.80786 0.78911
 O581 O 0.80244 0.81166 0.74773
 O582 O 0.80215 0.79105 0.70131
 O583 O 0.67268 0.73450 0.73719
 O584 O 0.67291 0.74672 0.78499
 O585 O 0.73597 0.67307 0.73456
 O586 O 0.78450 0.67458 0.74923
 O587 O 0.73343 0.73662 0.67369
 O588 O 0.74960 0.78455 0.67553
 Zr589 Zr 0.73045 0.76271 0.70794
 O590 O 0.75483 0.78895 0.73195
 Zr591 Zr 0.76215 0.70724 0.73150
 O592 O 0.78845 0.73137 0.75565
 Zr593 Zr 0.70691 0.73087 0.76332
 O594 O 0.73089 0.75534 0.78955
 Zr595 Zr 0.79310 0.77058 0.73862
 O596 O 0.76969 0.74519 0.71235
 Zr597 Zr 0.73789 0.79362 0.77116
 O598 O 0.71155 0.77004 0.74607
 Zr599 Zr 0.77021 0.73831 0.79399
 O600 O 0.74486 0.71176 0.77074
 O601 O 0.72369 0.72410 0.72480
 O602 O 0.77680 0.77723 0.77765
 C603 C 0.66965 0.74512 0.71329
 C604 C 0.74496 0.71323 0.67046
 C605 C 0.71232 0.66997 0.74558
 C606 C 0.83084 0.75850 0.78795
 C607 C 0.78836 0.83073 0.75907
 C608 C 0.75782 0.78825 0.83148
 H609 H 0.75681 0.80669 0.72237
 H610 H 0.72135 0.75706 0.80732
 H611 H 0.71201 0.71239 0.71305
 H612 H 0.80634 0.72200 0.75722
 H613 H 0.82244 0.74540 0.70252
 H614 H 0.81162 0.70190 0.71381
 H615 H 0.69665 0.79574 0.80475
 H616 H 0.66946 0.76528 0.77759
 H617 H 0.82017 0.80021 0.70331
 H618 H 0.73857 0.78228 0.65860
 H619 H 0.73818 0.72288 0.83341
 H620 H 0.70712 0.69963 0.80584
 H621 H 0.69825 0.80470 0.71022
 H622 H 0.72336 0.83344 0.73910
 H623 H 0.77501 0.66957 0.76644
 H624 H 0.80427 0.69747 0.79619
 O625 O 0.30114 0.18766 0.74516
 O626 O 0.30565 0.20788 0.70277
 O627 O 0.31078 0.25526 0.80150
 O628 O 0.29017 0.29464 0.81086
 O629 O 0.24337 0.19739 0.81171
 O630 O 0.20078 0.19154 0.78926
 O631 O 0.23671 0.32673 0.73161
 O632 O 0.28089 0.32736 0.74659
 O633 O 0.23124 0.26318 0.67308
 O634 O 0.24282 0.21496 0.67238
 O635 O 0.17218 0.26773 0.73637
 O636 O 0.17115 0.25651 0.78405
 O637 O 0.19860 0.31104 0.75359
 O638 O 0.19251 0.28774 0.79923
 O639 O 0.18779 0.24543 0.69854
 O640 O 0.21099 0.20010 0.69306
 O641 O 0.25291 0.30126 0.68904
 O642 O 0.29933 0.30076 0.70966
 O643 O 0.26273 0.17166 0.76644
 O644 O 0.21494 0.17210 0.75425
 O645 O 0.26564 0.23508 0.82775
 O646 O 0.25122 0.28370 0.82613
 O647 O 0.32657 0.23210 0.76421
 O648 O 0.32481 0.24812 0.71623
 Zr649 Zr 0.29231 0.22921 0.73814
 O650 O 0.26843 0.25362 0.71184
 Zr651 Zr 0.26887 0.26116 0.79354
 O652 O 0.24487 0.28752 0.76935
 Zr653 Zr 0.23678 0.20603 0.77002
 O654 O 0.21068 0.23007 0.74550
 Zr655 Zr 0.26195 0.29196 0.73013
 O656 O 0.28808 0.26850 0.75558
 Zr657 Zr 0.22913 0.23688 0.70721
 O658 O 0.25408 0.21049 0.73085
 Zr659 Zr 0.20644 0.26946 0.76244
 O660 O 0.22954 0.24406 0.78904
 O661 O 0.27539 0.22262 0.77676
 O662 O 0.22284 0.27586 0.72353
 C663 C 0.28661 0.16848 0.75582
 C664 C 0.32985 0.24370 0.78756
 C665 C 0.25446 0.21150 0.83091
 C666 C 0.21277 0.32996 0.74200
 C667 C 0.24148 0.28720 0.67002
 C668 C 0.16892 0.25721 0.71252
 H669 H 0.27803 0.25551 0.69410
 H670 H 0.19285 0.22063 0.74379
 H671 H 0.28708 0.21092 0.78850
 H672 H 0.24338 0.30545 0.77866
 H673 H 0.29817 0.32120 0.75524
 H674 H 0.28687 0.31052 0.79876
 H675 H 0.19529 0.19585 0.70516
 H676 H 0.22231 0.16858 0.73568
 H677 H 0.29743 0.31878 0.70045
 H678 H 0.34170 0.23704 0.71854
 H679 H 0.16680 0.23770 0.77789
 H680 H 0.19421 0.20655 0.80122
 H681 H 0.28989 0.19695 0.69620
 H682 H 0.26112 0.22210 0.66741
 H683 H 0.23394 0.27432 0.83115
 H684 H 0.20438 0.30370 0.80315
 O685 O 0.18827 0.74532 0.30208
 O686 O 0.20839 0.70293 0.30666
 O687 O 0.25609 0.80153 0.31151
 O688 O 0.29543 0.81077 0.29074
 O689 O 0.19809 0.81174 0.24422
 O690 O 0.19214 0.78926 0.20167
 O691 O 0.32722 0.73131 0.23742
 O692 O 0.32793 0.74634 0.28157
 O693 O 0.26349 0.67293 0.23208
 O694 O 0.21532 0.67234 0.24385
 O695 O 0.26808 0.73603 0.17297
 O696 O 0.25705 0.78377 0.17189
 O697 O 0.31154 0.75320 0.19928
 O698 O 0.28837 0.79889 0.19314
 O699 O 0.24566 0.69833 0.18870
 O700 O 0.20038 0.69305 0.21208
 O701 O 0.30165 0.68883 0.25363
 O702 O 0.30127 0.70949 0.30007
 O703 O 0.17228 0.76656 0.26366
 O704 O 0.17264 0.75431 0.21588
 O705 O 0.23586 0.82775 0.26636
 O706 O 0.28445 0.82597 0.25182
 O707 O 0.23284 0.76434 0.32740
 O708 O 0.24871 0.71630 0.32567
 Zr709 Zr 0.22980 0.73821 0.29319
 O710 O 0.25409 0.71178 0.26930
 Zr711 Zr 0.26186 0.79347 0.26958
 O712 O 0.28812 0.76914 0.24557
 Zr713 Zr 0.20663 0.77002 0.23765
 O714 O 0.23055 0.74538 0.21154
 Zr715 Zr 0.29247 0.72994 0.26270
 O716 O 0.26914 0.75552 0.28884
 Zr717 Zr 0.23727 0.70712 0.23004
 O718 O 0.21099 0.73088 0.25502
 Zr719 Zr 0.26999 0.76219 0.20718
 O720 O 0.24470 0.78892 0.23030
 O721 O 0.22328 0.77680 0.27622
 O722 O 0.27629 0.72330 0.22364
 C723 C 0.16910 0.75598 0.28755
 C724 C 0.24453 0.78767 0.33063
 C725 C 0.21226 0.83093 0.25525
 C726 C 0.33046 0.74162 0.21345
 C727 C 0.28753 0.66983 0.24223
 C728 C 0.25744 0.71222 0.16977
 H729 H 0.25595 0.69404 0.27891
 H730 H 0.22107 0.74367 0.19374
 H731 H 0.21163 0.78860 0.28792
 H732 H 0.30607 0.77840 0.24402
 H733 H 0.32182 0.75503 0.29885
 H734 H 0.31126 0.79857 0.28748
 H735 H 0.19615 0.70509 0.19634
 H736 H 0.16904 0.73578 0.22331
 H737 H 0.31925 0.70022 0.29813
 H738 H 0.23768 0.71870 0.34259
 H739 H 0.23821 0.77768 0.16761
 H740 H 0.20718 0.80116 0.19506
 H741 H 0.19748 0.69629 0.29091
 H742 H 0.22250 0.66737 0.26213
 H743 H 0.27506 0.83096 0.23456
 H744 H 0.30433 0.80282 0.20500
 O745 O 0.23298 0.73563 0.82778
 O746 O 0.24662 0.78066 0.82844
 O747 O 0.17241 0.73327 0.76297
 O748 O 0.17046 0.74135 0.71841
 O749 O 0.23702 0.67131 0.76661
 O750 O 0.28391 0.67146 0.75468
 O751 O 0.24540 0.80255 0.68978
 O752 O 0.20299 0.80582 0.70903
 O753 O 0.30250 0.81008 0.75422
 O754 O 0.30947 0.78743 0.79790
 O755 O 0.31099 0.74532 0.69757
 O756 O 0.28874 0.70218 0.69008
 O757 O 0.26723 0.76468 0.67333
 O758 O 0.25398 0.71491 0.67312
 O759 O 0.32742 0.76668 0.73558
 O760 O 0.32714 0.75313 0.78482
 O761 O 0.26482 0.82628 0.73206
 O762 O 0.21799 0.82517 0.75160
 O763 O 0.25564 0.69805 0.81170
 O764 O 0.29892 0.69205 0.78863
 O765 O 0.19901 0.68736 0.74494
 O766 O 0.19530 0.71109 0.70021
 O767 O 0.18862 0.75394 0.80151
 O768 O 0.21166 0.79901 0.80388
 Zr769 Zr 0.23035 0.76119 0.79323
 O770 O 0.25553 0.78718 0.76977
 Zr771 Zr 0.20716 0.72912 0.73783
 O772 O 0.23059 0.75457 0.71213
 Zr773 Zr 0.26249 0.70594 0.76977
 O774 O 0.28846 0.72965 0.74475
 Zr775 Zr 0.23801 0.79254 0.73092
 O776 O 0.21129 0.76844 0.75517
 Zr777 Zr 0.29355 0.76865 0.76220
 O778 O 0.26968 0.74395 0.78865
 Zr779 Zr 0.26965 0.73735 0.70677
 O780 O 0.24524 0.71031 0.73048
 O781 O 0.22385 0.72252 0.77639
 O782 O 0.27679 0.77595 0.72360
 C783 C 0.24436 0.71212 0.83090
 C784 C 0.16932 0.74367 0.78692
 C785 C 0.21332 0.66814 0.75573
 C786 C 0.25678 0.78869 0.67055
 C787 C 0.28871 0.82919 0.74260
 C788 C 0.33023 0.75651 0.71152
 H789 H 0.25749 0.80489 0.77942
 H790 H 0.30608 0.71991 0.74261
 H791 H 0.21209 0.71081 0.78807
 H792 H 0.22078 0.75697 0.69458
 H793 H 0.18690 0.80137 0.72056
 H794 H 0.17460 0.75850 0.70848
 H795 H 0.33365 0.73633 0.77554
 H796 H 0.30470 0.70660 0.80151
 H797 H 0.21875 0.84163 0.73971
 H798 H 0.20087 0.79650 0.82094
 H799 H 0.30163 0.69507 0.70399
 H800 H 0.27763 0.66870 0.73560
 H801 H 0.26592 0.77468 0.83006
 H802 H 0.29607 0.80131 0.80409
 H803 H 0.20869 0.69639 0.69619
 H804 H 0.23748 0.72454 0.66636
 O805 O 0.25644 0.19804 0.19008
 O806 O 0.29870 0.19350 0.21058
 O807 O 0.19966 0.18943 0.25750
 O808 O 0.19030 0.21048 0.29665
 O809 O 0.19019 0.25627 0.19894
 O810 O 0.21290 0.29866 0.19274
 O811 O 0.26955 0.26379 0.32864
 O812 O 0.25451 0.21972 0.32957
 O813 O 0.32859 0.26833 0.26520
 O814 O 0.32949 0.25632 0.21723
 O815 O 0.26561 0.32783 0.26883
 O816 O 0.21808 0.32905 0.25756
 O817 O 0.24791 0.30188 0.31247
 O818 O 0.20247 0.30799 0.28874
 O819 O 0.30341 0.31179 0.24680
 O820 O 0.30897 0.28794 0.20181
 O821 O 0.31234 0.24717 0.30344
 O822 O 0.29144 0.20087 0.30333
 O823 O 0.23545 0.23640 0.17363
 O824 O 0.24797 0.28415 0.17367
 O825 O 0.17382 0.23451 0.23678
 O826 O 0.17529 0.24940 0.28525
 O827 O 0.23697 0.17319 0.23469
 O828 O 0.28489 0.17484 0.25094
 Zr829 Zr 0.26329 0.20726 0.23158
 O830 O 0.28962 0.23127 0.25587
 Zr831 Zr 0.20790 0.23135 0.26304
 O832 O 0.23211 0.25549 0.28927
 Zr833 Zr 0.23188 0.26273 0.20771
 O834 O 0.25642 0.28895 0.23161
 Zr835 Zr 0.27121 0.23826 0.29408
 O836 O 0.24571 0.21201 0.27076
 Zr837 Zr 0.29457 0.27038 0.23877
 O838 O 0.27092 0.24525 0.21252
 Zr839 Zr 0.23934 0.29370 0.27088
 O840 O 0.21272 0.27048 0.24558
 O841 O 0.22482 0.22433 0.22465
 O842 O 0.27814 0.27718 0.27763
 C843 C 0.24595 0.21243 0.17072
 C844 C 0.21352 0.17017 0.24618
 C845 C 0.17086 0.24544 0.21307
 C846 C 0.25920 0.28778 0.33162
 C847 C 0.33150 0.25831 0.28932
 C848 C 0.28947 0.33088 0.25827
 H849 H 0.30730 0.22159 0.25793
 H850 H 0.25827 0.30666 0.22198
 H851 H 0.21306 0.21259 0.21301
 H852 H 0.22270 0.25720 0.30712
 H853 H 0.24575 0.20244 0.32352
 H854 H 0.20235 0.21390 0.31255
 H855 H 0.29700 0.30367 0.19734
 H856 H 0.26645 0.27656 0.17023
 H857 H 0.30059 0.20291 0.32135
 H858 H 0.28252 0.15785 0.24002
 H859 H 0.22413 0.33300 0.23863
 H860 H 0.20090 0.30545 0.20762
 H861 H 0.30541 0.20910 0.19949
 H862 H 0.33420 0.23798 0.22443
 H863 H 0.17040 0.26659 0.27566
 H864 H 0.19839 0.29632 0.30480
 O865 O 0.74383 0.69786 0.31170
 O866 O 0.70164 0.69311 0.29119
 O867 O 0.80072 0.68928 0.24434
 O868 O 0.81019 0.71031 0.20525
 O869 O 0.80990 0.75633 0.30284
 O870 O 0.78702 0.79865 0.30889
 O871 O 0.73063 0.76320 0.17302
 O872 O 0.74597 0.71920 0.17218
 O873 O 0.67158 0.76769 0.23624
 O874 O 0.67062 0.75584 0.28429
 O875 O 0.73441 0.82740 0.23259
 O876 O 0.78192 0.82880 0.24397
 O877 O 0.75214 0.80141 0.18911
 O878 O 0.79760 0.80770 0.21282
 O879 O 0.69658 0.81132 0.25455
 O880 O 0.69101 0.78760 0.29963
 O881 O 0.68799 0.74641 0.19813
 O882 O 0.70906 0.70021 0.19842
 O883 O 0.76463 0.73636 0.32812
 O884 O 0.75198 0.78405 0.32793
 O885 O 0.82641 0.73451 0.26509
 O886 O 0.82496 0.74930 0.21657
 O887 O 0.76343 0.67295 0.26713
 O888 O 0.71550 0.67442 0.25088
 Zr889 Zr 0.73701 0.70696 0.27018
 O890 O 0.71065 0.73080 0.24579
 Zr891 Zr 0.79239 0.73116 0.23877
 O892 O 0.76815 0.75512 0.21242
 Zr893 Zr 0.76820 0.76260 0.29397
 O894 O 0.74362 0.78867 0.26995
 Zr895 Zr 0.72911 0.73772 0.20761
 O896 O 0.75466 0.71166 0.23103
 Zr897 Zr 0.70553 0.76995 0.26276
 O898 O 0.72922 0.74498 0.28912
 Zr899 Zr 0.76076 0.79336 0.23070
 O900 O 0.78741 0.77031 0.25612
 O901 O 0.77543 0.72418 0.27714
 O902 O 0.72203 0.77667 0.22393
 C903 C 0.75421 0.71235 0.33106
 C904 C 0.78688 0.66998 0.25564
 C905 C 0.82930 0.74554 0.28877
 C906 C 0.74084 0.78724 0.17001
 C907 C 0.66876 0.75755 0.21215
 C908 C 0.71050 0.83042 0.24306
 H909 H 0.69300 0.72105 0.24373
 H910 H 0.74170 0.80640 0.27952
 H911 H 0.78720 0.71250 0.28883
 H912 H 0.77757 0.75682 0.19457
 H913 H 0.75476 0.70195 0.17827
 H914 H 0.79811 0.71352 0.18934
 H915 H 0.70291 0.80339 0.30408
 H916 H 0.73349 0.77644 0.33132
 H917 H 0.69996 0.70215 0.18036
 H918 H 0.71792 0.65746 0.26183
 H919 H 0.77580 0.83281 0.26286
 H920 H 0.79903 0.80544 0.29401
 H921 H 0.69482 0.70875 0.30216
 H922 H 0.66597 0.73747 0.27712
 H923 H 0.82979 0.76652 0.22614
 H924 H 0.80168 0.79605 0.19674
 O925 O 0.69699 0.31045 0.74389
 O926 O 0.69235 0.28994 0.70167
 O927 O 0.68851 0.24291 0.80063
 O928 O 0.70965 0.20383 0.80995
 O929 O 0.75529 0.30163 0.81004
 O930 O 0.79766 0.30786 0.78729
 O931 O 0.76286 0.17196 0.73052
 O932 O 0.71880 0.17095 0.74570
 O933 O 0.76724 0.23540 0.67159
 O934 O 0.75515 0.28339 0.67075
 O935 O 0.82682 0.23184 0.73445
 O936 O 0.82808 0.24313 0.78201
 O937 O 0.80096 0.18818 0.75211
 O938 O 0.80711 0.21184 0.79757
 O939 O 0.81070 0.25385 0.69669
 O940 O 0.78680 0.29883 0.69123
 O941 O 0.74612 0.19713 0.68785
 O942 O 0.69985 0.19718 0.70882
 O943 O 0.73538 0.32694 0.76479
 O944 O 0.78310 0.32695 0.75229
 O945 O 0.73360 0.26375 0.82642
 O946 O 0.74857 0.21530 0.82488
 O947 O 0.67218 0.26575 0.76339
 O948 O 0.67379 0.24955 0.71545
 Zr949 Zr 0.70622 0.26894 0.73702
 O950 O 0.73021 0.24469 0.71063
 Zr951 Zr 0.73043 0.23749 0.79233
 O952 O 0.75456 0.21129 0.76805
 Zr953 Zr 0.76172 0.29287 0.76835
 O954 O 0.78792 0.26901 0.74373
 Zr955 Zr 0.73726 0.20648 0.72898
 O956 O 0.71104 0.22976 0.75455
 Zr957 Zr 0.76929 0.26185 0.70562
 O958 O 0.74418 0.28805 0.72934
 Zr959 Zr 0.79274 0.22974 0.76077
 O960 O 0.76953 0.25500 0.78746
 O961 O 0.72334 0.27589 0.77546
 O962 O 0.77615 0.22299 0.72200
 C963 C 0.71140 0.32984 0.75432
 C964 C 0.66920 0.25420 0.78682
 C965 C 0.74450 0.28748 0.82938
 C966 C 0.78688 0.16902 0.74079
 C967 C 0.75724 0.21127 0.66868
 C968 C 0.82982 0.24240 0.71058
 H969 H 0.72051 0.24262 0.69296
 H970 H 0.80562 0.27867 0.74187
 H971 H 0.71159 0.28751 0.78724
 H972 H 0.75630 0.19343 0.77744
 H973 H 0.70152 0.17697 0.75448
 H974 H 0.71302 0.18794 0.79787
 H975 H 0.80257 0.30331 0.70314
 H976 H 0.77553 0.33036 0.73379
 H977 H 0.70190 0.17915 0.69966
 H978 H 0.65678 0.26042 0.71788
 H979 H 0.83204 0.26204 0.77592
 H980 H 0.80447 0.29298 0.79927
 H981 H 0.70795 0.30098 0.69489
 H982 H 0.73684 0.27612 0.66603
 H983 H 0.76575 0.22491 0.82974
 H984 H 0.79545 0.19577 0.80165
 C985 C 0.10867 1.00149 1.22581
 C986 C 0.09610 1.00263 1.20456
 C987 C 0.08270 1.00431 1.17899
 C988 C 0.07206 1.00573 1.15676
 C989 C 0.06021 1.00706 1.13041
 C990 C 0.05030 1.00760 1.10780
 C991 C 0.60867 0.50075 0.72386
 C992 C 0.59618 0.50188 0.70258
 C993 C 0.58280 0.50359 0.67702
 C994 C 0.57214 0.50504 0.65481
 C995 C 0.56025 0.50642 0.62850
 C996 C 0.55031 0.50699 0.60591
 C997 C 0.39197 -0.00030 0.72634
 C998 C 0.40482 -0.00081 0.70525
 C999 C 0.41842 -0.00196 0.67977
 C1000 C 0.42910 -0.00312 0.65755
 C1001 C 0.44082 -0.00442 0.63115
 C1002 C 0.45049 -0.00520 0.60845
 C1003 C -0.10787 0.50081 1.22419
 C1004 C -0.09506 0.50011 1.20306
 C1005 C -0.08132 0.49881 1.17766
 C1006 C -0.07042 0.49755 1.15554
 C1007 C -0.05838 0.49614 1.12928
 C1008 C -0.04847 0.49526 1.10668
 C1009 C -0.10804 0.50108 0.27366
 C1010 C -0.09544 0.50180 0.29490
 C1011 C -0.08201 0.50304 0.32045
 C1012 C -0.07138 0.50420 0.34270
 C1013 C -0.05964 0.50544 0.36908
 C1014 C -0.04994 0.50619 0.39177
 C1015 C 0.39118 0.99994 -0.22415
 C1016 C 0.40349 1.00108 -0.20276
 C1017 C 0.41666 1.00289 -0.17709
 C1018 C 0.42714 1.00448 -0.15480
 C1019 C 0.43886 1.00602 -0.12841
 C1020 C 0.44870 1.00669 -0.10578
 C1021 C 0.60817 0.49969 -0.22667
 C1022 C 0.59533 0.49871 -0.20558
 C1023 C 0.58165 0.49715 -0.18016
 C1024 C 0.57086 0.49573 -0.15800
 C1025 C 0.55902 0.49424 -0.13167
 C1026 C 0.54930 0.49340 -0.10899
 C1027 C 0.10861 0.00015 0.27534
 C1028 C 0.09602 -0.00108 0.29658
 C1029 C 0.08262 -0.00295 0.32214
 C1030 C 0.07201 -0.00456 0.34438
 C1031 C 0.06020 -0.00612 0.37074
 C1032 C 0.05033 -0.00683 0.39338
 C1033 C 0.22486 1.10847 1.00167
 C1034 C 0.20354 1.09604 1.00281
 C1035 C 0.17789 1.08279 1.00450
 C1036 C 0.15559 1.07227 1.00594
 C1037 C 0.12918 1.06056 1.00731
 C1038 C 0.10653 1.05075 1.00789
 C1039 C 0.72385 0.60893 0.50168
 C1040 C 0.70259 0.59639 0.50286
 C1041 C 0.67702 0.58298 0.50459
 C1042 C 0.65480 0.57231 0.50605
 C1043 C 0.62848 0.56041 0.50738
 C1044 C 0.60588 0.55044 0.50786
 C1045 C 0.72602 0.39156 -0.00109
 C1046 C 0.70482 0.40423 -0.00178
 C1047 C 0.67929 0.41771 -0.00303
 C1048 C 0.65706 0.42836 -0.00422
 C1049 C 0.63067 0.44010 -0.00552
 C1050 C 0.60798 0.44978 -0.00631
 C1051 C 0.22454 -0.10861 0.49985
 C1052 C 0.20321 -0.09619 0.49877
 C1053 C 0.17759 -0.08288 0.49706
 C1054 C 0.15535 -0.07226 0.49556
 C1055 C 0.12901 -0.06041 0.49409
 C1056 C 0.10641 -0.05048 0.49343
 C1057 C 0.27405 -0.10793 0.50037
 C1058 C 0.29514 -0.09508 0.50112
 C1059 C 0.32059 -0.08144 0.50252
 C1060 C 0.34278 -0.07071 0.50385
 C1061 C 0.36915 -0.05893 0.50528
 C1062 C 0.39185 -0.04926 0.50611
 C1063 C -0.22449 0.39149 0.99919
 C1064 C -0.20328 0.40413 0.99990
 C1065 C -0.17775 0.41765 1.00114
 C1066 C -0.15554 0.42836 1.00230
 C1067 C -0.12920 0.44021 1.00355
 C1068 C -0.10655 0.45003 1.00427
 C1069 C -0.22663 0.60867 0.50064
 C1070 C -0.20544 0.59600 0.49974
 C1071 C -0.17990 0.58253 0.49826
 C1072 C -0.15766 0.57191 0.49690
 C1073 C -0.13126 0.56020 0.49544
 C1074 C -0.10857 0.55050 0.49457
 C1075 C 0.27438 1.10810 0.00032
 C1076 C 0.29551 1.09535 -0.00092
 C1077 C 0.32096 1.08175 -0.00278
 C1078 C 0.34312 1.07098 -0.00438
 C1079 C 0.36941 1.05902 -0.00591
 C1080 C 0.39200 1.04909 -0.00660
 C1081 C 0.00227 1.22516 1.10852
 C1082 C 0.00341 1.20380 1.09614
 C1083 C 0.00513 1.17813 1.08295
 C1084 C 0.00659 1.15582 1.07248
 C1085 C 0.00793 1.12940 1.06080
 C1086 C 0.00842 1.10674 1.05100
 C1087 C 0.50090 0.72472 0.60858
 C1088 C 0.50190 0.70342 0.59608
 C1089 C 0.50348 0.67784 0.58267
 C1090 C 0.50485 0.65563 0.57198
 C1091 C 0.50616 0.62932 0.56003
 C1092 C 0.50671 0.60673 0.55004
 C1093 C -0.00065 0.72665 0.39178
 C1094 C -0.00145 0.70549 0.40450
 C1095 C -0.00283 0.68000 0.41806
 C1096 C -0.00410 0.65781 0.42878
 C1097 C -0.00544 0.63145 0.44058
 C1098 C -0.00620 0.60877 0.45029
 C1099 C 0.49901 1.22322 -0.10877
 C1100 C 0.49780 1.20197 -0.09621
 C1101 C 0.49594 1.17642 -0.08280
 C1102 C 0.49432 1.15421 -0.07214
 C1103 C 0.49274 1.12788 -0.06026
 C1104 C 0.49201 1.10528 -0.05033
 C1105 C 0.49995 0.27276 -0.10862
 C1106 C 0.50077 0.29399 -0.09600
 C1107 C 0.50210 0.31957 -0.08258
 C1108 C 0.50332 0.34184 -0.07198
 C1109 C 0.50461 0.36826 -0.06028
 C1110 C 0.50535 0.39097 -0.05059
 C1111 C 0.00041 -0.22388 0.39163
 C1112 C 0.00180 -0.20268 0.40423
 C1113 C 0.00388 -0.17718 0.41768
 C1114 C 0.00564 -0.15500 0.42837
 C1115 C 0.00732 -0.12870 0.44025
 C1116 C 0.00804 -0.10610 0.45015
 C1117 C 0.50052 -0.22577 0.60807
 C1118 C 0.49986 -0.20465 0.59528
 C1119 C 0.49856 -0.17917 0.58168
 C1120 C 0.49726 -0.15697 0.57098
 C1121 C 0.49581 -0.13060 0.55922
 C1122 C 0.49489 -0.10790 0.54954
 C1123 C 0.00140 0.27467 1.10798
 C1124 C 0.00058 0.29577 1.09515
 C1125 C -0.00081 0.32120 1.08146
 C1126 C -0.00210 0.34336 1.07065
 C1127 C -0.00347 0.36967 1.05873
 C1128 C -0.00425 0.39231 1.04891
 C1129 C 0.75088 0.35747 0.02373
 C1130 C 0.75156 0.34475 0.04489
 C1131 C 0.75277 0.33117 0.07036
 C1132 C 0.75391 0.32042 0.09255
 C1133 C 0.75515 0.30859 0.11889
 C1134 C 0.75589 0.29886 0.14156
 C1135 C 0.24996 0.85801 0.52525
 C1136 C 0.25108 0.84564 0.54662
 C1137 C 0.25290 0.83247 0.57229
 C1138 C 0.25452 0.82200 0.59460
 C1139 C 0.25614 0.81032 0.62100
 C1140 C 0.25693 0.80051 0.64365
 C1141 C 0.74897 0.64298 0.52562
 C1142 C 0.74860 0.65577 0.54675
 C1143 C 0.74771 0.66942 0.57221
 C1144 C 0.74680 0.68019 0.59440
 C1145 C 0.74577 0.69204 0.62074
 C1146 C 0.74515 0.70178 0.64341
 C1147 C 0.25015 0.14230 0.02574
 C1148 C 0.24978 0.15497 0.04695
 C1149 C 0.24883 0.16850 0.07248
 C1150 C 0.24783 0.17921 0.09470
 C1151 C 0.24672 0.19105 0.12106
 C1152 C 0.24607 0.20085 0.14371
 C1153 C 0.24960 0.14226 0.97625
 C1154 C 0.25013 0.15484 0.95499
 C1155 C 0.25123 0.16822 0.92939
 C1156 C 0.25232 0.17877 0.90711
 C1157 C 0.25353 0.19042 0.88068
 C1158 C 0.25425 0.20007 0.85796
 C1159 C 0.74868 0.64263 0.47616
 C1160 C 0.74935 0.65520 0.45490
 C1161 C 0.75062 0.66865 0.42935
 C1162 C 0.75186 0.67932 0.40712
 C1163 C 0.75320 0.69111 0.38076
 C1164 C 0.75399 0.70086 0.35809
 C1165 C 0.24967 0.85748 0.47571
 C1166 C 0.24914 0.84472 0.45456
 C1167 C 0.24802 0.83117 0.42904
 C1168 C 0.24690 0.82050 0.40681
 C1169 C 0.24564 0.80876 0.38041
 C1170 C 0.24486 0.79908 0.35770
 C1171 C 0.75050 0.35755 0.97426
 C1172 C 0.74969 0.34490 0.95306
 C1173 C 0.74831 0.33138 0.92755
 C1174 C 0.74701 0.32068 0.90535
 C1175 C 0.74562 0.30884 0.87902
 C1176 C 0.74479 0.29905 0.85637
 C1177 C 0.85817 0.47602 0.24865
 C1178 C 0.84563 0.45473 0.24794
 C1179 C 0.83226 0.42913 0.24674
 C1180 C 0.82167 0.40685 0.24564
 C1181 C 0.80995 0.38044 0.24449
 C1182 C 0.80024 0.35774 0.24386
 C1183 C 0.35805 0.97441 0.75017
 C1184 C 0.34575 0.95303 0.74884
 C1185 C 0.33258 0.92737 0.74676
 C1186 C 0.32209 0.90509 0.74494
 C1187 C 0.31037 0.87872 0.74317
 C1188 C 0.30053 0.85609 0.74234
 C1189 C 0.14260 0.97606 0.25034
 C1190 C 0.15524 0.95485 0.25083
 C1191 C 0.16873 0.92931 0.25193
 C1192 C 0.17939 0.90707 0.25305
 C1193 C 0.19115 0.88069 0.25429
 C1194 C 0.20084 0.85800 0.25504
 C1195 C 0.64229 0.47527 0.74878
 C1196 C 0.65479 0.45397 0.74946
 C1197 C 0.66808 0.42832 0.75074
 C1198 C 0.67859 0.40602 0.75197
 C1199 C 0.69023 0.37958 0.75330
 C1200 C 0.69990 0.35687 0.75409
 C1201 C 0.64253 0.52480 0.74911
 C1202 C 0.65521 0.54601 0.74880
 C1203 C 0.66868 0.57158 0.74796
 C1204 C 0.67932 0.59384 0.74710
 C1205 C 0.69106 0.62025 0.74615
 C1206 C 0.70079 0.64294 0.74562
 C1207 C 0.14268 0.02553 0.25090
 C1208 C 0.15545 0.04668 0.25049
 C1209 C 0.16914 0.07213 0.24950
 C1210 C 0.18000 0.09428 0.24846
 C1211 C 0.19201 0.12057 0.24727
 C1212 C 0.20190 0.14318 0.24652
 C1213 C 0.35714 0.02388 0.75080
 C1214 C 0.34417 0.04489 0.75143
 C1215 C 0.33038 0.07025 0.75263
 C1216 C 0.31953 0.09239 0.75380
 C1217 C 0.30766 0.11871 0.75504
 C1218 C 0.29795 0.14140 0.75573
 C1219 C 0.85787 0.52551 0.24907
 C1220 C 0.84506 0.54662 0.24989
 C1221 C 0.83133 0.57202 0.25133
 C1222 C 0.82044 0.59414 0.25271
 C1223 C 0.80842 0.62040 0.25423
 C1224 C 0.79851 0.64300 0.25519
 C1225 C 0.97677 0.25021 0.14205
 C1226 C 0.95549 0.25092 0.15459
 C1227 C 0.92990 0.25219 0.16800
 C1228 C 0.90765 0.25339 0.17862
 C1229 C 0.88125 0.25467 0.19037
 C1230 C 0.85855 0.25539 0.20006
 C1231 C 0.47549 0.75009 0.64200
 C1232 C 0.45412 0.75119 0.65438
 C1233 C 0.42846 0.75295 0.66760
 C1234 C 0.40617 0.75451 0.67812
 C1235 C 0.37978 0.75604 0.68985
 C1236 C 0.35714 0.75676 0.69970
 C1237 C 0.47496 0.24821 0.85721
 C1238 C 0.45379 0.24773 0.84450
 C1239 C 0.42826 0.24671 0.83098
 C1240 C 0.40603 0.24570 0.82033
 C1241 C 0.37963 0.24457 0.80860
 C1242 C 0.35693 0.24390 0.79894
 C1243 C 0.97462 0.75141 0.35805
 C1244 C 0.95327 0.75078 0.34564
 C1245 C 0.92762 0.74951 0.33236
 C1246 C 0.90534 0.74825 0.32182
 C1247 C 0.87895 0.74683 0.31011
 C1248 C 0.85628 0.74594 0.30036
 C1249 C 0.02410 0.75116 0.35737
 C1250 C 0.04520 0.75171 0.34453
 C1251 C 0.07067 0.75286 0.33092
 C1252 C 0.09288 0.75399 0.32022
 C1253 C 0.11928 0.75522 0.30850
 C1254 C 0.14200 0.75590 0.29887
 C1255 C 0.52444 0.24802 0.85740
 C1256 C 0.54565 0.24869 0.84473
 C1257 C 0.57114 0.24999 0.83112
 C1258 C 0.59330 0.25128 0.82030
 C1259 C 0.61959 0.25275 0.80833
 C1260 C 0.64221 0.25370 0.79844
 C1261 C 0.52500 0.74969 0.64264
 C1262 C 0.54608 0.74912 0.65552
 C1263 C 0.57149 0.74801 0.66925
 C1264 C 0.59364 0.74695 0.68009
 C1265 C 0.61996 0.74582 0.69200
 C1266 C 0.64261 0.74520 0.70180
 C1267 C 0.02625 0.25034 0.14244
 C1268 C 0.04736 0.24985 0.15525
 C1269 C 0.07279 0.24875 0.16892
 C1270 C 0.09495 0.24764 0.17973
 C1271 C 0.12125 0.24641 0.19164
 C1272 C 0.14388 0.24566 0.20148
 C1273 C -0.10736 1.00076 0.77537
 C1274 C -0.09458 1.00020 0.79650
 C1275 C -0.08083 0.99884 0.82190
 C1276 C -0.06993 0.99742 0.84400
 C1277 C -0.05794 0.99579 0.87027
 C1278 C -0.04816 0.99475 0.89291
 C1279 C 0.39282 0.50105 0.27348
 C1280 C 0.40547 0.50032 0.29468
 C1281 C 0.41895 0.49879 0.32020
 C1282 C 0.42959 0.49726 0.34241
 C1283 C 0.44130 0.49553 0.36879
 C1284 C 0.45095 0.49447 0.39148
 C1285 C 0.60782 0.00112 0.27568
 C1286 C 0.59526 0.00225 0.29693
 C1287 C 0.58178 0.00413 0.32243
 C1288 C 0.57104 0.00578 0.34460
 C1289 C 0.55912 0.00738 0.37090
 C1290 C 0.54922 0.00805 0.39351
 C1291 C 0.10829 0.49966 0.77363
 C1292 C 0.09587 0.50086 0.79497
 C1293 C 0.08262 0.50282 0.82061
 C1294 C 0.07210 0.50457 0.84289
 C1295 C 0.06041 0.50634 0.86929
 C1296 C 0.05066 0.50720 0.89197
 C1297 C 0.10778 0.49898 0.72411
 C1298 C 0.09495 0.49800 0.70301
 C1299 C 0.08127 0.49634 0.67760
 C1300 C 0.07044 0.49486 0.65547
 C1301 C 0.05848 0.49342 0.62918
 C1302 C 0.04860 0.49283 0.60656
 C1303 C 0.60732 1.00080 0.22625
 C1304 C 0.59431 0.99995 0.20526
 C1305 C 0.58033 0.99830 0.18002
 C1306 C 0.56927 0.99668 0.15801
 C1307 C 0.55711 0.99490 0.13184
 C1308 C 0.54722 0.99382 0.10925
 C1309 C 0.39284 0.50099 0.22401
 C1310 C 0.40560 0.50194 0.20287
 C1311 C 0.41929 0.50362 0.17745
 C1312 C 0.43016 0.50514 0.15533
 C1313 C 0.44218 0.50663 0.12907
 C1314 C 0.45209 0.50726 0.10646
 C1315 C -0.10729 0.00008 0.72593
 C1316 C -0.09448 0.00071 0.70480
 C1317 C -0.08075 0.00209 0.67939
 C1318 C -0.06988 0.00349 0.65726
 C1319 C -0.05793 0.00507 0.63097
 C1320 C -0.04817 0.00605 0.60830
 C1321 C -0.22568 0.89240 1.00130
 C1322 C -0.20455 0.90519 1.00068
 C1323 C -0.17914 0.91891 0.99931
 C1324 C -0.15701 0.92978 0.99791
 C1325 C -0.13074 0.94175 0.99634
 C1326 C -0.10810 0.95156 0.99539
 C1327 C 0.27334 0.39256 0.50104
 C1328 C 0.29444 0.40541 0.50023
 C1329 C 0.31985 0.41914 0.49860
 C1330 C 0.34198 0.42997 0.49699
 C1331 C 0.36829 0.44187 0.49521
 C1332 C 0.39096 0.45161 0.49411
 C1333 C 0.27558 0.60743 0.00066
 C1334 C 0.29667 0.59460 0.00172
 C1335 C 0.32206 0.58089 0.00347
 C1336 C 0.34419 0.57005 0.00501
 C1337 C 0.37047 0.55806 0.00648
 C1338 C 0.39309 0.54817 0.00709
 C1339 C -0.22587 0.10754 0.49876
 C1340 C -0.20469 0.09486 0.49957
 C1341 C -0.17921 0.08131 0.50117
 C1342 C -0.15702 0.07061 0.50275
 C1343 C -0.13068 0.05882 0.50451
 C1344 C -0.10801 0.04912 0.50560
 C1345 C 0.72466 0.10751 0.49855
 C1346 C 0.70353 0.09474 0.49750
 C1347 C 0.67814 0.08103 0.49572
 C1348 C 0.65604 0.07013 0.49413
 C1349 C 0.62979 0.05808 0.49259
 C1350 C 0.60719 0.04815 0.49193
 C1351 C 0.22607 0.60790 0.99970
 C1352 C 0.20478 0.59541 0.99832
 C1353 C 0.17921 0.58205 0.99612
 C1354 C 0.15700 0.57142 0.99418
 C1355 C 0.13067 0.55959 0.99225
 C1356 C 0.10804 0.54973 0.99133
 C1357 C 0.22385 0.39214 0.50094
 C1358 C 0.20260 0.40474 0.50187
 C1359 C 0.17710 0.41827 0.50360
 C1360 C 0.15494 0.42906 0.50518
 C1361 C 0.12867 0.44107 0.50676
 C1362 C 0.10609 0.45105 0.50744
 C1363 C 0.72487 0.89239 0.00076
 C1364 C 0.70372 0.90514 0.00135
 C1365 C 0.67827 0.91878 0.00263
 C1366 C 0.65611 0.92956 0.00394
 C1367 C 0.62978 0.94140 0.00542
 C1368 C 0.60709 0.95108 0.00634
 C1369 C 0.00032 0.77451 0.89272
 C1370 C -0.00049 0.79546 0.90580
 C1371 C -0.00200 0.82071 0.91980
 C1372 C -0.00345 0.84273 0.93086
 C1373 C -0.00500 0.86895 0.94298
 C1374 C -0.00589 0.89157 0.95284
 C1375 C 0.50193 0.27423 0.39245
 C1376 C 0.50116 0.29534 0.40528
 C1377 C 0.49951 0.32074 0.41900
 C1378 C 0.49782 0.34287 0.42983
 C1379 C 0.49588 0.36916 0.44172
 C1380 C 0.49460 0.39183 0.45143
 C1381 C 0.00026 0.27617 0.60732
 C1382 C 0.00139 0.29729 0.59454
 C1383 C 0.00329 0.32264 0.58078
 C1384 C 0.00499 0.34469 0.56982
 C1385 C 0.00666 0.37089 0.55769
 C1386 C 0.00742 0.39346 0.54771
 C1387 C 0.49898 0.77292 0.10779
 C1388 C 0.49957 0.79414 0.09514
 C1389 C 0.50090 0.81969 0.08167
 C1390 C 0.50225 0.84194 0.07103
 C1391 C 0.50376 0.86833 0.05930
 C1392 C 0.50468 0.89102 0.04962
 C1393 C 0.49906 0.72340 0.10783
 C1394 C 0.49800 0.70222 0.09513
 C1395 C 0.49618 0.67677 0.08151
 C1396 C 0.49453 0.65463 0.07067
 C1397 C 0.49292 0.62837 0.05864
 C1398 C 0.49221 0.60578 0.04866
 C1399 C 0.00013 0.22674 0.60721
 C1400 C -0.00051 0.20561 0.59442
 C1401 C -0.00188 0.18019 0.58073
 C1402 C -0.00324 0.15805 0.56991
 C1403 C -0.00474 0.13173 0.55803
 C1404 C -0.00562 0.10906 0.54830
 C1405 C 0.50185 0.22476 0.39220
 C1406 C 0.50277 0.20355 0.40485
 C1407 C 0.50437 0.17807 0.41842
 C1408 C 0.50580 0.15591 0.42922
 C1409 C 0.50718 0.12962 0.44119
 C1410 C 0.50774 0.10701 0.45110
 C1411 C 0.00089 0.72505 0.89186
 C1412 C 0.00220 0.70375 0.90433
 C1413 C 0.00434 0.67823 0.91777
 C1414 C 0.00623 0.65608 0.92851
 C1415 C 0.00814 0.62980 0.94046
 C1416 C 0.00907 0.60720 0.95037
 C1417 C 0.25115 0.64181 0.97564
 C1418 C 0.25043 0.65459 0.95451
 C1419 C 0.24894 0.66823 0.92907
 C1420 C 0.24745 0.67902 0.90691
 C1421 C 0.24578 0.69089 0.88061
 C1422 C 0.24476 0.70066 0.85795
 C1423 C 0.74903 0.14177 0.47421
 C1424 C 0.74798 0.15457 0.45310
 C1425 C 0.74626 0.16822 0.42768
 C1426 C 0.74474 0.17902 0.40553
 C1427 C 0.74329 0.19095 0.37923
 C1428 C 0.74268 0.20079 0.35660
 C1429 C 0.24952 0.35837 0.47613
 C1430 C 0.25111 0.34570 0.45497
 C1431 C 0.25359 0.33211 0.42955
 C1432 C 0.25579 0.32131 0.40744
 C1433 C 0.25802 0.30934 0.38120
 C1434 C 0.25918 0.29944 0.35860
 C1435 C 0.75034 0.85839 0.97625
 C1436 C 0.75172 0.84574 0.95506
 C1437 C 0.75381 0.83221 0.92960
 C1438 C 0.75560 0.82149 0.90744
 C1439 C 0.75734 0.80963 0.88112
 C1440 C 0.75813 0.79981 0.85848
 C1441 C 0.74882 0.85828 0.02571
 C1442 C 0.74739 0.84551 0.04681
 C1443 C 0.74521 0.83180 0.07217
 C1444 C 0.74332 0.82091 0.09425
 C1445 C 0.74147 0.80886 0.12047
 C1446 C 0.74060 0.79892 0.14305
 C1447 C 0.24831 0.35823 0.52562
 C1448 C 0.24711 0.34547 0.54674
 C1449 C 0.24515 0.33179 0.57215
 C1450 C 0.24343 0.32093 0.59425
 C1451 C 0.24177 0.30890 0.62050
 C1452 C 0.24105 0.29894 0.64308
 C1453 C 0.74981 0.14136 0.52371
 C1454 C 0.75105 0.15386 0.54500
 C1455 C 0.75308 0.16723 0.57056
 C1456 C 0.75489 0.17785 0.59278
 C1457 C 0.75668 0.18967 0.61911
 C1458 C 0.75752 0.19953 0.64174
 C1459 C 0.25119 0.64159 0.02511
 C1460 C 0.25221 0.65426 0.04631
 C1461 C 0.25397 0.66785 0.07177
 C1462 C 0.25556 0.67866 0.09391
 C1463 C 0.25713 0.69065 0.12019
 C1464 C 0.25782 0.70056 0.14280
 C1465 C 0.14221 0.52384 0.74865
 C1466 C 0.15513 0.54488 0.74947
 C1467 C 0.16900 0.57019 0.75107
 C1468 C 0.17999 0.59225 0.75263
 C1469 C 0.19206 0.61846 0.75434
 C1470 C 0.20191 0.64108 0.75537
 C1471 C 0.64188 0.02536 0.25098
 C1472 C 0.65470 0.04646 0.25201
 C1473 C 0.66837 0.07189 0.25381
 C1474 C 0.67919 0.09404 0.25542
 C1475 C 0.69116 0.12033 0.25700
 C1476 C 0.70108 0.14294 0.25766
 C1477 C 0.85845 0.02496 0.74975
 C1478 C 0.84559 0.04602 0.74818
 C1479 C 0.83179 0.07132 0.74579
 C1480 C 0.82081 0.09335 0.74372
 C1481 C 0.80866 0.11952 0.74166
 C1482 C 0.79863 0.14207 0.74065
 C1483 C 0.35858 0.52544 0.24826
 C1484 C 0.34575 0.54652 0.24711
 C1485 C 0.33203 0.57191 0.24529
 C1486 C 0.32117 0.59402 0.24372
 C1487 C 0.30916 0.62028 0.24224
 C1488 C 0.29923 0.64288 0.24167
 C1489 C 0.35902 0.47595 0.24933
 C1490 C 0.34653 0.45466 0.25075
 C1491 C 0.33319 0.42910 0.25303
 C1492 C 0.32260 0.40689 0.25507
 C1493 C 0.31085 0.38054 0.25716
 C1494 C 0.30108 0.35788 0.25826
 C1495 C 0.85875 0.97547 0.75143
 C1496 C 0.84617 0.95425 0.75288
 C1497 C 0.83268 0.92875 0.75506
 C1498 C 0.82194 0.90658 0.75692
 C1499 C 0.81001 0.88029 0.75871
 C1500 C 0.80010 0.85767 0.75948
 C1501 C 0.64133 0.97581 0.25027
 C1502 C 0.65371 0.95445 0.24905
 C1503 C 0.66691 0.92878 0.24710
 C1504 C 0.67739 0.90648 0.24538
 C1505 C 0.68906 0.88006 0.24367
 C1506 C 0.69882 0.85739 0.24285
 C1507 C 0.14195 0.47442 0.74833
 C1508 C 0.15467 0.45327 0.74722
 C1509 C 0.16836 0.42788 0.74539
 C1510 C 0.17925 0.40579 0.74378
 C1511 C 0.19130 0.37956 0.74222
 C1512 C 0.20121 0.35695 0.74156
 C1513 C 0.02491 0.75021 0.85794
 C1514 C 0.04593 0.74951 0.84497
 C1515 C 0.07125 0.74809 0.83108
 C1516 C 0.09332 0.74667 0.82011
 C1517 C 0.11957 0.74508 0.80807
 C1518 C 0.14222 0.74409 0.79826
 C1519 C 0.52620 0.24912 0.35793
 C1520 C 0.54720 0.24790 0.34494
 C1521 C 0.57247 0.24593 0.33100
 C1522 C 0.59448 0.24419 0.31994
 C1523 C 0.62066 0.24248 0.30775
 C1524 C 0.64323 0.24170 0.29773
 C1525 C 0.52420 0.74881 0.14155
 C1526 C 0.54545 0.75025 0.15408
 C1527 C 0.57093 0.75255 0.16757
 C1528 C 0.59305 0.75459 0.17834
 C1529 C 0.61929 0.75664 0.19034
 C1530 C 0.64185 0.75767 0.20033
 C1531 C 0.02446 0.25177 0.64163
 C1532 C 0.04551 0.25279 0.65450
 C1533 C 0.07090 0.25445 0.66823
 C1534 C 0.09303 0.25589 0.67908
 C1535 C 0.11931 0.25725 0.69104
 C1536 C 0.14194 0.25776 0.70091
 C1537 C 0.97494 0.25089 0.64099
 C1538 C 0.95362 0.24955 0.65342
 C1539 C 0.92803 0.24738 0.66673
 C1540 C 0.90579 0.24542 0.67732
 C1541 C 0.87944 0.24342 0.68909
 C1542 C 0.85680 0.24239 0.69891
 C1543 C 0.47473 0.74769 0.14214
 C1544 C 0.45370 0.74654 0.15508
 C1545 C 0.42838 0.74473 0.16892
 C1546 C 0.40630 0.74316 0.17987
 C1547 C 0.38006 0.74168 0.19194
 C1548 C 0.35745 0.74109 0.20186
 C1549 C 0.47671 0.25023 0.35863
 C1550 C 0.45536 0.25163 0.34626
 C1551 C 0.42974 0.25382 0.33303
 C1552 C 0.40748 0.25575 0.32252
 C1553 C 0.38111 0.25765 0.31081
 C1554 C 0.35845 0.25855 0.30102
 C1555 C 0.97545 0.75062 0.85850
 C1556 C 0.95422 0.75195 0.84591
 C1557 C 0.92878 0.75407 0.83234
 C1558 C 0.90666 0.75595 0.82151
 C1559 C 0.88042 0.75782 0.80950
 C1560 C 0.85783 0.75871 0.79958
   
