data_POSCAR
  _audit_creation_date              2014-09-24
  _audit_creation_method            'ToBaCCo'
  _symmetry_space_group_name_H-M    'P1'
  _symmetry_Int_Tables_number       1
  _symmetry_cell_setting            triclinic
  loop_
  _symmetry_equiv_pos_as_xyz
 x,y,z
_cell_length_a 50.5868
_cell_length_b 50.6803
_cell_length_c 50.9779
_cell_angle_alpha 90.010800
_cell_angle_beta 90.021700
_cell_angle_gamma 90.060700
loop_
  _atom_site_label
  _atom_site_type_symbol
  _atom_site_fract_x
  _atom_site_fract_y
  _atom_site_fract_z
O1 O 0.39863 0.36236 -0.02440
 O2 O 0.36220 0.39877 0.02673
 O3 O 0.39853 0.36229 0.02684
 O4 O 0.36221 0.39869 -0.02451
 O5 O 0.33132 0.36779 -0.02445
 O6 O 0.36749 0.33153 0.02668
 O7 O 0.33130 0.36787 0.02658
 O8 O 0.36759 0.33160 -0.02436
 Cu9 Cu 0.38353 0.38365 0.00118
 Cu10 Cu 0.34631 0.34660 0.00111
 C11 C 0.38917 0.34086 -0.03304
 C12 C 0.34060 0.38939 0.03530
 C13 C 0.38906 0.34076 0.03544
 C14 C 0.34064 0.38930 -0.03319
 O15 O 0.64104 0.60373 0.02498
 O16 O 0.60435 0.64045 -0.02571
 O17 O 0.64069 0.60402 -0.02627
 O18 O 0.60477 0.64022 0.02544
 O19 O 0.63587 0.67093 0.02528
 O20 O 0.67163 0.63488 -0.02620
 O21 O 0.63545 0.67116 -0.02566
 O22 O 0.67200 0.63458 0.02484
 Cu23 Cu 0.61958 0.61896 -0.00038
 Cu24 Cu 0.65687 0.65597 -0.00044
 C25 C 0.66268 0.61305 0.03351
 C26 C 0.61376 0.66202 -0.03422
 C27 C 0.66221 0.61344 -0.03500
 C28 C 0.61431 0.66170 0.03407
 O29 O 0.60228 0.36145 1.02513
 O30 O 0.63878 0.39808 0.97424
 O31 O 0.60277 0.36116 0.97393
 O32 O 0.63832 0.39815 1.02542
 O33 O 0.66950 0.36760 1.02570
 O34 O 0.63409 0.33075 0.97443
 O35 O 0.66996 0.36752 0.97472
 O36 O 0.63360 0.33103 1.02542
 Cu37 Cu 0.61736 0.38280 0.99961
 Cu38 Cu 0.65493 0.34615 1.00008
 C39 C 0.61188 0.34009 1.03391
 C40 C 0.66057 0.38894 0.96592
 C41 C 0.61247 0.33968 0.96551
 C42 C 0.65991 0.38903 1.03429
 O43 O 0.36073 0.60268 0.97361
 O44 O 0.39810 0.63836 1.02460
 O45 O 0.36111 0.60255 1.02479
 O46 O 0.39759 0.63872 0.97336
 O47 O 0.36701 0.66986 0.97388
 O48 O 0.33069 0.63385 1.02508
 O49 O 0.36752 0.66952 1.02491
 O50 O 0.33028 0.63397 0.97410
 Cu51 Cu 0.38249 0.61742 0.99904
 Cu52 Cu 0.34582 0.65495 0.99952
 C53 C 0.33919 0.61235 0.96527
 C54 C 0.38902 0.65993 1.03341
 C55 C 0.33973 0.61217 1.03363
 C56 C 0.38837 0.66041 0.96492
 O57 O -0.02551 0.39752 0.35941
 O58 O 0.02617 0.36251 0.39662
 O59 O 0.02615 0.39832 0.35986
 O60 O -0.02534 0.36158 0.39599
 O61 O -0.02444 0.33039 0.36565
 O62 O 0.02681 0.36698 0.32968
 O63 O 0.02687 0.33130 0.36629
 O64 O -0.02463 0.36619 0.32922
 Cu65 Cu 0.00030 0.38318 0.38101
 Cu66 Cu 0.00124 0.34559 0.34465
 C67 C -0.03385 0.38766 0.33808
 C68 C 0.03519 0.34095 0.38771
 C69 C 0.03520 0.38876 0.33868
 C70 C -0.03356 0.33975 0.38687
 O71 O 0.02678 0.63925 0.60372
 O72 O -0.02547 0.60355 0.63956
 O73 O -0.02479 0.64052 0.60406
 O74 O 0.02613 0.60235 0.63942
 O75 O 0.02694 0.63281 0.67048
 O76 O -0.02377 0.67082 0.63526
 O77 O -0.02445 0.63400 0.67063
 O78 O 0.02759 0.66957 0.63492
 Cu79 Cu 0.00059 0.61833 0.61853
 Cu80 Cu 0.00169 0.65485 0.65596
 C81 C 0.03597 0.66046 0.61331
 C82 C -0.03382 0.61285 0.66112
 C83 C -0.03291 0.66210 0.61376
 C84 C 0.03512 0.61120 0.66094
 O85 O 1.02519 0.60032 0.36248
 O86 O 0.97389 0.63568 0.39995
 O87 O 0.97359 0.59979 0.36326
 O88 O 1.02549 0.63613 0.39917
 O89 O 1.02465 0.66735 0.36888
 O90 O 0.97295 0.63114 0.33310
 O91 O 0.97326 0.66689 0.36964
 O92 O 1.02434 0.63169 0.33233
 Cu93 Cu 0.99960 0.61480 0.38428
 Cu94 Cu 0.99871 0.65241 0.34795
 C95 C 1.03345 0.61012 0.34109
 C96 C 0.96493 0.65727 0.39105
 C97 C 0.96451 0.60939 0.34211
 C98 C 1.03386 0.65787 0.39001
 O99 O 0.97363 0.36040 0.60349
 O100 O 1.02598 0.39487 0.64043
 O101 O 1.02522 0.35877 0.60401
 O102 O 0.97445 0.39640 0.64005
 O103 O 0.97333 0.36523 0.67038
 O104 O 1.02389 0.32775 0.63449
 O105 O 1.02465 0.36370 0.67077
 O106 O 0.97251 0.32936 0.63398
 Cu107 Cu 0.99994 0.38076 0.61890
 Cu108 Cu 0.99846 0.34337 0.65545
 C109 C 0.96423 0.33906 0.61258
 C110 C 1.03414 0.38505 0.66184
 C111 C 1.03316 0.33691 0.61325
 C112 C 0.96535 0.38712 0.66133
 O113 O 0.35911 -0.02559 0.39401
 O114 O 0.39581 0.02646 0.35899
 O115 O 0.35910 0.02587 0.39486
 O116 O 0.39567 -0.02505 0.35802
 O117 O 0.36485 -0.02441 0.32724
 O118 O 0.32842 0.02629 0.36393
 O119 O 0.36500 0.02690 0.32820
 O120 O 0.32842 -0.02497 0.36310
 Cu121 Cu 0.38055 0.00037 0.37959
 Cu122 Cu 0.34359 0.00101 0.34250
 C123 C 0.33758 -0.03407 0.38441
 C124 C 0.38652 0.03548 0.33769
 C125 C 0.33757 0.03466 0.38555
 C126 C 0.38634 -0.03336 0.33642
 O127 O 0.60122 0.02714 0.63735
 O128 O 0.63785 -0.02424 0.60130
 O129 O 0.60160 -0.02433 0.63765
 O130 O 0.63758 0.02730 0.60105
 O131 O 0.66854 0.02758 0.63168
 O132 O 0.63272 -0.02382 0.66813
 O133 O 0.66882 -0.02375 0.63193
 O134 O 0.63234 0.02744 0.66783
 Cu135 Cu 0.61643 0.00144 0.61622
 Cu136 Cu 0.65374 0.00191 0.65295
 C137 C 0.61063 0.03593 0.65871
 C138 C 0.65951 -0.03270 0.61062
 C139 C 0.61115 -0.03278 0.65909
 C140 C 0.65914 0.03617 0.61026
 O141 O 0.36202 1.02518 0.60235
 O142 O 0.39794 0.97347 0.63858
 O143 O 0.36241 0.97372 0.60153
 O144 O 0.39740 1.02499 0.63958
 O145 O 0.36561 1.02405 0.66933
 O146 O 0.33076 0.97300 0.63144
 O147 O 0.36614 0.97274 0.66834
 O148 O 0.33037 1.02426 0.63225
 Cu149 Cu 0.38317 0.99943 0.61749
 Cu150 Cu 0.34504 0.99843 0.65335
 C151 C 0.34011 1.03342 0.61123
 C152 C 0.38801 0.96434 0.65955
 C153 C 0.34066 0.96471 0.61013
 C154 C 0.38733 1.03319 0.66087
 O155 O 0.60314 0.97362 0.36158
 O156 O 0.64009 1.02515 0.39715
 O157 O 0.60337 1.02511 0.36128
 O158 O 0.64006 0.97365 0.39733
 O159 O 0.67059 0.97357 0.36628
 O160 O 0.63404 1.02481 0.33038
 O161 O 0.67062 1.02487 0.36611
 O162 O 0.63381 0.97352 0.33067
 Cu163 Cu 0.61856 0.99939 0.38248
 Cu164 Cu 0.65534 0.99916 0.34525
 C165 C 0.61229 0.96489 0.34010
 C166 C 0.66159 1.03373 0.38757
 C167 C 0.61259 1.03366 0.33974
 C168 C 0.66153 0.96494 0.38783
 C169 C 0.81619 0.78111 0.48892
 C170 C 0.81627 0.78183 0.51655
 C171 C 0.79938 0.79918 0.52982
 C172 C 0.78249 0.81585 0.51571
 C173 C 0.78221 0.81492 0.48808
 C174 C 0.79904 0.79753 0.47482
 H175 H 0.79912 0.79708 0.45355
 H176 H 0.79969 0.80001 0.55108
 C177 C 0.18339 0.21806 0.48747
 C178 C 0.18347 0.21757 0.51510
 C179 C 0.20043 0.20034 0.52842
 C180 C 0.21724 0.18357 0.51435
 C181 C 0.21738 0.18430 0.48672
 C182 C 0.20048 0.20157 0.47342
 H183 H 0.20029 0.20186 0.45214
 H184 H 0.20023 0.19966 0.54968
 C185 C 0.18617 0.77964 0.51196
 C186 C 0.18527 0.77948 0.48434
 C187 C 0.20192 0.79625 0.47006
 C188 C 0.21910 0.81349 0.48316
 C189 C 0.21967 0.81397 0.51079
 C190 C 0.20336 0.79687 0.52505
 H191 H 0.20369 0.79730 0.54633
 H192 H 0.20117 0.79623 0.44879
 C193 C 0.81351 0.22086 0.51096
 C194 C 0.81567 0.21903 0.48347
 C195 C 0.79966 0.20124 0.46967
 C196 C 0.78178 0.18504 0.48315
 C197 C 0.77968 0.18684 0.51065
 C198 C 0.79548 0.20483 0.52441
 H199 H 0.79414 0.20596 0.54561
 H200 H 0.80144 0.19966 0.44852
 C201 C 0.48684 0.81410 0.77989
 C202 C 0.51458 0.81612 0.78152
 C203 C 0.52848 0.80031 0.79932
 C204 C 0.51486 0.78274 0.81569
 C205 C 0.48713 0.78073 0.81407
 C206 C 0.47326 0.79637 0.79610
 H207 H 0.45188 0.79510 0.79508
 H208 H 0.54981 0.80199 0.80074
 C209 C 0.48733 0.18736 0.22073
 C210 C 0.51510 0.18571 0.21938
 C211 C 0.52901 0.20189 0.20188
 C212 C 0.51536 0.21943 0.18554
 C213 C 0.48759 0.22105 0.18688
 C214 C 0.47373 0.20509 0.20456
 H215 H 0.45232 0.20604 0.20535
 H216 H 0.55036 0.20046 0.20064
 C217 C 0.51223 0.18433 0.78231
 C218 C 0.48437 0.18453 0.78257
 C219 C 0.47090 0.20151 0.79962
 C220 C 0.48503 0.21827 0.81640
 C221 C 0.51288 0.21834 0.81587
 C222 C 0.52634 0.20138 0.79881
 H223 H 0.54779 0.20113 0.79867
 H224 H 0.44947 0.20138 0.80012
 C225 C 0.51372 0.81495 0.21831
 C226 C 0.48587 0.81467 0.21801
 C227 C 0.47243 0.79758 0.20102
 C228 C 0.48658 0.78083 0.18430
 C229 C 0.51443 0.78086 0.18485
 C230 C 0.52787 0.79790 0.20190
 H231 H 0.54931 0.79824 0.20203
 H232 H 0.45100 0.79767 0.20046
 C233 C 0.78221 0.48770 0.81632
 C234 C 0.78049 0.51539 0.81461
 C235 C 0.79639 0.52907 0.79672
 C236 C 0.81414 0.51534 0.78067
 C237 C 0.81589 0.48765 0.78241
 C238 C 0.79980 0.47395 0.80012
 H239 H 0.80127 0.45265 0.80160
 H240 H 0.79534 0.55042 0.79564
 C241 C 0.22061 0.48861 0.18566
 C242 C 0.21910 0.51634 0.18416
 C243 C 0.20150 0.53004 0.20041
 C244 C 0.18520 0.51624 0.21790
 C245 C 0.18669 0.48852 0.21936
 C246 C 0.20447 0.47486 0.20330
 H247 H 0.20537 0.45349 0.20416
 H248 H 0.20016 0.55136 0.19912
 C249 C 0.77987 0.51326 0.18567
 C250 C 0.77961 0.48546 0.18519
 C251 C 0.79607 0.47129 0.20218
 C252 C 0.81308 0.48467 0.21933
 C253 C 0.81359 0.51247 0.21957
 C254 C 0.79681 0.52663 0.20288
 H255 H 0.79731 0.54803 0.20292
 H256 H 0.79603 0.44990 0.20170
 C257 C 0.21859 0.51184 0.81600
 C258 C 0.21892 0.48405 0.81655
 C259 C 0.20240 0.46977 0.79966
 C260 C 0.18526 0.48303 0.78257
 C261 C 0.18460 0.51082 0.78237
 C262 C 0.20144 0.52509 0.79893
 H263 H 0.20090 0.54649 0.79885
 H264 H 0.20257 0.44837 0.80012
 C265 C 0.26854 0.44978 0.13376
 C266 C 0.29130 0.46275 0.12398
 C267 C 0.30613 0.45115 0.10331
 C268 C 0.29863 0.42622 0.09319
 C269 C 0.27623 0.41297 0.10342
 C270 C 0.26108 0.42484 0.12370
 C271 C 0.23862 0.41135 0.13345
 C272 C 0.23136 0.38679 0.12348
 C273 C 0.24618 0.37515 0.10367
 C274 C 0.26837 0.38799 0.09368
 C275 C 0.32817 0.46498 0.09312
 C276 C 0.33548 0.48948 0.10322
 C277 C 0.32130 0.50058 0.12379
 C278 C 0.29954 0.48738 0.13423
 C279 C 0.31402 0.41397 0.07248
 C280 C 0.32640 0.40313 0.05541
 C281 C 0.25195 0.46276 0.15303
 C282 C 0.23779 0.47409 0.16832
 H283 H 0.22652 0.41956 0.14892
 H284 H 0.21414 0.37673 0.13118
 H285 H 0.24046 0.35606 0.09599
 H286 H 0.27923 0.37814 0.07825
 H287 H 0.33989 0.45706 0.07721
 H288 H 0.35230 0.49987 0.09510
 H289 H 0.32708 0.51959 0.13162
 H290 H 0.28910 0.49681 0.15019
 C291 C 0.73387 0.55260 0.13249
 C292 C 0.74230 0.57684 0.12155
 C293 C 0.72747 0.58867 0.10102
 C294 C 0.70441 0.57606 0.09142
 C295 C 0.69601 0.55178 0.10233
 C296 C 0.71052 0.54025 0.12325
 C297 C 0.70137 0.51631 0.13432
 C298 C 0.67903 0.50366 0.12442
 C299 C 0.66515 0.51466 0.10359
 C300 C 0.67335 0.53853 0.09271
 C301 C 0.73628 0.61295 0.09042
 C302 C 0.75910 0.62516 0.09981
 C303 C 0.77361 0.61355 0.11987
 C304 C 0.76541 0.58967 0.13069
 C305 C 0.68921 0.58838 0.07064
 C306 C 0.67689 0.59926 0.05356
 C307 C 0.74997 0.53961 0.15214
 C308 C 0.76358 0.52813 0.16780
 H309 H 0.71154 0.50697 0.15051
 H310 H 0.67255 0.48515 0.13286
 H311 H 0.64786 0.50471 0.09590
 H312 H 0.66183 0.54641 0.07663
 H313 H 0.72570 0.62275 0.07476
 H314 H 0.76555 0.64372 0.09147
 H315 H 0.79132 0.62311 0.12711
 H316 H 0.77731 0.58145 0.14632
 C317 C 0.73660 0.45019 0.87117
 C318 C 0.72366 0.42606 0.86564
 C319 C 0.70705 0.41432 0.88484
 C320 C 0.70336 0.42689 0.90938
 C321 C 0.71585 0.45132 0.91469
 C322 C 0.73285 0.46281 0.89568
 C323 C 0.74562 0.48695 0.90166
 C324 C 0.74109 0.49976 0.92542
 C325 C 0.72413 0.48872 0.94385
 C326 C 0.71172 0.46470 0.93872
 C327 C 0.69442 0.39010 0.87893
 C328 C 0.69807 0.37786 0.85472
 C329 C 0.71430 0.38937 0.83593
 C330 C 0.72700 0.41319 0.84122
 C331 C 0.68758 0.41413 0.92947
 C332 C 0.67496 0.40295 0.94615
 C333 C 0.75312 0.46249 0.85140
 C334 C 0.76654 0.47342 0.83519
 H335 H 0.75892 0.49637 0.88793
 H336 H 0.75070 0.51841 0.92949
 H337 H 0.72061 0.49878 0.96225
 H338 H 0.69875 0.45685 0.95368
 H339 H 0.68154 0.38041 0.89287
 H340 H 0.68823 0.35936 0.85051
 H341 H 0.71707 0.37979 0.81715
 H342 H 0.73948 0.42136 0.82600
 C343 C 0.26573 0.55163 0.86796
 C344 C 0.25768 0.57604 0.87879
 C345 C 0.27303 0.58806 0.89885
 C346 C 0.29622 0.57547 0.90809
 C347 C 0.30425 0.55104 0.89727
 C348 C 0.28921 0.53932 0.87681
 C349 C 0.29799 0.51522 0.86581
 C350 C 0.32048 0.50261 0.87535
 C351 C 0.33488 0.51381 0.89575
 C352 C 0.32705 0.53783 0.90654
 C353 C 0.26460 0.61250 0.90936
 C354 C 0.24165 0.62469 0.90032
 C355 C 0.22663 0.61289 0.88073
 C356 C 0.23445 0.58884 0.87001
 C357 C 0.31188 0.58789 0.92851
 C358 C 0.32456 0.59875 0.94536
 C359 C 0.24913 0.53847 0.84880
 C360 C 0.23518 0.52685 0.83351
 H361 H 0.28742 0.50574 0.84994
 H362 H 0.32667 0.48399 0.86697
 H363 H 0.35228 0.50388 0.90317
 H364 H 0.33897 0.54585 0.92227
 H365 H 0.27559 0.62244 0.92467
 H366 H 0.23550 0.64337 0.90859
 H367 H 0.20882 0.62243 0.87377
 H368 H 0.22216 0.58048 0.85474
 C369 C 0.12994 0.26584 0.45040
 C370 C 0.13633 0.27962 0.42711
 C371 C 0.11725 0.29631 0.41519
 C372 C 0.09197 0.29924 0.42674
 C373 C 0.08586 0.28607 0.45046
 C374 C 0.10475 0.26898 0.46211
 C375 C 0.09792 0.25545 0.48545
 C376 C 0.07347 0.25936 0.49739
 C377 C 0.05516 0.27642 0.48622
 C378 C 0.06111 0.28955 0.46293
 C379 C 0.12400 0.30974 0.39178
 C380 C 0.14892 0.30679 0.38051
 C381 C 0.16759 0.29048 0.39220
 C382 C 0.16148 0.27699 0.41524
 C383 C 0.07189 0.31476 0.41354
 C384 C 0.05514 0.32705 0.40203
 C385 C 0.14938 0.24881 0.46264
 C386 C 0.16518 0.23477 0.47344
 H387 H 0.11152 0.24203 0.49492
 H388 H 0.06876 0.24916 0.51545
 H389 H 0.03620 0.27944 0.49559
 H390 H 0.04620 0.30257 0.45494
 H391 H 0.11018 0.32271 0.38200
 H392 H 0.15377 0.31723 0.36262
 H393 H 0.18692 0.28825 0.38338
 H394 H 0.17664 0.26451 0.42359
 C395 C 0.13448 0.73235 0.55205
 C396 C 0.12417 0.74028 0.57661
 C397 C 0.10402 0.72508 0.58880
 C398 C 0.09415 0.70217 0.57623
 C399 C 0.10453 0.69419 0.55170
 C400 C 0.12509 0.70908 0.53980
 C401 C 0.13565 0.70037 0.51559
 C402 C 0.12558 0.67808 0.50307
 C403 C 0.10508 0.66383 0.51445
 C404 C 0.09471 0.67161 0.53857
 C405 C 0.09403 0.73339 0.61339
 C406 C 0.10366 0.75608 0.62555
 C407 C 0.12335 0.77096 0.61359
 C408 C 0.13356 0.76325 0.58940
 C409 C 0.07344 0.68683 0.58870
 C410 C 0.05629 0.67452 0.59962
 C411 C 0.15359 0.74892 0.53870
 C412 C 0.16879 0.76291 0.52699
 H413 H 0.15157 0.71083 0.50597
 H414 H 0.13362 0.67193 0.48437
 H415 H 0.09725 0.64659 0.50459
 H416 H 0.07889 0.65981 0.54674
 H417 H 0.07868 0.72251 0.62347
 H418 H 0.09580 0.76214 0.64436
 H419 H 0.13077 0.78856 0.62312
 H420 H 0.14892 0.77542 0.58091
 C421 C 0.86969 0.73289 0.45244
 C422 C 0.89491 0.73016 0.46422
 C423 C 0.91392 0.71293 0.45297
 C424 C 0.90789 0.69917 0.42955
 C425 C 0.88256 0.70163 0.41796
 C426 C 0.86337 0.71848 0.42950
 C427 C 0.83819 0.72061 0.41759
 C428 C 0.83213 0.70648 0.39491
 C429 C 0.85090 0.69001 0.38360
 C430 C 0.87586 0.68755 0.39490
 C431 C 0.93869 0.70990 0.46553
 C432 C 0.94455 0.72357 0.48853
 C433 C 0.92613 0.74076 0.49931
 C434 C 0.90165 0.74425 0.48727
 C435 C 0.92811 0.68356 0.41665
 C436 C 0.94494 0.67122 0.40531
 C437 C 0.85015 0.75008 0.46432
 C438 C 0.83434 0.76426 0.47495
 H439 H 0.82295 0.73319 0.42565
 H440 H 0.81276 0.70833 0.38606
 H441 H 0.84609 0.67907 0.36599
 H442 H 0.88976 0.67442 0.38544
 H443 H 0.95368 0.69679 0.45783
 H444 H 0.96352 0.72088 0.49798
 H445 H 0.93077 0.75138 0.51716
 H446 H 0.88798 0.75780 0.49643
 C447 C 0.86478 0.26900 0.55065
 C448 C 0.87400 0.26170 0.57582
 C449 C 0.89429 0.27666 0.58810
 C450 C 0.90536 0.29871 0.57502
 C451 C 0.89596 0.30616 0.54994
 C452 C 0.87528 0.29151 0.53791
 C453 C 0.86575 0.29967 0.51310
 C454 C 0.87690 0.32119 0.50016
 C455 C 0.89749 0.33519 0.51170
 C456 C 0.90689 0.32794 0.53637
 C457 C 0.90320 0.26896 0.61329
 C458 C 0.89239 0.24710 0.62596
 C459 C 0.87258 0.23245 0.61391
 C460 C 0.86341 0.23957 0.58913
 C461 C 0.92635 0.31365 0.58754
 C462 C 0.94372 0.32555 0.59859
 C463 C 0.84571 0.25244 0.53722
 C464 C 0.83061 0.23821 0.52563
 H465 H 0.84982 0.28934 0.50332
 H466 H 0.86962 0.32692 0.48102
 H467 H 0.90616 0.35182 0.50152
 H468 H 0.92283 0.33953 0.54463
 H469 H 0.91860 0.27969 0.62348
 H470 H 0.89945 0.24150 0.64521
 H471 H 0.86423 0.21549 0.62382
 H472 H 0.84789 0.22762 0.58060
 C473 C 0.44776 0.13533 0.26794
 C474 C 0.42273 0.12548 0.26034
 C475 C 0.41063 0.10499 0.27509
 C476 C 0.42375 0.09435 0.29724
 C477 C 0.44873 0.10431 0.30492
 C478 C 0.46057 0.12519 0.29049
 C479 C 0.48526 0.13528 0.29889
 C480 C 0.49829 0.12450 0.32045
 C481 C 0.48696 0.10371 0.33424
 C482 C 0.46239 0.09376 0.32676
 C483 C 0.38557 0.09545 0.26709
 C484 C 0.37287 0.10584 0.24515
 C485 C 0.38473 0.12586 0.23071
 C486 C 0.40938 0.13564 0.23812
 C487 C 0.41134 0.07331 0.31211
 C488 C 0.40038 0.05595 0.32405
 C489 C 0.46104 0.15469 0.25167
 C490 C 0.47259 0.17001 0.23771
 H491 H 0.49487 0.15139 0.28873
 H492 H 0.51735 0.13220 0.32636
 H493 H 0.49722 0.09532 0.35090
 H494 H 0.45429 0.07768 0.33818
 H495 H 0.37553 0.07986 0.27766
 H496 H 0.35371 0.09830 0.23932
 H497 H 0.37479 0.13388 0.21369
 H498 H 0.41777 0.15130 0.22632
 C499 C 0.54930 0.13065 0.73489
 C500 C 0.57284 0.13678 0.72120
 C501 C 0.58452 0.11768 0.70441
 C502 C 0.57247 0.09264 0.70129
 C503 C 0.54854 0.08677 0.71443
 C504 C 0.53714 0.10567 0.73162
 C505 C 0.51357 0.09908 0.74509
 C506 C 0.50116 0.07487 0.74105
 C507 C 0.51207 0.05656 0.72389
 C508 C 0.53558 0.06227 0.71081
 C509 C 0.60818 0.12419 0.69106
 C510 C 0.61992 0.14888 0.69417
 C511 C 0.60847 0.16757 0.71056
 C512 C 0.58520 0.16169 0.72398
 C513 C 0.58535 0.07257 0.68551
 C514 C 0.59659 0.05584 0.67297
 C515 C 0.53718 0.15018 0.75185
 C516 C 0.52638 0.16606 0.76579
 H517 H 0.50429 0.11268 0.75859
 H518 H 0.48291 0.07034 0.75120
 H519 H 0.50232 0.03780 0.72076
 H520 H 0.54336 0.04737 0.69772
 H521 H 0.61779 0.11035 0.67802
 H522 H 0.63799 0.15355 0.68378
 H523 H 0.61766 0.18672 0.71291
 H524 H 0.57705 0.17685 0.73654
 C525 C 0.44767 0.86513 0.73139
 C526 C 0.42260 0.87518 0.73852
 C527 C 0.41081 0.89550 0.72333
 C528 C 0.42427 0.90578 0.70121
 C529 C 0.44927 0.89559 0.69397
 C530 C 0.46079 0.87487 0.70885
 C531 C 0.48551 0.86455 0.70089
 C532 C 0.49885 0.87495 0.67934
 C533 C 0.48783 0.89558 0.66511
 C534 C 0.46325 0.90576 0.67215
 C535 C 0.38570 0.90525 0.73086
 C536 C 0.37267 0.89522 0.75277
 C537 C 0.38424 0.87537 0.76765
 C538 C 0.40892 0.86540 0.76071
 C539 C 0.41221 0.92670 0.68592
 C540 C 0.40154 0.94397 0.67363
 C541 C 0.46070 0.84607 0.74817
 C542 C 0.47213 0.83104 0.76251
 H543 H 0.49489 0.84854 0.71139
 H544 H 0.51793 0.86707 0.67377
 H545 H 0.49834 0.90369 0.64846
 H546 H 0.45540 0.92171 0.66040
 H547 H 0.37589 0.92071 0.71994
 H548 H 0.35349 0.90291 0.75824
 H549 H 0.37403 0.86763 0.78466
 H550 H 0.41707 0.84988 0.77283
 C551 C 0.55073 0.86917 0.26522
 C552 C 0.53861 0.89419 0.26812
 C553 C 0.55004 0.91334 0.28505
 C554 C 0.57396 0.90765 0.29830
 C555 C 0.58595 0.88257 0.29556
 C556 C 0.57424 0.86323 0.27904
 C557 C 0.58655 0.83828 0.27663
 C558 C 0.60979 0.83260 0.29016
 C559 C 0.62127 0.85152 0.30630
 C560 C 0.60958 0.87625 0.30904
 C561 C 0.53713 0.93789 0.28830
 C562 C 0.51365 0.94341 0.27510
 C563 C 0.50270 0.92486 0.25820
 C564 C 0.51507 0.90059 0.25452
 C565 C 0.58687 0.92795 0.31377
 C566 C 0.59817 0.94484 0.32609
 C567 C 0.53862 0.84943 0.24848
 C568 C 0.52784 0.83339 0.23470
 H569 H 0.57837 0.82294 0.26427
 H570 H 0.61895 0.81341 0.28810
 H571 H 0.63933 0.84701 0.31678
 H572 H 0.61921 0.89028 0.32190
 H573 H 0.54494 0.95297 0.30119
 H574 H 0.50394 0.96222 0.27795
 H575 H 0.48448 0.92924 0.24795
 H576 H 0.50576 0.88679 0.24121
 C577 C 0.44863 0.26533 0.87076
 C578 C 0.46122 0.26816 0.89543
 C579 C 0.45026 0.28521 0.91468
 C580 C 0.42632 0.29866 0.90946
 C581 C 0.41387 0.29604 0.88471
 C582 C 0.42512 0.27939 0.86526
 C583 C 0.41237 0.27712 0.84064
 C584 C 0.38916 0.29093 0.83538
 C585 C 0.37814 0.30721 0.85440
 C586 C 0.39026 0.30979 0.87882
 C587 C 0.46365 0.28840 0.93886
 C588 C 0.48718 0.27506 0.94391
 C589 C 0.49768 0.25804 0.92526
 C590 C 0.48483 0.25440 0.90136
 C591 C 0.41387 0.31424 0.92989
 C592 C 0.40293 0.32666 0.94687
 C593 C 0.46034 0.24850 0.85089
 C594 C 0.47094 0.23466 0.83482
 H595 H 0.42018 0.26467 0.82524
 H596 H 0.37967 0.28898 0.81644
 H597 H 0.36011 0.31791 0.85021
 H598 H 0.38098 0.32276 0.89294
 H599 H 0.45621 0.30139 0.95400
 H600 H 0.49727 0.27788 0.96243
 H601 H 0.51594 0.24768 0.92928
 H602 H 0.49381 0.24100 0.88747
 C603 C 0.55269 0.73781 0.87081
 C604 C 0.53990 0.73394 0.89522
 C605 C 0.55137 0.71703 0.91430
 C606 C 0.57596 0.70477 0.90916
 C607 C 0.58872 0.70863 0.88474
 C608 C 0.57700 0.72514 0.86547
 C609 C 0.59005 0.72863 0.84116
 C610 C 0.61405 0.71618 0.83605
 C611 C 0.62555 0.70005 0.85491
 C612 C 0.61313 0.69625 0.87901
 C613 C 0.53780 0.71274 0.93820
 C614 C 0.51362 0.72492 0.94316
 C615 C 0.50261 0.74182 0.92469
 C616 C 0.51560 0.74649 0.90104
 C617 C 0.58866 0.68904 0.92931
 C618 C 0.59979 0.67643 0.94601
 C619 C 0.54034 0.75413 0.85093
 C620 C 0.52933 0.76735 0.83464
 H621 H 0.58191 0.74104 0.82589
 H622 H 0.62378 0.71907 0.81736
 H623 H 0.64419 0.69041 0.85085
 H624 H 0.62282 0.68346 0.89301
 H625 H 0.54562 0.69981 0.95320
 H626 H 0.50341 0.72128 0.96147
 H627 H 0.48384 0.75126 0.92862
 H628 H 0.50620 0.75973 0.88726
 C629 C 0.44993 0.73400 0.12987
 C630 C 0.42635 0.72004 0.13539
 C631 C 0.41483 0.70364 0.11587
 C632 C 0.42709 0.70119 0.09101
 C633 C 0.45111 0.71451 0.08577
 C634 C 0.46235 0.73131 0.10511
 C635 C 0.48603 0.74499 0.09916
 C636 C 0.49869 0.74149 0.07515
 C637 C 0.48792 0.72470 0.05641
 C638 C 0.46431 0.71146 0.06148
 C639 C 0.39114 0.68998 0.12177
 C640 C 0.37921 0.69242 0.14628
 C641 C 0.39049 0.70845 0.16538
 C642 C 0.41379 0.72216 0.16010
 C643 C 0.41433 0.68594 0.07051
 C644 C 0.40312 0.67380 0.05350
 C645 C 0.46182 0.75068 0.14976
 C646 C 0.47250 0.76445 0.16585
 H647 H 0.49522 0.75820 0.11312
 H648 H 0.51701 0.75177 0.07112
 H649 H 0.49785 0.72199 0.03780
 H650 H 0.45665 0.69866 0.04627
 H651 H 0.38166 0.67720 0.10759
 H652 H 0.36112 0.68180 0.15048
 H653 H 0.38115 0.71029 0.18439
 H654 H 0.42181 0.73441 0.17557
 C655 C 0.55247 0.26488 0.13035
 C656 C 0.53965 0.26784 0.10581
 C657 C 0.55067 0.28472 0.08645
 C658 C 0.57484 0.29789 0.09144
 C659 C 0.58754 0.29509 0.11604
 C660 C 0.57627 0.27858 0.13559
 C661 C 0.58926 0.27613 0.16007
 C662 C 0.61274 0.28964 0.16508
 C663 C 0.62378 0.30578 0.14596
 C664 C 0.61143 0.30854 0.12167
 C665 C 0.53707 0.28809 0.06241
 C666 C 0.51328 0.27506 0.05761
 C667 C 0.50271 0.25821 0.07639
 C668 C 0.51575 0.25441 0.10016
 C669 C 0.58723 0.31343 0.07095
 C670 C 0.59813 0.32586 0.05397
 C671 C 0.54059 0.24844 0.15043
 C672 C 0.52978 0.23506 0.16674
 H673 H 0.58144 0.26377 0.17554
 H674 H 0.62241 0.28755 0.18391
 H675 H 0.64202 0.31625 0.14995
 H676 H 0.62074 0.32139 0.10746
 H677 H 0.54455 0.30096 0.04719
 H678 H 0.50303 0.27800 0.03920
 H679 H 0.48423 0.24810 0.07258
 H680 H 0.50670 0.24117 0.11417
 C681 C 0.26437 0.12918 0.55084
 C682 C 0.27799 0.13493 0.57440
 C683 C 0.29470 0.11561 0.58590
 C684 C 0.29781 0.09072 0.57365
 C685 C 0.28475 0.08523 0.54970
 C686 C 0.26764 0.10436 0.53847
 C687 C 0.25423 0.09816 0.51487
 C688 C 0.25828 0.07409 0.50229
 C689 C 0.27536 0.05556 0.51305
 C690 C 0.28836 0.06089 0.53657
 C691 C 0.30798 0.12173 0.60959
 C692 C 0.30488 0.14627 0.62153
 C693 C 0.28856 0.16518 0.61025
 C694 C 0.27521 0.15968 0.58696
 C695 C 0.31348 0.07042 0.58631
 C696 C 0.32594 0.05352 0.59738
 C697 C 0.24750 0.14894 0.53892
 C698 C 0.23364 0.16502 0.52829
 H699 H 0.24080 0.11195 0.50569
 H700 H 0.24818 0.06986 0.48404
 H701 H 0.27849 0.03691 0.50317
 H702 H 0.30140 0.04583 0.54423
 H703 H 0.32096 0.10771 0.61906
 H704 H 0.31521 0.15064 0.63961
 H705 H 0.28621 0.18421 0.61960
 H706 H 0.26270 0.17501 0.57896
 C707 C 0.73648 0.12942 0.44609
 C708 C 0.72328 0.13461 0.42217
 C709 C 0.70676 0.11500 0.41081
 C710 C 0.70344 0.09038 0.42355
 C711 C 0.71615 0.08543 0.44779
 C712 C 0.73304 0.10485 0.45890
 C713 C 0.74598 0.09923 0.48289
 C714 C 0.74173 0.07543 0.49591
 C715 C 0.72488 0.05660 0.48523
 C716 C 0.71231 0.06137 0.46137
 C717 C 0.69382 0.12059 0.38682
 C718 C 0.69709 0.14489 0.37443
 C719 C 0.71324 0.16407 0.38555
 C720 C 0.72624 0.15910 0.40914
 C721 C 0.68778 0.06986 0.41118
 C722 C 0.67523 0.05282 0.40035
 C723 C 0.75290 0.14958 0.45804
 C724 C 0.76623 0.16601 0.46884
 H725 H 0.75920 0.11329 0.49204
 H726 H 0.75147 0.07165 0.51444
 H727 H 0.72158 0.03817 0.49545
 H728 H 0.69943 0.04610 0.45380
 H729 H 0.68099 0.10634 0.37744
 H730 H 0.68701 0.14885 0.35611
 H731 H 0.71572 0.18291 0.37585
 H732 H 0.73863 0.17461 0.41702
 C733 C 0.73546 0.87072 0.55170
 C734 C 0.72158 0.86526 0.57518
 C735 C 0.70487 0.88479 0.58634
 C736 C 0.70202 0.90959 0.57385
 C737 C 0.71533 0.91477 0.54998
 C738 C 0.73244 0.89544 0.53909
 C739 C 0.74606 0.90134 0.51554
 C740 C 0.74223 0.92529 0.50269
 C741 C 0.72516 0.94401 0.51312
 C742 C 0.71194 0.93899 0.53658
 C743 C 0.69129 0.87894 0.60991
 C744 C 0.69411 0.85449 0.62208
 C745 C 0.71044 0.83539 0.61114
 C746 C 0.72407 0.84061 0.58796
 C747 C 0.68633 0.93009 0.58617
 C748 C 0.67381 0.94713 0.59699
 C749 C 0.75231 0.85074 0.54007
 C750 C 0.76614 0.83452 0.52959
 H751 H 0.75949 0.88738 0.50661
 H752 H 0.75249 0.92928 0.48448
 H753 H 0.72219 0.96257 0.50302
 H754 H 0.69891 0.95419 0.54397
 H755 H 0.67829 0.89313 0.61913
 H756 H 0.68354 0.85033 0.64008
 H757 H 0.71257 0.81642 0.62067
 H758 H 0.73658 0.82514 0.58022
 C759 C 0.26556 0.86638 0.44372
 C760 C 0.25723 0.87753 0.41966
 C761 C 0.27231 0.89802 0.40790
 C762 C 0.29551 0.90737 0.42041
 C763 C 0.30385 0.89620 0.44447
 C764 C 0.28908 0.87531 0.45592
 C765 C 0.29815 0.86399 0.47966
 C766 C 0.32068 0.87361 0.49217
 C767 C 0.33482 0.89440 0.48124
 C768 C 0.32669 0.90553 0.45757
 C769 C 0.26359 0.90885 0.38380
 C770 C 0.24063 0.89971 0.37171
 C771 C 0.22587 0.87969 0.38325
 C772 C 0.23398 0.86865 0.40695
 C773 C 0.31084 0.92828 0.40830
 C774 C 0.32326 0.94554 0.39770
 C775 C 0.24919 0.84685 0.45669
 C776 C 0.23544 0.83129 0.46820
 H777 H 0.28778 0.84781 0.48893
 H778 H 0.32709 0.86497 0.51052
 H779 H 0.35225 0.90187 0.49108
 H780 H 0.33842 0.92157 0.44974
 H781 H 0.27437 0.92448 0.37407
 H782 H 0.23426 0.90822 0.35329
 H783 H 0.20806 0.87265 0.37377
 H784 H 0.22189 0.85306 0.41512
 C785 C 0.13323 0.44366 0.73510
 C786 C 0.12198 0.41932 0.74285
 C787 C 0.10168 0.40766 0.72745
 C788 C 0.09262 0.42055 0.70449
 C789 C 0.10394 0.44487 0.69669
 C790 C 0.12464 0.45623 0.71180
 C791 C 0.13610 0.48023 0.70329
 C792 C 0.12680 0.49310 0.68098
 C793 C 0.10619 0.48226 0.66650
 C794 C 0.09492 0.45834 0.67408
 C795 C 0.09074 0.38328 0.73559
 C796 C 0.09958 0.37081 0.75832
 C797 C 0.11941 0.38225 0.77340
 C798 C 0.13055 0.40623 0.76586
 C799 C 0.07180 0.40861 0.68890
 C800 C 0.05456 0.39817 0.67631
 C801 C 0.15247 0.45657 0.75185
 C802 C 0.16778 0.46806 0.76590
 H803 H 0.15215 0.48945 0.71393
 H804 H 0.13554 0.51165 0.67498
 H805 H 0.09895 0.49238 0.64924
 H806 H 0.07903 0.45060 0.66212
 H807 H 0.07524 0.37360 0.72454
 H808 H 0.09099 0.35217 0.76425
 H809 H 0.12622 0.37249 0.79103
 H810 H 0.14599 0.41431 0.77818
 C811 C 0.12990 0.55260 0.26401
 C812 C 0.13526 0.57618 0.27790
 C813 C 0.11574 0.58709 0.29474
 C814 C 0.09103 0.57424 0.29769
 C815 C 0.08592 0.55031 0.28429
 C816 C 0.10525 0.53966 0.26709
 C817 C 0.09946 0.51599 0.25348
 C818 C 0.07560 0.50281 0.25736
 C819 C 0.05686 0.51302 0.27450
 C820 C 0.06179 0.53658 0.28774
 C821 C 0.12151 0.61075 0.30836
 C822 C 0.14588 0.62324 0.30546
 C823 C 0.16498 0.61256 0.28900
 C824 C 0.15983 0.58930 0.27532
 C825 C 0.07057 0.58623 0.31367
 C826 C 0.05357 0.59679 0.32646
 C827 C 0.14999 0.54103 0.24730
 C828 C 0.16634 0.53045 0.23372
 H829 H 0.11343 0.50721 0.24001
 H830 H 0.07169 0.48451 0.24710
 H831 H 0.03838 0.50268 0.27751
 H832 H 0.04659 0.54379 0.30083
 H833 H 0.10733 0.61978 0.32147
 H834 H 0.14998 0.64130 0.31607
 H835 H 0.18388 0.62234 0.28680
 H836 H 0.17528 0.58176 0.26270
 C837 C 0.86593 0.44571 0.26611
 C838 C 0.87472 0.45827 0.28936
 C839 C 0.89578 0.44713 0.30408
 C840 C 0.90728 0.42302 0.29598
 C841 C 0.89805 0.41014 0.27307
 C842 C 0.87738 0.42159 0.25804
 C843 C 0.86864 0.40851 0.23507
 C844 C 0.87997 0.38474 0.22721
 C845 C 0.90016 0.37350 0.24194
 C846 C 0.90917 0.38597 0.26461
 C847 C 0.90498 0.46061 0.32663
 C848 C 0.89353 0.48432 0.33453
 C849 C 0.87255 0.49492 0.32045
 C850 C 0.86307 0.48204 0.29819
 C851 C 0.92835 0.41121 0.31129
 C852 C 0.94571 0.40081 0.32371
 C853 C 0.84633 0.45845 0.24970
 C854 C 0.83077 0.46982 0.23585
 H855 H 0.85291 0.41643 0.22303
 H856 H 0.87302 0.37498 0.20962
 H857 H 0.90890 0.35503 0.23575
 H858 H 0.92496 0.37646 0.27537
 H859 H 0.92116 0.45304 0.33831
 H860 H 0.90090 0.49445 0.35174
 H861 H 0.86367 0.51330 0.32669
 H862 H 0.84674 0.49107 0.28786
 C863 C 0.86589 0.55398 0.73239
 C864 C 0.87622 0.57889 0.73962
 C865 C 0.89676 0.59051 0.72453
 C866 C 0.90697 0.57702 0.70240
 C867 C 0.89649 0.55219 0.69505
 C868 C 0.87557 0.54084 0.70984
 C869 C 0.86498 0.51627 0.70180
 C870 C 0.87532 0.50290 0.68024
 C871 C 0.89614 0.51376 0.66609
 C872 C 0.90658 0.53819 0.67323
 C873 C 0.90678 0.61545 0.73216
 C874 C 0.89681 0.62851 0.75408
 C875 C 0.87675 0.61711 0.76887
 C876 C 0.86650 0.59258 0.76182
 C877 C 0.92811 0.58891 0.68722
 C878 C 0.94558 0.59945 0.67504
 C879 C 0.84659 0.54111 0.74908
 C880 C 0.83135 0.52984 0.76335
 H881 H 0.84883 0.50701 0.71224
 H882 H 0.86724 0.48394 0.67460
 H883 H 0.90419 0.50324 0.64943
 H884 H 0.92267 0.54592 0.66154
 H885 H 0.92241 0.62513 0.72132
 H886 H 0.90472 0.64757 0.75963
 H887 H 0.86907 0.62733 0.78588
 H888 H 0.85083 0.58456 0.77387
 C889 C 0.73264 0.55424 0.86663
 C890 C 0.70993 0.54125 0.87651
 C891 C 0.69521 0.55279 0.89730
 C892 C 0.70277 0.57768 0.90747
 C893 C 0.72509 0.59098 0.89710
 C894 C 0.74012 0.57918 0.87670
 C895 C 0.76249 0.59272 0.86683
 C896 C 0.76978 0.61727 0.87680
 C897 C 0.75507 0.62885 0.89672
 C898 C 0.73297 0.61595 0.90684
 C899 C 0.67323 0.53894 0.90756
 C900 C 0.66585 0.51447 0.89742
 C901 C 0.67992 0.50343 0.87674
 C902 C 0.70163 0.51665 0.86623
 C903 C 0.68759 0.58981 0.92842
 C904 C 0.67542 0.60057 0.94571
 C905 C 0.74919 0.54127 0.84730
 C906 C 0.76332 0.52994 0.83198
 H907 H 0.77451 0.58456 0.85126
 H908 H 0.78693 0.62738 0.86900
 H909 H 0.76081 0.64793 0.90440
 H910 H 0.72220 0.62577 0.92235
 H911 H 0.66159 0.54681 0.92355
 H912 H 0.64908 0.50406 0.90559
 H913 H 0.67409 0.48444 0.86889
 H914 H 0.71200 0.50726 0.85020
 C915 C 0.26618 0.44803 0.87119
 C916 C 0.26891 0.46059 0.89588
 C917 C 0.28587 0.44963 0.91524
 C918 C 0.29937 0.42571 0.91013
 C919 C 0.29687 0.41331 0.88535
 C920 C 0.28029 0.42455 0.86579
 C921 C 0.27816 0.41183 0.84117
 C922 C 0.29201 0.38865 0.83599
 C923 C 0.30819 0.37764 0.85510
 C924 C 0.31066 0.38973 0.87954
 C925 C 0.28894 0.46299 0.93944
 C926 C 0.27555 0.48648 0.94441
 C927 C 0.25863 0.49698 0.92565
 C928 C 0.25511 0.48416 0.90172
 C929 C 0.31488 0.41325 0.93067
 C930 C 0.32724 0.40230 0.94772
 C931 C 0.24934 0.45968 0.85123
 C932 C 0.23545 0.47017 0.83508
 H933 H 0.26578 0.41963 0.82569
 H934 H 0.29016 0.37918 0.81704
 H935 H 0.31892 0.35964 0.85098
 H936 H 0.32356 0.38046 0.89373
 H937 H 0.30184 0.45554 0.95466
 H938 H 0.27827 0.49655 0.96295
 H939 H 0.24824 0.51522 0.92960
 H940 H 0.24177 0.49315 0.88775
 C941 C 0.26502 0.55329 0.12903
 C942 C 0.26819 0.54051 0.10450
 C943 C 0.28511 0.55160 0.08517
 C944 C 0.29815 0.57582 0.09015
 C945 C 0.29516 0.58849 0.11474
 C946 C 0.27861 0.57715 0.13426
 C947 C 0.27599 0.59012 0.15870
 C948 C 0.28935 0.61365 0.16374
 C949 C 0.30552 0.62476 0.14466
 C950 C 0.30845 0.61242 0.12040
 C951 C 0.28864 0.53803 0.06116
 C952 C 0.27575 0.51419 0.05635
 C953 C 0.25888 0.50354 0.07508
 C954 C 0.25492 0.51656 0.09883
 C955 C 0.31376 0.58827 0.06968
 C956 C 0.32623 0.59921 0.05268
 C957 C 0.24844 0.54139 0.14906
 C958 C 0.23493 0.53064 0.16535
 H959 H 0.26360 0.58226 0.17415
 H960 H 0.28713 0.62331 0.18255
 H961 H 0.31587 0.64303 0.14867
 H962 H 0.32132 0.62179 0.10623
 H963 H 0.30153 0.54557 0.04597
 H964 H 0.27882 0.50397 0.03796
 H965 H 0.24889 0.48504 0.07126
 H966 H 0.24167 0.50744 0.11280
 C967 C 0.73301 0.44893 0.13028
 C968 C 0.71876 0.42553 0.13576
 C969 C 0.70246 0.41404 0.11610
 C970 C 0.70037 0.42614 0.09114
 C971 C 0.71401 0.44997 0.08592
 C972 C 0.73070 0.46118 0.10540
 C973 C 0.74465 0.48467 0.09947
 C974 C 0.74155 0.49717 0.07533
 C975 C 0.72489 0.48642 0.05645
 C976 C 0.71136 0.46300 0.06151
 C977 C 0.68853 0.39054 0.12199
 C978 C 0.69060 0.37875 0.14660
 C979 C 0.70653 0.39000 0.16581
 C980 C 0.72050 0.41312 0.16056
 C981 C 0.68515 0.41342 0.07053
 C982 C 0.67303 0.40226 0.05343
 C983 C 0.74960 0.46080 0.15033
 C984 C 0.76330 0.47145 0.16655
 H985 H 0.75779 0.49383 0.11353
 H986 H 0.75205 0.51534 0.07130
 H987 H 0.72250 0.49624 0.03774
 H988 H 0.69868 0.45536 0.04619
 H989 H 0.67582 0.38109 0.10772
 H990 H 0.67977 0.36080 0.15078
 H991 H 0.70807 0.38077 0.18490
 H992 H 0.73266 0.42112 0.17613
 C993 C 0.86963 0.73517 0.55535
 C994 C 0.88148 0.74356 0.57908
 C995 C 0.90188 0.72823 0.59069
 C996 C 0.91048 0.70469 0.57837
 C997 C 0.89870 0.69636 0.55457
 C998 C 0.87790 0.71140 0.54327
 C999 C 0.86597 0.70230 0.51983
 C1000 C 0.87491 0.67951 0.50742
 C1001 C 0.89561 0.66510 0.51818
 C1002 C 0.90733 0.67325 0.54157
 C1003 C 0.91338 0.73702 0.61447
 C1004 C 0.90498 0.76028 0.62640
 C1005 C 0.88506 0.77528 0.61502
 C1006 C 0.87337 0.76712 0.59163
 C1007 C 0.93113 0.68893 0.59049
 C1008 C 0.94812 0.67613 0.60113
 C1009 C 0.84998 0.75166 0.54262
 C1010 C 0.83427 0.76546 0.53131
 H1011 H 0.84983 0.71286 0.51070
 H1012 H 0.86582 0.67308 0.48928
 H1013 H 0.90255 0.64746 0.50841
 H1014 H 0.92327 0.66132 0.54927
 H1015 H 0.92897 0.72607 0.62407
 H1016 H 0.91400 0.76671 0.64458
 H1017 H 0.87861 0.79334 0.62437
 H1018 H 0.85789 0.77941 0.58357
 C1019 C 0.87136 0.26468 0.44661
 C1020 C 0.86609 0.27734 0.42243
 C1021 C 0.88558 0.29384 0.41082
 C1022 C 0.91019 0.29771 0.42354
 C1023 C 0.91525 0.28547 0.44799
 C1024 C 0.89594 0.26860 0.45938
 C1025 C 0.90170 0.25613 0.48356
 C1026 C 0.92551 0.26080 0.49650
 C1027 C 0.94422 0.27760 0.48556
 C1028 C 0.93932 0.28973 0.46151
 C1029 C 0.87989 0.30618 0.38655
 C1030 C 0.85564 0.30236 0.37415
 C1031 C 0.83657 0.28626 0.38553
 C1032 C 0.84163 0.27384 0.40939
 C1033 C 0.93058 0.31346 0.41095
 C1034 C 0.94748 0.32607 0.39991
 C1035 C 0.85130 0.24819 0.45874
 C1036 C 0.83484 0.23476 0.46947
 H1037 H 0.88773 0.24296 0.49291
 H1038 H 0.92940 0.25140 0.51518
 H1039 H 0.96267 0.28122 0.49572
 H1040 H 0.95450 0.30260 0.45374
 H1041 H 0.89405 0.31895 0.37696
 H1042 H 0.85161 0.31197 0.35561
 H1043 H 0.81776 0.28336 0.37582
 H1044 H 0.82620 0.26146 0.41745
 C1045 C 0.13036 0.26431 0.55404
 C1046 C 0.12185 0.28799 0.54194
 C1047 C 0.10112 0.30299 0.55340
 C1048 C 0.08967 0.29471 0.57736
 C1049 C 0.09853 0.27129 0.58971
 C1050 C 0.11886 0.25600 0.57795
 C1051 C 0.12724 0.23255 0.59053
 C1052 C 0.11589 0.22446 0.61409
 C1053 C 0.09604 0.23942 0.62563
 C1054 C 0.08738 0.26258 0.61367
 C1055 C 0.09224 0.32600 0.54041
 C1056 C 0.10365 0.33408 0.51685
 C1057 C 0.12428 0.31971 0.50592
 C1058 C 0.13347 0.29701 0.51833
 C1059 C 0.06906 0.31039 0.58961
 C1060 C 0.05210 0.32307 0.60041
 C1061 C 0.14992 0.24785 0.54118
 C1062 C 0.16555 0.23402 0.52982
 H1063 H 0.14269 0.22029 0.58236
 H1064 H 0.12255 0.20649 0.62346
 H1065 H 0.08728 0.23306 0.64393
 H1066 H 0.07184 0.27350 0.62339
 H1067 H 0.07634 0.33790 0.54824
 H1068 H 0.09651 0.35165 0.50709
 H1069 H 0.13313 0.32609 0.48766
 H1070 H 0.14953 0.28647 0.50906
 C1071 C 0.13020 0.73222 0.44857
 C1072 C 0.13561 0.71831 0.42511
 C1073 C 0.11591 0.70179 0.41384
 C1074 C 0.09097 0.69916 0.42621
 C1075 C 0.08584 0.71247 0.45008
 C1076 C 0.10536 0.72937 0.46109
 C1077 C 0.09951 0.74297 0.48464
 C1078 C 0.07541 0.73935 0.49738
 C1079 C 0.05650 0.72252 0.48682
 C1080 C 0.06148 0.70931 0.46336
 C1081 C 0.12172 0.68821 0.39027
 C1082 C 0.14630 0.69082 0.37821
 C1083 C 0.16556 0.70695 0.38925
 C1084 C 0.16039 0.72059 0.41242
 C1085 C 0.07029 0.68367 0.41377
 C1086 C 0.05312 0.67130 0.40288
 C1087 C 0.15030 0.74904 0.46021
 C1088 C 0.16657 0.76293 0.47063
 H1089 H 0.11360 0.75622 0.49367
 H1090 H 0.07146 0.74960 0.51559
 H1091 H 0.03783 0.71973 0.49682
 H1092 H 0.04612 0.69647 0.45587
 H1093 H 0.10741 0.67536 0.38098
 H1094 H 0.15042 0.68025 0.36022
 H1095 H 0.18463 0.70891 0.37981
 H1096 H 0.17598 0.73293 0.42025
 C1097 C 0.55136 0.87116 0.73523
 C1098 C 0.53849 0.89570 0.73156
 C1099 C 0.54966 0.91493 0.71454
 C1100 C 0.57403 0.90981 0.70189
 C1101 C 0.58680 0.88520 0.70540
 C1102 C 0.57538 0.86579 0.72206
 C1103 C 0.58846 0.84132 0.72520
 C1104 C 0.61216 0.83616 0.71224
 C1105 C 0.62333 0.85513 0.69597
 C1106 C 0.61090 0.87941 0.69252
 C1107 C 0.53601 0.93896 0.71054
 C1108 C 0.51203 0.94389 0.72305
 C1109 C 0.50129 0.92527 0.73999
 C1110 C 0.51438 0.90151 0.74441
 C1111 C 0.58652 0.93018 0.68610
 C1112 C 0.59745 0.94711 0.67349
 C1113 C 0.53942 0.85124 0.75194
 C1114 C 0.52871 0.83498 0.76556
 H1115 H 0.58055 0.82596 0.73768
 H1116 H 0.62190 0.81733 0.71486
 H1117 H 0.64173 0.85102 0.68593
 H1118 H 0.62032 0.89349 0.67959
 H1119 H 0.54362 0.95407 0.69758
 H1120 H 0.50176 0.96230 0.71962
 H1121 H 0.48266 0.92919 0.74967
 H1122 H 0.50518 0.88762 0.75770
 C1123 C 0.44667 0.86787 0.26429
 C1124 C 0.45896 0.87666 0.28769
 C1125 C 0.44745 0.89749 0.30244
 C1126 C 0.42324 0.90878 0.29420
 C1127 C 0.41070 0.89963 0.27107
 C1128 C 0.42251 0.87919 0.25602
 C1129 C 0.40973 0.87053 0.23285
 C1130 C 0.38592 0.88171 0.22480
 C1131 C 0.37434 0.90167 0.23953
 C1132 C 0.38649 0.91061 0.26240
 C1133 C 0.46065 0.90665 0.32518
 C1134 C 0.48445 0.89541 0.33322
 C1135 C 0.49542 0.87469 0.31909
 C1136 C 0.48282 0.86523 0.29667
 C1137 C 0.41095 0.92950 0.30963
 C1138 C 0.40010 0.94656 0.32209
 C1139 C 0.45961 0.84825 0.24803
 C1140 C 0.47104 0.83259 0.23434
 H1141 H 0.41792 0.85499 0.22079
 H1142 H 0.37640 0.87483 0.20705
 H1143 H 0.35584 0.91030 0.23319
 H1144 H 0.37673 0.92621 0.27315
 H1145 H 0.45279 0.92264 0.33688
 H1146 H 0.49437 0.90276 0.35056
 H1147 H 0.51388 0.86597 0.32544
 H1148 H 0.49213 0.84910 0.28631
 C1149 C 0.55207 0.13035 0.26509
 C1150 C 0.57604 0.13572 0.27840
 C1151 C 0.58758 0.11614 0.29475
 C1152 C 0.57500 0.09135 0.29781
 C1153 C 0.55068 0.08622 0.28501
 C1154 C 0.53939 0.10562 0.26830
 C1155 C 0.51536 0.09980 0.25527
 C1156 C 0.50246 0.07583 0.25924
 C1157 C 0.51330 0.05702 0.27589
 C1158 C 0.53722 0.06198 0.28856
 C1159 C 0.61162 0.12194 0.30777
 C1160 C 0.62388 0.14639 0.30476
 C1161 C 0.61258 0.16553 0.28879
 C1162 C 0.58894 0.16037 0.27571
 C1163 C 0.58762 0.07083 0.31327
 C1164 C 0.59869 0.05382 0.32562
 C1165 C 0.54004 0.15043 0.24864
 C1166 C 0.52927 0.16678 0.23519
 H1167 H 0.50608 0.11382 0.24219
 H1168 H 0.48388 0.07189 0.24943
 H1169 H 0.50318 0.03845 0.27897
 H1170 H 0.54492 0.04672 0.30128
 H1171 H 0.62113 0.10772 0.32047
 H1172 H 0.64224 0.15050 0.31490
 H1173 H 0.62218 0.18449 0.28652
 H1174 H 0.58093 0.17587 0.26347
 C1175 C 0.44565 0.13173 0.73525
 C1176 C 0.42156 0.11994 0.74312
 C1177 C 0.41009 0.09962 0.72761
 C1178 C 0.42290 0.09105 0.70442
 C1179 C 0.44702 0.10282 0.69657
 C1180 C 0.45819 0.12354 0.71178
 C1181 C 0.48197 0.13546 0.70318
 C1182 C 0.49483 0.12658 0.68069
 C1183 C 0.48420 0.10596 0.66612
 C1184 C 0.46048 0.09425 0.67378
 C1185 C 0.38595 0.08817 0.73589
 C1186 C 0.37354 0.09653 0.75883
 C1187 C 0.38479 0.11636 0.77400
 C1188 C 0.40853 0.12801 0.76634
 C1189 C 0.41100 0.07038 0.68856
 C1190 C 0.40054 0.05333 0.67570
 C1191 C 0.45831 0.15120 0.75198
 C1192 C 0.46959 0.16674 0.76598
 H1193 H 0.49102 0.15154 0.71389
 H1194 H 0.51323 0.13566 0.67464
 H1195 H 0.49433 0.09906 0.64873
 H1196 H 0.45290 0.07837 0.66174
 H1197 H 0.37643 0.07264 0.72478
 H1198 H 0.35509 0.08755 0.76486
 H1199 H 0.37507 0.12279 0.79180
 H1200 H 0.41647 0.14343 0.77875
 C1201 C 0.55388 0.73386 0.13252
 C1202 C 0.57838 0.74188 0.12176
 C1203 C 0.59031 0.72672 0.10152
 C1204 C 0.57754 0.70373 0.09201
 C1205 C 0.55303 0.69570 0.10280
 C1206 C 0.54140 0.71055 0.12343
 C1207 C 0.51723 0.70177 0.13435
 C1208 C 0.50445 0.67947 0.12459
 C1209 C 0.51555 0.66526 0.10405
 C1210 C 0.53965 0.67309 0.09331
 C1211 C 0.61485 0.73514 0.09109
 C1212 C 0.62721 0.75789 0.10037
 C1213 C 0.61551 0.77273 0.12013
 C1214 C 0.59138 0.76491 0.13077
 C1215 C 0.58985 0.68831 0.07134
 C1216 C 0.60067 0.67590 0.05427
 C1217 C 0.54081 0.75032 0.15185
 C1218 C 0.52930 0.76422 0.16725
 H1219 H 0.50780 0.71221 0.15033
 H1220 H 0.48576 0.67328 0.13292
 H1221 H 0.50550 0.64801 0.09646
 H1222 H 0.54760 0.66133 0.07746
 H1223 H 0.62472 0.72430 0.07567
 H1224 H 0.64596 0.76404 0.09216
 H1225 H 0.62520 0.79038 0.12727
 H1226 H 0.58311 0.77705 0.14618
 C1227 C 0.44908 0.26872 0.13436
 C1228 C 0.42417 0.26126 0.12409
 C1229 C 0.41241 0.27637 0.10371
 C1230 C 0.42572 0.29876 0.09356
 C1231 C 0.45064 0.30622 0.10384
 C1232 C 0.46213 0.29143 0.12461
 C1233 C 0.48674 0.29965 0.13500
 C1234 C 0.50004 0.32136 0.12462
 C1235 C 0.48906 0.33549 0.10396
 C1236 C 0.46457 0.32820 0.09372
 C1237 C 0.38746 0.26851 0.09380
 C1238 C 0.37454 0.24636 0.10371
 C1239 C 0.38607 0.23157 0.12360
 C1240 C 0.41060 0.23884 0.13375
 C1241 C 0.41354 0.31416 0.07277
 C1242 C 0.40276 0.32655 0.05564
 C1243 C 0.46193 0.25221 0.15383
 C1244 C 0.47316 0.23813 0.16930
 H1245 H 0.49610 0.28923 0.15102
 H1246 H 0.51905 0.32712 0.13255
 H1247 H 0.49953 0.35227 0.09589
 H1248 H 0.45674 0.33989 0.07775
 H1249 H 0.37769 0.27933 0.07830
 H1250 H 0.35548 0.24063 0.09589
 H1251 H 0.37595 0.21438 0.13124
 H1252 H 0.41872 0.22676 0.14928
 C1253 C 0.55224 0.26595 0.86788
 C1254 C 0.57679 0.25820 0.87872
 C1255 C 0.58870 0.27367 0.89877
 C1256 C 0.57588 0.29671 0.90802
 C1257 C 0.55132 0.30446 0.89717
 C1258 C 0.53970 0.28930 0.87672
 C1259 C 0.51548 0.29781 0.86571
 C1260 C 0.50264 0.32016 0.87523
 C1261 C 0.51373 0.33467 0.89559
 C1262 C 0.53787 0.32710 0.90640
 C1263 C 0.61329 0.26552 0.90926
 C1264 C 0.62572 0.24273 0.90024
 C1265 C 0.61404 0.22759 0.88068
 C1266 C 0.58985 0.23514 0.86997
 C1267 C 0.58816 0.31245 0.92851
 C1268 C 0.59893 0.32514 0.94544
 C1269 C 0.53921 0.24921 0.84870
 C1270 C 0.52773 0.23513 0.83340
 H1271 H 0.50607 0.28715 0.84987
 H1272 H 0.48392 0.32615 0.86684
 H1273 H 0.50362 0.35195 0.90299
 H1274 H 0.54580 0.33910 0.92211
 H1275 H 0.62316 0.27661 0.92454
 H1276 H 0.64451 0.23679 0.90850
 H1277 H 0.62377 0.20991 0.87373
 H1278 H 0.58159 0.22276 0.85472
 C1279 C 0.44859 0.73269 0.86627
 C1280 C 0.46169 0.71004 0.87605
 C1281 C 0.45013 0.69512 0.89670
 C1282 C 0.42513 0.70241 0.90685
 C1283 C 0.41177 0.72472 0.89664
 C1284 C 0.42359 0.73995 0.87637
 C1285 C 0.40996 0.76230 0.86666
 C1286 C 0.38534 0.76938 0.87665
 C1287 C 0.37376 0.75447 0.89643
 C1288 C 0.38672 0.73239 0.90639
 C1289 C 0.46409 0.67319 0.90686
 C1290 C 0.48867 0.66608 0.89675
 C1291 C 0.49972 0.68035 0.87621
 C1292 C 0.48640 0.70200 0.86580
 C1293 C 0.41294 0.68696 0.92760
 C1294 C 0.40212 0.67456 0.94472
 C1295 C 0.46149 0.74933 0.84693
 C1296 C 0.47272 0.76352 0.83155
 H1297 H 0.41813 0.77446 0.85120
 H1298 H 0.37518 0.78651 0.86897
 H1299 H 0.35462 0.76005 0.90413
 H1300 H 0.37690 0.72147 0.92181
 H1301 H 0.45621 0.66141 0.92274
 H1302 H 0.49915 0.64935 0.90485
 H1303 H 0.51880 0.67472 0.86840
 H1304 H 0.49582 0.71253 0.84988
 C1305 C 0.73469 0.86699 0.44862
 C1306 C 0.71136 0.87613 0.46099
 C1307 C 0.69630 0.89666 0.44926
 C1308 C 0.70415 0.90728 0.42478
 C1309 C 0.72717 0.89772 0.41214
 C1310 C 0.74253 0.87760 0.42415
 C1311 C 0.76558 0.86854 0.41126
 C1312 C 0.77322 0.87902 0.38716
 C1313 C 0.75818 0.89866 0.37538
 C1314 C 0.73541 0.90798 0.38764
 C1315 C 0.67367 0.90620 0.46252
 C1316 C 0.66601 0.89561 0.48659
 C1317 C 0.68042 0.87518 0.49778
 C1318 C 0.70276 0.86536 0.48513
 C1319 C 0.68852 0.92785 0.41240
 C1320 C 0.67594 0.94484 0.40152
 C1321 C 0.75135 0.84776 0.46173
 C1322 C 0.76540 0.83244 0.47324
 H1323 H 0.77788 0.85323 0.41961
 H1324 H 0.79089 0.87184 0.37756
 H1325 H 0.76419 0.90674 0.35665
 H1326 H 0.72441 0.92331 0.37770
 H1327 H 0.66175 0.92197 0.45450
 H1328 H 0.64874 0.90324 0.49654
 H1329 H 0.67437 0.86697 0.51645
 H1330 H 0.71335 0.84948 0.49463
 C1331 C 0.26676 0.86861 0.54743
 C1332 C 0.26977 0.89365 0.53544
 C1333 C 0.28652 0.91292 0.54706
 C1334 C 0.29950 0.90735 0.57104
 C1335 C 0.29669 0.88222 0.58288
 C1336 C 0.28034 0.86276 0.57099
 C1337 C 0.27787 0.83779 0.58317
 C1338 C 0.29116 0.83219 0.60646
 C1339 C 0.30712 0.85121 0.61811
 C1340 C 0.30992 0.87597 0.60655
 C1341 C 0.28985 0.93750 0.53431
 C1342 C 0.27693 0.94293 0.51077
 C1343 C 0.26021 0.92426 0.49962
 C1344 C 0.25644 0.89995 0.51183
 C1345 C 0.31476 0.92777 0.58415
 C1346 C 0.32688 0.94469 0.59567
 C1347 C 0.25002 0.84878 0.53526
 C1348 C 0.23619 0.83263 0.52459
 H1349 H 0.26565 0.82236 0.57486
 H1350 H 0.28905 0.81298 0.61551
 H1351 H 0.31740 0.84676 0.63620
 H1352 H 0.32262 0.89008 0.61632
 H1353 H 0.30259 0.95268 0.54228
 H1354 H 0.27983 0.96177 0.50118
 H1355 H 0.25018 0.92857 0.48136
 H1356 H 0.24329 0.88606 0.50237
 C1357 C 0.26465 0.13211 0.44720
 C1358 C 0.28809 0.12302 0.45941
 C1359 C 0.30310 0.10254 0.44756
 C1360 C 0.29507 0.09191 0.42314
 C1361 C 0.27192 0.10140 0.41068
 C1362 C 0.25661 0.12148 0.42280
 C1363 C 0.23342 0.13049 0.41010
 C1364 C 0.22560 0.11998 0.38606
 C1365 C 0.24058 0.10036 0.37417
 C1366 C 0.26348 0.09110 0.38624
 C1367 C 0.32586 0.09306 0.46064
 C1368 C 0.33369 0.10365 0.48466
 C1369 C 0.31932 0.12404 0.49599
 C1370 C 0.29686 0.13380 0.48351
 C1371 C 0.31067 0.07146 0.41058
 C1372 C 0.32322 0.05459 0.39952
 C1373 C 0.24810 0.15136 0.46040
 C1374 C 0.23413 0.16671 0.47193
 H1375 H 0.22117 0.14578 0.41853
 H1376 H 0.20783 0.12711 0.37660
 H1377 H 0.23442 0.09226 0.35549
 H1378 H 0.27443 0.07579 0.37622
 H1379 H 0.33776 0.07731 0.45252
 H1380 H 0.35107 0.09606 0.49448
 H1381 H 0.32551 0.13225 0.51461
 H1382 H 0.28630 0.14965 0.49310
 C1383 C 0.73128 0.13487 0.54931
 C1384 C 0.73838 0.12533 0.57442
 C1385 C 0.72313 0.10509 0.58643
 C1386 C 0.70099 0.09435 0.57315
 C1387 C 0.69384 0.10397 0.54805
 C1388 C 0.70877 0.12460 0.53630
 C1389 C 0.70086 0.13434 0.51150
 C1390 C 0.67933 0.12345 0.49829
 C1391 C 0.66507 0.10292 0.50954
 C1392 C 0.67206 0.09331 0.53421
 C1393 C 0.73063 0.09590 0.61158
 C1394 C 0.75255 0.10638 0.62447
 C1395 C 0.76747 0.12614 0.61271
 C1396 C 0.76056 0.13558 0.58797
 C1397 C 0.68558 0.07357 0.58550
 C1398 C 0.67323 0.05642 0.59642
 C1399 C 0.74799 0.15414 0.53626
 C1400 C 0.76228 0.16944 0.52499
 H1401 H 0.71138 0.15025 0.50193
 H1402 H 0.67381 0.13089 0.47915
 H1403 H 0.64844 0.09444 0.49915
 H1404 H 0.66028 0.07741 0.54224
 H1405 H 0.71968 0.08053 0.62155
 H1406 H 0.75799 0.09911 0.64370
 H1407 H 0.78448 0.13422 0.62280
 H1408 H 0.77273 0.15103 0.57967
 C1409 C 0.86801 0.54900 0.26686
 C1410 C 0.86218 0.57232 0.28099
 C1411 C 0.88166 0.58378 0.29757
 C1412 C 0.90680 0.57176 0.30006
 C1413 C 0.91235 0.54800 0.28654
 C1414 C 0.89306 0.53681 0.26957
 C1415 C 0.89933 0.51340 0.25576
 C1416 C 0.92362 0.50095 0.25925
 C1417 C 0.94231 0.51167 0.27616
 C1418 C 0.93692 0.53501 0.28957
 C1419 C 0.87542 0.60720 0.31138
 C1420 C 0.85063 0.61892 0.30892
 C1421 C 0.83159 0.60769 0.29272
 C1422 C 0.83719 0.58466 0.27886
 C1423 C 0.92726 0.58444 0.31560
 C1424 C 0.94429 0.59553 0.32799
 C1425 C 0.84813 0.53713 0.25000
 C1426 C 0.83205 0.52649 0.23610
 H1427 H 0.88542 0.50425 0.24244
 H1428 H 0.92790 0.48283 0.24884
 H1429 H 0.96114 0.50189 0.27885
 H1430 H 0.95211 0.54264 0.30247
 H1431 H 0.88955 0.61663 0.32429
 H1432 H 0.84618 0.63680 0.31966
 H1433 H 0.81237 0.61687 0.29087
 H1434 H 0.82175 0.57668 0.26647
 C1435 C 0.87061 0.44982 0.73666
 C1436 C 0.89532 0.46234 0.73252
 C1437 C 0.91431 0.45059 0.71565
 C1438 C 0.90882 0.42598 0.70366
 C1439 C 0.88408 0.41353 0.70771
 C1440 C 0.86489 0.42553 0.72419
 C1441 C 0.84028 0.41275 0.72789
 C1442 C 0.83478 0.38877 0.71566
 C1443 C 0.85355 0.37701 0.69957
 C1444 C 0.87795 0.38915 0.69557
 C1445 C 0.93851 0.46388 0.71115
 C1446 C 0.94384 0.48806 0.72306
 C1447 C 0.92544 0.49936 0.73990
 C1448 C 0.90152 0.48664 0.74479
 C1449 C 0.92894 0.41293 0.68803
 C1450 C 0.94561 0.40148 0.67556
 C1451 C 0.85089 0.46231 0.75318
 C1452 C 0.83472 0.47333 0.76663
 H1453 H 0.82506 0.42111 0.74027
 H1454 H 0.81586 0.37926 0.71871
 H1455 H 0.84918 0.35838 0.69011
 H1456 H 0.89186 0.37926 0.68281
 H1457 H 0.95346 0.45583 0.69826
 H1458 H 0.96237 0.49805 0.71926
 H1459 H 0.92967 0.51813 0.74913
 H1460 H 0.88781 0.49626 0.75797
 C1461 C 0.13038 0.54792 0.73531
 C1462 C 0.13631 0.57188 0.72231
 C1463 C 0.11705 0.58392 0.70591
 C1464 C 0.09202 0.57184 0.70246
 C1465 C 0.08637 0.54749 0.71488
 C1466 C 0.10544 0.53571 0.73168
 C1467 C 0.09903 0.51173 0.74443
 C1468 C 0.07485 0.49930 0.74005
 C1469 C 0.05640 0.51059 0.72328
 C1470 C 0.06191 0.53450 0.71092
 C1471 C 0.12338 0.60798 0.69328
 C1472 C 0.14804 0.61977 0.69670
 C1473 C 0.16688 0.60797 0.71270
 C1474 C 0.16118 0.58430 0.72542
 C1475 C 0.07178 0.58507 0.68710
 C1476 C 0.05500 0.59666 0.67487
 C1477 C 0.15003 0.53558 0.75207
 C1478 C 0.16606 0.52477 0.76589
 H1479 H 0.11277 0.50214 0.75760
 H1480 H 0.07048 0.48075 0.74965
 H1481 H 0.03766 0.50083 0.71989
 H1482 H 0.04690 0.54257 0.69810
 H1483 H 0.10942 0.61787 0.68056
 H1484 H 0.15256 0.63816 0.68686
 H1485 H 0.18600 0.61721 0.71529
 H1486 H 0.17647 0.57590 0.73769
 C1487 C 0.13433 0.44951 0.26694
 C1488 C 0.12399 0.42467 0.25943
 C1489 C 0.10360 0.41275 0.27451
 C1490 C 0.09349 0.42583 0.29693
 C1491 C 0.10387 0.45066 0.30447
 C1492 C 0.12466 0.46231 0.28969
 C1493 C 0.13515 0.48683 0.29798
 C1494 C 0.12485 0.49989 0.31974
 C1495 C 0.10416 0.48876 0.33387
 C1496 C 0.09382 0.46435 0.32650
 C1497 C 0.09361 0.38787 0.26659
 C1498 C 0.10347 0.37518 0.24441
 C1499 C 0.12337 0.38687 0.22965
 C1500 C 0.13359 0.41133 0.23697
 C1501 C 0.07265 0.41351 0.31226
 C1502 C 0.05546 0.40261 0.32458
 C1503 C 0.15376 0.46254 0.25045
 C1504 C 0.16918 0.47392 0.23640
 H1505 H 0.15120 0.49630 0.28758
 H1506 H 0.13285 0.51882 0.32556
 H1507 H 0.09614 0.49904 0.35069
 H1508 H 0.07783 0.45639 0.33818
 H1509 H 0.07809 0.37798 0.27740
 H1510 H 0.09559 0.35618 0.23864
 H1511 H 0.13097 0.37693 0.21243
 H1512 H 0.14913 0.41959 0.22491
   
