data_POSCAR
  _audit_creation_date              2014-09-24
  _audit_creation_method            'ToBaCCo'
  _symmetry_space_group_name_H-M    'P1'
  _symmetry_Int_Tables_number       1
  _symmetry_cell_setting            triclinic
  loop_
  _symmetry_equiv_pos_as_xyz
 x,y,z
_cell_length_a 46.9048
_cell_length_b 47.1476
_cell_length_c 43.1284
_cell_angle_alpha 87.575900
_cell_angle_beta 93.540200
_cell_angle_gamma 92.085700
loop_
  _atom_site_label
  _atom_site_type_symbol
  _atom_site_fract_x
  _atom_site_fract_y
  _atom_site_fract_z
C1 C 0.38260 0.03592 0.29489
 C2 C 0.36343 0.05982 0.28223
 C3 C 0.34605 0.05292 0.25715
 C4 C 0.34928 0.02257 0.24664
 C5 C 0.36199 0.01035 0.30081
 C6 C 0.34473 0.00324 0.27563
 C7 C 0.39862 0.02729 0.26674
 C8 C 0.38130 0.02051 0.24152
 H9 H 0.36360 0.08050 0.29231
 H10 H 0.33476 0.01691 0.22635
 H11 H 0.36384 -0.00330 0.32164
 H12 H 0.42150 0.02631 0.26625
 C13 C 0.10100 -0.02752 0.77751
 C14 C 0.11621 -0.05475 0.77082
 C15 C 0.13483 -0.05092 0.74792
 C16 C 0.13655 -0.02053 0.73371
 C17 C 0.12569 -0.00574 0.78463
 C18 C 0.14407 -0.00180 0.76157
 C19 C 0.08792 -0.01808 0.74755
 C20 C 0.10718 -0.01357 0.72317
 H21 H 0.11406 -0.07480 0.78367
 H22 H 0.15296 -0.01791 0.71638
 H23 H 0.12634 0.00795 0.80424
 H24 H 0.06497 -0.01685 0.74381
 C25 C 0.61648 0.48548 0.29050
 C26 C 0.62770 0.45714 0.28223
 C27 C 0.64220 0.45781 0.25591
 C28 C 0.64543 0.48764 0.24062
 C29 C 0.64332 0.50477 0.29288
 C30 C 0.65835 0.50638 0.26681
 C31 C 0.59964 0.49630 0.26087
 C32 C 0.61449 0.49759 0.23449
 H33 H 0.62775 0.43853 0.29756
 H34 H 0.65849 0.48797 0.22008
 H35 H 0.64717 0.51971 0.31123
 H36 H 0.57816 0.50366 0.26171
 C37 C 0.89223 0.54170 0.79127
 C38 C 0.87168 0.56476 0.77977
 C39 C 0.85240 0.55662 0.75686
 C40 C 0.85522 0.52602 0.74710
 C41 C 0.87304 0.51590 0.80009
 C42 C 0.85373 0.50775 0.77720
 C43 C 0.90588 0.53282 0.76162
 C44 C 0.88658 0.52445 0.73854
 H45 H 0.87250 0.58590 0.78880
 H46 H 0.83894 0.51933 0.72884
 H47 H 0.87734 0.50270 0.82094
 H48 H 0.92844 0.53413 0.75809
 C49 C 0.28861 0.39967 0.99068
 C50 C 0.27762 0.38332 1.01948
 C51 C 0.25403 0.36617 1.01327
 C52 C 0.24388 0.36670 0.97883
 C53 C 0.29335 0.37686 0.96771
 C54 C 0.27023 0.35968 0.96153
 C55 C 0.26220 0.41549 0.97722
 C56 C 0.23833 0.39853 0.97155
 H57 H 0.28489 0.38783 1.04308
 H58 H 0.22552 0.35195 0.97316
 H59 H 0.31286 0.37566 0.95566
 H60 H 0.26140 0.43836 0.97795
 C61 C 0.77190 0.07982 0.99101
 C62 C 0.76454 0.09935 0.96225
 C63 C 0.74214 0.11611 0.96559
 C64 C 0.72881 0.11173 0.99686
 C65 C 0.77540 0.09937 1.01851
 C66 C 0.75372 0.11709 1.02132
 C67 C 0.74575 0.06349 0.99669
 C68 C 0.72169 0.08114 0.99926
 H69 H 0.77677 0.10060 0.94169
 H70 H 0.71042 0.12548 0.99867
 H71 H 0.79336 0.09750 1.03532
 H72 H 0.74336 0.04077 0.99440
 C73 C 0.25792 0.57014 0.49641
 C74 C 0.25306 0.59461 0.47199
 C75 C 0.23276 0.61272 0.47901
 C76 C 0.21906 0.60535 0.50975
 C77 C 0.26452 0.58554 0.52670
 C78 C 0.24458 0.60383 0.53392
 C79 C 0.22826 0.55609 0.49958
 C80 C 0.20781 0.57446 0.50618
 H81 H 0.26507 0.59866 0.45162
 H82 H 0.20252 0.62036 0.51516
 H83 H 0.28514 0.58448 0.53944
 H84 H 0.22350 0.53403 0.49468
 C85 C 0.78591 0.89905 0.49283
 C86 C 0.77593 0.88152 0.52110
 C87 C 0.75234 0.86436 0.51503
 C88 C 0.74147 0.86568 0.48062
 C89 C 0.79046 0.87748 0.46861
 C90 C 0.76761 0.86006 0.46211
 C91 C 0.75899 0.91484 0.48074
 C92 C 0.73543 0.89759 0.47457
 H93 H 0.78412 0.88555 0.54460
 H94 H 0.72317 0.85085 0.47492
 H95 H 0.80952 0.87764 0.45558
 H96 H 0.75746 0.93752 0.48275
 C97 C -0.01605 0.29005 0.38924
 C98 C 0.01234 0.29194 0.37314
 C99 C 0.01649 0.26962 0.35468
 C100 C -0.00869 0.24735 0.35418
 C101 C -0.03730 0.28715 0.36343
 C102 C -0.03399 0.26342 0.34470
 C103 C -0.01568 0.26101 0.40678
 C104 C -0.01144 0.23851 0.38883
 H105 H 0.02719 0.30998 0.37514
 H106 H -0.00575 0.22945 0.33895
 H107 H -0.05383 0.30221 0.35771
 H108 H -0.01600 0.25912 0.43186
 C109 C 0.01326 0.77613 0.10939
 C110 C -0.01524 0.77379 0.12487
 C111 C -0.01859 0.75052 0.14434
 C112 C 0.00777 0.73184 0.14761
 C113 C 0.03530 0.77558 0.13708
 C114 C 0.03261 0.75271 0.15716
 C115 C 0.01582 0.74778 0.09429
 C116 C 0.01265 0.72448 0.11376
 H117 H -0.03137 0.78964 0.12109
 H118 H 0.00527 0.71313 0.16384
 H119 H 0.05110 0.79239 0.14154
 H120 H 0.01966 0.74649 0.06989
 C121 C 0.51249 0.27645 0.61018
 C122 C 0.48799 0.27671 0.63179
 C123 C 0.48434 0.25292 0.65048
 C124 C 0.50843 0.23164 0.64810
 C125 C 0.53845 0.27276 0.63291
 C126 C 0.53668 0.24948 0.65267
 C127 C 0.50878 0.24816 0.59386
 C128 C 0.50702 0.22460 0.61329
 H129 H 0.47485 0.29505 0.63244
 H130 H 0.50689 0.21279 0.66427
 H131 H 0.55731 0.28666 0.63314
 H132 H 0.50979 0.24701 0.56893
 C133 C 0.49583 0.79127 0.90698
 C134 C 0.52297 0.79596 0.88881
 C135 C 0.52784 0.77470 0.86926
 C136 C 0.50450 0.75063 0.86964
 C137 C 0.47217 0.78719 0.88108
 C138 C 0.47633 0.76593 0.86169
 C139 C 0.49874 0.76354 0.92243
 C140 C 0.50385 0.74083 0.90248
 H141 H 0.53664 0.81487 0.89080
 H142 H 0.50821 0.73426 0.85293
 H143 H 0.45435 0.80098 0.87681
 H144 H 0.49553 0.76044 0.94697
 C145 C -0.21615 0.63942 0.96476
 C146 C -0.19195 0.62079 0.97741
 C147 C -0.19896 0.60239 1.00092
 C148 C -0.23008 0.60419 1.01018
 C149 C -0.24101 0.61847 0.95633
 C150 C -0.24903 0.60039 0.98006
 C151 C -0.22599 0.65397 0.99348
 C152 C -0.23360 0.63567 1.01718
 H153 H -0.17090 0.62192 0.96828
 H154 H -0.23539 0.58893 1.02930
 H155 H -0.25229 0.61948 0.93370
 H156 H -0.22754 0.67657 0.99504
 C157 C -0.28434 0.34311 0.47711
 C158 C -0.31149 0.35858 0.48336
 C159 C -0.30717 0.37790 0.50597
 C160 C -0.27634 0.37982 0.52025
 C161 C -0.26270 0.36747 0.46954
 C162 C -0.25832 0.38643 0.49225
 C163 C -0.27435 0.33098 0.50718
 C164 C -0.26890 0.35097 0.53109
 H165 H -0.33121 0.35743 0.46905
 H166 H -0.27334 0.39683 0.53710
 H167 H -0.24983 0.36799 0.44949
 H168 H -0.27269 0.30828 0.51104
 C169 C 0.23737 -0.15180 -0.03877
 C170 C 0.20942 -0.13740 -0.03429
 C171 C 0.21034 -0.11932 -0.01050
 C172 C 0.23969 -0.11764 0.00712
 C173 C 0.25948 -0.12731 -0.04187
 C174 C 0.26070 -0.10950 -0.01790
 C175 C 0.24481 -0.16575 -0.00856
 C176 C 0.24605 -0.14701 0.01712
 H177 H 0.19101 -0.14008 -0.05043
 H178 H 0.24116 -0.10183 0.02534
 H179 H 0.27475 -0.12595 -0.05978
 H180 H 0.24630 -0.18840 -0.00503
 C181 C 0.28146 1.12892 0.45004
 C182 C 0.30629 1.11101 0.46278
 C183 C 0.29970 1.09260 0.48648
 C184 C 0.26863 1.09342 0.49545
 C185 C 0.25701 1.10749 0.44165
 C186 C 0.25009 1.08909 0.46534
 C187 C 0.27117 1.14320 0.47873
 C188 C 0.26460 1.12467 0.50250
 H189 H 0.32771 1.11371 0.45476
 H190 H 0.26327 1.07784 0.51440
 H191 H 0.24289 1.11036 0.42097
 H192 H 0.26917 1.16573 0.48070
 C193 C 0.15659 0.53674 0.26487
 C194 C 0.13927 0.52693 0.23551
 C195 C 0.12086 0.50438 0.24070
 C196 C 0.12119 0.49396 0.27485
 C197 C 0.13403 0.54238 0.28752
 C198 C 0.11550 0.52029 0.29326
 C199 C 0.17117 0.50967 0.27782
 C200 C 0.15289 0.48675 0.28221
 H201 H 0.14385 0.53391 0.21212
 H202 H 0.10602 0.47603 0.27944
 H203 H 0.13207 0.56329 0.29642
 H204 H 0.19407 0.50777 0.27755
 C205 C -0.16461 1.01361 0.24004
 C206 C -0.14906 1.00210 0.27033
 C207 C -0.12919 0.98262 0.26567
 C208 C -0.12705 0.97611 0.23125
 C209 C -0.14023 1.02473 0.22038
 C210 C -0.12063 1.00532 0.21491
 C211 C -0.17651 0.98866 0.22485
 C212 C -0.15629 0.96727 0.22060
 H213 H -0.15132 1.00979 0.29322
 H214 H -0.11071 0.96066 0.22762
 H215 H -0.13838 1.04687 0.21297
 H216 H -0.19940 0.98477 0.22248
 C217 C 0.32693 0.51052 -0.22990
 C218 C 0.34672 0.50001 -0.20230
 C219 C 0.36548 0.48049 -0.20998
 C220 C 0.36240 0.47261 -0.24424
 C221 C 0.34718 0.52050 -0.25494
 C222 C 0.36532 0.50083 -0.26306
 C223 C 0.31213 0.48323 -0.24206
 C224 C 0.33065 0.46326 -0.24931
 H225 H 0.34622 0.50702 -0.17881
 H226 H 0.37746 0.45638 -0.25028
 H227 H 0.34702 0.54185 -0.26529
 H228 H 0.28935 0.47886 -0.24127
 C229 C 0.66228 0.04482 -0.23942
 C230 C 0.64454 0.03542 -0.26864
 C231 C 0.62689 0.01236 -0.26368
 C232 C 0.62837 0.00094 -0.23004
 C233 C 0.64053 0.04903 -0.21524
 C234 C 0.62276 0.02625 -0.21020
 C235 C 0.67796 0.01778 -0.22817
 C236 C 0.66028 -0.00556 -0.22368
 H237 H 0.64882 0.04305 -0.29195
 H238 H 0.61317 -0.01718 -0.22637
 H239 H 0.64023 0.06820 -0.20230
 H240 H 0.70089 0.01641 -0.22894
 C241 C 0.05268 0.24357 0.86142
 C242 C 0.05648 0.27216 0.87751
 C243 C 0.03489 0.27746 0.89629
 C244 C 0.01143 0.25380 0.89682
 C245 C 0.04936 0.22185 0.88881
 C246 C 0.02759 0.22695 0.90683
 C247 C 0.02464 0.24446 0.84527
 C248 C 0.00171 0.25059 0.86419
 H249 H 0.07474 0.28654 0.87466
 H250 H -0.00547 0.25728 0.91289
 H251 H 0.06276 0.20397 0.89425
 H252 H 0.02232 0.24413 0.82018
 C253 C 0.51282 0.25027 0.14033
 C254 C 0.51412 0.22607 0.11811
 C255 C 0.49207 0.22439 0.09586
 C256 C 0.46946 0.24714 0.09899
 C257 C 0.50939 0.27672 0.11843
 C258 C 0.48673 0.27540 0.09739
 C259 C 0.48392 0.24574 0.15440
 C260 C 0.46106 0.24408 0.13326
 H261 H 0.53136 0.21138 0.12037
 H262 H 0.45114 0.24619 0.08149
 H263 H 0.52332 0.29542 0.11867
 H264 H 0.48176 0.24603 0.17924
 C265 C 0.01636 0.74100 0.63227
 C266 C 0.01027 0.71897 0.60766
 C267 C -0.01317 0.72348 0.58822
 C268 C -0.03020 0.74927 0.59672
 C269 C 0.01586 0.76954 0.61436
 C270 C -0.00834 0.77452 0.59621
 C271 C -0.01089 0.73989 0.65019
 C272 C -0.03547 0.74410 0.63186
 H273 H 0.02352 0.70077 0.60609
 H274 H -0.04971 0.75267 0.58132
 H275 H 0.03345 0.78502 0.61672
 H276 H -0.01078 0.73689 0.67516
 C277 C 0.53789 0.74057 0.36582
 C278 C 0.54006 0.76835 0.38307
 C279 C 0.51732 0.77315 0.40017
 C280 C 0.49410 0.74926 0.39865
 C281 C 0.53250 0.71745 0.39130
 C282 C 0.50996 0.72204 0.40864
 C283 C 0.50929 0.74168 0.34671
 C284 C 0.48642 0.74661 0.36349
 H285 H 0.55821 0.78311 0.38156
 H286 H 0.47552 0.75279 0.41261
 H287 H 0.54390 0.69792 0.39429
 H288 H 0.50763 0.74035 0.32166
 B289 B 0.00177 0.01630 1.04073
 B290 B -0.02712 0.01305 1.01572
 B291 B -0.00032 0.03705 1.00785
 B292 B 0.03115 0.02269 1.02035
 B293 B 0.02347 -0.01037 1.03522
 B294 B -0.01272 -0.01620 1.03260
 B295 B 0.00498 -0.00868 0.97346
 B296 B 0.03412 -0.00588 0.99861
 B297 B 0.00751 -0.02962 1.00649
 B298 B -0.02389 -0.01550 0.99414
 B299 B -0.01645 0.01772 0.97939
 B300 B 0.01997 0.02350 0.98203
 B301 B 0.48013 0.51377 0.54783
 B302 B 0.46030 0.51255 0.51374
 B303 B 0.48636 0.53812 0.51935
 B304 B 0.51409 0.52333 0.54073
 B305 B 0.50477 0.48847 0.54788
 B306 B 0.47133 0.48232 0.53171
 B307 B 0.50632 0.49734 0.48505
 B308 B 0.52611 0.49804 0.51904
 B309 B 0.49998 0.47265 0.51349
 B310 B 0.47255 0.48731 0.49227
 B311 B 0.48174 0.52220 0.48502
 B312 B 0.51523 0.52859 0.50160
 B313 B 0.53051 0.97305 0.54100
 B314 B 0.54453 0.98361 0.50715
 B315 B 0.51505 0.96225 0.50649
 B316 B 0.49453 0.97120 0.53511
 B317 B 0.51130 0.99952 0.55306
 B318 B 0.54277 1.00699 0.53569
 B319 B 0.49864 1.01586 0.49246
 B320 B 0.48447 1.00452 0.52618
 B321 B 0.51387 1.02665 0.52645
 B322 B 0.53483 1.01746 0.49811
 B323 B 0.51779 0.98970 0.48020
 B324 B 0.48661 0.98183 0.49720
 B325 B 0.03113 0.47371 1.03943
 B326 B 0.04805 0.48505 1.00746
 B327 B 0.01834 0.46421 1.00339
 B328 B -0.00455 0.47272 1.03001
 B329 B 0.01120 0.50012 1.05033
 B330 B 0.04429 0.50750 1.03641
 B331 B 0.00383 0.51846 0.98960
 B332 B -0.01338 0.50654 1.02118
 B333 B 0.01641 0.52788 1.02516
 B334 B 0.03951 0.51924 0.99877
 B335 B 0.02357 0.49231 0.97855
 B336 B -0.00917 0.48454 0.99203
 B337 B -0.02485 0.51800 0.45857
 B338 B -0.00401 0.51877 0.49206
 B339 B -0.03225 0.54033 0.48636
 B340 B -0.05916 0.52210 0.46672
 B341 B -0.04718 0.48921 0.46083
 B342 B -0.01290 0.48759 0.47612
 B343 B -0.04731 0.49544 0.52380
 B344 B -0.06792 0.49384 0.49043
 B345 B -0.03965 0.47272 0.49580
 B346 B -0.01305 0.49095 0.51547
 B347 B -0.02507 0.52395 0.52142
 B348 B -0.05926 0.52548 0.50575
 B349 B 0.49447 0.01439 -0.03081
 B350 B 0.51490 0.01654 0.00260
 B351 B 0.48861 0.03997 -0.00551
 B352 B 0.46079 0.02234 -0.02427
 B353 B 0.47014 -0.01211 -0.02653
 B354 B 0.50379 -0.01524 -0.00969
 B355 B 0.46930 -0.00046 0.03511
 B356 B 0.44938 -0.00309 0.00137
 B357 B 0.47562 -0.02617 0.01001
 B358 B 0.50327 -0.00848 0.02869
 B359 B 0.49409 0.02588 0.03096
 B360 B 0.46036 0.02910 0.01403
 B361 B 0.50326 0.48588 -0.03253
 B362 B 0.48429 0.49631 -0.00330
 B363 B 0.51037 0.47264 0.00370
 B364 B 0.53761 0.48184 -0.01910
 B365 B 0.52782 0.51174 -0.04013
 B366 B 0.49457 0.52025 -0.03054
 B367 B 0.53087 0.52443 0.02135
 B368 B 0.54990 0.51435 -0.00820
 B369 B 0.52349 0.53775 -0.01506
 B370 B 0.49654 0.52841 0.00767
 B371 B 0.50635 0.49859 0.02865
 B372 B 0.53964 0.48994 0.01919
 B373 B -0.00234 0.98530 0.45590
 B374 B -0.01759 0.99235 0.48912
 B375 B 0.00991 0.97015 0.49005
 B376 B 0.03322 0.98267 0.46371
 B377 B 0.01971 1.01325 0.44689
 B378 B -0.01200 1.01875 0.46234
 B379 B 0.03010 1.02138 0.50912
 B380 B 0.04523 1.01505 0.47580
 B381 B 0.01751 1.03681 0.47516
 B382 B -0.00559 1.02413 0.50117
 B383 B 0.00801 0.99402 0.51792
 B384 B 0.03980 0.98827 0.50210
 B385 B 0.75198 0.23096 0.21160
 B386 B 0.75144 0.20640 0.24132
 B387 B 0.77581 0.23375 0.24228
 B388 B 0.76002 0.26311 0.22624
 B389 B 0.72585 0.25370 0.21556
 B390 B 0.72058 0.21817 0.22450
 B391 B 0.73287 0.24512 0.27855
 B392 B 0.73356 0.26987 0.24935
 B393 B 0.70908 0.24255 0.24737
 B394 B 0.72465 0.21329 0.26376
 B395 B 0.75928 0.22299 0.27460
 B396 B 0.76439 0.25817 0.26555
 B397 B 0.72109 0.78131 0.71702
 B398 B 0.73359 0.79747 0.74961
 B399 B 0.71103 0.76911 0.75266
 B400 B 0.71824 0.74597 0.72551
 B401 B 0.74648 0.76026 0.70606
 B402 B 0.75566 0.79262 0.72103
 B403 B 0.76485 0.75173 0.76695
 B404 B 0.75168 0.73547 0.73458
 B405 B 0.77479 0.76387 0.73184
 B406 B 0.76746 0.78719 0.75875
 B407 B 0.73963 0.77274 0.77816
 B408 B 0.73006 0.74064 0.76358
 B409 B 0.26735 0.24009 0.77098
 B410 B 0.26507 0.25637 0.73561
 B411 B 0.28953 0.23124 0.74306
 B412 B 0.27502 0.20545 0.76692
 B413 B 0.24102 0.21504 0.77285
 B414 B 0.23512 0.24657 0.75321
 B415 B 0.24428 0.20798 0.71035
 B416 B 0.24636 0.19129 0.74583
 B417 B 0.22216 0.21672 0.73804
 B418 B 0.23680 0.24240 0.71459
 B419 B 0.27036 0.23263 0.70857
 B420 B 0.27659 0.20093 0.72807
 B421 B 0.24242 0.75307 0.30233
 B422 B 0.24467 0.73496 0.26960
 B423 B 0.22031 0.76057 0.27120
 B424 B 0.23552 0.78732 0.29248
 B425 B 0.26932 0.77776 0.30374
 B426 B 0.27465 0.74516 0.28990
 B427 B 0.26497 0.78217 0.24009
 B428 B 0.26378 0.80024 0.27282
 B429 B 0.28735 0.77447 0.27142
 B430 B 0.27221 0.74810 0.25016
 B431 B 0.23823 0.75768 0.23883
 B432 B 0.23309 0.79025 0.25294
 B433 B 0.27337 0.73074 0.70636
 B434 B 0.26685 0.71055 0.73880
 B435 B 0.28916 0.73979 0.74058
 B436 B 0.27560 0.76529 0.71564
 B437 B 0.24520 0.75155 0.69821
 B438 B 0.24011 0.71752 0.71220
 B439 B 0.23728 0.75251 0.76030
 B440 B 0.24343 0.77284 0.72800
 B441 B 0.22173 0.74357 0.72571
 B442 B 0.23494 0.71838 0.75082
 B443 B 0.26588 0.73221 0.76846
 B444 B 0.27058 0.76611 0.75452
 B445 B 0.21222 0.27644 0.20763
 B446 B 0.22462 0.29150 0.24093
 B447 B 0.20201 0.26301 0.24269
 B448 B 0.20936 0.24081 0.21464
 B449 B 0.23767 0.25575 0.19583
 B450 B 0.24685 0.28762 0.21210
 B451 B 0.25576 0.24537 0.25647
 B452 B 0.24282 0.23006 0.22346
 B453 B 0.26586 0.25861 0.22186
 B454 B 0.25842 0.28097 0.24968
 B455 B 0.23051 0.26585 0.26845
 B456 B 0.22102 0.23428 0.25257
 B457 B 0.77312 0.75324 0.26795
 B458 B 0.76502 0.76701 0.23188
 B459 B 0.78701 0.73948 0.23652
 B460 B 0.77576 0.71747 0.26565
 B461 B 0.74601 0.73164 0.27846
 B462 B 0.73929 0.76258 0.25763
 B463 B 0.73464 0.71921 0.21725
 B464 B 0.74283 0.70524 0.25313
 B465 B 0.72067 0.73270 0.24896
 B466 B 0.73189 0.75486 0.21977
 B467 B 0.76159 0.74067 0.20694
 B468 B 0.76848 0.70985 0.22768
 B469 B 0.74781 0.25750 0.79403
 B470 B 0.75669 0.24019 0.76278
 B471 B 0.73335 0.26677 0.75859
 B472 B 0.74427 0.29224 0.78394
 B473 B 0.77495 0.28081 0.80332
 B474 B 0.78205 0.24837 0.79043
 B475 B 0.78492 0.28710 0.74150
 B476 B 0.77701 0.30423 0.77321
 B477 B 0.79967 0.27721 0.77683
 B478 B 0.78855 0.25221 0.75187
 B479 B 0.75845 0.26377 0.73263
 B480 B 0.75089 0.29627 0.74570
 C481 C 0.43375 1.04997 0.37987
 C482 C 0.44740 1.05043 0.35185
 C483 C 0.43085 1.04836 0.32387
 C484 C 0.40084 1.04406 0.32387
 C485 C 0.38748 1.04626 0.35206
 C486 C 0.40382 1.04883 0.38017
 C487 C 0.45109 1.04841 0.40948
 C488 C 0.43737 1.04605 0.43743
 C489 C 0.45354 1.04008 0.46506
 C490 C 0.48286 1.03455 0.46487
 C491 C 0.49675 1.04040 0.43704
 C492 C 0.48089 1.04684 0.40918
 C493 C 0.39090 1.04849 0.40872
 C494 C 0.40744 1.04725 0.43694
 C495 C 0.47743 1.05122 0.35246
 C496 C 0.49391 1.04927 0.38069
 H497 H 0.36782 1.04799 0.40928
 H498 H 0.39663 1.04572 0.45848
 H499 H 0.48823 1.05191 0.33093
 H500 H 0.51693 1.04841 0.38014
 H501 H 0.44182 1.04921 0.30261
 H502 H 0.36439 1.04426 0.35226
 H503 H 0.44249 1.03797 0.48596
 H504 H 0.51947 1.03724 0.43629
 C505 C -0.05517 0.55584 0.87491
 C506 C -0.04162 0.55220 0.84730
 C507 C -0.05822 0.54994 0.81934
 C508 C -0.08831 0.55055 0.81900
 C509 C -0.10116 0.55677 0.84658
 C510 C -0.08480 0.55891 0.87467
 C511 C -0.03843 0.55366 0.90486
 C512 C -0.05241 0.55460 0.93258
 C513 C -0.03740 0.54779 0.96079
 C514 C -0.00923 0.53825 0.96130
 C515 C 0.00545 0.54121 0.93362
 C516 C -0.00925 0.54810 0.90524
 C517 C -0.09773 0.56198 0.90283
 C518 C -0.08176 0.55989 0.93138
 C519 C -0.01193 0.54886 0.84850
 C520 C 0.00403 0.54687 0.87705
 H521 H -0.12057 0.56467 0.90289
 H522 H -0.09275 0.56090 0.95267
 H523 H -0.00115 0.54641 0.82732
 H524 H 0.02663 0.54285 0.87706
 H525 H -0.04741 0.54615 0.79866
 H526 H -0.12423 0.55776 0.84652
 H527 H -0.04839 0.54861 0.98179
 H528 H 0.02755 0.53528 0.93346
 C529 C 0.04229 -0.02563 0.85094
 C530 C 0.04859 -0.00116 0.83266
 C531 C 0.06671 -0.00287 0.80850
 C532 C 0.07941 -0.02859 0.80263
 C533 C 0.07180 -0.05341 0.82034
 C534 C 0.05325 -0.05194 0.84468
 C535 C 0.02565 -0.02313 0.87849
 C536 C 0.02021 -0.04715 0.89791
 C537 C 0.00786 -0.04361 0.92648
 C538 C 0.00545 -0.01598 0.93719
 C539 C 0.00695 0.00712 0.91520
 C540 C 0.01747 0.00378 0.88623
 C541 C 0.04619 -0.07591 0.86367
 C542 C 0.02974 -0.07361 0.88967
 C543 C 0.03779 0.02499 0.83975
 C544 C 0.02255 0.02746 0.86626
 H545 H 0.05415 -0.09648 0.85894
 H546 H 0.02576 -0.09239 0.90431
 H547 H 0.04229 0.04392 0.82551
 H548 H 0.01590 0.04829 0.87195
 H549 H 0.07194 0.01622 0.79479
 H550 H 0.08047 -0.07366 0.81600
 H551 H 0.00393 -0.06192 0.94184
 H552 H 0.00257 0.02848 0.92142
 C553 C 0.56587 0.48798 0.37094
 C554 C 0.57211 0.51294 0.35336
 C555 C 0.58876 0.51158 0.32773
 C556 C 0.59891 0.48548 0.31910
 C557 C 0.59174 0.46049 0.33681
 C558 C 0.57569 0.46175 0.36298
 C559 C 0.54883 0.48938 0.39829
 C560 C 0.54329 0.46462 0.41657
 C561 C 0.52822 0.46646 0.44352
 C562 C 0.51891 0.49288 0.45214
 C563 C 0.52349 0.51712 0.43233
 C564 C 0.53881 0.51561 0.40590
 C565 C 0.56934 0.43725 0.38139
 C566 C 0.55358 0.43870 0.40789
 C567 C 0.56160 0.53882 0.36176
 C568 C 0.54507 0.54011 0.38756
 H569 H 0.57687 0.41684 0.37545
 H570 H 0.54953 0.41943 0.42173
 H571 H 0.56624 0.55822 0.34835
 H572 H 0.53747 0.56052 0.39347
 H573 H 0.59374 0.53085 0.31421
 H574 H 0.59805 0.43982 0.33080
 H575 H 0.52465 0.44759 0.45797
 H576 H 0.51641 0.53775 0.43813
 C577 C 0.57895 0.52851 0.14511
 C578 C 0.56069 0.52048 0.16873
 C579 C 0.57237 0.51039 0.19764
 C580 C 0.60227 0.50884 0.20358
 C581 C 0.62026 0.51812 0.17973
 C582 C 0.60870 0.52751 0.15035
 C583 C 0.56659 0.53643 0.11375
 C584 C 0.58467 0.54202 0.08932
 C585 C 0.57262 0.54485 0.05869
 C586 C 0.54302 0.54002 0.05240
 C587 C 0.52518 0.53965 0.07774
 C588 C 0.53682 0.53631 0.10831
 C589 C 0.62624 0.53518 0.12580
 C590 C 0.61443 0.54218 0.09577
 C591 C 0.53098 0.52189 0.16271
 C592 C 0.51925 0.52990 0.13306
 H593 H 0.64928 0.53477 0.12954
 H594 H 0.62871 0.54664 0.07722
 H595 H 0.51663 0.51606 0.18085
 H596 H 0.49620 0.52974 0.12913
 H597 H 0.55785 0.50302 0.21500
 H598 H 0.64323 0.51807 0.18364
 H599 H 0.58650 0.54860 0.03993
 H600 H 0.50217 0.53763 0.07370
 C601 C 0.08072 1.01907 0.63289
 C602 C 0.10750 1.00680 0.63789
 C603 C 0.11624 0.99616 0.66768
 C604 C 0.09854 0.99767 0.69295
 C605 C 0.07191 1.01103 0.68729
 C606 C 0.06286 1.02139 0.65740
 C607 C 0.07041 1.02788 0.60099
 C608 C 0.04265 1.03793 0.59547
 C609 C 0.03127 1.04175 0.56462
 C610 C 0.04697 1.03399 0.53952
 C611 C 0.07594 1.02705 0.54586
 C612 C 0.08751 1.02347 0.57631
 C613 C 0.03589 1.03330 0.65134
 C614 C 0.02591 1.04132 0.62091
 C615 C 0.12468 1.00434 0.61266
 C616 C 0.11486 1.01254 0.58239
 H617 H 0.02193 1.03552 0.67013
 H618 H 0.00450 1.04917 0.61714
 H619 H 0.14553 0.99515 0.61619
 H620 H 0.12830 1.00914 0.56342
 H621 H 0.13628 0.98552 0.67021
 H622 H 0.05802 1.01385 0.70590
 H623 H 0.00903 1.04707 0.56054
 H624 H 0.08852 1.01997 0.52778
 C625 C -0.08856 0.50163 0.64900
 C626 C -0.11484 0.51442 0.65181
 C627 C -0.12284 0.52138 0.68117
 C628 C -0.10495 0.51559 0.70784
 C629 C -0.07889 0.50205 0.70476
 C630 C -0.07048 0.49527 0.67525
 C631 C -0.07930 0.49601 0.61779
 C632 C -0.05237 0.48466 0.61448
 C633 C -0.04277 0.48175 0.58433
 C634 C -0.05991 0.49049 0.55780
 C635 C -0.08726 0.50099 0.56232
 C636 C -0.09698 0.50369 0.59178
 C637 C -0.04412 0.48291 0.67129
 C638 C -0.03519 0.47780 0.64146
 C639 C -0.13232 0.52083 0.62508
 C640 C -0.12355 0.51553 0.59554
 H641 H -0.02998 0.47771 0.69138
 H642 H -0.01444 0.46891 0.63950
 H643 H -0.15269 0.53056 0.62698
 H644 H -0.13738 0.52142 0.57541
 H645 H -0.14256 0.53230 0.68298
 H646 H -0.06509 0.49699 0.72516
 H647 H -0.02150 0.47432 0.58165
 H648 H -0.10077 0.50889 0.54286
 C649 C 0.41588 0.00405 0.15487
 C650 C 0.39033 0.01872 0.15539
 C651 C 0.37872 0.02300 0.18380
 C652 C 0.39256 0.01310 0.21170
 C653 C 0.41784 -0.00225 0.21085
 C654 C 0.42968 -0.00673 0.18237
 C655 C 0.42893 0.00091 0.12503
 C656 C 0.45487 -0.01310 0.12414
 C657 C 0.46764 -0.01493 0.09543
 C658 C 0.45467 -0.00237 0.06807
 C659 C 0.42863 0.01165 0.07020
 C660 C 0.41563 0.01298 0.09805
 C661 C 0.45533 -0.02108 0.18076
 C662 C 0.46767 -0.02426 0.15217
 C663 C 0.37730 0.02970 0.12755
 C664 C 0.38980 0.02692 0.09932
 H665 H 0.46619 -0.02960 0.20184
 H666 H 0.48762 -0.03512 0.15210
 H667 H 0.35759 0.04098 0.12766
 H668 H 0.37936 0.03614 0.07834
 H669 H 0.35962 0.03522 0.18421
 H670 H 0.42844 -0.01036 0.23227
 H671 H 0.48781 -0.02528 0.09454
 H672 H 0.41795 0.02183 0.04997
 C673 C 0.36705 0.45053 -0.00081
 C674 C 0.34861 0.45369 -0.02748
 C675 C 0.32278 0.43783 -0.02928
 C676 C 0.31519 0.41887 -0.00467
 C677 C 0.33402 0.41623 0.02204
 C678 C 0.35984 0.43212 0.02414
 C679 C 0.39516 0.46553 0.00028
 C680 C 0.41407 0.46141 0.02640
 C681 C 0.44156 0.47383 0.02629
 C682 C 0.45107 0.48838 -0.00053
 C683 C 0.43098 0.49444 -0.02547
 C684 C 0.40309 0.48271 -0.02535
 C685 C 0.37904 0.42923 0.05032
 C686 C 0.40565 0.44379 0.05152
 C687 C 0.35678 0.47196 -0.05221
 C688 C 0.38355 0.48633 -0.05112
 H689 H 0.37367 0.41519 0.06980
 H690 H 0.42012 0.44049 0.07182
 H691 H 0.34268 0.47462 -0.07292
 H692 H 0.38941 0.49948 -0.07109
 H693 H 0.30891 0.43953 -0.05028
 H694 H 0.32956 0.40108 0.04075
 H695 H 0.45567 0.47123 0.04679
 H696 H 0.43750 0.50648 -0.04595
 C697 C -0.13368 0.94613 0.50155
 C698 C -0.15572 0.95653 0.48117
 C699 C -0.18231 0.94207 0.47970
 C700 C -0.18719 0.91744 0.49863
 C701 C -0.16474 0.90747 0.51909
 C702 C -0.13802 0.92176 0.52071
 C703 C -0.10505 0.95998 0.50139
 C704 C -0.08256 0.94858 0.52038
 C705 C -0.05491 0.96044 0.51827
 C706 C -0.04949 0.98276 0.49644
 C707 C -0.07275 0.99525 0.47928
 C708 C -0.10042 0.98353 0.48114
 C709 C -0.11519 0.91147 0.54014
 C710 C -0.08791 0.92469 0.54001
 C711 C -0.15040 0.98055 0.46172
 C712 C -0.12322 0.99391 0.46181
 H713 H -0.11829 0.89270 0.55508
 H714 H -0.07070 0.91570 0.55476
 H715 H -0.16724 0.98875 0.44587
 H716 H -0.11983 1.01200 0.44596
 H717 H -0.19867 0.94930 0.46269
 H718 H -0.16754 0.88785 0.53272
 H719 H -0.03763 0.95148 0.53279
 H720 H -0.06925 1.01278 0.46276
 C721 C -0.14449 0.04683 1.00207
 C722 C -0.16738 0.02677 1.00073
 C723 C -0.19542 0.03634 0.99489
 C724 C -0.19985 0.06560 0.98873
 C725 C -0.17596 0.08443 0.98624
 C726 C -0.14871 0.07568 0.99503
 C727 C -0.11555 0.03769 1.01137
 C728 C -0.09352 0.05823 1.01556
 C729 C -0.06599 0.04960 1.02337
 C730 C -0.05911 0.02101 1.02220
 C731 C -0.08178 0.00031 1.02025
 C732 C -0.11026 0.00867 1.01534
 C733 C -0.12596 0.09561 0.99875
 C734 C -0.09890 0.08708 1.00975
 C735 C -0.16160 -0.00216 1.00632
 C736 C -0.13341 -0.01111 1.01276
 H737 H -0.12926 0.11803 0.99386
 H738 H -0.08183 0.10306 1.01259
 H739 H -0.17891 -0.01800 1.00523
 H740 H -0.12974 -0.03363 1.01592
 H741 H -0.21332 0.02135 0.99640
 H742 H -0.17909 0.10692 0.98139
 H743 H -0.04992 0.06582 1.02740
 H744 H -0.07727 -0.02209 1.02068
 C745 C 0.33681 0.52875 0.49466
 C746 C 0.31913 0.52233 0.51924
 C747 C 0.29115 0.53196 0.51704
 C748 C 0.28166 0.54975 0.49156
 C749 C 0.29833 0.55245 0.46537
 C750 C 0.32626 0.54273 0.46717
 C751 C 0.36740 0.52266 0.49865
 C752 C 0.38535 0.53057 0.47472
 C753 C 0.41475 0.52694 0.47959
 C754 C 0.42655 0.51642 0.50858
 C755 C 0.40783 0.50646 0.53132
 C756 C 0.37836 0.51027 0.52685
 C757 C 0.34458 0.54884 0.44303
 C758 C 0.37369 0.54287 0.44676
 C759 C 0.33056 0.50868 0.54660
 C760 C 0.35970 0.50271 0.55033
 H761 H 0.33664 0.55942 0.42159
 H762 H 0.38733 0.54880 0.42800
 H763 H 0.31710 0.50359 0.56574
 H764 H 0.36788 0.49302 0.57217
 H765 H 0.27810 0.52885 0.53688
 H766 H 0.29086 0.56386 0.44440
 H767 H 0.42845 0.53327 0.46101
 H768 H 0.41610 0.49605 0.55269
 C769 C 0.11845 0.55202 0.50012
 C770 C 0.13592 0.54341 0.47720
 C771 C 0.16521 0.55056 0.47960
 C772 C 0.17699 0.56648 0.50447
 C773 C 0.15912 0.57550 0.52690
 C774 C 0.12980 0.56804 0.52502
 C775 C 0.08773 0.54394 0.49810
 C776 C 0.07030 0.55199 0.52130
 C777 C 0.04117 0.54382 0.51949
 C778 C 0.02921 0.52841 0.49416
 C779 C 0.04745 0.51988 0.47168
 C780 C 0.07649 0.52795 0.47323
 C781 C 0.11158 0.57606 0.54757
 C782 C 0.08237 0.56810 0.54580
 C783 C 0.12376 0.52783 0.45235
 C784 C 0.09452 0.52025 0.45039
 H785 H 0.12000 0.58845 0.56687
 H786 H 0.06912 0.57461 0.56376
 H787 H 0.13695 0.52135 0.43432
 H788 H 0.08597 0.50823 0.43084
 H789 H 0.17879 0.54413 0.46188
 H790 H 0.16815 0.58785 0.54598
 H791 H 0.02777 0.55000 0.53747
 H792 H 0.03918 0.50687 0.45285
 C793 C 0.63664 0.04989 -0.00256
 C794 C 0.64387 0.07408 -0.02089
 C795 C 0.67207 0.08454 -0.01961
 C796 C 0.69349 0.07021 -0.00150
 C797 C 0.68620 0.04494 0.01540
 C798 C 0.65749 0.03531 0.01588
 C799 C 0.60652 0.04007 -0.00225
 C800 C 0.59859 0.01743 0.01798
 C801 C 0.56941 0.00973 0.01974
 C802 C 0.54845 0.02424 0.00088
 C803 C 0.55756 0.04538 -0.02073
 C804 C 0.58610 0.05409 -0.02165
 C805 C 0.64902 0.01191 0.03491
 C806 C 0.62003 0.00336 0.03627
 C807 C 0.62275 0.08749 -0.04010
 C808 C 0.59434 0.07739 -0.04080
 H809 H 0.66485 0.00052 0.04940
 H810 H 0.61436 -0.01432 0.05181
 H811 H 0.62821 0.10596 -0.05464
 H812 H 0.57857 0.08834 -0.05585
 H813 H 0.67745 0.10320 -0.03391
 H814 H 0.70248 0.03384 0.02958
 H815 H 0.56315 -0.00730 0.03583
 H816 H 0.54221 0.05724 -0.03495
 C817 C 0.65238 0.93244 0.47797
 C818 C 0.67403 0.94899 0.46433
 C819 C 0.70075 0.93701 0.46126
 C820 C 0.70602 0.90892 0.47257
 C821 C 0.68353 0.89256 0.48527
 C822 C 0.65684 0.90414 0.48804
 C823 C 0.62492 0.94531 0.48317
 C824 C 0.60394 0.92883 0.49784
 C825 C 0.57875 0.94128 0.50452
 C826 C 0.57373 0.97028 0.49699
 C827 C 0.59487 0.98649 0.48151
 C828 C 0.62065 0.97404 0.47469
 C829 C 0.63488 0.88820 0.50195
 C830 C 0.60883 0.90034 0.50673
 C831 C 0.66876 0.97744 0.45513
 C832 C 0.64259 0.98975 0.46027
 H833 H 0.63804 0.86632 0.50974
 H834 H 0.59257 0.88747 0.51804
 H835 H 0.68523 0.99050 0.44444
 H836 H 0.63971 1.01186 0.45335
 H837 H 0.71763 0.94983 0.45102
 H838 H 0.68699 0.87128 0.49475
 H839 H 0.56387 0.92844 0.51768
 H840 H 0.59159 1.00871 0.47542
 C841 C 0.15584 0.43422 0.97742
 C842 C 0.15990 0.40555 0.98608
 C843 C 0.18634 0.39378 0.98242
 C844 C 0.20901 0.41026 0.97014
 C845 C 0.20402 0.43875 0.96007
 C846 C 0.17758 0.45095 0.96417
 C847 C 0.12867 0.44718 0.98358
 C848 C 0.12477 0.47619 0.97639
 C849 C 0.09916 0.48858 0.98377
 C850 C 0.07778 0.47205 0.99852
 C851 C 0.08244 0.44284 1.00488
 C852 C 0.10750 0.43042 0.99764
 C853 C 0.17270 0.47975 0.95636
 C854 C 0.14681 0.49215 0.96241
 C855 C 0.13781 0.38937 0.99947
 C856 C 0.11199 0.40159 1.00508
 H857 H 0.18925 0.49298 0.94604
 H858 H 0.14420 0.51450 0.95649
 H859 H 0.14066 0.36718 1.00614
 H860 H 0.09558 0.38848 1.01584
 H861 H 0.18936 0.37216 0.99093
 H862 H 0.22087 0.45172 0.95000
 H863 H 0.09608 0.51094 0.97835
 H864 H 0.06721 0.42970 1.01725
 C865 C -0.02984 0.35954 0.44993
 C866 C -0.05298 0.34755 0.43229
 C867 C -0.04866 0.32435 0.41409
 C868 C -0.02094 0.31424 0.41112
 C869 C 0.00186 0.32581 0.43028
 C870 C -0.00251 0.34848 0.44967
 C871 C -0.03414 0.38499 0.46785
 C872 C -0.01104 0.39747 0.48513
 C873 C -0.01465 0.42346 0.49936
 C874 C -0.04041 0.43830 0.49401
 C875 C -0.06347 0.42435 0.47741
 C876 C -0.06073 0.39766 0.46516
 C877 C 0.01998 0.36093 0.46816
 C878 C 0.01574 0.38483 0.48572
 C879 C -0.07990 0.35966 0.43224
 C880 C -0.08359 0.38458 0.44792
 H881 H 0.04119 0.35252 0.46852
 H882 H 0.03388 0.39416 0.49888
 H883 H -0.09799 0.35054 0.41880
 H884 H -0.10437 0.39404 0.44596
 H885 H -0.06713 0.31461 0.40200
 H886 H 0.02301 0.31741 0.42986
 H887 H 0.00370 0.43364 0.51134
 H888 H -0.08270 0.43518 0.47036
 C889 C 0.48206 -0.14030 -0.03100
 C890 C 0.45887 -0.15200 -0.04876
 C891 C 0.46306 -0.17512 -0.06714
 C892 C 0.49072 -0.18539 -0.07017
 C893 C 0.51355 -0.17412 -0.05087
 C894 C 0.50931 -0.15160 -0.03125
 C895 C 0.47800 -0.11476 -0.01315
 C896 C 0.50119 -0.10256 0.00419
 C897 C 0.49797 -0.07634 0.01798
 C898 C 0.47282 -0.06069 0.01151
 C899 C 0.44932 -0.07461 -0.00435
 C900 C 0.45161 -0.10164 -0.01608
 C901 C 0.53186 -0.13943 -0.01264
 C902 C 0.52781 -0.11554 0.00497
 C903 C 0.43208 -0.13960 -0.04888
 C904 C 0.42863 -0.11455 -0.03331
 H905 H 0.55299 -0.14802 -0.01227
 H906 H 0.54601 -0.10638 0.01818
 H907 H 0.41393 -0.14853 -0.06238
 H908 H 0.40800 -0.10478 -0.03547
 H909 H 0.44450 -0.18459 -0.07924
 H910 H 0.53469 -0.18250 -0.05162
 H911 H 0.51652 -0.06640 0.02985
 H912 H 0.43031 -0.06351 -0.01156
 C913 C 0.01605 -0.14817 1.04931
 C914 C -0.00858 -0.16591 1.04827
 C915 C -0.00863 -0.19142 1.06625
 C916 C 0.01538 -0.19867 1.08613
 C917 C 0.04076 -0.18187 1.08425
 C918 C 0.04095 -0.15625 1.06670
 C919 C 0.01523 -0.11983 1.03358
 C920 C 0.03903 -0.10129 1.03727
 C921 C 0.03681 -0.07315 1.02664
 C922 C 0.01152 -0.06326 1.01090
 C923 C -0.01162 -0.08278 1.00548
 C924 C -0.01007 -0.11099 1.01744
 C925 C 0.06513 -0.13781 1.06767
 C926 C 0.06409 -0.11062 1.05343
 C927 C -0.03310 -0.15702 1.03058
 C928 C -0.03381 -0.13004 1.01536
 H929 H 0.08456 -0.14391 1.08077
 H930 H 0.08276 -0.09647 1.05591
 H931 H -0.05222 -0.17063 1.02935
 H932 H -0.05344 -0.12366 1.00287
 H933 H -0.02782 -0.20495 1.06598
 H934 H 0.06025 -0.18799 1.09705
 H935 H 0.05448 -0.05862 1.03261
 H936 H -0.03146 -0.07560 0.99410
 C937 C 0.50973 0.35313 0.55071
 C938 C 0.48461 0.33699 0.55567
 C939 C 0.48631 0.31119 0.57293
 C940 C 0.51261 0.30221 0.58718
 C941 C 0.53789 0.31781 0.57998
 C942 C 0.53650 0.34334 0.56185
 C943 C 0.50779 0.38147 0.53488
 C944 C 0.53278 0.39797 0.53046
 C945 C 0.53054 0.42611 0.51864
 C946 C 0.50364 0.43856 0.51365
 C947 C 0.47894 0.42045 0.51496
 C948 C 0.48088 0.39211 0.52593
 C949 C 0.56122 0.35987 0.55552
 C950 C 0.55939 0.38657 0.53980
 C951 C 0.45813 0.34762 0.54455
 C952 C 0.45628 0.37481 0.53013
 H953 H 0.58211 0.35243 0.56346
 H954 H 0.57892 0.39885 0.53606
 H955 H 0.43858 0.33528 0.54809
 H956 H 0.43534 0.38267 0.52307
 H957 H 0.46683 0.29880 0.57678
 H958 H 0.55859 0.31059 0.58866
 H959 H 0.54977 0.43828 0.51457
 H960 H 0.45791 0.42888 0.50990
 C961 C 0.50939 1.14112 0.57671
 C962 C 0.49458 1.16247 0.55956
 C963 C 0.49307 1.18939 0.57208
 C964 C 0.50653 1.19524 0.60146
 C965 C 0.52091 1.17333 0.61854
 C966 C 0.52242 1.14625 0.60625
 C967 C 0.51148 1.11290 0.56337
 C968 C 0.52616 1.09152 0.58055
 C969 C 0.52761 1.06460 0.56804
 C970 C 0.51455 1.05874 0.53840
 C971 C 0.50063 1.08096 0.52121
 C972 C 0.49872 1.10787 0.53373
 C973 C 0.53704 1.12427 0.62269
 C974 C 0.53881 1.09738 0.61012
 C975 C 0.48186 1.15656 0.53004
 C976 C 0.48394 1.12977 0.51734
 H977 H 0.54723 1.12786 0.64549
 H978 H 0.55021 1.08105 0.62367
 H979 H 0.47032 1.17282 0.51654
 H980 H 0.47383 1.12619 0.49450
 H981 H 0.48155 1.20582 0.55883
 H982 H 0.53173 1.17754 0.64087
 H983 H 0.53848 1.04805 0.58183
 H984 H 0.49052 1.07745 0.49856
 C985 C 0.01283 0.64117 1.07735
 C986 C 0.02365 0.64525 1.10802
 C987 C 0.02295 0.67237 1.12032
 C988 C 0.01170 0.69526 1.10201
 C989 C 0.00014 0.69039 1.07161
 C990 C 0.00090 0.66356 1.05909
 C991 C 0.01424 0.61301 1.06394
 C992 C 0.00389 0.60914 1.03312
 C993 C 0.00557 0.58245 1.02034
 C994 C 0.01674 0.55930 1.03829
 C995 C 0.02726 0.56383 1.06925
 C996 C 0.02612 0.59057 1.08210
 C997 C -0.00965 0.65878 1.02848
 C998 C -0.00809 0.63207 1.01568
 C999 C 0.03535 0.62219 1.12552
 C1000 C 0.03649 0.59531 1.11282
 H1001 H -0.01896 0.67593 1.01419
 H1002 H -0.01632 0.62933 0.99192
 H1003 H 0.04379 0.62495 1.14920
 H1004 H 0.04569 0.57811 1.12712
 H1005 H 0.03185 0.67580 1.14367
 H1006 H -0.00940 0.70755 1.05753
 H1007 H -0.00209 0.58005 0.99658
 H1008 H 0.03607 0.54648 1.08363
 C1009 C 0.51837 0.65631 -0.06289
 C1010 C 0.52048 0.67857 -0.04233
 C1011 C 0.51590 0.70646 -0.05393
 C1012 C 0.50879 0.71247 -0.08603
 C1013 C 0.50694 0.68938 -0.10612
 C1014 C 0.51176 0.66153 -0.09474
 C1015 C 0.52244 0.62685 -0.05074
 C1016 C 0.51966 0.60465 -0.07136
 C1017 C 0.52197 0.57668 -0.05971
 C1018 C 0.52662 0.57033 -0.02744
 C1019 C 0.53012 0.59303 -0.00709
 C1020 C 0.52805 0.62136 -0.01868
 C1021 C 0.50961 0.63864 -0.11468
 C1022 C 0.51355 0.61071 -0.10320
 C1023 C 0.52693 0.67243 -0.01048
 C1024 C 0.53053 0.64435 0.00114
 H1025 H 0.50456 0.64232 -0.13935
 H1026 H 0.51132 0.59365 -0.11934
 H1027 H 0.52879 0.68945 0.00571
 H1028 H 0.53494 0.64060 0.02590
 H1029 H 0.51869 0.72330 -0.03768
 H1030 H 0.50064 0.69233 -0.13049
 H1031 H 0.51899 0.55977 -0.07596
 H1032 H 0.53333 0.58876 0.01770
 C1033 C 0.00522 1.15485 0.42847
 C1034 C 0.01668 1.16361 0.40019
 C1035 C 0.01117 1.19089 0.38739
 C1036 C -0.00623 1.20929 0.40227
 C1037 C -0.01774 1.19989 0.43060
 C1038 C -0.01185 1.17285 0.44391
 C1039 C 0.01081 1.12608 0.44192
 C1040 C -0.00078 1.11725 0.47012
 C1041 C 0.00344 1.08942 0.48206
 C1042 C 0.01838 1.07009 0.46549
 C1043 C 0.03052 1.07976 0.43760
 C1044 C 0.02691 1.10768 0.42582
 C1045 C -0.02280 1.16338 0.47230
 C1046 C -0.01727 1.13612 0.48523
 C1047 C 0.03338 1.14482 0.38521
 C1048 C 0.03825 1.11730 0.39770
 H1049 H -0.03590 1.17710 0.48458
 H1050 H -0.02638 1.12960 0.50700
 H1051 H 0.04242 1.15131 0.36339
 H1052 H 0.05078 1.10333 0.38506
 H1053 H 0.02093 1.19781 0.36615
 H1054 H -0.03145 1.21345 0.44227
 H1055 H -0.00611 1.08252 0.50346
 H1056 H 0.04203 1.06533 0.42443
 C1057 C 0.79826 0.69074 0.88132
 C1058 C 0.79588 0.70451 0.90919
 C1059 C 0.79328 0.68822 0.93690
 C1060 C 0.79205 0.65821 0.93673
 C1061 C 0.79703 0.64501 0.90883
 C1062 C 0.79960 0.66108 0.88101
 C1063 C 0.79714 0.70749 0.85166
 C1064 C 0.79727 0.69349 0.82366
 C1065 C 0.79165 0.70885 0.79558
 C1066 C 0.78425 0.73760 0.79532
 C1067 C 0.78805 0.75198 0.82350
 C1068 C 0.79370 0.73690 0.85178
 C1069 C 0.80179 0.64801 0.85259
 C1070 C 0.80071 0.66398 0.82435
 C1071 C 0.79454 0.73427 0.90855
 C1072 C 0.79344 0.75021 0.88029
 H1073 H 0.80317 0.62515 0.85206
 H1074 H 0.80122 0.65297 0.80285
 H1075 H 0.79309 0.74523 0.92995
 H1076 H 0.79106 0.77296 0.88071
 H1077 H 0.79129 0.69931 0.95797
 H1078 H 0.79709 0.62203 0.90850
 H1079 H 0.79175 0.69780 0.77438
 H1080 H 0.78369 0.77437 0.82398
 C1081 C 0.29367 0.18207 0.36796
 C1082 C 0.29530 0.15250 0.36655
 C1083 C 0.29346 0.13566 0.39392
 C1084 C 0.28925 0.14815 0.42239
 C1085 C 0.29087 0.17805 0.42368
 C1086 C 0.29224 0.19505 0.39644
 C1087 C 0.29104 0.19953 0.33893
 C1088 C 0.28681 0.22873 0.34024
 C1089 C 0.27950 0.24431 0.31275
 C1090 C 0.27522 0.23062 0.28422
 C1091 C 0.28352 0.20226 0.28313
 C1092 C 0.29050 0.18634 0.31042
 C1093 C 0.29034 0.22470 0.39693
 C1094 C 0.28754 0.24129 0.36924
 C1095 C 0.29686 0.14028 0.33758
 C1096 C 0.29470 0.15701 0.30991
 H1097 H 0.28956 0.23500 0.41884
 H1098 H 0.28460 0.26388 0.37055
 H1099 H 0.29858 0.11751 0.33619
 H1100 H 0.29483 0.14668 0.28798
 H1101 H 0.29341 0.11273 0.39283
 H1102 H 0.29000 0.18853 0.44531
 H1103 H 0.27457 0.26647 0.31421
 H1104 H 0.28364 0.19200 0.26150
 C1105 C 0.71805 0.28636 0.40170
 C1106 C 0.69121 0.29560 0.40889
 C1107 C 0.68947 0.31312 0.43430
 C1108 C 0.71452 0.32116 0.45220
 C1109 C 0.74067 0.30947 0.44593
 C1110 C 0.74275 0.29287 0.42038
 C1111 C 0.72075 0.27132 0.37292
 C1112 C 0.74805 0.26515 0.36428
 C1113 C 0.75112 0.25518 0.33490
 C1114 C 0.72717 0.25095 0.31389
 C1115 C 0.69960 0.25309 0.32473
 C1116 C 0.69632 0.26509 0.35359
 C1117 C 0.76945 0.28420 0.41217
 C1118 C 0.77211 0.27079 0.38431
 C1119 C 0.66699 0.28812 0.38966
 C1120 C 0.66947 0.27281 0.36266
 H1121 H 0.78859 0.28902 0.42663
 H1122 H 0.79325 0.26568 0.37790
 H1123 H 0.64606 0.29475 0.39509
 H1124 H 0.65039 0.26818 0.34804
 H1125 H 0.66891 0.32085 0.43925
 H1126 H 0.75992 0.31497 0.45996
 H1127 H 0.77259 0.25203 0.32810
 H1128 H 0.68089 0.24795 0.30976
 C1129 C 0.22367 0.80200 0.87674
 C1130 C 0.23312 0.78696 0.90406
 C1131 C 0.23818 0.80147 0.93173
 C1132 C 0.23416 0.83099 0.93201
 C1133 C 0.22515 0.84557 0.90397
 C1134 C 0.21940 0.83122 0.87655
 C1135 C 0.21955 0.78716 0.84740
 C1136 C 0.21102 0.80240 0.81991
 C1137 C 0.21087 0.78906 0.79151
 C1138 C 0.22196 0.76186 0.79029
 C1139 C 0.22633 0.74561 0.81843
 C1140 C 0.22591 0.75840 0.84702
 C1141 C 0.20963 0.84559 0.84891
 C1142 C 0.20521 0.83131 0.82106
 C1143 C 0.23767 0.75774 0.90304
 C1144 C 0.23424 0.74370 0.87494
 H1145 H 0.20586 0.86814 0.84869
 H1146 H 0.19841 0.84328 0.80007
 H1147 H 0.24470 0.74578 0.92396
 H1148 H 0.23910 0.72141 0.87490
 H1149 H 0.24534 0.78957 0.95249
 H1150 H 0.22208 0.86828 0.90376
 H1151 H 0.20414 0.80072 0.77054
 H1152 H 0.23325 0.72394 0.81823
 C1153 C 0.26358 0.82656 0.11152
 C1154 C 0.27114 0.80917 0.08801
 C1155 C 0.26547 0.81795 0.05669
 C1156 C 0.25201 0.84396 0.04868
 C1157 C 0.24453 0.86082 0.07314
 C1158 C 0.25041 0.85241 0.10426
 C1159 C 0.26826 0.81697 0.14441
 C1160 C 0.25910 0.83380 0.16760
 C1161 C 0.26069 0.82347 0.19838
 C1162 C 0.27164 0.79648 0.20671
 C1163 C 0.28221 0.78044 0.18323
 C1164 C 0.28017 0.79046 0.15192
 C1165 C 0.24254 0.86914 0.12830
 C1166 C 0.24681 0.85999 0.15946
 C1167 C 0.28387 0.78313 0.09636
 C1168 C 0.28826 0.77394 0.12774
 H1169 H 0.23250 0.88925 0.12296
 H1170 H 0.23981 0.87320 0.17730
 H1171 H 0.28996 0.76948 0.07847
 H1172 H 0.29747 0.75342 0.13305
 H1173 H 0.27214 0.80461 0.03886
 H1174 H 0.23270 0.87992 0.06867
 H1175 H 0.25141 0.83589 0.21548
 H1176 H 0.29015 0.75944 0.18889
 C1177 C 0.77419 0.33004 0.61817
 C1178 C 0.77303 0.31045 0.59463
 C1179 C 0.75899 0.31754 0.56581
 C1180 C 0.74528 0.34386 0.56041
 C1181 C 0.74702 0.36314 0.58478
 C1182 C 0.76157 0.35650 0.61331
 C1183 C 0.78683 0.32186 0.64929
 C1184 C 0.78568 0.34067 0.67334
 C1185 C 0.79198 0.33096 0.70385
 C1186 C 0.79804 0.30213 0.71098
 C1187 C 0.80366 0.28492 0.68612
 C1188 C 0.79688 0.29433 0.65520
 C1189 C 0.76273 0.37553 0.63755
 C1190 C 0.77467 0.36777 0.66707
 C1191 C 0.78524 0.28379 0.60069
 C1192 C 0.79686 0.27582 0.63049
 H1193 H 0.75341 0.39619 0.63400
 H1194 H 0.77387 0.38255 0.68555
 H1195 H 0.78479 0.26852 0.58257
 H1196 H 0.80465 0.25455 0.63454
 H1197 H 0.75931 0.30233 0.54783
 H1198 H 0.73628 0.38302 0.58270
 H1199 H 0.78669 0.34486 0.72153
 H1200 H 0.80867 0.26283 0.69079
 C1201 C 0.24383 0.15430 0.59033
 C1202 C 0.25891 0.12918 0.58896
 C1203 C 0.26456 0.11911 0.56006
 C1204 C 0.25549 0.13400 0.53257
 C1205 C 0.23933 0.15855 0.53422
 C1206 C 0.23369 0.16897 0.56316
 C1207 C 0.24014 0.16631 0.62075
 C1208 C 0.22654 0.19227 0.62236
 C1209 C 0.22546 0.20480 0.65139
 C1210 C 0.23849 0.19169 0.67839
 C1211 C 0.25132 0.16520 0.67584
 C1212 C 0.25200 0.15244 0.64751
 C1213 C 0.21913 0.19429 0.56557
 C1214 C 0.21562 0.20574 0.59466
 C1215 C 0.26923 0.11527 0.61653
 C1216 C 0.26585 0.12674 0.64538
 H1217 H 0.21103 0.20574 0.54475
 H1218 H 0.20495 0.22568 0.59539
 H1219 H 0.28072 0.09580 0.61575
 H1220 H 0.27486 0.11582 0.66612
 H1221 H 0.27738 0.10054 0.55913
 H1222 H 0.23171 0.16986 0.51311
 H1223 H 0.21599 0.22531 0.65264
 H1224 H 0.26212 0.15473 0.69582
 C1225 C 0.73363 0.66436 0.10100
 C1226 C 0.74695 0.63811 0.10122
 C1227 C 0.75719 0.62878 0.07373
 C1228 C 0.75402 0.64526 0.04585
 C1229 C 0.73936 0.67102 0.04579
 C1230 C 0.72964 0.68090 0.07344
 C1231 C 0.72580 0.67569 0.13062
 C1232 C 0.71516 0.70315 0.13109
 C1233 C 0.71239 0.71561 0.15993
 C1234 C 0.72165 0.70124 0.18804
 C1235 C 0.72957 0.67259 0.18648
 C1236 C 0.73194 0.65995 0.15822
 C1237 C 0.71707 0.70750 0.07439
 C1238 C 0.71010 0.71849 0.10272
 C1239 C 0.75098 0.62222 0.12928
 C1240 C 0.74353 0.63294 0.15732
 H1241 H 0.71364 0.72043 0.05321
 H1242 H 0.70174 0.73962 0.10251
 H1243 H 0.76092 0.60181 0.12973
 H1244 H 0.74817 0.62054 0.17866
 H1245 H 0.76875 0.60929 0.07459
 H1246 H 0.73584 0.68368 0.02446
 H1247 H 0.70657 0.73763 0.16018
 H1248 H 0.73847 0.66108 0.20667
 C1249 C 0.20622 0.61571 0.26195
 C1250 C 0.20725 0.59814 0.28903
 C1251 C 0.19288 0.57155 0.28868
 C1252 C 0.17682 0.56268 0.26179
 C1253 C 0.17696 0.58037 0.23450
 C1254 C 0.19162 0.60681 0.23450
 C1255 C 0.21922 0.64463 0.26285
 C1256 C 0.21717 0.66261 0.23609
 C1257 C 0.22741 0.69082 0.23777
 C1258 C 0.23809 0.70158 0.26647
 C1259 C 0.24253 0.68243 0.29218
 C1260 C 0.23234 0.65417 0.29080
 C1261 C 0.19078 0.62513 0.20791
 C1262 C 0.20346 0.65252 0.20865
 C1263 C 0.22145 0.60809 0.31633
 C1264 C 0.23381 0.63565 0.31720
 H1265 H 0.17967 0.61847 0.18652
 H1266 H 0.20173 0.66620 0.18784
 H1267 H 0.22238 0.59474 0.33742
 H1268 H 0.24383 0.64279 0.33894
 H1269 H 0.19258 0.55843 0.30993
 H1270 H 0.16460 0.57477 0.21362
 H1271 H 0.22491 0.70482 0.21729
 H1272 H 0.25285 0.68966 0.31368
 C1273 C 0.71176 0.12355 0.75423
 C1274 C 0.71793 0.10387 0.77884
 C1275 C 0.70273 0.07774 0.77979
 C1276 C 0.68136 0.07125 0.75646
 C1277 C 0.67556 0.09147 0.73197
 C1278 C 0.69089 0.11740 0.73057
 C1279 C 0.72612 0.15181 0.75424
 C1280 C 0.71896 0.17190 0.73035
 C1281 C 0.73095 0.19940 0.73175
 C1282 C 0.74838 0.20751 0.75778
 C1283 C 0.75708 0.18645 0.78036
 C1284 C 0.74568 0.15866 0.77891
 C1285 C 0.68490 0.13777 0.70654
 C1286 C 0.69886 0.16454 0.70633
 C1287 C 0.73840 0.11114 0.80260
 C1288 C 0.75211 0.13810 0.80260
 H1289 H 0.66889 0.13317 0.68807
 H1290 H 0.69318 0.17992 0.68778
 H1291 H 0.74334 0.09615 0.82175
 H1292 H 0.76711 0.14320 0.82185
 H1293 H 0.70670 0.06290 0.79933
 H1294 H 0.65826 0.08798 0.71470
 H1295 H 0.72585 0.21454 0.71301
 H1296 H 0.77112 0.19196 0.80024
 C1297 C 0.78577 0.08812 0.24187
 C1298 C 0.79521 0.07495 0.27029
 C1299 C 0.80864 0.04898 0.27031
 C1300 C 0.81380 0.03671 0.24204
 C1301 C 0.80176 0.04901 0.21396
 C1302 C 0.78817 0.07496 0.21367
 C1303 C 0.77479 0.11694 0.24152
 C1304 C 0.76641 0.13071 0.21307
 C1305 C 0.75770 0.15887 0.21288
 C1306 C 0.75891 0.17368 0.24065
 C1307 C 0.76578 0.15870 0.26907
 C1308 C 0.77398 0.13061 0.26961
 C1309 C 0.77859 0.08887 0.18566
 C1310 C 0.76775 0.11628 0.18538
 C1311 C 0.79272 0.08886 0.29808
 C1312 C 0.78231 0.11631 0.29774
 H1313 H 0.78023 0.07884 0.16373
 H1314 H 0.76123 0.12658 0.16326
 H1315 H 0.79979 0.07886 0.32017
 H1316 H 0.78154 0.12671 0.31958
 H1317 H 0.81630 0.03967 0.29237
 H1318 H 0.80514 0.03949 0.19208
 H1319 H 0.75018 0.16899 0.19117
 H1320 H 0.76562 0.16897 0.29103
 C1321 C 0.28792 0.59008 0.76767
 C1322 C 0.30504 0.58239 0.79430
 C1323 C 0.31467 0.55461 0.79793
 C1324 C 0.30730 0.53458 0.77506
 C1325 C 0.28754 0.54205 0.75029
 C1326 C 0.27853 0.56994 0.74595
 C1327 C 0.28178 0.62018 0.76107
 C1328 C 0.26697 0.62819 0.73303
 C1329 C 0.26303 0.65697 0.72578
 C1330 C 0.27389 0.67796 0.74621
 C1331 C 0.28699 0.66922 0.77522
 C1332 C 0.29192 0.64051 0.78225
 C1333 C 0.26249 0.57860 0.71884
 C1334 C 0.25688 0.60730 0.71243
 C1335 C 0.31418 0.60323 0.81543
 C1336 C 0.30745 0.63179 0.80967
 H1337 H 0.25517 0.56323 0.70188
 H1338 H 0.24522 0.61327 0.69080
 H1339 H 0.32731 0.59756 0.83617
 H1340 H 0.31535 0.64731 0.82622
 H1341 H 0.33011 0.54986 0.81688
 H1342 H 0.28219 0.52719 0.73215
 H1343 H 0.25163 0.66289 0.70400
 H1344 H 0.29411 0.68478 0.79207
 C1345 C 0.30366 0.37667 0.73892
 C1346 C 0.28754 0.39798 0.72336
 C1347 C 0.29647 0.42659 0.72672
 C1348 C 0.32142 0.43352 0.74525
 C1349 C 0.33729 0.41179 0.76035
 C1350 C 0.32848 0.38344 0.75746
 C1351 C 0.29408 0.34671 0.73647
 C1352 C 0.30981 0.32588 0.75308
 C1353 C 0.30038 0.29777 0.75183
 C1354 C 0.27554 0.28941 0.73371
 C1355 C 0.25995 0.31065 0.71681
 C1356 C 0.26912 0.33950 0.71833
 C1357 C 0.34380 0.36178 0.77336
 C1358 C 0.33453 0.33343 0.77130
 C1359 C 0.26275 0.39014 0.70520
 C1360 C 0.25374 0.36142 0.70267
 H1361 H 0.36291 0.36682 0.78778
 H1362 H 0.34675 0.31727 0.78421
 H1363 H 0.25009 0.40635 0.69300
 H1364 H 0.23444 0.35638 0.68859
 H1365 H 0.28414 0.44335 0.71509
 H1366 H 0.35600 0.41692 0.77535
 H1367 H 0.31244 0.28244 0.76602
 H1368 H 0.24057 0.30489 0.70322
 C1369 C 0.81386 0.88221 0.21069
 C1370 C 0.79634 0.90418 0.19936
 C1371 C 0.80700 0.93240 0.20063
 C1372 C 0.83477 0.93887 0.21413
 C1373 C 0.85235 0.91599 0.22371
 C1374 C 0.84198 0.88792 0.22233
 C1375 C 0.80204 0.85281 0.21228
 C1376 C 0.81915 0.83144 0.22580
 C1377 C 0.80724 0.80439 0.23063
 C1378 C 0.77843 0.79761 0.22139
 C1379 C 0.76169 0.81912 0.20656
 C1380 C 0.77338 0.84697 0.20237
 C1381 C 0.85884 0.86553 0.23424
 C1382 C 0.84755 0.83775 0.23608
 C1383 C 0.76811 0.89753 0.18829
 C1384 C 0.75682 0.86942 0.18979
 H1385 H 0.88064 0.86965 0.24315
 H1386 H 0.86095 0.82116 0.24636
 H1387 H 0.75435 0.91428 0.17921
 H1388 H 0.73474 0.86539 0.18183
 H1389 H 0.79328 0.94916 0.19159
 H1390 H 0.87333 0.91936 0.23490
 H1391 H 0.82015 0.78951 0.24434
 H1392 H 0.73941 0.81464 0.19979
 C1393 C 0.69085 0.90991 0.77324
 C1394 C 0.70908 0.93101 0.78636
 C1395 C 0.69878 0.95848 0.78887
 C1396 C 0.67072 0.96490 0.77746
 C1397 C 0.65297 0.94313 0.76456
 C1398 C 0.66271 0.91575 0.76271
 C1399 C 0.70166 0.88142 0.76928
 C1400 C 0.68331 0.86078 0.75567
 C1401 C 0.69371 0.83431 0.75057
 C1402 C 0.72258 0.82796 0.75806
 C1403 C 0.74074 0.84878 0.77237
 C1404 C 0.73028 0.87567 0.77804
 C1405 C 0.64494 0.89431 0.74955
 C1406 C 0.65504 0.86718 0.74626
 C1407 C 0.73738 0.92431 0.79587
 C1408 C 0.74784 0.89717 0.79164
 H1409 H 0.62313 0.89863 0.74144
 H1410 H 0.64078 0.85125 0.73568
 H1411 H 0.75173 0.94034 0.80613
 H1412 H 0.76992 0.89312 0.79875
 H1413 H 0.71274 0.97484 0.79904
 H1414 H 0.63185 0.94735 0.75444
 H1415 H 0.67942 0.81928 0.73868
 H1416 H 0.76291 0.84434 0.77856
 C1417 C 0.18269 0.40240 0.27312
 C1418 C 0.15434 0.40869 0.26402
 C1419 C 0.14467 0.43578 0.26835
 C1420 C 0.16283 0.45692 0.28200
 C1421 C 0.19109 0.44985 0.29211
 C1422 C 0.20124 0.42269 0.28724
 C1423 C 0.19335 0.37432 0.26661
 C1424 C 0.22209 0.36818 0.27414
 C1425 C 0.23230 0.34172 0.26639
 C1426 C 0.21383 0.32165 0.25117
 C1427 C 0.18490 0.32841 0.24475
 C1428 C 0.17470 0.35450 0.25200
 C1429 C 0.22972 0.41560 0.29528
 C1430 C 0.23999 0.38888 0.28875
 C1431 C 0.13630 0.38809 0.24969
 C1432 C 0.14627 0.36136 0.24392
 H1433 H 0.24436 0.43101 0.30620
 H1434 H 0.26219 0.38453 0.29489
 H1435 H 0.11436 0.39278 0.24253
 H1436 H 0.13175 0.34612 0.23254
 H1437 H 0.12327 0.44033 0.25937
 H1438 H 0.20540 0.46556 0.30294
 H1439 H 0.25452 0.33700 0.27182
 H1440 H 0.17037 0.31408 0.23215
 C1441 C 0.11570 0.22603 0.79528
 C1442 C 0.10357 0.25282 0.79436
 C1443 C 0.08364 0.25852 0.81628
 C1444 C 0.07563 0.23753 0.83889
 C1445 C 0.08708 0.21026 0.83789
 C1446 C 0.10761 0.20474 0.81699
 C1447 C 0.13825 0.22050 0.77408
 C1448 C 0.15237 0.19484 0.77759
 C1449 C 0.17727 0.19176 0.76215
 C1450 C 0.18796 0.21350 0.74190
 C1451 C 0.17090 0.23756 0.73539
 C1452 C 0.14698 0.24183 0.75273
 C1453 C 0.12072 0.17839 0.81796
 C1454 C 0.14308 0.17370 0.79896
 C1455 C 0.11205 0.27341 0.77187
 C1456 C 0.13322 0.26794 0.75128
 H1457 H 0.11452 0.16169 0.83448
 H1458 H 0.15370 0.15363 0.80162
 H1459 H 0.10269 0.29413 0.77058
 H1460 H 0.13969 0.28473 0.73499
 H1461 H 0.07419 0.27918 0.81568
 H1462 H 0.08016 0.19285 0.85292
 H1463 H 0.18987 0.17402 0.76992
 H1464 H 0.17849 0.25484 0.72033
 C1465 C 0.61205 0.73328 0.31109
 C1466 C 0.59052 0.75175 0.30052
 C1467 C 0.56646 0.75381 0.31825
 C1468 C 0.56367 0.73726 0.34623
 C1469 C 0.58613 0.71945 0.35658
 C1470 C 0.61001 0.71715 0.33907
 C1471 C 0.63784 0.73161 0.29329
 C1472 C 0.65966 0.71404 0.30493
 C1473 C 0.68476 0.71374 0.28948
 C1474 C 0.68883 0.73041 0.26183
 C1475 C 0.66631 0.74767 0.25000
 C1476 C 0.64077 0.74846 0.26588
 C1477 C 0.63224 0.69935 0.34946
 C1478 C 0.65664 0.69781 0.33267
 C1479 C 0.59381 0.76804 0.27273
 C1480 C 0.61844 0.76641 0.25573
 H1481 H 0.63091 0.68675 0.37096
 H1482 H 0.67352 0.68410 0.34174
 H1483 H 0.57734 0.78240 0.26419
 H1484 H 0.62018 0.77962 0.23472
 H1485 H 0.55006 0.76856 0.31050
 H1486 H 0.58585 0.70788 0.37870
 H1487 H 0.70169 0.70107 0.30023
 H1488 H 0.66909 0.76124 0.22942
 C1489 C 0.58911 0.25052 0.20272
 C1490 C 0.58033 0.27599 0.18774
 C1491 C 0.55432 0.27648 0.17023
 C1492 C 0.53802 0.25119 0.16484
 C1493 C 0.54632 0.22607 0.18177
 C1494 C 0.57192 0.22565 0.20074
 C1495 C 0.61768 0.24955 0.21906
 C1496 C 0.62705 0.22410 0.23374
 C1497 C 0.65541 0.22289 0.24686
 C1498 C 0.67489 0.24626 0.24297
 C1499 C 0.66457 0.27106 0.22714
 C1500 C 0.63606 0.27343 0.21698
 C1501 C 0.58149 0.20068 0.21655
 C1502 C 0.60842 0.20001 0.23304
 C1503 C 0.59854 0.30026 0.18887
 C1504 C 0.62624 0.29882 0.20262
 H1505 H 0.56836 0.18132 0.21556
 H1506 H 0.61518 0.18015 0.24419
 H1507 H 0.59195 0.32010 0.17750
 H1508 H 0.64029 0.31756 0.20148
 H1509 H 0.54777 0.29670 0.16026
 H1510 H 0.53349 0.20665 0.17906
 H1511 H 0.66293 0.20305 0.25739
 H1512 H 0.67900 0.28810 0.22004
 C1513 C 0.10179 0.73829 0.67612
 C1514 C 0.09673 0.73393 0.64427
 C1515 C 0.06886 0.73392 0.63127
 C1516 C 0.04549 0.73759 0.64957
 C1517 C 0.05084 0.74173 0.68179
 C1518 C 0.07915 0.74214 0.69515
 C1519 C 0.13152 0.73961 0.68947
 C1520 C 0.13717 0.74475 0.72117
 C1521 C 0.16586 0.74625 0.73346
 C1522 C 0.18849 0.74268 0.71398
 C1523 C 0.18177 0.73723 0.68230
 C1524 C 0.15374 0.73594 0.67001
 C1525 C 0.08548 0.74698 0.72690
 C1526 C 0.11394 0.74828 0.73965
 C1527 C 0.11967 0.73033 0.62564
 C1528 C 0.14775 0.73119 0.63835
 H1529 H 0.06832 0.74997 0.74200
 H1530 H 0.11778 0.75220 0.76415
 H1531 H 0.11590 0.72693 0.60101
 H1532 H 0.16494 0.72836 0.62320
 H1533 H 0.06542 0.73197 0.60634
 H1534 H 0.03349 0.74570 0.69621
 H1535 H 0.17039 0.75004 0.75785
 H1536 H 0.19838 0.73403 0.66658
 C1537 C 0.88451 0.75191 0.67404
 C1538 C 0.88967 0.76744 0.64630
 C1539 C 0.91552 0.76424 0.63209
 C1540 C 0.93611 0.74558 0.64539
 C1541 C 0.93007 0.72956 0.67282
 C1542 C 0.90445 0.73282 0.68734
 C1543 C 0.85777 0.75587 0.68959
 C1544 C 0.85275 0.74068 0.71752
 C1545 C 0.82721 0.74446 0.73211
 C1546 C 0.80616 0.76252 0.71847
 C1547 C 0.81205 0.77784 0.69047
 C1548 C 0.83770 0.77468 0.67609
 C1549 C 0.89853 0.71768 0.71515
 C1550 C 0.87317 0.72158 0.73000
 C1551 C 0.86903 0.78619 0.63359
 C1552 C 0.84345 0.78964 0.64814
 H1553 H 0.91370 0.70280 0.72566
 H1554 H 0.86948 0.70945 0.75137
 H1555 H 0.87264 0.79827 0.61217
 H1556 H 0.82805 0.80418 0.63741
 H1557 H 0.91996 0.77702 0.61138
 H1558 H 0.94539 0.71472 0.68309
 H1559 H 0.82353 0.73249 0.75332
 H1560 H 0.79638 0.79177 0.67918
 C1561 C 0.37769 0.24749 0.16840
 C1562 C 0.39858 0.23116 0.18459
 C1563 C 0.42511 0.22864 0.17184
 C1564 C 0.43128 0.24301 0.14352
 C1565 C 0.40971 0.25860 0.12706
 C1566 C 0.38283 0.26090 0.13945
 C1567 C 0.35013 0.25113 0.18239
 C1568 C 0.32915 0.26736 0.16627
 C1569 C 0.30287 0.27039 0.17954
 C1570 C 0.29744 0.25764 0.20905
 C1571 C 0.31943 0.24238 0.22519
 C1572 C 0.34545 0.23853 0.21177
 C1573 C 0.36122 0.27698 0.12398
 C1574 C 0.33480 0.28001 0.13706
 C1575 C 0.39286 0.21833 0.21366
 C1576 C 0.36680 0.22204 0.22707
 H1577 H 0.36479 0.28741 0.10162
 H1578 H 0.31876 0.29258 0.12430
 H1579 H 0.40883 0.20564 0.22639
 H1580 H 0.36334 0.21193 0.24961
 H1581 H 0.44128 0.21613 0.18447
 H1582 H 0.41421 0.26998 0.10547
 H1583 H 0.28648 0.28229 0.16648
 H1584 H 0.31647 0.23287 0.24783
 C1585 C 0.40559 0.76556 0.31681
 C1586 C 0.42178 0.74407 0.30588
 C1587 C 0.44793 0.73751 0.32164
 C1588 C 0.45789 0.75227 0.34819
 C1589 C 0.44130 0.77372 0.35887
 C1590 C 0.41514 0.78048 0.34323
 C1591 C 0.37761 0.77190 0.30093
 C1592 C 0.36093 0.79252 0.31270
 C1593 C 0.33311 0.79621 0.29986
 C1594 C 0.32144 0.77889 0.27590
 C1595 C 0.33944 0.75997 0.26266
 C1596 C 0.36739 0.75605 0.27545
 C1597 C 0.39824 0.80174 0.35358
 C1598 C 0.37157 0.80765 0.33858
 C1599 C 0.41137 0.72937 0.27960
 C1600 C 0.38463 0.73524 0.26467
 H1601 H 0.40542 0.81356 0.37378
 H1602 H 0.35886 0.82369 0.34784
 H1603 H 0.42377 0.71284 0.27083
 H1604 H 0.37709 0.72287 0.24501
 H1605 H 0.46042 0.72079 0.31339
 H1606 H 0.44901 0.78555 0.37889
 H1607 H 0.31980 0.81074 0.31069
 H1608 H 0.33103 0.74647 0.24430
 C1609 C 0.91842 0.26723 0.82509
 C1610 C 0.92658 0.27642 0.85493
 C1611 C 0.95410 0.27089 0.86791
 C1612 C 0.97357 0.25579 0.85151
 C1613 C 0.96446 0.24657 0.82152
 C1614 C 0.93723 0.25247 0.80819
 C1615 C 0.88938 0.27262 0.81153
 C1616 C 0.88116 0.26314 0.78178
 C1617 C 0.85308 0.26689 0.76968
 C1618 C 0.83289 0.27902 0.78761
 C1619 C 0.84191 0.28948 0.81695
 C1620 C 0.87012 0.28635 0.82897
 C1621 C 0.92836 0.24362 0.77829
 C1622 C 0.90085 0.24900 0.76524
 C1623 C 0.90700 0.29096 0.87128
 C1624 C 0.87920 0.29571 0.85858
 H1625 H 0.94275 0.23229 0.76491
 H1626 H 0.89476 0.24155 0.74227
 H1627 H 0.91305 0.29834 0.89429
 H1628 H 0.86460 0.30648 0.87223
 H1629 H 0.96019 0.27941 0.89030
 H1630 H 0.97800 0.23401 0.80851
 H1631 H 0.84670 0.25904 0.74695
 H1632 H 0.82683 0.29922 0.83092
 C1633 C 0.59009 0.96860 0.65826
 C1634 C 0.61908 0.97737 0.65925
 C1635 C 0.63124 0.99019 0.68568
 C1636 C 0.61445 0.99535 0.71058
 C1637 C 0.58599 0.98475 0.71036
 C1638 C 0.57354 0.97156 0.68392
 C1639 C 0.57614 0.95927 0.62867
 C1640 C 0.54659 0.95311 0.62656
 C1641 C 0.53251 0.94994 0.59704
 C1642 C 0.54725 0.95654 0.56981
 C1643 C 0.57738 0.95966 0.57300
 C1644 C 0.59187 0.96070 0.60210
 C1645 C 0.54447 0.96301 0.68169
 C1646 C 0.53125 0.95377 0.65352
 C1647 C 0.63482 0.97521 0.63292
 C1648 C 0.62134 0.96729 0.60465
 H1649 H 0.53151 0.96477 0.70142
 H1650 H 0.50846 0.94893 0.65237
 H1651 H 0.65729 0.98153 0.63362
 H1652 H 0.63375 0.96798 0.58422
 H1653 H 0.65348 0.99738 0.68632
 H1654 H 0.57322 0.98827 0.72986
 H1655 H 0.50941 0.94740 0.59544
 H1656 H 0.58963 0.96656 0.55370
 C1657 C 0.08470 0.46335 1.16058
 C1658 C 0.11423 0.46958 1.16362
 C1659 C 0.12606 0.48086 1.19108
 C1660 C 0.10852 0.48728 1.21491
 C1661 C 0.07933 0.47898 1.21274
 C1662 C 0.06718 0.46719 1.18525
 C1663 C 0.07151 0.45593 1.12988
 C1664 C 0.04173 0.45216 1.12580
 C1665 C 0.02894 0.45051 1.09542
 C1666 C 0.04546 0.45633 1.06927
 C1667 C 0.07554 0.45753 1.07445
 C1668 C 0.08860 0.45678 1.10437
 C1669 C 0.03765 0.46112 1.18096
 C1670 C 0.02516 0.45354 1.15179
 C1671 C 0.13102 0.46679 1.13821
 C1672 C 0.11835 0.46086 1.10891
 H1673 H 0.02389 0.46355 1.19988
 H1674 H 0.00214 0.45056 1.14913
 H1675 H 0.15388 0.47119 1.14046
 H1676 H 0.13179 0.46105 1.08933
 H1677 H 0.14874 0.48635 1.19317
 H1678 H 0.06590 0.48347 1.23138
 H1679 H 0.00582 0.44961 1.09238
 H1680 H 0.08918 0.46407 1.05626
 C1681 C -0.05247 0.02250 1.15355
 C1682 C -0.07469 0.04152 1.15358
 C1683 C -0.09651 0.03609 1.17399
 C1684 C -0.09601 0.01216 1.19502
 C1685 C -0.07240 -0.00565 1.19576
 C1686 C -0.05102 -0.00098 1.17462
 C1687 C -0.03170 0.02591 1.12929
 C1688 C -0.01167 0.00491 1.12687
 C1689 C 0.00384 0.00499 1.10020
 C1690 C -0.00135 0.02540 1.07570
 C1691 C -0.01698 0.04924 1.08154
 C1692 C -0.03392 0.04864 1.10726
 C1693 C -0.02897 -0.02018 1.17312
 C1694 C -0.00977 -0.01744 1.14942
 C1695 C -0.07539 0.06490 1.13219
 C1696 C -0.05509 0.06861 1.10964
 H1697 H -0.02742 -0.03825 1.18944
 H1698 H 0.00584 -0.03364 1.14793
 H1699 H -0.09228 0.07998 1.13227
 H1700 H -0.05708 0.08624 1.09278
 H1701 H -0.11437 0.05002 1.17215
 H1702 H -0.07067 -0.02365 1.21198
 H1703 H 0.01706 -0.01291 1.09708
 H1704 H -0.01836 0.06671 1.06469
 C1705 C 0.41996 0.51568 0.66144
 C1706 C 0.39386 0.52929 0.66070
 C1707 C 0.37617 0.52439 0.68550
 C1708 C 0.38450 0.50618 0.71108
 C1709 C 0.41094 0.49300 0.71155
 C1710 C 0.42872 0.49760 0.68674
 C1711 C 0.43784 0.51937 0.63457
 C1712 C 0.46302 0.50431 0.63453
 C1713 C 0.47811 0.50509 0.60761
 C1714 C 0.46790 0.52028 0.58045
 C1715 C 0.44455 0.53797 0.58215
 C1716 C 0.42870 0.53667 0.60878
 C1717 C 0.45482 0.48401 0.68642
 C1718 C 0.47167 0.48726 0.66069
 C1719 C 0.38569 0.54705 0.63489
 C1720 C 0.40289 0.55078 0.60940
 H1721 H 0.46195 0.47020 0.70587
 H1722 H 0.49124 0.47570 0.66092
 H1723 H 0.36561 0.55779 0.63415
 H1724 H 0.39548 0.56406 0.58963
 H1725 H 0.35559 0.53420 0.68437
 H1726 H 0.41773 0.47916 0.73106
 H1727 H 0.49680 0.49230 0.60751
 H1728 H 0.43715 0.55066 0.56192
 C1729 C 0.43105 0.46061 -0.14080
 C1730 C 0.40294 0.45078 -0.13615
 C1731 C 0.38148 0.45583 -0.15974
 C1732 C 0.38826 0.47018 -0.18775
 C1733 C 0.41678 0.47804 -0.19289
 C1734 C 0.43824 0.47383 -0.16923
 C1735 C 0.45267 0.45962 -0.11446
 C1736 C 0.47969 0.47257 -0.11810
 C1737 C 0.49814 0.47656 -0.09180
 C1738 C 0.48920 0.46903 -0.06175
 C1739 C 0.46406 0.45194 -0.05922
 C1740 C 0.44506 0.44825 -0.08538
 C1741 C 0.46630 0.48435 -0.17266
 C1742 C 0.48668 0.48382 -0.14746
 C1743 C 0.39667 0.43763 -0.10738
 C1744 C 0.41749 0.43607 -0.08252
 H1745 H 0.47218 0.49435 -0.19455
 H1746 H 0.50764 0.49358 -0.15060
 H1747 H 0.37519 0.42953 -0.10362
 H1748 H 0.41137 0.42697 -0.06031
 H1749 H 0.35942 0.44977 -0.15589
 H1750 H 0.42184 0.48949 -0.21428
 H1751 H 0.51815 0.48826 -0.09475
 H1752 H 0.45759 0.44440 -0.03658
 C1753 C -0.07191 0.96297 0.34345
 C1754 C -0.06089 0.97149 0.31481
 C1755 C -0.07977 0.97556 0.28860
 C1756 C -0.10942 0.97211 0.29124
 C1757 C -0.12005 0.96230 0.31973
 C1758 C -0.10134 0.95763 0.34597
 C1759 C -0.05259 0.96200 0.37178
 C1760 C -0.06380 0.95508 0.40066
 C1761 C -0.04609 0.95778 0.42787
 C1762 C -0.01815 0.96973 0.42661
 C1763 C -0.00645 0.97339 0.39717
 C1764 C -0.02369 0.97006 0.36975
 C1765 C -0.11156 0.94931 0.37507
 C1766 C -0.09305 0.94779 0.40192
 C1767 C -0.03144 0.97755 0.31342
 C1768 C -0.01315 0.97691 0.34045
 H1769 H -0.13418 0.94485 0.37728
 H1770 H -0.10197 0.94227 0.42406
 H1771 H -0.02265 0.98397 0.29145
 H1772 H 0.00920 0.98295 0.33853
 H1773 H -0.07160 0.98362 0.26688
 H1774 H -0.14293 0.95960 0.32174
 H1775 H -0.05480 0.95200 0.44984
 H1776 H 0.01540 0.98126 0.39538
 C1777 C 0.04695 0.52728 0.35421
 C1778 C 0.07066 0.54614 0.35649
 C1779 C 0.09301 0.54334 0.33700
 C1780 C 0.09149 0.52258 0.31415
 C1781 C 0.06691 0.50439 0.31159
 C1782 C 0.04496 0.50623 0.33208
 C1783 C 0.02455 0.52870 0.37654
 C1784 C 0.00245 0.50795 0.37663
 C1785 C -0.01609 0.50674 0.40100
 C1786 C -0.01260 0.52619 0.42520
 C1787 C 0.00700 0.54918 0.42184
 C1788 C 0.02669 0.54966 0.39874
 C1789 C 0.02132 0.48702 0.33144
 C1790 C 0.00065 0.48759 0.35364
 C1791 C 0.07187 0.56713 0.37876
 C1792 C 0.05002 0.56913 0.39922
 H1793 H 0.01930 0.47082 0.31431
 H1794 H -0.01652 0.47160 0.35326
 H1795 H 0.09007 0.58186 0.38070
 H1796 H 0.05205 0.58515 0.41656
 H1797 H 0.11175 0.55716 0.34033
 H1798 H 0.06461 0.48871 0.29395
 H1799 H -0.03157 0.48921 0.40227
 H1800 H 0.00943 0.56480 0.43913
 C1801 C 0.56072 0.02205 -0.14124
 C1802 C 0.56753 0.04851 -0.15545
 C1803 C 0.58755 0.04999 -0.17847
 C1804 C 0.60103 0.02524 -0.18662
 C1805 C 0.59396 -0.00094 -0.17177
 C1806 C 0.57363 -0.00275 -0.14951
 C1807 C 0.54049 0.02029 -0.11642
 C1808 C 0.53442 -0.00617 -0.10201
 C1809 C 0.51726 -0.00765 -0.07692
 C1810 C 0.50722 0.01718 -0.06455
 C1811 C 0.51102 0.04333 -0.08116
 C1812 C 0.52844 0.04510 -0.10677
 C1813 C 0.56637 -0.02893 -0.13497
 C1814 C 0.54689 -0.03065 -0.11172
 C1815 C 0.55446 0.07286 -0.14597
 C1816 C 0.53532 0.07120 -0.12198
 H1817 H 0.57610 -0.04819 -0.14134
 H1818 H 0.54220 -0.05120 -0.10060
 H1819 H 0.55947 0.09345 -0.15679
 H1820 H 0.52628 0.09055 -0.11490
 H1821 H 0.59258 0.07028 -0.18992
 H1822 H 0.60479 -0.01996 -0.17678
 H1823 H 0.51321 -0.02843 -0.06609
 H1824 H 0.50250 0.06244 -0.07275
 C1825 C 0.66815 0.55770 -0.01985
 C1826 C 0.67299 0.58045 -0.04109
 C1827 C 0.70014 0.59365 -0.04142
 C1828 C 0.72292 0.58415 -0.02109
 C1829 C 0.71780 0.56065 -0.00044
 C1830 C 0.69033 0.54757 0.00050
 C1831 C 0.63904 0.54488 -0.01832
 C1832 C 0.63369 0.52275 0.00359
 C1833 C 0.60550 0.51171 0.00588
 C1834 C 0.58274 0.52348 -0.01292
 C1835 C 0.58922 0.54431 -0.03607
 C1836 C 0.61698 0.55550 -0.03841
 C1837 C 0.68433 0.52498 0.02177
 C1838 C 0.65652 0.51284 0.02334
 C1839 C 0.65037 0.59015 -0.06115
 C1840 C 0.62286 0.57778 -0.05996
 H1841 H 0.70118 0.51688 0.03767
 H1842 H 0.65280 0.49584 0.04045
 H1843 H 0.65390 0.60766 -0.07772
 H1844 H 0.60591 0.58613 -0.07558
 H1845 H 0.70291 0.61211 -0.05681
 H1846 H 0.73494 0.55268 0.01510
 H1847 H 0.60111 0.49520 0.02335
 H1848 H 0.57266 0.55237 -0.05217
 C1849 C 0.16378 1.05772 0.46620
 C1850 C 0.17123 1.08505 0.47642
 C1851 C 0.19970 1.09474 0.47636
 C1852 C 0.22066 1.07740 0.46619
 C1853 C 0.21314 1.05004 0.45604
 C1854 C 0.18451 1.03999 0.45610
 C1855 C 0.13373 1.04744 0.46642
 C1856 C 0.12612 1.01992 0.45692
 C1857 C 0.09756 1.00993 0.45842
 C1858 C 0.07683 1.02727 0.46960
 C1859 C 0.08512 1.05502 0.47840
 C1860 C 0.11332 1.06514 0.47693
 C1861 C 0.17608 1.01268 0.44639
 C1862 C 0.14742 1.00280 0.44686
 C1863 C 0.15009 1.10221 0.48649
 C1864 C 0.12159 1.09239 0.48678
 H1865 H 0.19181 0.99876 0.43856
 H1866 H 0.14193 0.98150 0.43948
 H1867 H 0.15566 1.12333 0.49439
 H1868 H 0.10592 1.10618 0.49501
 H1869 H 0.20558 1.11593 0.48388
 H1870 H 0.22944 1.03681 0.44811
 H1871 H 0.09178 0.98846 0.45184
 H1872 H 0.07020 1.06836 0.48844
 C1873 C 0.13870 -0.06705 0.99305
 C1874 C 0.13528 -0.09471 0.98233
 C1875 C 0.15822 -0.11248 0.98519
 C1876 C 0.18556 -0.10204 0.99508
 C1877 C 0.18875 -0.07443 1.00673
 C1878 C 0.16492 -0.05702 1.00649
 C1879 C 0.11414 -0.04851 0.99040
 C1880 C 0.11591 -0.02204 1.00428
 C1881 C 0.09084 -0.00631 1.00492
 C1882 C 0.06477 -0.01687 0.99075
 C1883 C 0.06515 -0.04173 0.97411
 C1884 C 0.08882 -0.05832 0.97519
 C1885 C 0.16660 -0.02973 1.01875
 C1886 C 0.14233 -0.01281 1.01833
 C1887 C 0.10924 -0.10396 0.96791
 C1888 C 0.08652 -0.08576 0.96373
 H1889 H 0.18665 -0.02164 1.02934
 H1890 H 0.14429 0.00762 1.02898
 H1891 H 0.10658 -0.12522 0.95933
 H1892 H 0.06666 -0.09357 0.95242
 H1893 H 0.15491 -0.13416 0.97806
 H1894 H 0.20958 -0.06615 1.01485
 H1895 H 0.09134 0.01299 1.01773
 H1896 H 0.04589 -0.05134 0.96496
 C1897 C 0.63234 0.44124 0.51737
 C1898 C 0.64363 0.43858 0.48826
 C1899 C 0.66350 0.41773 0.48484
 C1900 C 0.67226 0.39991 0.51030
 C1901 C 0.66182 0.40352 0.53966
 C1902 C 0.64132 0.42391 0.54321
 C1903 C 0.60946 0.46132 0.52033
 C1904 C 0.59620 0.46214 0.54858
 C1905 C 0.57123 0.47753 0.54959
 C1906 C 0.55931 0.49117 0.52223
 C1907 C 0.57571 0.49404 0.49596
 C1908 C 0.59982 0.47780 0.49418
 C1909 C 0.62884 0.42668 0.57168
 C1910 C 0.60650 0.44535 0.57427
 C1911 C 0.63426 0.45629 0.46295
 C1912 C 0.61286 0.47581 0.46594
 H1913 H 0.63563 0.41352 0.59180
 H1914 H 0.59653 0.44585 0.59623
 H1915 H 0.64302 0.45456 0.44047
 H1916 H 0.60551 0.48841 0.44561
 H1917 H 0.67211 0.41518 0.46238
 H1918 H 0.66890 0.38983 0.55926
 H1919 H 0.55959 0.47616 0.57056
 H1920 H 0.56851 0.50679 0.47584
 C1921 C -0.18183 0.43770 0.49389
 C1922 C -0.20260 0.44247 0.46955
 C1923 C -0.22833 0.42618 0.46922
 C1924 C -0.23326 0.40603 0.49351
 C1925 C -0.21275 0.40246 0.51826
 C1926 C -0.18676 0.41771 0.51825
 C1927 C -0.15392 0.45294 0.49323
 C1928 C -0.13259 0.44610 0.51611
 C1929 C -0.10558 0.45881 0.51423
 C1930 C -0.09972 0.48004 0.49114
 C1931 C -0.12159 0.48706 0.46846
 C1932 C -0.14865 0.47303 0.46905
 C1933 C -0.16515 0.41241 0.54146
 C1934 C -0.13832 0.42612 0.54018
 C1935 C -0.19677 0.46283 0.44577
 C1936 C -0.17037 0.47806 0.44570
 H1937 H -0.16877 0.39697 0.56028
 H1938 H -0.12190 0.42099 0.55812
 H1939 H -0.21266 0.46687 0.42695
 H1940 H -0.16672 0.49342 0.42685
 H1941 H -0.24426 0.42878 0.45010
 H1942 H -0.21634 0.38660 0.53663
 H1943 H -0.08884 0.45119 0.53045
 H1944 H -0.11737 0.50265 0.44997
 C1945 C 0.33383 -0.05464 -0.00588
 C1946 C 0.31715 -0.05255 -0.03401
 C1947 C 0.29224 -0.06975 -0.03765
 C1948 C 0.28412 -0.08841 -0.01319
 C1949 C 0.30021 -0.08912 0.01530
 C1950 C 0.32543 -0.07277 0.01888
 C1951 C 0.36154 -0.03912 -0.00303
 C1952 C 0.37938 -0.04380 0.02376
 C1953 C 0.40694 -0.03198 0.02492
 C1954 C 0.41660 -0.01384 0.00059
 C1955 C 0.39792 -0.00841 -0.02574
 C1956 C 0.37058 -0.02165 -0.02799
 C1957 C 0.34323 -0.07549 0.04609
 C1958 C 0.36999 -0.06149 0.04834
 C1959 C 0.32643 -0.03429 -0.05825
 C1960 C 0.35262 -0.01890 -0.05519
 H1961 H 0.33690 -0.08939 0.06530
 H1962 H 0.38366 -0.06490 0.06927
 H1963 H 0.31363 -0.03233 -0.07997
 H1964 H 0.35927 -0.00550 -0.07465
 H1965 H 0.27966 -0.06929 -0.05961
 H1966 H 0.29417 -0.10389 0.03392
 H1967 H 0.42137 -0.03897 0.04393
 H1968 H 0.40512 0.00470 -0.04516
 C1969 C 0.37088 1.04782 0.52541
 C1970 C 0.34867 1.03289 0.50899
 C1971 C 0.32391 1.04713 0.49855
 C1972 C 0.32186 1.07613 0.50376
 C1973 C 0.34357 1.09048 0.52149
 C1974 C 0.36826 1.07641 0.53236
 C1975 C 0.39836 1.03412 0.53283
 C1976 C 0.42129 1.04973 0.54704
 C1977 C 0.44850 1.03811 0.54980
 C1978 C 0.45327 1.01231 0.53593
 C1979 C 0.42931 0.99546 0.52540
 C1980 C 0.40194 1.00655 0.52308
 C1981 C 0.39110 1.09081 0.54826
 C1982 C 0.41716 1.07763 0.55564
 C1983 C 0.35249 1.00463 0.50154
 C1984 C 0.37871 0.99168 0.50844
 H1985 H 0.38921 1.11279 0.55399
 H1986 H 0.43466 1.08989 0.56668
 H1987 H 0.33549 0.99283 0.48909
 H1988 H 0.38121 0.97031 0.50097
 H1989 H 0.30725 1.03634 0.48450
 H1990 H 0.34188 1.11295 0.52518
 H1991 H 0.46599 1.05029 0.56055
 H1992 H 0.43217 0.97489 0.51596
 C1993 C -0.12749 0.55230 1.02600
 C1994 C -0.14987 0.54115 1.00647
 C1995 C -0.17507 0.55629 1.00113
 C1996 C -0.17764 0.58259 1.01470
 C1997 C -0.15562 0.59286 1.03535
 C1998 C -0.13038 0.57781 1.04104
 C1999 C -0.09974 0.53822 1.02881
 C2000 C -0.07681 0.55028 1.04679
 C2001 C -0.04978 0.53829 1.04705
 C2002 C -0.04515 0.51544 1.02806
 C2003 C -0.06908 0.50233 1.01211
 C2004 C -0.09622 0.51392 1.01197
 C2005 C -0.10727 0.58864 1.05980
 C2006 C -0.08099 0.57505 1.06273
 C2007 C -0.14585 0.51607 0.99104
 C2008 C -0.11949 0.50269 0.99375
 H2009 H -0.10923 0.60824 1.07161
 H2010 H -0.06348 0.58462 1.07667
 H2011 H -0.16292 0.50720 0.97596
 H2012 H -0.11705 0.48391 0.98066
 H2013 H -0.19170 0.54886 0.98453
 H2014 H -0.15733 0.61352 1.04509
 H2015 H -0.03228 0.54773 1.06091
 H2016 H -0.06640 0.48426 0.99801
 C2017 C -0.02573 0.65802 0.52335
 C2018 C 0.00122 0.67151 0.52797
 C2019 C 0.00402 0.69549 0.54598
 C2020 C -0.01932 0.70484 0.56150
 C2021 C -0.04668 0.69236 0.55507
 C2022 C -0.04998 0.66878 0.53584
 C2023 C -0.02809 0.63078 0.50748
 C2024 C -0.05473 0.61661 0.50369
 C2025 C -0.05627 0.58928 0.49168
 C2026 C -0.03109 0.57484 0.48620
 C2027 C -0.00485 0.59044 0.48855
 C2028 C -0.00324 0.61831 0.49878
 C2029 C -0.07656 0.65451 0.53048
 C2030 C -0.07895 0.62908 0.51436
 C2031 C 0.02530 0.65947 0.51668
 C2032 C 0.02318 0.63312 0.50270
 H2033 H -0.09555 0.66259 0.53961
 H2034 H -0.09973 0.61837 0.51159
 H2035 H 0.04622 0.66976 0.52019
 H2036 H 0.04252 0.62383 0.49587
 H2037 H 0.02505 0.70541 0.55024
 H2038 H -0.06473 0.69950 0.56679
 H2039 H -0.07695 0.57829 0.48966
 H2040 H 0.01486 0.58079 0.48455
 C2041 C 0.49282 0.15699 0.03181
 C2042 C 0.51847 0.16820 0.04541
 C2043 C 0.51794 0.19207 0.06335
 C2044 C 0.49182 0.20325 0.07084
 C2045 C 0.46619 0.19257 0.05590
 C2046 C 0.46669 0.16953 0.03595
 C2047 C 0.49315 0.13023 0.01520
 C2048 C 0.46765 0.11844 0.00185
 C2049 C 0.46781 0.09130 -0.01089
 C2050 C 0.49235 0.07440 -0.00648
 C2051 C 0.51743 0.08723 0.00735
 C2052 C 0.51845 0.11533 0.01628
 C2053 C 0.44159 0.15768 0.02137
 C2054 C 0.44214 0.13289 0.00417
 C2055 C 0.54402 0.15413 0.04283
 C2056 C 0.54387 0.12768 0.02930
 H2057 H 0.42124 0.16722 0.02391
 H2058 H 0.42217 0.12411 -0.00587
 H2059 H 0.56397 0.16267 0.05321
 H2060 H 0.56367 0.11648 0.02973
 H2061 H 0.53810 0.20088 0.07281
 H2062 H 0.44590 0.20105 0.06087
 H2063 H 0.44783 0.08195 -0.02026
 H2064 H 0.53532 0.07484 0.01543
 C2065 C 0.00659 0.15618 0.96573
 C2066 C 0.03209 0.17180 0.97259
 C2067 C 0.03806 0.19668 0.95479
 C2068 C 0.01850 0.20594 0.93073
 C2069 C -0.00788 0.19135 0.92580
 C2070 C -0.01365 0.16596 0.94266
 C2071 C 0.00227 0.12781 0.98080
 C2072 C -0.02128 0.11075 0.97079
 C2073 C -0.02295 0.08239 0.98128
 C2074 C -0.00218 0.07097 1.00309
 C2075 C 0.02023 0.08916 1.01466
 C2076 C 0.02304 0.11733 1.00280
 C2077 C -0.03815 0.14906 0.93519
 C2078 C -0.04176 0.12176 0.94881
 C2079 C 0.05186 0.16121 0.99566
 C2080 C 0.04725 0.13457 1.01076
 H2081 H -0.05396 0.15641 0.91757
 H2082 H -0.06029 0.10881 0.94135
 H2083 H 0.07147 0.17320 1.00141
 H2084 H 0.06343 0.12685 1.02774
 H2085 H 0.05850 0.20794 0.95832
 H2086 H -0.02264 0.19829 0.90686
 H2087 H -0.04006 0.06894 0.97136
 H2088 H 0.03673 0.08085 1.03087
 C2089 C 0.49121 0.65486 0.47463
 C2090 C 0.46923 0.66447 0.45355
 C2091 C 0.47459 0.68824 0.43352
 C2092 C 0.50196 0.70159 0.43398
 C2093 C 0.52322 0.69251 0.45633
 C2094 C 0.51801 0.66913 0.47665
 C2095 C 0.48696 0.62796 0.49298
 C2096 C 0.50966 0.61731 0.51221
 C2097 C 0.50711 0.58978 0.52572
 C2098 C 0.48272 0.57212 0.51863
 C2099 C 0.45895 0.58460 0.50241
 C2100 C 0.46118 0.61220 0.48883
 C2101 C 0.53964 0.65870 0.49763
 C2102 C 0.53550 0.63328 0.51518
 C2103 C 0.44301 0.64902 0.45163
 C2104 C 0.43906 0.62334 0.46894
 H2105 H 0.56032 0.66970 0.49963
 H2106 H 0.55317 0.62539 0.53007
 H2107 H 0.42577 0.65622 0.43568
 H2108 H 0.41894 0.61149 0.46566
 H2109 H 0.45829 0.69501 0.41613
 H2110 H 0.54429 0.70280 0.45674
 H2111 H 0.52558 0.58108 0.53859
 H2112 H 0.43962 0.57225 0.49778
 C2113 C 0.51382 0.85177 0.44622
 C2114 C 0.50391 0.82672 0.46138
 C2115 C 0.50425 0.80081 0.44609
 C2116 C 0.51481 0.80015 0.41616
 C2117 C 0.52408 0.82567 0.40132
 C2118 C 0.52378 0.85137 0.41618
 C2119 C 0.51398 0.87898 0.46204
 C2120 C 0.52394 0.90368 0.44655
 C2121 C 0.52407 0.92940 0.46117
 C2122 C 0.51450 0.93129 0.49153
 C2123 C 0.50467 0.90611 0.50702
 C2124 C 0.50434 0.87980 0.49222
 C2125 C 0.53357 0.87668 0.40157
 C2126 C 0.53368 0.90241 0.41652
 C2127 C 0.49432 0.82824 0.49157
 C2128 C 0.49456 0.85425 0.50670
 H2129 H 0.54132 0.87659 0.37841
 H2130 H 0.54148 0.92150 0.40444
 H2131 H 0.48664 0.80914 0.50368
 H2132 H 0.48702 0.85434 0.52994
 H2133 H 0.49713 0.78121 0.45770
 H2134 H 0.53162 0.82551 0.37807
 H2135 H 0.53231 0.94793 0.44856
 H2136 H 0.49732 0.90700 0.53027
 C2137 C 0.02778 0.35498 0.94315
 C2138 C 0.02015 0.32924 0.95842
 C2139 C 0.02277 0.30369 0.94319
 C2140 C 0.03329 0.30401 0.91317
 C2141 C 0.04116 0.33003 0.89854
 C2142 C 0.03827 0.35553 0.91327
 C2143 C 0.02454 0.38196 0.95855
 C2144 C 0.03168 0.40745 0.94277
 C2145 C 0.02864 0.43295 0.95704
 C2146 C 0.01908 0.43377 0.98756
 C2147 C 0.01180 0.40783 1.00318
 C2148 C 0.01441 0.38178 0.98861
 C2149 C 0.04538 0.38163 0.89844
 C2150 C 0.04207 0.40717 0.91292
 C2151 C 0.01000 0.32971 0.98845
 C2152 C 0.00731 0.35548 1.00332
 H2153 H 0.05344 0.38231 0.87540
 H2154 H 0.04773 0.42690 0.90063
 H2155 H 0.00411 0.30999 1.00060
 H2156 H -0.00051 0.35480 1.02646
 H2157 H 0.01685 0.28366 0.95471
 H2158 H 0.04876 0.33050 0.87528
 H2159 H 0.03479 0.45211 0.94412
 H2160 H 0.00453 0.40793 1.02654
 C2161 C 0.48366 0.35608 0.05156
 C2162 C 0.48805 0.33257 0.03367
 C2163 C 0.48576 0.30498 0.04757
 C2164 C 0.47883 0.30128 0.07886
 C2165 C 0.47216 0.32496 0.09539
 C2166 C 0.47538 0.35240 0.08226
 C2167 C 0.48994 0.38506 0.03882
 C2168 C 0.48865 0.40806 0.05812
 C2169 C 0.49677 0.43517 0.04704
 C2170 C 0.50373 0.44040 0.01585
 C2171 C 0.50508 0.41694 -0.00331
 C2172 C 0.49866 0.38910 0.00832
 C2173 C 0.47274 0.37622 0.10017
 C2174 C 0.47963 0.40357 0.08843
 C2175 C 0.49645 0.33737 0.00305
 C2176 C 0.50129 0.36512 -0.00952
 H2177 H 0.46639 0.37360 0.12389
 H2178 H 0.47815 0.42134 0.10333
 H2179 H 0.49978 0.31951 -0.01116
 H2180 H 0.50795 0.36777 -0.03311
 H2181 H 0.49154 0.28679 0.03505
 H2182 H 0.46744 0.32209 0.11966
 H2183 H 0.49739 0.45219 0.06314
 H2184 H 0.51152 0.42023 -0.02692
 C2185 C -0.00754 0.85661 0.55016
 C2186 C 0.00188 0.85322 0.58156
 C2187 C -0.00170 0.82687 0.59690
 C2188 C -0.01251 0.80306 0.58079
 C2189 C -0.02324 0.80686 0.54959
 C2190 C -0.02093 0.83394 0.53415
 C2191 C -0.00240 0.88424 0.53364
 C2192 C -0.01229 0.88844 0.50242
 C2193 C -0.00763 0.91534 0.48720
 C2194 C 0.00744 0.93749 0.50305
 C2195 C 0.01848 0.93162 0.53387
 C2196 C 0.01284 0.90582 0.54941
 C2197 C -0.03063 0.83879 0.50285
 C2198 C -0.02669 0.86561 0.48741
 C2199 C 0.01609 0.87583 0.59680
 C2200 C 0.02186 0.90158 0.58084
 H2201 H -0.04125 0.82169 0.49014
 H2202 H -0.03460 0.86836 0.46338
 H2203 H 0.02351 0.87332 0.62103
 H2204 H 0.03340 0.91840 0.59321
 H2205 H 0.00565 0.82447 0.62118
 H2206 H -0.03187 0.78872 0.53706
 H2207 H -0.01582 0.91890 0.46347
 H2208 H 0.03054 0.94769 0.54685
 C2209 C 0.20841 0.33248 0.08985
 C2210 C 0.21130 0.31522 0.06453
 C2211 C 0.22490 0.32668 0.03836
 C2212 C 0.23595 0.35486 0.03811
 C2213 C 0.23072 0.37237 0.06256
 C2214 C 0.21757 0.36120 0.08873
 C2215 C 0.19875 0.31957 0.11932
 C2216 C 0.20031 0.33597 0.14569
 C2217 C 0.19898 0.32241 0.17490
 C2218 C 0.19548 0.29255 0.17843
 C2219 C 0.18863 0.27721 0.15122
 C2220 C 0.19214 0.29032 0.12165
 C2221 C 0.21554 0.37765 0.11477
 C2222 C 0.20736 0.36515 0.14295
 C2223 C 0.20233 0.28646 0.06692
 C2224 C 0.19273 0.27426 0.09494
 H2225 H 0.22220 0.39991 0.11398
 H2226 H 0.20820 0.37808 0.16321
 H2227 H 0.20401 0.27294 0.04746
 H2228 H 0.18753 0.25167 0.09624
 H2229 H 0.22848 0.31332 0.01922
 H2230 H 0.23826 0.39440 0.06189
 H2231 H 0.20612 0.33508 0.19408
 H2232 H 0.18577 0.25430 0.15303
 C2233 C 0.71110 0.83284 0.59546
 C2234 C 0.71296 0.81460 0.57076
 C2235 C 0.72465 0.82528 0.54304
 C2236 C 0.73461 0.85378 0.54060
 C2237 C 0.72994 0.87222 0.56446
 C2238 C 0.71906 0.86176 0.59222
 C2239 C 0.70395 0.82090 0.62635
 C2240 C 0.70695 0.83838 0.65185
 C2241 C 0.70776 0.82599 0.68180
 C2242 C 0.70430 0.79627 0.68705
 C2243 C 0.69654 0.77970 0.66094
 C2244 C 0.69820 0.79162 0.63053
 C2245 C 0.71849 0.87919 0.61770
 C2246 C 0.71296 0.86760 0.64719
 C2247 C 0.70509 0.78570 0.57524
 C2248 C 0.69756 0.77447 0.60454
 H2249 H 0.72434 0.90160 0.61532
 H2250 H 0.71488 0.88137 0.66677
 H2251 H 0.70597 0.77140 0.55634
 H2252 H 0.69304 0.75184 0.60728
 H2253 H 0.72784 0.81115 0.52447
 H2254 H 0.73678 0.89440 0.56224
 H2255 H 0.71591 0.83944 0.69997
 H2256 H 0.69399 0.75683 0.66401
 C2257 C 0.27095 0.66294 0.60326
 C2258 C 0.25537 0.67253 0.57617
 C2259 C 0.24536 0.65286 0.55415
 C2260 C 0.25103 0.62389 0.55908
 C2261 C 0.26628 0.61463 0.58668
 C2262 C 0.27645 0.63407 0.60874
 C2263 C 0.28068 0.68334 0.62695
 C2264 C 0.29506 0.67359 0.65470
 C2265 C 0.30008 0.69225 0.67912
 C2266 C 0.28793 0.71916 0.67687
 C2267 C 0.27867 0.73014 0.64705
 C2268 C 0.27370 0.71191 0.62236
 C2269 C 0.29205 0.62524 0.63613
 C2270 C 0.30134 0.64471 0.65866
 C2271 C 0.25019 0.70161 0.57167
 C2272 C 0.25918 0.72099 0.59441
 H2273 H 0.29660 0.60301 0.64049
 H2274 H 0.31237 0.63687 0.67996
 H2275 H 0.23851 0.70935 0.55073
 H2276 H 0.25373 0.74305 0.59058
 H2277 H 0.23407 0.66021 0.53281
 H2278 H 0.27062 0.59230 0.59069
 H2279 H 0.30971 0.68440 0.70110
 H2280 H 0.27119 0.75162 0.64414
 C2281 C 0.75776 0.17706 0.09408
 C2282 C 0.73193 0.17254 0.07639
 C2283 C 0.73063 0.15318 0.05254
 C2284 C 0.75519 0.13897 0.04554
 C2285 C 0.78142 0.14558 0.06234
 C2286 C 0.78255 0.16362 0.08729
 C2287 C 0.75854 0.19522 0.12106
 C2288 C 0.78359 0.19755 0.14066
 C2289 C 0.78291 0.21174 0.16865
 C2290 C 0.75732 0.22342 0.17673
 C2291 C 0.73353 0.22345 0.15484
 C2292 C 0.73363 0.20849 0.12778
 C2293 C 0.80778 0.16774 0.10621
 C2294 C 0.80817 0.18407 0.13274
 C2295 C 0.70762 0.18686 0.08353
 C2296 C 0.70855 0.20482 0.10861
 H2297 H 0.82711 0.15740 0.10111
 H2298 H 0.82770 0.18572 0.14744
 H2299 H 0.68760 0.18379 0.06995
 H2300 H 0.68915 0.21500 0.11381
 H2301 H 0.71027 0.14891 0.04028
 H2302 H 0.80119 0.13657 0.05670
 H2303 H 0.80139 0.21161 0.18496
 H2304 H 0.71364 0.23267 0.16004
 C2305 C 0.72453 0.18205 0.89759
 C2306 C 0.73729 0.18873 0.92685
 C2307 C 0.74136 0.16702 0.94967
 C2308 C 0.73388 0.13880 0.94286
 C2309 C 0.72027 0.13237 0.91392
 C2310 C 0.71528 0.15411 0.89115
 C2311 C 0.72308 0.20422 0.87248
 C2312 C 0.71171 0.19734 0.84276
 C2313 C 0.71458 0.21723 0.81788
 C2314 C 0.73130 0.24240 0.82215
 C2315 C 0.73891 0.25045 0.85281
 C2316 C 0.73539 0.23123 0.87797
 C2317 C 0.70243 0.14839 0.86166
 C2318 C 0.70031 0.16977 0.83797
 C2319 C 0.74720 0.21667 0.93213
 C2320 C 0.74643 0.23756 0.90800
 H2321 H 0.69481 0.12703 0.85650
 H2322 H 0.69129 0.16419 0.81521
 H2323 H 0.75685 0.22210 0.95467
 H2324 H 0.75571 0.25846 0.91256
 H2325 H 0.75185 0.17174 0.97207
 H2326 H 0.71434 0.11051 0.90899
 H2327 H 0.70659 0.21161 0.79481
 H2328 H 0.75027 0.27046 0.85705
 C2329 C 0.22440 0.68186 0.41373
 C2330 C 0.24471 0.68376 0.43899
 C2331 C 0.24565 0.66191 0.46197
 C2332 C 0.22681 0.63822 0.45945
 C2333 C 0.20574 0.63704 0.43490
 C2334 C 0.20453 0.65887 0.41174
 C2335 C 0.22555 0.70307 0.38769
 C2336 C 0.20651 0.70024 0.36153
 C2337 C 0.20977 0.71860 0.33544
 C2338 C 0.23296 0.73845 0.33458
 C2339 C 0.25055 0.74221 0.36200
 C2340 C 0.24710 0.72447 0.38843
 C2341 C 0.18504 0.65737 0.38571
 C2342 C 0.18595 0.67778 0.36108
 C2343 C 0.26487 0.70650 0.43972
 C2344 C 0.26610 0.72649 0.41480
 H2345 H 0.16955 0.63981 0.38392
 H2346 H 0.17118 0.67531 0.34096
 H2347 H 0.28052 0.70824 0.45916
 H2348 H 0.28272 0.74306 0.41570
 H2349 H 0.26217 0.66233 0.48071
 H2350 H 0.19161 0.61840 0.43288
 H2351 H 0.19595 0.71532 0.31499
 H2352 H 0.26826 0.75760 0.36239
 C2353 C 0.77833 0.81548 0.38042
 C2354 C 0.78213 0.80086 0.40933
 C2355 C 0.77677 0.81483 0.43652
 C2356 C 0.76719 0.84287 0.43446
 C2357 C 0.76291 0.85687 0.40532
 C2358 C 0.76863 0.84341 0.37825
 C2359 C 0.78403 0.80117 0.35176
 C2360 C 0.77927 0.81569 0.32311
 C2361 C 0.78076 0.80112 0.29591
 C2362 C 0.78650 0.77178 0.29642
 C2363 C 0.79403 0.75825 0.32558
 C2364 C 0.79221 0.77275 0.35339
 C2365 C 0.76520 0.85754 0.34908
 C2366 C 0.77043 0.84390 0.32195
 C2367 C 0.79150 0.77279 0.41029
 C2368 C 0.79628 0.75893 0.38282
 H2369 H 0.75799 0.87916 0.34718
 H2370 H 0.76675 0.85528 0.29977
 H2371 H 0.79468 0.76125 0.43241
 H2372 H 0.80264 0.73703 0.38463
 H2373 H 0.78087 0.80441 0.45916
 H2374 H 0.75637 0.87875 0.40395
 H2375 H 0.77308 0.81218 0.27496
 H2376 H 0.79807 0.73573 0.32690
 C2377 C 0.27129 0.30771 0.88340
 C2378 C 0.28853 0.30034 0.91000
 C2379 C 0.28790 0.31701 0.93632
 C2380 C 0.26937 0.33999 0.93599
 C2381 C 0.25166 0.34636 0.90957
 C2382 C 0.25295 0.33074 0.88300
 C2383 C 0.27255 0.29125 0.85523
 C2384 C 0.25614 0.29972 0.82866
 C2385 C 0.25684 0.28432 0.80222
 C2386 C 0.27272 0.25925 0.80144
 C2387 C 0.28962 0.25112 0.82838
 C2388 C 0.28985 0.26744 0.85537
 C2389 C 0.23670 0.33824 0.85580
 C2390 C 0.23850 0.32315 0.82893
 C2391 C 0.30612 0.27678 0.90939
 C2392 C 0.30652 0.26044 0.88270
 H2393 H 0.22269 0.35606 0.85519
 H2394 H 0.22566 0.32964 0.80826
 H2395 H 0.31954 0.27077 0.92979
 H2396 H 0.32010 0.24230 0.88345
 H2397 H 0.30174 0.31235 0.95683
 H2398 H 0.23787 0.36437 0.90927
 H2399 H 0.24383 0.29204 0.78232
 H2400 H 0.30195 0.23212 0.82856
 C2401 C 0.82091 0.42237 0.77984
 C2402 C 0.80270 0.44411 0.78630
 C2403 C 0.81322 0.47247 0.78512
 C2404 C 0.84158 0.47864 0.77752
 C2405 C 0.85938 0.45671 0.77099
 C2406 C 0.84921 0.42854 0.77209
 C2407 C 0.81011 0.39263 0.78070
 C2408 C 0.82827 0.37128 0.77349
 C2409 C 0.81771 0.34337 0.77255
 C2410 C 0.78909 0.33606 0.77882
 C2411 C 0.77122 0.35776 0.78682
 C2412 C 0.78165 0.38618 0.78759
 C2413 C 0.86681 0.40644 0.76548
 C2414 C 0.85647 0.37825 0.76608
 C2415 C 0.77447 0.43690 0.79368
 C2416 C 0.76411 0.40846 0.79425
 H2417 H 0.88866 0.41101 0.75952
 H2418 H 0.87060 0.36178 0.76044
 H2419 H 0.76019 0.45341 0.79882
 H2420 H 0.74212 0.40391 0.79966
 H2421 H 0.79964 0.48958 0.79023
 H2422 H 0.88123 0.46170 0.76519
 H2423 H 0.83147 0.32798 0.76414
 H2424 H 0.74909 0.35276 0.79131
 C2425 C 0.30783 0.91911 0.27363
 C2426 C 0.29762 0.93816 0.29418
 C2427 C 0.30935 0.96608 0.29462
 C2428 C 0.33036 0.97493 0.27396
 C2429 C 0.33967 0.95579 0.25297
 C2430 C 0.32892 0.92772 0.25311
 C2431 C 0.29666 0.88944 0.27396
 C2432 C 0.30817 0.87022 0.25467
 C2433 C 0.29820 0.84201 0.25554
 C2434 C 0.27546 0.83279 0.27397
 C2435 C 0.26417 0.85242 0.29340
 C2436 C 0.27505 0.88073 0.29379
 C2437 C 0.33942 0.90790 0.23367
 C2438 C 0.32944 0.87954 0.23470
 C2439 C 0.27623 0.92867 0.31403
 C2440 C 0.26494 0.90057 0.31362
 H2441 H 0.35578 0.91428 0.21786
 H2442 H 0.33832 0.86481 0.21956
 H2443 H 0.26808 0.94311 0.32998
 H2444 H 0.24839 0.89424 0.32919
 H2445 H 0.30235 0.98085 0.31094
 H2446 H 0.35621 0.96243 0.23746
 H2447 H 0.30814 0.82734 0.24129
 H2448 H 0.24722 0.84571 0.30831
 C2449 C 0.18687 0.88077 0.72825
 C2450 C 0.19792 0.90170 0.74836
 C2451 C 0.18109 0.92479 0.75376
 C2452 C 0.15338 0.92654 0.73963
 C2453 C 0.14277 0.90583 0.71910
 C2454 C 0.15949 0.88282 0.71326
 C2455 C 0.20366 0.85553 0.72404
 C2456 C 0.19212 0.83413 0.70491
 C2457 C 0.20692 0.80906 0.70319
 C2458 C 0.23199 0.80433 0.72217
 C2459 C 0.24458 0.82706 0.73911
 C2460 C 0.23024 0.85258 0.74047
 C2461 C 0.14908 0.86136 0.69353
 C2462 C 0.16518 0.83746 0.68932
 C2463 C 0.22513 0.89859 0.76341
 C2464 C 0.24100 0.87441 0.75957
 H2465 H 0.12806 0.86274 0.68177
 H2466 H 0.15603 0.82099 0.67460
 H2467 H 0.23392 0.91462 0.77890
 H2468 H 0.26150 0.87242 0.77236
 H2469 H 0.18904 0.94087 0.76967
 H2470 H 0.12134 0.90737 0.70835
 H2471 H 0.19791 0.79278 0.68834
 H2472 H 0.26427 0.82422 0.75319
 C2473 C 0.68270 0.38051 0.24698
 C2474 C 0.69610 0.40508 0.23431
 C2475 C 0.68218 0.43109 0.23468
 C2476 C 0.65458 0.43153 0.24596
 C2477 C 0.64012 0.40577 0.25357
 C2478 C 0.65474 0.38076 0.25663
 C2479 C 0.69832 0.35412 0.25092
 C2480 C 0.68604 0.33100 0.26718
 C2481 C 0.70059 0.30600 0.27083
 C2482 C 0.72474 0.30183 0.25414
 C2483 C 0.73777 0.32562 0.23883
 C2484 C 0.72489 0.35226 0.23804
 C2485 C 0.64254 0.35660 0.27130
 C2486 C 0.65834 0.33233 0.27744
 C2487 C 0.72344 0.40304 0.22294
 C2488 C 0.73722 0.37684 0.22391
 H2489 H 0.62104 0.35682 0.27915
 H2490 H 0.64850 0.31418 0.28940
 H2491 H 0.73406 0.42168 0.21283
 H2492 H 0.75784 0.37595 0.21405
 H2493 H 0.69329 0.45076 0.22810
 H2494 H 0.61833 0.40571 0.26069
 H2495 H 0.68995 0.28852 0.28227
 H2496 H 0.75708 0.32329 0.22677
 C2497 C 0.69765 0.58810 0.26025
 C2498 C 0.71339 0.56634 0.27552
 C2499 C 0.70155 0.53846 0.27600
 C2500 C 0.67479 0.53274 0.26042
 C2501 C 0.66028 0.55455 0.24390
 C2502 C 0.67121 0.58229 0.24428
 C2503 C 0.70853 0.61766 0.26171
 C2504 C 0.69174 0.63917 0.24795
 C2505 C 0.70203 0.66697 0.24862
 C2506 C 0.72984 0.67399 0.26115
 C2507 C 0.74633 0.65222 0.27580
 C2508 C 0.73548 0.62386 0.27645
 C2509 C 0.65536 0.60448 0.23028
 C2510 C 0.66536 0.63257 0.23234
 C2511 C 0.74001 0.57321 0.29073
 C2512 C 0.75106 0.60143 0.29079
 H2513 H 0.63487 0.60014 0.21807
 H2514 H 0.65249 0.64924 0.22134
 H2515 H 0.75245 0.55665 0.30257
 H2516 H 0.77183 0.60575 0.30237
 H2517 H 0.71238 0.52160 0.28931
 H2518 H 0.63924 0.55043 0.23300
 H2519 H 0.68905 0.68274 0.23629
 H2520 H 0.76770 0.65708 0.28555
 C2521 C 0.19343 0.07584 0.75414
 C2522 C 0.19912 0.05762 0.78018
 C2523 C 0.18330 0.03165 0.78280
 C2524 C 0.16276 0.02398 0.75901
 C2525 C 0.15817 0.04221 0.73282
 C2526 C 0.17287 0.06831 0.73054
 C2527 C 0.20834 0.10387 0.75203
 C2528 C 0.20042 0.12265 0.72739
 C2529 C 0.21248 0.14985 0.72661
 C2530 C 0.23443 0.15864 0.74849
 C2531 C 0.24262 0.13927 0.77311
 C2532 C 0.22901 0.11193 0.77532
 C2533 C 0.16652 0.08745 0.70557
 C2534 C 0.17979 0.11439 0.70427
 C2535 C 0.22000 0.06616 0.80312
 C2536 C 0.23486 0.09269 0.80059
 H2537 H 0.15062 0.08186 0.68734
 H2538 H 0.17379 0.12894 0.68502
 H2539 H 0.22478 0.05230 0.82331
 H2540 H 0.25062 0.09840 0.81890
 H2541 H 0.18674 0.01761 0.80313
 H2542 H 0.14204 0.03674 0.71482
 H2543 H 0.20317 0.16464 0.70946
 H2544 H 0.25855 0.14574 0.79091
 C2545 C 0.29206 0.11935 0.22370
 C2546 C 0.31909 0.11756 0.21170
 C2547 C 0.33603 0.09437 0.22097
 C2548 C 0.32606 0.07336 0.24215
 C2549 C 0.29847 0.07469 0.25282
 C2550 C 0.28141 0.09784 0.24388
 C2551 C 0.27573 0.14537 0.21728
 C2552 C 0.25005 0.14832 0.23172
 C2553 C 0.23711 0.17476 0.22980
 C2554 C 0.25044 0.19848 0.21474
 C2555 C 0.27374 0.19388 0.19663
 C2556 C 0.28732 0.16776 0.19902
 C2557 C 0.25471 0.10083 0.25625
 C2558 C 0.23931 0.12567 0.25030
 C2559 C 0.32927 0.13981 0.19217
 C2560 C 0.31358 0.16443 0.18579
 H2561 H 0.24620 0.08435 0.27169
 H2562 H 0.21947 0.12765 0.26150
 H2563 H 0.35000 0.13864 0.18260
 H2564 H 0.32276 0.18156 0.17166
 H2565 H 0.35749 0.09340 0.21316
 H2566 H 0.29111 0.05866 0.26955
 H2567 H 0.21845 0.17741 0.24284
 H2568 H 0.28286 0.21107 0.18273
 C2569 C 0.79762 0.62338 0.72932
 C2570 C 0.82285 0.62077 0.71385
 C2571 C 0.83955 0.59699 0.72076
 C2572 C 0.83125 0.57636 0.74318
 C2573 C 0.80523 0.57837 0.75721
 C2574 C 0.78837 0.60206 0.75056
 C2575 C 0.78209 0.65004 0.72543
 C2576 C 0.75835 0.65364 0.74297
 C2577 C 0.74630 0.68040 0.74275
 C2578 C 0.75885 0.70380 0.72643
 C2579 C 0.78016 0.69883 0.70587
 C2580 C 0.79267 0.67227 0.70621
 C2581 C 0.76356 0.60583 0.76635
 C2582 C 0.74875 0.63119 0.76256
 C2583 C 0.83187 0.64289 0.69348
 C2584 C 0.81695 0.66820 0.68964
 H2585 H 0.75618 0.58952 0.78271
 H2586 H 0.73045 0.63374 0.77620
 H2587 H 0.85121 0.64108 0.68132
 H2588 H 0.82530 0.68522 0.67473
 H2589 H 0.85995 0.59551 0.71049
 H2590 H 0.79931 0.56263 0.77495
 H2591 H 0.72907 0.68343 0.75775
 H2592 H 0.78849 0.71597 0.69125
 C2593 C 0.90063 0.74070 0.18483
 C2594 C 0.92510 0.73284 0.20313
 C2595 C 0.95192 0.73457 0.18973
 C2596 C 0.95377 0.74402 0.15838
 C2597 C 0.92865 0.74997 0.14021
 C2598 C 0.90231 0.74910 0.15336
 C2599 C 0.87276 0.74078 0.19887
 C2600 C 0.84899 0.75001 0.18057
 C2601 C 0.82281 0.75070 0.19364
 C2602 C 0.81909 0.74104 0.22472
 C2603 C 0.84330 0.73190 0.24310
 C2604 C 0.87041 0.73207 0.23023
 C2605 C 0.87777 0.75754 0.13571
 C2606 C 0.85157 0.75828 0.14920
 C2607 C 0.92212 0.72427 0.23450
 C2608 C 0.89526 0.72367 0.24772
 H2609 H 0.87895 0.76416 0.11144
 H2610 H 0.83313 0.76529 0.13491
 H2611 H 0.94071 0.71804 0.24900
 H2612 H 0.89400 0.71686 0.27191
 H2613 H 0.97121 0.72981 0.20383
 H2614 H 0.92976 0.75642 0.11586
 H2615 H 0.80525 0.75887 0.17888
 H2616 H 0.84105 0.72464 0.26702
 C2617 C 0.40513 0.24429 0.69659
 C2618 C 0.42805 0.22813 0.70881
 C2619 C 0.45444 0.23035 0.69407
 C2620 C 0.45709 0.24797 0.66681
 C2621 C 0.43274 0.26202 0.65418
 C2622 C 0.40753 0.26133 0.66941
 C2623 C 0.37767 0.24289 0.71181
 C2624 C 0.35553 0.25960 0.69929
 C2625 C 0.32925 0.25750 0.71219
 C2626 C 0.32329 0.23796 0.73707
 C2627 C 0.34616 0.22146 0.75003
 C2628 C 0.37366 0.22418 0.73754
 C2629 C 0.38466 0.27766 0.65768
 C2630 C 0.35921 0.27715 0.67267
 C2631 C 0.42376 0.21025 0.73533
 C2632 C 0.39703 0.20804 0.74914
 H2633 H 0.38648 0.29107 0.63680
 H2634 H 0.34197 0.29005 0.66281
 H2635 H 0.44106 0.19748 0.74522
 H2636 H 0.39466 0.19350 0.76900
 H2637 H 0.47262 0.21878 0.70383
 H2638 H 0.43310 0.27388 0.63216
 H2639 H 0.31267 0.26992 0.70043
 H2640 H 0.34230 0.20585 0.76858
 C2641 C 0.40679 0.75155 0.79491
 C2642 C 0.41872 0.77905 0.79829
 C2643 C 0.44332 0.78303 0.81788
 C2644 C 0.45547 0.75998 0.83518
 C2645 C 0.44438 0.73224 0.83014
 C2646 C 0.41981 0.72793 0.81002
 C2647 C 0.37913 0.74771 0.77691
 C2648 C 0.36650 0.72043 0.77428
 C2649 C 0.33905 0.71728 0.75924
 C2650 C 0.32331 0.74130 0.74912
 C2651 C 0.33749 0.76831 0.75020
 C2652 C 0.36516 0.77163 0.76405
 C2653 C 0.40699 0.70077 0.80597
 C2654 C 0.38097 0.69706 0.78819
 C2655 C 0.40485 0.80230 0.78353
 C2656 C 0.37845 0.79867 0.76683
 H2657 H 0.41678 0.68228 0.81727
 H2658 H 0.37155 0.67583 0.78637
 H2659 H 0.41395 0.82361 0.78590
 H2660 H 0.36798 0.81731 0.75678
 H2661 H 0.45204 0.80438 0.82121
 H2662 H 0.45357 0.71441 0.84340
 H2663 H 0.32999 0.69626 0.75636
 H2664 H 0.32651 0.78721 0.74181
 C2665 C 0.89576 0.24447 0.28276
 C2666 C 0.90894 0.22221 0.30023
 C2667 C 0.93453 0.22793 0.31826
 C2668 C 0.94527 0.25619 0.32095
 C2669 C 0.93212 0.27794 0.30232
 C2670 C 0.90779 0.27215 0.28285
 C2671 C 0.86761 0.23932 0.26613
 C2672 C 0.85426 0.26186 0.24947
 C2673 C 0.82619 0.25796 0.23696
 C2674 C 0.81025 0.23253 0.24329
 C2675 C 0.82481 0.20940 0.25803
 C2676 C 0.85353 0.21270 0.26945
 C2677 C 0.89434 0.29387 0.26480
 C2678 C 0.86822 0.28872 0.24804
 C2679 C 0.89513 0.19520 0.30102
 C2680 C 0.86778 0.19062 0.28626
 H2681 H 0.90364 0.31525 0.26438
 H2682 H 0.85813 0.30632 0.23525
 H2683 H 0.90492 0.17776 0.31439
 H2684 H 0.85734 0.16985 0.28883
 H2685 H 0.94409 0.21102 0.33273
 H2686 H 0.94062 0.29961 0.30334
 H2687 H 0.81591 0.27604 0.22540
 H2688 H 0.81339 0.18965 0.26303
 C2689 C 0.09347 0.26595 0.30568
 C2690 C 0.09428 0.27746 0.33524
 C2691 C 0.06917 0.27798 0.35105
 C2692 C 0.04300 0.26741 0.33762
 C2693 C 0.04253 0.25551 0.30801
 C2694 C 0.06783 0.25483 0.29186
 C2695 C 0.12009 0.26553 0.28899
 C2696 C 0.11972 0.25403 0.25939
 C2697 C 0.14549 0.25353 0.24387
 C2698 C 0.17139 0.26438 0.25805
 C2699 C 0.17069 0.27590 0.28783
 C2700 C 0.14547 0.27657 0.30317
 C2701 C 0.06814 0.24351 0.26216
 C2702 C 0.09356 0.24312 0.24626
 C2703 C 0.12023 0.28840 0.34850
 C2704 C 0.14538 0.28800 0.33272
 H2705 H 0.04856 0.23485 0.25109
 H2706 H 0.09272 0.23414 0.22350
 H2707 H 0.12110 0.29737 0.37128
 H2708 H 0.16498 0.29662 0.34383
 H2709 H 0.07009 0.28654 0.37404
 H2710 H 0.02253 0.24745 0.29728
 H2711 H 0.14545 0.24453 0.22117
 H2712 H 0.18985 0.28479 0.29948
 C2713 C 0.60341 0.77391 0.81706
 C2714 C 0.60442 0.78688 0.84586
 C2715 C 0.57970 0.78703 0.86249
 C2716 C 0.55374 0.77452 0.85066
 C2717 C 0.55306 0.76168 0.82151
 C2718 C 0.57793 0.76128 0.80465
 C2719 C 0.62970 0.77329 0.79981
 C2720 C 0.62915 0.76009 0.77112
 C2721 C 0.65469 0.75912 0.75525
 C2722 C 0.68055 0.77116 0.76820
 C2723 C 0.68003 0.78444 0.79706
 C2724 C 0.65502 0.78563 0.81272
 C2725 C 0.57800 0.74848 0.77570
 C2726 C 0.60310 0.74788 0.75929
 C2727 C 0.63026 0.79928 0.85771
 C2728 C 0.65511 0.79869 0.84140
 H2729 H 0.55851 0.73866 0.76571
 H2730 H 0.60211 0.73761 0.73723
 H2731 H 0.63133 0.80942 0.87985
 H2732 H 0.67466 0.80837 0.85148
 H2733 H 0.58091 0.79647 0.88503
 H2734 H 0.53325 0.75232 0.81176
 H2735 H 0.65451 0.74873 0.73330
 H2736 H 0.69919 0.79422 0.80777
 C2737 C 0.61698 0.24417 0.70210
 C2738 C 0.59277 0.24541 0.71951
 C2739 C 0.56533 0.24400 0.70392
 C2740 C 0.56261 0.24089 0.67145
 C2741 C 0.58709 0.23703 0.65518
 C2742 C 0.61426 0.23970 0.67003
 C2743 C 0.64571 0.24967 0.71715
 C2744 C 0.66919 0.25174 0.69869
 C2745 C 0.69596 0.25906 0.71217
 C2746 C 0.70076 0.26161 0.74470
 C2747 C 0.67677 0.25960 0.76313
 C2748 C 0.64900 0.25419 0.74920
 C2749 C 0.63866 0.24030 0.65281
 C2750 C 0.66565 0.24668 0.66681
 C2751 C 0.59673 0.24979 0.75164
 C2752 C 0.62432 0.25365 0.76629
 H2753 H 0.63676 0.23700 0.62804
 H2754 H 0.68388 0.24786 0.65250
 H2755 H 0.57833 0.25062 0.76553
 H2756 H 0.62628 0.25705 0.79102
 H2757 H 0.54650 0.24742 0.71644
 H2758 H 0.58498 0.23503 0.63015
 H2759 H 0.71319 0.26192 0.69668
 H2760 H 0.67959 0.26260 0.78789
 C2761 C 0.10082 0.74973 0.22639
 C2762 C 0.08527 0.77454 0.22176
 C2763 C 0.06061 0.77423 0.20177
 C2764 C 0.05225 0.74979 0.18527
 C2765 C 0.06668 0.72444 0.19201
 C2766 C 0.09125 0.72436 0.21245
 C2767 C 0.12893 0.75104 0.24374
 C2768 C 0.14536 0.72681 0.24658
 C2769 C 0.17342 0.72905 0.25950
 C2770 C 0.18599 0.75551 0.26793
 C2771 C 0.16820 0.77911 0.26731
 C2772 C 0.13980 0.77706 0.25495
 C2773 C 0.10767 0.70007 0.21741
 C2774 C 0.13420 0.70122 0.23438
 C2775 C 0.09589 0.79975 0.23521
 C2776 C 0.12277 0.80102 0.25142
 H2777 H 0.10049 0.68029 0.20711
 H2778 H 0.14671 0.68227 0.23662
 H2779 H 0.08394 0.81899 0.23194
 H2780 H 0.13076 0.82119 0.26015
 H2781 H 0.04921 0.79370 0.19706
 H2782 H 0.06040 0.70563 0.17937
 H2783 H 0.18539 0.71017 0.26157
 H2784 H 0.17698 0.79967 0.27406
   
