data_POSCAR
  _audit_creation_date              2014-09-24
  _audit_creation_method            'ToBaCCo'
  _symmetry_space_group_name_H-M    'P1'
  _symmetry_Int_Tables_number       1
  _symmetry_cell_setting            triclinic
  loop_
  _symmetry_equiv_pos_as_xyz
 x,y,z
_cell_length_a 41.5875
_cell_length_b 41.4872
_cell_length_c 41.5063
_cell_angle_alpha 90.004100
_cell_angle_beta 90.099200
_cell_angle_gamma 90.083600
loop_
  _atom_site_label
  _atom_site_type_symbol
  _atom_site_fract_x
  _atom_site_fract_y
  _atom_site_fract_z
C1 C 0.32845 0.46396 0.92222
 C2 C 0.31538 0.47670 0.89376
 C3 C 0.28801 0.46269 0.87942
 C4 C 0.27309 0.43634 0.89468
 C5 C 0.28587 0.42338 0.92317
 C6 C 0.31373 0.43712 0.93693
 C7 C 0.35697 0.47664 0.93518
 C8 C 0.37161 0.46245 0.96242
 C9 C 0.35618 0.43604 0.97731
 C10 C 0.32759 0.42323 0.96465
 C11 C 0.31371 0.39555 0.97823
 C12 C 0.28643 0.38113 0.96415
 C13 C 0.27226 0.39572 0.93701
 H14 H 0.32733 0.49682 0.88215
 H15 H 0.25218 0.42510 0.88380
 H16 H 0.36835 0.49684 0.92314
 H17 H 0.36693 0.42458 0.99819
 H18 H 0.32513 0.38441 0.99891
 H19 H 0.25146 0.38473 0.92566
 C20 C 0.46398 0.82901 0.42190
 C21 C 0.47665 0.85751 0.43499
 C22 C 0.46245 0.87212 0.46220
 C23 C 0.43602 0.85669 0.47692
 C24 C 0.42319 0.82812 0.46411
 C25 C 0.43710 0.81429 0.43643
 C26 C 0.47678 0.81597 0.39348
 C27 C 0.46279 0.78862 0.37904
 C28 C 0.43638 0.77371 0.39413
 C29 C 0.42335 0.78646 0.42254
 C30 C 0.39564 0.77286 0.43621
 C31 C 0.38108 0.78699 0.46333
 C32 C 0.39552 0.81424 0.47753
 H33 H 0.49689 0.86889 0.42308
 H34 H 0.42454 0.86741 0.49776
 H35 H 0.49691 0.82793 0.38198
 H36 H 0.42513 0.75281 0.38317
 H37 H 0.38463 0.75209 0.42477
 H38 H 0.38442 0.82562 0.49822
 C39 C 0.96566 0.92323 0.82796
 C40 C 0.97873 0.89518 0.81438
 C41 C 0.96460 0.88069 0.78697
 C42 C 0.93813 0.89609 0.77229
 C43 C 0.92490 0.92420 0.78556
 C44 C 0.93856 0.93772 0.81361
 C45 C 0.97819 0.93587 0.85677
 C46 C 0.96367 0.96259 0.87195
 C47 C 0.93705 0.97733 0.85680
 C48 C 0.92431 0.96494 0.82803
 C49 C 0.89636 0.97827 0.81453
 C50 C 0.88203 0.96443 0.78706
 C51 C 0.89697 0.93780 0.77233
 H52 H 0.99903 0.88385 0.82624
 H53 H 0.92675 0.88549 0.75127
 H54 H 0.99857 0.92398 0.86792
 H55 H 0.92532 0.99782 0.86794
 H56 H 0.88497 0.99854 0.82636
 H57 H 0.88607 0.92665 0.75136
 C58 C 0.46343 -0.07731 0.32748
 C59 C 0.47642 -0.10544 0.31410
 C60 C 0.46208 -0.12000 0.28701
 C61 C 0.43514 -0.10531 0.27269
 C62 C 0.42192 -0.07716 0.28581
 C63 C 0.43601 -0.06315 0.31339
 C64 C 0.47646 -0.06416 0.35574
 C65 C 0.46218 -0.03722 0.37050
 C66 C 0.43520 -0.02284 0.35590
 C67 C 0.42193 -0.03573 0.32761
 C68 C 0.39379 -0.02266 0.31433
 C69 C 0.37919 -0.03688 0.28720
 C70 C 0.39382 -0.06383 0.27278
 H71 H 0.49699 -0.11663 0.32560
 H72 H 0.42363 -0.11642 0.25202
 H73 H 0.49704 -0.07571 0.36687
 H74 H 0.42372 -0.00228 0.36716
 H75 H 0.38262 -0.00212 0.32593
 H76 H 0.38270 -0.07528 0.25208
 C77 C 0.82829 0.28646 0.32875
 C78 C 0.81506 0.27345 0.35696
 C79 C 0.78811 0.28777 0.37159
 C80 C 0.77385 0.31482 0.35693
 C81 C 0.78682 0.32808 0.32871
 C82 C 0.81421 0.31394 0.31460
 C83 C 0.85637 0.27338 0.31542
 C84 C 0.87089 0.28762 0.28831
 C85 C 0.85627 0.31464 0.27398
 C86 C 0.82821 0.32799 0.28705
 C87 C 0.81493 0.35613 0.27393
 C88 C 0.78798 0.37080 0.28820
 C89 C 0.77378 0.35624 0.31533
 H90 H 0.82654 0.25282 0.36812
 H91 H 0.75330 0.32634 0.36808
 H92 H 0.86752 0.25277 0.32695
 H93 H 0.86733 0.32610 0.25329
 H94 H 0.82635 0.36722 0.25324
 H95 H 0.75324 0.36742 0.32682
 C96 C -0.21652 0.82570 0.82448
 C97 C -0.22916 0.85421 0.81147
 C98 C -0.21442 0.86940 0.78485
 C99 C -0.18779 0.85424 0.77026
 C100 C -0.17492 0.82573 0.78306
 C101 C -0.18920 0.81148 0.81036
 C102 C -0.22949 0.81249 0.85275
 C103 C -0.21513 0.78558 0.86757
 C104 C -0.18846 0.77097 0.85272
 C105 C -0.17524 0.78391 0.82447
 C106 C -0.14695 0.77099 0.81145
 C107 C -0.13195 0.78562 0.78482
 C108 C -0.14664 0.81253 0.77028
 H109 H -0.24962 0.86531 0.82322
 H110 H -0.17593 0.86540 0.74985
 H111 H -0.24983 0.82423 0.86406
 H112 H -0.17692 0.75043 0.86398
 H113 H -0.13578 0.75047 0.82311
 H114 H -0.13523 0.82426 0.74995
 C115 C 0.92186 0.32883 0.46349
 C116 C 0.93500 0.35721 0.47640
 C117 C 0.96188 0.37217 0.46199
 C118 C 0.97618 0.35727 0.43499
 C119 C 0.96325 0.32890 0.42185
 C120 C 0.93593 0.31467 0.43605
 C121 C 0.89388 0.31532 0.47668
 C122 C 0.87939 0.28803 0.46258
 C123 C 0.89399 0.27372 0.43557
 C124 C 0.92199 0.28694 0.42214
 C125 C 0.93530 0.27378 0.39404
 C126 C 0.96220 0.28816 0.37930
 C127 C 0.97632 0.31545 0.39375
 H128 H 0.92343 0.36817 0.49706
 H129 H 0.99675 0.36829 0.42332
 H130 H 0.88276 0.32684 0.49728
 H131 H 0.88296 0.25292 0.42422
 H132 H 0.92393 0.25297 0.38305
 H133 H 0.99682 0.32702 0.38251
 C134 C 0.42224 0.46412 0.82729
 C135 C 0.43526 0.47678 0.85577
 C136 C 0.46242 0.46261 0.87020
 C137 C 0.47727 0.43626 0.85497
 C138 C 0.46452 0.42337 0.82646
 C139 C 0.43680 0.43721 0.81261
 C140 C 0.39385 0.47686 0.81432
 C141 C 0.37935 0.46276 0.78708
 C142 C 0.39439 0.43628 0.77220
 C143 C 0.42286 0.42331 0.78490
 C144 C 0.43651 0.39549 0.77146
 C145 C 0.46365 0.38100 0.78567
 C146 C 0.47793 0.39563 0.81274
 H147 H 0.42337 0.49692 0.86736
 H148 H 0.49804 0.42492 0.86595
 H149 H 0.38240 0.49704 0.82627
 H150 H 0.38334 0.42493 0.75141
 H151 H 0.42502 0.38432 0.75081
 H152 H 0.49863 0.38459 0.82416
 C153 C 0.82833 0.92284 0.96541
 C154 C 0.81488 0.89470 0.97854
 C155 C 0.78747 0.88021 0.96450
 C156 C 0.77266 0.89566 0.93809
 C157 C 0.78580 0.92381 0.92480
 C158 C 0.81385 0.93736 0.93836
 C159 C 0.85710 0.93554 0.97784
 C160 C 0.87217 0.96235 0.96326
 C161 C 0.85693 0.97710 0.93666
 C162 C 0.82815 0.96465 0.92403
 C163 C 0.81449 0.97798 0.89612
 C164 C 0.78701 0.96407 0.88188
 C165 C 0.77242 0.93741 0.89689
 H166 H 0.82682 0.88332 0.99880
 H167 H 0.75161 0.88507 0.92679
 H168 H 0.86831 0.92363 0.99822
 H169 H 0.86799 0.99763 0.92488
 H170 H 0.82623 0.99831 0.88467
 H171 H 0.75146 0.92622 0.88605
 C172 C 0.32815 0.82925 0.28554
 C173 C 0.31526 0.85778 0.27278
 C174 C 0.28812 0.87248 0.28690
 C175 C 0.27330 0.85714 0.31339
 C176 C 0.28593 0.82859 0.32632
 C177 C 0.31352 0.81464 0.31246
 C178 C 0.35645 0.81606 0.27278
 C179 C 0.37071 0.78866 0.28683
 C180 C 0.35554 0.77388 0.31328
 C181 C 0.32721 0.78677 0.32627
 C182 C 0.31342 0.77326 0.35399
 C183 C 0.28637 0.78751 0.36853
 C184 C 0.27239 0.81480 0.35404
 H185 H 0.32724 0.86909 0.25253
 H186 H 0.25250 0.86793 0.32481
 H187 H 0.36800 0.82793 0.25261
 H188 H 0.36636 0.75297 0.32456
 H189 H 0.32469 0.75246 0.36502
 H190 H 0.25178 0.82627 0.36513
 C191 C 0.82911 0.42175 0.46345
 C192 C 0.81590 0.39360 0.47671
 C193 C 0.78876 0.37892 0.46266
 C194 C 0.77427 0.39347 0.43565
 C195 C 0.78721 0.42162 0.42215
 C196 C 0.81481 0.43577 0.43603
 C197 C 0.85735 0.43510 0.47629
 C198 C 0.87207 0.46212 0.46177
 C199 C 0.85704 0.47638 0.43481
 C200 C 0.82877 0.46326 0.42178
 C201 C 0.81519 0.47629 0.39372
 C202 C 0.78806 0.46195 0.37929
 C203 C 0.77392 0.43488 0.39404
 H204 H 0.82753 0.38250 0.49729
 H205 H 0.75356 0.38229 0.42434
 H206 H 0.86843 0.42356 0.49695
 H207 H 0.86787 0.49707 0.42309
 H208 H 0.82657 0.49694 0.38248
 H209 H 0.75323 0.42334 0.38304
 C210 C 0.96578 0.82621 -0.07637
 C211 C 0.97831 0.85481 -0.06336
 C212 C 0.96371 0.86955 -0.03658
 C213 C 0.93712 0.85448 -0.02203
 C214 C 0.92437 0.82588 -0.03476
 C215 C 0.93860 0.81176 -0.06214
 C216 C 0.97884 0.81305 -0.10458
 C217 C 0.96457 0.78601 -0.11953
 C218 C 0.93798 0.77117 -0.10443
 C219 C 0.92478 0.78403 -0.07613
 C220 C 0.89669 0.77081 -0.06284
 C221 C 0.88184 0.78527 -0.03604
 C222 C 0.89637 0.81238 -0.02171
 H223 H 0.99864 0.86628 -0.07501
 H224 H 0.92545 0.86566 -0.00155
 H225 H 0.99920 0.82502 -0.11568
 H226 H 0.92649 0.75040 -0.11539
 H227 H 0.88560 0.75013 -0.07436
 H228 H 0.88506 0.82402 -0.00128
 C229 C 0.32640 0.32651 0.78455
 C230 C 0.31373 0.35525 0.77202
 C231 C 0.28701 0.37015 0.78654
 C232 C 0.27238 0.35519 0.81321
 C233 C 0.28480 0.32649 0.82601
 C234 C 0.31196 0.31211 0.81170
 C235 C 0.35443 0.31304 0.77149
 C236 C 0.36867 0.28563 0.78555
 C237 C 0.35356 0.27095 0.81210
 C238 C 0.32553 0.28415 0.82541
 C239 C 0.31210 0.27098 0.85348
 C240 C 0.28557 0.28570 0.86848
 C241 C 0.27162 0.31306 0.85406
 H242 H 0.32548 0.36663 0.75168
 H243 H 0.25200 0.36651 0.82488
 H244 H 0.36594 0.32485 0.75127
 H245 H 0.36440 0.25006 0.82341
 H246 H 0.32332 0.25011 0.86444
 H247 H 0.25139 0.32488 0.86547
 C248 C 0.17407 0.53459 0.57490
 C249 C 0.14605 0.52141 0.56141
 C250 C 0.13102 0.53618 0.53484
 C251 C 0.14535 0.56358 0.52088
 C252 C 0.17339 0.57702 0.53410
 C253 C 0.18773 0.56260 0.56131
 C254 C 0.18735 0.52141 0.60304
 C255 C 0.21383 0.53615 0.61822
 C256 C 0.22789 0.56353 0.60393
 C257 C 0.21485 0.57700 0.57582
 C258 C 0.22734 0.60576 0.56318
 C259 C 0.21279 0.62072 0.53645
 C260 C 0.18612 0.60579 0.52171
 H261 H 0.13515 0.50050 0.57264
 H262 H 0.13389 0.57544 0.50063
 H263 H 0.17606 0.50051 0.61391
 H264 H 0.24811 0.57537 0.61549
 H265 H 0.24767 0.61711 0.57501
 H266 H 0.17443 0.61717 0.50132
 C267 C 0.57669 0.71568 0.07569
 C268 C 0.60542 0.72805 0.06300
 C269 C 0.62033 0.71325 0.03642
 C270 C 0.60540 0.68643 0.02191
 C271 C 0.57667 0.67380 0.03435
 C272 C 0.56228 0.68840 0.06138
 C273 C 0.56324 0.72899 0.10365
 C274 C 0.53587 0.71506 0.11795
 C275 C 0.52112 0.68844 0.10294
 C276 C 0.53429 0.67486 0.07500
 C277 C 0.52109 0.64668 0.06174
 C278 C 0.53580 0.63141 0.03533
 C279 C 0.56320 0.64563 0.02133
 H280 H 0.61676 0.74851 0.07466
 H281 H 0.61674 0.67454 0.00165
 H282 H 0.57508 0.74929 0.11509
 H283 H 0.50022 0.67724 0.11383
 H284 H 0.50019 0.63586 0.07299
 H285 H 0.57501 0.63400 0.00120
 C286 C 0.71467 0.17190 0.67412
 C287 C 0.72821 0.18593 0.64654
 C288 C 0.71409 0.21320 0.63213
 C289 C 0.68693 0.22721 0.64666
 C290 C 0.67314 0.21347 0.67426
 C291 C 0.68694 0.18561 0.68797
 C292 C 0.72742 0.14333 0.68690
 C293 C 0.71261 0.12775 0.71323
 C294 C 0.68533 0.14223 0.72736
 C295 C 0.67228 0.17074 0.71473
 C296 C 0.64382 0.18367 0.72746
 C297 C 0.62948 0.21109 0.71353
 C298 C 0.64470 0.22612 0.68723
 H299 H 0.74892 0.17463 0.63546
 H300 H 0.67555 0.24799 0.63567
 H301 H 0.74831 0.13270 0.67548
 H302 H 0.67333 0.13074 0.74750
 H303 H 0.63224 0.17162 0.74750
 H304 H 0.63383 0.24705 0.67603
 C305 C 1.07456 0.03292 0.17461
 C306 C 1.10287 0.02013 0.18782
 C307 C 1.11765 0.03469 0.21469
 C308 C 1.10270 0.06136 0.22928
 C309 C 1.07439 0.07439 0.21635
 C310 C 1.06034 0.06027 0.18879
 C311 C 1.06158 0.02008 0.14614
 C312 C 1.03493 0.03468 0.13093
 C313 C 1.02028 0.06139 0.14603
 C314 C 1.03300 0.07443 0.17453
 C315 C 1.02009 0.10274 0.18772
 C316 C 1.03451 0.11753 0.21466
 C317 C 1.06121 0.10266 0.22928
 H318 H 1.11424 -0.00024 0.17612
 H319 H 1.11392 0.07303 0.24980
 H320 H 1.07339 -0.00040 0.13505
 H321 H 0.99983 0.07315 0.13487
 H322 H 0.99973 0.11407 0.17599
 H323 H 1.07280 0.11391 0.24983
 C324 C 0.03414 0.17361 1.07548
 C325 C 0.02106 0.14534 1.06225
 C326 C 0.03579 0.12999 1.03577
 C327 C 0.06298 0.14467 1.02161
 C328 C 0.07637 0.17284 1.03469
 C329 C 0.06201 0.18730 1.06182
 C330 C 0.02093 0.18716 1.10347
 C331 C 0.03554 0.21390 1.11843
 C332 C 0.06285 0.22791 1.10408
 C333 C 0.07631 0.21463 1.07611
 C334 C 0.10498 0.22712 1.06340
 C335 C 0.11993 0.21241 1.03678
 C336 C 0.10504 0.18561 1.02222
 H337 H 0.00019 0.13459 1.07365
 H338 H 0.07487 0.13339 1.00130
 H339 H 0.00012 0.17587 1.11441
 H340 H 0.07461 0.24828 1.11549
 H341 H 0.11626 0.24760 1.07508
 H342 H 0.11639 0.17382 1.00190
 C343 C 0.17284 0.67396 0.71469
 C344 C 0.14445 0.68689 0.72753
 C345 C 0.12923 0.71332 0.71272
 C346 C 0.14347 0.72741 0.68536
 C347 C 0.17181 0.71472 0.67224
 C348 C 0.18654 0.68785 0.68688
 C349 C 0.18666 0.64623 0.72814
 C350 C 0.21374 0.63174 0.71389
 C351 C 0.22777 0.64633 0.68670
 C352 C 0.21420 0.67405 0.67297
 C353 C 0.22681 0.68704 0.64445
 C354 C 0.21190 0.71344 0.62928
 C355 C 0.18468 0.72745 0.64371
 H356 H 0.13361 0.67556 0.74840
 H357 H 0.13187 0.74754 0.67345
 H358 H 0.17537 0.63511 0.74888
 H359 H 0.24840 0.63529 0.67523
 H360 H 0.24759 0.67578 0.63348
 H361 H 0.17271 0.74758 0.63216
 C362 C 1.21479 0.17297 0.17343
 C363 C 1.22793 0.14483 0.18672
 C364 C 1.21382 0.13005 0.21389
 C365 C 1.18735 0.14525 0.22871
 C366 C 1.17404 0.17344 0.21569
 C367 C 1.18766 0.18725 0.18783
 C368 C 1.22722 0.18585 0.14479
 C369 C 1.21258 0.21258 0.12993
 C370 C 1.18595 0.22713 0.14489
 C371 C 1.17330 0.21453 0.17356
 C372 C 1.14534 0.22762 0.18705
 C373 C 1.13104 0.21347 0.21434
 C374 C 1.14604 0.18680 0.22892
 H375 H 1.24824 0.13367 0.17480
 H376 H 1.17599 0.13441 0.24958
 H377 H 1.24757 0.17419 0.13342
 H378 H 1.17422 0.24755 0.13361
 H379 H 1.13392 0.24796 0.17533
 H380 H 1.13513 0.17542 0.24973
 C381 C 0.67469 1.07618 0.53458
 C382 C 0.64660 1.06282 0.52134
 C383 C 0.63158 1.03609 0.53587
 C384 C 0.64596 1.02193 0.56314
 C385 C 0.67400 1.03503 0.57665
 C386 C 0.68837 1.06234 0.56242
 C387 C 0.68805 1.10439 0.52158
 C388 C 0.71464 1.11959 0.53639
 C389 C 0.72878 1.10479 0.56357
 C390 C 0.71560 1.07663 0.57684
 C391 C 0.72809 1.06369 0.60547
 C392 C 0.71345 1.03690 0.62028
 C393 C 0.68673 1.02237 0.60529
 H394 H 0.63564 1.07421 0.50054
 H395 H 0.63453 1.00156 0.57484
 H396 H 0.67665 1.11524 0.50072
 H397 H 0.74916 1.11595 0.57550
 H398 H 0.74850 1.07534 0.61687
 H399 H 0.67499 1.00193 0.61654
 C400 C 0.53318 0.57500 0.17505
 C401 C 0.52027 0.56168 0.14678
 C402 C 0.53477 0.53483 0.13202
 C403 C 0.56157 0.52041 0.14692
 C404 C 0.57475 0.53347 0.17519
 C405 C 0.56063 0.56096 0.18925
 C406 C 0.52038 0.60343 0.18803
 C407 C 0.53499 0.61848 0.21471
 C408 C 0.56180 0.60375 0.22929
 C409 C 0.57487 0.57533 0.21657
 C410 C 0.60326 0.56236 0.22943
 C411 C 0.61805 0.53551 0.21500
 C412 C 0.60312 0.52076 0.18832
 H413 H 0.49982 0.57326 0.13545
 H414 H 0.57322 0.49995 0.13568
 H415 H 0.49993 0.61464 0.17633
 H416 H 0.57353 0.61519 0.24965
 H417 H 0.61463 0.57419 0.24977
 H418 H 0.61436 0.50025 0.17674
 C419 C 0.67372 0.71563 0.17318
 C420 C 0.64569 0.72871 0.18658
 C421 C 0.63141 0.71467 0.21395
 C422 C 0.64649 0.68815 0.22872
 C423 C 0.67455 0.67483 0.21559
 C424 C 0.68814 0.68849 0.18762
 C425 C 0.68638 0.72810 0.14444
 C426 C 0.71306 0.71351 0.12957
 C427 C 0.72771 0.68685 0.14456
 C428 C 0.71529 0.67414 0.17328
 C429 C 0.72845 0.64609 0.18677
 C430 C 0.71447 0.63174 0.21412
 C431 C 0.68795 0.64678 0.22880
 H432 H 0.63421 0.74894 0.17472
 H433 H 0.63562 0.67687 0.24959
 H434 H 0.67463 0.74843 0.13303
 H435 H 0.74807 0.67515 0.13327
 H436 H 0.74867 0.63463 0.17498
 H437 H 0.67672 0.63586 0.24968
 C438 C 0.17343 0.03407 1.07614
 C439 C 0.14521 0.02108 1.06280
 C440 C 0.13006 0.03585 1.03615
 C441 C 0.14489 0.06295 1.02193
 C442 C 0.17304 0.07621 1.03508
 C443 C 0.18730 0.06184 1.06236
 C444 C 0.18675 0.02084 1.10430
 C445 C 0.21347 0.03541 1.11948
 C446 C 0.22774 0.06257 1.10474
 C447 C 0.21463 0.07603 1.07666
 C448 C 0.22732 0.10464 1.06382
 C449 C 0.21278 0.11961 1.03709
 C450 C 0.18600 0.10479 1.02249
 H451 H 0.13434 0.00026 1.07425
 H452 H 0.13376 0.07485 1.00150
 H453 H 0.17523 0.00004 1.11513
 H454 H 0.24824 0.07434 1.11587
 H455 H 0.24779 0.11589 1.07550
 H456 H 0.17434 0.11615 1.00206
 C457 C 0.57536 0.17480 0.53424
 C458 C 0.60353 0.18803 0.52123
 C459 C 0.61879 0.21440 0.53615
 C460 C 0.60455 0.22843 0.56351
 C461 C 0.57640 0.21544 0.57679
 C462 C 0.56181 0.18842 0.56222
 C463 C 0.56185 0.14680 0.52098
 C464 C 0.53529 0.13177 0.53567
 C465 C 0.52129 0.14613 0.56295
 C466 C 0.53456 0.17410 0.57648
 C467 C 0.52222 0.18671 0.60523
 C468 C 0.53707 0.21319 0.62037
 C469 C 0.56382 0.22779 0.60558
 H470 H 0.61437 0.17675 0.50035
 H471 H 0.61618 0.24854 0.57549
 H472 H 0.57309 0.13586 0.50013
 H473 H 0.50102 0.13467 0.57472
 H474 H 0.50179 0.17500 0.61647
 H475 H 0.57572 0.24801 0.61711
 C476 C 0.07530 0.53468 0.67443
 C477 C 0.10328 0.52151 0.68795
 C478 C 0.11837 0.53630 0.71450
 C479 C 0.10412 0.56374 0.72841
 C480 C 0.07610 0.57717 0.71517
 C481 C 0.06172 0.56270 0.68797
 C482 C 0.06195 0.52143 0.64633
 C483 C 0.03548 0.53613 0.63114
 C484 C 0.02152 0.56355 0.64538
 C485 C 0.03462 0.57707 0.67346
 C486 C 0.02218 0.60584 0.68608
 C487 C 0.03674 0.62082 0.71282
 C488 C 0.06341 0.60593 0.72754
 H489 H 0.11412 0.50057 0.67675
 H490 H 0.11561 0.57562 0.74865
 H491 H 0.07317 0.50051 0.63549
 H492 H 0.00132 0.57535 0.63382
 H493 H 0.00186 0.61716 0.67426
 H494 H 0.07512 0.61732 0.74794
 C495 C 0.67345 0.57657 0.03441
 C496 C 0.64537 0.56315 0.02131
 C497 C 0.63108 0.53576 0.03533
 C498 C 0.64621 0.52097 0.06183
 C499 C 0.67431 0.53412 0.07517
 C500 C 0.68792 0.56213 0.06155
 C501 C 0.68612 0.60534 0.02198
 C502 C 0.71283 0.62027 0.03659
 C503 C 0.72753 0.60529 0.06325
 C504 C 0.71511 0.57652 0.07594
 C505 C 0.72829 0.56303 0.10398
 C506 C 0.71429 0.53564 0.11831
 C507 C 0.68773 0.52091 0.10323
 H508 H 0.63384 0.57502 0.00111
 H509 H 0.63533 0.50006 0.07308
 H510 H 0.67433 0.61672 0.00164
 H511 H 0.74792 0.61664 0.07498
 H512 H 0.74854 0.57487 0.11547
 H513 H 0.67648 0.50001 0.11414
 C514 C 0.03532 0.67395 0.57693
 C515 C 0.02268 0.68696 0.60542
 C516 C 0.03759 0.71343 0.62061
 C517 C 0.06485 0.72746 0.60621
 C518 C 0.07775 0.71470 0.57773
 C519 C 0.06302 0.68779 0.56306
 C520 C 0.02173 0.64618 0.56315
 C521 C 0.03576 0.63164 0.53594
 C522 C 0.06289 0.64618 0.52176
 C523 C 0.07674 0.67393 0.53527
 C524 C 0.10517 0.68690 0.52249
 C525 C 0.12041 0.71335 0.53733
 C526 C 0.10614 0.72742 0.56466
 H527 H 0.00186 0.67567 0.61636
 H528 H 0.07682 0.74761 0.61778
 H529 H 0.00107 0.63510 0.57458
 H530 H 0.07420 0.63511 0.50102
 H531 H 0.11603 0.67559 0.50163
 H532 H 0.11774 0.74758 0.57658
 C533 C 0.53590 1.07643 0.67271
 C534 C 0.52248 1.06281 0.64480
 C535 C 0.53676 1.03580 0.62987
 C536 C 0.56389 1.02159 0.64463
 C537 C 0.57755 1.03500 0.67255
 C538 C 0.56362 1.06261 0.68654
 C539 C 0.52302 1.10477 0.68590
 C540 C 0.53773 1.11983 0.71253
 C541 C 0.56501 1.10544 0.72657
 C542 C 0.57814 1.07714 0.71364
 C543 C 0.60655 1.06413 0.72642
 C544 C 0.62104 1.03698 0.71225
 C545 C 0.60600 1.02226 0.68560
 H546 H 0.50169 1.07429 0.63398
 H547 H 0.57543 1.00091 0.63366
 H548 H 0.50220 1.11572 0.67461
 H549 H 0.57683 1.11689 0.74687
 H550 H 0.61798 1.07596 0.74673
 H551 H 0.61702 1.00153 0.67420
 C552 C 0.42337 0.32698 0.96539
 C553 C 0.43584 0.35588 0.97781
 C554 C 0.46248 0.37112 0.96325
 C555 C 0.47727 0.35594 0.93667
 C556 C 0.46501 0.32704 0.92403
 C557 C 0.43791 0.31255 0.93835
 C558 C 0.39540 0.31336 0.97848
 C559 C 0.38128 0.28581 0.96453
 C560 C 0.39648 0.27106 0.93811
 C561 C 0.42449 0.28438 0.92480
 C562 C 0.43804 0.27111 0.89687
 C563 C 0.46454 0.28591 0.88183
 C564 C 0.47832 0.31349 0.89609
 H565 H 0.42390 0.36704 0.99815
 H566 H 0.49768 0.36715 0.92489
 H567 H 0.38382 0.32521 0.99863
 H568 H 0.38574 0.25003 0.92690
 H569 H 0.42695 0.25007 0.88604
 H570 H 0.49850 0.32539 0.88462
 C571 C 0.92159 0.46321 0.32871
 C572 C 0.93485 0.47627 0.35692
 C573 C 0.96181 0.46194 0.37182
 C574 C 0.97611 0.43491 0.35698
 C575 C 0.96306 0.42162 0.32875
 C576 C 0.93563 0.43573 0.31461
 C577 C 0.89349 0.47630 0.31534
 C578 C 0.87888 0.46202 0.28825
 C579 C 0.89346 0.43498 0.27395
 C580 C 0.92156 0.42166 0.28705
 C581 C 0.93482 0.39352 0.27395
 C582 C 0.96182 0.37888 0.28824
 C583 C 0.97608 0.39347 0.31537
 H584 H 0.92328 0.49697 0.36783
 H585 H 0.99675 0.42331 0.36797
 H586 H 0.88237 0.49692 0.32683
 H587 H 0.88234 0.42351 0.25327
 H588 H 0.92334 0.38241 0.25326
 H589 H 0.99667 0.38230 0.32687
 C590 C 0.32889 0.96482 0.42193
 C591 C 0.31582 0.97751 0.39342
 C592 C 0.28832 0.96357 0.37919
 C593 C 0.27334 0.93736 0.39460
 C594 C 0.28613 0.92443 0.42307
 C595 C 0.31407 0.93809 0.43675
 C596 C 0.35748 0.97740 0.43488
 C597 C 0.37206 0.96323 0.46219
 C598 C 0.35653 0.93692 0.47712
 C599 C 0.32790 0.92419 0.46449
 C600 C 0.31395 0.89659 0.47813
 C601 C 0.28661 0.88224 0.46410
 C602 C 0.27243 0.89686 0.43698
 H603 H 0.32784 0.99751 0.38168
 H604 H 0.25234 0.92617 0.38383
 H605 H 0.36895 0.99752 0.42278
 H606 H 0.36722 0.92546 0.49803
 H607 H 0.32536 0.88543 0.49881
 H608 H 0.25158 0.88593 0.42569
 O609 O 0.16450 0.54131 0.74800
 O610 O 0.17646 0.53823 0.80475
 O611 O 0.24775 0.58600 0.70907
 O612 O 0.30133 0.57736 0.71001
 O613 O 0.20856 0.50243 0.66426
 O614 O 0.21143 0.44558 0.67595
 O615 O 0.33402 0.49716 0.79150
 O616 O 0.32508 0.55368 0.78567
 O617 O 0.25334 0.45846 0.83399
 O618 O 0.19448 0.46136 0.82280
 O619 O 0.29142 0.41596 0.75239
 O620 O 0.28818 0.42763 0.69366
 O621 O 0.33387 0.45858 0.75268
 O622 O 0.32242 0.46225 0.69377
 O623 O 0.25300 0.41584 0.79118
 O624 O 0.19422 0.42722 0.78827
 O625 O 0.29212 0.49705 0.83392
 O626 O 0.28803 0.55518 0.82382
 O627 O 0.16421 0.50262 0.70917
 O628 O 0.17577 0.44555 0.71221
 O629 O 0.24712 0.54135 0.66437
 O630 O 0.30463 0.53588 0.67622
 O631 O 0.20898 0.58580 0.74766
 O632 O 0.21269 0.57413 0.80470
 Zr633 Zr 0.21118 0.53921 0.76763
 O634 O 0.23950 0.51067 0.79846
 Zr635 Zr 0.26739 0.53930 0.71080
 O636 O 0.29844 0.51101 0.73928
 Zr637 Zr 0.21070 0.48259 0.71095
 O638 O 0.23924 0.45158 0.73914
 Zr639 Zr 0.28835 0.51846 0.78823
 O640 O 0.26010 0.55007 0.75991
 Zr641 Zr 0.23179 0.46172 0.78816
 O642 O 0.20025 0.49021 0.75999
 Zr643 Zr 0.28809 0.46199 0.73137
 O644 O 0.25951 0.49031 0.70003
 O645 O 0.21886 0.53124 0.71892
 O646 O 0.28059 0.46951 0.78034
 C647 C 0.15077 0.52558 0.72505
 C648 C 0.22469 0.59947 0.72473
 C649 C 0.22429 0.52547 0.65070
 C650 C 0.34723 0.47379 0.77613
 C651 C 0.27685 0.47368 0.84726
 C652 C 0.27623 0.40252 0.77577
 H653 H 0.23426 0.51572 0.82110
 H654 H 0.23401 0.42894 0.73386
 H655 H 0.20507 0.54502 0.70524
 H656 H 0.32110 0.51632 0.73442
 H657 H 0.31543 0.57303 0.77560
 H658 H 0.32066 0.56994 0.72176
 H659 H 0.19707 0.41317 0.76924
 H660 H 0.16523 0.44698 0.73353
 H661 H 0.26861 0.55241 0.83724
 H662 H 0.23388 0.58491 0.80307
 H663 H 0.26917 0.41357 0.69649
 H664 H 0.23273 0.44675 0.66541
 H665 H 0.16606 0.51677 0.80369
 H666 H 0.19745 0.48031 0.83696
 H667 H 0.30120 0.51549 0.66430
 H668 H 0.33673 0.48103 0.69708
 O669 O 0.24687 0.08561 0.20830
 O670 O 0.30365 0.07432 0.21092
 O671 O 0.20834 0.00189 0.16392
 O672 O 0.20991 -0.05189 0.17272
 O673 O 0.16398 0.04055 0.24782
 O674 O 0.17616 0.03793 0.30448
 O675 O 0.29239 -0.08361 0.25272
 O676 O 0.28595 -0.07508 0.19635
 O677 O 0.33399 -0.00217 0.29099
 O678 O 0.32226 0.05692 0.28736
 O679 O 0.25372 -0.04114 0.33375
 O680 O 0.19462 -0.03862 0.32243
 O681 O 0.25382 -0.08386 0.29130
 O682 O 0.19505 -0.07332 0.28836
 O683 O 0.29199 -0.00205 0.33360
 O684 O 0.28819 0.05665 0.32209
 O685 O 0.33398 -0.04114 0.25256
 O686 O 0.32330 -0.03698 0.19407
 O687 O 0.20847 0.08559 0.24715
 O688 O 0.21199 0.07410 0.30419
 O689 O 0.16404 0.00190 0.20898
 O690 O 0.17646 -0.05556 0.21438
 O691 O 0.24666 0.04097 0.16388
 O692 O 0.30361 0.03804 0.17521
 Zr693 Zr 0.26689 0.03909 0.21034
 O694 O 0.29816 0.01116 0.23876
 Zr695 Zr 0.21063 -0.01784 0.21068
 O696 O 0.23958 -0.04859 0.23892
 Zr697 Zr 0.21077 0.03903 0.26726
 O698 O 0.23942 0.01084 0.29818
 Zr699 Zr 0.28830 -0.03794 0.23119
 O700 O 0.25951 -0.01004 0.19967
 Zr701 Zr 0.28816 0.01897 0.28769
 O702 O 0.25952 0.05013 0.25930
 Zr703 Zr 0.23207 -0.03823 0.28794
 O704 O 0.20027 -0.01004 0.25972
 O705 O 0.21839 0.03089 0.21859
 O706 O 0.28074 -0.03007 0.28010
 C707 C 0.22395 0.09926 0.22402
 C708 C 0.22371 0.02516 0.15025
 C709 C 0.15034 0.02461 0.22496
 C710 C 0.27740 -0.09707 0.27624
 C711 C 0.34724 -0.02572 0.27592
 C712 C 0.27704 -0.02560 0.34699
 H713 H 0.32067 0.01667 0.23354
 H714 H 0.23428 0.01604 0.32083
 H715 H 0.20450 0.04454 0.20488
 H716 H 0.23491 -0.07138 0.23374
 H717 H 0.27550 -0.06574 0.17704
 H718 H 0.22181 -0.07114 0.18015
 H719 H 0.26930 0.05362 0.33621
 H720 H 0.23313 0.08496 0.30259
 H721 H 0.33723 -0.01793 0.19736
 H722 H 0.30227 0.01668 0.16466
 H723 H 0.19776 -0.01987 0.33682
 H724 H 0.16597 0.01637 0.30358
 H725 H 0.30271 0.08478 0.23233
 H726 H 0.33674 0.05356 0.26879
 H727 H 0.16487 -0.05238 0.23494
 H728 H 0.19797 -0.08730 0.26929
 O729 O 0.50203 0.66488 0.20885
 O730 O 0.44550 0.67663 0.21124
 O731 O 0.54081 0.74880 0.16392
 O732 O 0.54026 0.80228 0.17266
 O733 O 0.58547 0.70947 0.24763
 O734 O 0.57380 0.71280 0.30446
 O735 O 0.45806 0.83473 0.25225
 O736 O 0.46414 0.82573 0.19587
 O737 O 0.41596 0.75390 0.29104
 O738 O 0.42721 0.69488 0.28818
 O739 O 0.49719 0.79265 0.33356
 O740 O 0.55568 0.78978 0.32237
 O741 O 0.49676 0.83484 0.29093
 O742 O 0.55584 0.82368 0.28735
 O743 O 0.45849 0.75400 0.33364
 O744 O 0.46166 0.69492 0.32246
 O745 O 0.41603 0.79263 0.25238
 O746 O 0.42639 0.78804 0.19403
 O747 O 0.54061 0.66489 0.24775
 O748 O 0.53768 0.67687 0.30461
 O749 O 0.58542 0.74803 0.20870
 O750 O 0.57347 0.80583 0.21438
 O751 O 0.50249 0.70963 0.16402
 O752 O 0.44553 0.71280 0.17551
 Zr753 Zr 0.48246 0.71165 0.21055
 O754 O 0.45152 0.73994 0.23891
 Zr755 Zr 0.53909 0.76828 0.21065
 O756 O 0.51046 0.79935 0.23868
 Zr757 Zr 0.53888 0.71164 0.26740
 O758 O 0.51060 0.74021 0.29822
 Zr759 Zr 0.46164 0.78893 0.23104
 O760 O 0.49012 0.76070 0.19968
 Zr761 Zr 0.46172 0.73245 0.28790
 O762 O 0.48997 0.70092 0.25959
 Zr763 Zr 0.51830 0.78916 0.28769
 O764 O 0.54975 0.76057 0.25965
 O765 O 0.53104 0.71959 0.21870
 O766 O 0.46947 0.78135 0.27999
 C767 C 0.52476 0.65121 0.22486
 C768 C 0.52523 0.72564 0.15038
 C769 C 0.59902 0.72518 0.22460
 C770 C 0.47328 0.84803 0.27572
 C771 C 0.40273 0.77740 0.27579
 C772 C 0.47378 0.77746 0.34690
 H773 H 0.42895 0.73455 0.23379
 H774 H 0.51582 0.73510 0.32088
 H775 H 0.54467 0.70574 0.20497
 H776 H 0.51527 0.82208 0.23335
 H777 H 0.47439 0.81613 0.17662
 H778 H 0.52811 0.82145 0.17981
 H779 H 0.48040 0.69816 0.33681
 H780 H 0.51635 0.66633 0.30332
 H781 H 0.41249 0.76897 0.19732
 H782 H 0.44700 0.73408 0.16482
 H783 H 0.55316 0.77050 0.33615
 H784 H 0.58435 0.73416 0.30315
 H785 H 0.44621 0.66654 0.23284
 H786 H 0.41298 0.69786 0.26930
 H787 H 0.58558 0.80222 0.23461
 H788 H 0.55226 0.83823 0.26882
 O789 O -0.04086 0.83645 0.75321
 O790 O -0.03755 0.82519 0.69610
 O791 O -0.08579 0.75233 0.79050
 O792 O -0.07688 0.69885 0.79014
 O793 O -0.00217 0.79156 0.83614
 O794 O 0.05463 0.78831 0.82450
 O795 O 0.00272 0.66663 0.70815
 O796 O -0.05362 0.67588 0.71386
 O797 O 0.04158 0.74801 0.66617
 O798 O 0.03850 0.80705 0.67791
 O799 O 0.08382 0.70891 0.74721
 O800 O 0.07247 0.71187 0.80615
 O801 O 0.04116 0.66645 0.74709
 O802 O 0.03792 0.67756 0.80591
 O803 O 0.08398 0.74790 0.70882
 O804 O 0.07294 0.80669 0.71224
 O805 O 0.00319 0.70902 0.66599
 O806 O -0.05498 0.71335 0.67601
 O807 O -0.00226 0.83620 0.79201
 O808 O 0.05462 0.82464 0.78853
 O809 O -0.04115 0.75317 0.83576
 O810 O -0.03556 0.69544 0.82363
 O811 O -0.08546 0.79158 0.75225
 O812 O -0.07353 0.78924 0.69557
 Zr813 Zr -0.03881 0.78990 0.73281
 O814 O -0.01051 0.76163 0.70176
 Zr815 Zr -0.03903 0.73298 0.78922
 O816 O -0.01089 0.70205 0.76052
 Zr817 Zr 0.01764 0.78965 0.78954
 O818 O 0.04850 0.76127 0.76110
 Zr819 Zr -0.01832 0.71255 0.71162
 O820 O -0.04969 0.74077 0.74013
 Zr821 Zr 0.03832 0.76922 0.71214
 O822 O 0.01008 0.80066 0.74059
 Zr823 Zr 0.03804 0.71226 0.76851
 O824 O 0.00986 0.74065 0.80010
 O825 O -0.03095 0.78168 0.78146
 O826 O 0.03051 0.72022 0.71960
 C827 C -0.02528 0.84997 0.77647
 C828 C -0.09928 0.77540 0.77476
 C829 C -0.02535 0.77602 0.84963
 C830 C 0.02595 0.65318 0.72359
 C831 C 0.02650 0.72446 0.65277
 C832 C 0.09717 0.72432 0.72391
 H833 H -0.01557 0.76709 0.67916
 H834 H 0.07110 0.76641 0.76641
 H835 H -0.04483 0.79532 0.79515
 H836 H -0.01623 0.67931 0.76526
 H837 H -0.07284 0.68554 0.72406
 H838 H -0.06969 0.67975 0.77785
 H839 H 0.08678 0.80379 0.73142
 H840 H 0.05312 0.83546 0.76732
 H841 H -0.05175 0.73256 0.66229
 H842 H -0.08383 0.76773 0.69633
 H843 H 0.08668 0.73077 0.80325
 H844 H 0.05326 0.76692 0.83498
 H845 H -0.01624 0.83575 0.69759
 H846 H 0.01973 0.80404 0.66355
 H847 H -0.01534 0.69896 0.83576
 H848 H 0.01888 0.66358 0.80283
 O849 O 0.00255 0.08544 0.04130
 O850 O -0.05422 0.07367 0.03818
 O851 O 0.04078 0.00175 0.08626
 O852 O 0.04034 -0.05182 0.07739
 O853 O 0.08570 0.04118 0.00275
 O854 O 0.07405 0.03782 -0.05420
 O855 O -0.04121 -0.08468 -0.00254
 O856 O -0.03562 -0.07537 0.05389
 O857 O -0.08382 -0.00363 -0.04141
 O858 O -0.07251 0.05529 -0.03862
 O859 O -0.00260 -0.04219 -0.08379
 O860 O 0.05614 -0.03879 -0.07225
 O861 O -0.00240 -0.08462 -0.04097
 O862 O 0.05618 -0.07304 -0.03767
 O863 O -0.04113 -0.00359 -0.08398
 O864 O -0.03807 0.05541 -0.07267
 O865 O -0.08371 -0.04253 -0.00302
 O866 O -0.07363 -0.03827 0.05515
 O867 O 0.04119 0.08547 0.00268
 O868 O 0.03793 0.07382 -0.05429
 O869 O 0.08563 0.00270 0.04166
 O870 O 0.07381 -0.05509 0.03602
 O871 O 0.00240 0.04066 0.08600
 O872 O -0.05437 0.03756 0.07406
 Zr873 Zr -0.01733 0.03869 0.03927
 O874 O -0.04820 0.01025 0.01076
 Zr875 Zr 0.03930 -0.01776 0.03946
 O876 O 0.01078 -0.04888 0.01117
 Zr877 Zr 0.03916 0.03887 -0.01725
 O878 O 0.01091 0.01029 -0.04827
 Zr879 Zr -0.03809 -0.03874 0.01854
 O880 O -0.00972 -0.01036 0.05011
 Zr881 Zr -0.03799 0.01783 -0.03816
 O882 O -0.00976 0.04947 -0.00972
 Zr883 Zr 0.01863 -0.03864 -0.03783
 O884 O 0.05002 -0.01003 -0.00950
 O885 O 0.03124 0.03087 0.03141
 O886 O -0.03026 -0.03110 -0.03039
 C887 C 0.02559 0.09914 0.02569
 C888 C 0.02517 0.02483 0.09987
 C889 C 0.09931 0.02568 0.02594
 C890 C -0.02573 -0.09804 -0.02575
 C891 C -0.09718 -0.02723 -0.02636
 C892 C -0.02597 -0.02704 -0.09733
 H893 H -0.07079 0.01556 0.01579
 H894 H 0.01614 0.01546 -0.07090
 H895 H 0.04486 0.04466 0.04529
 H896 H 0.01565 -0.07157 0.01651
 H897 H -0.02545 -0.06563 0.07318
 H898 H 0.02827 -0.07105 0.07010
 H899 H -0.01917 0.05242 -0.08678
 H900 H 0.01665 0.08438 -0.05293
 H901 H -0.08714 -0.01890 0.05221
 H902 H -0.05315 0.01618 0.08458
 H903 H 0.05319 -0.01984 -0.08640
 H904 H 0.08465 0.01652 -0.05282
 H905 H -0.05308 0.08407 0.01675
 H906 H -0.08647 0.05252 -0.01955
 H907 H 0.08589 -0.05149 0.01580
 H908 H 0.05325 -0.08701 -0.01859
 O909 O 0.08488 0.54128 0.50145
 O910 O 0.07302 0.53854 0.44477
 O911 O 0.00161 0.58584 0.54049
 O912 O -0.05200 0.57708 0.53922
 O913 O 0.04069 0.50238 0.58514
 O914 O 0.03770 0.44557 0.57351
 O915 O -0.08440 0.49665 0.45731
 O916 O -0.07574 0.55311 0.46316
 O917 O -0.00367 0.45805 0.41544
 O918 O 0.05517 0.46138 0.42668
 O919 O -0.04225 0.41591 0.49639
 O920 O -0.03892 0.42732 0.55541
 O921 O -0.08433 0.45820 0.49616
 O922 O -0.07323 0.46188 0.55522
 O923 O -0.00374 0.41587 0.45777
 O924 O 0.05539 0.42729 0.46152
 O925 O -0.04247 0.49642 0.41537
 O926 O -0.03807 0.55508 0.42553
 O927 O 0.08509 0.50255 0.54023
 O928 O 0.07340 0.44548 0.53729
 O929 O 0.00210 0.54115 0.58501
 O930 O -0.05548 0.53549 0.57292
 O931 O 0.04045 0.58578 0.50197
 O932 O 0.03670 0.57420 0.44481
 Zr933 Zr 0.03822 0.53923 0.48182
 O934 O 0.01007 0.51055 0.45086
 Zr935 Zr -0.01810 0.53910 0.53852
 O936 O -0.04906 0.51075 0.50987
 Zr937 Zr 0.03857 0.48251 0.53846
 O938 O 0.01012 0.45140 0.51018
 Zr939 Zr -0.03880 0.51820 0.46094
 O940 O -0.01071 0.54991 0.48943
 Zr941 Zr 0.01778 0.46164 0.46124
 O942 O 0.04918 0.49025 0.48948
 Zr943 Zr -0.03872 0.46177 0.51778
 O944 O -0.01026 0.49013 0.54926
 O945 O 0.03045 0.53115 0.53049
 O946 O -0.03100 0.46934 0.46891
 C947 C 0.09858 0.52552 0.52436
 C948 C 0.02473 0.59938 0.52494
 C949 C 0.02496 0.52537 0.59868
 C950 C -0.09765 0.47309 0.47248
 C951 C -0.02734 0.47290 0.40211
 C952 C -0.02729 0.40256 0.47281
 H953 H 0.01538 0.51559 0.42822
 H954 H 0.01526 0.42876 0.51544
 H955 H 0.04425 0.54493 0.54421
 H956 H -0.07175 0.51597 0.51462
 H957 H -0.06631 0.57247 0.47347
 H958 H -0.07126 0.56964 0.52734
 H959 H 0.05184 0.41261 0.47996
 H960 H 0.08391 0.44682 0.51595
 H961 H -0.01922 0.55165 0.41147
 H962 H 0.01548 0.58485 0.44641
 H963 H -0.02017 0.41301 0.55234
 H964 H 0.01627 0.44655 0.58381
 H965 H 0.08324 0.51702 0.44559
 H966 H 0.05210 0.48019 0.41237
 H967 H -0.05203 0.51514 0.58489
 H968 H -0.08759 0.48056 0.55181
 O969 O 0.50213 0.08549 0.54101
 O970 O 0.44558 0.07352 0.53879
 O971 O 0.54144 0.00203 0.58564
 O972 O 0.53992 -0.05175 0.57696
 O973 O 0.58557 0.04132 0.50221
 O974 O 0.57388 0.03815 0.44546
 O975 O 0.45789 -0.08413 0.49655
 O976 O 0.46362 -0.07554 0.55292
 O977 O 0.41605 -0.00282 0.45797
 O978 O 0.42734 0.05604 0.46156
 O979 O 0.49683 -0.04143 0.41583
 O980 O 0.55571 -0.03849 0.42735
 O981 O 0.49650 -0.08397 0.45802
 O982 O 0.55534 -0.07307 0.46170
 O983 O 0.45834 -0.00268 0.41586
 O984 O 0.46208 0.05644 0.42754
 O985 O 0.41581 -0.04164 0.49645
 O986 O 0.42631 -0.03775 0.55503
 O987 O 0.54074 0.08571 0.50226
 O988 O 0.53775 0.07397 0.44529
 O989 O 0.58559 0.00248 0.54087
 O990 O 0.57336 -0.05533 0.53527
 O991 O 0.50306 0.04094 0.58568
 O992 O 0.44595 0.03714 0.57441
 Zr993 Zr 0.48262 0.03870 0.53923
 O994 O 0.45156 0.01065 0.51057
 Zr995 Zr 0.53913 -0.01776 0.53896
 O996 O 0.51034 -0.04869 0.51066
 Zr997 Zr 0.53896 0.03909 0.48240
 O998 O 0.51060 0.01071 0.45137
 Zr999 Zr 0.46151 -0.03840 0.51809
 O1000 O 0.49015 -0.01039 0.54980
 Zr1001 Zr 0.46180 0.01852 0.46169
 O1002 O 0.49013 0.04982 0.49028
 Zr1003 Zr 0.51814 -0.03829 0.46171
 O1004 O 0.54971 -0.00987 0.48999
 O1005 O 0.53116 0.03091 0.53103
 O1006 O 0.46935 -0.03047 0.46926
 C1007 C 0.52491 0.09924 0.52516
 C1008 C 0.52615 0.02531 0.59927
 C1009 C 0.59917 0.02549 0.52514
 C1010 C 0.47299 -0.09740 0.47300
 C1011 C 0.40256 -0.02636 0.47294
 C1012 C 0.47345 -0.02614 0.40256
 H1013 H 0.42901 0.01603 0.51566
 H1014 H 0.51581 0.01594 0.42874
 H1015 H 0.54489 0.04476 0.54474
 H1016 H 0.51507 -0.07145 0.51587
 H1017 H 0.47420 -0.06626 0.57220
 H1018 H 0.52795 -0.07100 0.56958
 H1019 H 0.48045 0.05294 0.41286
 H1020 H 0.51655 0.08469 0.44674
 H1021 H 0.41255 -0.01858 0.55191
 H1022 H 0.44763 0.01585 0.58504
 H1023 H 0.55276 -0.01957 0.41316
 H1024 H 0.58428 0.01673 0.44661
 H1025 H 0.44619 0.08378 0.51727
 H1026 H 0.41306 0.05288 0.48033
 H1027 H 0.58530 -0.05181 0.51495
 H1028 H 0.55208 -0.08733 0.48052
 O1029 O 0.50214 0.58531 0.04080
 O1030 O 0.44529 0.57367 0.03786
 O1031 O 0.54014 0.50141 0.08581
 O1032 O 0.53981 0.44795 0.07693
 O1033 O 0.58506 0.54072 0.00182
 O1034 O 0.57324 0.53749 -0.05486
 O1035 O 0.45750 0.41535 -0.00303
 O1036 O 0.46329 0.42448 0.05341
 O1037 O 0.41557 0.49644 -0.04198
 O1038 O 0.42675 0.55536 -0.03876
 O1039 O 0.49652 0.45791 -0.08412
 O1040 O 0.55520 0.46066 -0.07254
 O1041 O 0.49617 0.41529 -0.04149
 O1042 O 0.55494 0.42640 -0.03800
 O1043 O 0.45815 0.49678 -0.08428
 O1044 O 0.46135 0.55566 -0.07275
 O1045 O 0.41536 0.45775 -0.00338
 O1046 O 0.42568 0.46198 0.05501
 O1047 O 0.54068 0.58522 0.00199
 O1048 O 0.53717 0.57341 -0.05496
 O1049 O 0.58499 0.50235 0.04092
 O1050 O 0.57287 0.44446 0.03540
 O1051 O 0.50187 0.54051 0.08557
 O1052 O 0.44517 0.53768 0.07380
 Zr1053 Zr 0.48211 0.53862 0.03890
 O1054 O 0.45107 0.51029 0.01047
 Zr1055 Zr 0.53857 0.48198 0.03898
 O1056 O 0.50983 0.45091 0.01082
 Zr1057 Zr 0.53846 0.53860 -0.01780
 O1058 O 0.51011 0.51006 -0.04868
 Zr1059 Zr 0.46101 0.46125 0.01819
 O1060 O 0.48958 0.48953 0.04969
 Zr1061 Zr 0.46130 0.51791 -0.03843
 O1062 O 0.48964 0.54944 -0.01008
 Zr1063 Zr 0.51765 0.46109 -0.03817
 O1064 O 0.54919 0.48966 -0.01000
 O1065 O 0.53066 0.53065 0.03091
 O1066 O 0.46883 0.46893 -0.03070
 C1067 C 0.52504 0.59889 0.02493
 C1068 C 0.52449 0.52446 0.09935
 C1069 C 0.59863 0.52512 0.02489
 C1070 C 0.47272 0.40187 -0.02639
 C1071 C 0.40210 0.47294 -0.02691
 C1072 C 0.47333 0.47336 -0.09754
 H1073 H 0.42851 0.51567 0.01552
 H1074 H 0.51535 0.51522 -0.07131
 H1075 H 0.54436 0.54441 0.04475
 H1076 H 0.51458 0.42818 0.01615
 H1077 H 0.47370 0.43405 0.07265
 H1078 H 0.52739 0.42888 0.06984
 H1079 H 0.48019 0.55261 -0.08693
 H1080 H 0.51609 0.58434 -0.05332
 H1081 H 0.41192 0.48112 0.05179
 H1082 H 0.44619 0.51622 0.08417
 H1083 H 0.55245 0.47967 -0.08664
 H1084 H 0.58371 0.51612 -0.05361
 H1085 H 0.44637 0.58403 0.01641
 H1086 H 0.41265 0.55242 -0.01982
 H1087 H 0.58493 0.44803 0.01516
 H1088 H 0.55178 0.41231 -0.01905
 O1089 O 0.74790 0.16409 0.54190
 O1090 O 0.80474 0.17567 0.53891
 O1091 O 0.70954 0.24754 0.58649
 O1092 O 0.71099 0.30129 0.57797
 O1093 O 0.66479 0.20886 0.50272
 O1094 O 0.67662 0.21165 0.44596
 O1095 O 0.79267 0.33376 0.49770
 O1096 O 0.78664 0.32492 0.55425
 O1097 O 0.83434 0.25286 0.45905
 O1098 O 0.82302 0.19381 0.46226
 O1099 O 0.75344 0.29161 0.41685
 O1100 O 0.69457 0.28838 0.42824
 O1101 O 0.75382 0.33380 0.45917
 O1102 O 0.69491 0.32281 0.46282
 O1103 O 0.79193 0.25285 0.41674
 O1104 O 0.78839 0.19374 0.42800
 O1105 O 0.83447 0.29174 0.49757
 O1106 O 0.82440 0.28724 0.55602
 O1107 O 0.70927 0.16405 0.50312
 O1108 O 0.71255 0.17566 0.44612
 O1109 O 0.66506 0.24743 0.54166
 O1110 O 0.67731 0.30501 0.53639
 O1111 O 0.74796 0.20857 0.58637
 O1112 O 0.80489 0.21187 0.57485
 Zr1113 Zr 0.76792 0.21073 0.53985
 O1114 O 0.79891 0.23900 0.51141
 Zr1115 Zr 0.71155 0.26741 0.53986
 O1116 O 0.74016 0.29844 0.51165
 Zr1117 Zr 0.71143 0.21066 0.48311
 O1118 O 0.73973 0.23916 0.45218
 Zr1119 Zr 0.78897 0.28803 0.51917
 O1120 O 0.76051 0.25981 0.55069
 Zr1121 Zr 0.78859 0.23135 0.46248
 O1122 O 0.76029 0.19986 0.49086
 Zr1123 Zr 0.73220 0.28812 0.46266
 O1124 O 0.70076 0.25962 0.49087
 O1125 O 0.71938 0.21874 0.53176
 O1126 O 0.78098 0.28026 0.47030
 C1127 C 0.72485 0.15040 0.52624
 C1128 C 0.72506 0.22432 0.59997
 C1129 C 0.65131 0.22468 0.52569
 C1130 C 0.77745 0.34701 0.47420
 C1131 C 0.84760 0.27651 0.47408
 C1132 C 0.77683 0.27642 0.40355
 H1133 H 0.82148 0.23362 0.51649
 H1134 H 0.73447 0.23402 0.42953
 H1135 H 0.70560 0.20499 0.54547
 H1136 H 0.73545 0.32118 0.51692
 H1137 H 0.77656 0.31532 0.57361
 H1138 H 0.72283 0.32061 0.57061
 H1139 H 0.76966 0.19700 0.41365
 H1140 H 0.73379 0.16501 0.44758
 H1141 H 0.83821 0.26816 0.55272
 H1142 H 0.80359 0.23322 0.58542
 H1143 H 0.69765 0.26966 0.41383
 H1144 H 0.66628 0.23310 0.44702
 H1145 H 0.80360 0.16528 0.51747
 H1146 H 0.83727 0.19685 0.48112
 H1147 H 0.66543 0.30173 0.51596
 H1148 H 0.69838 0.33719 0.48152
 O1149 O 0.83551 0.75211 -0.04159
 O1150 O 0.82359 0.69548 -0.03881
 O1151 O 0.75186 0.79115 -0.08608
 O1152 O 0.69872 0.79173 -0.07698
 O1153 O 0.79245 0.83560 -0.00235
 O1154 O 0.78892 0.82412 0.05429
 O1155 O 0.66592 0.70860 0.00233
 O1156 O 0.67481 0.71436 -0.05377
 O1157 O 0.74705 0.66593 0.04107
 O1158 O 0.80529 0.67691 0.03872
 O1159 O 0.70866 0.74768 0.08382
 O1160 O 0.71137 0.80592 0.07272
 O1161 O 0.66610 0.74736 0.04097
 O1162 O 0.67801 0.80668 0.03729
 O1163 O 0.74694 0.70873 0.08382
 O1164 O 0.80610 0.71204 0.07222
 O1165 O 0.70809 0.66615 0.00266
 O1166 O 0.71236 0.67683 -0.05586
 O1167 O 0.83604 0.79044 -0.00242
 O1168 O 0.82414 0.78728 0.05474
 O1169 O 0.75377 0.83604 -0.04103
 O1170 O 0.69565 0.82431 -0.03518
 O1171 O 0.79058 0.75249 -0.08608
 O1172 O 0.78716 0.69543 -0.07432
 Zr1173 Zr 0.78880 0.73256 -0.03947
 O1174 O 0.76053 0.70168 -0.01095
 Zr1175 Zr 0.73284 0.78972 -0.03916
 O1176 O 0.70170 0.76098 -0.01118
 Zr1177 Zr 0.78953 0.78898 0.01742
 O1178 O 0.76081 0.76085 0.04828
 Zr1179 Zr 0.71169 0.71197 -0.01871
 O1180 O 0.73988 0.74056 -0.05014
 Zr1181 Zr 0.76826 0.71186 0.03801
 O1182 O 0.79984 0.73995 0.00955
 Zr1183 Zr 0.71196 0.76870 0.03784
 O1184 O 0.74075 0.80018 0.00984
 O1185 O 0.78134 0.78128 -0.03129
 O1186 O 0.71943 0.71970 0.03025
 C1187 C 0.84938 0.77476 -0.02556
 C1188 C 0.77466 0.77530 -0.09975
 C1189 C 0.77699 0.84947 -0.02538
 C1190 C 0.65267 0.72399 0.02566
 C1191 C 0.72357 0.65267 0.02585
 C1192 C 0.72380 0.72423 0.09719
 H1193 H 0.76578 0.67905 -0.01608
 H1194 H 0.76602 0.76607 0.07092
 H1195 H 0.79515 0.79485 -0.04515
 H1196 H 0.67907 0.76590 -0.01652
 H1197 H 0.68419 0.72505 -0.07291
 H1198 H 0.67985 0.77890 -0.07020
 H1199 H 0.80259 0.73038 0.08702
 H1200 H 0.83495 0.76611 0.05296
 H1201 H 0.73107 0.66257 -0.05237
 H1202 H 0.76594 0.69708 -0.08505
 H1203 H 0.73120 0.80402 0.08575
 H1204 H 0.76765 0.83475 0.05308
 H1205 H 0.83399 0.69636 -0.01736
 H1206 H 0.80317 0.66366 0.01902
 H1207 H 0.69976 0.83671 -0.01521
 H1208 H 0.66325 0.80301 0.01894
 O1209 O 1.00153 0.16394 0.20912
 O1210 O 0.94503 0.17579 0.21176
 O1211 O 1.04047 0.24770 0.16441
 O1212 O 1.03989 0.30125 0.17317
 O1213 O 1.08515 0.20827 0.24803
 O1214 O 1.07368 0.21134 0.30472
 O1215 O 0.95786 0.33369 0.25330
 O1216 O 0.96374 0.32494 0.19685
 O1217 O 0.91593 0.25267 0.29195
 O1218 O 0.92700 0.19390 0.28910
 O1219 O 0.99707 0.29168 0.33414
 O1220 O 1.05575 0.28844 0.32285
 O1221 O 0.99674 0.33378 0.29180
 O1222 O 1.05581 0.32255 0.28788
 O1223 O 0.95832 0.25307 0.33423
 O1224 O 0.96202 0.19363 0.32296
 O1225 O 0.91592 0.29160 0.25349
 O1226 O 0.92606 0.28716 0.19494
 O1227 O 1.04018 0.16378 0.24796
 O1228 O 1.03731 0.17570 0.30501
 O1229 O 1.08510 0.24692 0.20920
 O1230 O 1.07321 0.30476 0.21481
 O1231 O 1.00204 0.20864 0.16448
 O1232 O 0.94505 0.21216 0.17612
 Zr1233 Zr 0.98207 0.21073 0.21105
 O1234 O 0.95128 0.23896 0.23964
 Zr1235 Zr 1.03879 0.26724 0.21116
 O1236 O 1.01027 0.29833 0.23932
 Zr1237 Zr 1.03861 0.21048 0.26781
 O1238 O 1.01053 0.23909 0.29880
 Zr1239 Zr 0.96141 0.28797 0.23185
 O1240 O 0.98978 0.25979 0.20030
 Zr1241 Zr 0.96165 0.23133 0.28857
 O1242 O 0.98969 0.19983 0.26005
 Zr1243 Zr 1.01824 0.28806 0.28831
 O1244 O 1.04954 0.25942 0.26012
 O1245 O 1.03067 0.21856 0.21915
 O1246 O 0.96942 0.28023 0.28072
 C1247 C 1.02429 0.15020 0.22503
 C1248 C 1.02485 0.22456 0.15085
 C1249 C 1.09869 0.22402 0.22503
 C1250 C 0.97313 0.34697 0.27677
 C1251 C 0.90273 0.27629 0.27691
 C1252 C 0.97353 0.27662 0.34742
 H1253 H 0.92868 0.23360 0.23458
 H1254 H 1.01580 0.23396 0.32145
 H1255 H 1.04427 0.20472 0.20538
 H1256 H 1.01507 0.32106 0.23403
 H1257 H 0.97398 0.31544 0.17753
 H1258 H 1.02773 0.32041 0.18036
 H1259 H 0.98025 0.19743 0.33782
 H1260 H 1.01603 0.16506 0.30359
 H1261 H 0.91204 0.26820 0.19835
 H1262 H 0.94666 0.23343 0.16541
 H1263 H 1.05290 0.26943 0.33694
 H1264 H 1.08398 0.23285 0.30375
 H1265 H 0.94584 0.16557 0.23330
 H1266 H 0.91305 0.19659 0.26996
 H1267 H 1.08532 0.30116 0.23504
 H1268 H 1.05214 0.33717 0.26943
 O1269 O 0.75326 0.95880 0.83584
 O1270 O 0.69635 0.96158 0.82416
 O1271 O 0.79146 0.91424 0.75209
 O1272 O 0.79110 0.92330 0.69855
 O1273 O 0.83610 0.99822 0.79176
 O1274 O 0.82412 1.05510 0.78826
 O1275 O 0.70890 1.00258 0.66592
 O1276 O 0.71491 0.94619 0.67506
 O1277 O 0.66630 1.04095 0.74710
 O1278 O 0.67787 1.03778 0.80623
 O1279 O 0.74699 1.08408 0.70867
 O1280 O 0.80596 1.07308 0.71191
 O1281 O 0.74745 1.04142 0.66607
 O1282 O 0.80605 1.03869 0.67748
 O1283 O 0.70835 1.08374 0.74714
 O1284 O 0.71178 1.07267 0.80597
 O1285 O 0.66658 1.00272 0.70795
 O1286 O 0.67704 0.94435 0.71239
 O1287 O 0.79162 0.99793 0.83600
 O1288 O 0.78803 1.05487 0.82434
 O1289 O 0.83614 0.95921 0.75328
 O1290 O 0.82433 0.96500 0.69545
 O1291 O 0.75306 0.91417 0.79095
 O1292 O 0.69637 0.92564 0.78815
 Zr1293 Zr 0.73322 0.96077 0.78917
 O1294 O 0.70213 0.98902 0.76080
 Zr1295 Zr 0.78981 0.96113 0.73273
 O1296 O 0.76109 0.98924 0.70167
 Zr1297 Zr 0.78944 1.01782 0.78942
 O1298 O 0.76093 1.04862 0.76094
 Zr1299 Zr 0.71227 0.98141 0.71180
 O1300 O 0.74086 0.95006 0.74011
 Zr1301 Zr 0.71212 1.03801 0.76853
 O1302 O 0.74058 1.00981 0.80006
 Zr1303 Zr 0.76863 1.03833 0.71200
 O1304 O 0.80025 1.01022 0.74050
 O1305 O 0.78175 0.96907 0.78134
 O1306 O 0.71984 1.03038 0.71961
 C1307 C 0.77610 0.97475 0.84951
 C1308 C 0.77585 0.90047 0.77509
 C1309 C 0.84970 0.97513 0.77620
 C1310 C 0.72418 1.02602 0.65263
 C1311 C 0.65315 1.02591 0.72340
 C1312 C 0.72339 1.09727 0.72372
 H1313 H 0.67959 0.98376 0.76611
 H1314 H 0.76601 1.07131 0.76612
 H1315 H 0.79542 0.95524 0.79509
 H1316 H 0.76597 0.98400 0.67897
 H1317 H 0.72524 0.92697 0.68471
 H1318 H 0.77896 0.93052 0.67937
 H1319 H 0.73066 1.08689 0.80303
 H1320 H 0.76673 1.05337 0.83485
 H1321 H 0.66309 0.94759 0.73138
 H1322 H 0.69736 0.91538 0.76665
 H1323 H 0.80284 1.08730 0.73077
 H1324 H 0.83471 1.05377 0.76696
 H1325 H 0.69755 0.98293 0.83473
 H1326 H 0.66357 1.01898 0.80301
 H1327 H 0.83628 0.98533 0.69912
 H1328 H 0.80335 1.01947 0.66362
 O1329 O 0.74777 0.58559 0.20903
 O1330 O 0.80441 0.57391 0.21198
 O1331 O 0.70905 0.50194 0.16435
 O1332 O 0.70950 0.44835 0.17315
 O1333 O 0.66435 0.54109 0.24822
 O1334 O 0.67627 0.53827 0.30486
 O1335 O 0.79182 0.41596 0.25325
 O1336 O 0.78571 0.42469 0.19683
 O1337 O 0.83386 0.49699 0.29187
 O1338 O 0.82263 0.55599 0.28873
 O1339 O 0.75303 0.45811 0.33414
 O1340 O 0.69416 0.46132 0.32281
 O1341 O 0.75312 0.41591 0.29180
 O1342 O 0.69414 0.42700 0.28809
 O1343 O 0.79162 0.49687 0.33418
 O1344 O 0.78816 0.55597 0.32300
 O1345 O 0.83373 0.45802 0.25344
 O1346 O 0.82336 0.46252 0.19487
 O1347 O 0.70915 0.58574 0.24777
 O1348 O 0.71249 0.57407 0.30484
 O1349 O 0.66431 0.50254 0.20927
 O1350 O 0.67634 0.44482 0.21468
 O1351 O 0.74756 0.54092 0.16451
 O1352 O 0.80438 0.53768 0.17621
 Zr1353 Zr 0.76743 0.53891 0.21110
 O1354 O 0.79836 0.51068 0.23959
 Zr1355 Zr 0.71072 0.48236 0.21112
 O1356 O 0.73935 0.45132 0.23932
 Zr1357 Zr 0.71105 0.53913 0.26779
 O1358 O 0.73931 0.51060 0.29876
 Zr1359 Zr 0.78817 0.46167 0.23182
 O1360 O 0.75970 0.48985 0.20030
 Zr1361 Zr 0.78814 0.51839 0.28849
 O1362 O 0.75992 0.54986 0.26005
 Zr1363 Zr 0.73160 0.46162 0.28832
 O1364 O 0.70017 0.49017 0.26011
 O1365 O 0.71882 0.53104 0.21912
 O1366 O 0.78038 0.46947 0.28069
 C1367 C 0.72494 0.59927 0.22480
 C1368 C 0.72476 0.52500 0.15081
 C1369 C 0.65069 0.52529 0.22528
 C1370 C 0.77665 0.40270 0.27675
 C1371 C 0.84701 0.47335 0.27685
 C1372 C 0.77654 0.47330 0.34739
 H1373 H 0.82093 0.51604 0.23451
 H1374 H 0.73413 0.51574 0.32141
 H1375 H 0.70511 0.54478 0.20533
 H1376 H 0.73454 0.42858 0.23405
 H1377 H 0.77543 0.43419 0.17750
 H1378 H 0.72172 0.42921 0.18032
 H1379 H 0.76951 0.55267 0.33738
 H1380 H 0.73374 0.58475 0.30333
 H1381 H 0.83754 0.48134 0.19841
 H1382 H 0.80299 0.51632 0.16565
 H1383 H 0.69728 0.48014 0.33713
 H1384 H 0.66600 0.51675 0.30397
 H1385 H 0.80344 0.58429 0.23343
 H1386 H 0.83684 0.55295 0.26990
 H1387 H 0.66446 0.44824 0.23504
 H1388 H 0.69756 0.41255 0.26946
 O1389 O 0.41459 0.25195 0.79103
 O1390 O 0.42604 0.19515 0.78846
 O1391 O 0.49825 0.29065 0.83592
 O1392 O 0.55153 0.29023 0.82734
 O1393 O 0.45893 0.33508 0.75188
 O1394 O 0.46233 0.32332 0.69528
 O1395 O 0.58401 0.20709 0.74794
 O1396 O 0.57491 0.21309 0.80412
 O1397 O 0.50315 0.16524 0.70852
 O1398 O 0.44482 0.17611 0.71102
 O1399 O 0.54189 0.24688 0.66632
 O1400 O 0.53986 0.30502 0.67766
 O1401 O 0.58424 0.24575 0.70920
 O1402 O 0.57315 0.30529 0.71318
 O1403 O 0.50319 0.20822 0.66606
 O1404 O 0.44404 0.21148 0.67772
 O1405 O 0.54175 0.16517 0.74728
 O1406 O 0.53694 0.17568 0.80594
 O1407 O 0.41468 0.29051 0.75207
 O1408 O 0.42666 0.28677 0.69495
 O1409 O 0.49736 0.33517 0.79090
 O1410 O 0.55533 0.32298 0.78547
 O1411 O 0.45920 0.25221 0.83581
 O1412 O 0.46225 0.19500 0.82423
 Zr1413 Zr 0.46115 0.23202 0.78926
 O1414 O 0.48930 0.20091 0.76088
 Zr1415 Zr 0.51772 0.28872 0.78922
 O1416 O 0.54873 0.25980 0.76139
 Zr1417 Zr 0.46123 0.28838 0.73233
 O1418 O 0.48985 0.26007 0.70164
 Zr1419 Zr 0.53820 0.21087 0.76886
 O1420 O 0.51011 0.23963 0.80017
 Zr1421 Zr 0.48190 0.21112 0.71188
 O1422 O 0.45042 0.23942 0.74018
 Zr1423 Zr 0.53871 0.26765 0.71236
 O1424 O 0.51008 0.29927 0.74020
 O1425 O 0.46917 0.28065 0.78105
 O1426 O 0.53074 0.21872 0.71989
 C1427 C 0.40106 0.27486 0.77508
 C1428 C 0.47515 0.27509 0.84945
 C1429 C 0.47450 0.34870 0.77496
 C1430 C 0.59740 0.22226 0.72451
 C1431 C 0.52655 0.15191 0.72376
 C1432 C 0.52648 0.22366 0.65281
 H1433 H 0.48385 0.17830 0.76595
 H1434 H 0.48477 0.26536 0.67899
 H1435 H 0.45542 0.29438 0.79478
 H1436 H 0.57140 0.26454 0.76682
 H1437 H 0.56547 0.22368 0.82327
 H1438 H 0.57045 0.27753 0.82053
 H1439 H 0.44759 0.22993 0.66305
 H1440 H 0.41548 0.26578 0.69692
 H1441 H 0.51829 0.16137 0.80214
 H1442 H 0.48348 0.19646 0.83496
 H1443 H 0.52012 0.30325 0.66446
 H1444 H 0.48363 0.33393 0.69662
 H1445 H 0.41593 0.19592 0.76686
 H1446 H 0.44692 0.16275 0.73064
 H1447 H 0.55155 0.33533 0.76541
 H1448 H 0.58801 0.30124 0.73136
 O1449 O 0.25243 0.79220 0.41431
 O1450 O 0.19567 0.78921 0.42572
 O1451 O 0.29105 0.83643 0.49814
 O1452 O 0.29031 0.82754 0.55168
 O1453 O 0.33534 0.75287 0.45856
 O1454 O 0.32351 0.69600 0.46174
 O1455 O 0.20783 0.74796 0.58380
 O1456 O 0.21397 0.80425 0.57492
 O1457 O 0.16571 0.70921 0.50268
 O1458 O 0.17698 0.71235 0.44377
 O1459 O 0.24684 0.66651 0.54122
 O1460 O 0.30516 0.67775 0.53892
 O1461 O 0.24631 0.70918 0.58385
 O1462 O 0.30550 0.71278 0.57269
 O1463 O 0.20826 0.66654 0.50245
 O1464 O 0.21138 0.67814 0.44361
 O1465 O 0.16585 0.74776 0.54153
 O1466 O 0.17643 0.80624 0.53712
 O1467 O 0.29089 0.75327 0.41420
 O1468 O 0.28720 0.69606 0.42576
 O1469 O 0.33541 0.79171 0.49722
 O1470 O 0.32346 0.78573 0.55509
 O1471 O 0.25264 0.83649 0.45905
 O1472 O 0.19560 0.82493 0.46213
 Zr1473 Zr 0.23249 0.78995 0.46089
 O1474 O 0.20143 0.76147 0.48901
 Zr1475 Zr 0.28909 0.78964 0.51758
 O1476 O 0.26030 0.76151 0.54849
 Zr1477 Zr 0.28872 0.73309 0.46071
 O1478 O 0.26034 0.70218 0.48916
 Zr1479 Zr 0.21151 0.76917 0.53802
 O1480 O 0.24015 0.80065 0.50996
 Zr1481 Zr 0.21150 0.71250 0.48133
 O1482 O 0.23986 0.74094 0.44992
 Zr1483 Zr 0.26795 0.71250 0.53817
 O1484 O 0.29956 0.74063 0.50970
 O1485 O 0.28099 0.78174 0.46892
 O1486 O 0.21916 0.72020 0.53029
 C1487 C 0.27536 0.77646 0.40071
 C1488 C 0.27556 0.85002 0.47497
 C1489 C 0.34891 0.77597 0.47423
 C1490 C 0.22296 0.72448 0.59712
 C1491 C 0.15250 0.72439 0.52619
 C1492 C 0.22355 0.65314 0.52579
 H1493 H 0.17888 0.76662 0.48360
 H1494 H 0.26553 0.67954 0.48396
 H1495 H 0.29470 0.79556 0.45522
 H1496 H 0.26509 0.76677 0.57122
 H1497 H 0.22447 0.82349 0.56546
 H1498 H 0.27819 0.82029 0.57084
 H1499 H 0.23032 0.66404 0.44655
 H1500 H 0.26612 0.69787 0.41481
 H1501 H 0.16239 0.80286 0.51817
 H1502 H 0.19713 0.83561 0.48341
 H1503 H 0.30302 0.66441 0.51928
 H1504 H 0.33412 0.69729 0.48307
 H1505 H 0.19663 0.76775 0.41534
 H1506 H 0.16298 0.73138 0.44666
 H1507 H 0.33556 0.76555 0.55133
 H1508 H 0.30192 0.73124 0.58733
 O1509 O 0.25212 0.29078 0.91455
 O1510 O 0.19544 0.28795 0.92613
 O1511 O 0.29083 0.33540 0.99833
 O1512 O 0.28969 0.32666 1.05193
 O1513 O 0.33539 0.25192 0.95919
 O1514 O 0.32365 0.19505 0.96220
 O1515 O 0.20789 0.24671 1.08419
 O1516 O 0.21369 0.30308 1.07514
 O1517 O 0.16564 0.20800 1.00271
 O1518 O 0.17717 0.21086 0.94400
 O1519 O 0.24691 0.16540 1.04171
 O1520 O 0.30537 0.17684 1.03911
 O1521 O 0.24662 0.20818 1.08430
 O1522 O 0.30551 0.21165 1.07306
 O1523 O 0.20834 0.16533 1.00293
 O1524 O 0.21164 0.17681 0.94400
 O1525 O 0.16561 0.24650 1.04162
 O1526 O 0.17596 0.30468 1.03765
 O1527 O 0.29076 0.25204 0.91451
 O1528 O 0.28754 0.19497 0.92619
 O1529 O 0.33524 0.29076 0.99784
 O1530 O 0.32315 0.28503 1.05552
 O1531 O 0.25251 0.33529 0.95916
 O1532 O 0.19549 0.32374 0.96242
 Zr1533 Zr 0.23236 0.28874 0.96119
 O1534 O 0.20138 0.26017 0.98930
 Zr1535 Zr 0.28884 0.28867 1.01792
 O1536 O 0.26015 0.26041 1.04881
 Zr1537 Zr 0.28877 0.23204 0.96112
 O1538 O 0.26043 0.20104 0.98952
 Zr1539 Zr 0.21133 0.26788 1.03834
 O1540 O 0.23987 0.29949 1.01027
 Zr1541 Zr 0.21157 0.21122 0.98167
 O1542 O 0.23989 0.23974 0.95029
 Zr1543 Zr 0.26798 0.21141 1.03852
 O1544 O 0.29950 0.23968 1.01010
 O1545 O 0.28090 0.28069 0.96923
 O1546 O 0.21913 0.21893 1.03065
 C1547 C 0.27500 0.27502 0.90092
 C1548 C 0.27538 0.34890 0.97508
 C1549 C 0.34890 0.27497 0.97498
 C1550 C 0.22326 0.22342 1.09759
 C1551 C 0.15227 0.22323 1.02610
 C1552 C 0.22362 0.15198 1.02631
 H1553 H 0.17883 0.26526 0.98384
 H1554 H 0.26567 0.17841 0.98435
 H1555 H 0.29461 0.29446 0.95549
 H1556 H 0.26494 0.26571 1.07153
 H1557 H 0.22402 0.32236 1.06560
 H1558 H 0.27774 0.31930 1.07116
 H1559 H 0.23046 0.16259 0.94715
 H1560 H 0.26633 0.19645 0.91544
 H1561 H 0.16262 0.30190 1.01811
 H1562 H 0.19708 0.33450 0.98366
 H1563 H 0.30292 0.16314 1.01976
 H1564 H 0.33413 0.19628 0.98360
 H1565 H 0.19644 0.26651 0.91571
 H1566 H 0.16325 0.22997 0.94667
 H1567 H 0.33524 0.26481 1.05194
 H1568 H 0.30218 0.23038 1.08741
   
