data_POSCAR
  _audit_creation_date              2014-09-24
  _audit_creation_method            'ToBaCCo'
  _symmetry_space_group_name_H-M    'P1'
  _symmetry_Int_Tables_number       1
  _symmetry_cell_setting            triclinic
  loop_
  _symmetry_equiv_pos_as_xyz
 x,y,z
_cell_length_a 69.0647
_cell_length_b 69.1608
_cell_length_c 70.0057
_cell_angle_alpha 90.551100
_cell_angle_beta 90.383600
_cell_angle_gamma 89.987800
loop_
  _atom_site_label
  _atom_site_type_symbol
  _atom_site_fract_x
  _atom_site_fract_y
  _atom_site_fract_z
C1 C 0.38472 -0.00095 0.24984
 C2 C 0.11603 0.00007 0.75012
 C3 C 0.61558 0.49913 0.25107
 C4 C 0.88362 0.49992 0.75019
 C5 C 0.25064 0.36782 1.00083
 C6 C 0.74850 0.13282 0.99925
 C7 C 0.24927 0.63212 0.49848
 C8 C 0.75084 0.86804 0.50281
 C9 C 0.00150 0.24879 0.36571
 C10 C -0.00252 0.75371 0.13019
 C11 C 0.49661 0.25163 0.63067
 C12 C 0.50143 0.74815 0.86732
 C13 C -0.24930 0.63373 1.00064
 C14 C -0.25029 0.36564 0.50096
 C15 C 0.24866 -0.13394 0.00016
 C16 C 0.25091 1.13392 0.49898
 C17 C 0.11902 0.49917 0.25134
 C18 C -0.11932 0.99893 0.24893
 C19 C 0.38166 0.50025 -0.25057
 C20 C 0.61837 0.00011 -0.24859
 C21 C 0.00186 0.24963 0.88112
 C22 C 0.50024 0.25312 0.11549
 C23 C -0.00090 0.75423 0.61746
 C24 C 0.49954 0.74621 0.38274
 Zr25 Zr 0.01317 -0.01780 1.02487
 O26 O 0.03162 -0.00935 1.04774
 O27 O 0.00965 -0.04739 1.02996
 O28 O -0.00059 -0.02021 1.05170
 O29 O 0.04993 -0.02216 0.99154
 O30 O -0.02942 -0.00456 1.04749
 O31 O 0.04138 -0.02946 1.02212
 O32 O -0.01143 -0.05729 1.00656
 O33 O -0.01610 -0.02221 1.01802
 O34 O 0.01243 -0.02920 0.99709
 O35 O -0.00001 0.00953 1.02746
 O36 O 0.02765 0.00253 1.00773
 Zr37 Zr -0.01681 0.01441 0.97415
 Zr38 Zr -0.02890 0.00523 1.01918
 Zr39 Zr 0.02533 -0.00860 0.97981
 Zr40 Zr -0.01663 -0.03258 0.98992
 O41 O 0.05023 0.00816 0.97414
 O42 O -0.04391 -0.04302 0.99898
 O43 O -0.00356 -0.01298 0.97124
 O44 O -0.03093 -0.00594 0.99133
 O45 O -0.01614 0.02607 1.00186
 O46 O 0.01240 0.01863 0.98114
 C47 C -0.00070 -0.06020 1.02130
 C48 C 0.05334 -0.02945 1.00805
 C49 C -0.01710 -0.01395 1.05762
 O50 O -0.05487 -0.01043 1.02308
 O51 O -0.05228 0.02145 1.00842
 O52 O -0.04423 0.02770 0.97749
 C53 C -0.05565 0.02882 0.99195
 O54 O 0.03324 0.03128 1.03204
 Zr55 Zr 0.01306 0.02917 1.00905
 O56 O -0.01360 0.04408 0.96925
 O57 O -0.03405 0.02886 1.03789
 O58 O 0.00178 0.04945 1.02899
 O59 O 0.03925 0.04143 0.99917
 O60 O 0.00557 0.05436 0.99405
 C61 C -0.00472 0.05720 0.97900
 O62 O -0.03633 0.00623 0.95205
 O63 O 0.03177 -0.03318 0.96275
 O64 O -0.00394 0.01514 0.94678
 O65 O 0.02437 -0.00152 0.95069
 O66 O -0.00517 -0.05423 0.97156
 O67 O -0.03420 -0.03547 0.96501
 C68 C 0.01196 0.00773 0.94053
 H69 H 0.01935 -0.04168 0.99585
 H70 H -0.04459 -0.00768 0.98728
 H71 H 0.01895 0.02768 0.97242
 H72 H 0.00101 0.01456 1.04071
 H73 H -0.04464 -0.05690 0.99542
 H74 H -0.06259 -0.00312 1.03260
 H75 H -0.04702 0.02685 1.04350
 H76 H 0.00928 0.06159 1.02771
 H77 H -0.01317 -0.06601 0.97307
 H78 H 0.04471 -0.03096 0.95713
 H79 H 0.05798 0.00076 0.96471
 H80 H 0.03943 0.05518 1.00329
 H81 H -0.04003 -0.04855 0.96458
 H82 H -0.03905 0.01795 0.94441
 H83 H 0.03450 -0.02110 1.05527
 H84 H 0.03676 0.04501 1.03421
 Zr85 Zr 0.51420 0.48119 0.52580
 O86 O 0.53276 0.48995 0.54848
 O87 O 0.51116 0.45156 0.53100
 O88 O 0.50076 0.47865 0.55277
 O89 O 0.55075 0.47739 0.49218
 O90 O 0.47160 0.49375 0.54875
 O91 O 0.54254 0.46991 0.52281
 O92 O 0.49007 0.44130 0.50775
 O93 O 0.48496 0.47627 0.51917
 O94 O 0.51343 0.46976 0.49803
 O95 O 0.50058 0.50828 0.52847
 O96 O 0.52821 0.50175 0.50855
 Zr97 Zr 0.48327 0.51286 0.47529
 Zr98 Zr 0.47170 0.50348 0.52042
 Zr99 Zr 0.52585 0.49058 0.48064
 Zr100 Zr 0.48438 0.46589 0.49108
 O101 O 0.55041 0.50778 0.47482
 O102 O 0.45734 0.45498 0.50027
 O103 O 0.49698 0.48570 0.47229
 O104 O 0.46964 0.49228 0.49259
 O105 O 0.48397 0.52452 0.50300
 O106 O 0.51246 0.51760 0.48205
 C107 C 0.50092 0.43858 0.52245
 C108 C 0.55438 0.47011 0.50865
 C109 C 0.48420 0.48466 0.55882
 O110 O 0.44605 0.48736 0.52453
 O111 O 0.44798 0.51933 0.50983
 O112 O 0.45566 0.52566 0.47882
 C113 C 0.44435 0.52663 0.49338
 O114 O 0.53363 0.53052 0.53268
 Zr115 Zr 0.51317 0.52814 0.50996
 O116 O 0.48577 0.54262 0.47047
 O117 O 0.46628 0.52704 0.53914
 O118 O 0.50189 0.54817 0.53014
 O119 O 0.53894 0.54096 0.49971
 O120 O 0.50483 0.55322 0.49522
 C121 C 0.49430 0.55591 0.48030
 O122 O 0.46376 0.50431 0.45332
 O123 O 0.53261 0.46613 0.46353
 O124 O 0.49592 0.51385 0.44784
 O125 O 0.52453 0.49763 0.45153
 O126 O 0.49611 0.44441 0.47268
 O127 O 0.46672 0.46268 0.46627
 C128 C 0.51189 0.50667 0.44146
 H129 H 0.52054 0.45739 0.49675
 H130 H 0.45598 0.49030 0.48865
 H131 H 0.51874 0.52679 0.47328
 H132 H 0.50164 0.51335 0.54171
 H133 H 0.45683 0.44109 0.49671
 H134 H 0.43827 0.49455 0.53409
 H135 H 0.45339 0.52481 0.54486
 H136 H 0.50919 0.56042 0.52881
 H137 H 0.48835 0.43249 0.47427
 H138 H 0.54545 0.46859 0.45781
 H139 H 0.55821 0.50053 0.46532
 H140 H 0.53886 0.55471 0.50383
 H141 H 0.46117 0.44948 0.46585
 H142 H 0.46076 0.51597 0.44571
 H143 H 0.53588 0.47825 0.55601
 H144 H 0.53706 0.54429 0.53475
 Zr145 Zr 0.48412 1.01469 0.52699
 O146 O 0.46512 1.00298 0.54748
 O147 O 0.48586 1.04364 0.53582
 O148 O 0.49659 1.01528 0.55471
 O149 O 0.44889 1.02121 0.49208
 O150 O 0.52634 1.00145 0.55053
 O151 O 0.45560 1.02551 0.52385
 O152 O 0.50761 1.05678 0.51520
 O153 O 0.51342 1.02100 0.52256
 O154 O 0.48563 1.02894 0.50082
 O155 O 0.49847 0.98786 0.52727
 O156 O 0.47144 0.99569 0.50670
 Zr157 Zr 0.51792 0.98923 0.47483
 Zr158 Zr 0.52747 0.99419 0.52135
 Zr159 Zr 0.47454 1.00974 0.48045
 Zr160 Zr 0.51478 1.03425 0.49597
 O161 O 0.45059 0.99278 0.47149
 O162 O 0.54108 1.04479 0.50792
 O163 O 0.50354 1.01618 0.47426
 O164 O 0.53026 1.00824 0.49515
 O165 O 0.51653 0.97475 0.50092
 O166 O 0.48866 0.98312 0.47948
 C167 C 0.49602 1.05768 0.52948
 C168 C 0.44438 1.02662 0.50910
 C169 C 0.51319 1.00938 0.56086
 O170 O 0.55263 1.01024 0.52845
 O171 O 0.55188 0.97981 0.51029
 O172 O 0.54562 0.97656 0.47834
 C173 C 0.55630 0.97423 0.49331
 O174 O 0.46624 0.96429 0.52722
 Zr175 Zr 0.48724 0.96970 0.50586
 O176 O 0.51635 0.96022 0.46613
 O177 O 0.53272 0.96918 0.53778
 O178 O 0.49873 0.94798 0.52387
 O179 O 0.46208 0.95742 0.49313
 O180 O 0.49650 0.94663 0.48827
 C181 C 0.50756 0.94583 0.47360
 O182 O 0.53799 1.00066 0.45519
 O183 O 0.46797 1.03557 0.46579
 O184 O 0.50629 0.99039 0.44681
 O185 O 0.47703 1.00531 0.45081
 O186 O 0.50320 1.05725 0.47964
 O187 O 0.53332 1.04050 0.47272
 C188 C 0.49024 0.99747 0.44047
 H189 H 0.47821 1.04119 0.50061
 H190 H 0.54400 1.01090 0.49219
 H191 H 0.48292 0.97473 0.46941
 H192 H 0.49710 0.98152 0.53981
 H193 H 0.54127 1.05898 0.50615
 H194 H 0.56019 1.00235 0.53759
 H195 H 0.54534 0.97114 0.54434
 H196 H 0.49198 0.93572 0.52065
 H197 H 0.51051 1.06911 0.48313
 H198 H 0.45542 1.03346 0.45915
 H199 H 0.44299 1.00076 0.46245
 H200 H 0.46243 0.94333 0.49557
 H201 H 0.53853 1.05377 0.47423
 H202 H 0.54169 0.98997 0.44639
 H203 H 0.46131 1.01370 0.55619
 H204 H 0.46347 0.95026 0.52765
 Zr205 Zr -0.01527 0.51531 1.02704
 O206 O -0.03425 0.50371 1.04761
 O207 O -0.01314 0.54421 1.03598
 O208 O -0.00266 0.51574 1.05470
 O209 O -0.05073 0.52194 0.99237
 O210 O 0.02704 0.50189 1.05031
 O211 O -0.04373 0.52633 1.02408
 O212 O 0.00860 0.55716 1.01524
 O213 O 0.01401 0.52150 1.02237
 O214 O -0.01390 0.52954 1.00085
 O215 O -0.00101 0.48843 1.02723
 O216 O -0.02816 0.49633 1.00685
 Zr217 Zr 0.01806 0.48971 0.97465
 Zr218 Zr 0.02796 0.49466 1.02111
 Zr219 Zr -0.02521 0.51034 0.98056
 Zr220 Zr 0.01523 0.53472 0.99576
 O221 O -0.04927 0.49343 0.97181
 O222 O 0.04178 0.54517 1.00722
 O223 O 0.00375 0.51669 0.97415
 O224 O 0.03063 0.50867 0.99487
 O225 O 0.01681 0.47528 1.00076
 O226 O -0.01117 0.48366 0.97950
 C227 C -0.00276 0.55812 1.02967
 C228 C -0.05507 0.52743 1.00942
 C229 C 0.01396 0.50979 1.06074
 O230 O 0.05319 0.51068 1.02803
 O231 O 0.05223 0.48019 1.00988
 O232 O 0.04578 0.47702 0.97795
 C233 C 0.05653 0.47461 0.99286
 O234 O -0.03354 0.46508 1.02724
 Zr235 Zr -0.01245 0.47028 1.00591
 O236 O 0.01658 0.46065 0.96616
 O237 O 0.03328 0.46963 1.03749
 O238 O -0.00115 0.44863 1.02410
 O239 O -0.03752 0.45790 0.99312
 O240 O -0.00297 0.44710 0.98858
 C241 C 0.00810 0.44624 0.97391
 O242 O 0.03796 0.50109 0.95481
 O243 O -0.03183 0.53618 0.96593
 O244 O 0.00619 0.49081 0.94672
 O245 O -0.02296 0.50588 0.95091
 O246 O 0.00349 0.55786 0.97973
 O247 O 0.03341 0.54085 0.97219
 C248 C -0.00987 0.49797 0.94048
 H249 H -0.02124 0.54184 1.00073
 H250 H 0.04435 0.51129 0.99181
 H251 H -0.01696 0.47523 0.96948
 H252 H -0.00233 0.48209 1.03978
 H253 H 0.04202 0.55936 1.00538
 H254 H 0.06082 0.50276 1.03709
 H255 H 0.04595 0.47156 1.04397
 H256 H -0.00795 0.43638 1.02094
 H257 H 0.01093 0.56966 0.98315
 H258 H -0.04442 0.53409 0.95937
 H259 H -0.05693 0.50143 0.96284
 H260 H -0.03714 0.44382 0.99562
 H261 H 0.03861 0.55414 0.97354
 H262 H 0.04159 0.49038 0.94601
 H263 H -0.03793 0.51445 1.05636
 H264 H -0.03644 0.45108 1.02768
 Zr265 Zr -0.01567 0.48285 0.47379
 O266 O -0.03475 0.49286 0.45225
 O267 O -0.01236 0.45372 0.46606
 O268 O -0.00265 0.48196 0.44649
 O269 O -0.05133 0.47618 0.50778
 O270 O 0.02632 0.49731 0.45112
 O271 O -0.04380 0.47099 0.47641
 O272 O 0.00959 0.44238 0.48780
 O273 O 0.01378 0.47807 0.47939
 O274 O -0.01406 0.46961 0.50050
 O275 O -0.00256 0.51028 0.47303
 O276 O -0.02958 0.50195 0.49301
 Zr277 Zr 0.01590 0.51169 0.52611
 Zr278 Zr 0.02657 0.50551 0.48009
 Zr279 Zr -0.02638 0.48900 0.51984
 Zr280 Zr 0.01520 0.46585 0.50649
 O281 O -0.05117 0.50517 0.52760
 O282 O 0.04222 0.45611 0.49588
 O283 O 0.00275 0.48415 0.52717
 O284 O 0.02946 0.49255 0.50687
 O285 O 0.01439 0.52517 0.49948
 O286 O -0.01351 0.51625 0.52032
 C287 C -0.00161 0.44044 0.47318
 C288 C -0.05529 0.47003 0.49081
 C289 C 0.01375 0.48845 0.44065
 O290 O 0.05247 0.49029 0.47425
 O291 O 0.05020 0.52114 0.49141
 O292 O 0.04317 0.52533 0.52302
 C293 C 0.05410 0.52745 0.50832
 O294 O -0.03573 0.53235 0.47117
 Zr295 Zr -0.01502 0.52864 0.49343
 O296 O 0.01271 0.54089 0.53374
 O297 O 0.03106 0.53021 0.46307
 O298 O -0.00407 0.55024 0.47511
 O299 O -0.04104 0.54009 0.50483
 O300 O -0.00739 0.55269 0.51057
 C301 C 0.00329 0.55454 0.52556
 O302 O 0.03610 0.50204 0.54683
 O303 O -0.03214 0.46336 0.53506
 O304 O 0.00383 0.51079 0.55381
 O305 O -0.02461 0.49439 0.54941
 O306 O 0.00424 0.44295 0.52321
 O307 O 0.03345 0.46130 0.53060
 C308 C -0.01195 0.50311 0.55990
 H309 H -0.02094 0.45706 0.50088
 H310 H 0.04323 0.49059 0.51035
 H311 H -0.01984 0.52467 0.52994
 H312 H -0.00396 0.51613 0.46024
 H313 H 0.04304 0.44202 0.49822
 H314 H 0.05988 0.49819 0.46509
 H315 H 0.04387 0.52860 0.45695
 H316 H -0.01143 0.56228 0.47767
 H317 H 0.01215 0.43131 0.52040
 H318 H -0.04490 0.46512 0.54123
 H319 H -0.05859 0.49715 0.53664
 H320 H -0.04134 0.55407 0.50188
 H321 H 0.03919 0.44820 0.52981
 H322 H 0.03907 0.51321 0.55535
 H323 H -0.03788 0.48165 0.44382
 H324 H -0.03906 0.54623 0.47010
 Zr325 Zr 0.48344 -0.01745 -0.02660
 O326 O 0.46442 -0.00713 -0.04805
 O327 O 0.48592 -0.04673 -0.03411
 O328 O 0.49620 -0.01882 -0.05401
 O329 O 0.44788 -0.02298 0.00772
 O330 O 0.52561 -0.00423 -0.04968
 O331 O 0.45508 -0.02865 -0.02366
 O332 O 0.50764 -0.05848 -0.01235
 O333 O 0.51280 -0.02297 -0.02117
 O334 O 0.48490 -0.03047 0.00022
 O335 O 0.49727 0.00962 -0.02766
 O336 O 0.47015 0.00219 -0.00745
 Zr337 Zr 0.51612 0.01098 0.02527
 Zr338 Zr 0.52631 0.00414 -0.02077
 Zr339 Zr 0.47320 -0.01060 0.01948
 Zr340 Zr 0.51408 -0.03498 0.00603
 O341 O 0.44891 0.00633 0.02719
 O342 O 0.54073 -0.04552 -0.00476
 O343 O 0.50225 -0.01618 0.02664
 O344 O 0.52906 -0.00866 0.00609
 O345 O 0.51476 0.02424 -0.00147
 O346 O 0.48681 0.01632 0.01966
 C347 C 0.49629 -0.06025 -0.02689
 C348 C 0.44369 -0.02925 -0.00917
 C349 C 0.51271 -0.01277 -0.06002
 O350 O 0.55177 -0.01180 -0.02665
 O351 O 0.55038 0.01932 -0.00975
 O352 O 0.54369 0.02389 0.02189
 C353 C 0.55454 0.02569 0.00709
 O354 O 0.46449 0.03243 -0.02935
 Zr355 Zr 0.48543 0.02848 -0.00734
 O356 O 0.51397 0.04036 0.03253
 O357 O 0.53134 0.02856 -0.03803
 O358 O 0.49656 0.04956 -0.02613
 O359 O 0.45998 0.04086 0.00438
 O360 O 0.49420 0.05253 0.00927
 C361 C 0.50513 0.05424 0.02411
 O362 O 0.53617 0.00094 0.04593
 O363 O 0.46685 -0.03590 0.03501
 O364 O 0.50422 0.01068 0.05306
 O365 O 0.47534 -0.00501 0.04898
 O366 O 0.50271 -0.05742 0.02307
 O367 O 0.53241 -0.03978 0.03003
 C368 C 0.48830 0.00344 0.05932
 H369 H 0.47771 -0.04283 0.00078
 H370 H 0.54280 -0.01094 0.00949
 H371 H 0.48082 0.02503 0.02925
 H372 H 0.49592 0.01540 -0.04048
 H373 H 0.54119 -0.05960 -0.00231
 H374 H 0.55931 -0.00417 -0.03592
 H375 H 0.54405 0.02656 -0.04422
 H376 H 0.48951 0.06180 -0.02364
 H377 H 0.51030 -0.06927 0.02032
 H378 H 0.45418 -0.03372 0.04125
 H379 H 0.44133 -0.00139 0.03637
 H380 H 0.46008 0.05481 0.00129
 H381 H 0.53788 -0.05300 0.02926
 H382 H 0.53953 0.01210 0.05433
 H383 H 0.46095 -0.01832 -0.05636
 H384 H 0.46135 0.04635 -0.03042
 Zr385 Zr 0.51594 0.51757 -0.02629
 O386 O 0.53429 0.50708 -0.04818
 O387 O 0.51418 0.54702 -0.03276
 O388 O 0.50277 0.51963 -0.05361
 O389 O 0.55229 0.52157 0.00798
 O390 O 0.47302 0.50585 -0.04965
 O391 O 0.54463 0.52794 -0.02315
 O392 O 0.49330 0.55908 -0.01044
 O393 O 0.48686 0.52386 -0.02055
 O394 O 0.51537 0.53018 0.00098
 O395 O 0.50133 0.49093 -0.02820
 O396 O 0.52904 0.49727 -0.00791
 Zr397 Zr 0.48347 0.48929 0.02476
 Zr398 Zr 0.47258 0.49713 -0.02098
 Zr399 Zr 0.52687 0.50969 0.01948
 Zr400 Zr 0.48643 0.53545 0.00708
 O401 O 0.55078 0.49192 0.02645
 O402 O 0.45993 0.54690 -0.00327
 O403 O 0.49814 0.51601 0.02698
 O404 O 0.47071 0.50957 0.00633
 O405 O 0.48395 0.47646 -0.00244
 O406 O 0.51250 0.48317 0.01884
 C407 C 0.50443 0.56075 -0.02498
 C408 C 0.55631 0.52800 -0.00871
 C409 C 0.48601 0.51409 -0.05977
 O410 O 0.44747 0.51386 -0.02616
 O411 O 0.44836 0.48234 -0.01031
 O412 O 0.45555 0.47715 0.02112
 C413 C 0.44441 0.47578 0.00633
 O414 O 0.53361 0.46735 -0.03071
 Zr415 Zr 0.51302 0.47143 -0.00860
 O416 O 0.48474 0.45973 0.03089
 O417 O 0.46653 0.47313 -0.03903
 O418 O 0.50118 0.45103 -0.02824
 O419 O 0.53815 0.45802 0.00277
 O420 O 0.50350 0.44735 0.00695
 C421 C 0.49275 0.44571 0.02175
 O422 O 0.46411 0.49961 0.04587
 O423 O 0.53430 0.53454 0.03583
 O424 O 0.49588 0.48882 0.05250
 O425 O 0.52512 0.50376 0.04881
 O426 O 0.49871 0.55727 0.02487
 O427 O 0.46865 0.54037 0.03131
 C428 C 0.51210 0.49554 0.05893
 H429 H 0.52292 0.54232 0.00193
 H430 H 0.45710 0.51217 0.00989
 H431 H 0.51835 0.47411 0.02810
 H432 H 0.50230 0.48531 -0.04121
 H433 H 0.45992 0.56095 -0.00037
 H434 H 0.43954 0.50657 -0.03562
 H435 H 0.45375 0.47557 -0.04506
 H436 H 0.50797 0.43858 -0.02622
 H437 H 0.49138 0.56936 0.02260
 H438 H 0.54701 0.53187 0.04192
 H439 H 0.55877 0.49927 0.03582
 H440 H 0.53753 0.44413 -0.00080
 H441 H 0.46348 0.55372 0.03097
 H442 H 0.46057 0.48843 0.05391
 H443 H 0.53793 0.51830 -0.05613
 H444 H 0.53650 0.45339 -0.03217
 Zr445 Zr 0.01563 1.01798 0.47279
 O446 O 0.03404 1.00736 0.45101
 O447 O 0.01362 1.04733 0.46594
 O448 O 0.00242 1.01961 0.44545
 O449 O 0.05197 1.02267 0.50699
 O450 O -0.02724 1.00569 0.44961
 O451 O 0.04425 1.02860 0.47579
 O452 O -0.00734 1.05951 0.48813
 O453 O -0.01349 1.02414 0.47849
 O454 O 0.01499 1.03093 0.49990
 O455 O 0.00120 0.99122 0.47122
 O456 O 0.02887 0.99800 0.49141
 Zr457 Zr -0.01661 0.99014 0.52421
 Zr458 Zr -0.02759 0.99733 0.47838
 Zr459 Zr 0.02664 1.01075 0.51865
 Zr460 Zr -0.01398 1.03607 0.50598
 O461 O 0.05070 0.99323 0.52577
 O462 O -0.04058 1.04724 0.49557
 O463 O -0.00212 1.01697 0.52610
 O464 O -0.02952 1.01009 0.50554
 O465 O -0.01607 0.97696 0.49717
 O466 O 0.01245 0.98413 0.51833
 C467 C 0.00375 1.06107 0.47355
 C468 C 0.05594 1.02892 0.49023
 C469 C -0.01431 1.01390 0.43938
 O470 O -0.05281 1.01382 0.47302
 O471 O -0.05170 0.98251 0.48925
 O472 O -0.04445 0.97776 0.52075
 C473 C -0.05559 0.97614 0.50598
 O474 O 0.03359 0.96779 0.46895
 Zr475 Zr 0.01303 0.97204 0.49105
 O476 O -0.01512 0.96069 0.53073
 O477 O -0.03349 0.97307 0.46062
 O478 O 0.00125 0.95133 0.47169
 O479 O 0.03827 0.95894 0.50251
 O480 O 0.00372 0.94810 0.50696
 C481 C -0.00700 0.94660 0.52180
 O482 O -0.03602 1.00061 0.54520
 O483 O 0.03392 1.03582 0.53471
 O484 O -0.00417 0.99004 0.55193
 O485 O 0.02498 1.00510 0.54805
 O486 O -0.00180 1.05819 0.52346
 O487 O -0.03175 1.04115 0.53018
 C488 C 0.01202 0.99691 0.55827
 H489 H 0.02245 1.04313 0.50070
 H490 H -0.04315 1.01264 0.50908
 H491 H 0.01838 0.97523 0.52769
 H492 H 0.00219 0.98545 0.45827
 H493 H -0.04069 1.06131 0.49835
 H494 H -0.06071 1.00636 0.46366
 H495 H -0.04630 0.97535 0.45457
 H496 H 0.00809 0.93894 0.47387
 H497 H -0.00921 1.07021 0.52105
 H498 H 0.04664 1.03331 0.54084
 H499 H 0.05864 1.00073 0.53507
 H500 H 0.03774 0.94501 0.49911
 H501 H -0.03695 1.05449 0.52974
 H502 H -0.03949 0.98951 0.55338
 H503 H 0.03759 1.01850 0.44293
 H504 H 0.03651 0.95383 0.46761
 Zr505 Zr 0.73307 0.26519 0.22481
 O506 O 0.74471 0.28392 0.20407
 O507 O 0.70389 0.26395 0.21665
 O508 O 0.73180 0.25271 0.19709
 O509 O 0.72783 0.30061 0.25982
 O510 O 0.74515 0.22276 0.20097
 O511 O 0.72273 0.29383 0.22817
 O512 O 0.69072 0.24262 0.23763
 O513 O 0.72630 0.23607 0.22938
 O514 O 0.71933 0.26403 0.25130
 O515 O 0.75965 0.25037 0.22393
 O516 O 0.75274 0.27759 0.24464
 Zr517 Zr 0.75898 0.23117 0.27641
 Zr518 Zr 0.75290 0.22155 0.23000
 Zr519 Zr 0.73916 0.27485 0.27122
 Zr520 Zr 0.71356 0.23505 0.25629
 O521 O 0.75682 0.29844 0.27972
 O522 O 0.70230 0.20897 0.24455
 O523 O 0.73229 0.24603 0.27756
 O524 O 0.73933 0.21910 0.25653
 O525 O 0.77295 0.23220 0.24998
 O526 O 0.76558 0.26024 0.27161
 C527 C 0.68976 0.25414 0.22335
 C528 C 0.72210 0.30510 0.24292
 C529 C 0.73732 0.23604 0.19080
 O530 O 0.73622 0.19671 0.22328
 O531 O 0.76711 0.19697 0.24077
 O532 O 0.77109 0.20328 0.27264
 C533 C 0.77298 0.19253 0.25763
 O534 O 0.78375 0.28227 0.22354
 Zr535 Zr 0.77847 0.26133 0.24491
 O536 O 0.78826 0.23208 0.28434
 O537 O 0.77751 0.21577 0.21303
 O538 O 0.79958 0.24958 0.22625
 O539 O 0.79160 0.28611 0.25752
 O540 O 0.80177 0.25143 0.26176
 C541 C 0.80270 0.24035 0.27637
 O542 O 0.74757 0.21141 0.29632
 O543 O 0.71376 0.28202 0.28648
 O544 O 0.75855 0.24288 0.30445
 O545 O 0.74407 0.27235 0.30075
 O546 O 0.69110 0.24706 0.27317
 O547 O 0.70747 0.21672 0.27970
 C548 C 0.75182 0.25903 0.31093
 H549 H 0.70721 0.27166 0.25180
 H550 H 0.73648 0.20545 0.25956
 H551 H 0.77430 0.26581 0.28150
 H552 H 0.76578 0.25159 0.21126
 H553 H 0.68812 0.20904 0.24665
 H554 H 0.74381 0.18898 0.21398
 H555 H 0.77520 0.20318 0.20652
 H556 H 0.81204 0.25610 0.22919
 H557 H 0.67903 0.23994 0.26998
 H558 H 0.71628 0.29454 0.29305
 H559 H 0.74919 0.30623 0.28893
 H560 H 0.80563 0.28545 0.25473
 H561 H 0.69409 0.21170 0.27846
 H562 H 0.75838 0.20754 0.30488
 H563 H 0.73388 0.28790 0.19560
 H564 H 0.79783 0.28487 0.22283
 Zr565 Zr 0.77066 0.73653 0.72643
 O566 O 0.76154 0.71802 0.70384
 O567 O 0.80025 0.73951 0.72073
 O568 O 0.77288 0.74995 0.69946
 O569 O 0.77487 0.70009 0.75995
 O570 O 0.75781 0.77907 0.70375
 O571 O 0.78183 0.70817 0.72917
 O572 O 0.81086 0.76071 0.74375
 O573 O 0.77567 0.76575 0.73299
 O574 O 0.78254 0.73737 0.75399
 O575 O 0.74349 0.75013 0.72423
 O576 O 0.75034 0.72261 0.74405
 Zr577 Zr 0.73970 0.76754 0.77751
 Zr578 Zr 0.74840 0.77899 0.73222
 Zr579 Zr 0.76196 0.72504 0.77175
 Zr580 Zr 0.78650 0.76640 0.76088
 O581 O 0.74492 0.70048 0.77796
 O582 O 0.79721 0.79341 0.75150
 O583 O 0.76695 0.75389 0.78004
 O584 O 0.76004 0.78112 0.75986
 O585 O 0.72760 0.76678 0.75001
 O586 O 0.73490 0.73838 0.77080
 C587 C 0.81337 0.74981 0.72901
 C588 C 0.78179 0.69636 0.74331
 C589 C 0.76682 0.76649 0.69354
 O590 O 0.76442 0.80463 0.72790
 O591 O 0.73261 0.80265 0.74307
 O592 O 0.72671 0.79506 0.77418
 C593 C 0.72548 0.80629 0.75963
 O594 O 0.72108 0.71725 0.72031
 Zr595 Zr 0.72389 0.73761 0.74309
 O596 O 0.71002 0.76493 0.78298
 O597 O 0.72458 0.78431 0.71384
 O598 O 0.70348 0.74901 0.72343
 O599 O 0.71132 0.71178 0.75339
 O600 O 0.69904 0.74571 0.75849
 C601 C 0.69658 0.75621 0.77351
 O602 O 0.74861 0.78711 0.79930
 O603 O 0.78675 0.71844 0.78840
 O604 O 0.73906 0.75496 0.80496
 O605 O 0.75526 0.72639 0.80098
 O606 O 0.80836 0.75479 0.77885
 O607 O 0.79008 0.78406 0.78567
 C608 C 0.74628 0.73900 0.81119
 H609 H 0.79493 0.73025 0.75503
 H610 H 0.76205 0.79477 0.76377
 H611 H 0.72585 0.73209 0.77972
 H612 H 0.73823 0.74906 0.71108
 H613 H 0.81118 0.79394 0.75477
 H614 H 0.75708 0.81237 0.71846
 H615 H 0.72672 0.79719 0.70812
 H616 H 0.69122 0.74177 0.72499
 H617 H 0.82022 0.76261 0.77706
 H618 H 0.78444 0.70562 0.79416
 H619 H 0.75237 0.69274 0.78731
 H620 H 0.69749 0.71181 0.74953
 H621 H 0.80325 0.78973 0.78580
 H622 H 0.73705 0.79013 0.80713
 H623 H 0.77314 0.71488 0.69612
 H624 H 0.70725 0.71397 0.71839
 Zr625 Zr 0.23224 0.23477 0.77575
 O626 O 0.24197 0.21643 0.79789
 O627 O 0.20261 0.23690 0.78161
 O628 O 0.22978 0.24806 0.80301
 O629 O 0.22861 0.19832 0.74150
 O630 O 0.24411 0.27755 0.79927
 O631 O 0.22161 0.20622 0.77247
 O632 O 0.19130 0.25775 0.75899
 O633 O 0.22645 0.26386 0.76984
 O634 O 0.22024 0.23536 0.74825
 O635 O 0.25906 0.24902 0.77813
 O636 O 0.25280 0.22134 0.75778
 Zr637 Zr 0.26216 0.26658 0.72520
 Zr638 Zr 0.25338 0.27776 0.77075
 Zr639 Zr 0.24102 0.22353 0.73017
 Zr640 Zr 0.21548 0.26428 0.74200
 O641 O 0.25870 0.19943 0.72351
 O642 O 0.20408 0.29091 0.75212
 O643 O 0.23526 0.25226 0.72252
 O644 O 0.24158 0.27965 0.74321
 O645 O 0.27438 0.26607 0.75264
 O646 O 0.26775 0.23754 0.73128
 C647 C 0.18915 0.24672 0.77349
 C648 C 0.22177 0.19446 0.75808
 C649 C 0.23547 0.26472 0.80926
 O650 O 0.23677 0.30302 0.77563
 O651 O 0.26862 0.30178 0.76033
 O652 O 0.27451 0.29437 0.72903
 C653 C 0.27559 0.30559 0.74381
 O654 O 0.28219 0.21655 0.78120
 Zr655 Zr 0.27887 0.23699 0.75894
 O656 O 0.29189 0.26480 0.71963
 O657 O 0.27713 0.28365 0.78917
 O658 O 0.29903 0.24870 0.77889
 O659 O 0.29216 0.21162 0.74792
 O660 O 0.30346 0.24596 0.74379
 C661 C 0.30559 0.25656 0.72899
 O662 O 0.25265 0.28597 0.70386
 O663 O 0.21640 0.21627 0.71342
 O664 O 0.26295 0.25409 0.69748
 O665 O 0.24752 0.22511 0.70093
 O666 O 0.19395 0.25220 0.72374
 O667 O 0.21133 0.28203 0.71769
 C668 C 0.25608 0.23799 0.69093
 H669 H 0.20802 0.22795 0.74707
 H670 H 0.23921 0.29325 0.73958
 H671 H 0.27693 0.23152 0.72218
 H672 H 0.26440 0.24805 0.79124
 H673 H 0.19008 0.29108 0.74893
 H674 H 0.24396 0.31091 0.78521
 H675 H 0.27469 0.29646 0.79516
 H676 H 0.31145 0.24173 0.77714
 H677 H 0.18186 0.25965 0.72575
 H678 H 0.21905 0.20352 0.70740
 H679 H 0.25145 0.19150 0.71402
 H680 H 0.30599 0.21202 0.75178
 H681 H 0.19801 0.28733 0.71775
 H682 H 0.26409 0.28929 0.69604
 H683 H 0.23050 0.21297 0.80561
 H684 H 0.29609 0.21351 0.78295
 Zr685 Zr 0.26829 0.76407 0.27512
 O686 O 0.25959 0.78301 0.29740
 O687 O 0.29775 0.76027 0.28137
 O688 O 0.27003 0.75080 0.30222
 O689 O 0.27380 0.80008 0.24139
 O690 O 0.25406 0.72214 0.29789
 O691 O 0.28033 0.79207 0.27237
 O692 O 0.30784 0.73859 0.25870
 O693 O 0.27246 0.73467 0.26887
 O694 O 0.28030 0.76265 0.24779
 O695 O 0.24072 0.75131 0.27693
 O696 O 0.24850 0.77844 0.25702
 Zr697 Zr 0.23670 0.73355 0.22371
 Zr698 Zr 0.24481 0.72225 0.26924
 Zr699 Zr 0.26020 0.77544 0.22955
 Zr700 Zr 0.28342 0.73346 0.24118
 O701 O 0.24394 0.80045 0.22289
 O702 O 0.29331 0.70625 0.25098
 O703 O 0.26435 0.74638 0.22158
 O704 O 0.25653 0.71955 0.24184
 O705 O 0.22443 0.73489 0.25097
 O706 O 0.23277 0.76291 0.23013
 C707 C 0.31060 0.74955 0.27339
 C708 C 0.28074 0.80374 0.25813
 C709 C 0.26344 0.73450 0.30816
 O710 O 0.26007 0.69621 0.27412
 O711 O 0.22854 0.69889 0.25828
 O712 O 0.22296 0.70639 0.22702
 C713 C 0.22145 0.69527 0.24161
 O714 O 0.21916 0.78467 0.28034
 Zr715 Zr 0.22161 0.76423 0.25761
 O716 O 0.20719 0.73721 0.21754
 O717 O 0.22071 0.71778 0.28718
 O718 O 0.20067 0.75338 0.27676
 O719 O 0.21003 0.79051 0.24710
 O720 O 0.19668 0.75714 0.24154
 C721 C 0.19403 0.74669 0.22649
 O722 O 0.24510 0.71354 0.20223
 O723 O 0.28525 0.78114 0.21329
 O724 O 0.23661 0.74593 0.19615
 O725 O 0.25356 0.77407 0.20023
 O726 O 0.30566 0.74430 0.22349
 O727 O 0.28661 0.71545 0.21662
 C728 C 0.24428 0.76164 0.18995
 H729 H 0.29290 0.76939 0.24691
 H730 H 0.25819 0.70582 0.23808
 H731 H 0.22400 0.76945 0.22100
 H732 H 0.23542 0.75263 0.28998
 H733 H 0.30727 0.70528 0.24794
 H734 H 0.25247 0.68878 0.28350
 H735 H 0.22245 0.70491 0.29307
 H736 H 0.18863 0.76096 0.27490
 H737 H 0.31731 0.73620 0.22557
 H738 H 0.28334 0.79397 0.20738
 H739 H 0.25164 0.80788 0.21359
 H740 H 0.19618 0.79097 0.25069
 H741 H 0.29964 0.70948 0.21674
 H742 H 0.23349 0.71083 0.19420
 H743 H 0.27123 0.78589 0.30532
 H744 H 0.20539 0.78824 0.28204
 Zr745 Zr 0.23597 0.76739 0.72263
 O746 O 0.24800 0.78624 0.70223
 O747 O 0.20700 0.76597 0.71379
 O748 O 0.23527 0.75498 0.69487
 O749 O 0.22990 0.80266 0.75765
 O750 O 0.24856 0.72503 0.69893
 O751 O 0.22542 0.79597 0.72589
 O752 O 0.19350 0.74445 0.73437
 O753 O 0.22918 0.73824 0.72701
 O754 O 0.22168 0.76611 0.74884
 O755 O 0.26260 0.75262 0.72223
 O756 O 0.25521 0.77978 0.74288
 Zr757 Zr 0.26092 0.73327 0.77462
 Zr758 Zr 0.25579 0.72377 0.72809
 Zr759 Zr 0.24111 0.77691 0.76917
 Zr760 Zr 0.21589 0.73710 0.75364
 O761 O 0.25851 0.80056 0.77806
 O762 O 0.20494 0.71093 0.74182
 O763 O 0.23418 0.74807 0.77531
 O764 O 0.24169 0.72122 0.75434
 O765 O 0.27540 0.73441 0.74848
 O766 O 0.26755 0.76237 0.77004
 C767 C 0.19281 0.75595 0.72007
 C768 C 0.22445 0.80719 0.74067
 C769 C 0.24089 0.73832 0.68865
 O770 O 0.23929 0.69892 0.72097
 O771 O 0.26980 0.69917 0.73907
 O772 O 0.27307 0.70537 0.77104
 C773 C 0.27529 0.69467 0.75604
 O774 O 0.28657 0.78466 0.72245
 Zr775 Zr 0.28097 0.76357 0.74360
 O776 O 0.29007 0.73411 0.78302
 O777 O 0.28076 0.71810 0.71160
 O778 O 0.30246 0.75204 0.72523
 O779 O 0.29384 0.78826 0.75662
 O780 O 0.30399 0.75352 0.76074
 C781 C 0.30466 0.74234 0.77529
 O782 O 0.24913 0.71350 0.79432
 O783 O 0.21539 0.78392 0.78398
 O784 O 0.26001 0.74495 0.80267
 O785 O 0.24551 0.77438 0.79878
 O786 O 0.19300 0.74911 0.76995
 O787 O 0.20937 0.71883 0.77698
 C788 C 0.25314 0.76107 0.80907
 H789 H 0.20952 0.77368 0.74909
 H790 H 0.23880 0.70755 0.75728
 H791 H 0.27610 0.76792 0.78009
 H792 H 0.26897 0.75389 0.70968
 H793 H 0.19072 0.71096 0.74366
 H794 H 0.24708 0.69123 0.71181
 H795 H 0.27859 0.70553 0.70501
 H796 H 0.31484 0.75861 0.72841
 H797 H 0.18102 0.74197 0.76647
 H798 H 0.21773 0.79643 0.79064
 H799 H 0.25067 0.80830 0.78713
 H800 H 0.30793 0.78763 0.75408
 H801 H 0.19598 0.71387 0.77555
 H802 H 0.25978 0.70961 0.80305
 H803 H 0.23733 0.79020 0.69354
 H804 H 0.30064 0.78738 0.72206
 Zr805 Zr 0.26980 0.23454 0.22345
 O806 O 0.26027 0.21579 0.20120
 O807 O 0.29923 0.23754 0.21715
 O808 O 0.27157 0.24774 0.19633
 O809 O 0.27485 0.19847 0.25724
 O810 O 0.25647 0.27685 0.20063
 O811 O 0.28119 0.20626 0.22625
 O812 O 0.31022 0.25900 0.23975
 O813 O 0.27482 0.26383 0.22964
 O814 O 0.28219 0.23568 0.25078
 O815 O 0.24256 0.24804 0.22158
 O816 O 0.24988 0.22071 0.24155
 Zr817 Zr 0.23968 0.26593 0.27479
 Zr818 Zr 0.24750 0.27698 0.22924
 Zr819 Zr 0.26199 0.22345 0.26903
 Zr820 Zr 0.28618 0.26478 0.25732
 O821 O 0.24517 0.19888 0.27570
 O822 O 0.29662 0.29173 0.24751
 O823 O 0.26702 0.25239 0.27695
 O824 O 0.25965 0.27940 0.25665
 O825 O 0.22707 0.26487 0.24751
 O826 O 0.23487 0.23669 0.26841
 C827 C 0.31246 0.24796 0.22506
 C828 C 0.28151 0.19462 0.24053
 C829 C 0.26539 0.26423 0.19038
 O830 O 0.26330 0.30266 0.22440
 O831 O 0.23185 0.30072 0.24017
 O832 O 0.22658 0.29340 0.27146
 C833 C 0.22506 0.30451 0.25684
 O834 O 0.22022 0.21507 0.21833
 Zr835 Zr 0.22338 0.23562 0.24091
 O836 O 0.21011 0.26325 0.28080
 O837 O 0.22333 0.28201 0.21123
 O838 O 0.20254 0.24678 0.22153
 O839 O 0.21112 0.20982 0.25163
 O840 O 0.19881 0.24372 0.25670
 C841 C 0.19656 0.25433 0.27167
 O842 O 0.24893 0.28570 0.29626
 O843 O 0.28708 0.21712 0.28534
 O844 O 0.23953 0.25357 0.30235
 O845 O 0.25576 0.22502 0.29835
 O846 O 0.30838 0.25337 0.27500
 O847 O 0.29020 0.28271 0.28186
 C848 C 0.24689 0.23769 0.30861
 H849 H 0.29463 0.22862 0.25166
 H850 H 0.26169 0.29309 0.26041
 H851 H 0.22602 0.23044 0.27754
 H852 H 0.23708 0.24683 0.20852
 H853 H 0.31065 0.29233 0.25050
 H854 H 0.25576 0.31026 0.21500
 H855 H 0.22531 0.29483 0.20534
 H856 H 0.19035 0.23951 0.22338
 H857 H 0.32022 0.26113 0.27287
 H858 H 0.28491 0.20434 0.29126
 H859 H 0.25280 0.19126 0.28501
 H860 H 0.19722 0.20976 0.24802
 H861 H 0.30339 0.28832 0.28173
 H862 H 0.23751 0.28876 0.30427
 H863 H 0.27173 0.21260 0.19329
 H864 H 0.20636 0.21172 0.21669
 Zr865 Zr 0.73485 0.73217 0.27911
 O866 O 0.74694 0.71351 0.29982
 O867 O 0.70593 0.73367 0.28765
 O868 O 0.73425 0.74485 0.30674
 O869 O 0.72862 0.69657 0.24435
 O870 O 0.74759 0.77473 0.30254
 O871 O 0.72431 0.70356 0.27602
 O872 O 0.69235 0.75502 0.26676
 O873 O 0.72809 0.76128 0.27440
 O874 O 0.72045 0.73322 0.25276
 O875 O 0.76150 0.74689 0.27963
 O876 O 0.75397 0.71955 0.25914
 Zr877 Zr 0.75964 0.76574 0.22704
 Zr878 Zr 0.75472 0.77570 0.27343
 Zr879 Zr 0.73976 0.72220 0.23268
 Zr880 Zr 0.71468 0.76219 0.24765
 O881 O 0.75709 0.69845 0.22412
 O882 O 0.70382 0.78848 0.25917
 O883 O 0.73286 0.75100 0.22623
 O884 O 0.74051 0.77801 0.24703
 O885 O 0.77423 0.76481 0.25332
 O886 O 0.76623 0.73667 0.23195
 C887 C 0.69171 0.74363 0.28115
 C888 C 0.72328 0.69220 0.26133
 C889 C 0.73992 0.76156 0.31286
 O890 O 0.73830 0.80065 0.28016
 O891 O 0.76874 0.80015 0.26236
 O892 O 0.77189 0.79362 0.23048
 C893 C 0.77418 0.80447 0.24540
 O894 O 0.78540 0.71484 0.27997
 Zr895 Zr 0.77975 0.73569 0.25853
 O896 O 0.78874 0.76467 0.21888
 O897 O 0.77976 0.78146 0.29011
 O898 O 0.80135 0.74742 0.27693
 O899 O 0.79249 0.71079 0.24593
 O900 O 0.80270 0.74540 0.24144
 C901 C 0.80333 0.75639 0.22677
 O902 O 0.74783 0.78538 0.20707
 O903 O 0.71395 0.71510 0.21773
 O904 O 0.75857 0.75382 0.19909
 O905 O 0.74403 0.72446 0.20308
 O906 O 0.69171 0.75009 0.23122
 O907 O 0.70807 0.78028 0.22410
 C908 C 0.75165 0.73766 0.19275
 H909 H 0.70828 0.72566 0.25247
 H910 H 0.73763 0.79166 0.24394
 H911 H 0.77471 0.73100 0.22202
 H912 H 0.76792 0.74573 0.29226
 H913 H 0.68960 0.78845 0.25722
 H914 H 0.74614 0.80841 0.28933
 H915 H 0.77764 0.79409 0.29657
 H916 H 0.81371 0.74079 0.27393
 H917 H 0.67976 0.75728 0.23452
 H918 H 0.71624 0.70254 0.21121
 H919 H 0.74917 0.69064 0.21506
 H920 H 0.80659 0.71139 0.24862
 H921 H 0.69471 0.78530 0.22539
 H922 H 0.75845 0.78914 0.19838
 H923 H 0.73630 0.70965 0.30844
 H924 H 0.79947 0.71215 0.28057
 Zr925 Zr 0.76537 0.26640 0.77682
 O926 O 0.75436 0.28550 0.79792
 O927 O 0.79448 0.26408 0.78506
 O928 O 0.76610 0.25386 0.80430
 O929 O 0.77174 0.30164 0.74248
 O930 O 0.75171 0.22440 0.79978
 O931 O 0.77655 0.29474 0.77402
 O932 O 0.80688 0.24221 0.76373
 O933 O 0.77114 0.23706 0.77166
 O934 O 0.77916 0.26478 0.75034
 O935 O 0.73829 0.25249 0.77732
 O936 O 0.74617 0.27942 0.75716
 Zr937 Zr 0.73844 0.23323 0.72447
 Zr938 Zr 0.74407 0.22346 0.77070
 Zr939 Zr 0.75974 0.27622 0.73056
 Zr940 Zr 0.78392 0.23561 0.74477
 O941 O 0.74295 0.30040 0.72237
 O942 O 0.79427 0.20910 0.75587
 O943 O 0.76562 0.24719 0.72366
 O944 O 0.75763 0.22055 0.74417
 O945 O 0.72441 0.23473 0.75087
 O946 O 0.73286 0.26253 0.72983
 C947 C 0.80823 0.25366 0.77825
 C948 C 0.77751 0.30601 0.75948
 C949 C 0.75997 0.23738 0.81024
 O950 O 0.75996 0.19814 0.77707
 O951 O 0.72927 0.19927 0.75944
 O952 O 0.72552 0.20568 0.72768
 C953 C 0.72337 0.19495 0.74248
 O954 O 0.71516 0.28501 0.77838
 Zr955 Zr 0.71990 0.26405 0.75650
 O956 O 0.70927 0.23529 0.71641
 O957 O 0.71918 0.21848 0.78742
 O958 O 0.69830 0.25282 0.77471
 O959 O 0.70781 0.28942 0.74451
 O960 O 0.69636 0.25527 0.73918
 C961 C 0.69513 0.24428 0.72432
 O962 O 0.74917 0.21311 0.70416
 O963 O 0.78547 0.28248 0.71558
 O964 O 0.73937 0.24495 0.69666
 O965 O 0.75483 0.27390 0.70097
 O966 O 0.80683 0.24696 0.72827
 O967 O 0.78947 0.21717 0.72097
 C968 C 0.74664 0.26087 0.69051
 H969 H 0.79152 0.27200 0.75005
 H970 H 0.76006 0.20681 0.74089
 H971 H 0.72438 0.26843 0.72003
 H972 H 0.73215 0.25390 0.79000
 H973 H 0.80844 0.20868 0.75377
 H974 H 0.75210 0.19065 0.78619
 H975 H 0.72106 0.20583 0.79370
 H976 H 0.68607 0.25975 0.77187
 H977 H 0.81866 0.23945 0.73136
 H978 H 0.78342 0.29507 0.70922
 H979 H 0.75090 0.30791 0.71334
 H980 H 0.69374 0.28930 0.74723
 H981 H 0.80272 0.21182 0.72204
 H982 H 0.73825 0.20964 0.69550
 H983 H 0.76532 0.28909 0.80649
 H984 H 0.70116 0.28798 0.77915
 C985 C 0.39737 0.99962 0.26678
 C986 C 0.40778 0.99966 0.28071
 C987 C 0.42012 0.99933 0.29740
 C988 C 0.43176 0.98318 0.30103
 C989 C 0.44324 0.98252 0.31756
 C990 C 0.44326 0.99804 0.33071
 C991 C 0.43168 1.01432 0.32680
 C992 C 0.42020 1.01494 0.31028
 C993 C 0.45468 0.99701 0.34878
 C994 C 0.46416 1.01349 0.35620
 C995 C 0.47361 1.01287 0.37393
 C996 C 0.47379 0.99578 0.38448
 C997 C 0.46490 0.97915 0.37697
 C998 C 0.45545 0.97973 0.35924
 C999 C 0.48122 0.99587 0.40378
 C1000 C 0.48617 0.99634 0.42034
 H1001 H 0.43184 0.97102 0.29115
 H1002 H 0.45213 0.96988 0.32003
 H1003 H 0.43111 1.02637 0.33677
 H1004 H 0.41120 1.02748 0.30767
 H1005 H 0.46406 1.02693 0.34839
 H1006 H 0.48031 1.02588 0.37964
 H1007 H 0.46471 0.96591 0.38511
 H1008 H 0.44810 0.96686 0.35408
 C1009 C -0.10382 0.50039 0.76720
 C1010 C -0.09357 0.50017 0.78125
 C1011 C -0.08155 0.49935 0.79813
 C1012 C -0.08619 0.48652 0.81275
 C1013 C -0.07466 0.48562 0.82920
 C1014 C -0.05825 0.49755 0.83131
 C1015 C -0.05363 0.51033 0.81649
 C1016 C -0.06520 0.51121 0.80001
 C1017 C -0.04646 0.49703 0.84919
 C1018 C -0.03958 0.51427 0.85764
 C1019 C -0.02988 0.51395 0.87525
 C1020 C -0.02683 0.49641 0.88463
 C1021 C -0.03308 0.47912 0.87606
 C1022 C -0.04278 0.47941 0.85845
 C1023 C -0.01921 0.49643 0.90386
 C1024 C -0.01410 0.49685 0.92038
 H1025 H -0.09881 0.47728 0.81147
 H1026 H -0.07882 0.47586 0.84045
 H1027 H -0.04101 0.51956 0.81758
 H1028 H -0.06141 0.52113 0.78876
 H1029 H -0.04237 0.52810 0.85104
 H1030 H -0.02534 0.52746 0.88184
 H1031 H -0.03094 0.46547 0.88323
 H1032 H -0.04764 0.46586 0.85220
 C1033 C 0.10381 -0.00004 0.76721
 C1034 C 0.09376 0.00065 0.78127
 C1035 C 0.08186 0.00218 0.79807
 C1036 C 0.07387 0.02006 0.80329
 C1037 C 0.06280 0.02182 0.81988
 C1038 C 0.05955 0.00568 0.83153
 C1039 C 0.06747 -0.01229 0.82604
 C1040 C 0.07855 -0.01401 0.80944
 C1041 C 0.04851 0.00768 0.84964
 C1042 C 0.03572 -0.00695 0.85545
 C1043 C 0.02638 -0.00564 0.87310
 C1044 C 0.02960 0.01031 0.88517
 C1045 C 0.04189 0.02517 0.87930
 C1046 C 0.05124 0.02391 0.86166
 C1047 C 0.02196 0.01042 0.90430
 C1048 C 0.01665 0.00972 0.92068
 H1049 H 0.07631 0.03269 0.79459
 H1050 H 0.05674 0.03579 0.82357
 H1051 H 0.06549 -0.02493 0.83482
 H1052 H 0.08471 -0.02790 0.80560
 H1053 H 0.03310 -0.01950 0.84644
 H1054 H 0.01702 -0.01732 0.87753
 H1055 H 0.04472 0.03747 0.88862
 H1056 H 0.06117 0.03530 0.85775
 C1057 C 0.60318 0.49914 0.26804
 C1058 C 0.59303 0.49986 0.28202
 C1059 C 0.58104 0.50136 0.29875
 C1060 C 0.57295 0.51920 0.30392
 C1061 C 0.56186 0.52094 0.32050
 C1062 C 0.55869 0.50481 0.33219
 C1063 C 0.56670 0.48687 0.32674
 C1064 C 0.57780 0.48518 0.31015
 C1065 C 0.54770 0.50680 0.35033
 C1066 C 0.53502 0.49211 0.35622
 C1067 C 0.52578 0.49339 0.37392
 C1068 C 0.52899 0.50937 0.38596
 C1069 C 0.54116 0.52430 0.38000
 C1070 C 0.55041 0.52306 0.36231
 C1071 C 0.52151 0.50944 0.40515
 C1072 C 0.51637 0.50871 0.42157
 H1073 H 0.57533 0.53183 0.29520
 H1074 H 0.55573 0.53489 0.32416
 H1075 H 0.56479 0.47424 0.33555
 H1076 H 0.58405 0.47130 0.30635
 H1077 H 0.53242 0.47953 0.34724
 H1078 H 0.51652 0.48166 0.37843
 H1079 H 0.54399 0.53661 0.38929
 H1080 H 0.56026 0.53449 0.35833
 C1081 C 0.60332 0.49948 0.23385
 C1082 C 0.59323 0.49918 0.21968
 C1083 C 0.58127 0.49830 0.20272
 C1084 C 0.57176 0.48108 0.19772
 C1085 C 0.56064 0.47994 0.18096
 C1086 C 0.55887 0.49604 0.16893
 C1087 C 0.56831 0.51336 0.17420
 C1088 C 0.57943 0.51446 0.19097
 C1089 C 0.54781 0.49463 0.15063
 C1090 C 0.53643 0.51020 0.14425
 C1091 C 0.52716 0.50936 0.12642
 C1092 C 0.52906 0.49294 0.11473
 C1093 C 0.53993 0.47717 0.12116
 C1094 C 0.54920 0.47797 0.13899
 C1095 C 0.52159 0.49307 0.09544
 C1096 C 0.51648 0.49379 0.07894
 H1097 H 0.57304 0.46848 0.20672
 H1098 H 0.55340 0.46648 0.17744
 H1099 H 0.56750 0.52593 0.16513
 H1100 H 0.58678 0.52784 0.19464
 H1101 H 0.53486 0.52313 0.15296
 H1102 H 0.51892 0.52172 0.12155
 H1103 H 0.54173 0.46448 0.11215
 H1104 H 0.55804 0.46584 0.14335
 C1105 C 0.10359 1.00031 0.73301
 C1106 C 0.09340 1.00003 0.71892
 C1107 C 0.08136 0.99927 0.70202
 C1108 C 0.07178 0.98211 0.69697
 C1109 C 0.06063 0.98108 0.68023
 C1110 C 0.05890 0.99724 0.66826
 C1111 C 0.06840 1.01451 0.67360
 C1112 C 0.07955 1.01549 0.69034
 C1113 C 0.04785 0.99593 0.64995
 C1114 C 0.03653 1.01156 0.64361
 C1115 C 0.02727 1.01081 0.62577
 C1116 C 0.02912 0.99441 0.61404
 C1117 C 0.03994 0.97859 0.62043
 C1118 C 0.04920 0.97931 0.63826
 C1119 C 0.02162 0.99459 0.59477
 C1120 C 0.01648 0.99528 0.57827
 H1121 H 0.07304 0.96946 0.70591
 H1122 H 0.05334 0.96766 0.67665
 H1123 H 0.06761 1.02711 0.66458
 H1124 H 0.08695 1.02883 0.69405
 H1125 H 0.03499 1.02446 0.65236
 H1126 H 0.01906 1.02320 0.62094
 H1127 H 0.04170 0.96592 0.61138
 H1128 H 0.05800 0.96713 0.64257
 C1129 C -0.10429 0.49926 0.73301
 C1130 C -0.09441 0.49945 0.71884
 C1131 C -0.08279 0.50037 0.70183
 C1132 C -0.06571 0.48957 0.70030
 C1133 C -0.05443 0.49072 0.68379
 C1134 C -0.06007 0.50273 0.66861
 C1135 C -0.07724 0.51356 0.67036
 C1136 C -0.08849 0.51238 0.68684
 C1137 C -0.04847 0.50363 0.65079
 C1138 C -0.04608 0.52124 0.64115
 C1139 C -0.03649 0.52180 0.62362
 C1140 C -0.02907 0.50480 0.61549
 C1141 C -0.03086 0.48731 0.62524
 C1142 C -0.04044 0.48672 0.64278
 C1143 C -0.02147 0.50488 0.59635
 C1144 C -0.01633 0.50443 0.57991
 H1145 H -0.06109 0.48030 0.71185
 H1146 H -0.04121 0.48234 0.68298
 H1147 H -0.08218 0.52269 0.65883
 H1148 H -0.10167 0.52081 0.68786
 H1149 H -0.05183 0.53456 0.64706
 H1150 H -0.03532 0.53540 0.61616
 H1151 H -0.02539 0.47401 0.61900
 H1152 H -0.04222 0.47290 0.64969
 C1153 C 0.39677 -0.00120 0.23263
 C1154 C 0.40662 -0.00075 0.21845
 C1155 C 0.41821 0.00039 0.20144
 C1156 C 0.41203 0.01188 0.18623
 C1157 C 0.42324 0.01324 0.16974
 C1158 C 0.44086 0.00312 0.16821
 C1159 C 0.44698 -0.00837 0.18361
 C1160 C 0.43574 -0.00970 0.20012
 C1161 C 0.45242 0.00416 0.15038
 C1162 C 0.46112 -0.01255 0.14266
 C1163 C 0.47064 -0.01190 0.12510
 C1164 C 0.47170 0.00546 0.11503
 C1165 C 0.46363 0.02229 0.12287
 C1166 C 0.45410 0.02168 0.14043
 C1167 C 0.47915 0.00548 0.09584
 C1168 C 0.48415 0.00494 0.07936
 H1169 H 0.39849 0.01976 0.18708
 H1170 H 0.41793 0.02194 0.15805
 H1171 H 0.46054 -0.01620 0.18295
 H1172 H 0.44072 -0.01856 0.21184
 H1173 H 0.45990 -0.02630 0.14982
 H1174 H 0.47660 -0.02509 0.11908
 H1175 H 0.46422 0.03579 0.11516
 H1176 H 0.44781 0.03485 0.14610
 C1177 C 0.26818 0.37987 0.00053
 C1178 C 0.28302 0.38915 0.00112
 C1179 C 0.30108 0.39961 0.00259
 C1180 C 0.31351 0.39634 0.01812
 C1181 C 0.33121 0.40611 0.01957
 C1182 C 0.33680 0.41934 0.00549
 C1183 C 0.32415 0.42261 -0.01003
 C1184 C 0.30644 0.41280 -0.01147
 C1185 C 0.35579 0.42954 0.00691
 C1186 C 0.35745 0.44908 0.00174
 C1187 C 0.37537 0.45852 0.00274
 C1188 C 0.39191 0.44862 0.00894
 C1189 C 0.39039 0.42922 0.01427
 C1190 C 0.37248 0.41975 0.01330
 C1191 C 0.41053 0.45813 0.00897
 C1192 C 0.42606 0.46615 0.00827
 H1193 H 0.30952 0.38619 0.02911
 H1194 H 0.34044 0.40343 0.03182
 H1195 H 0.32811 0.43250 -0.02125
 H1196 H 0.29701 0.41541 -0.02360
 H1197 H 0.34488 0.45712 -0.00299
 H1198 H 0.37634 0.47352 -0.00147
 H1199 H 0.40309 0.42133 0.01894
 H1200 H 0.37179 0.40464 0.01715
 C1201 C -0.23187 0.88042 0.50214
 C1202 C -0.21720 0.88996 0.50218
 C1203 C -0.19927 0.90071 0.50274
 C1204 C -0.18475 0.89670 0.48942
 C1205 C -0.16691 0.90625 0.49062
 C1206 C -0.16328 0.91996 0.50521
 C1207 C -0.17806 0.92406 0.51840
 C1208 C -0.19590 0.91447 0.51718
 C1209 C -0.14411 0.92978 0.50674
 C1210 C -0.14283 0.94955 0.51160
 C1211 C -0.12481 0.95881 0.51263
 C1212 C -0.10779 0.94847 0.50891
 C1213 C -0.10890 0.92876 0.50428
 C1214 C -0.12689 0.91948 0.50322
 C1215 C -0.08930 0.95823 0.50885
 C1216 C -0.07386 0.96639 0.50806
 H1217 H -0.18714 0.88605 0.47820
 H1218 H -0.15598 0.90296 0.48006
 H1219 H -0.17569 0.93435 0.52993
 H1220 H -0.20695 0.91759 0.52769
 H1221 H -0.15579 0.95797 0.51419
 H1222 H -0.12418 0.97411 0.51607
 H1223 H -0.09586 0.92058 0.50131
 H1224 H -0.12731 0.90420 0.49973
 C1225 C -0.23374 0.12105 0.99908
 C1226 C -0.21866 0.11219 0.99816
 C1227 C -0.20027 0.10239 0.99638
 C1228 C -0.18647 0.10931 0.98357
 C1229 C -0.16849 0.10015 0.98183
 C1230 C -0.16398 0.08386 0.99291
 C1231 C -0.17799 0.07693 1.00569
 C1232 C -0.19598 0.08615 1.00742
 C1233 C -0.14470 0.07427 0.99125
 C1234 C -0.14306 0.05400 0.99188
 C1235 C -0.12491 0.04505 0.99075
 C1236 C -0.10809 0.05618 0.98894
 C1237 C -0.10956 0.07635 0.98811
 C1238 C -0.12771 0.08533 0.98923
 C1239 C -0.08932 0.04691 0.98897
 C1240 C -0.07380 0.03886 0.98978
 H1241 H -0.18961 0.12184 0.97490
 H1242 H -0.15819 0.10571 0.97167
 H1243 H -0.17491 0.06459 1.01462
 H1244 H -0.20649 0.08067 1.01743
 H1245 H -0.15583 0.04503 0.99317
 H1246 H -0.12398 0.02943 0.99147
 H1247 H -0.09667 0.08515 0.98690
 H1248 H -0.12840 0.10096 0.98895
 C1249 C 0.26669 0.61986 0.49868
 C1250 C 0.28152 0.61056 0.49804
 C1251 C 0.29964 0.60023 0.49655
 C1252 C 0.31118 0.60258 0.48036
 C1253 C 0.32908 0.59319 0.47899
 C1254 C 0.33576 0.58127 0.49382
 C1255 C 0.32399 0.57887 0.50999
 C1256 C 0.30608 0.58831 0.51134
 C1257 C 0.35500 0.57155 0.49250
 C1258 C 0.35753 0.55254 0.49907
 C1259 C 0.37568 0.54356 0.49815
 C1260 C 0.39160 0.55339 0.49066
 C1261 C 0.38922 0.57226 0.48395
 C1262 C 0.37107 0.58127 0.48483
 C1263 C 0.41045 0.54431 0.49061
 C1264 C 0.42607 0.53643 0.49134
 H1265 H 0.30638 0.61177 0.46881
 H1266 H 0.33762 0.59516 0.46624
 H1267 H 0.32879 0.57000 0.52177
 H1268 H 0.29736 0.58644 0.52400
 H1269 H 0.34545 0.54455 0.50481
 H1270 H 0.37732 0.52897 0.50342
 H1271 H 0.40144 0.58010 0.47825
 H1272 H 0.36971 0.59599 0.47989
 C1273 C 0.23153 0.62032 0.49875
 C1274 C 0.21651 0.61142 0.49986
 C1275 C 0.19821 0.60155 0.50197
 C1276 C 0.18497 0.60810 0.51566
 C1277 C 0.16710 0.59885 0.51776
 C1278 C 0.16213 0.58283 0.50618
 C1279 C 0.17557 0.57628 0.49250
 C1280 C 0.19346 0.58558 0.49041
 C1281 C 0.14297 0.57313 0.50825
 C1282 C 0.14135 0.55288 0.50678
 C1283 C 0.12329 0.54383 0.50827
 C1284 C 0.10654 0.55484 0.51127
 C1285 C 0.10800 0.57498 0.51295
 C1286 C 0.12606 0.58406 0.51149
 C1287 C 0.08780 0.54552 0.51144
 C1288 C 0.07227 0.53745 0.51067
 H1289 H 0.18848 0.62040 0.52474
 H1290 H 0.15725 0.60412 0.52859
 H1291 H 0.17213 0.56416 0.48318
 H1292 H 0.20352 0.58039 0.47972
 H1293 H 0.15407 0.54400 0.50455
 H1294 H 0.12237 0.52824 0.50685
 H1295 H 0.09515 0.58370 0.51508
 H1296 H 0.12672 0.59968 0.51244
 C1297 C 0.73109 0.12055 -0.00073
 C1298 C 0.71631 0.11122 0.00016
 C1299 C 0.69828 0.10082 0.00200
 C1300 C 0.68627 0.10463 0.01763
 C1301 C 0.66854 0.09504 0.01939
 C1302 C 0.66249 0.08142 0.00552
 C1303 C 0.67473 0.07758 -0.01010
 C1304 C 0.69247 0.08723 -0.01184
 C1305 C 0.64343 0.07145 0.00724
 C1306 C 0.64144 0.05178 0.00225
 C1307 C 0.62345 0.04255 0.00349
 C1308 C 0.60715 0.05279 0.00976
 C1309 C 0.60899 0.07232 0.01491
 C1310 C 0.62698 0.08158 0.01370
 C1311 C 0.58842 0.04346 0.00993
 C1312 C 0.57285 0.03547 0.00923
 H1313 H 0.69059 0.11510 0.02846
 H1314 H 0.65963 0.09816 0.03171
 H1315 H 0.67042 0.06739 -0.02116
 H1316 H 0.70157 0.08419 -0.02406
 H1317 H 0.65382 0.04349 -0.00254
 H1318 H 0.62223 0.02745 -0.00061
 H1319 H 0.59647 0.08047 0.01962
 H1320 H 0.62791 0.09678 0.01741
 C1321 C 0.73307 0.87978 0.50268
 C1322 C 0.71810 0.88882 0.50168
 C1323 C 0.69994 0.89900 0.49969
 C1324 C 0.69507 0.91409 0.51223
 C1325 C 0.67733 0.92374 0.51022
 C1326 C 0.66417 0.91841 0.49563
 C1327 C 0.66926 0.90326 0.48306
 C1328 C 0.68699 0.89366 0.48509
 C1329 C 0.64514 0.92843 0.49364
 C1330 C 0.62825 0.91793 0.48900
 C1331 C 0.61030 0.92726 0.48760
 C1332 C 0.60893 0.94724 0.49074
 C1333 C 0.62567 0.95784 0.49515
 C1334 C 0.64363 0.94854 0.49658
 C1335 C 0.59026 0.95668 0.49055
 C1336 C 0.57469 0.96465 0.49122
 H1337 H 0.70492 0.91835 0.52362
 H1338 H 0.67377 0.93515 0.52030
 H1339 H 0.65963 0.89895 0.47153
 H1340 H 0.69060 0.88204 0.47524
 H1341 H 0.62882 0.90241 0.48689
 H1342 H 0.59744 0.91884 0.48436
 H1343 H 0.62482 0.97330 0.49770
 H1344 H 0.65635 0.95711 0.49991
 C1345 C 0.23313 0.37993 1.00132
 C1346 C 0.21831 0.38926 1.00094
 C1347 C 0.20028 0.39979 0.99980
 C1348 C 0.19818 0.41504 0.98692
 C1349 C 0.18035 0.42450 0.98499
 C1350 C 0.16428 0.41878 0.99586
 C1351 C 0.16661 0.40355 1.00889
 C1352 C 0.18445 0.39414 1.01081
 C1353 C 0.14517 0.42857 0.99358
 C1354 C 0.12784 0.41784 0.99396
 C1355 C 0.10988 0.42708 0.99233
 C1356 C 0.10890 0.44717 0.99024
 C1357 C 0.12605 0.45795 0.98960
 C1358 C 0.14404 0.44874 0.99121
 C1359 C 0.09034 0.45682 0.98999
 C1360 C 0.07484 0.46492 0.99068
 H1361 H 0.21025 0.41945 0.97817
 H1362 H 0.17902 0.43599 0.97467
 H1363 H 0.15465 0.39897 1.01768
 H1364 H 0.18585 0.38232 1.02077
 H1365 H 0.12818 0.40228 0.99547
 H1366 H 0.09673 0.41856 0.99293
 H1367 H 0.12551 0.47353 0.98818
 H1368 H 0.15705 0.45746 0.99107
 C1369 C -0.00063 0.26625 0.37729
 C1370 C -0.00185 0.28074 0.38679
 C1371 C -0.00264 0.29813 0.39795
 C1372 C -0.02049 0.30632 0.40275
 C1373 C -0.02108 0.32362 0.41317
 C1374 C -0.00380 0.33282 0.41887
 C1375 C 0.01405 0.32434 0.41411
 C1376 C 0.01460 0.30709 0.40369
 C1377 C -0.00428 0.35146 0.42929
 C1378 C 0.00863 0.35502 0.44454
 C1379 C 0.00885 0.37300 0.45373
 C1380 C -0.00381 0.38754 0.44779
 C1381 C -0.01691 0.38406 0.43284
 C1382 C -0.01717 0.36609 0.42363
 C1383 C -0.00308 0.40618 0.45678
 C1384 C -0.00238 0.42185 0.46426
 H1385 H -0.03389 0.29942 0.39834
 H1386 H -0.03501 0.32977 0.41683
 H1387 H 0.02756 0.33128 0.41807
 H1388 H 0.02847 0.30085 0.39993
 H1389 H 0.01854 0.34391 0.44932
 H1390 H 0.01899 0.37560 0.46535
 H1391 H -0.02673 0.39531 0.42815
 H1392 H -0.02709 0.36380 0.41178
 C1393 C 0.49761 -0.23471 -0.12107
 C1394 C 0.49481 -0.22043 -0.11159
 C1395 C 0.49207 -0.20320 -0.10048
 C1396 C 0.48447 -0.18667 -0.10909
 C1397 C 0.48333 -0.16939 -0.09873
 C1398 C 0.48985 -0.16849 -0.07967
 C1399 C 0.49696 -0.18534 -0.07099
 C1400 C 0.49808 -0.20261 -0.08138
 C1401 C 0.49026 -0.14982 -0.06929
 C1402 C 0.50661 -0.14459 -0.05835
 C1403 C 0.50757 -0.12650 -0.04943
 C1404 C 0.49222 -0.11349 -0.05135
 C1405 C 0.47575 -0.11865 -0.06194
 C1406 C 0.47476 -0.13674 -0.07089
 C1407 C 0.49357 -0.09470 -0.04273
 C1408 C 0.49484 -0.07893 -0.03553
 H1409 H 0.47990 -0.18703 -0.12392
 H1410 H 0.47802 -0.15657 -0.10583
 H1411 H 0.50185 -0.18507 -0.05627
 H1412 H 0.50399 -0.21537 -0.07464
 H1413 H 0.51888 -0.15426 -0.05713
 H1414 H 0.52039 -0.12256 -0.04128
 H1415 H 0.46378 -0.10864 -0.06343
 H1416 H 0.46193 -0.14050 -0.07909
 C1417 C 0.00016 -0.23105 1.11627
 C1418 C 0.00208 -0.21825 1.10497
 C1419 C 0.00388 -0.20258 1.09196
 C1420 C 0.01787 -0.18833 1.09529
 C1421 C 0.01831 -0.17194 1.08386
 C1422 C 0.00469 -0.16966 1.06904
 C1423 C -0.00887 -0.18442 1.06537
 C1424 C -0.00928 -0.20080 1.07682
 C1425 C 0.00371 -0.15131 1.05850
 C1426 C -0.01431 -0.14245 1.05517
 C1427 C -0.01524 -0.12425 1.04684
 C1428 C 0.00180 -0.11477 1.04175
 C1429 C 0.01976 -0.12366 1.04454
 C1430 C 0.02074 -0.14187 1.05288
 C1431 C 0.00085 -0.09559 1.03438
 C1432 C 0.00008 -0.07941 1.02841
 H1433 H 0.02802 -0.18959 1.10708
 H1434 H 0.02873 -0.16068 1.08715
 H1435 H -0.01938 -0.18308 1.05391
 H1436 H -0.02017 -0.21180 1.07420
 H1437 H -0.02762 -0.14926 1.05965
 H1438 H -0.02920 -0.11739 1.04477
 H1439 H 0.03301 -0.11637 1.04058
 H1440 H 0.03477 -0.14848 1.05515
 C1441 C 0.49805 0.26696 0.61665
 C1442 C 0.49916 0.27985 0.60535
 C1443 C 0.50032 0.29564 0.59239
 C1444 C 0.48336 0.30472 0.58622
 C1445 C 0.48444 0.32126 0.57505
 C1446 C 0.50255 0.32888 0.57000
 C1447 C 0.51952 0.31928 0.57577
 C1448 C 0.51840 0.30274 0.58695
 C1449 C 0.50365 0.34752 0.55997
 C1450 C 0.51697 0.36169 0.56610
 C1451 C 0.51690 0.37994 0.55783
 C1452 C 0.50356 0.38419 0.54337
 C1453 C 0.49059 0.37006 0.53683
 C1454 C 0.49063 0.35178 0.54507
 C1455 C 0.50271 0.40330 0.53582
 C1456 C 0.50189 0.41943 0.52970
 H1457 H 0.46931 0.29935 0.59049
 H1458 H 0.47115 0.32852 0.57103
 H1459 H 0.53364 0.32476 0.57190
 H1460 H 0.53160 0.29576 0.59172
 H1461 H 0.52695 0.35889 0.57774
 H1462 H 0.52694 0.39086 0.56300
 H1463 H 0.48024 0.37327 0.52560
 H1464 H 0.48036 0.34105 0.53998
 C1465 C 0.49221 1.23344 0.62095
 C1466 C 0.48911 1.21834 0.61289
 C1467 C 0.48624 1.20025 0.60323
 C1468 C 0.48657 1.18309 0.61361
 C1469 C 0.48576 1.16533 0.60405
 C1470 C 0.48468 1.16461 0.58399
 C1471 C 0.48374 1.18196 0.57373
 C1472 C 0.48454 1.19971 0.58333
 C1473 C 0.48574 1.14585 0.57381
 C1474 C 0.49767 1.14378 0.55772
 C1475 C 0.49958 1.12585 0.54868
 C1476 C 0.48960 1.10983 0.55561
 C1477 C 0.47751 1.11177 0.57146
 C1478 C 0.47558 1.12970 0.58054
 C1479 C 0.49194 1.09138 0.54653
 C1480 C 0.49392 1.07595 0.53881
 H1481 H 0.48802 1.18344 0.62903
 H1482 H 0.48675 1.15218 0.61228
 H1483 H 0.48267 1.18178 0.55829
 H1484 H 0.48432 1.21297 0.57521
 H1485 H 0.50590 1.15591 0.55244
 H1486 H 0.50899 1.12442 0.53643
 H1487 H 0.46969 1.09941 0.57684
 H1488 H 0.46618 1.13097 0.59281
 C1489 C -0.00466 0.73525 1.12024
 C1490 C -0.00604 0.72001 1.11198
 C1491 C -0.00712 0.70186 1.10212
 C1492 C 0.00321 0.69918 1.08520
 C1493 C 0.00303 0.68123 1.07601
 C1494 C -0.00748 0.66577 1.08369
 C1495 C -0.01810 0.66869 1.10053
 C1496 C -0.01789 0.68668 1.10972
 C1497 C -0.00693 0.64655 1.07439
 C1498 C -0.02389 0.63547 1.07236
 C1499 C -0.02325 0.61731 1.06352
 C1500 C -0.00566 0.61010 1.05670
 C1501 C 0.01129 0.62097 1.05874
 C1502 C 0.01068 0.63911 1.06755
 C1503 C -0.00494 0.59164 1.04738
 C1504 C -0.00405 0.57625 1.03938
 H1505 H 0.01156 0.71091 1.07925
 H1506 H 0.01112 0.67941 1.06291
 H1507 H -0.02615 0.65695 1.10682
 H1508 H -0.02585 0.68867 1.12288
 H1509 H -0.03766 0.64097 1.07737
 H1510 H -0.03644 0.60896 1.06192
 H1511 H 0.02497 0.61543 1.05352
 H1512 H 0.02400 0.64723 1.06920
 C1513 C 0.50578 0.73193 -0.12025
 C1514 C 0.50894 0.71835 -0.11014
 C1515 C 0.51200 0.70183 -0.09836
 C1516 C 0.51961 0.68489 -0.10635
 C1517 C 0.52072 0.66814 -0.09547
 C1518 C 0.51414 0.66819 -0.07651
 C1519 C 0.50711 0.68548 -0.06841
 C1520 C 0.50602 0.70222 -0.07932
 C1521 C 0.51336 0.64996 -0.06574
 C1522 C 0.49678 0.64537 -0.05515
 C1523 C 0.49526 0.62749 -0.04626
 C1524 C 0.51028 0.61405 -0.04785
 C1525 C 0.52703 0.61862 -0.05798
 C1526 C 0.52858 0.63651 -0.06689
 C1527 C 0.50821 0.59532 -0.03964
 C1528 C 0.50641 0.57952 -0.03292
 H1529 H 0.52413 0.68448 -0.12114
 H1530 H 0.52596 0.65497 -0.10214
 H1531 H 0.50215 0.68594 -0.05377
 H1532 H 0.50008 0.71531 -0.07307
 H1533 H 0.48472 0.65534 -0.05428
 H1534 H 0.48222 0.62400 -0.03849
 H1535 H 0.53874 0.60827 -0.05922
 H1536 H 0.54157 0.63976 -0.07482
 C1537 C 0.00547 1.23247 0.37812
 C1538 C 0.00829 1.21882 0.38824
 C1539 C 0.01093 1.20226 0.40005
 C1540 C 0.00338 1.20221 0.41853
 C1541 C 0.00421 1.18541 0.42936
 C1542 C 0.01255 1.16849 0.42174
 C1543 C 0.02065 1.16889 0.40338
 C1544 C 0.01981 1.18571 0.39258
 C1545 C 0.01168 1.15017 0.43234
 C1546 C 0.02755 1.13744 0.43242
 C1547 C 0.02613 1.11952 0.44131
 C1548 C 0.00887 1.11421 0.45016
 C1549 C -0.00686 1.12691 0.45046
 C1550 C -0.00548 1.14481 0.44160
 C1551 C 0.00708 1.09550 0.45848
 C1552 C 0.00551 1.07975 0.46536
 H1553 H -0.00355 1.21500 0.42437
 H1554 H -0.00194 1.18552 0.44355
 H1555 H 0.02693 1.15599 0.39708
 H1556 H 0.02555 1.18563 0.37821
 H1557 H 0.04098 1.14130 0.42554
 H1558 H 0.03839 1.10974 0.44107
 H1559 H -0.02030 1.12284 0.45725
 H1560 H -0.01802 1.15422 0.44148
 C1561 C 0.75090 0.64595 0.98359
 C1562 C 0.75034 0.65587 0.96948
 C1563 C 0.74902 0.66747 0.95252
 C1564 C 0.75735 0.68592 0.95207
 C1565 C 0.75579 0.69718 0.93561
 C1566 C 0.74583 0.69014 0.91936
 C1567 C 0.73747 0.67159 0.92000
 C1568 C 0.73905 0.66038 0.93645
 C1569 C 0.74457 0.70178 0.90160
 C1570 C 0.72753 0.70177 0.89043
 C1571 C 0.72687 0.71146 0.87298
 C1572 C 0.74317 0.72138 0.86647
 C1573 C 0.75998 0.72196 0.87774
 C1574 C 0.76068 0.71229 0.89520
 C1575 C 0.74338 0.72912 0.84741
 C1576 C 0.74424 0.73442 0.83106
 H1577 H 0.76499 0.69162 0.96446
 H1578 H 0.76222 0.71145 0.93565
 H1579 H 0.73000 0.66559 0.90766
 H1580 H 0.73254 0.64613 0.93662
 H1581 H 0.71478 0.69406 0.89508
 H1582 H 0.71381 0.71077 0.86434
 H1583 H 0.77278 0.72937 0.87275
 H1584 H 0.77408 0.71240 0.90331
 C1585 C 0.25122 0.14607 0.48188
 C1586 C 0.25075 0.15591 0.46772
 C1587 C 0.24953 0.16739 0.45066
 C1588 C 0.23889 0.16058 0.43490
 C1589 C 0.23745 0.17166 0.41834
 C1590 C 0.24663 0.18979 0.41728
 C1591 C 0.25726 0.19656 0.43324
 C1592 C 0.25867 0.18544 0.44981
 C1593 C 0.24551 0.20125 0.39941
 C1594 C 0.26194 0.21094 0.39254
 C1595 C 0.26131 0.22044 0.37498
 C1596 C 0.24424 0.22050 0.36407
 C1597 C 0.22766 0.21140 0.37104
 C1598 C 0.22826 0.20189 0.38859
 C1599 C 0.24438 0.22807 0.34494
 C1600 C 0.24510 0.23324 0.32853
 H1601 H 0.23175 0.14665 0.43537
 H1602 H 0.22944 0.16586 0.40624
 H1603 H 0.26433 0.21052 0.43296
 H1604 H 0.26685 0.19092 0.46195
 H1605 H 0.27551 0.21054 0.40036
 H1606 H 0.27431 0.22721 0.36964
 H1607 H 0.21440 0.21122 0.36268
 H1608 H 0.21528 0.19483 0.39359
 C1609 C 0.74920 0.35289 0.48407
 C1610 C 0.74924 0.34236 0.47021
 C1611 C 0.74971 0.32985 0.45364
 C1612 C 0.76619 0.31870 0.44986
 C1613 C 0.76699 0.30705 0.43343
 C1614 C 0.75129 0.30638 0.42053
 C1615 C 0.73468 0.31746 0.42460
 C1616 C 0.73391 0.32911 0.44103
 C1617 C 0.75247 0.29483 0.40253
 C1618 C 0.73620 0.28476 0.39542
 C1619 C 0.73690 0.27521 0.37773
 C1620 C 0.75388 0.27551 0.36691
 C1621 C 0.77031 0.28500 0.37412
 C1622 C 0.76965 0.29455 0.39181
 C1623 C 0.75376 0.26803 0.34762
 C1624 C 0.75319 0.26307 0.33106
 H1625 H 0.77849 0.31912 0.45954
 H1626 H 0.77989 0.29854 0.43083
 H1627 H 0.72246 0.31752 0.41483
 H1628 H 0.72111 0.33773 0.44376
 H1629 H 0.72284 0.28449 0.40343
 H1630 H 0.72403 0.26806 0.37224
 H1631 H 0.78345 0.28557 0.36577
 H1632 H 0.78234 0.30236 0.39673
 C1633 C 0.24832 0.85354 0.98310
 C1634 C 0.24853 0.84320 0.96909
 C1635 C 0.24921 0.83094 0.95234
 C1636 C 0.23364 0.83052 0.93944
 C1637 C 0.23460 0.81910 0.92287
 C1638 C 0.25118 0.80793 0.91894
 C1639 C 0.26666 0.80829 0.93211
 C1640 C 0.26567 0.81971 0.94868
 C1641 C 0.25255 0.79655 0.90084
 C1642 C 0.26991 0.79617 0.89041
 C1643 C 0.27079 0.78674 0.87266
 C1644 C 0.25438 0.77747 0.86511
 C1645 C 0.23721 0.77728 0.87563
 C1646 C 0.23630 0.78672 0.89337
 C1647 C 0.25454 0.77005 0.84580
 C1648 C 0.25421 0.76511 0.82921
 H1649 H 0.22086 0.83921 0.94207
 H1650 H 0.22256 0.81940 0.91290
 H1651 H 0.27953 0.79971 0.92962
 H1652 H 0.27780 0.81989 0.95858
 H1653 H 0.28261 0.80380 0.89561
 H1654 H 0.28409 0.78722 0.86455
 H1655 H 0.22437 0.77030 0.86988
 H1656 H 0.22280 0.78652 0.90115
 C1657 C 0.24889 0.85390 0.01724
 C1658 C 0.24848 0.84383 0.03124
 C1659 C 0.24745 0.83185 0.04795
 C1660 C 0.23010 0.82251 0.05245
 C1661 C 0.22884 0.81131 0.06893
 C1662 C 0.24494 0.80928 0.08118
 C1663 C 0.26238 0.81855 0.07641
 C1664 C 0.26361 0.82976 0.05992
 C1665 C 0.24341 0.79808 0.09916
 C1666 C 0.25887 0.78646 0.10548
 C1667 C 0.25793 0.77704 0.12305
 C1668 C 0.24152 0.77902 0.13454
 C1669 C 0.22586 0.79013 0.12816
 C1670 C 0.22676 0.79955 0.11059
 C1671 C 0.24162 0.77140 0.15364
 C1672 C 0.24238 0.76617 0.17003
 H1673 H 0.21751 0.82399 0.04327
 H1674 H 0.21528 0.80420 0.07207
 H1675 H 0.27496 0.81753 0.08566
 H1676 H 0.27709 0.83697 0.05663
 H1677 H 0.27178 0.78482 0.09692
 H1678 H 0.27021 0.76861 0.12789
 H1679 H 0.21319 0.79200 0.13703
 H1680 H 0.21471 0.80857 0.10629
 C1681 C 0.75004 0.35368 0.51819
 C1682 C 0.74973 0.34379 0.53231
 C1683 C 0.74883 0.33204 0.54918
 C1684 C 0.73669 0.33746 0.56423
 C1685 C 0.73559 0.32606 0.58058
 C1686 C 0.74661 0.30902 0.58212
 C1687 C 0.75874 0.30365 0.56687
 C1688 C 0.75981 0.31508 0.55051
 C1689 C 0.74584 0.29727 0.59981
 C1690 C 0.76287 0.28941 0.60770
 C1691 C 0.76238 0.27972 0.62515
 C1692 C 0.74489 0.27765 0.63491
 C1693 C 0.72778 0.28488 0.62688
 C1694 C 0.72822 0.29458 0.60944
 C1695 C 0.74490 0.27006 0.65402
 C1696 C 0.74537 0.26501 0.67047
 H1697 H 0.72813 0.35055 0.56337
 H1698 H 0.72637 0.33079 0.59216
 H1699 H 0.76727 0.29053 0.56752
 H1700 H 0.76918 0.31068 0.53890
 H1701 H 0.77669 0.29142 0.60080
 H1702 H 0.77577 0.27442 0.63133
 H1703 H 0.71417 0.28350 0.63436
 H1704 H 0.71482 0.30021 0.60362
 C1705 C 0.25083 0.14632 0.51614
 C1706 C 0.25147 0.15630 0.53039
 C1707 C 0.25287 0.16787 0.54759
 C1708 C 0.24386 0.18598 0.54876
 C1709 C 0.24542 0.19715 0.56550
 C1710 C 0.25606 0.19036 0.58130
 C1711 C 0.26511 0.17216 0.57992
 C1712 C 0.26353 0.16104 0.56320
 C1713 C 0.25731 0.20185 0.59937
 C1714 C 0.27460 0.20239 0.61014
 C1715 C 0.27530 0.21186 0.62789
 C1716 C 0.25878 0.22101 0.63510
 C1717 C 0.24169 0.22107 0.62423
 C1718 C 0.24095 0.21161 0.60648
 C1719 C 0.25871 0.22850 0.65441
 C1720 C 0.25798 0.23360 0.67093
 H1721 H 0.23566 0.19148 0.53673
 H1722 H 0.23843 0.21116 0.56603
 H1723 H 0.27312 0.16634 0.59191
 H1724 H 0.27056 0.14704 0.56249
 H1725 H 0.28753 0.19526 0.60496
 H1726 H 0.28858 0.21158 0.63621
 H1727 H 0.22873 0.22789 0.62976
 H1728 H 0.22736 0.21129 0.59869
 C1729 C 0.75016 0.64610 0.01780
 C1730 C 0.75027 0.65614 0.03202
 C1731 C 0.75094 0.66788 0.04914
 C1732 C 0.73858 0.68380 0.05129
 C1733 C 0.73926 0.69505 0.06802
 C1734 C 0.75236 0.69055 0.08283
 C1735 C 0.76479 0.67458 0.08045
 C1736 C 0.76407 0.66336 0.06374
 C1737 C 0.75270 0.70200 0.10095
 C1738 C 0.77032 0.70602 0.11041
 C1739 C 0.77051 0.71543 0.12820
 C1740 C 0.75311 0.72105 0.13676
 C1741 C 0.73554 0.71763 0.12721
 C1742 C 0.73532 0.70822 0.10942
 C1743 C 0.75308 0.72847 0.15608
 C1744 C 0.75268 0.73347 0.17264
 H1745 H 0.72840 0.68749 0.04006
 H1746 H 0.72964 0.70735 0.06932
 H1747 H 0.77480 0.67051 0.09167
 H1748 H 0.77369 0.65107 0.06226
 H1749 H 0.78397 0.70167 0.10417
 H1750 H 0.78419 0.71787 0.13550
 H1751 H 0.72196 0.72169 0.13378
 H1752 H 0.72150 0.70515 0.10267
 C1753 C 0.13092 0.51683 0.25135
 C1754 C 0.13992 0.53182 0.25065
 C1755 C 0.14994 0.55010 0.24920
 C1756 C 0.16253 0.55345 0.23398
 C1757 C 0.17130 0.57157 0.23189
 C1758 C 0.16754 0.58669 0.24497
 C1759 C 0.15501 0.58310 0.26033
 C1760 C 0.14628 0.56498 0.26240
 C1761 C 0.17655 0.60613 0.24258
 C1762 C 0.16595 0.62310 0.24647
 C1763 C 0.17456 0.64133 0.24475
 C1764 C 0.19389 0.64294 0.23906
 C1765 C 0.20449 0.62617 0.23490
 C1766 C 0.19590 0.60791 0.23660
 C1767 C 0.20321 0.66166 0.23876
 C1768 C 0.21131 0.67716 0.23942
 H1769 H 0.16534 0.54214 0.22355
 H1770 H 0.18067 0.57387 0.21979
 H1771 H 0.15203 0.59429 0.27082
 H1772 H 0.13652 0.56263 0.27420
 H1773 H 0.15096 0.62230 0.25082
 H1774 H 0.16620 0.65417 0.24810
 H1775 H 0.21952 0.62717 0.23068
 H1776 H 0.20456 0.59518 0.23370
 C1777 C 0.63027 0.01776 0.75129
 C1778 C 0.63933 0.03269 0.75030
 C1779 C 0.64944 0.05085 0.74832
 C1780 C 0.66388 0.05641 0.76139
 C1781 C 0.67334 0.07421 0.75945
 C1782 C 0.66847 0.08675 0.74441
 C1783 C 0.65399 0.08096 0.73131
 C1784 C 0.64458 0.06318 0.73327
 C1785 C 0.67828 0.10585 0.74249
 C1786 C 0.66772 0.12238 0.73710
 C1787 C 0.67684 0.14040 0.73573
 C1788 C 0.69666 0.14221 0.73967
 C1789 C 0.70733 0.12583 0.74484
 C1790 C 0.69824 0.10780 0.74624
 C1791 C 0.70588 0.16098 0.73948
 C1792 C 0.71375 0.17659 0.74022
 H1793 H 0.66774 0.04706 0.77314
 H1794 H 0.68423 0.07831 0.76993
 H1795 H 0.65006 0.09011 0.71944
 H1796 H 0.63346 0.05905 0.72303
 H1797 H 0.65229 0.12148 0.73436
 H1798 H 0.66835 0.15298 0.73190
 H1799 H 0.72267 0.12702 0.74801
 H1800 H 0.70686 0.09536 0.75017
 C1801 C 0.86845 0.01636 0.24911
 C1802 C 0.85904 0.03109 0.25008
 C1803 C 0.84844 0.04902 0.25196
 C1804 C 0.83590 0.05518 0.23744
 C1805 C 0.82606 0.07282 0.23923
 C1806 C 0.82864 0.08461 0.25559
 C1807 C 0.84120 0.07821 0.27014
 C1808 C 0.85099 0.06058 0.26832
 C1809 C 0.81850 0.10358 0.25736
 C1810 C 0.82808 0.11984 0.26519
 C1811 C 0.81871 0.13777 0.26641
 C1812 C 0.79961 0.13975 0.25990
 C1813 C 0.78989 0.12363 0.25228
 C1814 C 0.79923 0.10570 0.25101
 C1815 C 0.79026 0.15845 0.26013
 C1816 C 0.78240 0.17406 0.25954
 H1817 H 0.83386 0.04643 0.22466
 H1818 H 0.81672 0.07741 0.22765
 H1819 H 0.84333 0.08677 0.28301
 H1820 H 0.86064 0.05599 0.27968
 H1821 H 0.84299 0.11881 0.26996
 H1822 H 0.82647 0.15015 0.27219
 H1823 H 0.77512 0.12496 0.24713
 H1824 H 0.79134 0.09346 0.24515
 C1825 C 0.36954 0.51775 0.74940
 C1826 C 0.36025 0.53257 0.75019
 C1827 C 0.34982 0.55061 0.75188
 C1828 C 0.33657 0.55625 0.73776
 C1829 C 0.32687 0.57399 0.73936
 C1830 C 0.33032 0.58640 0.75511
 C1831 C 0.34358 0.58053 0.76926
 C1832 C 0.35323 0.56279 0.76764
 C1833 C 0.32032 0.60548 0.75666
 C1834 C 0.33033 0.62196 0.76339
 C1835 C 0.32108 0.63996 0.76443
 C1836 C 0.30167 0.64179 0.75882
 C1837 C 0.29154 0.62545 0.75228
 C1838 C 0.30077 0.60744 0.75121
 C1839 C 0.29240 0.66054 0.75884
 C1840 C 0.28462 0.67617 0.75810
 H1841 H 0.33384 0.54701 0.72545
 H1842 H 0.31695 0.57816 0.72809
 H1843 H 0.34639 0.58957 0.78168
 H1844 H 0.36343 0.55861 0.77868
 H1845 H 0.34545 0.62104 0.76745
 H1846 H 0.32915 0.65251 0.76936
 H1847 H 0.27653 0.62666 0.74783
 H1848 H 0.29256 0.59504 0.74620
 C1849 C 0.36962 0.48271 0.74986
 C1850 C 0.36041 0.46784 0.74933
 C1851 C 0.35010 0.44970 0.74787
 C1852 C 0.33736 0.44398 0.76222
 C1853 C 0.32779 0.42614 0.76082
 C1854 C 0.33087 0.41373 0.74504
 C1855 C 0.34364 0.41970 0.73066
 C1856 C 0.35316 0.43752 0.73208
 C1857 C 0.32097 0.39460 0.74365
 C1858 C 0.33088 0.37818 0.73673
 C1859 C 0.32169 0.36015 0.73572
 C1860 C 0.30243 0.35823 0.74155
 C1861 C 0.29241 0.37449 0.74831
 C1862 C 0.30158 0.39253 0.74935
 C1863 C 0.29316 0.33949 0.74139
 C1864 C 0.28525 0.32392 0.74198
 H1865 H 0.33492 0.45321 0.77456
 H1866 H 0.31825 0.42191 0.77226
 H1867 H 0.34615 0.41066 0.71821
 H1868 H 0.36296 0.44178 0.72086
 H1869 H 0.34589 0.37919 0.73247
 H1870 H 0.32967 0.34766 0.73062
 H1871 H 0.27752 0.37321 0.75291
 H1872 H 0.29345 0.40488 0.75449
 C1873 C 0.86871 0.98134 0.24941
 C1874 C 0.85949 0.96647 0.24896
 C1875 C 0.84909 0.94838 0.24766
 C1876 C 0.83608 0.94299 0.26191
 C1877 C 0.82636 0.92523 0.26064
 C1878 C 0.82954 0.91255 0.24509
 C1879 C 0.84258 0.91817 0.23080
 C1880 C 0.85225 0.93592 0.23209
 C1881 C 0.81950 0.89348 0.24386
 C1882 C 0.82937 0.87688 0.23735
 C1883 C 0.82005 0.85890 0.23656
 C1884 C 0.80072 0.85721 0.24220
 C1885 C 0.79073 0.87366 0.24854
 C1886 C 0.80001 0.89165 0.24936
 C1887 C 0.79139 0.83850 0.24237
 C1888 C 0.78355 0.82291 0.24323
 H1889 H 0.83355 0.95244 0.27407
 H1890 H 0.81663 0.92126 0.27201
 H1891 H 0.84518 0.90892 0.21852
 H1892 H 0.86225 0.93992 0.22094
 H1893 H 0.84443 0.87770 0.23326
 H1894 H 0.82802 0.84627 0.23178
 H1895 H 0.77578 0.87256 0.25300
 H1896 H 0.79191 0.90415 0.25420
 C1897 C 0.63057 0.98266 0.75159
 C1898 C 0.63983 0.96784 0.75256
 C1899 C 0.65011 0.94976 0.75446
 C1900 C 0.66492 0.94472 0.74180
 C1901 C 0.67452 0.92696 0.74360
 C1902 C 0.66941 0.91395 0.75810
 C1903 C 0.65456 0.91923 0.77080
 C1904 C 0.64502 0.93697 0.76898
 C1905 C 0.67935 0.89489 0.75985
 C1906 C 0.66882 0.87811 0.76437
 C1907 C 0.67808 0.86014 0.76559
 C1908 C 0.69802 0.85863 0.76237
 C1909 C 0.70865 0.87526 0.75806
 C1910 C 0.69942 0.89324 0.75682
 C1911 C 0.70743 0.83997 0.76248
 C1912 C 0.71552 0.82447 0.76176
 H1913 H 0.66896 0.95443 0.73045
 H1914 H 0.68570 0.92326 0.73343
 H1915 H 0.65044 0.90971 0.78227
 H1916 H 0.63360 0.94070 0.77891
 H1917 H 0.65333 0.87880 0.76654
 H1918 H 0.66964 0.84738 0.76876
 H1919 H 0.72407 0.87430 0.75547
 H1920 H 0.70801 0.90586 0.75357
 C1921 C 0.13119 0.48169 0.25135
 C1922 C 0.14040 0.46683 0.25212
 C1923 C 0.15063 0.44867 0.25372
 C1924 C 0.16503 0.44353 0.24063
 C1925 C 0.17452 0.42568 0.24210
 C1926 C 0.16971 0.41265 0.25669
 C1927 C 0.15528 0.41802 0.26982
 C1928 C 0.14584 0.43586 0.26833
 C1929 C 0.17952 0.39348 0.25808
 C1930 C 0.16898 0.37679 0.26287
 C1931 C 0.17811 0.35872 0.26378
 C1932 C 0.19793 0.35703 0.25999
 C1933 C 0.20857 0.37358 0.25540
 C1934 C 0.19946 0.39164 0.25445
 C1935 C 0.20721 0.33829 0.25989
 C1936 C 0.21520 0.32274 0.25904
 H1937 H 0.16883 0.45325 0.22920
 H1938 H 0.18536 0.42192 0.23161
 H1939 H 0.15139 0.40849 0.28136
 H1940 H 0.13474 0.43965 0.27857
 H1941 H 0.15357 0.37761 0.26549
 H1942 H 0.16966 0.34604 0.26719
 H1943 H 0.22390 0.37249 0.25238
 H1944 H 0.20807 0.40420 0.25099
 C1945 C 0.01758 0.24514 0.86806
 C1946 C 0.03081 0.24191 0.85745
 C1947 C 0.04699 0.23880 0.84516
 C1948 C 0.06343 0.22937 0.85213
 C1949 C 0.08009 0.22834 0.84103
 C1950 C 0.08044 0.23682 0.82286
 C1951 C 0.06358 0.24563 0.81569
 C1952 C 0.04693 0.24664 0.82683
 C1953 C 0.09877 0.23781 0.81218
 C1954 C 0.10431 0.25519 0.80352
 C1955 C 0.12240 0.25680 0.79496
 C1956 C 0.13508 0.24106 0.79494
 C1957 C 0.12953 0.22354 0.80307
 C1958 C 0.11144 0.22190 0.81166
 C1959 C 0.15408 0.24313 0.78723
 C1960 C 0.17011 0.24487 0.78095
 H1961 H 0.06360 0.22340 0.86639
 H1962 H 0.09295 0.22170 0.84700
 H1963 H 0.06343 0.25209 0.80166
 H1964 H 0.03423 0.25401 0.82138
 H1965 H 0.09496 0.26776 0.80397
 H1966 H 0.12666 0.27043 0.78873
 H1967 H 0.13929 0.21128 0.80306
 H1968 H 0.10743 0.20831 0.81809
 C1969 C 0.51747 0.74141 0.37296
 C1970 C 0.53241 0.73804 0.36491
 C1971 C 0.55038 0.73489 0.35536
 C1972 C 0.56729 0.73198 0.36603
 C1973 C 0.58513 0.73099 0.35687
 C1974 C 0.58619 0.73296 0.33694
 C1975 C 0.56904 0.73523 0.32627
 C1976 C 0.55121 0.73623 0.33547
 C1977 C 0.60517 0.73385 0.32741
 C1978 C 0.60807 0.72454 0.30973
 C1979 C 0.62572 0.72635 0.30032
 C1980 C 0.64055 0.73750 0.30848
 C1981 C 0.63788 0.74662 0.32616
 C1982 C 0.62028 0.74482 0.33560
 C1983 C 0.65850 0.73973 0.29869
 C1984 C 0.67363 0.74162 0.29059
 H1985 H 0.56673 0.73098 0.38146
 H1986 H 0.59812 0.72899 0.36537
 H1987 H 0.56948 0.73702 0.31093
 H1988 H 0.53816 0.73864 0.32714
 H1989 H 0.59671 0.71588 0.30321
 H1990 H 0.62774 0.71918 0.28664
 H1991 H 0.64932 0.75530 0.33254
 H1992 H 0.61832 0.75240 0.34906
 C1993 C 0.51757 0.25797 0.12647
 C1994 C 0.53196 0.26142 0.13560
 C1995 C 0.54925 0.26466 0.14649
 C1996 C 0.54863 0.26420 0.16644
 C1997 C 0.56577 0.26524 0.17704
 C1998 C 0.58369 0.26669 0.16774
 C1999 C 0.58408 0.26781 0.14771
 C2000 C 0.56693 0.26676 0.13714
 C2001 C 0.60196 0.26570 0.17874
 C2002 C 0.61774 0.27751 0.17399
 C2003 C 0.63543 0.27546 0.18349
 C2004 C 0.63750 0.26160 0.19777
 C2005 C 0.62179 0.25005 0.20285
 C2006 C 0.60409 0.25208 0.19339
 C2007 C 0.65587 0.25889 0.20688
 C2008 C 0.67134 0.25660 0.21443
 H2009 H 0.53497 0.26252 0.17376
 H2010 H 0.56508 0.26456 0.19247
 H2011 H 0.59770 0.26867 0.14018
 H2012 H 0.56750 0.26698 0.12168
 H2013 H 0.61641 0.28822 0.16288
 H2014 H 0.64755 0.28449 0.17954
 H2015 H 0.62333 0.23925 0.21387
 H2016 H 0.59227 0.24259 0.19712
 C2017 C 0.01764 0.75780 0.62686
 C2018 C 0.03304 0.76032 0.63454
 C2019 C 0.05149 0.76265 0.64366
 C2020 C 0.05285 0.77186 0.66149
 C2021 C 0.07068 0.77291 0.67093
 C2022 C 0.08728 0.76473 0.66260
 C2023 C 0.08581 0.75589 0.64449
 C2024 C 0.06798 0.75484 0.63509
 C2025 C 0.10589 0.76457 0.67310
 C2026 C 0.12335 0.76805 0.66351
 C2027 C 0.14099 0.76672 0.67323
 C2028 C 0.14133 0.76190 0.69257
 C2029 C 0.12404 0.75871 0.70231
 C2030 C 0.10638 0.76005 0.69264
 C2031 C 0.15945 0.75981 0.70234
 C2032 C 0.17468 0.75799 0.71048
 H2033 H 0.04010 0.77793 0.66820
 H2034 H 0.07148 0.77999 0.68478
 H2035 H 0.09831 0.74923 0.63787
 H2036 H 0.06699 0.74758 0.62133
 H2037 H 0.12334 0.77175 0.64852
 H2038 H 0.15435 0.76925 0.66562
 H2039 H 0.12422 0.75493 0.71730
 H2040 H 0.09317 0.75703 0.70029
 C2041 C 0.98396 0.75281 0.63175
 C2042 C 0.97117 0.75171 0.64323
 C2043 C 0.95547 0.75052 0.65637
 C2044 C 0.94659 0.76746 0.66294
 C2045 C 0.93013 0.76637 0.67430
 C2046 C 0.92237 0.74829 0.67914
 C2047 C 0.93175 0.73134 0.67295
 C2048 C 0.94823 0.73246 0.66159
 C2049 C 0.90384 0.74722 0.68948
 C2050 C 0.88946 0.73409 0.68343
 C2051 C 0.87134 0.73413 0.69208
 C2052 C 0.86742 0.74726 0.70685
 C2053 C 0.88176 0.76006 0.71330
 C2054 C 0.89991 0.76005 0.70467
 C2055 C 0.84844 0.74808 0.71486
 C2056 C 0.83241 0.74886 0.72135
 H2057 H 0.95207 0.78150 0.65883
 H2058 H 0.92303 0.77966 0.67864
 H2059 H 0.92618 0.71724 0.67666
 H2060 H 0.95504 0.71929 0.65651
 H2061 H 0.89200 0.72426 0.67157
 H2062 H 0.86026 0.72422 0.68698
 H2063 H 0.87881 0.77025 0.72477
 H2064 H 0.91080 0.77017 0.70971
 C2065 C 0.48405 0.25074 0.12847
 C2066 C 0.47056 0.24899 0.13905
 C2067 C 0.45422 0.24726 0.15134
 C2068 C 0.44784 0.26338 0.16172
 C2069 C 0.43107 0.26217 0.17263
 C2070 C 0.42052 0.24481 0.17320
 C2071 C 0.42734 0.22854 0.16310
 C2072 C 0.44412 0.22978 0.15219
 C2073 C 0.40189 0.24406 0.18338
 C2074 C 0.38579 0.23498 0.17479
 C2075 C 0.36783 0.23539 0.18375
 C2076 C 0.36578 0.24485 0.20134
 C2077 C 0.38177 0.25362 0.21020
 C2078 C 0.39977 0.25323 0.20126
 C2079 C 0.34711 0.24600 0.21000
 C2080 C 0.33132 0.24697 0.21697
 H2081 H 0.45556 0.27698 0.16103
 H2082 H 0.42600 0.27499 0.18006
 H2083 H 0.41958 0.21494 0.16348
 H2084 H 0.44901 0.21725 0.14417
 H2085 H 0.38695 0.22808 0.16090
 H2086 H 0.35547 0.22863 0.17679
 H2087 H 0.38027 0.26094 0.22386
 H2088 H 0.41199 0.26017 0.20825
 C2089 C 0.48380 0.74727 0.36886
 C2090 C 0.47056 0.74808 0.35770
 C2091 C 0.45435 0.74893 0.34494
 C2092 C 0.44518 0.73184 0.33911
 C2093 C 0.42832 0.73265 0.32809
 C2094 C 0.42047 0.75061 0.32285
 C2095 C 0.43013 0.76770 0.32831
 C2096 C 0.44700 0.76685 0.33933
 C2097 C 0.40164 0.75147 0.31282
 C2098 C 0.38751 0.76484 0.31873
 C2099 C 0.36918 0.76474 0.31027
 C2100 C 0.36482 0.75131 0.29584
 C2101 C 0.37888 0.73820 0.28957
 C2102 C 0.39723 0.73827 0.29802
 C2103 C 0.34573 0.75067 0.28784
 C2104 C 0.32966 0.75011 0.28126
 H2105 H 0.45075 0.71792 0.34353
 H2106 H 0.42102 0.71929 0.32431
 H2107 H 0.42448 0.78170 0.32427
 H2108 H 0.45405 0.78014 0.34384
 H2109 H 0.39043 0.77496 0.33029
 H2110 H 0.35832 0.77490 0.31521
 H2111 H 0.37558 0.72780 0.27835
 H2112 H 0.40793 0.72794 0.29310
 C2113 C 0.98414 0.25298 0.87027
 C2114 C 0.96939 0.25546 0.86146
 C2115 C 0.95165 0.25790 0.85113
 C2116 C 0.95095 0.25398 0.83151
 C2117 C 0.93334 0.25497 0.82170
 C2118 C 0.91628 0.25986 0.83147
 C2119 C 0.91723 0.26422 0.85110
 C2120 C 0.93485 0.26322 0.86089
 C2121 C 0.89741 0.25948 0.82144
 C2122 C 0.88350 0.27388 0.82500
 C2123 C 0.86537 0.27294 0.81612
 C2124 C 0.86102 0.25762 0.80365
 C2125 C 0.87482 0.24334 0.79987
 C2126 C 0.89295 0.24425 0.80871
 C2127 C 0.84231 0.25636 0.79485
 C2128 C 0.82668 0.25515 0.78735
 H2129 H 0.96393 0.24985 0.82389
 H2130 H 0.93303 0.25177 0.80653
 H2131 H 0.90426 0.26778 0.85900
 H2132 H 0.93530 0.26616 0.87611
 H2133 H 0.88666 0.28585 0.83461
 H2134 H 0.85473 0.28408 0.81906
 H2135 H 0.87151 0.23141 0.79025
 H2136 H 0.90329 0.23281 0.80595
 C2137 C 0.60595 1.00013 0.73430
 C2138 C 0.59572 1.00096 0.72028
 C2139 C 0.58358 1.00268 0.70355
 C2140 C 0.57558 1.02064 0.69885
 C2141 C 0.56428 1.02259 0.68232
 C2142 C 0.56081 1.00658 0.67022
 C2143 C 0.56873 0.98853 0.67519
 C2144 C 0.58004 0.98661 0.69173
 C2145 C 0.54959 1.00881 0.65215
 C2146 C 0.53670 0.99428 0.64587
 C2147 C 0.52726 0.99574 0.62820
 C2148 C 0.53049 1.01176 0.61656
 C2149 C 0.54286 1.02655 0.62291
 C2150 C 0.55230 1.02512 0.64059
 C2151 C 0.52289 1.01196 0.59733
 C2152 C 0.51769 1.01132 0.58084
 H2153 H 0.57819 1.03317 0.70791
 H2154 H 0.55822 1.03662 0.67903
 H2155 H 0.56659 0.97599 0.66605
 H2156 H 0.58621 0.97266 0.69517
 H2157 H 0.53409 0.98167 0.65453
 H2158 H 0.51785 0.98412 0.62338
 H2159 H 0.54570 1.03888 0.61392
 H2160 H 0.56231 1.03644 0.64486
 C2161 C 0.10657 0.49933 1.23425
 C2162 C 0.09632 0.50025 1.22023
 C2163 C 0.08419 0.50206 1.20350
 C2164 C 0.08080 0.48609 1.19151
 C2165 C 0.06954 0.48810 1.17496
 C2166 C 0.06152 0.50616 1.17013
 C2167 C 0.06484 0.52206 1.18241
 C2168 C 0.07609 0.52001 1.19896
 C2169 C 0.05036 0.50850 1.15204
 C2170 C 0.05303 0.52494 1.14065
 C2171 C 0.04364 0.52650 1.12296
 C2172 C 0.03136 0.51172 1.11643
 C2173 C 0.02817 0.49556 1.12789
 C2174 C 0.03757 0.49397 1.14558
 C2175 C 0.02377 0.51209 1.09720
 C2176 C 0.01854 0.51159 1.08072
 H2177 H 0.08705 0.47214 1.19483
 H2178 H 0.06751 0.47564 1.16568
 H2179 H 0.05871 0.53609 1.17923
 H2180 H 0.07859 0.53247 1.20814
 H2181 H 0.06297 0.53627 1.14507
 H2182 H 0.04644 0.53894 1.11411
 H2183 H 0.01883 0.48395 1.12293
 H2184 H 0.03500 0.48125 1.15411
 C2185 C -0.10763 -0.00177 1.23147
 C2186 C -0.09823 -0.00319 1.21703
 C2187 C -0.08730 -0.00559 1.19968
 C2188 C -0.09687 -0.01041 1.18260
 C2189 C -0.08635 -0.01335 1.16582
 C2190 C -0.06604 -0.01156 1.16585
 C2191 C -0.05654 -0.00667 1.18309
 C2192 C -0.06710 -0.00375 1.19988
 C2193 C -0.05497 -0.01439 1.14785
 C2194 C -0.03948 -0.00204 1.14335
 C2195 C -0.03004 -0.00378 1.12579
 C2196 C -0.03583 -0.01794 1.11251
 C2197 C -0.05082 -0.03067 1.11708
 C2198 C -0.06029 -0.02895 1.13463
 C2199 C -0.02794 -0.01795 1.09348
 C2200 C -0.02233 -0.01686 1.07722
 H2201 H -0.11248 -0.01192 1.18226
 H2202 H -0.09416 -0.01676 1.15276
 H2203 H -0.04093 -0.00537 1.18364
 H2204 H -0.05951 -0.00017 1.21304
 H2205 H -0.03517 0.00946 1.15308
 H2206 H -0.01864 0.00633 1.12232
 H2207 H -0.05556 -0.04158 1.10688
 H2208 H -0.07194 -0.03887 1.13776
 C2209 C 0.39353 0.49936 0.73210
 C2210 C 0.40309 0.49772 0.71778
 C2211 C 0.41419 0.49498 0.70059
 C2212 C 0.40503 0.48825 0.68392
 C2213 C 0.41574 0.48501 0.66731
 C2214 C 0.43583 0.48842 0.66711
 C2215 C 0.44492 0.49520 0.68395
 C2216 C 0.43416 0.49842 0.70057
 C2217 C 0.44707 0.48538 0.64925
 C2218 C 0.46146 0.49864 0.64391
 C2219 C 0.47091 0.49665 0.62638
 C2220 C 0.46621 0.48134 0.61396
 C2221 C 0.45237 0.46772 0.61941
 C2222 C 0.44291 0.46967 0.63694
 C2223 C 0.47388 0.48099 0.59484
 C2224 C 0.47927 0.48188 0.57851
 H2225 H 0.38959 0.48548 0.68375
 H2226 H 0.40823 0.48011 0.65453
 H2227 H 0.46038 0.49780 0.68434
 H2228 H 0.44145 0.50350 0.71343
 H2229 H 0.46486 0.51101 0.65292
 H2230 H 0.48139 0.50745 0.62222
 H2231 H 0.44848 0.45589 0.60987
 H2232 H 0.43213 0.45905 0.64074
 C2233 C 0.39438 0.50111 -0.23368
 C2234 C 0.40467 0.50264 -0.21972
 C2235 C 0.41669 0.50518 -0.20296
 C2236 C 0.42253 0.48920 -0.19226
 C2237 C 0.43359 0.49184 -0.17561
 C2238 C 0.43895 0.51053 -0.16940
 C2239 C 0.43320 0.52648 -0.18041
 C2240 C 0.42216 0.52381 -0.19706
 C2241 C 0.44984 0.51338 -0.15116
 C2242 C 0.44491 0.52854 -0.13852
 C2243 C 0.45411 0.53035 -0.12072
 C2244 C 0.46844 0.51713 -0.11532
 C2245 C 0.47384 0.50235 -0.12801
 C2246 C 0.46465 0.50050 -0.14581
 C2247 C 0.47598 0.51737 -0.09605
 C2248 C 0.48126 0.51656 -0.07961
 H2249 H 0.41832 0.47472 -0.19663
 H2250 H 0.43752 0.47927 -0.16732
 H2251 H 0.43726 0.54103 -0.17616
 H2252 H 0.41775 0.53630 -0.20524
 H2253 H 0.43341 0.53855 -0.14207
 H2254 H 0.44960 0.54169 -0.11093
 H2255 H 0.48479 0.49192 -0.12394
 H2256 H 0.46896 0.48884 -0.15530
 C2257 C -0.10645 0.99979 0.26571
 C2258 C -0.09606 1.00134 0.27960
 C2259 C -0.08395 1.00392 0.29630
 C2260 C -0.07824 0.98799 0.30715
 C2261 C -0.06715 0.99069 0.32377
 C2262 C -0.06164 1.00939 0.32982
 C2263 C -0.06726 1.02529 0.31866
 C2264 C -0.07832 1.02255 0.30204
 C2265 C -0.05075 1.01233 0.34805
 C2266 C -0.05554 1.02766 0.36053
 C2267 C -0.04631 1.02959 0.37830
 C2268 C -0.03207 1.01633 0.38383
 C2269 C -0.02681 1.00136 0.37130
 C2270 C -0.03604 0.99938 0.35352
 C2271 C -0.02446 1.01676 0.40308
 C2272 C -0.01913 1.01613 0.41952
 H2273 H -0.08257 0.97351 0.30291
 H2274 H -0.06333 0.97817 0.33217
 H2275 H -0.06308 1.03984 0.32278
 H2276 H -0.08264 1.03500 0.29376
 H2277 H -0.06697 1.03772 0.35689
 H2278 H -0.05072 1.04107 0.38798
 H2279 H -0.01594 0.99089 0.37546
 H2280 H -0.03183 0.98758 0.34416
 C2281 C 0.10674 0.49880 0.26839
 C2282 C 0.09665 0.49768 0.28236
 C2283 C 0.08469 0.49563 0.29903
 C2284 C 0.08000 0.51177 0.31028
 C2285 C 0.06882 0.50959 0.32673
 C2286 C 0.06218 0.49120 0.33218
 C2287 C 0.06682 0.47510 0.32064
 C2288 C 0.07798 0.47732 0.30420
 C2289 C 0.05104 0.48879 0.35013
 C2290 C 0.05480 0.47308 0.36226
 C2291 C 0.04534 0.47154 0.37979
 C2292 C 0.03191 0.48560 0.38544
 C2293 C 0.02766 0.50098 0.37324
 C2294 C 0.03712 0.50256 0.35571
 C2295 C 0.02412 0.48543 0.40450
 C2296 C 0.01867 0.48620 0.42084
 H2297 H 0.08515 0.52601 0.30647
 H2298 H 0.06576 0.52224 0.33543
 H2299 H 0.06177 0.46080 0.32430
 H2300 H 0.08149 0.46472 0.29558
 H2301 H 0.06561 0.46236 0.35853
 H2302 H 0.04896 0.45972 0.38921
 H2303 H 0.01742 0.51205 0.37751
 H2304 H 0.03370 0.51468 0.34660
 C2305 C 0.60606 -0.00021 -0.23157
 C2306 C 0.59591 -0.00143 -0.21765
 C2307 C 0.58385 -0.00377 -0.20110
 C2308 C 0.57900 0.01217 -0.18964
 C2309 C 0.56768 0.00967 -0.17333
 C2310 C 0.56108 -0.00884 -0.16823
 C2311 C 0.56590 -0.02473 -0.17996
 C2312 C 0.57719 -0.02220 -0.19626
 C2313 C 0.54980 -0.01160 -0.15043
 C2314 C 0.55358 -0.02745 -0.13849
 C2315 C 0.54401 -0.02929 -0.12105
 C2316 C 0.53045 -0.01540 -0.11531
 C2317 C 0.52616 0.00011 -0.12734
 C2318 C 0.53573 0.00199 -0.14478
 C2319 C 0.52270 -0.01575 -0.09625
 C2320 C 0.51736 -0.01506 -0.07987
 H2321 H 0.58412 0.02649 -0.19319
 H2322 H 0.56449 0.02217 -0.16446
 H2323 H 0.56088 -0.03912 -0.17657
 H2324 H 0.58082 -0.03465 -0.20505
 H2325 H 0.56450 -0.03803 -0.14228
 H2326 H 0.54768 -0.04120 -0.11175
 H2327 H 0.51583 0.01106 -0.12299
 H2328 H 0.53229 0.01421 -0.15375
 C2329 C 0.73333 0.62145 -0.00023
 C2330 C 0.71870 0.61191 -0.00153
 C2331 C 0.70093 0.60107 -0.00360
 C2332 C 0.69051 0.60169 -0.02081
 C2333 C 0.67292 0.59180 -0.02275
 C2334 C 0.66544 0.58109 -0.00747
 C2335 C 0.67612 0.58040 0.00973
 C2336 C 0.69372 0.59034 0.01164
 C2337 C 0.64643 0.57102 -0.00933
 C2338 C 0.64361 0.55270 -0.00122
 C2339 C 0.62555 0.54356 -0.00241
 C2340 C 0.61002 0.55255 -0.01175
 C2341 C 0.61274 0.57067 -0.02007
 C2342 C 0.63079 0.57983 -0.01891
 C2343 C 0.59109 0.54368 -0.01177
 C2344 C 0.57520 0.53642 -0.01095
 H2345 H 0.69593 0.60994 -0.03272
 H2346 H 0.66522 0.59244 -0.03625
 H2347 H 0.67067 0.57254 0.02186
 H2348 H 0.70157 0.58982 0.02507
 H2349 H 0.65538 0.54541 0.00604
 H2350 H 0.62363 0.52958 0.00416
 H2351 H 0.60081 0.57787 -0.02718
 H2352 H 0.63237 0.59403 -0.02509
 C2353 C 0.23329 1.12197 0.49829
 C2354 C 0.21851 1.11265 0.49706
 C2355 C 0.20059 1.10203 0.49504
 C2356 C 0.18959 1.10365 0.47825
 C2357 C 0.17194 1.09385 0.47633
 C2358 C 0.16499 1.08224 0.49119
 C2359 C 0.17624 1.08057 0.50796
 C2360 C 0.19389 1.09041 0.50986
 C2361 C 0.14595 1.07220 0.48935
 C2362 C 0.14344 1.05340 0.49647
 C2363 C 0.12538 1.04425 0.49529
 C2364 C 0.10954 1.05370 0.48696
 C2365 C 0.11194 1.07231 0.47963
 C2366 C 0.13000 1.08148 0.48077
 C2367 C 0.09064 1.04476 0.48701
 C2368 C 0.07479 1.03743 0.48788
 H2369 H 0.19462 1.11258 0.46665
 H2370 H 0.16380 1.09527 0.46315
 H2371 H 0.17121 1.07197 0.51978
 H2372 H 0.20221 1.08909 0.52296
 H2373 H 0.15545 1.04575 0.50293
 H2374 H 0.12371 1.02989 0.50109
 H2375 H 0.09978 1.07987 0.47332
 H2376 H 0.13134 1.09604 0.47539
 C2377 C 0.23114 -0.12184 1.00059
 C2378 C 0.21628 -0.11260 1.00139
 C2379 C 0.19815 -0.10226 1.00268
 C2380 C 0.18296 -0.10674 0.99006
 C2381 C 0.16501 -0.09755 0.99190
 C2382 C 0.16191 -0.08370 1.00645
 C2383 C 0.17734 -0.07913 1.01895
 C2384 C 0.19530 -0.08838 1.01709
 C2385 C 0.14265 -0.07420 1.00858
 C2386 C 0.14123 -0.05437 1.01312
 C2387 C 0.12311 -0.04537 1.01449
 C2388 C 0.10611 -0.05606 1.01145
 C2389 C 0.10737 -0.07585 1.00723
 C2390 C 0.12547 -0.08486 1.00583
 C2391 C 0.08747 -0.04657 1.01143
 C2392 C 0.07185 -0.03871 1.01051
 H2393 H 0.18494 -0.11749 0.97887
 H2394 H 0.15357 -0.10119 0.98185
 H2395 H 0.17541 -0.06871 1.03042
 H2396 H 0.20687 -0.08488 1.02706
 H2397 H 0.15415 -0.04569 1.01512
 H2398 H 0.12236 -0.03001 1.01759
 H2399 H 0.09436 -0.08428 1.00478
 H2400 H 0.12600 -0.10019 1.00262
 C2401 C 0.73224 0.37780 0.50136
 C2402 C 0.71744 0.38712 0.50211
 C2403 C 0.69937 0.39758 0.50332
 C2404 C 0.68485 0.39443 0.48960
 C2405 C 0.66691 0.40367 0.49129
 C2406 C 0.66316 0.41623 0.50680
 C2407 C 0.67794 0.41950 0.52040
 C2408 C 0.69588 0.41021 0.51868
 C2409 C 0.64386 0.42567 0.50881
 C2410 C 0.64230 0.44505 0.51498
 C2411 C 0.62415 0.45401 0.51633
 C2412 C 0.60728 0.44372 0.51164
 C2413 C 0.60867 0.42436 0.50576
 C2414 C 0.62678 0.41540 0.50437
 C2415 C 0.58864 0.45321 0.51175
 C2416 C 0.57299 0.46100 0.51095
 H2417 H 0.68733 0.38467 0.47766
 H2418 H 0.65598 0.40106 0.48041
 H2419 H 0.67548 0.42889 0.53260
 H2420 H 0.70694 0.41266 0.52949
 H2421 H 0.65515 0.45343 0.51831
 H2422 H 0.62331 0.46904 0.52074
 H2423 H 0.59576 0.41624 0.50203
 H2424 H 0.62742 0.40039 0.49987
 C2425 C -0.23268 0.37758 0.50021
 C2426 C -0.21782 0.38674 0.49913
 C2427 C -0.19970 0.39702 0.49749
 C2428 C -0.19810 0.41281 0.48521
 C2429 C -0.18026 0.42215 0.48300
 C2430 C -0.16371 0.41578 0.49298
 C2431 C -0.16554 0.40000 0.50541
 C2432 C -0.18338 0.39071 0.50762
 C2433 C -0.14462 0.42547 0.49048
 C2434 C -0.12742 0.41454 0.48980
 C2435 C -0.10942 0.42365 0.48820
 C2436 C -0.10826 0.44382 0.48721
 C2437 C -0.12529 0.45483 0.48756
 C2438 C -0.14333 0.44574 0.48913
 C2439 C -0.08957 0.45322 0.48722
 C2440 C -0.07389 0.46096 0.48819
 H2441 H -0.21058 0.41776 0.47718
 H2442 H -0.17933 0.43411 0.47318
 H2443 H -0.15320 0.39491 0.51355
 H2444 H -0.18439 0.37850 0.51714
 H2445 H -0.12789 0.39891 0.49050
 H2446 H -0.09637 0.41495 0.48803
 H2447 H -0.12461 0.47046 0.48700
 H2448 H -0.15624 0.45460 0.48982
 C2449 C 0.26624 -0.12193 -0.00033
 C2450 C 0.28110 -0.11272 -0.00123
 C2451 C 0.29922 -0.10240 -0.00270
 C2452 C 0.31588 -0.10964 0.00621
 C2453 C 0.33368 -0.10026 0.00412
 C2454 C 0.33514 -0.08344 -0.00697
 C2455 C 0.31827 -0.07616 -0.01574
 C2456 C 0.30047 -0.08560 -0.01365
 C2457 C 0.35419 -0.07361 -0.00933
 C2458 C 0.35554 -0.05329 -0.00904
 C2459 C 0.37355 -0.04413 -0.01053
 C2460 C 0.39050 -0.05510 -0.01243
 C2461 C 0.38927 -0.07531 -0.01306
 C2462 C 0.37129 -0.08449 -0.01155
 C2463 C 0.40921 -0.04575 -0.01244
 C2464 C 0.42495 -0.03811 -0.01157
 H2465 H 0.31514 -0.12264 0.01469
 H2466 H 0.34628 -0.10609 0.01132
 H2467 H 0.31891 -0.06339 -0.02453
 H2468 H 0.28772 -0.07992 -0.02075
 H2469 H 0.34273 -0.04447 -0.00714
 H2470 H 0.37430 -0.02849 -0.00984
 H2471 H 0.40225 -0.08399 -0.01445
 H2472 H 0.37076 -0.10013 -0.01213
 C2473 C 0.26828 1.12161 0.49967
 C2474 C 0.28285 1.11200 0.50096
 C2475 C 0.30051 1.10101 0.50313
 C2476 C 0.31057 1.10148 0.52057
 C2477 C 0.32801 1.09138 0.52267
 C2478 C 0.33570 1.08062 0.50733
 C2479 C 0.32539 1.08010 0.48989
 C2480 C 0.30795 1.09024 0.48782
 C2481 C 0.35457 1.07032 0.50938
 C2482 C 0.35738 1.05200 0.50091
 C2483 C 0.37533 1.04267 0.50225
 C2484 C 0.39075 1.05146 0.51210
 C2485 C 0.38803 1.06956 0.52080
 C2486 C 0.37009 1.07891 0.51949
 C2487 C 0.40963 1.04244 0.51220
 C2488 C 0.42549 1.03508 0.51141
 H2489 H 0.30497 1.10975 0.53255
 H2490 H 0.33541 1.09190 0.53635
 H2491 H 0.33102 1.07219 0.47772
 H2492 H 0.30037 1.08982 0.47422
 H2493 H 0.34570 1.04486 0.49324
 H2494 H 0.37725 1.02870 0.49538
 H2495 H 0.39989 1.07662 0.52830
 H2496 H 0.36852 1.09310 0.52596
 C2497 C -0.23169 0.62178 1.00142
 C2498 C -0.21695 0.61240 1.00269
 C2499 C -0.19913 0.60166 1.00473
 C2500 C -0.19216 0.59026 0.98963
 C2501 C -0.17462 0.58026 0.99156
 C2502 C -0.16375 0.58152 1.00863
 C2503 C -0.17096 0.59292 1.02376
 C2504 C -0.18850 0.60289 1.02181
 C2505 C -0.14483 0.57128 1.01051
 C2506 C -0.12899 0.58024 1.01978
 C2507 C -0.11102 0.57091 1.02092
 C2508 C -0.10860 0.55246 1.01289
 C2509 C -0.12433 0.54330 1.00389
 C2510 C -0.14230 0.55261 1.00272
 C2511 C -0.08974 0.54340 1.01280
 C2512 C -0.07391 0.53598 1.01186
 H2513 H -0.20018 0.58924 0.97631
 H2514 H -0.16938 0.57184 0.97954
 H2515 H -0.16311 0.59403 1.03716
 H2516 H -0.19373 0.61164 1.03361
 H2517 H -0.13034 0.59469 1.02571
 H2518 H -0.09894 0.57825 1.02776
 H2519 H -0.12265 0.52905 0.99755
 H2520 H -0.15423 0.54519 0.99572
 C2521 C 0.00018 0.73616 0.60670
 C2522 C 0.00118 0.72103 0.59822
 C2523 C 0.00238 0.70273 0.58863
 C2524 C 0.01895 0.69133 0.59082
 C2525 C 0.01971 0.67298 0.58242
 C2526 C 0.00386 0.66589 0.57180
 C2527 C -0.01260 0.67762 0.56940
 C2528 C -0.01332 0.69596 0.57780
 C2529 C 0.00424 0.64610 0.56373
 C2530 C -0.01215 0.63416 0.56510
 C2531 C -0.01181 0.61541 0.55765
 C2532 C 0.00489 0.60842 0.54878
 C2533 C 0.02129 0.62014 0.54738
 C2534 C 0.02099 0.63892 0.55484
 C2535 C 0.00492 0.58932 0.54079
 C2536 C 0.00445 0.57336 0.53394
 H2537 H 0.03112 0.69648 0.59929
 H2538 H 0.03246 0.66415 0.58466
 H2539 H -0.02490 0.67257 0.56107
 H2540 H -0.02620 0.70474 0.57607
 H2541 H -0.02513 0.63925 0.57213
 H2542 H -0.02457 0.60639 0.55878
 H2543 H 0.03424 0.61481 0.54043
 H2544 H 0.03374 0.64790 0.55346
 C2545 C 0.50348 0.23513 0.10504
 C2546 C 0.50614 0.22006 0.09682
 C2547 C 0.50907 0.20182 0.08751
 C2548 C 0.50714 0.20019 0.06767
 C2549 C 0.50880 0.18212 0.05881
 C2550 C 0.51237 0.16554 0.06975
 C2551 C 0.51473 0.16742 0.08964
 C2552 C 0.51307 0.18549 0.09846
 C2553 C 0.51249 0.14618 0.06068
 C2554 C 0.52600 0.13214 0.06641
 C2555 C 0.52515 0.11345 0.05875
 C2556 C 0.51081 0.10868 0.04533
 C2557 C 0.49755 0.12264 0.03928
 C2558 C 0.49838 0.14131 0.04690
 C2559 C 0.50925 0.08934 0.03809
 C2560 C 0.50752 0.07321 0.03185
 H2561 H 0.50407 0.21281 0.05912
 H2562 H 0.50713 0.18107 0.04344
 H2563 H 0.51721 0.15485 0.09843
 H2564 H 0.51450 0.18667 0.11386
 H2565 H 0.53713 0.13559 0.07687
 H2566 H 0.53549 0.10269 0.06345
 H2567 H 0.48637 0.11901 0.02892
 H2568 H 0.48762 0.15177 0.04245
 C2569 C -0.00108 0.23350 0.89398
 C2570 C -0.00356 0.21993 0.90423
 C2571 C -0.00634 0.20330 0.91586
 C2572 C 0.00453 0.20104 0.93261
 C2573 C 0.00314 0.18394 0.94291
 C2574 C -0.00909 0.16895 0.93648
 C2575 C -0.02044 0.17166 0.91998
 C2576 C -0.01904 0.18876 0.90971
 C2577 C -0.00893 0.15000 0.94600
 C2578 C -0.02620 0.13957 0.94839
 C2579 C -0.02571 0.12090 0.95576
 C2580 C -0.00798 0.11255 0.96078
 C2581 C 0.00921 0.12299 0.95891
 C2582 C 0.00875 0.14164 0.95156
 C2583 C -0.00724 0.09302 0.96725
 C2584 C -0.00624 0.07661 0.97256
 H2585 H 0.01439 0.21228 0.93742
 H2586 H 0.01188 0.18227 0.95569
 H2587 H -0.02976 0.16025 0.91456
 H2588 H -0.02741 0.19040 0.89668
 H2589 H -0.04002 0.14577 0.94437
 H2590 H -0.03908 0.11287 0.95724
 H2591 H 0.02299 0.11657 0.96274
 H2592 H 0.02230 0.14923 0.94958
 C2593 C 0.49517 0.73135 0.39664
 C2594 C 0.49167 0.71858 0.40759
 C2595 C 0.48794 0.70262 0.41984
 C2596 C 0.49807 0.70088 0.43710
 C2597 C 0.49656 0.68392 0.44762
 C2598 C 0.48499 0.66854 0.44088
 C2599 C 0.47412 0.67085 0.42401
 C2600 C 0.47563 0.68781 0.41353
 C2601 C 0.48581 0.64948 0.45017
 C2602 C 0.46907 0.63806 0.45180
 C2603 C 0.47040 0.61917 0.45853
 C2604 C 0.48844 0.61159 0.46369
 C2605 C 0.50506 0.62302 0.46266
 C2606 C 0.50378 0.64187 0.45594
 C2607 C 0.49012 0.59188 0.46944
 C2608 C 0.49192 0.57537 0.47425
 H2609 H 0.50766 0.71229 0.44203
 H2610 H 0.50490 0.68257 0.46070
 H2611 H 0.46531 0.65916 0.41834
 H2612 H 0.46786 0.68903 0.40010
 H2613 H 0.45504 0.64364 0.44758
 H2614 H 0.45745 0.61039 0.45938
 H2615 H 0.51909 0.61720 0.46660
 H2616 H 0.51696 0.65020 0.45451
 C2617 C 0.50173 0.76487 0.39227
 C2618 C 0.50361 0.78050 0.39967
 C2619 C 0.50580 0.79933 0.40798
 C2620 C 0.49409 0.81445 0.40157
 C2621 C 0.49628 0.83292 0.40941
 C2622 C 0.51023 0.83643 0.42373
 C2623 C 0.52197 0.82114 0.43006
 C2624 C 0.51977 0.80265 0.42218
 C2625 C 0.51211 0.85591 0.43233
 C2626 C 0.51403 0.85817 0.45222
 C2627 C 0.51441 0.87660 0.46046
 C2628 C 0.51294 0.89291 0.44888
 C2629 C 0.51153 0.89083 0.42905
 C2630 C 0.51115 0.87241 0.42078
 C2631 C 0.51167 0.91170 0.45745
 C2632 C 0.51003 0.92738 0.46476
 H2633 H 0.48325 0.81195 0.39056
 H2634 H 0.48684 0.84438 0.40450
 H2635 H 0.53294 0.82353 0.44096
 H2636 H 0.52895 0.79099 0.42711
 H2637 H 0.51458 0.84569 0.46144
 H2638 H 0.51538 0.87814 0.47585
 H2639 H 0.51037 0.90342 0.42001
 H2640 H 0.50991 0.87104 0.40540
 C2641 C 0.00675 0.26695 0.89209
 C2642 C 0.01059 0.28149 0.90081
 C2643 C 0.01462 0.29920 0.91075
 C2644 C 0.00517 0.30337 0.92788
 C2645 C 0.00745 0.32147 0.93654
 C2646 C 0.01918 0.33556 0.92807
 C2647 C 0.02918 0.33098 0.91120
 C2648 C 0.02687 0.31286 0.90257
 C2649 C 0.01974 0.35539 0.93605
 C2650 C 0.01800 0.37134 0.92385
 C2651 C 0.01659 0.39000 0.93141
 C2652 C 0.01695 0.39288 0.95119
 C2653 C 0.01923 0.37718 0.96343
 C2654 C 0.02063 0.35849 0.95590
 C2655 C 0.01406 0.41184 0.95897
 C2656 C 0.01135 0.42763 0.96566
 H2657 H -0.00444 0.29287 0.93421
 H2658 H -0.00062 0.32471 0.94939
 H2659 H 0.03845 0.34154 0.90452
 H2660 H 0.03421 0.30970 0.88926
 H2661 H 0.01698 0.36932 0.90851
 H2662 H 0.01475 0.40212 0.92186
 H2663 H 0.01954 0.37934 0.97878
 H2664 H 0.02214 0.34645 0.96557
 C2665 C 0.49585 0.26862 0.10222
 C2666 C 0.49226 0.28183 0.09177
 C2667 C 0.48832 0.29822 0.08009
 C2668 C 0.50213 0.30436 0.06698
 C2669 C 0.49956 0.32181 0.05749
 C2670 C 0.48317 0.33330 0.06112
 C2671 C 0.46894 0.32657 0.07368
 C2672 C 0.47154 0.30910 0.08315
 C2673 C 0.48193 0.35299 0.05325
 C2674 C 0.47657 0.36857 0.06514
 C2675 C 0.47761 0.38748 0.05851
 C2676 C 0.48397 0.39098 0.03996
 C2677 C 0.48870 0.37556 0.02780
 C2678 C 0.48768 0.35662 0.03440
 C2679 C 0.48669 0.41042 0.03375
 C2680 C 0.48938 0.42663 0.02845
 H2681 H 0.51523 0.29606 0.06467
 H2682 H 0.51087 0.32678 0.04808
 H2683 H 0.45610 0.33507 0.07656
 H2684 H 0.46082 0.30442 0.09335
 H2685 H 0.47238 0.36621 0.07981
 H2686 H 0.47400 0.39939 0.06802
 H2687 H 0.49361 0.37820 0.01339
 H2688 H 0.49172 0.34485 0.02492
 C2689 C -0.00535 0.77008 0.60462
 C2690 C -0.00885 0.78352 0.59444
 C2691 C -0.01256 0.80009 0.58293
 C2692 C -0.02871 0.81169 0.58663
 C2693 C -0.03103 0.82916 0.57708
 C2694 C -0.01715 0.83517 0.56381
 C2695 C -0.00138 0.82301 0.55963
 C2696 C 0.00091 0.80556 0.56919
 C2697 C -0.01806 0.85473 0.55560
 C2698 C -0.01310 0.85778 0.53643
 C2699 C -0.01189 0.87653 0.52935
 C2700 C -0.01564 0.89234 0.54137
 C2701 C -0.02118 0.88943 0.56028
 C2702 C -0.02241 0.87071 0.56738
 C2703 C -0.01286 0.91156 0.53457
 C2704 C -0.01021 0.92763 0.52885
 H2705 H -0.03917 0.80753 0.59731
 H2706 H -0.04340 0.83818 0.58040
 H2707 H 0.00967 0.82742 0.54968
 H2708 H 0.01353 0.79671 0.56639
 H2709 H -0.00986 0.84570 0.52703
 H2710 H -0.00762 0.87871 0.51466
 H2711 H -0.02404 0.90164 0.56967
 H2712 H -0.02597 0.86879 0.58228
 C2713 C 0.25160 0.35554 0.01782
 C2714 C 0.25324 0.34555 0.03179
 C2715 C 0.25594 0.33379 0.04850
 C2716 C 0.27467 0.32873 0.05440
 C2717 C 0.27748 0.31779 0.07090
 C2718 C 0.26156 0.31173 0.08177
 C2719 C 0.24277 0.31672 0.07560
 C2720 C 0.24000 0.32768 0.05909
 C2721 C 0.26452 0.30084 0.09979
 C2722 C 0.25189 0.28576 0.10478
 C2723 C 0.25384 0.27651 0.12238
 C2724 C 0.26847 0.28212 0.13523
 C2725 C 0.28144 0.29672 0.13017
 C2726 C 0.27954 0.30598 0.11257
 C2727 C 0.26874 0.27448 0.15432
 C2728 C 0.26792 0.26911 0.17065
 H2729 H 0.28713 0.33335 0.04630
 H2730 H 0.29210 0.31403 0.07512
 H2731 H 0.23022 0.31255 0.08378
 H2732 H 0.22544 0.33156 0.05472
 H2733 H 0.24036 0.28128 0.09517
 H2734 H 0.24360 0.26535 0.12618
 H2735 H 0.29265 0.30139 0.14009
 H2736 H 0.28935 0.31768 0.10930
 C2737 C 0.75195 0.85636 0.52020
 C2738 C 0.75375 0.84675 0.53442
 C2739 C 0.75666 0.83536 0.55135
 C2740 C 0.74082 0.82865 0.56173
 C2741 C 0.74379 0.81790 0.57834
 C2742 C 0.76267 0.81372 0.58482
 C2743 C 0.77849 0.82040 0.57418
 C2744 C 0.77549 0.83113 0.55758
 C2745 C 0.76581 0.80298 0.60292
 C2746 C 0.78042 0.80873 0.61590
 C2747 C 0.78246 0.79956 0.63353
 C2748 C 0.77003 0.78443 0.63841
 C2749 C 0.75582 0.77823 0.62537
 C2750 C 0.75374 0.78740 0.60774
 C2751 C 0.77035 0.77682 0.65752
 C2752 C 0.76949 0.77143 0.67385
 H2753 H 0.72618 0.83186 0.55709
 H2754 H 0.73130 0.81323 0.58634
 H2755 H 0.79319 0.81726 0.57864
 H2756 H 0.78787 0.83620 0.54963
 H2757 H 0.78979 0.82082 0.61275
 H2758 H 0.79333 0.80468 0.64360
 H2759 H 0.74600 0.76666 0.62904
 H2760 H 0.74253 0.78245 0.59798
 C2761 C 0.24914 0.64486 0.51537
 C2762 C 0.24821 0.65511 0.52941
 C2763 C 0.24635 0.66697 0.54634
 C2764 C 0.25496 0.68528 0.54739
 C2765 C 0.25293 0.69672 0.56388
 C2766 C 0.24221 0.69000 0.57952
 C2767 C 0.23356 0.67160 0.57824
 C2768 C 0.23561 0.66021 0.56178
 C2769 C 0.24055 0.70174 0.59737
 C2770 C 0.22316 0.70208 0.60776
 C2771 C 0.22215 0.71171 0.62540
 C2772 C 0.23844 0.72123 0.63286
 C2773 C 0.25561 0.72152 0.62234
 C2774 C 0.25666 0.71190 0.60470
 C2775 C 0.23829 0.72877 0.65213
 C2776 C 0.23895 0.73390 0.66865
 H2777 H 0.26321 0.69072 0.53549
 H2778 H 0.25961 0.71088 0.56434
 H2779 H 0.22551 0.66584 0.59012
 H2780 H 0.22887 0.64606 0.56113
 H2781 H 0.21042 0.69464 0.60239
 H2782 H 0.20882 0.71125 0.63346
 H2783 H 0.26840 0.72863 0.62807
 H2784 H 0.27032 0.71174 0.59721
 C2785 C 0.74810 0.14519 0.01640
 C2786 C 0.74695 0.15534 0.03049
 C2787 C 0.74487 0.16733 0.04731
 C2788 C 0.76097 0.17178 0.05877
 C2789 C 0.75873 0.18290 0.07542
 C2790 C 0.74033 0.18971 0.08086
 C2791 C 0.72428 0.18534 0.06910
 C2792 C 0.72656 0.17424 0.05246
 C2793 C 0.73783 0.20067 0.09907
 C2794 C 0.72195 0.19690 0.11099
 C2795 C 0.72039 0.20609 0.12881
 C2796 C 0.73458 0.21924 0.13494
 C2797 C 0.75010 0.22352 0.12295
 C2798 C 0.75171 0.21435 0.10513
 C2799 C 0.73441 0.22660 0.15427
 C2800 C 0.73515 0.23165 0.17081
 H2801 H 0.77520 0.16646 0.05498
 H2802 H 0.77133 0.18574 0.08429
 H2803 H 0.70998 0.19053 0.07275
 H2804 H 0.71399 0.17091 0.04367
 H2805 H 0.71115 0.18628 0.10689
 H2806 H 0.70844 0.20244 0.13807
 H2807 H 0.76127 0.23355 0.12759
 H2808 H 0.76396 0.21776 0.09619
 C2809 C 0.74859 0.14514 0.98227
 C2810 C 0.74958 0.15530 0.96838
 C2811 C 0.75158 0.16735 0.95182
 C2812 C 0.76974 0.17490 0.94720
 C2813 C 0.77198 0.18611 0.93084
 C2814 C 0.75605 0.18995 0.91882
 C2815 C 0.73779 0.18248 0.92372
 C2816 C 0.73559 0.17125 0.94009
 C2817 C 0.75857 0.20108 0.90092
 C2818 C 0.74436 0.21432 0.89488
 C2819 C 0.74610 0.22371 0.87736
 C2820 C 0.76207 0.22007 0.86564
 C2821 C 0.77654 0.20733 0.87175
 C2822 C 0.77484 0.19794 0.88928
 C2823 C 0.76247 0.22765 0.84654
 C2824 C 0.76193 0.23286 0.83013
 H2825 H 0.78223 0.17201 0.95619
 H2826 H 0.78617 0.19182 0.92760
 H2827 H 0.72529 0.18491 0.91464
 H2828 H 0.72147 0.16543 0.94348
 H2829 H 0.73179 0.21724 0.90361
 H2830 H 0.73471 0.23340 0.87272
 H2831 H 0.78882 0.20417 0.86270
 H2832 H 0.78591 0.18766 0.89337
 C2833 C 0.24979 0.64393 0.48116
 C2834 C 0.25115 0.65344 0.46685
 C2835 C 0.25359 0.66449 0.44967
 C2836 C 0.26010 0.65532 0.43300
 C2837 C 0.26313 0.66599 0.41643
 C2838 C 0.25971 0.68606 0.41625
 C2839 C 0.25312 0.69516 0.43308
 C2840 C 0.25012 0.68444 0.44967
 C2841 C 0.26263 0.69727 0.39845
 C2842 C 0.24931 0.71164 0.39301
 C2843 C 0.25121 0.72108 0.37554
 C2844 C 0.26650 0.71641 0.36328
 C2845 C 0.28017 0.70258 0.36883
 C2846 C 0.27829 0.69311 0.38629
 C2847 C 0.26682 0.72413 0.34422
 C2848 C 0.26601 0.72955 0.32789
 H2849 H 0.26288 0.63990 0.43283
 H2850 H 0.26788 0.65847 0.40366
 H2851 H 0.25053 0.71060 0.43348
 H2852 H 0.24522 0.69173 0.46253
 H2853 H 0.23698 0.71503 0.40190
 H2854 H 0.24038 0.73156 0.37130
 H2855 H 0.29197 0.69871 0.35941
 H2856 H 0.28896 0.68234 0.39018
 C2857 C 0.75034 0.85511 0.48605
 C2858 C 0.74926 0.84458 0.47222
 C2859 C 0.74738 0.83222 0.45561
 C2860 C 0.76344 0.82830 0.44413
 C2861 C 0.76138 0.81691 0.42762
 C2862 C 0.74319 0.80930 0.42232
 C2863 C 0.72718 0.81313 0.43410
 C2864 C 0.72928 0.82451 0.45061
 C2865 C 0.74083 0.79807 0.40421
 C2866 C 0.72460 0.80106 0.39232
 C2867 C 0.72310 0.79164 0.37459
 C2868 C 0.73771 0.77902 0.36853
 C2869 C 0.75363 0.77551 0.38049
 C2870 C 0.75517 0.78492 0.39822
 C2871 C 0.73747 0.77141 0.34929
 C2872 C 0.73806 0.76617 0.33281
 H2873 H 0.77750 0.83427 0.44780
 H2874 H 0.77394 0.81449 0.41872
 H2875 H 0.71304 0.80732 0.43055
 H2876 H 0.71673 0.82743 0.45940
 H2877 H 0.71344 0.81127 0.39637
 H2878 H 0.71084 0.79470 0.36536
 H2879 H 0.76512 0.76590 0.37590
 H2880 H 0.76771 0.78211 0.40713
 C2881 C 0.24963 0.35550 0.98364
 C2882 C 0.24794 0.34548 0.96951
 C2883 C 0.24514 0.33370 0.95260
 C2884 C 0.22636 0.32898 0.94651
 C2885 C 0.22346 0.31807 0.92981
 C2886 C 0.23932 0.31171 0.91892
 C2887 C 0.25817 0.31634 0.92529
 C2888 C 0.26104 0.32727 0.94200
 C2889 C 0.23626 0.30091 0.90066
 C2890 C 0.24862 0.28559 0.89543
 C2891 C 0.24660 0.27642 0.87762
 C2892 C 0.23219 0.28237 0.86480
 C2893 C 0.21948 0.29722 0.87008
 C2894 C 0.22145 0.30639 0.88789
 C2895 C 0.23192 0.27483 0.84552
 C2896 C 0.23280 0.26954 0.82907
 H2897 H 0.21394 0.33385 0.95462
 H2898 H 0.20879 0.31458 0.92543
 H2899 H 0.27068 0.31193 0.91710
 H2900 H 0.27564 0.33090 0.94653
 H2901 H 0.25999 0.28085 0.90502
 H2902 H 0.25665 0.26507 0.87363
 H2903 H 0.20845 0.30215 0.86019
 H2904 H 0.21186 0.31829 0.89135
 C2905 C 0.87134 0.48256 0.75103
 C2906 C 0.86185 0.46793 0.75237
 C2907 C 0.85109 0.45018 0.75451
 C2908 C 0.83952 0.44300 0.73956
 C2909 C 0.82962 0.42545 0.74154
 C2910 C 0.83118 0.41477 0.75853
 C2911 C 0.84273 0.42221 0.77352
 C2912 C 0.85259 0.43975 0.77152
 C2913 C 0.82109 0.39582 0.76045
 C2914 C 0.83029 0.38017 0.76951
 C2915 C 0.82108 0.36218 0.77071
 C2916 C 0.80252 0.35954 0.76295
 C2917 C 0.79314 0.37509 0.75416
 C2918 C 0.80232 0.39308 0.75292
 C2919 C 0.79355 0.34065 0.76292
 C2920 C 0.78615 0.32482 0.76199
 H2921 H 0.83830 0.45085 0.72629
 H2922 H 0.82108 0.42004 0.72962
 H2923 H 0.84407 0.41452 0.78686
 H2924 H 0.86149 0.44514 0.78321
 H2925 H 0.84482 0.38168 0.77523
 H2926 H 0.82859 0.35023 0.77738
 H2927 H 0.77880 0.37324 0.74803
 H2928 H 0.79471 0.40486 0.74609
 C2929 C 0.37284 0.98140 0.25047
 C2930 C 0.36379 0.96646 0.25142
 C2931 C 0.35367 0.94825 0.25286
 C2932 C 0.36102 0.93175 0.24371
 C2933 C 0.35181 0.91386 0.24571
 C2934 C 0.33506 0.91215 0.25693
 C2935 C 0.32768 0.92886 0.26596
 C2936 C 0.33695 0.94675 0.26396
 C2937 C 0.32536 0.89304 0.25912
 C2938 C 0.30502 0.89157 0.25899
 C2939 C 0.29597 0.87351 0.26030
 C2940 C 0.30707 0.85663 0.26185
 C2941 C 0.32729 0.85797 0.26231
 C2942 C 0.33637 0.87600 0.26098
 C2943 C 0.29776 0.83791 0.26170
 C2944 C 0.28999 0.82226 0.26068
 H2945 H 0.37396 0.93268 0.23511
 H2946 H 0.35771 0.90139 0.23831
 H2947 H 0.31496 0.92804 0.27486
 H2948 H 0.33118 0.95937 0.27124
 H2949 H 0.29611 0.90433 0.25735
 H2950 H 0.28031 0.87268 0.25974
 H2951 H 0.33607 0.84503 0.26343
 H2952 H 0.35204 0.87661 0.26142
 C2953 C 0.12820 0.98261 0.74942
 C2954 C 0.13780 0.96802 0.74820
 C2955 C 0.14884 0.95038 0.74618
 C2956 C 0.15982 0.94330 0.76147
 C2957 C 0.17011 0.92594 0.75953
 C2958 C 0.16955 0.91535 0.74223
 C2959 C 0.15857 0.92269 0.72691
 C2960 C 0.14832 0.94004 0.72888
 C2961 C 0.18004 0.89659 0.74031
 C2962 C 0.17154 0.88086 0.73045
 C2963 C 0.18109 0.86303 0.72921
 C2964 C 0.19931 0.86063 0.73774
 C2965 C 0.20802 0.87625 0.74735
 C2966 C 0.19848 0.89408 0.74862
 C2967 C 0.20854 0.84187 0.73768
 C2968 C 0.21599 0.82607 0.73846
 H2969 H 0.16029 0.95111 0.77496
 H2970 H 0.17818 0.92060 0.77169
 H2971 H 0.15802 0.91507 0.71333
 H2972 H 0.13991 0.94537 0.71691
 H2973 H 0.15726 0.88218 0.72411
 H2974 H 0.17409 0.85103 0.72190
 H2975 H 0.22208 0.87457 0.75409
 H2976 H 0.20556 0.90593 0.75610
 C2977 C 0.62754 0.48153 0.25052
 C2978 C 0.63695 0.46682 0.24945
 C2979 C 0.64777 0.44903 0.24764
 C2980 C 0.65805 0.44162 0.26325
 C2981 C 0.66812 0.42411 0.26150
 C2982 C 0.66804 0.41371 0.24410
 C2983 C 0.65776 0.42136 0.22846
 C2984 C 0.64773 0.43886 0.23024
 C2985 C 0.67835 0.39483 0.24235
 C2986 C 0.67000 0.37931 0.23205
 C2987 C 0.67939 0.36139 0.23093
 C2988 C 0.69729 0.35869 0.24003
 C2989 C 0.70583 0.37410 0.25011
 C2990 C 0.69646 0.39203 0.25126
 C2991 C 0.70636 0.33986 0.24001
 C2992 C 0.71371 0.32402 0.24078
 H2993 H 0.65813 0.44928 0.27682
 H2994 H 0.67564 0.41853 0.27389
 H2995 H 0.65760 0.41388 0.21481
 H2996 H 0.63985 0.44443 0.21803
 H2997 H 0.65597 0.38087 0.22524
 H2998 H 0.67253 0.34955 0.22324
 H2999 H 0.71964 0.37219 0.25729
 H3000 H 0.70341 0.40371 0.25909
 C3001 C 0.62792 0.51646 0.25190
 C3002 C 0.63757 0.53100 0.25325
 C3003 C 0.64861 0.54863 0.25545
 C3004 C 0.65965 0.55568 0.24034
 C3005 C 0.66986 0.57309 0.24243
 C3006 C 0.66913 0.58374 0.25967
 C3007 C 0.65810 0.57643 0.27481
 C3008 C 0.64794 0.55902 0.27271
 C3009 C 0.67950 0.60257 0.26171
 C3010 C 0.67081 0.61830 0.27129
 C3011 C 0.68023 0.63620 0.27259
 C3012 C 0.69850 0.63866 0.26441
 C3013 C 0.70738 0.62303 0.25509
 C3014 C 0.69798 0.60513 0.25376
 C3015 C 0.70757 0.65748 0.26447
 C3016 C 0.71491 0.67331 0.26364
 H3017 H 0.66023 0.54784 0.22689
 H3018 H 0.67798 0.57842 0.23040
 H3019 H 0.65742 0.58410 0.28834
 H3020 H 0.63946 0.55372 0.28452
 H3021 H 0.65650 0.61693 0.27734
 H3022 H 0.67310 0.64821 0.27967
 H3023 H 0.72147 0.62476 0.24862
 H3024 H 0.70519 0.59328 0.24651
 C3025 C 0.12815 0.01755 0.75079
 C3026 C 0.13758 0.03225 0.75194
 C3027 C 0.14831 0.05009 0.75382
 C3028 C 0.15941 0.05693 0.73865
 C3029 C 0.16929 0.07455 0.74039
 C3030 C 0.16818 0.08564 0.75734
 C3031 C 0.15709 0.07855 0.77255
 C3032 C 0.14725 0.06093 0.77079
 C3033 C 0.17825 0.10465 0.75902
 C3034 C 0.16923 0.12050 0.76810
 C3035 C 0.17842 0.13853 0.76912
 C3036 C 0.19679 0.14101 0.76116
 C3037 C 0.20599 0.12527 0.75232
 C3038 C 0.19682 0.10724 0.75127
 C3039 C 0.20576 0.15987 0.76109
 C3040 C 0.21315 0.17568 0.76026
 H3041 H 0.16027 0.04875 0.72541
 H3042 H 0.17747 0.07970 0.72832
 H3043 H 0.15612 0.08657 0.78587
 H3044 H 0.13872 0.05580 0.78264
 H3045 H 0.15485 0.11910 0.77398
 H3046 H 0.17106 0.15061 0.77584
 H3047 H 0.22018 0.12700 0.74605
 H3048 H 0.20428 0.09531 0.74441
 C3049 C 0.37249 0.01647 0.24942
 C3050 C 0.36323 0.03129 0.24858
 C3051 C 0.35296 0.04943 0.24719
 C3052 C 0.33727 0.05138 0.23458
 C3053 C 0.32808 0.06931 0.23249
 C3054 C 0.33452 0.08562 0.24293
 C3055 C 0.35018 0.08343 0.25572
 C3056 C 0.35931 0.06551 0.25780
 C3057 C 0.32506 0.10484 0.24050
 C3058 C 0.33623 0.12188 0.24036
 C3059 C 0.32734 0.13999 0.23877
 C3060 C 0.30717 0.14141 0.23725
 C3061 C 0.29595 0.12454 0.23706
 C3062 C 0.30481 0.10639 0.23862
 C3063 C 0.29799 0.16019 0.23719
 C3064 C 0.29042 0.17594 0.23807
 H3065 H 0.33230 0.03910 0.22616
 H3066 H 0.31621 0.07052 0.22238
 H3067 H 0.35531 0.09558 0.26421
 H3068 H 0.37147 0.06423 0.26758
 H3069 H 0.35186 0.12121 0.24147
 H3070 H 0.33621 0.15291 0.23901
 H3071 H 0.28031 0.12542 0.23608
 H3072 H 0.29577 0.09360 0.23889
 C3073 C 0.87170 0.51755 0.74952
 C3074 C 0.86255 0.53241 0.74835
 C3075 C 0.85226 0.55049 0.74644
 C3076 C 0.84047 0.55741 0.76119
 C3077 C 0.83107 0.57527 0.75947
 C3078 C 0.83336 0.58652 0.74297
 C3079 C 0.84512 0.57934 0.72816
 C3080 C 0.85448 0.56148 0.72990
 C3081 C 0.82381 0.60579 0.74136
 C3082 C 0.83365 0.62153 0.73326
 C3083 C 0.82492 0.63979 0.73234
 C3084 C 0.80622 0.64261 0.73943
 C3085 C 0.79622 0.62699 0.74728
 C3086 C 0.80491 0.60874 0.74823
 C3087 C 0.79765 0.66168 0.73967
 C3088 C 0.79043 0.67758 0.74074
 H3089 H 0.83870 0.54910 0.77411
 H3090 H 0.82235 0.58046 0.77125
 H3091 H 0.84700 0.58749 0.71517
 H3092 H 0.86355 0.55630 0.71837
 H3093 H 0.84829 0.61986 0.72807
 H3094 H 0.83290 0.65177 0.72639
 H3095 H 0.78176 0.62898 0.75288
 H3096 H 0.79683 0.59691 0.75431
 C3097 C 0.98017 0.75774 0.14126
 C3098 C 0.96566 0.76095 0.15008
 C3099 C 0.94805 0.76433 0.16017
 C3100 C 0.93130 0.76928 0.15003
 C3101 C 0.91369 0.77091 0.15952
 C3102 C 0.91271 0.76755 0.17926
 C3103 C 0.92976 0.76322 0.18944
 C3104 C 0.94736 0.76159 0.17991
 C3105 C 0.89375 0.76713 0.18884
 C3106 C 0.88948 0.75219 0.20161
 C3107 C 0.87109 0.75075 0.20950
 C3108 C 0.85680 0.76419 0.20472
 C3109 C 0.86098 0.77936 0.19236
 C3110 C 0.87940 0.78085 0.18443
 C3111 C 0.83773 0.76196 0.21218
 C3112 C 0.82188 0.75959 0.21866
 H3113 H 0.93176 0.77134 0.13471
 H3114 H 0.90074 0.77400 0.15129
 H3115 H 0.92940 0.76078 0.20469
 H3116 H 0.96031 0.75776 0.18783
 H3117 H 0.90016 0.74126 0.20500
 H3118 H 0.86790 0.73893 0.21904
 H3119 H 0.84995 0.78986 0.18866
 H3120 H 0.88240 0.79258 0.17476
 C3121 C 0.48125 0.25630 0.64408
 C3122 C 0.46812 0.25999 0.65467
 C3123 C 0.45182 0.26388 0.66657
 C3124 C 0.45058 0.25546 0.68459
 C3125 C 0.43352 0.25709 0.69503
 C3126 C 0.41753 0.26709 0.68746
 C3127 C 0.41927 0.27626 0.66972
 C3128 C 0.43633 0.27463 0.65932
 C3129 C 0.39854 0.26635 0.69697
 C3130 C 0.38633 0.28262 0.69731
 C3131 C 0.36755 0.28115 0.70440
 C3132 C 0.36086 0.26343 0.71119
 C3133 C 0.37308 0.24734 0.71143
 C3134 C 0.39183 0.24876 0.70436
 C3135 C 0.34127 0.26146 0.71734
 C3136 C 0.32488 0.25937 0.72251
 H3137 H 0.46253 0.24708 0.69025
 H3138 H 0.43261 0.25008 0.70876
 H3139 H 0.40710 0.28382 0.66342
 H3140 H 0.43717 0.28107 0.64530
 H3141 H 0.39122 0.29636 0.69184
 H3142 H 0.35815 0.29369 0.70425
 H3143 H 0.36796 0.23356 0.71665
 H3144 H 0.40078 0.23592 0.70397
 C3145 C 0.48439 0.74354 0.85581
 C3146 C 0.46999 0.73982 0.84679
 C3147 C 0.45237 0.73581 0.83669
 C3148 C 0.44764 0.74634 0.82038
 C3149 C 0.42953 0.74397 0.81175
 C3150 C 0.41597 0.73107 0.81943
 C3151 C 0.42113 0.72004 0.83543
 C3152 C 0.43926 0.72243 0.84403
 C3153 C 0.39607 0.73031 0.81164
 C3154 C 0.38017 0.73046 0.82408
 C3155 C 0.36136 0.73175 0.81685
 C3156 C 0.35828 0.73285 0.79715
 C3157 C 0.37395 0.73210 0.78462
 C3158 C 0.39278 0.73083 0.79182
 C3159 C 0.33915 0.73582 0.78979
 C3160 C 0.32328 0.73872 0.78338
 H3161 H 0.45768 0.75683 0.81472
 H3162 H 0.42582 0.75284 0.79960
 H3163 H 0.41101 0.70988 0.84149
 H3164 H 0.44285 0.71425 0.85670
 H3165 H 0.38231 0.73037 0.83942
 H3166 H 0.34927 0.73242 0.82663
 H3167 H 0.37164 0.73293 0.76932
 H3168 H 0.40478 0.73054 0.78194
 C3169 C 0.98372 0.24505 0.35504
 C3170 C 0.96885 0.24180 0.34664
 C3171 C 0.95084 0.23801 0.33715
 C3172 C 0.94565 0.24859 0.32100
 C3173 C 0.92745 0.24594 0.31263
 C3174 C 0.91429 0.23269 0.32040
 C3175 C 0.91986 0.22175 0.33633
 C3176 C 0.93807 0.22442 0.34467
 C3177 C 0.89442 0.23128 0.31263
 C3178 C 0.87853 0.23089 0.32508
 C3179 C 0.85969 0.23141 0.31783
 C3180 C 0.85657 0.23227 0.29812
 C3181 C 0.87226 0.23207 0.28559
 C3182 C 0.89112 0.23157 0.29281
 C3183 C 0.83737 0.23459 0.29075
 C3184 C 0.82141 0.23705 0.28436
 H3185 H 0.95546 0.25921 0.31518
 H3186 H 0.92342 0.25474 0.30053
 H3187 H 0.91004 0.21133 0.34245
 H3188 H 0.94204 0.21618 0.35718
 H3189 H 0.88068 0.23094 0.34042
 H3190 H 0.84758 0.23167 0.32760
 H3191 H 0.86992 0.23275 0.27029
 H3192 H 0.90312 0.23168 0.28293
 C3193 C 0.01756 0.25136 0.35263
 C3194 C 0.03124 0.25359 0.34241
 C3195 C 0.04816 0.25613 0.33107
 C3196 C 0.05233 0.24302 0.31635
 C3197 C 0.06997 0.24417 0.30684
 C3198 C 0.08359 0.25842 0.31207
 C3199 C 0.07891 0.27200 0.32637
 C3200 C 0.06127 0.27082 0.33584
 C3201 C 0.10318 0.25819 0.30378
 C3202 C 0.11257 0.27553 0.29909
 C3203 C 0.13161 0.27522 0.29253
 C3204 C 0.14138 0.25760 0.29064
 C3205 C 0.13207 0.24028 0.29501
 C3206 C 0.11307 0.24055 0.30155
 C3207 C 0.16098 0.25711 0.28424
 C3208 C 0.17735 0.25612 0.27870
 H3209 H 0.04223 0.23159 0.31262
 H3210 H 0.07316 0.23369 0.29571
 H3211 H 0.08923 0.28295 0.33084
 H3212 H 0.05815 0.28094 0.34733
 H3213 H 0.10520 0.28928 0.30056
 H3214 H 0.13874 0.28868 0.28906
 H3215 H 0.13958 0.22659 0.29357
 H3216 H 0.10631 0.22702 0.30538
 C3217 C 0.51791 0.75184 0.85503
 C3218 C 0.53186 0.75488 0.84537
 C3219 C 0.54900 0.75823 0.83456
 C3220 C 0.56407 0.76908 0.84267
 C3221 C 0.58159 0.77082 0.83307
 C3222 C 0.58420 0.76166 0.81526
 C3223 C 0.56871 0.75134 0.80692
 C3224 C 0.55119 0.74962 0.81656
 C3225 C 0.60345 0.76165 0.80622
 C3226 C 0.61093 0.74443 0.79839
 C3227 C 0.62974 0.74387 0.79133
 C3228 C 0.64125 0.76048 0.79201
 C3229 C 0.63382 0.77781 0.79936
 C3230 C 0.61499 0.77841 0.80644
 C3231 C 0.66084 0.75947 0.78562
 C3232 C 0.67725 0.75817 0.78022
 H3233 H 0.56249 0.77570 0.85667
 H3234 H 0.59335 0.77862 0.83995
 H3235 H 0.57029 0.74433 0.79312
 H3236 H 0.53955 0.74118 0.81022
 H3237 H 0.60249 0.73124 0.79832
 H3238 H 0.63544 0.73040 0.78568
 H3239 H 0.64267 0.79074 0.79986
 H3240 H 0.60949 0.79188 0.81225
 C3241 C 0.51499 0.24981 0.64078
 C3242 C 0.53039 0.24821 0.64865
 C3243 C 0.54900 0.24633 0.65750
 C3244 C 0.55143 0.23441 0.67336
 C3245 C 0.56972 0.23243 0.68173
 C3246 C 0.58569 0.24234 0.67424
 C3247 C 0.58306 0.25428 0.65830
 C3248 C 0.56479 0.25625 0.64998
 C3249 C 0.60501 0.24060 0.68319
 C3250 C 0.62162 0.23895 0.67179
 C3251 C 0.63996 0.23854 0.68021
 C3252 C 0.64186 0.23972 0.70007
 C3253 C 0.62542 0.24092 0.71157
 C3254 C 0.60705 0.24132 0.70318
 C3255 C 0.66070 0.24077 0.70860
 C3256 C 0.67648 0.24216 0.71575
 H3257 H 0.53925 0.22662 0.67918
 H3258 H 0.57142 0.22302 0.69390
 H3259 H 0.59506 0.26231 0.65245
 H3260 H 0.56298 0.26551 0.63769
 H3261 H 0.62040 0.23811 0.65637
 H3262 H 0.65266 0.23762 0.67123
 H3263 H 0.62682 0.24195 0.72697
 H3264 H 0.59450 0.24281 0.71226
 C3265 C 0.01430 0.75290 0.14278
 C3266 C 0.02850 0.75211 0.15272
 C3267 C 0.04588 0.75114 0.16386
 C3268 C 0.05442 0.73320 0.16747
 C3269 C 0.07235 0.73232 0.17669
 C3270 C 0.08190 0.74942 0.18230
 C3271 C 0.07291 0.76735 0.17912
 C3272 C 0.05498 0.76819 0.16991
 C3273 C 0.10162 0.74861 0.19048
 C3274 C 0.11586 0.76155 0.18420
 C3275 C 0.13465 0.76056 0.19148
 C3276 C 0.13940 0.74664 0.20506
 C3277 C 0.12535 0.73370 0.21144
 C3278 C 0.10651 0.73465 0.20416
 C3279 C 0.15866 0.74597 0.21262
 C3280 C 0.17485 0.74598 0.21892
 H3281 H 0.04747 0.71995 0.16268
 H3282 H 0.07907 0.71835 0.17879
 H3283 H 0.07987 0.78071 0.18354
 H3284 H 0.04844 0.78213 0.16710
 H3285 H 0.11255 0.77222 0.17344
 H3286 H 0.14549 0.77062 0.18648
 H3287 H 0.12894 0.72295 0.22205
 H3288 H 0.09575 0.72462 0.20931
   
