data_POSCAR
  _audit_creation_date              2014-09-24
  _audit_creation_method            'ToBaCCo'
  _symmetry_space_group_name_H-M    'P1'
  _symmetry_Int_Tables_number       1
  _symmetry_cell_setting            triclinic
  loop_
  _symmetry_equiv_pos_as_xyz
 x,y,z
_cell_length_a 35.8978
_cell_length_b 35.9008
_cell_length_c 35.9080
_cell_angle_alpha 90.001200
_cell_angle_beta 89.945300
_cell_angle_gamma 90.012400
loop_
  _atom_site_label
  _atom_site_type_symbol
  _atom_site_fract_x
  _atom_site_fract_y
  _atom_site_fract_z
C1 C 0.12585 -0.00047 0.24879
 C2 C 0.37478 0.00043 0.74931
 C3 C 0.87472 0.50042 0.25064
 C4 C 0.62579 0.49993 0.75159
 C5 C 0.24872 0.12584 0.99968
 C6 C 0.74997 0.37434 1.00071
 C7 C 0.25205 0.87490 0.50053
 C8 C 0.75138 0.62548 0.49945
 C9 C -0.00026 0.25030 0.12513
 C10 C -0.00088 0.74739 0.37412
 C11 C 0.49894 0.25001 0.87428
 C12 C 0.49988 0.75179 0.62518
 C13 C 0.87615 1.00013 0.74896
 C14 C 0.37595 0.49942 0.25170
 C15 C 0.62450 1.00053 0.24923
 C16 C 0.12506 0.50022 0.75035
 C17 C 0.74860 0.87554 -0.00056
 C18 C 0.25120 0.37519 0.49946
 C19 C 0.24997 0.62431 0.00051
 C20 C 0.75210 0.12509 0.50066
 C21 C 0.99978 0.75031 0.87520
 C22 C 0.49949 0.25195 0.37558
 C23 C 0.99901 0.24751 0.62437
 C24 C 0.49918 0.75005 0.12442
 O25 O -0.01957 0.97891 0.89370
 O26 O 0.04092 0.99735 0.89285
 O27 O -0.02021 0.89391 0.98178
 O28 O -0.00989 0.89098 1.04193
 O29 O -0.10733 0.98136 0.97922
 O30 O -0.10749 1.04459 0.99554
 O31 O 0.07229 0.99499 1.08078
 O32 O 0.07735 0.93702 1.05483
 O33 O 0.08052 1.07234 0.99544
 O34 O 0.04876 1.08194 0.93508
 O35 O -0.00605 1.08179 1.07205
 O36 O -0.06535 1.05003 1.08229
 O37 O 0.01992 1.02136 1.10510
 O38 O -0.04632 1.00411 1.10574
 O39 O 0.02026 1.10614 1.01986
 O40 O 0.00317 1.10618 0.95427
 O41 O 0.10474 1.02027 1.02215
 O42 O 0.10261 0.95728 0.99619
 O43 O -0.07125 1.00721 0.91732
 O44 O -0.08050 1.06570 0.94931
 O45 O -0.08354 0.92942 1.00649
 O46 O -0.05078 0.92389 1.06724
 O47 O 0.00531 0.91805 0.92904
 O48 O 0.06661 0.94998 0.92540
 Zr49 Zr 0.01504 0.97458 0.94074
 O50 O 0.05020 1.00884 0.97267
 Zr51 Zr -0.02696 0.94100 1.01605
 O52 O 0.00742 0.97296 1.05101
 Zr53 Zr -0.06043 1.01629 0.97428
 O54 O -0.02834 1.05167 1.00828
 Zr55 Zr 0.05855 0.98432 1.02503
 O56 O 0.02608 0.94796 0.99189
 Zr57 Zr 0.02432 1.05992 0.98406
 O58 O -0.00927 1.02750 0.94812
 Zr59 Zr -0.01680 1.02557 1.05940
 O60 O -0.05333 0.99212 1.02723
 O61 O -0.03712 0.96430 0.96408
 O62 O 0.03533 1.03660 1.03610
 C63 C -0.05207 0.99348 0.89029
 C64 C -0.00708 0.89079 0.94866
 C65 C -0.11065 0.94864 0.99325
 C66 C 0.05320 1.00847 1.10796
 C67 C 0.10768 1.05339 1.00909
 C68 C 0.00726 1.10905 1.05300
 H69 H 0.07404 1.01201 0.95923
 H70 H -0.04199 1.07534 1.01157
 H71 H -0.05299 0.94833 0.94815
 H72 H 0.01114 0.95931 1.07463
 H73 H 0.07154 0.91503 1.03923
 H74 H 0.01380 0.89648 1.05479
 H75 H -0.02124 1.11273 0.96527
 H76 H -0.06127 1.07386 0.93130
 H77 H 0.12511 0.95768 1.01221
 H78 H 0.06299 0.93509 0.90240
 H79 H -0.07394 1.06955 1.06486
 H80 H -0.11019 1.03657 1.02178
 H81 H 0.03370 1.02393 0.89184
 H82 H 0.06967 1.06552 0.92784
 H83 H -0.07135 0.94138 1.07286
 H84 H -0.03452 0.98026 1.11289
 O85 O 0.49424 0.58300 0.57367
 O86 O 0.43672 0.55453 0.58049
 O87 O 0.57211 0.49352 0.58355
 O88 O 0.58442 0.43962 0.55504
 O89 O 0.58284 0.57283 0.49458
 O90 O 0.55145 0.58143 0.43652
 O91 O 0.47837 0.39481 0.48347
 O92 O 0.49832 0.39377 0.54270
 O93 O 0.39509 0.48136 0.47985
 O94 O 0.39359 0.54557 0.49554
 O95 O 0.48126 0.47921 0.39591
 O96 O 0.54508 0.49414 0.39435
 O97 O 0.50458 0.41905 0.43101
 O98 O 0.56672 0.45152 0.42213
 O99 O 0.42917 0.50613 0.41978
 O100 O 0.42116 0.56763 0.45301
 O101 O 0.41922 0.42894 0.50594
 O102 O 0.44811 0.42840 0.56893
 O103 O 0.52044 0.60699 0.52105
 O104 O 0.50431 0.60712 0.45694
 O105 O 0.60689 0.52082 0.52153
 O106 O 0.60503 0.45574 0.50194
 O107 O 0.52066 0.52183 0.60744
 O108 O 0.45614 0.49965 0.60524
 Zr109 Zr 0.48499 0.52659 0.56111
 O110 O 0.44933 0.49337 0.52864
 Zr111 Zr 0.56047 0.48536 0.52679
 O112 O 0.52770 0.44973 0.49385
 Zr113 Zr 0.52628 0.56059 0.48555
 O114 O 0.49276 0.52821 0.45004
 Zr115 Zr 0.47500 0.44197 0.51800
 O116 O 0.50959 0.47377 0.55362
 Zr117 Zr 0.44143 0.51722 0.47593
 O118 O 0.47358 0.55296 0.50997
 Zr119 Zr 0.51669 0.47532 0.44245
 O120 O 0.55289 0.50969 0.47399
 O121 O 0.53690 0.53713 0.53735
 O122 O 0.46437 0.46484 0.46551
 C123 C 0.50693 0.61019 0.55404
 C124 C 0.55318 0.50737 0.61066
 C125 C 0.61006 0.55360 0.50766
 C126 C 0.49111 0.39188 0.45016
 C127 C 0.39208 0.44809 0.49262
 C128 C 0.44823 0.49246 0.39275
 H129 H 0.42552 0.49010 0.54214
 H130 H 0.48980 0.54165 0.42621
 H131 H 0.55286 0.55304 0.55325
 H132 H 0.54085 0.42571 0.49097
 H133 H 0.51056 0.40198 0.56601
 H134 H 0.56902 0.41760 0.54908
 H135 H 0.43602 0.57332 0.43050
 H136 H 0.47854 0.61052 0.46614
 H137 H 0.43546 0.40404 0.56577
 H138 H 0.45898 0.51450 0.62840
 H139 H 0.53770 0.52036 0.39026
 H140 H 0.56911 0.56210 0.42786
 H141 H 0.42783 0.57052 0.55988
 H142 H 0.38875 0.53689 0.52124
 H143 H 0.61032 0.46795 0.47779
 H144 H 0.57201 0.42889 0.43693
 O145 O 0.42883 0.00779 0.58143
 O146 O 0.42226 0.06557 0.55324
 O147 O 0.41937 -0.06952 0.49153
 O148 O 0.44832 -0.08225 0.43813
 O149 O 0.50810 -0.08031 0.57141
 O150 O 0.56610 -0.04889 0.58034
 O151 O 0.51958 0.02416 0.39353
 O152 O 0.46033 0.00442 0.39242
 O153 O 0.52292 0.10753 0.48033
 O154 O 0.50778 0.10901 0.54423
 O155 O 0.60714 0.02110 0.47791
 O156 O 0.60900 -0.04206 0.49242
 O157 O 0.57188 -0.00248 0.41755
 O158 O 0.58043 -0.06463 0.45075
 O159 O 0.58331 0.07326 0.50472
 O160 O 0.54993 0.08103 0.56648
 O161 O 0.49725 0.08339 0.42774
 O162 O 0.43418 0.05457 0.42714
 O163 O 0.48146 -0.01812 0.60562
 O164 O 0.54572 -0.00162 0.60576
 O165 O 0.48104 -0.10430 0.51945
 O166 O 0.50128 -0.10236 0.45427
 O167 O 0.39540 -0.01837 0.52025
 O168 O 0.39767 0.04628 0.49821
 Zr169 Zr 0.44172 0.01741 0.52517
 O170 O 0.47435 0.05315 0.49211
 Zr171 Zr 0.47620 -0.05794 0.48390
 O172 O 0.50913 -0.02511 0.44833
 Zr173 Zr 0.51719 -0.02376 0.55927
 O174 O 0.55285 0.00968 0.52688
 Zr175 Zr 0.48505 0.02760 0.44067
 O176 O 0.44936 -0.00710 0.47233
 Zr177 Zr 0.52708 0.06104 0.51594
 O178 O 0.49282 0.02892 0.55161
 Zr179 Zr 0.56051 -0.01420 0.47397
 O180 O 0.52892 -0.05037 0.50838
 O181 O 0.46547 -0.03445 0.53566
 O182 O 0.53757 0.03818 0.46353
 C183 C 0.44831 -0.00494 0.60867
 C184 C 0.39223 -0.05078 0.50551
 C185 C 0.49485 -0.10747 0.55222
 C186 C 0.55271 0.01101 0.39044
 C187 C 0.51028 0.11057 0.44704
 C188 C 0.61036 0.05413 0.49113
 H189 H 0.46086 0.07696 0.48890
 H190 H 0.57668 0.01261 0.54032
 H191 H 0.44948 -0.05045 0.55146
 H192 H 0.51198 -0.03829 0.42432
 H193 H 0.43700 -0.00785 0.40061
 H194 H 0.45358 -0.06634 0.41629
 H195 H 0.57263 0.06639 0.57192
 H196 H 0.53624 0.02403 0.60932
 H197 H 0.43740 0.06727 0.40282
 H198 H 0.37447 0.04334 0.51297
 H199 H 0.61234 -0.03575 0.51902
 H200 H 0.57485 -0.06655 0.56104
 H201 H 0.44274 0.07428 0.56950
 H202 H 0.48173 0.11329 0.53636
 H203 H 0.52501 -0.10818 0.46704
 H204 H 0.56607 -0.06971 0.42780
 O205 O -0.08205 0.42810 0.99412
 O206 O -0.05379 0.42160 0.93626
 O207 O 0.00781 0.41835 1.07130
 O208 O 0.06136 0.44724 1.08393
 O209 O -0.07196 0.50721 1.08236
 O210 O -0.08069 0.56536 1.05091
 O211 O 0.10598 0.51865 0.97782
 O212 O 0.10705 0.45935 0.99760
 O213 O 0.01930 0.52192 0.89441
 O214 O -0.04495 0.50636 0.89316
 O215 O 0.02151 0.60611 0.98046
 O216 O 0.00665 0.60794 1.04401
 O217 O 0.08184 0.57102 1.00428
 O218 O 0.04881 0.57989 1.06619
 O219 O -0.00536 0.58215 0.92844
 O220 O -0.06685 0.54903 0.92058
 O221 O 0.07192 0.49634 0.91861
 O222 O 0.07246 0.43325 0.94737
 O223 O -0.10624 0.48075 1.02006
 O224 O -0.10643 0.54488 1.00386
 O225 O -0.01994 0.48019 1.10630
 O226 O 0.04510 0.50019 1.10433
 O227 O -0.02088 0.39452 1.02010
 O228 O 0.00114 0.39672 0.95563
 Zr229 Zr -0.02575 0.44087 0.98448
 O230 O 0.00745 0.47336 0.94876
 Zr231 Zr 0.01553 0.47523 1.05984
 O232 O 0.05108 0.50824 1.02702
 Zr233 Zr -0.05983 0.51634 1.02577
 O234 O -0.02748 0.55189 0.99217
 Zr235 Zr 0.05885 0.48411 0.97435
 O236 O 0.02710 0.44843 1.00897
 Zr237 Zr -0.01647 0.52603 0.94084
 O238 O -0.05220 0.49196 0.97308
 Zr239 Zr 0.02542 0.55961 1.01600
 O240 O -0.00891 0.52801 1.05227
 O241 O -0.03625 0.46458 1.03639
 O242 O 0.03592 0.53658 0.96369
 C243 C -0.10931 0.44763 1.00683
 C244 C -0.00613 0.39125 1.05246
 C245 C -0.05273 0.49401 1.10952
 C246 C 0.10901 0.55183 0.99085
 C247 C 0.05267 0.50939 0.89143
 C248 C 0.00827 0.60923 0.94744
 H249 H 0.01072 0.45985 0.92498
 H250 H -0.04094 0.57572 0.98918
 H251 H -0.05207 0.44860 1.05240
 H252 H 0.07508 0.51112 1.04019
 H253 H 0.09883 0.43601 1.00981
 H254 H 0.08328 0.45292 1.06827
 H255 H -0.07259 0.57147 0.93551
 H256 H -0.10977 0.53574 0.97807
 H257 H 0.09682 0.43646 0.93471
 H258 H -0.01380 0.37361 0.95839
 H259 H -0.01975 0.61164 1.03709
 H260 H -0.06138 0.57398 1.06861
 H261 H -0.07013 0.44208 0.92768
 H262 H -0.03637 0.48060 0.88843
 H263 H 0.03262 0.52416 1.10983
 H264 H 0.07146 0.56516 1.07158
 O265 O 0.02157 0.39179 0.51923
 O266 O 0.00306 0.39084 0.45881
 O267 O 0.10656 0.47996 0.51955
 O268 O 0.10949 0.54008 0.50934
 O269 O 0.01882 0.47754 0.60680
 O270 O -0.04437 0.49369 0.60680
 O271 O 0.00564 0.57904 0.42719
 O272 O 0.06366 0.55289 0.42205
 O273 O -0.07182 0.49366 0.41887
 O274 O -0.08156 0.43336 0.45055
 O275 O -0.08103 0.57042 0.50497
 O276 O -0.04946 0.58011 0.56491
 O277 O -0.02077 0.60326 0.47957
 O278 O -0.00374 0.60400 0.54556
 O279 O -0.10562 0.51815 0.47909
 O280 O -0.10563 0.45234 0.49634
 O281 O -0.01976 0.52057 0.39474
 O282 O 0.04319 0.49436 0.39675
 O283 O -0.00699 0.41551 0.57073
 O284 O -0.06540 0.44748 0.57988
 O285 O 0.07096 0.50438 0.58285
 O286 O 0.07656 0.56527 0.55021
 O287 O 0.08262 0.42730 0.49375
 O288 O 0.05028 0.42331 0.43279
 Zr289 Zr 0.02590 0.43881 0.48444
 O290 O -0.00831 0.47082 0.44925
 Zr291 Zr 0.05944 0.51413 0.52634
 O292 O 0.02758 0.54914 0.49197
 Zr293 Zr -0.01593 0.47244 0.55982
 O294 O -0.05127 0.50645 0.52771
 Zr295 Zr 0.01625 0.52320 0.44086
 O296 O 0.05253 0.48998 0.47333
 Zr297 Zr -0.05944 0.48223 0.47508
 O298 O -0.02706 0.44628 0.50869
 Zr299 Zr -0.02503 0.55752 0.51619
 O300 O 0.00834 0.52535 0.55271
 O301 O 0.03611 0.46215 0.53656
 O302 O -0.03602 0.53426 0.46410
 C303 C 0.00679 0.38843 0.55167
 C304 C 0.10984 0.44699 0.50613
 C305 C 0.05164 0.49137 0.61002
 C306 C -0.00791 0.60618 0.44630
 C307 C -0.05288 0.50751 0.39177
 C308 C -0.10834 0.55146 0.49172
 H309 H -0.01147 0.45742 0.42540
 H310 H -0.07498 0.50979 0.54131
 H311 H 0.05209 0.44620 0.55240
 H312 H 0.04126 0.57276 0.48825
 H313 H 0.08559 0.53722 0.42784
 H314 H 0.10407 0.55284 0.48557
 H315 H -0.11245 0.46359 0.52056
 H316 H -0.07360 0.42954 0.56062
 H317 H 0.04280 0.51043 0.37427
 H318 H 0.06521 0.40033 0.43642
 H319 H -0.06976 0.56323 0.57281
 H320 H -0.03659 0.52003 0.60930
 H321 H -0.02355 0.38995 0.46599
 H322 H -0.06493 0.42596 0.42986
 H323 H 0.05907 0.57083 0.57082
 H324 H 0.02033 0.61090 0.53405
 O325 O 0.51970 0.89397 0.01874
 O326 O 0.50087 0.89310 -0.04193
 O327 O 0.60472 0.98174 0.01880
 O328 O 0.60768 1.04203 0.00837
 O329 O 0.51713 0.97966 0.10615
 O330 O 0.45384 0.99611 0.10612
 O331 O 0.50372 1.08126 -0.07337
 O332 O 0.56180 1.05520 -0.07843
 O333 O 0.42662 0.99527 -0.08191
 O334 O 0.41692 0.93509 -0.04983
 O335 O 0.41691 1.07226 0.00425
 O336 O 0.44911 1.08156 0.06479
 O337 O 0.47739 1.10544 -0.02092
 O338 O 0.49365 1.10669 0.04438
 O339 O 0.39252 1.01995 -0.02173
 O340 O 0.39239 0.95450 -0.00452
 O341 O 0.47854 1.02259 -0.10589
 O342 O 0.54151 0.99665 -0.10382
 O343 O 0.49112 0.91773 0.07021
 O344 O 0.43286 0.94970 0.07949
 O345 O 0.56938 1.00618 0.08209
 O346 O 0.57495 1.06712 0.04981
 O347 O 0.58056 0.92907 -0.00678
 O348 O 0.54856 0.92530 -0.06771
 Zr349 Zr 0.52400 0.94088 -0.01618
 O350 O 0.48993 0.97294 -0.05139
 Zr351 Zr 0.55769 1.01615 0.02566
 O352 O 0.52572 1.05123 -0.00858
 Zr353 Zr 0.48226 0.97464 0.05923
 O354 O 0.44686 1.00849 0.02704
 Zr355 Zr 0.51442 1.02538 -0.05973
 O356 O 0.55068 0.99204 -0.02732
 Zr357 Zr 0.43878 0.98422 -0.02559
 O358 O 0.47109 0.94836 0.00815
 Zr359 Zr 0.47303 1.05959 0.01554
 O360 O 0.50658 1.02750 0.05202
 O361 O 0.53425 0.96425 0.03591
 O362 O 0.46209 1.03633 -0.03657
 C363 C 0.50494 0.89065 0.05120
 C364 C 0.60785 0.94866 0.00554
 C365 C 0.55008 0.99319 0.10929
 C366 C 0.49023 1.10841 -0.05420
 C367 C 0.44560 1.00913 -0.10899
 C368 C 0.38966 1.05320 -0.00903
 H369 H 0.48685 0.95950 -0.07523
 H370 H 0.42314 1.01179 0.04062
 H371 H 0.55021 0.94827 0.05174
 H372 H 0.53936 1.07488 -0.01225
 H373 H 0.58375 1.03957 -0.07262
 H374 H 0.60197 1.05554 -0.01491
 H375 H 0.38585 0.96543 0.01991
 H376 H 0.42452 0.93184 0.06021
 H377 H 0.54116 1.01274 -0.12628
 H378 H 0.56313 0.90208 -0.06409
 H379 H 0.42795 1.06541 0.07190
 H380 H 0.46189 1.02236 0.10873
 H381 H 0.47450 0.89177 -0.03399
 H382 H 0.43349 0.92775 -0.07059
 H383 H 0.55730 1.07276 0.07025
 H384 H 0.51853 1.11255 0.03406
 O385 O 0.39362 0.51803 0.02261
 O386 O 0.39264 0.45748 0.00424
 O387 O 0.48176 0.51856 0.10745
 O388 O 0.54190 0.50796 0.11029
 O389 O 0.47943 0.60549 0.01973
 O390 O 0.49551 0.60547 -0.04347
 O391 O 0.58090 0.42591 0.00649
 O392 O 0.55472 0.42060 0.06427
 O393 O 0.49524 0.41765 -0.07099
 O394 O 0.43497 0.44923 -0.08050
 O395 O 0.57196 0.50368 -0.08040
 O396 O 0.58180 0.56365 -0.04861
 O397 O 0.60502 0.47823 -0.02015
 O398 O 0.60598 0.54404 -0.00330
 O399 O 0.51957 0.47793 -0.10483
 O400 O 0.45381 0.49508 -0.10451
 O401 O 0.52202 0.39332 -0.01902
 O402 O 0.49610 0.39550 0.04408
 O403 O 0.41749 0.56968 -0.00552
 O404 O 0.44912 0.57850 -0.06430
 O405 O 0.50659 0.58177 0.07175
 O406 O 0.56726 0.54884 0.07737
 O407 O 0.42906 0.49281 0.08355
 O408 O 0.42518 0.43164 0.05147
 Zr409 Zr 0.44062 0.48321 0.02692
 O410 O 0.47254 0.44798 -0.00737
 Zr411 Zr 0.51603 0.52511 0.06031
 O412 O 0.55093 0.49066 0.02831
 Zr413 Zr 0.47428 0.55853 -0.01496
 O414 O 0.50818 0.52640 -0.05039
 Zr415 Zr 0.52497 0.43952 0.01700
 O416 O 0.49184 0.47208 0.05339
 Zr417 Zr 0.48386 0.47381 -0.05850
 O418 O 0.44798 0.50745 -0.02603
 Zr419 Zr 0.55928 0.51484 -0.02431
 O420 O 0.52722 0.55141 0.00918
 O421 O 0.46406 0.53532 0.03709
 O422 O 0.53596 0.46273 -0.03529
 C423 C 0.39038 0.55064 0.00821
 C424 C 0.44871 0.50529 0.11073
 C425 C 0.49344 0.60886 0.05241
 C426 C 0.60804 0.44506 -0.00707
 C427 C 0.50890 0.39045 -0.05212
 C428 C 0.55285 0.49059 -0.10767
 H429 H 0.45908 0.42415 -0.01050
 H430 H 0.51147 0.54003 -0.07408
 H431 H 0.44819 0.55123 0.05311
 H432 H 0.57456 0.48695 0.04193
 H433 H 0.53917 0.42654 0.08627
 H434 H 0.55475 0.48426 0.10476
 H435 H 0.46494 0.51937 -0.11124
 H436 H 0.43089 0.55937 -0.07221
 H437 H 0.51206 0.37295 0.04355
 H438 H 0.40220 0.43531 0.06643
 H439 H 0.56501 0.57146 -0.06899
 H440 H 0.52185 0.60801 -0.03573
 H441 H 0.39165 0.46468 -0.02234
 H442 H 0.42756 0.42857 -0.06384
 H443 H 0.57294 0.56934 0.05981
 H444 H 0.61269 0.53277 0.02092
 O445 O 0.07318 0.00365 0.41716
 O446 O 0.07966 0.06155 0.44525
 O447 O 0.08303 -0.07334 0.50741
 O448 O 0.05382 -0.08642 0.56056
 O449 O -0.00614 -0.08442 0.42739
 O450 O -0.06419 -0.05295 0.41873
 O451 O -0.01732 0.02023 0.60522
 O452 O 0.04197 0.00024 0.60626
 O453 O -0.02060 0.10348 0.51849
 O454 O -0.00509 0.10469 0.45421
 O455 O -0.10487 0.01743 0.52101
 O456 O -0.10670 -0.04613 0.50616
 O457 O -0.06965 -0.00641 0.58123
 O458 O -0.07856 -0.06836 0.54824
 O459 O -0.08073 0.06955 0.49439
 O460 O -0.04795 0.07727 0.43254
 O461 O 0.00509 0.07932 0.57105
 O462 O 0.06816 0.05044 0.57157
 O463 O 0.02038 -0.02203 0.39305
 O464 O -0.04374 -0.00590 0.39299
 O465 O 0.02104 -0.10843 0.47928
 O466 O 0.00096 -0.10644 0.54443
 O467 O 0.10674 -0.02222 0.47840
 O468 O 0.10456 0.04229 0.50017
 Zr469 Zr 0.06040 0.01337 0.47343
 O470 O 0.02796 0.04912 0.50664
 Zr471 Zr 0.02603 -0.06201 0.51480
 O472 O -0.00692 -0.02915 0.55038
 Zr473 Zr -0.01514 -0.02785 0.43952
 O474 O -0.05068 0.00574 0.47191
 Zr475 Zr 0.01724 0.02353 0.55807
 O476 O 0.05285 -0.01113 0.52629
 Zr477 Zr -0.02474 0.05704 0.48282
 O478 O 0.00928 0.02483 0.44707
 Zr479 Zr -0.05834 -0.01813 0.52481
 O480 O -0.02677 -0.05438 0.49046
 O481 O 0.03666 -0.03855 0.46300
 O482 O -0.03524 0.03417 0.53522
 C483 C 0.05355 -0.00891 0.38993
 C484 C 0.11011 -0.05445 0.49345
 C485 C 0.00705 -0.11162 0.44657
 C486 C -0.05049 0.00716 0.60832
 C487 C -0.00805 0.10648 0.55181
 C488 C -0.10786 0.05060 0.50805
 H489 H 0.04148 0.07291 0.50986
 H490 H -0.07452 0.00876 0.45852
 H491 H 0.05264 -0.05457 0.44720
 H492 H -0.00978 -0.04231 0.57440
 H493 H 0.06530 -0.01198 0.59805
 H494 H 0.04869 -0.07045 0.58238
 H495 H -0.07060 0.06254 0.42709
 H496 H -0.03471 0.01994 0.38971
 H497 H 0.06497 0.06312 0.59591
 H498 H 0.12767 0.03950 0.48522
 H499 H -0.11047 -0.03915 0.47978
 H500 H -0.07288 -0.07058 0.43808
 H501 H 0.05916 0.07014 0.42895
 H502 H 0.02068 0.10943 0.46273
 H503 H -0.02292 -0.11205 0.53186
 H504 H -0.06384 -0.07372 0.57089
 O505 O 0.73081 0.14396 0.27214
 O506 O 0.79139 0.14299 0.25336
 O507 O 0.73086 0.23176 0.35731
 O508 O 0.74164 0.29192 0.36029
 O509 O 0.64351 0.22999 0.26994
 O510 O 0.64352 0.24631 0.20669
 O511 O 0.82317 0.33125 0.25668
 O512 O 0.82861 0.30468 0.31419
 O513 O 0.83145 0.24527 0.17877
 O514 O 0.79934 0.18506 0.16933
 O515 O 0.74511 0.32218 0.16942
 O516 O 0.68510 0.33193 0.20203
 O517 O 0.77102 0.35534 0.22976
 O518 O 0.70568 0.35681 0.24649
 O519 O 0.77128 0.26993 0.14507
 O520 O 0.75395 0.20451 0.14501
 O521 O 0.85565 0.27256 0.23053
 O522 O 0.85373 0.24628 0.29348
 O523 O 0.67924 0.16798 0.24407
 O524 O 0.67005 0.19984 0.18573
 O525 O 0.66751 0.25696 0.32193
 O526 O 0.70048 0.31737 0.32776
 O527 O 0.75641 0.17912 0.33302
 O528 O 0.81733 0.17518 0.30084
 Zr529 Zr 0.76577 0.19086 0.27647
 O530 O 0.80107 0.22284 0.24229
 Zr531 Zr 0.72415 0.26623 0.31032
 O532 O 0.75849 0.30118 0.27825
 Zr533 Zr 0.69040 0.22481 0.23502
 O534 O 0.72262 0.25859 0.19955
 Zr535 Zr 0.80960 0.27524 0.26676
 O536 O 0.77709 0.24199 0.30309
 Zr537 Zr 0.77519 0.23421 0.19128
 O538 O 0.74140 0.19841 0.22366
 Zr539 Zr 0.73431 0.30966 0.22566
 O540 O 0.69778 0.27765 0.25930
 O541 O 0.71373 0.21435 0.28694
 O542 O 0.78637 0.28630 0.21452
 C543 C 0.69825 0.14079 0.25763
 C544 C 0.74416 0.19870 0.36036
 C545 C 0.64028 0.24401 0.30266
 C546 C 0.80410 0.35838 0.24307
 C547 C 0.85860 0.25916 0.19755
 C548 C 0.75834 0.30307 0.14217
 H549 H 0.82488 0.20936 0.23909
 H550 H 0.70896 0.26190 0.17590
 H551 H 0.69781 0.19847 0.30295
 H552 H 0.76223 0.32479 0.29191
 H553 H 0.82273 0.28899 0.33610
 H554 H 0.76511 0.30512 0.35457
 H555 H 0.72951 0.21547 0.13857
 H556 H 0.68925 0.18187 0.17742
 H557 H 0.87627 0.26227 0.29294
 H558 H 0.81367 0.15203 0.31551
 H559 H 0.67755 0.31554 0.18121
 H560 H 0.64089 0.27253 0.21479
 H561 H 0.78369 0.14182 0.22694
 H562 H 0.82022 0.17777 0.18573
 H563 H 0.68020 0.32333 0.31006
 H564 H 0.71637 0.36288 0.27113
 O565 O 0.75692 0.67795 0.66813
 O566 O 0.81422 0.67115 0.69677
 O567 O 0.67911 0.66834 0.75852
 O568 O 0.66606 0.69771 0.81154
 O569 O 0.66820 0.75717 0.67811
 O570 O 0.69978 0.81508 0.66903
 O571 O 0.77228 0.76898 0.85601
 O572 O 0.75247 0.70969 0.85720
 O573 O 0.85600 0.77191 0.76932
 O574 O 0.85733 0.75620 0.70506
 O575 O 0.76996 0.85628 0.77114
 O576 O 0.70635 0.85795 0.75631
 O577 O 0.74618 0.82139 0.83161
 O578 O 0.68421 0.83012 0.79867
 O579 O 0.82216 0.83210 0.74470
 O580 O 0.83004 0.79895 0.68318
 O581 O 0.83162 0.74658 0.82202
 O582 O 0.80285 0.68351 0.82280
 O583 O 0.73064 0.73039 0.64391
 O584 O 0.74692 0.79450 0.64352
 O585 O 0.64412 0.73018 0.73011
 O586 O 0.64598 0.75051 0.79506
 O587 O 0.73012 0.64448 0.72942
 O588 O 0.79460 0.64672 0.75174
 Zr589 Zr 0.76592 0.69075 0.72453
 O590 O 0.80160 0.72338 0.75762
 Zr591 Zr 0.69049 0.72534 0.76563
 O592 O 0.72326 0.75845 0.80108
 Zr593 Zr 0.72481 0.76615 0.69018
 O594 O 0.75835 0.80183 0.72242
 Zr595 Zr 0.77590 0.73431 0.80897
 O596 O 0.74132 0.69855 0.77733
 Zr597 Zr 0.80964 0.77598 0.73356
 O598 O 0.77747 0.74178 0.69796
 Zr599 Zr 0.73440 0.80975 0.77527
 O600 O 0.69821 0.77802 0.74104
 O601 O 0.71404 0.71445 0.71389
 O602 O 0.78667 0.78670 0.78588
 C603 C 0.74426 0.69742 0.64082
 C604 C 0.69789 0.64120 0.74456
 C605 C 0.64097 0.74407 0.69736
 C606 C 0.75944 0.80226 0.85889
 C607 C 0.85888 0.75950 0.80272
 C608 C 0.80313 0.85928 0.75814
 H609 H 0.82537 0.70987 0.76095
 H610 H 0.76140 0.82561 0.70889
 H611 H 0.69809 0.69842 0.69810
 H612 H 0.71004 0.76143 0.82506
 H613 H 0.74030 0.68632 0.84905
 H614 H 0.68187 0.70314 0.83339
 H615 H 0.81520 0.82145 0.67747
 H616 H 0.77274 0.78538 0.64030
 H617 H 0.81542 0.68681 0.84717
 H618 H 0.79172 0.62349 0.73703
 H619 H 0.71345 0.86166 0.72995
 H620 H 0.68218 0.82393 0.68835
 H621 H 0.82323 0.69168 0.68071
 H622 H 0.86223 0.73058 0.71395
 H623 H 0.64054 0.77443 0.78247
 H624 H 0.67883 0.81550 0.82140
 O625 O 0.32139 0.16851 0.74301
 O626 O 0.32816 0.19692 0.68537
 O627 O 0.33088 0.25888 0.82029
 O628 O 0.30140 0.31184 0.83342
 O629 O 0.24151 0.17854 0.83128
 O630 O 0.18394 0.16933 0.79939
 O631 O 0.23045 0.35630 0.72695
 O632 O 0.28970 0.35753 0.74679
 O633 O 0.22773 0.26960 0.64335
 O634 O 0.24330 0.20548 0.64203
 O635 O 0.14318 0.27159 0.72926
 O636 O 0.14126 0.25667 0.79286
 O637 O 0.17813 0.33205 0.75346
 O638 O 0.16903 0.29888 0.81508
 O639 O 0.16736 0.24482 0.67724
 O640 O 0.20071 0.18339 0.66943
 O641 O 0.25300 0.32231 0.66770
 O642 O 0.31601 0.32306 0.69654
 O643 O 0.26883 0.14426 0.76913
 O644 O 0.20481 0.14383 0.75242
 O645 O 0.26906 0.23030 0.85519
 O646 O 0.24860 0.29533 0.85336
 O647 O 0.35478 0.22966 0.76939
 O648 O 0.35274 0.25191 0.70492
 Zr649 Zr 0.30858 0.22481 0.73359
 O650 O 0.27609 0.25791 0.69783
 Zr651 Zr 0.27388 0.26594 0.80889
 O652 O 0.24088 0.30140 0.77606
 Zr653 Zr 0.23302 0.19051 0.77461
 O654 O 0.19748 0.22277 0.74100
 Zr655 Zr 0.26512 0.30927 0.72344
 O656 O 0.30079 0.27763 0.75810
 Zr657 Zr 0.22349 0.23386 0.68975
 O658 O 0.25757 0.19824 0.72199
 Zr659 Zr 0.18958 0.27562 0.76491
 O660 O 0.22118 0.24138 0.80116
 O661 O 0.28473 0.21420 0.78543
 O662 O 0.21272 0.28622 0.71264
 C663 C 0.30192 0.14124 0.75576
 C664 C 0.35802 0.24481 0.80159
 C665 C 0.25480 0.19770 0.85844
 C666 C 0.19730 0.35927 0.74011
 C667 C 0.24018 0.30300 0.64045
 C668 C 0.14017 0.25832 0.69622
 H669 H 0.28967 0.26122 0.67408
 H670 H 0.17371 0.20924 0.73794
 H671 H 0.30069 0.19843 0.80147
 H672 H 0.23793 0.32537 0.78928
 H673 H 0.31303 0.34938 0.75903
 H674 H 0.29623 0.33366 0.81746
 H675 H 0.17820 0.17762 0.68427
 H676 H 0.21423 0.14047 0.72672
 H677 H 0.31276 0.34743 0.68393
 H678 H 0.37591 0.23710 0.70778
 H679 H 0.13738 0.23039 0.78558
 H680 H 0.17490 0.18869 0.81683
 H681 H 0.30772 0.18062 0.67660
 H682 H 0.26910 0.21403 0.63742
 H683 H 0.22478 0.28259 0.85892
 H684 H 0.18389 0.32139 0.82073
 O685 O 0.16817 0.74244 0.32289
 O686 O 0.19678 0.68512 0.32992
 O687 O 0.25783 0.82047 0.33254
 O688 O 0.31149 0.83296 0.30371
 O689 O 0.17845 0.83096 0.24300
 O690 O 0.16943 0.79893 0.18556
 O691 O 0.35643 0.72693 0.23240
 O692 O 0.35740 0.74678 0.29168
 O693 O 0.26985 0.64313 0.22936
 O694 O 0.20573 0.64162 0.24493
 O695 O 0.27178 0.72909 0.14498
 O696 O 0.25665 0.79315 0.14352
 O697 O 0.33201 0.75264 0.17983
 O698 O 0.29964 0.81451 0.17076
 O699 O 0.24508 0.67697 0.16904
 O700 O 0.18356 0.66906 0.20246
 O701 O 0.32244 0.66758 0.25477
 O702 O 0.32295 0.69646 0.31785
 O703 O 0.14417 0.76865 0.27033
 O704 O 0.14394 0.75200 0.20638
 O705 O 0.23015 0.85507 0.27046
 O706 O 0.29520 0.85328 0.25068
 O707 O 0.22945 0.76917 0.35661
 O708 O 0.25169 0.70467 0.35443
 Zr709 Zr 0.22464 0.73335 0.31032
 O710 O 0.25789 0.69763 0.27784
 Zr711 Zr 0.26572 0.80874 0.27573
 O712 O 0.30135 0.77593 0.24276
 Zr713 Zr 0.19052 0.77426 0.23468
 O714 O 0.22291 0.74066 0.19919
 Zr715 Zr 0.30926 0.72333 0.26698
 O716 O 0.27744 0.75797 0.30262
 Zr717 Zr 0.23401 0.68945 0.22520
 O718 O 0.19827 0.72168 0.25924
 Zr719 Zr 0.27574 0.76468 0.19143
 O720 O 0.24138 0.80091 0.22298
 O721 O 0.21397 0.78516 0.28644
 O722 O 0.28634 0.71245 0.21457
 C723 C 0.14096 0.75508 0.30329
 C724 C 0.24405 0.80165 0.35975
 C725 C 0.19759 0.85823 0.25612
 C726 C 0.35927 0.73948 0.19901
 C727 C 0.30324 0.64030 0.24181
 C728 C 0.25861 0.69602 0.14191
 H729 H 0.26122 0.67387 0.29139
 H730 H 0.20943 0.73758 0.17540
 H731 H 0.19806 0.80119 0.30231
 H732 H 0.32534 0.78913 0.23981
 H733 H 0.34915 0.75904 0.31497
 H734 H 0.33348 0.81744 0.29791
 H735 H 0.17788 0.68377 0.17987
 H736 H 0.14061 0.72627 0.21573
 H737 H 0.34732 0.68385 0.31461
 H738 H 0.23690 0.70757 0.37763
 H739 H 0.23070 0.78508 0.13901
 H740 H 0.18882 0.81633 0.17649
 H741 H 0.18082 0.67607 0.30935
 H742 H 0.21428 0.63700 0.27070
 H743 H 0.28299 0.85838 0.22650
 H744 H 0.32203 0.82012 0.18578
 O745 O 0.14379 0.72881 0.76925
 O746 O 0.14318 0.74721 0.70861
 O747 O 0.23188 0.64379 0.76989
 O748 O 0.29217 0.64096 0.75957
 O749 O 0.22943 0.73145 0.85712
 O750 O 0.24541 0.79488 0.85696
 O751 O 0.33139 0.74491 0.67783
 O752 O 0.30544 0.68679 0.67275
 O753 O 0.24586 0.82202 0.66900
 O754 O 0.18502 0.83129 0.70077
 O755 O 0.32197 0.83185 0.75555
 O756 O 0.33125 0.79959 0.81590
 O757 O 0.35532 0.77157 0.73019
 O758 O 0.35642 0.75504 0.79559
 O759 O 0.26976 0.85604 0.72922
 O760 O 0.20435 0.85614 0.74599
 O761 O 0.27293 0.76999 0.64506
 O762 O 0.24697 0.70701 0.64715
 O763 O 0.16748 0.75670 0.82108
 O764 O 0.19891 0.81546 0.83009
 O765 O 0.25614 0.67925 0.83320
 O766 O 0.31713 0.67380 0.80092
 O767 O 0.17914 0.66791 0.74443
 O768 O 0.17573 0.69966 0.68312
 Zr769 Zr 0.19094 0.72441 0.73463
 O770 O 0.22303 0.75856 0.69943
 Zr771 Zr 0.26615 0.69090 0.77673
 O772 O 0.30125 0.72295 0.74253
 Zr773 Zr 0.22431 0.76621 0.81009
 O774 O 0.25820 0.80169 0.77795
 Zr775 Zr 0.27552 0.73413 0.69130
 O776 O 0.24217 0.69781 0.72368
 Zr777 Zr 0.23416 0.80971 0.72521
 O778 O 0.19822 0.77734 0.75892
 Zr779 Zr 0.30941 0.77565 0.76664
 O780 O 0.27726 0.74204 0.80308
 O781 O 0.21416 0.71421 0.78680
 O782 O 0.28632 0.78649 0.71445
 C783 C 0.14044 0.74306 0.80190
 C784 C 0.19874 0.64066 0.75681
 C785 C 0.24307 0.69855 0.86036
 C786 C 0.35841 0.75861 0.69699
 C787 C 0.25983 0.80306 0.64197
 C788 C 0.30291 0.85903 0.74213
 H789 H 0.20971 0.76163 0.67553
 H790 H 0.26138 0.82541 0.79153
 H791 H 0.19821 0.69821 0.80265
 H792 H 0.32494 0.70938 0.73892
 H793 H 0.28978 0.66482 0.67852
 H794 H 0.30569 0.64668 0.73628
 H795 H 0.21479 0.86237 0.77070
 H796 H 0.18095 0.82351 0.81079
 H797 H 0.26316 0.70736 0.62475
 H798 H 0.15265 0.68487 0.68673
 H799 H 0.31489 0.82056 0.82312
 H800 H 0.27167 0.78693 0.85973
 H801 H 0.14201 0.77373 0.71602
 H802 H 0.17826 0.81511 0.67953
 H803 H 0.32271 0.69148 0.82133
 H804 H 0.36256 0.73034 0.78505
 O805 O 0.25660 0.17814 0.16805
 O806 O 0.31415 0.17146 0.19639
 O807 O 0.17906 0.16770 0.25811
 O808 O 0.16606 0.19647 0.31157
 O809 O 0.16785 0.25689 0.17853
 O810 O 0.19916 0.31514 0.16999
 O811 O 0.27238 0.26784 0.35635
 O812 O 0.25243 0.20852 0.35725
 O813 O 0.35562 0.27176 0.26971
 O814 O 0.35687 0.25640 0.20519
 O815 O 0.26920 0.35574 0.27217
 O816 O 0.20557 0.35724 0.25754
 O817 O 0.24618 0.32037 0.33229
 O818 O 0.18376 0.32897 0.29987
 O819 O 0.32159 0.33184 0.24584
 O820 O 0.32956 0.29948 0.18390
 O821 O 0.33146 0.24575 0.32218
 O822 O 0.30277 0.18259 0.32252
 O823 O 0.23017 0.23068 0.14421
 O824 O 0.24637 0.29483 0.14420
 O825 O 0.14388 0.22958 0.23042
 O826 O 0.14576 0.24942 0.29559
 O827 O 0.23025 0.14420 0.22901
 O828 O 0.29471 0.14645 0.25121
 Zr829 Zr 0.26584 0.19061 0.22443
 O830 O 0.30146 0.22306 0.25770
 Zr831 Zr 0.19030 0.22462 0.26588
 O832 O 0.22302 0.25754 0.30154
 Zr833 Zr 0.22439 0.26612 0.19069
 O834 O 0.25786 0.30165 0.22313
 Zr835 Zr 0.27574 0.23347 0.30913
 O836 O 0.24122 0.19787 0.27729
 Zr837 Zr 0.30924 0.27586 0.23400
 O838 O 0.27714 0.24185 0.19818
 Zr839 Zr 0.23392 0.30903 0.27604
 O840 O 0.19777 0.27749 0.24164
 O841 O 0.21387 0.21423 0.21406
 O842 O 0.28626 0.28605 0.28639
 C843 C 0.24375 0.19772 0.14094
 C844 C 0.19795 0.14075 0.24394
 C845 C 0.14068 0.24354 0.19770
 C846 C 0.25969 0.30115 0.35937
 C847 C 0.35860 0.25907 0.30300
 C848 C 0.30245 0.35886 0.25942
 H849 H 0.32529 0.20960 0.26089
 H850 H 0.26081 0.32555 0.20979
 H851 H 0.19794 0.19826 0.19818
 H852 H 0.20988 0.26032 0.32558
 H853 H 0.24030 0.18517 0.34898
 H854 H 0.18179 0.20189 0.33348
 H855 H 0.31462 0.32197 0.17842
 H856 H 0.27224 0.28585 0.14094
 H857 H 0.31539 0.18573 0.34688
 H858 H 0.29194 0.12334 0.23627
 H859 H 0.21256 0.36117 0.23118
 H860 H 0.18139 0.32364 0.18930
 H861 H 0.32296 0.19211 0.18038
 H862 H 0.36200 0.23082 0.21403
 H863 H 0.14024 0.27342 0.28320
 H864 H 0.17873 0.31437 0.32270
 O865 O 0.74280 0.67807 0.33099
 O866 O 0.68486 0.67164 0.30283
 O867 O 0.81991 0.66806 0.24097
 O868 O 0.83213 0.69673 0.18705
 O869 O 0.83129 0.75687 0.32039
 O870 O 0.80015 0.81513 0.32921
 O871 O 0.72649 0.76857 0.14292
 O872 O 0.74591 0.70906 0.14193
 O873 O 0.64318 0.77218 0.23014
 O874 O 0.64197 0.75665 0.29422
 O875 O 0.72951 0.85611 0.22753
 O876 O 0.79344 0.85749 0.24211
 O877 O 0.75265 0.82107 0.16708
 O878 O 0.81487 0.82973 0.19935
 O879 O 0.67744 0.83225 0.25454
 O880 O 0.66982 0.79906 0.31619
 O881 O 0.66728 0.74700 0.17724
 O882 O 0.69543 0.68350 0.17659
 O883 O 0.76915 0.73065 0.35489
 O884 O 0.75301 0.79485 0.35514
 O885 O 0.85504 0.72972 0.26832
 O886 O 0.85307 0.74969 0.20335
 O887 O 0.76866 0.64434 0.26980
 O888 O 0.70411 0.64673 0.24783
 Zr889 Zr 0.73311 0.69078 0.27467
 O890 O 0.69741 0.72342 0.24164
 Zr891 Zr 0.80848 0.72493 0.23303
 O892 O 0.77568 0.75807 0.19763
 Zr893 Zr 0.77473 0.76621 0.30849
 O894 O 0.74116 0.80187 0.27633
 Zr895 Zr 0.72290 0.73411 0.19013
 O896 O 0.75748 0.69828 0.22171
 Zr897 Zr 0.68973 0.77611 0.26562
 O898 O 0.72194 0.74193 0.30117
 Zr899 Zr 0.76489 0.80949 0.22333
 O900 O 0.80115 0.77775 0.25746
 O901 O 0.78511 0.71440 0.28490
 O902 O 0.71248 0.78659 0.21314
 C903 C 0.75577 0.69760 0.35812
 C904 C 0.80108 0.64102 0.25508
 C905 C 0.85836 0.74349 0.30111
 C906 C 0.73921 0.80189 0.13993
 C907 C 0.64017 0.76004 0.19665
 C908 C 0.69649 0.85929 0.24087
 H909 H 0.67355 0.71001 0.23844
 H910 H 0.73829 0.82570 0.28982
 H911 H 0.80110 0.69841 0.30067
 H912 H 0.78877 0.76093 0.17357
 H913 H 0.75800 0.68568 0.15016
 H914 H 0.81664 0.70282 0.16515
 H915 H 0.68465 0.82163 0.32170
 H916 H 0.72726 0.78564 0.35873
 H917 H 0.68269 0.68689 0.15232
 H918 H 0.70686 0.62360 0.26273
 H919 H 0.78620 0.86152 0.26838
 H920 H 0.81780 0.82370 0.30981
 H921 H 0.67638 0.69212 0.31924
 H922 H 0.63724 0.73085 0.28580
 H923 H 0.85846 0.77378 0.21562
 H924 H 0.82014 0.81484 0.17677
 O925 O 0.66784 0.24260 0.82276
 O926 O 0.69628 0.18511 0.82946
 O927 O 0.75796 0.32014 0.83303
 O928 O 0.81158 0.33284 0.80433
 O929 O 0.67853 0.33160 0.74387
 O930 O 0.66963 0.30025 0.68589
 O931 O 0.85617 0.22690 0.73254
 O932 O 0.85708 0.24645 0.79207
 O933 O 0.76923 0.14361 0.72873
 O934 O 0.70496 0.14237 0.74426
 O935 O 0.77190 0.23014 0.64507
 O936 O 0.75703 0.29400 0.64372
 O937 O 0.83198 0.25315 0.68013
 O938 O 0.79969 0.31547 0.67163
 O939 O 0.74510 0.17792 0.66879
 O940 O 0.68324 0.17009 0.70166
 O941 O 0.82197 0.16778 0.75412
 O942 O 0.82246 0.19592 0.81763
 O943 O 0.64405 0.26931 0.77036
 O944 O 0.64390 0.25314 0.70621
 O945 O 0.73041 0.35535 0.77132
 O946 O 0.79552 0.35341 0.75144
 O947 O 0.72898 0.26897 0.85667
 O948 O 0.75120 0.20443 0.85423
 Zr949 Zr 0.72429 0.23340 0.81022
 O950 O 0.75747 0.19776 0.77760
 Zr951 Zr 0.76579 0.30886 0.77618
 O952 O 0.80138 0.27616 0.74311
 Zr953 Zr 0.69048 0.27500 0.73482
 O954 O 0.72281 0.24154 0.69917
 Zr955 Zr 0.80895 0.22337 0.76702
 O956 O 0.77720 0.25788 0.80280
 Zr957 Zr 0.73362 0.19011 0.72488
 O958 O 0.69793 0.22222 0.75904
 Zr959 Zr 0.77576 0.26542 0.69170
 O960 O 0.74145 0.30155 0.72337
 O961 O 0.71393 0.28541 0.78667
 O962 O 0.78604 0.21301 0.71453
 C963 C 0.64073 0.25555 0.80323
 C964 C 0.74386 0.30129 0.86003
 C965 C 0.69776 0.35869 0.75724
 C966 C 0.85912 0.23961 0.69923
 C967 C 0.80270 0.14066 0.74094
 C968 C 0.75885 0.19705 0.64184
 H969 H 0.76069 0.17389 0.79098
 H970 H 0.70941 0.23866 0.67531
 H971 H 0.69806 0.30136 0.80265
 H972 H 0.82543 0.28927 0.74030
 H973 H 0.84880 0.25848 0.81548
 H974 H 0.83346 0.31709 0.79875
 H975 H 0.67780 0.18492 0.67909
 H976 H 0.64048 0.22735 0.71532
 H977 H 0.84677 0.18322 0.81426
 H978 H 0.73636 0.20724 0.87741
 H979 H 0.73086 0.28654 0.63949
 H980 H 0.68906 0.31777 0.67714
 H981 H 0.68028 0.17628 0.80883
 H982 H 0.71365 0.13734 0.76990
 H983 H 0.78319 0.35893 0.72742
 H984 H 0.82239 0.32061 0.68638
 N985 N 0.12376 0.99636 1.18035
 C986 C 0.10428 1.00139 1.21243
 N987 N 0.06758 1.01051 1.21007
 N988 N 0.05112 1.01351 1.17679
 C989 C 0.07085 1.00783 1.14485
 N990 N 0.10741 0.99917 1.14736
 N991 N 0.62351 0.49512 0.68324
 C992 C 0.60422 0.50134 0.71522
 N993 N 0.56765 0.51096 0.71273
 N994 N 0.55114 0.51336 0.67943
 C995 C 0.57065 0.50643 0.64761
 N996 N 0.60708 0.49728 0.65024
 N997 N 0.37761 0.00645 0.68113
 C998 C 0.39675 0.00005 0.71314
 N999 N 0.43341 -0.00925 0.71071
 N1000 N 0.45014 -0.01123 0.67746
 C1001 C 0.43073 -0.00424 0.64562
 N1002 N 0.39424 0.00466 0.64819
 N1003 N -0.06700 0.49010 1.21165
 C1004 C -0.10356 0.49973 1.21430
 N1005 N -0.12288 0.50613 1.18240
 N1006 N -0.10651 0.50411 1.14934
 C1007 C -0.07011 0.49491 1.14655
 N1008 N -0.05054 0.48787 1.17828
 N1009 N -0.06725 0.51136 0.28969
 C1010 C -0.10380 0.50168 0.28708
 N1011 N -0.12323 0.49562 0.31902
 N1012 N -0.10694 0.49799 0.35210
 C1013 C -0.07053 0.50722 0.35485
 N1014 N -0.05088 0.51391 0.32305
 N1015 N 0.43198 1.01305 -0.21112
 C1016 C 0.39610 1.00124 -0.21418
 N1017 N 0.37676 0.99379 -0.18247
 N1018 N 0.39257 0.99679 -0.14923
 C1019 C 0.42835 1.00813 -0.14606
 N1020 N 0.44789 1.01617 -0.17760
 N1021 N 0.62341 0.50356 -0.18001
 C1022 C 0.60407 0.49827 -0.21210
 N1023 N 0.56747 0.48871 -0.20976
 N1024 N 0.55095 0.48556 -0.17650
 C1025 C 0.57053 0.49148 -0.14456
 N1026 N 0.60700 0.50058 -0.14705
 N1027 N 0.12390 0.00270 0.31719
 C1028 C 0.10431 -0.00225 0.28520
 N1029 N 0.06748 -0.01084 0.28771
 N1030 N 0.05104 -0.01351 0.32106
 C1031 C 0.07090 -0.00793 0.35290
 N1032 N 0.10756 0.00023 0.35023
 N1033 N 0.18025 1.12382 0.99661
 C1034 C 0.21230 1.10431 1.00164
 N1035 N 0.20985 1.06766 1.01097
 N1036 N 0.17652 1.05128 1.01413
 C1037 C 0.14461 1.07103 1.00843
 N1038 N 0.14721 1.10754 0.99958
 N1039 N 0.71221 0.56762 0.51081
 C1040 C 0.71492 0.60405 0.50073
 N1041 N 0.68304 0.62343 0.49436
 N1042 N 0.64993 0.60721 0.49683
 C1043 C 0.64709 0.57091 0.50646
 N1044 N 0.67881 0.55131 0.51347
 N1045 N 0.71026 0.43171 -0.01090
 C1046 C 0.71334 0.39549 -0.00026
 N1047 N 0.68164 0.37589 0.00652
 N1048 N 0.64836 0.39172 0.00391
 C1049 C 0.64515 0.42783 -0.00630
 N1050 N 0.67670 0.44764 -0.01366
 N1051 N 0.21215 -0.06834 0.48740
 C1052 C 0.21558 -0.10366 0.50068
 N1053 N 0.18414 -0.12245 0.51034
 N1054 N 0.15084 -0.10660 0.50796
 C1055 C 0.14733 -0.07137 0.49512
 N1056 N 0.17858 -0.05241 0.48489
 N1057 N 0.31992 -0.12110 0.49137
 C1058 C 0.28799 -0.10273 0.50008
 N1059 N 0.29045 -0.06676 0.51177
 N1060 N 0.32361 -0.04986 0.51372
 C1061 C 0.35535 -0.06846 0.50440
 N1062 N 0.35276 -0.10431 0.49315
 N1063 N -0.18180 0.37711 0.99514
 C1064 C -0.21385 0.39632 1.00128
 N1065 N -0.21145 0.43299 1.01055
 N1066 N -0.17817 0.44964 1.01273
 C1067 C -0.14629 0.43014 1.00600
 N1068 N -0.14885 0.39365 0.99713
 N1069 N -0.21031 0.56686 0.48888
 C1070 C -0.21243 0.60355 0.49810
 N1071 N -0.18022 0.62269 0.50354
 N1072 N -0.14736 0.60598 0.50101
 C1073 C -0.14510 0.56942 0.49225
 N1074 N -0.17717 0.55005 0.48617
 N1075 N 0.28752 1.06754 -0.01109
 C1076 C 0.28511 1.10430 -0.00224
 N1077 N 0.31719 1.12382 0.00265
 N1078 N 0.35020 1.10747 -0.00005
 C1079 C 0.35276 1.07085 -0.00845
 N1080 N 0.32082 1.05108 -0.01399
 N1081 N -0.00750 1.18212 1.12255
 C1082 C 0.00008 1.21394 1.10348
 N1083 N 0.01157 1.21111 1.06747
 N1084 N 0.01435 1.17771 1.05121
 C1085 C 0.00623 1.14605 1.07050
 N1086 N -0.00484 1.14899 1.10639
 N1087 N 0.49237 0.68372 0.62298
 C1088 C 0.50010 0.71538 0.60371
 N1089 N 0.51136 0.71232 0.56765
 N1090 N 0.51384 0.67882 0.55156
 C1091 C 0.50558 0.64733 0.57107
 N1092 N 0.49472 0.65051 0.60698
 N1093 N -0.01134 0.70828 0.43219
 C1094 C -0.00214 0.71092 0.39553
 N1095 N 0.00355 0.67900 0.37598
 N1096 N 0.00126 0.64590 0.39223
 C1097 C -0.00751 0.64312 0.42875
 N1098 N -0.01382 0.67489 0.44853
 N1099 N 0.50144 1.18146 -0.12440
 C1100 C 0.49671 1.21338 -0.10458
 N1101 N 0.48813 1.21067 -0.06778
 N1102 N 0.48532 1.17723 -0.05159
 C1103 C 0.49073 1.14545 -0.07164
 N1104 N 0.49884 1.14830 -0.10830
 N1105 N 0.49646 0.31847 -0.12309
 C1106 C 0.50104 0.28622 -0.10381
 N1107 N 0.51011 0.28831 -0.06708
 N1108 N 0.51344 0.32148 -0.05042
 C1109 C 0.50818 0.35360 -0.06996
 N1110 N 0.49959 0.35135 -0.10654
 N1111 N -0.00658 -0.18438 0.37669
 C1112 C 0.00005 -0.21633 0.39587
 N1113 N 0.01041 -0.21375 0.43222
 N1114 N 0.01308 -0.18041 0.44864
 C1115 C 0.00581 -0.14863 0.42922
 N1116 N -0.00411 -0.15135 0.39302
 N1117 N 0.50732 -0.18017 0.62234
 C1118 C 0.49990 -0.21203 0.60330
 N1119 N 0.48958 -0.20940 0.56696
 N1120 N 0.48765 -0.17610 0.55039
 C1121 C 0.49565 -0.14441 0.56966
 N1122 N 0.50557 -0.14717 0.60586
 N1123 N -0.01183 0.28931 1.06729
 C1124 C -0.00027 0.28651 1.10325
 N1125 N 0.00812 0.31829 1.12203
 N1126 N 0.00616 0.35133 1.10565
 C1127 C -0.00496 0.35424 1.06981
 N1128 N -0.01397 0.32265 1.05081
 N1129 N 0.76198 0.31691 0.04008
 C1130 C 0.75067 0.35295 0.03716
 N1131 N 0.74347 0.37227 0.06892
 N1132 N 0.74634 0.35631 0.10211
 C1133 C 0.75724 0.32039 0.10515
 N1134 N 0.76497 0.30086 0.07355
 N1135 N 0.24837 0.87327 0.56901
 C1136 C 0.25380 0.85361 0.53709
 N1137 N 0.26298 0.81696 0.53979
 N1138 N 0.26567 0.80071 0.57321
 C1139 C 0.25958 0.82059 0.60498
 N1140 N 0.25085 0.85711 0.60214
 N1141 N 0.76034 0.62854 0.56739
 C1142 C 0.75166 0.64734 0.53570
 N1143 N 0.73927 0.68303 0.53874
 N1144 N 0.73669 0.69927 0.57217
 C1145 C 0.74588 0.68024 0.60368
 N1146 N 0.75785 0.64467 0.60054
 N1147 N 0.25831 0.12873 0.06745
 C1148 C 0.24947 0.14763 0.03588
 N1149 N 0.23761 0.18348 0.03899
 N1150 N 0.23559 0.19976 0.07243
 C1151 C 0.24492 0.18062 0.10383
 N1152 N 0.25641 0.14490 0.10060
 N1153 N 0.26104 0.18317 0.96033
 C1154 C 0.24801 0.14773 0.96352
 N1155 N 0.23843 0.12912 0.93198
 N1156 N 0.24067 0.14524 0.89882
 C1157 C 0.25329 0.18057 0.89554
 N1158 N 0.26338 0.19939 0.92689
 N1159 N 0.74395 0.62777 0.43136
 C1160 C 0.75131 0.64708 0.46307
 N1161 N 0.76131 0.68351 0.46016
 N1162 N 0.76304 0.69988 0.42674
 C1163 C 0.75513 0.68033 0.39519
 N1164 N 0.74551 0.64405 0.39823
 N1165 N 0.25764 0.87198 0.43222
 C1166 C 0.25098 0.85297 0.46429
 N1167 N 0.24062 0.81659 0.46189
 N1168 N 0.23798 0.79997 0.42863
 C1169 C 0.24533 0.81920 0.39673
 N1170 N 0.25522 0.85545 0.39928
 N1171 N 0.73824 0.31634 0.96195
 C1172 C 0.74999 0.35228 0.96463
 N1173 N 0.75838 0.37097 0.93279
 N1174 N 0.75631 0.35449 0.89982
 C1175 C 0.74505 0.31867 0.89701
 N1176 N 0.73600 0.29977 0.92866
 N1177 N 0.87276 0.43224 0.25823
 C1178 C 0.85342 0.46384 0.25036
 N1179 N 0.81759 0.46057 0.23850
 N1180 N 0.80174 0.42697 0.23569
 C1181 C 0.82127 0.39554 0.24411
 N1182 N 0.85699 0.39892 0.25554
 N1183 N 0.37271 0.93213 0.75528
 C1184 C 0.35334 0.96395 0.74854
 N1185 N 0.31703 0.96112 0.73812
 N1186 N 0.30079 0.92769 0.73551
 C1187 C 0.32038 0.89603 0.74283
 N1188 N 0.35656 0.89898 0.75283
 N1189 N 0.18303 0.96021 0.26176
 C1190 C 0.14779 0.96337 0.24818
 N1191 N 0.12932 0.93179 0.23843
 N1192 N 0.14538 0.89862 0.24104
 C1193 C 0.18050 0.89536 0.25422
 N1194 N 0.19919 0.92676 0.26445
 N1195 N 0.68348 0.46069 0.76286
 C1196 C 0.64754 0.46367 0.75127
 N1197 N 0.62858 0.43200 0.74286
 N1198 N 0.64477 0.39887 0.74489
 C1199 C 0.68058 0.39577 0.75610
 N1200 N 0.69977 0.42726 0.76504
 N1201 N 0.68294 0.53928 0.73822
 C1202 C 0.64776 0.53611 0.75201
 N1203 N 0.62945 0.56767 0.76210
 N1204 N 0.64562 0.60081 0.75968
 C1205 C 0.68072 0.60407 0.74635
 N1206 N 0.69922 0.57270 0.73569
 N1207 N 0.18333 0.03889 0.23694
 C1208 C 0.14769 0.03573 0.24949
 N1209 N 0.12904 0.06726 0.25905
 N1210 N 0.14527 0.10039 0.25724
 C1211 C 0.18078 0.10366 0.24511
 N1212 N 0.19965 0.07232 0.23499
 N1213 N 0.37198 0.06855 0.74255
 C1214 C 0.35290 0.03662 0.74962
 N1215 N 0.31654 0.03920 0.76003
 N1216 N 0.30001 0.07251 0.76235
 C1217 C 0.31934 0.10426 0.75471
 N1218 N 0.35556 0.10155 0.74472
 N1219 N 0.87148 0.56844 0.24277
 C1220 C 0.85264 0.53653 0.25059
 N1221 N 0.81630 0.53909 0.26106
 N1222 N 0.79956 0.57234 0.26277
 C1223 C 0.81863 0.60406 0.25432
 N1224 N 0.85483 0.60137 0.24427
 N1225 N 0.93141 0.24460 0.12765
 C1226 C 0.96335 0.25145 0.14676
 N1227 N 0.96070 0.26264 0.18287
 N1228 N 0.92734 0.26575 0.19921
 C1229 C 0.89555 0.25828 0.17989
 N1230 N 0.89833 0.24758 0.14388
 N1231 N 0.46058 0.76230 0.68315
 C1232 C 0.46337 0.75292 0.64656
 N1233 N 0.43153 0.74703 0.62696
 N1234 N 0.39837 0.74930 0.64311
 C1235 C 0.39543 0.75825 0.67956
 N1236 N 0.42712 0.76476 0.69939
 N1237 N 0.45975 0.23709 0.81702
 C1238 C 0.46297 0.25124 0.85203
 N1239 N 0.43149 0.26215 0.87004
 N1240 N 0.39840 0.26014 0.85374
 C1241 C 0.39510 0.24643 0.81882
 N1242 N 0.42638 0.23498 0.80062
 N1243 N 0.93108 0.75482 0.37139
 C1244 C 0.96294 0.74753 0.35226
 N1245 N 0.96031 0.73771 0.31576
 N1246 N 0.92700 0.73610 0.29916
 C1247 C 0.89532 0.74398 0.31854
 N1248 N 0.89809 0.75340 0.35488
 N1249 N 0.06716 0.73939 0.37181
 C1250 C 0.03557 0.74752 0.35263
 N1251 N 0.03877 0.75945 0.31681
 N1252 N 0.07233 0.76216 0.30083
 C1253 C 0.10375 0.75350 0.32024
 N1254 N 0.10043 0.74198 0.35593
 N1255 N 0.53868 0.26163 0.81703
 C1256 C 0.53530 0.24928 0.85269
 N1257 N 0.56675 0.24012 0.87165
 N1258 N 0.60003 0.24221 0.85570
 C1259 C 0.60351 0.25421 0.82017
 N1260 N 0.57224 0.26382 0.80098
 N1261 N 0.56811 0.75759 0.62761
 C1262 C 0.53618 0.75097 0.64687
 N1263 N 0.53880 0.74068 0.68324
 N1264 N 0.57217 0.73806 0.69959
 C1265 C 0.60394 0.74530 0.68007
 N1266 N 0.60117 0.75516 0.64386
 N1267 N 0.03858 0.23973 0.18334
 C1268 C 0.03604 0.24945 0.14682
 N1269 N 0.06801 0.25585 0.12754
 N1270 N 0.10102 0.25374 0.14392
 C1271 C 0.10371 0.24445 0.18030
 N1272 N 0.07191 0.23740 0.19983
 N1273 N -0.12056 1.01020 0.81676
 C1274 C -0.10203 1.00052 0.78520
 N1275 N -0.06669 0.98718 0.78836
 N1276 N -0.05046 0.98470 0.82178
 C1277 C -0.06919 0.99495 0.85316
 N1278 N -0.10444 1.00782 0.84990
 N1279 N 0.37905 0.50823 0.31966
 C1280 C 0.39779 0.49958 0.28792
 N1281 N 0.43343 0.48701 0.29082
 N1282 N 0.44974 0.48429 0.32418
 C1283 C 0.43079 0.49346 0.35575
 N1284 N 0.39524 0.50558 0.35274
 N1285 N 0.62199 -0.00541 0.31751
 C1286 C 0.60298 0.00185 0.28563
 N1287 N 0.56716 0.01397 0.28835
 N1288 N 0.55094 0.01754 0.32171
 C1289 C 0.57016 0.00968 0.35344
 N1290 N 0.60590 -0.00193 0.35059
 N1291 N 0.12257 0.49455 0.81868
 C1292 C 0.10345 0.50124 0.78674
 N1293 N 0.06731 0.51238 0.78935
 N1294 N 0.05094 0.51563 0.82267
 C1295 C 0.07028 0.50839 0.85447
 N1296 N 0.10631 0.49770 0.85173
 N1297 N 0.12151 0.50722 0.68228
 C1298 C 0.10291 0.49954 0.71433
 N1299 N 0.06697 0.48766 0.71200
 N1300 N 0.05029 0.48464 0.67883
 C1301 C 0.06913 0.49293 0.64695
 N1302 N 0.10495 0.50432 0.64942
 N1303 N 0.62105 1.00630 0.18103
 C1304 C 0.60228 0.99977 0.21324
 N1305 N 0.56581 0.98959 0.21121
 N1306 N 0.54883 0.98703 0.17815
 C1307 C 0.56785 0.99420 0.14610
 N1308 N 0.60419 1.00390 0.14828
 N1309 N 0.43390 0.51072 0.21272
 C1310 C 0.39795 0.49898 0.21555
 N1311 N 0.37922 0.49048 0.18380
 N1312 N 0.39564 0.49258 0.15077
 C1313 C 0.43145 0.50391 0.14782
 N1314 N 0.45043 0.51292 0.17939
 N1315 N -0.12035 -0.00812 0.68097
 C1316 C -0.10173 0.00005 0.71287
 N1317 N -0.06589 0.01216 0.71025
 N1318 N -0.04930 0.01492 0.67699
 C1319 C -0.06815 0.00623 0.64525
 N1320 N -0.10388 -0.00544 0.64800
 N1321 N -0.21244 0.93306 0.98673
 C1322 C -0.21535 0.89769 1.00008
 N1323 N -0.18368 0.87948 1.00989
 N1324 N -0.15067 0.89595 1.00757
 C1325 C -0.14767 0.93123 0.99467
 N1326 N -0.17916 0.94964 0.98434
 N1327 N 0.31922 0.37842 0.50784
 C1328 C 0.28738 0.39715 0.49960
 N1329 N 0.29014 0.43295 0.48746
 N1330 N 0.32346 0.44941 0.48474
 C1331 C 0.35514 0.43046 0.49347
 N1332 N 0.35226 0.39476 0.50519
 N1333 N 0.28843 0.56624 0.01284
 C1334 C 0.28604 0.60216 0.00095
 N1335 N 0.31806 0.62069 -0.00703
 N1336 N 0.35094 0.60406 -0.00446
 C1337 C 0.35346 0.56824 0.00691
 N1338 N 0.32161 0.54949 0.01555
 N1339 N -0.20983 0.06638 0.51159
 C1340 C -0.21187 0.10287 0.50151
 N1341 N -0.17962 0.12172 0.49533
 N1342 N -0.14683 0.10492 0.49792
 C1343 C -0.14464 0.06856 0.50751
 N1344 N -0.17673 0.04946 0.51432
 N1345 N 0.71259 0.06781 0.48795
 C1346 C 0.71553 0.10382 0.49938
 N1347 N 0.68375 0.12319 0.50634
 N1348 N 0.65054 0.10729 0.50320
 C1349 C 0.64747 0.07138 0.49225
 N1350 N 0.67909 0.05181 0.48469
 N1351 N 0.21111 0.56662 0.98776
 C1352 C 0.21365 0.60261 0.99940
 N1353 N 0.18167 0.62158 1.00646
 N1354 N 0.14865 0.60530 1.00320
 C1355 C 0.14598 0.56941 0.99203
 N1356 N 0.17781 0.55022 0.98441
 N1357 N 0.21189 0.43263 0.51162
 C1358 C 0.21500 0.39708 0.49885
 N1359 N 0.18339 0.37841 0.48963
 N1360 N 0.15024 0.39454 0.49201
 C1361 C 0.14702 0.42998 0.50438
 N1362 N 0.17845 0.44888 0.51408
 N1363 N 0.70974 0.93335 0.01117
 C1364 C 0.71250 0.89761 -0.00117
 N1365 N 0.68073 0.87914 -0.01019
 N1366 N 0.64775 0.89566 -0.00799
 C1367 C 0.64488 0.93129 0.00396
 N1368 N 0.67648 0.94998 0.01346
 N1369 N 0.00655 0.81843 0.87836
 C1370 C -0.00056 0.78641 0.89724
 N1371 N -0.01109 0.78879 0.93358
 N1372 N -0.01348 0.82199 0.95032
 C1373 C -0.00580 0.85384 0.93119
 N1374 N 0.00430 0.85132 0.89499
 N1375 N 0.48848 0.28990 0.43438
 C1376 C 0.49815 0.28799 0.39777
 N1377 N 0.50368 0.32029 0.37885
 N1378 N 0.50085 0.35304 0.39569
 C1379 C 0.49168 0.35512 0.43217
 N1380 N 0.48551 0.32296 0.45134
 N1381 N 0.01321 0.28656 0.56723
 C1382 C -0.00141 0.28352 0.60210
 N1383 N -0.01191 0.31516 0.62002
 N1384 N -0.00914 0.34820 0.60373
 C1385 C 0.00496 0.35133 0.56892
 N1386 N 0.01603 0.31989 0.55081
 N1387 N 0.51263 0.78902 0.06717
 C1388 C 0.49791 0.78590 0.10199
 N1389 N 0.48672 0.81742 0.11970
 N1390 N 0.48902 0.85042 0.10326
 C1391 C 0.50330 0.85362 0.06853
 N1392 N 0.51499 0.82230 0.05061
 N1393 N 0.50995 0.68237 0.12101
 C1394 C 0.50006 0.71388 0.10255
 N1395 N 0.48684 0.71071 0.06719
 N1396 N 0.48456 0.67731 0.05088
 C1397 C 0.49490 0.64597 0.06955
 N1398 N 0.50775 0.64924 0.10481
 N1399 N 0.00634 0.17934 0.62162
 C1400 C -0.00119 0.21120 0.60265
 N1401 N -0.01255 0.20849 0.56660
 N1402 N -0.01528 0.17515 0.55020
 C1403 C -0.00726 0.14344 0.56940
 N1404 N 0.00370 0.14628 0.60533
 N1405 N 0.51251 0.21276 0.43298
 C1406 C 0.50106 0.21546 0.39696
 N1407 N 0.49455 0.18354 0.37769
 N1408 N 0.49811 0.15043 0.39370
 C1409 C 0.50904 0.14760 0.42963
 N1410 N 0.51615 0.17937 0.44911
 N1411 N -0.00747 0.68214 0.87802
 C1412 C 0.00038 0.71399 0.89688
 N1413 N 0.01254 0.71124 0.93266
 N1414 N 0.01561 0.67789 0.94898
 C1415 C 0.00718 0.64620 0.92992
 N1416 N -0.00449 0.64907 0.89423
 N1417 N 0.25699 0.62798 0.93241
 C1418 C 0.24962 0.64659 0.96452
 N1419 N 0.23867 0.68283 0.96230
 N1420 N 0.23619 0.69974 0.92919
 C1421 C 0.24416 0.68087 0.89725
 N1422 N 0.25465 0.64477 0.89961
 N1423 N 0.73975 0.18315 0.46229
 C1424 C 0.75222 0.14743 0.46474
 N1425 N 0.76073 0.12906 0.43277
 N1426 N 0.75802 0.14566 0.39990
 C1427 C 0.74601 0.18127 0.39732
 N1428 N 0.73696 0.19988 0.42912
 N1429 N 0.26210 0.31650 0.46133
 C1430 C 0.25292 0.35323 0.46334
 N1431 N 0.24782 0.37235 0.43111
 N1432 N 0.25059 0.35562 0.39831
 C1433 C 0.25927 0.31904 0.39613
 N1434 N 0.26504 0.29965 0.42822
 N1435 N 0.74507 0.87286 0.93097
 C1436 C 0.75060 0.85376 0.96316
 N1437 N 0.76094 0.81735 0.96098
 N1438 N 0.76451 0.80073 0.92781
 C1439 C 0.75833 0.82006 0.89576
 N1440 N 0.74850 0.85636 0.89809
 N1441 N 0.75167 0.87294 0.06794
 C1442 C 0.74664 0.85373 0.03572
 N1443 N 0.73730 0.81705 0.03785
 N1444 N 0.73414 0.80031 0.07100
 C1445 C 0.73984 0.81975 0.10308
 N1446 N 0.74868 0.85631 0.10079
 N1447 N 0.23863 0.31741 0.53832
 C1448 C 0.24946 0.35366 0.53586
 N1449 N 0.25532 0.37293 0.56789
 N1450 N 0.25173 0.35673 0.60090
 C1451 C 0.24141 0.32058 0.60350
 N1452 N 0.23494 0.30109 0.57161
 N1453 N 0.76373 0.18269 0.53989
 C1454 C 0.75259 0.14658 0.53706
 N1455 N 0.74514 0.12741 0.56882
 N1456 N 0.74759 0.14360 0.60193
 C1457 C 0.75827 0.17961 0.60488
 N1458 N 0.76629 0.19899 0.57328
 N1459 N 0.24287 0.62678 0.06875
 C1460 C 0.25066 0.64580 0.03696
 N1461 N 0.26276 0.68161 0.03984
 N1462 N 0.26585 0.69779 0.07325
 C1463 C 0.25748 0.67858 0.10488
 N1464 N 0.24586 0.64286 0.10189
 N1465 N 0.18348 0.53868 0.76103
 C1466 C 0.14712 0.53633 0.75057
 N1467 N 0.12830 0.56835 0.74342
 N1468 N 0.14499 0.60122 0.74557
 C1469 C 0.18121 0.60372 0.75560
 N1470 N 0.20029 0.57186 0.76333
 N1471 N 0.68228 0.03894 0.26270
 C1472 C 0.64691 0.03643 0.24928
 N1473 N 0.62883 0.06837 0.24009
 N1474 N 0.64542 0.10124 0.24297
 C1475 C 0.68070 0.10387 0.25588
 N1476 N 0.69899 0.07212 0.26567
 N1477 N 0.87369 0.06857 0.75237
 C1478 C 0.85438 0.03641 0.74733
 N1479 N 0.81763 0.03861 0.73833
 N1480 N 0.80095 0.07181 0.73550
 C1481 C 0.82051 0.10383 0.74119
 N1482 N 0.85712 0.10147 0.74970
 N1483 N 0.31791 0.53817 0.23983
 C1484 C 0.35432 0.53579 0.25005
 N1485 N 0.37359 0.56788 0.25571
 N1486 N 0.35724 0.60086 0.25249
 C1487 C 0.32094 0.60338 0.24275
 N1488 N 0.30145 0.57143 0.23648
 N1489 N 0.37338 0.43102 0.24775
 C1490 C 0.35414 0.46316 0.25318
 N1491 N 0.31744 0.46091 0.26245
 N1492 N 0.30074 0.42771 0.26517
 C1493 C 0.32023 0.39572 0.25908
 N1494 N 0.35679 0.39812 0.25031
 N1495 N 0.87352 0.93171 0.74412
 C1496 C 0.85442 0.96379 0.75038
 N1497 N 0.81809 0.96138 0.76097
 N1498 N 0.80154 0.92813 0.76410
 C1499 C 0.82085 0.89620 0.75720
 N1500 N 0.85708 0.89874 0.74711
 N1501 N 0.68196 0.96134 0.23669
 C1502 C 0.64607 0.96414 0.24861
 N1503 N 0.62709 0.93232 0.25635
 N1504 N 0.64326 0.89922 0.25344
 C1505 C 0.67904 0.89630 0.24196
 N1506 N 0.69824 0.92797 0.23367
 N1507 N 0.18240 0.46130 0.73659
 C1508 C 0.14686 0.46397 0.74955
 N1509 N 0.12816 0.43207 0.75763
 N1510 N 0.14433 0.39903 0.75411
 C1511 C 0.17979 0.39624 0.74165
 N1512 N 0.19869 0.42798 0.73302
 N1513 N 0.03844 0.73851 0.81709
 C1514 C 0.03594 0.74975 0.85320
 N1515 N 0.06790 0.75731 0.87197
 N1516 N 0.10084 0.75492 0.85541
 C1517 C 0.10347 0.74418 0.81941
 N1518 N 0.07169 0.73596 0.80042
 N1519 N 0.56725 0.26207 0.37144
 C1520 C 0.53551 0.25235 0.35331
 N1521 N 0.53837 0.23850 0.31813
 N1522 N 0.57167 0.23562 0.30164
 C1523 C 0.60323 0.24589 0.31998
 N1524 N 0.60027 0.25926 0.35508
 N1525 N 0.53802 0.76139 0.18250
 C1526 C 0.53565 0.75256 0.14573
 N1527 N 0.56774 0.74815 0.12611
 N1528 N 0.60073 0.75126 0.14241
 C1529 C 0.60325 0.75958 0.17905
 N1530 N 0.57130 0.76467 0.19891
 N1531 N 0.03806 0.26102 0.68172
 C1532 C 0.03544 0.24909 0.64584
 N1533 N 0.06740 0.24206 0.62679
 N1534 N 0.10046 0.24556 0.64291
 C1535 C 0.10320 0.25696 0.67871
 N1536 N 0.07139 0.26462 0.69795
 N1537 N 0.93063 0.25139 0.62766
 C1538 C 0.96295 0.24612 0.64658
 N1539 N 0.96107 0.23689 0.68330
 N1540 N 0.92803 0.23408 0.70035
 C1541 C 0.89585 0.24001 0.68117
 N1542 N 0.89790 0.24874 0.64459
 N1543 N 0.43070 0.75203 0.12747
 C1544 C 0.46309 0.74774 0.14652
 N1545 N 0.46131 0.73877 0.18331
 N1546 N 0.42829 0.73530 0.20029
 C1547 C 0.39603 0.74027 0.18098
 N1548 N 0.39798 0.74872 0.14432
 N1549 N 0.43135 0.24442 0.37277
 C1550 C 0.46322 0.25216 0.35385
 N1551 N 0.46054 0.26381 0.31789
 N1552 N 0.42723 0.26656 0.30148
 C1553 C 0.39551 0.25831 0.32061
 N1554 N 0.39831 0.24709 0.35647
 N1555 N 0.96096 0.76237 0.81736
 C1556 C 0.96345 0.75136 0.85354
 N1557 N 0.93144 0.74480 0.87267
 N1558 N 0.89843 0.74795 0.85640
 C1559 C 0.89580 0.75851 0.82033
 N1560 N 0.92767 0.76562 0.80098
   
