data_POSCAR
  _audit_creation_date              2014-09-24
  _audit_creation_method            'ToBaCCo'
  _symmetry_space_group_name_H-M    'P1'
  _symmetry_Int_Tables_number       1
  _symmetry_cell_setting            triclinic
  loop_
  _symmetry_equiv_pos_as_xyz
 x,y,z
_cell_length_a 48.7465
_cell_length_b 48.1262
_cell_length_c 48.1530
_cell_angle_alpha 89.599500
_cell_angle_beta 90.023100
_cell_angle_gamma 89.649700
loop_
  _atom_site_label
  _atom_site_type_symbol
  _atom_site_fract_x
  _atom_site_fract_y
  _atom_site_fract_z
N1 N 0.31495 0.43971 0.94750
 N2 N 0.43985 0.81232 0.43519
 N3 N 0.93804 0.94769 0.80892
 N4 N 0.44138 -0.06062 0.30974
 N5 N 0.81694 0.31217 0.30892
 N6 N -0.18399 0.80671 0.80197
 N7 N 0.93481 0.31372 0.44000
 N8 N 0.44227 0.44229 0.81962
 N9 N 0.81262 0.93913 0.93204
 N10 N 0.31480 0.80480 0.30317
 N11 N 0.81261 0.43976 0.44377
 N12 N 0.93662 0.81129 -0.06124
 N13 N 0.30914 0.30786 0.79999
 N14 N 0.18916 0.55835 0.56445
 N15 N 0.56181 0.68747 0.05901
 N16 N 0.68565 0.19201 0.68580
 N17 N 1.06284 0.05582 0.19064
 N18 N 0.06093 0.19128 1.06103
 N19 N 0.19254 0.69243 0.68997
 N20 N 1.18965 0.18856 0.18455
 N21 N 0.68691 1.05503 0.54884
 N22 N 0.56178 0.55311 0.20455
 N23 N 0.69954 0.69823 0.19138
 N24 N 0.18396 0.06246 1.05881
 N25 N 0.56094 0.18864 0.56193
 N26 N 0.06307 0.56276 0.69679
 N27 N 0.68663 0.56248 0.06311
 N28 N 0.06674 0.68940 0.56408
 N29 N 0.56114 1.06439 0.69108
 N30 N 0.43960 0.30580 0.94403
 N31 N 0.94192 0.43155 0.31826
 N32 N 0.30632 0.94063 0.44134
 O33 O 0.24681 0.58088 0.72519
 O34 O 0.29522 0.57324 0.72360
 O35 O 0.21805 0.50460 0.68512
 O36 O 0.21814 0.45881 0.69466
 O37 O 0.18008 0.53984 0.75690
 O38 O 0.18937 0.53209 0.80636
 O39 O 0.29366 0.43450 0.75476
 O40 O 0.28906 0.44559 0.70821
 O41 O 0.32610 0.50364 0.79415
 O42 O 0.31545 0.55634 0.78690
 O43 O 0.26347 0.46947 0.83006
 O44 O 0.21606 0.46640 0.82525
 O45 O 0.26293 0.43186 0.79026
 O46 O 0.21123 0.44131 0.79157
 O47 O 0.28963 0.50812 0.83076
 O48 O 0.28866 0.55613 0.81860
 O49 O 0.32824 0.47281 0.75863
 O50 O 0.31772 0.48064 0.70747
 O51 O 0.21797 0.57845 0.76202
 O52 O 0.21761 0.56399 0.80954
 O53 O 0.18054 0.50605 0.72406
 O54 O 0.19358 0.45547 0.73124
 O55 O 0.24695 0.54165 0.68469
 O56 O 0.29606 0.54281 0.69294
 Zr57 Zr 0.26587 0.54112 0.72439
 O58 O 0.29502 0.51796 0.74743
 Zr59 Zr 0.22072 0.48928 0.72595
 O60 O 0.24827 0.46388 0.74845
 Zr61 Zr 0.21955 0.53693 0.77517
 O62 O 0.24650 0.51358 0.80024
 Zr63 Zr 0.28901 0.47544 0.74023
 O64 O 0.26162 0.49860 0.71484
 Zr65 Zr 0.28734 0.52304 0.78995
 O66 O 0.26030 0.54897 0.76711
 Zr67 Zr 0.24304 0.47105 0.79121
 O68 O 0.21304 0.49432 0.76867
 O69 O 0.22560 0.53135 0.73302
 O70 O 0.28372 0.48051 0.78290
 C71 C 0.22884 0.59160 0.74170
 C72 C 0.22937 0.52546 0.67306
 C73 C 0.16885 0.52614 0.73707
 C74 C 0.28178 0.42144 0.77466
 C75 C 0.33831 0.48454 0.78020
 C76 C 0.28040 0.48603 0.84211
 H77 H 0.31379 0.52384 0.74257
 H78 H 0.24218 0.51751 0.81990
 H79 H 0.21386 0.54306 0.72132
 H80 H 0.24488 0.44431 0.74347
 H81 H 0.27837 0.45369 0.69259
 H82 H 0.23340 0.44554 0.69774
 H83 H 0.27164 0.55530 0.82974
 H84 H 0.23473 0.57494 0.80932
 H85 H 0.33159 0.49440 0.71312
 H86 H 0.29619 0.52436 0.68398
 H87 H 0.20874 0.48513 0.82935
 H88 H 0.17965 0.51454 0.80243
 H89 H 0.29635 0.58033 0.74280
 H90 H 0.33143 0.55014 0.77583
 H91 H 0.18164 0.45985 0.74728
 H92 H 0.21431 0.42876 0.77567
 O93 O 0.24827 0.07418 0.21488
 O94 O 0.29733 0.06659 0.21994
 O95 O 0.22138 0.00408 0.17110
 O96 O 0.22683 -0.04323 0.17595
 O97 O 0.17766 0.02749 0.24423
 O98 O 0.18714 0.02781 0.29296
 O99 O 0.29269 -0.07228 0.24694
 O100 O 0.28914 -0.06139 0.19841
 O101 O 0.32310 -0.00364 0.28569
 O102 O 0.31076 0.04832 0.28353
 O103 O 0.25327 -0.03923 0.31882
 O104 O 0.20339 -0.04092 0.30233
 O105 O 0.26030 -0.07515 0.28062
 O106 O 0.21100 -0.07078 0.27539
 O107 O 0.28337 -0.00365 0.32167
 O108 O 0.28238 0.04460 0.31328
 O109 O 0.32765 -0.03251 0.24871
 O110 O 0.32044 -0.02879 0.20072
 O111 O 0.21293 0.07011 0.24556
 O112 O 0.21587 0.05824 0.29465
 O113 O 0.18181 -0.00249 0.20811
 O114 O 0.19526 -0.05020 0.20957
 O115 O 0.25357 0.03757 0.17450
 O116 O 0.30078 0.03860 0.18732
 Zr117 Zr 0.26776 0.03497 0.21554
 O118 O 0.29438 0.01045 0.23983
 Zr119 Zr 0.22278 -0.01633 0.21033
 O120 O 0.24744 -0.04312 0.23488
 Zr121 Zr 0.21740 0.02949 0.26165
 O122 O 0.24191 0.00491 0.28823
 Zr123 Zr 0.28863 -0.03173 0.23063
 O124 O 0.26444 -0.00693 0.20353
 Zr125 Zr 0.28356 0.01421 0.28179
 O126 O 0.25871 0.04145 0.25772
 Zr127 Zr 0.23879 -0.03718 0.27734
 O128 O 0.21161 -0.01284 0.25259
 O129 O 0.22655 0.02533 0.21990
 O130 O 0.28025 -0.02798 0.27301
 C131 C 0.22702 0.08369 0.22754
 C132 C 0.23482 0.02494 0.16107
 C133 C 0.16778 0.01404 0.22351
 C134 C 0.28070 -0.08517 0.26698
 C135 C 0.33662 -0.02118 0.27087
 C136 C 0.27024 -0.02412 0.33246
 H137 H 0.31347 0.01636 0.23645
 H138 H 0.23598 0.00841 0.30753
 H139 H 0.21446 0.03675 0.20807
 H140 H 0.24478 -0.06263 0.22924
 H141 H 0.28131 -0.05218 0.18171
 H142 H 0.23590 -0.06049 0.18258
 H143 H 0.26347 0.04486 0.32073
 H144 H 0.23246 0.06992 0.29305
 H145 H 0.32826 -0.00993 0.20175
 H146 H 0.30147 0.02104 0.17674
 H147 H 0.20325 -0.02484 0.31495
 H148 H 0.18037 0.00852 0.29317
 H149 H 0.29448 0.07473 0.23855
 H150 H 0.32564 0.04514 0.26994
 H151 H 0.18643 -0.05099 0.22806
 H152 H 0.21403 -0.08049 0.25762
 O153 O 0.50827 0.67459 0.22055
 O154 O 0.46132 0.68387 0.22145
 O155 O 0.53696 0.74825 0.17533
 O156 O 0.53718 0.79390 0.18211
 O157 O 0.58122 0.71632 0.24708
 O158 O 0.57401 0.72054 0.29590
 O159 O 0.46929 0.82177 0.25275
 O160 O 0.47109 0.81217 0.20485
 O161 O 0.43793 0.75181 0.29216
 O162 O 0.44978 0.70089 0.29023
 O163 O 0.50790 0.78886 0.32245
 O164 O 0.55764 0.78675 0.30920
 O165 O 0.50467 0.82452 0.28339
 O166 O 0.55397 0.81600 0.27968
 O167 O 0.47753 0.75341 0.32670
 O168 O 0.47943 0.70349 0.31849
 O169 O 0.43446 0.78381 0.25730
 O170 O 0.44053 0.77884 0.20671
 O171 O 0.54420 0.67711 0.25069
 O172 O 0.54415 0.68912 0.29935
 O173 O 0.57769 0.74721 0.21118
 O174 O 0.56709 0.79760 0.21575
 O175 O 0.50653 0.71275 0.17863
 O176 O 0.45764 0.71499 0.19260
 Zr177 Zr 0.49154 0.71508 0.21994
 O178 O 0.46587 0.73934 0.24548
 Zr179 Zr 0.53818 0.76494 0.21537
 O180 O 0.51415 0.79183 0.23991
 Zr181 Zr 0.54240 0.71789 0.26599
 O182 O 0.51921 0.74282 0.29309
 Zr183 Zr 0.47243 0.78156 0.23655
 O184 O 0.49610 0.75720 0.20882
 Zr185 Zr 0.47737 0.73462 0.28733
 O186 O 0.50070 0.70740 0.26220
 Zr187 Zr 0.52356 0.78495 0.28200
 O188 O 0.54984 0.76012 0.25719
 O189 O 0.53303 0.72301 0.22416
 O190 O 0.48176 0.77684 0.27858
 C191 C 0.52879 0.66390 0.23369
 C192 C 0.52388 0.72768 0.16498
 C193 C 0.59079 0.72887 0.22562
 C194 C 0.48363 0.83482 0.27075
 C195 C 0.42495 0.77067 0.27848
 C196 C 0.49036 0.77457 0.33624
 H197 H 0.44658 0.73393 0.24256
 H198 H 0.52511 0.73912 0.31241
 H199 H 0.54396 0.71075 0.21206
 H200 H 0.51735 0.81133 0.23426
 H201 H 0.47982 0.80386 0.18828
 H202 H 0.52559 0.80974 0.18795
 H203 H 0.49811 0.70390 0.32640
 H204 H 0.52709 0.67810 0.29856
 H205 H 0.42896 0.76268 0.21143
 H206 H 0.45753 0.73333 0.18320
 H207 H 0.55598 0.77135 0.32279
 H208 H 0.58199 0.73931 0.29391
 H209 H 0.45869 0.67947 0.24135
 H210 H 0.43502 0.70393 0.27642
 H211 H 0.57970 0.79397 0.23151
 H212 H 0.55365 0.82353 0.26055
 O213 O 0.01466 0.68618 0.71295
 O214 O -0.03573 0.69556 0.71260
 O215 O 0.04317 0.76385 0.67667
 O216 O 0.04225 0.80856 0.68791
 O217 O 0.08148 0.72597 0.74933
 O218 O 0.06829 0.72875 0.79925
 O219 O -0.03311 0.82850 0.75691
 O220 O -0.02511 0.82722 0.70848
 O221 O -0.06871 0.75254 0.77676
 O222 O -0.05265 0.70334 0.77530
 O223 O -0.00552 0.79090 0.82184
 O224 O 0.04844 0.78523 0.81648
 O225 O 0.00324 0.82999 0.78608
 O226 O 0.04787 0.82024 0.79282
 O227 O -0.03598 0.75551 0.81858
 O228 O -0.02846 0.70598 0.80862
 O229 O -0.06858 0.78903 0.74671
 O230 O -0.05419 0.79152 0.69962
 O231 O 0.04414 0.68535 0.74961
 O232 O 0.04301 0.69479 0.79646
 O233 O 0.08068 0.76004 0.71629
 O234 O 0.06898 0.80920 0.72495
 O235 O 0.01327 0.72817 0.67371
 O236 O -0.03134 0.72328 0.67927
 Zr237 Zr -0.00443 0.72586 0.71356
 O238 O -0.03357 0.74812 0.73689
 Zr239 Zr 0.04069 0.77664 0.71833
 O240 O 0.01394 0.80065 0.74294
 Zr241 Zr 0.04101 0.72571 0.76524
 O242 O 0.01310 0.74671 0.79136
 Zr243 Zr -0.02711 0.79129 0.73396
 O244 O -0.00032 0.76917 0.70696
 Zr245 Zr -0.02761 0.73888 0.77916
 O246 O 0.00024 0.71467 0.75564
 Zr247 Zr 0.01822 0.78941 0.78506
 O248 O 0.04798 0.76848 0.76076
 O249 O 0.03617 0.73393 0.72295
 O250 O -0.02291 0.78181 0.77587
 C251 C 0.03210 0.67384 0.72906
 C252 C 0.03146 0.74434 0.66311
 C253 C 0.09279 0.74052 0.72998
 C254 C -0.01861 0.84050 0.77584
 C255 C -0.08106 0.77190 0.76295
 C256 C -0.02550 0.77625 0.83124
 H257 H -0.05196 0.74294 0.73007
 H258 H 0.01630 0.74148 0.81098
 H259 H 0.04847 0.72287 0.71089
 H260 H 0.01784 0.82056 0.73973
 H261 H -0.01385 0.82216 0.69217
 H262 H 0.03152 0.82455 0.69489
 H263 H -0.01462 0.70978 0.82311
 H264 H 0.02375 0.69038 0.80106
 H265 H -0.04355 0.78513 0.68334
 H266 H -0.04510 0.73826 0.68158
 H267 H 0.04031 0.77505 0.83236
 H268 H 0.07848 0.74632 0.79683
 H269 H -0.03263 0.68294 0.72864
 H270 H -0.06403 0.70587 0.75844
 H271 H 0.08008 0.80409 0.74146
 H272 H 0.05376 0.82733 0.77445
 O273 O 0.07037 0.03322 0.00498
 O274 O 0.06073 0.03121 -0.04507
 O275 O -0.00007 0.07501 0.03675
 O276 O -0.04680 0.06994 0.03099
 O277 O 0.02704 0.00242 0.07629
 O278 O 0.02333 -0.04779 0.06464
 O279 O -0.07555 0.00270 -0.03553
 O280 O -0.06444 0.05224 -0.03012
 O281 O -0.00693 -0.03236 -0.07324
 O282 O 0.04437 -0.02972 -0.06166
 O283 O -0.03881 -0.07082 -0.00233
 O284 O -0.03830 -0.05914 0.04864
 O285 O -0.07530 -0.03378 -0.00527
 O286 O -0.06942 -0.03152 0.04473
 O287 O -0.00590 -0.07084 -0.03568
 O288 O 0.04259 -0.06145 -0.03491
 O289 O -0.03719 0.00365 -0.07328
 O290 O -0.03617 0.04926 -0.06548
 O291 O 0.06751 0.00025 0.03902
 O292 O 0.05672 -0.04737 0.03778
 O293 O -0.00542 0.03614 0.07439
 O294 O -0.05194 0.03514 0.06233
 O295 O 0.03357 0.07410 0.00387
 O296 O 0.03416 0.06506 -0.04439
 Zr297 Zr 0.03094 0.03409 -0.01328
 O298 O 0.00616 0.01167 -0.04093
 Zr299 Zr -0.01919 0.03587 0.03344
 O300 O -0.04550 0.01200 0.00862
 Zr301 Zr 0.02738 -0.01489 0.03562
 O302 O 0.00412 -0.04037 0.00918
 Zr303 Zr -0.03563 0.01931 -0.03303
 O304 O -0.01076 0.04532 -0.00843
 Zr305 Zr 0.01137 -0.03095 -0.03308
 O306 O 0.03811 -0.00858 -0.00654
 Zr307 Zr -0.03750 -0.03070 0.01492
 O308 O -0.01429 -0.00674 0.04304
 O309 O 0.02225 0.02726 0.02838
 O310 O -0.03032 -0.02340 -0.02720
 C311 C 0.08044 0.01904 0.02536
 C312 C 0.02004 0.08606 0.02338
 C313 C 0.01299 0.02236 0.08740
 C314 C -0.08662 -0.01872 -0.02410
 C315 C -0.02555 -0.01713 -0.08495
 C316 C -0.02507 -0.08272 -0.02175
 H317 H 0.01109 0.01666 -0.06022
 H318 H 0.00845 -0.06001 0.01359
 H319 H 0.03382 0.03848 0.04074
 H320 H -0.06482 0.01696 0.01250
 H321 H -0.05439 0.06880 -0.02358
 H322 H -0.06405 0.06328 0.02257
 H323 H 0.04577 -0.06775 -0.01561
 H324 H 0.06709 -0.04682 0.02011
 H325 H -0.01691 0.05306 -0.07051
 H326 H 0.01590 0.07404 -0.04562
 H327 H -0.02299 -0.07246 0.04611
 H328 H 0.00636 -0.04412 0.07532
 H329 H 0.07019 0.01312 -0.04250
 H330 H 0.04034 -0.01517 -0.07571
 H331 H -0.05277 0.01598 0.06987
 H332 H -0.08030 -0.01422 0.04259
 O333 O 0.07033 0.53556 0.51179
 O334 O 0.06106 0.53349 0.46217
 O335 O -0.00457 0.57467 0.53944
 O336 O -0.04878 0.56473 0.54392
 O337 O 0.03075 0.50139 0.58331
 O338 O 0.02944 0.45289 0.57340
 O339 O -0.07416 0.49821 0.47220
 O340 O -0.06411 0.54588 0.47017
 O341 O 0.00253 0.46690 0.43511
 O342 O 0.05195 0.46660 0.45300
 O343 O -0.03891 0.42822 0.50360
 O344 O -0.03474 0.43578 0.55514
 O345 O -0.07424 0.46548 0.50647
 O346 O -0.06360 0.46641 0.55639
 O347 O -0.00358 0.42744 0.47282
 O348 O 0.04325 0.43272 0.47590
 O349 O -0.03738 0.49077 0.43636
 O350 O -0.03036 0.54451 0.44130
 O351 O 0.06967 0.50312 0.54652
 O352 O 0.06097 0.45338 0.54293
 O353 O -0.00138 0.53579 0.58160
 O354 O -0.05168 0.52995 0.56913
 O355 O 0.03281 0.57357 0.51154
 O356 O 0.02967 0.56437 0.46221
 Zr357 Zr 0.03095 0.53365 0.49378
 O358 O 0.00826 0.50849 0.46651
 Zr359 Zr -0.01847 0.53333 0.54108
 O360 O -0.04368 0.50888 0.51572
 Zr361 Zr 0.03057 0.48492 0.54319
 O362 O 0.00735 0.45794 0.51850
 Zr363 Zr -0.03396 0.51430 0.47341
 O364 O -0.01133 0.54207 0.49872
 Zr365 Zr 0.01536 0.46654 0.47659
 O366 O 0.04105 0.49150 0.50132
 Zr367 Zr -0.03470 0.46671 0.52360
 O368 O -0.01149 0.49129 0.55122
 O369 O 0.02307 0.52677 0.53554
 O370 O -0.02673 0.47251 0.48148
 C371 C 0.08133 0.52247 0.53237
 C372 C 0.01713 0.58575 0.52925
 C373 C 0.01746 0.52165 0.59426
 C374 C -0.08597 0.47920 0.48679
 C375 C -0.02052 0.47381 0.42452
 C376 C -0.02481 0.41664 0.48433
 H377 H 0.01365 0.51306 0.44723
 H378 H 0.01180 0.43840 0.52314
 H379 H 0.03399 0.53895 0.54751
 H380 H -0.06300 0.51386 0.51962
 H381 H -0.05724 0.56185 0.48094
 H382 H -0.06065 0.56275 0.52740
 H383 H 0.04767 0.42803 0.49541
 H384 H 0.07187 0.45613 0.52579
 H385 H -0.01998 0.53627 0.42571
 H386 H 0.01100 0.57255 0.46265
 H387 H -0.02017 0.42207 0.55090
 H388 H 0.01039 0.45246 0.58051
 H389 H 0.07208 0.51633 0.46480
 H390 H 0.05018 0.48163 0.43896
 H391 H -0.04798 0.51337 0.58084
 H392 H -0.07554 0.48296 0.55404
 O393 O 0.56743 0.03327 0.49947
 O394 O 0.55518 0.03274 0.45201
 O395 O 0.49570 0.07701 0.53364
 O396 O 0.45053 0.07050 0.53295
 O397 O 0.52935 0.00784 0.57569
 O398 O 0.52587 -0.04109 0.57011
 O399 O 0.42203 -0.00210 0.46550
 O400 O 0.42967 0.04692 0.46896
 O401 O 0.49201 -0.03683 0.43117
 O402 O 0.54121 -0.03636 0.44281
 O403 O 0.45711 -0.07063 0.50501
 O404 O 0.45821 -0.05929 0.55267
 O405 O 0.42066 -0.03181 0.50243
 O406 O 0.43256 -0.02618 0.55366
 O407 O 0.48819 -0.07206 0.47003
 O408 O 0.53910 -0.06467 0.47344
 O409 O 0.45965 -0.00271 0.42862
 O410 O 0.46023 0.04614 0.43571
 O411 O 0.56792 0.00175 0.53477
 O412 O 0.55397 -0.04650 0.53902
 O413 O 0.49577 0.04041 0.57379
 O414 O 0.44673 0.03598 0.56338
 O415 O 0.52962 0.07502 0.50120
 O416 O 0.52656 0.06360 0.45237
 Zr417 Zr 0.52680 0.03418 0.48516
 O418 O 0.50254 0.00853 0.46004
 Zr419 Zr 0.47893 0.03707 0.53385
 O420 O 0.45208 0.01214 0.51056
 Zr421 Zr 0.52680 -0.01225 0.53681
 O422 O 0.50188 -0.03970 0.51407
 Zr423 Zr 0.46086 0.01618 0.46803
 O424 O 0.48514 0.04430 0.49103
 Zr425 Zr 0.50834 -0.03343 0.47137
 O426 O 0.53546 -0.00798 0.49412
 Zr427 Zr 0.46023 -0.02980 0.51998
 O428 O 0.48512 -0.00468 0.54561
 O429 O 0.52060 0.02946 0.52755
 O430 O 0.46666 -0.02579 0.47731
 C431 C 0.57995 0.01908 0.51833
 C432 C 0.51566 0.08775 0.52000
 C433 C 0.51536 0.02788 0.58649
 C434 C 0.41001 -0.02013 0.48089
 C435 C 0.47350 -0.02290 0.41808
 C436 C 0.46878 -0.08286 0.48456
 H437 H 0.50730 0.01213 0.44040
 H438 H 0.50591 -0.05908 0.51970
 H439 H 0.53307 0.04138 0.53840
 H440 H 0.43284 0.01737 0.51451
 H441 H 0.43804 0.06391 0.47668
 H442 H 0.43401 0.06414 0.52296
 H443 H 0.53431 -0.07777 0.48859
 H444 H 0.56015 -0.04977 0.51977
 H445 H 0.47950 0.04961 0.43061
 H446 H 0.50954 0.07470 0.45440
 H447 H 0.47680 -0.06732 0.55496
 H448 H 0.50763 -0.03913 0.57896
 H449 H 0.56339 0.01387 0.45234
 H450 H 0.53948 -0.02063 0.42958
 H451 H 0.45003 0.01964 0.57556
 H452 H 0.41915 -0.01136 0.54899
 O453 O 0.50737 0.56545 0.04893
 O454 O 0.45821 0.55856 0.04522
 O455 O 0.53368 0.49066 0.08917
 O456 O 0.53224 0.44385 0.07999
 O457 O 0.57586 0.52243 0.01681
 O458 O 0.56485 0.51807 -0.03392
 O459 O 0.46111 0.42189 0.00978
 O460 O 0.46837 0.42792 0.05925
 O461 O 0.42840 0.49416 -0.02038
 O462 O 0.44337 0.54527 -0.01833
 O463 O 0.49824 0.45794 -0.05939
 O464 O 0.54910 0.45815 -0.04630
 O465 O 0.49524 0.42001 -0.02239
 O466 O 0.54307 0.42481 -0.02101
 O467 O 0.46653 0.49272 -0.05944
 O468 O 0.46697 0.54071 -0.05027
 O469 O 0.42720 0.46072 0.01315
 O470 O 0.43690 0.46154 0.06146
 O471 O 0.53878 0.56391 0.01402
 O472 O 0.54269 0.55343 -0.03229
 O473 O 0.57386 0.48915 0.05053
 O474 O 0.56180 0.44117 0.04610
 O475 O 0.50311 0.52646 0.08776
 O476 O 0.45594 0.52850 0.07663
 Zr477 Zr 0.48791 0.52637 0.04704
 O478 O 0.46029 0.50326 0.02298
 Zr479 Zr 0.53331 0.47450 0.04828
 O480 O 0.50801 0.44952 0.02317
 Zr481 Zr 0.53645 0.52311 -0.00108
 O482 O 0.51044 0.50109 -0.02791
 Zr483 Zr 0.46683 0.46046 0.02952
 O484 O 0.49182 0.48364 0.05679
 Zr485 Zr 0.46896 0.50962 -0.01921
 O486 O 0.49516 0.53512 0.00469
 Zr487 Zr 0.51500 0.45844 -0.01910
 O488 O 0.54309 0.48049 0.00601
 O489 O 0.52909 0.51694 0.04102
 O490 O 0.47346 0.46703 -0.01283
 C491 C 0.52609 0.57650 0.03368
 C492 C 0.52065 0.51104 0.10057
 C493 C 0.58642 0.50819 0.03681
 C494 C 0.47435 0.40980 -0.00987
 C495 C 0.41604 0.47519 -0.00624
 C496 C 0.47978 0.47293 -0.07137
 H497 H 0.44138 0.50903 0.02771
 H498 H 0.51511 0.50587 -0.04734
 H499 H 0.54101 0.52822 0.05310
 H500 H 0.51114 0.42962 0.02739
 H501 H 0.47667 0.43573 0.07626
 H502 H 0.52182 0.42780 0.07295
 H503 H 0.48612 0.54524 -0.05503
 H504 H 0.52430 0.56051 -0.03734
 H505 H 0.42782 0.47995 0.06090
 H506 H 0.45517 0.51004 0.08578
 H507 H 0.54610 0.47288 -0.06043
 H508 H 0.57615 0.50146 -0.02942
 H509 H 0.46164 0.56916 0.02788
 H510 H 0.43201 0.54401 -0.00140
 H511 H 0.57163 0.44306 0.02820
 H512 H 0.54489 0.41714 -0.00201
 O513 O 0.78247 0.32188 0.49688
 O514 O 0.77818 0.31155 0.54500
 O515 O 0.82000 0.24907 0.46508
 O516 O 0.80951 0.20045 0.46637
 O517 O 0.75310 0.28580 0.42296
 O518 O 0.70410 0.28405 0.42964
 O519 O 0.73928 0.17669 0.53335
 O520 O 0.78601 0.18151 0.53502
 O521 O 0.70794 0.24947 0.56783
 O522 O 0.71067 0.30069 0.55276
 O523 O 0.67321 0.21664 0.49181
 O524 O 0.68485 0.21470 0.44615
 O525 O 0.71049 0.17658 0.49616
 O526 O 0.71713 0.18912 0.44472
 O527 O 0.67233 0.24602 0.52825
 O528 O 0.67928 0.29510 0.52656
 O529 O 0.74125 0.21687 0.57109
 O530 O 0.79238 0.21563 0.55856
 O531 O 0.75139 0.32322 0.46151
 O532 O 0.70250 0.31424 0.46174
 O533 O 0.78429 0.25036 0.42405
 O534 O 0.78083 0.20078 0.43495
 O535 O 0.82009 0.28212 0.49816
 O536 O 0.80678 0.27889 0.54711
 Zr537 Zr 0.77920 0.28143 0.51325
 O538 O 0.75251 0.25804 0.53855
 Zr539 Zr 0.78032 0.23307 0.46445
 O540 O 0.75482 0.20704 0.48816
 Zr541 Zr 0.73362 0.28345 0.46183
 O542 O 0.70554 0.25918 0.48436
 Zr543 Zr 0.75871 0.21560 0.53082
 O544 O 0.78748 0.23886 0.50723
 Zr545 Zr 0.71133 0.26523 0.52709
 O546 O 0.73786 0.29187 0.50439
 Zr547 Zr 0.71397 0.21676 0.47860
 O548 O 0.73949 0.24104 0.45266
 O549 O 0.77444 0.27521 0.47099
 O550 O 0.71749 0.22273 0.52148
 C551 C 0.77008 0.33415 0.47668
 C552 C 0.83203 0.26800 0.47891
 C553 C 0.77226 0.27110 0.41197
 C554 C 0.72165 0.16498 0.51749
 C555 C 0.72207 0.23182 0.58192
 C556 C 0.66126 0.22750 0.51269
 H557 H 0.75634 0.26317 0.55801
 H558 H 0.68669 0.26401 0.47839
 H559 H 0.78705 0.28686 0.45988
 H560 H 0.75934 0.18745 0.48406
 H561 H 0.79153 0.17604 0.51607
 H562 H 0.81802 0.20128 0.48502
 H563 H 0.67213 0.29627 0.50738
 H564 H 0.70312 0.32320 0.48018
 H565 H 0.78933 0.23091 0.57187
 H566 H 0.81756 0.26156 0.54478
 H567 H 0.67941 0.23405 0.44167
 H568 H 0.70638 0.26644 0.41935
 H569 H 0.76041 0.32146 0.54319
 H570 H 0.72528 0.29811 0.56683
 H571 H 0.76355 0.20250 0.42431
 H572 H 0.73069 0.17454 0.44968
 O573 O 0.78525 0.81984 -0.01191
 O574 O 0.77820 0.81147 0.03823
 O575 O 0.82346 0.74578 -0.03797
 O576 O 0.81478 0.69971 -0.03588
 O577 O 0.75479 0.77865 -0.08363
 O578 O 0.70437 0.77764 -0.07423
 O579 O 0.74020 0.67476 0.02825
 O580 O 0.79100 0.68163 0.02547
 O581 O 0.71246 0.74898 0.06488
 O582 O 0.71623 0.80062 0.04801
 O583 O 0.67690 0.71151 -0.00401
 O584 O 0.68708 0.71947 -0.05761
 O585 O 0.71430 0.67417 -0.01070
 O586 O 0.71144 0.68567 -0.05642
 O587 O 0.67533 0.74737 0.02640
 O588 O 0.68246 0.79394 0.02376
 O589 O 0.74374 0.71401 0.06645
 O590 O 0.78864 0.71096 0.06040
 O591 O 0.75282 0.81997 -0.04583
 O592 O 0.70577 0.81161 -0.04814
 O593 O 0.78720 0.74477 -0.07980
 O594 O 0.78227 0.69683 -0.06789
 O595 O 0.82143 0.78125 -0.00699
 O596 O 0.80921 0.78079 0.04091
 Zr597 Zr 0.78104 0.78039 0.00749
 O598 O 0.75584 0.75648 0.03374
 Zr599 Zr 0.78310 0.72987 -0.03903
 O600 O 0.75653 0.70465 -0.01573
 Zr601 Zr 0.73567 0.77990 -0.04391
 O602 O 0.70756 0.75760 -0.01902
 Zr603 Zr 0.76101 0.71357 0.02655
 O604 O 0.78976 0.73743 0.00346
 Zr605 Zr 0.71473 0.76441 0.02350
 O606 O 0.73987 0.79035 -0.00157
 Zr607 Zr 0.71532 0.71516 -0.02436
 O608 O 0.74203 0.73731 -0.05102
 O609 O 0.77659 0.77224 -0.03455
 O610 O 0.71990 0.72171 0.01819
 C611 C 0.77270 0.83131 -0.03262
 C612 C 0.83405 0.76630 -0.02482
 C613 C 0.77508 0.76429 -0.09329
 C614 C 0.72321 0.66288 0.01152
 C615 C 0.72570 0.72970 0.07801
 C616 C 0.66478 0.72610 0.01472
 H617 H 0.76018 0.76146 0.05313
 H618 H 0.68850 0.76259 -0.02414
 H619 H 0.78917 0.78329 -0.04631
 H620 H 0.76088 0.68499 -0.01980
 H621 H 0.80846 0.69040 0.01971
 H622 H 0.80715 0.68313 -0.02648
 H623 H 0.67907 0.79932 0.00422
 H624 H 0.70427 0.82054 -0.02974
 H625 H 0.79528 0.73000 0.06371
 H626 H 0.81932 0.76289 0.04039
 H627 H 0.67039 0.72887 -0.05057
 H628 H 0.70754 0.76027 -0.08467
 H629 H 0.76277 0.82389 0.03291
 H630 H 0.73181 0.79826 0.06097
 H631 H 0.76569 0.69949 -0.07951
 H632 H 0.72991 0.67762 -0.05939
 O633 O 1.00945 0.16836 0.22596
 O634 O 0.95926 0.17905 0.22848
 O635 O 1.03999 0.24116 0.18356
 O636 O 1.04282 0.28625 0.19098
 O637 O 1.07742 0.20582 0.25845
 O638 O 1.06706 0.21477 0.30766
 O639 O 0.97122 0.31744 0.25513
 O640 O 0.97817 0.30614 0.20604
 O641 O 0.93205 0.24886 0.28948
 O642 O 0.94319 0.19682 0.28895
 O643 O 1.00029 0.28305 0.32770
 O644 O 1.05188 0.27754 0.31900
 O645 O 1.00407 0.31899 0.28861
 O646 O 1.05131 0.30846 0.29032
 O647 O 0.96780 0.24933 0.32878
 O648 O 0.96742 0.20083 0.32224
 O649 O 0.93311 0.28055 0.25430
 O650 O 0.94336 0.27852 0.20703
 O651 O 1.03840 0.16932 0.26283
 O652 O 1.03736 0.18341 0.30997
 O653 O 1.07775 0.23670 0.22237
 O654 O 1.07031 0.28774 0.22701
 O655 O 1.00758 0.20734 0.18420
 O656 O 0.96023 0.20373 0.19487
 Zr657 Zr 0.99110 0.20855 0.22510
 O658 O 0.96419 0.23510 0.24687
 Zr659 Zr 1.03943 0.25713 0.22396
 O660 O 1.01489 0.28536 0.24626
 Zr661 Zr 1.03782 0.21085 0.27548
 O662 O 1.01262 0.23660 0.29984
 Zr663 Zr 0.97337 0.27703 0.23877
 O664 O 0.99776 0.25052 0.21384
 Zr665 Zr 0.97121 0.23026 0.28971
 O666 O 0.99631 0.20153 0.26810
 Zr667 Zr 1.02000 0.27830 0.28911
 O668 O 1.04749 0.25254 0.26669
 O669 O 1.03196 0.21571 0.23294
 O670 O 0.97829 0.27225 0.28153
 C671 C 1.02746 0.15699 0.24219
 C672 C 1.02614 0.22193 0.17178
 C673 C 1.08864 0.21714 0.23709
 C674 C 0.98471 0.33008 0.27418
 C675 C 0.92090 0.26783 0.27427
 C676 C 0.98069 0.26979 0.33961
 H677 H 0.94509 0.23069 0.24171
 H678 H 1.01623 0.23275 0.31970
 H679 H 1.04289 0.20322 0.22130
 H680 H 1.01967 0.30461 0.24094
 H681 H 0.98684 0.29611 0.19039
 H682 H 1.03246 0.30314 0.19625
 H683 H 0.98596 0.19800 0.33008
 H684 H 1.01962 0.17353 0.30937
 H685 H 0.93619 0.25952 0.20500
 H686 H 0.95610 0.22265 0.18795
 H687 H 1.04712 0.26364 0.33341
 H688 H 1.07787 0.23163 0.30348
 H689 H 0.96233 0.16871 0.24606
 H690 H 0.93015 0.20022 0.27354
 H691 H 1.08150 0.28315 0.24361
 H692 H 1.05468 0.31441 0.27095
 O693 O 0.74311 1.07150 0.70436
 O694 O 0.79100 1.06392 0.70212
 O695 O 0.71217 0.99499 0.66953
 O696 O 0.71171 0.95042 0.68005
 O697 O 0.67651 1.03267 0.74291
 O698 O 0.68843 1.03077 0.79102
 O699 O 0.79062 0.92779 0.74239
 O700 O 0.78447 0.93478 0.69556
 O701 O 0.82371 1.00072 0.77448
 O702 O 0.81397 1.04822 0.77265
 O703 O 0.75604 0.96599 0.81602
 O704 O 0.70934 0.96040 0.80747
 O705 O 0.76237 0.92808 0.77975
 O706 O 0.70879 0.93379 0.77520
 O707 O 0.78752 1.00055 0.81360
 O708 O 0.78162 1.05190 0.79909
 O709 O 0.82467 0.96762 0.74094
 O710 O 0.81155 0.97040 0.69033
 O711 O 0.71197 1.07124 0.73957
 O712 O 0.71929 1.06176 0.78938
 O713 O 0.67561 0.99788 0.71112
 O714 O 0.68961 0.94706 0.71834
 O715 O 0.74192 1.03108 0.66671
 O716 O 0.79201 1.03091 0.67450
 Zr717 Zr 0.76169 1.03194 0.70588
 O718 O 0.79065 1.01013 0.73019
 Zr719 Zr 0.71596 0.98114 0.71088
 O720 O 0.74389 0.95620 0.73367
 Zr721 Zr 0.71681 1.03154 0.75780
 O722 O 0.74299 1.00806 0.78366
 Zr723 Zr 0.78453 0.96740 0.72474
 O724 O 0.75679 0.98917 0.69852
 Zr725 Zr 0.78371 1.01691 0.77278
 O726 O 0.75750 1.04236 0.74821
 Zr727 Zr 0.73902 0.96522 0.77596
 O728 O 0.70931 0.98865 0.75335
 O729 O 0.72121 1.02357 0.71569
 O730 O 0.77977 0.97421 0.76724
 C731 C 0.72372 1.08274 0.71857
 C732 C 0.72290 1.01563 0.65655
 C733 C 0.66449 1.01815 0.72442
 C734 C 0.78130 0.91681 0.76479
 C735 C 0.83560 0.98128 0.76084
 C736 C 0.77472 0.98120 0.82683
 H737 H 0.80934 1.01585 0.72477
 H738 H 0.73866 1.01272 0.80315
 H739 H 0.70853 1.03460 0.70390
 H740 H 0.74084 0.93633 0.72971
 H741 H 0.77227 0.94081 0.68020
 H742 H 0.72672 0.93683 0.68304
 H743 H 0.76820 1.04773 0.81392
 H744 H 0.73502 1.07385 0.78475
 H745 H 0.82410 0.98615 0.69341
 H746 H 0.78976 1.01310 0.66461
 H747 H 0.70249 0.97929 0.81157
 H748 H 0.67824 1.01310 0.78962
 H749 H 0.79190 1.07299 0.72049
 H750 H 0.81955 1.05119 0.75313
 H751 H 0.67786 0.95202 0.73434
 H752 H 0.71612 0.91790 0.76452
 O753 O 0.76355 0.46808 0.32379
 O754 O 0.71400 0.47094 0.31538
 O755 O 0.78598 0.43016 0.24428
 O756 O 0.79574 0.44328 0.20106
 O757 O 0.83189 0.49841 0.28611
 O758 O 0.82509 0.54896 0.28140
 O759 O 0.72118 0.51061 0.17915
 O760 O 0.72631 0.46160 0.18659
 O761 O 0.68647 0.54110 0.25257
 O762 O 0.69777 0.54118 0.30020
 O763 O 0.75828 0.58057 0.21800
 O764 O 0.80488 0.56989 0.21546
 O765 O 0.75472 0.54329 0.17880
 O766 O 0.80626 0.53801 0.18864
 O767 O 0.72490 0.57935 0.25087
 O768 O 0.72965 0.56660 0.30207
 O769 O 0.68552 0.50924 0.21793
 O770 O 0.69382 0.46102 0.21844
 O771 O 0.79406 0.50350 0.32437
 O772 O 0.79535 0.55179 0.31280
 O773 O 0.82958 0.46486 0.25311
 O774 O 0.82074 0.47761 0.20195
 O775 O 0.76234 0.43084 0.28465
 O776 O 0.71300 0.44124 0.28348
 Zr777 Zr 0.74457 0.47115 0.28423
 O778 O 0.71795 0.49705 0.26122
 Zr779 Zr 0.79113 0.47214 0.23365
 O780 O 0.76625 0.49769 0.20831
 Zr781 Zr 0.79340 0.51921 0.28366
 O782 O 0.76886 0.54707 0.26048
 Zr783 Zr 0.72490 0.49164 0.21843
 O784 O 0.74945 0.46330 0.24137
 Zr785 Zr 0.72714 0.53903 0.26809
 O786 O 0.75173 0.51316 0.29409
 Zr787 Zr 0.77386 0.53952 0.21788
 O788 O 0.80125 0.51393 0.24111
 O789 O 0.78538 0.47787 0.27584
 O790 O 0.73207 0.53379 0.22542
 C791 C 0.78248 0.48243 0.33562
 C792 C 0.77803 0.41865 0.26690
 C793 C 0.84168 0.47706 0.27338
 C794 C 0.73439 0.53063 0.16766
 C795 C 0.67410 0.52774 0.23317
 C796 C 0.73890 0.59202 0.23209
 H797 H 0.69887 0.49280 0.26670
 H798 H 0.77399 0.56628 0.26529
 H799 H 0.79599 0.46513 0.28754
 H800 H 0.76978 0.49350 0.18856
 H801 H 0.73475 0.44464 0.19474
 H802 H 0.78037 0.44654 0.18803
 H803 H 0.74398 0.58046 0.29783
 H804 H 0.77732 0.55234 0.32221
 H805 H 0.68637 0.45968 0.23748
 H806 H 0.71471 0.43141 0.26556
 H807 H 0.81016 0.57414 0.23478
 H808 H 0.83571 0.54497 0.26434
 H809 H 0.71746 0.48719 0.32736
 H810 H 0.69396 0.52180 0.30577
 H811 H 0.83400 0.49156 0.20864
 H812 H 0.80168 0.52379 0.17468
 O813 O 0.42397 0.25369 0.78052
 O814 O 0.43589 0.20688 0.78634
 O815 O 0.49729 0.28909 0.82505
 O816 O 0.54126 0.29027 0.81871
 O817 O 0.46322 0.32690 0.75227
 O818 O 0.47059 0.31798 0.70314
 O819 O 0.57150 0.21547 0.75420
 O820 O 0.56131 0.22243 0.80188
 O821 O 0.50301 0.17914 0.71899
 O822 O 0.45535 0.19024 0.71344
 O823 O 0.53701 0.25360 0.67990
 O824 O 0.53935 0.29997 0.69019
 O825 O 0.57274 0.24764 0.71935
 O826 O 0.56355 0.30090 0.72416
 O827 O 0.50850 0.21669 0.68025
 O828 O 0.45608 0.22137 0.68692
 O829 O 0.53460 0.17966 0.75370
 O830 O 0.52892 0.19026 0.80274
 O831 O 0.42595 0.28557 0.74564
 O832 O 0.44104 0.28792 0.69960
 O833 O 0.49637 0.32767 0.78557
 O834 O 0.54613 0.31620 0.78174
 O835 O 0.46361 0.25649 0.82449
 O836 O 0.46404 0.20711 0.81446
 Zr837 Zr 0.46505 0.23900 0.78411
 O838 O 0.49015 0.21180 0.76102
 Zr839 Zr 0.51347 0.28750 0.78509
 O840 O 0.54105 0.26188 0.76319
 Zr841 Zr 0.46751 0.28702 0.73436
 O842 O 0.49337 0.26228 0.70949
 Zr843 Zr 0.53157 0.21988 0.77001
 O844 O 0.50640 0.24535 0.79510
 Zr845 Zr 0.48667 0.21998 0.71816
 O846 O 0.45855 0.24464 0.74109
 Zr847 Zr 0.53456 0.26850 0.72059
 O848 O 0.50882 0.29627 0.74259
 O849 O 0.47185 0.28094 0.77697
 O850 O 0.52783 0.22623 0.72722
 C851 C 0.41257 0.27114 0.76357
 C852 C 0.47813 0.27519 0.83664
 C853 C 0.47678 0.33898 0.77167
 C854 C 0.58328 0.22761 0.73367
 C855 C 0.52159 0.16742 0.73415
 C856 C 0.52692 0.23196 0.66864
 H857 H 0.48493 0.19247 0.76552
 H858 H 0.48994 0.26699 0.68977
 H859 H 0.45902 0.29232 0.78815
 H860 H 0.56018 0.26579 0.76867
 H861 H 0.55231 0.23165 0.81782
 H862 H 0.55693 0.27781 0.81463
 H863 H 0.46217 0.23441 0.67223
 H864 H 0.43430 0.26872 0.69730
 H865 H 0.51292 0.17823 0.79923
 H866 H 0.48238 0.20673 0.82319
 H867 H 0.52081 0.30410 0.68283
 H868 H 0.48740 0.32871 0.70712
 H869 H 0.43132 0.20240 0.76690
 H870 H 0.45208 0.18209 0.73200
 H871 H 0.54251 0.32799 0.76519
 H872 H 0.57825 0.29459 0.73694
 O873 O 0.32487 0.74599 0.45825
 O874 O 0.31491 0.69751 0.45882
 O875 O 0.25247 0.78099 0.42050
 O876 O 0.20771 0.78251 0.42965
 O877 O 0.28824 0.81816 0.49474
 O878 O 0.28724 0.80626 0.54220
 O879 O 0.18069 0.70878 0.49749
 O880 O 0.18753 0.71422 0.44943
 O881 O 0.25140 0.67092 0.52898
 O882 O 0.29934 0.68010 0.52869
 O883 O 0.21653 0.74057 0.56697
 O884 O 0.22074 0.79181 0.55816
 O885 O 0.18013 0.74345 0.52937
 O886 O 0.19136 0.79314 0.52912
 O887 O 0.25172 0.70956 0.56755
 O888 O 0.30197 0.71093 0.55509
 O889 O 0.21732 0.67182 0.49687
 O890 O 0.21988 0.68230 0.44647
 O891 O 0.32552 0.78007 0.49070
 O892 O 0.31687 0.77331 0.54076
 O893 O 0.25651 0.81882 0.45999
 O894 O 0.20627 0.80973 0.46583
 O895 O 0.28412 0.74612 0.41899
 O896 O 0.28410 0.69707 0.43052
 Zr897 Zr 0.28494 0.72944 0.45990
 O898 O 0.26137 0.70277 0.48496
 Zr899 Zr 0.23751 0.77931 0.46148
 O900 O 0.21120 0.75421 0.48564
 Zr901 Zr 0.28653 0.77717 0.50954
 O902 O 0.26199 0.75306 0.53632
 Zr903 Zr 0.21958 0.71184 0.47898
 O904 O 0.24310 0.73688 0.45163
 Zr905 Zr 0.26841 0.71100 0.52717
 O906 O 0.29508 0.73496 0.50207
 Zr907 Zr 0.22012 0.76010 0.52789
 O908 O 0.24472 0.78735 0.50374
 O909 O 0.27884 0.77129 0.46749
 O910 O 0.22651 0.71779 0.52125
 C911 C 0.33652 0.76632 0.47072
 C912 C 0.27053 0.76631 0.40768
 C913 C 0.27551 0.83011 0.47464
 C914 C 0.16888 0.72314 0.51647
 C915 C 0.23146 0.65953 0.51593
 C916 C 0.23076 0.72130 0.57878
 H917 H 0.26598 0.68331 0.48038
 H918 H 0.26666 0.75734 0.55579
 H919 H 0.29022 0.78285 0.45516
 H920 H 0.19188 0.75876 0.48119
 H921 H 0.19494 0.72431 0.43312
 H922 H 0.19201 0.77083 0.43524
 H923 H 0.29949 0.72673 0.56790
 H924 H 0.32757 0.75628 0.53664
 H925 H 0.23522 0.66913 0.44974
 H926 H 0.26525 0.69692 0.42293
 H927 H 0.23591 0.78771 0.57124
 H928 H 0.26849 0.81418 0.54334
 H929 H 0.32497 0.69828 0.47667
 H930 H 0.30182 0.67338 0.50950
 H931 H 0.21097 0.82097 0.48229
 H932 H 0.18169 0.79349 0.51109
 O933 O 0.32256 0.24385 0.96227
 O934 O 0.30858 0.19522 0.96234
 O935 O 0.25385 0.28045 0.91800
 O936 O 0.20921 0.28717 0.92496
 O937 O 0.28660 0.31778 0.99464
 O938 O 0.28183 0.30503 1.04370
 O939 O 0.17443 0.21412 0.99382
 O940 O 0.18230 0.22394 0.94402
 O941 O 0.23934 0.17140 1.02288
 O942 O 0.28979 0.17972 1.02605
 O943 O 0.21166 0.24705 1.06406
 O944 O 0.21708 0.29842 1.05072
 O945 O 0.17482 0.24842 1.02603
 O946 O 0.18443 0.29537 1.02510
 O947 O 0.23719 0.20765 1.06278
 O948 O 0.28726 0.20587 1.05789
 O949 O 0.20947 0.17559 0.98709
 O950 O 0.21131 0.18842 0.94068
 O951 O 0.32306 0.27511 0.99721
 O952 O 0.31019 0.27369 1.04357
 O953 O 0.25767 0.32019 0.95750
 O954 O 0.20815 0.31500 0.96061
 O955 O 0.28688 0.24735 0.92083
 O956 O 0.28157 0.19884 0.92945
 Zr957 Zr 0.28165 0.22979 0.96041
 O958 O 0.25400 0.20448 0.98222
 Zr959 Zr 0.23704 0.28200 0.95839
 O960 O 0.20753 0.25930 0.98112
 Zr961 Zr 0.28215 0.27686 1.01021
 O962 O 0.25522 0.25317 1.03475
 Zr963 Zr 0.21324 0.21678 0.97408
 O964 O 0.24086 0.23953 0.94884
 Zr965 Zr 0.25874 0.21064 1.02500
 O966 O 0.28861 0.23411 1.00323
 Zr967 Zr 0.21484 0.26387 1.02389
 O968 O 0.24180 0.28969 1.00120
 O969 O 0.27765 0.27203 0.96756
 O970 O 0.21813 0.22124 1.01676
 C971 C 0.33505 0.26109 0.97815
 C972 C 0.27347 0.26597 0.90730
 C973 C 0.27550 0.33067 0.97394
 C974 C 0.16320 0.22826 1.01349
 C975 C 0.22082 0.16158 1.00658
 C976 C 0.22051 0.22437 1.07500
 H977 H 0.25773 0.18505 0.97680
 H978 H 0.25918 0.25687 1.05451
 H979 H 0.29093 0.28300 0.95653
 H980 H 0.18868 0.26518 0.97613
 H981 H 0.19144 0.23236 0.92767
 H982 H 0.19168 0.27848 0.93045
 H983 H 0.28594 0.22254 1.06972
 H984 H 0.31523 0.25378 1.04513
 H985 H 0.22941 0.17914 0.93941
 H986 H 0.26474 0.20184 0.91828
 H987 H 0.23007 0.29358 1.06583
 H988 H 0.26522 0.31671 1.04145
 H989 H 0.31764 0.19581 0.98072
 H990 H 0.28800 0.16854 1.00899
 H991 H 0.21146 0.32480 0.97830
 H992 H 0.17991 0.30027 1.00566
 C993 C 0.32069 0.35794 0.80074
 C994 C 0.30156 0.33674 0.79565
 C995 C 0.27642 0.34372 0.78318
 C996 C 0.26991 0.37148 0.77727
 C997 C 0.28983 0.39223 0.77986
 C998 C 0.31646 0.38463 0.78891
 C999 C 0.34557 0.35196 0.81423
 C1000 C 0.36789 0.36927 0.81064
 C1001 C 0.36521 0.39344 0.79480
 C1002 C 0.33939 0.40190 0.78525
 H1003 H 0.34846 0.33298 0.82582
 H1004 H 0.38735 0.36301 0.81931
 H1005 H 0.38299 0.40601 0.79045
 H1006 H 0.33792 0.42135 0.77415
 H1007 H 0.26165 0.32769 0.77859
 H1008 H 0.24963 0.37664 0.76951
 C1009 C 0.32513 -0.15130 0.27412
 C1010 C 0.30643 -0.16958 0.28828
 C1011 C 0.27911 -0.16024 0.29090
 C1012 C 0.27134 -0.13314 0.28391
 C1013 C 0.29060 -0.11368 0.27460
 C1014 C 0.31819 -0.12258 0.27092
 C1015 C 0.35007 -0.16023 0.26203
 C1016 C 0.37007 -0.14133 0.25380
 C1017 C 0.36514 -0.11304 0.25620
 C1018 C 0.33927 -0.10370 0.26416
 H1019 H 0.35411 -0.18161 0.25745
 H1020 H 0.38943 -0.14869 0.24558
 H1021 H 0.38096 -0.09829 0.25075
 H1022 H 0.33622 -0.08164 0.26528
 H1023 H 0.26355 -0.17386 0.29931
 H1024 H 0.24999 -0.12723 0.28632
 C1025 C 0.82953 0.85489 0.78393
 C1026 C 0.80962 0.83563 0.79437
 C1027 C 0.78224 0.84474 0.79601
 C1028 C 0.77406 0.87089 0.78671
 C1029 C 0.79251 0.88921 0.77414
 C1030 C 0.82069 0.88099 0.77222
 C1031 C 0.85804 0.84906 0.78471
 C1032 C 0.87700 0.86670 0.77233
 C1033 C 0.86828 0.89097 0.75949
 C1034 C 0.84062 0.89819 0.75957
 H1035 H 0.86636 0.83061 0.79414
 H1036 H 0.89861 0.86136 0.77250
 H1037 H 0.88313 0.90466 0.74990
 H1038 H 0.83566 0.91773 0.75006
 H1039 H 0.76642 0.83142 0.80404
 H1040 H 0.75258 0.87651 0.78859
 C1041 C 0.48109 0.91211 0.29071
 C1042 C 0.45281 0.91453 0.29733
 C1043 C 0.43559 0.89181 0.29252
 C1044 C 0.44601 0.86679 0.28285
 C1045 C 0.47415 0.86312 0.27827
 C1046 C 0.49191 0.88617 0.28132
 C1047 C 0.49871 0.93518 0.29238
 C1048 C 0.52642 0.93270 0.28567
 C1049 C 0.53699 0.90743 0.27660
 C1050 C 0.51992 0.88444 0.27412
 H1051 H 0.49121 0.95547 0.29817
 H1052 H 0.53967 0.95060 0.28708
 H1053 H 0.55842 0.90576 0.27097
 H1054 H 0.52874 0.86569 0.26577
 H1055 H 0.41389 0.89308 0.29702
 H1056 H 0.43195 0.84978 0.27973
 C1057 C -0.03830 0.90228 0.82285
 C1058 C -0.04924 0.92096 0.80236
 C1059 C -0.04899 0.91254 0.77448
 C1060 C -0.03923 0.88659 0.76670
 C1061 C -0.02722 0.86845 0.78602
 C1062 C -0.02493 0.87716 0.81435
 C1063 C -0.04120 0.90717 0.85167
 C1064 C -0.02749 0.89094 0.87130
 C1065 C -0.01191 0.86841 0.86288
 C1066 C -0.01107 0.86115 0.83496
 H1067 H -0.05431 0.92326 0.85969
 H1068 H -0.02943 0.89558 0.89319
 H1069 H -0.00142 0.85567 0.87824
 H1070 H 0.00031 0.84261 0.83059
 H1071 H -0.05717 0.92601 0.75838
 H1072 H -0.04069 0.88081 0.74504
 C1073 C -0.02338 -0.15879 -0.04698
 C1074 C -0.05206 -0.16403 -0.04815
 C1075 C -0.06995 -0.14408 -0.03673
 C1076 C -0.06055 -0.11857 -0.02761
 C1077 C -0.03276 -0.11170 -0.02905
 C1078 C -0.01368 -0.13248 -0.03750
 C1079 C -0.00400 -0.17962 -0.05350
 C1080 C 0.02405 -0.17453 -0.05208
 C1081 C 0.03346 -0.14898 -0.04302
 C1082 C 0.01488 -0.12836 -0.03527
 H1083 H -0.01007 -0.20040 -0.05840
 H1084 H 0.03857 -0.19081 -0.05721
 H1085 H 0.05529 -0.14540 -0.04116
 H1086 H 0.02322 -0.10981 -0.02640
 H1087 H -0.09178 -0.14736 -0.03583
 H1088 H -0.07547 -0.10366 -0.02011
 C1089 C -0.02840 0.33944 0.46577
 C1090 C -0.05446 0.33881 0.45247
 C1091 C -0.06994 0.36338 0.45057
 C1092 C -0.06005 0.38825 0.46125
 C1093 C -0.03426 0.38946 0.47401
 C1094 C -0.01815 0.36500 0.47633
 C1095 C -0.01255 0.31511 0.46948
 C1096 C 0.01301 0.31595 0.48244
 C1097 C 0.02312 0.34093 0.49239
 C1098 C 0.00767 0.36525 0.48962
 H1099 H -0.01979 0.29518 0.46291
 H1100 H 0.02491 0.29704 0.48502
 H1101 H 0.04289 0.34142 0.50262
 H1102 H 0.01600 0.38407 0.49828
 H1103 H -0.08972 0.36329 0.44032
 H1104 H -0.07240 0.40691 0.45898
 C1105 C 0.42462 -0.14194 0.45621
 C1106 C 0.44551 -0.16145 0.44904
 C1107 C 0.47277 -0.15528 0.45601
 C1108 C 0.47965 -0.13022 0.46836
 C1109 C 0.45944 -0.11108 0.47637
 C1110 C 0.43136 -0.11806 0.47231
 C1111 C 0.39723 -0.14503 0.44725
 C1112 C 0.37634 -0.12873 0.45829
 C1113 C 0.38243 -0.10799 0.47711
 C1114 C 0.40965 -0.10181 0.48313
 H1115 H 0.39154 -0.15980 0.43161
 H1116 H 0.35536 -0.13229 0.45231
 H1117 H 0.36602 -0.09578 0.48613
 H1118 H 0.41297 -0.08468 0.49685
 H1119 H 0.48913 -0.16975 0.45107
 H1120 H 0.50115 -0.12566 0.47162
 C1121 C 0.47311 0.33244 -0.02681
 C1122 C 0.44851 0.33119 -0.04259
 C1123 C 0.43261 0.35539 -0.04592
 C1124 C 0.44080 0.38051 -0.03439
 C1125 C 0.46513 0.38223 -0.01906
 C1126 C 0.48140 0.35812 -0.01494
 C1127 C 0.48959 0.30872 -0.02230
 C1128 C 0.51364 0.31012 -0.00670
 C1129 C 0.52167 0.33515 0.00492
 C1130 C 0.50572 0.35897 0.00098
 H1131 H 0.48411 0.28894 -0.03056
 H1132 H 0.52603 0.29162 -0.00350
 H1133 H 0.54026 0.33609 0.01717
 H1134 H 0.51245 0.37792 0.01073
 H1135 H 0.41392 0.35480 -0.05807
 H1136 H 0.42854 0.39896 -0.03826
 C1137 C 0.78203 0.41246 0.47502
 C1138 C 0.80042 0.41394 0.45236
 C1139 C 0.80795 0.38970 0.43837
 C1140 C 0.79791 0.36408 0.44683
 C1141 C 0.77951 0.36204 0.46899
 C1142 C 0.77139 0.38622 0.48342
 C1143 C 0.77377 0.43655 0.48927
 C1144 C 0.75551 0.43479 0.51152
 C1145 C 0.74515 0.40910 0.51982
 C1146 C 0.75292 0.38496 0.50592
 H1147 H 0.78119 0.45685 0.48323
 H1148 H 0.74931 0.45344 0.52233
 H1149 H 0.73096 0.40790 0.53706
 H1150 H 0.74435 0.36540 0.51282
 H1151 H 0.82236 0.39069 0.42127
 H1152 H 0.80504 0.34558 0.43640
 C1153 C 0.80060 0.88974 -0.07977
 C1154 C 0.80383 0.91130 -0.06013
 C1155 C 0.79815 0.90558 -0.03209
 C1156 C 0.78829 0.87967 -0.02357
 C1157 C 0.78283 0.85874 -0.04289
 C1158 C 0.78880 0.86390 -0.07143
 C1159 C 0.80996 0.89274 -0.10734
 C1160 C 0.80465 0.87249 -0.12711
 C1161 C 0.79076 0.84868 -0.11960
 C1162 C 0.78422 0.84370 -0.09198
 H1163 H 0.82205 0.91026 -0.11366
 H1164 H 0.81146 0.87484 -0.14832
 H1165 H 0.78566 0.83363 -0.13515
 H1166 H 0.77579 0.82379 -0.08734
 H1167 H 0.80108 0.92159 -0.01670
 H1168 H 0.78427 0.87614 -0.00171
 C1169 C 0.79349 0.27358 0.33512
 C1170 C 0.80352 0.30126 0.33357
 C1171 C 0.80178 0.31809 0.35710
 C1172 C 0.79097 0.30793 0.38187
 C1173 C 0.78236 0.28032 0.38442
 C1174 C 0.78329 0.26290 0.36086
 C1175 C 0.79263 0.25651 0.31147
 C1176 C 0.78299 0.22934 0.31324
 C1177 C 0.77351 0.21881 0.33842
 C1178 C 0.77336 0.23545 0.36200
 H1179 H 0.79876 0.26407 0.29132
 H1180 H 0.78256 0.21649 0.29488
 H1181 H 0.76579 0.19780 0.33959
 H1182 H 0.76495 0.22679 0.38088
 H1183 H 0.80930 0.33922 0.35634
 H1184 H 0.78981 0.32165 0.39947
 C1185 C 0.82345 0.79395 -0.14811
 C1186 C 0.80585 0.79644 -0.17141
 C1187 C 0.77908 0.78593 -0.16914
 C1188 C 0.76910 0.77595 -0.14367
 C1189 C 0.78671 0.77219 -0.12087
 C1190 C 0.81500 0.77851 -0.12434
 C1191 C 0.85022 0.80458 -0.14890
 C1192 C 0.87001 0.79484 -0.13050
 C1193 C 0.86293 0.77619 -0.10974
 C1194 C 0.83551 0.76947 -0.10550
 H1195 H 0.85645 0.81891 -0.16475
 H1196 H 0.89099 0.80098 -0.13298
 H1197 H 0.87865 0.76756 -0.09629
 H1198 H 0.83146 0.75589 -0.08832
 H1199 H 0.76559 0.78601 -0.18699
 H1200 H 0.74768 0.77030 -0.14199
 C1201 C 0.32684 0.46802 0.90433
 C1202 C 0.30779 0.45295 0.92112
 C1203 C 0.28041 0.45158 0.91234
 C1204 C 0.27195 0.46326 0.88732
 C1205 C 0.28993 0.47876 0.87077
 C1206 C 0.31719 0.48349 0.88074
 C1207 C 0.35545 0.46702 0.90929
 C1208 C 0.37340 0.48430 0.89499
 C1209 C 0.36350 0.50215 0.87460
 C1210 C 0.33590 0.50156 0.86717
 H1211 H 0.36465 0.45206 0.92316
 H1212 H 0.39517 0.48352 0.89947
 H1213 H 0.37749 0.51576 0.86367
 H1214 H 0.33015 0.51561 0.85077
 H1215 H 0.26538 0.44063 0.92476
 H1216 H 0.25095 0.46001 0.88077
 C1217 C 0.26637 -0.05001 0.40897
 C1218 C 0.29422 -0.04610 0.41678
 C1219 C 0.31105 -0.03082 0.39863
 C1220 C 0.30230 -0.02338 0.37219
 C1221 C 0.27627 -0.03068 0.36232
 C1222 C 0.25743 -0.04291 0.38142
 C1223 C 0.24685 -0.05951 0.42838
 C1224 C 0.21969 -0.06382 0.42071
 C1225 C 0.21115 -0.05780 0.39382
 C1226 C 0.22960 -0.04700 0.37453
 H1227 H 0.25194 -0.06235 0.44997
 H1228 H 0.20504 -0.07122 0.43590
 H1229 H 0.18988 -0.06067 0.38810
 H1230 H 0.22134 -0.04105 0.35475
 H1231 H 0.33192 -0.02577 0.40398
 H1232 H 0.31687 -0.01292 0.35880
 C1233 C -0.06956 -0.01995 -0.15078
 C1234 C -0.05149 -0.03381 -0.16944
 C1235 C -0.02366 -0.03583 -0.16156
 C1236 C -0.01543 -0.03052 -0.13418
 C1237 C -0.03478 -0.02333 -0.11382
 C1238 C -0.06244 -0.01870 -0.12224
 C1239 C -0.09447 -0.00730 -0.15921
 C1240 C -0.11400 0.00096 -0.13978
 C1241 C -0.10904 -0.00324 -0.11167
 C1242 C -0.08352 -0.01309 -0.10299
 H1243 H -0.09876 -0.00251 -0.18063
 H1244 H -0.13312 0.01028 -0.14659
 H1245 H -0.12465 0.00187 -0.09653
 H1246 H -0.08055 -0.01668 -0.08124
 H1247 H -0.00877 -0.04448 -0.17582
 H1248 H 0.00596 -0.03319 -0.12862
 C1249 C -0.03290 0.42253 0.36417
 C1250 C -0.04784 0.44027 0.34544
 C1251 C -0.05272 0.46789 0.35354
 C1252 C -0.04385 0.47798 0.37898
 C1253 C -0.02807 0.46160 0.39708
 C1254 C -0.02129 0.43379 0.38905
 C1255 C -0.02942 0.39375 0.35940
 C1256 C -0.01090 0.37795 0.37483
 C1257 C 0.00183 0.38917 0.39767
 C1258 C -0.00386 0.41633 0.40526
 H1259 H -0.04105 0.38260 0.34429
 H1260 H -0.00654 0.35673 0.36931
 H1261 H 0.01575 0.37654 0.41002
 H1262 H 0.00650 0.42276 0.42359
 H1263 H -0.06380 0.48205 0.34002
 H1264 H -0.04901 0.49921 0.38433
 C1265 C 0.45617 -0.02122 0.34016
 C1266 C 0.45265 -0.05007 0.33551
 C1267 C 0.45975 -0.06888 0.35678
 C1268 C 0.46661 -0.05961 0.38317
 C1269 C 0.46773 -0.03116 0.38903
 C1270 C 0.46395 -0.01170 0.36702
 C1271 C 0.45371 -0.00174 0.31827
 C1272 C 0.45799 0.02647 0.32274
 C1273 C 0.46571 0.03574 0.34884
 C1274 C 0.46912 0.01686 0.37065
 H1275 H 0.44979 -0.00811 0.29729
 H1276 H 0.45608 0.04111 0.30566
 H1277 H 0.46979 0.05757 0.35204
 H1278 H 0.47694 0.02475 0.38990
 H1279 H 0.45830 -0.09105 0.35342
 H1280 H 0.47031 -0.07489 0.39940
 C1281 C 0.45965 0.47951 -0.14850
 C1282 C 0.45519 0.45107 -0.15470
 C1283 C 0.46256 0.43094 -0.13470
 C1284 C 0.47088 0.43848 -0.10816
 C1285 C 0.47309 0.46646 -0.10076
 C1286 C 0.46888 0.48722 -0.12147
 C1287 C 0.45647 0.50040 -0.16895
 C1288 C 0.46157 0.52817 -0.16296
 C1289 C 0.47083 0.53562 -0.13679
 C1290 C 0.47491 0.51536 -0.11638
 H1291 H 0.45119 0.49556 -0.19002
 H1292 H 0.45906 0.54389 -0.17897
 H1293 H 0.47555 0.55712 -0.13247
 H1294 H 0.48388 0.52185 -0.09709
 H1295 H 0.46017 0.40905 -0.13897
 H1296 H 0.47470 0.42222 -0.09294
 C1297 C 0.46865 0.77554 0.41258
 C1298 C 0.45886 0.80328 0.41397
 C1299 C 0.46481 0.82174 0.39214
 C1300 C 0.47684 0.81229 0.36776
 C1301 C 0.48331 0.78411 0.36448
 C1302 C 0.48072 0.76577 0.38750
 C1303 C 0.46667 0.75739 0.43556
 C1304 C 0.47592 0.72998 0.43375
 C1305 C 0.48762 0.72035 0.40923
 C1306 C 0.49024 0.73807 0.38635
 H1307 H 0.45864 0.76438 0.45525
 H1308 H 0.47432 0.71625 0.45156
 H1309 H 0.49509 0.69917 0.40807
 H1310 H 0.50041 0.73013 0.36810
 H1311 H 0.45785 0.84313 0.39303
 H1312 H 0.47916 0.82673 0.35056
 C1313 C -0.06109 0.81921 0.88718
 C1314 C -0.05494 0.80295 0.91111
 C1315 C -0.04259 0.77675 0.90749
 C1316 C -0.03323 0.76822 0.88152
 C1317 C -0.03782 0.78467 0.85794
 C1318 C -0.05371 0.80922 0.86034
 C1319 C -0.07589 0.84435 0.88904
 C1320 C -0.08556 0.85777 0.86527
 C1321 C -0.07980 0.84714 0.83913
 C1322 C -0.06358 0.82334 0.83652
 H1323 H -0.08074 0.85368 0.90867
 H1324 H -0.09740 0.87664 0.86731
 H1325 H -0.08733 0.85781 0.82081
 H1326 H -0.05927 0.81583 0.81584
 H1327 H -0.03901 0.76324 0.92516
 H1328 H -0.02211 0.74874 0.87984
 C1329 C 0.36512 0.80735 0.31419
 C1330 C 0.34262 0.79399 0.30103
 C1331 C 0.34822 0.77249 0.28217
 C1332 C 0.37501 0.76453 0.27597
 C1333 C 0.39722 0.77807 0.28795
 C1334 C 0.39257 0.79940 0.30742
 C1335 C 0.36104 0.82950 0.33271
 C1336 C 0.38329 0.84290 0.34490
 C1337 C 0.40997 0.83479 0.33865
 C1338 C 0.41469 0.81319 0.32013
 H1339 H 0.34076 0.83685 0.33758
 H1340 H 0.37998 0.85975 0.35921
 H1341 H 0.42706 0.84546 0.34801
 H1342 H 0.43577 0.80755 0.31572
 H1343 H 0.33219 0.76345 0.26991
 H1344 H 0.37845 0.74855 0.26060
 C1345 C -0.15707 0.79549 0.75823
 C1346 C -0.16459 0.78944 0.78611
 C1347 C -0.14915 0.76862 0.79970
 C1348 C -0.12262 0.76242 0.79117
 C1349 C -0.11147 0.77464 0.76719
 C1350 C -0.12997 0.78867 0.74880
 C1351 C -0.17574 0.80824 0.73973
 C1352 C -0.16780 0.81515 0.71278
 C1353 C -0.14146 0.80876 0.70357
 C1354 C -0.12284 0.79532 0.72119
 H1355 H -0.19671 0.81241 0.74583
 H1356 H -0.18230 0.82508 0.69881
 H1357 H -0.13564 0.81362 0.68240
 H1358 H -0.10349 0.78910 0.71245
 H1359 H -0.15605 0.75900 0.81872
 H1360 H -0.11029 0.74918 0.80457
 C1361 C 0.89175 0.28554 0.43120
 C1362 C 0.90800 0.30298 0.44846
 C1363 C 0.89917 0.30706 0.47598
 C1364 C 0.87513 0.29496 0.48599
 C1365 C 0.86048 0.27577 0.47003
 C1366 C 0.87116 0.26857 0.44343
 C1367 C 0.89508 0.28426 0.40210
 C1368 C 0.88400 0.26247 0.38697
 C1369 C 0.86849 0.24236 0.40023
 C1370 C 0.86193 0.24535 0.42815
 H1371 H 0.90595 0.30003 0.39070
 H1372 H 0.88810 0.26061 0.36510
 H1373 H 0.86104 0.22468 0.38874
 H1374 H 0.85083 0.22845 0.43753
 H1375 H 0.91076 0.32008 0.48989
 H1376 H 0.86809 0.30051 0.50656
 C1377 C 0.91162 0.77615 -0.03246
 C1378 C 0.91152 0.79932 -0.05076
 C1379 C 0.88634 0.81078 -0.05920
 C1380 C 0.86175 0.79997 -0.04979
 C1381 C 0.86130 0.77611 -0.03317
 C1382 C 0.88625 0.76398 -0.02409
 C1383 C 0.93635 0.76497 -0.02208
 C1384 C 0.93618 0.74179 -0.00451
 C1385 C 0.91144 0.72954 0.00317
 C1386 C 0.88659 0.74056 -0.00640
 H1387 H 0.95588 0.77422 -0.02724
 H1388 H 0.95534 0.73331 0.00327
 H1389 H 0.91149 0.71157 0.01681
 H1390 H 0.86773 0.73079 0.00025
 H1391 H 0.88549 0.82845 -0.07305
 H1392 H 0.84273 0.80978 -0.05643
 C1393 C -0.16280 -0.02287 -0.04314
 C1394 C -0.16319 -0.04987 -0.05479
 C1395 C -0.13897 -0.06559 -0.05554
 C1396 C -0.11457 -0.05493 -0.04542
 C1397 C -0.11346 -0.02814 -0.03435
 C1398 C -0.13764 -0.01177 -0.03310
 C1399 C -0.18700 -0.00689 -0.04079
 C1400 C -0.18633 0.01968 -0.02945
 C1401 C -0.16171 0.03065 -0.01994
 C1402 C -0.13755 0.01507 -0.02153
 H1403 H -0.20663 -0.01489 -0.04726
 H1404 H -0.20507 0.03175 -0.02782
 H1405 H -0.16138 0.05122 -0.01101
 H1406 H -0.11896 0.02412 -0.01342
 H1407 H -0.13888 -0.08605 -0.06479
 H1408 H -0.09611 -0.06746 -0.04692
 C1409 C -0.16095 0.48054 0.46170
 C1410 C -0.16560 0.45149 0.46049
 C1411 C -0.14632 0.43341 0.47271
 C1412 C -0.12132 0.44317 0.48218
 C1413 C -0.11466 0.47140 0.48016
 C1414 C -0.13525 0.49063 0.47154
 C1415 C -0.18149 0.49976 0.45372
 C1416 C -0.17676 0.52825 0.45494
 C1417 C -0.15182 0.53813 0.46472
 C1418 C -0.13134 0.51959 0.47326
 H1419 H -0.20158 0.49300 0.44723
 H1420 H -0.19273 0.54275 0.44877
 H1421 H -0.14849 0.56029 0.46617
 H1422 H -0.11295 0.52824 0.48206
 H1423 H -0.14947 0.41118 0.47272
 H1424 H -0.10641 0.42814 0.48972
 C1425 C 0.33237 -0.02995 0.47463
 C1426 C 0.33183 -0.04905 0.45246
 C1427 C 0.35665 -0.05758 0.44037
 C1428 C 0.38155 -0.04730 0.44956
 C1429 C 0.38267 -0.02925 0.47206
 C1430 C 0.35805 -0.02033 0.48490
 C1431 C 0.30790 -0.02010 0.48667
 C1432 C 0.30870 -0.00156 0.50881
 C1433 C 0.33378 0.00755 0.51913
 C1434 C 0.35832 -0.00162 0.50728
 H1435 H 0.28808 -0.02653 0.47898
 H1436 H 0.28976 0.00582 0.51797
 H1437 H 0.33422 0.02196 0.53629
 H1438 H 0.37740 0.00615 0.51561
 H1439 H 0.35690 -0.07192 0.42330
 H1440 H 0.40026 -0.05410 0.43942
 C1441 C 0.34069 0.47835 -0.02949
 C1442 C 0.33674 0.44967 -0.03473
 C1443 C 0.35671 0.43056 -0.02567
 C1444 C 0.38155 0.43953 -0.01518
 C1445 C 0.38752 0.46788 -0.01353
 C1446 C 0.36651 0.48763 -0.01926
 C1447 C 0.31964 0.49797 -0.03448
 C1448 C 0.32405 0.52618 -0.03001
 C1449 C 0.34926 0.53527 -0.02010
 C1450 C 0.37026 0.51622 -0.01453
 H1451 H 0.29953 0.49165 -0.04138
 H1452 H 0.30772 0.54104 -0.03395
 H1453 H 0.35243 0.55716 -0.01632
 H1454 H 0.38907 0.52401 -0.00586
 H1455 H 0.35409 0.40849 -0.02886
 H1456 H 0.39692 0.42404 -0.00985
 C1457 C 0.39143 0.44813 0.82661
 C1458 C 0.41580 0.45345 0.81129
 C1459 C 0.41370 0.46716 0.78553
 C1460 C 0.38868 0.47778 0.77599
 C1461 C 0.36464 0.47370 0.79122
 C1462 C 0.36566 0.45754 0.81594
 C1463 C 0.39165 0.43141 0.85082
 C1464 C 0.36730 0.42201 0.86263
 C1465 C 0.34223 0.43002 0.85137
 C1466 C 0.34132 0.44827 0.82880
 H1467 H 0.41038 0.42411 0.86013
 H1468 H 0.36789 0.40832 0.88056
 H1469 H 0.32336 0.42238 0.86039
 H1470 H 0.32140 0.45367 0.82050
 H1471 H 0.43182 0.46998 0.77285
 H1472 H 0.38803 0.48898 0.75640
 C1473 C 0.39053 -0.05660 0.31622
 C1474 C 0.41459 -0.05117 0.30060
 C1475 C 0.41212 -0.03802 0.27460
 C1476 C 0.38689 -0.02765 0.26537
 C1477 C 0.36326 -0.03115 0.28144
 C1478 C 0.36470 -0.04692 0.30624
 C1479 C 0.39124 -0.07297 0.34060
 C1480 C 0.36724 -0.07963 0.35468
 C1481 C 0.34196 -0.07136 0.34399
 C1482 C 0.34062 -0.05497 0.32027
 H1483 H 0.40993 -0.08193 0.34843
 H1484 H 0.36842 -0.09195 0.37349
 H1485 H 0.32305 -0.07782 0.35355
 H1486 H 0.32044 -0.04955 0.31260
 H1487 H 0.43008 -0.03525 0.26168
 H1488 H 0.38578 -0.01692 0.24555
 C1489 C 0.11427 0.56699 0.69648
 C1490 C 0.09014 0.55321 0.70531
 C1491 C 0.09273 0.52941 0.72213
 C1492 C 0.11825 0.52105 0.73268
 C1493 C 0.14200 0.53604 0.72636
 C1494 C 0.14016 0.55891 0.70764
 C1495 C 0.11345 0.58783 0.67575
 C1496 C 0.13698 0.60202 0.66790
 C1497 C 0.16198 0.59480 0.67945
 C1498 C 0.16366 0.57353 0.69900
 H1499 H 0.09511 0.59246 0.66439
 H1500 H 0.13593 0.61879 0.65294
 H1501 H 0.18015 0.60583 0.67336
 H1502 H 0.18342 0.56942 0.70760
 H1503 H 0.07475 0.51739 0.72742
 H1504 H 0.11947 0.50282 0.74596
 C1505 C 0.09074 0.03077 0.22708
 C1506 C 0.08628 0.03888 0.19906
 C1507 C 0.10676 0.03308 0.17943
 C1508 C 0.13258 0.02363 0.18764
 C1509 C 0.13868 0.01914 0.21576
 C1510 C 0.11715 0.02094 0.23553
 C1511 C 0.06930 0.03159 0.24671
 C1512 C 0.07387 0.02359 0.27421
 C1513 C 0.09961 0.01398 0.28248
 C1514 C 0.12097 0.01232 0.26331
 H1515 H 0.04868 0.03752 0.24083
 H1516 H 0.05721 0.02430 0.28905
 H1517 H 0.10288 0.00722 0.30372
 H1518 H 0.14010 0.00327 0.27017
 H1519 H 0.10344 0.03815 0.15782
 H1520 H 0.14843 0.02145 0.17202
 C1521 C 0.64885 0.69670 0.18335
 C1522 C 0.67179 0.70616 0.19874
 C1523 C 0.66738 0.72063 0.22351
 C1524 C 0.64102 0.72824 0.23171
 C1525 C 0.61822 0.72048 0.21600
 C1526 C 0.62187 0.70360 0.19228
 C1527 C 0.65214 0.67882 0.16048
 C1528 C 0.62951 0.66801 0.14669
 C1529 C 0.60315 0.67451 0.15561
 C1530 C 0.59928 0.69216 0.17812
 H1531 H 0.67210 0.67213 0.15374
 H1532 H 0.63245 0.65410 0.12935
 H1533 H 0.58560 0.66570 0.14514
 H1534 H 0.57848 0.69630 0.18455
 H1535 H 0.68467 0.72641 0.23632
 H1536 H 0.63835 0.74018 0.25052
 C1537 C 0.16913 0.72053 0.72726
 C1538 C 0.17042 0.71045 0.69959
 C1539 C 0.14764 0.71447 0.68220
 C1540 C 0.12302 0.72465 0.69264
 C1541 C 0.12049 0.73237 0.72045
 C1542 C 0.14381 0.73109 0.73792
 C1543 C 0.19253 0.72065 0.74445
 C1544 C 0.19085 0.72989 0.77179
 C1545 C 0.16600 0.73957 0.78235
 C1546 C 0.14268 0.74040 0.76558
 H1547 H 0.21239 0.71430 0.73671
 H1548 H 0.20899 0.72980 0.78476
 H1549 H 0.16490 0.74686 0.80354
 H1550 H 0.12395 0.74876 0.77427
 H1551 H 0.14805 0.70666 0.66119
 H1552 H 0.10516 0.72477 0.67931
 C1553 C 0.60459 0.17855 0.53608
 C1554 C 0.58508 0.19778 0.54671
 C1555 C 0.59012 0.22631 0.54358
 C1556 C 0.61448 0.23571 0.53164
 C1557 C 0.63345 0.21706 0.52003
 C1558 C 0.62701 0.18816 0.51983
 C1559 C 0.60346 0.15001 0.54277
 C1560 C 0.61995 0.13084 0.52925
 C1561 C 0.63867 0.13982 0.50952
 C1562 C 0.64278 0.16810 0.50534
 H1563 H 0.59074 0.14219 0.55920
 H1564 H 0.61800 0.10904 0.53424
 H1565 H 0.65098 0.12502 0.49813
 H1566 H 0.65786 0.17325 0.49001
 H1567 H 0.57574 0.24132 0.55190
 H1568 H 0.61870 0.25779 0.53172
 C1569 C 0.58862 0.72502 0.03510
 C1570 C 0.58702 0.69798 0.04695
 C1571 C 0.61065 0.68125 0.04768
 C1572 C 0.63546 0.69078 0.03700
 C1573 C 0.63745 0.71706 0.02458
 C1574 C 0.61393 0.73453 0.02362
 C1575 C 0.56536 0.74256 0.03375
 C1576 C 0.56696 0.76886 0.02156
 C1577 C 0.59158 0.77807 0.01024
 C1578 C 0.61485 0.76109 0.01107
 H1579 H 0.54566 0.73598 0.04164
 H1580 H 0.54892 0.78206 0.02064
 H1581 H 0.59259 0.79841 0.00057
 H1582 H 0.63339 0.76884 0.00153
 H1583 H 0.61000 0.66085 0.05727
 H1584 H 0.65352 0.67772 0.03905
 C1585 C 0.13663 0.04814 0.07158
 C1586 C 0.15931 0.04684 0.05320
 C1587 C 0.15615 0.03426 0.02720
 C1588 C 0.13069 0.02423 0.01871
 C1589 C 0.10769 0.02685 0.03589
 C1590 C 0.11047 0.03915 0.06237
 C1591 C 0.13843 0.06270 0.09686
 C1592 C 0.11507 0.06952 0.11187
 C1593 C 0.08965 0.06126 0.10249
 C1594 C 0.08725 0.04561 0.07859
 H1595 H 0.15746 0.07068 0.10438
 H1596 H 0.11646 0.08190 0.13047
 H1597 H 0.07166 0.06780 0.11326
 H1598 H 0.06685 0.04022 0.07231
 H1599 H 0.17331 0.03340 0.01295
 H1600 H 0.12870 0.01530 -0.00177
 C1601 C 0.13791 0.56194 0.56970
 C1602 C 0.16154 0.54987 0.55714
 C1603 C 0.15782 0.53147 0.53500
 C1604 C 0.13178 0.52216 0.52771
 C1605 C 0.10851 0.53182 0.54164
 C1606 C 0.11130 0.55236 0.56234
 C1607 C 0.13990 0.58510 0.58736
 C1608 C 0.11649 0.59781 0.59819
 C1609 C 0.09073 0.58711 0.59267
 C1610 C 0.08806 0.56472 0.57480
 H1611 H 0.15920 0.59491 0.59128
 H1612 H 0.11822 0.61646 0.61036
 H1613 H 0.07268 0.59670 0.60161
 H1614 H 0.06761 0.55777 0.57039
 H1615 H 0.17516 0.52456 0.52283
 H1616 H 0.12973 0.50762 0.51077
 C1617 C 0.65712 0.01392 0.53723
 C1618 C 0.66415 0.04237 0.53389
 C1619 C 0.64578 0.05959 0.51940
 C1620 C 0.61915 0.05119 0.51392
 C1621 C 0.60995 0.02467 0.52163
 C1622 C 0.62973 0.00501 0.53146
 C1623 C 0.67690 -0.00589 0.54566
 C1624 C 0.66986 -0.03367 0.54936
 C1625 C 0.64325 -0.04237 0.54396
 C1626 C 0.62347 -0.02339 0.53473
 H1627 H 0.69814 -0.00026 0.54856
 H1628 H 0.68527 -0.04863 0.55589
 H1629 H 0.63805 -0.06410 0.54629
 H1630 H 0.60375 -0.03151 0.52919
 H1631 H 0.65120 0.08063 0.51433
 H1632 H 0.60522 0.06635 0.50485
 C1633 C 0.64066 0.54570 0.07808
 C1634 C 0.66272 0.54543 0.05880
 C1635 C 0.66011 0.53045 0.03412
 C1636 C 0.63572 0.51676 0.02786
 C1637 C 0.61370 0.51684 0.04658
 C1638 C 0.61643 0.53056 0.07236
 C1639 C 0.64069 0.56369 0.10110
 C1640 C 0.61872 0.56503 0.11926
 C1641 C 0.59601 0.54864 0.11477
 C1642 C 0.59458 0.53181 0.09154
 H1643 H 0.65660 0.57825 0.10455
 H1644 H 0.61919 0.57919 0.13664
 H1645 H 0.57919 0.54957 0.12900
 H1646 H 0.57597 0.52043 0.08868
 H1647 H 0.67661 0.53055 0.01908
 H1648 H 0.63361 0.50688 0.00783
 C1649 C 0.03412 0.06856 0.14823
 C1650 C 0.04756 0.04850 0.16562
 C1651 C 0.04561 0.02032 0.15836
 C1652 C 0.03328 0.01212 0.13369
 C1653 C 0.01981 0.03132 0.11638
 C1654 C 0.01743 0.05951 0.12561
 C1655 C 0.03863 0.09746 0.15092
 C1656 C 0.02274 0.11677 0.13639
 C1657 C 0.00271 0.10776 0.11819
 C1658 C 0.00029 0.07956 0.11241
 H1659 H 0.05497 0.10562 0.16342
 H1660 H 0.02585 0.13881 0.13936
 H1661 H -0.01028 0.12278 0.10759
 H1662 H -0.01580 0.07426 0.09820
 H1663 H 0.05496 0.00441 0.17131
 H1664 H 0.03463 -0.00956 0.12789
 C1665 C 0.02094 0.54901 0.66955
 C1666 C 0.04999 0.55002 0.67286
 C1667 C 0.06650 0.53932 0.65154
 C1668 C 0.05521 0.52960 0.62707
 C1669 C 0.02687 0.53053 0.62225
 C1670 C 0.00933 0.53981 0.64386
 C1671 C 0.00307 0.55591 0.69152
 C1672 C -0.02529 0.55539 0.68801
 C1673 C -0.03651 0.54717 0.66286
 C1674 C -0.01948 0.53904 0.64112
 H1675 H 0.01064 0.56087 0.71189
 H1676 H -0.03864 0.56091 0.70508
 H1677 H -0.05857 0.54643 0.66040
 H1678 H -0.02923 0.53154 0.62258
 H1679 H 0.08860 0.53908 0.65327
 H1680 H 0.06911 0.52204 0.61124
 C1681 C 0.53538 0.07585 0.64666
 C1682 C 0.55009 0.05686 0.66398
 C1683 C 0.55203 0.02906 0.65552
 C1684 C 0.54009 0.02014 0.63094
 C1685 C 0.52363 0.03795 0.61469
 C1686 C 0.51904 0.06567 0.62435
 C1687 C 0.53661 0.10481 0.65068
 C1688 C 0.51800 0.12266 0.63769
 C1689 C 0.49847 0.11202 0.61978
 C1690 C 0.49910 0.08395 0.61278
 H1691 H 0.55199 0.11389 0.66379
 H1692 H 0.51849 0.14474 0.64181
 H1693 H 0.48337 0.12577 0.61041
 H1694 H 0.48329 0.07730 0.59883
 H1695 H 0.56315 0.01393 0.66794
 H1696 H 0.54357 -0.00119 0.62476
 C1697 C 0.54703 0.51159 0.17646
 C1698 C 0.54833 0.54081 0.18054
 C1699 C 0.53633 0.55833 0.16041
 C1700 C 0.52605 0.54786 0.13570
 C1701 C 0.52762 0.51940 0.12960
 C1702 C 0.53680 0.50080 0.15079
 C1703 C 0.55463 0.49279 0.19776
 C1704 C 0.55315 0.46420 0.19376
 C1705 C 0.54333 0.45372 0.16885
 C1706 C 0.53486 0.47175 0.14772
 H1707 H 0.56088 0.49985 0.21799
 H1708 H 0.55908 0.45008 0.21033
 H1709 H 0.54163 0.43149 0.16615
 H1710 H 0.52575 0.46261 0.12958
 H1711 H 0.53629 0.58065 0.16293
 H1712 H 0.51859 0.56265 0.12036
 C1713 C 0.20800 0.52067 0.59616
 C1714 C 0.20017 0.54887 0.59108
 C1715 C 0.20369 0.56806 0.61252
 C1716 C 0.21255 0.55967 0.63879
 C1717 C 0.22031 0.53228 0.64434
 C1718 C 0.21837 0.51243 0.62282
 C1719 C 0.20764 0.50086 0.57476
 C1720 C 0.21618 0.47355 0.57949
 C1721 C 0.22606 0.46554 0.60543
 C1722 C 0.22757 0.48481 0.62681
 H1723 H 0.20216 0.50650 0.55392
 H1724 H 0.21579 0.45870 0.56272
 H1725 H 0.23320 0.44444 0.60881
 H1726 H 0.23668 0.47796 0.64614
 H1727 H 0.19926 0.58980 0.60912
 H1728 H 0.21298 0.57456 0.65543
 C1729 C 0.21332 0.07394 0.10079
 C1730 C 0.20066 0.05431 0.08283
 C1731 C 0.20263 0.02600 0.08982
 C1732 C 0.21474 0.01710 0.11451
 C1733 C 0.22708 0.03582 0.13279
 C1734 C 0.22849 0.06454 0.12464
 C1735 C 0.21040 0.10289 0.09635
 C1736 C 0.22584 0.12180 0.11121
 C1737 C 0.24274 0.11266 0.13252
 C1738 C 0.24360 0.08462 0.13971
 H1739 H 0.19581 0.11162 0.08193
 H1740 H 0.22403 0.14374 0.10661
 H1741 H 0.25460 0.12752 0.14420
 H1742 H 0.25705 0.07972 0.15664
 H1743 H 0.19346 0.01054 0.07655
 H1744 H 0.21399 -0.00485 0.11959
 C1745 C 0.69080 0.23623 0.65630
 C1746 C 0.70098 0.21043 0.66674
 C1747 C 0.72540 0.20081 0.65445
 C1748 C 0.73202 0.20849 0.62730
 C1749 C 0.71632 0.22833 0.61257
 C1750 C 0.69743 0.24479 0.62846
 C1751 C 0.67768 0.25543 0.67387
 C1752 C 0.66804 0.28086 0.66388
 C1753 C 0.67164 0.28791 0.63619
 C1754 C 0.68654 0.27048 0.61876
 H1755 H 0.67684 0.25236 0.69584
 H1756 H 0.65798 0.29526 0.67778
 H1757 H 0.66408 0.30772 0.62849
 H1758 H 0.69047 0.27891 0.59856
 H1759 H 0.73716 0.18412 0.66390
 H1760 H 0.74878 0.19752 0.61739
 C1761 C 0.70701 0.73696 0.15638
 C1762 C 0.71052 0.70885 0.16504
 C1763 C 0.72272 0.69048 0.14630
 C1764 C 0.72701 0.69781 0.11868
 C1765 C 0.72038 0.72443 0.10840
 C1766 C 0.71126 0.74481 0.12787
 C1767 C 0.70094 0.75778 0.17591
 C1768 C 0.69699 0.78528 0.16772
 C1769 C 0.69996 0.79282 0.14004
 C1770 C 0.70746 0.77304 0.12041
 H1771 H 0.70060 0.75331 0.19784
 H1772 H 0.69222 0.80093 0.18305
 H1773 H 0.69727 0.81433 0.13383
 H1774 H 0.71089 0.78072 0.09981
 H1775 H 0.72798 0.66969 0.15265
 H1776 H 0.73515 0.68196 0.10505
 C1777 C 0.52194 0.70151 0.08933
 C1778 C 0.55063 0.70038 0.08383
 C1779 C 0.56866 0.71139 0.10351
 C1780 C 0.55912 0.72145 0.12873
 C1781 C 0.53133 0.71977 0.13606
 C1782 C 0.51227 0.71067 0.11582
 C1783 C 0.50258 0.69475 0.06871
 C1784 C 0.47455 0.69560 0.07427
 C1785 C 0.46517 0.70394 0.10019
 C1786 C 0.48374 0.71178 0.12065
 H1787 H 0.50873 0.68969 0.04785
 H1788 H 0.46000 0.69027 0.05821
 H1789 H 0.44334 0.70500 0.10423
 H1790 H 0.47541 0.71953 0.13982
 H1791 H 0.59055 0.71147 0.09978
 H1792 H 0.57398 0.72960 0.14320
 C1793 C 0.07785 0.72156 0.60430
 C1794 C 0.05854 0.70748 0.58701
 C1795 C 0.03046 0.71154 0.59239
 C1796 C 0.02167 0.72526 0.61625
 C1797 C 0.04038 0.73844 0.63393
 C1798 C 0.06824 0.73996 0.62536
 C1799 C 0.10650 0.71745 0.60210
 C1800 C 0.12483 0.73530 0.61497
 C1801 C 0.11506 0.75660 0.63162
 C1802 C 0.08713 0.75848 0.63751
 H1803 H 0.11524 0.70025 0.59110
 H1804 H 0.14670 0.73253 0.61209
 H1805 H 0.12930 0.77084 0.64115
 H1806 H 0.08081 0.77513 0.65094
 H1807 H 0.01526 0.70193 0.57923
 H1808 H 0.00006 0.72475 0.62145
 C1809 C 0.52598 0.58500 0.22401
 C1810 C 0.55288 0.58026 0.21388
 C1811 C 0.57102 0.60269 0.21156
 C1812 C 0.56286 0.62942 0.21862
 C1813 C 0.53619 0.63476 0.22792
 C1814 C 0.51756 0.61246 0.23116
 C1815 C 0.50746 0.56288 0.22773
 C1816 C 0.48118 0.56769 0.23812
 C1817 C 0.47301 0.59445 0.24532
 C1818 C 0.49102 0.61665 0.24210
 H1819 H 0.51324 0.54168 0.22310
 H1820 H 0.46719 0.55052 0.24091
 H1821 H 0.45270 0.59799 0.25372
 H1822 H 0.48414 0.63691 0.24872
 H1823 H 0.59155 0.59959 0.20353
 H1824 H 0.57735 0.64625 0.21613
 C1825 C 0.04822 0.59557 0.73454
 C1826 C 0.05411 0.59001 0.70620
 C1827 C 0.05116 0.61164 0.68677
 C1828 C 0.04573 0.63869 0.69513
 C1829 C 0.03956 0.64471 0.72265
 C1830 C 0.04029 0.62297 0.74272
 C1831 C 0.04815 0.57411 0.75459
 C1832 C 0.04108 0.57941 0.78210
 C1833 C 0.03312 0.60598 0.79000
 C1834 C 0.03231 0.62749 0.77050
 H1835 H 0.05236 0.55291 0.74910
 H1836 H 0.04107 0.56264 0.79719
 H1837 H 0.02699 0.60984 0.81124
 H1838 H 0.02468 0.64737 0.77727
 H1839 H 0.05389 0.60776 0.66488
 H1840 H 0.04656 0.65544 0.68007
 C1841 C 0.04073 0.16270 0.02282
 C1842 C 0.05047 0.16524 0.05050
 C1843 C 0.04974 0.14200 0.06821
 C1844 C 0.03958 0.11668 0.05904
 C1845 C 0.02944 0.11381 0.03202
 C1846 C 0.02997 0.13686 0.01361
 C1847 C 0.04035 0.18563 0.00440
 C1848 C 0.03016 0.18310 -0.02250
 C1849 C 0.01967 0.15789 -0.03146
 C1850 C 0.01930 0.13502 -0.01356
 H1851 H 0.04730 0.20583 0.01067
 H1852 H 0.03004 0.20092 -0.03635
 H1853 H 0.01143 0.15615 -0.05225
 H1854 H 0.01017 0.11610 -0.02104
 H1855 H 0.05751 0.14347 0.08922
 H1856 H 0.04014 0.09894 0.07298
 C1857 C 0.03937 0.64579 0.57693
 C1858 C 0.05207 0.66380 0.55698
 C1859 C 0.05035 0.65635 0.52879
 C1860 C 0.03836 0.63161 0.52036
 C1861 C 0.02570 0.61372 0.53937
 C1862 C 0.02466 0.62167 0.56786
 C1863 C 0.04082 0.65073 0.60577
 C1864 C 0.02389 0.63658 0.62417
 C1865 C 0.00880 0.61413 0.61546
 C1866 C 0.00997 0.60602 0.58795
 H1867 H 0.05449 0.66564 0.61474
 H1868 H 0.02222 0.64303 0.64533
 H1869 H -0.00364 0.60271 0.63020
 H1870 H -0.00186 0.58804 0.58331
 H1871 H 0.05908 0.66958 0.51287
 H1872 H 0.03906 0.62635 0.49853
 C1873 C 0.53678 0.16456 0.52262
 C1874 C 0.54474 0.16594 0.55098
 C1875 C 0.54015 0.14288 0.56822
 C1876 C 0.53102 0.11799 0.55735
 C1877 C 0.52469 0.11546 0.52919
 C1878 C 0.52695 0.13899 0.51156
 C1879 C 0.53784 0.18815 0.50517
 C1880 C 0.53028 0.18646 0.47729
 C1881 C 0.52111 0.16143 0.46643
 C1882 C 0.51921 0.13791 0.48340
 H1883 H 0.54379 0.20821 0.51304
 H1884 H 0.53123 0.20474 0.46412
 H1885 H 0.51506 0.16033 0.44484
 H1886 H 0.51128 0.11910 0.47443
 H1887 H 0.54641 0.14338 0.58978
 H1888 H 0.53020 0.09998 0.57082
 C1889 C 0.54429 0.65336 0.02423
 C1890 C 0.55298 0.65976 0.05158
 C1891 C 0.55191 0.63904 0.07220
 C1892 C 0.54268 0.61237 0.06617
 C1893 C 0.53411 0.60555 0.03932
 C1894 C 0.53439 0.62624 0.01819
 C1895 C 0.54393 0.67374 0.00302
 C1896 C 0.53431 0.66761 -0.02348
 C1897 C 0.52424 0.64132 -0.02923
 C1898 C 0.52393 0.62090 -0.00859
 H1899 H 0.55043 0.69472 0.00671
 H1900 H 0.53417 0.68353 -0.03948
 H1901 H 0.51621 0.63685 -0.04967
 H1902 H 0.51472 0.60124 -0.01361
 H1903 H 0.55851 0.64357 0.09316
 H1904 H 0.54266 0.59678 0.08252
 C1905 C 0.71527 0.08552 0.51813
 C1906 C 0.69676 0.08212 0.54045
 C1907 C 0.68661 0.10566 0.55404
 C1908 C 0.69489 0.13229 0.54622
 C1909 C 0.71348 0.13621 0.52447
 C1910 C 0.72378 0.11275 0.51007
 C1911 C 0.72563 0.06232 0.50381
 C1912 C 0.74406 0.06581 0.48192
 C1913 C 0.75248 0.09235 0.47405
 C1914 C 0.74254 0.11567 0.48798
 H1915 H 0.71965 0.04142 0.50950
 H1916 H 0.75191 0.04784 0.47104
 H1917 H 0.76685 0.09488 0.45710
 H1918 H 0.74969 0.13589 0.48137
 H1919 H 0.67175 0.10328 0.57057
 H1920 H 0.68640 0.15009 0.55696
 C1921 C 0.67531 0.60263 0.02982
 C1922 C 0.69454 0.58453 0.04378
 C1923 C 0.72263 0.59078 0.04181
 C1924 C 0.73157 0.61583 0.03068
 C1925 C 0.71319 0.63440 0.01814
 C1926 C 0.68529 0.62615 0.01459
 C1927 C 0.64643 0.59931 0.03134
 C1928 C 0.62855 0.61511 0.01512
 C1929 C 0.63871 0.63525 -0.00257
 C1930 C 0.66657 0.64116 -0.00256
 H1931 H 0.63648 0.58533 0.04511
 H1932 H 0.60664 0.61168 0.01633
 H1933 H 0.62478 0.64720 -0.01557
 H1934 H 0.67247 0.65740 -0.01660
 H1935 H 0.73775 0.57728 0.05149
 H1936 H 0.75310 0.62102 0.03242
 C1937 C 0.18128 0.65064 0.71991
 C1938 C 0.20071 0.66930 0.70784
 C1939 C 0.22877 0.66445 0.71263
 C1940 C 0.23774 0.63969 0.72498
 C1941 C 0.21900 0.62053 0.73598
 C1942 C 0.19065 0.62802 0.73676
 C1943 C 0.15281 0.65278 0.71460
 C1944 C 0.13390 0.63701 0.72941
 C1945 C 0.14296 0.61785 0.74900
 C1946 C 0.17095 0.61292 0.75236
 H1947 H 0.14468 0.66546 0.69819
 H1948 H 0.11215 0.63942 0.72539
 H1949 H 0.12823 0.60586 0.76081
 H1950 H 0.17634 0.59756 0.76771
 H1951 H 0.24381 0.67859 0.70409
 H1952 H 0.25950 0.63501 0.72509
 C1953 C 0.19317 0.13703 0.18110
 C1954 C 0.20150 0.16223 0.19338
 C1955 C 0.21819 0.16109 0.21712
 C1956 C 0.22641 0.13548 0.22850
 C1957 C 0.21615 0.11060 0.21780
 C1958 C 0.19805 0.11147 0.19495
 C1959 C 0.18019 0.13651 0.15515
 C1960 C 0.16721 0.11271 0.14581
 C1961 C 0.16896 0.08826 0.16126
 C1962 C 0.18479 0.08740 0.18527
 H1963 H 0.18158 0.15385 0.14116
 H1964 H 0.15640 0.11333 0.12622
 H1965 H 0.15889 0.06964 0.15429
 H1966 H 0.18554 0.06815 0.19665
 H1967 H 0.22495 0.18014 0.22670
 H1968 H 0.24042 0.13507 0.24597
 C1969 C 0.69988 1.14324 0.67222
 C1970 C 0.69587 1.16430 0.69261
 C1971 C 0.70070 1.15763 0.72062
 C1972 C 0.70942 1.13116 0.72874
 C1973 C 0.71335 1.11021 0.70914
 C1974 C 0.70762 1.11588 0.68077
 C1975 C 0.69611 1.14839 0.64351
 C1976 C 0.69936 1.12753 0.62412
 C1977 C 0.70513 1.10065 0.63263
 C1978 C 0.70861 1.09464 0.66067
 H1979 H 0.69000 1.16838 0.63534
 H1980 H 0.69676 1.13235 0.60246
 H1981 H 0.70675 1.08444 0.61744
 H1982 H 0.71154 1.07320 0.66635
 H1983 H 0.69800 1.17324 0.73644
 H1984 H 0.71345 1.12709 0.75052
 C1985 C 0.73949 0.66931 0.20930
 C1986 C 0.71086 0.67359 0.20536
 C1987 C 0.69293 0.65263 0.21481
 C1988 C 0.70265 0.62718 0.22454
 C1989 C 0.73075 0.62122 0.22534
 C1990 C 0.74953 0.64286 0.21894
 C1991 C 0.75833 0.69096 0.20463
 C1992 C 0.78639 0.68658 0.20832
 C1993 C 0.79618 0.66086 0.21738
 C1994 C 0.77800 0.63928 0.22297
 H1995 H 0.75157 0.71161 0.19878
 H1996 H 0.80059 0.70340 0.20458
 H1997 H 0.81796 0.65777 0.22066
 H1998 H 0.78642 0.62021 0.23134
 H1999 H 0.67094 0.65500 0.21332
 H2000 H 0.68782 0.61134 0.22992
 C2001 C 0.52119 0.09088 0.71133
 C2002 C 0.54989 0.08673 0.70790
 C2003 C 0.56781 0.10699 0.71816
 C2004 C 0.55798 0.13217 0.72808
 C2005 C 0.52988 0.13832 0.72799
 C2006 C 0.51111 0.11696 0.72120
 C2007 C 0.50230 0.06977 0.70497
 C2008 C 0.47418 0.07423 0.70796
 C2009 C 0.46438 0.09951 0.71782
 C2010 C 0.48260 0.12061 0.72464
 H2011 H 0.50901 0.04955 0.69802
 H2012 H 0.45994 0.05783 0.70296
 H2013 H 0.44254 0.10266 0.72057
 H2014 H 0.47421 0.13936 0.73341
 H2015 H 0.58978 0.10439 0.71658
 H2016 H 0.57273 0.14770 0.73426
 C2017 C 1.07476 0.09936 0.21686
 C2018 C 1.05512 0.07985 0.20722
 C2019 C 1.02724 0.08471 0.21290
 C2020 C 1.01857 0.10928 0.22541
 C2021 C 1.03755 0.12854 0.23539
 C2022 C 1.06608 0.12192 0.23382
 C2023 C 1.10265 0.09804 0.20893
 C2024 C 1.12212 0.11492 0.22137
 C2025 C 1.11421 0.13386 0.24138
 C2026 C 1.08650 0.13778 0.24726
 H2027 H 1.10975 0.08474 0.19258
 H2028 H 1.14346 0.11322 0.21561
 H2029 H 1.12950 0.14641 0.25160
 H2030 H 1.08188 0.15297 0.26277
 H2031 H 1.01194 0.07017 0.20581
 H2032 H 0.99676 0.11355 0.22683
 C2033 C 0.23053 0.58500 0.54656
 C2034 C 0.20158 0.58142 0.54911
 C2035 C 0.18445 0.60125 0.53607
 C2036 C 0.19487 0.62518 0.52395
 C2037 C 0.22289 0.63101 0.52459
 C2038 C 0.24119 0.61010 0.53458
 C2039 C 0.24920 0.56379 0.55426
 C2040 C 0.27741 0.56753 0.55186
 C2041 C 0.28770 0.59200 0.54066
 C2042 C 0.26985 0.61285 0.53159
 H2043 H 0.24248 0.54367 0.56103
 H2044 H 0.29135 0.55100 0.55800
 H2045 H 0.30962 0.59447 0.53816
 H2046 H 0.27880 0.63045 0.52115
 H2047 H 0.16244 0.59893 0.53574
 H2048 H 0.18057 0.63983 0.51481
 C2049 C 0.17319 0.10357 1.02665
 C2050 C 0.19222 0.08461 1.03969
 C2051 C 0.22041 0.08891 1.03527
 C2052 C 0.22977 0.11339 1.02306
 C2053 C 0.21138 0.13256 1.01126
 C2054 C 0.18331 0.12509 1.00907
 C2055 C 0.14455 0.10324 1.03136
 C2056 C 0.12644 0.11838 1.01470
 C2057 C 0.13650 0.13532 0.99374
 C2058 C 0.16464 0.13926 0.99128
 H2059 H 0.13553 0.09273 1.04848
 H2060 H 0.10454 0.11707 1.01820
 H2061 H 0.12244 0.14654 0.98027
 H2062 H 0.17117 0.15282 0.97474
 H2063 H 0.23537 0.07467 1.04411
 H2064 H 0.25152 0.11785 1.02371
 C2065 C 0.21532 0.67655 0.64406
 C2066 C 0.20459 0.69762 0.66235
 C2067 C 0.20463 0.72528 0.65248
 C2068 C 0.21285 0.73226 0.62567
 C2069 C 0.22229 0.71211 0.60720
 C2070 C 0.22371 0.68401 0.61637
 C2071 C 0.21838 0.64826 0.65182
 C2072 C 0.23242 0.62952 0.63516
 C2073 C 0.23868 0.63635 0.60808
 C2074 C 0.23286 0.66281 0.59831
 H2075 H 0.21082 0.63953 0.67057
 H2076 H 0.23791 0.60930 0.64303
 H2077 H 0.24768 0.62095 0.59452
 H2078 H 0.23593 0.66611 0.57658
 H2079 H 0.19779 0.74202 0.66573
 H2080 H 0.21200 0.75391 0.61938
 C2081 C 0.18566 0.22556 1.14676
 C2082 C 0.20023 0.20342 1.16023
 C2083 C 0.22347 0.19268 1.14669
 C2084 C 0.22965 0.20014 1.11952
 C2085 C 0.21220 0.21761 1.10405
 C2086 C 0.18915 0.22981 1.11763
 C2087 C 0.16727 0.24319 1.16101
 C2088 C 0.14901 0.26034 1.14656
 C2089 C 0.14909 0.26060 1.11772
 C2090 C 0.16903 0.24569 1.10329
 H2091 H 0.16714 0.24441 1.18335
 H2092 H 0.13443 0.27306 1.15778
 H2093 H 0.13406 0.27293 1.10646
 H2094 H 0.16776 0.24628 1.08097
 H2095 H 0.23647 0.17731 1.15670
 H2096 H 0.24793 0.19125 1.11027
 C2097 C 0.70807 0.57695 0.10823
 C2098 C 0.70295 0.55645 0.08774
 C2099 C 0.71033 0.52873 0.09336
 C2100 C 0.72126 0.52085 0.11899
 C2101 C 0.72492 0.54036 0.14004
 C2102 C 0.71801 0.56857 0.13486
 C2103 C 0.70069 0.60517 0.10403
 C2104 C 0.70213 0.62414 0.12542
 C2105 C 0.71070 0.61562 0.15153
 C2106 C 0.71856 0.58828 0.15635
 H2107 H 0.69192 0.61299 0.08507
 H2108 H 0.69555 0.64531 0.12175
 H2109 H 0.71076 0.63007 0.16833
 H2110 H 0.72383 0.58266 0.17734
 H2111 H 0.70666 0.51288 0.07797
 H2112 H 0.72623 0.49916 0.12269
 C2113 C 0.67498 1.03955 0.59734
 C2114 C 0.69466 1.04552 0.57642
 C2115 C 0.72251 1.04108 0.58221
 C2116 C 0.73107 1.03077 0.60796
 C2117 C 0.71205 1.02318 0.62848
 C2118 C 0.68344 1.02645 0.62267
 C2119 C 0.64708 1.04702 0.59396
 C2120 C 0.62736 1.03822 0.61286
 C2121 C 0.63516 1.02286 0.63604
 C2122 C 0.66286 1.01790 0.64150
 H2123 H 0.64017 1.05987 0.57687
 H2124 H 0.60594 1.04333 0.60951
 H2125 H 0.61969 1.01556 0.65044
 H2126 H 0.66743 1.00711 0.66049
 H2127 H 0.73778 1.04583 0.56659
 H2128 H 0.75287 1.02861 0.61189
 C2129 C 0.57379 0.21026 0.60808
 C2130 C 0.55385 0.20024 0.58897
 C2131 C 0.52603 0.20207 0.59644
 C2132 C 0.51791 0.21249 0.62207
 C2133 C 0.53695 0.22389 0.64049
 C2134 C 0.56510 0.22477 0.63240
 C2135 C 0.60221 0.20545 0.60440
 C2136 C 0.62151 0.21909 0.62043
 C2137 C 0.61293 0.23611 0.64181
 C2138 C 0.58529 0.23842 0.64831
 H2139 H 0.61004 0.19042 0.58998
 H2140 H 0.64320 0.21572 0.61684
 H2141 H 0.62771 0.24624 0.65470
 H2142 H 0.58074 0.25092 0.66604
 H2143 H 0.51030 0.19474 0.58247
 H2144 H 0.49633 0.21199 0.62740
 C2145 C 1.02237 0.20362 0.09371
 C2146 C 1.05088 0.20160 0.08757
 C2147 C 1.06972 0.20928 0.10809
 C2148 C 1.06104 0.21672 0.13461
 C2149 C 1.03324 0.21588 0.14218
 C2150 C 1.01352 0.21042 0.12120
 C2151 C 1.00240 0.20039 0.07277
 C2152 C 0.97453 0.20242 0.07878
 C2153 C 0.96593 0.20874 0.10551
 C2154 C 0.98516 0.21320 0.12638
 H2155 H 1.00797 0.19734 0.05138
 H2156 H 0.95953 0.19979 0.06243
 H2157 H 0.94426 0.21099 0.10991
 H2158 H 0.97754 0.21992 0.14616
 H2159 H 1.09153 0.20879 0.10386
 H2160 H 1.07649 0.22215 0.14978
 C2161 C 0.63384 0.18895 0.68792
 C2162 C 0.65927 0.19930 0.69817
 C2163 C 0.65887 0.21419 0.72322
 C2164 C 0.63420 0.22316 0.73504
 C2165 C 0.60914 0.21557 0.72335
 C2166 C 0.60877 0.19702 0.70080
 C2167 C 0.63245 0.17075 0.66525
 C2168 C 0.60759 0.16013 0.65592
 C2169 C 0.58325 0.16814 0.66850
 C2170 C 0.58371 0.18647 0.69065
 H2171 H 0.65018 0.16493 0.65411
 H2172 H 0.60717 0.14622 0.63835
 H2173 H 0.56387 0.16074 0.66070
 H2174 H 0.56424 0.19222 0.69971
 H2175 H 0.67801 0.22036 0.73272
 H2176 H 0.63469 0.23649 0.75306
 C2177 C 1.13813 0.18845 0.18500
 C2178 C 1.16367 0.19507 0.19751
 C2179 C 1.16384 0.20612 0.22444
 C2180 C 1.13932 0.21233 0.23812
 C2181 C 1.11422 0.20509 0.22627
 C2182 C 1.11383 0.19052 0.20089
 C2183 C 1.13565 0.18029 0.15708
 C2184 C 1.11172 0.16803 0.14734
 C2185 C 1.08917 0.16564 0.16476
 C2186 C 1.08977 0.17786 0.19087
 H2187 H 1.15158 0.18408 0.14227
 H2188 H 1.11059 0.16067 0.12617
 H2189 H 1.07067 0.15579 0.15746
 H2190 H 1.07178 0.17612 0.20354
 H2191 H 1.18312 0.21129 0.23423
 H2192 H 1.13991 0.22327 0.25769
 C2193 C 0.09248 0.72488 0.53580
 C2194 C 0.08974 0.69753 0.54666
 C2195 C 0.11147 0.67861 0.54329
 C2196 C 0.13661 0.68731 0.53280
 C2197 C 0.14076 0.71494 0.52464
 C2198 C 0.11829 0.73378 0.52508
 C2199 C 0.07001 0.74344 0.53508
 C2200 C 0.07304 0.77042 0.52487
 C2201 C 0.09830 0.77924 0.51474
 C2202 C 0.12071 0.76108 0.51458
 H2203 H 0.04981 0.73707 0.54175
 H2204 H 0.05561 0.78446 0.52448
 H2205 H 0.10044 0.80012 0.50656
 H2206 H 0.13967 0.76843 0.50564
 H2207 H 0.10969 0.65758 0.55122
 H2208 H 0.15349 0.67272 0.53267
 C2209 C 0.08883 0.22983 1.04009
 C2210 C 0.08623 0.20185 1.04917
 C2211 C 0.10856 0.18365 1.04585
 C2212 C 0.13292 0.19252 1.03364
 C2213 C 0.13583 0.21981 1.02392
 C2214 C 0.11369 0.23882 1.02720
 C2215 C 0.06691 0.24889 1.04275
 C2216 C 0.06941 0.27619 1.03325
 C2217 C 0.09355 0.28491 1.02057
 C2218 C 0.11544 0.26643 1.01734
 H2219 H 0.04751 0.24285 1.05172
 H2220 H 0.05240 0.29057 1.03543
 H2221 H 0.09522 0.30604 1.01293
 H2222 H 0.13348 0.27388 1.00665
 H2223 H 0.10720 0.16240 1.05324
 H2224 H 0.15003 0.17814 1.03253
 C2225 C 0.59635 0.54014 0.24098
 C2226 C 0.58917 0.54432 0.21272
 C2227 C 0.60954 0.54198 0.19245
 C2228 C 0.63679 0.53697 0.19960
 C2229 C 0.64470 0.53373 0.22744
 C2230 C 0.62420 0.53444 0.24842
 C2231 C 0.57614 0.54045 0.26192
 C2232 C 0.58306 0.53532 0.28956
 C2233 C 0.61007 0.52923 0.29679
 C2234 C 0.63042 0.52847 0.27646
 H2235 H 0.55476 0.54393 0.25707
 H2236 H 0.56730 0.53554 0.30539
 H2237 H 0.61523 0.52466 0.31821
 H2238 H 0.65076 0.52244 0.28290
 H2239 H 0.60434 0.54487 0.17093
 H2240 H 0.65195 0.53594 0.18317
 C2241 C 0.58708 1.02956 0.71959
 C2242 C 0.58652 1.05156 0.69991
 C2243 C 0.61107 1.06130 0.68860
 C2244 C 0.63608 1.05003 0.69697
 C2245 C 0.63716 1.02783 0.71588
 C2246 C 0.61266 1.01738 0.72748
 C2247 C 0.56273 1.01931 0.73143
 C2248 C 0.56356 0.99749 0.75066
 C2249 C 0.58858 0.98557 0.75838
 C2250 C 0.61300 0.99539 0.74696
 H2251 H 0.54298 1.02802 0.72593
 H2252 H 0.54469 0.98978 0.75961
 H2253 H 0.58906 0.96866 0.77331
 H2254 H 0.63208 0.98568 0.75344
 H2255 H 0.61076 1.07815 0.67356
 H2256 H 0.65482 1.05857 0.68841
 C2257 C 0.89091 0.43310 0.31791
 C2258 C 0.91634 0.44316 0.30818
 C2259 C 0.91684 0.46337 0.28712
 C2260 C 0.89249 0.47416 0.27600
 C2261 C 0.86701 0.46406 0.28474
 C2262 C 0.86614 0.44263 0.30531
 C2263 C 0.88976 0.41303 0.33943
 C2264 C 0.86480 0.40178 0.34774
 C2265 C 0.84067 0.41020 0.33477
 C2266 C 0.84131 0.43029 0.31379
 H2267 H 0.90813 0.40554 0.34967
 H2268 H 0.86423 0.38624 0.36409
 H2269 H 0.82133 0.40107 0.34090
 H2270 H 0.82226 0.43543 0.30406
 H2271 H 0.93631 0.47101 0.27953
 H2272 H 0.89352 0.49036 0.26032
 C2273 C 0.88731 0.94285 0.80583
 C2274 C 0.91224 0.95355 0.79527
 C2275 C 0.91167 0.97179 0.77236
 C2276 C 0.88674 0.98027 0.76058
 C2277 C 0.86192 0.97111 0.77186
 C2278 C 0.86205 0.95241 0.79459
 C2279 C 0.88690 0.92383 0.82819
 C2280 C 0.86214 0.91467 0.83936
 C2281 C 0.83746 0.92446 0.82856
 C2282 C 0.83732 0.94308 0.80651
 H2283 H 0.90556 0.91601 0.83720
 H2284 H 0.86205 0.90017 0.85659
 H2285 H 0.81811 0.91810 0.83727
 H2286 H 0.81757 0.94987 0.79886
 H2287 H 0.93066 0.97998 0.76415
 H2288 H 0.88677 0.99465 0.74317
 C2289 C 0.33490 0.26629 0.78008
 C2290 C 0.32914 0.29524 0.78077
 C2291 C 0.34675 0.31230 0.76499
 C2292 C 0.37324 0.30365 0.75865
 C2293 C 0.38233 0.27677 0.76542
 C2294 C 0.36208 0.25697 0.77327
 C2295 C 0.31472 0.24667 0.78707
 C2296 C 0.32115 0.21841 0.78802
 C2297 C 0.34756 0.20927 0.78158
 C2298 C 0.36779 0.22829 0.77402
 H2299 H 0.29391 0.25313 0.79165
 H2300 H 0.30552 0.20350 0.79357
 H2301 H 0.35228 0.18727 0.78199
 H2302 H 0.38748 0.22028 0.76780
 H2303 H 0.34152 0.33351 0.75982
 H2304 H 0.38718 0.31886 0.74998
 C2305 C 0.84531 0.29125 0.27066
 C2306 C 0.84095 0.29724 0.29915
 C2307 C 0.86177 0.29099 0.31835
 C2308 C 0.88722 0.28131 0.30961
 C2309 C 0.89256 0.27640 0.28155
 C2310 C 0.87122 0.28048 0.26182
 C2311 C 0.82439 0.29557 0.25084
 C2312 C 0.82874 0.28927 0.22297
 C2313 C 0.85377 0.27821 0.21443
 C2314 C 0.87476 0.27361 0.23364
 H2315 H 0.80436 0.30327 0.25676
 H2316 H 0.81247 0.29260 0.20800
 H2317 H 0.85685 0.27288 0.19285
 H2318 H 0.89343 0.26407 0.22632
 H2319 H 0.85896 0.29583 0.34009
 H2320 H 0.90348 0.27884 0.32476
 C2321 C 0.39683 0.78532 0.42257
 C2322 C 0.41579 0.79588 0.44263
 C2323 C 0.40889 0.79385 0.47090
 C2324 C 0.38354 0.78380 0.47956
 C2325 C 0.36376 0.77554 0.46030
 C2326 C 0.37019 0.77670 0.43149
 C2327 C 0.40277 0.78381 0.39380
 C2328 C 0.38374 0.77369 0.37496
 C2329 C 0.35722 0.76824 0.38330
 C2330 C 0.35026 0.77062 0.41109
 H2331 H 0.42188 0.78952 0.38479
 H2332 H 0.38945 0.77068 0.35359
 H2333 H 0.34197 0.76228 0.36817
 H2334 H 0.32902 0.76808 0.41605
 H2335 H 0.42306 0.80121 0.48649
 H2336 H 0.37910 0.78304 0.50159
 C2337 C 0.40029 0.27079 0.93727
 C2338 C 0.41334 0.29304 0.95202
 C2339 C 0.40122 0.30106 0.97740
 C2340 C 0.37660 0.28977 0.98654
 C2341 C 0.36452 0.26745 0.97267
 C2342 C 0.37921 0.25529 0.95058
 C2343 C 0.40672 0.26286 0.90988
 C2344 C 0.40143 0.23596 0.90086
 C2345 C 0.38612 0.21806 0.91742
 C2346 C 0.37370 0.22813 0.94136
 H2347 H 0.41588 0.27693 0.89519
 H2348 H 0.40896 0.22912 0.88089
 H2349 H 0.38242 0.19697 0.91082
 H2350 H 0.36083 0.21419 0.95316
 H2351 H 0.41018 0.31706 0.99011
 H2352 H 0.36685 0.29891 1.00453
 C2353 C 0.82746 0.45820 0.39706
 C2354 C 0.80666 0.44967 0.41587
 C2355 C 0.77916 0.45204 0.40775
 C2356 C 0.77198 0.46294 0.38192
 C2357 C 0.79189 0.47343 0.36373
 C2358 C 0.82011 0.47233 0.37195
 C2359 C 0.85544 0.45230 0.40223
 C2360 C 0.87592 0.46381 0.38581
 C2361 C 0.86894 0.48034 0.36317
 C2362 C 0.84150 0.48396 0.35580
 H2363 H 0.86186 0.43824 0.41849
 H2364 H 0.89727 0.45962 0.39051
 H2365 H 0.88491 0.48940 0.35045
 H2366 H 0.83795 0.49599 0.33738
 H2367 H 0.76302 0.44540 0.42170
 H2368 H 0.75046 0.46362 0.37628
 C2369 C 0.77294 0.95600 0.90279
 C2370 C 0.80152 0.95361 0.90784
 C2371 C 0.81978 0.96497 0.88828
 C2372 C 0.81048 0.97570 0.86305
 C2373 C 0.78262 0.97524 0.85618
 C2374 C 0.76342 0.96706 0.87688
 C2375 C 0.75360 0.94862 0.92329
 C2376 C 0.72557 0.95159 0.91835
 C2377 C 0.71628 0.96268 0.89329
 C2378 C 0.73495 0.97071 0.87289
 H2379 H 0.75984 0.94142 0.94361
 H2380 H 0.71099 0.94589 0.93433
 H2381 H 0.69450 0.96564 0.88987
 H2382 H 0.72691 0.98084 0.85456
 H2383 H 0.84167 0.96374 0.89173
 H2384 H 0.82545 0.98268 0.84800
 C2385 C 0.29125 0.76631 0.33012
 C2386 C 0.29872 0.79464 0.32685
 C2387 C 0.29136 0.81300 0.34817
 C2388 C 0.28005 0.80337 0.37302
 C2389 C 0.27756 0.77489 0.37863
 C2390 C 0.28211 0.75605 0.35654
 C2391 C 0.29077 0.74837 0.30725
 C2392 C 0.28473 0.72027 0.31062
 C2393 C 0.27789 0.70980 0.33671
 C2394 C 0.27599 0.72757 0.35939
 H2395 H 0.29301 0.75637 0.28647
 H2396 H 0.28462 0.70671 0.29278
 H2397 H 0.27284 0.68805 0.33914
 H2398 H 0.26859 0.71898 0.37870
 H2399 H 0.29485 0.83507 0.34589
 H2400 H 0.27452 0.81839 0.38868
 C2401 C 0.31854 0.27831 0.84334
 C2402 C 0.30121 0.29591 0.82689
 C2403 C 0.27470 0.30152 0.83715
 C2404 C 0.26591 0.29129 0.86269
 C2405 C 0.28195 0.27242 0.87802
 C2406 C 0.30706 0.26312 0.86602
 C2407 C 0.34675 0.27456 0.83788
 C2408 C 0.36044 0.25102 0.84764
 C2409 C 0.34673 0.23214 0.86451
 C2410 C 0.32088 0.23875 0.87493
 H2411 H 0.35805 0.28835 0.82449
 H2412 H 0.38127 0.24682 0.84102
 H2413 H 0.35638 0.21261 0.87005
 H2414 H 0.31139 0.22352 0.88824
 H2415 H 0.26057 0.31470 0.82585
 H2416 H 0.24612 0.29814 0.87034
 C2417 C 0.46530 0.27098 0.91500
 C2418 C 0.45448 0.29819 0.91923
 C2419 C 0.45516 0.31750 0.89727
 C2420 C 0.46361 0.30969 0.87092
 C2421 C 0.47191 0.28239 0.86565
 C2422 C 0.47425 0.26315 0.88793
 C2423 C 0.46520 0.25072 0.93633
 C2424 C 0.47531 0.22401 0.93159
 C2425 C 0.48540 0.21687 0.90555
 C2426 C 0.48485 0.23618 0.88384
 H2427 H 0.45675 0.25511 0.95659
 H2428 H 0.47521 0.20873 0.94820
 H2429 H 0.49344 0.19617 0.90207
 H2430 H 0.49291 0.22992 0.86394
 H2431 H 0.44717 0.33832 0.90005
 H2432 H 0.46246 0.32482 0.85416
 C2433 C 0.95659 0.27313 0.41548
 C2434 C 0.95002 0.30191 0.41700
 C2435 C 0.95548 0.31906 0.39408
 C2436 C 0.96554 0.30808 0.36943
 C2437 C 0.97163 0.27979 0.36712
 C2438 C 0.96783 0.26208 0.39047
 C2439 C 0.95211 0.25507 0.43822
 C2440 C 0.95889 0.22695 0.43657
 C2441 C 0.97053 0.21635 0.41245
 C2442 C 0.97516 0.23371 0.38965
 H2443 H 0.94376 0.26254 0.45760
 H2444 H 0.95543 0.21339 0.45423
 H2445 H 0.97617 0.19459 0.41146
 H2446 H 0.98490 0.22479 0.37165
 H2447 H 0.94970 0.34079 0.39463
 H2448 H 0.96749 0.32162 0.35148
 C2449 C 0.47448 0.41678 0.78811
 C2450 C 0.45152 0.41719 0.80607
 C2451 C 0.43747 0.39247 0.81120
 C2452 C 0.44518 0.36773 0.79862
 C2453 C 0.46774 0.36671 0.78082
 C2454 C 0.48277 0.39129 0.77546
 C2455 C 0.48947 0.44109 0.78260
 C2456 C 0.51223 0.44038 0.76504
 C2457 C 0.52038 0.41552 0.75273
 C2458 C 0.50583 0.39112 0.75783
 H2459 H 0.48376 0.46070 0.79182
 H2460 H 0.52362 0.45920 0.76096
 H2461 H 0.53804 0.41516 0.73912
 H2462 H 0.51263 0.37224 0.74779
 H2463 H 0.42092 0.39225 0.82590
 H2464 H 0.43409 0.34891 0.80370
 C2465 C 0.98232 0.40678 0.29675
 C2466 C 0.95377 0.40914 0.30204
 C2467 C 0.93672 0.38710 0.29438
 C2468 C 0.94738 0.36232 0.28457
 C2469 C 0.97555 0.35855 0.28129
 C2470 C 0.99337 0.38119 0.28651
 C2471 C 1.00007 0.42920 0.30157
 C2472 C 1.02817 0.42651 0.29676
 C2473 C 1.03897 0.40165 0.28676
 C2474 C 1.02178 0.37921 0.28147
 H2475 H 0.99233 0.44904 0.30864
 H2476 H 1.04161 0.44389 0.30055
 H2477 H 1.06076 0.39984 0.28278
 H2478 H 1.03087 0.36061 0.27293
 H2479 H 0.91502 0.38801 0.29820
 H2480 H 0.93353 0.34516 0.28113
 C2481 C 0.30519 0.88945 0.43191
 C2482 C 0.29925 0.91242 0.44924
 C2483 C 0.28794 0.90738 0.47562
 C2484 C 0.28003 0.88065 0.48367
 C2485 C 0.28497 0.85797 0.46633
 C2486 C 0.29954 0.86203 0.44132
 C2487 C 0.31772 0.89294 0.40590
 C2488 C 0.32644 0.87018 0.39052
 C2489 C 0.32391 0.84355 0.40128
 C2490 C 0.30998 0.83934 0.42612
 H2491 H 0.32155 0.91321 0.39762
 H2492 H 0.33556 0.87323 0.37038
 H2493 H 0.33206 0.82602 0.38995
 H2494 H 0.30799 0.81829 0.43344
 H2495 H 0.28411 0.92446 0.48959
 H2496 H 0.26993 0.87766 0.50350
 C2497 C 0.28823 0.40876 0.97918
 C2498 C 0.30294 0.41311 0.95420
 C2499 C 0.30727 0.39084 0.93611
 C2500 C 0.29802 0.36433 0.94283
 C2501 C 0.28436 0.35928 0.96792
 C2502 C 0.27887 0.38161 0.98614
 C2503 C 0.28208 0.43100 0.99708
 C2504 C 0.26731 0.42655 1.02149
 C2505 C 0.25812 0.40003 1.02830
 C2506 C 0.26363 0.37775 1.01076
 H2507 H 0.28820 0.45201 0.99220
 H2508 H 0.26273 0.44381 1.03505
 H2509 H 0.24640 0.39676 1.04712
 H2510 H 0.25549 0.35766 1.01639
 H2511 H 0.31851 0.39400 0.91696
 H2512 H 0.30201 0.34746 0.92856
 C2513 C 0.82691 0.35789 0.28343
 C2514 C 0.80870 0.33942 0.29772
 C2515 C 0.78091 0.34724 0.29961
 C2516 C 0.77131 0.37246 0.28895
 C2517 C 0.78840 0.39009 0.27362
 C2518 C 0.81613 0.38161 0.26886
 C2519 C 0.85568 0.35408 0.28351
 C2520 C 0.87234 0.36840 0.26500
 C2521 C 0.86150 0.38925 0.24846
 C2522 C 0.83400 0.39642 0.25086
 H2523 H 0.86599 0.34059 0.29797
 H2524 H 0.89377 0.36325 0.26333
 H2525 H 0.87462 0.40045 0.23417
 H2526 H 0.82759 0.41301 0.23745
 H2527 H 0.76635 0.33381 0.30997
 H2528 H 0.75008 0.37818 0.29256
   
