data_POSCAR
  _audit_creation_date              2014-09-24
  _audit_creation_method            'ToBaCCo'
  _symmetry_space_group_name_H-M    'P1'
  _symmetry_Int_Tables_number       1
  _symmetry_cell_setting            triclinic
  loop_
  _symmetry_equiv_pos_as_xyz
 x,y,z
_cell_length_a 42.5089
_cell_length_b 42.2272
_cell_length_c 42.2998
_cell_angle_alpha 89.674800
_cell_angle_beta 89.875000
_cell_angle_gamma 89.627400
loop_
  _atom_site_label
  _atom_site_type_symbol
  _atom_site_fract_x
  _atom_site_fract_y
  _atom_site_fract_z
C1 C 0.73828 0.62088 1.04818
 C2 C 0.75434 0.63378 1.02229
 C3 C 0.78352 0.64838 1.02666
 C4 C 0.79729 0.64979 1.05691
 C5 C 0.78037 0.63693 1.08271
 C6 C 0.75051 0.62306 1.07901
 C7 C 0.74059 0.63158 0.99035
 C8 C 0.71063 0.64429 0.98432
 C9 C 0.69695 0.64170 0.95421
 C10 C 0.71434 0.62668 0.93014
 C11 C 0.74464 0.61418 0.93555
 C12 C 0.75732 0.61642 0.96614
 H13 H 0.71660 0.60839 1.04375
 H14 H 0.79462 0.65889 1.00623
 H15 H 0.69876 0.65677 1.00314
 H16 H 0.77974 0.60574 0.97191
 H17 H 0.79093 0.63756 1.10597
 H18 H 0.70416 0.62480 0.90678
 C19 C 0.74716 0.38455 0.46588
 C20 C 0.76174 0.36826 0.49084
 C21 C 0.79147 0.35436 0.48638
 C22 C 0.80641 0.35588 0.45667
 C23 C 0.79181 0.37349 0.43231
 C24 C 0.76259 0.38862 0.43675
 C25 C 0.74607 0.36713 0.52198
 C26 C 0.71630 0.35333 0.52518
 C27 C 0.70047 0.35371 0.55443
 C28 C 0.71427 0.37006 0.57977
 C29 C 0.74349 0.38525 0.57659
 C30 C 0.75986 0.38218 0.54785
 H31 H 0.72386 0.39425 0.46967
 H32 H 0.80244 0.34253 0.50622
 H33 H 0.70579 0.34281 0.50458
 H34 H 0.78295 0.39254 0.54506
 H35 H 0.80335 0.37520 0.40953
 H36 H 0.70198 0.37060 0.60215
 C37 C 0.23818 -0.12646 -0.04314
 C38 C 0.25353 -0.14138 -0.01784
 C39 C 0.28295 -0.15584 -0.02251
 C40 C 0.29724 -0.15583 -0.05265
 C41 C 0.28204 -0.13898 -0.07728
 C42 C 0.25200 -0.12540 -0.07331
 C43 C 0.23929 -0.14014 0.01397
 C44 C 0.20963 -0.15345 0.01947
 C45 C 0.19540 -0.15173 0.04958
 C46 C 0.21059 -0.13372 0.07305
 C47 C 0.23961 -0.11883 0.06739
 C48 C 0.25450 -0.12376 0.03813
 H49 H 0.21619 -0.11433 -0.03852
 H50 H 0.29461 -0.16616 -0.00222
 H51 H 0.19801 -0.16466 -0.00014
 H52 H 0.27757 -0.11403 0.03353
 H53 H 0.29392 -0.13618 -0.09978
 H54 H 0.19955 -0.13130 0.09599
 C55 C 0.24720 0.11021 0.53695
 C56 C 0.26189 0.12614 0.51190
 C57 C 0.29123 0.14038 0.51646
 C58 C 0.30579 0.13948 0.54630
 C59 C 0.29060 0.12327 0.57114
 C60 C 0.26204 0.10733 0.56651
 C61 C 0.24690 0.12713 0.48049
 C62 C 0.21739 0.14160 0.47642
 C63 C 0.20282 0.14202 0.44656
 C64 C 0.21872 0.12787 0.42095
 C65 C 0.24860 0.11379 0.42445
 C66 C 0.26218 0.11310 0.45472
 H67 H 0.22433 0.09981 0.53309
 H68 H 0.30177 0.15267 0.49674
 H69 H 0.20658 0.15281 0.49659
 H70 H 0.28420 0.10089 0.45894
 H71 H 0.30124 0.12340 0.59436
 H72 H 0.20753 0.12783 0.39797
 C73 C 0.11583 0.54617 0.23477
 C74 C 0.12875 0.51978 0.25029
 C75 C 0.14298 0.52329 0.27992
 C76 C 0.14413 0.55314 0.29442
 C77 C 0.13053 0.57927 0.27861
 C78 C 0.11722 0.57657 0.24825
 C79 C 0.12667 0.48826 0.23557
 C80 C 0.13989 0.48306 0.20565
 C81 C 0.13827 0.45307 0.19146
 C82 C 0.12264 0.42862 0.20780
 C83 C 0.10790 0.43379 0.23715
 C84 C 0.11116 0.46363 0.25135
 H85 H 0.10372 0.54238 0.21265
 H86 H 0.15289 0.50252 0.29113
 H87 H 0.15225 0.50234 0.19446
 H88 H 0.10191 0.46810 0.27472
 H89 H 0.13027 0.60196 0.29042
 H90 H 0.12209 0.40519 0.19752
 C91 C -0.11849 -0.03367 0.25038
 C92 C -0.13489 -0.00941 0.26582
 C93 C -0.14856 -0.01512 0.29549
 C94 C -0.14712 -0.04549 0.30950
 C95 C -0.12922 -0.06911 0.29403
 C96 C -0.11419 -0.06339 0.26491
 C97 C -0.13701 0.02235 0.25115
 C98 C -0.15017 0.02623 0.22101
 C99 C -0.15134 0.05630 0.20634
 C100 C -0.13691 0.08185 0.22200
 C101 C -0.12462 0.07864 0.25273
 C102 C -0.12450 0.04845 0.26687
 H103 H -0.10897 -0.02887 0.22714
 H104 H -0.16018 0.00446 0.30702
 H105 H -0.15861 0.00538 0.20911
 H106 H -0.11327 0.04461 0.28951
 H107 H -0.12713 -0.09239 0.30476
 H108 H -0.13484 0.10438 0.20987
 C109 C 0.38193 0.46085 0.73971
 C110 C 0.36667 0.48579 0.75525
 C111 C 0.35280 0.48065 0.78491
 C112 C 0.35364 0.45043 0.79927
 C113 C 0.37071 0.42617 0.78385
 C114 C 0.38373 0.43056 0.75354
 C115 C 0.36568 0.51758 0.74052
 C116 C 0.35292 0.52169 0.71023
 C117 C 0.35241 0.55173 0.69569
 C118 C 0.36629 0.57726 0.71169
 C119 C 0.37813 0.57387 0.74259
 C120 C 0.37816 0.54355 0.75650
 H121 H 0.39342 0.46580 0.71742
 H122 H 0.34194 0.50065 0.79649
 H123 H 0.34400 0.50111 0.69828
 H124 H 0.38896 0.53961 0.77935
 H125 H 0.37370 0.40349 0.79559
 H126 H 0.36794 0.59990 0.69971
 C127 C 0.61730 1.04432 0.74529
 C128 C 0.63006 1.01783 0.76071
 C129 C 0.64405 1.02112 0.79050
 C130 C 0.64528 1.05098 0.80526
 C131 C 0.63176 1.07723 0.78930
 C132 C 0.61826 1.07442 0.75912
 C133 C 0.62821 0.98648 0.74559
 C134 C 0.64186 0.98158 0.71579
 C135 C 0.64013 0.95182 0.70114
 C136 C 0.62386 0.92738 0.71681
 C137 C 0.60878 0.93225 0.74601
 C138 C 0.61215 0.96181 0.76074
 H139 H 0.60607 1.04133 0.72253
 H140 H 0.65401 1.00020 0.80134
 H141 H 0.65437 1.00097 0.70496
 H142 H 0.60249 0.96610 0.78397
 H143 H 0.63174 1.09984 0.80105
 H144 H 0.62292 0.90419 0.70601
 C145 C -0.03690 0.23766 -0.11894
 C146 C -0.01207 0.25336 -0.13392
 C147 C -0.01696 0.28349 -0.14721
 C148 C -0.04687 0.29815 -0.14596
 C149 C -0.07107 0.28238 -0.12933
 C150 C -0.06687 0.25169 -0.11685
 C151 C 0.01944 0.23851 -0.13438
 C152 C 0.02396 0.20894 -0.14867
 C153 C 0.05386 0.19424 -0.14880
 C154 C 0.07828 0.20882 -0.13169
 C155 C 0.07370 0.23774 -0.11590
 C156 C 0.04446 0.25314 -0.11892
 H157 H -0.03208 0.21508 -0.10773
 H158 H 0.00301 0.29517 -0.15776
 H159 H 0.00381 0.19780 -0.15927
 H160 H 0.04066 0.27618 -0.10841
 H161 H -0.09350 0.29425 -0.12606
 H162 H 0.10114 0.19746 -0.13092
 C163 C 0.54499 0.24463 0.11256
 C164 C 0.51965 0.25931 0.12793
 C165 C 0.52399 0.28831 0.14329
 C166 C 0.55388 0.30240 0.14416
 C167 C 0.57907 0.28701 0.12879
 C168 C 0.57468 0.25904 0.11152
 C169 C 0.48826 0.24465 0.12700
 C170 C 0.48357 0.21430 0.13975
 C171 C 0.45393 0.19980 0.13785
 C172 C 0.42932 0.21637 0.12272
 C173 C 0.43338 0.24706 0.11038
 C174 C 0.46332 0.26083 0.11238
 H175 H 0.54126 0.22210 0.10111
 H176 H 0.50407 0.29889 0.15515
 H177 H 0.50316 0.20269 0.15121
 H178 H 0.46808 0.28358 0.10171
 H179 H 0.60234 0.29708 0.13051
 H180 H 0.40657 0.20515 0.12065
 C181 C 1.04244 0.73822 0.61704
 C182 C 1.01678 0.75437 0.63022
 C183 C 1.02091 0.78462 0.64308
 C184 C 1.05066 0.79921 0.64253
 C185 C 1.07605 0.78247 0.62873
 C186 C 1.07254 0.75171 0.61674
 C187 C 0.98535 0.73969 0.63006
 C188 C 0.98079 0.70986 0.64402
 C189 C 0.95108 0.69539 0.64330
 C190 C 0.92610 0.71162 0.62836
 C191 C 0.92999 0.74192 0.61497
 C192 C 0.96012 0.75545 0.61549
 H193 H 1.03867 0.71527 0.60643
 H194 H 1.00068 0.79594 0.65362
 H195 H 1.00052 0.69869 0.65567
 H196 H 0.96469 0.77776 0.60381
 H197 H 1.09868 0.79392 0.62727
 H198 H 0.90325 0.70047 0.62735
 C199 C 0.45823 0.74343 0.38116
 C200 C 0.48350 0.75866 0.36640
 C201 C 0.47895 0.78819 0.35176
 C202 C 0.44904 0.80271 0.35169
 C203 C 0.42428 0.78756 0.36788
 C204 C 0.42811 0.75733 0.38155
 C205 C 0.51499 0.74384 0.36735
 C206 C 0.52010 0.71426 0.35327
 C207 C 0.54985 0.69956 0.35470
 C208 C 0.57366 0.71417 0.37244
 C209 C 0.56851 0.74313 0.38797
 C210 C 0.53935 0.75850 0.38387
 H211 H 0.46266 0.72124 0.39331
 H212 H 0.49901 0.79959 0.34108
 H213 H 0.50059 0.70307 0.34157
 H214 H 0.53507 0.78158 0.39406
 H215 H 0.40179 0.79957 0.36972
 H216 H 0.59644 0.70272 0.37410
 C217 C 0.39049 -0.02889 0.29361
 H218 H 0.37986 -0.00950 0.30641
 C219 C 0.40430 -0.05384 0.31046
 H220 H 0.40321 -0.05294 0.33589
 C221 C 0.40288 -0.05343 0.24501
 H222 H 0.40173 -0.05366 0.21956
 C223 C 0.41710 -0.07881 0.26089
 H224 H 0.42654 -0.09835 0.24729
 N225 N 0.38885 -0.02967 0.26152
 C226 C 0.36930 0.04994 0.19859
 H227 H 0.34463 0.04532 0.19458
 C228 C 0.38353 0.07575 0.18399
 H229 H 0.36953 0.09089 0.16869
 C230 C 0.41674 0.03667 0.22494
 H231 H 0.42922 0.02167 0.24158
 C232 C 0.43200 0.06245 0.21081
 H233 H 0.45617 0.06676 0.21711
 Zn234 Zn 0.36233 0.00027 0.24059
 N235 N 0.38583 0.03133 0.21896
 C236 C 0.33924 0.05259 0.27540
 N237 N 0.33680 0.02076 0.27147
 C238 C 0.31838 0.00306 0.29097
 C239 C 0.30148 0.01728 0.31550
 C240 C 0.32278 0.06775 0.29959
 C241 C 0.35141 -0.03078 0.18334
 C242 C 0.33430 -0.04619 0.15997
 C243 C 0.28755 -0.04002 0.19183
 C244 C 0.30561 -0.02475 0.21465
 N245 N 0.33703 -0.02070 0.21024
 H246 H 0.35469 0.06626 0.26042
 H247 H 0.31771 -0.02238 0.28814
 H248 H 0.28832 0.00215 0.33127
 H249 H 0.32594 0.09295 0.30283
 H250 H 0.37621 -0.02649 0.17980
 H251 H 0.34642 -0.05442 0.13900
 H252 H 0.26293 -0.04368 0.19680
 H253 H 0.29434 -0.01626 0.23586
 C254 C 0.41522 0.08271 0.19017
 C255 C 0.41712 -0.07989 0.29416
 C256 C 0.30174 -0.05064 0.16366
 C257 C 0.30323 0.05025 0.31997
 C258 C 0.11201 1.02702 0.79854
 H259 H 0.12347 1.00853 0.81206
 C260 C 0.09818 1.05245 0.81440
 H261 H 0.10033 1.05301 0.83979
 C262 C 0.09771 1.04904 0.74907
 H263 H 0.09814 1.04813 0.72361
 C264 C 0.08348 1.07489 0.76395
 H265 H 0.07348 1.09367 0.74955
 N266 N 0.11266 1.02632 0.76641
 C267 C 0.13285 0.94662 0.70475
 H268 H 0.15769 0.95107 0.70155
 C269 C 0.11902 0.92105 0.68979
 H270 H 0.13350 0.90589 0.67508
 C271 C 0.08454 0.96013 0.72942
 H272 H 0.07156 0.97515 0.74552
 C273 C 0.06963 0.93456 0.71486
 H274 H 0.04521 0.93035 0.72032
 Zn275 Zn 0.13910 0.99598 0.74617
 N276 N 0.11572 0.96523 0.72447
 C277 C 0.16068 0.94321 0.78156
 N278 N 0.16409 0.97495 0.77734
 C279 C 0.18331 0.99194 0.79642
 C280 C 0.20002 0.97705 0.82082
 C281 C 0.17690 0.92741 0.80558
 C282 C 0.15047 1.02629 0.68850
 C283 C 0.16772 1.04082 0.66448
 C284 C 0.21450 1.03465 0.69616
 C285 C 0.19628 1.02024 0.71966
 N286 N 0.16479 1.01657 0.71560
 H287 H 0.14471 0.93008 0.76687
 H288 H 0.18492 1.01733 0.79331
 H289 H 0.21411 0.99166 0.83599
 H290 H 0.17322 0.90225 0.80887
 H291 H 0.12565 1.02215 0.68519
 H292 H 0.15569 1.04858 0.64323
 H293 H 0.23922 1.03783 0.70076
 H294 H 0.20749 1.01195 0.74102
 C295 C 0.08705 0.91433 0.69487
 C296 C 0.08412 1.07735 0.79711
 C297 C 0.20035 1.04482 0.66774
 C298 C 0.19707 0.94416 0.82568
 C299 C 0.61969 0.53571 0.30707
 H300 H 0.63722 0.52265 0.32027
 C301 C 0.60495 0.56159 0.32115
 H302 H 0.61173 0.56780 0.34494
 C303 C 0.59336 0.54599 0.25881
 H304 H 0.59020 0.54062 0.23405
 C305 C 0.57796 0.57216 0.27204
 H306 H 0.56320 0.58672 0.25700
 N307 N 0.61401 0.52859 0.27633
 C308 C 0.63695 0.44264 0.22430
 H309 H 0.66226 0.44496 0.22539
 C310 C 0.62379 0.41649 0.20971
 H311 H 0.63923 0.39883 0.19940
 C312 C 0.58640 0.46317 0.23644
 H313 H 0.57205 0.48146 0.24710
 C314 C 0.57210 0.43708 0.22214
 H315 H 0.54676 0.43615 0.22188
 Zn316 Zn 0.64057 0.49878 0.25611
 N317 N 0.61829 0.46547 0.23700
 C318 C 0.65288 0.46128 0.30844
 N319 N 0.66735 0.47965 0.28642
 C320 C 0.69910 0.48335 0.28638
 C321 C 0.71748 0.46909 0.30996
 C322 C 0.67024 0.44669 0.33235
 C323 C 0.66068 0.51384 0.19397
 C324 C 0.67578 0.53186 0.17085
 C325 C 0.69664 0.56517 0.21186
 C326 C 0.68109 0.54645 0.23425
 N327 N 0.66362 0.52131 0.22503
 H328 H 0.62762 0.45839 0.30762
 H329 H 0.71023 0.49743 0.26817
 H330 H 0.74254 0.47271 0.30910
 H331 H 0.65811 0.43252 0.34992
 H332 H 0.64607 0.49431 0.18690
 H333 H 0.67308 0.52550 0.14623
 H334 H 0.71056 0.58460 0.22032
 H335 H 0.68267 0.55216 0.25910
 C336 C 0.59094 0.41315 0.20848
 C337 C 0.58364 0.58038 0.30375
 C338 C 0.69375 0.55830 0.17944
 C339 C 0.70301 0.45073 0.33377
 C340 C 0.89034 0.46591 0.80725
 H341 H 0.87779 0.48314 0.82129
 C342 C 0.90481 0.44020 0.82233
 H343 H 0.90206 0.43810 0.84761
 C344 C 0.90676 0.44722 0.75725
 H345 H 0.90698 0.44956 0.73186
 C346 C 0.92165 0.42117 0.77134
 H347 H 0.93272 0.40360 0.75637
 N348 N 0.89045 0.46834 0.77517
 C349 C 0.86825 0.54904 0.71441
 H350 H 0.84329 0.54476 0.71222
 C351 C 0.88174 0.57455 0.69865
 H352 H 0.86690 0.58983 0.68433
 C353 C 0.91736 0.53486 0.73693
 H354 H 0.93088 0.51949 0.75238
 C355 C 0.93195 0.56035 0.72154
 H356 H 0.95666 0.56410 0.72573
 Zn357 Zn 0.86333 0.49863 0.75542
 N358 N 0.88598 0.53007 0.73339
 C359 C 0.84155 0.55043 0.79160
 N360 N 0.83816 0.51880 0.78693
 C361 C 0.81876 0.50137 0.80570
 C362 C 0.80150 0.51576 0.82991
 C363 C 0.82485 0.56573 0.81552
 C364 C 0.85227 0.46881 0.69781
 C365 C 0.83532 0.45394 0.67401
 C366 C 0.78855 0.45858 0.70608
 C367 C 0.80647 0.47340 0.72933
 N368 N 0.83784 0.47793 0.72502
 H369 H 0.85782 0.56387 0.77730
 H370 H 0.81736 0.47602 0.80243
 H371 H 0.78730 0.50084 0.84495
 H372 H 0.82859 0.59077 0.81921
 H373 H 0.87695 0.47366 0.69424
 H374 H 0.84745 0.44670 0.65267
 H375 H 0.76395 0.45477 0.71092
 H376 H 0.79510 0.48130 0.75071
 C377 C 0.91397 0.58085 0.70217
 C378 C 0.92032 0.41687 0.80433
 C379 C 0.80287 0.44886 0.67764
 C380 C 0.80400 0.54860 0.83488
 C381 C 0.30139 0.39015 -0.03382
 H382 H 0.31487 0.37914 -0.01510
 C383 C 0.31718 0.40441 -0.05906
 H384 H 0.34253 0.40314 -0.05920
 C385 C 0.25211 0.40285 -0.05659
 H386 H 0.22680 0.40161 -0.05605
 C387 C 0.26693 0.41745 -0.08225
 H388 H 0.25263 0.42699 -0.10125
 N389 N 0.26944 0.38853 -0.03356
 C390 C 0.20890 0.36698 0.04678
 H391 H 0.20672 0.34181 0.04277
 C392 C 0.19326 0.38094 0.07207
 H393 H 0.17905 0.36624 0.08747
 C394 C 0.23128 0.41617 0.03213
 H395 H 0.24664 0.42952 0.01667
 C396 C 0.21602 0.43121 0.05737
 H397 H 0.22023 0.45610 0.06085
 Zn398 Zn 0.24972 0.36149 -0.00341
 N399 N 0.22774 0.38454 0.02769
 C400 C 0.28580 0.33970 0.04847
 N401 N 0.28124 0.33649 0.01685
 C402 C 0.30044 0.31763 -0.00075
 C403 C 0.32512 0.30084 0.01343
 C404 C 0.31017 0.32343 0.06357
 C405 C 0.19250 0.34976 -0.03321
 C406 C 0.16897 0.33233 -0.04785
 C407 C 0.20145 0.28553 -0.04266
 C408 C 0.22443 0.30393 -0.02811
 N409 N 0.21976 0.33553 -0.02395
 H410 H 0.27112 0.35560 0.06201
 H411 H 0.29719 0.31644 -0.02608
 H412 H 0.34056 0.28719 -0.00160
 H413 H 0.31383 0.32713 0.08860
 H414 H 0.18873 0.37466 -0.02870
 H415 H 0.14761 0.34430 -0.05529
 H416 H 0.20654 0.26077 -0.04626
 H417 H 0.24589 0.29277 -0.02014
 C418 C 0.19675 0.41345 0.07797
 C419 C 0.29998 0.41778 -0.08426
 C420 C 0.17293 0.29961 -0.05245
 C421 C 0.33009 0.30323 0.04624
 C422 C 0.80518 0.10805 1.03460
 H423 H 0.81941 0.11958 1.01682
 C424 C 0.81978 0.09486 1.06116
 H425 H 0.84492 0.09746 1.06326
 C426 C 0.75510 0.09335 1.05392
 H427 H 0.72986 0.09348 1.05155
 C428 C 0.76870 0.07978 1.08084
 H429 H 0.75350 0.07001 1.09894
 N430 N 0.77329 0.10835 1.03209
 C431 C 0.71374 0.13052 0.95122
 H432 H 0.71144 0.15562 0.95571
 C433 C 0.69836 0.11727 0.92562
 H434 H 0.68421 0.13245 0.91050
 C435 C 0.73623 0.08084 0.96490
 H436 H 0.75153 0.06704 0.98012
 C437 C 0.72119 0.06647 0.93926
 H438 H 0.72542 0.04160 0.93525
 Zn439 Zn 0.75410 0.13527 1.00130
 N440 N 0.73256 0.11242 0.96997
 C441 C 0.79018 0.15715 0.94951
 N442 N 0.78565 0.16021 0.98117
 C443 C 0.80439 0.17935 0.99863
 C444 C 0.82865 0.19646 0.98429
 C445 C 0.81405 0.17379 0.93424
 C446 C 0.69627 0.14732 1.03021
 C447 C 0.67239 0.16477 1.04468
 C448 C 0.70471 0.21136 1.04046
 C449 C 0.72805 0.19293 1.02605
 N450 N 0.72363 0.16142 1.02149
 H451 H 0.77575 0.14126 0.93599
 H452 H 0.80102 0.18070 1.02395
 H453 H 0.84341 0.21060 0.99925
 H454 H 0.81749 0.17054 0.90909
 H455 H 0.69268 0.12252 1.02535
 H456 H 0.65091 0.15291 1.05161
 H457 H 0.70959 0.23606 1.04430
 H458 H 0.74959 0.20402 1.01850
 C459 C 0.70208 0.08489 0.91894
 C460 C 0.80146 0.08108 1.08529
 C461 C 0.67611 0.19739 1.04975
 C462 C 0.83375 0.19396 0.95147
 C463 C 0.30322 0.60968 0.52528
 H464 H 0.31641 0.62263 0.50768
 C465 C 0.31910 0.59608 0.55088
 H466 H 0.34414 0.59970 0.55238
 C467 C 0.25440 0.59172 0.54513
 H468 H 0.22912 0.59077 0.54337
 C469 C 0.26931 0.57766 0.57107
 H470 H 0.25510 0.56627 0.58905
 N471 N 0.27130 0.60854 0.52359
 C472 C 0.20920 0.63140 0.44489
 H473 H 0.20560 0.65614 0.45046
 C474 C 0.19435 0.61839 0.41884
 H475 H 0.17933 0.63339 0.40441
 C476 C 0.23447 0.58251 0.45633
 H477 H 0.25065 0.56896 0.47083
 C478 C 0.21999 0.56840 0.43025
 H479 H 0.22559 0.54400 0.42516
 Zn480 Zn 0.24995 0.63599 0.49486
 N481 N 0.22916 0.61360 0.46272
 C482 C 0.28408 0.66208 0.44382
 N483 N 0.27970 0.66368 0.47562
 C484 C 0.29797 0.68266 0.49375
 C485 C 0.32191 0.70072 0.48003
 C486 C 0.30760 0.67971 0.42917
 C487 C 0.19209 0.64250 0.52493
 C488 C 0.16798 0.65682 0.54217
 C489 C 0.19800 0.70509 0.54261
 C490 C 0.22156 0.68983 0.52521
 N491 N 0.21858 0.65879 0.51744
 H492 H 0.27007 0.64631 0.42974
 H493 H 0.29479 0.68281 0.51913
 H494 H 0.33654 0.71446 0.49550
 H495 H 0.31114 0.67733 0.40392
 H496 H 0.18946 0.61835 0.51708
 H497 H 0.14694 0.64334 0.54693
 H498 H 0.20073 0.72988 0.54826
 H499 H 0.24208 0.70291 0.51796
 C500 C 0.19973 0.58654 0.41084
 C501 C 0.30205 0.58051 0.57487
 C502 C 0.17116 0.68825 0.55238
 C503 C 0.32713 0.69937 0.44716
 C504 C 0.79957 0.88718 0.47323
 H505 H 0.81289 0.87469 0.49112
 C506 C 0.81554 0.90198 0.44842
 H507 H 0.84080 0.89952 0.44766
 C508 C 0.75052 0.90329 0.45213
 H509 H 0.72518 0.90329 0.45318
 C510 C 0.76552 0.91850 0.42693
 H511 H 0.75132 0.92965 0.40874
 N512 N 0.76759 0.88707 0.47410
 C513 C 0.70675 0.86632 0.55437
 H514 H 0.70341 0.84138 0.54984
 C515 C 0.69193 0.88041 0.58007
 H516 H 0.67713 0.86607 0.59524
 C517 C 0.73125 0.91472 0.54062
 H518 H 0.74709 0.92769 0.52534
 C519 C 0.71686 0.92989 0.56630
 H520 H 0.72215 0.95449 0.57023
 Zn521 Zn 0.74713 0.86009 0.50386
 N522 N 0.72626 0.88341 0.53553
 C523 C 0.78287 0.83638 0.55513
 N524 N 0.77791 0.83360 0.52352
 C525 C 0.79631 0.81425 0.50560
 C526 C 0.82074 0.79672 0.51937
 C527 C 0.80699 0.81937 0.56983
 C528 C 0.68942 0.85114 0.47394
 C529 C 0.66521 0.83494 0.45901
 C530 C 0.69570 0.78676 0.46367
 C531 C 0.71943 0.80397 0.47846
 N532 N 0.71607 0.83567 0.48305
 H533 H 0.76880 0.85257 0.56896
 H534 H 0.79273 0.81331 0.48030
 H535 H 0.83560 0.78276 0.50406
 H536 H 0.81104 0.82278 0.59484
 H537 H 0.68667 0.87610 0.47878
 H538 H 0.64448 0.84797 0.45153
 H539 H 0.69974 0.76187 0.45953
 H540 H 0.74046 0.79183 0.48621
 C541 C 0.69699 0.91257 0.58669
 C542 C 0.79852 0.91757 0.42436
 C543 C 0.66774 0.80212 0.45416
 C544 C 0.82630 0.79891 0.55211
 C545 C -0.03223 0.30506 0.38508
 H546 H -0.01955 0.31791 0.36706
 C547 C -0.05735 0.31988 0.40029
 H548 H -0.06334 0.34383 0.39329
 C549 C -0.04248 0.25703 0.41220
 H550 H -0.03743 0.23209 0.41550
 C551 C -0.06788 0.27103 0.42811
 H552 H -0.08220 0.25642 0.44342
 N553 N -0.02549 0.27407 0.39088
 C554 C 0.05852 0.21959 0.36599
 H555 H 0.05547 0.22072 0.34062
 C556 C 0.08486 0.20459 0.37867
 H557 H 0.10199 0.19410 0.36279
 C558 C 0.03984 0.23231 0.41718
 H559 H 0.02227 0.24350 0.43196
 C560 C 0.06615 0.21761 0.43099
 H561 H 0.06804 0.21775 0.45639
 Zn562 Zn 0.00315 0.25312 0.36357
 N563 N 0.03655 0.23285 0.38521
 C564 C 0.04077 0.30481 0.35015
 N565 N 0.02190 0.28318 0.33618
 C566 C 0.01723 0.28342 0.30439
 C567 C 0.03080 0.30698 0.28551
 C568 C 0.05473 0.32869 0.33227
 C569 C -0.01329 0.19151 0.34343
 C570 C -0.03159 0.16910 0.32803
 C571 C -0.06430 0.21140 0.30761
 C572 C -0.04535 0.23304 0.32351
 N573 N -0.02027 0.22286 0.34075
 H574 H 0.04446 0.30377 0.37544
 H575 H 0.00283 0.26549 0.29361
 H576 H 0.02635 0.30634 0.26046
 H577 H 0.06925 0.34600 0.34401
 H578 H 0.00611 0.18368 0.35799
 H579 H -0.02567 0.14423 0.33061
 H580 H -0.08386 0.22064 0.29421
 H581 H -0.05080 0.25809 0.32233
 C582 C 0.08925 0.20344 0.41158
 C583 C -0.07575 0.30298 0.42224
 C584 C -0.05762 0.17873 0.30980
 C585 C 0.04950 0.33052 0.29949
 C586 C 1.03242 0.80692 0.11843
 H587 H 1.01960 0.82090 0.13549
 C588 C 1.05862 0.81997 0.10358
 H589 H 1.06533 0.84382 0.10973
 C590 C 1.04167 0.75768 0.09351
 H591 H 1.03577 0.73294 0.09100
 C592 C 1.06815 0.76984 0.07806
 H593 H 1.08237 0.75397 0.06395
 N594 N 1.02466 0.77617 0.11354
 C595 C 0.93806 0.72672 0.13780
 H596 H 0.94043 0.72854 0.16319
 C597 C 0.91175 0.71229 0.12500
 H598 H 0.89392 0.70300 0.14079
 C599 C 0.95865 0.73682 0.08670
 H600 H 0.97703 0.74666 0.07198
 C601 C 0.93243 0.72260 0.07274
 H602 H 0.93136 0.72181 0.04730
 Zn603 Zn 0.99473 0.75698 0.14061
 N604 N 0.96101 0.73831 0.11871
 C605 C 0.95874 0.81040 0.15289
 N606 N 0.97671 0.78794 0.16737
 C607 C 0.98049 0.78761 0.19927
 C608 C 0.96661 0.81120 0.21785
 C609 C 0.94452 0.83435 0.17045
 C610 C 1.00842 0.69457 0.16131
 C611 C 1.02612 0.67103 0.17631
 C612 C 1.06048 0.71137 0.19660
 C613 C 1.04207 0.73420 0.18114
 N614 N 1.01659 0.72550 0.16397
 H615 H 0.95570 0.80977 0.12751
 H616 H 0.99416 0.76902 0.21041
 H617 H 0.97005 0.80994 0.24306
 H618 H 0.93047 0.85213 0.15836
 H619 H 0.98863 0.68791 0.14691
 H620 H 1.01929 0.64651 0.17369
 H621 H 1.08033 0.71942 0.21007
 H622 H 1.04836 0.75894 0.18244
 C623 C 0.90847 0.70990 0.09204
 C624 C 1.07709 0.80150 0.08299
 C625 C 1.05288 0.67906 0.19395
 C626 C 0.94859 0.83540 0.20341
 C627 C 0.53085 0.30326 0.60868
 H628 H 0.51295 0.31688 0.62074
 C629 C 0.55642 0.31893 0.59517
 H630 H 0.55763 0.34424 0.59810
 C631 C 0.55144 0.25365 0.59289
 H632 H 0.54996 0.22817 0.59276
 C633 C 0.57738 0.26834 0.57892
 H634 H 0.59566 0.25376 0.56850
 N635 N 0.52948 0.27110 0.60857
 C636 C 0.45059 0.20933 0.63024
 H637 H 0.45528 0.20619 0.65519
 C638 C 0.42526 0.19403 0.61648
 H639 H 0.41054 0.17904 0.63109
 C640 C 0.46359 0.23380 0.58144
 H641 H 0.47843 0.24982 0.56818
 C642 C 0.43827 0.21890 0.56660
 H643 H 0.43417 0.22397 0.54193
 Zn644 Zn 0.50011 0.25055 0.63568
 N645 N 0.46888 0.22906 0.61280
 C646 C 0.44851 0.28576 0.65922
 N647 N 0.48012 0.28140 0.66177
 C648 C 0.49762 0.30021 0.68082
 C649 C 0.48339 0.32445 0.69825
 C650 C 0.43337 0.30963 0.67616
 C651 C 0.53042 0.19261 0.64533
 C652 C 0.54721 0.16900 0.66127
 C653 C 0.54499 0.20080 0.70842
 C654 C 0.52808 0.22380 0.69157
 N655 N 0.52188 0.21974 0.66033
 H656 H 0.43496 0.27133 0.64334
 H657 H 0.52288 0.29709 0.68167
 H658 H 0.49836 0.33949 0.71211
 H659 H 0.40829 0.31309 0.67308
 H660 H 0.52378 0.18907 0.62096
 H661 H 0.55305 0.14743 0.64883
 H662 H 0.54918 0.20443 0.73334
 H663 H 0.51991 0.24474 0.70361
 C664 C 0.41845 0.19879 0.58428
 C665 C 0.58072 0.30142 0.58065
 C666 C 0.55590 0.17338 0.69299
 C667 C 0.45066 0.32942 0.69621
 C668 C 0.46149 0.79865 0.88337
 H669 H 0.47512 0.81240 0.86676
 C670 C 0.43532 0.81255 0.89764
 H671 H 0.42947 0.83674 0.89138
 C672 C 0.45022 0.74939 0.90771
 H673 H 0.45538 0.72439 0.91024
 C674 C 0.42372 0.76242 0.92257
 H675 H 0.40868 0.74697 0.93626
 N676 N 0.46824 0.76750 0.88823
 C677 C 0.55448 0.71518 0.86660
 H678 H 0.55275 0.71672 0.84112
 C679 C 0.58049 0.70061 0.88042
 H680 H 0.59870 0.69085 0.86532
 C681 C 0.53285 0.72662 0.91693
 H682 H 0.51430 0.73720 0.93093
 C683 C 0.55877 0.71237 0.93188
 H684 H 0.55937 0.71226 0.95735
 Zn685 Zn 0.49868 0.74786 0.86193
 N686 N 0.53123 0.72763 0.88484
 C687 C 0.53632 0.80022 0.85221
 N688 N 0.51828 0.77905 0.83655
 C689 C 0.51507 0.78045 0.80460
 C690 C 0.52928 0.80482 0.78729
 C691 C 0.55092 0.82484 0.83591
 C692 C 0.48449 0.68656 0.83930
 C693 C 0.46731 0.66423 0.82255
 C694 C 0.43487 0.70649 0.80159
 C695 C 0.45270 0.72805 0.81885
 N696 N 0.47710 0.71785 0.83704
 H697 H 0.53892 0.79820 0.87758
 H698 H 0.50142 0.76281 0.79248
 H699 H 0.52626 0.80497 0.76200
 H700 H 0.56489 0.84166 0.84896
 H701 H 0.50329 0.67869 0.85462
 H702 H 0.47346 0.63940 0.82490
 H703 H 0.41573 0.71572 0.78760
 H704 H 0.44685 0.75301 0.81805
 C705 C 0.58320 0.69908 0.91351
 C706 C 0.41582 0.79453 0.91763
 C707 C 0.44197 0.67388 0.80336
 C708 C 0.54701 0.82798 0.80305
 C709 C 0.44245 -0.16542 0.33577
 C710 C 0.41246 -0.16594 0.31549
 C711 C 0.40441 -0.13745 0.30282
 C712 C 0.42716 -0.11050 0.31075
 C713 C 0.42886 -0.11053 0.34722
 C714 C 0.43666 -0.13912 0.36006
 C715 C 0.46765 -0.15167 0.31323
 C716 C 0.45968 -0.12299 0.30043
 H717 H 0.39885 -0.18712 0.31106
 H718 H 0.38379 -0.13444 0.28797
 H719 H 0.42639 -0.08991 0.36210
 H720 H 0.43993 -0.14240 0.38532
 H721 H 0.48934 -0.16345 0.30656
 H722 H 0.47493 -0.11059 0.28396
 C723 C 0.94660 0.32911 0.84048
 C724 C 0.91580 0.32993 0.82134
 C725 C 0.90760 0.35908 0.81037
 C726 C 0.93094 0.38535 0.81867
 C727 C 0.93425 0.38362 0.85495
 C728 C 0.94220 0.35440 0.86616
 C729 C 0.97100 0.34372 0.81744
 C730 C 0.96288 0.37308 0.80643
 H731 H 0.90185 0.30914 0.81619
 H732 H 0.88658 0.36299 0.79630
 H733 H 0.93315 0.40379 0.87063
 H734 H 0.94678 0.35010 0.89108
 H735 H 0.99206 0.33203 0.80884
 H736 H 0.97759 0.38606 0.78991
 C737 C 0.05988 1.16395 0.83635
 C738 C 0.06338 1.13733 0.86107
 C739 C 0.07063 1.10849 0.84883
 C740 C 0.07424 1.10844 0.81254
 C741 C 0.04277 1.12216 0.80060
 C742 C 0.03533 1.15118 0.81265
 C743 C 0.09082 1.16325 0.81730
 C744 C 0.09836 1.13444 0.80532
 H745 H 0.05867 1.14054 0.88610
 H746 H 0.07097 1.08760 0.86379
 H747 H 0.02797 1.11048 0.78340
 H748 H 0.01482 1.16400 0.80425
 H749 H 0.10526 1.18393 0.81280
 H750 H 0.11935 1.13067 0.79112
 C751 C 0.55680 0.66750 0.33968
 C752 C 0.58827 0.66690 0.32163
 C753 C 0.59641 0.63804 0.31016
 C754 C 0.57236 0.61192 0.31705
 C755 C 0.56762 0.61240 0.35317
 C756 C 0.55982 0.64131 0.36486
 C757 C 0.53300 0.65423 0.31560
 C758 C 0.54104 0.62514 0.30404
 H759 H 0.60262 0.68769 0.31747
 H760 H 0.61777 0.63429 0.29653
 H761 H 0.56842 0.59150 0.36821
 H762 H 0.55468 0.64492 0.38974
 H763 H 0.51201 0.66639 0.30747
 H764 H 0.52615 0.61274 0.28747
 C765 C 0.56074 0.33291 0.16193
 C766 C 0.57821 0.35719 0.14121
 C767 C 0.58717 0.38365 0.15679
 C768 C 0.57788 0.38411 0.19192
 C769 C 0.54196 0.37878 0.19171
 C770 C 0.53300 0.35212 0.17600
 C771 C 0.58256 0.32667 0.19020
 C772 C 0.59134 0.35315 0.20582
 H773 H 0.58245 0.35418 0.11608
 H774 H 0.59908 0.40304 0.14491
 H775 H 0.52465 0.39431 0.20237
 H776 H 0.50837 0.34640 0.17338
 H777 H 0.58988 0.30316 0.19781
 H778 H 0.60607 0.35210 0.22675
 C779 C 0.05690 0.82985 0.65636
 C780 C 0.08079 0.82686 0.68349
 C781 C 0.08968 0.85484 0.69605
 C782 C 0.07402 0.88400 0.68084
 C783 C 0.08078 0.88106 0.64523
 C784 C 0.07191 0.85302 0.63253
 C785 C 0.02942 0.84935 0.67080
 C786 C 0.03842 0.87754 0.68355
 H787 H 0.08958 0.80438 0.69258
 H788 H 0.10599 0.85609 0.71572
 H789 H 0.09072 0.89995 0.63092
 H790 H 0.07435 0.84820 0.60745
 H791 H 0.00474 0.84340 0.66956
 H792 H 0.02114 0.89421 0.69247
 C793 C 0.94413 0.66373 0.65932
 C794 C 0.97163 0.64459 0.67407
 C795 C 0.96265 0.61695 0.68828
 C796 C 0.92695 0.61068 0.68659
 C797 C 0.91174 0.64052 0.70072
 C798 C 0.92062 0.66795 0.68662
 C799 C 0.92853 0.64001 0.63686
 C800 C 0.91962 0.61249 0.65100
 H801 H 0.99628 0.65050 0.67197
 H802 H 0.97998 0.60057 0.69771
 H803 H 0.89564 0.64011 0.72068
 H804 H 0.91206 0.69085 0.69458
 H805 H 0.92560 0.64415 0.61168
 H806 H 0.90915 0.59328 0.63780
 C807 C 0.44663 0.16750 0.15234
 C808 C 0.43291 0.14441 0.12805
 C809 C 0.42361 0.11624 0.14055
 C810 C 0.42866 0.11322 0.17645
 C811 C 0.46406 0.11996 0.18072
 C812 C 0.47345 0.14827 0.16818
 C813 C 0.42137 0.17034 0.17821
 C814 C 0.41206 0.14227 0.19065
 H815 H 0.43151 0.14946 0.10290
 H816 H 0.41436 0.09739 0.12598
 H817 H 0.48101 0.10353 0.19075
 H818 H 0.49801 0.15480 0.16824
 H819 H 0.41195 0.19278 0.18649
 H820 H 0.39472 0.14087 0.20950
 C821 C 0.33911 0.44374 -0.17041
 C822 C 0.32083 0.41233 -0.17009
 C823 C 0.30895 0.40420 -0.14141
 C824 C 0.31549 0.42821 -0.11513
 C825 C 0.35155 0.43224 -0.11527
 C826 C 0.36370 0.44013 -0.14401
 C827 C 0.31495 0.46795 -0.15719
 C828 C 0.30302 0.45992 -0.12831
 H829 H 0.31687 0.39795 -0.19090
 H830 H 0.29534 0.38278 -0.13789
 H831 H 0.36641 0.43155 -0.09452
 H832 H 0.38854 0.44509 -0.14729
 H833 H 0.30612 0.48862 -0.16965
 H834 H 0.28550 0.47440 -0.11640
 C835 C 0.83806 0.94688 0.33947
 C836 C 0.86254 0.94160 0.36573
 C837 C 0.85021 0.93259 0.39405
 C838 C 0.81410 0.92919 0.39396
 C839 C 0.80225 0.96173 0.38229
 C840 C 0.81437 0.97092 0.35383
 C841 C 0.81922 0.91586 0.33830
 C842 C 0.80713 0.90661 0.36656
 H843 H 0.88745 0.94636 0.36277
 H844 H 0.86499 0.93080 0.41482
 H845 H 0.78515 0.97606 0.39497
 H846 H 0.80613 0.99249 0.34257
 H847 H 0.81510 0.90254 0.31682
 H848 H 0.79314 0.88531 0.36907
 C849 C 0.83577 0.06115 1.17498
 C850 C 0.81682 0.09223 1.17160
 C851 C 0.80649 0.09831 1.14184
 C852 C 0.81514 0.07271 1.11761
 C853 C 0.85120 0.06913 1.11998
 C854 C 0.86180 0.06334 1.14979
 C855 C 0.81295 0.03584 1.16214
 C856 C 0.80260 0.04176 1.13217
 H857 H 0.81109 0.10779 1.19117
 H858 H 0.79249 0.11918 1.13619
 H859 H 0.86717 0.06856 1.10000
 H860 H 0.88651 0.05891 1.15473
 H861 H 0.80391 0.01596 1.17559
 H862 H 0.78620 0.02623 1.12032
 C863 C 0.33853 0.55752 0.66289
 C864 C 0.31705 0.58694 0.66176
 C865 C 0.30602 0.59419 0.63252
 C866 C 0.31677 0.57127 0.60648
 C867 C 0.35302 0.57086 0.60868
 C868 C 0.36417 0.56388 0.63805
 C869 C 0.31821 0.53117 0.64818
 C870 C 0.30716 0.53833 0.61873
 H871 H 0.31060 0.60073 0.68240
 H872 H 0.29050 0.61430 0.62833
 H873 H 0.36896 0.57332 0.58883
 H874 H 0.38916 0.56141 0.64283
 H875 H 0.31164 0.50929 0.65981
 H876 H 0.29243 0.52216 0.60559
 C877 C 0.15966 0.55890 0.32635
 C878 C 0.17536 0.53082 0.34407
 C879 C 0.18866 0.53893 0.37225
 C880 C 0.18525 0.57440 0.38035
 C881 C 0.19909 0.59168 0.35151
 C882 C 0.18590 0.58362 0.32356
 C883 C 0.13634 0.57262 0.35059
 C884 C 0.14959 0.58059 0.37862
 H885 H 0.17554 0.50647 0.33629
 H886 H 0.19924 0.52114 0.38746
 H887 H 0.21829 0.60845 0.35291
 H888 H 0.19392 0.59353 0.30123
 H889 H 0.11125 0.57500 0.34635
 H890 H 0.13572 0.58968 0.39819
 C891 C 0.66039 0.05644 0.83542
 C892 C 0.68767 0.07998 0.83189
 C893 C 0.70133 0.08824 0.85952
 C894 C 0.68700 0.07237 0.88890
 C895 C 0.65160 0.07990 0.88723
 C896 C 0.63780 0.07165 0.85957
 C897 C 0.67510 0.02821 0.85393
 C898 C 0.68896 0.03659 0.88178
 H899 H 0.69608 0.08891 0.80929
 H900 H 0.72126 0.10417 0.86034
 H901 H 0.63824 0.08996 0.90668
 H902 H 0.61273 0.07473 0.85563
 H903 H 0.67386 0.00355 0.84730
 H904 H 0.69875 0.01883 0.89755
 C905 C 0.65594 0.94431 0.66963
 C906 C 0.63284 0.93028 0.64559
 C907 C 0.64647 0.92087 0.61808
 C908 C 0.68223 0.92614 0.61659
 C909 C 0.68588 0.96181 0.62339
 C910 C 0.67218 0.97131 0.65103
 C911 C 0.68176 0.91902 0.67370
 C912 C 0.69537 0.90962 0.64626
 H913 H 0.60765 0.92874 0.64954
 H914 H 0.63284 0.91135 0.59870
 H915 H 0.69644 0.97887 0.60747
 H916 H 0.67167 0.99609 0.65739
 H917 H 0.68916 0.90967 0.69648
 H918 H 0.71434 0.89228 0.64574
 C919 C 0.15415 0.44531 0.16006
 C920 C 0.13182 0.42912 0.13667
 C921 C 0.14587 0.41962 0.10939
 C922 C 0.18124 0.42700 0.10749
 C923 C 0.18273 0.46306 0.11305
 C924 C 0.16859 0.47262 0.14043
 C925 C 0.18141 0.42174 0.16477
 C926 C 0.19544 0.41228 0.13757
 H927 H 0.10678 0.42625 0.14081
 H928 H 0.13274 0.40871 0.09039
 H929 H 0.19169 0.48022 0.09626
 H930 H 0.16603 0.49757 0.14565
 H931 H 0.18938 0.41354 0.18779
 H932 H 0.21536 0.39604 0.13748
 C933 C -0.16174 0.34046 0.44985
 C934 C -0.16186 0.32141 0.41896
 C935 C -0.13337 0.30949 0.41056
 C936 C -0.10681 0.31697 0.43382
 C937 C -0.10739 0.35329 0.43722
 C938 C -0.13597 0.36542 0.44527
 C939 C -0.14774 0.31705 0.47441
 C940 C -0.11900 0.30499 0.46608
 H941 H -0.18286 0.31699 0.40514
 H942 H -0.13014 0.29520 0.38953
 H943 H -0.08675 0.36819 0.43555
 H944 H -0.13955 0.39049 0.44969
 H945 H -0.15906 0.30989 0.49623
 H946 H -0.10611 0.28881 0.48136
 C947 C 0.32787 0.83010 0.94151
 C948 C 0.35374 0.85533 0.94009
 C949 C 0.38287 0.84376 0.93329
 C950 C 0.38396 0.80772 0.92787
 C951 C 0.36976 0.79383 0.95847
 C952 C 0.34041 0.80516 0.96547
 C953 C 0.32996 0.81271 0.90960
 C954 C 0.35907 0.80148 0.90247
 H955 H 0.34974 0.88014 0.94558
 H956 H 0.40346 0.85880 0.93373
 H957 H 0.38151 0.77648 0.97341
 H958 H 0.32735 0.79589 0.98546
 H959 H 0.30995 0.80853 0.89429
 H960 H 0.36376 0.78820 0.88104
 C961 C 1.16485 0.83477 0.05640
 C962 C 1.15166 0.80969 0.03341
 C963 C 1.12239 0.79908 0.04130
 C964 C 1.10889 0.81374 0.07178
 C965 C 1.13426 0.80743 0.09685
 C966 C 1.16330 0.81799 0.08883
 C967 C 1.13913 0.86053 0.05763
 C968 C 1.11009 0.84965 0.06534
 H969 H 1.16418 0.79977 0.01343
 H970 H 1.11023 0.78182 0.02699
 H971 H 1.12992 0.79463 0.11875
 H972 H 1.18360 0.81373 0.10385
 H973 H 1.14317 0.88517 0.05146
 H974 H 1.08958 0.86508 0.06510
 C975 C 0.66817 0.33888 0.55940
 C976 C 0.65527 0.31667 0.53360
 C977 C 0.62600 0.30513 0.54005
 C978 C 0.61217 0.31627 0.57182
 C979 C 0.63739 0.30737 0.59634
 C980 C 0.66644 0.31882 0.58979
 C981 C 0.64247 0.36433 0.56323
 C982 C 0.61334 0.35272 0.56947
 H983 H 0.66793 0.30939 0.51261
 H984 H 0.61400 0.28918 0.52415
 H985 H 0.63285 0.29263 0.61696
 H986 H 0.68659 0.31348 0.60468
 H987 H 0.64654 0.38942 0.55943
 H988 H 0.59302 0.36832 0.56989
 C989 C 0.33676 0.15601 0.55345
 C990 C 0.36129 0.13324 0.56788
 C991 C 0.38837 0.14744 0.57699
 C992 C 0.38898 0.18341 0.57104
 C993 C 0.38198 0.18674 0.53536
 C994 C 0.35477 0.17246 0.52617
 C995 C 0.33220 0.18213 0.57819
 C996 C 0.35922 0.19630 0.58730
 H997 H 0.35796 0.10784 0.56993
 H998 H 0.40801 0.13408 0.58674
 H999 H 0.39743 0.19761 0.51814
 H1000 H 0.34825 0.17184 0.50147
 H1001 H 0.30940 0.18932 0.58737
 H1002 H 0.35935 0.21554 0.60422
 C1003 C 0.82698 0.66527 0.06306
 C1004 C 0.84764 0.67598 0.03475
 C1005 C 0.87471 0.69091 0.04332
 C1006 C 0.87912 0.69375 0.07941
 C1007 C 0.84892 0.71033 0.09083
 C1008 C 0.82198 0.69558 0.08245
 C1009 C 0.84962 0.64462 0.08291
 C1010 C 0.87651 0.65945 0.09149
 H1011 H 0.84331 0.67056 0.01017
 H1012 H 0.89172 0.69814 0.02568
 H1013 H 0.84875 0.73235 0.10396
 H1014 H 0.79897 0.70510 0.08853
 H1015 H 0.84537 0.61995 0.08882
 H1016 H 0.89492 0.64741 0.10475
 C1017 C 0.66533 0.65686 0.94594
 C1018 C 0.66986 0.68656 0.92539
 C1019 C 0.64266 0.70056 0.91586
 C1020 C 0.61273 0.68374 0.92732
 C1021 C 0.61672 0.64916 0.91668
 C1022 C 0.64394 0.63517 0.92642
 C1023 C 0.64380 0.66791 0.97331
 C1024 C 0.61645 0.68201 0.96361
 H1025 H 0.69274 0.69616 0.91932
 H1026 H 0.64244 0.72211 0.90174
 H1027 H 0.59904 0.63638 0.90348
 H1028 H 0.64923 0.61047 0.92161
 H1029 H 0.64805 0.66316 0.99813
 H1030 H 0.59882 0.68928 0.98062
 C1031 C 0.17145 0.15860 0.44018
 C1032 C 0.17595 0.18775 0.41882
 C1033 C 0.14880 0.20265 0.41056
 C1034 C 0.11894 0.18726 0.42406
 C1035 C 0.12096 0.15238 0.41394
 C1036 C 0.14813 0.13748 0.42238
 C1037 C 0.15204 0.17110 0.46851
 C1038 C 0.12471 0.18610 0.46009
 H1039 H 0.19881 0.19639 0.41134
 H1040 H 0.14862 0.22399 0.39611
 H1041 H 0.10209 0.14011 0.40195
 H1042 H 0.15226 0.11256 0.41761
 H1043 H 0.15781 0.16733 0.49316
 H1044 H 0.10863 0.19493 0.47790
 C1045 C 0.60294 0.10235 0.74193
 C1046 C 0.60968 0.13595 0.75446
 C1047 C 0.59458 0.15948 0.73824
 C1048 C 0.57399 0.14770 0.71083
 C1049 C 0.59720 0.12816 0.69058
 C1050 C 0.61217 0.10457 0.70677
 C1051 C 0.56691 0.09977 0.74199
 C1052 C 0.55191 0.12328 0.72585
 H1053 H 0.62733 0.14165 0.77190
 H1054 H 0.59950 0.18424 0.74266
 H1055 H 0.60309 0.13362 0.66619
 H1056 H 0.63030 0.08999 0.69592
 H1057 H 0.55420 0.08096 0.75396
 H1058 H 0.52646 0.12448 0.72402
 C1059 C 1.10206 0.60363 0.23348
 C1060 C 1.11835 0.63572 0.23906
 C1061 C 1.10275 0.66114 0.22656
 C1062 C 1.07220 0.65244 0.20899
 C1063 C 1.08315 0.62783 0.18455
 C1064 C 1.09880 0.60256 0.19712
 C1065 C 1.06840 0.60825 0.24594
 C1066 C 1.05297 0.63356 0.23332
 H1067 H 1.14129 0.63819 0.24996
 H1068 H 1.11299 0.68449 0.22747
 H1069 H 1.08066 0.63109 0.15919
 H1070 H 1.11009 0.58516 0.18204
 H1071 H 1.05759 0.59293 0.26353
 H1072 H 1.02913 0.63980 0.24027
 C1073 C 0.90410 0.90996 0.24886
 C1074 C 0.88202 0.88633 0.23294
 C1075 C 0.89698 0.86162 0.21886
 C1076 C 0.93301 0.86235 0.22162
 C1077 C 0.94249 0.89507 0.20868
 C1078 C 0.92761 0.91984 0.22282
 C1079 C 0.92434 0.88969 0.27153
 C1080 C 0.93930 0.86481 0.25748
 H1081 H 0.85657 0.88877 0.23291
 H1082 H 0.88424 0.84295 0.20698
 H1083 H 0.96093 0.89854 0.19122
 H1084 H 0.93439 0.94402 0.21761
 H1085 H 0.92798 0.89534 0.29625
 H1086 H 0.95538 0.84999 0.27082
 C1087 C 0.40151 0.40344 0.73766
 C1088 C 0.38654 0.37061 0.74257
 C1089 C 0.40346 0.34630 0.72991
 C1090 C 0.43363 0.35668 0.71261
 C1091 C 0.42243 0.38178 0.68864
 C1092 C 0.40552 0.40594 0.70149
 C1093 C 0.43508 0.39981 0.75059
 C1094 C 0.45184 0.37549 0.73775
 H1095 H 0.36422 0.36673 0.75443
 H1096 H 0.39579 0.32188 0.73172
 H1097 H 0.42628 0.37994 0.66333
 H1098 H 0.39436 0.42371 0.68663
 H1099 H 0.44452 0.41454 0.76922
 H1100 H 0.47510 0.36960 0.74643
 C1101 C 0.39378 0.60163 0.75909
 C1102 C 0.39287 0.60055 0.79552
 C1103 C 0.40829 0.62482 0.80955
 C1104 C 0.42320 0.64852 0.78628
 C1105 C 0.44403 0.62821 0.76448
 C1106 C 0.42878 0.60385 0.75049
 C1107 C 0.38007 0.63463 0.75111
 C1108 C 0.39546 0.65908 0.76504
 H1109 H 0.37952 0.58354 0.80928
 H1110 H 0.40842 0.62783 0.83503
 H1111 H 0.46875 0.63287 0.76012
 H1112 H 0.44055 0.58773 0.73436
 H1113 H 0.35906 0.63854 0.73707
 H1114 H 0.38726 0.68317 0.76180
 C1115 C -0.10814 0.10637 0.26844
 C1116 C -0.10729 0.10547 0.30488
 C1117 C -0.09115 0.12979 0.31801
 C1118 C -0.07733 0.15332 0.29389
 C1119 C -0.05763 0.13286 0.27122
 C1120 C -0.07359 0.10848 0.25813
 C1121 C -0.12215 0.13934 0.26097
 C1122 C -0.10607 0.16384 0.27400
 H1123 H -0.12007 0.08864 0.31939
 H1124 H -0.08983 0.13298 0.34342
 H1125 H -0.03313 0.13742 0.26565
 H1126 H -0.06265 0.09223 0.24155
 H1127 H -0.14381 0.14319 0.24792
 H1128 H -0.11443 0.18792 0.27114
 C1129 C 0.09090 0.40655 0.25356
 C1130 C 0.11405 0.38306 0.26888
 C1131 C 0.10014 0.35782 0.28310
 C1132 C 0.06404 0.35795 0.28109
 C1133 C 0.05384 0.39026 0.29443
 C1134 C 0.06765 0.41555 0.28015
 C1135 C 0.07085 0.38628 0.23119
 C1136 C 0.05698 0.36089 0.24537
 H1137 H 0.13940 0.38598 0.26839
 H1138 H 0.11370 0.33918 0.29458
 H1139 H 0.03572 0.39309 0.31234
 H1140 H 0.06027 0.43949 0.28571
 H1141 H 0.06677 0.39212 0.20651
 H1142 H 0.04144 0.34576 0.23213
 C1143 C 0.59085 0.90498 0.76130
 C1144 C 0.61319 0.87980 0.77510
 C1145 C 0.59843 0.85437 0.78803
 C1146 C 0.56236 0.85598 0.78629
 C1147 C 0.55346 0.88785 0.80152
 C1148 C 0.56817 0.91335 0.78859
 C1149 C 0.56985 0.88681 0.73802
 C1150 C 0.55509 0.86126 0.75088
 H1151 H 0.63864 0.88180 0.77464
 H1152 H 0.61134 0.83466 0.79844
 H1153 H 0.53553 0.89036 0.81967
 H1154 H 0.56173 0.93716 0.79560
 H1155 H 0.56563 0.89437 0.71381
 H1156 H 0.53840 0.84789 0.73716
 C1157 C 0.73508 0.60789 0.10557
 C1158 C 0.69897 0.60464 0.10322
 C1159 C 0.68571 0.58888 0.12798
 C1160 C 0.70930 0.57780 0.15336
 C1161 C 0.73414 0.55843 0.13533
 C1162 C 0.74744 0.57398 0.11057
 C1163 C 0.73953 0.62426 0.13782
 C1164 C 0.72633 0.60855 0.16271
 H1165 H 0.68451 0.61601 0.08530
 H1166 H 0.66041 0.58640 0.13034
 H1167 H 0.74091 0.53441 0.14173
 H1168 H 0.76544 0.56309 0.09588
 H1169 H 0.74986 0.64751 0.14068
 H1170 H 0.72601 0.61906 0.18597
 C1171 C 0.24646 1.08939 0.59366
 C1172 C 0.26929 1.07470 0.61805
 C1173 C 0.25486 1.05983 0.64271
 C1174 C 0.21858 1.06061 0.64094
 C1175 C 0.21002 1.09586 0.63752
 C1176 C 0.22447 1.11077 0.61298
 C1177 C 0.22603 1.06108 0.58378
 C1178 C 0.21153 1.04619 0.60837
 H1179 H 0.29460 1.07335 0.61486
 H1180 H 0.26849 1.04619 0.65962
 H1181 H 0.19398 1.10816 0.65332
 H1182 H 0.22069 1.13572 0.60783
 H1183 H 0.22468 1.05201 0.55988
 H1184 H 0.19770 1.02494 0.60509
 C1185 C 0.23678 0.89300 0.89954
 C1186 C 0.24202 0.87839 0.86660
 C1187 C 0.22991 0.89596 0.84239
 C1188 C 0.21281 0.92640 0.85294
 C1189 C 0.18850 0.91504 0.87739
 C1190 C 0.20080 0.89747 0.90144
 C1191 C 0.24996 0.92668 0.89672
 C1192 C 0.23769 0.94410 0.87250
 H1193 H 0.25364 0.85580 0.86258
 H1194 H 0.23193 0.88858 0.81793
 H1195 H 0.16338 0.91933 0.87520
 H1196 H 0.18571 0.88620 0.91882
 H1197 H 0.26832 0.93572 0.91195
 H1198 H 0.24655 0.96752 0.86727
 C1199 C 0.74728 0.40669 0.40944
 C1200 C 0.72190 0.43129 0.41854
 C1201 C 0.70817 0.44595 0.39337
 C1202 C 0.72086 0.43520 0.36104
 C1203 C 0.75669 0.44062 0.36348
 C1204 C 0.77032 0.42590 0.38878
 C1205 C 0.73099 0.38424 0.38636
 C1206 C 0.71735 0.39899 0.36122
 H1207 H 0.71683 0.43881 0.44249
 H1208 H 0.69115 0.46500 0.39626
 H1209 H 0.77040 0.45578 0.34813
 H1210 H 0.79500 0.42904 0.39439
 H1211 H 0.73045 0.35871 0.38944
 H1212 H 0.70534 0.38597 0.34283
 C1213 C 0.75804 0.40332 0.60401
 C1214 C 0.77669 0.43296 0.59409
 C1215 C 0.79075 0.44810 0.61855
 C1216 C 0.78504 0.43260 0.65109
 C1217 C 0.74883 0.43127 0.65359
 C1218 C 0.73483 0.41615 0.62905
 C1219 C 0.78149 0.38278 0.62265
 C1220 C 0.79547 0.39794 0.64709
 H1221 H 0.77740 0.44236 0.57017
 H1222 H 0.80354 0.47004 0.61521
 H1223 H 0.73473 0.44386 0.67081
 H1224 H 0.70947 0.41664 0.62631
 H1225 H 0.78653 0.35818 0.61717
 H1226 H 0.81238 0.38619 0.66245
 C1227 C 0.25537 -0.09930 0.09307
 C1228 C 0.27676 -0.11970 0.11419
 C1229 C 0.29139 -0.10339 0.13748
 C1230 C 0.28356 -0.06784 0.13797
 C1231 C 0.29116 -0.05592 0.10434
 C1232 C 0.27650 -0.07221 0.08098
 C1233 C 0.23270 -0.08239 0.11608
 C1234 C 0.24730 -0.06610 0.13948
 H1235 H 0.28006 -0.14501 0.11111
 H1236 H 0.30711 -0.11485 0.15426
 H1237 H 0.30535 -0.03520 0.09937
 H1238 H 0.27810 -0.06479 0.05644
 H1239 H 0.20747 -0.08052 0.11257
 H1240 H 0.23392 -0.05076 0.15500
 C1241 C 0.26394 0.09716 0.39639
 C1242 C 0.24918 0.06460 0.39059
 C1243 C 0.26127 0.04883 0.36534
 C1244 C 0.28763 0.06683 0.34789
 C1245 C 0.27233 0.09895 0.33936
 C1246 C 0.26040 0.11491 0.36463
 C1247 C 0.29961 0.09066 0.39872
 C1248 C 0.31174 0.07472 0.37362
 H1249 H 0.22975 0.05531 0.40444
 H1250 H 0.25114 0.02672 0.35763
 H1251 H 0.27109 0.10845 0.31550
 H1252 H 0.24978 0.13823 0.36215
 H1253 H 0.31482 0.09971 0.41706
 H1254 H 0.33671 0.06953 0.37151
 C1255 C 0.76153 0.59676 0.90884
 C1256 C 0.79694 0.58971 0.91316
 C1257 C 0.81013 0.57336 0.88885
 C1258 C 0.78729 0.56556 0.86193
 C1259 C 0.75982 0.54812 0.87816
 C1260 C 0.74664 0.56434 0.90258
 C1261 C 0.75992 0.61419 0.87676
 C1262 C 0.77291 0.59779 0.85233
 H1263 H 0.81135 0.59854 0.93221
 H1264 H 0.83507 0.56769 0.88815
 H1265 H 0.74988 0.52599 0.87026
 H1266 H 0.72646 0.55541 0.91555
 H1267 H 0.74957 0.63754 0.87350
 H1268 H 0.77294 0.60702 0.82833
 C1269 C 0.09985 0.73436 0.60092
 C1270 C 0.13324 0.74426 0.61107
 C1271 C 0.15676 0.72883 0.59544
 C1272 C 0.14514 0.70466 0.57102
 C1273 C 0.12361 0.68275 0.59070
 C1274 C 0.10007 0.69823 0.60621
 C1275 C 0.09929 0.73880 0.56489
 C1276 C 0.12280 0.72342 0.54939
 H1277 H 0.13834 0.75955 0.63089
 H1278 H 0.18127 0.73168 0.60189
 H1279 H 0.12798 0.65772 0.59467
 H1280 H 0.08466 0.68609 0.62272
 H1281 H 0.08178 0.75302 0.55257
 H1282 H 0.12529 0.72448 0.52385
 C1283 C 0.60202 0.24360 1.09391
 C1284 C 0.62735 0.26660 1.08154
 C1285 C 0.65208 0.25217 1.06688
 C1286 C 0.64942 0.21576 1.06551
 C1287 C 0.64454 0.20535 1.10004
 C1288 C 0.61993 0.21978 1.11475
 C1289 C 0.59277 0.22493 1.06415
 C1290 C 0.61742 0.21044 1.04947
 H1291 H 0.62485 0.29219 1.08154
 H1292 H 0.66977 0.26613 1.05488
 H1293 H 0.65944 0.18812 1.11203
 H1294 H 0.61381 0.21480 1.13920
 H1295 H 0.56930 0.22474 1.05414
 H1296 H 0.61461 0.19772 1.02743
 C1297 C 0.90642 0.23574 0.90123
 C1298 C 0.90849 0.19937 0.90428
 C1299 C 0.88487 0.18637 0.92163
 C1300 C 0.86063 0.21042 0.93416
 C1301 C 0.88030 0.23475 0.95256
 C1302 C 0.90408 0.24773 0.93536
 C1303 C 0.87342 0.24158 0.88722
 C1304 C 0.84964 0.22875 0.90455
 H1305 H 0.92561 0.18459 0.89224
 H1306 H 0.88284 0.16095 0.92498
 H1307 H 0.87558 0.24264 0.97640
 H1308 H 0.91940 0.26576 0.94495
 H1309 H 0.86905 0.25408 0.86516
 H1310 H 0.82518 0.23101 0.89751
 C1311 C 0.40083 0.74158 0.39889
 C1312 C 0.36809 0.74794 0.38446
 C1313 C 0.34393 0.73500 0.40118
 C1314 C 0.35433 0.71604 0.43060
 C1315 C 0.37859 0.69204 0.41801
 C1316 C 0.40256 0.70517 0.40129
 C1317 C 0.39804 0.75296 0.43321
 C1318 C 0.37387 0.73986 0.44977
 H1319 H 0.36412 0.76067 0.36245
 H1320 H 0.31961 0.73751 0.39374
 H1321 H 0.37638 0.66659 0.42093
 H1322 H 0.41991 0.69054 0.38937
 H1323 H 0.41331 0.77072 0.44335
 H1324 H 0.36875 0.74739 0.47365
 C1325 C 0.59480 0.75825 0.40705
 C1326 C 0.61695 0.73461 0.42400
 C1327 C 0.64108 0.74841 0.43980
 C1328 C 0.64110 0.78490 0.43756
 C1329 C 0.64043 0.79231 0.40199
 C1330 C 0.61642 0.77847 0.38617
 C1331 C 0.58406 0.78044 0.43389
 C1332 C 0.60815 0.79428 0.44971
 H1333 H 0.61249 0.70940 0.42604
 H1334 H 0.65629 0.73447 0.45506
 H1335 H 0.65761 0.80719 0.39016
 H1336 H 0.61311 0.78161 0.36090
 H1337 H 0.55987 0.78320 0.44166
 H1338 H 0.60411 0.80893 0.47035
 C1339 C 0.10044 0.25314 -0.09771
 C1340 C 0.12518 0.23017 -0.08366
 C1341 C 0.14933 0.24472 -0.06858
 C1342 C 0.14675 0.28121 -0.06851
 C1343 C 0.14329 0.29056 -0.10349
 C1344 C 0.11926 0.27602 -0.11861
 C1345 C 0.09006 0.27292 -0.06893
 C1346 C 0.11413 0.28753 -0.05383
 H1347 H 0.12248 0.20466 -0.08260
 H1348 H 0.16631 0.23095 -0.05521
 H1349 H 0.15870 0.30720 -0.11545
 H1350 H 0.11416 0.28030 -0.14341
 H1351 H 0.06619 0.27378 -0.05982
 H1352 H 0.11047 0.30097 -0.03232
 C1353 C 0.40596 0.26313 0.09333
 C1354 C 0.40883 0.29886 0.08614
 C1355 C 0.38388 0.31126 0.07016
 C1356 C 0.35783 0.28736 0.06285
 C1357 C 0.37464 0.26018 0.04526
 C1358 C 0.39971 0.24780 0.06111
 C1359 C 0.37445 0.26051 0.11121
 C1360 C 0.34938 0.27271 0.09519
 H1361 H 0.42741 0.31403 0.09460
 H1362 H 0.38216 0.33631 0.06444
 H1363 H 0.36670 0.24980 0.02335
 H1364 H 0.41319 0.22787 0.05206
 H1365 H 0.37200 0.25001 0.13457
 H1366 H 0.32567 0.27191 0.10473
 C1367 C 0.90229 0.75795 0.59832
 C1368 C 0.90501 0.79383 0.59192
 C1369 C 0.88006 0.80648 0.57614
 C1370 C 0.85410 0.78266 0.56829
 C1371 C 0.87104 0.75592 0.55015
 C1372 C 0.89613 0.74328 0.56578
 C1373 C 0.87077 0.75486 0.61612
 C1374 C 0.84567 0.76732 0.60032
 H1375 H 0.92350 0.80885 0.60087
 H1376 H 0.87826 0.83165 0.57100
 H1377 H 0.86321 0.74600 0.52799
 H1378 H 0.90968 0.72359 0.55635
 H1379 H 0.86834 0.74409 0.63935
 H1380 H 0.82197 0.76642 0.60988
   
