data_POSCAR
  _audit_creation_date              2014-09-24
  _audit_creation_method            'ToBaCCo'
  _symmetry_space_group_name_H-M    'P1'
  _symmetry_Int_Tables_number       1
  _symmetry_cell_setting            triclinic
  loop_
  _symmetry_equiv_pos_as_xyz
 x,y,z
_cell_length_a 64.7129
_cell_length_b 62.8297
_cell_length_c 66.6596
_cell_angle_alpha 89.919900
_cell_angle_beta 89.894900
_cell_angle_gamma 89.334200
loop_
  _atom_site_label
  _atom_site_type_symbol
  _atom_site_fract_x
  _atom_site_fract_y
  _atom_site_fract_z
N1 N 0.37654 0.32049 0.33862
 N2 N 0.37294 0.33077 0.32178
 C3 C 0.38726 0.32519 0.30813
 C4 C 0.40083 0.31084 0.31688
 C5 C 0.39340 0.30792 0.33620
 H6 H 0.38761 0.33083 0.29280
 H7 H 0.39965 0.29733 0.34752
 Cu8 Cu 0.35013 0.35065 0.31875
 Cu9 Cu 0.35875 0.32423 0.36205
 Cu10 Cu 0.31447 0.35491 0.35479
 N11 N 0.33141 0.37489 0.32006
 N12 N 0.31767 0.37691 0.33446
 C13 C 0.30570 0.39412 0.33073
 C14 C 0.31237 0.40348 0.31303
 C15 C 0.32857 0.39059 0.30660
 H16 H 0.29240 0.39877 0.33963
 H17 H 0.33674 0.39167 0.29248
 N18 N 0.31837 0.33621 0.37813
 N19 N 0.33536 0.32485 0.38119
 C20 C 0.33264 0.31258 0.39756
 C21 C 0.31306 0.31655 0.40526
 C22 C 0.30443 0.33148 0.39240
 H23 H 0.34362 0.30075 0.40285
 H24 H 0.28869 0.33743 0.39267
 H25 H 0.33328 0.32951 0.34461
 H26 H 0.34565 0.35390 0.35493
 N27 N 0.38001 0.82258 -0.15749
 N28 N 0.37781 0.83659 -0.17197
 C29 C 0.39130 0.83203 -0.18675
 C30 C 0.40302 0.81429 -0.18120
 C31 C 0.39512 0.80868 -0.16251
 H32 H 0.39137 0.84013 -0.20107
 H33 H 0.39979 0.79534 -0.15324
 Cu34 Cu 0.35658 0.85861 -0.17082
 Cu35 Cu 0.36211 0.82284 -0.13389
 Cu36 Cu 0.31594 0.85078 -0.14058
 N37 N 0.33103 0.87452 -0.17436
 N38 N 0.31526 0.87161 -0.16231
 C39 C 0.29932 0.88387 -0.16845
 C40 C 0.30505 0.89456 -0.18585
 C41 C 0.32560 0.88853 -0.18875
 H42 H 0.28485 0.88523 -0.16041
 H43 H 0.33562 0.89310 -0.20099
 N44 N 0.32001 0.82911 -0.11945
 N45 N 0.33781 0.81916 -0.11638
 C46 C 0.33542 0.80482 -0.10153
 C47 C 0.31496 0.80531 -0.09539
 C48 C 0.30579 0.82117 -0.10681
 H49 H 0.34750 0.79425 -0.09614
 H50 H 0.28967 0.82589 -0.10645
 H51 H 0.33843 0.83101 -0.15284
 H52 H 0.34690 0.85240 -0.13550
 N53 N 0.88009 0.32326 -0.16087
 N54 N 0.88185 0.34096 -0.17120
 C55 C 0.89478 0.33762 -0.18672
 C56 C 0.90082 0.31638 -0.18666
 C57 C 0.89159 0.30790 -0.16969
 H58 H 0.89887 0.34964 -0.19760
 H59 H 0.89254 0.29158 -0.16455
 Cu60 Cu 0.86442 0.36555 -0.16546
 Cu61 Cu 0.86250 0.32185 -0.13712
 Cu62 Cu 0.82166 0.35824 -0.13770
 N63 N 0.84128 0.38535 -0.16672
 N64 N 0.82459 0.38260 -0.15584
 C65 C 0.81033 0.39731 -0.16117
 C66 C 0.81837 0.41003 -0.17645
 C67 C 0.83810 0.40156 -0.17957
 H68 H 0.79497 0.39808 -0.15484
 H69 H 0.84864 0.40520 -0.19165
 N70 N 0.82218 0.33257 -0.12036
 N71 N 0.83820 0.31938 -0.11955
 C72 C 0.83400 0.30347 -0.10670
 C73 C 0.81407 0.30626 -0.09956
 C74 C 0.80720 0.32511 -0.10823
 H75 H 0.84451 0.29048 -0.10324
 H76 H 0.79214 0.33246 -0.10625
 H77 H 0.84117 0.33827 -0.15366
 H78 H 0.85245 0.35332 -0.13236
 N79 N 0.88217 0.82363 0.35055
 N80 N 0.88329 0.83939 0.33767
 C81 C 0.89755 0.83457 0.32365
 C82 C 0.90585 0.81460 0.32788
 C83 C 0.89545 0.80808 0.34501
 H84 H 0.90091 0.84445 0.31078
 H85 H 0.89650 0.79271 0.35228
 Cu86 Cu 0.86399 0.86322 0.33887
 Cu87 Cu 0.86293 0.82447 0.37301
 Cu88 Cu 0.82005 0.85722 0.36526
 N89 N 0.84015 0.88151 0.33441
 N90 N 0.82313 0.87952 0.34495
 C91 C 0.80896 0.89358 0.33809
 C92 C 0.81745 0.90509 0.32220
 C93 C 0.83727 0.89647 0.32023
 H94 H 0.79347 0.89495 0.34407
 H95 H 0.84827 0.89931 0.30835
 N96 N 0.82064 0.83377 0.38521
 N97 N 0.83745 0.82231 0.38886
 C98 C 0.83314 0.80741 0.40268
 C99 C 0.81239 0.80889 0.40745
 C100 C 0.80503 0.82610 0.39644
 H101 H 0.84411 0.79567 0.40814
 H102 H 0.78925 0.83195 0.39605
 H103 H 0.84166 0.83645 0.35315
 H104 H 0.85047 0.85550 0.37264
 N105 N 0.62375 0.68006 0.33550
 N106 N 0.62426 0.66589 0.32103
 C107 C 0.60836 0.66962 0.30848
 C108 C 0.59695 0.68684 0.31566
 C109 C 0.60738 0.69313 0.33279
 H110 H 0.60610 0.66137 0.29445
 H111 H 0.60397 0.70688 0.34202
 Cu112 Cu 0.64695 0.64542 0.31896
 Cu113 Cu 0.64638 0.68252 0.35460
 Cu114 Cu 0.67313 0.63487 0.36116
 N115 N 0.66846 0.62358 0.31972
 N116 N 0.67832 0.61901 0.33645
 C117 C 0.69254 0.60368 0.33276
 C118 C 0.69200 0.59892 0.31248
 C119 C 0.67628 0.61158 0.30477
 H120 H 0.70293 0.59703 0.34388
 H121 H 0.67143 0.61246 0.28927
 N122 N 0.67415 0.65863 0.38054
 N123 N 0.66507 0.67723 0.37728
 C124 C 0.67209 0.69142 0.39065
 C125 C 0.68653 0.68138 0.40277
 C126 C 0.68697 0.66043 0.39632
 H127 H 0.66801 0.70816 0.39077
 H128 H 0.69693 0.64776 0.40179
 H129 H 0.66931 0.66145 0.34379
 H130 H 0.64516 0.65080 0.35522
 N131 N 0.62050 0.17837 -0.16305
 N132 N 0.62176 0.16421 -0.17750
 C133 C 0.60624 0.16770 -0.19055
 C134 C 0.59433 0.18473 -0.18372
 C135 C 0.60402 0.19113 -0.16625
 H136 H 0.60464 0.15953 -0.20472
 H137 H 0.60015 0.20488 -0.15719
 Cu138 Cu 0.64514 0.14446 -0.17890
 Cu139 Cu 0.64258 0.18180 -0.14356
 Cu140 Cu 0.67258 0.13621 -0.13701
 N141 N 0.66758 0.12360 -0.17810
 N142 N 0.67827 0.12037 -0.16162
 C143 C 0.69322 0.10580 -0.16524
 C144 C 0.69238 0.10001 -0.18534
 C145 C 0.67545 0.11129 -0.19281
 H146 H 0.70359 0.09967 -0.15386
 H147 H 0.66995 0.11138 -0.20812
 N148 N 0.67177 0.15988 -0.11753
 N149 N 0.66104 0.17758 -0.12053
 C150 C 0.66618 0.19193 -0.10652
 C151 C 0.68073 0.18283 -0.09386
 C152 C 0.68397 0.16251 -0.10140
 H153 H 0.66087 0.20831 -0.10642
 H154 H 0.69545 0.15105 -0.09639
 H155 H 0.66667 0.16224 -0.15438
 H156 H 0.64345 0.14995 -0.14267
 N157 N 0.12547 0.68631 -0.16482
 N158 N 0.12761 0.67349 -0.18023
 C159 C 0.11207 0.67698 -0.19318
 C160 C 0.09917 0.69264 -0.18538
 C161 C 0.10836 0.69844 -0.16744
 H162 H 0.11077 0.66936 -0.20766
 H163 H 0.10336 0.71099 -0.15739
 Cu164 Cu 0.15103 0.65419 -0.18277
 Cu165 Cu 0.14647 0.68753 -0.14395
 Cu166 Cu 0.17790 0.64249 -0.14085
 N167 N 0.16808 0.62883 -0.18077
 N168 N 0.17807 0.62383 -0.16425
 C169 C 0.18926 0.60594 -0.16749
 C170 C 0.18582 0.59927 -0.18700
 C171 C 0.17247 0.61436 -0.19501
 H172 H 0.19982 0.59882 -0.15679
 H173 H 0.16712 0.61526 -0.21035
 N174 N 0.17604 0.66411 -0.11937
 N175 N 0.16481 0.68170 -0.12103
 C176 C 0.16939 0.69480 -0.10577
 C177 C 0.18401 0.68494 -0.09365
 C178 C 0.18791 0.66554 -0.10286
 H179 H 0.16365 0.71096 -0.10439
 H180 H 0.19959 0.65397 -0.09858
 H181 H 0.17143 0.67019 -0.15590
 H182 H 0.14869 0.65516 -0.14641
 N183 N 0.11764 0.17882 0.34220
 N184 N 0.11599 0.16232 0.33027
 C185 C 0.10052 0.16595 0.31720
 C186 C 0.09146 0.18557 0.32152
 C187 C 0.10289 0.19323 0.33751
 H188 H 0.09724 0.15578 0.30456
 H189 H 0.10143 0.20874 0.34440
 Cu190 Cu 0.13559 0.13868 0.33134
 Cu191 Cu 0.14125 0.18213 0.35996
 Cu192 Cu 0.17569 0.13972 0.36305
 N193 N 0.15985 0.12069 0.32732
 N194 N 0.17617 0.12219 0.33889
 C195 C 0.19148 0.10988 0.33134
 C196 C 0.18443 0.10028 0.31395
 C197 C 0.16402 0.10703 0.31231
 H198 H 0.20676 0.10841 0.33780
 H199 H 0.15301 0.10264 0.30091
 N200 N 0.17627 0.16407 0.38162
 N201 N 0.16353 0.18055 0.38007
 C202 C 0.16875 0.19520 0.39381
 C203 C 0.18529 0.18742 0.40487
 C204 C 0.18977 0.16771 0.39652
 H205 H 0.16157 0.21075 0.39517
 H206 H 0.20235 0.15710 0.40061
 H207 H 0.16181 0.16162 0.34538
 H208 H 0.14482 0.15023 0.36524
 N209 N 0.62907 0.31594 0.66976
 N210 N 0.63188 0.32850 0.68523
 C211 C 0.61679 0.32522 0.69874
 C212 C 0.60358 0.30999 0.69122
 C213 C 0.61205 0.30428 0.67286
 H214 H 0.61609 0.33249 0.71342
 H215 H 0.60669 0.29197 0.66288
 Cu216 Cu 0.65605 0.34646 0.68703
 Cu217 Cu 0.64929 0.31385 0.64817
 Cu218 Cu 0.67924 0.35905 0.64363
 N219 N 0.67844 0.36672 0.68602
 N220 N 0.68719 0.37202 0.66895
 C221 C 0.70155 0.38690 0.67242
 C222 C 0.70217 0.39070 0.69287
 C223 C 0.68708 0.37785 0.70098
 H224 H 0.71071 0.39446 0.66091
 H225 H 0.68271 0.37680 0.71661
 N226 N 0.67647 0.33776 0.62206
 N227 N 0.66571 0.32020 0.62415
 C228 C 0.66945 0.30737 0.60841
 C229 C 0.68316 0.31735 0.59561
 C230 C 0.68735 0.33657 0.60484
 H231 H 0.66390 0.29127 0.60714
 H232 H 0.69868 0.34808 0.60015
 H233 H 0.67473 0.33121 0.65865
 H234 H 0.65065 0.34560 0.65077
 N235 N 0.62906 0.81558 1.17149
 N236 N 0.62673 0.83277 1.18249
 C237 C 0.61002 0.83055 1.19434
 C238 C 0.60135 0.81088 1.19051
 C239 C 0.61414 0.80170 1.17616
 H240 H 0.60497 0.84204 1.20544
 H241 H 0.61323 0.78575 1.17016
 Cu242 Cu 0.64711 0.85521 1.18170
 Cu243 Cu 0.65206 0.81198 1.15287
 Cu244 Cu 0.67810 0.85845 1.14161
 N245 N 0.67149 0.87303 1.18189
 N246 N 0.68304 0.87513 1.16578
 C247 C 0.69860 0.88847 1.16982
 C248 C 0.69721 0.89442 1.18979
 C249 C 0.67954 0.88464 1.19686
 H250 H 0.71030 0.89309 1.15910
 H251 H 0.67328 0.88553 1.21189
 N252 N 0.67886 0.83322 1.12417
 N253 N 0.66980 0.81522 1.12901
 C254 C 0.67476 0.80036 1.11526
 C255 C 0.68741 0.80948 1.10094
 C256 C 0.68986 0.83030 1.10721
 H257 H 0.67012 0.78390 1.11598
 H258 H 0.69962 0.84217 1.10040
 H259 H 0.67246 0.83543 1.16179
 H260 H 0.64940 0.84347 1.14673
 N261 N 0.12552 0.31379 1.16901
 N262 N 0.12752 0.32764 1.18361
 C263 C 0.11240 0.32467 1.19715
 C264 C 0.09991 0.30836 1.19053
 C265 C 0.10894 0.30164 1.17270
 H266 H 0.11119 0.33306 1.21126
 H267 H 0.10422 0.28843 1.16345
 Cu268 Cu 0.15053 0.34725 1.18425
 Cu269 Cu 0.14624 0.31113 1.14783
 Cu270 Cu 0.17274 0.35806 1.13995
 N271 N 0.17129 0.36916 1.18163
 N272 N 0.17947 0.37386 1.16414
 C273 C 0.19295 0.38982 1.16650
 C274 C 0.19372 0.39492 1.18668
 C275 C 0.17951 0.38173 1.19577
 H276 H 0.20174 0.39693 1.15445
 H277 H 0.17569 0.38118 1.21157
 N278 N 0.17212 0.33468 1.12021
 N279 N 0.16278 0.31647 1.12362
 C280 C 0.16805 0.30255 1.10912
 C281 C 0.18122 0.31249 1.09576
 C282 C 0.18352 0.33283 1.10337
 H283 H 0.16385 0.28594 1.10911
 H284 H 0.19393 0.34487 1.09787
 H285 H 0.17031 0.33115 1.15705
 H286 H 0.14529 0.34294 1.14820
 N287 N 0.12360 0.81845 0.66643
 N288 N 0.12286 0.83354 0.68004
 C289 C 0.10673 0.83021 0.69232
 C290 C 0.09642 0.81228 0.68590
 C291 C 0.10779 0.80507 0.66952
 H292 H 0.10350 0.83939 0.70569
 H293 H 0.10532 0.79065 0.66105
 Cu294 Cu 0.14417 0.85490 0.68171
 Cu295 Cu 0.14691 0.81594 0.64785
 Cu296 Cu 0.17164 0.86402 0.64009
 N297 N 0.16412 0.87763 0.68044
 N298 N 0.17461 0.88154 0.66397
 C299 C 0.18745 0.89786 0.66731
 C300 C 0.18479 0.90454 0.68693
 C301 C 0.17005 0.89115 0.69487
 H302 H 0.19841 0.90391 0.65649
 H303 H 0.16468 0.89076 0.71024
 N304 N 0.17466 0.83947 0.62192
 N305 N 0.16624 0.82080 0.62549
 C306 C 0.17431 0.80637 0.61270
 C307 C 0.18875 0.81638 0.60074
 C308 C 0.18814 0.83747 0.60663
 H309 H 0.17088 0.78956 0.61284
 H310 H 0.19779 0.85015 0.60110
 H311 H 0.16831 0.83813 0.65851
 H312 H 0.14419 0.84752 0.64576
 N313 N 0.37741 0.68048 0.66661
 N314 N 0.37635 0.66538 0.68023
 C315 C 0.39099 0.66859 0.69418
 C316 C 0.40229 0.68633 0.68881
 C317 C 0.39304 0.69354 0.67126
 H318 H 0.39244 0.65956 0.70792
 H319 H 0.39672 0.70788 0.66307
 Cu320 Cu 0.35468 0.64421 0.67931
 Cu321 Cu 0.35621 0.68398 0.64596
 Cu322 Cu 0.31944 0.64444 0.64250
 N323 N 0.33304 0.62303 0.67836
 N324 N 0.31877 0.62387 0.66438
 C325 C 0.30420 0.60940 0.66850
 C326 C 0.30991 0.59831 0.68565
 C327 C 0.32828 0.60758 0.69153
 H328 H 0.28991 0.60797 0.66026
 H329 H 0.33701 0.60394 0.70493
 N330 N 0.32271 0.66684 0.62205
 N331 N 0.33610 0.68243 0.62371
 C332 C 0.33270 0.69655 0.60880
 C333 C 0.31667 0.68931 0.59693
 C334 C 0.31073 0.67046 0.60590
 H335 H 0.34044 0.71164 0.60740
 H336 H 0.29785 0.66070 0.60154
 H337 H 0.33222 0.66776 0.65976
 H338 H 0.35057 0.65199 0.64389
 N339 N 0.37718 0.18182 1.16332
 N340 N 0.37245 0.17196 1.18011
 C341 C 0.38485 0.17886 1.19486
 C342 C 0.39794 0.19395 1.18696
 C343 C 0.39296 0.19510 1.16678
 H344 H 0.38400 0.17385 1.21036
 H345 H 0.39986 0.20529 1.15557
 Cu346 Cu 0.34989 0.15184 1.18123
 Cu347 Cu 0.36128 0.17799 1.13869
 Cu348 Cu 0.31493 0.15163 1.14477
 N349 N 0.32811 0.13073 1.18078
 N350 N 0.31530 0.12992 1.16555
 C351 C 0.30111 0.11493 1.16907
 C352 C 0.30457 0.10653 1.18798
 C353 C 0.32217 0.11658 1.19479
 H354 H 0.28861 0.11120 1.15896
 H355 H 0.32939 0.11451 1.20928
 N356 N 0.32048 0.17036 1.12192
 N357 N 0.33837 0.17978 1.11906
 C358 C 0.33657 0.19313 1.10329
 C359 C 0.31636 0.19255 1.09641
 C360 C 0.30682 0.17759 1.10832
 H361 H 0.34871 0.20344 1.09803
 H362 H 0.29066 0.17342 1.10792
 H363 H 0.33519 0.17480 1.15565
 H364 H 0.34591 0.14952 1.14488
 N365 N 0.87455 0.68748 1.16615
 N366 N 0.87295 0.67365 1.18088
 C367 C 0.88605 0.67905 1.19566
 C368 C 0.89620 0.69739 1.18997
 C369 C 0.88888 0.70194 1.17091
 H370 H 0.88736 0.67097 1.20994
 H371 H 0.89297 0.71534 1.16156
 Cu372 Cu 0.85213 0.65156 1.17983
 Cu373 Cu 0.85517 0.68808 1.14379
 Cu374 Cu 0.82896 0.64088 1.13616
 N375 N 0.83202 0.62890 1.17770
 N376 N 0.82320 0.62457 1.16044
 C377 C 0.80962 0.60874 1.16308
 C378 C 0.80952 0.60327 1.18320
 C379 C 0.82415 0.61614 1.19196
 H380 H 0.80013 0.60213 1.15134
 H381 H 0.82821 0.61658 1.20769
 N382 N 0.82941 0.66426 1.11632
 N383 N 0.83900 0.68238 1.11946
 C384 C 0.83382 0.69622 1.10485
 C385 C 0.82040 0.68639 1.09176
 C386 C 0.81787 0.66615 1.09960
 H387 H 0.83811 0.71280 1.10464
 H388 H 0.80719 0.65427 1.09437
 H389 H 0.83168 0.66762 1.15323
 H390 H 0.85656 0.65615 1.14370
 N391 N 0.87827 0.17848 0.65778
 N392 N 0.87607 0.16675 0.67397
 C393 C 0.88807 0.17450 0.68866
 C394 C 0.89818 0.19220 0.68134
 C395 C 0.89206 0.19385 0.66148
 H396 H 0.88869 0.16829 0.70380
 H397 H 0.89652 0.20592 0.65078
 Cu398 Cu 0.85681 0.14321 0.67458
 Cu399 Cu 0.86024 0.17506 0.63451
 Cu400 Cu 0.81347 0.15356 0.64912
 N401 N 0.83310 0.12470 0.67670
 N402 N 0.81593 0.12916 0.66700
 C403 C 0.80131 0.11526 0.67246
 C404 C 0.80992 0.10088 0.68592
 C405 C 0.83010 0.10757 0.68845
 H406 H 0.78538 0.11614 0.66762
 H407 H 0.84148 0.10094 0.69862
 N408 N 0.81660 0.17194 0.62536
 N409 N 0.83464 0.17888 0.61898
 C410 C 0.83165 0.19102 0.60256
 C411 C 0.81063 0.19226 0.59881
 C412 C 0.80164 0.17961 0.61330
 H413 H 0.84379 0.19920 0.59459
 H414 H 0.78530 0.17685 0.61529
 H415 H 0.83899 0.17157 0.65632
 H416 H 0.84291 0.14732 0.64063
 N417 N 0.32411 0.37945 0.65999
 N418 N 0.34037 0.38076 0.67164
 C419 C 0.33638 0.39465 0.68651
 C420 C 0.31680 0.40337 0.68363
 C421 C 0.30946 0.39309 0.66666
 H422 H 0.34658 0.39719 0.69908
 H423 H 0.29425 0.39475 0.66013
 Cu424 Cu 0.36490 0.36352 0.66696
 Cu425 Cu 0.32206 0.35777 0.63910
 Cu426 Cu 0.36572 0.32604 0.63159
 N427 N 0.38539 0.34077 0.66732
 N428 N 0.38497 0.32546 0.65396
 C429 C 0.39901 0.31042 0.65891
 C430 C 0.40921 0.31684 0.67613
 C431 C 0.39998 0.33620 0.68105
 H432 H 0.40068 0.29537 0.65120
 H433 H 0.40292 0.34576 0.69419
 N434 N 0.34060 0.32369 0.61533
 N435 N 0.32357 0.33488 0.61877
 C436 C 0.30829 0.32713 0.60726
 C437 C 0.31608 0.31015 0.59627
 C438 C 0.33675 0.30887 0.60135
 H439 H 0.29243 0.33274 0.60750
 H440 H 0.34796 0.29733 0.59596
 H441 H 0.34359 0.33687 0.65127
 H442 H 0.35274 0.35674 0.63259
 N443 N 0.32353 0.87940 0.15943
 N444 N 0.33979 0.88132 0.17102
 C445 C 0.33599 0.89639 0.18488
 C446 C 0.31649 0.90504 0.18145
 C447 C 0.30901 0.89363 0.16523
 H448 H 0.34622 0.89987 0.19722
 H449 H 0.29380 0.89501 0.15863
 Cu450 Cu 0.36388 0.86303 0.16792
 Cu451 Cu 0.32159 0.85688 0.13934
 Cu452 Cu 0.36497 0.82431 0.13373
 N453 N 0.38336 0.83941 0.16998
 N454 N 0.38321 0.82379 0.15692
 C455 C 0.39685 0.80867 0.16268
 C456 C 0.40644 0.81535 0.18014
 C457 C 0.39727 0.83489 0.18439
 H458 H 0.39884 0.79352 0.15520
 H459 H 0.40000 0.84477 0.19737
 N460 N 0.34021 0.82182 0.11691
 N461 N 0.32322 0.83326 0.11979
 C462 C 0.30812 0.82545 0.10810
 C463 C 0.31597 0.80818 0.09756
 C464 C 0.33651 0.80676 0.10311
 H465 H 0.29234 0.83127 0.10785
 H466 H 0.34773 0.79500 0.09816
 H467 H 0.34261 0.83612 0.15255
 H468 H 0.35241 0.85523 0.13350
 N469 N 0.82367 0.37845 0.15214
 N470 N 0.83805 0.37955 0.16596
 C471 C 0.83146 0.39255 0.18074
 C472 C 0.81182 0.39998 0.17598
 C473 C 0.80770 0.39122 0.15734
 H474 H 0.83996 0.39561 0.19438
 H475 H 0.79387 0.39337 0.14845
 Cu476 Cu 0.86317 0.36242 0.16414
 Cu477 Cu 0.82555 0.35841 0.12991
 Cu478 Cu 0.86456 0.31998 0.13391
 N479 N 0.88230 0.33896 0.16886
 N480 N 0.88147 0.32156 0.15803
 C481 C 0.89344 0.30642 0.16658
 C482 C 0.90208 0.31471 0.18387
 C483 C 0.89517 0.33569 0.18440
 H484 H 0.89508 0.29031 0.16104
 H485 H 0.89857 0.34753 0.19564
 N486 N 0.84220 0.31856 0.11393
 N487 N 0.82692 0.33262 0.11303
 C488 C 0.81249 0.32547 0.10025
 C489 C 0.81894 0.30593 0.09279
 C490 C 0.83817 0.30243 0.10132
 H491 H 0.79787 0.33338 0.09733
 H492 H 0.84819 0.28875 0.09911
 H493 H 0.84118 0.33693 0.14779
 H494 H 0.85689 0.35154 0.12901
 N495 N 0.82255 0.87624 0.66039
 N496 N 0.83904 0.87696 0.67181
 C497 C 0.83610 0.89167 0.68620
 C498 C 0.81697 0.90138 0.68331
 C499 C 0.80878 0.89095 0.66682
 H500 H 0.84663 0.89414 0.69853
 H501 H 0.79356 0.89329 0.66047
 Cu502 Cu 0.86229 0.85771 0.66772
 Cu503 Cu 0.81910 0.85432 0.63991
 Cu504 Cu 0.86086 0.81990 0.63272
 N505 N 0.88094 0.83330 0.66868
 N506 N 0.87969 0.81799 0.65538
 C507 C 0.89280 0.80212 0.66048
 C508 C 0.90326 0.80798 0.67773
 C509 C 0.89511 0.82786 0.68255
 H510 H 0.89380 0.78704 0.65272
 H511 H 0.89870 0.83735 0.69559
 N512 N 0.83559 0.81888 0.61651
 N513 N 0.81920 0.83106 0.61991
 C514 C 0.80345 0.82406 0.60856
 C515 C 0.81025 0.80653 0.59773
 C516 C 0.83086 0.80413 0.60273
 H517 H 0.78790 0.83056 0.60881
 H518 H 0.84138 0.79184 0.59749
 H519 H 0.83942 0.83229 0.65227
 H520 H 0.84966 0.85137 0.63341
 N521 N 0.66753 0.61229 0.65795
 N522 N 0.65431 0.61374 0.67287
 C523 C 0.65974 0.59972 0.68726
 C524 C 0.67710 0.58848 0.68088
 C525 C 0.68165 0.59703 0.66220
 H526 H 0.65231 0.59869 0.70177
 H527 H 0.69483 0.59316 0.65282
 Cu528 Cu 0.63222 0.63495 0.67296
 Cu529 Cu 0.66633 0.63190 0.63520
 Cu530 Cu 0.63963 0.67895 0.64550
 N531 N 0.61678 0.66095 0.67821
 N532 N 0.62063 0.67850 0.66821
 C533 C 0.60940 0.69459 0.67613
 C534 C 0.59807 0.68674 0.69209
 C535 C 0.60281 0.66518 0.69267
 H536 H 0.60968 0.71088 0.67090
 H537 H 0.59687 0.65352 0.70307
 N538 N 0.65923 0.67585 0.62296
 N539 N 0.66886 0.65779 0.61863
 C540 C 0.68113 0.66086 0.60255
 C541 C 0.67890 0.68179 0.59631
 C542 C 0.66512 0.69085 0.60978
 H543 H 0.69141 0.64895 0.59621
 H544 H 0.66030 0.70738 0.61028
 H545 H 0.65890 0.65473 0.65573
 H546 H 0.63765 0.64738 0.63833
 N547 N 0.67877 0.12006 0.16179
 N548 N 0.66826 0.12363 0.17836
 C549 C 0.67392 0.10926 0.19231
 C550 C 0.68853 0.09565 0.18400
 C551 C 0.69144 0.10315 0.16464
 H552 H 0.66831 0.10906 0.20759
 H553 H 0.70227 0.09706 0.15361
 Cu554 Cu 0.64815 0.14665 0.18045
 Cu555 Cu 0.67550 0.13818 0.13817
 Cu556 Cu 0.64782 0.18512 0.14585
 N557 N 0.62567 0.16734 0.17886
 N558 N 0.62523 0.18212 0.16492
 C559 C 0.60880 0.19503 0.16805
 C560 C 0.59825 0.18789 0.18486
 C561 C 0.60966 0.17044 0.19144
 H562 H 0.60537 0.20915 0.15932
 H563 H 0.60724 0.16148 0.20508
 N564 N 0.66629 0.18067 0.12282
 N565 N 0.67627 0.16259 0.11943
 C566 C 0.68819 0.16491 0.10299
 C567 C 0.68543 0.18538 0.09559
 C568 C 0.67162 0.19494 0.10874
 H569 H 0.69884 0.15293 0.09737
 H570 H 0.66664 0.21143 0.10866
 H571 H 0.67088 0.16390 0.15629
 H572 H 0.64709 0.15315 0.14435
 N573 N 0.16629 0.61963 0.16135
 N574 N 0.15819 0.62650 0.17837
 C575 C 0.16378 0.61315 0.19323
 C576 C 0.17601 0.59709 0.18523
 C577 C 0.17743 0.60180 0.16498
 H578 H 0.16023 0.61555 0.20893
 H579 H 0.18685 0.59358 0.15396
 Cu580 Cu 0.14194 0.65309 0.18064
 Cu581 Cu 0.16467 0.63608 0.13624
 Cu582 Cu 0.13576 0.68057 0.13807
 N583 N 0.12068 0.67502 0.17779
 N584 N 0.11777 0.68549 0.16094
 C585 C 0.10263 0.70011 0.16360
 C586 C 0.09615 0.69910 0.18341
 C587 C 0.10776 0.68279 0.19185
 H588 H 0.09713 0.71096 0.15213
 H589 H 0.10726 0.67740 0.20726
 N590 N 0.15908 0.67795 0.11978
 N591 N 0.16954 0.65998 0.11814
 C592 C 0.18485 0.66249 0.10470
 C593 C 0.18461 0.68348 0.09828
 C594 C 0.16772 0.69268 0.10784
 H595 H 0.19588 0.65016 0.10063
 H596 H 0.16260 0.70910 0.10681
 H597 H 0.16119 0.65953 0.15653
 H598 H 0.13712 0.64434 0.15179
 N599 N 0.17761 0.12202 0.66402
 N600 N 0.16660 0.12668 0.68005
 C601 C 0.17246 0.11388 0.69522
 C602 C 0.18769 0.10013 0.68827
 C603 C 0.19074 0.10588 0.66842
 H604 H 0.16650 0.11483 0.71036
 H605 H 0.20195 0.09916 0.65809
 Cu606 Cu 0.14571 0.14905 0.67972
 Cu607 Cu 0.17441 0.13806 0.63910
 Cu608 Cu 0.14774 0.18607 0.64393
 N609 N 0.12338 0.16958 0.67612
 N610 N 0.12395 0.18396 0.66182
 C611 C 0.10746 0.19709 0.66369
 C612 C 0.09581 0.19046 0.68001
 C613 C 0.10663 0.17311 0.68764
 H614 H 0.10472 0.21103 0.65449
 H615 H 0.10329 0.16458 0.70134
 N616 N 0.16762 0.18035 0.62220
 N617 N 0.17672 0.16164 0.61962
 C618 C 0.19017 0.16303 0.60426
 C619 C 0.19011 0.18384 0.59737
 C620 C 0.17526 0.19422 0.60879
 H621 H 0.20018 0.15017 0.59931
 H622 H 0.17120 0.21095 0.60811
 H623 H 0.16979 0.16477 0.65605
 H624 H 0.14627 0.15429 0.64341
 N625 N 0.31256 0.62890 0.33295
 N626 N 0.32683 0.62846 0.31891
 C627 C 0.32214 0.61326 0.30549
 C628 C 0.30385 0.60373 0.31133
 C629 C 0.29808 0.61443 0.32867
 H630 H 0.33095 0.60986 0.29205
 H631 H 0.28387 0.61263 0.33702
 Cu632 Cu 0.34876 0.64940 0.31858
 Cu633 Cu 0.31319 0.64882 0.35531
 Cu634 Cu 0.34998 0.68838 0.35273
 N635 N 0.37086 0.67018 0.31869
 N636 N 0.37166 0.68492 0.33261
 C637 C 0.38777 0.69769 0.32886
 C638 C 0.39767 0.69065 0.31160
 C639 C 0.38625 0.67331 0.30541
 H640 H 0.39145 0.71168 0.33752
 H641 H 0.38825 0.66447 0.29163
 N642 N 0.32971 0.68632 0.37478
 N643 N 0.31637 0.67067 0.37622
 C644 C 0.30457 0.67377 0.39263
 C645 C 0.31066 0.69233 0.40200
 C646 C 0.32649 0.69996 0.39006
 H647 H 0.29182 0.66380 0.39700
 H648 H 0.33433 0.71494 0.39177
 H649 H 0.32607 0.67245 0.33848
 H650 H 0.34437 0.65634 0.35411
 N651 N 0.32326 0.12304 0.83868
 N652 N 0.33194 0.12753 0.82135
 C653 C 0.32445 0.11448 0.80720
 C654 C 0.31024 0.10118 0.81609
 C655 C 0.31024 0.10669 0.83620
 H656 H 0.32830 0.11520 0.79142
 H657 H 0.30082 0.09998 0.84800
 Cu658 Cu 0.35101 0.15104 0.81874
 Cu659 Cu 0.32772 0.14051 0.86249
 Cu660 Cu 0.35052 0.18924 0.85323
 N661 N 0.37109 0.17381 0.81792
 N662 N 0.37145 0.18822 0.83218
 C663 C 0.38584 0.20276 0.82776
 C664 C 0.39445 0.19768 0.80930
 C665 C 0.38500 0.17893 0.80372
 H666 H 0.38922 0.21642 0.83700
 H667 H 0.38745 0.17025 0.78990
 N668 N 0.33321 0.18384 0.87689
 N669 N 0.32545 0.16499 0.88103
 C670 C 0.31279 0.16688 0.89701
 C671 C 0.31195 0.18809 0.90267
 C672 C 0.32548 0.19823 0.88987
 H673 H 0.30374 0.15404 0.90315
 H674 H 0.32832 0.21515 0.88921
 H675 H 0.32881 0.16664 0.84416
 H676 H 0.35421 0.15766 0.85468
 N677 N 0.81456 0.62764 0.83295
 N678 N 0.82969 0.62650 0.81982
 C679 C 0.82387 0.61430 0.80435
 C680 C 0.80368 0.60800 0.80754
 C681 C 0.79844 0.61641 0.82612
 H682 H 0.83368 0.61033 0.79171
 H683 H 0.78392 0.61470 0.83399
 Cu684 Cu 0.85507 0.64220 0.82330
 Cu685 Cu 0.81758 0.64339 0.85795
 Cu686 Cu 0.85194 0.68496 0.85336
 N687 N 0.87577 0.66425 0.82262
 N688 N 0.87487 0.68067 0.83477
 C689 C 0.89015 0.69414 0.83007
 C690 C 0.90121 0.68582 0.81398
 C691 C 0.89138 0.66691 0.80953
 H692 H 0.89233 0.70946 0.83709
 H693 H 0.89431 0.65664 0.79681
 N694 N 0.83094 0.68349 0.87481
 N695 N 0.81847 0.66718 0.87704
 C696 C 0.80598 0.67080 0.89286
 C697 C 0.81082 0.69035 0.90108
 C698 C 0.82653 0.69804 0.88903
 H699 H 0.79373 0.66035 0.89758
 H700 H 0.83365 0.71348 0.89005
 H701 H 0.83019 0.66551 0.83997
 H702 H 0.84870 0.65311 0.85809
 N703 N 0.82134 0.12206 0.33632
 N704 N 0.83670 0.12247 0.32344
 C705 C 0.83201 0.11038 0.30750
 C706 C 0.81220 0.10262 0.31008
 C707 C 0.80614 0.10998 0.32883
 H708 H 0.84222 0.10773 0.29487
 H709 H 0.79156 0.10718 0.33630
 Cu710 Cu 0.86011 0.14100 0.32743
 Cu711 Cu 0.82261 0.13722 0.36180
 Cu712 Cu 0.85575 0.18027 0.36132
 N713 N 0.87768 0.16579 0.32634
 N714 N 0.87671 0.18047 0.34033
 C715 C 0.88949 0.19639 0.33547
 C716 C 0.89814 0.19205 0.31687
 C717 C 0.89066 0.17220 0.31177
 H718 H 0.89157 0.21053 0.34441
 H719 H 0.89352 0.16361 0.29797
 N720 N 0.83343 0.17694 0.38121
 N721 N 0.82152 0.16006 0.38202
 C722 C 0.80704 0.16310 0.39629
 C723 C 0.80934 0.18331 0.40421
 C724 C 0.82651 0.19138 0.39459
 H725 H 0.79509 0.15183 0.39990
 H726 H 0.83270 0.20716 0.39642
 H727 H 0.83477 0.16182 0.34592
 H728 H 0.85302 0.14792 0.36322
 N729 N 0.68031 0.37752 0.33292
 N730 N 0.67065 0.37300 0.31614
 C731 C 0.67849 0.38487 0.30119
 C732 C 0.69399 0.39735 0.30900
 C733 C 0.69439 0.39265 0.32929
 H734 H 0.67378 0.38403 0.28565
 H735 H 0.70460 0.39921 0.34047
 Cu736 Cu 0.64947 0.35131 0.31539
 Cu737 Cu 0.67514 0.36188 0.35768
 Cu738 Cu 0.64924 0.31436 0.35129
 N739 N 0.62719 0.33086 0.31731
 N740 N 0.62691 0.31662 0.33178
 C741 C 0.61083 0.30359 0.32900
 C742 C 0.60030 0.31003 0.31190
 C743 C 0.61137 0.32724 0.30475
 H744 H 0.60757 0.28986 0.33825
 H745 H 0.60882 0.33568 0.29081
 N746 N 0.66744 0.31982 0.37422
 N747 N 0.67633 0.33834 0.37728
 C748 C 0.68902 0.33659 0.39320
 C749 C 0.68858 0.31579 0.40003
 C750 C 0.67437 0.30576 0.38794
 H751 H 0.69897 0.34911 0.39848
 H752 H 0.67044 0.28908 0.38831
 H753 H 0.67187 0.33523 0.34051
 H754 H 0.64744 0.34610 0.35166
 N755 N 0.68085 0.87700 0.83861
 N756 N 0.67169 0.87280 0.82149
 C757 C 0.68051 0.88435 0.80684
 C758 C 0.69612 0.89632 0.81519
 C759 C 0.69557 0.89161 0.83549
 H760 H 0.67618 0.88388 0.79119
 H761 H 0.70532 0.89807 0.84710
 Cu762 Cu 0.64920 0.85255 0.82008
 Cu763 Cu 0.67369 0.86225 0.86337
 Cu764 Cu 0.64404 0.81718 0.85702
 N765 N 0.62529 0.83402 0.82137
 N766 N 0.62307 0.82056 0.83630
 C767 C 0.60627 0.80866 0.83304
 C768 C 0.59733 0.81498 0.81508
 C769 C 0.61004 0.83099 0.80799
 H770 H 0.60153 0.79562 0.84254
 H771 H 0.60902 0.83884 0.79358
 N772 N 0.66125 0.82186 0.88080
 N773 N 0.67188 0.83939 0.88365
 C774 C 0.68338 0.83702 0.90035
 C775 C 0.67977 0.81706 0.90844
 C776 C 0.66573 0.80790 0.89550
 H777 H 0.69472 0.84833 0.90539
 H778 H 0.66042 0.79165 0.89590
 H779 H 0.66893 0.83551 0.84679
 H780 H 0.64500 0.84898 0.85636
 N781 N 0.17719 0.37373 0.83350
 N782 N 0.16772 0.36881 0.81674
 C783 C 0.17322 0.38264 0.80232
 C784 C 0.18668 0.39721 0.81050
 C785 C 0.18902 0.39090 0.83029
 H786 H 0.16858 0.38159 0.78678
 H787 H 0.19930 0.39774 0.84124
 Cu788 Cu 0.15021 0.34401 0.81459
 Cu789 Cu 0.17591 0.35565 0.85719
 Cu790 Cu 0.14059 0.31490 0.85595
 N791 N 0.12737 0.32422 0.81587
 N792 N 0.12316 0.31345 0.83225
 C793 C 0.10691 0.30079 0.82877
 C794 C 0.10099 0.30334 0.80894
 C795 C 0.11410 0.31862 0.80134
 H796 H 0.10019 0.29020 0.83972
 H797 H 0.11429 0.32475 0.78617
 N798 N 0.15972 0.31909 0.87846
 N799 N 0.17254 0.33521 0.87937
 C800 C 0.18491 0.33260 0.89542
 C801 C 0.17980 0.31381 0.90505
 C802 C 0.16385 0.30562 0.89369
 H803 H 0.19781 0.34270 0.89894
 H804 H 0.15702 0.29009 0.89534
 H805 H 0.16722 0.32769 0.84336
 H806 H 0.14601 0.34687 0.85059
 N807 N 0.18251 0.87604 0.33691
 N808 N 0.17362 0.87131 0.31980
 C809 C 0.18213 0.88292 0.30506
 C810 C 0.19726 0.89555 0.31333
 C811 C 0.19677 0.89111 0.33369
 H812 H 0.17776 0.88222 0.28943
 H813 H 0.20609 0.89822 0.34530
 Cu814 Cu 0.15139 0.85093 0.31849
 Cu815 Cu 0.17518 0.86161 0.36178
 Cu816 Cu 0.14635 0.81579 0.35568
 N817 N 0.12756 0.83252 0.32002
 N818 N 0.12546 0.81876 0.33473
 C819 C 0.10853 0.80702 0.33136
 C820 C 0.09938 0.81401 0.31371
 C821 C 0.11210 0.83002 0.30682
 H822 H 0.10369 0.79386 0.34066
 H823 H 0.11081 0.83841 0.29270
 N824 N 0.16329 0.82118 0.37960
 N825 N 0.17352 0.83900 0.38230
 C826 C 0.18488 0.83721 0.39912
 C827 C 0.18164 0.81733 0.40748
 C828 C 0.16793 0.80759 0.39457
 H829 H 0.19591 0.84887 0.40410
 H830 H 0.16294 0.79123 0.39523
 H831 H 0.17108 0.83445 0.34554
 H832 H 0.14685 0.84760 0.35475
 C833 C 0.26750 0.95652 0.23655
 C834 C 0.25715 0.94482 0.25124
 C835 C 0.24401 0.95467 0.26519
 C836 C 0.24122 0.97703 0.26474
 C837 C 0.25168 0.98917 0.25003
 C838 C 0.26442 0.97887 0.23555
 C839 C 0.27347 0.99113 0.22030
 C840 C 0.27136 1.01318 0.22011
 C841 C 0.25979 1.02380 0.23496
 C842 C 0.24926 1.01167 0.24968
 C843 C 0.22823 0.98753 0.27858
 C844 C 0.22546 1.00954 0.27793
 C845 C 0.23610 1.02196 0.26385
 C846 C 0.23382 1.04439 0.26331
 C847 C 0.24552 1.05611 0.24963
 C848 C 0.25806 1.04623 0.23523
 H849 H 0.28239 0.98382 0.20837
 H850 H 0.27881 1.02182 0.20811
 H851 H 0.22006 0.97883 0.29008
 H852 H 0.21502 1.01671 0.28873
 H853 H 0.25920 0.92766 0.25173
 H854 H 0.24432 1.07335 0.24980
 C855 C 0.26626 0.45348 0.73873
 C856 C 0.25337 0.44229 0.75183
 C857 C 0.23945 0.45286 0.76454
 C858 C 0.23892 0.47537 0.76495
 C859 C 0.25128 0.48696 0.75130
 C860 C 0.26477 0.47602 0.73794
 C861 C 0.27630 0.48791 0.72407
 C862 C 0.27529 0.51002 0.72389
 C863 C 0.26183 0.52118 0.73678
 C864 C 0.24986 0.50955 0.75078
 C865 C 0.22620 0.48653 0.77855
 C866 C 0.22511 0.50865 0.77830
 C867 C 0.23650 0.52045 0.76428
 C868 C 0.23498 0.54290 0.76347
 C869 C 0.24671 0.55414 0.74948
 C870 C 0.25999 0.54367 0.73607
 H871 H 0.28629 0.48030 0.71317
 H872 H 0.28509 0.51822 0.71332
 H873 H 0.21698 0.47822 0.78956
 H874 H 0.21509 0.51642 0.78913
 H875 H 0.25392 0.42502 0.75188
 H876 H 0.24540 0.57136 0.74896
 C877 C 0.74052 0.04154 0.23298
 C878 C 0.75206 0.05389 0.24616
 C879 C 0.76614 0.04468 0.25961
 C880 C 0.76776 0.02220 0.26090
 C881 C 0.75608 0.00941 0.24763
 C882 C 0.74286 0.01914 0.23325
 C883 C 0.73239 0.00625 0.21949
 C884 C 0.73422 -0.01582 0.22030
 C885 C 0.74641 -0.02588 0.23506
 C886 C 0.75772 -0.01315 0.24865
 C887 C 0.78079 0.01215 0.27494
 C888 C 0.78167 -0.00992 0.27653
 C889 C 0.77057 -0.02292 0.26332
 C890 C 0.77192 -0.04543 0.26441
 C891 C 0.76028 -0.05771 0.25120
 C892 C 0.74775 -0.04833 0.23647
 H893 H 0.72268 0.01315 0.20793
 H894 H 0.72592 -0.02492 0.20923
 H895 H 0.79033 0.02118 0.28504
 H896 H 0.79135 -0.01665 0.28818
 H897 H 0.75028 0.07108 0.24574
 H898 H 0.76105 -0.07493 0.25235
 C899 C 0.77115 0.45841 0.76656
 C900 C 0.76094 0.44488 0.75331
 C901 C 0.74765 0.45283 0.73851
 C902 C 0.74416 0.47502 0.73688
 C903 C 0.75415 0.48899 0.75033
 C904 C 0.76780 0.48070 0.76515
 C905 C 0.77766 0.49492 0.77816
 C906 C 0.77473 0.51681 0.77626
 C907 C 0.76086 0.52535 0.76207
 C908 C 0.75037 0.51128 0.74904
 C909 C 0.73107 0.48359 0.72204
 C910 C 0.72722 0.50539 0.72090
 C911 C 0.73635 0.51948 0.73452
 C912 C 0.73198 0.54161 0.73391
 C913 C 0.74245 0.55522 0.74686
 C914 C 0.75732 0.54757 0.76035
 H915 H 0.78796 0.48929 0.78981
 H916 H 0.78335 0.52690 0.78625
 H917 H 0.72365 0.47350 0.71113
 H918 H 0.71700 0.51110 0.70919
 H919 H 0.76327 0.42780 0.75463
 H920 H 0.73939 0.57222 0.74604
 C921 C 0.23004 0.54536 0.23435
 C922 C 0.24128 0.55730 0.24814
 C923 C 0.25528 0.54761 0.26137
 C924 C 0.25825 0.52523 0.26073
 C925 C 0.24685 0.51294 0.24686
 C926 C 0.23288 0.52306 0.23345
 C927 C 0.22220 0.51066 0.21942
 C928 C 0.22491 0.48866 0.21879
 C929 C 0.23824 0.47821 0.23230
 C930 C 0.24948 0.49047 0.24633
 C931 C 0.27238 0.51482 0.27353
 C932 C 0.27438 0.49277 0.27353
 C933 C 0.26323 0.48029 0.25995
 C934 C 0.26540 0.45787 0.25964
 C935 C 0.25412 0.44603 0.24584
 C936 C 0.24077 0.45583 0.23209
 H937 H 0.21166 0.51788 0.20874
 H938 H 0.21641 0.47992 0.20758
 H939 H 0.28190 0.52357 0.28388
 H940 H 0.28495 0.48564 0.28422
 H941 H 0.23899 0.57443 0.24867
 H942 H 0.25569 0.42882 0.24584
 C943 C 0.74123 1.04332 0.76640
 C944 C 0.75224 1.05451 0.75183
 C945 C 0.76440 1.04397 0.73756
 C946 C 0.76571 1.02147 0.73778
 C947 C 0.75469 1.00989 0.75253
 C948 C 0.74237 1.02085 0.76691
 C949 C 0.73178 1.00910 0.78154
 C950 C 0.73317 0.98695 0.78200
 C951 C 0.74515 0.97574 0.76780
 C952 C 0.75617 0.98731 0.75304
 C953 C 0.77777 1.01030 0.72367
 C954 C 0.77882 0.98819 0.72387
 C955 C 0.76861 0.97637 0.73874
 C956 C 0.77044 0.95389 0.73964
 C957 C 0.75919 0.94272 0.75407
 C958 C 0.74656 0.95324 0.76806
 H959 H 0.72240 1.01697 0.79283
 H960 H 0.72487 0.97870 0.79371
 H961 H 0.78646 1.01853 0.71222
 H962 H 0.78789 0.98050 0.71227
 H963 H 0.75138 1.07177 0.75164
 H964 H 0.76020 0.92548 0.75440
 C965 C 0.76338 0.45438 0.22896
 C966 C 0.75340 0.44320 0.24430
 C967 C 0.74249 0.45369 0.25952
 C968 C 0.74203 0.47617 0.26003
 C969 C 0.75226 0.48782 0.24479
 C970 C 0.76282 0.47693 0.22909
 C971 C 0.77223 0.48889 0.21382
 C972 C 0.77202 0.51105 0.21436
 C973 C 0.76212 0.52211 0.23004
 C974 C 0.75184 0.51042 0.24522
 C975 C 0.73183 0.48725 0.27552
 C976 C 0.73140 0.50940 0.27591
 C977 C 0.74115 0.52129 0.26083
 C978 C 0.74075 0.54379 0.26108
 C979 C 0.75119 0.55505 0.24616
 C980 C 0.76192 0.54460 0.23078
 H981 H 0.77981 0.48124 0.20122
 H982 H 0.77954 0.51946 0.20225
 H983 H 0.72422 0.47889 0.28761
 H984 H 0.72346 0.51712 0.28827
 H985 H 0.75387 0.42593 0.24422
 H986 H 0.75098 0.57232 0.24654
 C987 C 0.26083 -0.04564 0.76470
 C988 C 0.24936 -0.05557 0.74965
 C989 C 0.23805 -0.04380 0.73564
 C990 C 0.23933 -0.02141 0.73551
 C991 C 0.25096 -0.01101 0.75052
 C992 C 0.26170 -0.02311 0.76527
 C993 C 0.27250 -0.01234 0.78039
 C994 C 0.27296 0.00986 0.78086
 C995 C 0.26244 0.02211 0.76637
 C996 C 0.25125 0.01157 0.75113
 C997 C 0.22897 -0.00922 0.72091
 C998 C 0.22922 0.01285 0.72154
 C999 C 0.23985 0.02355 0.73679
 C1000 C 0.23908 0.04597 0.73821
 C1001 C 0.25069 0.05620 0.75287
 C1002 C 0.26231 0.04463 0.76695
 H1003 H 0.28051 -0.02095 0.79215
 H1004 H 0.28137 0.01734 0.79292
 H1005 H 0.22043 -0.01667 0.70892
 H1006 H 0.22085 0.02147 0.71000
 H1007 H 0.24850 -0.07280 0.74935
 H1008 H 0.25024 0.07344 0.75367
 C1009 C 0.23677 0.26728 1.04214
 C1010 C 0.25151 0.25492 1.05226
 C1011 C 0.26590 0.24225 1.04188
 C1012 C 0.26493 0.24105 1.02070
 C1013 C 0.25029 0.25382 1.01022
 C1014 C 0.23667 0.26753 1.02094
 C1015 C 0.22330 0.28114 1.01021
 C1016 C 0.22256 0.28054 0.98938
 C1017 C 0.23486 0.26600 0.97850
 C1018 C 0.24918 0.25283 0.98897
 C1019 C 0.27822 0.22756 1.00973
 C1020 C 0.27662 0.22599 0.98896
 C1021 C 0.26228 0.23855 0.97826
 C1022 C 0.26053 0.23713 0.95715
 C1023 C 0.24625 0.25017 0.94708
 C1024 C 0.23330 0.26437 0.95739
 H1025 H 0.21327 0.29240 1.01786
 H1026 H 0.21204 0.29144 0.98191
 H1027 H 0.28985 0.21784 1.01709
 H1028 H 0.28680 0.21483 0.98139
 H1029 H 0.25172 0.25504 1.06853
 H1030 H 0.24507 0.24910 0.93087
 C1031 C 0.26255 0.74206 0.45881
 C1032 C 0.24877 0.75608 0.44929
 C1033 C 0.23584 0.76976 0.46024
 C1034 C 0.23735 0.77026 0.48140
 C1035 C 0.25076 0.75568 0.49133
 C1036 C 0.26297 0.74111 0.48003
 C1037 C 0.27519 0.72595 0.49023
 C1038 C 0.27623 0.72581 0.51108
 C1039 C 0.26514 0.74085 0.52253
 C1040 C 0.25193 0.75564 0.51259
 C1041 C 0.22584 0.78497 0.49284
 C1042 C 0.22714 0.78508 0.51368
 C1043 C 0.23988 0.77039 0.52387
 C1044 C 0.24111 0.77018 0.54504
 C1045 C 0.25447 0.75576 0.55457
 C1046 C 0.26673 0.74140 0.54370
 H1047 H 0.28408 0.71404 0.48216
 H1048 H 0.28590 0.71382 0.51816
 H1049 H 0.21580 0.79663 0.48575
 H1050 H 0.21809 0.79689 0.52174
 H1051 H 0.24799 0.75627 0.43303
 H1052 H 0.25538 0.75576 0.57083
 C1053 C 0.26681 0.75488 -0.04012
 C1054 C 0.25204 0.74279 -0.05014
 C1055 C 0.23804 0.73009 -0.03971
 C1056 C 0.23883 0.72926 -0.01851
 C1057 C 0.25304 0.74223 -0.00808
 C1058 C 0.26719 0.75499 -0.01890
 C1059 C 0.28158 0.76715 -0.00825
 C1060 C 0.28164 0.76734 0.01265
 C1061 C 0.26741 0.75527 0.02367
 C1062 C 0.25323 0.74225 0.01323
 C1063 C 0.22594 0.71566 -0.00751
 C1064 C 0.22630 0.71549 0.01335
 C1065 C 0.23946 0.72901 0.02403
 C1066 C 0.23956 0.72935 0.04524
 C1067 C 0.25300 0.74297 0.05526
 C1068 C 0.26720 0.75550 0.04489
 H1069 H 0.29294 0.77666 -0.01597
 H1070 H 0.29305 0.77699 0.02008
 H1071 H 0.21545 0.70497 -0.01496
 H1072 H 0.21610 0.70464 0.02102
 H1073 H 0.25153 0.74319 -0.06640
 H1074 H 0.25276 0.74342 0.07154
 C1075 C 0.23807 0.23613 0.45735
 C1076 C 0.25085 0.25052 0.44739
 C1077 C 0.26485 0.26314 0.45783
 C1078 C 0.26622 0.26144 0.47896
 C1079 C 0.25318 0.24711 0.48932
 C1080 C 0.23942 0.23403 0.47847
 C1081 C 0.22755 0.21907 0.48898
 C1082 C 0.22834 0.21774 0.50981
 C1083 C 0.24110 0.23127 0.52092
 C1084 C 0.25398 0.24579 0.51057
 C1085 C 0.28041 0.27351 0.48995
 C1086 C 0.28118 0.27225 0.51078
 C1087 C 0.26781 0.25884 0.52142
 C1088 C 0.26812 0.25780 0.54260
 C1089 C 0.25471 0.24406 0.55256
 C1090 C 0.24165 0.23043 0.54211
 H1091 H 0.21747 0.20823 0.48120
 H1092 H 0.21883 0.20598 0.51712
 H1093 H 0.29105 0.28413 0.48254
 H1094 H 0.29241 0.28191 0.51846
 H1095 H 0.24977 0.25204 0.43121
 H1096 H 0.25478 0.24361 0.56884
 C1097 C 0.76066 0.73935 0.95685
 C1098 C 0.74667 0.75350 0.94779
 C1099 C 0.73347 0.76648 0.95920
 C1100 C 0.73471 0.76590 0.98039
 C1101 C 0.74836 0.75118 0.98980
 C1102 C 0.76107 0.73755 0.97802
 C1103 C 0.77381 0.72244 0.98768
 C1104 C 0.77485 0.72147 1.00850
 C1105 C 0.76306 0.73545 1.02047
 C1106 C 0.74933 0.75010 1.01106
 C1107 C 0.72270 0.77968 0.99238
 C1108 C 0.72359 0.77857 1.01322
 C1109 C 0.73661 0.76370 1.02285
 C1110 C 0.73731 0.76214 1.04402
 C1111 C 0.75151 0.74821 1.05307
 C1112 C 0.76461 0.73516 1.04163
 H1113 H 0.78317 0.71123 0.97922
 H1114 H 0.78502 0.70964 1.01516
 H1115 H 0.71249 0.79149 0.98575
 H1116 H 0.71401 0.78955 1.02172
 H1117 H 0.74603 0.75441 0.93155
 H1118 H 0.75239 0.74754 1.06931
 C1119 C 0.73459 0.26867 0.54141
 C1120 C 0.74753 0.25495 0.55227
 C1121 C 0.76105 0.24076 0.54264
 C1122 C 0.76095 0.23932 0.52149
 C1123 C 0.74840 0.25362 0.51024
 C1124 C 0.73562 0.26876 0.52022
 C1125 C 0.72430 0.28364 0.50881
 C1126 C 0.72507 0.28332 0.48796
 C1127 C 0.73690 0.26787 0.47774
 C1128 C 0.74875 0.25290 0.48896
 C1129 C 0.77315 0.22416 0.51130
 C1130 C 0.77275 0.22279 0.49046
 C1131 C 0.76091 0.23720 0.47897
 C1132 C 0.76072 0.23629 0.45776
 C1133 C 0.74926 0.25143 0.44697
 C1134 C 0.73747 0.26716 0.45658
 H1135 H 0.71485 0.29579 0.51594
 H1136 H 0.71624 0.29531 0.47993
 H1137 H 0.78290 0.21298 0.51937
 H1138 H 0.78196 0.21038 0.48346
 H1139 H 0.74722 0.25544 0.56854
 H1140 H 0.74941 0.25089 0.43070
 C1141 C 0.76843 0.25472 0.04021
 C1142 C 0.75331 0.24354 0.05081
 C1143 C 0.73874 0.23108 0.04103
 C1144 C 0.73880 0.23008 0.01985
 C1145 C 0.75316 0.24234 0.00877
 C1146 C 0.76830 0.25441 0.01894
 C1147 C 0.78307 0.26543 0.00757
 C1148 C 0.78231 0.26556 -0.01334
 C1149 C 0.76684 0.25454 -0.02369
 C1150 C 0.75247 0.24236 -0.01253
 C1151 C 0.72498 0.21701 0.00949
 C1152 C 0.72436 0.21695 -0.01134
 C1153 C 0.73750 0.23003 -0.02262
 C1154 C 0.73620 0.23091 -0.04377
 C1155 C 0.75002 0.24348 -0.05452
 C1156 C 0.76558 0.25492 -0.04491
 H1157 H 0.79539 0.27408 0.01471
 H1158 H 0.79404 0.27433 -0.02131
 H1159 H 0.71438 0.20676 0.01740
 H1160 H 0.71334 0.20663 -0.01851
 H1161 H 0.75306 0.24431 0.06707
 H1162 H 0.74885 0.24412 -0.07074
 C1163 C 0.75976 0.75594 0.54468
 C1164 C 0.74496 0.74353 0.55440
 C1165 C 0.73170 0.73035 0.54373
 C1166 C 0.73296 0.72962 0.52255
 C1167 C 0.74719 0.74288 0.51238
 C1168 C 0.76077 0.75597 0.52346
 C1169 C 0.77528 0.76832 0.51305
 C1170 C 0.77598 0.76840 0.49216
 C1171 C 0.76235 0.75595 0.48088
 C1172 C 0.74809 0.74273 0.49108
 C1173 C 0.72058 0.71581 0.51134
 C1174 C 0.72164 0.71545 0.49050
 C1175 C 0.73501 0.72903 0.48006
 C1176 C 0.73602 0.72897 0.45888
 C1177 C 0.74945 0.74281 0.44906
 C1178 C 0.76289 0.75594 0.45966
 H1179 H 0.78628 0.77805 0.52095
 H1180 H 0.78745 0.77820 0.48493
 H1181 H 0.70997 0.70505 0.51861
 H1182 H 0.71184 0.70441 0.48265
 H1183 H 0.74402 0.74386 0.57065
 H1184 H 0.74988 0.74291 0.43279
 C1185 C 1.04052 0.23696 0.26805
 C1186 C 1.05181 0.24877 0.25408
 C1187 C 1.04204 0.26229 0.24026
 C1188 C 1.02017 0.26327 0.23958
 C1189 C 1.00850 0.25176 0.25389
 C1190 C 1.01871 0.23917 0.26861
 C1191 C 1.00688 0.22932 0.28361
 C1192 C 0.98541 0.23054 0.28337
 C1193 C 0.97491 0.24172 0.26814
 C1194 C 0.98655 0.25296 0.25358
 C1195 C 1.00970 0.27561 0.22512
 C1196 C 0.98823 0.27706 0.22499
 C1197 C 0.97633 0.26565 0.23890
 C1198 C 0.95448 0.26674 0.23874
 C1199 C 0.94328 0.25446 0.25240
 C1200 C 0.95307 0.24237 0.26734
 H1201 H 1.01412 0.22054 0.29573
 H1202 H 0.97714 0.22265 0.29531
 H1203 H 1.01804 0.28436 0.21377
 H1204 H 0.98108 0.28717 0.21379
 H1205 H 1.06855 0.24758 0.25409
 H1206 H 0.92653 0.25480 0.25174
 C1207 C 0.54184 0.23654 0.76534
 C1208 C 0.55378 0.24891 0.75237
 C1209 C 0.54464 0.26253 0.73829
 C1210 C 0.52289 0.26313 0.73633
 C1211 C 0.51054 0.25098 0.74958
 C1212 C 0.52002 0.23821 0.76460
 C1213 C 0.50746 0.22762 0.77855
 C1214 C 0.48600 0.22876 0.77722
 C1215 C 0.47629 0.24022 0.76167
 C1216 C 0.48868 0.25165 0.74785
 C1217 C 0.51319 0.27573 0.72160
 C1218 C 0.49179 0.27648 0.71996
 C1219 C 0.47925 0.26413 0.73256
 C1220 C 0.45749 0.26410 0.73045
 C1221 C 0.44557 0.25231 0.74385
 C1222 C 0.45452 0.24102 0.75978
 H1223 H 0.51414 0.21841 0.79069
 H1224 H 0.47713 0.22046 0.78848
 H1225 H 0.52206 0.28515 0.71115
 H1226 H 0.48523 0.28681 0.70860
 H1227 H 0.57050 0.24801 0.75334
 H1228 H 0.42888 0.25253 0.74228
 C1229 C -0.04788 0.24458 0.72945
 C1230 C -0.05790 0.25676 0.74415
 C1231 C -0.04689 0.26904 0.75790
 C1232 C -0.02502 0.26799 0.75794
 C1233 C -0.01460 0.25542 0.74330
 C1234 C -0.02605 0.24413 0.72870
 C1235 C -0.01540 0.23294 0.71358
 C1236 C 0.00608 0.23197 0.71333
 C1237 C 0.01771 0.24188 0.72836
 C1238 C 0.00733 0.25417 0.74322
 C1239 C -0.01327 0.27926 0.77203
 C1240 C 0.00821 0.27746 0.77235
 C1241 C 0.01882 0.26499 0.75810
 C1242 C 0.04060 0.26283 0.75839
 C1243 C 0.05054 0.25047 0.74377
 C1244 C 0.03948 0.23982 0.72896
 H1245 H -0.02357 0.22485 0.70173
 H1246 H 0.01349 0.22316 0.70132
 H1247 H -0.02056 0.28939 0.78314
 H1248 H 0.01643 0.28599 0.78388
 H1249 H -0.07466 0.25700 0.74466
 H1250 H 0.06725 0.24880 0.74415
 C1251 C 0.45516 0.23869 0.23780
 C1252 C 0.44513 0.25018 0.25299
 C1253 C 0.45622 0.26114 0.26757
 C1254 C 0.47804 0.26000 0.26758
 C1255 C 0.48846 0.24857 0.25218
 C1256 C 0.47700 0.23789 0.23720
 C1257 C 0.48767 0.22714 0.22180
 C1258 C 0.50918 0.22657 0.22132
 C1259 C 0.52084 0.23672 0.23622
 C1260 C 0.51038 0.24820 0.25155
 C1261 C 0.48968 0.27019 0.28244
 C1262 C 0.51116 0.27000 0.28170
 C1263 C 0.52180 0.25955 0.26610
 C1264 C 0.54359 0.26027 0.26457
 C1265 C 0.55371 0.24798 0.25001
 C1266 C 0.54271 0.23584 0.23615
 H1267 H 0.47947 0.21917 0.20989
 H1268 H 0.51661 0.21820 0.20905
 H1269 H 0.48224 0.27858 0.29471
 H1270 H 0.51938 0.27820 0.29346
 H1271 H 0.42837 0.25107 0.25313
 H1272 H 0.57046 0.24797 0.24937
 C1273 C 0.95416 0.75685 0.73133
 C1274 C 0.94386 0.74386 0.74505
 C1275 C 0.95444 0.73318 0.76042
 C1276 C 0.97606 0.73571 0.76236
 C1277 C 0.98686 0.74820 0.74812
 C1278 C 0.97588 0.75904 0.73272
 C1279 C 0.98690 0.77193 0.71926
 C1280 C 1.00831 0.77323 0.72020
 C1281 C 1.01951 0.76260 0.73529
 C1282 C 1.00868 0.75004 0.74944
 C1283 C 0.98713 0.72632 0.77828
 C1284 C 1.00852 0.72788 0.77940
 C1285 C 1.01965 0.73913 0.76479
 C1286 C 1.04149 0.73971 0.76509
 C1287 C 1.05192 0.75249 0.75128
 C1288 C 1.04128 0.76422 0.73666
 H1289 H 0.97915 0.78102 0.70768
 H1290 H 1.01596 0.78277 0.70896
 H1291 H 0.97937 0.71750 0.78997
 H1292 H 1.01629 0.72010 0.79181
 H1293 H 0.92724 0.74217 0.74385
 H1294 H 1.06865 0.75316 0.75181
 C1295 C 0.54208 0.73858 0.26695
 C1296 C 0.55323 0.75111 0.25348
 C1297 C 0.54333 0.76494 0.24005
 C1298 C 0.52148 0.76631 0.23993
 C1299 C 0.50992 0.75321 0.25305
 C1300 C 0.52022 0.73989 0.26711
 C1301 C 0.50839 0.72832 0.28098
 C1302 C 0.48690 0.72848 0.27999
 C1303 C 0.47643 0.74017 0.26506
 C1304 C 0.48800 0.75329 0.25197
 C1305 C 0.51091 0.78048 0.22714
 C1306 C 0.48944 0.78057 0.22610
 C1307 C 0.47772 0.76643 0.23774
 C1308 C 0.45600 0.76516 0.23564
 C1309 C 0.44486 0.75166 0.24827
 C1310 C 0.45468 0.73924 0.26295
 H1311 H 0.51567 0.71881 0.29259
 H1312 H 0.47859 0.71911 0.29091
 H1313 H 0.51916 0.79148 0.21763
 H1314 H 0.48212 0.79170 0.21587
 H1315 H 0.56997 0.74993 0.25331
 H1316 H 0.42822 0.75074 0.24660
 C1317 C 0.04135 0.76984 0.26328
 C1318 C 0.05119 0.75894 0.24767
 C1319 C 0.04003 0.74733 0.23354
 C1320 C 0.01827 0.74617 0.23524
 C1321 C 0.00809 0.75662 0.25140
 C1322 C 0.01966 0.76860 0.26540
 C1323 C 0.00925 0.77914 0.28106
 C1324 C -0.01211 0.77817 0.28285
 C1325 C -0.02386 0.76587 0.26957
 C1326 C -0.01370 0.75520 0.25352
 C1327 C 0.00640 0.73518 0.22108
 C1328 C -0.01500 0.73398 0.22302
 C1329 C -0.02533 0.74360 0.23928
 C1330 C -0.04705 0.74245 0.24144
 C1331 C -0.05671 0.75233 0.25782
 C1332 C -0.04556 0.76423 0.27170
 H1333 H 0.01752 0.78840 0.29205
 H1334 H -0.01925 0.78714 0.29488
 H1335 H 0.01354 0.72754 0.20824
 H1336 H -0.02336 0.72547 0.21158
 H1337 H 0.06789 0.75962 0.24641
 H1338 H -0.07336 0.75136 0.25939
 C1339 C 0.45415 0.76218 0.76804
 C1340 C 0.44391 0.74840 0.75507
 C1341 C 0.45480 0.73522 0.74169
 C1342 C 0.47670 0.73608 0.74105
 C1343 C 0.48729 0.74968 0.75445
 C1344 C 0.47600 0.76251 0.76819
 C1345 C 0.48682 0.77536 0.78177
 C1346 C 0.50827 0.77622 0.78138
 C1347 C 0.51976 0.76433 0.76734
 C1348 C 0.50922 0.75059 0.75401
 C1349 C 0.48830 0.72380 0.72734
 C1350 C 0.50981 0.72415 0.72737
 C1351 C 0.52058 0.73754 0.74048
 C1352 C 0.54242 0.73811 0.74060
 C1353 C 0.55249 0.75248 0.75312
 C1354 C 0.54156 0.76558 0.76643
 H1355 H 0.47877 0.78490 0.79288
 H1356 H 0.51577 0.78636 0.79219
 H1357 H 0.48088 0.71362 0.71653
 H1358 H 0.51790 0.71392 0.71686
 H1359 H 0.42715 0.74813 0.75519
 H1360 H 0.56924 0.75308 0.75284
 C1361 C 0.43193 0.26502 0.29616
 C1362 C 0.41886 0.27708 0.30843
 C1363 C 0.41782 0.29928 0.30653
 C1364 C 0.43132 0.30961 0.29293
 C1365 C 0.44420 0.29732 0.28009
 C1366 C 0.44433 0.27483 0.28169
 C1367 C 0.45631 0.30801 0.26579
 N1368 N 0.45627 0.32957 0.26522
 N1369 N 0.44489 0.34115 0.27789
 C1370 C 0.43248 0.33193 0.29174
 H1371 H 0.43188 0.24783 0.29749
 H1372 H 0.40870 0.26890 0.31874
 H1373 H 0.46586 0.29948 0.25510
 H1374 H 0.42391 0.34216 0.30186
 C1375 C 0.43123 0.76784 0.79735
 C1376 C 0.41955 0.78064 0.81020
 C1377 C 0.41755 0.80276 0.80702
 C1378 C 0.42932 0.81210 0.79119
 C1379 C 0.44049 0.79883 0.77764
 C1380 C 0.44151 0.77658 0.78092
 C1381 C 0.45077 0.80835 0.76137
 N1382 N 0.45123 0.82982 0.75974
 N1383 N 0.44223 0.84236 0.77333
 C1384 C 0.43159 0.83429 0.78908
 H1385 H 0.43209 0.75086 0.80015
 H1386 H 0.41118 0.77278 0.82210
 H1387 H 0.45869 0.79893 0.75010
 H1388 H 0.42582 0.84534 0.80017
 C1389 C -0.05948 0.27794 0.79223
 C1390 C -0.07245 0.28905 0.80537
 C1391 C -0.08617 0.30486 0.79835
 C1392 C -0.08685 0.30927 0.77741
 C1393 C -0.07250 0.29909 0.76435
 C1394 C -0.05915 0.28287 0.77175
 C1395 C -0.07223 0.30522 0.74404
 N1396 N -0.08655 0.31922 0.73699
 N1397 N -0.10111 0.32745 0.74888
 C1398 C -0.10188 0.32282 0.76873
 H1399 H -0.04967 0.26530 0.79808
 H1400 H -0.07179 0.28518 0.82119
 H1401 H -0.06075 0.29903 0.73373
 H1402 H -0.11465 0.32927 0.77725
 C1403 C -0.07092 0.79237 0.28037
 C1404 C -0.08230 0.80464 0.29383
 C1405 C -0.08036 0.80168 0.31463
 C1406 C -0.06623 0.78592 0.32183
 C1407 C -0.05554 0.77257 0.30799
 C1408 C -0.05750 0.77631 0.28711
 C1409 C -0.04294 0.75604 0.31552
 N1410 N -0.04013 0.75398 0.33557
 N1411 N -0.04905 0.76733 0.34853
 C1412 C -0.06183 0.78330 0.34236
 H1413 H -0.07268 0.79537 0.26444
 H1414 H -0.09299 0.81636 0.28778
 H1415 H -0.03514 0.74490 0.30564
 H1416 H -0.06792 0.79403 0.35358
 C1417 C 0.56749 0.73361 0.29423
 C1418 C 0.58053 0.72119 0.30611
 C1419 C 0.58040 0.69889 0.30491
 C1420 C 0.56582 0.68902 0.29211
 C1421 C 0.55330 0.70173 0.27921
 C1422 C 0.55409 0.72423 0.28046
 C1423 C 0.54052 0.69140 0.26532
 N1424 N 0.53922 0.66988 0.26546
 N1425 N 0.54992 0.65803 0.27845
 C1426 C 0.56305 0.66684 0.29183
 H1427 H 0.56832 0.75078 0.29532
 H1428 H 0.59140 0.72925 0.31571
 H1429 H 0.53144 0.70019 0.25445
 H1430 H 0.57083 0.65643 0.30235
 C1431 C 0.56590 0.23156 0.79374
 C1432 C 0.57841 0.21911 0.80610
 C1433 C 0.57826 0.19680 0.80490
 C1434 C 0.56414 0.18697 0.79160
 C1435 C 0.55210 0.19971 0.77832
 C1436 C 0.55302 0.22221 0.77950
 C1437 C 0.53972 0.18941 0.76407
 N1438 N 0.53841 0.16789 0.76414
 N1439 N 0.54871 0.15601 0.77740
 C1440 C 0.56143 0.16479 0.79117
 H1441 H 0.56680 0.24873 0.79481
 H1442 H 0.58894 0.22715 0.81606
 H1443 H 0.53097 0.19821 0.75296
 H1444 H 0.56892 0.15435 0.80186
 C1445 C 1.06669 0.73706 0.79296
 C1446 C 1.08035 0.72571 0.80517
 C1447 C 1.08180 0.70345 0.80405
 C1448 C 1.06813 0.69241 0.79118
 C1449 C 1.05491 0.70403 0.77807
 C1450 C 1.05421 0.72657 0.77907
 C1451 C 1.04305 0.69261 0.76416
 N1452 N 1.04332 0.67103 0.76444
 N1453 N 1.05475 0.66013 0.77758
 C1454 C 1.06706 0.67005 0.79098
 H1455 H 1.06634 0.75428 0.79386
 H1456 H 1.09053 0.73452 0.81490
 H1457 H 1.03349 0.70056 0.75312
 H1458 H 1.07559 0.66034 0.80157
 C1459 C 1.06672 0.23229 0.29477
 C1460 C 1.07872 0.22002 0.30776
 C1461 C 1.07635 0.19786 0.30904
 C1462 C 1.06081 0.18814 0.29720
 C1463 C 1.04958 0.20049 0.28295
 C1464 C 1.05227 0.22286 0.28209
 C1465 C 1.03598 0.18997 0.26996
 N1466 N 1.03254 0.16887 0.27231
 N1467 N 1.04185 0.15762 0.28669
 C1468 C 1.05571 0.16653 0.29928
 H1469 H 1.06904 0.24934 0.29430
 H1470 H 1.09038 0.22804 0.31647
 H1471 H 1.02792 0.19831 0.25808
 H1472 H 1.06215 0.15673 0.31106
 C1473 C 0.57151 0.26549 0.71203
 C1474 C 0.58543 0.27696 0.70047
 C1475 C 0.58668 0.29916 0.70215
 C1476 C 0.57285 0.31005 0.71528
 C1477 C 0.55923 0.29825 0.72763
 C1478 C 0.55850 0.27580 0.72579
 C1479 C 0.54677 0.30937 0.74150
 N1480 N 0.54709 0.33093 0.74205
 N1481 N 0.55905 0.34207 0.72973
 C1482 C 0.57183 0.33241 0.71632
 H1483 H 0.57114 0.24833 0.71050
 H1484 H 0.59579 0.26824 0.69060
 H1485 H 0.53670 0.30117 0.75182
 H1486 H 0.58071 0.34235 0.70638
 C1487 C 0.56955 0.79269 0.23454
 C1488 C 0.58332 0.80392 0.22261
 C1489 C 0.58445 0.80044 0.20185
 C1490 C 0.57051 0.78594 0.19290
 C1491 C 0.55709 0.77384 0.20521
 C1492 C 0.55656 0.77742 0.22620
 C1493 C 0.54469 0.75839 0.19606
 N1494 N 0.54478 0.75625 0.17583
 N1495 N 0.55646 0.76845 0.16418
 C1496 C 0.56922 0.78326 0.17198
 H1497 H 0.56936 0.79555 0.25057
 H1498 H 0.59371 0.81489 0.22984
 H1499 H 0.53484 0.74808 0.20475
 H1500 H 0.57785 0.79305 0.16170
 C1501 C 1.06820 0.26447 0.21318
 C1502 C 1.08189 0.27556 0.20103
 C1503 C 1.08303 0.29784 0.20188
 C1504 C 1.06921 0.30913 0.21474
 C1505 C 1.05603 0.29773 0.22787
 C1506 C 1.05539 0.27520 0.22685
 C1507 C 1.04396 0.30933 0.24173
 N1508 N 1.04398 0.33090 0.24136
 N1509 N 1.05530 0.34161 0.22816
 C1510 C 1.06778 0.33150 0.21479
 H1511 H 1.06794 0.24725 0.21226
 H1512 H 1.09219 0.26651 0.19137
 H1513 H 1.03441 0.30150 0.25275
 H1514 H 1.07608 0.34108 0.20408
 C1515 C 1.06788 0.76707 0.71010
 C1516 C 1.08087 0.77857 0.69757
 C1517 C 1.07987 0.80088 0.69693
 C1518 C 1.06452 0.81163 0.70851
 C1519 C 1.05212 0.79997 0.72214
 C1520 C 1.05371 0.77746 0.72272
 C1521 C 1.03855 0.81132 0.73484
 N1522 N 1.03643 0.83270 0.73286
 N1523 N 1.04701 0.84348 0.71913
 C1524 C 1.06086 0.83369 0.70683
 H1525 H 1.06930 0.74987 0.71037
 H1526 H 1.09236 0.76990 0.68891
 H1527 H 1.02949 0.80339 0.74619
 H1528 H 1.06850 0.84321 0.69561
 C1529 C 0.42943 0.73174 0.71419
 C1530 C 0.41710 0.72005 0.70127
 C1531 C 0.41771 0.69771 0.70131
 C1532 C 0.43180 0.68708 0.71440
 C1533 C 0.44347 0.69903 0.72840
 C1534 C 0.44254 0.72158 0.72796
 C1535 C 0.45576 0.68792 0.74239
 N1536 N 0.45747 0.66643 0.74139
 N1537 N 0.44765 0.65533 0.72742
 C1538 C 0.43502 0.66490 0.71383
 H1539 H 0.42846 0.74897 0.71369
 H1540 H 0.40653 0.72867 0.69155
 H1541 H 0.46419 0.69613 0.75398
 H1542 H 0.42806 0.65508 0.70249
 C1543 C 0.44036 0.20580 0.22366
 C1544 C 0.42631 0.19518 0.21159
 C1545 C 0.41336 0.20636 0.19830
 C1546 C 0.41484 0.22889 0.19707
 C1547 C 0.42956 0.23961 0.20905
 C1548 C 0.44203 0.22795 0.22273
 C1549 C 0.43110 0.26184 0.20722
 N1550 N 0.41817 0.27266 0.19479
 N1551 N 0.40378 0.26276 0.18417
 C1552 C 0.40157 0.24133 0.18498
 H1553 H 0.44967 0.19673 0.23420
 H1554 H 0.42533 0.17802 0.21285
 H1555 H 0.44244 0.27071 0.21555
 H1556 H 0.38922 0.23446 0.17642
 C1557 C -0.06020 0.70959 0.22543
 C1558 C -0.07421 0.69886 0.21335
 C1559 C -0.08936 0.70998 0.20239
 C1560 C -0.09039 0.73257 0.20381
 C1561 C -0.07546 0.74348 0.21534
 C1562 C -0.06059 0.73183 0.22658
 C1563 C -0.07611 0.76589 0.21557
 N1564 N -0.09145 0.77653 0.20589
 N1565 N -0.10620 0.76628 0.19609
 C1566 C -0.10632 0.74475 0.19486
 H1567 H -0.04911 0.70047 0.23417
 H1568 H -0.07327 0.68165 0.21266
 H1569 H -0.06459 0.77504 0.22338
 H1570 H -0.11919 0.73753 0.18735
 C1571 C -0.06043 0.20979 0.71717
 C1572 C -0.07370 0.19731 0.70586
 C1573 C -0.08822 0.20663 0.69284
 C1574 C -0.08941 0.22921 0.69141
 C1575 C -0.07518 0.24182 0.70223
 C1576 C -0.06093 0.23201 0.71554
 C1577 C -0.07581 0.26402 0.69953
 N1578 N -0.09060 0.27306 0.68783
 N1579 N -0.10478 0.26138 0.67868
 C1580 C -0.10480 0.23985 0.68018
 H1581 H -0.04979 0.20206 0.72747
 H1582 H -0.07264 0.18016 0.70735
 H1583 H -0.06466 0.27425 0.70656
 H1584 H -0.11717 0.23148 0.67296
 C1585 C 0.26853 0.43330 0.28840
 C1586 C 0.27981 0.42050 0.30153
 C1587 C 0.30148 0.42008 0.30102
 C1588 C 0.31191 0.43392 0.28759
 C1589 C 0.30037 0.44624 0.27359
 C1590 C 0.27850 0.44592 0.27413
 C1591 C 0.31116 0.45845 0.25941
 N1592 N 0.33207 0.45927 0.26009
 N1593 N 0.34286 0.44867 0.27393
 C1594 C 0.33352 0.43614 0.28775
 H1595 H 0.25181 0.43290 0.28897
 H1596 H 0.27140 0.41016 0.31157
 H1597 H 0.30318 0.46748 0.24792
 H1598 H 0.34307 0.42844 0.29893
 C1599 C 0.29296 -0.06056 0.77955
 C1600 C 0.30362 -0.07576 0.79083
 C1601 C 0.29314 -0.09127 0.80213
 C1602 C 0.27106 -0.09150 0.80116
 C1603 C 0.26031 -0.07489 0.79094
 C1604 C 0.27139 -0.05976 0.77953
 C1605 C 0.23856 -0.07440 0.79178
 N1606 N 0.22825 -0.09068 0.80037
 N1607 N 0.23823 -0.10743 0.80802
 C1608 C 0.25917 -0.10857 0.80841
 H1609 H 0.30166 -0.04941 0.77055
 H1610 H 0.32032 -0.07495 0.79088
 H1611 H 0.22967 -0.06137 0.78542
 H1612 H 0.26609 -0.12331 0.81341
 C1613 C 0.77446 0.43603 0.79694
 C1614 C 0.78580 0.42469 0.81118
 C1615 C 0.80758 0.42522 0.81151
 C1616 C 0.81759 0.43976 0.79823
 C1617 C 0.80604 0.45017 0.78286
 C1618 C 0.78428 0.44828 0.78232
 C1619 C 0.81671 0.46243 0.76863
 N1620 N 0.83720 0.46586 0.77087
 N1621 N 0.84766 0.45788 0.78637
 C1622 C 0.83853 0.44524 0.80023
 H1623 H 0.75779 0.43462 0.79687
 H1624 H 0.77721 0.41448 0.82114
 H1625 H 0.80887 0.46966 0.75598
 H1626 H 0.84758 0.44035 0.81305
 C1627 C 0.77446 -0.06873 0.29426
 C1628 C 0.78540 -0.08024 0.30867
 C1629 C 0.80718 -0.08015 0.30930
 C1630 C 0.81770 -0.06628 0.29574
 C1631 C 0.80654 -0.05594 0.28008
 C1632 C 0.78470 -0.05688 0.27964
 C1633 C 0.81764 -0.04452 0.26553
 N1634 N 0.83820 -0.04161 0.26780
 N1635 N 0.84832 -0.04931 0.28364
 C1636 C 0.83875 -0.06120 0.29779
 H1637 H 0.75773 -0.06949 0.29423
 H1638 H 0.77647 -0.09004 0.31872
 H1639 H 0.81008 -0.03750 0.25262
 H1640 H 0.84753 -0.06569 0.31090
 C1641 C 0.28665 0.57086 0.73050
 C1642 C 0.29878 0.58373 0.71841
 C1643 C 0.29745 0.58286 0.69740
 C1644 C 0.28357 0.56820 0.68854
 C1645 C 0.27024 0.55609 0.70098
 C1646 C 0.27231 0.55701 0.72212
 C1647 C 0.25537 0.54320 0.69179
 N1648 N 0.25497 0.54133 0.67155
 N1649 N 0.26842 0.55148 0.65993
 C1650 C 0.28278 0.56466 0.66772
 H1651 H 0.28833 0.57186 0.74664
 H1652 H 0.30905 0.59477 0.72571
 H1653 H 0.24421 0.53444 0.70052
 H1654 H 0.29371 0.57172 0.65753
 C1655 C 0.29087 1.06096 0.22216
 C1656 C 0.30190 1.07591 0.21117
 C1657 C 0.29170 1.09116 0.19926
 C1658 C 0.26971 1.09117 0.19847
 C1659 C 0.25868 1.07490 0.20844
 C1660 C 0.26930 1.06024 0.22099
 C1661 C 0.23714 1.07404 0.20586
 N1662 N 0.22714 1.08956 0.19547
 N1663 N 0.23727 1.10586 0.18754
 C1664 C 0.25811 1.10732 0.18885
 H1665 H 0.29921 1.05006 0.23190
 H1666 H 0.31861 1.07567 0.21217
 H1667 H 0.22822 1.06112 0.21196
 H1668 H 0.26515 1.12144 0.18288
 C1669 C 0.79491 0.55867 0.21791
 C1670 C 0.80626 0.57318 0.20673
 C1671 C 0.79645 0.58752 0.19363
 C1672 C 0.77459 0.58700 0.19162
 C1673 C 0.76312 0.57189 0.20276
 C1674 C 0.77339 0.55799 0.21628
 C1675 C 0.74155 0.57141 0.20027
 N1676 N 0.73208 0.58564 0.18796
 N1677 N 0.74271 0.60034 0.17806
 C1678 C 0.76356 0.60161 0.17956
 H1679 H 0.80293 0.54829 0.22839
 H1680 H 0.82289 0.57342 0.20856
 H1681 H 0.73215 0.55986 0.20801
 H1682 H 0.77111 0.61425 0.17155
 C1683 C 0.79249 1.06923 0.73069
 C1684 C 0.80363 1.08267 0.71822
 C1685 C 0.79894 1.08445 0.69775
 C1686 C 0.78307 1.07160 0.68961
 C1687 C 0.77123 1.05849 0.70252
 C1688 C 0.77617 1.05724 0.72318
 C1689 C 0.75479 1.04699 0.69428
 N1690 N 0.75122 1.04771 0.67426
 N1691 N 0.76296 1.05915 0.66198
 C1692 C 0.77880 1.07099 0.66893
 H1693 H 0.79640 1.06845 0.74648
 H1694 H 0.81563 1.09227 0.72484
 H1695 H 0.74485 1.03732 0.70353
 H1696 H 0.78811 1.07940 0.65813
 C1697 C 0.70753 0.55679 0.27516
 C1698 C 0.69590 0.57038 0.28733
 C1699 C 0.70547 0.58412 0.30093
 C1700 C 0.72740 0.58394 0.30235
 C1701 C 0.73917 0.56967 0.29027
 C1702 C 0.72911 0.55636 0.27631
 C1703 C 0.76080 0.56941 0.29229
 N1704 N 0.77003 0.58314 0.30500
 N1705 N 0.75910 0.59715 0.31573
 C1706 C 0.73818 0.59814 0.31474
 H1707 H 0.69965 0.54688 0.26438
 H1708 H 0.67923 0.57038 0.28591
 H1709 H 0.77045 0.55842 0.28388
 H1710 H 0.73038 0.61028 0.32340
 C1711 C 0.70813 1.05996 0.77656
 C1712 C 0.69659 1.07451 0.78777
 C1713 C 0.70538 1.08584 0.80381
 C1714 C 0.72686 1.08248 0.80803
 C1715 C 0.73832 1.06703 0.79692
 C1716 C 0.72891 1.05609 0.78090
 C1717 C 0.75927 1.06355 0.80161
 N1718 N 0.76852 1.07567 0.81568
 N1719 N 0.75830 1.09119 0.82511
 C1720 C 0.73800 1.09523 0.82157
 H1721 H 0.70087 1.05194 0.76408
 H1722 H 0.68042 1.07652 0.78397
 H1723 H 0.76842 1.05146 0.79405
 H1724 H 0.73129 1.10903 0.82870
 C1725 C 0.23043 0.56740 0.79217
 C1726 C 0.21852 0.58070 0.80437
 C1727 C 0.19707 0.58242 0.80175
 C1728 C 0.18735 0.56946 0.78719
 C1729 C 0.19955 0.55625 0.77450
 C1730 C 0.22126 0.55539 0.77700
 C1731 C 0.18958 0.54442 0.75954
 N1732 N 0.16870 0.54516 0.75802
 N1733 N 0.15716 0.55694 0.77041
 C1734 C 0.16574 0.56903 0.78495
 H1735 H 0.24703 0.56688 0.79422
 H1736 H 0.22629 0.59043 0.81537
 H1737 H 0.19816 0.53452 0.74912
 H1738 H 0.15554 0.57788 0.79481
 C1739 C 0.22284 1.05823 0.29675
 C1740 C 0.21131 1.07225 0.30867
 C1741 C 0.19632 1.08593 0.30024
 C1742 C 0.19296 1.08520 0.27914
 C1743 C 0.20331 1.06951 0.26746
 C1744 C 0.21902 1.05661 0.27616
 C1745 C 0.19801 1.06758 0.24709
 N1746 N 0.18480 1.08180 0.23857
 N1747 N 0.17659 1.09779 0.24907
 C1748 C 0.18039 1.10013 0.26894
 H1749 H 0.23504 1.04879 0.30360
 H1750 H 0.21436 1.07255 0.32463
 H1751 H 0.20427 1.05488 0.23792
 H1752 H 0.17410 1.11406 0.27623
 C1753 C 0.71568 0.43424 0.72902
 C1754 C 0.70488 0.41910 0.71820
 C1755 C 0.71486 0.40631 0.70385
 C1756 C 0.73641 0.40875 0.70058
 C1757 C 0.74730 0.42456 0.71131
 C1758 C 0.73680 0.43725 0.72570
 C1759 C 0.76848 0.42709 0.70737
 N1760 N 0.77823 0.41406 0.69411
 N1761 N 0.76823 0.39867 0.68461
 C1762 C 0.74774 0.39549 0.68746
 H1763 H 0.70752 0.44369 0.74015
 H1764 H 0.68848 0.41744 0.72102
 H1765 H 0.77739 0.43928 0.71470
 H1766 H 0.74071 0.38238 0.67970
 C1767 C 0.71411 -0.06277 0.22550
 C1768 C 0.70208 -0.07677 0.21449
 C1769 C 0.71117 -0.09153 0.20129
 C1770 C 0.73308 -0.09231 0.19949
 C1771 C 0.74524 -0.07736 0.21006
 C1772 C 0.73563 -0.06269 0.22335
 C1773 C 0.76678 -0.07770 0.20710
 N1774 N 0.77560 -0.09281 0.19528
 N1775 N 0.76435 -0.10760 0.18629
 C1776 C 0.74349 -0.10798 0.18810
 H1777 H 0.70657 -0.05186 0.23582
 H1778 H 0.68545 -0.07597 0.21626
 H1779 H 0.77669 -0.06613 0.21409
 H1780 H 0.73544 -0.12086 0.18100
 C1781 C 0.20799 0.43920 0.22177
 C1782 C 0.19685 0.42420 0.21107
 C1783 C 0.20655 0.41107 0.19679
 C1784 C 0.22807 0.41333 0.19316
 C1785 C 0.23925 0.42910 0.20368
 C1786 C 0.22915 0.44177 0.21836
 C1787 C 0.26039 0.43146 0.19941
 N1788 N 0.26986 0.41826 0.18612
 N1789 N 0.25963 0.40285 0.17690
 C1790 C 0.23916 0.39983 0.18005
 H1791 H 0.20014 0.44859 0.23315
 H1792 H 0.18049 0.42267 0.21415
 H1793 H 0.26948 0.44365 0.20653
 H1794 H 0.23201 0.38664 0.17255
 C1795 C 0.23176 -0.06837 0.70733
 C1796 C 0.21884 -0.08047 0.69532
 C1797 C 0.19735 -0.07997 0.69814
 C1798 C 0.18869 -0.06612 0.71280
 C1799 C 0.20189 -0.05429 0.72541
 C1800 C 0.22358 -0.05545 0.72253
 C1801 C 0.19289 -0.04178 0.74068
 N1802 N 0.17204 -0.04040 0.74239
 N1803 N 0.15962 -0.05072 0.72994
 C1804 C 0.16720 -0.06344 0.71518
 H1805 H 0.24832 -0.06941 0.70505
 H1806 H 0.22577 -0.09094 0.68423
 H1807 H 0.20218 -0.03303 0.75123
 H1808 H 0.15633 -0.07100 0.70529
 C1809 C 0.29316 0.26912 0.43357
 C1810 C 0.30503 0.28201 0.42120
 C1811 C 0.30201 0.30416 0.42085
 C1812 C 0.28728 0.31350 0.43410
 C1813 C 0.27477 0.30028 0.44629
 C1814 C 0.27782 0.27792 0.44596
 C1815 C 0.25948 0.30992 0.45835
 N1816 N 0.25759 0.33142 0.45888
 N1817 N 0.26992 0.34388 0.44814
 C1818 C 0.28472 0.33569 0.43586
 H1819 H 0.29563 0.25204 0.43317
 H1820 H 0.31613 0.27446 0.41124
 H1821 H 0.24909 0.30060 0.46744
 H1822 H 0.29456 0.34664 0.42792
 C1823 C 0.27889 0.78931 -0.05374
 C1824 C 0.29030 0.80126 -0.06735
 C1825 C 0.30437 0.79149 -0.08059
 C1826 C 0.30708 0.76899 -0.07984
 C1827 C 0.29602 0.75698 -0.06539
 C1828 C 0.28145 0.76721 -0.05266
 C1829 C 0.29956 0.73487 -0.06439
 N1830 N 0.31253 0.72532 -0.07766
 N1831 N 0.32208 0.73637 -0.09190
 C1832 C 0.31968 0.75777 -0.09356
 H1833 H 0.26760 0.79731 -0.04430
 H1834 H 0.28784 0.81835 -0.06776
 H1835 H 0.29211 0.72510 -0.05319
 H1836 H 0.32730 0.76552 -0.10590
 C1837 C 0.77900 0.28950 -0.05722
 C1838 C 0.79022 0.30173 -0.07078
 C1839 C 0.80235 0.29214 -0.08581
 C1840 C 0.80298 0.26954 -0.08714
 C1841 C 0.79241 0.25713 -0.07265
 C1842 C 0.77993 0.26723 -0.05788
 C1843 C 0.79437 0.23482 -0.07359
 N1844 N 0.80508 0.22558 -0.08880
 N1845 N 0.81389 0.23714 -0.10313
 C1846 C 0.81306 0.25871 -0.10294
 H1847 H 0.76925 0.29747 -0.04627
 H1848 H 0.78934 0.31891 -0.06955
 H1849 H 0.78745 0.22463 -0.06241
 H1850 H 0.81983 0.26700 -0.11545
 C1851 C 0.77438 0.79111 0.44692
 C1852 C 0.78584 0.80367 0.43382
 C1853 C 0.80035 0.79451 0.42065
 C1854 C 0.80318 0.77201 0.42070
 C1855 C 0.79239 0.75944 0.43488
 C1856 C 0.77745 0.76902 0.44766
 C1857 C 0.79665 0.73745 0.43561
 N1858 N 0.80968 0.72846 0.42205
 N1859 N 0.81869 0.73998 0.40782
 C1860 C 0.81576 0.76135 0.40656
 H1861 H 0.76279 0.79862 0.45638
 H1862 H 0.78329 0.82075 0.43392
 H1863 H 0.78978 0.72736 0.44688
 H1864 H 0.82289 0.76953 0.39417
 C1865 C 0.72876 0.29823 0.56529
 C1866 C 0.71632 0.31023 0.57814
 C1867 C 0.69490 0.30710 0.57901
 C1868 C 0.68577 0.29245 0.56555
 C1869 C 0.69854 0.27972 0.55292
 C1870 C 0.72023 0.28262 0.55296
 C1871 C 0.68912 0.26421 0.54091
 N1872 N 0.66826 0.26249 0.54077
 N1873 N 0.65622 0.27513 0.55188
 C1874 C 0.66423 0.29007 0.56419
 H1875 H 0.74532 0.30059 0.56548
 H1876 H 0.72371 0.32128 0.58821
 H1877 H 0.69810 0.25350 0.53158
 H1878 H 0.65366 0.30015 0.57253
 C1879 C 0.73204 0.79078 1.06902
 C1880 C 0.71993 0.80240 1.08247
 C1881 C 0.69878 0.79835 1.08464
 C1882 C 0.68951 0.78280 1.07222
 C1883 C 0.70197 0.77063 1.05884
 C1884 C 0.72339 0.77474 1.05729
 C1885 C 0.69253 0.75457 1.04751
 N1886 N 0.67185 0.75166 1.04884
 N1887 N 0.66001 0.76367 1.06075
 C1888 C 0.66809 0.77916 1.07240
 H1889 H 0.74841 0.79407 1.06798
 H1890 H 0.72735 0.81418 1.09178
 H1891 H 0.70135 0.74438 1.03754
 H1892 H 0.65761 0.78868 1.08138
 C1893 C 0.22853 0.29595 1.06642
 C1894 C 0.21509 0.30706 1.07905
 C1895 C 0.19403 0.30204 1.08000
 C1896 C 0.18630 0.28600 1.06714
 C1897 C 0.20014 0.27421 1.05474
 C1898 C 0.22141 0.27936 1.05439
 C1899 C 0.19219 0.25745 1.04323
 N1900 N 0.17162 0.25362 1.04330
 N1901 N 0.15850 0.26535 1.05416
 C1902 C 0.16510 0.28143 1.06599
 H1903 H 0.24476 0.30002 1.06634
 H1904 H 0.22144 0.31917 1.08872
 H1905 H 0.20208 0.24739 1.03412
 H1906 H 0.15365 0.29067 1.07407
 C1907 C 0.20694 0.78060 0.55893
 C1908 C 0.19450 0.79143 0.57268
 C1909 C 0.20297 0.80600 0.58619
 C1910 C 0.22461 0.80971 0.58573
 C1911 C 0.23710 0.79928 0.57114
 C1912 C 0.22822 0.78426 0.55801
 C1913 C 0.25830 0.80394 0.57038
 N1914 N 0.26660 0.81729 0.58404
 N1915 N 0.25514 0.82619 0.59842
 C1916 C 0.23455 0.82274 0.59985
 H1917 H 0.19999 0.76892 0.54917
 H1918 H 0.17809 0.78821 0.57292
 H1919 H 0.26836 0.79707 0.55907
 H1920 H 0.22641 0.82986 0.61231
 C1921 C 0.27154 0.71233 0.56828
 C1922 C 0.28354 0.69979 0.58103
 C1923 C 0.30517 0.70125 0.58111
 C1924 C 0.31483 0.71508 0.56714
 C1925 C 0.30250 0.72852 0.55471
 C1926 C 0.28066 0.72701 0.55531
 C1927 C 0.31250 0.74322 0.54219
 N1928 N 0.33342 0.74344 0.54127
 N1929 N 0.34498 0.73004 0.55208
 C1930 C 0.33643 0.71583 0.56488
 H1931 H 0.25487 0.71104 0.56898
 H1932 H 0.27566 0.68944 0.59147
 H1933 H 0.30392 0.75443 0.53303
 H1934 H 0.34661 0.70501 0.57280
 C1935 C 0.27946 0.20801 1.05528
 C1936 C 0.29169 0.19624 1.06848
 C1937 C 0.30575 0.20620 1.08133
 C1938 C 0.30776 0.22871 1.08041
 C1939 C 0.29595 0.24054 1.06622
 C1940 C 0.28129 0.23012 1.05403
 C1941 C 0.29881 0.26267 1.06499
 N1942 N 0.31180 0.27242 1.07786
 N1943 N 0.32202 0.26155 1.09191
 C1944 C 0.32031 0.24015 1.09376
 H1945 H 0.26810 0.19985 1.04628
 H1946 H 0.28971 0.17914 1.06907
 H1947 H 0.29080 0.27231 1.05395
 H1948 H 0.32845 0.23258 1.10594
 C1949 C 0.77270 0.70507 1.06442
 C1950 C 0.78620 0.69301 1.07619
 C1951 C 0.80746 0.69718 1.07636
 C1952 C 0.81531 0.71312 1.06339
 C1953 C 0.80147 0.72579 1.05181
 C1954 C 0.77998 0.72171 1.05247
 C1955 C 0.80965 0.74237 1.04014
 N1956 N 0.83036 0.74527 1.03937
 N1957 N 0.84341 0.73279 1.04953
 C1958 C 0.83663 0.71680 1.06143
 H1959 H 0.75631 0.70178 1.06506
 H1960 H 0.77979 0.68098 1.08596
 H1961 H 0.79982 0.75301 1.03157
 H1962 H 0.84799 0.70695 1.06898
 C1963 C 0.77169 0.20699 0.55915
 C1964 C 0.78355 0.19553 0.57293
 C1965 C 0.79952 0.20527 0.58364
 C1966 C 0.80363 0.22716 0.58023
 C1967 C 0.79197 0.23858 0.56567
 C1968 C 0.77564 0.22847 0.55543
 C1969 C 0.79673 0.26006 0.56210
 N1970 N 0.81158 0.26965 0.57304
 N1971 N 0.82187 0.25926 0.58736
 C1972 C 0.81831 0.23847 0.59144
 H1973 H 0.75906 0.19918 0.55160
 H1974 H 0.78004 0.17892 0.57547
 H1975 H 0.78877 0.26932 0.55075
 H1976 H 0.82673 0.23130 0.60368
 C1977 C 0.70241 0.71821 0.44439
 C1978 C 0.69071 0.70691 0.43059
 C1979 C 0.69996 0.69190 0.41773
 C1980 C 0.72165 0.68813 0.41905
 C1981 C 0.73328 0.69879 0.43393
 C1982 C 0.72367 0.71444 0.44618
 C1983 C 0.75442 0.69377 0.43583
 N1984 N 0.76359 0.68012 0.42277
 N1985 N 0.75303 0.67121 0.40793
 C1986 C 0.73250 0.67487 0.40551
 H1987 H 0.69490 0.73032 0.45348
 H1988 H 0.67427 0.71022 0.42970
 H1989 H 0.76371 0.70055 0.44761
 H1990 H 0.72517 0.66779 0.39270
 C1991 C 0.72839 0.20190 -0.06744
 C1992 C 0.71501 0.19001 -0.07914
 C1993 C 0.69366 0.19417 -0.07902
 C1994 C 0.68566 0.21025 -0.06610
 C1995 C 0.69941 0.22287 -0.05472
 C1996 C 0.72092 0.21847 -0.05535
 C1997 C 0.69112 0.23956 -0.04307
 N1998 N 0.67037 0.24261 -0.04208
 N1999 N 0.65740 0.23014 -0.05198
 C2000 C 0.66430 0.21404 -0.06385
 H2001 H 0.74481 0.19838 -0.06808
 H2002 H 0.72157 0.17792 -0.08889
 H2003 H 0.70092 0.25013 -0.03466
 H2004 H 0.65299 0.20415 -0.07107
 C2005 C 0.23079 0.70184 -0.06443
 C2006 C 0.21778 0.69078 -0.07720
 C2007 C 0.19644 0.69506 -0.07759
 C2008 C 0.18805 0.71019 -0.06389
 C2009 C 0.20147 0.72210 -0.05147
 C2010 C 0.22301 0.71775 -0.05174
 C2011 C 0.19282 0.73815 -0.03927
 N2012 N 0.17205 0.74110 -0.03866
 N2013 N 0.15938 0.72915 -0.04946
 C2014 C 0.16664 0.71376 -0.06195
 H2015 H 0.24723 0.69837 -0.06483
 H2016 H 0.22468 0.67936 -0.08744
 H2017 H 0.20234 0.74830 -0.03014
 H2018 H 0.15555 0.70424 -0.06989
 C2019 C 0.23196 0.20872 0.43150
 C2020 C 0.21926 0.19680 0.41912
 C2021 C 0.19768 0.19904 0.41998
 C2022 C 0.18879 0.21322 0.43428
 C2023 C 0.20180 0.22605 0.44628
 C2024 C 0.22356 0.22348 0.44502
 C2025 C 0.19255 0.24108 0.45920
 N2026 N 0.17169 0.24217 0.46090
 N2027 N 0.15950 0.22930 0.45053
 C2028 C 0.16731 0.21481 0.43741
 H2029 H 0.24856 0.20664 0.43033
 H2030 H 0.22648 0.18615 0.40837
 H2031 H 0.20169 0.25186 0.46805
 H2032 H 0.15663 0.20442 0.42994
 C2033 C 0.27123 0.42684 0.71174
 C2034 C 0.28330 0.41516 0.69833
 C2035 C 0.30483 0.41767 0.69739
 C2036 C 0.31417 0.43274 0.71040
 C2037 C 0.30200 0.44326 0.72522
 C2038 C 0.28023 0.44094 0.72529
 C2039 C 0.31202 0.45616 0.73933
 N2040 N 0.33253 0.45984 0.73753
 N2041 N 0.34362 0.45150 0.72260
 C2042 C 0.33512 0.43831 0.70888
 H2043 H 0.25463 0.42476 0.71162
 H2044 H 0.27559 0.40384 0.68878
 H2045 H 0.30368 0.46357 0.75160
 H2046 H 0.34474 0.43294 0.69663
 C2047 C 0.27166 0.92932 0.20995
 C2048 C 0.28334 0.91720 0.19655
 C2049 C 0.30470 0.92022 0.19445
 C2050 C 0.31421 0.93652 0.20588
 C2051 C 0.30251 0.94784 0.22054
 C2052 C 0.28094 0.94455 0.22218
 C2053 C 0.31286 0.96220 0.23307
 N2054 N 0.33313 0.96628 0.22994
 N2055 N 0.34372 0.95692 0.21519
 C2056 C 0.33494 0.94235 0.20298
 H2057 H 0.25520 0.92652 0.21105
 H2058 H 0.27556 0.90495 0.18813
 H2059 H 0.30500 0.97037 0.24519
 H2060 H 0.34414 0.93597 0.19085
 C2061 C 0.79617 0.44324 0.21236
 C2062 C 0.80771 0.42985 0.19991
 C2063 C 0.79827 0.41375 0.18871
 C2064 C 0.77647 0.41128 0.19024
 C2065 C 0.76461 0.42594 0.20185
 C2066 C 0.77464 0.44161 0.21349
 C2067 C 0.74295 0.42417 0.20180
 N2068 N 0.73393 0.40783 0.19205
 N2069 N 0.74510 0.39313 0.18245
 C2070 C 0.76599 0.39416 0.18138
 H2071 H 0.80415 0.45483 0.22143
 H2072 H 0.82428 0.43197 0.19921
 H2073 H 0.73311 0.43558 0.20946
 H2074 H 0.77406 0.38117 0.17417
 C2075 C 0.77336 0.92703 0.71259
 C2076 C 0.78446 0.91472 0.69889
 C2077 C 0.80598 0.91661 0.69693
 C2078 C 0.81630 0.93188 0.70895
 C2079 C 0.80512 0.94330 0.72393
 C2080 C 0.78336 0.94129 0.72529
 C2081 C 0.81613 0.95658 0.73698
 N2082 N 0.83662 0.95961 0.73409
 N2083 N 0.84679 0.95024 0.71907
 C2084 C 0.83733 0.93667 0.70633
 H2085 H 0.75675 0.92521 0.71348
 H2086 H 0.77606 0.90328 0.69005
 H2087 H 0.80861 0.96474 0.74930
 H2088 H 0.84625 0.93031 0.69400
 C2089 C 0.72496 0.56521 0.70488
 C2090 C 0.71180 0.57629 0.69197
 C2091 C 0.69030 0.57390 0.69311
 C2092 C 0.68210 0.55903 0.70702
 C2093 C 0.69550 0.54833 0.72068
 C2094 C 0.71712 0.55147 0.71951
 C2095 C 0.68672 0.53493 0.73522
 N2096 N 0.66608 0.53152 0.73526
 N2097 N 0.65364 0.54067 0.72181
 C2098 C 0.66093 0.55420 0.70767
 H2099 H 0.74145 0.56783 0.70382
 H2100 H 0.71851 0.58749 0.68152
 H2101 H 0.69606 0.52702 0.74648
 H2102 H 0.65014 0.56067 0.69686
 C2103 C 0.73470 0.06572 0.20413
 C2104 C 0.72214 0.07856 0.19210
 C2105 C 0.70064 0.07900 0.19473
 C2106 C 0.69158 0.06507 0.20897
 C2107 C 0.70443 0.05242 0.22158
 C2108 C 0.72617 0.05293 0.21917
 C2109 C 0.69503 0.03988 0.23645
 N2110 N 0.67414 0.03925 0.23781
 N2111 N 0.66206 0.05037 0.22539
 C2112 C 0.67004 0.06316 0.21100
 H2113 H 0.75131 0.06629 0.20216
 H2114 H 0.72940 0.08900 0.18130
 H2115 H 0.70404 0.03049 0.24692
 H2116 H 0.65943 0.07140 0.20110
 C2117 C 0.22292 0.56805 0.20478
 C2118 C 0.20979 0.58013 0.19264
 C2119 C 0.18855 0.58148 0.19673
 C2120 C 0.18027 0.56942 0.21281
 C2121 C 0.19369 0.55727 0.22525
 C2122 C 0.21518 0.55686 0.22125
 C2123 C 0.18514 0.54602 0.24146
 N2124 N 0.16443 0.54648 0.24455
 N2125 N 0.15175 0.55742 0.23256
 C2126 C 0.15893 0.56885 0.21679
 H2127 H 0.23934 0.56778 0.20156
 H2128 H 0.21644 0.58923 0.18047
 H2129 H 0.19470 0.53680 0.25162
 H2130 H 0.14784 0.57707 0.20737
 C2131 C 0.23390 0.07197 0.71061
 C2132 C 0.22145 0.08456 0.69824
 C2133 C 0.19987 0.08463 0.70031
 C2134 C 0.19067 0.07105 0.71475
 C2135 C 0.20339 0.05873 0.72772
 C2136 C 0.22516 0.05912 0.72545
 C2137 C 0.19385 0.04632 0.74262
 N2138 N 0.17296 0.04555 0.74371
 N2139 N 0.16099 0.05634 0.73095
 C2140 C 0.16910 0.06895 0.71648
 H2141 H 0.25053 0.07236 0.70871
 H2142 H 0.22879 0.09479 0.68731
 H2143 H 0.20278 0.03718 0.75336
 H2144 H 0.15857 0.07684 0.70627
 C2145 C 0.28073 0.57609 0.26663
 C2146 C 0.29261 0.58927 0.27862
 C2147 C 0.29163 0.58809 0.29964
 C2148 C 0.27833 0.57288 0.30862
 C2149 C 0.26525 0.56044 0.29633
 C2150 C 0.26703 0.56159 0.27516
 C2151 C 0.25095 0.54693 0.30566
 N2152 N 0.25090 0.54483 0.32589
 N2153 N 0.26415 0.55532 0.33736
 C2154 C 0.27795 0.56909 0.32944
 H2155 H 0.28218 0.57729 0.25047
 H2156 H 0.30245 0.60072 0.27128
 H2157 H 0.23999 0.53786 0.29704
 H2158 H 0.28879 0.57640 0.33949
 C2159 C 0.29547 0.05789 0.78013
 C2160 C 0.30687 0.07189 0.79177
 C2161 C 0.29714 0.08556 0.80556
 C2162 C 0.27531 0.08475 0.80789
 C2163 C 0.26382 0.07002 0.79641
 C2164 C 0.27397 0.05699 0.78205
 C2165 C 0.24231 0.06910 0.79932
 N2166 N 0.23288 0.08268 0.81228
 N2167 N 0.24348 0.09715 0.82241
 C2168 C 0.26428 0.09877 0.82056
 H2169 H 0.30340 0.04818 0.76905
 H2170 H 0.32346 0.07238 0.78966
 H2171 H 0.23293 0.05772 0.79141
 H2172 H 0.27175 0.11128 0.82876
 C2173 C 0.76677 0.56480 0.79259
 C2174 C 0.77769 0.57957 0.80383
 C2175 C 0.79090 0.59417 0.79453
 C2176 C 0.79227 0.59437 0.77324
 C2177 C 0.78232 0.57834 0.76196
 C2178 C 0.76938 0.56351 0.77177
 C2179 C 0.78558 0.57776 0.74107
 N2180 N 0.79667 0.59322 0.73201
 N2181 N 0.80470 0.60917 0.74240
 C2182 C 0.80274 0.61038 0.76262
 H2183 H 0.75654 0.55392 0.80025
 H2184 H 0.77608 0.57925 0.82000
 H2185 H 0.77939 0.56525 0.73182
 H2186 H 0.80888 0.62419 0.77001
 C2187 C 0.77605 0.05966 0.29274
 C2188 C 0.78691 0.07381 0.30472
 C2189 C 0.80014 0.08893 0.29624
 C2190 C 0.80186 0.09004 0.27497
 C2191 C 0.79215 0.07445 0.26293
 C2192 C 0.77887 0.05935 0.27191
 C2193 C 0.79584 0.07469 0.24211
 N2194 N 0.80697 0.09058 0.23379
 N2195 N 0.81461 0.10621 0.24487
 C2196 C 0.81227 0.10661 0.26509
 H2197 H 0.76553 0.04865 0.29981
 H2198 H 0.78500 0.07276 0.32083
 H2199 H 0.78993 0.06248 0.23233
 H2200 H 0.81798 0.12027 0.27301
 C2201 C 0.70935 0.43998 0.27242
 C2202 C 0.69778 0.42610 0.28408
 C2203 C 0.70738 0.41208 0.29763
 C2204 C 0.72928 0.41213 0.29941
 C2205 C 0.74098 0.42667 0.28783
 C2206 C 0.73090 0.44040 0.27403
 C2207 C 0.76257 0.42682 0.29024
 N2208 N 0.77184 0.41274 0.30284
 N2209 N 0.76099 0.39850 0.31310
 C2210 C 0.74011 0.39761 0.31173
 H2211 H 0.70147 0.45023 0.26173
 H2212 H 0.68113 0.42621 0.28240
 H2213 H 0.77214 0.43799 0.28221
 H2214 H 0.73237 0.38528 0.32002
 C2215 C 0.71294 0.93894 0.77915
 C2216 C 0.70095 0.92490 0.79023
 C2217 C 0.70995 0.91116 0.80442
 C2218 C 0.73169 0.91173 0.80748
 C2219 C 0.74378 0.92652 0.79655
 C2220 C 0.73432 0.93990 0.78204
 C2221 C 0.76514 0.92725 0.80033
 N2222 N 0.77389 0.91344 0.81352
 N2223 N 0.76275 0.89893 0.82311
 C2224 C 0.74204 0.89749 0.82045
 H2225 H 0.70553 0.94890 0.76792
 H2226 H 0.68444 0.92468 0.78758
 H2227 H 0.77494 0.93867 0.79291
 H2228 H 0.73409 0.88494 0.82823
 C2229 C 0.23296 0.42745 0.79223
 C2230 C 0.22016 0.41439 0.80353
 C2231 C 0.19892 0.41329 0.79951
 C2232 C 0.19034 0.42641 0.78421
 C2233 C 0.20350 0.43925 0.77234
 C2234 C 0.22496 0.43979 0.77653
 C2235 C 0.19470 0.45110 0.75652
 N2236 N 0.17399 0.45089 0.75354
 N2237 N 0.16152 0.43962 0.76526
 C2238 C 0.16895 0.42747 0.78051
 H2239 H 0.24934 0.42772 0.79558
 H2240 H 0.22707 0.40453 0.81512
 H2241 H 0.20404 0.46058 0.74654
 H2242 H 0.15799 0.41911 0.78976
 C2243 C 0.21145 0.93830 0.27646
 C2244 C 0.20035 0.92384 0.28788
 C2245 C 0.21016 0.91109 0.30239
 C2246 C 0.23178 0.91316 0.30544
 C2247 C 0.24294 0.92841 0.29416
 C2248 C 0.23268 0.94075 0.27934
 C2249 C 0.26419 0.93064 0.29789
 N2250 N 0.27375 0.91779 0.31142
 N2251 N 0.26352 0.90285 0.32138
 C2252 C 0.24296 0.89999 0.31877
 H2253 H 0.20346 0.94745 0.26500
 H2254 H 0.18391 0.92248 0.28523
 H2255 H 0.27328 0.94246 0.29017
 H2256 H 0.23578 0.88718 0.32687
 C2257 C 0.43331 0.29361 0.72278
 C2258 C 0.42195 0.30644 0.70977
 C2259 C 0.42357 0.30402 0.68889
 C2260 C 0.43764 0.28851 0.68113
 C2261 C 0.44819 0.27450 0.69447
 C2262 C 0.44631 0.27746 0.71547
 C2263 C 0.46043 0.25801 0.68632
 N2264 N 0.46320 0.25673 0.66620
 N2265 N 0.45452 0.27078 0.65375
 C2266 C 0.44201 0.28669 0.66051
 H2267 H 0.43164 0.29606 0.73879
 H2268 H 0.41139 0.31801 0.71627
 H2269 H 0.46800 0.24629 0.69576
 H2270 H 0.43611 0.29802 0.64971
 C2271 C 0.42980 0.79279 0.22748
 C2272 C 0.41812 0.80498 0.21416
 C2273 C 0.42070 0.80294 0.19333
 C2274 C 0.43592 0.78842 0.18593
 C2275 C 0.44699 0.77513 0.19954
 C2276 C 0.44421 0.77777 0.22050
 C2277 C 0.46059 0.75962 0.19167
 N2278 N 0.46401 0.75862 0.17164
 N2279 N 0.45471 0.77201 0.15897
 C2280 C 0.44094 0.78694 0.16542
 H2281 H 0.42740 0.79492 0.24345
 H2282 H 0.40663 0.81582 0.22030
 H2283 H 0.46866 0.74841 0.20126
 H2284 H 0.43451 0.79777 0.15446
 C2285 C 0.94205 0.27620 0.20448
 C2286 C 0.92906 0.28749 0.19150
 C2287 C 0.91523 0.30312 0.19872
 C2288 C 0.91460 0.30723 0.21972
 C2289 C 0.92915 0.29709 0.23255
 C2290 C 0.94242 0.28088 0.22499
 C2291 C 0.92970 0.30320 0.25283
 N2292 N 0.91530 0.31696 0.26015
 N2293 N 0.90041 0.32496 0.24854
 C2294 C 0.89943 0.32041 0.22869
 H2295 H 0.95183 0.26362 0.19848
 H2296 H 0.92975 0.28382 0.17564
 H2297 H 0.94150 0.29720 0.26287
 H2298 H 0.88638 0.32658 0.22044
 C2299 C 0.92782 0.78451 0.72408
 C2300 C 0.91588 0.79695 0.71122
 C2301 C 0.91741 0.79472 0.69031
 C2302 C 0.93163 0.77945 0.68235
 C2303 C 0.94288 0.76588 0.69559
 C2304 C 0.94142 0.76898 0.71659
 C2305 C 0.95557 0.74982 0.68733
 N2306 N 0.95795 0.74843 0.66717
 N2307 N 0.94852 0.76203 0.65479
 C2308 C 0.93563 0.77756 0.66166
 H2309 H 0.92642 0.78699 0.74011
 H2310 H 0.90513 0.80827 0.71781
 H2311 H 0.96379 0.73853 0.69673
 H2312 H 0.92916 0.78855 0.65087
 C2313 C 0.57086 0.26407 0.29030
 C2314 C 0.58432 0.27604 0.30185
 C2315 C 0.58367 0.29837 0.30136
 C2316 C 0.56828 0.30874 0.28957
 C2317 C 0.55522 0.29653 0.27707
 C2318 C 0.55646 0.27398 0.27763
 C2319 C 0.54143 0.30740 0.26424
 N2320 N 0.53984 0.32891 0.26500
 N2321 N 0.55117 0.34028 0.27762
 C2322 C 0.56522 0.33095 0.28999
 H2323 H 0.57204 0.24686 0.29086
 H2324 H 0.59584 0.26766 0.31070
 H2325 H 0.53183 0.29904 0.25367
 H2326 H 0.57351 0.34099 0.30026
 C2327 C 0.56697 0.76960 0.79371
 C2328 C 0.58030 0.78146 0.80546
 C2329 C 0.58085 0.80372 0.80391
 C2330 C 0.56673 0.81421 0.79079
 C2331 C 0.55367 0.80200 0.77824
 C2332 C 0.55385 0.77950 0.77980
 C2333 C 0.54093 0.81280 0.76441
 N2334 N 0.54046 0.83437 0.76404
 N2335 N 0.55189 0.84583 0.77649
 C2336 C 0.56491 0.83652 0.78989
 H2337 H 0.56733 0.75240 0.79504
 H2338 H 0.59084 0.77297 0.81530
 H2339 H 0.53125 0.80432 0.75399
 H2340 H 0.57335 0.84669 0.79994
 C2341 C 0.05704 0.29472 0.77297
 C2342 C 0.07201 0.30425 0.78484
 C2343 C 0.08461 0.29208 0.79770
 C2344 C 0.08169 0.26970 0.79880
 C2345 C 0.06584 0.26020 0.78729
 C2346 C 0.05390 0.27275 0.77385
 C2347 C 0.06274 0.23816 0.78917
 N2348 N 0.07536 0.22630 0.80105
 N2349 N 0.09091 0.23498 0.81104
 C2350 C 0.09463 0.25616 0.81020
 H2351 H 0.04824 0.30447 0.76255
 H2352 H 0.07403 0.32130 0.78368
 H2353 H 0.05041 0.23025 0.78129
 H2354 H 0.10795 0.26193 0.81808
 C2355 C 0.06784 0.77090 0.28996
 C2356 C 0.08157 0.78154 0.30235
 C2357 C 0.08234 0.80384 0.30248
 C2358 C 0.06807 0.81561 0.29051
 C2359 C 0.05459 0.80473 0.27737
 C2360 C 0.05451 0.78219 0.27719
 C2361 C 0.04166 0.81684 0.26469
 N2362 N 0.04147 0.83837 0.26597
 N2363 N 0.05336 0.84856 0.27901
 C2364 C 0.06655 0.83795 0.29137
 H2365 H 0.06796 0.75365 0.28993
 H2366 H 0.09227 0.77217 0.31131
 H2367 H 0.03161 0.80941 0.25389
 H2368 H 0.07537 0.84710 0.30197
 C2369 C 0.55717 0.72653 0.70793
 C2370 C 0.57092 0.71441 0.69646
 C2371 C 0.58389 0.69904 0.70537
 C2372 C 0.58299 0.69603 0.72650
 C2373 C 0.56828 0.70771 0.73801
 C2374 C 0.55559 0.72333 0.72864
 C2375 C 0.56697 0.70364 0.75874
 N2376 N 0.58030 0.68969 0.76748
 N2377 N 0.59488 0.67962 0.75691
 C2378 C 0.59680 0.68243 0.73683
 H2379 H 0.54780 0.73866 0.70064
 H2380 H 0.57146 0.71712 0.68041
 H2381 H 0.55552 0.71145 0.76810
 H2382 H 0.60944 0.67440 0.72937
 C2383 C 0.56820 0.23299 0.20852
 C2384 C 0.58137 0.22148 0.19596
 C2385 C 0.58142 0.19914 0.19595
 C2386 C 0.56682 0.18834 0.20811
 C2387 C 0.55419 0.20005 0.22170
 C2388 C 0.55486 0.22260 0.22177
 C2389 C 0.54146 0.18869 0.23497
 N2390 N 0.54030 0.16722 0.23358
 N2391 N 0.55110 0.15635 0.21992
 C2392 C 0.56420 0.16616 0.20709
 H2393 H 0.56890 0.25021 0.20839
 H2394 H 0.59224 0.23021 0.18684
 H2395 H 0.53232 0.19664 0.24636
 H2396 H 0.57209 0.15655 0.19599
 C2397 C 0.05302 0.71359 0.21886
 C2398 C 0.06690 0.70213 0.20700
 C2399 C 0.08063 0.71250 0.19405
 C2400 C 0.07983 0.73509 0.19266
 C2401 C 0.06508 0.74666 0.20423
 C2402 C 0.05211 0.73582 0.21789
 C2403 C 0.06410 0.76893 0.20213
 N2404 N 0.07767 0.77899 0.18998
 N2405 N 0.09218 0.76828 0.17989
 C2406 C 0.09385 0.74677 0.18093
 H2407 H 0.04339 0.70509 0.22942
 H2408 H 0.06729 0.68494 0.20836
 H2409 H 0.05268 0.77842 0.21006
 H2410 H 0.10639 0.73925 0.17287
 C2411 C 0.06555 0.23633 0.70196
 C2412 C 0.07896 0.22448 0.68991
 C2413 C 0.07857 0.20216 0.69003
 C2414 C 0.06324 0.19174 0.70162
 C2415 C 0.05030 0.20378 0.71467
 C2416 C 0.05151 0.22629 0.71475
 C2417 C 0.03677 0.19278 0.72745
 N2418 N 0.03524 0.17133 0.72609
 N2419 N 0.04641 0.16016 0.71293
 C2420 C 0.06026 0.16962 0.70061
 H2421 H 0.06669 0.25352 0.70190
 H2422 H 0.09040 0.23290 0.68121
 H2423 H 0.02730 0.20099 0.73841
 H2424 H 0.06849 0.15978 0.68991
 C2425 C 0.42723 0.73590 0.28856
 C2426 C 0.41371 0.72424 0.30038
 C2427 C 0.41407 0.70190 0.30020
 C2428 C 0.42911 0.69120 0.28819
 C2429 C 0.44225 0.70313 0.27542
 C2430 C 0.44144 0.72568 0.27588
 C2431 C 0.45579 0.69202 0.26252
 N2432 N 0.45704 0.67049 0.26338
 N2433 N 0.44563 0.65936 0.27620
 C2434 C 0.43183 0.66895 0.28868
 H2435 H 0.42635 0.75312 0.28901
 H2436 H 0.40243 0.73289 0.30931
 H2437 H 0.46550 0.70023 0.25188
 H2438 H 0.42353 0.65908 0.29914
 C2439 C 0.43960 0.20855 0.77511
 C2440 C 0.42484 0.19828 0.78674
 C2441 C 0.40972 0.20987 0.79736
 C2442 C 0.40959 0.23249 0.79608
 C2443 C 0.42550 0.24290 0.78531
 C2444 C 0.44023 0.23078 0.77429
 C2445 C 0.42591 0.26530 0.78553
 N2446 N 0.41055 0.27647 0.79468
 N2447 N 0.39480 0.26675 0.80353
 C2448 C 0.39368 0.24523 0.80437
 H2449 H 0.45051 0.19906 0.76649
 H2450 H 0.42514 0.18105 0.78729
 H2451 H 0.43825 0.27404 0.77846
 H2452 H 0.38002 0.23850 0.81096
 C2453 C 0.92721 0.73052 0.78634
 C2454 C 0.91467 0.71921 0.79941
 C2455 C 0.91677 0.69705 0.80149
 C2456 C 0.93255 0.68629 0.79046
 C2457 C 0.94460 0.69772 0.77633
 C2458 C 0.94208 0.72008 0.77455
 C2459 C 0.95884 0.68630 0.76440
 N2460 N 0.96183 0.66517 0.76748
 N2461 N 0.95150 0.65470 0.78160
 C2462 C 0.93709 0.66453 0.79325
 H2463 H 0.92505 0.74760 0.78512
 H2464 H 0.90279 0.72791 0.80752
 H2465 H 0.96774 0.69400 0.75278
 H2466 H 0.92973 0.65530 0.80485
 C2467 C 0.94068 0.20808 0.28133
 C2468 C 0.92717 0.19609 0.29292
 C2469 C 0.91158 0.20591 0.30443
 C2470 C 0.90957 0.22849 0.30391
 C2471 C 0.92447 0.24068 0.29346
 C2472 C 0.93971 0.23036 0.28154
 C2473 C 0.92345 0.26298 0.29505
 N2474 N 0.90742 0.27245 0.30479
 N2475 N 0.89239 0.26109 0.31302
 C2476 C 0.89279 0.23951 0.31274
 H2477 H 0.95201 0.19990 0.27205
 H2478 H 0.92890 0.17892 0.29282
 H2479 H 0.93528 0.27293 0.28871
 H2480 H 0.87964 0.23137 0.31886
 C2481 C 0.27879 0.29273 0.55630
 C2482 C 0.28995 0.30514 0.56968
 C2483 C 0.30443 0.29586 0.58277
 C2484 C 0.30751 0.27341 0.58241
 C2485 C 0.29704 0.26102 0.56794
 C2486 C 0.28218 0.27072 0.55519
 C2487 C 0.30154 0.23909 0.56689
 N2488 N 0.31450 0.22996 0.58042
 N2489 N 0.32321 0.24129 0.59491
 C2490 C 0.32004 0.26260 0.59648
 H2491 H 0.26723 0.30032 0.54688
 H2492 H 0.28719 0.32218 0.56983
 H2493 H 0.29491 0.22914 0.55543
 H2494 H 0.32692 0.27061 0.60905
 C2495 C 0.27895 0.79054 0.05742
 C2496 C 0.29033 0.80305 0.07053
 C2497 C 0.30438 0.79380 0.08409
 C2498 C 0.30688 0.77127 0.08436
 C2499 C 0.29612 0.75871 0.07022
 C2500 C 0.28163 0.76840 0.05708
 C2501 C 0.29995 0.73663 0.06988
 N2502 N 0.31260 0.72758 0.08372
 N2503 N 0.32162 0.73914 0.09786
 C2504 C 0.31907 0.76057 0.09878
 H2505 H 0.26771 0.79814 0.04765
 H2506 H 0.28804 0.82015 0.07016
 H2507 H 0.29305 0.72652 0.05871
 H2508 H 0.32619 0.76878 0.11110
 C2509 C 0.78343 0.28910 0.05102
 C2510 C 0.79524 0.30128 0.06404
 C2511 C 0.80705 0.29172 0.07932
 C2512 C 0.80691 0.26915 0.08130
 C2513 C 0.79607 0.25674 0.06707
 C2514 C 0.78367 0.26685 0.05227
 C2515 C 0.79754 0.23441 0.06842
 N2516 N 0.80782 0.22520 0.08390
 N2517 N 0.81663 0.23680 0.09813
 C2518 C 0.81633 0.25838 0.09749
 H2519 H 0.77373 0.29712 0.04008
 H2520 H 0.79489 0.31842 0.06231
 H2521 H 0.79054 0.22420 0.05736
 H2522 H 0.82290 0.26669 0.11003
 C2523 C 0.77216 0.79045 0.55795
 C2524 C 0.78397 0.80248 0.57111
 C2525 C 0.79774 0.79267 0.58457
 C2526 C 0.79930 0.77006 0.58492
 C2527 C 0.78803 0.75793 0.57082
 C2528 C 0.77410 0.76824 0.55751
 C2529 C 0.79085 0.73568 0.57068
 N2530 N 0.80314 0.72619 0.58457
 N2531 N 0.81272 0.73742 0.59860
 C2532 C 0.81109 0.75894 0.59937
 H2533 H 0.76131 0.79851 0.54809
 H2534 H 0.78237 0.81966 0.57074
 H2535 H 0.78338 0.72574 0.55971
 H2536 H 0.81861 0.76692 0.61160
 C2537 C 0.26652 0.71411 0.43296
 C2538 C 0.27808 0.70204 0.41945
 C2539 C 0.29969 0.70364 0.41856
 C2540 C 0.30980 0.71715 0.43243
 C2541 C 0.29789 0.73029 0.44551
 C2542 C 0.27605 0.72852 0.44585
 C2543 C 0.30829 0.74490 0.45773
 N2544 N 0.32923 0.74517 0.45790
 N2545 N 0.34043 0.73191 0.44661
 C2546 C 0.33146 0.71786 0.43399
 H2547 H 0.24985 0.71261 0.43299
 H2548 H 0.26988 0.69191 0.40911
 H2549 H 0.30003 0.75602 0.46725
 H2550 H 0.34138 0.70711 0.42569
 C2551 C 0.29445 0.22643 0.94274
 C2552 C 0.30664 0.21466 0.92946
 C2553 C 0.29806 0.19876 0.91740
 C2554 C 0.27655 0.19456 0.91903
 C2555 C 0.26440 0.20589 0.93331
 C2556 C 0.27335 0.22233 0.94481
 C2557 C 0.24340 0.20073 0.93535
 N2558 N 0.23490 0.18607 0.92308
 N2559 N 0.24595 0.17634 0.90888
 C2560 C 0.26636 0.18020 0.90631
 H2561 H 0.30145 0.23915 0.95122
 H2562 H 0.32292 0.21832 0.92831
 H2563 H 0.23365 0.20824 0.94655
 H2564 H 0.27408 0.17235 0.89401
 C2565 C 0.76556 0.71190 0.93063
 C2566 C 0.77765 0.69991 0.91747
 C2567 C 0.79921 0.70202 0.91697
 C2568 C 0.80875 0.71614 0.93068
 C2569 C 0.79630 0.72909 0.94343
 C2570 C 0.77455 0.72664 0.94357
 C2571 C 0.80611 0.74412 0.95568
 N2572 N 0.82702 0.74506 0.95609
 N2573 N 0.83874 0.73205 0.94504
 C2574 C 0.83036 0.71756 0.93248
 H2575 H 0.74895 0.70989 0.93052
 H2576 H 0.76994 0.68929 0.90720
 H2577 H 0.79738 0.75504 0.96503
 H2578 H 0.84071 0.70705 0.92441
 C2579 C 0.79397 0.22076 0.44585
 C2580 C 0.80548 0.20818 0.43267
 C2581 C 0.79582 0.19505 0.41857
 C2582 C 0.77383 0.19441 0.41813
 C2583 C 0.76221 0.20620 0.43249
 C2584 C 0.77237 0.22004 0.44594
 C2585 C 0.74057 0.20427 0.43260
 N2586 N 0.73113 0.19247 0.41839
 N2587 N 0.74188 0.18260 0.40406
 C2588 C 0.76280 0.18335 0.40330
 H2589 H 0.80196 0.23154 0.45577
 H2590 H 0.82218 0.20912 0.43319
 H2591 H 0.73107 0.21210 0.44380
 H2592 H 0.77032 0.17580 0.39073
 C2593 C 0.70407 0.28008 0.44285
 C2594 C 0.69245 0.29161 0.42896
 C2595 C 0.70195 0.30530 0.41521
 C2596 C 0.72380 0.30753 0.41569
 C2597 C 0.73550 0.29636 0.43039
 C2598 C 0.72555 0.28214 0.44367
 C2599 C 0.75699 0.29939 0.43107
 N2600 N 0.76624 0.31198 0.41729
 N2601 N 0.75547 0.32161 0.40285
 C2602 C 0.73467 0.31969 0.40146
 H2603 H 0.69631 0.26902 0.45273
 H2604 H 0.67585 0.28951 0.42869
 H2605 H 0.76652 0.29184 0.44241
 H2606 H 0.72709 0.32734 0.38896
 C2607 C 0.72650 0.79685 0.93643
 C2608 C 0.71353 0.80929 0.92446
 C2609 C 0.69215 0.80580 0.92400
 C2610 C 0.68365 0.79013 0.93689
 C2611 C 0.69697 0.77697 0.94857
 C2612 C 0.71858 0.78041 0.94824
 C2613 C 0.68816 0.76057 0.96002
 N2614 N 0.66735 0.75837 0.96059
 N2615 N 0.65480 0.77137 0.95042
 C2616 C 0.66220 0.78719 0.93867
 H2617 H 0.74298 0.79964 0.93602
 H2618 H 0.72046 0.82110 0.91480
 H2619 H 0.69757 0.74955 0.96861
 H2620 H 0.65123 0.79751 0.93114
 C2621 C 0.22671 0.29240 0.93210
 C2622 C 0.21386 0.30451 0.91976
 C2623 C 0.19230 0.30233 0.92044
 C2624 C 0.18362 0.28803 0.93461
 C2625 C 0.19682 0.27498 0.94655
 C2626 C 0.21854 0.27744 0.94537
 C2627 C 0.18779 0.25981 0.95927
 N2628 N 0.16694 0.25877 0.96084
 N2629 N 0.15456 0.27181 0.95052
 C2630 C 0.16216 0.28645 0.93757
 H2631 H 0.24329 0.29441 0.93099
 H2632 H 0.22101 0.31517 0.90911
 H2633 H 0.19708 0.24888 0.96807
 H2634 H 0.15133 0.29695 0.93007
 C2635 C 0.22855 0.79903 0.43632
 C2636 C 0.21546 0.81065 0.42379
 C2637 C 0.19414 0.80678 0.42339
 C2638 C 0.18582 0.79159 0.43687
 C2639 C 0.19926 0.77933 0.44925
 C2640 C 0.22082 0.78309 0.44883
 C2641 C 0.19065 0.76344 0.46146
 N2642 N 0.16989 0.76083 0.46195
 N2643 N 0.15720 0.77296 0.45102
 C2644 C 0.16442 0.78826 0.43857
 H2645 H 0.24500 0.80203 0.43581
 H2646 H 0.22225 0.82212 0.41366
 H2647 H 0.20017 0.75313 0.47068
 H2648 H 0.15333 0.79789 0.43042
 C2649 C 0.72514 0.70074 0.56732
 C2650 C 0.71238 0.68884 0.57976
 C2651 C 0.69108 0.69304 0.58076
 C2652 C 0.68237 0.70894 0.56805
 C2653 C 0.69547 0.72142 0.55576
 C2654 C 0.71702 0.71723 0.55548
 C2655 C 0.68653 0.73786 0.54423
 N2656 N 0.66575 0.74084 0.54430
 N2657 N 0.65336 0.72855 0.55514
 C2658 C 0.66092 0.71268 0.56693
 H2659 H 0.74161 0.69740 0.56727
 H2660 H 0.71939 0.67678 0.58928
 H2661 H 0.69582 0.74828 0.53508
 H2662 H 0.65004 0.70295 0.57499
 C2663 C 0.73176 0.20259 0.06570
 C2664 C 0.71889 0.19133 0.07854
 C2665 C 0.69768 0.19607 0.07971
 C2666 C 0.68923 0.21199 0.06685
 C2667 C 0.70250 0.22396 0.05428
 C2668 C 0.72392 0.21906 0.05366
 C2669 C 0.69386 0.24058 0.04275
 N2670 N 0.67315 0.24410 0.04298
 N2671 N 0.66056 0.23219 0.05399
 C2672 C 0.66785 0.21623 0.06582
 H2673 H 0.74812 0.19870 0.06541
 H2674 H 0.72576 0.17930 0.08817
 H2675 H 0.70332 0.25071 0.03348
 H2676 H 0.65680 0.20679 0.07397
 C2677 C 0.20470 0.71994 0.05790
 C2678 C 0.19166 0.70917 0.07100
 C2679 C 0.19953 0.69433 0.08485
 C2680 C 0.22123 0.69043 0.08547
 C2681 C 0.23427 0.70040 0.07123
 C2682 C 0.22598 0.71571 0.05776
 C2683 C 0.25542 0.69496 0.07112
 N2684 N 0.26322 0.68172 0.08534
 N2685 N 0.25128 0.67359 0.09964
 C2686 C 0.23066 0.67762 0.10031
 H2687 H 0.19817 0.73183 0.04790
 H2688 H 0.17523 0.71259 0.07037
 H2689 H 0.26579 0.70108 0.05984
 H2690 H 0.22212 0.67124 0.11279
 C2691 C 0.20748 0.21951 0.55527
 C2692 C 0.19528 0.20854 0.56897
 C2693 C 0.20405 0.19386 0.58247
 C2694 C 0.22576 0.18997 0.58181
 C2695 C 0.23792 0.20029 0.56706
 C2696 C 0.22880 0.21573 0.55424
 C2697 C 0.25912 0.19522 0.56589
 N2698 N 0.26779 0.18181 0.57948
 N2699 N 0.25670 0.17322 0.59416
 C2700 C 0.23610 0.17696 0.59592
 H2701 H 0.20032 0.23148 0.54576
 H2702 H 0.17882 0.21191 0.56932
 H2703 H 0.26883 0.20178 0.55427
 H2704 H 0.22832 0.17015 0.60864
   
