data_POSCAR
  _audit_creation_date              2014-09-24
  _audit_creation_method            'ToBaCCo'
  _symmetry_space_group_name_H-M    'P1'
  _symmetry_Int_Tables_number       1
  _symmetry_cell_setting            triclinic
  loop_
  _symmetry_equiv_pos_as_xyz
 x,y,z
_cell_length_a 45.1943
_cell_length_b 46.9296
_cell_length_c 56.5356
_cell_angle_alpha 90.061500
_cell_angle_beta 90.010100
_cell_angle_gamma 90.004700
loop_
  _atom_site_label
  _atom_site_type_symbol
  _atom_site_fract_x
  _atom_site_fract_y
  _atom_site_fract_z
Zr1 Zr 0.24524 0.24400 0.28806
 O2 O 0.26828 0.26584 0.31520
 O3 O 0.21773 0.21654 0.30744
 O4 O 0.21632 0.26898 0.30885
 O5 O 0.30211 0.19625 0.27714
 O6 O 0.18932 0.29354 0.28157
 O7 O 0.27455 0.21691 0.30628
 O8 O 0.19031 0.19458 0.27890
 O9 O 0.20582 0.24428 0.26867
 O10 O 0.24599 0.20757 0.26675
 O11 O 0.24565 0.28259 0.26916
 O12 O 0.28436 0.24727 0.26778
 Zr13 Zr 0.24504 0.24921 0.20584
 Zr14 Zr 0.20715 0.28161 0.24860
 Zr15 Zr 0.28338 0.21154 0.24537
 Zr16 Zr 0.20769 0.20878 0.24650
 O17 O 0.32991 0.21623 0.24407
 O18 O 0.16114 0.21440 0.24555
 O19 O 0.24502 0.21023 0.22440
 O20 O 0.20640 0.24596 0.22629
 O21 O 0.24429 0.28600 0.22676
 O22 O 0.28434 0.24884 0.22533
 C23 C 0.19698 0.19963 0.30062
 C24 C 0.29530 0.20020 0.29906
 C25 C 0.19579 0.28670 0.30302
 O26 O 0.16057 0.27720 0.24732
 O27 O 0.19082 0.29940 0.21711
 O28 O 0.21675 0.27742 0.18770
 C29 C 0.19693 0.29498 0.19517
 O30 O 0.30302 0.29929 0.27868
 Zr31 Zr 0.28279 0.28452 0.24702
 O32 O 0.27105 0.27738 0.18617
 O33 O 0.20988 0.32644 0.25183
 O34 O 0.27448 0.32891 0.24924
 O35 O 0.32942 0.28042 0.24450
 O36 O 0.29565 0.30280 0.21433
 C37 C 0.28901 0.29714 0.19263
 O38 O 0.22114 0.22813 0.17875
 O39 O 0.28095 0.16652 0.24487
 O40 O 0.27233 0.22277 0.18513
 O41 O 0.29742 0.19602 0.21217
 O42 O 0.21391 0.16400 0.24761
 O43 O 0.19243 0.19040 0.21437
 C44 C 0.29093 0.20311 0.19075
 H45 H 0.24667 0.18967 0.27598
 H46 H 0.18852 0.24566 0.21617
 H47 H 0.30226 0.24937 0.21527
 H48 H 0.24577 0.29915 0.28003
 H49 H 0.15195 0.19572 0.24909
 H50 H 0.15211 0.29660 0.24883
 H51 H 0.18930 0.33371 0.25163
 H52 H 0.29302 0.33888 0.24486
 H53 H 0.19446 0.15528 0.25123
 H54 H 0.30159 0.15939 0.24478
 H55 H 0.33828 0.19678 0.24268
 H56 H 0.33753 0.29955 0.24091
 H57 H 0.17626 0.17678 0.21778
 H58 H 0.22795 0.23603 0.16341
 H59 H 0.26142 0.25793 0.33053
 H60 H 0.31584 0.31583 0.27508
 Zr61 Zr 0.74833 0.74936 0.29218
 O62 O 0.72230 0.72774 0.31762
 O63 O 0.77668 0.77366 0.31377
 O64 O 0.77404 0.72109 0.31263
 O65 O 0.69588 0.80127 0.28104
 O66 O 0.79890 0.69453 0.28532
 O67 O 0.71962 0.77722 0.31049
 O68 O 0.80851 0.79354 0.28720
 O69 O 0.78863 0.74612 0.27415
 O70 O 0.75266 0.78685 0.27260
 O71 O 0.74498 0.71216 0.27147
 O72 O 0.71046 0.75104 0.27031
 Zr73 Zr 0.75293 0.74900 0.20971
 Zr74 Zr 0.78456 0.71034 0.25230
 Zr75 Zr 0.71656 0.78769 0.24967
 Zr76 Zr 0.79187 0.78287 0.25364
 O77 O 0.67007 0.78813 0.24515
 O78 O 0.83757 0.77259 0.25424
 O79 O 0.75607 0.78647 0.23018
 O80 O 0.79040 0.74701 0.23171
 O81 O 0.74856 0.71114 0.22897
 O82 O 0.71276 0.75208 0.22780
 C83 C 0.79961 0.78860 0.30841
 C84 C 0.70022 0.79521 0.30297
 C85 C 0.79244 0.70129 0.30683
 O86 O 0.83137 0.71013 0.25264
 O87 O 0.80021 0.69243 0.22048
 O88 O 0.77914 0.71916 0.19134
 C89 C 0.79601 0.69882 0.19857
 O90 O 0.68556 0.70059 0.27802
 Zr91 Zr 0.70927 0.71520 0.24792
 O92 O 0.72521 0.72474 0.18788
 O93 O 0.77685 0.66590 0.25355
 O94 O 0.71274 0.67015 0.24843
 O95 O 0.66357 0.72432 0.24397
 O96 O 0.69665 0.70017 0.21406
 C97 C 0.70506 0.70637 0.19288
 O98 O 0.78063 0.76894 0.18444
 O99 O 0.72342 0.83216 0.25272
 O100 O 0.73008 0.77973 0.18941
 O101 O 0.70771 0.80767 0.21719
 O102 O 0.79017 0.82791 0.25639
 O103 O 0.81129 0.80135 0.22304
 C104 C 0.71439 0.80143 0.19566
 H105 H 0.75295 0.80412 0.28266
 H106 H 0.80881 0.74604 0.22226
 H107 H 0.69559 0.75410 0.21705
 H108 H 0.74247 0.69511 0.28158
 H109 H 0.84848 0.79000 0.25898
 H110 H 0.83760 0.68991 0.25351
 H111 H 0.79653 0.65658 0.25359
 H112 H 0.69357 0.66232 0.24292
 H113 H 0.81011 0.83452 0.26121
 H114 H 0.70365 0.84126 0.25209
 H115 H 0.66395 0.80840 0.24470
 H116 H 0.65365 0.70644 0.23905
 H117 H 0.82846 0.81319 0.22775
 H118 H 0.77379 0.76278 0.16855
 H119 H 0.72894 0.73426 0.33347
 H120 H 0.67117 0.68581 0.27311
 Zr121 Zr 0.75211 0.24627 -0.28971
 O122 O 0.72720 0.26446 -0.31762
 O123 O 0.78347 0.22204 -0.30831
 O124 O 0.77786 0.27422 -0.31027
 O125 O 0.70194 0.19218 -0.27895
 O126 O 0.79890 0.30406 -0.28326
 O127 O 0.72704 0.21554 -0.30805
 O128 O 0.81339 0.20477 -0.27921
 O129 O 0.79055 0.25278 -0.26983
 O130 O 0.75650 0.21056 -0.26799
 O131 O 0.74511 0.28472 -0.27141
 O132 O 0.71243 0.24424 -0.27010
 Zr133 Zr 0.74916 0.25311 -0.20735
 Zr134 Zr 0.78272 0.28986 -0.25026
 Zr135 Zr 0.71849 0.20961 -0.24720
 Zr136 Zr 0.79368 0.21784 -0.24723
 O137 O 0.67177 0.20738 -0.24555
 O138 O 0.83872 0.23047 -0.24632
 O139 O 0.75602 0.21439 -0.22564
 O140 O 0.78836 0.25512 -0.22742
 O141 O 0.74477 0.28914 -0.22893
 O142 O 0.71100 0.24657 -0.22755
 C143 C 0.80615 0.20796 -0.30107
 C144 C 0.70826 0.19682 -0.30084
 C145 C 0.79457 0.29539 -0.30464
 O146 O 0.82941 0.29235 -0.24835
 O147 O 0.79522 0.31056 -0.21882
 O148 O 0.77323 0.28509 -0.18931
 C149 C 0.79002 0.30539 -0.19685
 O150 O 0.68610 0.29259 -0.28203
 Zr151 Zr 0.70757 0.28159 -0.24986
 O152 O 0.71807 0.27768 -0.18866
 O153 O 0.77291 0.33370 -0.25400
 O154 O 0.70883 0.32664 -0.25264
 O155 O 0.66212 0.27057 -0.24803
 O156 O 0.69098 0.29847 -0.21791
 C157 C 0.69745 0.29441 -0.19598
 O158 O 0.77498 0.23654 -0.17927
 O159 O 0.72772 0.16538 -0.24712
 O160 O 0.72617 0.22254 -0.18684
 O161 O 0.70763 0.19172 -0.21433
 O162 O 0.79422 0.17265 -0.24708
 O163 O 0.81156 0.20296 -0.21473
 C164 C 0.71218 0.19967 -0.19284
 H165 H 0.75857 0.19258 -0.27700
 H166 H 0.80590 0.25760 -0.21713
 H167 H 0.69300 0.24448 -0.21773
 H168 H 0.74266 0.30083 -0.28253
 H169 H 0.85088 0.21333 -0.24957
 H170 H 0.83472 0.31273 -0.25007
 H171 H 0.79207 0.34396 -0.25367
 H172 H 0.68879 0.33388 -0.24882
 H173 H 0.81477 0.16654 -0.25050
 H174 H 0.70840 0.15538 -0.24724
 H175 H 0.66656 0.18692 -0.24433
 H176 H 0.65087 0.28832 -0.24492
 H177 H 0.82978 0.19187 -0.21789
 H178 H 0.76628 0.24367 -0.16427
 H179 H 0.73553 0.25717 -0.33270
 H180 H 0.67065 0.30705 -0.27886
 Zr181 Zr 0.25154 0.75865 -0.29124
 O182 O 0.27708 0.73861 -0.31793
 O183 O 0.22186 0.78313 -0.31158
 O184 O 0.22618 0.73053 -0.31204
 O185 O 0.30206 0.81256 -0.28007
 O186 O 0.20280 0.70230 -0.28512
 O187 O 0.27944 0.78727 -0.30925
 O188 O 0.19026 0.80076 -0.28394
 O189 O 0.21189 0.75384 -0.27264
 O190 O 0.24689 0.79533 -0.27066
 O191 O 0.25649 0.72079 -0.27171
 O192 O 0.29007 0.76043 -0.27013
 Zr193 Zr 0.24939 0.75503 -0.20879
 Zr194 Zr 0.21753 0.71736 -0.25194
 Zr195 Zr 0.28370 0.79622 -0.24847
 Zr196 Zr 0.20844 0.78970 -0.25103
 O197 O 0.33036 0.79730 -0.24556
 O198 O 0.16294 0.77862 -0.25076
 O199 O 0.24487 0.79322 -0.22819
 O200 O 0.21139 0.75308 -0.23021
 O201 O 0.25413 0.71805 -0.22920
 O202 O 0.28892 0.75983 -0.22760
 C203 C 0.19846 0.79713 -0.30555
 C204 C 0.29786 0.80644 -0.30210
 C205 C 0.20858 0.71001 -0.30652
 O206 O 0.17074 0.71610 -0.25162
 O207 O 0.20305 0.69804 -0.22050
 O208 O 0.22358 0.72424 -0.19085
 C209 C 0.20694 0.70374 -0.19840
 O210 O 0.31611 0.71133 -0.27968
 Zr211 Zr 0.29277 0.72380 -0.24872
 O212 O 0.27801 0.73021 -0.18821
 O213 O 0.22628 0.67317 -0.25443
 O214 O 0.29049 0.67873 -0.25083
 O215 O 0.33833 0.73365 -0.24494
 O216 O 0.30637 0.70732 -0.21557
 C217 C 0.29826 0.71231 -0.19408
 O218 O 0.22236 0.77370 -0.18239
 O219 O 0.27551 0.84061 -0.24939
 O220 O 0.27255 0.78532 -0.18812
 O221 O 0.29362 0.81470 -0.21552
 O222 O 0.20891 0.83484 -0.25285
 O223 O 0.18983 0.80675 -0.21953
 C224 C 0.28784 0.80742 -0.19405
 H225 H 0.24580 0.81292 -0.28027
 H226 H 0.19324 0.75138 -0.22051
 H227 H 0.30637 0.76170 -0.21712
 H228 H 0.25915 0.70421 -0.28234
 H229 H 0.15153 0.79599 -0.25477
 H230 H 0.16497 0.69579 -0.25295
 H231 H 0.20685 0.66340 -0.25446
 H232 H 0.31001 0.67114 -0.24591
 H233 H 0.18865 0.84107 -0.25712
 H234 H 0.29505 0.85019 -0.24900
 H235 H 0.33607 0.81765 -0.24449
 H236 H 0.34873 0.71572 -0.24087
 H237 H 0.17236 0.81854 -0.22352
 H238 H 0.22975 0.76692 -0.16685
 H239 H 0.26981 0.74562 -0.33343
 H240 H 0.33102 0.69669 -0.27554
 Zr241 Zr 1.25037 1.24928 0.79383
 O242 O 1.23109 1.22660 0.82231
 O243 O 1.27756 1.27851 0.81173
 O244 O 1.28227 1.22660 0.81327
 O245 O 1.18946 1.29238 0.78514
 O246 O 1.30779 1.20156 0.78538
 O247 O 1.22040 1.27446 0.81331
 O248 O 1.30108 1.30184 0.78184
 O249 O 1.28832 1.25041 0.77266
 O250 O 1.24598 1.28516 0.77231
 O251 O 1.25066 1.21029 0.77542
 O252 O 1.21009 1.24354 0.77553
 Zr253 Zr 1.24460 1.24223 0.71176
 Zr254 Zr 1.28748 1.21260 0.75301
 Zr255 Zr 1.20746 1.27867 0.75273
 Zr256 Zr 1.28282 1.28534 0.75033
 O257 O 1.16115 1.27195 0.75321
 O258 O 1.32950 1.28184 0.74777
 O259 O 1.24406 1.28150 0.72999
 O260 O 1.28453 1.24779 0.73034
 O261 O 1.24896 1.20607 0.73313
 O262 O 1.20693 1.24101 0.73314
 C263 C 1.29640 1.29678 0.80391
 C264 C 1.19762 1.28896 0.80679
 C265 C 1.30260 1.20896 0.80696
 O266 O 1.33351 1.21951 0.74942
 O267 O 1.30184 1.19428 0.72094
 O268 O 1.27240 1.21435 0.69274
 C269 C 1.29326 1.19742 0.69935
 O270 O 1.19521 1.19094 0.78799
 Zr271 Zr 1.21207 1.20601 0.75521
 O272 O 1.21854 1.21219 0.69387
 O273 O 1.28757 1.16775 0.75682
 O274 O 1.22296 1.16215 0.75744
 O275 O 1.16519 1.20798 0.75508
 O276 O 1.19756 1.18639 0.72361
 C277 C 1.20226 1.19172 0.70158
 O278 O 1.26558 1.26340 0.68326
 O279 O 1.20750 1.32375 0.75212
 O280 O 1.21469 1.26749 0.69208
 O281 O 1.19002 1.29287 0.72032
 O282 O 1.27403 1.32973 0.75070
 O283 O 1.29530 1.30354 0.71740
 C284 C 1.19531 1.28608 0.69865
 H285 H 1.24476 1.30313 0.78145
 H286 H 1.30156 1.24862 0.71934
 H287 H 1.18834 1.23944 0.72397
 H288 H 1.25219 1.19399 0.78646
 H289 H 1.33793 1.30098 0.75085
 H290 H 1.34313 1.20061 0.75074
 H291 H 1.30847 1.16152 0.75570
 H292 H 1.20466 1.15116 0.75425
 H293 H 1.29311 1.33963 0.75341
 H294 H 1.18655 1.32985 0.75315
 H295 H 1.15171 1.29098 0.75235
 H296 H 1.15773 1.18842 0.75216
 H297 H 1.31107 1.31786 0.72001
 H298 H 1.25788 1.25485 0.66842
 H299 H 1.23860 1.23520 0.83720
 H300 H 1.18298 1.17375 0.78520
 Zr301 Zr 0.74277 0.74558 0.78855
 O302 O 0.76362 0.76767 0.81670
 O303 O 0.71350 0.71889 0.80692
 O304 O 0.71289 0.77159 0.80738
 O305 O 0.80010 0.69749 0.78134
 O306 O 0.68900 0.79648 0.77856
 O307 O 0.77058 0.71923 0.80865
 O308 O 0.68905 0.69547 0.77751
 O309 O 0.70494 0.74575 0.76728
 O310 O 0.74496 0.70865 0.76790
 O311 O 0.74518 0.78377 0.76931
 O312 O 0.78349 0.74795 0.77036
 Zr313 Zr 0.74952 0.74946 0.70643
 Zr314 Zr 0.70847 0.78264 0.74680
 Zr315 Zr 0.78394 0.71185 0.74834
 Zr316 Zr 0.70840 0.70978 0.74572
 O317 O 0.83057 0.71579 0.74908
 O318 O 0.66204 0.71587 0.74290
 O319 O 0.74738 0.71072 0.72541
 O320 O 0.70929 0.74660 0.72496
 O321 O 0.74738 0.78654 0.72693
 O322 O 0.78700 0.74890 0.72811
 C323 C 0.69383 0.70122 0.79946
 C324 C 0.79186 0.70242 0.80282
 C325 C 0.69386 0.79018 0.80036
 O326 O 0.66200 0.77832 0.74390
 O327 O 0.69418 0.79941 0.71444
 O328 O 0.72250 0.77738 0.68651
 C329 C 0.70179 0.79467 0.69289
 O330 O 0.80161 0.79970 0.78198
 Zr331 Zr 0.78406 0.78490 0.74932
 O332 O 0.77773 0.77721 0.68812
 O333 O 0.71139 0.82757 0.74880
 O334 O 0.77615 0.82941 0.75063
 O335 O 0.83075 0.78035 0.74946
 O336 O 0.80009 0.80256 0.71750
 C337 C 0.79553 0.79664 0.69556
 O338 O 0.72813 0.72792 0.67828
 O339 O 0.78092 0.66685 0.74855
 O340 O 0.77896 0.72312 0.68758
 O341 O 0.80015 0.69528 0.71606
 O342 O 0.71464 0.66502 0.74703
 O343 O 0.69472 0.69117 0.71322
 C344 C 0.79633 0.70295 0.69437
 H345 H 0.74483 0.69096 0.77742
 H346 H 0.69223 0.74616 0.71399
 H347 H 0.80580 0.74911 0.71913
 H348 H 0.74471 0.80058 0.77990
 H349 H 0.65241 0.69738 0.74643
 H350 H 0.65355 0.79779 0.74463
 H351 H 0.69092 0.83500 0.74763
 H352 H 0.79520 0.83912 0.74741
 H353 H 0.69506 0.65624 0.75008
 H354 H 0.80142 0.65951 0.74973
 H355 H 0.83867 0.69618 0.74857
 H356 H 0.83939 0.79941 0.74643
 H357 H 0.67828 0.67769 0.71618
 H358 H 0.73631 0.73564 0.66331
 H359 H 0.75534 0.76018 0.83172
 H360 H 0.81473 0.81622 0.77905
 Zr361 Zr 1.25365 0.74979 0.20870
 O362 O 1.23290 0.77137 0.18029
 O363 O 1.28296 0.72267 0.19089
 O364 O 1.28436 0.77406 0.18962
 O365 O 1.19710 0.70117 0.21601
 O366 O 1.30707 0.80128 0.21765
 O367 O 1.22705 0.72231 0.18872
 O368 O 1.30800 0.70081 0.22076
 O369 O 1.29126 0.75143 0.23014
 O370 O 1.25193 0.71354 0.22999
 O371 O 1.25034 0.78863 0.22698
 O372 O 1.21259 0.75222 0.22631
 Zr373 Zr 1.24603 0.75585 0.29051
 Zr374 Zr 1.28683 0.78900 0.24973
 Zr375 Zr 1.21254 0.71683 0.24892
 Zr376 Zr 1.28835 0.71607 0.25228
 O377 O 1.16589 0.72021 0.24736
 O378 O 1.33454 0.72331 0.25499
 O379 O 1.24895 0.71676 0.27211
 O380 O 1.28659 0.75359 0.27233
 O381 O 1.24761 0.79231 0.26924
 O382 O 1.20870 0.75427 0.26866
 C383 C 1.30292 0.70556 0.19867
 C384 C 1.20593 0.70540 0.19458
 C385 C 1.30317 0.79305 0.19612
 O386 O 1.33315 0.78593 0.25450
 O387 O 1.29797 0.80906 0.28176
 O388 O 1.27170 0.78536 0.31003
 C389 C 1.29015 0.80474 0.30335
 O390 O 1.19342 0.80325 0.21385
 Zr391 Zr 1.21118 0.78968 0.24677
 O392 O 1.21768 0.78403 0.30818
 O393 O 1.28336 0.83366 0.24537
 O394 O 1.21842 0.83424 0.24450
 O395 O 1.16458 0.78433 0.24676
 O396 O 1.19501 0.80826 0.27830
 C397 C 1.20004 0.80336 0.30036
 O398 O 1.26793 0.73578 0.31911
 O399 O 1.21616 0.67190 0.24994
 O400 O 1.21742 0.72865 0.30970
 O401 O 1.19536 0.70163 0.28109
 O402 O 1.28348 0.67112 0.25202
 O403 O 1.30196 0.69897 0.28534
 C404 C 1.19947 0.70890 0.30283
 H405 H 1.25243 0.69552 0.22088
 H406 H 1.30346 0.75412 0.28350
 H407 H 1.18989 0.75453 0.27761
 H408 H 1.25076 0.80496 0.21591
 H409 H 1.34458 0.70491 0.25189
 H410 H 1.34111 0.80553 0.25313
 H411 H 1.30363 0.84153 0.24684
 H412 H 1.19923 0.84378 0.24754
 H413 H 1.30339 0.66280 0.24950
 H414 H 1.19580 0.66425 0.24852
 H415 H 1.15796 0.70053 0.24804
 H416 H 1.15562 0.80331 0.24956
 H417 H 1.31918 0.68625 0.28290
 H418 H 1.25942 0.74370 0.33390
 H419 H 1.24128 0.76362 0.16538
 H420 H 1.17983 0.81950 0.21650
 Zr421 Zr 0.74878 1.25546 0.20793
 O422 O 0.76793 1.23278 0.17935
 O423 O 0.72049 1.28391 0.19032
 O424 O 0.71683 1.23224 0.18905
 O425 O 0.80844 1.30074 0.21497
 O426 O 0.69286 1.20663 0.21740
 O427 O 0.77726 1.28108 0.18779
 O428 O 0.69761 1.30751 0.22044
 O429 O 0.71138 1.25644 0.22963
 O430 O 0.75315 1.29170 0.22909
 O431 O 0.74966 1.21671 0.22651
 O432 O 0.78968 1.25055 0.22550
 Zr433 Zr 0.75666 1.24941 0.28994
 Zr434 Zr 0.71335 1.21888 0.24937
 Zr435 Zr 0.79233 1.28605 0.24795
 Zr436 Zr 0.71697 1.29168 0.25170
 O437 O 0.83862 1.27962 0.24637
 O438 O 0.67041 1.28778 0.25510
 O439 O 0.75628 1.28848 0.27138
 O440 O 0.71631 1.25435 0.27182
 O441 O 0.75233 1.21295 0.26884
 O442 O 0.79384 1.24861 0.26790
 C443 C 0.70166 1.30209 0.19834
 C444 C 0.79939 1.29686 0.19354
 C445 C 0.69725 1.21408 0.19574
 O446 O 0.66721 1.22522 0.25286
 O447 O 0.69896 1.20181 0.28165
 O448 O 0.72850 1.22222 0.30967
 C449 C 0.70710 1.20572 0.30321
 O450 O 0.80526 1.19822 0.21326
 Zr451 Zr 0.78876 1.21325 0.24619
 O452 O 0.78309 1.21950 0.30757
 O453 O 0.71407 1.17393 0.24657
 O454 O 0.77853 1.16922 0.24416
 O455 O 0.83561 1.21583 0.24583
 O456 O 0.80413 1.19397 0.27767
 C457 C 0.79956 1.19921 0.29975
 O458 O 0.73674 1.27102 0.31873
 O459 O 0.79191 1.33114 0.24866
 O460 O 0.78722 1.27496 0.30881
 O461 O 0.81010 1.30095 0.28005
 O462 O 0.72529 1.33615 0.25093
 O463 O 0.70514 1.31006 0.28475
 C464 C 0.80577 1.29411 0.30184
 H465 H 0.75371 1.30961 0.21987
 H466 H 0.69945 1.25528 0.28297
 H467 H 0.81265 1.24732 0.27680
 H468 H 0.74816 1.20026 0.21560
 H469 H 0.66171 1.30683 0.25212
 H470 H 0.65783 1.20617 0.25187
 H471 H 0.69327 1.16740 0.24778
 H472 H 0.79706 1.15852 0.24717
 H473 H 0.70606 1.34583 0.24840
 H474 H 0.81276 1.33745 0.24723
 H475 H 0.84787 1.29874 0.24709
 H476 H 0.84339 1.19638 0.24867
 H477 H 0.68930 1.32433 0.28231
 H478 H 0.74488 1.26259 0.33346
 H479 H 0.75987 1.24095 0.16450
 H480 H 0.81783 1.18125 0.21594
 N481 N 0.53486 1.02898 0.04321
 N482 N 0.55349 1.03514 0.06039
 N483 N 0.47238 1.04891 0.02695
 N484 N 0.45214 1.06830 0.03214
 N485 N 0.47274 1.02880 0.04308
 N486 N 0.45261 1.03370 0.05942
 N487 N 0.53450 1.04937 0.02732
 N488 N 0.55289 1.07002 0.03342
 C489 C 0.56493 1.06058 0.05393
 C490 C 0.43971 1.05823 0.05232
 N491 N 0.47334 1.02895 -0.04068
 N492 N 0.45492 1.03503 -0.05802
 N493 N 0.53501 1.04931 -0.02373
 N494 N 0.55434 1.06956 -0.02854
 N495 N 0.53551 1.02946 -0.04014
 N496 N 0.55519 1.03584 -0.05659
 N497 N 0.47297 1.04910 -0.02452
 N498 N 0.45444 1.06960 -0.03072
 Mn499 Mn 0.50365 1.04946 0.00150
 C500 C 0.44296 1.06023 -0.05148
 C501 C 0.56705 1.06075 -0.04895
 N502 N 0.47288 0.96799 0.04303
 N503 N 0.45317 0.96278 0.05960
 N504 N 0.53481 0.94766 0.02683
 N505 N 0.55473 0.92790 0.03154
 N506 N 0.53505 0.96758 0.04313
 N507 N 0.55511 0.96185 0.05942
 N508 N 0.47266 0.94785 0.02692
 N509 N 0.45290 0.92812 0.03232
 Mn510 Mn 0.50396 0.99835 0.04326
 C511 C 0.44061 0.93804 0.05262
 C512 C 0.56746 0.93717 0.05181
 N513 N 0.53552 0.96760 -0.04021
 N514 N 0.55484 0.96110 -0.05688
 N515 N 0.47288 0.94791 -0.02422
 N516 N 0.45280 0.92832 -0.02907
 N517 N 0.47332 0.96758 -0.04072
 N518 N 0.45345 0.96191 -0.05720
 N519 N 0.53498 0.94768 -0.02392
 N520 N 0.55398 0.92725 -0.02900
 Mn521 Mn 0.50449 0.99840 -0.04065
 Mn522 Mn 0.50377 0.94752 0.00139
 Cl523 Cl 0.50397 0.99846 0.00134
 C524 C 0.56651 0.93606 -0.04945
 C525 C 0.44060 0.93749 -0.04958
 N526 N 1.05643 0.53052 0.52656
 N527 N 1.07672 0.54972 0.53225
 N528 N 1.03673 0.47084 0.54361
 N529 N 1.04228 0.45189 0.56025
 N530 N 1.05770 0.47058 0.52754
 N531 N 1.07809 0.45145 0.53286
 N532 N 1.03488 0.53071 0.54214
 N533 N 1.03972 0.55005 0.55857
 C534 C 1.06566 0.56205 0.55214
 C535 C 1.06802 0.43975 0.55325
 N536 N 0.95219 0.46819 0.52697
 N537 N 0.93180 0.44932 0.53312
 N538 N 0.97126 0.52922 0.54163
 N539 N 0.96374 0.54734 0.55846
 N540 N 0.95049 0.52790 0.52538
 N541 N 0.92817 0.54478 0.53099
 N542 N 0.97315 0.46932 0.54303
 N543 N 0.96781 0.45120 0.56028
 Mn544 Mn 1.00402 0.50004 0.54272
 C545 C 0.94217 0.43858 0.55383
 C546 C 0.93701 0.55721 0.55144
 N547 N 1.05854 0.46887 0.47633
 N548 N 1.07951 0.45001 0.47154
 N549 N 1.03656 0.52774 0.45878
 N550 N 1.04227 0.54631 0.44187
 N551 N 1.05705 0.52883 0.47524
 N552 N 1.07720 0.54820 0.46993
 N553 N 1.03773 0.46790 0.46013
 N554 N 1.04388 0.44846 0.44404
 Mn555 Mn 1.05776 0.49971 0.50141
 C556 C 1.06982 0.43719 0.45143
 C557 C 1.06751 0.55918 0.44916
 N558 N 0.95134 0.52626 0.47393
 N559 N 0.93027 0.54433 0.46759
 N560 N 0.97398 0.46634 0.45957
 N561 N 0.96872 0.44661 0.44344
 N562 N 0.95303 0.46639 0.47567
 N563 N 0.93295 0.44677 0.47085
 N564 N 0.97276 0.52625 0.45821
 N565 N 0.96698 0.54433 0.44101
 Mn566 Mn 0.95147 0.49718 0.50046
 Mn567 Mn 1.00526 0.49706 0.45902
 Cl568 Cl 1.00462 0.49853 0.50090
 C569 C 0.94060 0.55575 0.44712
 C570 C 0.94321 0.43433 0.45083
 N571 N 1.05391 0.53613 0.02384
 N572 N 1.07371 0.55596 0.02905
 N573 N 1.03432 0.47658 0.04110
 N574 N 1.03994 0.45770 0.05777
 N575 N 1.05522 0.47630 0.02500
 N576 N 1.07563 0.45722 0.03025
 N577 N 1.03242 0.53631 0.03945
 N578 N 1.03675 0.55624 0.05545
 C579 C 1.06236 0.56858 0.04868
 C580 C 1.06564 0.44560 0.05066
 N581 N 0.94991 0.47402 0.02451
 N582 N 0.93016 0.45433 0.03023
 N583 N 0.96908 0.53487 0.03895
 N584 N 0.96222 0.55390 0.05522
 N585 N 0.94859 0.53387 0.02252
 N586 N 0.92713 0.55211 0.02729
 N587 N 0.97096 0.47509 0.04048
 N588 N 0.96640 0.45616 0.05724
 Mn589 Mn 1.00170 0.50571 0.04014
 C590 C 0.94108 0.44314 0.05060
 C591 C 0.93618 0.56477 0.04759
 N592 N 1.05616 0.47423 -0.02591
 N593 N 1.07695 0.45506 -0.03013
 N594 N 1.03471 0.53287 -0.04398
 N595 N 1.04094 0.55122 -0.06098
 N596 N 1.05486 0.53405 -0.02727
 N597 N 1.07527 0.55317 -0.03245
 N598 N 1.03551 0.47302 -0.04222
 N599 N 1.04164 0.45310 -0.05791
 Mn600 Mn 1.05536 0.50520 -0.00109
 C601 C 1.06739 0.44184 -0.05006
 C602 C 1.06615 0.56399 -0.05340
 N603 N 0.94958 0.53175 -0.02873
 N604 N 0.92914 0.55063 -0.03465
 N605 N 0.97150 0.47177 -0.04300
 N606 N 0.96510 0.45285 -0.05956
 N607 N 0.95082 0.47199 -0.02666
 N608 N 0.92999 0.45323 -0.03164
 N609 N 0.97099 0.53156 -0.04444
 N610 N 0.96592 0.55032 -0.06124
 Mn611 Mn 0.94939 0.50291 -0.00211
 Mn612 Mn 1.00317 0.50227 -0.04362
 Cl613 Cl 1.00238 0.50403 -0.00170
 C614 C 0.93993 0.56228 -0.05486
 C615 C 0.93934 0.44113 -0.05204
 N616 N 0.55415 1.03292 0.47466
 N617 N 0.57629 1.03916 0.46035
 N618 N 0.53276 1.05373 0.52391
 N619 N 0.53746 1.07255 0.54085
 N620 N 0.55309 1.03376 0.52430
 N621 N 0.57231 1.03857 0.54144
 N622 N 0.53405 1.05312 0.47419
 N623 N 0.54205 1.07358 0.45948
 C624 C 0.56827 1.06438 0.45071
 C625 C 0.56215 1.06277 0.55172
 N626 N 0.44818 1.03546 0.52306
 N627 N 0.42858 1.04088 0.53980
 N628 N 0.47016 1.05376 0.47329
 N629 N 0.46604 1.07232 0.45609
 N630 N 0.44903 1.03453 0.47333
 N631 N 0.42984 1.03967 0.45622
 N632 N 0.46918 1.05476 0.52309
 N633 N 0.46455 1.07375 0.53993
 Mn634 Mn 0.50150 1.05410 0.49860
 C635 C 0.43919 1.06478 0.55028
 C636 C 0.44088 1.06322 0.44550
 N637 N 0.55223 0.97235 0.52480
 N638 N 0.57403 0.96518 0.53910
 N639 N 0.53210 0.95189 0.47520
 N640 N 0.53869 0.93130 0.46013
 N641 N 0.55297 0.97139 0.47528
 N642 N 0.57426 0.96452 0.46037
 N643 N 0.53151 0.95271 0.52485
 N644 N 0.53881 0.93169 0.53924
 Mn645 Mn 0.55329 1.00262 0.49975
 C646 C 0.56519 0.94001 0.54830
 C647 C 0.56491 0.93965 0.45079
 N648 N 0.44777 0.97278 0.47425
 N649 N 0.42646 0.96598 0.45926
 N650 N 0.46740 0.95381 0.52443
 N651 N 0.46182 0.93544 0.54155
 N652 N 0.44727 0.97400 0.52406
 N653 N 0.42765 0.97004 0.54106
 N654 N 0.46802 0.95270 0.47477
 N655 N 0.46095 0.93177 0.46022
 Mn656 Mn 0.44775 1.00421 0.49865
 Mn657 Mn 0.49972 0.95255 0.49981
 Cl658 Cl 0.50056 1.00334 0.49915
 C659 C 0.43519 0.94049 0.45039
 C660 C 0.43705 0.94594 0.55190
 N661 N 1.02888 0.94835 0.47583
 N662 N 1.03248 0.93014 0.45829
 N663 N 1.05013 0.96788 0.52535
 N664 N 1.07199 0.96026 0.53944
 N665 N 1.02906 0.94861 0.52552
 N666 N 1.03610 0.92743 0.53980
 N667 N 1.05002 0.96754 0.47580
 N668 N 1.06871 0.96280 0.45830
 C669 C 1.05740 0.93943 0.44748
 C670 C 1.06275 0.93521 0.54864
 N671 N 1.03102 1.04936 0.52511
 N672 N 1.03538 1.06747 0.54263
 N673 N 1.05174 1.02886 0.47568
 N674 N 1.07316 1.03464 0.46060
 N675 N 1.03166 1.04905 0.47546
 N676 N 1.03885 1.06907 0.46015
 N677 N 1.05127 1.02930 0.52525
 N678 N 1.07009 1.03331 0.54280
 Mn679 Mn 1.05106 0.99840 0.50052
 C680 C 1.05981 1.05716 0.55354
 C681 C 1.06460 1.05961 0.45081
 N682 N 0.96518 0.95038 0.52548
 N683 N 0.95967 0.93200 0.54254
 N684 N 0.94511 0.96965 0.47560
 N685 N 0.92326 0.96268 0.46120
 N686 N 0.96527 0.94951 0.47594
 N687 N 0.95767 0.92841 0.46179
 N688 N 0.94512 0.97063 0.52520
 N689 N 0.92553 0.96667 0.54217
 Mn690 Mn 0.99709 0.94896 0.50072
 C691 C 0.93498 0.94255 0.55292
 C692 C 0.93166 0.93708 0.45244
 N693 N 0.96807 1.05033 0.47478
 N694 N 0.96435 1.06857 0.45729
 N695 N 0.94636 1.03186 0.52444
 N696 N 0.92570 1.03846 0.53998
 N697 N 0.96743 1.05108 0.52448
 N698 N 0.96171 1.07126 0.54008
 N699 N 0.94687 1.03120 0.47482
 N700 N 0.92802 1.03603 0.45744
 Mn701 Mn 0.99955 1.05025 0.49996
 Mn702 Mn 0.94557 1.00085 0.49999
 Cl703 Cl 0.99831 0.99960 0.50030
 C704 C 0.93932 1.05935 0.44657
 C705 C 0.93574 1.06293 0.54979
 N706 N 0.55104 0.53246 0.02518
 N707 N 0.57123 0.55199 0.03018
 N708 N 0.53038 0.47310 0.04268
 N709 N 0.53555 0.45383 0.05916
 N710 N 0.55132 0.47266 0.02662
 N711 N 0.57130 0.45311 0.03169
 N712 N 0.52975 0.53298 0.04095
 N713 N 0.53456 0.55296 0.05683
 C714 C 0.56031 0.56489 0.04984
 C715 C 0.56104 0.44135 0.05195
 N716 N 0.44566 0.47243 0.02621
 N717 N 0.42512 0.45367 0.03216
 N718 N 0.46646 0.53275 0.04045
 N719 N 0.46093 0.55275 0.05620
 N720 N 0.44578 0.53220 0.02414
 N721 N 0.42541 0.55171 0.02856
 N722 N 0.46678 0.47296 0.04217
 N723 N 0.46137 0.45457 0.05918
 Mn724 Mn 0.49833 0.50291 0.04174
 C725 C 0.43552 0.44243 0.05266
 C726 C 0.43544 0.56462 0.04849
 N727 N 0.55202 0.47031 -0.02422
 N728 N 0.57259 0.45093 -0.02838
 N729 N 0.53102 0.52898 -0.04239
 N730 N 0.53577 0.54860 -0.05862
 N731 N 0.55147 0.53008 -0.02593
 N732 N 0.57084 0.55036 -0.03060
 N733 N 0.53120 0.46909 -0.04038
 N734 N 0.53697 0.44885 -0.05590
 Mn735 Mn 0.55180 0.50142 0.00040
 C736 C 0.56270 0.43748 -0.04808
 C737 C 0.56058 0.56189 -0.05097
 N738 N 0.44635 0.52976 -0.02722
 N739 N 0.42654 0.54927 -0.03318
 N740 N 0.46738 0.46894 -0.04092
 N741 N 0.46172 0.44898 -0.05673
 N742 N 0.44632 0.46993 -0.02493
 N743 N 0.42578 0.45067 -0.02949
 N744 N 0.46763 0.52874 -0.04301
 N745 N 0.46314 0.54757 -0.05986
 Mn746 Mn 0.44565 0.50112 -0.00046
 Mn747 Mn 0.49931 0.49887 -0.04188
 Cl748 Cl 0.49874 0.50107 -0.00006
 C749 C 0.43760 0.56042 -0.05351
 C750 C 0.43588 0.43752 -0.04924
 C751 C 0.30135 1.19553 0.14751
 C752 C 0.31613 1.18136 0.12921
 C753 C 0.33586 1.15910 0.13420
 C754 C 0.34108 1.15172 0.15796
 C755 C 0.32637 1.16587 0.17624
 C756 C 0.30626 1.18791 0.17126
 C757 C 0.35158 1.14483 0.11442
 C758 C 0.36127 1.11787 0.11590
 C759 C 0.37905 1.10301 0.09755
 C760 C 0.38502 1.07396 0.10095
 C761 C 0.40391 1.05931 0.08571
 C762 C 0.41726 1.07332 0.06658
 C763 C 0.41053 1.10209 0.06247
 C764 C 0.39171 1.11691 0.07788
 H765 H 0.28618 1.21254 0.14301
 H766 H 0.31201 1.18771 0.11109
 H767 H 0.35699 1.13544 0.16262
 H768 H 0.33097 1.15963 0.19430
 H769 H 0.35438 1.15681 0.09827
 H770 H 0.35597 1.10568 0.13159
 H771 H 0.37563 1.06264 0.11586
 H772 H 0.40858 1.03708 0.08925
 H773 H 0.42066 1.11341 0.04789
 H774 H 0.38810 1.13931 0.07462
 C775 C 0.82418 0.70327 0.65621
 C776 C 0.84173 0.68971 0.63922
 C777 C 0.84830 0.66062 0.64126
 C778 C 0.83756 0.64537 0.66086
 C779 C 0.82071 0.65913 0.67822
 C780 C 0.81374 0.68817 0.67597
 C781 C 0.86752 0.64691 0.62341
 C782 C 0.86209 0.62074 0.61502
 C783 C 0.88157 0.60659 0.59758
 C784 C 0.86903 0.58911 0.58011
 C785 C 0.88708 0.57407 0.56434
 C786 C 0.91802 0.57556 0.56628
 C787 C 0.93060 0.59316 0.58369
 C788 C 0.91254 0.60878 0.59906
 H789 H 0.81936 0.72575 0.65421
 H790 H 0.85002 0.70188 0.62437
 H791 H 0.84281 0.62302 0.66305
 H792 H 0.81299 0.64707 0.69333
 H793 H 0.88572 0.65920 0.61623
 H794 H 0.84212 0.60971 0.62041
 H795 H 0.84522 0.58696 0.57878
 H796 H 0.87683 0.56043 0.55122
 H797 H 0.95440 0.59454 0.58560
 H798 H 0.92281 0.62169 0.61267
 C799 C 0.69364 0.84835 0.18318
 C800 C 0.68161 0.86646 0.16618
 C801 C 0.67801 0.85729 0.14277
 C802 C 0.68793 0.82987 0.13640
 C803 C 0.70038 0.81179 0.15343
 C804 C 0.70289 0.82070 0.17709
 C805 C 0.66346 0.87694 0.12590
 C806 C 0.64733 0.86809 0.10738
 C807 C 0.62898 0.88746 0.09265
 C808 C 0.61936 0.87794 0.07040
 C809 C 0.60004 0.89446 0.05679
 C810 C 0.58975 0.92080 0.06526
 C811 C 0.59972 0.93063 0.08731
 C812 C 0.61900 0.91413 0.10093
 H813 H 0.69560 0.85604 0.20119
 H814 H 0.67439 0.88753 0.17151
 H815 H 0.68626 0.82238 0.11835
 H816 H 0.70750 0.79067 0.14818
 H817 H 0.66453 0.89940 0.13008
 H818 H 0.64643 0.84559 0.10321
 H819 H 0.62646 0.85743 0.06366
 H820 H 0.59267 0.88631 0.03985
 H821 H 0.59198 0.95076 0.09436
 H822 H 0.62494 0.92200 0.11826
 C823 C 1.15034 0.31337 0.68660
 C824 C 1.13327 0.32752 0.66975
 C825 C 1.14290 0.32972 0.64626
 C826 C 1.16970 0.31657 0.63972
 C827 C 1.18666 0.30195 0.65660
 C828 C 1.17730 0.30052 0.68030
 C829 C 1.12407 0.34571 0.62939
 C830 C 1.13461 0.35999 0.61063
 C831 C 1.11615 0.37906 0.59560
 C832 C 1.12709 0.38769 0.57346
 C833 C 1.11126 0.40697 0.55941
 C834 C 1.08417 0.41815 0.56728
 C835 C 1.07304 0.40937 0.58927
 C836 C 1.08885 0.39024 0.60333
 H837 H 1.14227 0.31241 0.70462
 H838 H 1.11263 0.33725 0.67521
 H839 H 1.17743 0.31723 0.62162
 H840 H 1.20726 0.29212 0.65118
 H841 H 1.10081 0.34694 0.63370
 H842 H 1.15793 0.35853 0.60640
 H843 H 1.14813 0.37969 0.56711
 H844 H 1.12043 0.41341 0.54255
 H845 H 1.05233 0.41780 0.59590
 H846 H 1.07985 0.38517 0.62052
 C847 C 0.69313 1.15242 -0.17959
 C848 C 0.68096 1.13447 -0.16255
 C849 C 0.67516 1.14446 -0.13966
 C850 C 0.68292 1.17271 -0.13384
 C851 C 0.69550 1.19069 -0.15092
 C852 C 0.70030 1.18082 -0.17409
 C853 C 0.66083 1.12460 -0.12279
 C854 C 0.64375 1.13302 -0.10469
 C855 C 0.62614 1.11297 -0.09000
 C856 C 0.61633 1.12199 -0.06767
 C857 C 0.59784 1.10466 -0.05402
 C858 C 0.58853 1.07798 -0.06254
 C859 C 0.59863 1.06870 -0.08471
 C860 C 0.61712 1.08601 -0.09836
 H861 H 0.69688 1.14396 -0.19717
 H862 H 0.67545 1.11278 -0.16746
 H863 H 0.67952 1.18094 -0.11617
 H864 H 0.70099 1.21241 -0.14611
 H865 H 0.66309 1.10210 -0.12655
 H866 H 0.64166 1.15550 -0.10075
 H867 H 0.62268 1.14270 -0.06087
 H868 H 0.59035 1.11243 -0.03701
 H869 H 0.59161 1.04835 -0.09181
 H870 H 0.62325 1.07852 -0.11577
 C871 C 1.15584 0.67902 0.31378
 C872 C 1.13830 0.66492 0.33034
 C873 C 1.14606 0.66472 0.35434
 C874 C 1.17159 0.67959 0.36159
 C875 C 1.18902 0.69415 0.34497
 C876 C 1.18143 0.69381 0.32083
 C877 C 1.12647 0.64918 0.37095
 C878 C 1.13584 0.63681 0.39100
 C879 C 1.11682 0.61831 0.40612
 C880 C 1.12678 0.61101 0.42888
 C881 C 1.11052 0.59229 0.44314
 C882 C 1.08392 0.58039 0.43490
 C883 C 1.07370 0.58792 0.41232
 C884 C 1.08996 0.60647 0.39803
 H885 H 1.14909 0.67855 0.29540
 H886 H 1.11868 0.65382 0.32430
 H887 H 1.17784 0.68045 0.38005
 H888 H 1.20849 0.70551 0.35097
 H889 H 1.10374 0.64673 0.36542
 H890 H 1.15869 0.63946 0.39633
 H891 H 1.14742 0.61956 0.43556
 H892 H 1.11899 0.58681 0.46046
 H893 H 1.05340 0.57891 0.40540
 H894 H 1.08162 0.61054 0.38047
 C895 C 0.30900 0.85381 -0.18054
 C896 C 0.32205 0.87105 -0.16335
 C897 C 0.32707 0.86071 -0.14046
 C898 C 0.31752 0.83297 -0.13475
 C899 C 0.30405 0.81574 -0.15196
 C900 C 0.30014 0.82585 -0.17515
 C901 C 0.34262 0.87958 -0.12345
 C902 C 0.35929 0.87000 -0.10550
 C903 C 0.37827 0.88881 -0.09072
 C904 C 0.38798 0.87890 -0.06862
 C905 C 0.40762 0.89503 -0.05493
 C906 C 0.41818 0.92136 -0.06318
 C907 C 0.40824 0.93151 -0.08513
 C908 C 0.38863 0.91541 -0.09881
 H909 H 0.30600 0.86241 -0.19815
 H910 H 0.32894 0.89239 -0.16817
 H911 H 0.32026 0.82454 -0.11709
 H912 H 0.29730 0.79434 -0.14725
 H913 H 0.34168 0.90219 -0.12702
 H914 H 0.36005 0.84739 -0.10181
 H915 H 0.38062 0.85842 -0.06204
 H916 H 0.41498 0.88662 -0.03810
 H917 H 0.41620 0.95162 -0.09202
 H918 H 0.38264 0.92353 -0.11604
 C919 C 0.84375 0.33070 0.31269
 C920 C 0.86118 0.34503 0.32921
 C921 C 0.85925 0.33860 0.35338
 C922 C 0.83951 0.31707 0.36067
 C923 C 0.82196 0.30263 0.34405
 C924 C 0.82388 0.30931 0.31983
 C925 C 0.87871 0.35467 0.36988
 C926 C 0.87506 0.35606 0.39342
 C927 C 0.89386 0.37436 0.40878
 C928 C 0.88208 0.38497 0.43001
 C929 C 0.89840 0.40388 0.44407
 C930 C 0.92693 0.41242 0.43721
 C931 C 0.93928 0.40079 0.41656
 C932 C 0.92304 0.38183 0.40257
 H933 H 0.84598 0.33647 0.29424
 H934 H 0.87622 0.36138 0.32302
 H935 H 0.83778 0.31094 0.37904
 H936 H 0.80707 0.28613 0.35015
 H937 H 0.89590 0.36743 0.36180
 H938 H 0.85647 0.34542 0.40160
 H939 H 0.85985 0.37928 0.43539
 H940 H 0.88838 0.41234 0.45999
 H941 H 0.96140 0.40662 0.41103
 H942 H 0.93344 0.37319 0.38690
 C943 C 1.15249 0.32361 0.18425
 C944 C 1.13495 0.33755 0.16764
 C945 C 1.14390 0.33937 0.14397
 C946 C 1.17066 0.32648 0.13705
 C947 C 1.18813 0.31218 0.15368
 C948 C 1.17923 0.31068 0.17748
 C949 C 1.12440 0.35456 0.12724
 C950 C 1.13439 0.36856 0.10820
 C951 C 1.11527 0.38673 0.09312
 C952 C 1.12546 0.39460 0.07060
 C953 C 1.10902 0.41321 0.05646
 C954 C 1.08211 0.42440 0.06468
 C955 C 1.07167 0.41629 0.08703
 C956 C 1.08811 0.39785 0.10119
 H957 H 1.14480 0.32260 0.20238
 H958 H 1.11436 0.34718 0.17336
 H959 H 1.17786 0.32690 0.11881
 H960 H 1.20854 0.30227 0.14791
 H961 H 1.10119 0.35533 0.13178
 H962 H 1.15767 0.36755 0.10375
 H963 H 1.14638 0.38657 0.06403
 H964 H 1.11761 0.41920 0.03929
 H965 H 1.05111 0.42482 0.09389
 H966 H 1.07977 0.39335 0.11869
 C967 C 0.65589 0.81945 0.68008
 C968 C 0.63868 0.83309 0.66312
 C969 C 0.64970 0.83772 0.64033
 C970 C 0.67821 0.82777 0.63454
 C971 C 0.69538 0.81360 0.65152
 C972 C 0.68442 0.80956 0.67453
 C973 C 0.63048 0.85260 0.62321
 C974 C 0.64090 0.86966 0.60619
 C975 C 0.62109 0.88711 0.59121
 C976 C 0.63125 0.91347 0.58288
 C977 C 0.61285 0.93090 0.56932
 C978 C 0.58403 0.92209 0.56354
 C979 C 0.57395 0.89552 0.57156
 C980 C 0.59231 0.87814 0.58523
 H981 H 0.64658 0.81632 0.69754
 H982 H 0.61673 0.84037 0.66793
 H983 H 0.68703 0.83050 0.61689
 H984 H 0.71720 0.80602 0.64672
 H985 H 0.60686 0.85161 0.62632
 H986 H 0.66453 0.87303 0.60463
 H987 H 0.65336 0.92077 0.58716
 H988 H 0.62129 0.95119 0.56320
 H989 H 0.55197 0.88805 0.56710
 H990 H 0.58405 0.85756 0.59078
 C991 C 1.17356 0.66508 -0.19009
 C992 C 1.15684 0.64934 -0.17402
 C993 C 1.15789 0.65525 -0.14974
 C994 C 1.17671 0.67721 -0.14178
 C995 C 1.19369 0.69301 -0.15788
 C996 C 1.19209 0.68754 -0.18244
 C997 C 1.13833 0.63827 -0.13394
 C998 C 1.13836 0.63938 -0.11021
 C999 C 1.11862 0.62126 -0.09553
 C1000 C 1.12778 0.61353 -0.07271
 C1001 C 1.11044 0.59539 -0.05882
 C1002 C 1.08339 0.58481 -0.06740
 C1003 C 1.07359 0.59345 -0.08984
 C1004 C 1.09094 0.61157 -0.10374
 H1005 H 1.17147 0.65964 -0.20865
 H1006 H 1.14268 0.63255 -0.18075
 H1007 H 1.17819 0.68275 -0.12327
 H1008 H 1.20757 0.70991 -0.15098
 H1009 H 1.12358 0.62335 -0.14257
 H1010 H 1.15426 0.65252 -0.10100
 H1011 H 1.14877 0.62098 -0.06582
 H1012 H 1.11847 0.58926 -0.04151
 H1013 H 1.05267 0.58593 -0.09679
 H1014 H 1.08250 0.61797 -0.12083
 C1015 C 0.66089 1.18124 0.31607
 C1016 C 0.64366 1.16744 0.33296
 C1017 C 0.65480 1.16217 0.35564
 C1018 C 0.68355 1.17158 0.36132
 C1019 C 0.70077 1.18589 0.34442
 C1020 C 0.68963 1.19068 0.32154
 C1021 C 0.63527 1.14754 0.37281
 C1022 C 0.64523 1.13075 0.39023
 C1023 C 0.62503 1.11422 0.40570
 C1024 C 0.63481 1.08822 0.41511
 C1025 C 0.61618 1.07181 0.42939
 C1026 C 0.58748 1.08128 0.43485
 C1027 C 0.57779 1.10749 0.42574
 C1028 C 0.59636 1.12383 0.41134
 H1029 H 0.65144 1.18486 0.29872
 H1030 H 0.62154 1.16061 0.32819
 H1031 H 0.69254 1.16839 0.37886
 H1032 H 0.72277 1.19304 0.34917
 H1033 H 0.61168 1.14881 0.36960
 H1034 H 0.66880 1.12713 0.39202
 H1035 H 0.65683 1.08043 0.41116
 H1036 H 0.62436 1.05180 0.43631
 H1037 H 0.55591 1.11547 0.42987
 H1038 H 0.58835 1.14416 0.40500
 C1039 C 0.83036 0.65909 0.18747
 C1040 C 0.84697 0.64414 0.17077
 C1041 C 0.84588 0.65150 0.14673
 C1042 C 0.82749 0.67418 0.13969
 C1043 C 0.81078 0.68915 0.15643
 C1044 C 0.81224 0.68196 0.18056
 C1045 C 0.86531 0.63576 0.13008
 C1046 C 0.86237 0.63593 0.10645
 C1047 C 0.88228 0.61938 0.09076
 C1048 C 0.87150 0.60915 0.06907
 C1049 C 0.88926 0.59202 0.05458
 C1050 C 0.91822 0.58505 0.06150
 C1051 C 0.92948 0.59645 0.08263
 C1052 C 0.91179 0.61354 0.09706
 H1053 H 0.83206 0.65291 0.20587
 H1054 H 0.86099 0.62685 0.17672
 H1055 H 0.82645 0.68104 0.12147
 H1056 H 0.79717 0.70674 0.15050
 H1057 H 0.88227 0.62250 0.13793
 H1058 H 0.84394 0.64686 0.09832
 H1059 H 0.84900 0.61371 0.06365
 H1060 H 0.88008 0.58366 0.03830
 H1061 H 0.95188 0.59179 0.08823
 H1062 H 0.92131 0.62206 0.11313
 C1063 C 0.29638 1.17795 0.65804
 C1064 C 0.31055 1.16159 0.64073
 C1065 C 0.33731 1.14768 0.64571
 C1066 C 0.34930 1.14984 0.66860
 C1067 C 0.33498 1.16595 0.68599
 C1068 C 0.30843 1.18033 0.68089
 C1069 C 0.35163 1.13049 0.62690
 C1070 C 0.38098 1.12639 0.62573
 C1071 C 0.39540 1.11006 0.60647
 C1072 C 0.42440 1.11716 0.59986
 C1073 C 0.43865 1.10242 0.58163
 C1074 C 0.42433 1.07991 0.56991
 C1075 C 0.39559 1.07226 0.57690
 C1076 C 0.38120 1.08722 0.59497
 H1077 H 0.27584 1.18852 0.65355
 H1078 H 0.30072 1.16003 0.62329
 H1079 H 0.36943 1.13872 0.67329
 H1080 H 0.34479 1.16718 0.70345
 H1081 H 0.33765 1.12249 0.61282
 H1082 H 0.39526 1.13685 0.63844
 H1083 H 0.43592 1.13446 0.60862
 H1084 H 0.46089 1.10864 0.57672
 H1085 H 0.38411 1.05486 0.56828
 H1086 H 0.35918 1.08062 0.60010
 C1087 C 0.82065 0.34809 -0.18664
 C1088 C 0.83817 0.36351 -0.17084
 C1089 C 0.84117 0.35482 -0.14723
 C1090 C 0.82550 0.33053 -0.13959
 C1091 C 0.80780 0.31512 -0.15543
 C1092 C 0.80561 0.32344 -0.17925
 C1093 C 0.86193 0.37100 -0.13187
 C1094 C 0.86349 0.36859 -0.10825
 C1095 C 0.88426 0.38578 -0.09376
 C1096 C 0.87638 0.39278 -0.07047
 C1097 C 0.89466 0.41020 -0.05671
 C1098 C 0.92143 0.42068 -0.06588
 C1099 C 0.93003 0.41264 -0.08879
 C1100 C 0.91167 0.39532 -0.10260
 H1101 H 0.81944 0.35522 -0.20483
 H1102 H 0.84988 0.38210 -0.17727
 H1103 H 0.82749 0.32268 -0.12170
 H1104 H 0.79672 0.29609 -0.14921
 H1105 H 0.87600 0.38643 -0.14058
 H1106 H 0.84797 0.35516 -0.09892
 H1107 H 0.85561 0.38540 -0.06313
 H1108 H 0.88756 0.41588 -0.03903
 H1109 H 0.95069 0.42016 -0.09622
 H1110 H 0.91904 0.38945 -0.12015
 C1111 C 0.31477 0.85037 0.31476
 C1112 C 0.32834 0.86812 0.33135
 C1113 C 0.33154 0.85938 0.35489
 C1114 C 0.31976 0.83288 0.36182
 C1115 C 0.30566 0.81525 0.34525
 C1116 C 0.30347 0.82364 0.32145
 C1117 C 0.34712 0.87854 0.37160
 C1118 C 0.36383 0.86892 0.38947
 C1119 C 0.38183 0.88797 0.40471
 C1120 C 0.40786 0.87727 0.41489
 C1121 C 0.42549 0.89453 0.42932
 C1122 C 0.41718 0.92278 0.43420
 C1123 C 0.39099 0.93349 0.42421
 C1124 C 0.37347 0.91628 0.40959
 H1125 H 0.31311 0.85764 0.29663
 H1126 H 0.33695 0.88853 0.32563
 H1127 H 0.32122 0.82586 0.38001
 H1128 H 0.29701 0.79486 0.35094
 H1129 H 0.34698 0.90111 0.36761
 H1130 H 0.36635 0.84615 0.39191
 H1131 H 0.41471 0.85552 0.41152
 H1132 H 0.44545 0.88562 0.43690
 H1133 H 0.38391 0.95510 0.42784
 H1134 H 0.35315 0.92504 0.40255
 C1135 C 1.15125 1.17400 0.31289
 C1136 C 1.13416 1.16016 0.32983
 C1137 C 1.14487 1.15651 0.35286
 C1138 C 1.17272 1.16772 0.35895
 C1139 C 1.18973 1.18196 0.34203
 C1140 C 1.17923 1.18499 0.31878
 C1141 C 1.12613 1.14138 0.37007
 C1142 C 1.13728 1.12540 0.38750
 C1143 C 1.11821 1.10879 0.40356
 C1144 C 1.12891 1.08314 0.41294
 C1145 C 1.11125 1.06679 0.42796
 C1146 C 1.08274 1.07609 0.43411
 C1147 C 1.07214 1.10192 0.42496
 C1148 C 1.08972 1.11818 0.40986
 H1149 H 1.14240 1.17631 0.29519
 H1150 H 1.11264 1.15191 0.32485
 H1151 H 1.18120 1.16587 0.37679
 H1152 H 1.21114 1.19037 0.34708
 H1153 H 1.10247 1.14161 0.36703
 H1154 H 1.16101 1.12267 0.38900
 H1155 H 1.15086 1.07562 0.40843
 H1156 H 1.12002 1.04704 0.43494
 H1157 H 1.05035 1.10971 0.42963
 H1158 H 1.08114 1.13829 0.40350
 C1159 C 0.65578 0.66474 -0.18977
 C1160 C 0.63824 0.65081 -0.17313
 C1161 C 0.63987 0.65804 -0.14908
 C1162 C 0.65920 0.67999 -0.14203
 C1163 C 0.67687 0.69391 -0.15870
 C1164 C 0.67540 0.68639 -0.18276
 C1165 C 0.62076 0.64231 -0.13229
 C1166 C 0.62522 0.64133 -0.10885
 C1167 C 0.60717 0.62313 -0.09307
 C1168 C 0.61994 0.61248 -0.07224
 C1169 C 0.60446 0.59321 -0.05804
 C1170 C 0.57587 0.58438 -0.06442
 C1171 C 0.56246 0.59620 -0.08452
 C1172 C 0.57785 0.61555 -0.09863
 H1173 H 0.65399 0.65843 -0.20814
 H1174 H 0.62343 0.63412 -0.17908
 H1175 H 0.66054 0.68685 -0.12380
 H1176 H 0.69148 0.71075 -0.15275
 H1177 H 0.60342 0.62938 -0.13999
 H1178 H 0.64409 0.65201 -0.10112
 H1179 H 0.64233 0.61831 -0.06740
 H1180 H 0.61520 0.58457 -0.04250
 H1181 H 0.54021 0.59016 -0.08958
 H1182 H 0.56674 0.62430 -0.11393
 C1183 C 0.85342 1.18416 0.68719
 C1184 C 0.87089 1.16991 0.67064
 C1185 C 0.86019 1.16473 0.64778
 C1186 C 0.83214 1.17515 0.64137
 C1187 C 0.81475 1.18970 0.65786
 C1188 C 0.82505 1.19397 0.68105
 C1189 C 0.87884 1.14852 0.63109
 C1190 C 0.86738 1.13131 0.61456
 C1191 C 0.88579 1.11378 0.59860
 C1192 C 0.87389 1.08850 0.58939
 C1193 C 0.89040 1.07160 0.57392
 C1194 C 0.91899 1.07992 0.56714
 C1195 C 0.93094 1.10525 0.57629
 C1196 C 0.91449 1.12208 0.59185
 H1197 H 0.86212 1.18740 0.70484
 H1198 H 0.89258 1.16235 0.67586
 H1199 H 0.82365 1.17224 0.62363
 H1200 H 0.79307 1.19715 0.65255
 H1201 H 0.90255 1.14912 0.63380
 H1202 H 0.84361 1.12850 0.61359
 H1203 H 0.85177 1.08177 0.59422
 H1204 H 0.88060 1.05224 0.56703
 H1205 H 0.95285 1.11226 0.57117
 H1206 H 0.92405 1.14185 0.59806
 C1207 C 0.34146 0.66926 0.18815
 C1208 C 0.35844 0.65464 0.17146
 C1209 C 0.35544 0.66042 0.14722
 C1210 C 0.33540 0.68166 0.14001
 C1211 C 0.31835 0.69625 0.15672
 C1212 C 0.32110 0.69016 0.18099
 C1213 C 0.37410 0.64424 0.13033
 C1214 C 0.36837 0.64179 0.10710
 C1215 C 0.38666 0.62396 0.09112
 C1216 C 0.37362 0.61192 0.07089
 C1217 C 0.38970 0.59331 0.05642
 C1218 C 0.41917 0.58656 0.06193
 C1219 C 0.43267 0.59977 0.08143
 C1220 C 0.41669 0.61842 0.09579
 H1221 H 0.34424 0.66406 0.20668
 H1222 H 0.37387 0.63856 0.17753
 H1223 H 0.33304 0.68746 0.12161
 H1224 H 0.30313 0.71247 0.15058
 H1225 H 0.39244 0.63247 0.13781
 H1226 H 0.34857 0.65121 0.09976
 H1227 H 0.35065 0.61620 0.06670
 H1228 H 0.37883 0.58354 0.04139
 H1229 H 0.45553 0.59534 0.08584
 H1230 H 0.42795 0.62828 0.11056
 C1231 C 1.15459 0.82277 0.68343
 C1232 C 1.13674 0.83499 0.66614
 C1233 C 1.14526 0.83449 0.64240
 C1234 C 1.17162 0.82062 0.63598
 C1235 C 1.18936 0.80773 0.65324
 C1236 C 1.18134 0.80889 0.67739
 C1237 C 1.12597 0.84869 0.62499
 C1238 C 1.13662 0.86321 0.60651
 C1239 C 1.11737 0.88099 0.59139
 C1240 C 1.12883 0.90621 0.58179
 C1241 C 1.11089 0.92412 0.56826
 C1242 C 1.08127 0.91684 0.56375
 C1243 C 1.06992 0.89133 0.57297
 C1244 C 1.08779 0.87354 0.58668
 H1245 H 1.14705 0.82418 0.70158
 H1246 H 1.11640 0.84544 0.67144
 H1247 H 1.17837 0.81947 0.61763
 H1248 H 1.20950 0.79720 0.64759
 H1249 H 1.10260 0.84995 0.62912
 H1250 H 1.16033 0.86452 0.60387
 H1251 H 1.15157 0.91231 0.58512
 H1252 H 1.12029 0.94354 0.56117
 H1253 H 1.04726 0.88507 0.56952
 H1254 H 1.07851 0.85385 0.59332
 C1255 C 0.66512 0.34042 0.18874
 C1256 C 0.64701 0.35484 0.17277
 C1257 C 0.64649 0.34717 0.14879
 C1258 C 0.66440 0.32441 0.14110
 C1259 C 0.68265 0.31000 0.15711
 C1260 C 0.68317 0.31783 0.18112
 C1261 C 0.62654 0.36319 0.13279
 C1262 C 0.62905 0.36352 0.10916
 C1263 C 0.61015 0.38170 0.09397
 C1264 C 0.62142 0.39127 0.07226
 C1265 C 0.60512 0.41011 0.05826
 C1266 C 0.57713 0.41957 0.06566
 C1267 C 0.56522 0.40896 0.08681
 C1268 C 0.58147 0.39008 0.10079
 H1269 H 0.66490 0.34702 0.20710
 H1270 H 0.63336 0.37218 0.17922
 H1271 H 0.66408 0.31722 0.12294
 H1272 H 0.69599 0.29243 0.15072
 H1273 H 0.61023 0.37675 0.14115
 H1274 H 0.64693 0.35214 0.10065
 H1275 H 0.64326 0.38484 0.06646
 H1276 H 0.61474 0.41779 0.04193
 H1277 H 0.54348 0.41556 0.09274
 H1278 H 0.57151 0.38222 0.11690
 C1279 C 0.84716 0.80770 0.32379
 C1280 C 0.86375 0.82139 0.34115
 C1281 C 0.85062 0.82960 0.36252
 C1282 C 0.82080 0.82262 0.36676
 C1283 C 0.80422 0.80844 0.34945
 C1284 C 0.81716 0.80140 0.32763
 C1285 C 0.86883 0.84543 0.37973
 C1286 C 0.85775 0.86529 0.39427
 C1287 C 0.87688 0.88326 0.40941
 C1288 C 0.86736 0.91075 0.41554
 C1289 C 0.88532 0.92854 0.42925
 C1290 C 0.91303 0.91898 0.43720
 C1291 C 0.92236 0.89134 0.43136
 C1292 C 0.90443 0.87358 0.41774
 H1293 H 0.85781 0.80217 0.30724
 H1294 H 0.88676 0.82627 0.33761
 H1295 H 0.81031 0.82802 0.38338
 H1296 H 0.78116 0.80368 0.35287
 H1297 H 0.89256 0.84257 0.37858
 H1298 H 0.83436 0.87026 0.39362
 H1299 H 0.84614 0.91860 0.40946
 H1300 H 0.87750 0.94969 0.43368
 H1301 H 0.94343 0.88326 0.43755
 H1302 H 0.91208 0.85218 0.41410
 C1303 C 0.33284 0.33518 -0.18619
 C1304 C 0.35034 0.35000 -0.16999
 C1305 C 0.34957 0.34325 -0.14583
 C1306 C 0.33090 0.32107 -0.13818
 C1307 C 0.31329 0.30623 -0.15442
 C1308 C 0.31413 0.31306 -0.17863
 C1309 C 0.36923 0.35942 -0.12964
 C1310 C 0.36595 0.36056 -0.10607
 C1311 C 0.38513 0.37847 -0.09082
 C1312 C 0.37365 0.38937 -0.06959
 C1313 C 0.39043 0.40796 -0.05564
 C1314 C 0.41912 0.41582 -0.06262
 C1315 C 0.43117 0.40382 -0.08323
 C1316 C 0.41444 0.38522 -0.09713
 H1317 H 0.33412 0.34103 -0.20468
 H1318 H 0.36459 0.36687 -0.17642
 H1319 H 0.33019 0.31462 -0.11984
 H1320 H 0.29939 0.28909 -0.14803
 H1321 H 0.38624 0.37227 -0.13786
 H1322 H 0.34743 0.34997 -0.09774
 H1323 H 0.35131 0.38418 -0.06416
 H1324 H 0.38067 0.41674 -0.03974
 H1325 H 0.45340 0.40915 -0.08883
 H1326 H 0.42453 0.37629 -0.11283
 C1327 C 1.15075 0.31233 -0.18000
 C1328 C 1.13356 0.32576 -0.16281
 C1329 C 1.14480 0.33055 -0.14004
 C1330 C 1.17340 0.32076 -0.13450
 C1331 C 1.19054 0.30695 -0.15167
 C1332 C 1.17949 0.30287 -0.17469
 C1333 C 1.12584 0.34583 -0.12285
 C1334 C 1.13643 0.36222 -0.10532
 C1335 C 1.11738 0.38086 -0.09048
 C1336 C 1.12844 0.39124 -0.06890
 C1337 C 1.11196 0.41052 -0.05531
 C1338 C 1.08416 0.41992 -0.06318
 C1339 C 1.07292 0.40928 -0.08457
 C1340 C 1.08934 0.39016 -0.09814
 H1341 H 1.14143 0.30927 -0.19747
 H1342 H 1.11153 0.33293 -0.16748
 H1343 H 1.18248 0.32343 -0.11693
 H1344 H 1.21255 0.29975 -0.14700
 H1345 H 1.10226 0.34475 -0.12594
 H1346 H 1.16003 0.36304 -0.10215
 H1347 H 1.15007 0.38469 -0.06268
 H1348 H 1.12121 0.41848 -0.03891
 H1349 H 1.05166 0.41632 -0.09120
 H1350 H 1.08026 0.38371 -0.11500
 C1351 C 0.65449 0.82241 0.31352
 C1352 C 0.63673 0.83681 0.32981
 C1353 C 0.64578 0.83987 0.35339
 C1354 C 0.67265 0.82741 0.36059
 C1355 C 0.69026 0.81257 0.34433
 C1356 C 0.68149 0.81017 0.32055
 C1357 C 0.62639 0.85569 0.36995
 C1358 C 0.63688 0.87109 0.38808
 C1359 C 0.61763 0.88853 0.40364
 C1360 C 0.62941 0.91312 0.41416
 C1361 C 0.61206 0.93002 0.42908
 C1362 C 0.58268 0.92238 0.43413
 C1363 C 0.57090 0.89763 0.42380
 C1364 C 0.58817 0.88086 0.40866
 H1365 H 0.64694 0.82070 0.29539
 H1366 H 0.61602 0.84599 0.32389
 H1367 H 0.67989 0.82878 0.37881
 H1368 H 0.71089 0.80328 0.35030
 H1369 H 0.60299 0.85644 0.36586
 H1370 H 0.66057 0.87268 0.39066
 H1371 H 0.65207 0.91938 0.41071
 H1372 H 0.62181 0.94888 0.43691
 H1373 H 0.54840 0.89111 0.42754
 H1374 H 0.57861 0.86164 0.40134
 C1375 C 0.79854 0.69139 -0.15411
 C1376 C 0.81283 0.67702 -0.13576
 C1377 C 0.83650 0.65861 -0.14052
 C1378 C 0.84523 0.65434 -0.16418
 C1379 C 0.83092 0.66869 -0.18256
 C1380 C 0.80744 0.68744 -0.17776
 C1381 C 0.85079 0.64347 -0.12056
 C1382 C 0.87892 0.63448 -0.12138
 C1383 C 0.89390 0.61810 -0.10239
 C1384 C 0.92440 0.61334 -0.10469
 C1385 C 0.93941 0.59603 -0.08867
 C1386 C 0.92428 0.58308 -0.06987
 C1387 C 0.89400 0.58856 -0.06688
 C1388 C 0.87883 0.60578 -0.08308
 H1389 H 0.78041 0.70552 -0.14972
 H1390 H 0.80546 0.68043 -0.11774
 H1391 H 0.86267 0.63951 -0.16867
 H1392 H 0.83813 0.66488 -0.20056
 H1393 H 0.83787 0.64075 -0.10464
 H1394 H 0.89209 0.63957 -0.13680
 H1395 H 0.93663 0.62251 -0.11930
 H1396 H 0.96282 0.59228 -0.09135
 H1397 H 0.88182 0.57865 -0.05259
 H1398 H 0.85529 0.60844 -0.08069
 C1399 C 0.30087 1.18177 0.34046
 C1400 C 0.31534 1.16499 0.35728
 C1401 C 0.34119 1.15004 0.35140
 C1402 C 0.35217 1.15195 0.32816
 C1403 C 0.33753 1.16853 0.31123
 C1404 C 0.31168 1.18363 0.31718
 C1405 C 0.35536 1.13194 0.36967
 C1406 C 0.38438 1.12596 0.36993
 C1407 C 0.39848 1.10901 0.38896
 C1408 C 0.42789 1.11493 0.39520
 C1409 C 0.44169 1.09991 0.41348
 C1410 C 0.42652 1.07824 0.42558
 C1411 C 0.39740 1.07164 0.41885
 C1412 C 0.38344 1.08694 0.40077
 H1413 H 0.28087 1.19285 0.34562
 H1414 H 0.30630 1.16371 0.37499
 H1415 H 0.37160 1.14012 0.32281
 H1416 H 0.34634 1.16932 0.29344
 H1417 H 0.34161 1.12479 0.38419
 H1418 H 0.39875 1.13546 0.35680
 H1419 H 0.44004 1.13162 0.38622
 H1420 H 0.46423 1.10532 0.41817
 H1421 H 0.38526 1.05492 0.42779
 H1422 H 0.36103 1.08127 0.39592
 C1423 C 1.20586 0.68647 0.15326
 C1424 C 1.19240 0.67173 0.13471
 C1425 C 1.16403 0.66024 0.13746
 C1426 C 1.14964 0.66294 0.15945
 C1427 C 1.16329 0.67737 0.17816
 C1428 C 1.19143 0.68952 0.17518
 C1429 C 1.15060 0.64458 0.11746
 C1430 C 1.12137 0.64439 0.11355
 C1431 C 1.10674 0.62705 0.09499
 C1432 C 1.07648 0.62135 0.09761
 C1433 C 1.06196 0.60321 0.08193
 C1434 C 1.07731 0.59049 0.06309
 C1435 C 1.10720 0.59734 0.05955
 C1436 C 1.12185 0.61550 0.07536
 H1437 H 1.22774 0.69527 0.15047
 H1438 H 1.20405 0.66957 0.11806
 H1439 H 1.12811 0.65348 0.16238
 H1440 H 1.15174 0.67922 0.19487
 H1441 H 1.16544 0.63320 0.10581
 H1442 H 1.10713 0.65646 0.12527
 H1443 H 1.06419 0.63021 0.11234
 H1444 H 1.03879 0.59855 0.08496
 H1445 H 1.11945 0.58798 0.04503
 H1446 H 1.14493 0.62012 0.07218
 C1447 C 0.70409 1.17773 0.65783
 C1448 C 0.68990 1.16095 0.64082
 C1449 C 0.66417 1.14572 0.64652
 C1450 C 0.65328 1.14695 0.66981
 C1451 C 0.66766 1.16346 0.68690
 C1452 C 0.69312 1.17919 0.68108
 C1453 C 0.64970 1.12826 0.62800
 C1454 C 0.62045 1.12348 0.62750
 C1455 C 0.60585 1.10722 0.60832
 C1456 C 0.57683 1.11437 0.60184
 C1457 C 0.56259 1.09986 0.58348
 C1458 C 0.57692 1.07750 0.57158
 C1459 C 0.60564 1.06973 0.57852
 C1460 C 0.62004 1.08450 0.59668
 H1461 H 0.72382 1.18934 0.65281
 H1462 H 0.69887 1.16011 0.62306
 H1463 H 0.63397 1.13484 0.67497
 H1464 H 0.65873 1.16400 0.70467
 H1465 H 0.66334 1.12078 0.61352
 H1466 H 0.60637 1.13348 0.64060
 H1467 H 0.56535 1.13159 0.61072
 H1468 H 0.54035 1.10615 0.57860
 H1469 H 0.61712 1.05245 0.56973
 H1470 H 0.64211 1.07792 0.60172
 C1471 C 0.80497 0.30910 0.15058
 C1472 C 0.81862 0.32408 0.13225
 C1473 C 0.84263 0.34215 0.13683
 C1474 C 0.85250 0.34525 0.16035
 C1475 C 0.83880 0.33028 0.17874
 C1476 C 0.81482 0.31205 0.17408
 C1477 C 0.85588 0.35828 0.11688
 C1478 C 0.88389 0.36772 0.11710
 C1479 C 0.89782 0.38502 0.09808
 C1480 C 0.92815 0.39088 0.10009
 C1481 C 0.94221 0.40891 0.08408
 C1482 C 0.92633 0.42155 0.06551
 C1483 C 0.89624 0.41498 0.06276
 C1484 C 0.88200 0.39700 0.07897
 H1485 H 0.78645 0.29539 0.14628
 H1486 H 0.81039 0.32150 0.11437
 H1487 H 0.87028 0.35972 0.16479
 H1488 H 0.84676 0.33331 0.19663
 H1489 H 0.84219 0.36147 0.10144
 H1490 H 0.89779 0.36236 0.13203
 H1491 H 0.94098 0.38199 0.11450
 H1492 H 0.96550 0.41346 0.08658
 H1493 H 0.88348 0.42460 0.04865
 H1494 H 0.85856 0.39342 0.07674
 C1495 C 0.31110 0.81388 0.65702
 C1496 C 0.32793 0.82803 0.63995
 C1497 C 0.34721 0.85010 0.64635
 C1498 C 0.34972 0.85755 0.67035
 C1499 C 0.33331 0.84305 0.68760
 C1500 C 0.31361 0.82087 0.68129
 C1501 C 0.36525 0.86392 0.62768
 C1502 C 0.37334 0.89141 0.62837
 C1503 C 0.39024 0.90510 0.60895
 C1504 C 0.38468 0.93373 0.60333
 C1505 C 0.39984 0.94701 0.58477
 C1506 C 0.42142 0.93209 0.57184
 C1507 C 0.42763 0.90369 0.57791
 C1508 C 0.41208 0.89026 0.59618
 H1509 H 0.29645 0.79707 0.65103
 H1510 H 0.32574 0.82179 0.62158
 H1511 H 0.36490 0.87409 0.67591
 H1512 H 0.33623 0.84934 0.70590
 H1513 H 0.37038 0.85139 0.61210
 H1514 H 0.36563 0.90482 0.64271
 H1515 H 0.36816 0.94568 0.61304
 H1516 H 0.39475 0.96898 0.58058
 H1517 H 0.44424 0.89172 0.56832
 H1518 H 0.41742 0.86838 0.60048
 C1519 C 0.31743 1.20450 -0.15038
 C1520 C 0.33305 1.19084 -0.13230
 C1521 C 0.35198 1.16797 -0.13742
 C1522 C 0.35612 1.15994 -0.16120
 C1523 C 0.34059 1.17364 -0.17928
 C1524 C 0.32068 1.19579 -0.17407
 C1525 C 0.36726 1.15321 -0.11770
 C1526 C 0.37482 1.12558 -0.11885
 C1527 C 0.39044 1.10950 -0.09995
 C1528 C 0.40184 1.12221 -0.07923
 C1529 C 0.41797 1.10599 -0.06289
 C1530 C 0.42324 1.07693 -0.06704
 C1531 C 0.41123 1.06415 -0.08733
 C1532 C 0.39501 1.08022 -0.10352
 H1533 H 0.30252 1.22168 -0.14571
 H1534 H 0.32982 1.19772 -0.11419
 H1535 H 0.37143 1.14316 -0.16595
 H1536 H 0.34390 1.16658 -0.19733
 H1537 H 0.37087 1.16526 -0.10167
 H1538 H 0.36890 1.11364 -0.13455
 H1539 H 0.39914 1.14467 -0.07567
 H1540 H 0.42713 1.11639 -0.04743
 H1541 H 0.41484 1.04176 -0.09097
 H1542 H 0.38650 1.06976 -0.11920
 C1543 C 0.80135 0.69142 0.35008
 C1544 C 0.81543 0.67623 0.36821
 C1545 C 0.83595 0.65469 0.36293
 C1546 C 0.84147 0.64811 0.33902
 C1547 C 0.82739 0.66322 0.32092
 C1548 C 0.80723 0.68517 0.32617
 C1549 C 0.85056 0.63901 0.38262
 C1550 C 0.87730 0.62681 0.38034
 C1551 C 0.89288 0.61044 0.39914
 C1552 C 0.92289 0.60409 0.39560
 C1553 C 0.93837 0.58708 0.41160
 C1554 C 0.92425 0.57582 0.43165
 C1555 C 0.89440 0.58265 0.43569
 C1556 C 0.87877 0.59972 0.41955
 H1557 H 0.78587 0.70807 0.35484
 H1558 H 0.81050 0.68155 0.38643
 H1559 H 0.85627 0.63097 0.33414
 H1560 H 0.83226 0.65756 0.30276
 H1561 H 0.83944 0.63874 0.39955
 H1562 H 0.88912 0.62949 0.36384
 H1563 H 0.93440 0.61196 0.38012
 H1564 H 0.96138 0.58232 0.40799
 H1565 H 0.88291 0.57411 0.45092
 H1566 H 0.85556 0.60363 0.42281
 C1567 C 0.67869 1.21134 0.15400
 C1568 C 0.66341 1.19713 0.13602
 C1569 C 0.64886 1.17137 0.14067
 C1570 C 0.64847 1.16082 0.16395
 C1571 C 0.66347 1.17515 0.18199
 C1572 C 0.67923 1.20027 0.17713
 C1573 C 0.63403 1.15610 0.12106
 C1574 C 0.63280 1.12757 0.12024
 C1575 C 0.61709 1.11090 0.10179
 C1576 C 0.61153 1.08202 0.10635
 C1577 C 0.59539 1.06552 0.09039
 C1578 C 0.58456 1.07750 0.06937
 C1579 C 0.59110 1.10607 0.06420
 C1580 C 0.60725 1.12267 0.08024
 H1581 H 0.69033 1.23085 0.14973
 H1582 H 0.66361 1.20589 0.11829
 H1583 H 0.63652 1.14154 0.16830
 H1584 H 0.66326 1.16617 0.19963
 H1585 H 0.62469 1.16886 0.10703
 H1586 H 0.64323 1.11551 0.13428
 H1587 H 0.61907 1.07228 0.12264
 H1588 H 0.59086 1.04350 0.09479
 H1589 H 0.58315 1.11576 0.04803
 H1590 H 0.61172 1.14458 0.07562
 C1591 C 1.20039 0.70069 0.65010
 C1592 C 1.18689 0.68554 0.63168
 C1593 C 1.16654 0.66374 0.63654
 C1594 C 1.16054 0.65688 0.66030
 C1595 C 1.17409 0.67193 0.67871
 C1596 C 1.19411 0.69411 0.67388
 C1597 C 1.15263 0.64802 0.61658
 C1598 C 1.12574 0.63607 0.61833
 C1599 C 1.11093 0.61935 0.59937
 C1600 C 1.08069 0.61349 0.60204
 C1601 C 1.06597 0.59578 0.58610
 C1602 C 1.08111 0.58333 0.56703
 C1603 C 1.11116 0.58983 0.56373
 C1604 C 1.12604 0.60761 0.57981
 H1605 H 1.21581 0.71752 0.64567
 H1606 H 1.19215 0.69105 0.61356
 H1607 H 1.14580 0.63955 0.66480
 H1608 H 1.16893 0.66605 0.69676
 H1609 H 1.16439 0.64747 0.59993
 H1610 H 1.11330 0.63912 0.63450
 H1611 H 1.06845 0.62218 0.61686
 H1612 H 1.04276 0.59129 0.58909
 H1613 H 1.12340 0.58037 0.54925
 H1614 H 1.14946 0.61115 0.57727
 C1615 C 0.65347 0.82395 -0.18829
 C1616 C 0.63936 0.84127 -0.17172
 C1617 C 0.64846 0.84148 -0.14799
 C1618 C 0.67177 0.82337 -0.14107
 C1619 C 0.68581 0.80587 -0.15767
 C1620 C 0.67712 0.80632 -0.18154
 C1621 C 0.63370 0.86175 -0.13165
 C1622 C 0.63679 0.86169 -0.10805
 C1623 C 0.62081 0.88207 -0.09266
 C1624 C 0.61291 0.87365 -0.06973
 C1625 C 0.59602 0.89160 -0.05535
 C1626 C 0.58698 0.91845 -0.06359
 C1627 C 0.59620 0.92753 -0.08605
 C1628 C 0.61305 0.90957 -0.10044
 H1629 H 0.64613 0.82479 -0.20652
 H1630 H 0.62148 0.85493 -0.17759
 H1631 H 0.67995 0.82308 -0.12312
 H1632 H 0.70412 0.79269 -0.15193
 H1633 H 0.61872 0.87698 -0.13960
 H1634 H 0.64959 0.84526 -0.09943
 H1635 H 0.61900 0.85275 -0.06321
 H1636 H 0.58941 0.88414 -0.03801
 H1637 H 0.58987 0.94828 -0.09272
 H1638 H 0.61981 0.91725 -0.11765
 C1639 C 1.15028 0.31187 0.31697
 C1640 C 1.13373 0.32535 0.33455
 C1641 C 1.14487 0.32822 0.35758
 C1642 C 1.17272 0.31642 0.36293
 C1643 C 1.18916 0.30243 0.34535
 C1644 C 1.17824 0.30034 0.32210
 C1645 C 1.12643 0.34343 0.37525
 C1646 C 1.13740 0.35855 0.39346
 C1647 C 1.11888 0.37714 0.40893
 C1648 C 1.13049 0.38691 0.43056
 C1649 C 1.11444 0.40594 0.44481
 C1650 C 1.08647 0.41568 0.43760
 C1651 C 1.07473 0.40568 0.41615
 C1652 C 1.09072 0.38687 0.40193
 H1653 H 1.14107 0.31038 0.29932
 H1654 H 1.11226 0.33405 0.33000
 H1655 H 1.18167 0.31766 0.38065
 H1656 H 1.21059 0.29365 0.34986
 H1657 H 1.10288 0.34337 0.37196
 H1658 H 1.16100 0.35830 0.39674
 H1659 H 1.15221 0.38006 0.43633
 H1660 H 1.12410 0.41338 0.46122
 H1661 H 1.05334 0.41295 0.40998
 H1662 H 1.08110 0.38098 0.38514
 C1663 C 0.32385 0.79334 0.15508
 C1664 C 0.33933 0.80672 0.13684
 C1665 C 0.35179 0.83373 0.14033
 C1666 C 0.34980 0.84656 0.16279
 C1667 C 0.33463 0.83303 0.18113
 C1668 C 0.32106 0.80650 0.17734
 C1669 C 0.36721 0.84779 0.12049
 C1670 C 0.36664 0.87611 0.11760
 C1671 C 0.38353 0.89156 0.09921
 C1672 C 0.38905 0.92063 0.10285
 C1673 C 0.40675 0.93587 0.08717
 C1674 C 0.41913 0.92243 0.06732
 C1675 C 0.41242 0.89373 0.06285
 C1676 C 0.39474 0.87836 0.07867
 H1677 H 0.31394 0.77271 0.15171
 H1678 H 0.34101 0.79627 0.11980
 H1679 H 0.36011 0.86696 0.16627
 H1680 H 0.33302 0.84360 0.19812
 H1681 H 0.37886 0.83430 0.10809
 H1682 H 0.35421 0.88895 0.13007
 H1683 H 0.38041 0.93141 0.11834
 H1684 H 0.41132 0.95807 0.09093
 H1685 H 0.42152 0.88297 0.04754
 H1686 H 0.39017 0.85625 0.07475
 C1687 C 0.80514 0.30300 0.65213
 C1688 C 0.81934 0.31763 0.63381
 C1689 C 0.83874 0.34020 0.63876
 C1690 C 0.84303 0.34835 0.66250
 C1691 C 0.82878 0.33380 0.68082
 C1692 C 0.80973 0.31085 0.67589
 C1693 C 0.85346 0.35526 0.61887
 C1694 C 0.87977 0.36820 0.62127
 C1695 C 0.89531 0.38405 0.60222
 C1696 C 0.92521 0.39085 0.60576
 C1697 C 0.94049 0.40768 0.58955
 C1698 C 0.92627 0.41829 0.56931
 C1699 C 0.89658 0.41091 0.56522
 C1700 C 0.88115 0.39402 0.58158
 H1701 H 0.79050 0.28554 0.64762
 H1702 H 0.81539 0.31111 0.61569
 H1703 H 0.85697 0.36629 0.66703
 H1704 H 0.83262 0.34066 0.69885
 H1705 H 0.84287 0.35439 0.60173
 H1706 H 0.89119 0.36659 0.63805
 H1707 H 0.93672 0.38353 0.62144
 H1708 H 0.96340 0.41290 0.59317
 H1709 H 0.88503 0.41897 0.54984
 H1710 H 0.85800 0.38976 0.57832
 C1711 C 1.19822 1.17233 0.66044
 C1712 C 1.18460 1.15482 0.64368
 C1713 C 1.15998 1.13823 0.64984
 C1714 C 1.14975 1.13873 0.67332
 C1715 C 1.16361 1.15595 0.69018
 C1716 C 1.18782 1.17314 0.68387
 C1717 C 1.14578 1.12043 0.63148
 C1718 C 1.11668 1.11498 0.63130
 C1719 C 1.10222 1.09913 0.61187
 C1720 C 1.07330 1.10649 0.60532
 C1721 C 1.05943 1.09273 0.58641
 C1722 C 1.07406 1.07093 0.57404
 C1723 C 1.10262 1.06283 0.58113
 C1724 C 1.11665 1.07688 0.59983
 H1725 H 1.21702 1.18508 0.65508
 H1726 H 1.19303 1.15456 0.62574
 H1727 H 1.13130 1.12558 0.67877
 H1728 H 1.15519 1.15599 0.70812
 H1729 H 1.15932 1.11359 0.61672
 H1730 H 1.10258 1.12442 0.64467
 H1731 H 1.06167 1.12339 0.61450
 H1732 H 1.03729 1.09921 0.58142
 H1733 H 1.11430 1.04595 0.57198
 H1734 H 1.13867 1.07019 0.60492
 C1735 C 0.70050 0.69548 0.14952
 C1736 C 0.68690 0.68128 0.13068
 C1737 C 0.66282 0.66308 0.13468
 C1738 C 0.65309 0.65872 0.15806
 C1739 C 0.66673 0.67282 0.17690
 C1740 C 0.69052 0.69147 0.17287
 C1741 C 0.64905 0.64812 0.11436
 C1742 C 0.62050 0.64032 0.11439
 C1743 C 0.60577 0.62343 0.09554
 C1744 C 0.57513 0.61920 0.09745
 C1745 C 0.56032 0.60109 0.08192
 C1746 C 0.57576 0.58678 0.06395
 C1747 C 0.60616 0.59188 0.06117
 C1748 C 0.62114 0.60992 0.07691
 H1749 H 0.71895 0.70949 0.14576
 H1750 H 0.69506 0.68470 0.11289
 H1751 H 0.63532 0.64401 0.16196
 H1752 H 0.65866 0.66898 0.19465
 H1753 H 0.66273 0.64432 0.09900
 H1754 H 0.60684 0.64654 0.12926
 H1755 H 0.56266 0.62932 0.11151
 H1756 H 0.53682 0.59769 0.08439
 H1757 H 0.61857 0.58097 0.04751
 H1758 H 0.64476 0.61225 0.07480
 C1759 C 1.19518 0.82285 0.34136
 C1760 C 1.18111 0.84020 0.35797
 C1761 C 1.15592 0.85591 0.35174
 C1762 C 1.14538 0.85452 0.32836
 C1763 C 1.15968 0.83742 0.31164
 C1764 C 1.18463 0.82128 0.31801
 C1765 C 1.14171 0.87400 0.36988
 C1766 C 1.11264 0.87956 0.37008
 C1767 C 1.09848 0.89600 0.38930
 C1768 C 1.06957 0.88903 0.39619
 C1769 C 1.05610 0.90330 0.41502
 C1770 C 1.07114 0.92517 0.42699
 C1771 C 1.09966 0.93289 0.41954
 C1772 C 1.11326 0.91840 0.40089
 H1773 H 1.21458 0.81096 0.34676
 H1774 H 1.18977 0.84115 0.37583
 H1775 H 1.12647 0.86699 0.32283
 H1776 H 1.15114 0.83680 0.29374
 H1777 H 1.15534 0.88118 0.38448
 H1778 H 1.09838 0.86989 0.35693
 H1779 H 1.05767 0.87204 0.38735
 H1780 H 1.03398 0.89710 0.42030
 H1781 H 1.11164 0.94984 0.42834
 H1782 H 1.13525 0.92483 0.39551
 C1783 C 0.65808 0.32971 -0.18537
 C1784 C 0.64108 0.34437 -0.16876
 C1785 C 0.64516 0.33988 -0.14445
 C1786 C 0.66657 0.31996 -0.13707
 C1787 C 0.68369 0.30527 -0.15375
 C1788 C 0.67964 0.30998 -0.17811
 C1789 C 0.62612 0.35609 -0.12781
 C1790 C 0.63137 0.35909 -0.10456
 C1791 C 0.61261 0.37723 -0.08912
 C1792 C 0.62516 0.38989 -0.06896
 C1793 C 0.60870 0.40884 -0.05507
 C1794 C 0.57932 0.41536 -0.06109
 C1795 C 0.56629 0.40161 -0.08053
 C1796 C 0.58264 0.38258 -0.09430
 H1797 H 0.65426 0.33391 -0.20395
 H1798 H 0.62469 0.35944 -0.17500
 H1799 H 0.66998 0.31527 -0.11856
 H1800 H 0.69993 0.29004 -0.14754
 H1801 H 0.60771 0.36747 -0.13558
 H1802 H 0.65108 0.34997 -0.09682
 H1803 H 0.64805 0.38581 -0.06438
 H1804 H 0.61923 0.41901 -0.04007
 H1805 H 0.54351 0.40585 -0.08532
 H1806 H 0.57171 0.37227 -0.10902
 C1807 C 0.80382 1.17979 0.34085
 C1808 C 0.81725 1.16202 0.35749
 C1809 C 0.84161 1.14513 0.35123
 C1810 C 0.85188 1.14576 0.32774
 C1811 C 0.83820 1.16327 0.31099
 C1812 C 0.81414 1.18063 0.31740
 C1813 C 0.85531 1.12675 0.36945
 C1814 C 0.88417 1.12015 0.36952
 C1815 C 0.89808 1.10356 0.38879
 C1816 C 0.92744 1.10952 0.39511
 C1817 C 0.94091 1.09502 0.41381
 C1818 C 0.92542 1.07384 0.42623
 C1819 C 0.89638 1.06712 0.41938
 C1820 C 0.88276 1.08191 0.40087
 H1821 H 0.78511 1.19264 0.34631
 H1822 H 0.80878 1.16170 0.37542
 H1823 H 0.87013 1.13242 0.32217
 H1824 H 0.84656 1.16331 0.29304
 H1825 H 0.84158 1.12028 0.38421
 H1826 H 0.89858 1.12910 0.35614
 H1827 H 0.93977 1.12591 0.38590
 H1828 H 0.96341 1.10046 0.41861
 H1829 H 0.88401 1.05075 0.42855
 H1830 H 0.86037 1.07625 0.39597
 C1831 C 0.30435 0.70018 -0.15106
 C1832 C 0.31765 0.68452 -0.13291
 C1833 C 0.34011 0.66480 -0.13791
 C1834 C 0.34864 0.66067 -0.16164
 C1835 C 0.33533 0.67630 -0.17981
 C1836 C 0.31302 0.69627 -0.17476
 C1837 C 0.35330 0.64818 -0.11819
 C1838 C 0.38068 0.63721 -0.11920
 C1839 C 0.39460 0.61942 -0.10050
 C1840 C 0.42469 0.61274 -0.10303
 C1841 C 0.43866 0.59431 -0.08727
 C1842 C 0.42293 0.58207 -0.06844
 C1843 C 0.39306 0.58933 -0.06526
 C1844 C 0.37891 0.60773 -0.08122
 H1845 H 0.28708 0.71520 -0.14648
 H1846 H 0.31042 0.68790 -0.11485
 H1847 H 0.36509 0.64494 -0.16640
 H1848 H 0.34234 0.67247 -0.19785
 H1849 H 0.34026 0.64596 -0.10227
 H1850 H 0.39415 0.64172 -0.13458
 H1851 H 0.43740 0.62136 -0.11761
 H1852 H 0.46177 0.58924 -0.09012
 H1853 H 0.38040 0.58004 -0.05096
 H1854 H 0.35562 0.61190 -0.07867
 C1855 C 0.81411 0.80333 0.65420
 C1856 C 0.83097 0.81816 0.63759
 C1857 C 0.84602 0.84313 0.64401
 C1858 C 0.84430 0.85283 0.66751
 C1859 C 0.82767 0.83786 0.68418
 C1860 C 0.81239 0.81294 0.67772
 C1861 C 0.86422 0.85785 0.62609
 C1862 C 0.86933 0.88596 0.62654
 C1863 C 0.88705 0.90041 0.60818
 C1864 C 0.87985 0.92842 0.60178
 C1865 C 0.89560 0.94228 0.58391
 C1866 C 0.91920 0.92849 0.57249
 C1867 C 0.92710 0.90084 0.57950
 C1868 C 0.91114 0.88688 0.59715
 H1869 H 0.80282 0.78407 0.64870
 H1870 H 0.83221 0.81016 0.61963
 H1871 H 0.85632 0.87156 0.67321
 H1872 H 0.82693 0.84575 0.70218
 H1873 H 0.87231 0.84528 0.61136
 H1874 H 0.85869 0.89912 0.63979
 H1875 H 0.86158 0.93935 0.61025
 H1876 H 0.88922 0.96370 0.57895
 H1877 H 0.94535 0.88983 0.57110
 H1878 H 0.91781 0.86560 0.60225
 C1879 C 0.29524 0.30996 0.14985
 C1880 C 0.30889 0.32558 0.13189
 C1881 C 0.33093 0.34557 0.13726
 C1882 C 0.33835 0.35038 0.16113
 C1883 C 0.32466 0.33481 0.17912
 C1884 C 0.30313 0.31421 0.17369
 C1885 C 0.34527 0.36135 0.11767
 C1886 C 0.37298 0.37137 0.11922
 C1887 C 0.38838 0.38764 0.10037
 C1888 C 0.41872 0.39284 0.10327
 C1889 C 0.43410 0.40982 0.08723
 C1890 C 0.41951 0.42203 0.06782
 C1891 C 0.38937 0.41619 0.06431
 C1892 C 0.37383 0.39927 0.08051
 H1893 H 0.27853 0.29448 0.14499
 H1894 H 0.30250 0.32174 0.11369
 H1895 H 0.35444 0.36640 0.16606
 H1896 H 0.33103 0.33888 0.19728
 H1897 H 0.33301 0.36334 0.10134
 H1898 H 0.38561 0.36696 0.13507
 H1899 H 0.43055 0.38419 0.11831
 H1900 H 0.45737 0.41386 0.09034
 H1901 H 0.37759 0.42553 0.04955
 H1902 H 0.35041 0.39626 0.07768
   
