data_POSCAR
  _audit_creation_date              2014-09-24
  _audit_creation_method            'ToBaCCo'
  _symmetry_space_group_name_H-M    'P1'
  _symmetry_Int_Tables_number       1
  _symmetry_cell_setting            triclinic
  loop_
  _symmetry_equiv_pos_as_xyz
 x,y,z
_cell_length_a 27.9774
_cell_length_b 28.3402
_cell_length_c 35.1959
_cell_angle_alpha 89.947200
_cell_angle_beta 89.983000
_cell_angle_gamma 90.061200
loop_
  _atom_site_label
  _atom_site_type_symbol
  _atom_site_fract_x
  _atom_site_fract_y
  _atom_site_fract_z
Zr1 Zr 0.24865 0.25097 0.31782
 O2 O 0.28510 0.28875 0.36088
 O3 O 0.20275 0.20825 0.34994
 O4 O 0.20162 0.29610 0.34754
 O5 O 0.33815 0.16936 0.30543
 O6 O 0.16394 0.33801 0.30104
 O7 O 0.29306 0.20671 0.35041
 O8 O 0.16197 0.16774 0.30425
 O9 O 0.18637 0.25226 0.28492
 O10 O 0.24918 0.18893 0.28552
 O11 O 0.25366 0.31293 0.28526
 O12 O 0.31345 0.25167 0.28694
 Zr13 Zr 0.25509 0.25258 0.18502
 Zr14 Zr 0.19323 0.31199 0.25025
 Zr15 Zr 0.31095 0.19120 0.25255
 Zr16 Zr 0.18876 0.19156 0.25148
 O17 O 0.38651 0.19512 0.25247
 O18 O 0.11422 0.20496 0.25106
 O19 O 0.25048 0.18977 0.21722
 O20 O 0.19110 0.25127 0.21645
 O21 O 0.25514 0.31493 0.21694
 O22 O 0.31677 0.25100 0.21860
 C23 C 0.17173 0.17766 0.33916
 C24 C 0.32633 0.17811 0.34012
 C25 C 0.17187 0.32781 0.33607
 O26 O 0.11787 0.30730 0.24664
 O27 O 0.17067 0.33996 0.19810
 O28 O 0.21326 0.30060 0.15281
 C29 C 0.18221 0.33162 0.16338
 O30 O 0.34598 0.33816 0.30268
 Zr31 Zr 0.31537 0.31147 0.25176
 O32 O 0.30097 0.29591 0.15358
 O33 O 0.20084 0.38626 0.25212
 O34 O 0.30523 0.38560 0.25105
 O35 O 0.39039 0.30074 0.25179
 O36 O 0.34164 0.33624 0.19945
 C37 C 0.33170 0.32667 0.16460
 O38 O 0.21690 0.21711 0.14167
 O39 O 0.30338 0.11694 0.25428
 O40 O 0.29982 0.20539 0.15488
 O41 O 0.33650 0.16212 0.20122
 O42 O 0.19644 0.11713 0.25283
 O43 O 0.16099 0.16095 0.20097
 C44 C 0.32875 0.17272 0.16612
 H45 H 0.24908 0.15987 0.30114
 H46 H 0.16290 0.25124 0.19947
 H47 H 0.34670 0.24974 0.20364
 H48 H 0.25440 0.34135 0.30159
 H49 H 0.09789 0.17532 0.25851
 H50 H 0.10546 0.34004 0.24705
 H51 H 0.16828 0.39981 0.25018
 H52 H 0.33640 0.40028 0.24471
 H53 H 0.16487 0.10349 0.25944
 H54 H 0.33603 0.10376 0.25665
 H55 H 0.39853 0.16223 0.25267
 H56 H 0.40568 0.33124 0.24521
 H57 H 0.13316 0.14082 0.20733
 H58 H 0.22997 0.22826 0.11704
 H59 H 0.27208 0.27796 0.38564
 H60 H 0.36793 0.36451 0.29651
 Zr61 Zr 0.75141 0.74860 0.31759
 O62 O 0.71438 0.71119 0.36062
 O63 O 0.79764 0.79091 0.34982
 O64 O 0.79788 0.70294 0.34736
 O65 O 0.66319 0.83156 0.30495
 O66 O 0.83499 0.66047 0.30093
 O67 O 0.70734 0.79330 0.35006
 O68 O 0.83931 0.83072 0.30418
 O69 O 0.81371 0.74611 0.28474
 O70 O 0.75198 0.81065 0.28525
 O71 O 0.74538 0.68669 0.28509
 O72 O 0.68674 0.74893 0.28654
 Zr73 Zr 0.74563 0.74737 0.18476
 Zr74 Zr 0.80582 0.68645 0.25009
 Zr75 Zr 0.69032 0.80939 0.25213
 Zr76 Zr 0.81256 0.80700 0.25140
 O77 O 0.61470 0.80670 0.25211
 O78 O 0.88684 0.79225 0.25151
 O79 O 0.75103 0.81001 0.21697
 O80 O 0.80940 0.74735 0.21644
 O81 O 0.74414 0.68482 0.21657
 O82 O 0.68380 0.74972 0.21821
 C83 C 0.82912 0.82114 0.33909
 C84 C 0.67455 0.82241 0.33969
 C85 C 0.82727 0.67091 0.33593
 O86 O 0.88117 0.68962 0.24558
 O87 O 0.82616 0.65635 0.19802
 O88 O 0.78914 0.70076 0.15267
 C89 C 0.81788 0.66759 0.16321
 O90 O 0.65247 0.66297 0.30218
 Zr91 Zr 0.68394 0.68922 0.25139
 O92 O 0.69996 0.70396 0.15325
 O93 O 0.79696 0.61235 0.25321
 O94 O 0.69294 0.61494 0.25078
 O95 O 0.60910 0.70116 0.25119
 O96 O 0.65754 0.66501 0.19900
 C97 C 0.66828 0.67405 0.16419
 O98 O 0.78347 0.78330 0.14137
 O99 O 0.69923 0.88351 0.25359
 O100 O 0.70103 0.79466 0.15453
 O101 O 0.66481 0.83846 0.20072
 O102 O 0.80636 0.88157 0.25246
 O103 O 0.84115 0.83691 0.20085
 C104 C 0.67222 0.82746 0.16567
 H105 H 0.75242 0.83971 0.30083
 H106 H 0.83778 0.74692 0.19964
 H107 H 0.65394 0.75131 0.20320
 H108 H 0.74410 0.65833 0.30150
 H109 H 0.90365 0.82168 0.25880
 H110 H 0.89289 0.65665 0.24642
 H111 H 0.82922 0.59816 0.25107
 H112 H 0.66163 0.60074 0.24424
 H113 H 0.83822 0.89464 0.25892
 H114 H 0.66682 0.89723 0.25598
 H115 H 0.60320 0.83977 0.25229
 H116 H 0.59333 0.67094 0.24454
 H117 H 0.86951 0.85630 0.20719
 H118 H 0.77053 0.77214 0.11671
 H119 H 0.72750 0.72177 0.38539
 H120 H 0.63027 0.63687 0.29594
 Zr121 Zr 0.75090 0.24941 -0.31702
 O122 O 0.71279 0.28561 -0.36006
 O123 O 0.79774 0.20781 -0.34913
 O124 O 0.79654 0.29483 -0.34740
 O125 O 0.66484 0.16468 -0.30383
 O126 O 0.83196 0.34031 -0.30196
 O127 O 0.70826 0.20325 -0.34924
 O128 O 0.84064 0.16960 -0.30341
 O129 O 0.81333 0.25384 -0.28452
 O130 O 0.75296 0.18783 -0.28426
 O131 O 0.74381 0.31174 -0.28521
 O132 O 0.68631 0.24824 -0.28596
 Zr133 Zr 0.74561 0.25251 -0.18442
 Zr134 Zr 0.80445 0.31391 -0.25047
 Zr135 Zr 0.69135 0.18832 -0.25114
 Zr136 Zr 0.81358 0.19339 -0.25068
 O137 O 0.61569 0.18937 -0.25111
 O138 O 0.88754 0.20974 -0.25110
 O139 O 0.75217 0.18955 -0.21611
 O140 O 0.80927 0.25348 -0.21631
 O141 O 0.74284 0.31462 -0.21674
 O142 O 0.68376 0.24834 -0.21769
 C143 C 0.82998 0.17850 -0.33835
 C144 C 0.67614 0.17353 -0.33866
 C145 C 0.82480 0.32816 -0.33672
 O146 O 0.87992 0.31247 -0.24692
 O147 O 0.82529 0.34441 -0.19858
 O148 O 0.78853 0.30023 -0.15284
 C149 C 0.81710 0.33348 -0.16365
 O150 O 0.65038 0.33322 -0.30226
 Zr151 Zr 0.68255 0.30842 -0.25131
 O152 O 0.69932 0.29558 -0.15314
 O153 O 0.79389 0.38775 -0.25353
 O154 O 0.69009 0.38288 -0.25149
 O155 O 0.60796 0.29495 -0.25071
 O156 O 0.65586 0.33290 -0.19907
 C157 C 0.66699 0.32467 -0.16422
 O158 O 0.78409 0.21782 -0.14080
 O159 O 0.70166 0.11439 -0.25175
 O160 O 0.70176 0.20481 -0.15375
 O161 O 0.66643 0.15960 -0.19952
 O162 O 0.80905 0.11868 -0.25106
 O163 O 0.84282 0.16482 -0.19989
 C164 C 0.67353 0.17132 -0.16461
 H165 H 0.75398 0.15857 -0.29957
 H166 H 0.83772 0.25467 -0.19962
 H167 H 0.65396 0.24641 -0.20261
 H168 H 0.74185 0.33979 -0.30193
 H169 H 0.90490 0.18059 -0.25820
 H170 H 0.89090 0.34570 -0.24798
 H171 H 0.82589 0.40266 -0.25189
 H172 H 0.65855 0.39651 -0.24494
 H173 H 0.84116 0.10631 -0.25751
 H174 H 0.66953 0.09995 -0.25409
 H175 H 0.60487 0.15606 -0.25109
 H176 H 0.59164 0.32496 -0.24437
 H177 H 0.87164 0.14608 -0.20609
 H178 H 0.77097 0.22903 -0.11621
 H179 H 0.72597 0.27518 -0.38485
 H180 H 0.62770 0.35894 -0.29621
 Zr181 Zr 0.24887 0.74954 -0.31821
 O182 O 0.28557 0.71181 -0.36118
 O183 O 0.20298 0.79208 -0.35068
 O184 O 0.20244 0.70457 -0.34811
 O185 O 0.33580 0.83371 -0.30587
 O186 O 0.16664 0.65978 -0.30236
 O187 O 0.29393 0.79295 -0.35079
 O188 O 0.16024 0.83070 -0.30521
 O189 O 0.18637 0.74632 -0.28567
 O190 O 0.24765 0.81160 -0.28612
 O191 O 0.25511 0.68752 -0.28582
 O192 O 0.31338 0.75033 -0.28707
 Zr193 Zr 0.25396 0.74788 -0.18554
 Zr194 Zr 0.19442 0.68651 -0.25109
 Zr195 Zr 0.30915 0.81079 -0.25287
 Zr196 Zr 0.18697 0.80715 -0.25237
 O197 O 0.38477 0.80881 -0.25290
 O198 O 0.11277 0.79187 -0.25267
 O199 O 0.24831 0.81058 -0.21779
 O200 O 0.19036 0.74738 -0.21746
 O201 O 0.25598 0.68540 -0.21732
 O202 O 0.31588 0.75103 -0.21888
 C203 C 0.17076 0.82173 -0.34021
 C204 C 0.32610 0.82290 -0.34072
 C205 C 0.17390 0.67157 -0.33721
 O206 O 0.11897 0.68905 -0.24755
 O207 O 0.17321 0.65669 -0.19897
 O208 O 0.21048 0.70076 -0.15359
 C209 C 0.18138 0.66766 -0.16401
 O210 O 0.34818 0.66482 -0.30271
 Zr211 Zr 0.31637 0.69052 -0.25194
 O212 O 0.29988 0.70481 -0.15388
 O213 O 0.20399 0.61250 -0.25353
 O214 O 0.30788 0.61617 -0.25132
 O215 O 0.39114 0.70298 -0.25155
 O216 O 0.34291 0.66654 -0.19952
 C217 C 0.33195 0.67533 -0.16474
 O218 O 0.21573 0.78334 -0.14222
 O219 O 0.29961 0.88482 -0.25405
 O220 O 0.29823 0.79558 -0.15527
 O221 O 0.33433 0.83982 -0.20139
 O222 O 0.19265 0.88178 -0.25341
 O223 O 0.15802 0.83665 -0.20185
 C224 C 0.32690 0.82864 -0.16636
 H225 H 0.24718 0.84060 -0.30181
 H226 H 0.16189 0.74670 -0.20076
 H227 H 0.34569 0.75283 -0.20381
 H228 H 0.25673 0.65925 -0.30227
 H229 H 0.09583 0.82122 -0.25993
 H230 H 0.10753 0.65595 -0.24829
 H231 H 0.17180 0.59802 -0.25176
 H232 H 0.33927 0.60225 -0.24470
 H233 H 0.16074 0.89456 -0.25999
 H234 H 0.33189 0.89888 -0.25659
 H235 H 0.39599 0.84200 -0.25317
 H236 H 0.40706 0.67279 -0.24508
 H237 H 0.12961 0.85590 -0.20825
 H238 H 0.22872 0.77224 -0.11755
 H239 H 0.27260 0.72232 -0.38602
 H240 H 0.37031 0.63868 -0.29650
 Zr241 Zr 1.25067 1.24953 0.81785
 O242 O 1.21345 1.21239 0.86094
 O243 O 1.29633 1.29243 0.84997
 O244 O 1.29686 1.20467 0.84840
 O245 O 1.16145 1.33104 0.80442
 O246 O 1.33574 1.16235 0.80281
 O247 O 1.20628 1.29412 0.84982
 O248 O 1.33753 1.33260 0.80426
 O249 O 1.31340 1.24791 0.78552
 O250 O 1.25041 1.31121 0.78507
 O251 O 1.24616 1.18711 0.78594
 O252 O 1.18618 1.24836 0.78665
 Zr253 Zr 1.24580 1.24634 0.68538
 Zr254 Zr 1.30709 1.18767 0.75143
 Zr255 Zr 1.18892 1.30848 0.75178
 Zr256 Zr 1.31126 1.30823 0.75153
 O257 O 1.11336 1.30449 0.75164
 O258 O 1.38584 1.29502 0.75160
 O259 O 1.24987 1.30959 0.71690
 O260 O 1.30948 1.24804 0.71713
 O261 O 1.24550 1.18429 0.71775
 O262 O 1.18369 1.24820 0.71843
 C263 C 1.32749 1.32292 0.83917
 C264 C 1.17312 1.32259 0.83922
 C265 C 1.32680 1.17283 0.83765
 O266 O 1.38247 1.19246 0.74826
 O267 O 1.33007 1.15914 0.69954
 O268 O 1.28779 1.19816 0.65383
 C269 C 1.31876 1.16730 0.66472
 O270 O 1.15382 1.16185 0.80304
 Zr271 Zr 1.18482 1.18808 0.75207
 O272 O 1.20014 1.20287 0.65392
 O273 O 1.29968 1.11340 0.75398
 O274 O 1.19515 1.11397 0.75186
 O275 O 1.10976 1.19855 0.75169
 O276 O 1.15892 1.16296 0.69980
 C277 C 1.16912 1.17234 0.66495
 O278 O 1.28464 1.28128 0.64203
 O279 O 1.19645 1.38275 0.75245
 O280 O 1.20177 1.29309 0.65442
 O281 O 1.16321 1.33615 0.69985
 O282 O 1.30376 1.38269 0.75231
 O283 O 1.33919 1.33828 0.70079
 C284 C 1.17214 1.32543 0.66495
 H285 H 1.25039 1.34045 0.80043
 H286 H 1.33784 1.24793 0.70030
 H287 H 1.15391 1.24922 0.70328
 H288 H 1.24522 1.15889 0.80253
 H289 H 1.40202 1.32482 0.75881
 H290 H 1.39490 1.15974 0.74905
 H291 H 1.33230 1.09995 0.75235
 H292 H 1.16408 1.09918 0.74543
 H293 H 1.33537 1.39631 0.75878
 H294 H 1.16377 1.39593 0.75456
 H295 H 1.10131 1.33736 0.75145
 H296 H 1.09462 1.16791 0.74535
 H297 H 1.36711 1.35834 0.70701
 H298 H 1.27194 1.26989 0.61736
 H299 H 1.22615 1.22335 0.88574
 H300 H 1.13222 1.13519 0.79700
 Zr301 Zr 0.74936 0.75096 0.81744
 O302 O 0.78735 0.78754 0.86036
 O303 O 0.70304 0.70892 0.84982
 O304 O 0.70399 0.79670 0.84784
 O305 O 0.83668 0.66752 0.80411
 O306 O 0.66611 0.83983 0.80216
 O307 O 0.79299 0.70569 0.84951
 O308 O 0.66065 0.66978 0.80431
 O309 O 0.68670 0.75418 0.78517
 O310 O 0.74805 0.68920 0.78488
 O311 O 0.75546 0.81321 0.78538
 O312 O 0.81378 0.75044 0.78611
 Zr313 Zr 0.75383 0.75340 0.68497
 Zr314 Zr 0.69460 0.81423 0.75087
 Zr315 Zr 0.80949 0.69031 0.75144
 Zr316 Zr 0.68715 0.69363 0.75150
 O317 O 0.88512 0.69240 0.75120
 O318 O 0.61295 0.70876 0.75200
 O319 O 0.74838 0.69042 0.71674
 O320 O 0.69032 0.75366 0.71694
 O321 O 0.75604 0.81567 0.71700
 O322 O 0.81601 0.75034 0.71789
 C323 C 0.67121 0.67907 0.83917
 C324 C 0.82552 0.67654 0.83891
 C325 C 0.67463 0.82904 0.83701
 O326 O 0.61919 0.81162 0.74684
 O327 O 0.67414 0.84481 0.69896
 O328 O 0.71087 0.80066 0.65334
 C329 C 0.68238 0.83383 0.66410
 O330 O 0.84865 0.83595 0.80211
 Zr331 Zr 0.81659 0.81053 0.75134
 O332 O 0.79955 0.79657 0.65329
 O333 O 0.70395 0.88824 0.75429
 O334 O 0.80813 0.88488 0.75105
 O335 O 0.89137 0.79830 0.75061
 O336 O 0.84264 0.83490 0.69890
 C337 C 0.83155 0.82613 0.66415
 O338 O 0.71501 0.71826 0.64177
 O339 O 0.80002 0.61625 0.75234
 O340 O 0.79742 0.70614 0.65409
 O341 O 0.83486 0.66218 0.69960
 O342 O 0.69254 0.61899 0.75236
 O343 O 0.65821 0.66440 0.70086
 C344 C 0.82646 0.67330 0.66468
 H345 H 0.74748 0.66000 0.80033
 H346 H 0.66182 0.75445 0.70028
 H347 H 0.84572 0.74872 0.70267
 H348 H 0.75714 0.84139 0.80194
 H349 H 0.59604 0.67934 0.75921
 H350 H 0.60775 0.84468 0.74779
 H351 H 0.67175 0.90262 0.75242
 H352 H 0.83950 0.89889 0.74439
 H353 H 0.66053 0.60622 0.75877
 H354 H 0.83235 0.60229 0.75451
 H355 H 0.89635 0.65924 0.75122
 H356 H 0.90720 0.82856 0.74410
 H357 H 0.62966 0.64525 0.70716
 H358 H 0.72772 0.72946 0.61702
 H359 H 0.77440 0.77695 0.88520
 H360 H 0.87076 0.86217 0.79593
 Zr361 Zr 1.25173 0.75244 0.18256
 O362 O 1.21546 0.79069 0.13963
 O363 O 1.29802 0.71045 0.15010
 O364 O 1.29840 0.79851 0.15352
 O365 O 1.16488 0.66776 0.19375
 O366 O 1.33456 0.84110 0.20036
 O367 O 1.20715 0.70934 0.14933
 O368 O 1.34004 0.67078 0.19556
 O369 O 1.31378 0.75494 0.21563
 O370 O 1.25252 0.68985 0.21423
 O371 O 1.24500 0.81381 0.21553
 O372 O 1.18684 0.75093 0.21331
 Zr373 Zr 1.24498 0.75173 0.31531
 Zr374 Zr 1.30519 0.81404 0.25076
 Zr375 Zr 1.19064 0.68996 0.24711
 Zr376 Zr 1.31280 0.69358 0.24842
 O377 O 1.11503 0.69194 0.24641
 O378 O 1.38698 0.70897 0.24869
 O379 O 1.25107 0.68955 0.28256
 O380 O 1.30895 0.75272 0.28388
 O381 O 1.24324 0.81465 0.28402
 O382 O 1.18343 0.74916 0.28154
 C383 C 1.32974 0.68045 0.16070
 C384 C 1.17517 0.67911 0.15918
 C385 C 1.32732 0.83077 0.16530
 O386 O 1.38054 0.81148 0.25549
 O387 O 1.32508 0.84352 0.30305
 O388 O 1.28799 0.79836 0.34796
 C389 C 1.31660 0.83187 0.33772
 O390 O 1.15204 0.83646 0.19812
 Zr391 Zr 1.18331 0.81013 0.24892
 O392 O 1.19882 0.79443 0.34698
 O393 O 1.29571 0.88809 0.24836
 O394 O 1.19163 0.88449 0.25014
 O395 O 1.10855 0.79758 0.24878
 O396 O 1.15636 0.83342 0.30135
 C397 C 1.16702 0.82420 0.33612
 O398 O 1.28270 0.71561 0.35859
 O399 O 1.20023 0.61596 0.24543
 O400 O 1.20052 0.70359 0.34489
 O401 O 1.16471 0.66017 0.29821
 O402 O 1.30706 0.61898 0.24672
 O403 O 1.34134 0.66328 0.29880
 C404 C 1.17189 0.67077 0.33338
 H405 H 1.25320 0.66107 0.19833
 H406 H 1.33722 0.75317 0.30080
 H407 H 1.15346 0.74713 0.29640
 H408 H 1.24365 0.84239 0.19937
 H409 H 1.40403 0.67979 0.24120
 H410 H 1.39203 0.84457 0.25513
 H411 H 1.32784 0.90259 0.25071
 H412 H 1.16011 0.89826 0.25656
 H413 H 1.33902 0.60625 0.24023
 H414 H 1.16799 0.60192 0.24258
 H415 H 1.10382 0.65876 0.24582
 H416 H 1.09255 0.82765 0.25544
 H417 H 1.36981 0.64415 0.29236
 H418 H 1.26949 0.72638 0.38327
 H419 H 1.22886 0.78063 0.11482
 H420 H 1.12970 0.86240 0.20438
 Zr421 Zr 0.74891 1.24987 0.18233
 O422 O 0.78698 1.21362 0.13932
 O423 O 0.70195 1.29139 0.15017
 O424 O 0.70366 1.20353 0.15232
 O425 O 0.83545 1.33441 0.19508
 O426 O 0.66641 1.16022 0.19829
 O427 O 0.79171 1.29595 0.14987
 O428 O 0.65974 1.33040 0.19584
 O429 O 0.68650 1.24613 0.21501
 O430 O 0.74731 1.31163 0.21484
 O431 O 0.75559 1.18777 0.21462
 O432 O 0.81354 1.25083 0.21336
 Zr433 Zr 0.75444 1.24763 0.31509
 Zr434 Zr 0.69497 1.18629 0.24947
 Zr435 Zr 0.80898 1.31100 0.24788
 Zr436 Zr 0.68675 1.30675 0.24859
 O437 O 0.88462 1.30933 0.24768
 O438 O 0.61269 1.29083 0.24840
 O439 O 0.74824 1.31041 0.28303
 O440 O 0.69070 1.24691 0.28333
 O441 O 0.75667 1.18532 0.28309
 O442 O 0.81625 1.25118 0.28168
 C443 C 0.67009 1.32112 0.16092
 C444 C 0.82396 1.32564 0.16030
 C445 C 0.67461 1.17096 0.16337
 O446 O 0.61955 1.18835 0.25357
 O447 O 0.67431 1.15603 0.30154
 O448 O 0.71139 1.20026 0.34701
 C449 C 0.68267 1.16705 0.33640
 O450 O 0.84877 1.16538 0.19755
 Zr451 Zr 0.81694 1.19088 0.24839
 O452 O 0.80065 1.20461 0.34654
 O453 O 0.70491 1.11237 0.24641
 O454 O 0.80884 1.11647 0.24878
 O455 O 0.89163 1.20387 0.24869
 O456 O 0.84369 1.16665 0.30074
 C457 C 0.83278 1.17525 0.33558
 O458 O 0.71620 1.28272 0.35860
 O459 O 0.79914 1.38500 0.24696
 O460 O 0.79848 1.29545 0.34540
 O461 O 0.83426 1.33992 0.29928
 O462 O 0.69183 1.38142 0.24778
 O463 O 0.65779 1.33589 0.29924
 C464 C 0.82699 1.32864 0.33429
 H465 H 0.74640 1.34082 0.19940
 H466 H 0.66229 1.24600 0.30010
 H467 H 0.84609 1.25305 0.29670
 H468 H 0.75732 1.15954 0.19813
 H469 H 0.59548 1.32004 0.24116
 H470 H 0.60827 1.15521 0.25274
 H471 H 0.67281 1.09771 0.24831
 H472 H 0.84030 1.10267 0.25534
 H473 H 0.65978 1.39399 0.24133
 H474 H 0.83136 1.39923 0.24457
 H475 H 0.89572 1.34255 0.24759
 H476 H 0.90777 1.17381 0.25520
 H477 H 0.62906 1.35473 0.29297
 H478 H 0.72932 1.27160 0.38322
 H479 H 0.77377 1.22403 0.11453
 H480 H 0.87129 1.13956 0.20374
 O481 O 0.47334 1.07971 0.04779
 O482 O 0.52631 0.91806 0.04658
 O483 O 0.41785 0.97473 0.04748
 O484 O 0.58184 1.02307 0.04818
 O485 O 0.44543 0.91004 0.02625
 O486 O 0.55416 1.08851 0.02828
 O487 O 0.59169 0.94398 0.02476
 O488 O 0.40795 1.05455 0.02548
 C489 C 0.42955 1.07601 0.05114
 C490 C 0.57007 0.92220 0.05023
 C491 C 0.42342 0.93174 0.05155
 C492 C 0.57691 1.06603 0.05280
 O493 O 0.52698 1.08084 -0.04622
 O494 O 0.47317 0.91964 -0.04775
 O495 O 0.41807 1.02443 -0.04720
 O496 O 0.58218 0.97614 -0.04735
 O497 O 0.55410 0.91069 -0.02775
 O498 O 0.44594 1.08933 -0.02646
 O499 O 0.59211 1.05512 -0.02388
 O500 O 0.40782 0.94489 -0.02537
 Co501 Co 0.50009 1.07628 0.00076
 Co502 Co 0.49980 0.92289 -0.00058
 Co503 Co 0.42177 0.99965 0.00013
 Co504 Co 0.57812 0.99958 0.00041
 O505 O 0.49994 0.99960 0.00018
 C506 C 0.57077 1.07683 -0.04951
 C507 C 0.42935 0.92355 -0.05112
 C508 C 0.42324 1.06742 -0.05132
 C509 C 0.57708 0.93323 -0.05211
 O510 O 0.97585 0.58141 0.54775
 O511 O 1.02352 0.41801 0.54798
 O512 O 0.91721 0.47549 0.54759
 O513 O 1.08225 0.52386 0.54725
 O514 O 0.94288 0.41038 0.52619
 O515 O 1.05652 0.58886 0.52564
 O516 O 1.08987 0.44416 0.52733
 O517 O 0.90949 0.55509 0.52732
 C518 C 0.93207 0.57768 0.55192
 C519 C 1.06730 0.42163 0.55202
 C520 C 0.92070 0.43235 0.55120
 C521 C 1.07861 0.56700 0.55077
 O522 O 1.02624 0.57998 0.45266
 O523 O 0.97286 0.41905 0.45309
 O524 O 0.91828 0.52655 0.45333
 O525 O 1.08083 0.47240 0.45320
 O526 O 1.05346 0.40833 0.47526
 O527 O 0.94574 0.59071 0.47506
 O528 O 1.09165 0.55214 0.47345
 O529 O 0.90754 0.44693 0.47401
 Co530 Co 1.00098 0.57665 0.50028
 Co531 Co 0.99829 0.42255 0.50058
 Co532 Co 0.92176 0.50090 0.50052
 Co533 Co 1.07753 0.49826 0.50029
 O534 O 0.99964 0.49960 0.50052
 C535 C 1.06984 0.57471 0.44842
 C536 C 0.92923 0.42425 0.44903
 C537 C 0.92351 0.56958 0.44966
 C538 C 1.07565 0.42935 0.44972
 O539 O 1.06141 0.47865 0.06505
 O540 O 1.06161 0.52285 -0.06593
 O541 O 1.05832 0.42012 -0.02370
 O542 O 1.05858 0.58244 0.02186
 O543 O 1.02662 0.44436 -0.07411
 O544 O 1.02826 0.55751 0.07278
 O545 O 1.03913 0.58896 -0.04254
 O546 O 1.03903 0.41279 0.04101
 C547 C 1.06742 0.43539 0.06184
 C548 C 1.06829 0.56607 -0.06247
 C549 C 1.05931 0.42242 -0.05860
 C550 C 1.06005 0.58054 0.05671
 O551 O 0.94004 0.52324 0.06487
 O552 O 0.93940 0.47914 -0.06565
 O553 O 0.94194 0.42031 0.02280
 O554 O 0.94218 0.58127 -0.02393
 O555 O 0.97414 0.55739 -0.07428
 O556 O 0.97372 0.44460 0.07307
 O557 O 0.96237 0.58908 0.04084
 O558 O 0.96147 0.41311 -0.04179
 Co559 Co 1.00081 0.50108 0.06170
 Co560 Co 1.00051 0.50093 -0.06272
 Co561 Co 1.00026 0.42458 -0.00042
 Co562 Co 1.00048 0.57744 -0.00094
 O563 O 1.00067 0.50101 -0.00056
 C564 C 0.93315 0.56618 0.06070
 C565 C 0.93235 0.43611 -0.06161
 C566 C 0.94031 0.42348 0.05764
 C567 C 0.94110 0.57885 -0.05881
 O568 O 0.56085 0.97783 0.56545
 O569 O 0.56079 1.02134 0.43483
 O570 O 0.55836 0.91937 0.47667
 O571 O 0.55817 1.08027 0.52358
 O572 O 0.52604 0.94291 0.42635
 O573 O 0.52623 1.05600 0.57378
 O574 O 0.53881 1.08729 0.45892
 O575 O 0.53895 0.91183 0.54153
 C576 C 0.56799 0.93497 0.56131
 C577 C 0.56783 1.06437 0.43893
 C578 C 0.55910 0.92131 0.44176
 C579 C 0.55971 1.07704 0.55841
 O580 O 0.43915 1.02104 0.56594
 O581 O 0.43867 0.97765 0.43520
 O582 O 0.44237 0.91795 0.52335
 O583 O 0.44185 1.08014 0.47698
 O584 O 0.47356 1.05615 0.42654
 O585 O 0.47325 0.94260 0.57400
 O586 O 0.46082 1.08713 0.54165
 O587 O 0.46130 0.91164 0.45888
 Co588 Co 0.49990 0.99929 0.56251
 Co589 Co 0.49973 0.99949 0.43805
 Co590 Co 0.50029 0.92310 0.50010
 Co591 Co 0.49990 1.07578 0.50030
 O592 O 0.49983 0.99941 0.50026
 C593 C 0.43279 1.06424 0.56267
 C594 C 0.43183 0.93459 0.43933
 C595 C 0.44122 0.91961 0.55826
 C596 C 0.44087 1.07811 0.44208
 O597 O 1.08231 1.05626 0.47646
 O598 O 0.91925 1.05762 0.52393
 O599 O 0.97925 1.06009 0.43487
 O600 O 1.02205 1.05948 0.56511
 O601 O 0.91233 1.03900 0.45932
 O602 O 1.08867 1.03731 0.54096
 O603 O 0.94292 1.02528 0.57405
 O604 O 1.05797 1.02461 0.42629
 C605 C 1.07936 1.05756 0.44157
 C606 C 0.92195 1.05857 0.55886
 C607 C 0.93591 1.06735 0.43944
 C608 C 1.06549 1.06608 0.56064
 O609 O 1.08119 0.94160 0.52394
 O610 O 0.91806 0.94308 0.47635
 O611 O 1.02101 0.93948 0.43492
 O612 O 0.97847 0.93958 0.56495
 O613 O 0.91182 0.96185 0.54082
 O614 O 1.08794 0.96046 0.45941
 O615 O 1.05757 0.97367 0.57411
 O616 O 0.94230 0.97489 0.42619
 Co617 Co 1.07725 0.99898 0.50018
 Co618 Co 0.92314 1.00033 0.50011
 Co619 Co 1.00014 0.99977 0.43783
 Co620 Co 1.00024 0.99953 0.56220
 O621 O 1.00019 0.99968 0.50006
 C622 C 1.07882 0.94054 0.55889
 C623 C 0.92095 0.94184 0.44145
 C624 C 1.06428 0.93209 0.43966
 C625 C 0.93507 0.93295 0.56035
 O626 O 0.58185 0.55723 -0.02377
 O627 O 0.41876 0.55862 0.02350
 O628 O 0.47859 0.56086 -0.06544
 O629 O 0.52160 0.56057 0.06463
 O630 O 0.41174 0.53960 -0.04097
 O631 O 0.58824 0.53821 0.04066
 O632 O 0.44245 0.52657 0.07371
 O633 O 0.55743 0.52573 -0.07400
 C634 C 0.57888 0.55862 -0.05865
 C635 C 0.42150 0.55980 0.05840
 C636 C 0.43526 0.56803 -0.06081
 C637 C 0.56503 0.56714 0.06016
 O638 O 0.58062 0.44253 0.02354
 O639 O 0.41751 0.44393 -0.02368
 O640 O 0.52076 0.44036 -0.06539
 O641 O 0.47789 0.44070 0.06478
 O642 O 0.41121 0.46294 0.04081
 O643 O 0.58765 0.46154 -0.04102
 O644 O 0.55700 0.47468 0.07372
 O645 O 0.44196 0.47549 -0.07396
 Co646 Co 0.57678 0.49993 -0.00015
 Co647 Co 0.42261 0.50122 -0.00008
 Co648 Co 0.49969 0.50061 -0.06245
 Co649 Co 0.49973 0.50063 0.06190
 O650 O 0.49970 0.50059 -0.00022
 C651 C 0.57796 0.44145 0.05846
 C652 C 0.42041 0.44264 -0.05858
 C653 C 0.56408 0.43313 -0.06080
 C654 C 0.43446 0.43407 0.06036
 C655 C 0.35621 1.14595 0.13589
 C656 C 0.39185 1.10857 0.15065
 C657 C 0.41597 1.08535 0.12262
 C658 C 0.40258 1.10132 0.08233
 C659 C 0.34779 1.09549 0.08047
 C660 C 0.32374 1.11879 0.10839
 C661 C 0.38654 1.17824 0.11029
 C662 C 0.41065 1.15499 0.08234
 H663 H 0.39772 1.10085 0.18049
 H664 H 0.44214 1.05807 0.12860
 H665 H 0.32931 1.07465 0.05919
 H666 H 0.28507 1.11774 0.11079
 H667 H 0.38892 1.21622 0.11390
 H668 H 0.43351 1.17316 0.06214
 C669 C 0.85460 0.64759 0.63427
 C670 C 0.90703 0.66391 0.63193
 C671 C 0.93333 0.64125 0.60485
 C672 C 0.90499 0.60388 0.58256
 C673 C 0.88395 0.57116 0.61312
 C674 C 0.85749 0.59387 0.64000
 C675 C 0.83540 0.65371 0.59357
 C676 C 0.86174 0.63104 0.56669
 H677 H 0.92179 0.69202 0.64930
 H678 H 0.97013 0.65067 0.59886
 H679 H 0.89051 0.53348 0.61414
 H680 H 0.84089 0.57534 0.66358
 H681 H 0.80383 0.67403 0.58633
 H682 H 0.85265 0.63247 0.53671
 C683 C 0.64433 0.85372 0.13536
 C684 C 0.67638 0.88094 0.10758
 C685 C 0.65197 0.90371 0.07958
 C686 C 0.59723 0.89732 0.08160
 C687 C 0.58975 0.84359 0.08202
 C688 C 0.61423 0.82087 0.11008
 C689 C 0.60834 0.89085 0.14995
 C690 C 0.58382 0.91352 0.12181
 H691 H 0.71505 0.88245 0.10988
 H692 H 0.67018 0.92456 0.05811
 H693 H 0.56700 0.82500 0.06202
 H694 H 0.61228 0.78290 0.11398
 H695 H 0.60253 0.89879 0.17975
 H696 H 0.55739 0.94059 0.12767
 C697 C 1.14422 0.35122 0.63446
 C698 C 1.14173 0.40498 0.64011
 C699 C 1.11549 0.42788 0.61317
 C700 C 1.09426 0.39530 0.58267
 C701 C 1.13731 0.36783 0.56684
 C702 C 1.16342 0.34496 0.59377
 C703 C 1.09169 0.33528 0.63214
 C704 C 1.06561 0.35812 0.60501
 H705 H 1.15846 0.42338 0.66366
 H706 H 1.10927 0.46562 0.61410
 H707 H 1.14641 0.36634 0.53687
 H708 H 1.19483 0.32438 0.58657
 H709 H 1.07671 0.30726 0.64953
 H710 H 1.02877 0.34892 0.59900
 C711 C 0.64566 1.14518 -0.13427
 C712 C 0.67761 1.11887 -0.10592
 C713 C 0.65300 1.09614 -0.07797
 C714 C 0.59822 1.10169 -0.08066
 C715 C 0.59002 1.15529 -0.08164
 C716 C 0.61470 1.17797 -0.10965
 C717 C 0.61041 1.10730 -0.14888
 C718 C 0.58571 1.08469 -0.12082
 H719 H 0.71633 1.11797 -0.10777
 H720 H 0.67109 1.07593 -0.05608
 H721 H 0.56667 1.17382 -0.06207
 H722 H 0.61233 1.21585 -0.11394
 H723 H 0.60521 1.09879 -0.17865
 H724 H 0.55975 1.05715 -0.12668
 C725 C 1.14396 0.64406 0.36347
 C726 C 1.10748 0.60746 0.34868
 C727 C 1.08300 0.58443 0.37672
 C728 C 1.09695 0.59979 0.41704
 C729 C 1.15165 0.59300 0.41862
 C730 C 1.17601 0.61612 0.39073
 C731 C 1.11439 0.67664 0.38933
 C732 C 1.09000 0.65358 0.41729
 H733 H 1.10130 0.60015 0.31882
 H734 H 1.05622 0.55770 0.37072
 H735 H 1.16987 0.57164 0.43972
 H736 H 1.21464 0.61440 0.38818
 H737 H 1.11271 0.71469 0.38587
 H738 H 1.06762 0.67199 0.43764
 C739 C 0.35478 0.85497 -0.13606
 C740 C 0.39053 0.89240 -0.15073
 C741 C 0.41513 0.91513 -0.12267
 C742 C 0.40204 0.89869 -0.08243
 C743 C 0.34728 0.90471 -0.08019
 C744 C 0.32279 0.88188 -0.10812
 C745 C 0.38520 0.82222 -0.11094
 C746 C 0.40976 0.84500 -0.08296
 H747 H 0.39613 0.90052 -0.18054
 H748 H 0.44140 0.94238 -0.12860
 H749 H 0.32913 0.92539 -0.05864
 H750 H 0.28410 0.88315 -0.11026
 H751 H 0.38730 0.78428 -0.11490
 H752 H 0.43274 0.82647 -0.06310
 C753 C 0.85483 0.35506 0.36448
 C754 C 0.89110 0.39189 0.34962
 C755 C 0.91566 0.41481 0.37757
 C756 C 0.90199 0.39916 0.41787
 C757 C 0.84727 0.40576 0.41974
 C758 C 0.82282 0.38271 0.39192
 C759 C 0.88464 0.32240 0.39011
 C760 C 0.90915 0.34539 0.41800
 H761 H 0.89712 0.39942 0.31976
 H762 H 0.94231 0.44167 0.37152
 H763 H 0.82911 0.42691 0.44099
 H764 H 0.78416 0.38425 0.38955
 H765 H 0.88638 0.28437 0.38657
 H766 H 0.93170 0.32695 0.43823
 C767 C 1.15460 0.35947 0.13417
 C768 C 1.17112 0.35764 0.09247
 C769 C 1.14295 0.38343 0.06831
 C770 C 1.10087 0.40857 0.08800
 C771 C 1.07433 0.36916 0.10933
 C772 C 1.10221 0.34354 0.13316
 C773 C 1.15233 0.41244 0.14360
 C774 C 1.12383 0.43784 0.11990
 H775 H 1.20230 0.33832 0.08280
 H776 H 1.15015 0.38602 0.03809
 H777 H 1.03642 0.36274 0.10675
 H778 H 1.08797 0.31491 0.15032
 H779 H 1.16915 0.42811 0.16837
 H780 H 1.11480 0.47406 0.12600
 C781 C 0.65428 0.86097 0.63471
 C782 C 0.67072 0.91243 0.62926
 C783 C 0.64334 0.93758 0.60425
 C784 C 0.60178 0.90901 0.58721
 C785 C 0.62576 0.86540 0.56944
 C786 C 0.65329 0.84024 0.59427
 C787 C 0.60142 0.86462 0.64613
 C788 C 0.57440 0.89001 0.62170
 H789 H 0.70199 0.92733 0.64303
 H790 H 0.65155 0.97373 0.59645
 H791 H 0.62186 0.85549 0.53982
 H792 H 0.67266 0.80883 0.58575
 H793 H 0.58655 0.84954 0.67193
 H794 H 0.53710 0.89758 0.62733
 C795 C 1.15433 0.64167 -0.13587
 C796 C 1.16767 0.59175 -0.13367
 C797 C 1.13896 0.56487 -0.10751
 C798 C 1.10204 0.59285 -0.08870
 C799 C 1.12800 0.63164 -0.07055
 C800 C 1.15696 0.65866 -0.09654
 C801 C 1.10330 0.64183 -0.14493
 C802 C 1.07491 0.61476 -0.11937
 H803 H 1.19893 0.57694 -0.14756
 H804 H 1.14818 0.52914 -0.09938
 H805 H 1.12657 0.63910 -0.04034
 H806 H 1.17877 0.68816 -0.08718
 H807 H 1.08757 0.66064 -0.16877
 H808 H 1.03663 0.61064 -0.12323
 C809 C 0.65444 1.13970 0.36587
 C810 C 0.60121 1.13763 0.35527
 C811 C 0.57405 1.11204 0.37960
 C812 C 0.60174 1.09092 0.41314
 C813 C 0.64232 1.06229 0.39480
 C814 C 0.66967 1.08774 0.36993
 C815 C 0.65488 1.15890 0.40683
 C816 C 0.62725 1.13337 0.43153
 H817 H 0.58602 1.15476 0.33046
 H818 H 0.53602 1.10692 0.37510
 H819 H 0.65086 1.02625 0.40249
 H820 H 0.70077 1.07290 0.35590
 H821 H 0.67525 1.18954 0.41577
 H822 H 0.62429 1.14223 0.46144
 C823 C 0.84625 0.64055 0.13375
 C824 C 0.89889 0.63600 0.14572
 C825 C 0.92605 0.61052 0.12144
 C826 C 0.89917 0.59237 0.08647
 C827 C 0.85689 0.56415 0.10285
 C828 C 0.82932 0.58935 0.12770
 C829 C 0.84834 0.66178 0.09350
 C830 C 0.87607 0.63659 0.06880
 H831 H 0.91347 0.65042 0.17184
 H832 H 0.96302 0.60209 0.12761
 H833 H 0.84851 0.52813 0.09483
 H834 H 0.79765 0.57461 0.14105
 H835 H 0.82953 0.69356 0.08501
 H836 H 0.88066 0.64686 0.03930
 C837 C 0.34635 1.13953 0.63558
 C838 C 0.39904 1.15446 0.63526
 C839 C 0.42669 1.12895 0.61123
 C840 C 0.39957 1.09071 0.58905
 C841 C 0.37557 1.06099 0.62027
 C842 C 0.34736 1.08633 0.64423
 C843 C 0.33041 1.14281 0.59378
 C844 C 0.35834 1.11718 0.56945
 H845 H 0.41365 1.18222 0.65308
 H846 H 0.46482 1.13451 0.60915
 H847 H 0.38343 1.02432 0.62562
 H848 H 0.32977 1.07036 0.66856
 H849 H 0.29973 1.16297 0.58417
 H850 H 0.35147 1.11553 0.53914
 C851 C 0.84543 0.36090 -0.13434
 C852 C 0.83023 0.41287 -0.13032
 C853 C 0.85768 0.43830 -0.10556
 C854 C 0.89832 0.40965 -0.08730
 C855 C 0.87286 0.36721 -0.06878
 C856 C 0.84515 0.34170 -0.09335
 C857 C 0.89862 0.36295 -0.14510
 C858 C 0.92588 0.38853 -0.12089
 H859 H 0.79908 0.42771 -0.14428
 H860 H 0.84917 0.47434 -0.09790
 H861 H 0.87593 0.35835 -0.03886
 H862 H 0.82480 0.31107 -0.08430
 H863 H 0.91371 0.34582 -0.16994
 H864 H 0.96390 0.39362 -0.12549
 C865 C 0.34473 0.85903 0.36719
 C866 C 0.39799 0.86059 0.35658
 C867 C 0.42528 0.88631 0.38061
 C868 C 0.39769 0.90799 0.41392
 C869 C 0.35735 0.93669 0.39536
 C870 C 0.32984 0.91113 0.37077
 C871 C 0.34409 0.84025 0.40826
 C872 C 0.37190 0.86589 0.43271
 H873 H 0.41313 0.84295 0.33199
 H874 H 0.46336 0.89107 0.37608
 H875 H 0.34907 0.97288 0.40270
 H876 H 0.29882 0.92600 0.35663
 H877 H 0.32354 0.80980 0.41743
 H878 H 0.37492 0.85729 0.46265
 C879 C 1.14718 1.14834 0.36881
 C880 C 1.09372 1.14166 0.36092
 C881 C 1.07172 1.11227 0.38582
 C882 C 1.10480 1.09248 0.41683
 C883 C 1.14600 1.06917 0.39504
 C884 C 1.16802 1.09828 0.36992
 C885 C 1.14959 1.16561 0.41039
 C886 C 1.12723 1.13617 0.43565
 H887 H 1.07490 1.15783 0.33729
 H888 H 1.03450 1.10250 0.38271
 H889 H 1.15752 1.03302 0.39956
 H890 H 1.19826 1.08694 0.35286
 H891 H 1.16678 1.19818 0.41914
 H892 H 1.12547 1.14348 0.46589
 C893 C 0.64672 0.64968 -0.13119
 C894 C 0.59309 0.64356 -0.13874
 C895 C 0.57111 0.61406 -0.11393
 C896 C 0.60435 0.59361 -0.08331
 C897 C 0.64509 0.57021 -0.10556
 C898 C 0.66711 0.59943 -0.13061
 C899 C 0.64977 0.66644 -0.08951
 C900 C 0.62739 0.63689 -0.06432
 H901 H 0.57416 0.66017 -0.16212
 H902 H 0.53378 0.60462 -0.11685
 H903 H 0.65634 0.53391 -0.10141
 H904 H 0.69706 0.58803 -0.14796
 H905 H 0.66741 0.69872 -0.08063
 H906 H 0.62606 0.64384 -0.03402
 C907 C 0.85460 1.14923 0.63198
 C908 C 0.90816 1.14273 0.63957
 C909 C 0.93002 1.11345 0.61455
 C910 C 0.89671 1.09351 0.58374
 C911 C 0.85571 1.07008 0.60579
 C912 C 0.83386 1.09909 0.63102
 C913 C 0.85183 1.16648 0.59037
 C914 C 0.87404 1.13713 0.56501
 H915 H 0.92717 1.15907 0.66302
 H916 H 0.96738 1.10405 0.61729
 H917 H 0.84413 1.03392 0.60134
 H918 H 0.80377 1.08763 0.64823
 H919 H 0.83449 1.19897 0.58166
 H920 H 0.87551 1.14446 0.53476
 C921 C 0.35420 0.65111 0.13100
 C922 C 0.33338 0.60098 0.13025
 C923 C 0.35524 0.57173 0.10521
 C924 C 0.39628 0.59494 0.08309
 C925 C 0.37370 0.63850 0.06414
 C926 C 0.35150 0.66808 0.08934
 C927 C 0.40775 0.64456 0.13866
 C928 C 0.42958 0.61502 0.11383
 H929 H 0.30328 0.58967 0.14752
 H930 H 0.34372 0.53551 0.10102
 H931 H 0.37525 0.64562 0.03386
 H932 H 0.33425 0.70057 0.08049
 H933 H 0.42676 0.66098 0.16208
 H934 H 0.46685 0.60540 0.11676
 C935 C 1.14721 0.84982 0.63152
 C936 C 1.16601 0.89795 0.63158
 C937 C 1.14267 0.92851 0.60529
 C938 C 1.10460 0.90556 0.58381
 C939 C 1.12729 0.86515 0.56535
 C940 C 1.15101 0.83412 0.59181
 C941 C 1.09590 0.85439 0.63839
 C942 C 1.07265 0.88531 0.61233
 H943 H 1.19624 0.90955 0.64860
 H944 H 1.15411 0.96474 0.60081
 H945 H 1.12576 0.85827 0.53504
 H946 H 1.16844 0.80178 0.58280
 H947 H 1.07671 0.83688 0.66127
 H948 H 1.03520 0.89435 0.61515
 C949 C 0.64549 0.35047 0.13127
 C950 C 0.64826 0.33346 0.08963
 C951 C 0.62598 0.36293 0.06437
 C952 C 0.60327 0.40642 0.08323
 C953 C 0.57002 0.38628 0.11403
 C954 C 0.59193 0.35686 0.13894
 C955 C 0.66617 0.40064 0.13041
 C956 C 0.64424 0.42978 0.10529
 H957 H 0.66566 0.30105 0.08083
 H958 H 0.62449 0.35578 0.03410
 H959 H 0.53270 0.39576 0.11692
 H960 H 0.57298 0.34042 0.16240
 H961 H 0.69624 0.41205 0.14763
 H962 H 0.65570 0.46601 0.10096
 C963 C 0.85356 0.85061 0.36874
 C964 C 0.85119 0.83338 0.41035
 C965 C 0.87340 0.86297 0.43557
 C966 C 0.89565 0.90678 0.41670
 C967 C 0.92885 0.88710 0.38572
 C968 C 0.90702 0.85756 0.36088
 C969 C 0.83251 0.90060 0.36976
 C970 C 0.85438 0.92985 0.39483
 H971 H 0.83415 0.80074 0.41916
 H972 H 0.87515 0.85567 0.46581
 H973 H 0.96601 0.89710 0.38257
 H974 H 0.92595 0.84148 0.33728
 H975 H 0.80226 0.91180 0.35265
 H976 H 0.84271 0.96597 0.39923
 C977 C 0.35206 0.35222 -0.13121
 C978 C 0.34903 0.33528 -0.08953
 C979 C 0.37155 0.36460 -0.06431
 C980 C 0.39473 0.40787 -0.08326
 C981 C 0.42784 0.38744 -0.11397
 C982 C 0.40569 0.35817 -0.13882
 C983 C 0.33187 0.40254 -0.13051
 C984 C 0.35404 0.43153 -0.10542
 H985 H 0.33125 0.30303 -0.08067
 H986 H 0.37288 0.35750 -0.03403
 H987 H 0.46522 0.39670 -0.11690
 H988 H 0.42452 0.34161 -0.16225
 H989 H 0.30193 0.41413 -0.14778
 H990 H 0.34290 0.46784 -0.10115
 C991 C 1.14520 0.34837 -0.13105
 C992 C 1.16336 0.34575 -0.08963
 C993 C 1.13560 0.37021 -0.06439
 C994 C 1.09259 0.39467 -0.08310
 C995 C 1.11415 0.42540 -0.11472
 C996 C 1.14183 0.40134 -0.13960
 C997 C 1.09336 0.33099 -0.12914
 C998 C 1.06593 0.35503 -0.10399
 H999 H 1.19523 0.32680 -0.08094
 H1000 H 1.14364 0.37206 -0.03428
 H1001 H 1.10704 0.46275 -0.11797
 H1002 H 1.15915 0.41843 -0.16357
 H1003 H 1.07969 0.30140 -0.14546
 H1004 H 1.02890 0.34570 -0.09859
 C1005 C 0.64632 0.84796 0.36950
 C1006 C 0.66418 0.84546 0.41099
 C1007 C 0.63598 0.86969 0.43613
 C1008 C 0.59282 0.89384 0.41727
 C1009 C 0.61434 0.92476 0.38577
 C1010 C 0.64249 0.90096 0.36102
 C1011 C 0.59458 0.83018 0.37120
 C1012 C 0.56672 0.85397 0.39622
 H1013 H 0.69617 0.82680 0.41979
 H1014 H 0.64384 0.87163 0.46628
 H1015 H 0.60686 0.96203 0.38248
 H1016 H 0.65985 0.91826 0.33717
 H1017 H 0.58129 0.80048 0.35481
 H1018 H 0.52974 0.84431 0.40145
 C1019 C 0.85374 0.65112 -0.13133
 C1020 C 0.85832 0.59826 -0.13989
 C1021 C 0.88650 0.57476 -0.11498
 C1022 C 0.90726 0.60590 -0.08333
 C1023 C 0.93307 0.64616 -0.10415
 C1024 C 0.90518 0.66963 -0.12934
 C1025 C 0.83539 0.65324 -0.08994
 C1026 C 0.86364 0.62933 -0.06466
 H1027 H 0.84146 0.58084 -0.16387
 H1028 H 0.89453 0.53761 -0.11827
 H1029 H 0.96981 0.65639 -0.09863
 H1030 H 0.91820 0.69958 -0.14560
 H1031 H 0.80303 0.67140 -0.08132
 H1032 H 0.85552 0.62716 -0.03455
 C1033 C 0.35435 1.15242 0.36996
 C1034 C 0.35747 1.09937 0.36160
 C1035 C 0.38537 1.07526 0.38633
 C1036 C 0.40740 1.10597 0.41768
 C1037 C 0.43395 1.14547 0.39647
 C1038 C 0.40631 1.16958 0.37146
 C1039 C 0.33666 1.15522 0.41148
 C1040 C 0.36464 1.13068 0.43660
 H1041 H 0.33976 1.08225 0.33786
 H1042 H 0.39228 1.03787 0.38317
 H1043 H 0.47105 1.15471 0.40159
 H1044 H 0.41991 1.19911 0.35499
 H1045 H 0.30499 1.17436 0.42033
 H1046 H 0.35692 1.12897 0.46678
 C1047 C 1.14685 0.65468 0.12886
 C1048 C 1.15360 0.60106 0.13004
 C1049 C 1.12613 0.57748 0.10462
 C1050 C 1.09368 0.60914 0.08062
 C1051 C 1.06562 0.63951 0.10905
 C1052 C 1.09324 0.66294 0.13428
 C1053 C 1.15638 0.66819 0.08688
 C1054 C 1.12826 0.64410 0.06144
 H1055 H 1.18080 0.58354 0.14693
 H1056 H 1.13144 0.54051 0.09866
 H1057 H 1.02737 0.64508 0.10756
 H1058 H 1.07833 0.68744 0.15482
 H1059 H 1.18270 0.69408 0.07794
 H1060 H 1.13054 0.64944 0.03098
 C1061 C 0.64812 1.14784 0.63147
 C1062 C 0.63832 1.09627 0.64224
 C1063 C 0.61017 1.07317 0.61710
 C1064 C 0.59432 1.10335 0.58304
 C1065 C 0.57095 1.14726 0.60042
 C1066 C 0.59882 1.17022 0.62591
 C1067 C 0.66960 1.14516 0.59102
 C1068 C 0.64119 1.12164 0.56550
 H1069 H 0.65277 1.07908 0.66731
 H1070 H 0.60029 1.03646 0.62105
 H1071 H 0.53697 1.16144 0.59110
 H1072 H 0.58787 1.20310 0.63911
 H1073 H 0.70408 1.15987 0.58325
 H1074 H 0.65125 1.11641 0.53603
 C1075 C 0.85190 0.35161 0.13040
 C1076 C 0.90147 0.32975 0.12503
 C1077 C 0.92930 0.35305 0.09965
 C1078 C 0.90568 0.39681 0.08217
 C1079 C 0.85910 0.37806 0.06446
 C1080 C 0.83072 0.35417 0.08985
 C1081 C 0.86113 0.40329 0.14117
 C1082 C 0.88925 0.42675 0.11614
 H1083 H 0.91258 0.29684 0.13814
 H1084 H 0.96329 0.33903 0.09029
 H1085 H 0.84920 0.38326 0.03494
 H1086 H 0.79646 0.33911 0.08193
 H1087 H 0.84620 0.42032 0.16611
 H1088 H 0.89856 0.46360 0.12003
 C1089 C 0.35376 0.84620 0.63058
 C1090 C 0.34753 0.89729 0.63178
 C1091 C 0.37683 0.92189 0.60514
 C1092 C 0.40739 0.89121 0.58258
 C1093 C 0.43405 0.86230 0.60961
 C1094 C 0.40470 0.83778 0.63604
 C1095 C 0.34457 0.83323 0.59066
 C1096 C 0.37454 0.85839 0.56399
 H1097 H 0.31865 0.91476 0.64691
 H1098 H 0.36918 0.95792 0.59713
 H1099 H 0.47190 0.85471 0.60705
 H1100 H 0.41928 0.81175 0.65556
 H1101 H 0.31811 0.80761 0.58150
 H1102 H 0.37249 0.85321 0.53351
 C1103 C 0.35252 1.14468 -0.13235
 C1104 C 0.34364 1.09121 -0.13577
 C1105 C 0.36717 1.06486 -0.10934
 C1106 C 0.39739 1.09443 -0.08170
 C1107 C 0.43065 1.12376 -0.10726
 C1108 C 0.40716 1.15009 -0.13374
 C1109 C 0.33883 1.15668 -0.09112
 C1110 C 0.36222 1.13035 -0.06476
 H1111 H 0.32079 1.07543 -0.15722
 H1112 H 0.36447 1.02665 -0.10835
 H1113 H 0.46934 1.12372 -0.10483
 H1114 H 0.42575 1.17267 -0.15384
 H1115 H 0.31297 1.18341 -0.08311
 H1116 H 0.35612 1.13461 -0.03448
 C1117 C 0.85390 0.64332 0.36576
 C1118 C 0.82052 0.61688 0.39317
 C1119 C 0.84381 0.59251 0.42087
 C1120 C 0.89849 0.59660 0.41874
 C1121 C 0.91150 0.58064 0.37843
 C1122 C 0.88823 0.60498 0.35063
 C1123 C 0.88517 0.67446 0.39129
 C1124 C 0.90852 0.65016 0.41898
 H1125 H 0.78181 0.61726 0.39093
 H1126 H 0.82501 0.57214 0.44232
 H1127 H 0.93688 0.55272 0.37227
 H1128 H 0.89399 0.59756 0.32073
 H1129 H 0.88891 0.71235 0.38774
 H1130 H 0.93225 0.66761 0.43892
 C1131 C 0.64870 1.14263 0.13359
 C1132 C 0.65753 1.08912 0.13689
 C1133 C 0.63365 1.06287 0.11055
 C1134 C 0.60320 1.09258 0.08318
 C1135 C 0.57027 1.12178 0.10900
 C1136 C 0.59409 1.14799 0.13535
 C1137 C 0.66197 1.15480 0.09229
 C1138 C 0.63829 1.12857 0.06607
 H1139 H 0.68057 1.07328 0.15817
 H1140 H 0.63624 1.02467 0.10946
 H1141 H 0.53155 1.12171 0.10686
 H1142 H 0.57573 1.17044 0.15562
 H1143 H 0.68788 1.18148 0.08413
 H1144 H 0.64416 1.13292 0.03576
 C1145 C 1.14830 0.64369 0.63267
 C1146 C 1.16810 0.59336 0.62824
 C1147 C 1.14543 0.56728 0.60116
 C1148 C 1.10472 0.59385 0.58112
 C1149 C 1.07191 0.61069 0.61332
 C1150 C 1.09460 0.63700 0.64021
 C1151 C 1.15101 0.66509 0.59252
 C1152 C 1.12842 0.63898 0.56566
 H1153 H 1.19814 0.57980 0.64442
 H1154 H 1.15656 0.53175 0.59395
 H1155 H 1.03449 0.60113 0.61556
 H1156 H 1.07624 0.65070 0.66503
 H1157 H 1.16897 0.69797 0.58561
 H1158 H 1.12764 0.64950 0.53599
 C1159 C 0.64878 0.85709 -0.13308
 C1160 C 0.66203 0.84469 -0.09183
 C1161 C 0.63836 0.87076 -0.06552
 C1162 C 0.60335 0.90682 -0.08252
 C1163 C 0.63385 0.93670 -0.10979
 C1164 C 0.65769 0.91060 -0.13621
 C1165 C 0.59416 0.85168 -0.13486
 C1166 C 0.57038 0.87775 -0.10843
 H1167 H 0.68786 0.81795 -0.08378
 H1168 H 0.64418 0.86625 -0.03522
 H1169 H 0.63651 0.97490 -0.10857
 H1170 H 0.68078 0.92657 -0.15744
 H1171 H 0.57579 0.82931 -0.15519
 H1172 H 0.53166 0.87778 -0.10628
 C1173 C 1.14518 0.35540 0.36589
 C1174 C 1.17857 0.38225 0.39298
 C1175 C 1.15530 0.40667 0.42066
 C1176 C 1.10063 0.40221 0.41884
 C1177 C 1.08725 0.41779 0.37849
 C1178 C 1.11049 0.39339 0.35071
 C1179 C 1.11431 0.32424 0.39178
 C1180 C 1.09098 0.34859 0.41944
 H1181 H 1.21726 0.38212 0.39056
 H1182 H 1.17413 0.42731 0.44189
 H1183 H 1.06162 0.44548 0.37228
 H1184 H 1.10445 0.40055 0.32080
 H1185 H 1.11081 0.28630 0.38848
 H1186 H 1.06753 0.33113 0.43962
 C1187 C 0.35398 0.85852 0.13569
 C1188 C 0.38602 0.82748 0.11077
 C1189 C 0.40939 0.85168 0.08306
 C1190 C 0.39856 0.90507 0.08267
 C1191 C 0.34388 0.90828 0.08004
 C1192 C 0.32057 0.88400 0.10779
 C1193 C 0.38751 0.89761 0.15077
 C1194 C 0.41082 0.92190 0.12291
 H1195 H 0.39033 0.78972 0.11479
 H1196 H 0.43376 0.83430 0.06360
 H1197 H 0.32509 0.92808 0.05827
 H1198 H 0.28185 0.88311 0.10976
 H1199 H 0.39267 0.90556 0.18065
 H1200 H 0.43569 0.95035 0.12897
 C1201 C 0.85043 0.35592 0.63307
 C1202 C 0.83082 0.40631 0.62853
 C1203 C 0.85367 0.43231 0.60144
 C1204 C 0.89436 0.40559 0.58152
 C1205 C 0.92700 0.38864 0.61378
 C1206 C 0.90414 0.36242 0.64066
 C1207 C 0.84774 0.33451 0.59296
 C1208 C 0.87053 0.36054 0.56609
 H1209 H 0.80075 0.41996 0.64462
 H1210 H 0.84266 0.46786 0.59414
 H1211 H 0.96444 0.39809 0.61608
 H1212 H 0.92237 0.34866 0.66553
 H1213 H 0.82963 0.30172 0.58608
 H1214 H 0.87134 0.35003 0.53643
 C1215 C 1.14188 1.14566 0.63553
 C1216 C 1.13528 1.09373 0.64660
 C1217 C 1.10916 1.06875 0.62140
 C1218 C 1.09240 1.09747 0.58690
 C1219 C 1.06510 1.13965 0.60349
 C1220 C 1.09105 1.16480 0.62924
 C1221 C 1.16439 1.14421 0.59560
 C1222 C 1.13831 1.11889 0.57004
 H1223 H 1.15013 1.07771 0.67202
 H1224 H 1.10137 1.03158 0.62562
 H1225 H 1.02989 1.15058 0.59415
 H1226 H 1.07752 1.19668 0.64250
 H1227 H 1.19773 1.16143 0.58800
 H1228 H 1.14913 1.11481 0.54060
 C1229 C 0.64116 0.64731 0.13475
 C1230 C 0.63510 0.59531 0.14580
 C1231 C 0.60907 0.57014 0.12068
 C1232 C 0.59186 0.59875 0.08628
 C1233 C 0.56430 0.64070 0.10296
 C1234 C 0.59014 0.66603 0.12866
 C1235 C 0.66347 0.64611 0.09473
 C1236 C 0.63748 0.62057 0.06926
 H1237 H 0.65029 0.57939 0.17113
 H1238 H 0.60169 0.53288 0.12488
 H1239 H 0.52905 0.65150 0.09361
 H1240 H 0.57644 0.69784 0.14192
 H1241 H 0.69660 0.66364 0.08703
 H1242 H 0.64818 0.61658 0.03978
 C1243 C 1.13992 0.85094 0.36553
 C1244 C 1.08823 0.83346 0.37064
 C1245 C 1.06246 0.85908 0.39618
 C1246 C 1.09077 0.90006 0.41370
 C1247 C 1.13530 0.87680 0.43121
 C1248 C 1.16121 0.85095 0.40590
 C1249 C 1.13563 0.90323 0.35493
 C1250 C 1.10967 0.92870 0.37986
 H1251 H 1.07403 0.80213 0.35694
 H1252 H 1.02675 0.84897 0.40495
 H1253 H 1.14533 0.88008 0.46089
 H1254 H 1.19358 0.83240 0.41396
 H1255 H 1.15192 0.91913 0.33000
 H1256 H 1.10344 0.96618 0.37589
 C1257 C 0.63981 0.35170 -0.13492
 C1258 C 0.58828 0.33394 -0.12940
 C1259 C 0.56251 0.35968 -0.10392
 C1260 C 0.59064 0.40106 -0.08682
 C1261 C 0.63548 0.37830 -0.06939
 C1262 C 0.66138 0.35235 -0.09464
 C1263 C 0.63502 0.40384 -0.14589
 C1264 C 0.60909 0.42943 -0.12098
 H1265 H 0.57417 0.30240 -0.14285
 H1266 H 0.52690 0.34947 -0.09496
 H1267 H 0.64573 0.38195 -0.03978
 H1268 H 0.69395 0.33412 -0.08659
 H1269 H 0.65092 0.41952 -0.17106
 H1270 H 0.60251 0.46682 -0.12519
 C1271 C 0.86004 1.14840 0.36499
 C1272 C 0.86448 1.09612 0.35445
 C1273 C 0.89047 1.07067 0.37945
 C1274 C 0.90932 1.09931 0.41328
 C1275 C 0.93753 1.14037 0.39567
 C1276 C 0.91171 1.16595 0.37010
 C1277 C 0.83877 1.14830 0.40538
 C1278 C 0.86473 1.12250 0.43074
 H1279 H 0.84832 1.08025 0.32949
 H1280 H 0.89681 1.03321 0.37552
 H1281 H 0.97325 1.15051 0.40437
 H1282 H 0.92588 1.19728 0.35632
 H1283 H 0.80637 1.16679 0.41345
 H1284 H 0.85469 1.11923 0.46042
 C1285 C 0.35918 0.64864 -0.13528
 C1286 C 0.36433 0.59648 -0.14600
 C1287 C 0.39040 0.57120 -0.12098
 C1288 C 0.40858 0.59985 -0.08694
 C1289 C 0.43648 0.64133 -0.10420
 C1290 C 0.41058 0.66676 -0.12982
 C1291 C 0.33752 0.64806 -0.09503
 C1292 C 0.36355 0.62240 -0.06964
 H1293 H 0.34856 0.58055 -0.17110
 H1294 H 0.39727 0.53385 -0.12504
 H1295 H 0.47199 0.65182 -0.09524
 H1296 H 0.42450 0.69834 -0.14339
 H1297 H 0.30482 0.66612 -0.08710
 H1298 H 0.35329 0.61884 -0.04002
 C1299 C 0.85870 0.85275 0.63472
 C1300 C 0.86418 0.90485 0.64551
 C1301 C 0.89035 0.93003 0.62047
 C1302 C 0.90822 0.90130 0.58638
 C1303 C 0.93592 0.85971 0.60353
 C1304 C 0.90994 0.83437 0.62916
 C1305 C 0.83690 0.85346 0.59453
 C1306 C 0.86302 0.87901 0.56911
 H1307 H 0.84857 0.92081 0.67066
 H1308 H 0.89749 0.96734 0.62455
 H1309 H 0.97136 0.84910 0.59451
 H1310 H 0.92368 0.80272 0.64268
 H1311 H 0.80402 0.83559 0.58668
 H1312 H 0.85271 0.88270 0.53952
 C1313 C 0.35873 0.35363 0.13518
 C1314 C 0.40967 0.33487 0.12878
 C1315 C 0.43536 0.36030 0.10301
 C1316 C 0.40774 0.40239 0.08655
 C1317 C 0.36197 0.38074 0.06972
 C1318 C 0.33613 0.35511 0.09528
 C1319 C 0.36497 0.40557 0.14631
 C1320 C 0.39083 0.43084 0.12109
 H1321 H 0.42342 0.30298 0.14193
 H1322 H 0.47056 0.34955 0.09350
 H1323 H 0.35105 0.38491 0.04031
 H1324 H 0.30290 0.33768 0.08771
 H1325 H 0.34995 0.42140 0.17172
 H1326 H 0.39822 0.46809 0.12528
   
