data_POSCAR
  _audit_creation_date              2014-09-24
  _audit_creation_method            'ToBaCCo'
  _symmetry_space_group_name_H-M    'P1'
  _symmetry_Int_Tables_number       1
  _symmetry_cell_setting            triclinic
  loop_
  _symmetry_equiv_pos_as_xyz
 x,y,z
_cell_length_a 63.9769
_cell_length_b 63.9204
_cell_length_c 63.7998
_cell_angle_alpha 89.934400
_cell_angle_beta 89.980600
_cell_angle_gamma 89.952900
loop_
  _atom_site_label
  _atom_site_type_symbol
  _atom_site_fract_x
  _atom_site_fract_y
  _atom_site_fract_z
N1 N 0.36060 1.34712 0.30309
 N2 N 0.34588 1.36151 0.30318
 C3 C 0.34916 1.37483 0.28710
 C4 C 0.36681 1.36831 0.27656
 C5 C 0.37374 1.35075 0.28699
 H6 H 0.33956 1.38828 0.28340
 H7 H 0.38734 1.34140 0.28324
 Cu8 Cu 0.32398 1.36144 0.32441
 Cu9 Cu 0.36185 1.32490 0.32395
 Cu10 Cu 0.32349 1.32485 0.36235
 N11 N 0.30278 1.36146 0.34633
 N12 N 0.30267 1.34705 0.36109
 C13 C 0.28659 1.35065 0.37423
 C14 C 0.27618 1.36821 0.36727
 C15 C 0.28673 1.37476 0.34960
 H16 H 0.28282 1.34128 0.38784
 H17 H 0.28305 1.38821 0.33997
 N18 N 0.34588 1.30369 0.36100
 N19 N 0.36050 1.30372 0.34637
 C20 C 0.37359 1.28754 0.34978
 C21 C 0.36683 1.27697 0.36733
 C22 C 0.34930 1.28749 0.37411
 H23 H 0.38712 1.28378 0.34034
 H24 H 0.33988 1.28368 0.38766
 H25 H 0.33025 1.32429 0.33068
 H26 H 0.34692 1.34142 0.34745
 N27 N 0.36089 0.84674 0.80363
 N28 N 0.34586 0.86080 0.80334
 C29 C 0.34849 0.87335 0.78656
 C30 C 0.36604 0.86670 0.77594
 C31 C 0.37359 0.84985 0.78709
 H32 H 0.33870 0.88657 0.78259
 H33 H 0.38753 0.84087 0.78373
 Cu34 Cu 0.32491 0.86199 0.82546
 Cu35 Cu 0.36365 0.82648 0.82618
 Cu36 Cu 0.32338 0.82421 0.86237
 N37 N 0.30333 0.86141 0.84696
 N38 N 0.30271 0.84651 0.86119
 C39 C 0.28639 0.84988 0.87408
 C40 C 0.27634 0.86777 0.86748
 C41 C 0.28737 0.87476 0.85030
 H42 H 0.28225 0.84018 0.88735
 H43 H 0.28404 0.88855 0.84105
 N44 N 0.34591 0.80322 0.86104
 N45 N 0.36135 0.80417 0.84731
 C46 C 0.37445 0.78800 0.85064
 C47 C 0.36688 0.77651 0.86725
 C48 C 0.34885 0.78647 0.87354
 H49 H 0.38855 0.78490 0.84182
 H50 H 0.33883 0.78198 0.88643
 H51 H 0.33180 0.82498 0.83097
 H52 H 0.34677 0.84180 0.84960
 N53 N 0.86122 1.34693 0.80289
 N54 N 0.84622 1.36103 0.80266
 C55 C 0.84940 1.37421 0.78645
 C56 C 0.86725 1.36788 0.77614
 C57 C 0.87441 1.35059 0.78685
 H58 H 0.83961 1.38746 0.78254
 H59 H 0.88818 1.34142 0.78329
 Cu60 Cu 0.82426 1.36114 0.82381
 Cu61 Cu 0.86262 1.32491 0.82392
 Cu62 Cu 0.82226 1.32293 0.86005
 N63 N 0.80372 1.36147 0.84636
 N64 N 0.80313 1.34657 0.86058
 C65 C 0.78734 1.35036 0.87401
 C66 C 0.77765 1.36861 0.86785
 C67 C 0.78831 1.37532 0.85030
 H68 H 0.78310 1.34049 0.88712
 H69 H 0.78494 1.38910 0.84105
 N70 N 0.84571 1.30297 0.86010
 N71 N 0.86115 1.30378 0.84637
 C72 C 0.87474 1.28818 0.85048
 C73 C 0.86746 1.27722 0.86757
 C74 C 0.84911 1.28690 0.87336
 H75 H 0.88884 1.28497 0.84171
 H76 H 0.83905 1.28257 0.88628
 H77 H 0.83103 1.32371 0.82855
 H78 H 0.84608 1.34045 0.84719
 N79 N 0.86143 0.84680 0.30313
 N80 N 0.84673 0.86122 0.30320
 C81 C 0.84953 0.87398 0.28660
 C82 C 0.86685 0.86709 0.27574
 C83 C 0.87410 0.84988 0.28655
 H84 H 0.83994 0.88742 0.28286
 H85 H 0.88777 0.84061 0.28291
 Cu86 Cu 0.82559 0.86238 0.32523
 Cu87 Cu 0.86377 0.82605 0.32530
 Cu88 Cu 0.82562 0.82600 0.36350
 N89 N 0.80358 0.86114 0.34637
 N90 N 0.80349 0.84671 0.36110
 C91 C 0.78692 0.84977 0.37375
 C92 C 0.77613 0.86697 0.36649
 C93 C 0.78699 0.87386 0.34914
 H94 H 0.78326 0.84049 0.38745
 H95 H 0.78326 0.88730 0.33953
 N96 N 0.84708 0.80398 0.36142
 N97 N 0.86169 0.80400 0.34678
 C98 C 0.87426 0.78731 0.34966
 C99 C 0.86715 0.77642 0.36688
 C100 C 0.84996 0.78728 0.37401
 H101 H 0.88773 0.78350 0.34017
 H102 H 0.84049 0.78343 0.38751
 H103 H 0.83210 0.82555 0.33177
 H104 H 0.84880 0.84271 0.34855
 N105 N 0.63879 0.65357 0.30358
 N106 N 0.65331 0.63898 0.30382
 C107 C 0.65051 0.62624 0.28724
 C108 C 0.63338 0.63330 0.27621
 C109 C 0.62625 0.65060 0.28690
 H110 H 0.65997 0.61269 0.28363
 H111 H 0.61271 0.66001 0.28311
 Cu112 Cu 0.67424 0.63751 0.32599
 Cu113 Cu 0.63646 0.67431 0.32566
 Cu114 Cu 0.67461 0.67429 0.36383
 N115 N 0.69638 0.63894 0.34693
 N116 N 0.69665 0.65351 0.36148
 C117 C 0.71331 0.65052 0.37402
 C118 C 0.72398 0.63321 0.36686
 C119 C 0.71294 0.62619 0.34971
 H120 H 0.71713 0.65992 0.38757
 H121 H 0.71653 0.61264 0.34022
 N122 N 0.65325 0.69637 0.36167
 N123 N 0.63863 0.69638 0.34704
 C124 C 0.62610 0.71309 0.34988
 C125 C 0.63324 0.72397 0.36707
 C126 C 0.65040 0.71309 0.37421
 H127 H 0.61261 0.71691 0.34041
 H128 H 0.65987 0.71690 0.38771
 H129 H 0.66814 0.67448 0.33208
 H130 H 0.65124 0.65770 0.34909
 N131 N 0.63829 0.15292 0.80319
 N132 N 0.65306 0.13854 0.80327
 C133 C 0.65020 0.12563 0.78682
 C134 C 0.63276 0.13238 0.77605
 C135 C 0.62552 0.14965 0.78674
 H136 H 0.65990 0.11229 0.78305
 H137 H 0.61186 0.15893 0.78304
 Cu138 Cu 0.67451 0.13854 0.82497
 Cu139 Cu 0.63616 0.17409 0.82510
 Cu140 Cu 0.67443 0.17407 0.86340
 N141 N 0.69625 0.13859 0.84637
 N142 N 0.69634 0.15295 0.86116
 C143 C 0.71280 0.14970 0.87390
 C144 C 0.72350 0.13245 0.86665
 C145 C 0.71271 0.12572 0.84921
 H146 H 0.71651 0.15896 0.88757
 H147 H 0.71650 0.11239 0.83950
 N148 N 0.65313 0.19632 0.86106
 N149 N 0.63850 0.19634 0.84642
 C150 C 0.62606 0.21312 0.84922
 C151 C 0.63324 0.22403 0.86637
 C152 C 0.65036 0.21309 0.87354
 H153 H 0.61256 0.21695 0.83976
 H154 H 0.65982 0.21689 0.88705
 H155 H 0.66776 0.17516 0.83176
 H156 H 0.65124 0.15773 0.84838
 N157 N 1.13914 0.65361 0.80319
 N158 N 1.15379 0.63915 0.80341
 C159 C 1.15056 0.62586 0.78733
 C160 C 1.13302 0.63245 0.77665
 C161 C 1.12612 0.65004 0.78702
 H162 H 1.16010 0.61235 0.78372
 H163 H 1.11260 0.65944 0.78316
 Cu164 Cu 1.17541 0.63899 0.82487
 Cu165 Cu 1.13785 0.67579 0.82404
 Cu166 Cu 1.17621 0.67583 0.86243
 N167 N 1.19685 0.63919 0.84650
 N168 N 1.19705 0.65367 0.86114
 C169 C 1.21322 0.65013 0.87417
 C170 C 1.22359 0.63254 0.86728
 C171 C 1.21293 0.62592 0.84973
 H172 H 1.21707 0.65953 0.88770
 H173 H 1.21655 0.61241 0.84020
 N174 N 1.15379 0.69693 0.86108
 N175 N 1.13917 0.69692 0.84646
 C176 C 1.12607 0.71307 0.84987
 C177 C 1.13283 0.72361 0.86741
 C178 C 1.15036 0.71310 0.87419
 H179 H 1.11254 0.71685 0.84044
 H180 H 1.15978 0.71690 0.88772
 H181 H 1.16946 0.67620 0.83076
 H182 H 1.15264 0.65937 0.84771
 N183 N 1.13863 0.15293 0.30371
 N184 N 1.15367 0.13887 0.30348
 C185 C 1.15094 0.12617 0.28686
 C186 C 1.13333 0.13273 0.27628
 C187 C 1.12583 0.14967 0.28730
 H188 H 1.16080 0.11301 0.28288
 H189 H 1.11195 0.15871 0.28384
 Cu190 Cu 1.17497 0.13859 0.32525
 Cu191 Cu 1.13613 0.17360 0.32597
 Cu192 Cu 1.17638 0.17577 0.36234
 N193 N 1.19621 0.13831 0.34703
 N194 N 1.19682 0.15314 0.36132
 C195 C 1.21304 0.14960 0.37429
 C196 C 1.22301 0.13167 0.36772
 C197 C 1.21206 0.12482 0.35045
 H198 H 1.21722 0.15928 0.38753
 H199 H 1.21543 0.11112 0.34112
 N200 N 1.15398 0.19695 0.36073
 N201 N 1.13859 0.19606 0.34695
 C202 C 1.12557 0.21232 0.35018
 C203 C 1.13315 0.22379 0.36676
 C204 C 1.15110 0.21374 0.37314
 H205 H 1.11148 0.21545 0.34135
 H206 H 1.16107 0.21816 0.38608
 H207 H 1.16791 0.17549 0.33096
 H208 H 1.15300 0.15842 0.34941
 N209 N 0.63928 1.34631 0.69694
 N210 N 0.65427 1.36040 0.69705
 C211 C 0.65127 1.37350 0.71332
 C212 C 0.63350 1.36719 0.72378
 C213 C 0.62622 1.34997 0.71308
 H214 H 0.66102 1.38677 0.71711
 H215 H 0.61240 1.34091 0.71667
 Cu216 Cu 0.67555 1.36050 0.67528
 Cu217 Cu 0.63750 1.32445 0.67572
 Cu218 Cu 0.67787 1.32248 0.63942
 N219 N 0.69679 1.36076 0.65344
 N220 N 0.69739 1.34587 0.63921
 C221 C 0.71330 1.34959 0.62590
 C222 C 0.72308 1.36772 0.63220
 C223 C 0.71233 1.37447 0.64966
 H224 H 0.71750 1.33980 0.61273
 H225 H 0.71563 1.38827 0.65886
 N226 N 0.65423 1.30272 0.63926
 N227 N 0.63882 1.30353 0.65305
 C228 C 0.62517 1.28804 0.64892
 C229 C 0.63236 1.27715 0.63176
 C230 C 0.65073 1.28676 0.62595
 H231 H 0.61109 1.28482 0.65774
 H232 H 0.66076 1.28241 0.61302
 H233 H 0.66896 1.32317 0.67081
 H234 H 0.65377 1.33974 0.65213
 N235 N 0.63889 0.84658 1.19672
 N236 N 0.65327 0.86129 1.19623
 C237 C 0.64987 0.87474 1.21212
 C238 C 0.63252 0.86798 1.22300
 C239 C 0.62588 0.85014 1.21292
 H240 H 0.65925 0.88837 1.21556
 H241 H 0.61254 0.84058 1.21700
 Cu242 Cu 0.67503 0.86100 1.17495
 Cu243 Cu 0.63775 0.82409 1.17613
 Cu244 Cu 0.67412 0.82626 1.13582
 N245 N 0.69677 0.86072 1.15361
 N246 N 0.69645 0.84679 1.13843
 C247 C 0.71283 0.85009 1.12559
 C248 C 0.72390 0.86692 1.13320
 C249 C 0.71340 0.87338 1.15092
 H250 H 0.71621 0.84117 1.11159
 H251 H 0.71742 0.88644 1.16088
 N252 N 0.65304 0.80391 1.13817
 N253 N 0.63927 0.80302 1.15359
 C254 C 0.62681 0.78629 1.15067
 C255 C 0.63315 0.77628 1.13266
 C256 C 0.64976 0.78770 1.12508
 H257 H 0.61389 0.78187 1.16066
 H258 H 0.65859 0.78456 1.11098
 H259 H 0.66905 0.82421 1.16765
 H260 H 0.65082 0.84151 1.15277
 N261 N 1.13922 1.34634 1.19670
 N262 N 1.15389 1.36076 1.19651
 C263 C 1.15068 1.37401 1.21260
 C264 C 1.13311 1.36748 1.22325
 C265 C 1.12616 1.34996 1.21285
 H266 H 1.16022 1.38747 1.21623
 H267 H 1.11257 1.34065 1.21667
 Cu268 Cu 1.17538 1.36077 1.17496
 Cu269 Cu 1.13785 1.32418 1.17581
 Cu270 Cu 1.17623 1.32417 1.13733
 N271 N 1.19688 1.36076 1.15341
 N272 N 1.19707 1.34634 1.13870
 C273 C 1.21319 1.34996 1.12561
 C274 C 1.22356 1.36749 1.13259
 C275 C 1.21293 1.37401 1.15020
 H276 H 1.21702 1.34065 1.11199
 H277 H 1.21655 1.38747 1.15977
 N278 N 1.15379 1.30310 1.13867
 N279 N 1.13918 1.30311 1.15333
 C280 C 1.12608 1.28697 1.14991
 C281 C 1.13284 1.27644 1.13236
 C282 C 1.15036 1.28695 1.12556
 H283 H 1.11258 1.28319 1.15937
 H284 H 1.15978 1.28314 1.11202
 H285 H 1.16939 1.32363 1.16895
 H286 H 1.15259 1.34055 1.15209
 N287 N 1.13888 0.84643 0.69663
 N288 N 1.15347 0.86092 0.69636
 C289 C 1.15020 0.87423 0.71241
 C290 C 1.13272 0.86760 0.72315
 C291 C 1.12589 0.84996 0.71285
 H292 H 1.15970 0.88774 0.71600
 H293 H 1.11239 0.84055 0.71676
 Cu294 Cu 1.17518 0.86090 0.67502
 Cu295 Cu 1.13764 0.82419 0.67583
 Cu296 Cu 1.17602 0.82417 0.63739
 N297 N 1.19650 0.86091 0.65328
 N298 N 1.19678 0.84641 0.63866
 C299 C 1.21300 0.84994 0.62566
 C300 C 1.22327 0.86758 0.63253
 C301 C 1.21252 0.87421 0.65003
 H302 H 1.21692 0.84052 0.61214
 H303 H 1.21610 0.88771 0.65956
 N304 N 1.15366 0.80302 0.63878
 N305 N 1.13904 0.80304 0.65343
 C306 C 1.12594 0.78690 0.65000
 C307 C 1.13270 0.77638 0.63244
 C308 C 1.15023 0.78688 0.62567
 H309 H 1.11240 0.78315 0.65943
 H310 H 1.15964 0.78311 0.61210
 H311 H 1.16923 0.82369 0.66906
 H312 H 1.15241 0.84058 0.65216
 N313 N 0.36072 0.65354 0.69653
 N314 N 0.34639 0.63879 0.69608
 C315 C 0.34964 0.62553 0.71219
 C316 C 0.36687 0.63243 0.72314
 C317 C 0.37357 0.65017 0.71289
 H318 H 0.34033 0.61185 0.71565
 H319 H 0.38687 0.65978 0.71695
 Cu320 Cu 0.32508 0.63826 0.67432
 Cu321 Cu 0.36191 0.67576 0.67572
 Cu322 Cu 0.32361 0.67580 0.63732
 N323 N 0.30337 0.63882 0.65297
 N324 N 0.30288 0.65357 0.63857
 C325 C 0.28655 0.65020 0.62571
 C326 C 0.27636 0.63246 0.63249
 C327 C 0.28732 0.62557 0.64976
 H328 H 0.28246 0.65982 0.61236
 H329 H 0.28390 0.61189 0.65913
 N330 N 0.34593 0.69696 0.63868
 N331 N 0.36052 0.69693 0.65333
 C332 C 0.37361 0.71309 0.64991
 C333 C 0.36685 0.72364 0.63236
 C334 C 0.34935 0.71313 0.62556
 H335 H 0.38713 0.71684 0.65934
 H336 H 0.33995 0.71693 0.61199
 H337 H 0.33027 0.67566 0.66901
 H338 H 0.34746 0.65946 0.65179
 N339 N 0.36114 0.15344 1.19627
 N340 N 0.34595 0.13958 1.19673
 C341 C 0.34867 0.12695 1.21344
 C342 C 0.36643 0.13334 1.22383
 C343 C 0.37403 0.15013 1.21262
 H344 H 0.33874 0.11390 1.21756
 H345 H 0.38806 0.15898 1.21588
 Cu346 Cu 0.32455 0.13908 1.17504
 Cu347 Cu 0.36374 0.17388 1.17384
 Cu348 Cu 0.32358 0.17614 1.13751
 N349 N 0.30341 0.13905 1.15313
 N350 N 0.30299 0.15373 1.13865
 C351 C 0.28686 0.15017 1.12559
 C352 C 0.27674 0.13237 1.13230
 C353 C 0.28752 0.12564 1.14975
 H354 H 0.28286 0.15971 1.11216
 H355 H 0.28404 0.11203 1.15919
 N356 N 0.34604 0.19717 1.13895
 N357 N 0.36143 0.19623 1.15273
 C358 C 0.37450 0.21242 1.14946
 C359 C 0.36696 0.22391 1.13283
 C360 C 0.34898 0.21394 1.12647
 H361 H 0.38856 0.21553 1.15832
 H362 H 0.33901 0.21841 1.11354
 H363 H 0.33194 0.17587 1.16892
 H364 H 0.34671 0.15845 1.15064
 N365 N 0.86109 0.65329 1.19649
 N366 N 0.84686 0.63845 1.19588
 C367 C 0.85028 0.62495 1.21176
 C368 C 0.86752 0.63179 1.22273
 C369 C 0.87405 0.64974 1.21273
 H370 H 0.84099 0.61122 1.21513
 H371 H 0.88727 0.65942 1.21691
 Cu372 Cu 0.82514 0.63874 1.17457
 Cu373 Cu 0.86211 0.67593 1.17601
 Cu374 Cu 0.82578 0.67384 1.13569
 N375 N 0.80339 0.63904 1.15324
 N376 N 0.80359 0.65313 1.13818
 C377 C 0.78719 0.64988 1.12538
 C378 C 0.77622 0.63290 1.13289
 C379 C 0.78681 0.62633 1.15053
 H380 H 0.78370 0.65894 1.11149
 H381 H 0.78286 0.61316 1.16042
 N382 N 0.84673 0.69630 1.13816
 N383 N 0.86048 0.69714 1.15359
 C384 C 0.87289 0.71392 1.15072
 C385 C 0.86654 0.72400 1.13274
 C386 C 0.84997 0.71257 1.12512
 H387 H 0.88582 0.71829 1.16070
 H388 H 0.84117 0.71574 1.11100
 H389 H 0.83081 0.67565 1.16755
 H390 H 0.84918 0.65864 1.15255
 N391 N 0.86084 0.15343 0.69633
 N392 N 0.84584 0.13937 0.69663
 C393 C 0.84847 0.12685 0.71343
 C394 C 0.86601 0.13351 0.72405
 C395 C 0.87354 0.15034 0.71287
 H396 H 0.83870 0.11364 0.71742
 H397 H 0.88745 0.15933 0.71623
 Cu398 Cu 0.82490 0.13818 0.67451
 Cu399 Cu 0.86361 0.17366 0.67377
 Cu400 Cu 0.82336 0.17596 0.63758
 N401 N 0.80332 0.13879 0.65302
 N402 N 0.80269 0.15369 0.63879
 C403 C 0.78636 0.15034 0.62592
 C404 C 0.77632 0.13246 0.63252
 C405 C 0.78735 0.12546 0.64970
 H406 H 0.78222 0.16004 0.61265
 H407 H 0.78403 0.11167 0.65895
 N408 N 0.84588 0.19691 0.63889
 N409 N 0.86130 0.19595 0.65262
 C410 C 0.87442 0.21209 0.64928
 C411 C 0.86685 0.22358 0.63266
 C412 C 0.84883 0.21365 0.62638
 H413 H 0.88851 0.21517 0.65810
 H414 H 0.83882 0.21814 0.61348
 H415 H 0.83176 0.17518 0.66900
 H416 H 0.84675 0.15834 0.65036
 N417 N 1.34716 0.36110 0.69609
 N418 N 1.36151 0.34632 0.69602
 C419 C 1.37440 0.34917 0.71248
 C420 C 1.36768 0.36662 0.72326
 C421 C 1.35043 0.37386 0.71254
 H422 H 1.38773 0.33947 0.71627
 H423 H 1.34117 0.38753 0.71624
 Cu424 Cu 1.36153 0.32489 0.67430
 Cu425 Cu 1.32603 0.36330 0.67416
 Cu426 Cu 1.32600 0.32499 0.63589
 N427 N 1.36151 0.30318 0.65287
 N428 N 1.34714 0.30308 0.63808
 C429 C 1.35040 0.28663 0.62533
 C430 C 1.36765 0.27594 0.63261
 C431 C 1.37440 0.28672 0.65004
 H432 H 1.34112 0.28291 0.61166
 H433 H 1.38773 0.28296 0.65977
 N434 N 1.30377 0.34632 0.63822
 N435 N 1.30379 0.36096 0.65285
 C436 C 1.28702 0.37343 0.65007
 C437 C 1.27609 0.36626 0.63294
 C438 C 1.28699 0.34911 0.62576
 H439 H 1.28323 0.38694 0.65953
 H440 H 1.28316 0.33965 0.61226
 H441 H 1.32495 0.33169 0.66755
 H442 H 1.34234 0.34822 0.65091
 N443 N 1.34704 0.86080 1.19689
 N444 N 1.36144 0.84608 1.19679
 C445 C 1.37474 0.84937 1.21284
 C446 C 1.36819 0.86700 1.22341
 C447 C 1.35064 0.87393 1.21298
 H448 H 1.38817 0.83976 1.21654
 H449 H 1.34127 0.88751 1.21676
 Cu450 Cu 1.36141 0.82420 1.17555
 Cu451 Cu 1.32486 0.86204 1.17603
 Cu452 Cu 1.32487 0.82368 1.13765
 N453 N 1.36146 0.80298 1.15366
 N454 N 1.34707 0.80285 1.13892
 C455 C 1.35070 0.78677 1.12579
 C456 C 1.36825 0.77637 1.13274
 C457 C 1.37478 0.78694 1.15039
 H458 H 1.34134 0.78298 1.11219
 H459 H 1.38820 0.78325 1.16001
 N460 N 1.30371 0.84607 1.13899
 N461 N 1.30371 0.86069 1.15362
 C462 C 1.28755 0.87379 1.15019
 C463 C 1.27702 0.86703 1.13265
 C464 C 1.28755 0.84950 1.12588
 H465 H 1.28376 0.88732 1.15963
 H466 H 1.28376 0.84007 1.11234
 H467 H 1.32428 0.83042 1.16931
 H468 H 1.34138 0.84715 1.15252
 N469 N 0.84693 0.36137 1.19701
 N470 N 0.86153 0.34685 1.19666
 C471 C 0.87487 0.35012 1.21267
 C472 C 0.86812 0.36751 1.22350
 C473 C 0.85043 0.37434 1.21325
 H474 H 0.88842 0.34063 1.21620
 H475 H 0.84089 0.38774 1.21726
 Cu476 Cu 0.86151 0.32526 1.17517
 Cu477 Cu 0.82459 0.36255 1.17627
 Cu478 Cu 0.82458 0.32413 1.13785
 N479 N 0.86150 0.30377 1.15359
 N480 N 0.84691 0.30341 1.13907
 C481 C 0.85041 0.28718 1.12610
 C482 C 0.86809 0.27692 1.13292
 C483 C 0.87483 0.28776 1.15031
 H484 H 0.84088 0.28316 1.11270
 H485 H 0.88838 0.28423 1.15979
 N486 N 0.80334 0.34646 1.13930
 N487 N 0.80334 0.36108 1.15393
 C488 C 0.78716 0.37416 1.15051
 C489 C 0.77662 0.36737 1.13298
 C490 C 0.78716 0.34985 1.12621
 H491 H 0.78339 0.38771 1.15991
 H492 H 0.78340 0.34044 1.11266
 H493 H 0.82425 0.33094 1.16949
 H494 H 0.84083 0.34790 1.15245
 N495 N 0.84641 0.86112 0.69658
 N496 N 0.86079 0.84639 0.69646
 C497 C 0.87410 0.84966 0.71250
 C498 C 0.86761 0.86730 0.72307
 C499 C 0.85006 0.87424 0.71267
 H500 H 0.88753 0.84005 0.71618
 H501 H 0.84073 0.88784 0.71645
 Cu502 Cu 0.86074 0.82452 0.67525
 Cu503 Cu 0.82422 0.86239 0.67574
 Cu504 Cu 0.82420 0.82403 0.63736
 N505 N 0.86077 0.80332 0.65337
 N506 N 0.84639 0.80320 0.63863
 C507 C 0.85003 0.78711 0.62551
 C508 C 0.86758 0.77671 0.63246
 C509 C 0.87408 0.78728 0.65011
 H510 H 0.84069 0.78332 0.61191
 H511 H 0.88750 0.78360 0.65972
 N512 N 0.80306 0.84643 0.63872
 N513 N 0.80307 0.86105 0.65334
 C514 C 0.78691 0.87415 0.64993
 C515 C 0.77637 0.86739 0.63240
 C516 C 0.78689 0.84986 0.62562
 H517 H 0.78314 0.88768 0.65937
 H518 H 0.78309 0.84043 0.61208
 H519 H 0.82362 0.83078 0.66903
 H520 H 0.84073 0.84749 0.65224
 N521 N 0.65353 0.63864 0.69621
 N522 N 0.63967 0.65386 0.69664
 C523 C 0.62702 0.65112 0.71332
 C524 C 0.63339 0.63331 0.72372
 C525 C 0.65019 0.62572 0.71255
 H526 H 0.61396 0.66106 0.71741
 H527 H 0.65903 0.61166 0.71581
 Cu528 Cu 0.63917 0.67530 0.67495
 Cu529 Cu 0.67399 0.63608 0.67380
 Cu530 Cu 0.67618 0.67632 0.63744
 N531 N 0.63910 0.69650 0.65305
 N532 N 0.65376 0.69693 0.63858
 C533 C 0.65017 0.71309 0.62550
 C534 C 0.63237 0.72321 0.63221
 C535 C 0.62567 0.71240 0.64966
 H536 H 0.65968 0.71710 0.61208
 H537 H 0.61206 0.71588 0.65909
 N538 N 0.69723 0.65382 0.63890
 N539 N 0.69633 0.63840 0.65269
 C540 C 0.71253 0.62533 0.64942
 C541 C 0.72399 0.63290 0.63279
 C542 C 0.71398 0.65090 0.62643
 H543 H 0.71566 0.61124 0.65828
 H544 H 0.71843 0.66091 0.61350
 H545 H 0.67594 0.66790 0.66884
 H546 H 0.65856 0.65314 0.65058
 N547 N 0.65345 1.13868 1.19724
 N548 N 0.63908 1.15343 1.19710
 C549 C 0.62575 1.15017 1.21315
 C550 C 0.63224 1.13252 1.22374
 C551 C 0.64979 1.12555 1.21335
 H552 H 0.61232 1.15979 1.21680
 H553 H 0.65912 1.11194 1.21715
 Cu554 Cu 0.63914 1.17531 1.17586
 Cu555 Cu 0.67565 1.13743 1.17639
 Cu556 Cu 0.67568 1.17583 1.13796
 N557 N 0.63912 1.19653 1.15396
 N558 N 0.65350 1.19666 1.13921
 C559 C 0.64986 1.21276 1.12607
 C560 C 0.63231 1.22315 1.13301
 C561 C 0.62582 1.21256 1.15067
 H562 H 0.65920 1.21656 1.11245
 H563 H 0.61238 1.21623 1.16028
 N564 N 0.69682 1.15343 1.13933
 N565 N 0.69680 1.13880 1.15398
 C566 C 0.71297 1.12570 1.15056
 C567 C 0.72351 1.13249 1.13302
 C568 C 0.71299 1.15003 1.12623
 H569 H 0.71675 1.11216 1.16001
 H570 H 0.71678 1.15947 1.11268
 H571 H 0.67625 1.16906 1.16963
 H572 H 0.65914 1.15237 1.15286
 N573 N 0.15276 0.63865 1.19650
 N574 N 0.13869 0.65368 1.19674
 C575 C 0.12597 0.65092 1.21337
 C576 C 0.13255 0.63326 1.22393
 C577 C 0.14951 0.62579 1.21292
 H578 H 0.11280 0.66077 1.21735
 H579 H 0.15857 0.61191 1.21636
 Cu580 Cu 0.13844 0.67507 1.17495
 Cu581 Cu 0.17348 0.63624 1.17423
 Cu582 Cu 0.17562 0.67655 1.13781
 N583 N 0.13819 0.69643 1.15317
 N584 N 0.15302 0.69705 1.13886
 C585 C 0.14951 0.71331 1.12588
 C586 C 0.13159 0.72329 1.13249
 C587 C 0.12472 0.71231 1.14978
 H588 H 0.15919 0.71749 1.11262
 H589 H 0.11102 0.71567 1.15913
 N590 N 0.19680 0.65411 1.13939
 N591 N 0.19593 0.63870 1.15320
 C592 C 0.21218 0.62567 1.14994
 C593 C 0.22363 0.63325 1.13332
 C594 C 0.21358 0.65122 1.12694
 H595 H 0.21532 0.61157 1.15879
 H596 H 0.21799 0.66121 1.11398
 H597 H 0.17533 0.66806 1.16918
 H598 H 0.15830 0.65313 1.15079
 N599 N 0.15337 1.13935 0.69721
 N600 N 0.13892 1.15402 0.69709
 C601 C 0.12523 1.15028 0.71272
 C602 C 0.13158 1.13240 0.72303
 C603 C 0.14943 1.12580 0.71291
 H604 H 0.11176 1.15983 0.71638
 H605 H 0.15892 1.11233 0.71677
 Cu606 Cu 0.13921 1.17671 0.67660
 Cu607 Cu 0.17657 1.13944 0.67755
 Cu608 Cu 0.17653 1.17760 0.63927
 N609 N 0.13893 1.19718 0.65388
 N610 N 0.15336 1.19728 0.63917
 C611 C 0.14943 1.21297 0.62562
 C612 C 0.13161 1.22311 0.63224
 C613 C 0.12527 1.21282 0.65015
 H614 H 0.15892 1.21682 0.61212
 H615 H 0.11181 1.21650 0.65974
 N616 N 0.19666 1.15427 0.63950
 N617 N 0.19668 1.13966 0.65417
 C618 C 0.21221 1.12598 0.65019
 C619 C 0.22235 1.13237 0.63224
 C620 C 0.21219 1.15027 0.62580
 H621 H 0.21596 1.11244 0.65965
 H622 H 0.21593 1.15968 0.61221
 H623 H 0.17669 1.17104 0.67095
 H624 H 0.15983 1.15414 0.65406
 N625 N 1.34654 0.63973 0.30341
 N626 N 1.36141 0.65393 0.30402
 C627 C 1.37474 0.65059 0.28799
 C628 C 1.36777 0.63343 0.27695
 C629 C 1.34991 0.62687 0.28705
 H630 H 1.38850 0.65981 0.28464
 H631 H 1.34024 0.61363 0.28293
 Cu632 Cu 1.36194 0.67539 0.32564
 Cu633 Cu 1.32427 0.63854 0.32413
 Cu634 Cu 1.32640 0.67469 0.36444
 N635 N 1.36076 0.69744 0.34668
 N636 N 1.34669 0.69718 0.36172
 C637 C 1.34976 0.71369 0.37445
 C638 C 1.36659 0.72480 0.36686
 C639 C 1.37328 0.71419 0.34929
 H640 H 1.34074 0.71707 0.38838
 H641 H 1.38648 0.71813 0.33946
 N642 N 1.30415 0.65355 0.36215
 N643 N 1.30328 0.63984 0.34669
 C644 C 1.28660 0.62731 0.34962
 C645 C 1.27660 0.63355 0.36767
 C646 C 1.28799 0.65016 0.37527
 H647 H 1.28219 0.61443 0.33958
 H648 H 1.28483 0.65895 0.38940
 H649 H 1.32495 0.66989 0.33252
 H650 H 1.34178 0.65132 0.34761
 N651 N 1.34653 1.13909 0.80318
 N652 N 1.36114 1.15357 0.80354
 C653 C 1.37460 1.15016 0.78765
 C654 C 1.36798 1.13267 0.77694
 C655 C 1.35020 1.12598 0.78709
 H656 H 1.38818 1.15960 0.78413
 H657 H 1.34073 1.11255 0.78313
 Cu658 Cu 1.36082 1.17554 0.82461
 Cu659 Cu 1.32408 1.13795 0.82377
 Cu660 Cu 1.32622 1.17427 0.86401
 N661 N 1.36057 1.19706 0.84619
 N662 N 1.34674 1.19660 0.86146
 C663 C 1.35014 1.21285 0.87442
 C664 C 1.36693 1.22399 0.86680
 C665 C 1.37326 1.21365 0.84893
 H666 H 1.34130 1.21610 0.88850
 H667 H 1.38627 1.21776 0.83892
 N668 N 1.30387 1.15322 0.86169
 N669 N 1.30301 1.13945 0.84628
 C670 C 1.28627 1.12701 0.84919
 C671 C 1.27623 1.13336 0.86718
 C672 C 1.28765 1.14995 0.87476
 H673 H 1.28185 1.11410 0.83919
 H674 H 1.28449 1.15880 0.88885
 H675 H 1.32411 1.16929 0.83213
 H676 H 1.34166 1.15115 0.84690
 N677 N 0.84677 0.63864 0.80363
 N678 N 0.86088 0.65362 0.80342
 C679 C 0.87374 0.65071 0.78694
 C680 C 0.86725 0.63304 0.77643
 C681 C 0.85017 0.62571 0.78734
 H682 H 0.88694 0.66051 0.78298
 H683 H 0.84113 0.61185 0.78388
 Cu684 Cu 0.86117 0.67536 0.82484
 Cu685 Cu 0.82587 0.63646 0.82567
 Cu686 Cu 0.82582 0.67462 0.86383
 N687 N 0.86085 0.69677 0.84659
 N688 N 0.84673 0.69661 0.86161
 C689 C 0.85011 0.71289 0.87453
 C690 C 0.86720 0.72375 0.86715
 C691 C 0.87370 0.71322 0.84947
 H692 H 0.84106 0.71639 0.88841
 H693 H 0.88690 0.71715 0.83963
 N694 N 0.80371 0.65329 0.86166
 N695 N 0.80374 0.63866 0.84703
 C696 C 0.78702 0.62617 0.84985
 C697 C 0.77610 0.63333 0.86701
 C698 C 0.78697 0.65048 0.87417
 H699 H 0.78322 0.61269 0.84037
 H700 H 0.78313 0.65996 0.88766
 H701 H 0.82476 0.66810 0.83214
 H702 H 0.84275 0.65178 0.84853
 N703 N 0.84651 1.13866 0.30343
 N704 N 0.86109 1.15317 0.30369
 C705 C 0.87382 1.15040 0.28709
 C706 C 0.86678 1.13329 0.27604
 C707 C 0.84949 1.12615 0.28673
 H708 H 0.88738 1.15983 0.28350
 H709 H 0.84010 1.11261 0.28292
 Cu710 Cu 0.86259 1.17403 0.32590
 Cu711 Cu 0.82579 1.13628 0.32553
 Cu712 Cu 0.82574 1.17444 0.36369
 N713 N 0.86109 1.19618 0.34682
 N714 N 0.84650 1.19647 0.36136
 C715 C 0.84947 1.21313 0.37390
 C716 C 0.86679 1.22377 0.36675
 C717 C 0.87384 1.21272 0.34961
 H718 H 0.84006 1.21695 0.38745
 H719 H 0.88740 1.21628 0.34014
 N720 N 0.80369 1.15309 0.36153
 N721 N 0.80372 1.13847 0.34691
 C722 C 0.78702 1.12595 0.34973
 C723 C 0.77611 1.13310 0.36690
 C724 C 0.78696 1.15026 0.37405
 H725 H 0.78323 1.11247 0.34025
 H726 H 0.78311 1.15974 0.38755
 H727 H 0.82563 1.16797 0.33193
 H728 H 0.84233 1.15101 0.34897
 N729 N 0.65274 0.36126 0.30358
 N730 N 0.63866 0.34625 0.30337
 C731 C 0.62594 0.34902 0.28674
 C732 C 0.63252 0.36664 0.27615
 C733 C 0.64948 0.37410 0.28715
 H734 H 0.61277 0.33918 0.28279
 H735 H 0.65855 0.38796 0.28368
 Cu736 Cu 0.63840 0.32490 0.32518
 Cu737 Cu 0.67345 0.36365 0.32584
 Cu738 Cu 0.67557 0.32337 0.36229
 N739 N 0.63814 0.30356 0.34697
 N740 N 0.65296 0.30291 0.36127
 C741 C 0.64943 0.28666 0.37425
 C742 C 0.63150 0.27672 0.36766
 C743 C 0.62465 0.28771 0.35037
 H744 H 0.65912 0.28246 0.38751
 H745 H 0.61095 0.28438 0.34102
 N746 N 0.69676 0.34577 0.36068
 N747 N 0.69590 0.36117 0.34687
 C748 C 0.71215 0.37418 0.35009
 C749 C 0.72361 0.36658 0.36671
 C750 C 0.71355 0.34864 0.37312
 H751 H 0.71530 0.38825 0.34123
 H752 H 0.71796 0.33865 0.38608
 H753 H 0.67529 0.33184 0.33091
 H754 H 0.65828 0.34682 0.34931
 N755 N 0.65363 0.86144 0.80360
 N756 N 0.63959 0.84642 0.80336
 C757 C 0.62707 0.84905 0.78657
 C758 C 0.63370 0.86660 0.77592
 C759 C 0.65052 0.87415 0.78705
 H760 H 0.61387 0.83926 0.78263
 H761 H 0.65949 0.88809 0.78365
 Cu762 Cu 0.63840 0.82545 0.82549
 Cu763 Cu 0.67386 0.86420 0.82614
 Cu764 Cu 0.67614 0.82388 0.86236
 N765 N 0.63898 0.80385 0.84700
 N766 N 0.65387 0.80319 0.86121
 C767 C 0.65051 0.78683 0.87408
 C768 C 0.63264 0.77679 0.86750
 C769 C 0.62566 0.78787 0.85034
 H770 H 0.66020 0.78265 0.88733
 H771 H 0.61189 0.78456 0.84109
 N772 N 0.69708 0.84642 0.86101
 N773 N 0.69613 0.86187 0.84728
 C774 C 0.71226 0.87499 0.85060
 C775 C 0.72374 0.86740 0.86721
 C776 C 0.71381 0.84935 0.87351
 H777 H 0.71535 0.88911 0.84177
 H778 H 0.71829 0.83932 0.88640
 H779 H 0.67538 0.83233 0.83093
 H780 H 0.65857 0.84732 0.84957
 N781 N 0.15362 0.36058 0.80344
 N782 N 0.13906 0.34606 0.80378
 C783 C 0.12584 0.34926 0.78765
 C784 C 0.13257 0.36665 0.77679
 C785 C 0.15017 0.37350 0.78712
 H786 H 0.11227 0.33982 0.78412
 H787 H 0.15963 0.38696 0.78317
 Cu788 Cu 0.13867 0.32466 0.82550
 Cu789 Cu 0.17572 0.36191 0.82436
 Cu790 Cu 0.17575 0.32355 0.86283
 N791 N 0.13907 0.30299 0.84696
 N792 N 0.15364 0.30265 0.86152
 C793 C 0.15021 0.28635 0.87447
 C794 C 0.13260 0.27605 0.86756
 C795 C 0.12585 0.28688 0.85014
 H796 H 0.15968 0.28240 0.88794
 H797 H 0.11229 0.28337 0.84065
 N798 N 0.19679 0.34602 0.86151
 N799 N 0.19677 0.36063 0.84685
 C800 C 0.21286 0.37378 0.85029
 C801 C 0.22338 0.36705 0.86787
 C802 C 0.21291 0.34949 0.87466
 H803 H 0.21662 0.38731 0.84082
 H804 H 0.21671 0.34008 0.88823
 H805 H 0.17593 0.33029 0.83112
 H806 H 0.15938 0.34731 0.84816
 N807 N 0.15288 0.86097 0.30410
 N808 N 0.13854 0.84621 0.30420
 C809 C 0.12566 0.84907 0.28772
 C810 C 0.13239 0.86650 0.27691
 C811 C 0.14962 0.87373 0.28762
 H812 H 0.11234 0.83938 0.28394
 H813 H 0.15887 0.88739 0.28389
 Cu814 Cu 0.13852 0.82482 0.32598
 Cu815 Cu 0.17398 0.86316 0.32604
 Cu816 Cu 0.17404 0.82482 0.36438
 N817 N 0.13858 0.80304 0.34736
 N818 N 0.15294 0.80290 0.36215
 C819 C 0.14969 0.78641 0.37489
 C820 C 0.13246 0.77575 0.36759
 C821 C 0.12571 0.78658 0.35016
 H822 H 0.15896 0.78266 0.38858
 H823 H 0.11239 0.78285 0.34043
 N824 N 0.19624 0.84616 0.36203
 N825 N 0.19621 0.86080 0.34737
 C826 C 0.21294 0.87328 0.35013
 C827 C 0.22387 0.86611 0.36728
 C828 C 0.21300 0.84896 0.37450
 H829 H 0.21672 0.88679 0.34064
 H830 H 0.21685 0.83951 0.38803
 H831 H 0.17510 0.83154 0.33272
 H832 H 0.15772 0.84808 0.34935
 O833 O 1.07576 1.02025 1.10425
 O834 O 1.10008 1.02028 1.12874
 C835 C 1.08314 1.02748 1.12125
 C836 C 1.07233 1.04495 1.13198
 C837 C 1.08056 1.05343 1.15052
 H838 H 1.09443 1.04670 1.15759
 O839 O 0.92441 0.97934 1.10454
 O840 O 0.90007 0.97939 1.12903
 C841 C 0.91698 0.97212 1.12155
 C842 C 0.92773 0.95460 1.13232
 C843 C 0.91944 0.94607 1.15085
 H844 H 0.90554 0.95278 1.15787
 O845 O 1.02052 1.10420 1.07557
 O846 O 1.02052 1.12856 1.10002
 C847 C 1.02772 1.12116 1.08302
 C848 C 1.04513 1.13194 1.07217
 C849 C 1.05355 1.15050 1.08039
 H850 H 1.04683 1.15753 1.09431
 O851 O 0.97969 0.89578 1.07579
 O852 O 0.97963 0.87135 1.10022
 C853 C 0.97244 0.87883 1.08322
 C854 C 0.95499 0.86814 1.07237
 C855 C 0.94650 0.84959 1.08059
 H856 H 0.95321 0.84249 1.09449
 O857 O 1.10420 1.07580 1.02034
 O858 O 1.12861 1.10014 1.02038
 C859 C 1.12114 1.08319 1.02762
 C860 C 1.13185 1.07234 1.04513
 C861 C 1.15040 1.08051 1.05361
 H862 H 1.15745 1.09439 1.04688
 O863 O 0.89575 0.92445 1.02050
 O864 O 0.87138 0.90008 1.02054
 C865 C 0.87882 0.91702 1.02777
 C866 C 0.86811 0.92780 1.04529
 C867 C 0.84959 0.91959 1.05382
 H868 H 0.84253 0.90572 1.04709
 O869 O 0.97973 1.07545 1.10425
 O870 O 0.97971 1.09978 1.12874
 C871 C 0.97251 1.08284 1.12126
 C872 C 0.95506 1.07203 1.13202
 C873 C 0.94655 1.08031 1.15055
 H874 H 0.95324 1.09421 1.15758
 O875 O 1.02046 0.92441 1.10449
 O876 O 1.02048 0.90003 1.12897
 C877 C 1.02770 0.91698 1.12147
 C878 C 1.04520 0.92773 1.13217
 C879 C 1.05369 0.91948 1.15072
 H880 H 1.04693 0.90564 1.15784
 O881 O 1.10456 0.97941 1.07569
 O882 O 1.12893 0.97943 1.10013
 C883 C 1.12151 0.97220 1.08315
 C884 C 1.13225 0.95472 1.07237
 C885 C 1.15082 0.94625 1.08056
 H886 H 1.15792 0.95302 1.09441
 O887 O 0.89589 1.02036 1.07584
 O888 O 0.87150 1.02042 1.10028
 C889 C 0.87896 1.02764 1.08329
 C890 C 0.86825 1.04515 1.07247
 C891 C 0.84970 1.05362 1.08070
 H892 H 0.84264 1.04687 1.09459
 O893 O 0.92442 1.10431 1.02046
 O894 O 0.90006 1.12874 1.02052
 C895 C 0.91701 1.12126 1.02773
 C896 C 0.92783 1.13196 1.04523
 C897 C 0.91968 1.15053 1.05373
 H898 H 0.90582 1.15764 1.04701
 O899 O 1.07570 0.89560 1.02091
 O900 O 1.10008 0.87119 1.02081
 C901 C 1.08316 0.87863 1.02813
 C902 C 1.07242 0.86788 1.04569
 C903 C 1.08064 0.84932 1.05420
 H904 H 1.09450 0.84225 1.04746
 O905 O 0.92459 1.02024 1.10442
 O906 O 0.90025 1.02032 1.12890
 C907 C 0.91720 1.02750 1.12140
 C908 C 0.92801 1.04497 1.13210
 C909 C 0.91976 1.05352 1.15063
 H910 H 0.90587 1.04684 1.15770
 O911 O 1.07581 0.97936 1.10426
 O912 O 1.10013 0.97936 1.12874
 C913 C 1.08320 0.97214 1.12127
 C914 C 1.07238 0.95468 1.13205
 C915 C 1.08061 0.94615 1.15061
 H916 H 1.09452 0.95279 1.15765
 O917 O 1.02056 0.89555 1.07608
 O918 O 1.02053 0.87112 1.10051
 C919 C 1.02779 0.87858 1.08355
 C920 C 1.04531 0.86786 1.07279
 C921 C 1.05378 0.84930 1.08103
 H922 H 1.04702 0.84221 1.09491
 O923 O 0.97966 1.10417 1.07562
 O924 O 0.97965 1.12853 1.10006
 C925 C 0.97243 1.12111 1.08308
 C926 C 0.95495 1.13188 1.07229
 C927 C 0.94654 1.15045 1.08052
 H928 H 0.95332 1.15751 1.09438
 O929 O 0.89586 1.07565 1.02051
 O930 O 0.87145 1.10002 1.02055
 C931 C 0.87892 1.08306 1.02778
 C932 C 0.86823 1.07226 1.04532
 C933 C 0.84968 1.08046 1.05382
 H934 H 0.84260 1.09433 1.04707
 O935 O 1.10435 0.92418 1.02077
 O936 O 1.12878 0.89982 1.02065
 C937 C 1.12136 0.91676 1.02791
 C938 C 1.13217 0.92757 1.04534
 C939 C 1.15074 0.91937 1.05378
 H940 H 1.15778 0.90549 1.04705
 O941 O 0.97958 0.92418 1.10468
 O942 O 0.97956 0.89980 1.12916
 C943 C 0.97233 0.91674 1.12167
 C944 C 0.95481 0.92751 1.13238
 C945 C 0.94624 0.91923 1.15092
 H946 H 0.95293 0.90534 1.15799
 O947 O 1.02059 1.07549 1.10423
 O948 O 1.02059 1.09982 1.12872
 C949 C 1.02781 1.08288 1.12123
 C950 C 1.04528 1.07206 1.13196
 C951 C 1.05379 1.08029 1.15051
 H952 H 1.04709 1.09418 1.15757
 O953 O 0.89586 0.97947 1.07580
 O954 O 0.87147 0.97950 1.10024
 C955 C 0.87890 0.97228 1.08325
 C956 C 0.86815 0.95484 1.07243
 C957 C 0.84963 0.94637 1.08070
 H958 H 0.84260 0.95308 1.09461
 O959 O 1.10434 1.02033 1.07555
 O960 O 1.12870 1.02037 1.09998
 C961 C 1.12124 1.02761 1.08300
 C962 C 1.13191 1.04515 1.07220
 C963 C 1.15045 1.05359 1.08040
 H964 H 1.15756 1.04679 1.09425
 O965 O 0.92451 0.89595 1.02049
 O966 O 0.90018 0.87152 1.02053
 C967 C 0.91712 0.87898 1.02775
 C968 C 0.92793 0.86823 1.04524
 C969 C 0.91972 0.84968 1.05372
 H970 H 0.90586 0.84264 1.04699
 O971 O 1.07556 1.10441 1.02024
 O972 O 1.09992 1.12881 1.02030
 C973 C 1.08296 1.12135 1.02750
 C974 C 1.07214 1.13205 1.04499
 C975 C 1.08030 1.15060 1.05347
 H976 H 1.09413 1.15771 1.04671
 Cu977 Cu 1.08769 0.99983 1.08748
 Cu978 Cu 1.11691 0.99986 1.11685
 Cu979 Cu 0.91263 0.99984 1.08770
 Cu980 Cu 0.88338 0.99992 1.11707
 Cu981 Cu 1.00013 1.08739 1.08747
 Cu982 Cu 1.00011 1.11661 1.11684
 Cu983 Cu 1.00007 0.91242 1.08781
 Cu984 Cu 1.00004 0.88313 1.11717
 C985 C 1.05454 1.05424 1.12293
 H986 H 1.04831 1.04802 1.10845
 C987 C 1.07136 1.07103 1.15971
 C988 C 0.94556 0.94533 1.12333
 H989 H 0.95184 0.95160 1.10886
 C990 C 0.92862 0.92845 1.16008
 C991 C 1.05441 1.12296 1.05432
 H992 H 1.04823 1.10848 1.04810
 C993 C 1.07106 1.15976 1.07109
 C994 C 0.94572 0.87722 1.05455
 H995 H 0.95193 0.89171 1.04833
 C996 C 0.92894 0.84044 1.07133
 C997 C 1.12284 1.05452 1.05442
 H998 H 1.10836 1.04832 1.04820
 C999 C 1.15964 1.07118 1.07116
 C1000 C 0.87714 0.94558 1.05458
 H1001 H 0.89160 0.95180 1.04833
 C1002 C 0.84042 0.92881 1.07146
 C1003 C 0.94580 1.05421 1.12304
 H1004 H 0.95204 1.04795 1.10856
 C1005 C 0.92897 1.07112 1.15977
 C1006 C 1.05453 0.94548 1.12307
 H1007 H 1.04830 0.95174 1.10857
 C1008 C 1.07132 0.92861 1.15987
 C1009 C 1.12318 0.94539 1.05461
 H1010 H 1.10869 0.95161 1.04841
 C1011 C 1.16001 0.92866 1.07132
 C1012 C 0.87727 1.05446 1.05464
 H1013 H 0.89175 1.04824 1.04841
 C1014 C 0.84049 1.07120 1.07143
 C1015 C 0.94562 1.12288 1.05449
 H1016 H 0.95180 1.10839 1.04826
 C1017 C 0.92899 1.15971 1.07130
 C1018 C 1.05462 0.87690 1.05497
 H1019 H 1.04839 0.89138 1.04872
 C1020 C 1.07136 0.84008 1.07180
 O1021 O 1.07544 0.97994 0.89557
 O1022 O 1.09983 0.97983 0.87114
 C1023 C 1.08287 0.97266 0.87861
 C1024 C 1.07211 0.95516 0.86791
 C1025 C 1.08034 0.94669 0.84934
 H1026 H 1.09416 0.95347 0.84223
 O1027 O 0.92460 1.02061 0.89565
 O1028 O 0.90029 1.02067 0.87116
 C1029 C 0.91721 1.02787 0.87866
 C1030 C 0.92799 1.04538 0.86792
 C1031 C 0.91972 1.05390 0.84938
 H1032 H 0.90585 1.04718 0.84234
 O1033 O 0.97969 1.10458 0.92422
 O1034 O 0.97958 1.12902 0.89980
 C1035 C 0.97240 1.12153 0.91679
 C1036 C 0.95492 1.13221 0.92765
 C1037 C 0.94647 1.15083 0.91952
 H1038 H 0.95323 1.15799 0.90567
 O1039 O 1.02048 0.89589 0.92446
 O1040 O 1.02056 0.87150 0.90005
 C1041 C 1.02773 0.87894 0.91704
 C1042 C 1.04517 0.86818 0.92789
 C1043 C 1.05364 0.84963 0.91967
 H1044 H 1.04694 0.84260 0.90575
 O1045 O 1.10400 0.92442 0.97981
 O1046 O 1.12843 0.90007 0.97965
 C1047 C 1.12093 0.91704 0.97248
 C1048 C 1.13158 0.92791 0.95495
 C1049 C 1.15018 0.91979 0.94650
 H1050 H 1.15729 0.90594 0.95325
 O1051 O 0.89579 1.07574 0.97951
 O1052 O 0.87138 1.10012 0.97951
 C1053 C 0.87884 1.08318 0.97227
 C1054 C 0.86814 1.07240 0.95474
 C1055 C 0.84962 1.08063 0.94620
 H1056 H 0.84254 1.09449 0.95293
 O1057 O 1.02058 1.07606 0.89543
 O1058 O 1.02050 1.10044 0.87094
 C1059 C 1.02776 1.08349 0.87841
 C1060 C 1.04523 1.07269 0.86764
 C1061 C 1.05363 1.08083 0.84898
 H1062 H 1.04686 1.09467 0.84186
 O1063 O 0.97962 0.92451 0.89570
 O1064 O 0.97968 0.90016 0.87124
 C1065 C 0.97243 0.91710 0.87870
 C1066 C 0.95497 0.92790 0.86792
 C1067 C 0.94654 0.91968 0.84934
 H1068 H 0.95328 0.90581 0.84228
 O1069 O 1.10417 1.02074 0.92417
 O1070 O 1.12859 1.02065 0.89978
 C1071 C 1.12115 1.02790 0.91675
 C1072 C 1.13191 1.04532 0.92756
 C1073 C 1.15045 1.05378 0.91931
 H1074 H 1.15749 1.04706 0.90540
 O1075 O 0.89588 0.97972 0.92426
 O1076 O 0.87152 0.97976 0.89981
 C1077 C 0.87893 0.97251 0.91681
 C1078 C 0.86818 0.95505 0.92763
 C1079 C 0.84965 0.94660 0.91940
 H1080 H 0.84261 0.95334 0.90549
 O1081 O 1.07573 1.10452 0.97927
 O1082 O 1.10008 1.12891 0.97929
 C1083 C 1.08316 1.12148 0.97202
 C1084 C 1.07239 1.13224 0.95449
 C1085 C 1.08061 1.15078 0.94596
 H1086 H 1.09449 1.15781 0.95268
 O1087 O 0.92439 0.89586 0.97952
 O1088 O 0.90006 0.87144 0.97953
 C1089 C 0.91699 0.87890 0.97229
 C1090 C 0.92781 0.86817 0.95479
 C1091 C 0.91960 0.84965 0.94628
 H1092 H 0.90572 0.84260 0.95299
 O1093 O 0.92450 0.97970 0.89558
 O1094 O 0.90018 0.97974 0.87108
 C1095 C 0.91710 0.97248 0.87858
 C1096 C 0.92790 0.95499 0.86785
 C1097 C 0.91972 0.94651 0.84927
 H1098 H 0.90587 0.95324 0.84216
 O1099 O 1.07558 1.02086 0.89545
 O1100 O 1.09996 1.02077 0.87102
 C1101 C 1.08304 1.02806 0.87845
 C1102 C 1.07228 1.04557 0.86766
 C1103 C 1.08044 1.05399 0.84900
 H1104 H 1.09426 1.04721 0.84190
 O1105 O 0.97962 0.89585 0.92438
 O1106 O 0.97967 0.87145 0.89996
 C1107 C 0.97242 0.87889 0.91693
 C1108 C 0.95493 0.86816 0.92772
 C1109 C 0.94647 0.84963 0.91947
 H1110 H 0.95323 0.84257 0.90559
 O1111 O 1.02057 1.10465 0.92412
 O1112 O 1.02050 1.12908 0.89969
 C1113 C 1.02777 1.12162 0.91666
 C1114 C 1.04527 1.13232 0.92742
 C1115 C 1.05375 1.15086 0.91916
 H1116 H 1.04700 1.15795 0.90528
 O1117 O 0.89581 0.92455 0.97953
 O1118 O 0.87144 0.90017 0.97954
 C1119 C 0.87887 0.91713 0.97229
 C1120 C 0.86815 0.92795 0.95478
 C1121 C 0.84963 0.91976 0.94628
 H1122 H 0.84256 0.90589 0.95303
 O1123 O 1.10425 1.07579 0.97938
 O1124 O 1.12867 1.10013 0.97938
 C1125 C 1.12122 1.08319 0.97216
 C1126 C 1.13195 1.07237 0.95468
 C1127 C 1.15048 1.08057 0.94617
 H1128 H 1.15754 1.09443 0.95290
 O1129 O 1.02048 0.92455 0.89574
 O1130 O 1.02056 0.90019 0.87129
 C1131 C 1.02773 0.91715 0.87875
 C1132 C 1.04516 0.92800 0.86799
 C1133 C 1.05366 0.91979 0.84942
 H1134 H 1.04698 0.90590 0.84236
 O1135 O 0.97972 1.07593 0.89558
 O1136 O 0.97960 1.10032 0.87110
 C1137 C 0.97244 1.08334 0.87860
 C1138 C 0.95498 1.07252 0.86789
 C1139 C 0.94642 1.08077 0.84935
 H1140 H 0.95307 1.09469 0.84228
 O1141 O 0.89590 1.02061 0.92425
 O1142 O 0.87154 1.02067 0.89980
 C1143 C 0.87896 1.02787 0.91680
 C1144 C 0.86822 1.04534 0.92761
 C1145 C 0.84970 1.05383 0.91934
 H1146 H 0.84267 1.04711 0.90544
 O1147 O 1.10393 0.97985 0.92435
 O1148 O 1.12837 0.97974 0.89997
 C1149 C 1.12087 0.97255 0.91696
 C1150 C 1.13156 0.95505 0.92783
 C1151 C 1.15015 0.94665 0.91966
 H1152 H 1.15725 0.95344 0.90580
 O1153 O 1.07554 0.89567 0.97991
 O1154 O 1.09992 0.87127 0.97977
 C1155 C 1.08296 0.87874 0.97260
 C1156 C 1.07216 0.86807 0.95508
 C1157 C 1.08037 0.84952 0.94659
 H1158 H 1.09420 0.84241 0.95335
 O1159 O 0.92444 1.10432 0.97949
 O1160 O 0.90008 1.12875 0.97952
 C1161 C 0.91702 1.12130 0.97226
 C1162 C 0.92783 1.13209 0.95478
 C1163 C 0.91966 1.15071 0.94638
 H1164 H 0.90582 1.15778 0.95317
 Cu1165 Cu 1.08733 1.00037 0.91233
 Cu1166 Cu 1.11663 1.00023 0.88303
 Cu1167 Cu 0.91266 1.00015 0.91238
 Cu1168 Cu 0.88344 1.00022 0.88301
 Cu1169 Cu 1.08750 1.08770 0.99980
 Cu1170 Cu 1.11677 1.11694 0.99984
 Cu1171 Cu 1.08745 0.91240 1.00038
 Cu1172 Cu 1.11675 0.88314 1.00020
 Cu1173 Cu 0.91256 1.08756 0.99999
 Cu1174 Cu 0.88329 1.11685 1.00003
 Cu1175 Cu 0.91255 0.91265 1.00000
 Cu1176 Cu 0.88333 0.88335 1.00004
 Cu1177 Cu 1.00016 1.08787 0.91228
 Cu1178 Cu 1.00003 1.11717 0.88293
 Cu1179 Cu 1.00004 0.91264 0.91252
 Cu1180 Cu 1.00013 0.88338 0.88319
 C1181 C 1.05436 0.94584 0.87699
 H1182 H 1.04814 0.95204 0.89150
 C1183 C 1.07116 0.92909 0.84016
 C1184 C 0.94577 1.05467 0.87694
 H1185 H 0.95203 1.04842 0.89143
 C1186 C 0.92885 1.07153 0.84018
 C1187 C 0.94560 1.12308 0.94543
 H1188 H 0.95180 1.10854 0.95159
 C1189 C 0.92892 1.16002 0.92884
 C1190 C 1.05442 0.87716 0.94575
 H1191 H 1.04820 0.89165 0.95198
 C1192 C 1.07116 0.84038 0.92896
 C1193 C 1.12250 0.94569 0.94562
 H1194 H 1.10798 0.95185 0.95181
 C1195 C 1.15939 0.92910 0.92893
 C1196 C 0.87720 1.05461 0.94545
 H1197 H 0.89165 1.04837 0.95171
 C1198 C 0.84047 1.07140 0.92857
 C1199 C 1.05454 1.05491 0.87673
 H1200 H 1.04835 1.04874 0.89128
 C1201 C 1.07115 1.07154 0.83972
 C1202 C 0.94567 0.94569 0.87694
 H1203 H 0.95186 0.95192 0.89144
 C1204 C 0.92899 0.92893 0.84007
 C1205 C 1.12291 1.05460 0.94539
 H1206 H 1.10844 1.04839 0.95164
 C1207 C 1.15965 1.07133 0.92856
 C1208 C 0.87719 0.94574 0.94547
 H1209 H 0.89165 0.95195 0.95171
 C1210 C 0.84044 0.92903 0.92867
 C1211 C 1.05458 1.12326 0.94523
 H1212 H 1.04835 1.10879 0.95149
 C1213 C 1.07134 1.16003 0.92837
 C1214 C 0.94562 0.87718 0.94553
 H1215 H 0.95183 0.89164 0.95178
 C1216 C 0.92888 0.84044 0.92869
 O1217 O 0.97954 0.42416 0.39538
 O1218 O 0.97966 0.39981 0.37092
 C1219 C 0.97236 0.41672 0.37838
 C1220 C 0.95484 0.42746 0.36763
 C1221 C 0.94637 0.41920 0.34908
 H1222 H 0.95315 0.40535 0.34201
 O1223 O 1.02078 0.57555 0.39535
 O1224 O 1.02068 0.59990 0.37083
 C1225 C 1.02798 0.58299 0.37834
 C1226 C 1.04554 0.57227 0.36763
 C1227 C 1.05409 0.58060 0.34912
 H1228 H 1.04734 0.59449 0.34206
 O1229 O 0.89562 0.47916 0.42407
 O1230 O 0.87129 0.47929 0.39961
 C1231 C 0.87868 0.47200 0.41659
 C1232 C 0.86791 0.45452 0.42737
 C1233 C 0.84942 0.44601 0.41909
 H1234 H 0.84240 0.45273 0.40516
 O1235 O 1.10453 0.52035 0.42422
 O1236 O 1.12892 0.52032 0.39978
 C1237 C 1.12148 0.52756 0.41677
 C1238 C 1.13219 0.54505 0.42756
 C1239 C 1.15072 0.55355 0.41932
 H1240 H 1.15781 0.54682 0.40545
 O1241 O 0.92434 0.39559 0.47926
 O1242 O 0.90004 0.37114 0.47934
 C1243 C 0.91695 0.37861 0.47206
 C1244 C 0.92776 0.36789 0.45455
 C1245 C 0.91955 0.34937 0.44602
 H1246 H 0.90567 0.34233 0.45273
 O1247 O 1.07572 0.60422 0.47925
 O1248 O 1.10006 0.62863 0.47926
 C1249 C 1.08314 0.62118 0.47200
 C1250 C 1.07236 0.63192 0.45446
 C1251 C 1.08056 0.65045 0.44592
 H1252 H 1.09441 0.65752 0.45264
 O1253 O 0.92455 0.52002 0.39562
 O1254 O 0.90027 0.52018 0.37110
 C1255 C 0.91721 0.52732 0.37863
 C1256 C 0.92805 0.54480 0.36791
 C1257 C 0.91987 0.55326 0.34931
 H1258 H 0.90602 0.54653 0.34222
 O1259 O 1.07572 0.47958 0.39565
 O1260 O 1.10006 0.47950 0.37116
 C1261 C 1.08310 0.47233 0.37866
 C1262 C 1.07227 0.45488 0.36793
 C1263 C 1.08045 0.44646 0.34932
 H1264 H 1.09430 0.45320 0.34223
 O1265 O 1.02042 0.39561 0.42421
 O1266 O 1.02054 0.37122 0.39980
 C1267 C 1.02769 0.37866 0.41680
 C1268 C 1.04513 0.36791 0.42766
 C1269 C 1.05362 0.34938 0.41942
 H1270 H 1.04692 0.34234 0.40551
 O1271 O 0.97981 0.60411 0.42403
 O1272 O 0.97970 0.62850 0.39955
 C1273 C 0.97252 0.62105 0.41657
 C1274 C 0.95503 0.63176 0.42737
 C1275 C 0.94650 0.65028 0.41909
 H1276 H 0.95321 0.65735 0.40518
 O1277 O 0.89597 0.57544 0.47929
 O1278 O 0.87156 0.59982 0.47926
 C1279 C 0.87902 0.58287 0.47203
 C1280 C 0.86830 0.57208 0.45452
 C1281 C 0.84980 0.58035 0.44600
 H1282 H 0.84277 0.59426 0.45270
 O1283 O 1.10438 0.42397 0.47936
 O1284 O 1.12877 0.39958 0.47935
 C1285 C 1.12132 0.41654 0.47209
 C1286 C 1.13204 0.42735 0.45455
 C1287 C 1.15061 0.41917 0.44606
 H1288 H 1.15768 0.40528 0.45279
 O1289 O 0.97987 0.57532 0.39553
 O1290 O 0.97975 0.59966 0.37101
 C1291 C 0.97259 0.58270 0.37854
 C1292 C 0.95511 0.57187 0.36786
 C1293 C 0.94664 0.58007 0.34926
 H1294 H 0.95335 0.59393 0.34214
 O1295 O 1.02043 0.42436 0.39559
 O1296 O 1.02058 0.40001 0.37113
 C1297 C 1.02774 0.41697 0.37862
 C1298 C 1.04521 0.42780 0.36791
 C1299 C 1.05368 0.41965 0.34930
 H1300 H 1.04697 0.40580 0.34220
 O1301 O 1.10450 0.47942 0.42416
 O1302 O 1.12888 0.47936 0.39973
 C1303 C 1.12142 0.47212 0.41671
 C1304 C 1.13209 0.45456 0.42749
 C1305 C 1.15066 0.44612 0.41928
 H1306 H 1.15777 0.45293 0.40544
 O1307 O 0.89578 0.52007 0.42414
 O1308 O 0.87144 0.52024 0.39967
 C1309 C 0.87889 0.52741 0.41667
 C1310 C 0.86822 0.54494 0.42746
 C1311 C 0.84972 0.55349 0.41920
 H1312 H 0.84265 0.54676 0.40533
 O1313 O 0.92459 0.60405 0.47930
 O1314 O 0.90022 0.62847 0.47926
 C1315 C 0.91717 0.62101 0.47203
 C1316 C 0.92796 0.63174 0.45451
 C1317 C 0.91970 0.65026 0.44596
 H1318 H 0.90582 0.65731 0.45268
 O1319 O 1.07560 0.39552 0.47953
 O1320 O 1.09995 0.37107 0.47948
 C1321 C 1.08299 0.37855 0.47229
 C1322 C 1.07217 0.36785 0.45480
 C1323 C 1.08039 0.34932 0.44630
 H1324 H 1.09426 0.34224 0.45303
 O1325 O 1.07602 0.52049 0.39543
 O1326 O 1.10037 0.52044 0.37095
 C1327 C 1.08345 0.52772 0.37843
 C1328 C 1.07270 0.54526 0.36768
 C1329 C 1.08098 0.55386 0.34916
 H1330 H 1.09490 0.54720 0.34213
 O1331 O 0.92427 0.47911 0.39541
 O1332 O 0.89998 0.47924 0.37089
 C1333 C 0.91688 0.47194 0.37839
 C1334 C 0.92767 0.45445 0.36764
 C1335 C 0.91945 0.44592 0.34909
 H1336 H 0.90556 0.45261 0.34202
 O1337 O 1.02068 0.60415 0.42404
 O1338 O 1.02059 0.62854 0.39956
 C1339 C 1.02785 0.62112 0.41656
 C1340 C 1.04530 0.63189 0.42734
 C1341 C 1.05376 0.65042 0.41905
 H1342 H 1.04703 0.65747 0.40514
 O1343 O 0.97956 0.39559 0.42414
 O1344 O 0.97966 0.37119 0.39973
 C1345 C 0.97238 0.37863 0.41670
 C1346 C 0.95489 0.36789 0.42747
 C1347 C 0.94642 0.34938 0.41921
 H1348 H 0.95316 0.34233 0.40531
 O1349 O 1.10434 0.57557 0.47930
 O1350 O 1.12873 0.59993 0.47933
 C1351 C 1.12130 0.58298 0.47209
 C1352 C 1.13208 0.57217 0.45462
 C1353 C 1.15061 0.58040 0.44614
 H1354 H 1.15763 0.59428 0.45287
 O1355 O 0.89558 0.42410 0.47927
 O1356 O 0.87123 0.39970 0.47935
 C1357 C 0.87864 0.41665 0.47206
 C1358 C 0.86789 0.42742 0.45453
 C1359 C 0.84941 0.41917 0.44599
 H1360 H 0.84237 0.40528 0.45272
 Cu1361 Cu 0.99997 0.41237 0.41227
 Cu1362 Cu 1.00013 0.38312 0.38294
 Cu1363 Cu 1.00030 0.58734 0.41219
 Cu1364 Cu 1.00017 0.61658 0.38278
 Cu1365 Cu 0.91248 0.49956 0.41226
 Cu1366 Cu 0.88331 0.49976 0.38286
 Cu1367 Cu 1.08776 0.49998 0.41232
 Cu1368 Cu 1.11700 0.49989 0.38296
 C1369 C 0.94550 0.44522 0.37666
 H1370 H 0.95173 0.45148 0.39114
 C1371 C 0.92876 0.42837 0.33987
 C1372 C 1.05484 0.55447 0.37667
 H1373 H 1.04856 0.54816 0.39112
 C1374 C 1.07174 0.57146 0.33995
 C1375 C 0.87689 0.44524 0.44524
 H1376 H 0.89132 0.45148 0.45151
 C1377 C 0.84023 0.42840 0.42834
 C1378 C 1.12312 0.55435 0.44535
 H1379 H 1.10865 0.54812 0.45158
 C1380 C 1.15986 0.57115 0.42857
 C1381 C 0.94558 0.37690 0.44529
 H1382 H 0.95179 0.39136 0.45155
 C1383 C 0.92882 0.34019 0.42842
 C1384 C 1.05458 0.62288 0.44519
 H1385 H 1.04837 0.60841 0.45146
 C1386 C 1.07132 0.65964 0.42828
 C1387 C 0.94583 0.55409 0.37696
 H1388 H 0.95203 0.54788 0.39148
 C1389 C 0.92909 0.57081 0.34005
 C1390 C 1.05450 0.44557 0.37699
 H1391 H 1.04830 0.45175 0.39152
 C1392 C 1.07123 0.42892 0.34009
 C1393 C 1.05439 0.37691 0.44550
 H1394 H 1.04817 0.39138 0.45174
 C1395 C 1.07118 0.34016 0.42868
 C1396 C 0.94577 0.62273 0.44522
 H1397 H 0.95202 0.60827 0.45149
 C1398 C 0.92891 0.65946 0.42833
 C1399 C 0.87728 0.55423 0.44526
 H1400 H 0.89173 0.54797 0.45151
 C1401 C 0.84058 0.57112 0.42841
 C1402 C 1.12302 0.44518 0.44526
 H1403 H 1.10854 0.45139 0.45148
 C1404 C 1.15986 0.42850 0.42850
 O1405 O 1.02044 0.42412 0.60424
 O1406 O 1.02046 0.39973 0.62872
 C1407 C 1.02765 0.41670 0.62125
 C1408 C 1.04508 0.42751 0.63200
 C1409 C 1.05351 0.41930 0.65062
 H1410 H 1.04677 0.40544 0.65771
 O1411 O 0.97969 0.57535 0.60424
 O1412 O 0.97964 0.59970 0.62870
 C1413 C 0.97245 0.58275 0.62124
 C1414 C 0.95499 0.57194 0.63199
 C1415 C 0.94649 0.58018 0.65054
 H1416 H 0.95320 0.59406 0.65760
 O1417 O 0.89597 0.52019 0.57563
 O1418 O 0.87156 0.52023 0.60005
 C1419 C 0.87903 0.52744 0.58306
 C1420 C 0.86831 0.54493 0.57221
 C1421 C 0.84979 0.55344 0.58045
 H1422 H 0.84274 0.54673 0.59437
 O1423 O 1.10426 0.47927 0.57559
 O1424 O 1.12864 0.47921 0.60001
 C1425 C 1.12121 0.47202 0.58303
 C1426 C 1.13194 0.45454 0.57222
 C1427 C 1.15043 0.44599 0.58051
 H1428 H 1.15745 0.45268 0.59444
 O1429 O 1.07585 0.39538 0.52052
 O1430 O 1.10018 0.37093 0.52051
 C1431 C 1.08327 0.37841 0.52779
 C1432 C 1.07248 0.36767 0.54534
 C1433 C 1.08063 0.34906 0.55381
 H1434 H 1.09447 0.34196 0.54705
 O1435 O 0.92450 0.60408 0.52030
 O1436 O 0.90013 0.62850 0.52028
 C1437 C 0.91706 0.62103 0.52754
 C1438 C 0.92783 0.63175 0.54507
 C1439 C 0.91963 0.65032 0.55353
 H1440 H 0.90579 0.65741 0.54677
 O1441 O 0.92453 0.47921 0.60435
 O1442 O 0.90017 0.47923 0.62881
 C1443 C 0.91710 0.47198 0.62134
 C1444 C 0.92785 0.45445 0.63210
 C1445 C 0.91963 0.44600 0.65069
 H1446 H 0.90579 0.45278 0.65777
 O1447 O 1.07565 0.52019 0.60426
 O1448 O 1.09999 0.52015 0.62872
 C1449 C 1.08306 0.52741 0.62124
 C1450 C 1.07230 0.54491 0.63198
 C1451 C 1.08054 0.55338 0.65053
 H1452 H 1.09440 0.54663 0.65760
 O1453 O 0.97970 0.39549 0.57549
 O1454 O 0.97965 0.37106 0.59992
 C1455 C 0.97246 0.37854 0.58292
 C1456 C 0.95499 0.36784 0.57210
 C1457 C 0.94651 0.34930 0.58036
 H1458 H 0.95324 0.34222 0.59425
 O1459 O 1.02049 0.60407 0.57554
 O1460 O 1.02047 0.62846 0.59995
 C1461 C 1.02769 0.62103 0.58297
 C1462 C 1.04514 0.63178 0.57213
 C1463 C 1.05356 0.65035 0.58033
 H1464 H 1.04682 0.65741 0.59422
 O1465 O 0.89577 0.42422 0.52025
 O1466 O 0.87141 0.39984 0.52037
 C1467 C 0.87886 0.41680 0.52756
 C1468 C 0.86816 0.42762 0.54507
 C1469 C 0.84954 0.41954 0.55350
 H1470 H 0.84240 0.40575 0.54671
 O1471 O 1.10423 0.57550 0.52027
 O1472 O 1.12862 0.59986 0.52033
 C1473 C 1.12116 0.58290 0.52755
 C1474 C 1.13186 0.57205 0.54506
 C1475 C 1.15040 0.58022 0.55356
 H1476 H 1.15746 0.59410 0.54684
 O1477 O 1.02055 0.57544 0.60427
 O1478 O 1.02054 0.59979 0.62873
 C1479 C 1.02778 0.58285 0.62125
 C1480 C 1.04527 0.57205 0.63198
 C1481 C 1.05378 0.58026 0.65054
 H1482 H 1.04708 0.59415 0.65760
 O1483 O 0.97958 0.42391 0.60437
 O1484 O 0.97956 0.39952 0.62884
 C1485 C 0.97233 0.41648 0.62136
 C1486 C 0.95485 0.42728 0.63211
 C1487 C 0.94635 0.41908 0.65070
 H1488 H 0.95304 0.40519 0.65779
 O1489 O 1.10421 0.52017 0.57552
 O1490 O 1.12859 0.52014 0.59994
 C1491 C 1.12114 0.52739 0.58296
 C1492 C 1.13186 0.54489 0.57215
 C1493 C 1.15039 0.55333 0.58039
 H1494 H 1.15745 0.54655 0.59427
 O1495 O 0.89596 0.47929 0.57564
 O1496 O 0.87155 0.47931 0.60005
 C1497 C 0.87900 0.47209 0.58306
 C1498 C 0.86824 0.45467 0.57222
 C1499 C 0.84961 0.44632 0.58037
 H1500 H 0.84253 0.45310 0.59423
 O1501 O 1.07563 0.60416 0.52023
 O1502 O 1.09997 0.62857 0.52028
 C1503 C 1.08303 0.62111 0.52749
 C1504 C 1.07221 0.63182 0.54500
 C1505 C 1.08036 0.65038 0.55346
 H1506 H 1.09420 0.65747 0.54671
 O1507 O 0.92441 0.39560 0.52023
 O1508 O 0.90011 0.37116 0.52034
 C1509 C 0.91705 0.37864 0.52752
 C1510 C 0.92789 0.36790 0.54501
 C1511 C 0.91969 0.34936 0.55353
 H1512 H 0.90582 0.34231 0.54682
 O1513 O 1.07558 0.47928 0.60423
 O1514 O 1.09992 0.47922 0.62870
 C1515 C 1.08298 0.47202 0.62123
 C1516 C 1.07216 0.45456 0.63199
 C1517 C 1.08033 0.44608 0.65060
 H1518 H 1.09418 0.45278 0.65769
 O1519 O 0.92458 0.52013 0.60432
 O1520 O 0.90021 0.52018 0.62878
 C1521 C 0.91716 0.52738 0.62130
 C1522 C 0.92794 0.54486 0.63203
 C1523 C 0.91969 0.55338 0.65058
 H1524 H 0.90582 0.54668 0.65765
 O1525 O 0.97962 0.60405 0.57559
 O1526 O 0.97957 0.62844 0.60000
 C1527 C 0.97236 0.62100 0.58302
 C1528 C 0.95488 0.63173 0.57220
 C1529 C 0.94643 0.65030 0.58039
 H1530 H 0.95318 0.65738 0.59426
 O1531 O 1.02059 0.39534 0.57574
 O1532 O 1.02057 0.37090 0.60016
 C1533 C 1.02783 0.37837 0.58320
 C1534 C 1.04535 0.36765 0.57242
 C1535 C 1.05376 0.34904 0.58062
 H1536 H 1.04696 0.34193 0.59446
 O1537 O 1.10432 0.42413 0.52035
 O1538 O 1.12871 0.39973 0.52038
 C1539 C 1.12127 0.41670 0.52759
 C1540 C 1.13198 0.42748 0.54509
 C1541 C 1.15046 0.41920 0.55364
 H1542 H 1.15751 0.40531 0.54693
 O1543 O 0.89597 0.57539 0.52027
 O1544 O 0.87156 0.59976 0.52026
 C1545 C 0.87902 0.58280 0.52751
 C1546 C 0.86830 0.57200 0.54503
 C1547 C 0.84978 0.58024 0.55354
 H1548 H 0.84272 0.59412 0.54678
 Cu1549 Cu 1.00008 0.41215 0.58751
 Cu1550 Cu 1.00006 0.38285 0.61686
 Cu1551 Cu 1.00009 0.58729 0.58746
 Cu1552 Cu 1.00005 0.61654 0.61680
 Cu1553 Cu 0.91245 0.41233 0.49974
 Cu1554 Cu 0.88326 0.38301 0.49987
 Cu1555 Cu 1.08760 0.41219 0.49994
 Cu1556 Cu 1.11685 0.38288 0.49992
 Cu1557 Cu 0.91270 0.58730 0.49979
 Cu1558 Cu 0.88342 0.61658 0.49976
 Cu1559 Cu 1.08754 0.58743 0.49976
 Cu1560 Cu 1.11679 0.61670 0.49980
 Cu1561 Cu 0.91271 0.49971 0.58755
 Cu1562 Cu 0.88343 0.49974 0.61687
 Cu1563 Cu 1.08748 0.49973 0.58745
 Cu1564 Cu 1.11673 0.49967 0.61680
 C1565 C 1.05439 0.44529 0.62294
 H1566 H 1.04820 0.45151 0.60841
 C1567 C 1.07106 0.42852 0.65984
 C1568 C 0.94573 0.55413 0.62298
 H1569 H 0.95198 0.54789 0.60849
 C1570 C 0.92892 0.57096 0.65976
 C1571 C 0.87733 0.55420 0.55436
 H1572 H 0.89179 0.54796 0.54812
 C1573 C 0.84060 0.57102 0.57117
 C1574 C 1.12296 0.44530 0.55436
 H1575 H 1.10852 0.45157 0.54809
 C1576 C 1.15961 0.42839 0.57129
 C1577 C 1.05471 0.37673 0.55464
 H1578 H 1.04853 0.39125 0.54843
 C1579 C 1.07131 0.33979 0.57137
 C1580 C 0.94559 0.62269 0.55440
 H1581 H 0.95180 0.60819 0.54819
 C1582 C 0.92888 0.65954 0.57112
 C1583 C 0.94561 0.44511 0.62305
 H1584 H 0.95184 0.45133 0.60854
 C1585 C 0.92881 0.42839 0.65993
 C1586 C 1.05452 0.55423 0.62294
 H1587 H 1.04828 0.54801 0.60846
 C1588 C 1.07134 0.57098 0.65975
 C1589 C 0.94569 0.37691 0.55428
 H1590 H 0.95190 0.39139 0.54803
 C1591 C 0.92894 0.34014 0.57113
 C1592 C 1.05444 0.62276 0.55431
 H1593 H 1.04826 0.60827 0.54810
 C1594 C 1.07110 0.65958 0.57105
 C1595 C 0.87727 0.44533 0.55442
 H1596 H 0.89181 0.45146 0.54825
 C1597 C 0.84032 0.42884 0.57106
 C1598 C 1.12283 0.55423 0.55434
 H1599 H 1.10836 0.54804 0.54810
 C1600 C 1.15959 0.57091 0.57115
 O1601 O 0.47912 0.92411 0.39534
 O1602 O 0.47930 0.89976 0.37088
 C1603 C 0.47198 0.91668 0.37833
 C1604 C 0.45450 0.92744 0.36754
 C1605 C 0.44603 0.91922 0.34897
 H1606 H 0.45278 0.90535 0.34192
 O1607 O 0.52039 1.07593 0.39554
 O1608 O 0.52029 1.10026 0.37100
 C1609 C 0.52757 1.08333 0.37851
 C1610 C 0.54505 1.07255 0.36775
 C1611 C 0.55352 1.08080 0.34917
 H1612 H 0.54678 1.09468 0.34210
 O1613 O 0.39567 0.97935 0.42405
 O1614 O 0.37125 0.97954 0.39967
 C1615 C 0.37868 0.97223 0.41663
 C1616 C 0.36790 0.95477 0.42744
 C1617 C 0.34942 0.94626 0.41915
 H1618 H 0.34241 0.95296 0.40521
 O1619 O 0.60405 1.02059 0.42417
 O1620 O 0.62838 1.02057 0.39968
 C1621 C 0.62098 1.02780 0.41668
 C1622 C 0.63172 1.04527 0.42745
 C1623 C 0.65022 1.05376 0.41916
 H1624 H 0.65726 1.04703 0.40525
 O1625 O 0.42407 0.89552 0.47923
 O1626 O 0.39972 0.87113 0.47936
 C1627 C 0.41663 0.87856 0.47204
 C1628 C 0.42738 0.86780 0.45450
 C1629 C 0.41910 0.84933 0.44593
 H1630 H 0.40520 0.84232 0.45264
 O1631 O 0.57556 1.10461 0.47917
 O1632 O 0.59993 1.12898 0.47914
 C1633 C 0.58299 1.12156 0.47190
 C1634 C 0.57220 1.13231 0.45438
 C1635 C 0.58037 1.15086 0.44584
 H1636 H 0.59423 1.15793 0.45255
 O1637 O 0.42455 1.02017 0.39550
 O1638 O 0.40017 1.02040 0.37108
 C1639 C 0.41713 1.02752 0.37855
 C1640 C 0.42792 1.04505 0.36786
 C1641 C 0.41967 1.05357 0.34931
 H1642 H 0.40584 1.04682 0.34222
 O1643 O 0.57526 0.97974 0.39569
 O1644 O 0.59954 0.97969 0.37115
 C1645 C 0.58262 0.97248 0.37869
 C1646 C 0.57182 0.95500 0.36799
 C1647 C 0.58004 0.94657 0.34940
 H1648 H 0.59388 0.95333 0.34231
 O1649 O 0.52003 0.89567 0.42423
 O1650 O 0.52023 0.87127 0.39982
 C1651 C 0.52738 0.87876 0.41681
 C1652 C 0.54492 0.86813 0.42762
 C1653 C 0.55352 0.84965 0.41938
 H1654 H 0.54682 0.84254 0.40550
 O1655 O 0.47948 1.10452 0.42423
 O1656 O 0.47935 1.12890 0.39974
 C1657 C 0.47218 1.12146 0.41677
 C1658 C 0.45471 1.13219 0.42760
 C1659 C 0.44622 1.15074 0.41936
 H1660 H 0.45292 1.15781 0.40544
 O1661 O 0.39596 1.07571 0.47962
 O1662 O 0.37152 1.10005 0.47945
 C1663 C 0.37904 1.08309 0.47228
 C1664 C 0.36838 1.07223 0.45478
 C1665 C 0.34977 1.08035 0.44634
 H1666 H 0.34265 1.09418 0.45309
 O1667 O 0.60417 0.92454 0.47931
 O1668 O 0.62857 0.90015 0.47938
 C1669 C 0.62113 0.91709 0.47209
 C1670 C 0.63186 0.92786 0.45455
 C1671 C 0.65037 0.91961 0.44602
 H1672 H 0.65742 0.90572 0.45276
 O1673 O 0.47952 1.07577 0.39567
 O1674 O 0.47940 1.10010 0.37114
 C1675 C 0.47226 1.08313 0.37866
 C1676 C 0.45484 1.07226 0.36793
 C1677 C 0.44631 1.08050 0.34937
 H1678 H 0.45294 1.09444 0.34233
 O1679 O 0.51999 0.92439 0.39562
 O1680 O 0.52021 0.90005 0.37115
 C1681 C 0.52733 0.91701 0.37866
 C1682 C 0.54481 0.92788 0.36797
 C1683 C 0.55331 0.91971 0.34938
 H1684 H 0.54662 0.90585 0.34227
 O1685 O 0.60417 0.97969 0.42407
 O1686 O 0.62849 0.97966 0.39957
 C1687 C 0.62109 0.97244 0.41659
 C1688 C 0.63184 0.95495 0.42739
 C1689 C 0.65035 0.94643 0.41912
 H1690 H 0.65739 0.95316 0.40520
 O1691 O 0.39599 1.02025 0.42423
 O1692 O 0.37155 1.02046 0.39985
 C1693 C 0.37906 1.02760 0.41684
 C1694 C 0.36840 1.04510 0.42770
 C1695 C 0.34979 1.05349 0.41955
 H1696 H 0.34267 1.04671 0.40572
 O1697 O 0.42433 1.10455 0.47964
 O1698 O 0.39995 1.12895 0.47952
 C1699 C 0.41691 1.12149 0.47233
 C1700 C 0.42770 1.13221 0.45479
 C1701 C 0.41948 1.15077 0.44629
 H1702 H 0.40564 1.15785 0.45306
 O1703 O 0.57543 0.89605 0.47935
 O1704 O 0.59978 0.87161 0.47941
 C1705 C 0.58284 0.87907 0.47215
 C1706 C 0.57207 0.86830 0.45467
 C1707 C 0.58039 0.84982 0.44615
 H1708 H 0.59432 0.84284 0.45285
 O1709 O 0.57550 1.02067 0.39544
 O1710 O 0.59978 1.02064 0.37091
 C1711 C 0.58288 1.02791 0.37843
 C1712 C 0.57211 1.04544 0.36771
 C1713 C 0.58032 1.05396 0.34913
 H1714 H 0.59417 1.04723 0.34203
 O1715 O 0.42420 0.97924 0.39526
 O1716 O 0.39982 0.97944 0.37084
 C1717 C 0.41673 0.97208 0.37827
 C1718 C 0.42744 0.95455 0.36750
 C1719 C 0.41921 0.94605 0.34894
 H1720 H 0.40535 0.95279 0.34186
 O1721 O 0.52037 1.10462 0.42412
 O1722 O 0.52026 1.12900 0.39963
 C1723 C 0.52755 1.12157 0.41661
 C1724 C 0.54505 1.13232 0.42734
 C1725 C 0.55347 1.15089 0.41907
 H1726 H 0.54668 1.15797 0.40521
 O1727 O 0.47914 0.89549 0.42409
 O1728 O 0.47930 0.87110 0.39968
 C1729 C 0.47199 0.87853 0.41663
 C1730 C 0.45448 0.86778 0.42739
 C1731 C 0.44595 0.84931 0.41909
 H1732 H 0.45266 0.84228 0.40517
 O1733 O 0.60405 1.07583 0.47925
 O1734 O 0.62848 1.10015 0.47923
 C1735 C 0.62102 1.08321 0.47201
 C1736 C 0.63174 1.07237 0.45453
 C1737 C 0.65024 1.08059 0.44598
 H1738 H 0.65729 1.09448 0.45267
 O1739 O 0.39559 0.92430 0.47928
 O1740 O 0.37118 0.89996 0.47940
 C1741 C 0.37862 0.91689 0.47211
 C1742 C 0.36788 0.92769 0.45460
 C1743 C 0.34941 0.91944 0.44606
 H1744 H 0.34238 0.90554 0.45279
 Cu1745 Cu 0.49954 0.91235 0.41227
 Cu1746 Cu 0.49979 0.88310 0.38293
 Cu1747 Cu 0.49995 1.08778 0.41235
 Cu1748 Cu 0.49980 1.11700 0.38292
 Cu1749 Cu 0.41255 0.99971 0.41219
 Cu1750 Cu 0.38326 0.99999 0.38291
 Cu1751 Cu 0.58731 1.00018 0.41230
 Cu1752 Cu 0.61648 1.00013 0.38286
 C1753 C 0.44521 0.94524 0.37655
 H1754 H 0.45145 0.95148 0.39103
 C1755 C 0.42846 0.92846 0.33973
 C1756 C 0.55434 1.05474 0.37678
 H1757 H 0.54812 1.04849 0.39129
 C1758 C 0.57107 1.07156 0.33992
 C1759 C 0.37688 0.94551 0.44531
 H1760 H 0.39131 0.95176 0.45159
 C1761 C 0.34025 0.92865 0.42841
 C1762 C 0.62273 1.05456 0.44529
 H1763 H 0.60828 1.04833 0.45157
 C1764 C 0.65940 1.07135 0.42836
 C1765 C 0.44521 0.87678 0.44524
 H1766 H 0.45148 0.89120 0.45152
 C1767 C 0.42832 0.84014 0.42830
 C1768 C 0.55440 1.12329 0.44513
 H1769 H 0.54821 1.10881 0.45140
 C1770 C 0.57105 1.16010 0.42827
 C1771 C 0.44565 1.05438 0.37694
 H1772 H 0.45189 1.04813 0.39144
 C1773 C 0.42880 1.07122 0.34015
 C1774 C 0.55406 0.94567 0.37705
 H1775 H 0.54783 0.95185 0.39157
 C1776 C 0.57085 0.92901 0.34017
 C1777 C 0.55419 0.87722 0.44542
 H1778 H 0.54789 0.89166 0.45166
 C1779 C 0.57118 0.84057 0.42857
 C1780 C 0.44546 1.12316 0.44546
 H1781 H 0.45168 1.10867 0.45170
 C1782 C 0.42868 1.15997 0.42865
 C1783 C 0.37747 1.05446 0.44546
 H1784 H 0.39200 1.04830 0.45164
 C1785 C 0.34055 1.07103 0.42881
 C1786 C 0.62285 0.94568 0.44525
 H1787 H 0.60840 0.95193 0.45151
 C1788 C 0.65955 0.92883 0.42838
 O1789 O 0.52021 0.92464 0.60436
 O1790 O 0.52023 0.90024 0.62883
 C1791 C 0.52743 0.91721 0.62136
 C1792 C 0.54486 0.92800 0.63213
 C1793 C 0.55338 0.91970 0.65066
 H1794 H 0.54671 0.90578 0.65769
 O1795 O 0.47967 1.07567 0.60418
 O1796 O 0.47957 1.10001 0.62866
 C1797 C 0.47240 1.08305 0.62116
 C1798 C 0.45493 1.07222 0.63187
 C1799 C 0.44653 1.08033 0.65051
 H1800 H 0.45333 1.09412 0.65766
 O1801 O 0.39535 1.02066 0.57559
 O1802 O 0.37100 1.02065 0.60006
 C1803 C 0.37841 1.02789 0.58306
 C1804 C 0.36765 1.04537 0.57225
 C1805 C 0.34900 1.05374 0.58037
 H1806 H 0.34187 1.04691 0.59419
 O1807 O 0.60389 0.97978 0.57577
 O1808 O 0.62833 0.97969 0.60014
 C1809 C 0.62084 0.97250 0.58317
 C1810 C 0.63155 0.95502 0.57232
 C1811 C 0.65012 0.94655 0.58051
 H1812 H 0.65718 0.95326 0.59440
 O1813 O 0.57546 0.89601 0.52033
 O1814 O 0.59980 0.87157 0.52041
 C1815 C 0.58286 0.87905 0.52762
 C1816 C 0.57205 0.86833 0.54513
 C1817 C 0.58020 0.84973 0.55360
 H1818 H 0.59404 0.84263 0.54684
 O1819 O 0.42430 1.10448 0.52064
 O1820 O 0.39990 1.12887 0.52056
 C1821 C 0.41683 1.12143 0.52786
 C1822 C 0.42757 1.13216 0.54540
 C1823 C 0.41927 1.15064 0.55397
 H1824 H 0.40536 1.15766 0.54728
 O1825 O 0.42412 0.97976 0.60419
 O1826 O 0.39982 0.97975 0.62871
 C1827 C 0.41675 0.97253 0.62122
 C1828 C 0.42756 0.95507 0.63198
 C1829 C 0.41933 0.94656 0.65055
 H1830 H 0.40544 0.95327 0.65760
 O1831 O 0.57547 1.02078 0.60453
 O1832 O 0.59987 1.02069 0.62894
 C1833 C 0.58295 1.02799 0.62150
 C1834 C 0.57225 1.04554 0.63223
 C1835 C 0.58057 1.05407 0.65073
 H1836 H 0.59444 1.04731 0.65777
 O1837 O 0.47941 0.89599 0.57564
 O1838 O 0.47942 0.87156 0.60007
 C1839 C 0.47221 0.87902 0.58308
 C1840 C 0.45480 0.86825 0.57225
 C1841 C 0.44638 0.84968 0.58049
 H1842 H 0.45310 0.84263 0.59440
 O1843 O 0.52042 1.10447 0.57554
 O1844 O 0.52039 1.12888 0.59995
 C1845 C 0.52761 1.12144 0.58296
 C1846 C 0.54504 1.13219 0.57209
 C1847 C 0.55345 1.15079 0.58023
 H1848 H 0.54671 1.15787 0.59411
 O1849 O 0.39566 0.92432 0.52025
 O1850 O 0.37125 0.89997 0.52041
 C1851 C 0.37873 0.91693 0.52758
 C1852 C 0.36804 0.92778 0.54509
 C1853 C 0.34951 0.91961 0.55363
 H1854 H 0.34243 0.90574 0.54693
 O1855 O 0.60402 1.07586 0.52022
 O1856 O 0.62845 1.10018 0.52024
 C1857 C 0.62097 1.08324 0.52748
 C1858 C 0.63165 1.07240 0.54501
 C1859 C 0.65022 1.08054 0.55348
 H1860 H 0.65733 1.09438 0.54671
 O1861 O 0.52054 1.07605 0.60449
 O1862 O 0.52048 1.10040 0.62894
 C1863 C 0.52775 1.08348 0.62148
 C1864 C 0.54526 1.07271 0.63223
 C1865 C 0.55384 1.08098 0.65073
 H1866 H 0.54718 1.09490 0.65777
 O1867 O 0.47936 0.92463 0.60430
 O1868 O 0.47935 0.90024 0.62878
 C1869 C 0.47212 0.91720 0.62130
 C1870 C 0.45465 0.92799 0.63203
 C1871 C 0.44614 0.91974 0.65059
 H1872 H 0.45284 0.90585 0.65767
 O1873 O 0.60389 1.02068 0.57565
 O1874 O 0.62833 1.02061 0.60002
 C1875 C 0.62086 1.02786 0.58304
 C1876 C 0.63160 1.04531 0.57218
 C1877 C 0.65017 1.05371 0.58037
 H1878 H 0.65723 1.04695 0.59425
 O1879 O 0.39564 0.97974 0.57540
 O1880 O 0.37129 0.97970 0.59987
 C1881 C 0.37873 0.97247 0.58288
 C1882 C 0.36804 0.95495 0.57212
 C1883 C 0.34951 0.94650 0.58039
 H1884 H 0.34243 0.95329 0.59425
 O1885 O 0.57543 1.10452 0.52015
 O1886 O 0.59980 1.12889 0.52017
 C1887 C 0.58285 1.12146 0.52740
 C1888 C 0.57205 1.13220 0.54490
 C1889 C 0.58020 1.15079 0.55330
 H1890 H 0.59402 1.15788 0.54650
 O1891 O 0.42436 0.89576 0.52021
 O1892 O 0.40001 0.87136 0.52038
 C1893 C 0.41697 0.87883 0.52754
 C1894 C 0.42780 0.86816 0.54506
 C1895 C 0.41965 0.84959 0.55356
 H1896 H 0.40584 0.84247 0.54680
 O1897 O 0.57525 0.97987 0.60444
 O1898 O 0.59964 0.97975 0.62885
 C1899 C 0.58267 0.97259 0.62141
 C1900 C 0.57188 0.95510 0.63216
 C1901 C 0.58014 0.94653 0.65069
 H1902 H 0.59402 0.95322 0.65775
 O1903 O 0.42426 1.02064 0.60399
 O1904 O 0.39995 1.02065 0.62851
 C1905 C 0.41689 1.02785 0.62101
 C1906 C 0.42776 1.04525 0.63178
 C1907 C 0.41963 1.05365 0.65043
 H1908 H 0.40577 1.04694 0.65752
 O1909 O 0.47955 1.10458 0.57577
 O1910 O 0.47947 1.12897 0.60019
 C1911 C 0.47225 1.12151 0.58322
 C1912 C 0.45470 1.13220 0.57246
 C1913 C 0.44614 1.15068 0.58076
 H1914 H 0.45287 1.15774 0.59464
 O1915 O 0.52028 0.89605 0.57565
 O1916 O 0.52030 0.87161 0.60008
 C1917 C 0.52752 0.87908 0.58309
 C1918 C 0.54498 0.86835 0.57227
 C1919 C 0.55340 0.84975 0.58047
 H1920 H 0.54664 0.84266 0.59434
 O1921 O 0.60399 0.92469 0.52031
 O1922 O 0.62838 0.90029 0.52039
 C1923 C 0.62091 0.91725 0.52760
 C1924 C 0.63160 0.92802 0.54514
 C1925 C 0.65016 0.91982 0.55359
 H1926 H 0.65726 0.90599 0.54680
 O1927 O 0.39554 1.07599 0.52060
 O1928 O 0.37110 1.10033 0.52045
 C1929 C 0.37853 1.08339 0.52775
 C1930 C 0.36772 1.07255 0.54519
 C1931 C 0.34907 1.08066 0.55357
 H1932 H 0.34199 1.09452 0.54679
 Cu1933 Cu 0.49981 0.91277 0.58754
 Cu1934 Cu 0.49982 0.88346 0.61689
 Cu1935 Cu 0.50006 1.08776 0.58755
 Cu1936 Cu 0.49997 1.11701 0.61688
 Cu1937 Cu 0.41236 0.91241 0.49972
 Cu1938 Cu 0.38310 0.88316 0.49991
 Cu1939 Cu 0.58733 0.91277 0.49981
 Cu1940 Cu 0.61658 0.88346 0.49990
 Cu1941 Cu 0.41248 1.08775 0.50015
 Cu1942 Cu 0.38318 1.11700 0.49997
 Cu1943 Cu 0.58732 1.08778 0.49969
 Cu1944 Cu 0.61662 1.11699 0.49969
 Cu1945 Cu 0.41227 1.00021 0.58733
 Cu1946 Cu 0.38307 1.00019 0.61674
 Cu1947 Cu 0.58717 1.00028 0.58766
 Cu1948 Cu 0.61649 1.00017 0.61693
 C1949 C 0.55409 0.94585 0.62312
 H1950 H 0.54784 0.95213 0.60865
 C1951 C 0.57096 0.92890 0.65986
 C1952 C 0.44556 1.05452 0.62273
 H1953 H 0.45172 1.04837 0.60817
 C1954 C 0.42897 1.07111 0.65973
 C1955 C 0.37675 1.05476 0.55452
 H1956 H 0.39129 1.04861 0.54837
 C1957 C 0.33977 1.07130 0.57108
 C1958 C 0.62253 0.94577 0.55449
 H1959 H 0.60804 0.95198 0.54829
 C1960 C 0.65936 0.92903 0.57120
 C1961 C 0.55429 0.87740 0.55446
 H1962 H 0.54811 0.89192 0.54824
 C1963 C 0.57093 0.84051 0.57118
 C1964 C 0.44542 1.12318 0.55464
 H1965 H 0.45172 1.10876 0.54836
 C1966 C 0.42850 1.15984 0.57157
 C1967 C 0.44537 0.94580 0.62296
 H1968 H 0.45160 0.95204 0.60846
 C1969 C 0.42854 0.92897 0.65977
 C1970 C 0.55446 1.05485 0.62323
 H1971 H 0.54815 1.04858 0.60879
 C1972 C 0.57143 1.07171 0.65992
 C1973 C 0.44552 0.87726 0.55439
 H1974 H 0.45168 0.89176 0.54815
 C1975 C 0.42888 0.84042 0.57119
 C1976 C 0.55432 1.12314 0.55427
 H1977 H 0.54815 1.10863 0.54810
 C1978 C 0.57095 1.16002 0.57088
 C1979 C 0.37707 0.94560 0.55433
 H1980 H 0.39155 0.95178 0.54807
 C1981 C 0.34031 0.92892 0.57119
 C1982 C 0.62258 1.05464 0.55436
 H1983 H 0.60808 1.04848 0.54815
 C1984 C 0.65941 1.07125 0.57108
 O1985 O 0.57548 0.52030 1.10454
 O1986 O 0.59984 0.52034 1.12899
 C1987 C 0.58291 0.52757 1.12149
 C1988 C 0.57215 0.54512 1.13217
 C1989 C 0.58043 0.55366 1.15067
 H1990 H 0.59430 0.54693 1.15774
 O1991 O 0.42431 0.47958 1.10475
 O1992 O 0.39993 0.47958 1.12918
 C1993 C 0.41687 0.47234 1.12174
 C1994 C 0.42763 0.45484 1.13252
 C1995 C 0.41936 0.44634 1.15108
 H1996 H 0.40548 0.45308 1.15812
 O1997 O 0.52033 0.60441 1.07569
 O1998 O 0.52040 0.62877 1.10013
 C1999 C 0.52759 0.62134 1.08313
 C2000 C 0.54506 0.63205 1.07230
 C2001 C 0.55353 0.65059 1.08050
 H2002 H 0.54680 0.65768 1.09438
 O2003 O 0.47963 0.39605 1.07609
 O2004 O 0.47959 0.37154 1.10045
 C2005 C 0.47241 0.37906 1.08346
 C2006 C 0.45502 0.36833 1.07256
 C2007 C 0.44657 0.34975 1.08076
 H2008 H 0.45325 0.34269 1.09469
 O2009 O 0.60421 0.57554 1.02062
 O2010 O 0.62859 0.59991 1.02063
 C2011 C 0.62114 0.58296 1.02788
 C2012 C 0.63184 0.57215 1.04542
 C2013 C 0.65035 0.58037 1.05393
 H2014 H 0.65740 0.59425 1.04720
 O2015 O 0.39594 0.42448 1.02046
 O2016 O 0.37158 0.40009 1.02059
 C2017 C 0.37901 0.41706 1.02776
 C2018 C 0.36829 0.42789 1.04526
 C2019 C 0.34968 0.41976 1.05368
 H2020 H 0.34259 0.40593 1.04691
 O2021 O 0.47952 0.57572 1.10439
 O2022 O 0.47954 0.60003 1.12888
 C2023 C 0.47231 0.58311 1.12140
 C2024 C 0.45485 0.57231 1.13216
 C2025 C 0.44639 0.58054 1.15073
 H2026 H 0.45312 0.59441 1.15778
 O2027 O 0.52044 0.42451 1.10497
 O2028 O 0.52043 0.40003 1.12936
 C2029 C 0.52768 0.41699 1.12193
 C2030 C 0.54521 0.42768 1.13266
 C2031 C 0.55377 0.41932 1.15115
 H2032 H 0.54704 0.40544 1.15820
 O2033 O 0.60415 0.47940 1.07592
 O2034 O 0.62856 0.47939 1.10031
 C2035 C 0.62112 0.47218 1.08333
 C2036 C 0.63188 0.45474 1.07247
 C2037 C 0.65047 0.44632 1.08064
 H2038 H 0.65754 0.45305 1.09451
 O2039 O 0.39570 0.52053 1.07601
 O2040 O 0.37127 0.52052 1.10041
 C2041 C 0.37873 0.52776 1.08343
 C2042 C 0.36799 0.54525 1.07261
 C2043 C 0.34946 0.55374 1.08085
 H2044 H 0.34240 0.54700 1.09475
 O2045 O 0.42424 0.60452 1.02084
 O2046 O 0.39985 0.62892 1.02076
 C2047 C 0.41679 0.62149 1.02804
 C2048 C 0.42758 0.63225 1.04554
 C2049 C 0.41940 0.65083 1.05402
 H2050 H 0.40553 0.65791 1.04729
 O2051 O 0.57556 0.39581 1.02064
 O2052 O 0.59989 0.37135 1.02071
 C2053 C 0.58296 0.37885 1.02794
 C2054 C 0.57215 0.36817 1.04549
 C2055 C 0.58027 0.34955 1.05394
 H2056 H 0.59407 0.34240 1.04715
 O2057 O 0.42444 0.52050 1.10455
 O2058 O 0.40006 0.52053 1.12900
 C2059 C 0.41701 0.52775 1.12152
 C2060 C 0.42779 0.54525 1.13223
 C2061 C 0.41957 0.55376 1.15080
 H2062 H 0.40571 0.54706 1.15789
 O2063 O 0.57570 0.47937 1.10481
 O2064 O 0.60007 0.47937 1.12924
 C2065 C 0.58314 0.47214 1.12181
 C2066 C 0.57237 0.45464 1.13259
 C2067 C 0.58068 0.44601 1.15107
 H2068 H 0.59462 0.45263 1.15808
 O2069 O 0.52048 0.39602 1.07618
 O2070 O 0.52046 0.37149 1.10052
 C2071 C 0.52769 0.37901 1.08355
 C2072 C 0.54513 0.36826 1.07269
 C2073 C 0.55352 0.34963 1.08086
 H2074 H 0.54677 0.34255 1.09474
 O2075 O 0.47945 0.60454 1.07586
 O2076 O 0.47950 0.62890 1.10030
 C2077 C 0.47224 0.62149 1.08333
 C2078 C 0.45473 0.63225 1.07257
 C2079 C 0.44630 0.65083 1.08078
 H2080 H 0.45310 0.65791 1.09462
 O2081 O 0.39573 0.57579 1.02080
 O2082 O 0.37128 0.60014 1.02072
 C2083 C 0.37875 0.58319 1.02799
 C2084 C 0.36800 0.57237 1.04549
 C2085 C 0.34947 0.58060 1.05399
 H2086 H 0.34242 0.59449 1.04725
 O2087 O 0.60425 0.42434 1.02056
 O2088 O 0.62864 0.39994 1.02062
 C2089 C 0.62119 0.41691 1.02782
 C2090 C 0.63192 0.42772 1.04531
 C2091 C 0.65051 0.41955 1.05374
 H2092 H 0.65762 0.40573 1.04696
 O2093 O 0.47953 0.42449 1.10496
 O2094 O 0.47949 0.40003 1.12936
 C2095 C 0.47226 0.41700 1.12191
 C2096 C 0.45472 0.42775 1.13263
 C2097 C 0.44617 0.41951 1.15119
 H2098 H 0.45289 0.40564 1.15830
 O2099 O 0.52040 0.57574 1.10438
 O2100 O 0.52044 0.60006 1.12887
 C2101 C 0.52766 0.58312 1.12137
 C2102 C 0.54514 0.57229 1.13210
 C2103 C 0.55371 0.58057 1.15060
 H2104 H 0.54705 0.59450 1.15762
 O2105 O 0.39592 0.47963 1.07584
 O2106 O 0.37149 0.47960 1.10023
 C2107 C 0.37897 0.47240 1.08324
 C2108 C 0.36827 0.45495 1.07239
 C2109 C 0.34966 0.44656 1.08053
 H2110 H 0.34256 0.45331 1.09439
 O2111 O 0.60420 0.52029 1.07598
 O2112 O 0.62861 0.52031 1.10037
 C2113 C 0.62114 0.52754 1.08339
 C2114 C 0.63184 0.54503 1.07256
 C2115 C 0.65036 0.55352 1.08080
 H2116 H 0.65741 0.54678 1.09470
 O2117 O 0.42464 0.39592 1.02048
 O2118 O 0.40034 0.37148 1.02059
 C2119 C 0.41727 0.37897 1.02778
 C2120 C 0.42807 0.36828 1.04532
 C2121 C 0.41990 0.34970 1.05379
 H2122 H 0.40609 0.34261 1.04700
 O2123 O 0.57561 0.60422 1.02054
 O2124 O 0.59995 0.62864 1.02053
 C2125 C 0.58300 0.62119 1.02776
 C2126 C 0.57217 0.63196 1.04521
 C2127 C 0.58037 0.65051 1.05367
 H2128 H 0.59426 0.65754 1.04694
 Cu2129 Cu 0.58744 0.49983 1.08788
 Cu2130 Cu 0.61671 0.49985 1.11718
 Cu2131 Cu 0.41254 0.50006 1.08785
 Cu2132 Cu 0.38325 0.50005 1.11716
 Cu2133 Cu 0.49992 0.58767 1.08763
 Cu2134 Cu 0.49998 0.61688 1.11700
 Cu2135 Cu 0.50002 0.41273 1.08813
 Cu2136 Cu 0.49999 0.38332 1.11737
 C2137 C 0.55436 0.55443 1.12311
 H2138 H 0.54809 0.54816 1.10866
 C2139 C 0.57128 0.57132 1.15981
 C2140 C 0.44545 0.44556 1.12354
 H2141 H 0.45171 0.45180 1.10906
 C2142 C 0.42857 0.42876 1.16036
 C2143 C 0.55436 0.62298 1.05451
 H2144 H 0.54815 0.60850 1.04830
 C2145 C 0.57112 0.65975 1.07124
 C2146 C 0.44578 0.37736 1.05469
 H2147 H 0.45197 0.39186 1.04848
 C2148 C 0.42908 0.34052 1.07144
 C2149 C 0.62283 0.55434 1.05472
 H2150 H 0.60837 0.54811 1.04848
 C2151 C 0.65953 0.57111 1.07155
 C2152 C 0.37734 0.44563 1.05460
 H2153 H 0.39186 0.45179 1.04842
 C2154 C 0.34045 0.42903 1.07124
 C2155 C 0.44557 0.55451 1.12315
 H2156 H 0.45179 0.54828 1.10866
 C2157 C 0.42883 0.57133 1.15998
 C2158 C 0.55450 0.44548 1.12363
 H2159 H 0.54821 0.45181 1.10919
 C2160 C 0.57144 0.42842 1.16029
 C2161 C 0.62285 0.44546 1.05466
 H2162 H 0.60833 0.45164 1.04848
 C2163 C 0.65972 0.42880 1.07133
 C2164 C 0.37702 0.55456 1.05479
 H2165 H 0.39148 0.54833 1.04855
 C2166 C 0.34026 0.57134 1.07160
 C2167 C 0.44538 0.62321 1.05481
 H2168 H 0.45158 0.60872 1.04858
 C2169 C 0.42872 0.66007 1.07157
 C2170 C 0.55444 0.37729 1.05486
 H2171 H 0.54828 0.39183 1.04866
 C2172 C 0.57101 0.34034 1.07155
 O2173 O 0.57559 0.47969 0.89576
 O2174 O 0.59992 0.47970 0.87126
 C2175 C 0.58298 0.47248 0.87875
 C2176 C 0.57219 0.45505 0.86799
 C2177 C 0.58040 0.44663 0.84939
 H2178 H 0.59424 0.45340 0.84231
 O2179 O 0.42449 0.52039 0.89569
 O2180 O 0.40014 0.52050 0.87123
 C2181 C 0.41708 0.52768 0.87871
 C2182 C 0.42785 0.54518 0.86799
 C2183 C 0.41965 0.55367 0.84941
 H2184 H 0.40582 0.54691 0.84231
 O2185 O 0.47952 0.60433 0.92447
 O2186 O 0.47948 0.62876 0.90004
 C2187 C 0.47228 0.62130 0.91703
 C2188 C 0.45483 0.63204 0.92786
 C2189 C 0.44633 0.65058 0.91959
 H2190 H 0.45302 0.65762 0.90567
 O2191 O 0.52053 0.39574 0.92435
 O2192 O 0.52061 0.37136 0.89991
 C2193 C 0.52780 0.37880 0.91690
 C2194 C 0.54528 0.36807 0.92771
 C2195 C 0.55387 0.34961 0.91939
 H2196 H 0.54721 0.34261 0.90544
 O2197 O 0.60424 0.42431 0.97957
 O2198 O 0.62864 0.39992 0.97961
 C2199 C 0.62119 0.41687 0.97234
 C2200 C 0.63193 0.42769 0.95482
 C2201 C 0.65055 0.41958 0.94640
 H2202 H 0.65766 0.40574 0.95318
 O2203 O 0.39588 0.57576 0.97981
 O2204 O 0.37143 0.60009 0.97969
 C2205 C 0.37895 0.58315 0.97249
 C2206 C 0.36829 0.57233 0.95496
 C2207 C 0.34973 0.58050 0.94646
 H2208 H 0.34263 0.59436 0.95319
 O2209 O 0.52035 0.57569 0.89573
 O2210 O 0.52034 0.60008 0.87126
 C2211 C 0.52757 0.58312 0.87873
 C2212 C 0.54504 0.57233 0.86798
 C2213 C 0.55350 0.58058 0.84940
 H2214 H 0.54676 0.59445 0.84232
 O2215 O 0.47963 0.42437 0.89566
 O2216 O 0.47968 0.40004 0.87118
 C2217 C 0.47242 0.41697 0.87866
 C2218 C 0.45492 0.42774 0.86793
 C2219 C 0.44641 0.41947 0.84940
 H2220 H 0.45315 0.40559 0.84235
 O2221 O 0.60429 0.52050 0.92438
 O2222 O 0.62865 0.52053 0.89992
 C2223 C 0.62122 0.52774 0.91692
 C2224 C 0.63194 0.54521 0.92771
 C2225 C 0.65040 0.55377 0.91939
 H2226 H 0.65742 0.54709 0.90544
 O2227 O 0.39576 0.47951 0.92429
 O2228 O 0.37136 0.47960 0.89988
 C2229 C 0.37880 0.47233 0.91685
 C2230 C 0.36806 0.45485 0.92767
 C2231 C 0.34951 0.44640 0.91949
 H2232 H 0.34241 0.45316 0.90561
 O2233 O 0.57563 0.60417 0.97957
 O2234 O 0.59997 0.62859 0.97954
 C2235 C 0.58304 0.62113 0.97231
 C2236 C 0.57223 0.63187 0.95479
 C2237 C 0.58041 0.65044 0.94629
 H2238 H 0.59427 0.65749 0.95301
 O2239 O 0.42450 0.39577 0.97949
 O2240 O 0.40018 0.37134 0.97959
 C2241 C 0.41710 0.37879 0.97230
 C2242 C 0.42789 0.36805 0.95480
 C2243 C 0.41967 0.34953 0.94628
 H2244 H 0.40578 0.34249 0.95299
 O2245 O 0.42444 0.47949 0.89566
 O2246 O 0.40009 0.47956 0.87121
 C2247 C 0.41702 0.47229 0.87867
 C2248 C 0.42780 0.45479 0.86792
 C2249 C 0.41955 0.44625 0.84939
 H2250 H 0.40565 0.45294 0.84234
 O2251 O 0.57561 0.52057 0.89576
 O2252 O 0.59993 0.52060 0.87125
 C2253 C 0.58300 0.52782 0.87875
 C2254 C 0.57217 0.54530 0.86800
 C2255 C 0.58037 0.55382 0.84943
 H2256 H 0.59426 0.54713 0.84236
 O2257 O 0.47967 0.39571 0.92434
 O2258 O 0.47971 0.37133 0.89991
 C2259 C 0.47247 0.37876 0.91689
 C2260 C 0.45500 0.36803 0.92770
 C2261 C 0.44652 0.34952 0.91944
 H2262 H 0.45325 0.34246 0.90555
 O2263 O 0.52039 0.60429 0.92440
 O2264 O 0.52038 0.62873 0.89997
 C2265 C 0.52762 0.62125 0.91695
 C2266 C 0.54511 0.63194 0.92772
 C2267 C 0.55355 0.65050 0.91949
 H2268 H 0.54679 0.65761 0.90563
 O2269 O 0.39584 0.42440 0.97949
 O2270 O 0.37149 0.40000 0.97959
 C2271 C 0.37889 0.41695 0.97230
 C2272 C 0.36812 0.42775 0.95481
 C2273 C 0.34956 0.41956 0.94637
 H2274 H 0.34252 0.40569 0.95315
 O2275 O 0.60430 0.57558 0.97964
 O2276 O 0.62868 0.59995 0.97961
 C2277 C 0.62124 0.58300 0.97238
 C2278 C 0.63196 0.57224 0.95486
 C2279 C 0.65042 0.58053 0.94628
 H2280 H 0.65744 0.59441 0.95299
 O2281 O 0.52049 0.42445 0.89570
 O2282 O 0.52057 0.40012 0.87121
 C2283 C 0.52774 0.41707 0.87870
 C2284 C 0.54518 0.42793 0.86796
 C2285 C 0.55367 0.41978 0.84936
 H2286 H 0.54699 0.40591 0.84227
 O2287 O 0.47949 0.57572 0.89577
 O2288 O 0.47946 0.60011 0.87130
 C2289 C 0.47226 0.58315 0.87878
 C2290 C 0.45482 0.57234 0.86803
 C2291 C 0.44633 0.58057 0.84944
 H2292 H 0.45301 0.59447 0.84237
 O2293 O 0.39597 0.52042 0.92446
 O2294 O 0.37157 0.52053 0.90005
 C2295 C 0.37904 0.52772 0.91704
 C2296 C 0.36834 0.54522 0.92786
 C2297 C 0.34978 0.55366 0.91965
 H2298 H 0.34271 0.54690 0.90578
 O2299 O 0.60426 0.47959 0.92437
 O2300 O 0.62863 0.47960 0.89992
 C2301 C 0.62120 0.47235 0.91691
 C2302 C 0.63193 0.45485 0.92772
 C2303 C 0.65056 0.44648 0.91957
 H2304 H 0.65767 0.45331 0.90574
 O2305 O 0.57564 0.39569 0.97963
 O2306 O 0.59998 0.37125 0.97967
 C2307 C 0.58306 0.37873 0.97241
 C2308 C 0.57231 0.36802 0.95487
 C2309 C 0.58063 0.34957 0.94628
 H2310 H 0.59453 0.34253 0.95298
 O2311 O 0.42442 0.60442 0.97986
 O2312 O 0.40003 0.62881 0.97974
 C2313 C 0.41699 0.62137 0.97255
 C2314 C 0.42779 0.63208 0.95503
 C2315 C 0.41956 0.65061 0.94649
 H2316 H 0.40569 0.65768 0.95323
 Cu2317 Cu 0.58751 0.50009 0.91252
 Cu2318 Cu 0.61673 0.50011 0.88313
 Cu2319 Cu 0.41260 0.49993 0.91247
 Cu2320 Cu 0.38335 0.50006 0.88314
 Cu2321 Cu 0.58750 0.58743 1.00010
 Cu2322 Cu 0.61674 0.61671 1.00008
 Cu2323 Cu 0.58749 0.41248 1.00009
 Cu2324 Cu 0.61672 0.38316 1.00016
 Cu2325 Cu 0.41251 0.58769 1.00035
 Cu2326 Cu 0.38320 0.61693 1.00022
 Cu2327 Cu 0.41267 0.41259 0.99996
 Cu2328 Cu 0.38346 0.38327 1.00011
 Cu2329 Cu 0.49994 0.58757 0.91254
 Cu2330 Cu 0.49991 0.61687 0.88319
 Cu2331 Cu 0.50008 0.41250 0.91246
 Cu2332 Cu 0.50015 0.38327 0.88310
 C2333 C 0.55443 0.44572 0.87704
 H2334 H 0.54821 0.45189 0.89156
 C2335 C 0.57120 0.42907 0.84015
 C2336 C 0.44559 0.55450 0.87706
 H2337 H 0.45181 0.54827 0.89157
 C2338 C 0.42882 0.57128 0.84020
 C2339 C 0.44557 0.62303 0.94573
 H2340 H 0.45181 0.60856 0.95199
 C2341 C 0.42877 0.65978 0.92885
 C2342 C 0.55449 0.37703 0.94560
 H2343 H 0.54819 0.39144 0.95190
 C2344 C 0.57148 0.34044 0.92860
 C2345 C 0.62286 0.44547 0.94548
 H2346 H 0.60833 0.45162 0.95166
 C2347 C 0.65981 0.42893 0.92886
 C2348 C 0.37737 0.55454 0.94566
 H2349 H 0.39186 0.54834 0.95189
 C2350 C 0.34054 0.57122 0.92888
 C2351 C 0.55436 0.55454 0.87704
 H2352 H 0.54815 0.54830 0.89155
 C2353 C 0.57110 0.57139 0.84020
 C2354 C 0.44563 0.44554 0.87694
 H2355 H 0.45188 0.45180 0.89141
 C2356 C 0.42880 0.42865 0.84020
 C2357 C 0.62296 0.55443 0.94559
 H2358 H 0.60855 0.54816 0.95188
 C2359 C 0.65956 0.57136 0.92862
 C2360 C 0.37712 0.44554 0.94548
 H2361 H 0.39160 0.45174 0.95167
 C2362 C 0.34032 0.42883 0.92879
 C2363 C 0.55444 0.62286 0.94552
 H2364 H 0.54825 0.60837 0.95175
 C2365 C 0.57113 0.65969 0.92872
 C2366 C 0.44570 0.37705 0.94551
 H2367 H 0.45192 0.39151 0.95176
 C2368 C 0.42892 0.34034 0.92867
 C2369 C 1.12399 1.12317 1.25821
 C2370 C 1.11598 1.11511 1.24316
 C2371 C 1.10646 1.10567 1.22562
 C2372 C 1.09829 1.09761 1.21066
 C2373 C 1.08874 1.08823 1.19310
 C2374 C 1.08070 1.08031 1.17799
 C2375 C 1.12360 0.62278 0.75868
 C2376 C 1.11559 0.61471 0.74363
 C2377 C 1.10613 0.60529 0.72603
 C2378 C 1.09802 0.59730 0.71099
 C2379 C 1.08857 0.58801 0.69332
 C2380 C 1.08062 0.58018 0.67811
 C2381 C 0.62396 1.12336 0.75889
 C2382 C 0.61599 1.11538 0.74376
 C2383 C 0.60651 1.10604 0.72610
 C2384 C 0.59837 1.09809 0.71105
 C2385 C 0.58883 1.08881 0.69340
 C2386 C 0.58079 1.08096 0.67823
 C2387 C 0.62401 0.62376 1.25814
 C2388 C 0.61598 0.61568 1.24310
 C2389 C 0.60645 0.60618 1.22559
 C2390 C 0.59827 0.59807 1.21065
 C2391 C 0.58871 0.58863 1.19313
 C2392 C 0.58066 0.58065 1.17804
 C2393 C 0.87576 0.87617 1.25865
 C2394 C 0.88382 0.88425 1.24360
 C2395 C 0.89339 0.89373 1.22605
 C2396 C 0.90160 0.90180 1.21108
 C2397 C 0.91118 0.91120 1.19350
 C2398 C 0.91925 0.91914 1.17837
 C2399 C 0.87621 0.37701 0.75910
 C2400 C 0.88428 0.38504 0.74403
 C2401 C 0.89384 0.39436 0.72639
 C2402 C 0.90202 0.40227 0.71132
 C2403 C 0.91154 0.41145 0.69359
 C2404 C 0.91954 0.41923 0.67835
 C2405 C 0.37548 0.87632 0.75793
 C2406 C 0.38358 0.88446 0.74294
 C2407 C 0.39320 0.89402 0.72549
 C2408 C 0.40145 0.90217 0.71060
 C2409 C 0.41108 0.91165 0.69310
 C2410 C 0.41916 0.91963 0.67803
 C2411 C 0.37579 0.37745 1.25953
 C2412 C 0.38388 0.38546 1.24445
 C2413 C 0.39346 0.39476 1.22680
 C2414 C 0.40166 0.40265 1.21172
 C2415 C 0.41123 0.41181 1.19400
 C2416 C 0.41926 0.41958 1.17876
 C2417 C 0.87545 1.12392 0.74207
 C2418 C 0.88358 1.11583 0.75707
 C2419 C 0.89326 1.10634 0.77452
 C2420 C 0.90158 1.09824 0.78941
 C2421 C 0.91128 1.08882 0.80689
 C2422 C 0.91942 1.08086 0.82195
 C2423 C 0.87690 0.62216 0.24076
 C2424 C 0.88488 0.61416 0.25588
 C2425 C 0.89434 0.60486 0.27356
 C2426 C 0.90245 0.59696 0.28866
 C2427 C 0.91190 0.58777 0.30640
 C2428 C 0.91986 0.57999 0.32165
 C2429 C 0.37586 1.12370 0.24184
 C2430 C 0.38395 1.11558 0.25684
 C2431 C 0.39354 1.10605 0.27432
 C2432 C 0.40177 1.09793 0.28924
 C2433 C 0.41137 1.08849 0.30677
 C2434 C 0.41943 1.08054 0.32187
 C2435 C 0.37629 0.62283 0.74118
 C2436 C 0.38433 0.61482 0.75626
 C2437 C 0.39386 0.60548 0.77388
 C2438 C 0.40203 0.59754 0.78893
 C2439 C 0.41155 0.58830 0.80662
 C2440 C 0.41954 0.58049 0.82183
 C2441 C 1.12333 0.87726 0.74115
 C2442 C 1.11536 0.88531 0.75624
 C2443 C 1.10592 0.89472 0.77387
 C2444 C 1.09783 0.90273 0.78892
 C2445 C 1.08840 0.91204 0.80660
 C2446 C 1.08044 0.91989 0.82180
 C2447 C 1.12365 0.37721 0.24117
 C2448 C 1.11560 0.38531 0.25620
 C2449 C 1.10608 0.39471 0.27378
 C2450 C 1.09793 0.40269 0.28881
 C2451 C 1.08844 0.41195 0.30648
 C2452 C 1.08048 0.41976 0.32170
 C2453 C 0.62312 0.87763 0.24100
 C2454 C 0.61511 0.88565 0.25608
 C2455 C 0.60564 0.89498 0.27373
 C2456 C 0.59753 0.90289 0.28882
 C2457 C 0.58808 0.91209 0.30654
 C2458 C 0.58011 0.91987 0.32177
 C2459 C 0.62403 0.37697 0.74167
 C2460 C 0.61592 0.38514 0.75661
 C2461 C 0.60631 0.39465 0.77409
 C2462 C 0.59810 0.40270 0.78904
 C2463 C 0.58854 0.41203 0.80663
 C2464 C 0.58051 0.41989 0.82179
 C2465 C 1.25878 1.12272 1.12289
 C2466 C 1.24373 1.11467 1.11493
 C2467 C 1.22609 1.10529 1.10556
 C2468 C 1.21101 1.09734 1.09755
 C2469 C 1.19328 1.08810 1.08822
 C2470 C 1.17804 1.08031 1.08035
 C2471 C 1.25837 0.62285 0.62312
 C2472 C 1.24333 0.61477 0.61517
 C2473 C 1.22575 0.60532 0.60578
 C2474 C 1.21073 0.59729 0.59774
 C2475 C 1.19309 0.58796 0.58834
 C2476 C 1.17792 0.58010 0.58042
 C2477 C 0.75835 1.12284 0.62311
 C2478 C 0.74330 1.11480 0.61512
 C2479 C 0.72570 1.10542 0.60570
 C2480 C 0.71066 1.09745 0.59763
 C2481 C 0.69299 1.08819 0.58823
 C2482 C 0.67778 1.08039 0.58031
 C2483 C 0.75814 0.62336 1.12361
 C2484 C 0.74307 0.61530 1.11569
 C2485 C 0.72550 0.60582 1.10630
 C2486 C 0.71052 0.59773 1.09823
 C2487 C 0.69294 0.58831 1.08881
 C2488 C 0.67781 0.58038 1.08085
 C2489 C 1.25837 0.87741 0.87691
 C2490 C 1.24333 0.88548 0.88491
 C2491 C 1.22574 0.89489 0.89434
 C2492 C 1.21069 0.90287 0.90241
 C2493 C 1.19301 0.91215 0.91180
 C2494 C 1.17778 0.91996 0.91972
 C2495 C 1.25915 0.37732 0.37622
 C2496 C 1.24407 0.38531 0.38425
 C2497 C 1.22640 0.39461 0.39375
 C2498 C 1.21131 0.40248 0.40187
 C2499 C 1.19355 0.41164 0.41132
 C2500 C 1.17829 0.41938 0.41927
 C2501 C 0.75806 0.87652 0.37586
 C2502 C 0.74302 0.88459 0.38388
 C2503 C 0.72548 0.89407 0.39338
 C2504 C 0.71052 0.90217 0.40153
 C2505 C 0.69295 0.91159 0.41103
 C2506 C 0.67783 0.91954 0.41904
 C2507 C 0.75968 0.37823 0.87735
 C2508 C 0.74456 0.38618 0.88533
 C2509 C 0.72680 0.39540 0.89469
 C2510 C 0.71159 0.40320 0.90266
 C2511 C 0.69371 0.41226 0.91194
 C2512 C 0.67834 0.41992 0.91975
 C2513 C 0.74195 0.87650 1.12387
 C2514 C 0.75699 0.88460 1.11589
 C2515 C 0.77452 0.89409 1.10642
 C2516 C 0.78948 0.90218 1.09829
 C2517 C 0.80704 0.91160 1.08880
 C2518 C 0.82215 0.91954 1.08079
 C2519 C 0.74096 0.37743 0.62267
 C2520 C 0.75599 0.38551 0.61465
 C2521 C 0.77363 0.39490 0.60527
 C2522 C 0.78875 0.40284 0.59729
 C2523 C 0.80653 0.41205 0.58801
 C2524 C 0.82184 0.41979 0.58019
 C2525 C 0.24127 0.87721 0.62316
 C2526 C 0.25636 0.88525 0.61523
 C2527 C 0.27401 0.89465 0.60584
 C2528 C 0.28906 0.90265 0.59780
 C2529 C 0.30675 0.91193 0.58841
 C2530 C 0.32196 0.91976 0.58047
 C2531 C 0.24147 0.37722 1.12315
 C2532 C 0.25649 0.38533 1.11515
 C2533 C 0.27408 0.39478 1.10573
 C2534 C 0.28911 0.40279 1.09767
 C2535 C 0.30681 0.41209 1.08830
 C2536 C 0.32204 0.41990 1.08043
 C2537 C 0.74163 1.12295 0.87594
 C2538 C 0.75674 1.11499 0.88394
 C2539 C 0.77436 1.10567 0.89345
 C2540 C 0.78938 1.09773 0.90163
 C2541 C 0.80701 1.08847 0.91119
 C2542 C 0.82216 1.08063 0.91923
 C2543 C 0.74206 0.62366 0.37618
 C2544 C 0.75712 0.61556 0.38413
 C2545 C 0.77467 0.60603 0.39356
 C2546 C 0.78963 0.59789 0.40165
 C2547 C 0.80720 0.58842 0.41111
 C2548 C 0.82232 0.58044 0.41909
 C2549 C 0.24105 1.12207 0.37706
 C2550 C 0.25618 1.11410 0.38499
 C2551 C 0.27389 1.10483 0.39437
 C2552 C 0.28903 1.09697 0.40239
 C2553 C 0.30681 1.08783 0.41176
 C2554 C 0.32210 1.08011 0.41964
 C2555 C 0.24157 0.62289 0.87671
 C2556 C 0.25662 0.61485 0.88471
 C2557 C 0.27423 0.60545 0.89417
 C2558 C 0.28927 0.59747 0.90227
 C2559 C 0.30695 0.58820 0.91169
 C2560 C 0.32217 0.58039 0.91963
 C2561 C 1.12329 1.25851 1.12284
 C2562 C 1.11521 1.24349 1.11484
 C2563 C 1.10571 1.22593 1.10547
 C2564 C 1.09760 1.21092 1.09748
 C2565 C 1.08818 1.19328 1.08818
 C2566 C 1.08026 1.17810 1.08032
 C2567 C 1.12314 0.75845 0.62289
 C2568 C 1.11508 0.74343 0.61486
 C2569 C 1.10560 0.72587 0.60544
 C2570 C 1.09753 0.71084 0.59743
 C2571 C 1.08816 0.69317 0.58812
 C2572 C 1.08028 0.67796 0.58026
 C2573 C 0.62280 1.25927 0.62212
 C2574 C 0.61474 1.24424 0.61411
 C2575 C 0.60531 1.22660 0.60480
 C2576 C 0.59728 1.21150 0.59691
 C2577 C 0.58794 1.19374 0.58773
 C2578 C 0.58009 1.17847 0.57998
 C2579 C 0.62369 0.75826 1.12317
 C2580 C 0.61562 0.74324 1.11516
 C2581 C 0.60607 0.72572 1.10575
 C2582 C 0.59790 0.71076 1.09772
 C2583 C 0.58839 0.69318 1.08837
 C2584 C 0.58040 0.67805 1.08049
 C2585 C 0.87701 1.25932 0.87728
 C2586 C 0.88506 1.24429 0.88537
 C2587 C 0.89450 1.22665 0.89476
 C2588 C 0.90253 1.21154 0.90272
 C2589 C 0.91188 1.19377 0.91195
 C2590 C 0.91975 1.17848 0.91973
 C2591 C 0.87651 0.75823 0.37623
 C2592 C 0.88451 0.74310 0.38419
 C2593 C 0.89398 0.72549 0.39359
 C2594 C 0.90211 0.71048 0.40164
 C2595 C 0.91159 0.69288 0.41105
 C2596 C 0.91959 0.67775 0.41901
 C2597 C 0.37638 1.25898 0.37686
 C2598 C 0.38447 1.24392 0.38487
 C2599 C 0.39397 1.22631 0.39426
 C2600 C 0.40207 1.21125 0.40225
 C2601 C 0.41150 1.19357 0.41156
 C2602 C 0.41944 1.17835 0.41943
 C2603 C 0.37636 0.75845 0.87668
 C2604 C 0.38442 0.74338 0.88468
 C2605 C 0.39392 0.72581 0.89412
 C2606 C 0.40205 0.71082 0.90219
 C2607 C 0.41151 0.69323 0.91160
 C2608 C 0.41948 0.67808 0.91955
 C2609 C 1.12328 0.74156 0.87695
 C2610 C 1.11522 0.75660 0.88498
 C2611 C 1.10576 0.77418 0.89441
 C2612 C 1.09769 0.78919 0.90246
 C2613 C 1.08830 0.80685 0.91182
 C2614 C 1.08039 0.82203 0.91971
 C2615 C 1.12366 0.24181 0.37622
 C2616 C 1.11558 0.25683 0.38426
 C2617 C 1.10607 0.27433 0.39377
 C2618 C 1.09793 0.28926 0.40190
 C2619 C 1.08846 0.30680 0.41137
 C2620 C 1.08048 0.32190 0.41936
 C2621 C 0.62387 0.74212 0.37642
 C2622 C 0.61585 0.75721 0.38438
 C2623 C 0.60633 0.77477 0.39380
 C2624 C 0.59817 0.78973 0.40187
 C2625 C 0.58863 0.80726 0.41130
 C2626 C 0.58058 0.82234 0.41926
 C2627 C 0.62390 0.24218 0.87577
 C2628 C 0.61593 0.25726 0.88381
 C2629 C 0.60648 0.27479 0.89336
 C2630 C 0.59838 0.28971 0.90156
 C2631 C 0.58889 0.30721 0.91113
 C2632 C 0.58087 0.32225 0.91920
 C2633 C 0.87603 0.74202 1.12326
 C2634 C 0.88415 0.75704 1.11526
 C2635 C 0.89377 0.77454 1.10586
 C2636 C 0.90200 0.78949 1.09784
 C2637 C 0.91158 0.80704 1.08849
 C2638 C 0.91962 0.82216 1.08059
 C2639 C 0.87636 0.24161 0.62322
 C2640 C 0.88445 0.25664 0.61522
 C2641 C 0.89400 0.27418 0.60580
 C2642 C 0.90217 0.28915 0.59775
 C2643 C 0.91167 0.30672 0.58836
 C2644 C 0.91966 0.32185 0.58042
 C2645 C 0.37643 0.74159 0.62282
 C2646 C 0.38455 0.75661 0.61483
 C2647 C 0.39411 0.77418 0.60549
 C2648 C 0.40227 0.78920 0.59754
 C2649 C 0.41174 0.80686 0.58827
 C2650 C 0.41968 0.82206 0.58042
 C2651 C 0.37647 0.24195 1.12341
 C2652 C 0.38457 0.25699 1.11543
 C2653 C 0.39413 0.27453 1.10603
 C2654 C 0.40230 0.28950 1.09799
 C2655 C 0.41181 0.30708 1.08862
 C2656 C 0.41980 0.32222 1.08071
 C2657 C 1.12239 1.12335 0.74000
 C2658 C 1.11434 1.11531 0.75509
 C2659 C 1.10501 1.10588 0.77280
 C2660 C 1.09712 1.09785 0.78797
 C2661 C 1.08796 1.08852 0.80583
 C2662 C 1.08024 1.08067 0.82118
 C2663 C 1.12352 0.62438 0.24108
 C2664 C 1.11553 0.61634 0.25619
 C2665 C 1.10617 0.60677 0.27382
 C2666 C 1.09819 0.59855 0.28885
 C2667 C 1.08889 0.58894 0.30648
 C2668 C 1.08102 0.58086 0.32164
 C2669 C 0.62305 1.12360 0.24076
 C2670 C 0.61493 1.11562 0.25583
 C2671 C 0.60547 1.10620 0.27347
 C2672 C 0.59744 1.09814 0.28855
 C2673 C 0.58812 1.08875 0.30627
 C2674 C 0.58027 1.08082 0.32151
 C2675 C 0.62374 0.62389 0.74173
 C2676 C 0.61558 0.61586 0.75673
 C2677 C 0.60600 0.60635 0.77424
 C2678 C 0.59783 0.59821 0.78919
 C2679 C 0.58835 0.58872 0.80676
 C2680 C 0.58038 0.58072 0.82189
 C2681 C 0.87729 0.87674 0.74104
 C2682 C 0.88537 0.88475 0.75608
 C2683 C 0.89477 0.89422 0.77369
 C2684 C 0.90275 0.90231 0.78875
 C2685 C 0.91201 0.91174 0.80645
 C2686 C 0.91982 0.91968 0.82168
 C2687 C 0.87722 0.37635 0.24058
 C2688 C 0.88527 0.38430 0.25570
 C2689 C 0.89462 0.39370 0.27338
 C2690 C 0.90255 0.40176 0.28849
 C2691 C 0.91179 0.41117 0.30623
 C2692 C 0.91960 0.41911 0.32146
 C2693 C 0.37729 0.87595 0.24045
 C2694 C 0.38528 0.88402 0.25553
 C2695 C 0.39456 0.89356 0.27320
 C2696 C 0.40242 0.90172 0.28830
 C2697 C 0.41157 0.91123 0.30604
 C2698 C 0.41931 0.91921 0.32130
 C2699 C 0.37719 0.37594 0.74138
 C2700 C 0.38517 0.38394 0.75649
 C2701 C 0.39449 0.39347 0.77410
 C2702 C 0.40244 0.40167 0.78912
 C2703 C 0.41170 0.41125 0.80675
 C2704 C 0.41955 0.41930 0.82190
 C2705 C 1.12288 0.87582 1.25878
 C2706 C 1.11491 0.88384 1.24365
 C2707 C 1.10559 0.89339 1.22603
 C2708 C 1.09764 0.90160 1.21100
 C2709 C 1.08839 0.91119 1.19337
 C2710 C 1.08055 0.91926 1.17820
 C2711 C 1.12291 0.37609 0.75880
 C2712 C 1.11483 0.38413 0.74374
 C2713 C 1.10540 0.39363 0.72615
 C2714 C 1.09739 0.40178 0.71111
 C2715 C 1.08809 0.41126 0.69344
 C2716 C 1.08025 0.41924 0.67823
 C2717 C 0.62406 0.87602 0.75790
 C2718 C 0.61587 0.88408 0.74292
 C2719 C 0.60621 0.89363 0.72548
 C2720 C 0.59797 0.90183 0.71060
 C2721 C 0.58838 0.91141 0.69313
 C2722 C 0.58033 0.91948 0.67808
 C2723 C 0.62349 0.37552 1.25901
 C2724 C 0.61546 0.38355 1.24391
 C2725 C 0.60605 0.39310 1.22630
 C2726 C 0.59803 0.40130 1.21130
 C2727 C 0.58867 0.41090 1.19369
 C2728 C 0.58075 0.41899 1.17856
 C2729 C 0.87635 1.12392 1.25799
 C2730 C 0.88446 1.11588 1.24297
 C2731 C 0.89401 1.10634 1.22548
 C2732 C 0.90216 1.09815 1.21057
 C2733 C 0.91165 1.08858 1.19307
 C2734 C 0.91964 1.08051 1.17800
 C2735 C 0.87686 0.62362 0.75841
 C2736 C 0.88494 0.61557 0.74338
 C2737 C 0.89439 0.60602 0.72583
 C2738 C 0.90242 0.59784 0.71084
 C2739 C 0.91177 0.58830 0.69324
 C2740 C 0.91966 0.58028 0.67809
 C2741 C 0.37766 1.12322 0.75898
 C2742 C 0.38569 1.11519 0.74392
 C2743 C 0.39502 1.10572 0.72629
 C2744 C 0.40293 1.09762 0.71120
 C2745 C 0.41211 1.08819 0.69345
 C2746 C 0.41986 1.08028 0.67818
 C2747 C 0.37739 0.62397 1.25896
 C2748 C 0.38540 0.61590 1.24390
 C2749 C 0.39472 0.60634 1.22629
 C2750 C 0.40264 0.59816 1.21124
 C2751 C 0.41185 0.58863 1.19356
 C2752 C 0.41965 0.58062 1.17835
 C2753 C 1.12347 1.25901 0.87645
 C2754 C 1.11536 1.24395 0.88441
 C2755 C 1.10587 1.22633 0.89379
 C2756 C 1.09781 1.21128 0.90182
 C2757 C 1.08844 1.19360 0.91119
 C2758 C 1.08056 1.17839 0.91910
 C2759 C 1.12342 0.75859 0.37635
 C2760 C 1.11536 0.74347 0.38423
 C2761 C 1.10590 0.72583 0.39358
 C2762 C 1.09784 0.71078 0.40161
 C2763 C 1.08845 0.69314 0.41102
 C2764 C 1.08055 0.67796 0.41897
 C2765 C 0.62240 1.25963 0.37650
 C2766 C 0.61438 1.24448 0.38442
 C2767 C 0.60505 1.22676 0.39377
 C2768 C 0.59713 1.21161 0.40177
 C2769 C 0.58793 1.19382 0.41112
 C2770 C 0.58016 1.17854 0.41902
 C2771 C 0.62302 0.75878 0.87690
 C2772 C 0.61494 0.74371 0.88486
 C2773 C 0.60549 0.72608 0.89423
 C2774 C 0.59747 0.71101 0.90224
 C2775 C 0.58814 0.69330 0.91159
 C2776 C 0.58030 0.67807 0.91948
 C2777 C 0.87770 1.25889 1.12355
 C2778 C 0.88571 1.24381 1.11556
 C2779 C 0.89503 1.22616 1.10609
 C2780 C 0.90292 1.21107 1.09799
 C2781 C 0.91211 1.19335 1.08852
 C2782 C 0.91988 1.17812 1.08056
 C2783 C 0.87724 0.75872 0.62304
 C2784 C 0.88530 0.74365 0.61506
 C2785 C 0.89469 0.72601 0.60565
 C2786 C 0.90266 0.71093 0.59760
 C2787 C 0.91191 0.69320 0.58822
 C2788 C 0.91972 0.67795 0.58033
 C2789 C 0.37666 1.25878 0.62383
 C2790 C 0.38466 1.24364 0.61591
 C2791 C 0.39403 1.22598 0.60649
 C2792 C 0.40202 1.21094 0.59839
 C2793 C 0.41134 1.19329 0.58891
 C2794 C 0.41923 1.17813 0.58091
 C2795 C 0.37738 0.75934 1.12381
 C2796 C 0.38541 0.74427 1.11578
 C2797 C 0.39475 0.72661 1.10629
 C2798 C 0.40265 0.71152 1.09819
 C2799 C 0.41184 0.69377 1.08874
 C2800 C 0.41960 0.67850 1.08080
 C2801 C 0.87680 0.74176 0.87652
 C2802 C 0.88488 0.75680 0.88450
 C2803 C 0.89436 0.77435 0.89394
 C2804 C 0.90241 0.78935 0.90202
 C2805 C 0.91178 0.80697 0.91145
 C2806 C 0.91967 0.82212 0.91941
 C2807 C 0.87634 0.24182 0.37609
 C2808 C 0.88444 0.25684 0.38407
 C2809 C 0.89398 0.27435 0.39352
 C2810 C 0.90212 0.28929 0.40162
 C2811 C 0.91158 0.30683 0.41109
 C2812 C 0.91954 0.32193 0.41908
 C2813 C 0.37566 0.74186 0.37576
 C2814 C 0.38379 0.75687 0.38377
 C2815 C 0.39335 0.77436 0.39327
 C2816 C 0.40151 0.78928 0.40142
 C2817 C 0.41100 0.80682 0.41092
 C2818 C 0.41899 0.82190 0.41893
 C2819 C 0.37656 0.24197 0.87619
 C2820 C 0.38467 0.25697 0.88420
 C2821 C 0.39420 0.27447 0.89370
 C2822 C 0.40230 0.28941 0.90184
 C2823 C 0.41172 0.30696 0.91134
 C2824 C 0.41965 0.32207 0.91934
 C2825 C 1.12251 0.74041 1.12364
 C2826 C 1.11453 0.75558 1.11571
 C2827 C 1.10526 0.77334 1.10634
 C2828 C 1.09739 0.78851 1.09831
 C2829 C 1.08824 0.80633 1.08893
 C2830 C 1.08049 0.82163 1.08103
 C2831 C 1.12245 0.24009 0.62321
 C2832 C 1.11442 0.25519 0.61518
 C2833 C 1.10511 0.27291 0.60577
 C2834 C 1.09724 0.28808 0.59774
 C2835 C 1.08810 0.30593 0.58840
 C2836 C 1.08038 0.32128 0.58054
 C2837 C 0.62269 0.74119 0.62280
 C2838 C 0.61460 0.75627 0.61485
 C2839 C 0.60518 0.77394 0.60551
 C2840 C 0.59717 0.78904 0.59753
 C2841 C 0.58788 0.80680 0.58823
 C2842 C 0.58006 0.82207 0.58037
 C2843 C 0.62264 0.24112 1.12357
 C2844 C 0.61456 0.25618 1.11556
 C2845 C 0.60515 0.27382 1.10612
 C2846 C 0.59718 0.28890 1.09805
 C2847 C 0.58793 0.30663 1.08866
 C2848 C 0.58013 0.32190 1.08075
 C2849 C 1.25819 1.12391 0.87665
 C2850 C 1.24315 1.11584 0.88463
 C2851 C 1.22561 1.10629 0.89402
 C2852 C 1.21065 1.09811 0.90203
 C2853 C 1.19307 1.08860 0.91138
 C2854 C 1.17794 1.08060 0.91928
 C2855 C 1.25856 0.62403 0.37711
 C2856 C 1.24351 0.61590 0.38504
 C2857 C 1.22594 0.60628 0.39433
 C2858 C 1.21095 0.59805 0.40225
 C2859 C 1.19333 0.58848 0.41150
 C2860 C 1.17817 0.58045 0.41934
 C2861 C 0.75794 1.12375 0.37623
 C2862 C 0.74284 1.11575 0.38417
 C2863 C 0.72527 1.10626 0.39356
 C2864 C 0.71030 1.09813 0.40162
 C2865 C 0.69274 1.08864 0.41104
 C2866 C 0.67765 1.08065 0.41901
 C2867 C 0.75794 0.62398 0.87635
 C2868 C 0.74285 0.61597 0.88431
 C2869 C 0.72530 0.60646 0.89373
 C2870 C 0.71035 0.59830 0.90180
 C2871 C 0.69283 0.58876 0.91125
 C2872 C 0.67777 0.58073 0.91925
 C2873 C 1.25903 0.87658 1.12311
 C2874 C 1.24399 0.88463 1.11509
 C2875 C 1.22638 0.89410 1.10568
 C2876 C 1.21132 0.90216 1.09768
 C2877 C 1.19363 0.91154 1.08836
 C2878 C 1.17840 0.91944 1.08051
 C2879 C 1.25795 0.37564 0.62360
 C2880 C 1.24287 0.38368 0.61562
 C2881 C 1.22533 0.39323 0.60619
 C2882 C 1.21040 0.40142 0.59810
 C2883 C 1.19289 0.41097 0.58864
 C2884 C 1.17782 0.41902 0.58065
 C2885 C 0.75839 0.87693 0.62288
 C2886 C 0.74333 0.88500 0.61488
 C2887 C 0.72572 0.89446 0.60551
 C2888 C 0.71067 0.90253 0.59752
 C2889 C 0.69297 0.91191 0.58823
 C2890 C 0.67774 0.91981 0.58039
 C2891 C 0.75867 0.37691 1.12340
 C2892 C 0.74364 0.38495 1.11532
 C2893 C 0.72606 0.39437 1.10584
 C2894 C 0.71103 0.40240 1.09777
 C2895 C 0.69334 0.41174 1.08840
 C2896 C 0.67812 0.41961 1.08052
 C2897 C 0.74150 1.12298 1.12348
 C2898 C 0.75655 1.11497 1.11543
 C2899 C 0.77416 1.10558 1.10598
 C2900 C 0.78921 1.09758 1.09793
 C2901 C 0.80690 1.08826 1.08856
 C2902 C 0.82212 1.08040 1.08066
 C2903 C 0.74204 0.62341 0.62337
 C2904 C 0.75708 0.61536 0.61536
 C2905 C 0.77463 0.60586 0.60591
 C2906 C 0.78960 0.59774 0.59783
 C2907 C 0.80718 0.58828 0.58840
 C2908 C 0.82231 0.58032 0.58046
 C2909 C 0.24017 1.12267 0.62254
 C2910 C 0.25519 1.11461 0.61447
 C2911 C 0.27287 1.10523 0.60508
 C2912 C 0.28802 1.09730 0.59713
 C2913 C 0.30587 1.08810 0.58791
 C2914 C 0.32123 1.08036 0.58015
 C2915 C 0.24168 0.62376 1.12386
 C2916 C 0.25672 0.61569 1.11583
 C2917 C 0.27426 0.60618 1.10636
 C2918 C 0.28923 0.59805 1.09827
 C2919 C 0.30682 0.58859 1.08884
 C2920 C 0.32196 0.58063 1.08089
 C2921 C 0.74177 0.87688 0.87664
 C2922 C 0.75682 0.88492 0.88463
 C2923 C 0.77438 0.89439 0.89404
 C2924 C 0.78937 0.90247 0.90209
 C2925 C 0.80698 0.91188 0.91148
 C2926 C 0.82213 0.91980 0.91940
 C2927 C 0.74167 0.37605 0.37615
 C2928 C 0.75671 0.38410 0.38415
 C2929 C 0.77427 0.39359 0.39359
 C2930 C 0.78924 0.40170 0.40166
 C2931 C 0.80683 0.41116 0.41108
 C2932 C 0.82196 0.41911 0.41903
 C2933 C 0.24200 0.87553 0.37659
 C2934 C 0.25706 0.88363 0.38450
 C2935 C 0.27457 0.89327 0.39382
 C2936 C 0.28949 0.90154 0.40181
 C2937 C 0.30699 0.91119 0.41115
 C2938 C 0.32204 0.91928 0.41908
 C2939 C 0.24132 0.37663 0.87738
 C2940 C 0.25636 0.38472 0.88534
 C2941 C 0.27396 0.39423 0.89466
 C2942 C 0.28901 0.40233 0.90259
 C2943 C 0.30670 0.41173 0.91183
 C2944 C 0.32193 0.41964 0.91963
   
