data_POSCAR
  _audit_creation_date              2014-09-24
  _audit_creation_method            'ToBaCCo'
  _symmetry_space_group_name_H-M    'P1'
  _symmetry_Int_Tables_number       1
  _symmetry_cell_setting            triclinic
  loop_
  _symmetry_equiv_pos_as_xyz
 x,y,z
_cell_length_a 35.2066
_cell_length_b 39.0429
_cell_length_c 43.9013
_cell_angle_alpha 89.977100
_cell_angle_beta 89.995400
_cell_angle_gamma 90.204400
loop_
  _atom_site_label
  _atom_site_type_symbol
  _atom_site_fract_x
  _atom_site_fract_y
  _atom_site_fract_z
Zr1 Zr 0.24656 0.24768 0.30248
 O2 O 0.27772 0.26806 0.33958
 O3 O 0.20394 0.21979 0.32520
 O4 O 0.21467 0.28464 0.32736
 O5 O 0.30722 0.17897 0.29080
 O6 O 0.19467 0.32174 0.29059
 O7 O 0.27559 0.20942 0.32724
 O8 O 0.16665 0.20022 0.28645
 O9 O 0.19936 0.25816 0.27505
 O10 O 0.23974 0.20494 0.27413
 O11 O 0.26057 0.29278 0.27868
 O12 O 0.29847 0.24175 0.27865
 Zr13 Zr 0.25647 0.25505 0.19633
 Zr14 Zr 0.21452 0.30161 0.24957
 Zr15 Zr 0.28960 0.20048 0.24870
 Zr16 Zr 0.19396 0.21609 0.24603
 O17 O 0.34925 0.19410 0.24880
 O18 O 0.13755 0.23487 0.24436
 O19 O 0.24319 0.20909 0.21961
 O20 O 0.20522 0.26018 0.22039
 O21 O 0.26445 0.29789 0.22415
 O22 O 0.30357 0.24429 0.22379
 C23 C 0.17511 0.20307 0.31488
 C24 C 0.29856 0.18552 0.31884
 C25 C 0.19762 0.31219 0.31846
 O26 O 0.15506 0.30803 0.24576
 O27 O 0.20251 0.32719 0.20852
 O28 O 0.22925 0.29429 0.17148
 C29 C 0.20974 0.32023 0.18046
 O30 O 0.33607 0.29746 0.29521
 Zr31 Zr 0.30983 0.28589 0.25283
 O32 O 0.29882 0.28359 0.17369
 O33 O 0.23114 0.35355 0.25380
 O34 O 0.31286 0.34000 0.25653
 O35 O 0.36686 0.26859 0.25246
 O36 O 0.33481 0.30478 0.21259
 C37 C 0.32667 0.30157 0.18415
 O38 O 0.22376 0.23603 0.15945
 O39 O 0.27360 0.14821 0.24790
 O40 O 0.28476 0.21772 0.17072
 O41 O 0.30494 0.17890 0.20600
 O42 O 0.18956 0.16192 0.24472
 O43 O 0.17068 0.19992 0.20372
 C44 C 0.30098 0.18950 0.17823
 H45 H 0.23520 0.18345 0.28555
 H46 H 0.18360 0.26440 0.20648
 H47 H 0.32707 0.24063 0.21185
 H48 H 0.26470 0.31214 0.29287
 H49 H 0.12026 0.21528 0.24825
 H50 H 0.15010 0.33296 0.24709
 H51 H 0.20776 0.36750 0.25220
 H52 H 0.33954 0.34690 0.25263
 H53 H 0.16259 0.15581 0.24838
 H54 H 0.29742 0.13483 0.24886
 H55 H 0.35400 0.16916 0.24730
 H56 H 0.38335 0.28881 0.24886
 H57 H 0.14582 0.18866 0.20728
 H58 H 0.23590 0.24398 0.14028
 H59 H 0.26508 0.26009 0.35852
 H60 H 0.35795 0.31301 0.29179
 Zr61 Zr 0.75721 0.75391 0.30234
 O62 O 0.72830 0.73213 0.34001
 O63 O 0.79711 0.78446 0.32601
 O64 O 0.79013 0.71804 0.32751
 O65 O 0.69207 0.81838 0.28720
 O66 O 0.81338 0.68193 0.29115
 O67 O 0.72004 0.78815 0.32552
 O68 O 0.83605 0.80351 0.28809
 O69 O 0.80584 0.74532 0.27584
 O70 O 0.76319 0.79696 0.27426
 O71 O 0.74669 0.70825 0.27798
 O72 O 0.70649 0.75726 0.27672
 Zr73 Zr 0.75159 0.74650 0.19560
 Zr74 Zr 0.79410 0.70143 0.24974
 Zr75 Zr 0.71466 0.79881 0.24704
 Zr76 Zr 0.81046 0.78762 0.24704
 O77 O 0.65478 0.80348 0.24491
 O78 O 0.86777 0.77109 0.24618
 O79 O 0.76225 0.79272 0.21910
 O80 O 0.80221 0.74334 0.22088
 O81 O 0.74502 0.70313 0.22313
 O82 O 0.70325 0.75481 0.22204
 C83 C 0.82651 0.80097 0.31632
 C84 C 0.69596 0.81037 0.31535
 C85 C 0.80881 0.69126 0.31893
 O86 O 0.85396 0.69775 0.24728
 O87 O 0.80877 0.67655 0.20874
 O88 O 0.77991 0.70788 0.17165
 C89 C 0.80088 0.68300 0.18066
 O90 O 0.67130 0.69933 0.29256
 Zr91 Zr 0.69821 0.71283 0.25088
 O92 O 0.71077 0.71718 0.17195
 O93 O 0.78028 0.64879 0.25352
 O94 O 0.69851 0.65861 0.25365
 O95 O 0.64038 0.72786 0.25014
 O96 O 0.67488 0.69406 0.21009
 C97 C 0.68329 0.69833 0.18183
 O98 O 0.78526 0.76636 0.15962
 O99 O 0.72861 0.85157 0.24728
 O100 O 0.72259 0.78290 0.16918
 O101 O 0.69959 0.81995 0.20475
 O102 O 0.81182 0.84194 0.24647
 O103 O 0.83479 0.80532 0.20558
 C104 C 0.70435 0.80993 0.17709
 H105 H 0.76571 0.81851 0.28599
 H106 H 0.82443 0.74002 0.20738
 H107 H 0.67993 0.75777 0.20974
 H108 H 0.74303 0.68864 0.29198
 H109 H 0.88405 0.79125 0.25058
 H110 H 0.86022 0.67306 0.24854
 H111 H 0.80446 0.63592 0.25229
 H112 H 0.67244 0.65046 0.24905
 H113 H 0.83817 0.84922 0.25117
 H114 H 0.70425 0.86421 0.24746
 H115 H 0.64896 0.82821 0.24293
 H116 H 0.62494 0.70709 0.24601
 H117 H 0.85836 0.81830 0.21001
 H118 H 0.77400 0.75831 0.14015
 H119 H 0.73988 0.74188 0.35874
 H120 H 0.65096 0.68234 0.28853
 Zr121 Zr 0.74124 0.25335 -0.31420
 O122 O 0.71390 0.28271 -0.34828
 O123 O 0.77599 0.22158 -0.34075
 O124 O 0.77973 0.28568 -0.33720
 O125 O 0.66713 0.19632 -0.30493
 O126 O 0.80919 0.31570 -0.29927
 O127 O 0.70335 0.22349 -0.34072
 O128 O 0.81087 0.19326 -0.30504
 O129 O 0.79081 0.25321 -0.28773
 O130 O 0.74017 0.20750 -0.28969
 O131 O 0.73850 0.29754 -0.28676
 O132 O 0.69004 0.25407 -0.28928
 Zr133 Zr 0.73626 0.25094 -0.20769
 Zr134 Zr 0.78647 0.29563 -0.25852
 Zr135 Zr 0.69134 0.20922 -0.26303
 Zr136 Zr 0.78836 0.20813 -0.26236
 O137 O 0.63130 0.21225 -0.26165
 O138 O 0.84774 0.21723 -0.26078
 O139 O 0.73932 0.20640 -0.23487
 O140 O 0.78716 0.25037 -0.23294
 O141 O 0.73725 0.29733 -0.23175
 O142 O 0.68739 0.25153 -0.23466
 C143 C 0.80195 0.20029 -0.33284
 C144 C 0.67564 0.20382 -0.33256
 C145 C 0.80307 0.30875 -0.32757
 O146 O 0.84626 0.29151 -0.25580
 O147 O 0.80438 0.31440 -0.21555
 O148 O 0.77080 0.28306 -0.18084
 C149 C 0.79550 0.30610 -0.18796
 O150 O 0.66620 0.31827 -0.30017
 Zr151 Zr 0.68954 0.29645 -0.25996
 O152 O 0.69947 0.28179 -0.18174
 O153 O 0.78171 0.34964 -0.25860
 O154 O 0.69925 0.35000 -0.25729
 O155 O 0.62980 0.28938 -0.26103
 O156 O 0.66787 0.31263 -0.21787
 C157 C 0.67456 0.30396 -0.19014
 O158 O 0.76586 0.22361 -0.17346
 O159 O 0.69641 0.15540 -0.26689
 O160 O 0.70098 0.21569 -0.18440
 O161 O 0.67169 0.18645 -0.22278
 O162 O 0.78151 0.15429 -0.26586
 O163 O 0.80915 0.18372 -0.22245
 C164 C 0.67793 0.19258 -0.19445
 H165 H 0.73958 0.18697 -0.30291
 H166 H 0.80955 0.24951 -0.21933
 H167 H 0.66355 0.25018 -0.22277
 H168 H 0.73830 0.31861 -0.29931
 H169 H 0.86053 0.19580 -0.26709
 H170 H 0.85643 0.31520 -0.25568
 H171 H 0.80783 0.35897 -0.25676
 H172 H 0.67482 0.36092 -0.25183
 H173 H 0.80658 0.14452 -0.27123
 H174 H 0.67025 0.14614 -0.26854
 H175 H 0.62134 0.18848 -0.26230
 H176 H 0.61790 0.31148 -0.25547
 H177 H 0.83092 0.16891 -0.22783
 H178 H 0.75550 0.23090 -0.15347
 H179 H 0.72362 0.27471 -0.36826
 H180 H 0.64954 0.33767 -0.29462
 Zr181 Zr 0.24419 0.76239 -0.29338
 O182 O 0.27850 0.74349 -0.32923
 O183 O 0.20551 0.79383 -0.31711
 O184 O 0.21342 0.72984 -0.32309
 O185 O 0.30795 0.82539 -0.27275
 O186 O 0.18557 0.69119 -0.29107
 O187 O 0.27839 0.80099 -0.31340
 O188 O 0.16410 0.80967 -0.28005
 O189 O 0.19326 0.75259 -0.27030
 O190 O 0.23685 0.80303 -0.26303
 O191 O 0.25183 0.71467 -0.27171
 O192 O 0.29322 0.76241 -0.26548
 Zr193 Zr 0.23997 0.74660 -0.18742
 Zr194 Zr 0.20180 0.70644 -0.24710
 Zr195 Zr 0.28371 0.80185 -0.23409
 Zr196 Zr 0.18736 0.79234 -0.23890
 O197 O 0.34361 0.80453 -0.23042
 O198 O 0.12935 0.77754 -0.24027
 O199 O 0.23362 0.79475 -0.20875
 O200 O 0.19185 0.74581 -0.21576
 O201 O 0.24801 0.70534 -0.21726
 O202 O 0.29093 0.75578 -0.21075
 C203 C 0.17518 0.80923 -0.30799
 C204 C 0.30239 0.82236 -0.30171
 C205 C 0.19306 0.70295 -0.31779
 O206 O 0.14179 0.70356 -0.24776
 O207 O 0.18436 0.67787 -0.20910
 O208 O 0.20700 0.70657 -0.16781
 C209 C 0.18786 0.68180 -0.18010
 O210 O 0.32889 0.70460 -0.28151
 Zr211 Zr 0.29767 0.71591 -0.24133
 O212 O 0.27650 0.71463 -0.16309
 O213 O 0.21431 0.65407 -0.25433
 O214 O 0.29565 0.66212 -0.24784
 O215 O 0.35566 0.72930 -0.23554
 O216 O 0.31536 0.69297 -0.19989
 C217 C 0.30382 0.69540 -0.17205
 O218 O 0.20428 0.76511 -0.15233
 O219 O 0.27145 0.85467 -0.23026
 O220 O 0.26924 0.78041 -0.15763
 O221 O 0.29821 0.81819 -0.19006
 O222 O 0.18630 0.84661 -0.23672
 O223 O 0.16244 0.80781 -0.19703
 C224 C 0.29085 0.80645 -0.16330
 H225 H 0.23510 0.82548 -0.27342
 H226 H 0.16838 0.74173 -0.20386
 H227 H 0.31329 0.75692 -0.19712
 H228 H 0.25626 0.69629 -0.28681
 H229 H 0.11413 0.79850 -0.24370
 H230 H 0.13512 0.67919 -0.25119
 H231 H 0.18973 0.64167 -0.25544
 H232 H 0.32056 0.65277 -0.24149
 H233 H 0.16008 0.85396 -0.24163
 H234 H 0.29622 0.86674 -0.22925
 H235 H 0.35036 0.82893 -0.22713
 H236 H 0.36969 0.70795 -0.23096
 H237 H 0.13955 0.82172 -0.20115
 H238 H 0.21348 0.75505 -0.13294
 H239 H 0.26889 0.75361 -0.34848
 H240 H 0.34835 0.68710 -0.27689
 Zr241 Zr 1.25894 1.25411 0.80250
 O242 O 1.22981 1.22998 0.83898
 O243 O 1.30018 1.28291 0.82601
 O244 O 1.29273 1.21856 0.82589
 O245 O 1.19530 1.32044 0.79426
 O246 O 1.31663 1.18435 0.78847
 O247 O 1.22743 1.28850 0.82922
 O248 O 1.33638 1.30511 0.78767
 O249 O 1.30639 1.24738 0.77441
 O250 O 1.26320 1.29847 0.77612
 O251 O 1.24764 1.20940 0.77732
 O252 O 1.20637 1.25841 0.77977
 Zr253 Zr 1.24700 1.25177 0.69640
 Zr254 Zr 1.29381 1.20444 0.74760
 Zr255 Zr 1.21274 1.30147 0.75167
 Zr256 Zr 1.30881 1.29087 0.74689
 O257 O 1.15277 1.30484 0.75267
 O258 O 1.36612 1.27487 0.74320
 O259 O 1.25862 1.29683 0.72147
 O260 O 1.29922 1.24773 0.71968
 O261 O 1.24300 1.20714 0.72278
 O262 O 1.20028 1.25859 0.72511
 C263 C 1.32846 1.30066 0.81605
 C264 C 1.20383 1.31215 0.82181
 C265 C 1.31263 1.19304 0.81666
 O266 O 1.35348 1.20128 0.74276
 O267 O 1.30722 1.18258 0.70504
 O268 O 1.27438 1.21395 0.66996
 C269 C 1.29730 1.18969 0.67748
 O270 O 1.17317 1.19980 0.79455
 Zr271 Zr 1.19746 1.21508 0.75232
 O272 O 1.20545 1.22298 0.67320
 O273 O 1.28082 1.15157 0.74997
 O274 O 1.19829 1.16078 0.75335
 O275 O 1.13931 1.22901 0.75370
 O276 O 1.17237 1.19746 0.71172
 C277 C 1.17919 1.20297 0.68334
 O278 O 1.27797 1.27359 0.65983
 O279 O 1.22546 1.35449 0.75308
 O280 O 1.21546 1.28990 0.67305
 O281 O 1.19615 1.32550 0.71119
 O282 O 1.31001 1.34517 0.74812
 O283 O 1.33020 1.31062 0.70511
 C284 C 1.19903 1.31728 0.68294
 H285 H 1.26672 1.31949 0.78841
 H286 H 1.32063 1.24539 0.70522
 H287 H 1.17626 1.26192 0.71377
 H288 H 1.24514 1.18921 0.79083
 H289 H 1.38243 1.29491 0.74794
 H290 H 1.36005 1.17663 0.74347
 H291 H 1.30522 1.13921 0.74792
 H292 H 1.17202 1.15263 0.74960
 H293 H 1.33660 1.35230 0.75206
 H294 H 1.20097 1.36672 0.75512
 H295 H 1.14644 1.32955 0.75245
 H296 H 1.12415 1.20804 0.74973
 H297 H 1.35420 1.32320 0.70895
 H298 H 1.26527 1.26634 0.64070
 H299 H 1.24176 1.23777 0.85827
 H300 H 1.15278 1.18278 0.79082
 Zr301 Zr 0.75069 0.74282 0.80490
 O302 O 0.78067 0.76309 0.84266
 O303 O 0.70924 0.71240 0.82608
 O304 O 0.71561 0.77534 0.83133
 O305 O 0.81272 0.67674 0.78995
 O306 O 0.68961 0.81081 0.79574
 O307 O 0.78149 0.70448 0.82817
 O308 O 0.67266 0.69388 0.78644
 O309 O 0.70310 0.75210 0.77757
 O310 O 0.74585 0.70151 0.77477
 O311 O 0.76169 0.78992 0.78331
 O312 O 0.80284 0.74092 0.78113
 Zr313 Zr 0.76060 0.75612 0.69864
 Zr314 Zr 0.71536 0.79748 0.75438
 Zr315 Zr 0.79583 0.70112 0.74956
 Zr316 Zr 0.69989 0.71178 0.74666
 O317 O 0.85581 0.69806 0.75027
 O318 O 0.64255 0.72812 0.74475
 O319 O 0.74953 0.70867 0.72025
 O320 O 0.70899 0.75752 0.72298
 O321 O 0.76541 0.79772 0.72862
 O322 O 0.80780 0.74648 0.72631
 C323 C 0.68074 0.69589 0.81501
 C324 C 0.80395 0.68103 0.81814
 C325 C 0.69307 0.79963 0.82313
 O326 O 0.65592 0.80188 0.74813
 O327 O 0.70328 0.82561 0.71522
 O328 O 0.72988 0.79560 0.67616
 C329 C 0.70952 0.82037 0.68682
 O330 O 0.83674 0.79803 0.79983
 Zr331 Zr 0.81131 0.78690 0.75704
 O332 O 0.80164 0.78753 0.67764
 O333 O 0.72824 0.84946 0.76349
 O334 O 0.81018 0.84085 0.76250
 O335 O 0.86943 0.77280 0.75648
 O336 O 0.83560 0.80882 0.71766
 C337 C 0.82822 0.80632 0.68901
 O338 O 0.73025 0.73824 0.66012
 O339 O 0.78325 0.64817 0.74618
 O340 O 0.79172 0.72017 0.67204
 O341 O 0.81203 0.68134 0.70729
 O342 O 0.69888 0.65756 0.74377
 O343 O 0.67786 0.69623 0.70374
 C344 C 0.80840 0.69199 0.67976
 H345 H 0.74224 0.67924 0.78519
 H346 H 0.68719 0.76144 0.70919
 H347 H 0.83162 0.74431 0.71448
 H348 H 0.76397 0.80859 0.79846
 H349 H 0.62625 0.70767 0.74790
 H350 H 0.64923 0.82622 0.75157
 H351 H 0.70393 0.86213 0.76258
 H352 H 0.83628 0.84956 0.75894
 H353 H 0.67240 0.65000 0.74757
 H354 H 0.80775 0.63576 0.74688
 H355 H 0.86231 0.67355 0.74781
 H356 H 0.88459 0.79403 0.75380
 H357 H 0.65409 0.68305 0.70687
 H358 H 0.74273 0.74813 0.64183
 H359 H 0.76879 0.75345 0.86130
 H360 H 0.85705 0.81537 0.79705
 Zr361 Zr 1.24478 0.75106 0.18755
 O362 O 1.21089 0.77430 0.15349
 O363 O 1.28101 0.72064 0.16129
 O364 O 1.27666 0.78417 0.15952
 O365 O 1.18232 0.68503 0.20410
 O366 O 1.30775 0.81817 0.19369
 O367 O 1.20945 0.71577 0.16550
 O368 O 1.32180 0.69870 0.19656
 O369 O 1.29609 0.75794 0.21080
 O370 O 1.25164 0.70780 0.21515
 O371 O 1.23851 0.79720 0.21146
 O372 O 1.19572 0.74840 0.21502
 Zr373 Zr 1.24825 0.75901 0.29353
 Zr374 Zr 1.28854 0.80232 0.23677
 Zr375 Zr 1.20502 0.70664 0.24428
 Zr376 Zr 1.30139 0.71573 0.23944
 O377 O 1.14516 0.70411 0.24806
 O378 O 1.35917 0.73093 0.23663
 O379 O 1.25512 0.71226 0.26975
 O380 O 1.29689 0.76039 0.26562
 O381 O 1.24145 0.80228 0.26597
 O382 O 1.19768 0.75133 0.26946
 C383 C 1.30974 0.70238 0.16897
 C384 C 1.18741 0.69212 0.17569
 C385 C 1.30001 0.80836 0.16639
 O386 O 1.34861 0.80494 0.23717
 O387 O 1.30804 0.82663 0.27642
 O388 O 1.28047 0.79749 0.31567
 C389 C 1.30259 0.82098 0.30496
 O390 O 1.16307 0.80748 0.20025
 Zr391 Zr 1.19199 0.79344 0.24086
 O392 O 1.20978 0.78874 0.31905
 O393 O 1.27681 0.85517 0.23219
 O394 O 1.19434 0.84766 0.23858
 O395 O 1.13349 0.78080 0.24420
 O396 O 1.17174 0.81211 0.28258
 C397 C 1.18165 0.80741 0.31043
 O398 O 1.28366 0.73862 0.32803
 O399 O 1.21668 0.65350 0.24497
 O400 O 1.21947 0.72348 0.32140
 O401 O 1.19276 0.68602 0.28767
 O402 O 1.30094 0.66143 0.24064
 O403 O 1.32882 0.69772 0.27946
 C404 C 1.20018 0.69634 0.31494
 H405 H 1.25296 0.68611 0.20354
 H406 H 1.32026 0.76308 0.27794
 H407 H 1.17517 0.74889 0.28281
 H408 H 1.23497 0.81674 0.19738
 H409 H 1.37406 0.71046 0.23082
 H410 H 1.35571 0.82930 0.23419
 H411 H 1.30168 0.86710 0.23149
 H412 H 1.16889 0.85641 0.24419
 H413 H 1.32640 0.65355 0.23410
 H414 H 1.19184 0.64152 0.24570
 H415 H 1.13846 0.67956 0.25018
 H416 H 1.11942 0.80232 0.24802
 H417 H 1.35176 0.68461 0.27372
 H418 H 1.27410 0.74724 0.34787
 H419 H 1.21960 0.76551 0.13346
 H420 H 1.14466 0.82589 0.20479
 Zr421 Zr 0.73564 1.25124 0.20631
 O422 O 0.76308 1.22284 0.17160
 O423 O 0.69890 1.28289 0.18127
 O424 O 0.69750 1.21991 0.18208
 O425 O 0.81058 1.30754 0.21444
 O426 O 0.66466 1.19223 0.21949
 O427 O 0.77204 1.28135 0.17976
 O428 O 0.66560 1.31065 0.21829
 O429 O 0.68654 1.25251 0.23297
 O430 O 0.73849 1.29655 0.23157
 O431 O 0.73749 1.20624 0.23247
 O432 O 0.78730 1.24866 0.23065
 Zr433 Zr 0.74132 1.25024 0.31247
 Zr434 Zr 0.68958 1.20908 0.26042
 Zr435 Zr 0.78793 1.29309 0.25752
 Zr436 Zr 0.69096 1.29653 0.25966
 O437 O 0.84769 1.28780 0.25862
 O438 O 0.63128 1.29069 0.26401
 O439 O 0.74032 1.29580 0.28637
 O440 O 0.69049 1.25321 0.28751
 O441 O 0.73867 1.20488 0.28717
 O442 O 0.79032 1.24969 0.28540
 C443 C 0.67253 1.30325 0.19032
 C444 C 0.80017 1.30080 0.18680
 C445 C 0.67179 1.19890 0.19134
 O446 O 0.62992 1.21491 0.26318
 O447 O 0.66954 1.19055 0.30200
 O448 O 0.70525 1.21751 0.33824
 C449 C 0.67857 1.19684 0.32975
 O450 O 0.81005 1.18519 0.21852
 Zr451 Zr 0.78668 1.20546 0.25932
 O452 O 0.77570 1.21718 0.33801
 O453 O 0.69260 1.15500 0.25904
 O454 O 0.77585 1.15200 0.25955
 O455 O 0.84664 1.21090 0.25973
 O456 O 0.80615 1.18619 0.30146
 C457 C 0.79889 1.19373 0.32944
 O458 O 0.71289 1.27717 0.34753
 O459 O 0.78536 1.34713 0.25459
 O460 O 0.77780 1.28391 0.33623
 O461 O 0.80673 1.31522 0.29878
 O462 O 0.69957 1.35008 0.25513
 O463 O 0.67436 1.32109 0.30073
 C464 C 0.80011 1.30808 0.32702
 H465 H 0.73889 1.31725 0.21854
 H466 H 0.66819 1.25445 0.30121
 H467 H 0.81397 1.24986 0.29759
 H468 H 0.73683 1.18558 0.21941
 H469 H 0.61954 1.31304 0.25901
 H470 H 0.61865 1.19161 0.26254
 H471 H 0.66613 1.14637 0.26011
 H472 H 0.79997 1.14038 0.26478
 H473 H 0.67452 1.36045 0.25067
 H474 H 0.81192 1.35546 0.25328
 H475 H 0.85841 1.31129 0.25833
 H476 H 0.85752 1.18827 0.26494
 H477 H 0.65425 1.33805 0.29633
 H478 H 0.72283 1.26847 0.36722
 H479 H 0.75324 1.23098 0.15168
 H480 H 0.82682 1.16567 0.22349
 N481 N 0.57405 1.04057 0.03103
 N482 N 0.60013 1.06403 0.03734
 N483 N 0.54479 0.97131 0.05623
 N484 N 0.54941 0.95040 0.07937
 N485 N 0.57314 0.96882 0.03702
 N486 N 0.59799 0.94590 0.04666
 N487 N 0.54567 1.04271 0.05027
 N488 N 0.55141 1.06753 0.06996
 C489 C 0.58520 1.08096 0.06154
 C490 C 0.58242 0.93445 0.07307
 N491 N 0.43774 0.96906 0.03225
 N492 N 0.41356 0.94410 0.03894
 N493 N 0.46482 1.04296 0.04789
 N494 N 0.45410 1.06204 0.07096
 N495 N 0.43765 1.04081 0.02737
 N496 N 0.40747 1.05826 0.03679
 N497 N 0.46401 0.97150 0.05334
 N498 N 0.45872 0.94848 0.07473
 Mn499 Mn 0.50484 1.00712 0.05194
 C500 C 0.42736 0.93143 0.06556
 C501 C 0.41875 1.07202 0.06377
 N502 N 0.57711 0.96158 -0.02817
 N503 N 0.60368 0.93809 -0.03195
 N504 N 0.55200 1.03073 -0.05592
 N505 N 0.55886 1.05313 -0.07768
 N506 N 0.57757 1.03326 -0.03429
 N507 N 0.60261 1.05747 -0.04078
 N508 N 0.55119 0.95904 -0.04955
 N509 N 0.55936 0.93379 -0.06834
 Mn510 Mn 0.57597 1.00109 0.00139
 C511 C 0.59193 0.92061 -0.05694
 C512 C 0.59037 1.06976 -0.06792
 N513 N 0.44231 1.03412 -0.03957
 N514 N 0.41683 1.05594 -0.05029
 N515 N 0.46937 0.95954 -0.05254
 N516 N 0.46309 0.93461 -0.07209
 N517 N 0.44087 0.96232 -0.03339
 N518 N 0.41434 0.93922 -0.03963
 N519 N 0.47051 1.03088 -0.05904
 N520 N 0.46504 1.05023 -0.08315
 Mn521 Mn 0.43910 1.00170 -0.00342
 Mn522 Mn 0.51078 0.99498 -0.05446
 Cl523 Cl 0.50756 1.00135 -0.00120
 C524 C 0.43181 1.06605 -0.07742
 C525 C 0.42893 0.92179 -0.06366
 N526 N 1.03815 0.46158 0.44585
 N527 N 1.06279 0.45043 0.42546
 N528 N 0.95466 0.45103 0.46663
 N529 N 0.92898 0.42832 0.45770
 N530 N 0.95949 0.47459 0.44555
 N531 N 0.93711 0.46850 0.42205
 N532 N 1.03303 0.43849 0.46722
 N533 N 1.05382 0.41107 0.46192
 C534 C 1.07258 0.41895 0.43594
 C535 C 0.91767 0.43996 0.43007
 N536 N 0.95989 0.47606 0.55361
 N537 N 0.93761 0.47035 0.57725
 N538 N 1.03331 0.43961 0.53259
 N539 N 1.05484 0.41273 0.53824
 N540 N 1.03846 0.46339 0.55334
 N541 N 1.06369 0.45326 0.57367
 N542 N 0.95492 0.45218 0.53285
 N543 N 0.92924 0.42970 0.54208
 Mn544 Mn 0.99386 0.44517 0.49985
 C545 C 0.91811 0.44174 0.56956
 C546 C 1.07391 0.42167 0.56383
 N547 N 0.97426 0.54762 0.44526
 N548 N 0.94846 0.55774 0.42537
 N549 N 1.05793 0.55875 0.46527
 N550 N 1.08396 0.58081 0.45567
 N551 N 1.05288 0.53444 0.44491
 N552 N 1.07556 0.53920 0.42140
 N553 N 0.97968 0.57134 0.46602
 N554 N 0.95796 0.59816 0.46083
 Mn555 Mn 1.00618 0.50459 0.44519
 C556 C 0.93840 0.58928 0.43553
 C557 C 1.09531 0.56781 0.42852
 N558 N 1.05317 0.53628 0.55276
 N559 N 1.07555 0.54229 0.57625
 N560 N 0.97974 0.57245 0.53139
 N561 N 0.95835 0.59957 0.53661
 N562 N 0.97440 0.54909 0.55249
 N563 N 0.94904 0.55967 0.57255
 N564 N 1.05807 0.55989 0.53173
 N565 N 1.08353 0.58272 0.54080
 Mn566 Mn 1.00647 0.50622 0.55324
 Mn567 Mn 1.01902 0.56580 0.49858
 Cl568 Cl 1.00638 0.50544 0.49921
 C569 C 1.09486 0.57094 0.56836
 C570 C 0.93905 0.59116 0.56225
 N571 N 1.03705 0.42629 0.02690
 N572 N 1.06295 0.40214 0.03080
 N573 N 0.95940 0.44847 0.05322
 N574 N 0.94133 0.43771 0.07758
 N575 N 0.95732 0.42568 0.03119
 N576 N 0.93785 0.39846 0.04070
 N577 N 1.03885 0.44869 0.04915
 N578 N 1.06591 0.44064 0.06851
 C579 C 1.08111 0.41179 0.05675
 C580 C 0.92742 0.40693 0.06958
 N581 N 0.95760 0.54736 0.04086
 N582 N 0.93298 0.57009 0.05100
 N583 N 1.03896 0.52157 0.05572
 N584 N 1.06353 0.52699 0.07783
 N585 N 1.03720 0.54820 0.03755
 N586 N 1.06065 0.57245 0.04688
 N587 N 0.95955 0.52116 0.05951
 N588 N 0.93641 0.52531 0.08280
 Mn589 Mn 0.99925 0.48495 0.05442
 C590 C 0.91962 0.55570 0.07701
 C591 C 1.07735 0.55856 0.07176
 N592 N 0.95264 0.43356 -0.03596
 N593 N 0.93014 0.40922 -0.04711
 N594 N 1.03140 0.46102 -0.05673
 N595 N 1.05637 0.45803 -0.07885
 N596 N 1.03245 0.43424 -0.03862
 N597 N 1.05843 0.41229 -0.04804
 N598 N 0.95197 0.46059 -0.05392
 N599 N 0.92897 0.45544 -0.07709
 Mn600 Mn 0.99468 0.42946 -0.00420
 C601 C 0.91498 0.42365 -0.07256
 C602 C 1.07331 0.42773 -0.07306
 N603 N 1.03326 0.55597 -0.02738
 N604 N 1.05823 0.58065 -0.03260
 N605 N 0.95218 0.53375 -0.04720
 N606 N 0.92728 0.54373 -0.06772
 N607 N 0.95343 0.55546 -0.02441
 N608 N 0.92943 0.58094 -0.02900
 N609 N 1.03199 0.53452 -0.05035
 N610 N 1.05587 0.54419 -0.07192
 Mn611 Mn 0.99529 0.55205 0.00670
 Mn612 Mn 0.99192 0.49744 -0.05219
 Cl613 Cl 0.99510 0.49087 0.00114
 C614 C 1.07247 0.57277 -0.06040
 C615 C 0.91281 0.57290 -0.05594
 N616 N 0.56880 1.02313 0.53416
 N617 N 0.59484 1.04728 0.53681
 N618 N 0.53589 0.95456 0.55748
 N619 N 0.54380 0.93317 0.57999
 N620 N 0.56111 0.95148 0.53567
 N621 N 0.58604 0.92751 0.54219
 N622 N 0.54244 1.02651 0.55499
 N623 N 0.54969 1.05332 0.57239
 C624 C 0.58254 1.06598 0.56071
 C625 C 0.57461 0.91588 0.56961
 N626 N 0.42687 0.96264 0.53605
 N627 N 0.39789 0.94269 0.54373
 N628 N 0.46126 1.03266 0.55500
 N629 N 0.45564 1.05478 0.57706
 N630 N 0.43399 1.03457 0.53457
 N631 N 0.40876 1.05800 0.54285
 N632 N 0.45350 0.96131 0.55706
 N633 N 0.44312 0.94088 0.57953
 Mn634 Mn 0.49824 0.99370 0.55637
 C635 C 0.40864 0.92900 0.57081
 C636 C 0.42322 1.07083 0.56926
 N637 N 0.56177 0.94971 0.47134
 N638 N 0.58722 0.92590 0.46575
 N639 N 0.54325 1.02320 0.44824
 N640 N 0.55142 1.04826 0.42909
 N641 N 0.56932 1.02111 0.46946
 N642 N 0.59606 1.04437 0.46533
 N643 N 0.53632 0.95108 0.44958
 N644 N 0.54421 0.92822 0.42830
 Mn645 Mn 0.56538 0.98634 0.50268
 C646 C 0.57573 0.91226 0.43907
 C647 C 0.58449 1.06123 0.44013
 N648 N 0.43414 1.03257 0.46710
 N649 N 0.40829 1.05450 0.45684
 N650 N 0.45423 0.95803 0.44901
 N651 N 0.44383 0.93682 0.42722
 N652 N 0.42720 0.96076 0.46958
 N653 N 0.39781 0.94124 0.46217
 N654 N 0.46170 1.02943 0.44702
 N655 N 0.45548 1.04913 0.42321
 Mn656 Mn 0.43006 0.99775 0.50184
 Mn657 Mn 0.49887 0.99038 0.44825
 Cl658 Cl 0.49785 0.99204 0.50226
 C659 C 0.42248 1.06512 0.42953
 C660 C 0.40888 0.92610 0.43584
 N661 N 1.07577 1.03574 0.53222
 N662 N 1.10131 1.05999 0.53721
 N663 N 1.04675 0.96444 0.55428
 N664 N 1.05256 0.94084 0.57519
 N665 N 1.07368 0.96369 0.53365
 N666 N 1.09850 0.93936 0.53989
 N667 N 1.04926 1.03639 0.55320
 N668 N 1.05583 1.06114 0.57290
 C669 C 1.08825 1.07583 0.56261
 C670 C 1.08472 0.92512 0.56580
 N671 N 0.93777 0.96758 0.53386
 N672 N 0.91123 0.94465 0.54024
 N673 N 0.96826 1.03858 0.55327
 N674 N 0.96307 1.06200 0.57432
 N675 N 0.94115 1.03971 0.53274
 N676 N 0.91638 1.06399 0.53976
 N677 N 0.96483 0.96684 0.55443
 N678 N 0.95737 0.94358 0.57539
 Mn679 Mn 1.00726 1.00144 0.55402
 C680 C 0.92402 0.92969 0.56615
 C681 C 0.93093 1.07798 0.56566
 N682 N 1.07373 0.96195 0.46849
 N683 N 1.09950 0.93833 0.46283
 N684 N 1.04912 1.03326 0.44551
 N685 N 1.05509 1.05756 0.42519
 N686 N 1.07559 1.03385 0.46654
 N687 N 1.10045 1.05850 0.46100
 N688 N 1.04678 0.96125 0.44785
 N689 N 1.05353 0.93716 0.42757
 Mn690 Mn 1.07513 0.99889 0.50022
 C691 C 1.08627 0.92277 0.43741
 C692 C 1.08713 1.07322 0.43516
 N693 N 0.94106 1.03760 0.46604
 N694 N 0.91592 1.06107 0.45793
 N695 N 0.96465 0.96344 0.44765
 N696 N 0.95681 0.93924 0.42762
 N697 N 0.93754 0.96557 0.46813
 N698 N 0.91058 0.94274 0.46252
 N699 N 0.96793 1.03522 0.44538
 N700 N 0.96212 1.05702 0.42306
 Mn701 Mn 0.93884 1.00278 0.50019
 Mn702 Mn 1.00712 0.99815 0.44635
 Cl703 Cl 1.00699 1.00033 0.50018
 C704 C 0.92990 1.07328 0.43116
 C705 C 0.92317 0.92624 0.43728
 N706 N 0.57602 0.53166 0.03216
 N707 N 0.60218 0.55538 0.03700
 N708 N 0.54475 0.46087 0.05350
 N709 N 0.54946 0.43622 0.07362
 N710 N 0.57159 0.45991 0.03281
 N711 N 0.59525 0.43451 0.03817
 N712 N 0.54969 0.53277 0.05326
 N713 N 0.55701 0.55741 0.07293
 C714 C 0.58973 0.57143 0.06245
 C715 C 0.58088 0.41978 0.06360
 N716 N 0.43595 0.46715 0.03325
 N717 N 0.40928 0.44408 0.03881
 N718 N 0.46880 0.53699 0.05343
 N719 N 0.46490 0.56069 0.07441
 N720 N 0.44174 0.53915 0.03292
 N721 N 0.41824 0.56444 0.03990
 N722 N 0.46301 0.46536 0.05378
 N723 N 0.45544 0.44117 0.07386
 Mn724 Mn 0.50654 0.49888 0.05378
 C725 C 0.42196 0.42792 0.06417
 C726 C 0.43357 0.57790 0.06575
 N727 N 0.57152 0.45885 -0.03203
 N728 N 0.59584 0.43392 -0.03732
 N729 N 0.54923 0.53090 -0.05430
 N730 N 0.55581 0.55524 -0.07439
 N731 N 0.57571 0.53062 -0.03331
 N732 N 0.60126 0.55474 -0.03862
 N733 N 0.54459 0.45911 -0.05264
 N734 N 0.54986 0.43441 -0.07261
 Mn735 Mn 0.57415 0.49535 -0.00009
 C736 C 0.58170 0.41866 -0.06257
 C737 C 0.58825 0.57001 -0.06430
 N738 N 0.44152 0.53790 -0.03390
 N739 N 0.41720 0.56210 -0.04192
 N740 N 0.46300 0.46355 -0.05281
 N741 N 0.45558 0.43889 -0.07240
 N742 N 0.43583 0.46594 -0.03244
 N743 N 0.40913 0.44275 -0.03769
 N744 N 0.46845 0.53513 -0.05445
 N745 N 0.46361 0.55741 -0.07654
 Mn746 Mn 0.43815 0.50274 -0.00003
 Mn747 Mn 0.50630 0.49705 -0.05380
 Cl748 Cl 0.50616 0.49856 -0.00003
 C749 C 0.43187 0.57436 -0.06844
 C750 C 0.42205 0.42591 -0.06266
 C751 C 0.31024 1.17799 0.12234
 C752 C 0.31666 1.16849 0.15292
 C753 C 0.33905 1.13957 0.15890
 C754 C 0.35590 1.12128 0.13490
 C755 C 0.34993 1.13147 0.10430
 C756 C 0.32656 1.15963 0.09833
 C757 C 0.36854 1.11410 0.08040
 C758 C 0.39382 1.08743 0.08708
 C759 C 0.39862 1.07705 0.11752
 C760 C 0.37966 1.09355 0.14114
 H761 H 0.34433 1.13182 0.18223
 H762 H 0.32150 1.16791 0.07513
 H763 H 0.36498 1.12242 0.05702
 H764 H 0.38450 1.08525 0.16438
 H765 H 0.29289 1.19998 0.11685
 H766 H 0.41780 1.05635 0.12317
 C767 C 0.82475 0.63369 0.66178
 C768 C 0.82500 0.66921 0.65629
 C769 C 0.84468 0.68194 0.63075
 C770 C 0.86590 0.65944 0.61218
 C771 C 0.86664 0.62401 0.61902
 C772 C 0.84517 0.61135 0.64335
 C773 C 0.88978 0.60182 0.60211
 C774 C 0.91245 0.61437 0.57828
 C775 C 0.91057 0.64938 0.57080
 C776 C 0.88757 0.67173 0.58763
 H777 H 0.84525 0.70927 0.62639
 H778 H 0.84513 0.58426 0.64874
 H779 H 0.89072 0.57485 0.60794
 H780 H 0.88739 0.69871 0.58185
 H781 H 0.80948 0.62319 0.68110
 H782 H 0.92767 0.65967 0.55242
 C783 C 0.70154 0.83254 0.12362
 C784 C 0.68627 0.83052 0.15314
 C785 C 0.65295 0.84838 0.16006
 C786 C 0.63516 0.86846 0.13805
 C787 C 0.65109 0.87139 0.10858
 C788 C 0.68422 0.85311 0.10152
 C789 C 0.63368 0.89270 0.08693
 C790 C 0.60042 0.91056 0.09453
 C791 C 0.58442 0.90651 0.12364
 C792 C 0.60172 0.88580 0.14525
 H793 H 0.64059 0.84642 0.18264
 H794 H 0.69675 0.85482 0.07903
 H795 H 0.64601 0.89554 0.06444
 H796 H 0.58908 0.88357 0.16768
 H797 H 0.72720 0.81877 0.11786
 H798 H 0.55875 0.91992 0.13003
 C799 C 1.17729 0.37598 0.66968
 C800 C 1.18154 0.34147 0.66108
 C801 C 1.16650 0.33046 0.63304
 C802 C 1.14566 0.35334 0.61470
 C803 C 1.14066 0.38765 0.62426
 C804 C 1.15726 0.39883 0.65144
 C805 C 1.11821 0.41005 0.60702
 C806 C 1.10014 0.39868 0.58039
 C807 C 1.10603 0.36484 0.57051
 C808 C 1.12864 0.34238 0.58749
 H809 H 1.16946 0.30392 0.62622
 H810 H 1.15393 0.42507 0.65900
 H811 H 1.11404 0.43612 0.61482
 H812 H 1.13214 0.31626 0.57967
 H813 H 1.18898 0.38527 0.69097
 H814 H 1.09252 0.35550 0.54996
 C815 C 0.62149 1.15701 -0.18185
 C816 C 0.65606 1.17177 -0.17248
 C817 C 0.66955 1.16541 -0.14285
 C818 C 0.64938 1.14329 -0.12333
 C819 C 0.61503 1.12820 -0.13342
 C820 C 0.60108 1.13562 -0.16247
 C821 C 0.59553 1.10518 -0.11468
 C822 C 0.61004 1.09627 -0.08603
 C823 C 0.64379 1.11172 -0.07575
 C824 C 0.66326 1.13520 -0.09423
 H825 H 0.69620 1.17663 -0.13545
 H826 H 0.57472 1.12436 -0.17045
 H827 H 0.56946 1.09349 -0.12284
 H828 H 0.68949 1.14649 -0.08603
 H829 H 0.61020 1.16187 -0.20439
 H830 H 0.65542 1.10527 -0.05365
 C831 C 1.17989 0.69063 0.36957
 C832 C 1.18476 0.67588 0.34060
 C833 C 1.17384 0.64159 0.33606
 C834 C 1.15736 0.62259 0.35978
 C835 C 1.15140 0.63798 0.38854
 C836 C 1.16323 0.67190 0.39329
 C837 C 1.13274 0.61948 0.41169
 C838 C 1.11978 0.58591 0.40626
 C839 C 1.12735 0.57051 0.37797
 C840 C 1.14594 0.58865 0.35497
 H841 H 1.17782 0.62975 0.31396
 H842 H 1.15906 0.68413 0.41518
 H843 H 1.12710 0.63163 0.43342
 H844 H 1.15056 0.57636 0.33315
 H845 H 1.18808 0.71699 0.37371
 H846 H 1.11788 0.54464 0.37323
 C847 C 0.29296 0.83471 -0.11165
 C848 C 0.31133 0.82335 -0.13814
 C849 C 0.35002 0.83061 -0.14224
 C850 C 0.36995 0.85047 -0.12110
 C851 C 0.35109 0.86359 -0.09520
 C852 C 0.31271 0.85490 -0.09034
 C853 C 0.37071 0.88596 -0.07540
 C854 C 0.40873 0.89518 -0.08150
 C855 C 0.42735 0.88044 -0.10657
 C856 C 0.40818 0.85837 -0.12617
 H857 H 0.36442 0.82147 -0.16251
 H858 H 0.29775 0.86444 -0.07054
 H859 H 0.35612 0.89702 -0.05604
 H860 H 0.42304 0.84820 -0.14578
 H861 H 0.26309 0.82926 -0.10816
 H862 H 0.45666 0.88674 -0.11164
 C863 C 0.82369 0.31707 0.38050
 C864 C 0.81963 0.32914 0.35047
 C865 C 0.83429 0.36164 0.34298
 C866 C 0.85300 0.38163 0.36498
 C867 C 0.85765 0.36896 0.39491
 C868 C 0.84268 0.33670 0.40246
 C869 C 0.87769 0.38854 0.41658
 C870 C 0.89314 0.42062 0.40862
 C871 C 0.88726 0.43329 0.37901
 C872 C 0.86747 0.41400 0.35741
 H873 H 0.83101 0.37150 0.32004
 H874 H 0.84584 0.32656 0.42529
 H875 H 0.88198 0.37848 0.43933
 H876 H 0.86395 0.42422 0.33463
 H877 H 0.81267 0.29217 0.38693
 H878 H 0.89875 0.45792 0.37226
 C879 C 1.18520 0.37742 0.16505
 C880 C 1.19300 0.34324 0.15731
 C881 C 1.18111 0.33066 0.12876
 C882 C 1.15943 0.35140 0.10913
 C883 C 1.15073 0.38533 0.11783
 C884 C 1.16460 0.39835 0.14540
 C885 C 1.12683 0.40527 0.09958
 C886 C 1.11050 0.39172 0.07295
 C887 C 1.12033 0.35846 0.06374
 C888 C 1.14476 0.33848 0.08164
 H889 H 1.18673 0.30425 0.12267
 H890 H 1.15831 0.42437 0.15230
 H891 H 1.11971 0.43099 0.10687
 H892 H 1.15116 0.31258 0.07449
 H893 H 1.19430 0.38776 0.18677
 H894 H 1.10820 0.34751 0.04326
 C895 C 0.67675 0.87562 0.67723
 C896 C 0.68947 0.84391 0.66590
 C897 C 0.67765 0.83328 0.63680
 C898 C 0.65167 0.85322 0.62010
 C899 C 0.63758 0.88406 0.63270
 C900 C 0.65101 0.89539 0.66090
 C901 C 0.61044 0.90327 0.61683
 C902 C 0.59822 0.89283 0.58797
 C903 C 0.61292 0.86274 0.57511
 C904 C 0.63897 0.84273 0.59128
 H905 H 0.68707 0.80886 0.62786
 H906 H 0.64100 0.91920 0.67064
 H907 H 0.60001 0.92709 0.62634
 H908 H 0.64955 0.81937 0.58108
 H909 H 0.68562 0.88461 0.69947
 H910 H 0.60432 0.85485 0.55248
 C911 C 1.15067 0.63030 -0.17535
 C912 C 1.16965 0.65865 -0.16204
 C913 C 1.16780 0.66234 -0.12997
 C914 C 1.14600 0.63940 -0.11219
 C915 C 1.12704 0.61168 -0.12632
 C916 C 1.13008 0.60712 -0.15774
 C917 C 1.10438 0.58936 -0.10901
 C918 C 1.09927 0.59478 -0.07768
 C919 C 1.11840 0.62220 -0.06360
 C920 C 1.14185 0.64413 -0.08064
 H921 H 1.18194 0.68366 -0.11886
 H922 H 1.11577 0.58594 -0.16891
 H923 H 1.08965 0.56843 -0.12020
 H924 H 1.15604 0.66521 -0.06927
 H925 H 1.15139 0.62575 -0.19969
 H926 H 1.11498 0.62686 -0.03944
 C927 C 0.61620 1.17504 0.34664
 C928 C 0.65519 1.17906 0.35259
 C929 C 0.67150 1.16222 0.37760
 C930 C 0.64940 1.13938 0.39503
 C931 C 0.61062 1.13420 0.38768
 C932 C 0.59405 1.15298 0.36411
 C933 C 0.58932 1.10933 0.40312
 C934 C 0.60616 1.08932 0.42584
 C935 C 0.64419 1.09553 0.43404
 C936 C 0.66568 1.12033 0.41872
 H937 H 0.70161 1.16509 0.38212
 H938 H 0.56433 1.14958 0.35838
 H939 H 0.55989 1.10496 0.39690
 H940 H 0.69524 1.12396 0.42483
 H941 H 0.60311 1.18810 0.32758
 H942 H 0.65766 1.08050 0.45171
 C943 C 0.81954 0.67244 0.12655
 C944 C 0.81786 0.66104 0.15694
 C945 C 0.83393 0.62930 0.16459
 C946 C 0.85263 0.60979 0.14243
 C947 C 0.85548 0.62219 0.11224
 C948 C 0.83829 0.65325 0.10443
 C949 C 0.87633 0.60380 0.09057
 C950 C 0.89431 0.57312 0.09871
 C951 C 0.88995 0.56024 0.12840
 C952 C 0.86936 0.57847 0.15013
 H953 H 0.83246 0.62003 0.18785
 H954 H 0.83998 0.66302 0.08136
 H955 H 0.87932 0.61376 0.06764
 H956 H 0.86723 0.56845 0.17309
 H957 H 0.80732 0.69677 0.11999
 H958 H 0.90348 0.53655 0.13515
 C959 C 0.29610 1.16256 0.62526
 C960 C 0.31491 1.16913 0.65292
 C961 C 0.35166 1.15624 0.65721
 C962 C 0.36938 1.13681 0.63453
 C963 C 0.35005 1.12926 0.60708
 C964 C 0.31336 1.14248 0.60264
 C965 C 0.36771 1.10839 0.58494
 C966 C 0.40448 1.09545 0.59013
 C967 C 0.42357 1.10447 0.61715
 C968 C 0.40621 1.12472 0.63911
 H969 H 0.36677 1.16168 0.67820
 H970 H 0.29802 1.13725 0.58175
 H971 H 0.35273 1.10176 0.56419
 H972 H 0.42152 1.13060 0.65989
 H973 H 0.26783 1.17245 0.62137
 H974 H 0.45196 1.09522 0.62177
 C975 C 0.81854 0.30836 -0.13375
 C976 C 0.81538 0.32389 -0.16260
 C977 C 0.83172 0.35637 -0.16709
 C978 C 0.85105 0.37301 -0.14328
 C979 C 0.85496 0.35687 -0.11458
 C980 C 0.83837 0.32454 -0.11007
 C981 C 0.87554 0.37329 -0.09109
 C982 C 0.89160 0.40590 -0.09596
 C983 C 0.88643 0.42188 -0.12442
 C984 C 0.86665 0.40558 -0.14782
 H985 H 0.82917 0.36884 -0.18906
 H986 H 0.84079 0.31172 -0.08827
 H987 H 0.87912 0.36075 -0.06926
 H988 H 0.86374 0.41845 -0.16957
 H989 H 0.80626 0.28330 -0.12964
 H990 H 0.89837 0.44696 -0.12895
 C991 C 0.35790 0.85887 0.31574
 C992 C 0.32495 0.84228 0.32644
 C993 C 0.31495 0.84549 0.35741
 C994 C 0.33771 0.86517 0.37726
 C995 C 0.37103 0.88107 0.36604
 C996 C 0.38076 0.87786 0.33533
 C997 C 0.39417 0.90020 0.38559
 C998 C 0.38433 0.90458 0.41630
 C999 C 0.35093 0.88923 0.42740
 C1000 C 0.32792 0.86940 0.40808
 H1001 H 0.28956 0.83296 0.36593
 H1002 H 0.40616 0.89002 0.32640
 H1003 H 0.41963 0.91225 0.37664
 H1004 H 0.30243 0.85760 0.41716
 H1005 H 0.36659 0.85668 0.29216
 H1006 H 0.34275 0.89240 0.45101
 C1007 C 1.11467 1.17280 0.32818
 C1008 C 1.15112 1.18398 0.33681
 C1009 C 1.16586 1.17372 0.36518
 C1010 C 1.14540 1.15093 0.38380
 C1011 C 1.10934 1.13899 0.37431
 C1012 C 1.09386 1.15072 0.34685
 C1013 C 1.08994 1.11454 0.39184
 C1014 C 1.10627 1.10136 0.41857
 C1015 C 1.14158 1.11410 0.42836
 C1016 C 1.16097 1.13876 0.41115
 H1017 H 1.19406 1.18191 0.37201
 H1018 H 1.06617 1.14194 0.33933
 H1019 H 1.06261 1.10504 0.38413
 H1020 H 1.18854 1.14765 0.41883
 H1021 H 1.10256 1.18047 0.30656
 H1022 H 1.15463 1.10443 0.44896
 C1023 C 0.62018 0.66540 -0.17288
 C1024 C 0.65637 0.67662 -0.16367
 C1025 C 0.67015 0.66721 -0.13479
 C1026 C 0.64889 0.64531 -0.11603
 C1027 C 0.61301 0.63342 -0.12597
 C1028 C 0.59856 0.64418 -0.15409
 C1029 C 0.59275 0.60994 -0.10819
 C1030 C 0.60815 0.59751 -0.08086
 C1031 C 0.64328 0.61014 -0.07063
 C1032 C 0.66347 0.63402 -0.08805
 H1033 H 0.69811 0.67555 -0.12749
 H1034 H 0.57102 0.63538 -0.16194
 H1035 H 0.56555 0.60046 -0.11621
 H1036 H 0.69089 0.64294 -0.08005
 H1037 H 0.60882 0.67255 -0.19490
 H1038 H 0.65554 0.60100 -0.04953
 C1039 C 0.80436 1.17391 0.61503
 C1040 C 0.82228 1.18161 0.64286
 C1041 C 0.85919 1.16960 0.64812
 C1042 C 0.87758 1.14921 0.62645
 C1043 C 0.85888 1.14024 0.59904
 C1044 C 0.82242 1.15323 0.59336
 C1045 C 0.87663 1.11780 0.57832
 C1046 C 0.91279 1.10446 0.58488
 C1047 C 0.93153 1.11496 0.61163
 C1048 C 0.91411 1.13698 0.63221
 H1049 H 0.87343 1.17571 0.66935
 H1050 H 0.80761 1.14689 0.57247
 H1051 H 0.86199 1.11005 0.55771
 H1052 H 0.92897 1.14388 0.65295
 H1053 H 0.77583 1.18287 0.61049
 H1054 H 0.95954 1.10543 0.61719
 C1055 C 0.30988 0.67451 0.11753
 C1056 C 0.32922 0.68312 0.14455
 C1057 C 0.36656 0.67162 0.14872
 C1058 C 0.38394 0.65086 0.12677
 C1059 C 0.36381 0.64113 0.10022
 C1060 C 0.32696 0.65360 0.09562
 C1061 C 0.38047 0.61833 0.07930
 C1062 C 0.41692 0.60518 0.08485
 C1063 C 0.43716 0.61638 0.11066
 C1064 C 0.42086 0.63893 0.13140
 H1065 H 0.38189 0.67836 0.16930
 H1066 H 0.31107 0.64663 0.07540
 H1067 H 0.36468 0.60997 0.05944
 H1068 H 0.43684 0.64638 0.15145
 H1069 H 0.28100 0.68300 0.11378
 H1070 H 0.46547 0.60698 0.11536
 C1071 C 1.11913 0.84171 0.68100
 C1072 C 1.15377 0.82669 0.67164
 C1073 C 1.16564 0.83163 0.64114
 C1074 C 1.14466 0.85276 0.62138
 C1075 C 1.11065 0.86794 0.63170
 C1076 C 1.09780 0.86169 0.66124
 C1077 C 1.09051 0.89019 0.61277
 C1078 C 1.10433 0.89858 0.58377
 C1079 C 1.13777 0.88300 0.57322
 C1080 C 1.15764 0.86002 0.59180
 H1081 H 1.19196 0.82048 0.63307
 H1082 H 1.07167 0.87307 0.66940
 H1083 H 1.06475 0.90205 0.62118
 H1084 H 1.18365 0.84868 0.58337
 H1085 H 1.10821 0.83837 0.70390
 H1086 H 1.14887 0.88903 0.55084
 C1087 C 0.61175 0.33071 0.17569
 C1088 C 0.64835 0.31987 0.16741
 C1089 C 0.66216 0.32702 0.13808
 C1090 C 0.64055 0.34693 0.11796
 C1091 C 0.60436 0.35880 0.12707
 C1092 C 0.58980 0.34977 0.15560
 C1093 C 0.58403 0.38092 0.10818
 C1094 C 0.59977 0.39226 0.08064
 C1095 C 0.63496 0.37930 0.07102
 C1096 C 0.65516 0.35660 0.08951
 H1097 H 0.69040 0.31876 0.13158
 H1098 H 0.56202 0.35849 0.16280
 H1099 H 0.55677 0.39063 0.11569
 H1100 H 0.68274 0.34766 0.08207
 H1101 H 0.60032 0.32497 0.19804
 H1102 H 0.64746 0.38758 0.04971
 C1103 C 0.88841 0.82792 0.33055
 C1104 C 0.85080 0.81955 0.33852
 C1105 C 0.83616 0.83153 0.36642
 C1106 C 0.85824 0.85307 0.38522
 C1107 C 0.89558 0.86200 0.37633
 C1108 C 0.91062 0.84872 0.34930
 C1109 C 0.91696 0.88494 0.39405
 C1110 C 0.90149 0.89965 0.42047
 C1111 C 0.86472 0.88997 0.42965
 C1112 C 0.84331 0.86682 0.41222
 H1113 H 0.80715 0.82546 0.37277
 H1114 H 0.93926 0.85516 0.34223
 H1115 H 0.94533 0.89206 0.38674
 H1116 H 0.81479 0.86028 0.41951
 H1117 H 0.90056 0.81884 0.30938
 H1118 H 0.85219 0.90085 0.44998
 C1119 C 0.39015 0.32777 -0.16960
 C1120 C 0.35278 0.31871 -0.16164
 C1121 C 0.33790 0.32985 -0.13358
 C1122 C 0.35941 0.35147 -0.11457
 C1123 C 0.39655 0.36114 -0.12336
 C1124 C 0.41195 0.34852 -0.15053
 C1125 C 0.41723 0.38433 -0.10550
 C1126 C 0.40116 0.39874 -0.07918
 C1127 C 0.36466 0.38832 -0.07005
 C1128 C 0.34399 0.36474 -0.08754
 H1129 H 0.30898 0.32327 -0.12734
 H1130 H 0.44044 0.35561 -0.15752
 H1131 H 0.44544 0.39204 -0.11274
 H1132 H 0.31559 0.35760 -0.08038
 H1133 H 0.40229 0.31933 -0.19098
 H1134 H 0.35177 0.39897 -0.04977
 C1135 C 1.17936 0.31586 -0.12473
 C1136 C 1.18469 0.33097 -0.15349
 C1137 C 1.16976 0.36361 -0.15917
 C1138 C 1.14841 0.38045 -0.13693
 C1139 C 1.14164 0.36448 -0.10850
 C1140 C 1.15785 0.33244 -0.10243
 C1141 C 1.11798 0.38044 -0.08707
 C1142 C 1.10119 0.41213 -0.09383
 C1143 C 1.10951 0.42835 -0.12164
 C1144 C 1.13283 0.41262 -0.14303
 H1145 H 1.17417 0.37570 -0.18115
 H1146 H 1.15322 0.31990 -0.08071
 H1147 H 1.11194 0.36788 -0.06558
 H1148 H 1.13801 0.42530 -0.16461
 H1149 H 1.19069 0.29070 -0.11984
 H1150 H 1.09710 0.45289 -0.12730
 C1151 C 0.63515 0.84087 0.32396
 C1152 C 0.66895 0.82738 0.33630
 C1153 C 0.67563 0.83053 0.36773
 C1154 C 0.64953 0.84834 0.38620
 C1155 C 0.61623 0.86235 0.37311
 C1156 C 0.60912 0.85800 0.34212
 C1157 C 0.59107 0.88151 0.39092
 C1158 C 0.59904 0.88777 0.42164
 C1159 C 0.63154 0.87300 0.43484
 C1160 C 0.65647 0.85329 0.41732
 H1161 H 0.70137 0.82013 0.37756
 H1162 H 0.58369 0.86837 0.33176
 H1163 H 0.56617 0.89284 0.38050
 H1164 H 0.68165 0.84275 0.42791
 H1165 H 0.62862 0.83825 0.29998
 H1166 H 0.63823 0.87740 0.45860
 C1167 C 0.83024 0.62348 -0.17062
 C1168 C 0.82035 0.65627 -0.16010
 C1169 C 0.82734 0.66495 -0.12948
 C1170 C 0.84580 0.64156 -0.11009
 C1171 C 0.85620 0.60898 -0.12134
 C1172 C 0.84770 0.60000 -0.15140
 C1173 C 0.87621 0.58621 -0.10279
 C1174 C 0.88720 0.59566 -0.07324
 C1175 C 0.87602 0.62768 -0.06177
 C1176 C 0.85523 0.65040 -0.08000
 H1177 H 0.81983 0.69017 -0.12117
 H1178 H 0.85538 0.57508 -0.16030
 H1179 H 0.88458 0.56156 -0.11192
 H1180 H 0.84749 0.67519 -0.07089
 H1181 H 0.82462 0.61596 -0.19394
 H1182 H 0.88412 0.63548 -0.03901
 C1183 C 0.29986 1.16167 0.37236
 C1184 C 0.31630 1.16413 0.34316
 C1185 C 0.35032 1.14644 0.33754
 C1186 C 0.36780 1.12698 0.36058
 C1187 C 0.35090 1.12431 0.38974
 C1188 C 0.31679 1.14180 0.39530
 C1189 C 0.36849 1.10429 0.41266
 C1190 C 0.40304 1.08737 0.40670
 C1191 C 0.41955 1.09094 0.37762
 C1192 C 0.40213 1.11027 0.35488
 H1193 H 0.36363 1.14828 0.31532
 H1194 H 0.30327 1.14025 0.41743
 H1195 H 0.35541 1.10193 0.43491
 H1196 H 0.41561 1.11214 0.33275
 H1197 H 0.27362 1.17491 0.37742
 H1198 H 0.44605 1.07836 0.37216
 C1199 C 1.15911 0.68520 0.12408
 C1200 C 1.16732 0.67134 0.15288
 C1201 C 1.15760 0.63722 0.15924
 C1202 C 1.13983 0.61707 0.13702
 C1203 C 1.13104 0.63142 0.10829
 C1204 C 1.14088 0.66546 0.10201
 C1205 C 1.11200 0.61168 0.08648
 C1206 C 1.10151 0.57781 0.09306
 C1207 C 1.11153 0.56335 0.12124
 C1208 C 1.13050 0.58286 0.14310
 H1209 H 1.16441 0.62622 0.18125
 H1210 H 1.13444 0.67683 0.08010
 H1211 H 1.10449 0.62297 0.06474
 H1212 H 1.13729 0.57138 0.16490
 H1213 H 1.16648 0.71148 0.11872
 H1214 H 1.10375 0.53721 0.12676
 C1215 C 0.61263 1.18383 0.65017
 C1216 C 0.65164 1.18752 0.64423
 C1217 C 0.66786 1.17048 0.61933
 C1218 C 0.64584 1.14732 0.60227
 C1219 C 0.60709 1.14221 0.60974
 C1220 C 0.59043 1.16159 0.63290
 C1221 C 0.58612 1.11650 0.59513
 C1222 C 0.60338 1.09551 0.57333
 C1223 C 0.64125 1.10186 0.56479
 C1224 C 0.66235 1.12758 0.57916
 H1225 H 0.69804 1.17302 0.61491
 H1226 H 0.56073 1.15822 0.63872
 H1227 H 0.55678 1.11203 0.60156
 H1228 H 0.69190 1.13120 0.57298
 H1229 H 0.59970 1.19697 0.66926
 H1230 H 0.65500 1.08612 0.54777
 C1231 C 0.80730 0.31352 0.13097
 C1232 C 0.82131 0.31649 0.16098
 C1233 C 0.85539 0.33443 0.16583
 C1234 C 0.87474 0.34968 0.14131
 C1235 C 0.86009 0.34700 0.11133
 C1236 C 0.82647 0.32857 0.10646
 C1237 C 0.87864 0.36377 0.08702
 C1238 C 0.91100 0.38381 0.09272
 C1239 C 0.92582 0.38536 0.12245
 C1240 C 0.90809 0.36830 0.14644
 H1241 H 0.86673 0.33682 0.18870
 H1242 H 0.81468 0.32618 0.08376
 H1243 H 0.86685 0.36280 0.06422
 H1244 H 0.91988 0.37051 0.16916
 H1245 H 0.78112 0.29983 0.12636
 H1246 H 0.95088 0.40059 0.12731
 C1247 C 0.35172 0.86458 0.69134
 C1248 C 0.32310 0.84286 0.67938
 C1249 C 0.31723 0.84311 0.64740
 C1250 C 0.33928 0.86437 0.62822
 C1251 C 0.36829 0.88499 0.64085
 C1252 C 0.37413 0.88496 0.67235
 C1253 C 0.39096 0.90556 0.62185
 C1254 C 0.38450 0.90673 0.59027
 C1255 C 0.35499 0.88684 0.57787
 C1256 C 0.33283 0.86556 0.59662
 H1257 H 0.29533 0.82716 0.63729
 H1258 H 0.39609 0.90086 0.68241
 H1259 H 0.41332 0.92113 0.63177
 H1260 H 0.31056 0.85015 0.58643
 H1261 H 0.35756 0.86561 0.71555
 H1262 H 0.34943 0.88739 0.55361
 C1263 C 0.31858 1.17285 -0.12931
 C1264 C 0.33142 1.17194 -0.15969
 C1265 C 0.36176 1.15032 -0.16727
 C1266 C 0.37901 1.12991 -0.14491
 C1267 C 0.36545 1.13052 -0.11455
 C1268 C 0.33526 1.15220 -0.10702
 C1269 C 0.38238 1.10949 -0.09233
 C1270 C 0.41317 1.08845 -0.10008
 C1271 C 0.42670 1.08858 -0.13025
 C1272 C 0.40967 1.10890 -0.15245
 H1273 H 0.37215 1.14954 -0.19051
 H1274 H 0.32451 1.15318 -0.08391
 H1275 H 0.37192 1.10974 -0.06911
 H1276 H 0.42055 1.10819 -0.17554
 H1277 H 0.29512 1.18916 -0.12282
 H1278 H 0.45036 1.07258 -0.13688
 C1279 C 0.82645 0.63280 0.33515
 C1280 C 0.82570 0.66807 0.34172
 C1281 C 0.84406 0.68027 0.36799
 C1282 C 0.86514 0.65755 0.38630
 C1283 C 0.86696 0.62239 0.37850
 C1284 C 0.84670 0.61019 0.35338
 C1285 C 0.89001 0.60008 0.39524
 C1286 C 0.91164 0.61231 0.41973
 C1287 C 0.90871 0.64697 0.42816
 C1288 C 0.88568 0.66942 0.41157
 H1289 H 0.84369 0.70742 0.37315
 H1290 H 0.84748 0.58331 0.34725
 H1291 H 0.89182 0.57336 0.38872
 H1292 H 0.88463 0.69617 0.41807
 H1293 H 0.81202 0.62275 0.31525
 H1294 H 0.92502 0.65696 0.44711
 C1295 C 0.61247 1.16902 0.17548
 C1296 C 0.64920 1.18053 0.16824
 C1297 C 0.66476 1.17275 0.13953
 C1298 C 0.64447 1.15220 0.11888
 C1299 C 0.60778 1.14037 0.12674
 C1300 C 0.59177 1.14942 0.15479
 C1301 C 0.58815 1.11858 0.10698
 C1302 C 0.60495 1.10732 0.07976
 C1303 C 0.64107 1.11966 0.07166
 C1304 C 0.66060 1.14219 0.09100
 H1305 H 0.69322 1.18133 0.13386
 H1306 H 0.56364 1.14054 0.16108
 H1307 H 0.56026 1.10928 0.11351
 H1308 H 0.68869 1.15101 0.08457
 H1309 H 0.59984 1.17497 0.19735
 H1310 H 0.65448 1.11136 0.05074
 C1311 C 1.17067 0.69837 0.62776
 C1312 C 1.17787 0.68309 0.65616
 C1313 C 1.17024 0.64799 0.66000
 C1314 C 1.15461 0.62855 0.63632
 C1315 C 1.14616 0.64422 0.60812
 C1316 C 1.15473 0.67911 0.60395
 C1317 C 1.12836 0.62490 0.58505
 C1318 C 1.11868 0.59031 0.59017
 C1319 C 1.12872 0.57488 0.61791
 C1320 C 1.14655 0.59377 0.64074
 H1321 H 1.17631 0.63569 0.68161
 H1322 H 1.14864 0.69160 0.58247
 H1323 H 1.12070 0.63708 0.56374
 H1324 H 1.15317 0.58136 0.66217
 H1325 H 1.17652 0.72533 0.62421
 H1326 H 1.12180 0.54829 0.62235
 C1327 C 0.63055 0.82327 -0.16254
 C1328 C 0.66813 0.81587 -0.15411
 C1329 C 0.68185 0.82717 -0.12574
 C1330 C 0.65879 0.84773 -0.10693
 C1331 C 0.62145 0.85588 -0.11632
 C1332 C 0.60731 0.84277 -0.14372
 C1333 C 0.59929 0.87828 -0.09893
 C1334 C 0.61402 0.89355 -0.07249
 C1335 C 0.65062 0.88449 -0.06261
 C1336 C 0.67278 0.86163 -0.07962
 H1337 H 0.71092 0.82175 -0.11925
 H1338 H 0.57871 0.84866 -0.15116
 H1339 H 0.57103 0.88490 -0.10674
 H1340 H 0.70125 0.85570 -0.07193
 H1341 H 0.61941 0.81457 -0.18422
 H1342 H 0.66253 0.89582 -0.04221
 C1343 C 1.18013 0.37116 0.33369
 C1344 C 1.18076 0.33602 0.34092
 C1345 C 1.16276 0.32469 0.36772
 C1346 C 1.14245 0.34812 0.38597
 C1347 C 1.14090 0.38310 0.37752
 C1348 C 1.16056 0.39442 0.35177
 C1349 C 1.11887 0.40618 0.39439
 C1350 C 1.09805 0.39496 0.41973
 C1351 C 1.10061 0.36042 0.42868
 C1352 C 1.12257 0.33719 0.41194
 H1353 H 1.16302 0.29769 0.37349
 H1354 H 1.15999 0.42115 0.34513
 H1355 H 1.11735 0.43278 0.38740
 H1356 H 1.12339 0.31060 0.41896
 H1357 H 1.19427 0.38069 0.31345
 H1358 H 1.08491 0.35115 0.44824
 C1359 C 0.30172 0.83381 0.11390
 C1360 C 0.31984 0.82639 0.14162
 C1361 C 0.35692 0.83811 0.14666
 C1362 C 0.37524 0.85851 0.12505
 C1363 C 0.35635 0.86759 0.09779
 C1364 C 0.31981 0.85447 0.09214
 C1365 C 0.37390 0.89046 0.07734
 C1366 C 0.40987 0.90421 0.08418
 C1367 C 0.42891 0.89347 0.11065
 C1368 C 0.41177 0.87088 0.13089
 H1369 H 0.37126 0.83195 0.16783
 H1370 H 0.30492 0.86087 0.07132
 H1371 H 0.35914 0.89845 0.05688
 H1372 H 0.42671 0.86382 0.15153
 H1373 H 0.27307 0.82480 0.10964
 H1374 H 0.45685 0.90329 0.11626
 C1375 C 0.82801 0.31729 0.61944
 C1376 C 0.82351 0.32942 0.64938
 C1377 C 0.83744 0.36212 0.65693
 C1378 C 0.85560 0.38246 0.63496
 C1379 C 0.86047 0.36985 0.60504
 C1380 C 0.84653 0.33724 0.59751
 C1381 C 0.87965 0.38988 0.58331
 C1382 C 0.89414 0.42230 0.59118
 C1383 C 0.88817 0.43493 0.62076
 C1384 C 0.86910 0.41519 0.64246
 H1385 H 0.83368 0.37199 0.67981
 H1386 H 0.84995 0.32717 0.57468
 H1387 H 0.88409 0.37987 0.56056
 H1388 H 0.86538 0.42533 0.66524
 H1389 H 0.81745 0.29222 0.61303
 H1390 H 0.89904 0.45982 0.62738
 C1391 C 1.11864 1.17355 0.66990
 C1392 C 1.15525 1.18425 0.66127
 C1393 C 1.16971 1.17430 0.63275
 C1394 C 1.14869 1.15210 0.61394
 C1395 C 1.11238 1.14074 0.62340
 C1396 C 1.09726 1.15226 0.65103
 C1397 C 1.09229 1.11699 0.60573
 C1398 C 1.10820 1.10366 0.57894
 C1399 C 1.14380 1.11572 0.56913
 C1400 C 1.16385 1.13989 0.58644
 H1401 H 1.19796 1.18231 0.62597
 H1402 H 1.06940 1.14390 0.65853
 H1403 H 1.06476 1.10800 0.61348
 H1404 H 1.19162 1.14830 0.57877
 H1405 H 1.10678 1.18114 0.69163
 H1406 H 1.15654 1.10589 0.54846
 C1407 C 0.62182 0.67127 0.16764
 C1408 C 0.65934 0.67983 0.15968
 C1409 C 0.67427 0.66822 0.13185
 C1410 C 0.65259 0.64650 0.11309
 C1411 C 0.61533 0.63719 0.12198
 C1412 C 0.59992 0.65036 0.14887
 C1413 C 0.59452 0.61379 0.10451
 C1414 C 0.61053 0.59890 0.07846
 C1415 C 0.64704 0.60905 0.06908
 C1416 C 0.66790 0.63277 0.08624
 H1417 H 0.70327 0.67456 0.12562
 H1418 H 0.57134 0.64362 0.15589
 H1419 H 0.56626 0.60631 0.11183
 H1420 H 0.69634 0.63964 0.07898
 H1421 H 0.60958 0.68026 0.18881
 H1422 H 0.65985 0.59799 0.04895
 C1423 C 1.12013 0.83246 0.32640
 C1424 C 1.15800 0.82442 0.33359
 C1425 C 1.17288 0.83420 0.36201
 C1426 C 1.15068 0.85359 0.38224
 C1427 C 1.11305 0.86238 0.37415
 C1428 C 1.09781 0.85106 0.34654
 C1429 C 1.09162 0.88351 0.39318
 C1430 C 1.10739 0.89677 0.42001
 C1431 C 1.14428 0.88703 0.42860
 C1432 C 1.16574 0.86547 0.40989
 H1433 H 1.20205 0.82812 0.36773
 H1434 H 1.06895 0.85741 0.34012
 H1435 H 1.06311 0.89072 0.38643
 H1436 H 1.19445 0.85896 0.41658
 H1437 H 1.10780 0.82470 0.30487
 H1438 H 1.15695 0.89689 0.44931
 C1439 C 0.61367 0.33024 -0.17470
 C1440 C 0.65076 0.32038 -0.16690
 C1441 C 0.66500 0.32800 -0.13780
 C1442 C 0.64313 0.34743 -0.11744
 C1443 C 0.60634 0.35822 -0.12609
 C1444 C 0.59152 0.34875 -0.15439
 C1445 C 0.58556 0.37973 -0.10699
 C1446 C 0.60135 0.39162 -0.07969
 C1447 C 0.63721 0.37977 -0.07049
 C1448 C 0.65791 0.35763 -0.08919
 H1449 H 0.69362 0.32044 -0.13170
 H1450 H 0.56329 0.35665 -0.16124
 H1451 H 0.55780 0.38858 -0.11418
 H1452 H 0.68595 0.34954 -0.08208
 H1453 H 0.60193 0.32406 -0.19685
 H1454 H 0.64981 0.38851 -0.04936
 C1455 C 0.80289 1.16873 0.38207
 C1456 C 0.81909 1.17414 0.35318
 C1457 C 0.85478 1.16010 0.34666
 C1458 C 0.87385 1.14036 0.36837
 C1459 C 0.85698 1.13398 0.39708
 C1460 C 0.82158 1.14859 0.40379
 C1461 C 0.87561 1.11270 0.41821
 C1462 C 0.91086 1.09804 0.41083
 C1463 C 0.92774 1.10572 0.38258
 C1464 C 0.90940 1.12654 0.36155
 H1465 H 0.86777 1.16455 0.32460
 H1466 H 0.80820 1.14419 0.42568
 H1467 H 0.86244 1.10708 0.43998
 H1468 H 0.92282 1.13145 0.33975
 H1469 H 0.77538 1.17938 0.38759
 H1470 H 0.95498 1.09499 0.37634
 C1471 C 0.30458 0.66622 -0.12123
 C1472 C 0.32321 0.67467 -0.14861
 C1473 C 0.36036 0.66304 -0.15346
 C1474 C 0.37857 0.64289 -0.13149
 C1475 C 0.35938 0.63382 -0.10431
 C1476 C 0.32244 0.64585 -0.09933
 C1477 C 0.37720 0.61235 -0.08295
 C1478 C 0.41388 0.59985 -0.08863
 C1479 C 0.43304 0.61007 -0.11527
 C1480 C 0.41557 0.63132 -0.13649
 H1481 H 0.37514 0.66969 -0.17432
 H1482 H 0.30725 0.63927 -0.07866
 H1483 H 0.36222 0.60467 -0.06247
 H1484 H 0.43081 0.63825 -0.15706
 H1485 H 0.27585 0.67485 -0.11697
 H1486 H 0.46145 0.60101 -0.12011
 C1487 C 0.88747 0.83940 0.67786
 C1488 C 0.85204 0.82687 0.66799
 C1489 C 0.83908 0.83545 0.63863
 C1490 C 0.86065 0.85730 0.61986
 C1491 C 0.89592 0.87008 0.63035
 C1492 C 0.90928 0.86061 0.65916
 C1493 C 0.91689 0.89283 0.61220
 C1494 C 0.90289 0.90362 0.58383
 C1495 C 0.86810 0.89043 0.57330
 C1496 C 0.84721 0.86733 0.59112
 H1497 H 0.81173 0.82613 0.63080
 H1498 H 0.93630 0.87013 0.66750
 H1499 H 0.94369 0.90281 0.62059
 H1500 H 0.82026 0.85781 0.58266
 H1501 H 0.89829 0.83300 0.70023
 H1502 H 0.85680 0.89832 0.55147
 C1503 C 0.38801 0.33005 0.17106
 C1504 C 0.35096 0.32059 0.16244
 C1505 C 0.33664 0.33177 0.13422
 C1506 C 0.35842 0.35366 0.11563
 C1507 C 0.39521 0.36368 0.12506
 C1508 C 0.41002 0.35117 0.15246
 C1509 C 0.41621 0.38697 0.10750
 C1510 C 0.40081 0.40099 0.08078
 C1511 C 0.36463 0.39028 0.07107
 C1512 C 0.34364 0.36671 0.08831
 H1513 H 0.30801 0.32484 0.12745
 H1514 H 0.43824 0.35849 0.15994
 H1515 H 0.44415 0.39492 0.11517
 H1516 H 0.31552 0.35931 0.08065
 H1517 H 0.39981 0.32154 0.19254
 H1518 H 0.35225 0.40065 0.05047
   
