data_POSCAR
  _audit_creation_date              2014-09-24
  _audit_creation_method            'ToBaCCo'
  _symmetry_space_group_name_H-M    'P1'
  _symmetry_Int_Tables_number       1
  _symmetry_cell_setting            triclinic
  loop_
  _symmetry_equiv_pos_as_xyz
 x,y,z
_cell_length_a 87.8531
_cell_length_b 87.7969
_cell_length_c 91.2518
_cell_angle_alpha 90.283600
_cell_angle_beta 90.193400
_cell_angle_gamma 89.930600
loop_
  _atom_site_label
  _atom_site_type_symbol
  _atom_site_fract_x
  _atom_site_fract_y
  _atom_site_fract_z
N1 N 0.35950 0.32810 0.33300
 N2 N 0.35828 0.33931 0.32358
 C3 C 0.36863 0.33744 0.31291
 C4 C 0.37688 0.32434 0.31577
 C5 C 0.37083 0.31875 0.32870
 H6 H 0.36989 0.34501 0.30369
 H7 H 0.37398 0.30836 0.33427
 Cu8 Cu 0.34300 0.35512 0.32566
 Cu9 Cu 0.34539 0.32623 0.34944
 Cu10 Cu 0.31079 0.34329 0.34124
 N11 N 0.32458 0.36723 0.32472
 N12 N 0.31188 0.36238 0.33064
 C13 C 0.30056 0.37210 0.32735
 C14 C 0.30649 0.38377 0.31894
 C15 C 0.32183 0.38030 0.31754
 H16 H 0.28886 0.37061 0.33068
 H17 H 0.33020 0.38637 0.31119
 N18 N 0.31328 0.32765 0.35645
 N19 N 0.32650 0.32156 0.36008
 C20 C 0.32443 0.31209 0.37148
 C21 C 0.30912 0.31224 0.37517
 C22 C 0.30247 0.32227 0.36540
 H23 H 0.33339 0.30554 0.37662
 H24 H 0.29069 0.32584 0.36512
 H25 H 0.33027 0.33209 0.33404
 H26 H 0.33239 0.34656 0.34894
 N27 N 0.36204 0.82033 -0.17063
 N28 N 0.36570 0.83338 -0.17663
 C29 C 0.37748 0.83118 -0.18581
 C30 C 0.38140 0.81581 -0.18564
 C31 C 0.37120 0.80934 -0.17586
 H32 H 0.38258 0.84013 -0.19221
 H33 H 0.37047 0.79758 -0.17253
 Cu34 Cu 0.35422 0.85175 -0.17220
 Cu35 Cu 0.34558 0.81848 -0.15659
 Cu36 Cu 0.33267 0.85261 -0.14199
 N37 N 0.33932 0.86781 -0.16897
 N38 N 0.33116 0.86838 -0.15695
 C39 C 0.32191 0.88059 -0.15749
 C40 C 0.32420 0.88805 -0.17073
 C41 C 0.33545 0.87952 -0.17767
 H42 H 0.31385 0.88343 -0.14899
 H43 H 0.34044 0.88146 -0.18830
 N44 N 0.32944 0.83284 -0.13239
 N45 N 0.33379 0.81983 -0.13834
 C46 C 0.32949 0.80832 -0.12963
 C47 C 0.32201 0.81432 -0.11758
 C48 C 0.32221 0.82995 -0.11971
 H49 H 0.33191 0.79645 -0.13182
 H50 H 0.31720 0.83860 -0.11276
 H51 H 0.33359 0.83877 -0.15952
 H52 H 0.35150 0.83922 -0.14847
 N53 N 0.86461 0.31533 -0.16631
 N54 N 0.86417 0.32655 -0.17578
 C55 C 0.87404 0.32343 -0.18674
 C56 C 0.88079 0.30942 -0.18396
 C57 C 0.87454 0.30473 -0.17088
 H58 H 0.87581 0.33052 -0.19624
 H59 H 0.87699 0.29426 -0.16514
 Cu60 Cu 0.84991 0.34347 -0.17297
 Cu61 Cu 0.85182 0.31450 -0.14907
 Cu62 Cu 0.82651 0.34408 -0.14368
 N63 N 0.83548 0.36014 -0.16971
 N64 N 0.82652 0.36022 -0.15821
 C65 C 0.81734 0.37245 -0.15876
 C66 C 0.82053 0.38063 -0.17137
 C67 C 0.83223 0.37240 -0.17801
 H68 H 0.80874 0.37489 -0.15066
 H69 H 0.83777 0.37490 -0.18827
 N70 N 0.82823 0.32669 -0.13019
 N71 N 0.83802 0.31550 -0.13224
 C72 C 0.83599 0.30494 -0.12179
 C73 C 0.82427 0.30961 -0.11272
 C74 C 0.81967 0.32351 -0.11836
 H75 H 0.84233 0.29443 -0.12110
 H76 H 0.81035 0.33050 -0.11453
 H77 H 0.83403 0.32725 -0.15766
 H78 H 0.84878 0.33781 -0.14686
 N79 N 0.86312 0.82874 0.33879
 N80 N 0.86225 0.84099 0.33062
 C81 C 0.87264 0.84005 0.31985
 C82 C 0.88056 0.82650 0.32140
 C83 C 0.87421 0.81964 0.33358
 H84 H 0.87426 0.84860 0.31151
 H85 H 0.87712 0.80864 0.33807
 Cu86 Cu 0.84741 0.85686 0.33448
 Cu87 Cu 0.84934 0.82523 0.35514
 Cu88 Cu 0.81946 0.85071 0.35876
 N89 N 0.82916 0.86931 0.33477
 N90 N 0.81816 0.86675 0.34414
 C91 C 0.80668 0.87654 0.34156
 C92 C 0.81066 0.88584 0.32989
 C93 C 0.82512 0.88085 0.32593
 H94 H 0.79622 0.87673 0.34774
 H95 H 0.83211 0.88491 0.31706
 N96 N 0.82285 0.83370 0.37239
 N97 N 0.83409 0.82384 0.37091
 C98 C 0.83301 0.81329 0.38153
 C99 C 0.82052 0.81674 0.39016
 C100 C 0.81439 0.82977 0.38404
 H101 H 0.84073 0.80381 0.38290
 H102 H 0.80426 0.83572 0.38759
 H103 H 0.83191 0.83679 0.34484
 H104 H 0.84287 0.84748 0.35918
 N105 N 0.63381 0.67782 0.34489
 N106 N 0.63345 0.66930 0.33302
 C107 C 0.62096 0.67290 0.32514
 C108 C 0.61305 0.68426 0.33252
 C109 C 0.62157 0.68704 0.34502
 H110 H 0.61786 0.66768 0.31480
 H111 H 0.61933 0.69553 0.35336
 Cu112 Cu 0.64943 0.65442 0.32891
 Cu113 Cu 0.65056 0.67720 0.35881
 Cu114 Cu 0.67855 0.65025 0.35284
 N115 N 0.66477 0.63850 0.32653
 N116 N 0.67589 0.63681 0.33606
 C117 C 0.68464 0.62496 0.33198
 C118 C 0.67877 0.61885 0.31915
 C119 C 0.66615 0.62777 0.31599
 H120 H 0.69471 0.62125 0.33779
 H121 H 0.65848 0.62643 0.30679
 N122 N 0.67927 0.66486 0.36924
 N123 N 0.66842 0.67495 0.37167
 C124 C 0.67224 0.68344 0.38344
 C125 C 0.68621 0.67853 0.38865
 C126 C 0.69032 0.66672 0.37936
 H127 H 0.66561 0.69288 0.38761
 H128 H 0.70065 0.66005 0.37988
 H129 H 0.66687 0.66883 0.34457
 H130 H 0.65551 0.65448 0.35498
 N131 N 0.62488 0.16789 -0.16443
 N132 N 0.62443 0.15654 -0.17384
 C133 C 0.61451 0.15990 -0.18462
 C134 C 0.60835 0.17416 -0.18178
 C135 C 0.61523 0.17885 -0.16884
 H136 H 0.61202 0.15251 -0.19383
 H137 H 0.61367 0.18961 -0.16324
 Cu138 Cu 0.63711 0.13866 -0.17124
 Cu139 Cu 0.63844 0.16787 -0.14760
 Cu140 Cu 0.66608 0.13971 -0.14677
 N141 N 0.65382 0.12431 -0.17205
 N142 N 0.66539 0.12490 -0.16290
 C143 C 0.67536 0.11380 -0.16646
 C144 C 0.66967 0.10574 -0.17849
 C145 C 0.65594 0.11288 -0.18164
 H146 H 0.68584 0.11169 -0.16057
 H147 H 0.64811 0.11029 -0.19045
 N148 N 0.66431 0.15575 -0.13148
 N149 N 0.65329 0.16599 -0.13163
 C150 C 0.65435 0.17476 -0.11958
 C151 C 0.66668 0.16999 -0.11142
 C152 C 0.67285 0.15794 -0.11931
 H153 H 0.64685 0.18417 -0.11702
 H154 H 0.68260 0.15113 -0.11625
 H155 H 0.65497 0.15563 -0.15919
 H156 H 0.64331 0.14451 -0.14583
 N157 N 0.13905 0.67621 -0.16087
 N158 N 0.13951 0.66498 -0.17044
 C159 C 0.12825 0.66681 -0.18030
 C160 C 0.12026 0.67993 -0.17676
 C161 C 0.12744 0.68557 -0.16430
 H162 H 0.12637 0.65938 -0.18961
 H163 H 0.12462 0.69581 -0.15826
 Cu164 Cu 0.15506 0.64926 -0.16956
 Cu165 Cu 0.15401 0.67788 -0.14507
 Cu166 Cu 0.18803 0.66049 -0.15445
 N167 N 0.17342 0.63709 -0.17142
 N168 N 0.18633 0.64168 -0.16562
 C169 C 0.19741 0.63182 -0.16927
 C170 C 0.19114 0.62034 -0.17784
 C171 C 0.17582 0.62408 -0.17894
 H172 H 0.20918 0.63306 -0.16597
 H173 H 0.16717 0.61813 -0.18516
 N174 N 0.18632 0.67600 -0.13890
 N175 N 0.17333 0.68229 -0.13492
 C176 C 0.17589 0.69171 -0.12347
 C177 C 0.19130 0.69130 -0.12006
 C178 C 0.19748 0.68118 -0.13011
 H179 H 0.16717 0.69837 -0.11809
 H180 H 0.20918 0.67742 -0.13072
 H181 H 0.16845 0.67201 -0.16108
 H182 H 0.16664 0.65740 -0.14639
 N183 N 0.12664 0.17588 0.33548
 N184 N 0.12526 0.16321 0.32788
 C185 C 0.11449 0.16504 0.31754
 C186 C 0.10870 0.17965 0.31875
 C187 C 0.11665 0.18620 0.33031
 H188 H 0.11120 0.15637 0.30969
 H189 H 0.11559 0.19775 0.33437
 Cu190 Cu 0.13802 0.14573 0.33178
 Cu191 Cu 0.14183 0.17815 0.35098
 Cu192 Cu 0.16809 0.14882 0.35444
 N193 N 0.15443 0.13107 0.33140
 N194 N 0.16617 0.13217 0.34030
 C195 C 0.17620 0.12105 0.33704
 C196 C 0.17046 0.11263 0.32537
 C197 C 0.15659 0.11933 0.32214
 H198 H 0.18716 0.11968 0.34230
 H199 H 0.14877 0.11618 0.31347
 N200 N 0.16791 0.16686 0.36744
 N201 N 0.15807 0.17812 0.36594
 C202 C 0.16128 0.18903 0.37589
 C203 C 0.17372 0.18443 0.38409
 C204 C 0.17759 0.17028 0.37846
 H205 H 0.15503 0.19957 0.37707
 H206 H 0.18703 0.16321 0.38185
 H207 H 0.15698 0.16363 0.34058
 H208 H 0.14551 0.15537 0.35583
 N209 N 0.63620 0.32554 0.65934
 N210 N 0.63736 0.33489 0.67060
 C211 C 0.62683 0.33106 0.68067
 C212 C 0.61877 0.31858 0.67547
 C213 C 0.62506 0.31542 0.66191
 H214 H 0.62532 0.33672 0.69111
 H215 H 0.62166 0.30651 0.65436
 Cu216 Cu 0.65289 0.35082 0.67113
 Cu217 Cu 0.64891 0.32716 0.64191
 Cu218 Cu 0.67615 0.35537 0.64262
 N219 N 0.66806 0.36717 0.67091
 N220 N 0.67683 0.36892 0.65940
 C221 C 0.68693 0.38003 0.66204
 C222 C 0.68460 0.38560 0.67603
 C223 C 0.67238 0.37727 0.68135
 H224 H 0.69569 0.38347 0.65446
 H225 H 0.66756 0.37799 0.69222
 N226 N 0.67282 0.34224 0.62551
 N227 N 0.66294 0.33094 0.62540
 C228 C 0.66440 0.32314 0.61269
 C229 C 0.67558 0.33007 0.60439
 C230 C 0.68059 0.34214 0.61284
 H231 H 0.65795 0.31310 0.60974
 H232 H 0.68978 0.34982 0.61021
 H233 H 0.66688 0.33614 0.65282
 H234 H 0.65317 0.34993 0.64450
 N235 N 0.64122 0.81782 1.16762
 N236 N 0.63637 0.83076 1.17317
 C237 C 0.62395 0.82805 1.18140
 C238 C 0.62095 0.81251 1.18099
 C239 C 0.63223 0.80645 1.17214
 H240 H 0.61774 0.83671 1.18737
 H241 H 0.63376 0.79467 1.16898
 Cu242 Cu 0.64726 0.84963 1.16928
 Cu243 Cu 0.65897 0.81647 1.15511
 Cu244 Cu 0.67047 0.85065 1.14013
 N245 N 0.66124 0.86653 1.16626
 N246 N 0.66998 0.86709 1.15461
 C247 C 0.67849 0.87980 1.15519
 C248 C 0.67507 0.88759 1.16801
 C249 C 0.66403 0.87881 1.17475
 H250 H 0.68701 0.88275 1.14717
 H251 H 0.65854 0.88104 1.18513
 N252 N 0.67568 0.83077 1.13144
 N253 N 0.67184 0.81780 1.13763
 C254 C 0.67730 0.80618 1.12959
 C255 C 0.68506 0.81206 1.11771
 C256 C 0.68377 0.82775 1.11925
 H257 H 0.67537 0.79432 1.13205
 H258 H 0.68852 0.83636 1.11218
 H259 H 0.66944 0.83759 1.15805
 H260 H 0.65219 0.83642 1.14611
 N261 N 0.13236 0.32481 1.16579
 N262 N 0.13404 0.33528 1.17600
 C263 C 0.12108 0.33657 1.18367
 C264 C 0.11071 0.32618 1.17814
 C265 C 0.11829 0.31881 1.16682
 H266 H 0.11957 0.34402 1.19303
 H267 H 0.11397 0.30970 1.15996
 Cu268 Cu 0.15338 0.34519 1.17940
 Cu269 Cu 0.14901 0.31967 1.15253
 Cu270 Cu 0.17804 0.34671 1.15145
 N271 N 0.16981 0.35972 1.17921
 N272 N 0.17913 0.36085 1.16805
 C273 C 0.18920 0.37209 1.17085
 C274 C 0.18601 0.37818 1.18456
 C275 C 0.17359 0.37004 1.18948
 H276 H 0.19841 0.37529 1.16366
 H277 H 0.16760 0.37162 1.19971
 N278 N 0.17500 0.33102 1.13609
 N279 N 0.16435 0.32045 1.13682
 C280 C 0.16599 0.31074 1.12547
 C281 C 0.17830 0.31538 1.11717
 C282 C 0.18369 0.32830 1.12422
 H283 H 0.15881 0.30096 1.12346
 H284 H 0.19362 0.33484 1.12128
 H285 H 0.16827 0.32915 1.16258
 H286 H 0.15485 0.34221 1.15300
 N287 N 0.14319 0.81601 0.66625
 N288 N 0.14480 0.82405 0.67834
 C289 C 0.13522 0.81880 0.68857
 C290 C 0.12710 0.80674 0.68267
 C291 C 0.13245 0.80531 0.66842
 H292 H 0.13410 0.82361 0.69944
 H293 H 0.12891 0.79702 0.66029
 Cu294 Cu 0.15908 0.84073 0.67982
 Cu295 Cu 0.15545 0.82011 0.64886
 Cu296 Cu 0.17708 0.85316 0.64985
 N297 N 0.16858 0.86060 0.67935
 N298 N 0.17579 0.86545 0.66769
 C299 C 0.18177 0.87926 0.67060
 C300 C 0.17799 0.88331 0.68485
 C301 C 0.16958 0.87116 0.69003
 H302 H 0.18840 0.88583 0.66294
 H303 H 0.16488 0.86988 0.70088
 N304 N 0.17682 0.83913 0.63291
 N305 N 0.16874 0.82646 0.63255
 C306 C 0.17177 0.81893 0.61999
 C307 C 0.18226 0.82726 0.61203
 C308 C 0.18514 0.84001 0.62058
 H309 H 0.16692 0.80804 0.61699
 H310 H 0.19322 0.84895 0.61829
 H311 H 0.17329 0.83170 0.65860
 H312 H 0.15609 0.84311 0.65351
 N313 N 0.36471 0.67422 0.66527
 N314 N 0.36501 0.66365 0.67541
 C315 C 0.37564 0.66716 0.68549
 C316 C 0.38256 0.68063 0.68144
 C317 C 0.37538 0.68478 0.66848
 H318 H 0.37812 0.66043 0.69510
 H319 H 0.37738 0.69499 0.66220
 Cu320 Cu 0.35132 0.64641 0.67480
 Cu321 Cu 0.34950 0.67398 0.64950
 Cu322 Cu 0.32177 0.64577 0.65167
 N323 N 0.33469 0.63227 0.67747
 N324 N 0.32323 0.63176 0.66820
 C325 C 0.31336 0.62097 0.67256
 C326 C 0.31890 0.61448 0.68534
 C327 C 0.33247 0.62198 0.68811
 H328 H 0.30275 0.61833 0.66708
 H329 H 0.34019 0.62008 0.69717
 N330 N 0.32235 0.66101 0.63583
 N331 N 0.33293 0.67163 0.63485
 C332 C 0.32983 0.68046 0.62315
 C333 C 0.31660 0.67521 0.61651
 C334 C 0.31226 0.66284 0.62485
 H335 H 0.33638 0.69032 0.62001
 H336 H 0.30235 0.65576 0.62314
 H337 H 0.33357 0.66313 0.66225
 H338 H 0.34462 0.65102 0.64922
 N339 N 0.35581 0.17616 1.16068
 N340 N 0.35557 0.16759 1.17242
 C341 C 0.36734 0.17133 1.18117
 C342 C 0.37539 0.18299 1.17459
 C343 C 0.36771 0.18575 1.16157
 H344 H 0.36958 0.16623 1.19171
 H345 H 0.37041 0.19425 1.15346
 Cu346 Cu 0.33966 0.15278 1.17535
 Cu347 Cu 0.33995 0.17502 1.14578
 Cu348 Cu 0.31071 0.14899 1.15159
 N349 N 0.32743 0.13449 1.17468
 N350 N 0.31562 0.13311 1.16589
 C351 C 0.30855 0.11981 1.16879
 C352 C 0.31665 0.11242 1.17975
 C353 C 0.32854 0.12209 1.18316
 H354 H 0.29836 0.11582 1.16331
 H355 H 0.33706 0.12048 1.19159
 N356 N 0.31126 0.16294 1.13456
 N357 N 0.32274 0.17231 1.13218
 C358 C 0.31994 0.18031 1.11996
 C359 C 0.30604 0.17589 1.11426
 C360 C 0.30081 0.16483 1.12383
 H361 H 0.32719 0.18925 1.11587
 H362 H 0.29016 0.15872 1.12311
 H363 H 0.32286 0.16775 1.15928
 H364 H 0.33350 0.15249 1.14944
 N365 N 0.86281 0.67099 1.16491
 N366 N 0.86192 0.66030 1.17492
 C367 C 0.87416 0.66115 1.18376
 C368 C 0.88322 0.67304 1.17912
 C369 C 0.87567 0.67907 1.16711
 H370 H 0.87608 0.65400 1.19320
 H371 H 0.87921 0.68861 1.16049
 Cu372 Cu 0.84441 0.64690 1.17615
 Cu373 Cu 0.84720 0.67322 1.14976
 Cu374 Cu 0.81239 0.65745 1.15929
 N375 N 0.82634 0.63415 1.17664
 N376 N 0.81369 0.63852 1.17021
 C377 C 0.80253 0.62861 1.17338
 C378 C 0.80849 0.61730 1.18229
 C379 C 0.82369 0.62123 1.18409
 H380 H 0.79090 0.62981 1.16967
 H381 H 0.83204 0.61553 1.19083
 N382 N 0.81480 0.67238 1.14347
 N383 N 0.82805 0.67797 1.13938
 C384 C 0.82588 0.68694 1.12759
 C385 C 0.81049 0.68697 1.12412
 C386 C 0.80388 0.67761 1.13446
 H387 H 0.83484 0.69297 1.12198
 H388 H 0.79204 0.67431 1.13505
 H389 H 0.83204 0.66937 1.16577
 H390 H 0.83396 0.65348 1.15224
 N391 N 0.86646 0.16938 0.65337
 N392 N 0.86640 0.16090 0.66521
 C393 C 0.87888 0.16406 0.67327
 C394 C 0.88728 0.17510 0.66608
 C395 C 0.87902 0.17813 0.65344
 H396 H 0.88159 0.15872 0.68360
 H397 H 0.88166 0.18636 0.64505
 Cu398 Cu 0.84994 0.14658 0.66886
 Cu399 Cu 0.85018 0.16854 0.63878
 Cu400 Cu 0.81707 0.15159 0.65107
 N401 N 0.83363 0.13159 0.67013
 N402 N 0.82081 0.13370 0.66295
 C403 C 0.81137 0.12202 0.66552
 C404 C 0.81861 0.11194 0.67480
 C405 C 0.83272 0.11841 0.67763
 H406 H 0.79997 0.12108 0.66108
 H407 H 0.84168 0.11382 0.68447
 N408 N 0.81762 0.16519 0.63415
 N409 N 0.83026 0.17120 0.62902
 C410 C 0.82686 0.17934 0.61695
 C411 C 0.81130 0.17835 0.61437
 C412 C 0.80588 0.16925 0.62555
 H413 H 0.83510 0.18566 0.61067
 H414 H 0.79431 0.16550 0.62719
 H415 H 0.83560 0.16610 0.65565
 H416 H 0.83874 0.14855 0.64444
 N417 N 0.32552 0.36977 0.65173
 N418 N 0.33647 0.37353 0.66089
 C419 C 0.33175 0.38514 0.66941
 C420 C 0.31702 0.38894 0.66536
 C421 C 0.31346 0.37893 0.65406
 H422 H 0.33858 0.39041 0.67790
 H423 H 0.30279 0.37815 0.64817
 Cu424 Cu 0.35580 0.36284 0.66107
 Cu425 Cu 0.32765 0.35306 0.63776
 Cu426 Cu 0.35973 0.33049 0.64154
 N427 N 0.37221 0.34860 0.66494
 N428 N 0.37366 0.33590 0.65739
 C429 C 0.38561 0.32801 0.66264
 C430 C 0.39204 0.33621 0.67412
 C431 C 0.38319 0.34924 0.67523
 H432 H 0.38930 0.31709 0.65842
 H433 H 0.38437 0.35834 0.68318
 N434 N 0.34427 0.32701 0.62619
 N435 N 0.33204 0.33561 0.62476
 C436 C 0.32362 0.33030 0.61349
 C437 C 0.33088 0.31770 0.60750
 C438 C 0.34396 0.31600 0.61587
 H439 H 0.31289 0.33515 0.61006
 H440 H 0.35264 0.30739 0.61457
 H441 H 0.34162 0.34110 0.65189
 H442 H 0.35114 0.35192 0.63686
 N443 N 0.32215 0.86635 0.16798
 N444 N 0.33463 0.87028 0.17499
 C445 C 0.33134 0.88148 0.18459
 C446 C 0.31589 0.88458 0.18366
 C447 C 0.31044 0.87474 0.17297
 H448 H 0.33957 0.88675 0.19186
 H449 H 0.29890 0.87393 0.16890
 Cu450 Cu 0.35406 0.86045 0.17094
 Cu451 Cu 0.32260 0.85119 0.15255
 Cu452 Cu 0.35187 0.82687 0.15062
 N453 N 0.37032 0.84498 0.17062
 N454 N 0.36923 0.83183 0.16362
 C455 C 0.38139 0.82316 0.16709
 C456 C 0.39057 0.83131 0.17672
 C457 C 0.38317 0.84508 0.17864
 H458 H 0.38329 0.81171 0.16306
 H459 H 0.38643 0.85418 0.18604
 N460 N 0.33715 0.82884 0.13452
 N461 N 0.32616 0.83900 0.13518
 C462 C 0.31807 0.83861 0.12269
 C463 C 0.32412 0.82747 0.11370
 C464 C 0.33618 0.82135 0.12159
 H465 H 0.30822 0.84566 0.12047
 H466 H 0.34378 0.81234 0.11812
 H467 H 0.34277 0.84033 0.16773
 H468 H 0.35027 0.84955 0.15087
 N469 N 0.81247 0.36156 0.16158
 N470 N 0.82290 0.36137 0.17193
 C471 C 0.82014 0.37275 0.18149
 C472 C 0.80723 0.38051 0.17690
 C473 C 0.80272 0.37308 0.16417
 H474 H 0.82678 0.37489 0.19128
 H475 H 0.79297 0.37569 0.15736
 Cu476 Cu 0.83885 0.34596 0.17226
 Cu477 Cu 0.81212 0.34638 0.14588
 Cu478 Cu 0.82887 0.31267 0.15696
 N479 N 0.85140 0.32785 0.17453
 N480 N 0.84722 0.31481 0.16867
 C481 C 0.85723 0.30394 0.17246
 C482 C 0.86843 0.31049 0.18113
 C483 C 0.86436 0.32574 0.18220
 H484 H 0.85637 0.29216 0.16906
 H485 H 0.87012 0.33453 0.18842
 N486 N 0.81443 0.31396 0.14052
 N487 N 0.80847 0.32684 0.13584
 C488 C 0.79993 0.32399 0.12385
 C489 C 0.80060 0.30849 0.12081
 C490 C 0.80993 0.30256 0.13164
 H491 H 0.79371 0.33258 0.11785
 H492 H 0.81366 0.29089 0.13276
 H493 H 0.81680 0.33231 0.16249
 H494 H 0.83248 0.33389 0.14882
 N495 N 0.83177 0.86261 0.66993
 N496 N 0.84345 0.86258 0.67898
 C497 C 0.84129 0.87317 0.68945
 C498 C 0.82757 0.88039 0.68681
 C499 C 0.82184 0.87345 0.67427
 H500 H 0.84911 0.87540 0.69838
 H501 H 0.81100 0.87569 0.66906
 Cu502 Cu 0.86030 0.84857 0.67658
 Cu503 Cu 0.82981 0.84755 0.65411
 Cu504 Cu 0.85760 0.81938 0.65313
 N505 N 0.87450 0.83168 0.67740
 N506 N 0.87357 0.82042 0.66792
 C507 C 0.88459 0.81021 0.67080
 C508 C 0.89285 0.81529 0.68281
 C509 C 0.88608 0.82897 0.68674
 H510 H 0.88616 0.79963 0.66487
 H511 H 0.88929 0.83638 0.69573
 N512 N 0.84060 0.82026 0.63911
 N513 N 0.83009 0.83103 0.63922
 C514 C 0.81983 0.82799 0.62855
 C515 C 0.82405 0.81460 0.62155
 C516 C 0.83729 0.81011 0.62850
 H517 H 0.80972 0.83466 0.62642
 H518 H 0.84393 0.80005 0.62610
 H519 H 0.84180 0.83141 0.66560
 H520 H 0.85246 0.84243 0.65154
 N521 N 0.67504 0.63240 0.67144
 N522 N 0.66281 0.63336 0.67966
 C523 C 0.66385 0.62308 0.69053
 C524 C 0.67744 0.61518 0.68902
 C525 C 0.68423 0.62145 0.67676
 H526 H 0.65526 0.62130 0.69879
 H527 H 0.69513 0.61841 0.67213
 Cu528 Cu 0.64662 0.64778 0.67516
 Cu529 Cu 0.67823 0.64542 0.65444
 Cu530 Cu 0.64931 0.67087 0.64612
 N531 N 0.63078 0.66263 0.67070
 N532 N 0.63177 0.67122 0.65900
 C533 C 0.61964 0.68053 0.65838
 C534 C 0.61052 0.67774 0.67039
 C535 C 0.61796 0.66629 0.67801
 H536 H 0.61794 0.68920 0.65016
 H537 H 0.61438 0.66115 0.68817
 N538 N 0.66795 0.66898 0.63442
 N539 N 0.67917 0.65958 0.63769
 C540 C 0.69065 0.66179 0.62814
 C541 C 0.68639 0.67310 0.61839
 C542 C 0.67193 0.67734 0.62275
 H543 H 0.70137 0.65574 0.62836
 H544 H 0.66504 0.68631 0.61811
 H545 H 0.66484 0.66322 0.66166
 H546 H 0.65555 0.64845 0.64989
 N547 N 0.67246 0.13705 0.16934
 N548 N 0.66161 0.13974 0.17888
 C549 C 0.66196 0.12894 0.18929
 C550 C 0.67367 0.11890 0.18609
 C551 C 0.68007 0.12441 0.17331
 H552 H 0.65436 0.12853 0.19857
 H553 H 0.68991 0.11993 0.16763
 Cu554 Cu 0.64861 0.15754 0.17731
 Cu555 Cu 0.67670 0.15098 0.15337
 Cu556 Cu 0.64784 0.17669 0.14541
 N557 N 0.63231 0.17159 0.17258
 N558 N 0.63202 0.17909 0.16016
 C559 C 0.61987 0.18847 0.16009
 C560 C 0.61208 0.18663 0.17314
 C561 C 0.62031 0.17578 0.18076
 H562 H 0.61701 0.19615 0.15127
 H563 H 0.61799 0.17158 0.19165
 N564 N 0.66505 0.17266 0.13210
 N565 N 0.67624 0.16320 0.13535
 C566 C 0.68682 0.16380 0.12474
 C567 C 0.68209 0.17415 0.11428
 C568 C 0.66821 0.17950 0.11929
 H569 H 0.69729 0.15733 0.12472
 H570 H 0.66130 0.18827 0.11431
 H571 H 0.66486 0.17062 0.15950
 H572 H 0.65374 0.15462 0.15130
 N573 N 0.16692 0.63486 0.16102
 N574 N 0.15490 0.63585 0.16950
 C575 C 0.15571 0.62496 0.17982
 C576 C 0.16893 0.61664 0.17761
 C577 C 0.17573 0.62328 0.16556
 H578 H 0.14738 0.62334 0.18837
 H579 H 0.18658 0.62031 0.16079
 Cu580 Cu 0.13965 0.65158 0.16652
 Cu581 Cu 0.17094 0.64928 0.14543
 Cu582 Cu 0.14696 0.68044 0.14336
 N583 N 0.12783 0.67027 0.16682
 N584 N 0.13085 0.68159 0.15793
 C585 C 0.12137 0.69325 0.16087
 C586 C 0.11183 0.68898 0.17218
 C587 C 0.11626 0.67429 0.17566
 H588 H 0.12141 0.70403 0.15520
 H589 H 0.11172 0.66721 0.18426
 N590 N 0.16393 0.67705 0.12963
 N591 N 0.17308 0.66517 0.13048
 C592 C 0.18387 0.66632 0.12011
 C593 C 0.18139 0.67955 0.11230
 C594 C 0.16860 0.68604 0.11861
 H595 H 0.19293 0.65817 0.11844
 H596 H 0.16338 0.69676 0.11569
 H597 H 0.16023 0.66679 0.15666
 H598 H 0.14893 0.65703 0.14193
 N599 N 0.17980 0.13233 0.66188
 N600 N 0.16947 0.13374 0.67219
 C601 C 0.17341 0.12471 0.68356
 C602 C 0.18703 0.11754 0.68013
 C603 C 0.19067 0.12263 0.66632
 H604 H 0.16721 0.12384 0.69374
 H605 H 0.20060 0.11956 0.66000
 Cu606 Cu 0.15281 0.14834 0.66973
 Cu607 Cu 0.17914 0.14346 0.64358
 Cu608 Cu 0.14983 0.16932 0.63904
 N609 N 0.13605 0.16274 0.66698
 N610 N 0.13515 0.17086 0.65494
 C611 C 0.12304 0.18016 0.65575
 C612 C 0.11581 0.17789 0.66904
 C613 C 0.12445 0.16669 0.67589
 H614 H 0.11990 0.18811 0.64727
 H615 H 0.12257 0.16191 0.68662
 N616 N 0.16579 0.16597 0.62421
 N617 N 0.17667 0.15574 0.62582
 C618 C 0.18592 0.15622 0.61412
 C619 C 0.18074 0.16737 0.60472
 C620 C 0.16794 0.17335 0.61147
 H621 H 0.19613 0.14947 0.61283
 H622 H 0.16087 0.18253 0.60747
 H623 H 0.16781 0.16234 0.65183
 H624 H 0.15583 0.14717 0.64322
 N625 N 0.32965 0.62861 0.33997
 N626 N 0.34288 0.62662 0.33358
 C627 C 0.34228 0.61427 0.32487
 C628 C 0.32784 0.60809 0.32576
 C629 C 0.32009 0.61752 0.33547
 H630 H 0.35148 0.61052 0.31789
 H631 H 0.30839 0.61645 0.33894
 Cu632 Cu 0.35910 0.64123 0.33578
 Cu633 Cu 0.32617 0.64546 0.35368
 Cu634 Cu 0.35565 0.67173 0.35751
 N635 N 0.37132 0.65923 0.33277
 N636 N 0.37022 0.67123 0.34135
 C637 C 0.37989 0.68204 0.33657
 C638 C 0.38716 0.67651 0.32415
 C639 C 0.38144 0.66199 0.32213
 H640 H 0.38111 0.69324 0.34142
 H641 H 0.38432 0.65403 0.31348
 N642 N 0.33664 0.67282 0.36896
 N643 N 0.32527 0.66316 0.36715
 C644 C 0.31394 0.66703 0.37635
 C645 C 0.31837 0.67970 0.38438
 C646 C 0.33285 0.68305 0.37938
 H647 H 0.30339 0.66082 0.37743
 H648 H 0.34006 0.69233 0.38297
 H649 H 0.34113 0.66048 0.34381
 H650 H 0.34844 0.64911 0.35950
 N651 N 0.32220 0.14037 0.83788
 N652 N 0.33442 0.13701 0.83025
 C653 C 0.33262 0.12316 0.82408
 C654 C 0.31851 0.11753 0.82817
 C655 C 0.31224 0.12881 0.83690
 H656 H 0.34087 0.11766 0.81705
 H657 H 0.30105 0.12886 0.84182
 Cu658 Cu 0.35107 0.15151 0.82871
 Cu659 Cu 0.31960 0.15995 0.84751
 Cu660 Cu 0.35285 0.18049 0.85283
 N661 N 0.36523 0.16832 0.82613
 N662 N 0.36619 0.17949 0.83573
 C663 C 0.37705 0.18930 0.83143
 C664 C 0.38311 0.18409 0.81830
 C665 C 0.37530 0.17070 0.81532
 H666 H 0.38000 0.19965 0.83725
 H667 H 0.37686 0.16319 0.80603
 N668 N 0.33431 0.18390 0.86457
 N669 N 0.32150 0.17655 0.86189
 C670 C 0.31070 0.18161 0.87109
 C671 C 0.31694 0.19270 0.88007
 C672 C 0.33199 0.19384 0.87566
 H673 H 0.29923 0.17719 0.87150
 H674 H 0.34054 0.20150 0.88001
 H675 H 0.33699 0.17322 0.83858
 H676 H 0.34199 0.15909 0.85302
 N677 N 0.83171 0.63313 0.84165
 N678 N 0.84232 0.63110 0.83172
 C679 C 0.83804 0.61979 0.82257
 C680 C 0.82394 0.61442 0.82702
 C681 C 0.82035 0.62319 0.83920
 H682 H 0.84459 0.61599 0.81324
 H683 H 0.81027 0.62237 0.84590
 Cu684 Cu 0.86044 0.64377 0.83137
 Cu685 Cu 0.83344 0.64828 0.85721
 Cu686 Cu 0.86563 0.67099 0.85685
 N687 N 0.87460 0.66050 0.82835
 N688 N 0.87633 0.67127 0.83826
 C689 C 0.88659 0.68142 0.83349
 C690 C 0.89162 0.67679 0.81982
 C691 C 0.88379 0.66341 0.81691
 H692 H 0.89027 0.69132 0.83965
 H693 H 0.88455 0.65642 0.80715
 N694 N 0.84993 0.67255 0.87207
 N695 N 0.83750 0.66416 0.87206
 C696 C 0.82875 0.66838 0.88347
 C697 C 0.83598 0.68006 0.89103
 C698 C 0.84942 0.68236 0.88343
 H699 H 0.81778 0.66347 0.88591
 H700 H 0.85812 0.69071 0.88580
 H701 H 0.84710 0.66311 0.84551
 H702 H 0.85663 0.64894 0.85765
 N703 N 0.81888 0.13804 0.33397
 N704 N 0.82942 0.13577 0.32401
 C705 C 0.82508 0.12429 0.31512
 C706 C 0.81099 0.11910 0.31969
 C707 C 0.80740 0.12816 0.33169
 H708 H 0.83153 0.12030 0.30579
 H709 H 0.79725 0.12761 0.33833
 Cu710 Cu 0.84737 0.14861 0.32308
 Cu711 Cu 0.82068 0.15398 0.34882
 Cu712 Cu 0.85663 0.16987 0.35228
 N713 N 0.86271 0.16450 0.32188
 N714 N 0.86652 0.17264 0.33343
 C715 C 0.87754 0.18250 0.32974
 C716 C 0.88079 0.18056 0.31498
 C717 C 0.87112 0.16898 0.31038
 H718 H 0.88256 0.19062 0.33726
 H719 H 0.87025 0.16408 0.29952
 N720 N 0.84104 0.17160 0.36756
 N721 N 0.82717 0.16607 0.36604
 C722 C 0.81888 0.17007 0.37783
 C723 C 0.82795 0.17863 0.38722
 C724 C 0.84196 0.17930 0.38032
 H725 H 0.80708 0.16703 0.37937
 H726 H 0.85193 0.18546 0.38396
 H727 H 0.83760 0.16781 0.34002
 H728 H 0.84336 0.14997 0.34960
 N729 N 0.66842 0.36199 0.33414
 N730 N 0.65828 0.36111 0.32354
 C731 C 0.66160 0.37145 0.31322
 C732 C 0.67449 0.37934 0.31759
 C733 C 0.67846 0.37308 0.33100
 H734 H 0.65508 0.37316 0.30330
 H735 H 0.68813 0.37605 0.33779
 Cu736 Cu 0.64167 0.34657 0.32414
 Cu737 Cu 0.66791 0.34838 0.35104
 Cu738 Cu 0.64469 0.31681 0.34635
 N739 N 0.62464 0.33274 0.32694
 N740 N 0.62588 0.32125 0.33604
 C741 C 0.61307 0.31295 0.33560
 C742 C 0.60323 0.31951 0.32561
 C743 C 0.61096 0.33205 0.32026
 H744 H 0.61139 0.30245 0.34153
 H745 H 0.60706 0.33984 0.31189
 N746 N 0.66087 0.31782 0.36107
 N747 N 0.66935 0.32999 0.36344
 C748 C 0.67900 0.32704 0.37461
 C749 C 0.67644 0.31227 0.37936
 C750 C 0.66484 0.30686 0.37052
 H751 H 0.68750 0.33489 0.37871
 H752 H 0.65947 0.29580 0.37108
 H753 H 0.66084 0.33176 0.33725
 H754 H 0.64585 0.33955 0.34967
 N755 N 0.68473 0.85348 0.82750
 N756 N 0.67200 0.85795 0.82125
 C757 C 0.67500 0.86994 0.81254
 C758 C 0.69050 0.87297 0.81333
 C759 C 0.69625 0.86224 0.82291
 H760 H 0.66660 0.87584 0.80598
 H761 H 0.70789 0.86107 0.82662
 Cu762 Cu 0.65309 0.84703 0.82483
 Cu763 Cu 0.68560 0.83686 0.84133
 Cu764 Cu 0.65102 0.82368 0.85390
 N765 N 0.63684 0.83208 0.82667
 N766 N 0.63606 0.82292 0.83800
 C767 C 0.62410 0.81351 0.83625
 C768 C 0.61699 0.81693 0.82307
 C769 C 0.62540 0.82883 0.81733
 H770 H 0.62096 0.80474 0.84395
 H771 H 0.62367 0.83438 0.80691
 N772 N 0.67021 0.82058 0.86473
 N773 N 0.68338 0.82530 0.85956
 C774 C 0.69436 0.82239 0.86943
 C775 C 0.68786 0.81545 0.88143
 C776 C 0.67250 0.81433 0.87803
 H777 H 0.70617 0.82552 0.86811
 H778 H 0.66359 0.80986 0.88493
 H779 H 0.66526 0.82544 0.83702
 H780 H 0.66454 0.84282 0.84889
 N781 N 0.16614 0.36751 0.84009
 N782 N 0.15473 0.36618 0.83082
 C783 C 0.15522 0.37770 0.82118
 C784 C 0.16766 0.38678 0.82453
 C785 C 0.17432 0.37995 0.83664
 H786 H 0.14734 0.37910 0.81216
 H787 H 0.18439 0.38366 0.84249
 Cu788 Cu 0.14043 0.34935 0.83184
 Cu789 Cu 0.16933 0.35273 0.85575
 Cu790 Cu 0.15437 0.31740 0.84672
 N791 N 0.12978 0.33006 0.82998
 N792 N 0.13539 0.31755 0.83570
 C793 C 0.12640 0.30573 0.83206
 C794 C 0.11442 0.31108 0.82357
 C795 C 0.11698 0.32664 0.82252
 H796 H 0.12871 0.29407 0.83511
 H797 H 0.11027 0.33486 0.81654
 N798 N 0.16985 0.32044 0.86212
 N799 N 0.17522 0.33391 0.86598
 C800 C 0.18480 0.33218 0.87742
 C801 C 0.18548 0.31684 0.88095
 C802 C 0.17582 0.30980 0.87099
 H803 H 0.19083 0.34143 0.88273
 H804 H 0.17290 0.29785 0.87052
 H805 H 0.16426 0.33775 0.83988
 H806 H 0.14985 0.33866 0.85485
 N807 N 0.17775 0.86204 0.33832
 N808 N 0.16692 0.86292 0.32839
 C809 C 0.17045 0.87376 0.31864
 C810 C 0.18423 0.88015 0.32265
 C811 C 0.18853 0.87249 0.33527
 H812 H 0.16351 0.87668 0.30925
 H813 H 0.19896 0.87399 0.34142
 Cu814 Cu 0.14943 0.84958 0.32874
 Cu815 Cu 0.17750 0.84644 0.35357
 Cu816 Cu 0.14896 0.81912 0.35061
 N817 N 0.13509 0.83317 0.32555
 N818 N 0.13467 0.82134 0.33429
 C819 C 0.12368 0.81176 0.32963
 C820 C 0.11697 0.81790 0.31720
 C821 C 0.12455 0.83150 0.31496
 H822 H 0.12103 0.80098 0.33468
 H823 H 0.12252 0.83962 0.30630
 N824 N 0.16450 0.81900 0.36631
 N825 N 0.17514 0.82955 0.36766
 C826 C 0.18403 0.82615 0.37927
 C827 C 0.17883 0.81276 0.38544
 C828 C 0.16643 0.80859 0.37694
 H829 H 0.19390 0.83262 0.38267
 H830 H 0.15938 0.79863 0.37836
 H831 H 0.16611 0.83110 0.34028
 H832 H 0.15443 0.84180 0.35394
 C833 C 0.25272 1.04775 0.27397
 C834 C 0.26034 1.04826 0.26089
 C835 C 0.26173 1.03334 0.25605
 N836 N 0.25512 1.02375 0.26566
 C837 C 0.24964 1.03253 0.27665
 C838 C 0.26826 1.02891 0.24256
 C839 C 0.27183 1.01362 0.23897
 C840 C 0.27610 1.00858 0.22515
 C841 C 0.27943 0.99334 0.22638
 C842 C 0.27697 0.98944 0.24088
 N843 N 0.27247 1.00188 0.24851
 C844 C 0.27946 0.97478 0.24676
 C845 C 0.27332 0.96989 0.26023
 C846 C 0.27601 0.95578 0.26652
 C847 C 0.26693 0.95498 0.27869
 C848 C 0.25914 0.96869 0.27953
 N849 N 0.26300 0.97774 0.26820
 C850 C 0.24788 0.97215 0.29002
 C851 C 0.24182 0.98693 0.29214
 C852 C 0.22921 0.99026 0.30070
 C853 C 0.22730 1.00579 0.30037
 C854 C 0.23871 1.01153 0.29151
 N855 N 0.24762 1.00000 0.28669
 C856 C 0.24083 1.02714 0.28846
 H857 H 0.24962 1.05749 0.28064
 H858 H 0.26437 1.05847 0.25555
 H859 H 0.25787 1.00120 0.28117
 H860 H 0.27685 1.01522 0.21521
 H861 H 0.28317 0.98595 0.21757
 H862 H 0.28352 0.94688 0.26260
 H863 H 0.26609 0.94539 0.28604
 H864 H 0.21842 1.01213 0.30591
 H865 H 0.27151 1.00261 0.25983
 H866 H 0.22211 0.98232 0.30660
 C867 C 0.23868 0.54165 0.73475
 C868 C 0.22851 0.54155 0.74612
 C869 C 0.23020 0.52764 0.75308
 N870 N 0.24106 0.51926 0.74634
 C871 C 0.24621 0.52778 0.73510
 C872 C 0.22259 0.52341 0.76606
 C873 C 0.22330 0.50865 0.77218
 C874 C 0.21841 0.50498 0.78617
 C875 C 0.22054 0.48957 0.78780
 C876 C 0.22672 0.48423 0.77479
 N877 N 0.22822 0.49590 0.76527
 C878 C 0.23025 0.46878 0.77188
 C879 C 0.23935 0.46393 0.76000
 C880 C 0.24185 0.44885 0.75612
 C881 C 0.25203 0.44895 0.74476
 C882 C 0.25538 0.46410 0.74204
 N883 N 0.24769 0.47323 0.75141
 C884 C 0.26616 0.46913 0.73170
 C885 C 0.26843 0.48459 0.72804
 C886 C 0.28067 0.49000 0.72004
 C887 C 0.27846 0.50540 0.71837
 C888 C 0.26492 0.50898 0.72536
 N889 N 0.25880 0.49620 0.73109
 C890 C 0.25834 0.52368 0.72577
 H891 H 0.24044 0.55094 0.72719
 H892 H 0.22087 0.55075 0.74903
 H893 H 0.24797 0.49517 0.73548
 H894 H 0.21380 0.51262 0.79438
 H895 H 0.21789 0.48304 0.79749
 H896 H 0.23695 0.43880 0.76104
 H897 H 0.25655 0.43901 0.73922
 H898 H 0.28596 0.51308 0.71262
 H899 H 0.23097 0.49497 0.75425
 H900 H 0.29020 0.48353 0.71583
 C901 C 0.74421 -0.04938 0.24150
 C902 C 0.75641 -0.04893 0.25091
 C903 C 0.75813 -0.03385 0.25516
 N904 N 0.74737 -0.02511 0.24874
 C905 C 0.73890 -0.03456 0.24028
 C906 C 0.76905 -0.02857 0.26539
 C907 C 0.77134 -0.01302 0.26879
 C908 C 0.77944 -0.00772 0.28084
 C909 C 0.77973 0.00789 0.27985
 C910 C 0.77187 0.01171 0.26717
 N911 N 0.76685 -0.00112 0.26047
 C912 C 0.77036 0.02669 0.26173
 C913 C 0.76036 0.03071 0.25022
 C914 C 0.76006 0.04479 0.24343
 C915 C 0.74852 0.04424 0.23328
 C916 C 0.74211 0.02986 0.23425
 N917 N 0.74930 0.02165 0.24468
 C918 C 0.72933 0.02487 0.22609
 C919 C 0.72364 0.00983 0.22645
 C920 C 0.70948 0.00545 0.22116
 C921 C 0.70851 -0.01007 0.22291
 C922 C 0.72215 -0.01478 0.22912
 N923 N 0.73133 -0.00257 0.23117
 C924 C 0.72606 -0.03013 0.23195
 H925 H 0.73977 -0.05947 0.23614
 H926 H 0.76317 -0.05861 0.25428
 H927 H 0.74276 -0.00288 0.23403
 H928 H 0.78466 -0.01442 0.28943
 H929 H 0.78525 0.01555 0.28752
 H930 H 0.76740 0.05445 0.24555
 H931 H 0.74519 0.05342 0.22607
 H932 H 0.69890 -0.01710 0.21981
 H933 H 0.76225 -0.00186 0.25001
 H934 H 0.70076 0.01269 0.21650
 C935 C 0.74622 0.45034 0.75173
 C936 C 0.75968 0.44983 0.75933
 C937 C 0.76468 0.46474 0.76070
 N938 N 0.75475 0.47429 0.75409
 C939 C 0.74349 0.46552 0.74849
 C940 C 0.77801 0.46916 0.76836
 C941 C 0.78249 0.48445 0.77085
 C942 C 0.79343 0.48882 0.78101
 C943 C 0.79420 0.50444 0.78061
 C944 C 0.78384 0.50925 0.77008
 N945 N 0.77689 0.49694 0.76405
 C946 C 0.78128 0.52473 0.76640
 C947 C 0.76966 0.52989 0.75684
 C948 C 0.76780 0.54488 0.75248
 C949 C 0.75529 0.54521 0.74349
 C950 C 0.74984 0.53041 0.74265
 N951 N 0.75865 0.52111 0.75083
 C952 C 0.73729 0.52580 0.73394
 C953 C 0.73170 0.51067 0.73292
 C954 C 0.72039 0.50611 0.72321
 C955 C 0.71858 0.49070 0.72493
 C956 C 0.72885 0.48615 0.73564
 N957 N 0.73654 0.49847 0.74071
 C958 C 0.73114 0.47077 0.73983
 H959 H 0.73934 0.44057 0.74878
 H960 H 0.76507 0.43963 0.76348
 H961 H 0.74407 0.49862 0.74945
 H962 H 0.79997 0.48155 0.78822
 H963 H 0.80150 0.51144 0.78743
 H964 H 0.77481 0.55459 0.75534
 H965 H 0.75079 0.55522 0.73809
 H966 H 0.71087 0.48360 0.71864
 H967 H 0.76965 0.49693 0.75506
 H968 H 0.71424 0.51309 0.71543
 C969 C 0.25621 0.55169 0.24540
 C970 C 0.24764 0.55088 0.23283
 C971 C 0.24377 0.53570 0.23091
 N972 N 0.24961 0.52723 0.24191
 C973 C 0.25727 0.53698 0.25075
 C974 C 0.23429 0.53003 0.21961
 C975 C 0.23200 0.51435 0.21692
 C976 C 0.22027 0.50838 0.20847
 C977 C 0.22245 0.49288 0.20794
 C978 C 0.23553 0.48982 0.21597
 N979 N 0.24131 0.50300 0.22136
 C980 C 0.24210 0.47522 0.21762
 C981 C 0.25363 0.47200 0.22795
 C982 C 0.26180 0.45850 0.22858
 C983 C 0.27081 0.45939 0.24085
 C984 C 0.26780 0.47339 0.24732
 N985 N 0.25729 0.48106 0.23943
 C986 C 0.27378 0.47832 0.26091
 C987 C 0.27158 0.49316 0.26656
 C988 C 0.27428 0.49743 0.28099
 C989 C 0.27157 0.51283 0.28187
 C990 C 0.26734 0.51755 0.26795
 N991 N 0.26740 0.50548 0.25868
 C992 C 0.26462 0.53284 0.26394
 H993 H 0.26109 0.56194 0.25006
 H994 H 0.24456 0.56039 0.22592
 H995 H 0.26644 0.50595 0.24734
 H996 H 0.21109 0.51456 0.20324
 H997 H 0.21525 0.48480 0.20221
 H998 H 0.26118 0.44894 0.22107
 H999 H 0.27852 0.45064 0.24468
 H1000 H 0.27272 0.51979 0.29163
 H1001 H 0.25184 0.50439 0.22641
 H1002 H 0.27790 0.49022 0.28993
 C1003 C 0.75305 1.04537 0.76327
 C1004 C 0.76407 1.04558 0.75267
 C1005 C 0.76748 1.03051 0.74944
 N1006 N 0.75900 1.02111 0.75780
 C1007 C 0.75008 1.03018 0.76617
 C1008 C 0.77866 1.02573 0.73931
 C1009 C 0.78069 1.01042 0.73485
 C1010 C 0.79319 1.00502 0.72717
 C1011 C 0.79045 0.98989 0.72417
 C1012 C 0.77633 0.98649 0.73006
 N1013 N 0.77043 0.99910 0.73646
 C1014 C 0.76898 0.97223 0.72872
 C1015 C 0.75585 0.96820 0.73668
 C1016 C 0.74751 0.95500 0.73442
 C1017 C 0.73642 0.95483 0.74495
 C1018 C 0.73842 0.96787 0.75338
 N1019 N 0.75032 0.97601 0.74830
 C1020 C 0.73008 0.97144 0.76618
 C1021 C 0.73118 0.98559 0.77361
 C1022 C 0.72543 0.98850 0.78750
 C1023 C 0.72811 1.00363 0.79048
 C1024 C 0.73556 1.00953 0.77841
 N1025 N 0.73728 0.99851 0.76813
 C1026 C 0.73971 1.02498 0.77682
 H1027 H 0.74781 1.05528 0.76825
 H1028 H 0.76899 1.05569 0.74787
 H1029 H 0.74084 1.00014 0.75742
 H1030 H 0.80319 1.01135 0.72396
 H1031 H 0.79795 0.98231 0.71820
 H1032 H 0.74932 0.94633 0.72613
 H1033 H 0.72797 0.94600 0.74635
 H1034 H 0.72493 1.00962 0.80040
 H1035 H 0.75935 1.00038 0.74019
 H1036 H 0.71980 0.98057 0.79473
 C1037 C 0.75672 0.54459 0.27250
 C1038 C 0.76725 0.54441 0.26144
 C1039 C 0.76737 0.52971 0.25580
 N1040 N 0.75722 0.52096 0.26300
 C1041 C 0.75077 0.53001 0.27328
 C1042 C 0.77624 0.52484 0.24376
 C1043 C 0.77752 0.50944 0.23931
 C1044 C 0.78361 0.50461 0.22607
 C1045 C 0.78372 0.48896 0.22631
 C1046 C 0.77766 0.48464 0.23967
 N1047 N 0.77398 0.49719 0.24756
 C1048 C 0.77649 0.46943 0.24452
 C1049 C 0.76772 0.46493 0.25668
 C1050 C 0.76742 0.45034 0.26238
 C1051 C 0.75695 0.45051 0.27350
 C1052 C 0.75116 0.46520 0.27419
 N1053 N 0.75770 0.47396 0.26384
 C1054 C 0.73943 0.47002 0.28371
 C1055 C 0.73472 0.48536 0.28521
 C1056 C 0.72152 0.49003 0.29223
 C1057 C 0.72141 0.50569 0.29199
 C1058 C 0.73454 0.51018 0.28481
 N1059 N 0.74263 0.49773 0.28079
 C1060 C 0.73910 0.52549 0.28294
 H1061 H 0.75379 0.55436 0.27921
 H1062 H 0.77403 0.55400 0.25795
 H1063 H 0.75367 0.49771 0.27680
 H1064 H 0.78766 0.51164 0.21720
 H1065 H 0.78791 0.48159 0.21767
 H1066 H 0.77398 0.44056 0.25884
 H1067 H 0.75387 0.44089 0.28023
 H1068 H 0.71270 0.51294 0.29665
 H1069 H 0.77096 0.49742 0.25854
 H1070 H 0.71288 0.48289 0.29710
 C1071 C 0.24961 -0.04747 0.74461
 C1072 C 0.26125 -0.04771 0.75465
 C1073 C 0.26550 -0.03269 0.75700
 N1074 N 0.25682 -0.02330 0.74876
 C1075 C 0.24702 -0.03229 0.74126
 C1076 C 0.27793 -0.02802 0.76578
 C1077 C 0.28192 -0.01262 0.76816
 C1078 C 0.29583 -0.00775 0.77363
 C1079 C 0.29512 0.00788 0.77453
 C1080 C 0.28075 0.01214 0.76966
 N1081 N 0.27274 -0.00046 0.76595
 C1082 C 0.27518 0.02727 0.76960
 C1083 C 0.26116 0.03166 0.76322
 C1084 C 0.25456 0.04594 0.76472
 C1085 C 0.24175 0.04592 0.75609
 C1086 C 0.24106 0.03173 0.74941
 N1087 N 0.25293 0.02305 0.75378
 C1088 C 0.23035 0.02751 0.73851
 C1089 C 0.22960 0.01274 0.73226
 C1090 C 0.22208 0.00917 0.71931
 C1091 C 0.22394 -0.00620 0.71703
 C1092 C 0.23254 -0.01164 0.72866
 N1093 N 0.23579 -0.00005 0.73799
 C1094 C 0.23650 -0.02712 0.73065
 H1095 H 0.24381 -0.05735 0.74017
 H1096 H 0.26622 -0.05782 0.75944
 H1097 H 0.24064 -0.00104 0.74832
 H1098 H 0.30552 -0.01472 0.77660
 H1099 H 0.30414 0.01523 0.77848
 H1100 H 0.25860 0.05546 0.77122
 H1101 H 0.23402 0.05542 0.75467
 H1102 H 0.21943 -0.01264 0.70785
 H1103 H 0.26121 -0.00089 0.76350
 H1104 H 0.21597 0.01687 0.71215
 C1105 C 0.25823 0.27218 1.04597
 C1106 C 0.26861 0.26050 1.04571
 C1107 C 0.26964 0.25569 1.03126
 N1108 N 0.26016 0.26395 1.02270
 C1109 C 0.25323 0.27410 1.03167
 C1110 C 0.27871 0.24342 1.02629
 C1111 C 0.28130 0.24027 1.01129
 C1112 C 0.28751 0.22684 1.00591
 C1113 C 0.28919 0.22867 0.99104
 C1114 C 0.28398 0.24317 0.98775
 N1115 N 0.27924 0.25019 1.00016
 C1116 C 0.28434 0.24979 0.97366
 C1117 C 0.27594 0.26296 0.96997
 C1118 C 0.27714 0.27073 0.95684
 C1119 C 0.26607 0.28176 0.95698
 C1120 C 0.25852 0.28040 0.97022
 N1121 N 0.26456 0.26890 0.97814
 C1122 C 0.24548 0.28884 0.97426
 C1123 C 0.23968 0.28913 0.98871
 C1124 C 0.22569 0.29518 0.99270
 C1125 C 0.22472 0.29407 1.00770
 C1126 C 0.23806 0.28720 1.01245
 N1127 N 0.24716 0.28433 1.00084
 C1128 C 0.24181 0.28447 1.02726
 H1129 H 0.25472 0.27849 1.05560
 H1130 H 0.27471 0.25608 1.05509
 H1131 H 0.25845 0.28083 1.00138
 H1132 H 0.29059 0.21679 1.01208
 H1133 H 0.29378 0.22028 0.98353
 H1134 H 0.28502 0.26854 0.94798
 H1135 H 0.26374 0.28976 0.94827
 H1136 H 0.21525 0.29784 1.01436
 H1137 H 0.27642 0.26164 1.00122
 H1138 H 0.21709 0.30000 0.98558
 C1139 C 0.25477 0.76173 0.54696
 C1140 C 0.26739 0.75255 0.54673
 C1141 C 0.26940 0.74801 0.53230
 N1142 N 0.25846 0.75415 0.52370
 C1143 C 0.24954 0.76261 0.53264
 C1144 C 0.28059 0.73756 0.52747
 C1145 C 0.28318 0.73412 0.51252
 C1146 C 0.29136 0.72165 0.50751
 C1147 C 0.29163 0.72258 0.49247
 C1148 C 0.28368 0.73566 0.48869
 N1149 N 0.27865 0.74268 0.50100
 C1150 C 0.28191 0.74109 0.47420
 C1151 C 0.27172 0.75287 0.47026
 C1152 C 0.27122 0.75977 0.45664
 C1153 C 0.25935 0.76992 0.45700
 C1154 C 0.25294 0.76886 0.47082
 N1155 N 0.26048 0.75838 0.47889
 C1156 C 0.23978 0.77683 0.47540
 C1157 C 0.23400 0.77633 0.48983
 C1158 C 0.21955 0.78109 0.49387
 C1159 C 0.21850 0.77915 0.50879
 C1160 C 0.23238 0.77336 0.51347
 N1161 N 0.24179 0.77179 0.50185
 C1162 C 0.23622 0.77042 0.52826
 H1163 H 0.24997 0.76714 0.55658
 H1164 H 0.27421 0.74946 0.55616
 H1165 H 0.25333 0.76931 0.50229
 H1166 H 0.29655 0.71275 0.51400
 H1167 H 0.29712 0.71455 0.48516
 H1168 H 0.27861 0.75767 0.44737
 H1169 H 0.25576 0.77714 0.44805
 H1170 H 0.20866 0.78182 0.51544
 H1171 H 0.27384 0.75347 0.50162
 H1172 H 0.21068 0.78548 0.48680
 C1173 C 0.25342 0.76273 0.04748
 C1174 C 0.24014 0.75455 0.04691
 C1175 C 0.23784 0.75063 0.03234
 N1176 N 0.24924 0.75613 0.02400
 C1177 C 0.25873 0.76361 0.03322
 C1178 C 0.22590 0.74129 0.02711
 C1179 C 0.22325 0.73849 0.01208
 C1180 C 0.21474 0.72647 0.00656
 C1181 C 0.21445 0.72807 -0.00842
 C1182 C 0.22261 0.74116 -0.01162
 N1183 N 0.22792 0.74745 0.00097
 C1184 C 0.22431 0.74737 -0.02579
 C1185 C 0.23469 0.75915 -0.02896
 C1186 C 0.23485 0.76744 -0.04184
 C1187 C 0.24732 0.77678 -0.04108
 C1188 C 0.25443 0.77381 -0.02781
 N1189 N 0.24668 0.76304 -0.02041
 C1190 C 0.26852 0.78005 -0.02329
 C1191 C 0.27461 0.77805 -0.00906
 C1192 C 0.28955 0.78105 -0.00508
 C1193 C 0.29070 0.77830 0.00972
 C1194 C 0.27641 0.77370 0.01436
 N1195 N 0.26666 0.77367 0.00286
 C1196 C 0.27251 0.77062 0.02907
 H1197 H 0.25857 0.76749 0.05727
 H1198 H 0.23307 0.75172 0.05620
 H1199 H 0.25492 0.77239 0.00341
 H1200 H 0.20936 0.71745 0.01269
 H1201 H 0.20876 0.72050 -0.01606
 H1202 H 0.22687 0.76673 -0.05088
 H1203 H 0.25085 0.78471 -0.04945
 H1204 H 0.30086 0.77964 0.01633
 H1205 H 0.23298 0.75809 0.00209
 H1206 H 0.29869 0.78487 -0.01208
 C1207 C 0.25886 0.22614 0.45454
 C1208 C 0.27027 0.23677 0.45412
 C1209 C 0.26928 0.24513 0.46702
 N1210 N 0.25771 0.23992 0.47531
 C1211 C 0.25135 0.22830 0.46771
 C1212 C 0.27809 0.25817 0.47032
 C1213 C 0.27813 0.26539 0.48423
 C1214 C 0.28428 0.27964 0.48712
 C1215 C 0.28252 0.28231 0.50188
 C1216 C 0.27521 0.26969 0.50759
 N1217 N 0.27275 0.25935 0.49680
 C1218 C 0.27168 0.26772 0.52256
 C1219 C 0.26144 0.25662 0.52775
 C1220 C 0.25869 0.25367 0.54241
 C1221 C 0.24723 0.24311 0.54282
 C1222 C 0.24329 0.24001 0.52839
 N1223 N 0.25194 0.24833 0.51920
 C1224 C 0.23125 0.23034 0.52399
 C1225 C 0.22843 0.22610 0.50928
 C1226 C 0.21521 0.21912 0.50433
 C1227 C 0.21714 0.21631 0.48962
 C1228 C 0.23149 0.22164 0.48599
 N1229 N 0.23835 0.22745 0.49806
 C1230 C 0.23808 0.22044 0.47193
 H1231 H 0.25626 0.21790 0.44603
 H1232 H 0.27822 0.23833 0.44522
 H1233 H 0.24968 0.23068 0.49893
 H1234 H 0.28951 0.28735 0.47941
 H1235 H 0.28619 0.29243 0.50771
 H1236 H 0.26422 0.25875 0.55186
 H1237 H 0.24225 0.23839 0.55263
 H1238 H 0.20893 0.21089 0.48243
 H1239 H 0.26902 0.24823 0.49823
 H1240 H 0.20521 0.21631 0.51066
 C1241 C 0.76007 0.76921 1.04098
 C1242 C 0.77150 0.75859 1.04164
 C1243 C 0.76993 0.74942 1.02933
 N1244 N 0.75793 0.75406 1.02118
 C1245 C 0.75187 0.76615 1.02830
 C1246 C 0.77865 0.73621 1.02648
 C1247 C 0.77855 0.72859 1.01277
 C1248 C 0.78484 0.71433 1.01016
 C1249 C 0.78303 0.71135 0.99544
 C1250 C 0.77552 0.72378 0.98950
 N1251 N 0.77298 0.73430 1.00009
 C1252 C 0.77186 0.72542 0.97451
 C1253 C 0.76125 0.73614 0.96915
 C1254 C 0.75823 0.73864 0.95443
 C1255 C 0.74654 0.74899 0.95386
 C1256 C 0.74282 0.75249 0.96824
 N1257 N 0.75174 0.74452 0.97756
 C1258 C 0.73070 0.76210 0.97250
 C1259 C 0.72790 0.76648 0.98716
 C1260 C 0.71460 0.77329 0.99207
 C1261 C 0.71671 0.77648 1.00671
 C1262 C 0.73130 0.77170 1.01030
 N1263 N 0.73806 0.76569 0.99829
 C1264 C 0.73824 0.77359 1.02420
 H1265 H 0.75790 0.77803 1.04904
 H1266 H 0.77990 0.75762 1.05030
 H1267 H 0.74949 0.76280 0.99736
 H1268 H 0.79024 0.70685 1.01801
 H1269 H 0.78677 0.70116 0.98977
 H1270 H 0.76371 0.73339 0.94508
 H1271 H 0.74125 0.75326 0.94397
 H1272 H 0.70844 0.78182 1.01385
 H1273 H 0.76912 0.74535 0.99843
 H1274 H 0.70445 0.77575 0.98577
 C1275 C 0.74997 0.26136 0.54194
 C1276 C 0.76212 0.25156 0.54148
 C1277 C 0.76273 0.24581 0.52730
 N1278 N 0.75152 0.25197 0.51906
 C1279 C 0.74376 0.26152 0.52798
 C1280 C 0.77263 0.23411 0.52251
 C1281 C 0.77342 0.22934 0.50773
 C1282 C 0.77897 0.21538 0.50300
 C1283 C 0.77792 0.21531 0.48795
 C1284 C 0.77195 0.22932 0.48392
 N1285 N 0.76933 0.23783 0.49605
 C1286 C 0.76974 0.23418 0.46932
 C1287 C 0.76198 0.24771 0.46566
 C1288 C 0.76244 0.25462 0.45206
 C1289 C 0.75249 0.26665 0.45265
 C1290 C 0.74608 0.26651 0.46652
 N1291 N 0.75195 0.25495 0.47447
 C1292 C 0.73390 0.27589 0.47112
 C1293 C 0.72825 0.27583 0.48559
 C1294 C 0.71401 0.28111 0.48972
 C1295 C 0.71294 0.27905 0.50462
 C1296 C 0.72664 0.27275 0.50919
 N1297 N 0.73593 0.27092 0.49752
 C1298 C 0.73056 0.26965 0.52392
 H1299 H 0.74615 0.26770 0.55146
 H1300 H 0.76947 0.24880 0.55063
 H1301 H 0.74738 0.26792 0.49783
 H1302 H 0.78316 0.20614 0.50971
 H1303 H 0.78128 0.20603 0.48081
 H1304 H 0.76918 0.25126 0.44267
 H1305 H 0.74998 0.27436 0.44375
 H1306 H 0.70322 0.28197 0.51132
 H1307 H 0.76635 0.24929 0.49636
 H1308 H 0.70523 0.28578 0.48271
 C1309 C 0.72055 0.25006 0.03953
 C1310 C 0.72984 0.26257 0.04039
 C1311 C 0.73820 0.26282 0.02754
 N1312 N 0.73435 0.25089 0.01889
 C1313 C 0.72354 0.24309 0.02618
 C1314 C 0.75000 0.27323 0.02450
 C1315 C 0.75665 0.27469 0.01049
 C1316 C 0.76995 0.28262 0.00760
 C1317 C 0.77210 0.28203 -0.00731
 C1318 C 0.76013 0.27363 -0.01310
 N1319 N 0.75071 0.26929 -0.00221
 C1320 C 0.75780 0.27083 -0.02819
 C1321 C 0.74819 0.25919 -0.03361
 C1322 C 0.74445 0.25705 -0.04824
 C1323 C 0.73588 0.24402 -0.04899
 C1324 C 0.73462 0.23867 -0.03478
 N1325 N 0.74222 0.24792 -0.02540
 C1326 C 0.72712 0.22508 -0.03079
 C1327 C 0.72384 0.22119 -0.01611
 C1328 C 0.71881 0.20701 -0.01158
 C1329 C 0.71588 0.20819 0.00319
 C1330 C 0.71926 0.22304 0.00727
 N1331 N 0.72401 0.23091 -0.00457
 C1332 C 0.71717 0.22915 0.02146
 H1333 H 0.71263 0.24640 0.04787
 H1334 H 0.73047 0.27049 0.04950
 H1335 H 0.72556 0.24262 -0.00506
 H1336 H 0.77734 0.28831 0.01539
 H1337 H 0.78143 0.28715 -0.01322
 H1338 H 0.74764 0.26407 -0.05744
 H1339 H 0.73110 0.23908 -0.05887
 H1340 H 0.71166 0.19917 0.01011
 H1341 H 0.74005 0.26436 -0.00359
 H1342 H 0.71726 0.19689 -0.01824
 C1343 C 0.73184 0.75637 0.55094
 C1344 C 0.74204 0.76818 0.55127
 C1345 C 0.74817 0.76916 0.53733
 N1346 N 0.74214 0.75829 0.52854
 C1347 C 0.73208 0.75052 0.53680
 C1348 C 0.75972 0.77946 0.53318
 C1349 C 0.76463 0.78134 0.51855
 C1350 C 0.77783 0.78886 0.51450
 C1351 C 0.77815 0.78888 0.49943
 C1352 C 0.76515 0.78138 0.49468
 N1353 N 0.75693 0.77689 0.50641
 C1354 C 0.76080 0.77967 0.47983
 C1355 C 0.74917 0.76973 0.47500
 C1356 C 0.74331 0.76929 0.46088
 C1357 C 0.73275 0.75780 0.46056
 C1358 C 0.73255 0.75156 0.47448
 N1359 N 0.74267 0.75880 0.48326
 C1360 C 0.72360 0.73897 0.47867
 C1361 C 0.72259 0.73372 0.49325
 C1362 C 0.71658 0.71976 0.49727
 C1363 C 0.71661 0.71942 0.51233
 C1364 C 0.72260 0.73320 0.51710
 N1365 N 0.72620 0.74185 0.50539
 C1366 C 0.72352 0.73784 0.53193
 H1367 H 0.72503 0.75253 0.56006
 H1368 H 0.74465 0.77522 0.56071
 H1369 H 0.72908 0.75331 0.50567
 H1370 H 0.78632 0.79389 0.52165
 H1371 H 0.78692 0.79394 0.49273
 H1372 H 0.74630 0.77652 0.45176
 H1373 H 0.72602 0.75442 0.45113
 H1374 H 0.71249 0.71016 0.51901
 H1375 H 0.74592 0.77262 0.50614
 H1376 H 0.71245 0.71081 0.49009
 C1377 C 1.04263 0.25875 0.26000
 C1378 C 1.04230 0.26671 0.24711
 C1379 C 1.02720 0.26727 0.24267
 N1380 N 1.01834 0.25977 0.25231
 C1381 C 1.02773 0.25461 0.26294
 C1382 C 1.02201 0.27393 0.22951
 C1383 C 1.00649 0.27655 0.22622
 C1384 C 1.00103 0.28114 0.21266
 C1385 C 0.98558 0.28319 0.21412
 C1386 C 0.98201 0.27974 0.22852
 N1387 N 0.99483 0.27585 0.23585
 C1388 C 0.96726 0.28074 0.23462
 C1389 C 0.96315 0.27382 0.24800
 C1390 C 0.94911 0.27542 0.25476
 C1391 C 0.94925 0.26593 0.26666
 C1392 C 0.96341 0.25899 0.26686
 N1393 N 0.97186 0.26376 0.25542
 C1394 C 0.96796 0.24776 0.27699
 C1395 C 0.98316 0.24271 0.27858
 C1396 C 0.98761 0.23020 0.28679
 C1397 C 1.00324 0.22964 0.28632
 C1398 C 1.00788 0.24171 0.27769
 N1399 N 0.99561 0.24970 0.27313
 C1400 C 1.02320 0.24534 0.27473
 H1401 H 1.05271 0.25612 0.26636
 H1402 H 1.05207 0.27151 0.24162
 H1403 H 0.99587 0.26021 0.26797
 H1404 H 1.00752 0.28293 0.20275
 H1405 H 0.97785 0.28677 0.20554
 H1406 H 0.93967 0.28252 0.25139
 H1407 H 0.93998 0.26431 0.27428
 H1408 H 1.01036 0.22124 0.29165
 H1409 H 0.99577 0.27438 0.24709
 H1410 H 0.98038 0.22233 0.29263
 C1411 C 0.54688 0.26539 0.76880
 C1412 C 0.54716 0.27558 0.75745
 C1413 C 0.53270 0.27559 0.75133
 N1414 N 0.52362 0.26574 0.75854
 C1415 C 0.53222 0.25960 0.76930
 C1416 C 0.52842 0.28384 0.73871
 C1417 C 0.51352 0.28384 0.73280
 C1418 C 0.50977 0.28874 0.71882
 C1419 C 0.49425 0.28719 0.71738
 C1420 C 0.48891 0.28152 0.73056
 N1421 N 0.50072 0.27964 0.73993
 C1422 C 0.47336 0.27899 0.73379
 C1423 C 0.46813 0.27158 0.74653
 C1424 C 0.45306 0.27111 0.75096
 C1425 C 0.45264 0.26234 0.76335
 C1426 C 0.46744 0.25761 0.76600
 N1427 N 0.47688 0.26323 0.75568
 C1428 C 0.47186 0.24755 0.77729
 C1429 C 0.48717 0.24344 0.78006
 C1430 C 0.49164 0.23104 0.78838
 C1431 C 0.50728 0.23115 0.78876
 C1432 C 0.51195 0.24368 0.78073
 N1433 N 0.49961 0.25118 0.77557
 C1434 C 0.52730 0.24823 0.77909
 H1435 H 0.55639 0.26251 0.77583
 H1436 H 0.55697 0.28204 0.75396
 H1437 H 0.49960 0.26181 0.77066
 H1438 H 0.51742 0.29294 0.71050
 H1439 H 0.48765 0.29005 0.70774
 H1440 H 0.44337 0.27653 0.74580
 H1441 H 0.44255 0.25964 0.76959
 H1442 H 0.51439 0.22297 0.79441
 H1443 H 0.49993 0.27718 0.75100
 H1444 H 0.48439 0.22272 0.79359
 C1445 C 0.04705 0.25663 0.74523
 C1446 C 0.04747 0.24354 0.73699
 C1447 C 0.03271 0.23796 0.73651
 N1448 N 0.02334 0.24714 0.74430
 C1449 C 0.03207 0.25860 0.74957
 C1450 C 0.02836 0.22412 0.72973
 C1451 C 0.01308 0.21929 0.72828
 C1452 C 0.00861 0.20476 0.72406
 C1453 C -0.00704 0.20492 0.72317
 C1454 C -0.01169 0.21956 0.72680
 N1455 N 0.00065 0.22827 0.72974
 C1456 C -0.02696 0.22470 0.72648
 C1457 C -0.03176 0.23892 0.73213
 C1458 C -0.04627 0.24490 0.73046
 C1459 C -0.04665 0.25819 0.73841
 C1460 C -0.03239 0.25986 0.74477
 N1461 N -0.02332 0.24806 0.74092
 C1462 C -0.02841 0.27140 0.75493
 C1463 C -0.01336 0.27365 0.76011
 C1464 C -0.00952 0.28238 0.77228
 C1465 C 0.00608 0.28205 0.77343
 C1466 C 0.01136 0.27309 0.76197
 N1467 N -0.00055 0.26810 0.75383
 C1468 C 0.02691 0.27029 0.75902
 H1469 H 0.05670 0.26382 0.74783
 H1470 H 0.05753 0.23862 0.73204
 H1471 H 0.00014 0.26255 0.74377
 H1472 H 0.01586 0.19510 0.72169
 H1473 H -0.01414 0.19541 0.71995
 H1474 H -0.05567 0.24010 0.72428
 H1475 H -0.05639 0.26566 0.73955
 H1476 H 0.01276 0.28772 0.78182
 H1477 H 0.00070 0.24002 0.73101
 H1478 H -0.01715 0.28833 0.77963
 C1479 C 0.44692 0.23054 0.25531
 C1480 C 0.44701 0.24206 0.26553
 C1481 C 0.46108 0.24909 0.26450
 N1482 N 0.46955 0.24228 0.25401
 C1483 C 0.46099 0.23085 0.24847
 C1484 C 0.46546 0.26221 0.27247
 C1485 C 0.47993 0.26911 0.27133
 C1486 C 0.48340 0.28364 0.27632
 C1487 C 0.49864 0.28587 0.27370
 C1488 C 0.50409 0.27260 0.26729
 N1489 N 0.49263 0.26242 0.26596
 C1490 C 0.51954 0.26986 0.26385
 C1491 C 0.52467 0.25723 0.25556
 C1492 C 0.53979 0.25297 0.25408
 C1493 C 0.53997 0.24043 0.24507
 C1494 C 0.52497 0.23750 0.24127
 N1495 N 0.51565 0.24785 0.24760
 C1496 C 0.52020 0.22580 0.23162
 C1497 C 0.50478 0.22243 0.22868
 C1498 C 0.49971 0.21373 0.21694
 C1499 C 0.48417 0.21257 0.21832
 C1500 C 0.48020 0.22049 0.23094
 N1501 N 0.49287 0.22637 0.23724
 C1502 C 0.46530 0.22128 0.23672
 H1503 H 0.43753 0.22290 0.25310
 H1504 H 0.43768 0.24508 0.27270
 H1505 H 0.49361 0.23123 0.24759
 H1506 H 0.47577 0.29179 0.28138
 H1507 H 0.50502 0.29605 0.27641
 H1508 H 0.54966 0.25826 0.25906
 H1509 H 0.55002 0.23422 0.24168
 H1510 H 0.47669 0.20639 0.21096
 H1511 H 0.49377 0.25101 0.26319
 H1512 H 0.50650 0.20874 0.20828
 C1513 C 1.05397 0.72250 0.72216
 C1514 C 1.05352 0.71223 0.73343
 C1515 C 1.03872 0.71230 0.73863
 N1516 N 1.03017 0.72237 0.73104
 C1517 C 1.03946 0.72861 0.72094
 C1518 C 1.03364 0.70388 0.75081
 C1519 C 1.01819 0.70260 0.75490
 C1520 C 1.01319 0.69649 0.76802
 C1521 C 0.99755 0.69660 0.76755
 C1522 C 0.99340 0.70282 0.75417
 N1523 N 1.00605 0.70630 0.74647
 C1524 C 0.97823 0.70458 0.74927
 C1525 C 0.97398 0.71388 0.73735
 C1526 C 0.95932 0.71512 0.73182
 C1527 C 0.95979 0.72600 0.72109
 C1528 C 0.97473 0.73100 0.72040
 N1529 N 0.98336 0.72364 0.73040
 C1530 C 0.97991 0.74284 0.71128
 C1531 C 0.99540 0.74676 0.70957
 C1532 C 1.00049 0.75994 0.70286
 C1533 C 1.01612 0.75927 0.70284
 C1534 C 1.02018 0.74569 0.70952
 N1535 N 1.00747 0.73807 0.71348
 C1536 C 1.03532 0.74051 0.71132
 H1537 H 1.06391 0.72529 0.71574
 H1538 H 1.06302 0.70555 0.73740
 H1539 H 1.00702 0.72693 0.71722
 H1540 H 1.02010 0.69231 0.77699
 H1541 H 0.99008 0.69258 0.77610
 H1542 H 0.94929 0.70898 0.73528
 H1543 H 0.95020 0.72988 0.71463
 H1544 H 1.02364 0.76785 0.69843
 H1545 H 1.00637 0.70949 0.73554
 H1546 H 0.99366 0.76909 0.69842
 C1547 C 0.45314 0.75629 0.26788
 C1548 C 0.45241 0.76519 0.25559
 C1549 C 0.46683 0.76507 0.24948
 N1550 N 0.47629 0.75627 0.25752
 C1551 C 0.46795 0.75090 0.26879
 C1552 C 0.47078 0.77224 0.23620
 C1553 C 0.48602 0.77460 0.23176
 C1554 C 0.49036 0.77970 0.21802
 C1555 C 0.50593 0.78140 0.21837
 C1556 C 0.51069 0.77710 0.23224
 N1557 N 0.49850 0.77312 0.24037
 C1558 C 0.52595 0.77729 0.23715
 C1559 C 0.53108 0.76862 0.24921
 C1560 C 0.54577 0.76885 0.25484
 C1561 C 0.54651 0.75760 0.26519
 C1562 C 0.53218 0.75109 0.26575
 N1563 N 0.52279 0.75777 0.25595
 C1564 C 0.52831 0.73845 0.27446
 C1565 C 0.51312 0.73435 0.27765
 C1566 C 0.50882 0.72124 0.28498
 C1567 C 0.49326 0.72189 0.28659
 C1568 C 0.48847 0.73525 0.27998
 N1569 N 0.50063 0.74288 0.27475
 C1570 C 0.47320 0.74022 0.27919
 H1571 H 0.44376 0.75384 0.27517
 H1572 H 0.44240 0.77107 0.25158
 H1573 H 0.50048 0.75392 0.27071
 H1574 H 0.48309 0.78204 0.20870
 H1575 H 0.51295 0.78518 0.20937
 H1576 H 0.55510 0.77615 0.25164
 H1577 H 0.55645 0.75454 0.27158
 H1578 H 0.48626 0.71340 0.29184
 H1579 H 0.49861 0.77104 0.25158
 H1580 H 0.51612 0.71218 0.28888
 C1581 C -0.05196 0.75232 0.26147
 C1582 C -0.05254 0.74392 0.24877
 C1583 C -0.03778 0.74313 0.24351
 N1584 N -0.02825 0.75091 0.25246
 C1585 C -0.03688 0.75646 0.26351
 C1586 C -0.03347 0.73576 0.23036
 C1587 C -0.01817 0.73312 0.22627
 C1588 C -0.01361 0.72797 0.21257
 C1589 C 0.00187 0.72578 0.21330
 C1590 C 0.00637 0.72972 0.22739
 N1591 N -0.00593 0.73409 0.23524
 C1592 C 0.02139 0.72841 0.23282
 C1593 C 0.02653 0.73545 0.24589
 C1594 C 0.04092 0.73358 0.25191
 C1595 C 0.04161 0.74289 0.26400
 C1596 C 0.02760 0.75007 0.26503
 N1597 N 0.01845 0.74561 0.25388
 C1598 C 0.02376 0.76106 0.27576
 C1599 C 0.00884 0.76673 0.27785
 C1600 C 0.00520 0.77914 0.28663
 C1601 C -0.01040 0.78044 0.28649
 C1602 C -0.01587 0.76884 0.27757
 N1603 N -0.00409 0.76048 0.27242
 C1604 C -0.03147 0.76581 0.27505
 H1605 H -0.06157 0.75509 0.26838
 H1606 H -0.06267 0.73891 0.24400
 H1607 H -0.00496 0.75012 0.26696
 H1608 H -0.02073 0.72582 0.20308
 H1609 H 0.00901 0.72168 0.20447
 H1610 H 0.05002 0.72634 0.24796
 H1611 H 0.05133 0.74421 0.27123
 H1612 H -0.01697 0.78895 0.29233
 H1613 H -0.00618 0.73585 0.24649
 H1614 H 0.01297 0.78644 0.29264
 C1615 C 0.54816 0.76853 0.74332
 C1616 C 0.54814 0.75593 0.73438
 C1617 C 0.53307 0.75156 0.73272
 N1618 N 0.52391 0.76099 0.74045
 C1619 C 0.53311 0.77140 0.74689
 C1620 C 0.52816 0.73857 0.72483
 C1621 C 0.51276 0.73561 0.72120
 C1622 C 0.50745 0.72201 0.71530
 C1623 C 0.49214 0.72391 0.71268
 C1624 C 0.48847 0.73857 0.71716
 N1625 N 0.50113 0.74568 0.72217
 C1626 C 0.47377 0.74507 0.71617
 C1627 C 0.46935 0.75836 0.72383
 C1628 C 0.45518 0.76522 0.72270
 C1629 C 0.45497 0.77686 0.73277
 C1630 C 0.46905 0.77678 0.73967
 N1631 N 0.47779 0.76543 0.73423
 C1632 C 0.47314 0.78637 0.75152
 C1633 C 0.48810 0.78759 0.75719
 C1634 C 0.49193 0.79514 0.77009
 C1635 C 0.50749 0.79428 0.77149
 C1636 C 0.51274 0.78610 0.75950
 N1637 N 0.50089 0.78223 0.75075
 C1638 C 0.52822 0.78285 0.75674
 H1639 H 0.55814 0.77475 0.74690
 H1640 H 0.55810 0.75058 0.72965
 H1641 H 0.50168 0.77754 0.74031
 H1642 H 0.51394 0.71179 0.71304
 H1643 H 0.48456 0.71542 0.70808
 H1644 H 0.44585 0.76199 0.71556
 H1645 H 0.44548 0.78442 0.73489
 H1646 H 0.51416 0.79901 0.78040
 H1647 H 0.50207 0.75718 0.72470
 H1648 H 0.48431 0.80073 0.77771
 C1649 C 0.39918 0.30679 0.31228
 C1650 C 0.41041 0.30016 0.30336
 C1651 C 0.41123 0.30410 0.28838
 C1652 C 0.40093 0.31470 0.28261
 C1653 C 0.38988 0.32131 0.29156
 C1654 C 0.38884 0.31741 0.30645
 C1655 C 0.42229 0.29740 0.27938
 C1656 C 0.43263 0.28685 0.28518
 C1657 C 0.43196 0.28301 0.30021
 C1658 C 0.42083 0.28966 0.30920
 C1659 C 0.44243 0.27254 0.30599
 C1660 C 0.45341 0.26588 0.29695
 C1661 C 0.45401 0.26956 0.28204
 C1662 C 0.44365 0.28004 0.27617
 H1663 H 0.39860 0.30378 0.32377
 H1664 H 0.40139 0.31784 0.27115
 H1665 H 0.38199 0.32931 0.28670
 H1666 H 0.42285 0.30039 0.26787
 H1667 H 0.42026 0.28666 0.32070
 H1668 H 0.44210 0.26948 0.31747
 H1669 H 0.46139 0.25777 0.30153
 H1670 H 0.44419 0.28284 0.26462
 C1671 C 0.40330 0.81662 0.79763
 C1672 C 0.41505 0.80916 0.79002
 C1673 C 0.41658 0.79318 0.79110
 C1674 C 0.40643 0.78495 0.79975
 C1675 C 0.39487 0.79242 0.80737
 C1676 C 0.39308 0.80836 0.80648
 C1677 C 0.42826 0.78565 0.78357
 C1678 C 0.43857 0.79390 0.77505
 C1679 C 0.43716 0.80991 0.77398
 C1680 C 0.42537 0.81744 0.78144
 C1681 C 0.44763 0.81810 0.76551
 C1682 C 0.45938 0.81048 0.75819
 C1683 C 0.46074 0.79460 0.75920
 C1684 C 0.45032 0.78637 0.76762
 H1685 H 0.40235 0.82886 0.79671
 H1686 H 0.40744 0.77269 0.80067
 H1687 H 0.38734 0.78549 0.81387
 H1688 H 0.42939 0.77338 0.78440
 H1689 H 0.42427 0.82971 0.78062
 H1690 H 0.44675 0.83037 0.76458
 H1691 H 0.46739 0.81693 0.75170
 H1692 H 0.45146 0.77410 0.76841
 C1693 C -0.09767 0.30802 0.79790
 C1694 C -0.08647 0.29949 0.79045
 C1695 C -0.08608 0.28346 0.79200
 C1696 C -0.09688 0.27621 0.80074
 C1697 C -0.10777 0.28472 0.80822
 C1698 C -0.10818 0.30068 0.80707
 C1699 C -0.07476 0.27490 0.78500
 C1700 C -0.06366 0.28211 0.77654
 C1701 C -0.06403 0.29811 0.77482
 C1702 C -0.07548 0.30671 0.78174
 C1703 C -0.05280 0.30520 0.76633
 C1704 C -0.04129 0.29654 0.75974
 C1705 C -0.04084 0.28067 0.76152
 C1706 C -0.05208 0.27353 0.76992
 H1707 H -0.09786 0.32032 0.79697
 H1708 H -0.09679 0.26394 0.80197
 H1709 H -0.11589 0.27874 0.81497
 H1710 H -0.07446 0.26262 0.78630
 H1711 H -0.07571 0.31899 0.78051
 H1712 H -0.05286 0.31744 0.76487
 H1713 H -0.03266 0.30220 0.75331
 H1714 H -0.05167 0.26129 0.77140
 C1715 C -0.09728 0.80908 0.31694
 C1716 C -0.08590 0.80310 0.30780
 C1717 C -0.08450 0.80845 0.29328
 C1718 C -0.09438 0.81983 0.28822
 C1719 C -0.10561 0.82579 0.29741
 C1720 C -0.10726 0.82042 0.31181
 C1721 C -0.07333 0.80229 0.28403
 C1722 C -0.06350 0.79088 0.28913
 C1723 C -0.06475 0.78568 0.30374
 C1724 C -0.07595 0.79182 0.31297
 C1725 C -0.05483 0.77434 0.30885
 C1726 C -0.04390 0.76806 0.29953
 C1727 C -0.04275 0.77299 0.28498
 C1728 C -0.05248 0.78448 0.27984
 H1729 H -0.09827 0.80497 0.32807
 H1730 H -0.09347 0.82408 0.27713
 H1731 H -0.11319 0.83442 0.29312
 H1732 H -0.07233 0.80633 0.27285
 H1733 H -0.07696 0.78776 0.32413
 H1734 H -0.05560 0.77026 0.32001
 H1735 H -0.03642 0.75921 0.30359
 H1736 H -0.05152 0.78830 0.26860
 C1737 C 0.59473 0.69259 0.31296
 C1738 C 0.58197 0.70101 0.30839
 C1739 C 0.57328 0.70918 0.31882
 C1740 C 0.57744 0.70869 0.33365
 C1741 C 0.59023 0.70042 0.33808
 C1742 C 0.59907 0.69238 0.32780
 C1743 C 0.56071 0.71785 0.31426
 C1744 C 0.55682 0.71862 0.29935
 C1745 C 0.56550 0.71040 0.28893
 C1746 C 0.57795 0.70159 0.29352
 C1747 C 0.56170 0.71126 0.27403
 C1748 C 0.54953 0.72030 0.26946
 C1749 C 0.54090 0.72856 0.27969
 C1750 C 0.54452 0.72763 0.29466
 H1751 H 0.60148 0.68657 0.30488
 H1752 H 0.57089 0.71482 0.34181
 H1753 H 0.59318 0.70033 0.34960
 H1754 H 0.55409 0.72416 0.32226
 H1755 H 0.58462 0.69536 0.28550
 H1756 H 0.56822 0.70505 0.26590
 H1757 H 0.54683 0.72094 0.25788
 H1758 H 0.53788 0.73407 0.30254
 C1759 C 0.58929 0.19520 0.81534
 C1760 C 0.57883 0.20349 0.80690
 C1761 C 0.57622 0.19934 0.79212
 C1762 C 0.58409 0.18693 0.78606
 C1763 C 0.59445 0.17870 0.79456
 C1764 C 0.59720 0.18276 0.80926
 C1765 C 0.56577 0.20762 0.78365
 C1766 C 0.55780 0.21991 0.78983
 C1767 C 0.56036 0.22402 0.80465
 C1768 C 0.57090 0.21582 0.81307
 C1769 C 0.55224 0.23621 0.81084
 C1770 C 0.54156 0.24417 0.80247
 C1771 C 0.53899 0.24013 0.78780
 C1772 C 0.54716 0.22807 0.78147
 H1773 H 0.59111 0.19838 0.82669
 H1774 H 0.58223 0.18359 0.77475
 H1775 H 0.60044 0.16926 0.78953
 H1776 H 0.56377 0.20443 0.77231
 H1777 H 0.57287 0.21898 0.82442
 H1778 H 0.55404 0.23950 0.82217
 H1779 H 0.53524 0.25345 0.80742
 H1780 H 0.54505 0.22496 0.77014
 C1781 C 1.09910 0.67810 0.80479
 C1782 C 1.08746 0.68475 0.79641
 C1783 C 1.08415 0.70042 0.79815
 C1784 C 1.09237 0.70908 0.80840
 C1785 C 1.10391 0.70236 0.81672
 C1786 C 1.10751 0.68686 0.81491
 C1787 C 1.07277 0.70720 0.78955
 C1788 C 1.06462 0.69850 0.77926
 C1789 C 1.06775 0.68276 0.77769
 C1790 C 1.07916 0.67600 0.78626
 C1791 C 1.05944 0.67407 0.76749
 C1792 C 1.04824 0.68093 0.75884
 C1793 C 1.04526 0.69655 0.76022
 C1794 C 1.05342 0.70530 0.77046
 H1795 H 1.10158 0.66609 0.80340
 H1796 H 1.08997 0.72110 0.80989
 H1797 H 1.11022 0.70942 0.82435
 H1798 H 1.07032 0.71925 0.79080
 H1799 H 1.08164 0.66396 0.78498
 H1800 H 1.06165 0.66200 0.76617
 H1801 H 1.04196 0.67410 0.75096
 H1802 H 1.05102 0.71737 0.77150
 C1803 C 1.08861 0.19944 0.31446
 C1804 C 1.07739 0.20616 0.30560
 C1805 C 1.07459 0.20029 0.29138
 C1806 C 1.08297 0.18775 0.28632
 C1807 C 1.09399 0.18104 0.29526
 C1808 C 1.09695 0.18682 0.30937
 C1809 C 1.06345 0.20700 0.28246
 C1810 C 1.05495 0.21941 0.28763
 C1811 C 1.05761 0.22520 0.30192
 C1812 C 1.06887 0.21858 0.31078
 C1813 C 1.04892 0.23749 0.30711
 C1814 C 1.03770 0.24399 0.29824
 C1815 C 1.03513 0.23838 0.28404
 C1816 C 1.04375 0.22610 0.27876
 H1817 H 1.09067 0.20391 0.32537
 H1818 H 1.08098 0.18311 0.27546
 H1819 H 1.10034 0.17143 0.29099
 H1820 H 1.06136 0.20251 0.27154
 H1821 H 1.07094 0.22305 0.32171
 H1822 H 1.05076 0.24203 0.31803
 H1823 H 1.03104 0.25344 0.30240
 H1824 H 1.04163 0.22175 0.26780
 C1825 C 0.59712 0.31741 0.69337
 C1826 C 0.58516 0.30948 0.70010
 C1827 C 0.58246 0.29406 0.69635
 C1828 C 0.59162 0.28692 0.68582
 C1829 C 0.60336 0.29494 0.67905
 C1830 C 0.60627 0.31022 0.68277
 C1831 C 0.57065 0.28603 0.70315
 C1832 C 0.56139 0.29324 0.71358
 C1833 C 0.56392 0.30873 0.71718
 C1834 C 0.57581 0.31673 0.71046
 C1835 C 0.55452 0.31595 0.72751
 C1836 C 0.54283 0.30787 0.73431
 C1837 C 0.54040 0.29247 0.73092
 C1838 C 0.54965 0.28519 0.72053
 H1839 H 0.59914 0.32924 0.69621
 H1840 H 0.58972 0.27512 0.68281
 H1841 H 0.61029 0.28906 0.67103
 H1842 H 0.56867 0.27418 0.70032
 H1843 H 0.57779 0.32858 0.71330
 H1844 H 0.55626 0.32781 0.73038
 H1845 H 0.53576 0.31356 0.74236
 H1846 H 0.54774 0.27327 0.71796
 C1847 C 0.59588 0.81165 0.19426
 C1848 C 0.58410 0.80345 0.20098
 C1849 C 0.58500 0.78738 0.20176
 C1850 C 0.59760 0.77981 0.19585
 C1851 C 0.60924 0.78803 0.18922
 C1852 C 0.60853 0.80401 0.18830
 C1853 C 0.57337 0.77911 0.20850
 C1854 C 0.56088 0.78668 0.21466
 C1855 C 0.55989 0.80275 0.21391
 C1856 C 0.57147 0.81103 0.20700
 C1857 C 0.54741 0.81024 0.22027
 C1858 C 0.53623 0.80193 0.22760
 C1859 C 0.53732 0.78602 0.22859
 C1860 C 0.54949 0.77843 0.22182
 H1861 H 0.59509 0.82394 0.19359
 H1862 H 0.59850 0.76752 0.19641
 H1863 H 0.61885 0.78176 0.18494
 H1864 H 0.57413 0.76680 0.20912
 H1865 H 0.57074 0.82334 0.20644
 H1866 H 0.54643 0.82253 0.21978
 H1867 H 0.52685 0.80791 0.23273
 H1868 H 0.55025 0.76612 0.22248
 C1869 C 1.08949 0.30804 0.18361
 C1870 C 1.07604 0.30449 0.19115
 C1871 C 1.06831 0.31602 0.19907
 C1872 C 1.07398 0.33092 0.19909
 C1873 C 1.08754 0.33426 0.19187
 C1874 C 1.09554 0.32284 0.18429
 C1875 C 1.05535 0.31240 0.20726
 C1876 C 1.05026 0.29730 0.20800
 C1877 C 1.05786 0.28578 0.19994
 C1878 C 1.07056 0.28949 0.19140
 C1879 C 1.05291 0.27063 0.20095
 C1880 C 1.04093 0.26686 0.21027
 C1881 C 1.03359 0.27820 0.21852
 C1882 C 1.03806 0.29344 0.21713
 H1883 H 1.09565 0.29912 0.17790
 H1884 H 1.06817 0.33991 0.20504
 H1885 H 1.09187 0.34579 0.19239
 H1886 H 1.04955 0.32122 0.21346
 H1887 H 1.07650 0.28062 0.18537
 H1888 H 1.05858 0.26166 0.19486
 H1889 H 1.03756 0.25506 0.21132
 H1890 H 1.03241 0.30213 0.22362
 C1891 C 1.10468 0.78893 0.68210
 C1892 C 1.09320 0.78075 0.68933
 C1893 C 1.09244 0.78113 0.70481
 C1894 C 1.10318 0.78955 0.71279
 C1895 C 1.11446 0.79770 0.70555
 C1896 C 1.11531 0.79758 0.69016
 C1897 C 1.08093 0.77318 0.71210
 C1898 C 1.07009 0.76487 0.70413
 C1899 C 1.07082 0.76439 0.68865
 C1900 C 1.08238 0.77233 0.68134
 C1901 C 1.05990 0.75603 0.68075
 C1902 C 1.04839 0.74823 0.68812
 C1903 C 1.04762 0.74868 0.70347
 C1904 C 1.05847 0.75706 0.71142
 H1905 H 1.10512 0.78878 0.67024
 H1906 H 1.10280 0.78990 0.72466
 H1907 H 1.12260 0.80403 0.71208
 H1908 H 1.08037 0.77353 0.72397
 H1909 H 1.08292 0.77201 0.66947
 H1910 H 1.06026 0.75553 0.66889
 H1911 H 1.04005 0.74183 0.68187
 H1912 H 1.05781 0.75747 0.72328
 C1913 C 0.40500 0.69836 0.68249
 C1914 C 0.41661 0.70577 0.69044
 C1915 C 0.41748 0.70399 0.70582
 C1916 C 0.40689 0.69475 0.71297
 C1917 C 0.39558 0.68724 0.70498
 C1918 C 0.39450 0.68894 0.68971
 C1919 C 0.42895 0.71140 0.71384
 C1920 C 0.43971 0.72044 0.70668
 C1921 C 0.43903 0.72208 0.69127
 C1922 C 0.42743 0.71480 0.68326
 C1923 C 0.44999 0.73100 0.68416
 C1924 C 0.46143 0.73830 0.69225
 C1925 C 0.46200 0.73686 0.70754
 C1926 C 0.45117 0.72789 0.71471
 H1927 H 0.40434 0.69964 0.67070
 H1928 H 0.40740 0.69327 0.72474
 H1929 H 0.38755 0.68020 0.71083
 H1930 H 0.42953 0.71007 0.72564
 H1931 H 0.42687 0.71611 0.67145
 H1932 H 0.44969 0.73235 0.67237
 H1933 H 0.46975 0.74522 0.68663
 H1934 H 0.45168 0.72680 0.72653
 C1935 C 0.39731 0.18498 0.19211
 C1936 C 0.40948 0.19309 0.19835
 C1937 C 0.41310 0.20775 0.19305
 C1938 C 0.40464 0.21393 0.18147
 C1939 C 0.39255 0.20578 0.17532
 C1940 C 0.38866 0.19131 0.18066
 C1941 C 0.42501 0.21604 0.19948
 C1942 C 0.43334 0.20987 0.21116
 C1943 C 0.42987 0.19511 0.21634
 C1944 C 0.41797 0.18681 0.20989
 C1945 C 0.43831 0.18896 0.22799
 C1946 C 0.44997 0.19742 0.23454
 C1947 C 0.45329 0.21210 0.22954
 C1948 C 0.44502 0.21828 0.21784
 H1949 H 0.39461 0.17376 0.19622
 H1950 H 0.40728 0.22514 0.17726
 H1951 H 0.38606 0.21100 0.16658
 H1952 H 0.42771 0.22733 0.19549
 H1953 H 0.41523 0.17554 0.21392
 H1954 H 0.43583 0.17767 0.23208
 H1955 H 0.45634 0.19260 0.24359
 H1956 H 0.44768 0.22965 0.21403
 C1957 C -0.09846 0.69388 0.18580
 C1958 C -0.08570 0.69910 0.19368
 C1959 C -0.07673 0.68863 0.20171
 C1960 C -0.08060 0.67316 0.20165
 C1961 C -0.09347 0.66813 0.19407
 C1962 C -0.10258 0.67842 0.18619
 C1963 C -0.06426 0.69381 0.20995
 C1964 C -0.06081 0.70937 0.21057
 C1965 C -0.06973 0.71988 0.20254
 C1966 C -0.08202 0.71466 0.19402
 C1967 C -0.06637 0.73549 0.20341
 C1968 C -0.05447 0.74064 0.21235
 C1969 C -0.04569 0.73026 0.22041
 C1970 C -0.04878 0.71464 0.21936
 H1971 H -0.10550 0.70192 0.17987
 H1972 H -0.07384 0.66499 0.20771
 H1973 H -0.09632 0.65615 0.19440
 H1974 H -0.05745 0.68576 0.21615
 H1975 H -0.08890 0.72272 0.18793
 H1976 H -0.07307 0.74371 0.19736
 H1977 H -0.05215 0.75274 0.21309
 H1978 H -0.04199 0.70666 0.22566
 C1979 C -0.09340 0.18119 0.68567
 C1980 C -0.08034 0.18894 0.69058
 C1981 C -0.07203 0.19808 0.68073
 C1982 C -0.07677 0.19910 0.66609
 C1983 C -0.08985 0.19147 0.66132
 C1984 C -0.09841 0.18257 0.67106
 C1985 C -0.05930 0.20627 0.68572
 C1986 C -0.05492 0.20565 0.70050
 C1987 C -0.06313 0.19634 0.71033
 C1988 C -0.07570 0.18796 0.70527
 C1989 C -0.05883 0.19585 0.72514
 C1990 C -0.04681 0.20483 0.73027
 C1991 C -0.03882 0.21429 0.72065
 C1992 C -0.04273 0.21451 0.70574
 H1993 H -0.09984 0.17444 0.69336
 H1994 H -0.07048 0.20597 0.65836
 H1995 H -0.09323 0.19262 0.64997
 H1996 H -0.05302 0.21339 0.67817
 H1997 H -0.08205 0.18094 0.71285
 H1998 H -0.06496 0.18876 0.73280
 H1999 H -0.04388 0.20462 0.74180
 H2000 H -0.03655 0.22190 0.69836
 C2001 C 0.30585 0.40919 0.30654
 C2002 C 0.29794 0.42086 0.29932
 C2003 C 0.28199 0.41977 0.29746
 C2004 C 0.27421 0.40718 0.30307
 C2005 C 0.28216 0.39563 0.31025
 C2006 C 0.29805 0.39642 0.31193
 C2007 C 0.27408 0.43116 0.28989
 C2008 C 0.28193 0.44363 0.28410
 C2009 C 0.29785 0.44490 0.28615
 C2010 C 0.30575 0.43351 0.29378
 C2011 C 0.30562 0.45745 0.28035
 C2012 C 0.29773 0.46847 0.27235
 C2013 C 0.28201 0.46708 0.27005
 C2014 C 0.27412 0.45476 0.27608
 H2015 H 0.31807 0.41007 0.30791
 H2016 H 0.26198 0.40617 0.30176
 H2017 H 0.27583 0.38591 0.31417
 H2018 H 0.26187 0.43023 0.28835
 H2019 H 0.31797 0.43440 0.29525
 H2020 H 0.31780 0.45863 0.28186
 H2021 H 0.30390 0.47798 0.26775
 H2022 H 0.26194 0.45378 0.27432
 C2023 C 0.31934 -0.09348 0.80962
 C2024 C 0.31120 -0.08102 0.80399
 C2025 C 0.30007 -0.07375 0.81270
 C2026 C 0.29734 -0.07900 0.82691
 C2027 C 0.30537 -0.09148 0.83240
 C2028 C 0.31644 -0.09902 0.82384
 C2029 C 0.29172 -0.06148 0.80702
 C2030 C 0.29422 -0.05651 0.79264
 C2031 C 0.30541 -0.06376 0.78392
 C2032 C 0.31389 -0.07589 0.78968
 C2033 C 0.30777 -0.05888 0.76948
 C2034 C 0.29895 -0.04710 0.76366
 C2035 C 0.28778 -0.03997 0.77222
 C2036 C 0.28554 -0.04458 0.78674
 H2037 H 0.32772 -0.09892 0.80269
 H2038 H 0.28886 -0.07353 0.83375
 H2039 H 0.30276 -0.09514 0.84340
 H2040 H 0.28313 -0.05595 0.81370
 H2041 H 0.32242 -0.08148 0.78296
 H2042 H 0.31628 -0.06429 0.76264
 H2043 H 0.30072 -0.04361 0.75242
 H2044 H 0.27683 -0.03907 0.79328
 C2045 C 0.81714 0.40075 0.81016
 C2046 C 0.80916 0.41350 0.80485
 C2047 C 0.79690 0.41957 0.81299
 C2048 C 0.79298 0.41299 0.82637
 C2049 C 0.80091 0.40035 0.83158
 C2050 C 0.81301 0.39385 0.82352
 C2051 C 0.78862 0.43202 0.80758
 C2052 C 0.79242 0.43849 0.79407
 C2053 C 0.80483 0.43259 0.78598
 C2054 C 0.81314 0.42016 0.79144
 C2055 C 0.80861 0.43912 0.77247
 C2056 C 0.80001 0.45120 0.76691
 C2057 C 0.78756 0.45693 0.77478
 C2058 C 0.78386 0.45065 0.78841
 H2059 H 0.82643 0.39621 0.80371
 H2060 H 0.78366 0.41755 0.83279
 H2061 H 0.79730 0.39569 0.84193
 H2062 H 0.77913 0.43657 0.81381
 H2063 H 0.82258 0.41557 0.78517
 H2064 H 0.81809 0.43477 0.76613
 H2065 H 0.80292 0.45598 0.75637
 H2066 H 0.77420 0.45510 0.79443
 C2067 C 0.80796 -0.09352 0.31199
 C2068 C 0.79916 -0.08217 0.30523
 C2069 C 0.78396 -0.07978 0.30969
 C2070 C 0.77791 -0.08860 0.32099
 C2071 C 0.78675 -0.09979 0.32775
 C2072 C 0.80187 -0.10256 0.32329
 C2073 C 0.77505 -0.06865 0.30276
 C2074 C 0.78119 -0.05980 0.29148
 C2075 C 0.79650 -0.06203 0.28718
 C2076 C 0.80537 -0.07321 0.29405
 C2077 C 0.80268 -0.05305 0.27601
 C2078 C 0.79375 -0.04206 0.26907
 C2079 C 0.77852 -0.03997 0.27313
 C2080 C 0.77227 -0.04880 0.28438
 H2081 H 0.81956 -0.09512 0.30837
 H2082 H 0.76628 -0.08689 0.32458
 H2083 H 0.78150 -0.10637 0.33634
 H2084 H 0.76334 -0.06690 0.30612
 H2085 H 0.81707 -0.07498 0.29067
 H2086 H 0.81440 -0.05456 0.27262
 H2087 H 0.79865 -0.03526 0.26041
 H2088 H 0.76050 -0.04708 0.28750
 C2089 C 0.30130 0.59215 0.68816
 C2090 C 0.29475 0.58064 0.69673
 C2091 C 0.29854 0.57958 0.71177
 C2092 C 0.30892 0.58991 0.71793
 C2093 C 0.31551 0.60118 0.70930
 C2094 C 0.31178 0.60246 0.69436
 C2095 C 0.29197 0.56820 0.72041
 C2096 C 0.28176 0.55773 0.71420
 C2097 C 0.27808 0.55864 0.69912
 C2098 C 0.28454 0.57013 0.69050
 C2099 C 0.26801 0.54798 0.69292
 C2100 C 0.26164 0.53656 0.70158
 C2101 C 0.26516 0.53572 0.71655
 C2102 C 0.27521 0.54631 0.72282
 H2103 H 0.29845 0.59291 0.67662
 H2104 H 0.31196 0.58926 0.72943
 H2105 H 0.32342 0.60904 0.71441
 H2106 H 0.29486 0.56745 0.73196
 H2107 H 0.28168 0.57086 0.67895
 H2108 H 0.26510 0.54846 0.68138
 H2109 H 0.25391 0.52840 0.69665
 H2110 H 0.27793 0.54557 0.73440
 C2111 C 0.29810 1.09336 0.18967
 C2112 C 0.29501 1.08064 0.19851
 C2113 C 0.30721 1.07218 0.20457
 C2114 C 0.32223 1.07639 0.20153
 C2115 C 0.32518 1.08922 0.19305
 C2116 C 0.31320 1.09794 0.18724
 C2117 C 0.30425 1.05991 0.21391
 C2118 C 0.28925 1.05615 0.21756
 C2119 C 0.27701 1.06447 0.21142
 C2120 C 0.27996 1.07657 0.20183
 C2121 C 0.26202 1.06074 0.21523
 C2122 C 0.25920 1.04907 0.22523
 C2123 C 0.27130 1.04091 0.23151
 C2124 C 0.28630 1.04439 0.22753
 H2125 H 0.28879 1.10010 0.18533
 H2126 H 0.33170 1.07001 0.20602
 H2127 H 0.33691 1.09244 0.19118
 H2128 H 0.31364 1.05354 0.21862
 H2129 H 0.27058 1.08304 0.19724
 H2130 H 0.25249 1.06696 0.21064
 H2131 H 0.24756 1.04644 0.22818
 H2132 H 0.29565 1.03810 0.23241
 C2133 C 0.80817 0.59316 0.19699
 C2134 C 0.80033 0.58151 0.20425
 C2135 C 0.78425 0.58114 0.20381
 C2136 C 0.77631 0.59232 0.19599
 C2137 C 0.78419 0.60391 0.18884
 C2138 C 0.80019 0.60457 0.18935
 C2139 C 0.77636 0.56971 0.21130
 C2140 C 0.78436 0.55866 0.21929
 C2141 C 0.80046 0.55895 0.21963
 C2142 C 0.80834 0.57034 0.21208
 C2143 C 0.80842 0.54788 0.22763
 C2144 C 0.80051 0.53675 0.23537
 C2145 C 0.78455 0.53650 0.23522
 C2146 C 0.77651 0.54740 0.22708
 H2147 H 0.82048 0.59332 0.19741
 H2148 H 0.76399 0.59221 0.19552
 H2149 H 0.77765 0.61247 0.18312
 H2150 H 0.76402 0.56948 0.21103
 H2151 H 0.82068 0.57060 0.21241
 H2152 H 0.82075 0.54791 0.22799
 H2153 H 0.80682 0.52836 0.24160
 H2154 H 0.76417 0.54714 0.22693
 C2155 C 0.81666 1.09188 0.69420
 C2156 C 0.80949 1.07894 0.70002
 C2157 C 0.79808 1.07140 0.69176
 C2158 C 0.79413 1.07678 0.67784
 C2159 C 0.80105 1.08980 0.67230
 C2160 C 0.81223 1.09756 0.68046
 C2161 C 0.79048 1.05885 0.69767
 C2162 C 0.79385 1.05393 0.71188
 C2163 C 0.80531 1.06136 0.72017
 C2164 C 0.81320 1.07371 0.71411
 C2165 C 0.80839 1.05652 0.73452
 C2166 C 0.79992 1.04472 0.74071
 C2167 C 0.78843 1.03749 0.73256
 C2168 C 0.78560 1.04196 0.71810
 H2169 H 0.82520 1.09785 0.70061
 H2170 H 0.78546 1.07109 0.67136
 H2171 H 0.79759 1.09382 0.66160
 H2172 H 0.78165 1.05318 0.69135
 H2173 H 0.82191 1.07949 0.72049
 H2174 H 0.81713 1.06206 0.74104
 H2175 H 0.80217 1.04133 0.75191
 H2176 H 0.77663 1.03639 0.71188
 C2177 C 0.69456 0.59513 0.31745
 C2178 C 0.70096 0.58309 0.30938
 C2179 C 0.69779 0.58170 0.29423
 C2180 C 0.68802 0.59222 0.28751
 C2181 C 0.68162 0.60414 0.29565
 C2182 C 0.68496 0.60582 0.31064
 C2183 C 0.70452 0.56991 0.28606
 C2184 C 0.71434 0.55945 0.29287
 C2185 C 0.71725 0.56069 0.30810
 C2186 C 0.71056 0.57250 0.31623
 C2187 C 0.72694 0.55015 0.31492
 C2188 C 0.73384 0.53860 0.30673
 C2189 C 0.73121 0.53745 0.29160
 C2190 C 0.72138 0.54783 0.28471
 H2191 H 0.69705 0.59611 0.32905
 H2192 H 0.68542 0.59132 0.27592
 H2193 H 0.67432 0.61223 0.29011
 H2194 H 0.70221 0.56892 0.27441
 H2195 H 0.71292 0.57351 0.32788
 H2196 H 0.72925 0.55091 0.32657
 H2197 H 0.74140 0.53064 0.31213
 H2198 H 0.71935 0.54687 0.27302
 C2199 C 0.69106 1.08807 0.81731
 C2200 C 0.69763 1.07595 0.80938
 C2201 C 0.68918 1.06868 0.79815
 C2202 C 0.67440 1.07359 0.79502
 C2203 C 0.66803 1.08573 0.80276
 C2204 C 0.67622 1.09325 0.81399
 C2205 C 0.69567 1.05675 0.79005
 C2206 C 0.71066 1.05213 0.79282
 C2207 C 0.71921 1.05936 0.80402
 C2208 C 0.71259 1.07114 0.81233
 C2209 C 0.73432 1.05482 0.80654
 C2210 C 0.74097 1.04347 0.79784
 C2211 C 0.73253 1.03638 0.78666
 C2212 C 0.71734 1.04060 0.78431
 H2213 H 0.69772 1.09358 0.82580
 H2214 H 0.66776 1.06811 0.78647
 H2215 H 0.65656 1.08901 0.79986
 H2216 H 0.68914 1.05124 0.78142
 H2217 H 0.71916 1.07671 0.82089
 H2218 H 0.74107 1.06022 0.81506
 H2219 H 0.75272 1.04029 0.79972
 H2220 H 0.71089 1.03514 0.77560
 C2221 C 0.19113 0.59509 0.80905
 C2222 C 0.19884 0.58303 0.80213
 C2223 C 0.21490 0.58330 0.80125
 C2224 C 0.22297 0.59553 0.80736
 C2225 C 0.21523 0.60746 0.81422
 C2226 C 0.19925 0.60743 0.81510
 C2227 C 0.22267 0.57141 0.79420
 C2228 C 0.21458 0.55925 0.78796
 C2229 C 0.19851 0.55887 0.78890
 C2230 C 0.19074 0.57076 0.79601
 C2231 C 0.19051 0.54664 0.78261
 C2232 C 0.19834 0.53500 0.77530
 C2233 C 0.21425 0.53545 0.77421
 C2234 C 0.22233 0.54751 0.78067
 H2235 H 0.17883 0.59479 0.80974
 H2236 H 0.23528 0.59592 0.80677
 H2237 H 0.22185 0.61680 0.81862
 H2238 H 0.23499 0.57168 0.79348
 H2239 H 0.17842 0.57051 0.79668
 H2240 H 0.17820 0.54613 0.78324
 H2241 H 0.19200 0.52572 0.77037
 H2242 H 0.23464 0.54778 0.77985
 C2243 C 0.19007 1.09188 0.32362
 C2244 C 0.19746 1.08028 0.31572
 C2245 C 0.19279 1.07693 0.30120
 C2246 C 0.18072 1.08505 0.29493
 C2247 C 0.17340 1.09650 0.30287
 C2248 C 0.17803 1.10011 0.31724
 C2249 C 0.20031 1.06560 0.29314
 C2250 C 0.21244 1.05753 0.29939
 C2251 C 0.21701 1.06068 0.31398
 C2252 C 0.20948 1.07205 0.32205
 C2253 C 0.22911 1.05247 0.32018
 C2254 C 0.23674 1.04139 0.31194
 C2255 C 0.23240 1.03845 0.29740
 C2256 C 0.22017 1.04643 0.29121
 H2257 H 0.19366 1.09443 0.33473
 H2258 H 0.17700 1.08262 0.28382
 H2259 H 0.16429 1.10271 0.29758
 H2260 H 0.19678 1.06313 0.28198
 H2261 H 0.21305 1.07455 0.33320
 H2262 H 0.23274 1.05468 0.33135
 H2263 H 0.24616 1.03524 0.31681
 H2264 H 0.21681 1.04405 0.27999
 C2265 C 0.68877 0.40559 0.69559
 C2266 C 0.69809 0.41666 0.70234
 C2267 C 0.71314 0.41883 0.69728
 C2268 C 0.71867 0.40994 0.68571
 C2269 C 0.70937 0.39913 0.67903
 C2270 C 0.69431 0.39689 0.68375
 C2271 C 0.72247 0.42989 0.70376
 C2272 C 0.71699 0.43893 0.71525
 C2273 C 0.70198 0.43684 0.72044
 C2274 C 0.69261 0.42569 0.71396
 C2275 C 0.69663 0.44600 0.73199
 C2276 C 0.70608 0.45707 0.73833
 C2277 C 0.72098 0.45909 0.73321
 C2278 C 0.72634 0.45006 0.72162
 H2279 H 0.67719 0.40399 0.69932
 H2280 H 0.73020 0.41140 0.68178
 H2281 H 0.71410 0.39241 0.67018
 H2282 H 0.73399 0.43151 0.69982
 H2283 H 0.68109 0.42410 0.71789
 H2284 H 0.68517 0.44461 0.73612
 H2285 H 0.70183 0.46404 0.74724
 H2286 H 0.73783 0.45172 0.71765
 C2287 C 0.68206 -0.09477 0.18872
 C2288 C 0.68998 -0.08208 0.19424
 C2289 C 0.69835 -0.07276 0.18458
 C2290 C 0.69851 -0.07620 0.16958
 C2291 C 0.69074 -0.08893 0.16420
 C2292 C 0.68255 -0.09843 0.17370
 C2293 C 0.70663 -0.06032 0.19010
 C2294 C 0.70682 -0.05719 0.20518
 C2295 C 0.69835 -0.06644 0.21484
 C2296 C 0.68991 -0.07875 0.20930
 C2297 C 0.69866 -0.06335 0.22994
 C2298 C 0.70750 -0.05139 0.23545
 C2299 C 0.71608 -0.04231 0.22595
 C2300 C 0.71558 -0.04513 0.21081
 H2301 H 0.67591 -0.10202 0.19622
 H2302 H 0.70482 -0.06915 0.16201
 H2303 H 0.69118 -0.09133 0.15257
 H2304 H 0.71313 -0.05325 0.18268
 H2305 H 0.68350 -0.08590 0.21673
 H2306 H 0.69223 -0.07029 0.23750
 H2307 H 0.70780 -0.04929 0.24715
 H2308 H 0.72226 -0.03812 0.20350
 C2309 C 0.20221 0.40176 0.18506
 C2310 C 0.20903 0.41387 0.19279
 C2311 C 0.20784 0.41451 0.20825
 C2312 C 0.20000 0.40307 0.21570
 C2313 C 0.19311 0.39122 0.20794
 C2314 C 0.19402 0.39049 0.19258
 C2315 C 0.21434 0.42664 0.21604
 C2316 C 0.22192 0.43828 0.20861
 C2317 C 0.22320 0.43771 0.19317
 C2318 C 0.21680 0.42546 0.18535
 C2319 C 0.23079 0.44949 0.18584
 C2320 C 0.23698 0.46172 0.19375
 C2321 C 0.23568 0.46230 0.20906
 C2322 C 0.22814 0.45055 0.21642
 H2323 H 0.20291 0.40135 0.17321
 H2324 H 0.19905 0.40336 0.22754
 H2325 H 0.18711 0.38258 0.21403
 H2326 H 0.21337 0.42711 0.22789
 H2327 H 0.21772 0.42503 0.17350
 H2328 H 0.23190 0.44927 0.17402
 H2329 H 0.24279 0.47073 0.18795
 H2330 H 0.22709 0.45107 0.22825
 C2331 C 0.19529 -0.09431 0.68881
 C2332 C 0.20024 -0.08184 0.69726
 C2333 C 0.19222 -0.07771 0.71010
 C2334 C 0.17931 -0.08600 0.71416
 C2335 C 0.17458 -0.09850 0.70581
 C2336 C 0.18258 -0.10288 0.69315
 C2337 C 0.19741 -0.06558 0.71883
 C2338 C 0.21067 -0.05769 0.71503
 C2339 C 0.21863 -0.06173 0.70212
 C2340 C 0.21328 -0.07368 0.69325
 C2341 C 0.23201 -0.05394 0.69845
 C2342 C 0.23764 -0.04250 0.70765
 C2343 C 0.22990 -0.03858 0.72054
 C2344 C 0.21633 -0.04604 0.72412
 H2345 H 0.20165 -0.09761 0.67915
 H2346 H 0.17299 -0.08295 0.72393
 H2347 H 0.16463 -0.10474 0.70931
 H2348 H 0.19131 -0.06250 0.72873
 H2349 H 0.21945 -0.07684 0.68341
 H2350 H 0.23824 -0.05688 0.68860
 H2351 H 0.24815 -0.03679 0.70484
 H2352 H 0.21045 -0.04301 0.73415
 C2353 C 0.30961 0.29821 0.39916
 C2354 C 0.30200 0.29116 0.41084
 C2355 C 0.28596 0.28982 0.41044
 C2356 C 0.27783 0.29536 0.39838
 C2357 C 0.28544 0.30240 0.38689
 C2358 C 0.30136 0.30405 0.38719
 C2359 C 0.27825 0.28308 0.42213
 C2360 C 0.28633 0.27765 0.43428
 C2361 C 0.30238 0.27883 0.43472
 C2362 C 0.31013 0.28558 0.42298
 C2363 C 0.31037 0.27326 0.44693
 C2364 C 0.30251 0.26656 0.45855
 C2365 C 0.28659 0.26540 0.45814
 C2366 C 0.27857 0.27105 0.44601
 H2367 H 0.32187 0.29944 0.39958
 H2368 H 0.26554 0.29433 0.39787
 H2369 H 0.27878 0.30653 0.37775
 H2370 H 0.26594 0.28211 0.42180
 H2371 H 0.32243 0.28655 0.42332
 H2372 H 0.32266 0.27404 0.44747
 H2373 H 0.30883 0.26224 0.46786
 H2374 H 0.26625 0.27020 0.44574
 C2375 C 0.31103 0.81322 -0.09220
 C2376 C 0.30433 0.80511 -0.08066
 C2377 C 0.30169 0.78930 -0.08224
 C2378 C 0.30587 0.78186 -0.09522
 C2379 C 0.31250 0.79001 -0.10663
 C2380 C 0.31512 0.80576 -0.10529
 C2381 C 0.29475 0.78118 -0.07089
 C2382 C 0.29027 0.78870 -0.05803
 C2383 C 0.29302 0.80448 -0.05635
 C2384 C 0.30011 0.81258 -0.06765
 C2385 C 0.28837 0.81194 -0.04348
 C2386 C 0.28071 0.80392 -0.03256
 C2387 C 0.27769 0.78834 -0.03431
 C2388 C 0.28276 0.78071 -0.04694
 H2389 H 0.31308 0.82531 -0.09091
 H2390 H 0.30389 0.76976 -0.09661
 H2391 H 0.31535 0.78392 -0.11658
 H2392 H 0.29264 0.76908 -0.07216
 H2393 H 0.30214 0.82470 -0.06641
 H2394 H 0.29041 0.82402 -0.04198
 H2395 H 0.27684 0.80992 -0.02285
 H2396 H 0.28047 0.76865 -0.04824
 C2397 C 0.80686 0.30790 -0.09098
 C2398 C 0.79975 0.29946 -0.07991
 C2399 C 0.80319 0.28381 -0.07831
 C2400 C 0.81380 0.27694 -0.08765
 C2401 C 0.82077 0.28539 -0.09865
 C2402 C 0.81731 0.30091 -0.10055
 C2403 C 0.79587 0.27524 -0.06752
 C2404 C 0.78505 0.28207 -0.05835
 C2405 C 0.78171 0.29776 -0.05980
 C2406 C 0.78912 0.30637 -0.07054
 C2407 C 0.77087 0.30454 -0.05057
 C2408 C 0.76324 0.29579 -0.04017
 C2409 C 0.76634 0.28018 -0.03886
 C2410 C 0.77738 0.27340 -0.04785
 H2411 H 0.80416 0.31987 -0.09214
 H2412 H 0.81657 0.26497 -0.08658
 H2413 H 0.82866 0.27958 -0.10583
 H2414 H 0.79845 0.26321 -0.06639
 H2415 H 0.78648 0.31838 -0.07173
 H2416 H 0.76819 0.31654 -0.05150
 H2417 H 0.75476 0.30114 -0.03325
 H2418 H 0.77981 0.26135 -0.04674
 C2419 C 0.80511 0.81526 0.41315
 C2420 C 0.79890 0.80700 0.42480
 C2421 C 0.80207 0.79127 0.42610
 C2422 C 0.81169 0.78418 0.41591
 C2423 C 0.81792 0.79252 0.40438
 C2424 C 0.81455 0.80808 0.40279
 C2425 C 0.79548 0.78287 0.43747
 C2426 C 0.78577 0.79001 0.44757
 C2427 C 0.78286 0.80582 0.44645
 C2428 C 0.78944 0.81420 0.43507
 C2429 C 0.77325 0.81296 0.45664
 C2430 C 0.76634 0.80447 0.46768
 C2431 C 0.76892 0.78875 0.46865
 C2432 C 0.77875 0.78157 0.45868
 H2433 H 0.80260 0.82730 0.41218
 H2434 H 0.81429 0.77215 0.41676
 H2435 H 0.82508 0.78668 0.39653
 H2436 H 0.79778 0.77077 0.43838
 H2437 H 0.78707 0.82629 0.43413
 H2438 H 0.77094 0.82506 0.45597
 H2439 H 0.75877 0.81009 0.47533
 H2440 H 0.78073 0.76941 0.45950
 C2441 C 0.68290 0.30950 0.58662
 C2442 C 0.69096 0.30466 0.57415
 C2443 C 0.69801 0.31556 0.56505
 C2444 C 0.69668 0.33109 0.56841
 C2445 C 0.68895 0.33576 0.58099
 C2446 C 0.68220 0.32504 0.59030
 C2447 C 0.70664 0.31079 0.55297
 C2448 C 0.70860 0.29523 0.55003
 C2449 C 0.70143 0.28431 0.55903
 C2450 C 0.69254 0.28910 0.57095
 C2451 C 0.70355 0.26875 0.55614
 C2452 C 0.71288 0.26405 0.54462
 C2453 C 0.72017 0.27482 0.53575
 C2454 C 0.71789 0.29040 0.53841
 H2455 H 0.67784 0.30113 0.59381
 H2456 H 0.70194 0.33960 0.56153
 H2457 H 0.68841 0.34781 0.58352
 H2458 H 0.71215 0.31916 0.54608
 H2459 H 0.68717 0.28071 0.57792
 H2460 H 0.69814 0.26022 0.56290
 H2461 H 0.71454 0.25199 0.54264
 H2462 H 0.72359 0.29870 0.53160
 C2463 C 0.69727 0.81033 1.09283
 C2464 C 0.70431 0.80183 1.08165
 C2465 C 0.70690 0.78607 1.08363
 C2466 C 0.70256 0.77911 1.09672
 C2467 C 0.69561 0.78761 1.10776
 C2468 C 0.69279 0.80327 1.10595
 C2469 C 0.71382 0.77748 1.07253
 C2470 C 0.71831 0.78445 1.05947
 C2471 C 0.71583 0.80022 1.05744
 C2472 C 0.70878 0.80881 1.06853
 C2473 C 0.72055 0.80711 1.04437
 C2474 C 0.72777 0.79848 1.03350
 C2475 C 0.73026 0.78283 1.03550
 C2476 C 0.72537 0.77586 1.04845
 H2477 H 0.69515 0.82235 1.09121
 H2478 H 0.70455 0.76706 1.09844
 H2479 H 0.69254 0.78184 1.11777
 H2480 H 0.71578 0.76539 1.07408
 H2481 H 0.70684 0.82090 1.06698
 H2482 H 0.71876 0.81918 1.04261
 H2483 H 0.73151 0.80399 1.02355
 H2484 H 0.72724 0.76376 1.04997
 C2485 C 0.19451 0.31555 1.09458
 C2486 C 0.20133 0.30805 1.08266
 C2487 C 0.19864 0.29234 1.08037
 C2488 C 0.18892 0.28449 1.08985
 C2489 C 0.18212 0.29205 1.10164
 C2490 C 0.18496 0.30760 1.10423
 C2491 C 0.20580 0.28469 1.06875
 C2492 C 0.21563 0.29255 1.05937
 C2493 C 0.21808 0.30834 1.06147
 C2494 C 0.21092 0.31598 1.07310
 C2495 C 0.22781 0.31620 1.05198
 C2496 C 0.23527 0.30844 1.04069
 C2497 C 0.23316 0.29273 1.03876
 C2498 C 0.22320 0.28485 1.04801
 H2499 H 0.19665 0.32757 1.09632
 H2500 H 0.18670 0.27246 1.08824
 H2501 H 0.17491 0.28560 1.10891
 H2502 H 0.20385 0.27260 1.06709
 H2503 H 0.21293 0.32805 1.07479
 H2504 H 0.22977 0.32830 1.05339
 H2505 H 0.24292 0.31463 1.03359
 H2506 H 0.22155 0.27271 1.04644
 C2507 C 0.18984 0.80777 0.59314
 C2508 C 0.19790 0.80355 0.58047
 C2509 C 0.20590 0.81473 0.57249
 C2510 C 0.20551 0.82994 0.57718
 C2511 C 0.19758 0.83401 0.58985
 C2512 C 0.18981 0.82298 0.59807
 C2513 C 0.21440 0.81048 0.56012
 C2514 C 0.21519 0.79516 0.55575
 C2515 C 0.20704 0.78400 0.56365
 C2516 C 0.19837 0.78828 0.57588
 C2517 C 0.20796 0.76867 0.55937
 C2518 C 0.21719 0.76436 0.54762
 C2519 C 0.22550 0.77532 0.53991
 C2520 C 0.22430 0.79074 0.54384
 H2521 H 0.18401 0.79909 0.59936
 H2522 H 0.21151 0.83867 0.57116
 H2523 H 0.19760 0.84584 0.59322
 H2524 H 0.22064 0.81905 0.55409
 H2525 H 0.19225 0.77970 0.58200
 H2526 H 0.20179 0.75997 0.56528
 H2527 H 0.21806 0.75243 0.54467
 H2528 H 0.23081 0.79917 0.53790
 C2529 C 0.31557 0.69184 0.59411
 C2530 C 0.30748 0.69840 0.58239
 C2531 C 0.29185 0.69506 0.58048
 C2532 C 0.28464 0.68509 0.59016
 C2533 C 0.29275 0.67857 0.60172
 C2534 C 0.30825 0.68192 0.60390
 C2535 C 0.28363 0.70181 0.56902
 C2536 C 0.29082 0.71189 0.55940
 C2537 C 0.30650 0.71509 0.56113
 C2538 C 0.31474 0.70831 0.57261
 C2539 C 0.31364 0.72515 0.55143
 C2540 C 0.30526 0.73220 0.54031
 C2541 C 0.28964 0.72931 0.53873
 C2542 C 0.28251 0.71900 0.54818
 H2543 H 0.32753 0.69443 0.59555
 H2544 H 0.27267 0.68241 0.58886
 H2545 H 0.28673 0.67112 0.60910
 H2546 H 0.27161 0.69932 0.56766
 H2547 H 0.32674 0.71086 0.57400
 H2548 H 0.32565 0.72770 0.55255
 H2549 H 0.31088 0.74013 0.53307
 H2550 H 0.27044 0.71674 0.54690
 C2551 C 0.30674 0.19090 1.09106
 C2552 C 0.29950 0.19872 1.07964
 C2553 C 0.28348 0.19822 1.07833
 C2554 C 0.27504 0.18955 1.08831
 C2555 C 0.28236 0.18186 1.09975
 C2556 C 0.29825 0.18270 1.10140
 C2557 C 0.27619 0.20660 1.06724
 C2558 C 0.28475 0.21554 1.05756
 C2559 C 0.30081 0.21578 1.05877
 C2560 C 0.30807 0.20732 1.06974
 C2561 C 0.30939 0.22467 1.04912
 C2562 C 0.30213 0.23348 1.03850
 C2563 C 0.28622 0.23353 1.03734
 C2564 C 0.27755 0.22443 1.04680
 H2565 H 0.31902 0.19142 1.09196
 H2566 H 0.26275 0.18897 1.08745
 H2567 H 0.27554 0.17564 1.10755
 H2568 H 0.26388 0.20635 1.06630
 H2569 H 0.32037 0.20765 1.07075
 H2570 H 0.32170 0.22495 1.04990
 H2571 H 0.30893 0.24044 1.03126
 H2572 H 0.26524 0.22444 1.04585
 C2573 C 0.81078 0.69950 1.09935
 C2574 C 0.80309 0.70602 1.08737
 C2575 C 0.78709 0.70782 1.08790
 C2576 C 0.77910 0.70326 1.10037
 C2577 C 0.78680 0.69673 1.11215
 C2578 C 0.80266 0.69463 1.11176
 C2579 C 0.77928 0.71405 1.07594
 C2580 C 0.78723 0.71853 1.06340
 C2581 C 0.80323 0.71689 1.06283
 C2582 C 0.81107 0.71063 1.07483
 C2583 C 0.81108 0.72155 1.05024
 C2584 C 0.80314 0.72780 1.03838
 C2585 C 0.78725 0.72939 1.03890
 C2586 C 0.77937 0.72466 1.05142
 H2587 H 0.82300 0.69790 1.09884
 H2588 H 0.76686 0.70465 1.10097
 H2589 H 0.78025 0.69335 1.12161
 H2590 H 0.76701 0.71536 1.07637
 H2591 H 0.82334 0.70931 1.07439
 H2592 H 0.82334 0.72042 1.04960
 H2593 H 0.80937 0.73145 1.02880
 H2594 H 0.76708 0.72585 1.05181
 C2595 C 0.80952 0.19182 0.59014
 C2596 C 0.80090 0.19829 0.57875
 C2597 C 0.78483 0.19815 0.57951
 C2598 C 0.77765 0.19164 0.59162
 C2599 C 0.78628 0.18530 0.60291
 C2600 C 0.80229 0.18527 0.60232
 C2601 C 0.77616 0.20463 0.56823
 C2602 C 0.78334 0.21143 0.55626
 C2603 C 0.79942 0.21164 0.55547
 C2604 C 0.80810 0.20497 0.56667
 C2605 C 0.80653 0.21872 0.54356
 C2606 C 0.79779 0.22581 0.53272
 C2607 C 0.78184 0.22582 0.53358
 C2608 C 0.77468 0.21831 0.54520
 H2609 H 0.82181 0.19184 0.58942
 H2610 H 0.76535 0.19151 0.59240
 H2611 H 0.78030 0.18054 0.61215
 H2612 H 0.76383 0.20455 0.56887
 H2613 H 0.82043 0.20514 0.56607
 H2614 H 0.81883 0.21899 0.54275
 H2615 H 0.80346 0.23152 0.52377
 H2616 H 0.76235 0.21819 0.54578
 C2617 C 0.68788 0.69388 0.41182
 C2618 C 0.69633 0.70061 0.42320
 C2619 C 0.71229 0.69861 0.42374
 C2620 C 0.71948 0.68969 0.41303
 C2621 C 0.71097 0.68296 0.40176
 C2622 C 0.69513 0.68511 0.40096
 C2623 C 0.72081 0.70564 0.43492
 C2624 C 0.71355 0.71460 0.44558
 C2625 C 0.69753 0.71637 0.44517
 C2626 C 0.68904 0.70938 0.43399
 C2627 C 0.69027 0.72522 0.45592
 C2628 C 0.69880 0.73239 0.46688
 C2629 C 0.71469 0.73088 0.46723
 C2630 C 0.72203 0.72191 0.45662
 H2631 H 0.67565 0.69546 0.41147
 H2632 H 0.73170 0.68800 0.41328
 H2633 H 0.71688 0.67635 0.39351
 H2634 H 0.73307 0.70421 0.43526
 H2635 H 0.67678 0.71085 0.43362
 H2636 H 0.67802 0.72666 0.45580
 H2637 H 0.69304 0.73928 0.47504
 H2638 H 0.73431 0.72073 0.45696
 C2639 C 0.68748 0.17739 -0.09384
 C2640 C 0.69239 0.18547 -0.08133
 C2641 C 0.68153 0.19265 -0.07217
 C2642 C 0.66602 0.19149 -0.07552
 C2643 C 0.66128 0.18374 -0.08809
 C2644 C 0.67193 0.17682 -0.09746
 C2645 C 0.68633 0.20122 -0.06002
 C2646 C 0.70186 0.20301 -0.05704
 C2647 C 0.71277 0.19577 -0.06608
 C2648 C 0.70796 0.18692 -0.07810
 C2649 C 0.72833 0.19777 -0.06310
 C2650 C 0.73301 0.20711 -0.05147
 C2651 C 0.72221 0.21449 -0.04263
 C2652 C 0.70666 0.21226 -0.04534
 H2653 H 0.69577 0.17218 -0.10107
 H2654 H 0.65756 0.19686 -0.06859
 H2655 H 0.64922 0.18328 -0.09055
 H2656 H 0.67797 0.20681 -0.05310
 H2657 H 0.71632 0.18148 -0.08511
 H2658 H 0.73686 0.19231 -0.06988
 H2659 H 0.74505 0.20874 -0.04946
 H2660 H 0.69835 0.21803 -0.03852
 C2661 C 0.19147 0.70644 -0.09653
 C2662 C 0.19934 0.71352 -0.08492
 C2663 C 0.21544 0.71355 -0.08485
 C2664 C 0.22338 0.70672 -0.09642
 C2665 C 0.21549 0.69972 -0.10789
 C2666 C 0.19948 0.69935 -0.10805
 C2667 C 0.22339 0.72032 -0.07320
 C2668 C 0.21547 0.72710 -0.06157
 C2669 C 0.19938 0.72725 -0.06164
 C2670 C 0.19140 0.72045 -0.07332
 C2671 C 0.19156 0.73418 -0.04998
 C2672 C 0.19962 0.74082 -0.03835
 C2673 C 0.21559 0.74055 -0.03817
 C2674 C 0.22345 0.73368 -0.04983
 H2675 H 0.17915 0.70624 -0.09642
 H2676 H 0.23571 0.70673 -0.09657
 H2677 H 0.22203 0.69462 -0.11665
 H2678 H 0.23574 0.72026 -0.07315
 H2679 H 0.17906 0.72048 -0.07334
 H2680 H 0.17923 0.73445 -0.04985
 H2681 H 0.19342 0.74613 -0.02944
 H2682 H 0.23579 0.73344 -0.04968
 C2683 C 0.19064 0.18554 0.40626
 C2684 C 0.19819 0.19380 0.41731
 C2685 C 0.19676 0.20984 0.41787
 C2686 C 0.18769 0.21732 0.40750
 C2687 C 0.18013 0.20902 0.39663
 C2688 C 0.18157 0.19309 0.39584
 C2689 C 0.20441 0.21816 0.42877
 C2690 C 0.21339 0.21065 0.43920
 C2691 C 0.21469 0.19459 0.43880
 C2692 C 0.20712 0.18627 0.42782
 C2693 C 0.22356 0.18714 0.44941
 C2694 C 0.23110 0.19554 0.46027
 C2695 C 0.22995 0.21145 0.46059
 C2696 C 0.22108 0.21897 0.45007
 H2697 H 0.19172 0.17325 0.40588
 H2698 H 0.18648 0.22960 0.40777
 H2699 H 0.17335 0.21515 0.38868
 H2700 H 0.20337 0.23047 0.42913
 H2701 H 0.20817 0.17396 0.42746
 H2702 H 0.22466 0.17485 0.44929
 H2703 H 0.23792 0.18966 0.46838
 H2704 H 0.22020 0.23129 0.45042
 C2705 C 0.31057 0.40706 0.68575
 C2706 C 0.30126 0.41833 0.69200
 C2707 C 0.28839 0.42366 0.68422
 C2708 C 0.28501 0.41755 0.67037
 C2709 C 0.29429 0.40625 0.66427
 C2710 C 0.30717 0.40091 0.67186
 C2711 C 0.27906 0.43494 0.69045
 C2712 C 0.28237 0.44083 0.70442
 C2713 C 0.29521 0.43541 0.71223
 C2714 C 0.30460 0.42425 0.70594
 C2715 C 0.29840 0.44117 0.72627
 C2716 C 0.28892 0.45215 0.73256
 C2717 C 0.27622 0.45760 0.72486
 C2718 C 0.27299 0.45198 0.71078
 H2719 H 0.32033 0.40295 0.69185
 H2720 H 0.27519 0.42149 0.66425
 H2721 H 0.29142 0.40183 0.65352
 H2722 H 0.26919 0.43905 0.68447
 H2723 H 0.31445 0.42012 0.71193
 H2724 H 0.30817 0.43713 0.73241
 H2725 H 0.29147 0.45644 0.74344
 H2726 H 0.26311 0.45621 0.70491
 C2727 C 0.31445 0.90836 0.19889
 C2728 C 0.30610 0.91916 0.20692
 C2729 C 0.29018 0.91744 0.20839
 C2730 C 0.28287 0.90504 0.20171
 C2731 C 0.29124 0.89441 0.19364
 C2732 C 0.30709 0.89593 0.19218
 C2733 C 0.28181 0.92814 0.21651
 C2734 C 0.28916 0.94059 0.22310
 C2735 C 0.30507 0.94240 0.22150
 C2736 C 0.31344 0.93165 0.21345
 C2737 C 0.31235 0.95494 0.22803
 C2738 C 0.30397 0.96552 0.23614
 C2739 C 0.28823 0.96367 0.23790
 C2740 C 0.28085 0.95125 0.23129
 H2741 H 0.32663 0.90977 0.19771
 H2742 H 0.27067 0.90355 0.20273
 H2743 H 0.28529 0.88489 0.18871
 H2744 H 0.26961 0.92678 0.21768
 H2745 H 0.32565 0.93301 0.21228
 H2746 H 0.32452 0.95653 0.22688
 H2747 H 0.30974 0.97512 0.24118
 H2748 H 0.26866 0.94993 0.23261
 C2749 C 0.80724 0.40214 0.19498
 C2750 C 0.79977 0.41397 0.20249
 C2751 C 0.78426 0.41700 0.19948
 C2752 C 0.77657 0.40831 0.18888
 C2753 C 0.78411 0.39661 0.18143
 C2754 C 0.79946 0.39332 0.18446
 C2755 C 0.77667 0.42861 0.20715
 C2756 C 0.78440 0.43728 0.21775
 C2757 C 0.79998 0.43440 0.22062
 C2758 C 0.80755 0.42275 0.21299
 C2759 C 0.80772 0.44321 0.23113
 C2760 C 0.80008 0.45469 0.23880
 C2761 C 0.78460 0.45746 0.23612
 C2762 C 0.77680 0.44878 0.22558
 H2763 H 0.81912 0.39988 0.19733
 H2764 H 0.76469 0.41049 0.18643
 H2765 H 0.77777 0.38997 0.17348
 H2766 H 0.76474 0.43085 0.20491
 H2767 H 0.81947 0.42048 0.21526
 H2768 H 0.81966 0.44119 0.23344
 H2769 H 0.80617 0.46137 0.24692
 H2770 H 0.76484 0.45100 0.22354
 C2771 C 0.81051 0.90317 0.68981
 C2772 C 0.80417 0.91477 0.69857
 C2773 C 0.80755 0.91530 0.71374
 C2774 C 0.81728 0.90439 0.71985
 C2775 C 0.82372 0.89309 0.71104
 C2776 C 0.82042 0.89234 0.69598
 C2777 C 0.80121 0.92675 0.72258
 C2778 C 0.79169 0.93785 0.71644
 C2779 C 0.78847 0.93752 0.70124
 C2780 C 0.79466 0.92593 0.69241
 C2781 C 0.77909 0.94882 0.69515
 C2782 C 0.77290 0.96025 0.70405
 C2783 C 0.77593 0.96047 0.71914
 C2784 C 0.78534 0.94929 0.72529
 H2785 H 0.80800 0.90276 0.67818
 H2786 H 0.81998 0.90463 0.73145
 H2787 H 0.83118 0.88480 0.71609
 H2788 H 0.80376 0.92707 0.73422
 H2789 H 0.79214 0.92563 0.68077
 H2790 H 0.77653 0.94880 0.68352
 H2791 H 0.76562 0.96885 0.69923
 H2792 H 0.78765 0.94953 0.73697
 C2793 C 0.69507 0.59311 0.69336
 C2794 C 0.70078 0.58139 0.70224
 C2795 C 0.69478 0.57924 0.71643
 C2796 C 0.68308 0.58878 0.72144
 C2797 C 0.67743 0.60040 0.71252
 C2798 C 0.68338 0.60274 0.69842
 C2799 C 0.70060 0.56764 0.72540
 C2800 C 0.71237 0.55817 0.72035
 C2801 C 0.71829 0.56027 0.70609
 C2802 C 0.71244 0.57183 0.69713
 C2803 C 0.73007 0.55082 0.70105
 C2804 C 0.73606 0.53951 0.71010
 C2805 C 0.73033 0.53744 0.72427
 C2806 C 0.71844 0.54672 0.72936
 H2807 H 0.69967 0.59461 0.68247
 H2808 H 0.67834 0.58731 0.73229
 H2809 H 0.66852 0.60767 0.71679
 H2810 H 0.69603 0.56603 0.73631
 H2811 H 0.71703 0.57345 0.68623
 H2812 H 0.73472 0.55226 0.69017
 H2813 H 0.74527 0.53242 0.70612
 H2814 H 0.71409 0.54510 0.74035
 C2815 C 0.68761 0.09413 0.18852
 C2816 C 0.69328 0.08212 0.19705
 C2817 C 0.69040 0.08187 0.21228
 C2818 C 0.68156 0.09343 0.21864
 C2819 C 0.67588 0.10528 0.21006
 C2820 C 0.67900 0.10586 0.19497
 C2821 C 0.69654 0.07021 0.22093
 C2822 C 0.70551 0.05876 0.21454
 C2823 C 0.70807 0.05879 0.19923
 C2824 C 0.70194 0.07046 0.19059
 C2825 C 0.71693 0.04724 0.19286
 C2826 C 0.72350 0.03598 0.20160
 C2827 C 0.72134 0.03614 0.21681
 C2828 C 0.71218 0.04742 0.22324
 H2829 H 0.68992 0.09433 0.17686
 H2830 H 0.67920 0.09340 0.23029
 H2831 H 0.66935 0.11420 0.21534
 H2832 H 0.69449 0.07014 0.23265
 H2833 H 0.70407 0.07058 0.17889
 H2834 H 0.71895 0.04704 0.18115
 H2835 H 0.73056 0.02730 0.19656
 H2836 H 0.71053 0.04747 0.23501
 C2837 C 0.18630 0.59432 0.18074
 C2838 C 0.19300 0.58298 0.18939
 C2839 C 0.18848 0.58127 0.20414
 C2840 C 0.17707 0.59076 0.20987
 C2841 C 0.17045 0.60205 0.20116
 C2842 C 0.17516 0.60407 0.18659
 C2843 C 0.19554 0.57026 0.21295
 C2844 C 0.20709 0.56097 0.20717
 C2845 C 0.21140 0.56252 0.19232
 C2846 C 0.20431 0.57349 0.18353
 C2847 C 0.22287 0.55316 0.18653
 C2848 C 0.23017 0.54250 0.19542
 C2849 C 0.22614 0.54108 0.21020
 C2850 C 0.21451 0.55024 0.21602
 H2851 H 0.18986 0.59555 0.16946
 H2852 H 0.17342 0.58959 0.22114
 H2853 H 0.16193 0.60943 0.20597
 H2854 H 0.19217 0.56903 0.22431
 H2855 H 0.20773 0.57476 0.17219
 H2856 H 0.22628 0.55417 0.17518
 H2857 H 0.23911 0.53545 0.19084
 H2858 H 0.21138 0.54904 0.22744
 C2859 C 0.18977 0.09608 0.69810
 C2860 C 0.19896 0.08520 0.70519
 C2861 C 0.21497 0.08580 0.70358
 C2862 C 0.22154 0.09726 0.69510
 C2863 C 0.21235 0.10775 0.68785
 C2864 C 0.19643 0.10717 0.68911
 C2865 C 0.22420 0.07475 0.71018
 C2866 C 0.21766 0.06290 0.71820
 C2867 C 0.20168 0.06225 0.71992
 C2868 C 0.19243 0.07347 0.71349
 C2869 C 0.19525 0.05023 0.72789
 C2870 C 0.20456 0.03897 0.73400
 C2871 C 0.22041 0.03958 0.73227
 C2872 C 0.22690 0.05157 0.72435
 H2873 H 0.17749 0.09552 0.69903
 H2874 H 0.23378 0.09791 0.69381
 H2875 H 0.21774 0.11632 0.68112
 H2876 H 0.23646 0.07522 0.70885
 H2877 H 0.18016 0.07292 0.71473
 H2878 H 0.18304 0.04951 0.72932
 H2879 H 0.19943 0.02973 0.74005
 H2880 H 0.23914 0.05196 0.72293
 C2881 C 0.30625 0.59319 0.31463
 C2882 C 0.30089 0.58129 0.30564
 C2883 C 0.31135 0.57088 0.29939
 C2884 C 0.32691 0.57241 0.30236
 C2885 C 0.33215 0.58433 0.31117
 C2886 C 0.32194 0.59493 0.31726
 C2887 C 0.30614 0.55923 0.29011
 C2888 C 0.29060 0.55789 0.28689
 C2889 C 0.28007 0.56817 0.29322
 C2890 C 0.28528 0.57979 0.30259
 C2891 C 0.26451 0.56670 0.28998
 C2892 C 0.25946 0.55520 0.28049
 C2893 C 0.26989 0.54507 0.27406
 C2894 C 0.28543 0.54645 0.27734
 H2895 H 0.29826 0.60133 0.31917
 H2896 H 0.33507 0.56448 0.29772
 H2897 H 0.34427 0.58523 0.31317
 H2898 H 0.31420 0.55132 0.28527
 H2899 H 0.27722 0.58774 0.30738
 H2900 H 0.25627 0.57444 0.29475
 H2901 H 0.24741 0.55419 0.27812
 H2902 H 0.29348 0.53860 0.27238
 C2903 C 0.31522 0.09596 0.81031
 C2904 C 0.30740 0.08295 0.80541
 C2905 C 0.29557 0.07679 0.81403
 C2906 C 0.29185 0.08368 0.82743
 C2907 C 0.29949 0.09678 0.83208
 C2908 C 0.31114 0.10312 0.82354
 C2909 C 0.28742 0.06407 0.80898
 C2910 C 0.29071 0.05762 0.79526
 C2911 C 0.30257 0.06375 0.78665
 C2912 C 0.31095 0.07626 0.79186
 C2913 C 0.30564 0.05747 0.77281
 C2914 C 0.29682 0.04546 0.76741
 C2915 C 0.28497 0.03943 0.77583
 C2916 C 0.28207 0.04538 0.78983
 H2917 H 0.32409 0.10082 0.80356
 H2918 H 0.28286 0.07910 0.83419
 H2919 H 0.29625 0.10196 0.84240
 H2920 H 0.27829 0.05941 0.81556
 H2921 H 0.31998 0.08099 0.78522
 H2922 H 0.31467 0.06202 0.76607
 H2923 H 0.29911 0.04094 0.75657
 H2924 H 0.27284 0.04072 0.79627
 C2925 C 0.82087 0.59223 0.80968
 C2926 C 0.81199 0.58063 0.80332
 C2927 C 0.79662 0.57892 0.80755
 C2928 C 0.79040 0.58879 0.81803
 C2929 C 0.79929 0.60028 0.82430
 C2930 C 0.81461 0.60215 0.82023
 C2931 C 0.78768 0.56740 0.80122
 C2932 C 0.79389 0.55757 0.79067
 C2933 C 0.80927 0.55923 0.78642
 C2934 C 0.81823 0.57073 0.79279
 C2935 C 0.81538 0.54938 0.77579
 C2936 C 0.80632 0.53809 0.76936
 C2937 C 0.79105 0.53645 0.77350
 C2938 C 0.78491 0.54615 0.78422
 H2939 H 0.83266 0.59340 0.80647
 H2940 H 0.77863 0.58766 0.82137
 H2941 H 0.79403 0.60776 0.83225
 H2942 H 0.77588 0.56613 0.80447
 H2943 H 0.83001 0.57202 0.78952
 H2944 H 0.82714 0.55047 0.77240
 H2945 H 0.81116 0.53066 0.76108
 H2946 H 0.77310 0.54484 0.78739
 C2947 C 0.80839 0.09590 0.30370
 C2948 C 0.79957 0.08434 0.29723
 C2949 C 0.78376 0.08370 0.29999
 C2950 C 0.77708 0.09455 0.30927
 C2951 C 0.78595 0.10597 0.31574
 C2952 C 0.80166 0.10682 0.31298
 C2953 C 0.77489 0.07224 0.29344
 C2954 C 0.78166 0.06134 0.28424
 C2955 C 0.79751 0.06188 0.28159
 C2956 C 0.80635 0.07340 0.28807
 C2957 C 0.80427 0.05087 0.27251
 C2958 C 0.79541 0.03943 0.26609
 C2959 C 0.77968 0.03888 0.26859
 C2960 C 0.77283 0.04985 0.27766
 H2961 H 0.82051 0.09627 0.30160
 H2962 H 0.76498 0.09424 0.31152
 H2963 H 0.78041 0.11426 0.32274
 H2964 H 0.76275 0.07180 0.29552
 H2965 H 0.81849 0.07384 0.28600
 H2966 H 0.81639 0.05110 0.27039
 H2967 H 0.80079 0.03099 0.25911
 H2968 H 0.76068 0.04935 0.27961
 C2969 C 0.69210 0.40183 0.31666
 C2970 C 0.69950 0.41339 0.30883
 C2971 C 0.69736 0.41449 0.29350
 C2972 C 0.68780 0.40411 0.28629
 C2973 C 0.68038 0.39276 0.29416
 C2974 C 0.68245 0.39147 0.30939
 C2975 C 0.70478 0.42593 0.28561
 C2976 C 0.71425 0.43639 0.29284
 C2977 C 0.71631 0.43542 0.30820
 C2978 C 0.70895 0.42390 0.31609
 C2979 C 0.72573 0.44599 0.31539
 C2980 C 0.73312 0.45734 0.30743
 C2981 C 0.73124 0.45824 0.29219
 C2982 C 0.72174 0.44779 0.28495
 H2983 H 0.69369 0.40106 0.32841
 H2984 H 0.68605 0.40478 0.27455
 H2985 H 0.67317 0.38485 0.28823
 H2986 H 0.70316 0.42671 0.27384
 H2987 H 0.71057 0.42312 0.32785
 H2988 H 0.72742 0.44545 0.32714
 H2989 H 0.74043 0.46537 0.31311
 H2990 H 0.72028 0.44856 0.27317
 C2991 C 0.69215 0.89852 0.80108
 C2992 C 0.70082 0.91034 0.79497
 C2993 C 0.71677 0.90860 0.79361
 C2994 C 0.72376 0.89511 0.79819
 C2995 C 0.71511 0.88351 0.80433
 C2996 C 0.69928 0.88511 0.80598
 C2997 C 0.72554 0.92040 0.78778
 C2998 C 0.71862 0.93396 0.78327
 C2999 C 0.70267 0.93575 0.78450
 C3000 C 0.69386 0.92392 0.79036
 C3001 C 0.69584 0.94936 0.77983
 C3002 C 0.70473 0.96102 0.77392
 C3003 C 0.72055 0.95926 0.77269
 C3004 C 0.72744 0.94575 0.77750
 H3005 H 0.67997 0.89993 0.80235
 H3006 H 0.73595 0.89357 0.79713
 H3007 H 0.72088 0.87323 0.80778
 H3008 H 0.73778 0.91903 0.78678
 H3009 H 0.68164 0.92530 0.79137
 H3010 H 0.68364 0.95096 0.78068
 H3011 H 0.69928 0.97140 0.77024
 H3012 H 0.73968 0.94443 0.77660
 C3013 C 0.18821 0.40512 0.81730
 C3014 C 0.19339 0.41744 0.80891
 C3015 C 0.18312 0.42525 0.79964
 C3016 C 0.16785 0.42071 0.79901
 C3017 C 0.16284 0.40834 0.80725
 C3018 C 0.17295 0.40035 0.81639
 C3019 C 0.18830 0.43732 0.79096
 C3020 C 0.20369 0.44154 0.79125
 C3021 C 0.21397 0.43377 0.80057
 C3022 C 0.20874 0.42185 0.80941
 C3023 C 0.22939 0.43790 0.80070
 C3024 C 0.23463 0.44943 0.79150
 C3025 C 0.22452 0.45705 0.78213
 C3026 C 0.20903 0.45321 0.78216
 H3027 H 0.19617 0.39900 0.82420
 H3028 H 0.15981 0.42660 0.79201
 H3029 H 0.15099 0.40507 0.80645
 H3030 H 0.18041 0.44325 0.78381
 H3031 H 0.21665 0.41585 0.81648
 H3032 H 0.23743 0.43209 0.80776
 H3033 H 0.24661 0.45234 0.79157
 H3034 H 0.20125 0.45911 0.77488
 C3035 C 0.20302 0.90174 0.32191
 C3036 C 0.21046 0.91343 0.31426
 C3037 C 0.20772 0.91523 0.29907
 C3038 C 0.19764 0.90541 0.29182
 C3039 C 0.19013 0.89401 0.29954
 C3040 C 0.19267 0.89208 0.31463
 C3041 C 0.21495 0.92692 0.29137
 C3042 C 0.22472 0.93704 0.29866
 C3043 C 0.22747 0.93536 0.31385
 C3044 C 0.22040 0.92349 0.32154
 C3045 C 0.23711 0.94572 0.32109
 C3046 C 0.24384 0.95768 0.31337
 C3047 C 0.24112 0.95934 0.29831
 C3048 C 0.23163 0.94895 0.29099
 H3049 H 0.20499 0.90042 0.33357
 H3050 H 0.19544 0.90662 0.28019
 H3051 H 0.18240 0.88662 0.29360
 H3052 H 0.21281 0.92826 0.27973
 H3053 H 0.22248 0.92219 0.33319
 H3054 H 0.23933 0.94465 0.33273
 H3055 H 0.25113 0.96567 0.31912
 H3056 H 0.22950 0.95033 0.27936
 C3057 C 0.41016 0.31657 0.68391
 C3058 C 0.42222 0.31226 0.69314
 C3059 C 0.42948 0.32332 0.70204
 C3060 C 0.42459 0.33851 0.70149
 C3061 C 0.41251 0.34268 0.69236
 C3062 C 0.40512 0.33178 0.68352
 C3063 C 0.44137 0.31901 0.71145
 C3064 C 0.44598 0.30373 0.71221
 C3065 C 0.43874 0.29266 0.70327
 C3066 C 0.42698 0.29702 0.69374
 C3067 C 0.44324 0.27736 0.70416
 C3068 C 0.45465 0.27301 0.71397
 C3069 C 0.46179 0.28389 0.72294
 C3070 C 0.45755 0.29926 0.72195
 H3071 H 0.40453 0.30798 0.67730
 H3072 H 0.43004 0.34715 0.70820
 H3073 H 0.40902 0.35450 0.69220
 H3074 H 0.44690 0.32749 0.71832
 H3075 H 0.42140 0.28852 0.68693
 H3076 H 0.43782 0.26875 0.69740
 H3077 H 0.45785 0.26112 0.71470
 H3078 H 0.46306 0.30761 0.72896
 C3079 C 0.40720 0.81064 0.18703
 C3080 C 0.41969 0.80598 0.19560
 C3081 C 0.42971 0.81703 0.20152
 C3082 C 0.42721 0.83248 0.19863
 C3083 C 0.41468 0.83701 0.19028
 C3084 C 0.40446 0.82620 0.18454
 C3085 C 0.44193 0.81250 0.21043
 C3086 C 0.44418 0.79706 0.21366
 C3087 C 0.43423 0.78598 0.20766
 C3088 C 0.42210 0.79051 0.19861
 C3089 C 0.43650 0.77056 0.21094
 C3090 C 0.44842 0.76616 0.22016
 C3091 C 0.45827 0.77708 0.22624
 C3092 C 0.45613 0.79253 0.22292
 H3093 H 0.39935 0.80219 0.18276
 H3094 H 0.43482 0.84109 0.20302
 H3095 H 0.41296 0.84905 0.18838
 H3096 H 0.44955 0.82100 0.21502
 H3097 H 0.41442 0.78201 0.19410
 H3098 H 0.42901 0.76191 0.20643
 H3099 H 0.44998 0.75419 0.22260
 H3100 H 0.46372 0.80097 0.22765
 C3101 C 0.89422 0.31089 0.19313
 C3102 C 0.90658 0.30335 0.19972
 C3103 C 0.90618 0.28733 0.20132
 C3104 C 0.89355 0.27914 0.19623
 C3105 C 0.88136 0.28671 0.18967
 C3106 C 0.88152 0.30263 0.18807
 C3107 C 0.91833 0.27975 0.20808
 C3108 C 0.93089 0.28796 0.21333
 C3109 C 0.93143 0.30396 0.21161
 C3110 C 0.91927 0.31155 0.20478
 C3111 C 0.94404 0.31210 0.21694
 C3112 C 0.95585 0.30450 0.22417
 C3113 C 0.95521 0.28868 0.22614
 C3114 C 0.94284 0.28043 0.22049
 H3115 H 0.89458 0.32315 0.19186
 H3116 H 0.89305 0.26687 0.19740
 H3117 H 0.87171 0.28003 0.18604
 H3118 H 0.91795 0.26748 0.20940
 H3119 H 0.91963 0.32382 0.20354
 H3120 H 0.94467 0.32434 0.21569
 H3121 H 0.96537 0.31096 0.22847
 H3122 H 0.94242 0.26818 0.22198
 C3123 C 0.91413 0.79632 0.68250
 C3124 C 0.92588 0.78832 0.68952
 C3125 C 0.92920 0.79134 0.70442
 C3126 C 0.92088 0.80253 0.71195
 C3127 C 0.90925 0.81051 0.70486
 C3128 C 0.90564 0.80736 0.69014
 C3129 C 0.94067 0.78307 0.71157
 C3130 C 0.94890 0.77185 0.70399
 C3131 C 0.94578 0.76902 0.68899
 C3132 C 0.93428 0.77727 0.68187
 C3133 C 0.95415 0.75790 0.68140
 C3134 C 0.96539 0.74952 0.68863
 C3135 C 0.96835 0.75211 0.70353
 C3136 C 0.96016 0.76331 0.71117
 H3137 H 0.91164 0.79394 0.67109
 H3138 H 0.92329 0.80503 0.72337
 H3139 H 0.90285 0.81890 0.71102
 H3140 H 0.94312 0.78530 0.72304
 H3141 H 0.93180 0.77501 0.67041
 H3142 H 0.95194 0.75563 0.66990
 H3143 H 0.97169 0.74090 0.68267
 H3144 H 0.96254 0.76528 0.72269
 C3145 C 0.58378 0.31491 0.30600
 C3146 C 0.57088 0.30715 0.30078
 C3147 C 0.56241 0.29788 0.31042
 C3148 C 0.56683 0.29673 0.32513
 C3149 C 0.57988 0.30417 0.33014
 C3150 C 0.58857 0.31312 0.32059
 C3151 C 0.54999 0.28950 0.30511
 C3152 C 0.54617 0.28991 0.29021
 C3153 C 0.55451 0.29930 0.28056
 C3154 C 0.56669 0.30801 0.28595
 C3155 C 0.55079 0.29945 0.26560
 C3156 C 0.53920 0.29008 0.26018
 C3157 C 0.53110 0.28057 0.26968
 C3158 C 0.53444 0.28070 0.28470
 H3159 H 0.59052 0.32167 0.29853
 H3160 H 0.56044 0.28972 0.33268
 H3161 H 0.58329 0.30277 0.34146
 H3162 H 0.54361 0.28227 0.31249
 H3163 H 0.57320 0.31507 0.27853
 H3164 H 0.55704 0.30657 0.25805
 H3165 H 0.53667 0.29005 0.24856
 H3166 H 0.52819 0.27327 0.29198
 C3167 C 0.59531 0.81612 0.80510
 C3168 C 0.58325 0.80841 0.79816
 C3169 C 0.57975 0.79332 0.80228
 C3170 C 0.58816 0.78631 0.81346
 C3171 C 0.60008 0.79409 0.82036
 C3172 C 0.60389 0.80899 0.81617
 C3173 C 0.56801 0.78541 0.79509
 C3174 C 0.55968 0.79243 0.78384
 C3175 C 0.56296 0.80765 0.77993
 C3176 C 0.57473 0.81553 0.78710
 C3177 C 0.55450 0.81469 0.76878
 C3178 C 0.54304 0.80666 0.76143
 C3179 C 0.53994 0.79148 0.76506
 C3180 C 0.54819 0.78443 0.77635
 H3181 H 0.59797 0.82767 0.80188
 H3182 H 0.58562 0.77476 0.81678
 H3183 H 0.60652 0.78826 0.82876
 H3184 H 0.56543 0.77378 0.79816
 H3185 H 0.57734 0.82715 0.78399
 H3186 H 0.55682 0.82635 0.76567
 H3187 H 0.53671 0.81220 0.75275
 H3188 H 0.54572 0.77271 0.77915
 C3189 C 0.09245 0.30855 0.80596
 C3190 C 0.08118 0.29981 0.79894
 C3191 C 0.07950 0.28425 0.80249
 C3192 C 0.08901 0.27775 0.81311
 C3193 C 0.10020 0.28651 0.82005
 C3194 C 0.10215 0.30197 0.81650
 C3195 C 0.06841 0.27543 0.79535
 C3196 C 0.05894 0.28197 0.78470
 C3197 C 0.06051 0.29757 0.78121
 C3198 C 0.07162 0.30639 0.78835
 C3199 C 0.05094 0.30409 0.77061
 C3200 C 0.03998 0.29522 0.76346
 C3201 C 0.03846 0.27971 0.76677
 C3202 C 0.04792 0.27314 0.77743
 H3203 H 0.09375 0.32040 0.80301
 H3204 H 0.08784 0.26586 0.81603
 H3205 H 0.10730 0.28109 0.82820
 H3206 H 0.06719 0.26347 0.79805
 H3207 H 0.07287 0.31833 0.78562
 H3208 H 0.05197 0.31602 0.76781
 H3209 H 0.03271 0.30040 0.75526
 H3210 H 0.04667 0.26117 0.78001
 C3211 C 0.09427 0.80084 0.31397
 C3212 C 0.08239 0.79490 0.30532
 C3213 C 0.08102 0.79932 0.29048
 C3214 C 0.09144 0.80967 0.28460
 C3215 C 0.10308 0.81567 0.29332
 C3216 C 0.10463 0.81133 0.30806
 C3217 C 0.06924 0.79340 0.28177
 C3218 C 0.05867 0.78323 0.28773
 C3219 C 0.05990 0.77892 0.30261
 C3220 C 0.07180 0.78472 0.31128
 C3221 C 0.04916 0.76889 0.30855
 C3222 C 0.03734 0.76316 0.29983
 C3223 C 0.03617 0.76731 0.28505
 C3224 C 0.04683 0.77734 0.27904
 H3225 H 0.09525 0.79752 0.32535
 H3226 H 0.09056 0.81317 0.27326
 H3227 H 0.11098 0.82359 0.28843
 H3228 H 0.06824 0.79676 0.27038
 H3229 H 0.07277 0.78137 0.32268
 H3230 H 0.04989 0.76549 0.31993
 H3231 H 0.02915 0.75542 0.30457
 H3232 H 0.04584 0.78055 0.26761
 C3233 C 0.59189 0.68693 0.68927
 C3234 C 0.57941 0.69602 0.69334
 C3235 C 0.57134 0.70425 0.68252
 C3236 C 0.57574 0.70309 0.66782
 C3237 C 0.58827 0.69421 0.66390
 C3238 C 0.59658 0.68620 0.67457
 C3239 C 0.55921 0.71375 0.68658
 C3240 C 0.55519 0.71533 0.70136
 C3241 C 0.56315 0.70699 0.71219
 C3242 C 0.57513 0.69730 0.70809
 C3243 C 0.55918 0.70870 0.72697
 C3244 C 0.54763 0.71880 0.73103
 C3245 C 0.53985 0.72727 0.72036
 C3246 C 0.54353 0.72537 0.70553
 H3247 H 0.59825 0.68091 0.69763
 H3248 H 0.56964 0.70926 0.65938
 H3249 H 0.59149 0.69368 0.65247
 H3250 H 0.55311 0.72014 0.67828
 H3251 H 0.58132 0.69101 0.71641
 H3252 H 0.56513 0.70240 0.73541
 H3253 H 0.54484 0.72018 0.74251
 H3254 H 0.53751 0.73197 0.69732
 C3255 C 0.58919 0.18877 0.18924
 C3256 C 0.57676 0.19697 0.19478
 C3257 C 0.57358 0.21172 0.18940
 C3258 C 0.58268 0.21782 0.17829
 C3259 C 0.59500 0.20952 0.17276
 C3260 C 0.59849 0.19503 0.17832
 C3261 C 0.56149 0.22017 0.19533
 C3262 C 0.55253 0.21404 0.20655
 C3263 C 0.55550 0.19914 0.21167
 C3264 C 0.56759 0.19071 0.20576
 C3265 C 0.54645 0.19297 0.22278
 C3266 C 0.53476 0.20159 0.22900
 C3267 C 0.53200 0.21649 0.22423
 C3268 C 0.54078 0.22265 0.21290
 H3269 H 0.59162 0.17751 0.19346
 H3270 H 0.58039 0.22908 0.17400
 H3271 H 0.60202 0.21464 0.16441
 H3272 H 0.55917 0.23156 0.19133
 H3273 H 0.56997 0.17936 0.20982
 H3274 H 0.54853 0.18155 0.22679
 H3275 H 0.52802 0.19676 0.23773
 H3276 H 0.53856 0.23417 0.20923
 C3277 C 0.08800 0.69118 0.18705
 C3278 C 0.07682 0.69993 0.19411
 C3279 C 0.07755 0.71601 0.19359
 C3280 C 0.08930 0.72304 0.18580
 C3281 C 0.10032 0.71424 0.17870
 C3282 C 0.09987 0.69826 0.17935
 C3283 C 0.06659 0.72479 0.20094
 C3284 C 0.05486 0.71770 0.20874
 C3285 C 0.05397 0.70160 0.20903
 C3286 C 0.06496 0.69284 0.20173
 C3287 C 0.04214 0.69454 0.21672
 C3288 C 0.03143 0.70332 0.22425
 C3289 C 0.03242 0.71926 0.22423
 C3290 C 0.04407 0.72643 0.21638
 H3291 H 0.08739 0.67887 0.18747
 H3292 H 0.09002 0.73535 0.18526
 H3293 H 0.10938 0.72000 0.17293
 H3294 H 0.06723 0.73713 0.20065
 H3295 H 0.06434 0.68050 0.20205
 H3296 H 0.04125 0.68224 0.21701
 H3297 H 0.02246 0.69771 0.23027
 H3298 H 0.04475 0.73876 0.21637
 C3299 C 0.09612 0.18302 0.68862
 C3300 C 0.08342 0.19114 0.69390
 C3301 C 0.07664 0.20250 0.68508
 C3302 C 0.08253 0.20547 0.67117
 C3303 C 0.09511 0.19739 0.66602
 C3304 C 0.10215 0.18613 0.67465
 C3305 C 0.06416 0.21083 0.69031
 C3306 C 0.05835 0.20804 0.70432
 C3307 C 0.06500 0.19661 0.71317
 C3308 C 0.07746 0.18820 0.70788
 C3309 C 0.05915 0.19396 0.72723
 C3310 C 0.04704 0.20273 0.73255
 C3311 C 0.04055 0.21416 0.72384
 C3312 C 0.04613 0.21668 0.70970
 H3313 H 0.10129 0.17439 0.69546
 H3314 H 0.07745 0.21412 0.66427
 H3315 H 0.09926 0.20014 0.65523
 H3316 H 0.05906 0.21960 0.68354
 H3317 H 0.08260 0.17949 0.71469
 H3318 H 0.06406 0.18525 0.73417
 H3319 H 0.04282 0.20074 0.74351
 H3320 H 0.04112 0.22560 0.70305
 C3321 C 0.40809 0.69546 0.32018
 C3322 C 0.41890 0.70237 0.31103
 C3323 C 0.41942 0.69840 0.29599
 C3324 C 0.40926 0.68755 0.29038
 C3325 C 0.39878 0.68055 0.29958
 C3326 C 0.39809 0.68439 0.31454
 C3327 C 0.43016 0.70520 0.28680
 C3328 C 0.44058 0.71578 0.29246
 C3329 C 0.44023 0.71965 0.30753
 C3330 C 0.42932 0.71300 0.31670
 C3331 C 0.45087 0.73008 0.31317
 C3332 C 0.46168 0.73665 0.30395
 C3333 C 0.46192 0.73298 0.28898
 C3334 C 0.45140 0.72251 0.28328
 H3335 H 0.40772 0.69840 0.33173
 H3336 H 0.40950 0.68439 0.27889
 H3337 H 0.39109 0.67219 0.29493
 H3338 H 0.43049 0.70218 0.27526
 H3339 H 0.42902 0.71599 0.32825
 H3340 H 0.45082 0.73314 0.32468
 H3341 H 0.46980 0.74470 0.30844
 H3342 H 0.45169 0.71965 0.27171
 C3343 C 0.40483 0.20243 0.81519
 C3344 C 0.41612 0.20925 0.80654
 C3345 C 0.41757 0.20504 0.79163
 C3346 C 0.40779 0.19404 0.78567
 C3347 C 0.39667 0.18724 0.79436
 C3348 C 0.39503 0.19135 0.80919
 C3349 C 0.42878 0.21184 0.78293
 C3350 C 0.43865 0.22276 0.78895
 C3351 C 0.43729 0.22692 0.80390
 C3352 C 0.42601 0.22017 0.81258
 C3353 C 0.44728 0.23774 0.80992
 C3354 C 0.45849 0.24441 0.80123
 C3355 C 0.45984 0.24043 0.78638
 C3356 C 0.44992 0.22957 0.78029
 H3357 H 0.40383 0.20564 0.82663
 H3358 H 0.40872 0.19068 0.77426
 H3359 H 0.38923 0.17889 0.78935
 H3360 H 0.42985 0.20862 0.77149
 H3361 H 0.42496 0.22339 0.82402
 H3362 H 0.44644 0.24103 0.82135
 H3363 H 0.46613 0.25272 0.80605
 H3364 H 0.45105 0.22644 0.76883
 C3365 C 0.91159 0.67618 0.80023
 C3366 C 0.92281 0.68342 0.79183
 C3367 C 0.92530 0.69925 0.79357
 C3368 C 0.91660 0.70752 0.80370
 C3369 C 0.90564 0.70019 0.81216
 C3370 C 0.90304 0.68448 0.81054
 C3371 C 0.93653 0.70653 0.78528
 C3372 C 0.94547 0.69816 0.77542
 C3373 C 0.94309 0.68231 0.77374
 C3374 C 0.93170 0.67506 0.78189
 C3375 C 0.95224 0.67395 0.76401
 C3376 C 0.96368 0.68122 0.75606
 C3377 C 0.96602 0.69693 0.75764
 C3378 C 0.95689 0.70538 0.76729
 H3379 H 0.90979 0.66403 0.79899
 H3380 H 0.91834 0.71965 0.80516
 H3381 H 0.89911 0.70688 0.81990
 H3382 H 0.93840 0.71867 0.78662
 H3383 H 0.92987 0.66291 0.78059
 H3384 H 0.95061 0.66180 0.76261
 H3385 H 0.97071 0.67462 0.74865
 H3386 H 0.95880 0.71752 0.76852
 C3387 C 0.90248 0.19906 0.31281
 C3388 C 0.91311 0.20712 0.30443
 C3389 C 0.91333 0.20522 0.28904
 C3390 C 0.90290 0.19534 0.28232
 C3391 C 0.89236 0.18736 0.29073
 C3392 C 0.89202 0.18909 0.30607
 C3393 C 0.92400 0.21317 0.28063
 C3394 C 0.93450 0.22295 0.28742
 C3395 C 0.93427 0.22491 0.30282
 C3396 C 0.92355 0.21700 0.31122
 C3397 C 0.94485 0.23467 0.30956
 C3398 C 0.95568 0.24228 0.30114
 C3399 C 0.95603 0.24028 0.28589
 C3400 C 0.94536 0.23070 0.27906
 H3401 H 0.90251 0.20051 0.32460
 H3402 H 0.90289 0.19377 0.27053
 H3403 H 0.88443 0.17991 0.28514
 H3404 H 0.92419 0.21166 0.26883
 H3405 H 0.92340 0.21847 0.32303
 H3406 H 0.94484 0.23631 0.32134
 H3407 H 0.96389 0.24964 0.30651
 H3408 H 0.94572 0.22912 0.26727
 C3409 C 0.31304 0.31239 0.58648
 C3410 C 0.30777 0.30304 0.57503
 C3411 C 0.31517 0.28906 0.57205
 C3412 C 0.32775 0.28473 0.58053
 C3413 C 0.33290 0.29407 0.59195
 C3414 C 0.32559 0.30797 0.59512
 C3415 C 0.30980 0.27959 0.56074
 C3416 C 0.29704 0.28388 0.55243
 C3417 C 0.28966 0.29790 0.55539
 C3418 C 0.29512 0.30741 0.56662
 C3419 C 0.27679 0.30207 0.54720
 C3420 C 0.27113 0.29234 0.53633
 C3421 C 0.27835 0.27841 0.53340
 C3422 C 0.29137 0.27426 0.54137
 H3423 H 0.30731 0.32308 0.58862
 H3424 H 0.33354 0.27404 0.57842
 H3425 H 0.34251 0.29024 0.59837
 H3426 H 0.31543 0.26883 0.55851
 H3427 H 0.28941 0.31812 0.56892
 H3428 H 0.27097 0.31273 0.54934
 H3429 H 0.26101 0.29556 0.53028
 H3430 H 0.29682 0.26340 0.53915
 C3431 C 0.31848 0.80777 0.09443
 C3432 C 0.31103 0.80345 0.08139
 C3433 C 0.30374 0.81465 0.07273
 C3434 C 0.30419 0.82994 0.07711
 C3435 C 0.31123 0.83407 0.09025
 C3436 C 0.31823 0.82304 0.09912
 C3437 C 0.29566 0.81037 0.06011
 C3438 C 0.29435 0.79498 0.05623
 C3439 C 0.30173 0.78374 0.06476
 C3440 C 0.31021 0.78806 0.07717
 C3441 C 0.30010 0.76831 0.06097
 C3442 C 0.29088 0.76406 0.04913
 C3443 C 0.28332 0.77516 0.04082
 C3444 C 0.28531 0.79061 0.04423
 H3445 H 0.32374 0.79918 0.10129
 H3446 H 0.29872 0.83867 0.07059
 H3447 H 0.31105 0.84592 0.09358
 H3448 H 0.28997 0.81898 0.05359
 H3449 H 0.31574 0.77944 0.08380
 H3450 H 0.30566 0.75954 0.06736
 H3451 H 0.28939 0.75209 0.04658
 H3452 H 0.27937 0.79915 0.03784
 C3453 C 0.78708 0.30774 0.09643
 C3454 C 0.78087 0.29959 0.08454
 C3455 C 0.78108 0.28348 0.08468
 C3456 C 0.78729 0.27582 0.09670
 C3457 C 0.79341 0.28398 0.10845
 C3458 C 0.79352 0.30001 0.10843
 C3459 C 0.77511 0.27526 0.07280
 C3460 C 0.76886 0.28291 0.06077
 C3461 C 0.76848 0.29901 0.06062
 C3462 C 0.77453 0.30726 0.07250
 C3463 C 0.76203 0.30656 0.04857
 C3464 C 0.75599 0.29822 0.03681
 C3465 C 0.75641 0.28223 0.03690
 C3466 C 0.76293 0.27466 0.04888
 H3467 H 0.78708 0.32007 0.09618
 H3468 H 0.78745 0.26348 0.09701
 H3469 H 0.79803 0.27763 0.11756
 H3470 H 0.77533 0.26290 0.07292
 H3471 H 0.77430 0.31961 0.07237
 H3472 H 0.76161 0.31889 0.04826
 H3473 H 0.75097 0.30420 0.02764
 H3474 H 0.76331 0.26231 0.04892
 C3475 C 0.80615 0.81373 0.60000
 C3476 C 0.79877 0.80561 0.58871
 C3477 C 0.80099 0.78969 0.58743
 C3478 C 0.81056 0.78219 0.59734
 C3479 C 0.81797 0.79035 0.60838
 C3480 C 0.81589 0.80616 0.60984
 C3481 C 0.79366 0.78149 0.57625
 C3482 C 0.78424 0.78899 0.56620
 C3483 C 0.78208 0.80493 0.56734
 C3484 C 0.78932 0.81313 0.57863
 C3485 C 0.77273 0.81238 0.55713
 C3486 C 0.76554 0.80410 0.54596
 C3487 C 0.76755 0.78828 0.54488
 C3488 C 0.77694 0.78078 0.55499
 H3489 H 0.80454 0.82593 0.60095
 H3490 H 0.81235 0.77000 0.59653
 H3491 H 0.82522 0.78417 0.61591
 H3492 H 0.79535 0.76928 0.57534
 H3493 H 0.78765 0.82534 0.57953
 H3494 H 0.77096 0.82457 0.55780
 H3495 H 0.75831 0.80999 0.53819
 H3496 H 0.77851 0.76856 0.55409
 C3497 C 0.31700 0.69671 0.40658
 C3498 C 0.30868 0.70388 0.41780
 C3499 C 0.29269 0.70211 0.41835
 C3500 C 0.28532 0.69320 0.40771
 C3501 C 0.29369 0.68600 0.39669
 C3502 C 0.30958 0.68764 0.39600
 C3503 C 0.28433 0.70919 0.42954
 C3504 C 0.29175 0.71794 0.44029
 C3505 C 0.30774 0.71969 0.43980
 C3506 C 0.31610 0.71269 0.42854
 C3507 C 0.31511 0.72840 0.45064
 C3508 C 0.30671 0.73531 0.46184
 C3509 C 0.29085 0.73365 0.46235
 C3510 C 0.28341 0.72495 0.45156
 H3511 H 0.32926 0.69797 0.40629
 H3512 H 0.27308 0.69174 0.40795
 H3513 H 0.28764 0.67924 0.38862
 H3514 H 0.27207 0.70783 0.42993
 H3515 H 0.32836 0.71404 0.42816
 H3516 H 0.32735 0.72986 0.45045
 H3517 H 0.31256 0.74202 0.47010
 H3518 H 0.27115 0.72365 0.45200
 C3519 C 0.31704 0.20737 0.90382
 C3520 C 0.30921 0.21466 0.91532
 C3521 C 0.29316 0.21592 0.91468
 C3522 C 0.28523 0.20998 0.90262
 C3523 C 0.29306 0.20264 0.89136
 C3524 C 0.30899 0.20115 0.89186
 C3525 C 0.28523 0.22302 0.92612
 C3526 C 0.29310 0.22883 0.93828
 C3527 C 0.30914 0.22760 0.93902
 C3528 C 0.31711 0.22053 0.92751
 C3529 C 0.31690 0.23347 0.95128
 C3530 C 0.30885 0.24058 0.96262
 C3531 C 0.29295 0.24192 0.96186
 C3532 C 0.28513 0.23591 0.94972
 H3533 H 0.32931 0.20621 0.90438
 H3534 H 0.27295 0.21092 0.90194
 H3535 H 0.28658 0.19817 0.88220
 H3536 H 0.27293 0.22397 0.92559
 H3537 H 0.32941 0.21956 0.92806
 H3538 H 0.32918 0.23262 0.95206
 H3539 H 0.31501 0.24517 0.97194
 H3540 H 0.27283 0.23687 0.94919
 C3541 C 0.81704 0.68395 0.91133
 C3542 C 0.81126 0.69244 0.92315
 C3543 C 0.81885 0.70580 0.92781
 C3544 C 0.83218 0.71034 0.92068
 C3545 C 0.83781 0.70189 0.90888
 C3546 C 0.83027 0.68868 0.90396
 C3547 C 0.81291 0.71451 0.93938
 C3548 C 0.79935 0.71014 0.94623
 C3549 C 0.79179 0.69670 0.94165
 C3550 C 0.79786 0.68788 0.93021
 C3551 C 0.77812 0.69247 0.94840
 C3552 C 0.77181 0.70166 0.95936
 C3553 C 0.77918 0.71506 0.96380
 C3554 C 0.79302 0.71918 0.95736
 H3555 H 0.81112 0.67375 0.90786
 H3556 H 0.83816 0.72055 0.92412
 H3557 H 0.84798 0.70592 0.90351
 H3558 H 0.81869 0.72483 0.94287
 H3559 H 0.79201 0.67763 0.92664
 H3560 H 0.77217 0.68222 0.94503
 H3561 H 0.76106 0.69846 0.96424
 H3562 H 0.79859 0.72964 0.96077
 C3563 C 0.80793 0.18801 0.40464
 C3564 C 0.80352 0.19600 0.41729
 C3565 C 0.81472 0.20237 0.42663
 C3566 C 0.83015 0.20045 0.42323
 C3567 C 0.83444 0.19255 0.41056
 C3568 C 0.82340 0.18636 0.40105
 C3569 C 0.81031 0.21072 0.43908
 C3570 C 0.79482 0.21292 0.44220
 C3571 C 0.78364 0.20639 0.43289
 C3572 C 0.78807 0.19793 0.42056
 C3573 C 0.76818 0.20864 0.43593
 C3574 C 0.76379 0.21749 0.44792
 C3575 C 0.77477 0.22418 0.45710
 C3576 C 0.79029 0.22175 0.45431
 H3577 H 0.79922 0.18345 0.39744
 H3578 H 0.83891 0.20519 0.43028
 H3579 H 0.84645 0.19135 0.40823
 H3580 H 0.81890 0.21570 0.44619
 H3581 H 0.77947 0.19304 0.41339
 H3582 H 0.75948 0.20371 0.42892
 H3583 H 0.75178 0.21927 0.44999
 H3584 H 0.79875 0.22697 0.46140
 C3585 C 0.69130 0.31137 0.40292
 C3586 C 0.69810 0.30306 0.41434
 C3587 C 0.69803 0.28694 0.41379
 C3588 C 0.69123 0.27943 0.40191
 C3589 C 0.68440 0.28774 0.39072
 C3590 C 0.68428 0.30375 0.39112
 C3591 C 0.70474 0.27855 0.42510
 C3592 C 0.71155 0.28602 0.43700
 C3593 C 0.71162 0.30212 0.43767
 C3594 C 0.70487 0.31055 0.42633
 C3595 C 0.71856 0.30948 0.44965
 C3596 C 0.72559 0.30095 0.46068
 C3597 C 0.72575 0.28499 0.45990
 C3598 C 0.71847 0.27759 0.44818
 H3599 H 0.69119 0.32371 0.40338
 H3600 H 0.69114 0.26710 0.40130
 H3601 H 0.67928 0.28157 0.38167
 H3602 H 0.70470 0.26620 0.42462
 H3603 H 0.70493 0.32290 0.42681
 H3604 H 0.71869 0.32180 0.45039
 H3605 H 0.73113 0.30678 0.46972
 H3606 H 0.71849 0.26524 0.44766
 C3607 C 0.69040 0.79935 0.90403
 C3608 C 0.69858 0.79495 0.91661
 C3609 C 0.71208 0.80280 0.92049
 C3610 C 0.71713 0.81490 0.91186
 C3611 C 0.70911 0.81902 0.89930
 C3612 C 0.69577 0.81125 0.89518
 C3613 C 0.72052 0.79828 0.93277
 C3614 C 0.71585 0.78580 0.94110
 C3615 C 0.70236 0.77790 0.93731
 C3616 C 0.69372 0.78263 0.92516
 C3617 C 0.69794 0.76521 0.94558
 C3618 C 0.70700 0.76021 0.95724
 C3619 C 0.72044 0.76795 0.96090
 C3620 C 0.72472 0.78084 0.95294
 H3621 H 0.68018 0.79324 0.90090
 H3622 H 0.72742 0.82105 0.91471
 H3623 H 0.71336 0.82839 0.89284
 H3624 H 0.73090 0.80428 0.93566
 H3625 H 0.68342 0.77653 0.92219
 H3626 H 0.68766 0.75900 0.94284
 H3627 H 0.70366 0.75019 0.96331
 H3628 H 0.73520 0.78671 0.95576
 C3629 C 0.20008 0.31798 0.90476
 C3630 C 0.20783 0.31074 0.91631
 C3631 C 0.20971 0.29474 0.91602
 C3632 C 0.20394 0.28628 0.90422
 C3633 C 0.19624 0.29353 0.89283
 C3634 C 0.19413 0.30942 0.89297
 C3635 C 0.21732 0.28740 0.92751
 C3636 C 0.22315 0.29584 0.93931
 C3637 C 0.22138 0.31184 0.93966
 C3638 C 0.21369 0.31920 0.92816
 C3639 C 0.22738 0.32020 0.95150
 C3640 C 0.23516 0.31276 0.96281
 C3641 C 0.23696 0.29687 0.96249
 C3642 C 0.23083 0.28848 0.95076
 H3643 H 0.19849 0.33021 0.90510
 H3644 H 0.20535 0.27402 0.90379
 H3645 H 0.19203 0.28662 0.88386
 H3646 H 0.21872 0.27512 0.92725
 H3647 H 0.21229 0.33148 0.92843
 H3648 H 0.22615 0.33247 0.95197
 H3649 H 0.23987 0.31938 0.97179
 H3650 H 0.23218 0.27620 0.95053
 C3651 C 0.19452 0.81169 0.40847
 C3652 C 0.20116 0.80348 0.42004
 C3653 C 0.19902 0.78754 0.42086
 C3654 C 0.19004 0.78015 0.41030
 C3655 C 0.18335 0.78841 0.39894
 C3656 C 0.18560 0.80421 0.39782
 C3657 C 0.20595 0.77923 0.43216
 C3658 C 0.21494 0.78665 0.44272
 C3659 C 0.21683 0.80264 0.44210
 C3660 C 0.20996 0.81094 0.43075
 C3661 C 0.22570 0.81003 0.45279
 C3662 C 0.23286 0.80163 0.46382
 C3663 C 0.23130 0.78576 0.46428
 C3664 C 0.22222 0.77831 0.45380
 H3665 H 0.19620 0.82389 0.40783
 H3666 H 0.18826 0.76795 0.41077
 H3667 H 0.17665 0.78232 0.39084
 H3668 H 0.20443 0.76698 0.43267
 H3669 H 0.21153 0.82318 0.43020
 H3670 H 0.22723 0.82227 0.45253
 H3671 H 0.23986 0.80747 0.47186
 H3672 H 0.22104 0.76602 0.45422
 C3673 C 0.68818 0.68870 0.59558
 C3674 C 0.69665 0.69620 0.58481
 C3675 C 0.71269 0.69498 0.58480
 C3676 C 0.71994 0.68605 0.59546
 C3677 C 0.71140 0.67864 0.60620
 C3678 C 0.69546 0.68006 0.60649
 C3679 C 0.72119 0.70283 0.57424
 C3680 C 0.71382 0.71188 0.56373
 C3681 C 0.69773 0.71290 0.56367
 C3682 C 0.68927 0.70504 0.57418
 C3683 C 0.69035 0.72187 0.55315
 C3684 C 0.69881 0.72988 0.54282
 C3685 C 0.71475 0.72907 0.54289
 C3686 C 0.72223 0.72002 0.55331
 H3687 H 0.67590 0.68971 0.59546
 H3688 H 0.73222 0.68495 0.59561
 H3689 H 0.71733 0.67211 0.61447
 H3690 H 0.73351 0.70199 0.57428
 H3691 H 0.67695 0.70592 0.57418
 H3692 H 0.67805 0.72275 0.55294
 H3693 H 0.69294 0.73682 0.53481
 H3694 H 0.73456 0.71939 0.55329
 C3695 C 0.68297 0.18633 0.08951
 C3696 C 0.69113 0.19222 0.07762
 C3697 C 0.70720 0.19132 0.07756
 C3698 C 0.71479 0.18414 0.08916
 C3699 C 0.70658 0.17823 0.10091
 C3700 C 0.69063 0.17947 0.10132
 C3701 C 0.71545 0.19783 0.06606
 C3702 C 0.70783 0.20525 0.05461
 C3703 C 0.69173 0.20576 0.05442
 C3704 C 0.68348 0.19922 0.06592
 C3705 C 0.68416 0.21310 0.04286
 C3706 C 0.69247 0.22028 0.03184
 C3707 C 0.70842 0.22021 0.03226
 C3708 C 0.71607 0.21249 0.04351
 H3709 H 0.67066 0.18716 0.08959
 H3710 H 0.72710 0.18330 0.08927
 H3711 H 0.71279 0.17309 0.10987
 H3712 H 0.72779 0.19735 0.06615
 H3713 H 0.67115 0.19982 0.06589
 H3714 H 0.67184 0.21354 0.04250
 H3715 H 0.68650 0.22624 0.02320
 H3716 H 0.72841 0.21249 0.04377
 C3717 C 0.18488 0.69675 0.09072
 C3718 C 0.19396 0.70296 0.07963
 C3719 C 0.20928 0.69823 0.07818
 C3720 C 0.21518 0.68722 0.08770
 C3721 C 0.20605 0.68105 0.09866
 C3722 C 0.19086 0.68581 0.10036
 C3723 C 0.21849 0.70465 0.06732
 C3724 C 0.21257 0.71573 0.05787
 C3725 C 0.19718 0.72030 0.05915
 C3726 C 0.18798 0.71388 0.07003
 C3727 C 0.19128 0.73132 0.04961
 C3728 C 0.20060 0.73794 0.03905
 C3729 C 0.21594 0.73368 0.03791
 C3730 C 0.22185 0.72245 0.04722
 H3731 H 0.17315 0.70039 0.09177
 H3732 H 0.22688 0.68346 0.08675
 H3733 H 0.21102 0.67274 0.10598
 H3734 H 0.23027 0.70110 0.06630
 H3735 H 0.17621 0.71748 0.07108
 H3736 H 0.17951 0.73492 0.05041
 H3737 H 0.19594 0.74658 0.03188
 H3738 H 0.23369 0.71911 0.04624
 C3739 C 0.18655 0.18768 0.58637
 C3740 C 0.19476 0.19296 0.57424
 C3741 C 0.20454 0.18289 0.56660
 C3742 C 0.20585 0.16773 0.57114
 C3743 C 0.19785 0.16265 0.58336
 C3744 C 0.18826 0.17258 0.59117
 C3745 C 0.21311 0.18821 0.55476
 C3746 C 0.21226 0.20354 0.55062
 C3747 C 0.20244 0.21362 0.55821
 C3748 C 0.19365 0.20822 0.56989
 C3749 C 0.20179 0.22899 0.55414
 C3750 C 0.21100 0.23439 0.54286
 C3751 C 0.22090 0.22448 0.53544
 C3752 C 0.22136 0.20903 0.53922
 H3753 H 0.17930 0.19549 0.59240
 H3754 H 0.21326 0.15986 0.56539
 H3755 H 0.19924 0.15093 0.58673
 H3756 H 0.22068 0.18050 0.54897
 H3757 H 0.18619 0.21597 0.57577
 H3758 H 0.19434 0.23687 0.55983
 H3759 H 0.21056 0.24634 0.53999
 H3760 H 0.22906 0.20143 0.53348
   
