data_POSCAR
  _audit_creation_date              2014-09-24
  _audit_creation_method            'ToBaCCo'
  _symmetry_space_group_name_H-M    'P1'
  _symmetry_Int_Tables_number       1
  _symmetry_cell_setting            triclinic
  loop_
  _symmetry_equiv_pos_as_xyz
 x,y,z
_cell_length_a 86.6395
_cell_length_b 87.6842
_cell_length_c 90.0782
_cell_angle_alpha 89.978400
_cell_angle_beta 90.026600
_cell_angle_gamma 90.123600
loop_
  _atom_site_label
  _atom_site_type_symbol
  _atom_site_fract_x
  _atom_site_fract_y
  _atom_site_fract_z
N1 N 0.36290 0.31932 0.32868
 N2 N 0.36493 0.33208 0.32125
 C3 C 0.37702 0.33035 0.31194
 C4 C 0.38273 0.31570 0.31376
 C5 C 0.37348 0.30908 0.32441
 H6 H 0.38101 0.33889 0.30417
 H7 H 0.37416 0.29749 0.32849
 Cu8 Cu 0.35051 0.34897 0.32380
 Cu9 Cu 0.34597 0.31635 0.34247
 Cu10 Cu 0.32981 0.34985 0.35539
 N11 N 0.33543 0.36499 0.32756
 N12 N 0.32744 0.36529 0.33998
 C13 C 0.31748 0.37703 0.33953
 C14 C 0.31919 0.38441 0.32609
 C15 C 0.33071 0.37649 0.31874
 H16 H 0.30920 0.37966 0.34814
 H17 H 0.33494 0.37855 0.30762
 N18 N 0.32796 0.33029 0.36603
 N19 N 0.33374 0.31749 0.36073
 C20 C 0.33022 0.30599 0.36999
 C21 C 0.32173 0.31175 0.38162
 C22 C 0.32045 0.32724 0.37880
 H23 H 0.33355 0.29422 0.36836
 H24 H 0.31436 0.33560 0.38537
 H25 H 0.33141 0.33498 0.33843
 H26 H 0.34982 0.33811 0.34879
 N27 N 0.37062 0.82227 -0.15895
 N28 N 0.36965 0.83234 -0.16972
 C29 C 0.37980 0.82870 -0.18046
 C30 C 0.38753 0.81559 -0.17613
 C31 C 0.38144 0.81188 -0.16241
 H32 H 0.38118 0.83499 -0.19070
 H33 H 0.38449 0.80222 -0.15554
 Cu34 Cu 0.35515 0.84922 -0.16863
 Cu35 Cu 0.35757 0.82344 -0.14143
 Cu36 Cu 0.32372 0.84365 -0.14735
 N37 N 0.33802 0.86345 -0.16873
 N38 N 0.32565 0.86127 -0.16052
 C39 C 0.31523 0.87222 -0.16363
 C40 C 0.32149 0.88174 -0.17438
 C41 C 0.33595 0.87586 -0.17727
 H42 H 0.30386 0.87286 -0.15873
 H43 H 0.34413 0.88001 -0.18541
 N44 N 0.32621 0.82864 -0.13111
 N45 N 0.33931 0.82137 -0.12869
 C46 C 0.33746 0.81170 -0.11725
 C47 C 0.32250 0.81288 -0.11217
 C48 C 0.31565 0.82378 -0.12116
 H49 H 0.34617 0.80388 -0.11329
 H50 H 0.30379 0.82755 -0.12079
 H51 H 0.34068 0.82926 -0.15587
 H52 H 0.34659 0.84490 -0.14302
 N53 N 0.87266 0.32021 -0.16685
 N54 N 0.87038 0.32895 -0.17849
 C55 C 0.88132 0.32604 -0.18870
 C56 C 0.89087 0.31478 -0.18322
 C57 C 0.88509 0.31137 -0.16928
 H58 H 0.88194 0.33123 -0.19958
 H59 H 0.88921 0.30273 -0.16169
 Cu60 Cu 0.85255 0.34220 -0.17986
 Cu61 Cu 0.85839 0.31980 -0.15021
 Cu62 Cu 0.82819 0.34570 -0.15086
 N63 N 0.83745 0.35842 -0.17884
 N64 N 0.82770 0.35970 -0.16773
 C65 C 0.81808 0.37146 -0.17045
 C66 C 0.82215 0.37782 -0.18400
 C67 C 0.83449 0.36932 -0.18893
 H68 H 0.80874 0.37489 -0.16324
 H69 H 0.84063 0.37077 -0.19929
 N70 N 0.83098 0.33055 -0.13482
 N71 N 0.84275 0.32101 -0.13446
 C72 C 0.84122 0.31173 -0.12266
 C73 C 0.82785 0.31548 -0.11528
 C74 C 0.82159 0.32750 -0.12324
 H75 H 0.84887 0.30240 -0.11997
 H76 H 0.81080 0.33323 -0.12108
 H77 H 0.83874 0.32746 -0.16108
 H78 H 0.85162 0.34239 -0.15291
 N79 N 0.86177 0.82232 0.33864
 N80 N 0.86367 0.83475 0.33066
 C81 C 0.87529 0.83260 0.32100
 C82 C 0.88095 0.81804 0.32294
 C83 C 0.87210 0.81177 0.33424
 H84 H 0.87916 0.84088 0.31291
 H85 H 0.87292 0.80039 0.33880
 Cu86 Cu 0.85024 0.85227 0.33286
 Cu87 Cu 0.84545 0.82071 0.35357
 Cu88 Cu 0.82893 0.85523 0.36352
 N89 N 0.83412 0.86757 0.33454
 N90 N 0.82596 0.86888 0.34676
 C91 C 0.81554 0.88008 0.34504
 C92 C 0.81711 0.88600 0.33091
 C93 C 0.82911 0.87784 0.32453
 H94 H 0.80709 0.88333 0.35330
 H95 H 0.83362 0.87895 0.31339
 N96 N 0.82699 0.83671 0.37556
 N97 N 0.83262 0.82335 0.37157
 C98 C 0.82765 0.81267 0.38125
 C99 C 0.81839 0.81976 0.39172
 C100 C 0.81831 0.83495 0.38780
 H101 H 0.83004 0.80061 0.38037
 H102 H 0.81164 0.84391 0.39296
 H103 H 0.83114 0.83882 0.34778
 H104 H 0.84918 0.84281 0.35843
 N105 N 0.63455 0.67684 0.33302
 N106 N 0.63642 0.66604 0.32306
 C107 C 0.62644 0.66830 0.31181
 C108 C 0.61787 0.68115 0.31489
 C109 C 0.62329 0.68633 0.32845
 H110 H 0.62561 0.66131 0.30196
 H111 H 0.61960 0.69638 0.33441
 Cu112 Cu 0.65211 0.65046 0.32555
 Cu113 Cu 0.64726 0.67809 0.35090
 Cu114 Cu 0.67497 0.64988 0.35548
 N115 N 0.66785 0.63489 0.32797
 N116 N 0.67666 0.63467 0.33985
 C117 C 0.68706 0.62339 0.33854
 C118 C 0.68468 0.61617 0.32513
 C119 C 0.67237 0.62373 0.31867
 H120 H 0.69609 0.62096 0.34649
 H121 H 0.66746 0.62166 0.30783
 N122 N 0.67155 0.66626 0.37002
 N123 N 0.66125 0.67719 0.36821
 C124 C 0.66255 0.68718 0.37953
 C125 C 0.67422 0.68222 0.38884
 C126 C 0.67959 0.66896 0.38253
 H127 H 0.65577 0.69743 0.38072
 H128 H 0.68907 0.66210 0.38654
 H129 H 0.66635 0.66725 0.34222
 H130 H 0.65194 0.65516 0.35218
 N131 N 0.63667 0.18206 -0.16892
 N132 N 0.63458 0.17009 -0.17747
 C133 C 0.62198 0.17242 -0.18599
 C134 C 0.61596 0.18660 -0.18240
 C135 C 0.62554 0.19231 -0.17155
 H136 H 0.61795 0.16474 -0.19456
 H137 H 0.62496 0.20350 -0.16652
 Cu138 Cu 0.64984 0.15374 -0.17755
 Cu139 Cu 0.65488 0.18473 -0.15678
 Cu140 Cu 0.67433 0.15138 -0.14848
 N141 N 0.66573 0.13812 -0.17652
 N142 N 0.67534 0.13725 -0.16524
 C143 C 0.68548 0.12590 -0.16771
 C144 C 0.68207 0.11943 -0.18138
 C145 C 0.66945 0.12742 -0.18659
 H146 H 0.69484 0.12299 -0.16030
 H147 H 0.66372 0.12583 -0.19716
 N148 N 0.67630 0.17013 -0.13645
 N149 N 0.66920 0.18288 -0.14014
 C150 C 0.67316 0.19393 -0.13058
 C151 C 0.68327 0.18797 -0.12036
 C152 C 0.68511 0.17280 -0.12433
 H153 H 0.66905 0.20556 -0.13105
 H154 H 0.69255 0.16449 -0.11911
 H155 H 0.66993 0.16742 -0.16388
 H156 H 0.65310 0.16228 -0.15193
 N157 N 0.12954 0.67582 -0.17111
 N158 N 0.13218 0.66629 -0.18207
 C159 C 0.12189 0.66874 -0.19298
 C160 C 0.11237 0.68052 -0.18872
 C161 C 0.11750 0.68478 -0.17475
 H162 H 0.12169 0.66279 -0.20349
 H163 H 0.11316 0.69398 -0.16794
 Cu164 Cu 0.14960 0.65259 -0.18173
 Cu165 Cu 0.14276 0.67642 -0.15358
 Cu166 Cu 0.17178 0.64910 -0.15129
 N167 N 0.16336 0.63551 -0.17913
 N168 N 0.17255 0.63430 -0.16757
 C169 C 0.18161 0.62192 -0.16937
 C170 C 0.17765 0.61508 -0.18273
 C171 C 0.16604 0.62395 -0.18852
 H172 H 0.19046 0.61832 -0.16168
 H173 H 0.16030 0.62235 -0.19908
 N174 N 0.16866 0.66512 -0.13607
 N175 N 0.15736 0.67520 -0.13684
 C176 C 0.15845 0.68478 -0.12523
 C177 C 0.17103 0.68067 -0.11679
 C178 C 0.17729 0.66814 -0.12394
 H179 H 0.15102 0.69447 -0.12331
 H180 H 0.18756 0.66195 -0.12079
 H181 H 0.16279 0.66744 -0.16265
 H182 H 0.14871 0.65346 -0.15481
 N183 N 0.14236 0.17933 0.32685
 N184 N 0.13822 0.16620 0.32105
 C185 C 0.12616 0.16851 0.31182
 C186 C 0.12273 0.18396 0.31199
 C187 C 0.13325 0.19042 0.32157
 H188 H 0.12057 0.15972 0.30532
 H189 H 0.13434 0.20237 0.32436
 Cu190 Cu 0.14982 0.14778 0.32576
 Cu191 Cu 0.15972 0.18151 0.34018
 Cu192 Cu 0.17269 0.14805 0.35599
 N193 N 0.16505 0.13182 0.32921
 N194 N 0.17374 0.13180 0.34120
 C195 C 0.18355 0.11996 0.34056
 C196 C 0.18101 0.11223 0.32743
 C197 C 0.16913 0.12003 0.32048
 H198 H 0.19239 0.11757 0.34872
 H199 H 0.16420 0.11772 0.30968
 N200 N 0.17650 0.16819 0.36493
 N201 N 0.17205 0.18091 0.35838
 C202 C 0.17660 0.19287 0.36657
 C203 C 0.18435 0.18751 0.37883
 C204 C 0.18416 0.17176 0.37751
 H205 H 0.17432 0.20468 0.36388
 H206 H 0.18931 0.16354 0.38495
 H207 H 0.17138 0.16095 0.33769
 H208 H 0.15354 0.16127 0.34928
 N209 N 0.63349 0.32527 0.66188
 N210 N 0.63437 0.33562 0.67239
 C211 C 0.62291 0.33327 0.68222
 C212 C 0.61439 0.32083 0.67759
 C213 C 0.62140 0.31601 0.66461
 H214 H 0.62110 0.33984 0.69223
 H215 H 0.61830 0.30627 0.65788
 Cu216 Cu 0.65109 0.35039 0.67246
 Cu217 Cu 0.64878 0.32387 0.64604
 Cu218 Cu 0.67940 0.34970 0.64718
 N219 N 0.66821 0.36464 0.67355
 N220 N 0.67935 0.36434 0.66364
 C221 C 0.68999 0.37498 0.66723
 C222 C 0.68524 0.38225 0.68008
 C223 C 0.67136 0.37538 0.68376
 H224 H 0.70053 0.37709 0.66113
 H225 H 0.66420 0.37780 0.69328
 N226 N 0.67712 0.33396 0.63152
 N227 N 0.66540 0.32429 0.63110
 C228 C 0.66736 0.31467 0.61963
 C229 C 0.68091 0.31837 0.61249
 C230 C 0.68685 0.33067 0.62028
 H231 H 0.65976 0.30530 0.61687
 H232 H 0.69765 0.33647 0.61819
 H233 H 0.66703 0.33297 0.65808
 H234 H 0.65595 0.34639 0.64613
 N235 N 0.63727 0.82448 1.15964
 N236 N 0.63541 0.83574 1.16910
 C237 C 0.62478 0.83168 1.17929
 C238 C 0.61974 0.81707 1.17594
 C239 C 0.62790 0.81288 1.16345
 H240 H 0.62119 0.83874 1.18849
 H241 H 0.62706 0.80216 1.15758
 Cu242 Cu 0.64744 0.85438 1.16746
 Cu243 Cu 0.65138 0.82572 1.14287
 Cu244 Cu 0.67117 0.85981 1.13854
 N245 N 0.66375 0.86966 1.16803
 N246 N 0.67282 0.87188 1.15654
 C247 C 0.68324 0.88273 1.15985
 C248 C 0.68068 0.88748 1.17423
 C249 C 0.66818 0.87898 1.17914
 H250 H 0.69238 0.88648 1.15252
 H251 H 0.66298 0.87919 1.19005
 N252 N 0.67311 0.84270 1.12463
 N253 N 0.66600 0.82952 1.12652
 C254 C 0.67075 0.81975 1.11595
 C255 C 0.68141 0.82716 1.10705
 C256 C 0.68261 0.84167 1.11286
 H257 H 0.66708 0.80799 1.11511
 H258 H 0.69033 0.85060 1.10916
 H259 H 0.66632 0.84159 1.15204
 H260 H 0.64977 0.84868 1.14076
 N261 N 0.13871 0.32526 1.16438
 N262 N 0.13710 0.33684 1.17353
 C263 C 0.12506 0.33407 1.18262
 C264 C 0.11882 0.32002 1.17895
 C265 C 0.12781 0.31474 1.16732
 H266 H 0.12129 0.34154 1.19144
 H267 H 0.12680 0.30396 1.16159
 Cu268 Cu 0.15149 0.35395 1.17308
 Cu269 Cu 0.15550 0.32412 1.15007
 Cu270 Cu 0.17379 0.35851 1.14304
 N271 N 0.16806 0.36905 1.17270
 N272 N 0.17659 0.37088 1.16075
 C273 C 0.18716 0.38181 1.16327
 C274 C 0.18527 0.38707 1.17757
 C275 C 0.17301 0.37875 1.18330
 H276 H 0.19587 0.38538 1.15538
 H277 H 0.16829 0.37942 1.19439
 N278 N 0.17524 0.34088 1.12968
 N279 N 0.16871 0.32760 1.13259
 C280 C 0.17302 0.31747 1.12216
 C281 C 0.18284 0.32476 1.11231
 C282 C 0.18396 0.33956 1.11740
 H283 H 0.16972 0.30558 1.12211
 H284 H 0.19120 0.34851 1.11290
 H285 H 0.17048 0.34121 1.15747
 H286 H 0.15288 0.34674 1.14682
 N287 N 0.13791 0.82317 0.66017
 N288 N 0.13521 0.83389 0.67001
 C289 C 0.12290 0.82992 0.67827
 C290 C 0.11759 0.81593 0.67328
 C291 C 0.12737 0.81199 0.66180
 H292 H 0.11853 0.83652 0.68747
 H293 H 0.12708 0.80155 0.65541
 Cu294 Cu 0.14858 0.85151 0.67174
 Cu295 Cu 0.15544 0.82419 0.64668
 Cu296 Cu 0.18229 0.85283 0.65322
 N297 N 0.16473 0.86570 0.67720
 N298 N 0.17794 0.86627 0.67004
 C299 C 0.18718 0.87664 0.67667
 C300 C 0.17924 0.88276 0.68862
 C301 C 0.16509 0.87556 0.68861
 H302 H 0.19890 0.87913 0.67333
 H303 H 0.15590 0.87710 0.69659
 N304 N 0.18426 0.83796 0.63680
 N305 N 0.17392 0.82717 0.63432
 C306 C 0.17845 0.81875 0.62264
 C307 C 0.19234 0.82447 0.61750
 C308 C 0.19571 0.83662 0.62674
 H309 H 0.17224 0.80897 0.61844
 H310 H 0.20585 0.84381 0.62623
 H311 H 0.16907 0.83560 0.66207
 H312 H 0.15993 0.84755 0.64730
 N313 N 0.36693 0.67367 0.66306
 N314 N 0.36968 0.66200 0.67183
 C315 C 0.38142 0.66544 0.68098
 C316 C 0.38635 0.68003 0.67784
 C317 C 0.37694 0.68499 0.66636
 H318 H 0.38563 0.65811 0.68976
 H319 H 0.37690 0.69616 0.66126
 Cu320 Cu 0.35677 0.64398 0.67182
 Cu321 Cu 0.34975 0.67350 0.64892
 Cu322 Cu 0.32334 0.64403 0.65320
 N323 N 0.34058 0.62950 0.67643
 N324 N 0.32739 0.62960 0.66923
 C325 C 0.31794 0.61903 0.67520
 C326 C 0.32569 0.61202 0.68680
 C327 C 0.34000 0.61894 0.68725
 H328 H 0.30620 0.61699 0.67166
 H329 H 0.34914 0.61678 0.69517
 N330 N 0.32145 0.65974 0.63764
 N331 N 0.33149 0.67096 0.63590
 C332 C 0.32685 0.67983 0.62451
 C333 C 0.31325 0.67385 0.61887
 C334 C 0.31019 0.66117 0.62744
 H335 H 0.33277 0.69000 0.62078
 H336 H 0.30033 0.65367 0.62640
 H337 H 0.33653 0.66082 0.66332
 H338 H 0.34587 0.65025 0.64767
 N339 N 0.36866 0.17543 1.16590
 N340 N 0.36839 0.16441 1.17580
 C341 C 0.37938 0.16706 1.18606
 C342 C 0.38699 0.18039 1.18234
 C343 C 0.37989 0.18542 1.16947
 H344 H 0.38151 0.16001 1.19569
 H345 H 0.38235 0.19579 1.16341
 Cu346 Cu 0.35341 0.14787 1.17473
 Cu347 Cu 0.35387 0.17655 1.14964
 Cu348 Cu 0.32442 0.14989 1.15015
 N349 N 0.33546 0.13452 1.17622
 N350 N 0.32416 0.13544 1.16653
 C351 C 0.31286 0.12551 1.16993
 C352 C 0.31680 0.11686 1.18328
 C353 C 0.33217 0.12382 1.18649
 H354 H 0.30226 0.12428 1.16370
 H355 H 0.33953 0.12101 1.19579
 N356 N 0.32652 0.16533 1.13446
 N357 N 0.33767 0.17560 1.13425
 C358 C 0.33537 0.18508 1.12268
 C359 C 0.32215 0.18054 1.11530
 C360 C 0.31687 0.16796 1.12304
 H361 H 0.34248 0.19487 1.12004
 H362 H 0.30651 0.16148 1.12085
 H363 H 0.33697 0.16608 1.16200
 H364 H 0.34807 0.15386 1.14877
 N365 N 0.86355 0.67816 1.16094
 N366 N 0.86478 0.66609 1.16954
 C367 C 0.87580 0.66856 1.17974
 C368 C 0.88185 0.68293 1.17753
 C369 C 0.87381 0.68880 1.16549
 H370 H 0.87889 0.66069 1.18850
 H371 H 0.87498 0.70005 1.16069
 Cu372 Cu 0.85114 0.64866 1.16767
 Cu373 Cu 0.84783 0.67923 1.14531
 Cu374 Cu 0.83020 0.64469 1.13689
 N375 N 0.83464 0.63366 1.16644
 N376 N 0.82658 0.63195 1.15421
 C377 C 0.81594 0.62095 1.15626
 C378 C 0.81735 0.61556 1.17060
 C379 C 0.82936 0.62386 1.17678
 H380 H 0.80754 0.61743 1.14806
 H381 H 0.83373 0.62311 1.18801
 N382 N 0.82911 0.66257 1.12388
 N383 N 0.83518 0.67598 1.12720
 C384 C 0.83056 0.68622 1.11691
 C385 C 0.82109 0.67878 1.10679
 C386 C 0.82053 0.66387 1.11153
 H387 H 0.83323 0.69826 1.11719
 H388 H 0.81353 0.65483 1.10688
 H389 H 0.83280 0.66192 1.15179
 H390 H 0.85079 0.65679 1.14163
 N391 N 0.86368 0.17700 0.65901
 N392 N 0.86540 0.16575 0.66851
 C393 C 0.87689 0.16924 0.67802
 C394 C 0.88266 0.18345 0.67418
 C395 C 0.87402 0.18801 0.66210
 H396 H 0.88051 0.16211 0.68717
 H397 H 0.87508 0.19867 0.65613
 Cu398 Cu 0.85197 0.14798 0.66790
 Cu399 Cu 0.84811 0.17671 0.64345
 Cu400 Cu 0.82382 0.14525 0.64239
 N401 N 0.83482 0.13388 0.67035
 N402 N 0.82381 0.13288 0.66034
 C403 C 0.81341 0.12240 0.66474
 C404 C 0.81810 0.11657 0.67825
 C405 C 0.83175 0.12411 0.68152
 H406 H 0.80308 0.11938 0.65865
 H407 H 0.83882 0.12281 0.69133
 N408 N 0.82256 0.16213 0.62800
 N409 N 0.83171 0.17418 0.62849
 C410 C 0.82768 0.18389 0.61759
 C411 C 0.81536 0.17766 0.60991
 C412 C 0.81239 0.16391 0.61682
 H413 H 0.83309 0.19481 0.61561
 H414 H 0.80328 0.15595 0.61408
 H415 H 0.83264 0.16278 0.65474
 H416 H 0.84640 0.15354 0.64164
 N417 N 0.32407 0.36792 0.65934
 N418 N 0.33321 0.36771 0.67100
 C419 C 0.32863 0.37849 0.68066
 C420 C 0.31593 0.38586 0.67468
 C421 C 0.31342 0.37892 0.66113
 H422 H 0.33386 0.38040 0.69140
 H423 H 0.30416 0.38127 0.65341
 Cu424 Cu 0.34976 0.35286 0.67287
 Cu425 Cu 0.32598 0.35301 0.64339
 Cu426 Cu 0.34280 0.31962 0.65582
 N427 N 0.36274 0.33514 0.67632
 N428 N 0.35983 0.32217 0.66955
 C429 C 0.36966 0.31148 0.67443
 C430 C 0.37930 0.31805 0.68479
 C431 C 0.37463 0.33313 0.68578
 H432 H 0.36953 0.29966 0.67098
 H433 H 0.37914 0.34180 0.69314
 N434 N 0.32982 0.32070 0.63799
 N435 N 0.32380 0.33347 0.63288
 C436 C 0.31559 0.33036 0.62052
 C437 C 0.31663 0.31485 0.61780
 C438 C 0.32574 0.30913 0.62903
 H439 H 0.30905 0.33868 0.61430
 H440 H 0.32899 0.29734 0.63063
 H441 H 0.32928 0.33864 0.66042
 H442 H 0.34660 0.34114 0.64836
 N443 N 0.32067 0.86561 0.16344
 N444 N 0.33190 0.86439 0.17319
 C445 C 0.32996 0.87507 0.18379
 C446 C 0.31686 0.88339 0.18047
 C447 C 0.31128 0.87708 0.16745
 H448 H 0.33730 0.87650 0.19342
 H449 H 0.30095 0.88025 0.16150
 Cu450 Cu 0.34753 0.84852 0.17133
 Cu451 Cu 0.31830 0.85167 0.14684
 Cu452 Cu 0.34509 0.82268 0.14368
 N453 N 0.36221 0.83178 0.16957
 N454 N 0.36122 0.82185 0.15867
 C455 C 0.37236 0.81132 0.16027
 C456 C 0.38078 0.81476 0.17283
 C457 C 0.37404 0.82784 0.17851
 H458 H 0.37402 0.80162 0.15304
 H459 H 0.37726 0.83381 0.18854
 N460 N 0.32793 0.82539 0.12957
 N461 N 0.31773 0.83647 0.13079
 C462 C 0.30699 0.83482 0.12010
 C463 C 0.31058 0.82213 0.11177
 C464 C 0.32395 0.81640 0.11805
 H465 H 0.29696 0.84200 0.11872
 H466 H 0.32999 0.80616 0.11483
 H467 H 0.32908 0.83341 0.15708
 H468 H 0.34133 0.84586 0.14501
 N469 N 0.82795 0.36896 0.16662
 N470 N 0.84000 0.36693 0.17525
 C471 C 0.83952 0.37711 0.18644
 C472 C 0.82652 0.38602 0.18463
 C473 C 0.81943 0.38052 0.17194
 H474 H 0.84784 0.37780 0.19537
 H475 H 0.80862 0.38425 0.16718
 Cu476 Cu 0.85486 0.35092 0.17122
 Cu477 Cu 0.82354 0.35585 0.14977
 Cu478 Cu 0.84689 0.32419 0.14545
 N479 N 0.86632 0.33198 0.17018
 N480 N 0.86322 0.32157 0.16011
 C481 C 0.87266 0.30958 0.16211
 C482 C 0.88216 0.31264 0.17407
 C483 C 0.87781 0.32697 0.17896
 H484 H 0.87251 0.29927 0.15552
 H485 H 0.88239 0.33319 0.18835
 N486 N 0.82975 0.32905 0.13184
 N487 N 0.82095 0.34121 0.13346
 C488 C 0.81000 0.34114 0.12286
 C489 C 0.81196 0.32835 0.11420
 C490 C 0.82460 0.32091 0.12016
 H491 H 0.80096 0.34954 0.12173
 H492 H 0.82946 0.31020 0.11652
 H493 H 0.83370 0.33706 0.15975
 H494 H 0.84562 0.34764 0.14582
 N495 N 0.81996 0.87371 0.66344
 N496 N 0.83113 0.87219 0.67320
 C497 C 0.82920 0.88258 0.68408
 C498 C 0.81611 0.89101 0.68088
 C499 C 0.81057 0.88507 0.66774
 H500 H 0.83647 0.88360 0.69378
 H501 H 0.80018 0.88850 0.66198
 Cu502 Cu 0.84661 0.85621 0.67122
 Cu503 Cu 0.81770 0.86024 0.64644
 Cu504 Cu 0.84412 0.83096 0.64305
 N505 N 0.86092 0.83920 0.66935
 N506 N 0.85994 0.82951 0.65825
 C507 C 0.87073 0.81864 0.65991
 C508 C 0.87889 0.82161 0.67273
 C509 C 0.87239 0.83476 0.67849
 H510 H 0.87225 0.80900 0.65258
 H511 H 0.87548 0.84042 0.68873
 N512 N 0.82730 0.83426 0.62875
 N513 N 0.81725 0.84547 0.62999
 C514 C 0.80667 0.84415 0.61910
 C515 C 0.81019 0.83149 0.61067
 C516 C 0.82336 0.82549 0.61707
 H517 H 0.79674 0.85146 0.61772
 H518 H 0.82930 0.81519 0.61383
 H519 H 0.82810 0.84165 0.65650
 H520 H 0.84067 0.85417 0.64479
 N521 N 0.67680 0.62823 0.66736
 N522 N 0.66467 0.62749 0.67608
 C523 C 0.66687 0.61650 0.68629
 C524 C 0.68115 0.61000 0.68383
 C525 C 0.68715 0.61769 0.67169
 H526 H 0.65886 0.61367 0.69508
 H527 H 0.69830 0.61604 0.66657
 Cu528 Cu 0.64752 0.64144 0.67374
 Cu529 Cu 0.67853 0.64334 0.65159
 Cu530 Cu 0.65067 0.67166 0.65084
 N531 N 0.63359 0.65862 0.67509
 N532 N 0.63479 0.67048 0.66623
 C533 C 0.62403 0.68085 0.67008
 C534 C 0.61574 0.67509 0.68200
 C535 C 0.62213 0.66101 0.68486
 H536 H 0.62263 0.69186 0.66484
 H537 H 0.61892 0.65324 0.69368
 N538 N 0.66774 0.67057 0.63630
 N539 N 0.67822 0.65965 0.63657
 C540 C 0.68843 0.66205 0.62557
 C541 C 0.68428 0.67509 0.61803
 C542 C 0.67109 0.68025 0.62509
 H543 H 0.69840 0.65502 0.62334
 H544 H 0.66458 0.69040 0.62245
 H545 H 0.66605 0.65936 0.66351
 H546 H 0.65535 0.64872 0.64873
 N547 N 0.68472 0.13496 0.16370
 N548 N 0.67328 0.13304 0.17309
 C549 C 0.67542 0.11986 0.18053
 C550 C 0.68895 0.11327 0.17541
 C551 C 0.69448 0.12314 0.16475
 H552 H 0.66806 0.11572 0.18934
 H553 H 0.70523 0.12216 0.15871
 Cu554 Cu 0.65787 0.14899 0.17546
 Cu555 Cu 0.68729 0.15354 0.15226
 Cu556 Cu 0.65402 0.17526 0.14856
 N557 N 0.64207 0.16464 0.17655
 N558 N 0.64070 0.17506 0.16612
 C559 C 0.62923 0.18470 0.16983
 C560 C 0.62320 0.18004 0.18335
 C561 C 0.63160 0.16730 0.18725
 H562 H 0.62578 0.19445 0.16329
 H563 H 0.63033 0.16067 0.19730
 N564 N 0.67196 0.17719 0.13505
 N565 N 0.68465 0.16909 0.13687
 C566 C 0.69500 0.17308 0.12649
 C567 C 0.68865 0.18424 0.11770
 C568 C 0.67399 0.18668 0.12339
 H569 H 0.70642 0.16824 0.12541
 H570 H 0.66559 0.19489 0.11956
 H571 H 0.67156 0.16893 0.16184
 H572 H 0.66406 0.15356 0.14945
 N573 N 0.17831 0.63476 0.16743
 N574 N 0.16773 0.63390 0.17784
 C575 C 0.17126 0.62244 0.18716
 C576 C 0.18473 0.61573 0.18236
 C577 C 0.18895 0.62380 0.16977
 H578 H 0.16470 0.61934 0.19691
 H579 H 0.19905 0.62203 0.16295
 Cu580 Cu 0.15065 0.64818 0.17903
 Cu581 Cu 0.17755 0.65029 0.15193
 Cu582 Cu 0.14798 0.67678 0.15426
 N583 N 0.13478 0.66373 0.18049
 N584 N 0.13376 0.67495 0.17086
 C585 C 0.12220 0.68433 0.17493
 C586 C 0.11568 0.67864 0.18783
 C587 C 0.12394 0.66561 0.19103
 H588 H 0.11908 0.69467 0.16914
 H589 H 0.12238 0.65826 0.20055
 N590 N 0.16339 0.67686 0.13821
 N591 N 0.17473 0.66687 0.13730
 C592 C 0.18359 0.67037 0.12545
 C593 C 0.17747 0.68317 0.11864
 C594 C 0.16473 0.68694 0.12701
 H595 H 0.19388 0.66427 0.12221
 H596 H 0.15719 0.69657 0.12519
 H597 H 0.16644 0.66622 0.16498
 H598 H 0.15418 0.65399 0.15275
 N599 N 0.18328 0.12778 0.66596
 N600 N 0.17178 0.12851 0.67547
 C601 C 0.17414 0.11820 0.68635
 C602 C 0.18784 0.11067 0.68343
 C603 C 0.19331 0.11704 0.67045
 H604 H 0.16669 0.11660 0.69584
 H605 H 0.20398 0.11425 0.66487
 Cu606 Cu 0.15525 0.14337 0.67308
 Cu607 Cu 0.18485 0.14119 0.64883
 Cu608 Cu 0.15613 0.16810 0.64443
 N609 N 0.13975 0.15930 0.67079
 N610 N 0.14007 0.16869 0.65941
 C611 C 0.12861 0.17890 0.66078
 C612 C 0.12070 0.17584 0.67371
 C613 C 0.12804 0.16330 0.67985
 H614 H 0.12653 0.18827 0.65325
 H615 H 0.12541 0.15785 0.69031
 N616 N 0.17334 0.16585 0.63042
 N617 N 0.18443 0.15572 0.63216
 C618 C 0.19508 0.15781 0.62145
 C619 C 0.19045 0.16979 0.61258
 C620 C 0.17662 0.17463 0.61856
 H621 H 0.20571 0.15145 0.62043
 H622 H 0.16977 0.18423 0.61497
 H623 H 0.17279 0.15902 0.65835
 H624 H 0.16153 0.14527 0.64673
 N625 N 0.32724 0.63424 0.33606
 N626 N 0.33744 0.63608 0.32540
 C627 C 0.33501 0.62551 0.31482
 C628 C 0.32260 0.61660 0.31903
 C629 C 0.31797 0.62240 0.33264
 H630 H 0.34154 0.62462 0.30462
 H631 H 0.30842 0.61857 0.33942
 Cu632 Cu 0.35266 0.65242 0.32595
 Cu633 Cu 0.32649 0.64791 0.35320
 Cu634 Cu 0.34118 0.68350 0.34438
 N635 N 0.36401 0.67154 0.32453
 N636 N 0.35933 0.68365 0.33181
 C637 C 0.36842 0.69556 0.32838
 C638 C 0.37944 0.69069 0.31843
 C639 C 0.37635 0.67533 0.31617
 H640 H 0.36691 0.70702 0.33256
 H641 H 0.38227 0.66764 0.30875
 N642 N 0.32725 0.67986 0.36121
 N643 N 0.32202 0.66628 0.36505
 C644 C 0.31322 0.66772 0.37734
 C645 C 0.31306 0.68299 0.38132
 C646 C 0.32203 0.69028 0.37089
 H647 H 0.30722 0.65844 0.38275
 H648 H 0.32460 0.70235 0.37042
 H649 H 0.32989 0.66369 0.33753
 H650 H 0.34631 0.66179 0.35082
 N651 N 0.32266 0.13592 0.83738
 N652 N 0.33175 0.13689 0.82574
 C653 C 0.32840 0.12550 0.81628
 C654 C 0.31653 0.11698 0.82221
 C655 C 0.31311 0.12387 0.83565
 H656 H 0.33392 0.12374 0.80565
 H657 H 0.30419 0.12060 0.84343
 Cu658 Cu 0.34649 0.15335 0.82330
 Cu659 Cu 0.32375 0.15072 0.85355
 Cu660 Cu 0.35355 0.17713 0.85170
 N661 N 0.36432 0.16675 0.82339
 N662 N 0.36712 0.17602 0.83453
 C663 C 0.37950 0.18469 0.83126
 C664 C 0.38470 0.18058 0.81729
 C665 C 0.37483 0.16917 0.81265
 H666 H 0.38393 0.19371 0.83824
 H667 H 0.37498 0.16346 0.80201
 N668 N 0.33858 0.17649 0.86811
 N669 N 0.32703 0.16666 0.86873
 C670 C 0.31814 0.17003 0.88058
 C671 C 0.32448 0.18256 0.88769
 C672 C 0.33739 0.18630 0.87953
 H673 H 0.30759 0.16414 0.88347
 H674 H 0.34496 0.19592 0.88146
 H675 H 0.33352 0.16872 0.84209
 H676 H 0.34703 0.15438 0.85024
 N677 N 0.82664 0.63431 0.83441
 N678 N 0.83758 0.63595 0.82441
 C679 C 0.83580 0.62524 0.81384
 C680 C 0.82312 0.61644 0.81738
 C681 C 0.81753 0.62249 0.83052
 H682 H 0.84301 0.62404 0.80412
 H683 H 0.80751 0.61876 0.83668
 Cu684 Cu 0.85269 0.65229 0.82581
 Cu685 Cu 0.82493 0.64789 0.85158
 Cu686 Cu 0.85286 0.67620 0.85470
 N687 N 0.86785 0.66861 0.82728
 N688 N 0.86804 0.67767 0.83890
 C689 C 0.87887 0.68848 0.83695
 C690 C 0.88578 0.68618 0.82336
 C691 C 0.87855 0.67344 0.81746
 H692 H 0.88102 0.69786 0.84449
 H693 H 0.88046 0.66847 0.80665
 N694 N 0.83648 0.67310 0.86945
 N695 N 0.82546 0.66275 0.86812
 C696 C 0.81505 0.66489 0.87907
 C697 C 0.81986 0.67715 0.88760
 C698 C 0.83343 0.68198 0.88124
 H699 H 0.80445 0.65849 0.88031
 H700 H 0.84008 0.69188 0.88450
 H701 H 0.83538 0.66658 0.84193
 H702 H 0.84797 0.65313 0.85243
 N703 N 0.81964 0.13687 0.33310
 N704 N 0.83163 0.13353 0.32481
 C705 C 0.82864 0.12059 0.31723
 C706 C 0.81398 0.11564 0.32113
 C707 C 0.80866 0.12621 0.33121
 H708 H 0.83633 0.11549 0.30921
 H709 H 0.79738 0.12647 0.33635
 Cu710 Cu 0.84934 0.14715 0.32400
 Cu711 Cu 0.81833 0.15562 0.34435
 Cu712 Cu 0.85244 0.17593 0.34864
 N713 N 0.86414 0.16360 0.32135
 N714 N 0.86561 0.17476 0.33100
 C715 C 0.87685 0.18431 0.32634
 C716 C 0.88257 0.17879 0.31300
 C717 C 0.87422 0.16570 0.31020
 H718 H 0.88033 0.19459 0.33208
 H719 H 0.87532 0.15831 0.30064
 N720 N 0.83422 0.17905 0.36153
 N721 N 0.82124 0.17141 0.35950
 C722 C 0.81084 0.17586 0.36962
 C723 C 0.81741 0.18692 0.37842
 C724 C 0.83229 0.18877 0.37303
 H725 H 0.79924 0.17138 0.37057
 H726 H 0.84098 0.19663 0.37704
 H727 H 0.83587 0.16889 0.33481
 H728 H 0.84140 0.15451 0.34911
 N729 N 0.67472 0.37278 0.33481
 N730 N 0.66560 0.37052 0.32337
 C731 C 0.66963 0.38011 0.31236
 C732 C 0.68194 0.38888 0.31726
 C733 C 0.68482 0.38396 0.33155
 H734 H 0.66403 0.38058 0.30164
 H735 H 0.69372 0.38807 0.33899
 Cu736 Cu 0.64913 0.35548 0.32413
 Cu737 Cu 0.67271 0.36082 0.35287
 Cu738 Cu 0.65469 0.32585 0.34722
 N739 N 0.63539 0.33804 0.32416
 N740 N 0.63758 0.32627 0.33297
 C741 C 0.62691 0.31550 0.32982
 C742 C 0.61757 0.32099 0.31850
 C743 C 0.62327 0.33528 0.31526
 H744 H 0.62618 0.30450 0.33522
 H745 H 0.61912 0.34293 0.30673
 N746 N 0.66871 0.32998 0.36420
 N747 N 0.67495 0.34353 0.36648
 C748 C 0.68421 0.34291 0.37842
 C749 C 0.68390 0.32830 0.38398
 C750 C 0.67390 0.32032 0.37476
 H751 H 0.69131 0.35224 0.38234
 H752 H 0.67105 0.30833 0.37537
 H753 H 0.66896 0.34301 0.33894
 H754 H 0.65187 0.34845 0.35033
 N755 N 0.67908 0.86837 0.83465
 N756 N 0.66999 0.86742 0.82300
 C757 C 0.67293 0.87915 0.81381
 C758 C 0.68458 0.88786 0.81992
 C759 C 0.68824 0.88073 0.83319
 H760 H 0.66747 0.88090 0.80315
 H761 H 0.69720 0.88395 0.84094
 Cu762 Cu 0.65640 0.85014 0.82008
 Cu763 Cu 0.67889 0.85279 0.85013
 Cu764 Cu 0.65140 0.82396 0.84695
 N765 N 0.63943 0.83579 0.81954
 N766 N 0.63757 0.82524 0.82977
 C767 C 0.62550 0.81630 0.82593
 C768 C 0.61956 0.82170 0.81263
 C769 C 0.62863 0.83405 0.80898
 H770 H 0.62157 0.80650 0.83217
 H771 H 0.62768 0.84098 0.79909
 N772 N 0.66654 0.82497 0.86343
 N773 N 0.67686 0.83602 0.86460
 C774 C 0.68600 0.83320 0.87636
 C775 C 0.68127 0.81978 0.88292
 C776 C 0.66888 0.81482 0.87447
 H777 H 0.69580 0.84006 0.87964
 H778 H 0.66245 0.80434 0.87591
 H779 H 0.67046 0.83450 0.83793
 H780 H 0.65581 0.84707 0.84687
 N781 N 0.17786 0.35983 0.84072
 N782 N 0.16825 0.36096 0.82948
 C783 C 0.17307 0.37229 0.82046
 C784 C 0.18638 0.37853 0.82645
 C785 C 0.18907 0.37036 0.83927
 H786 H 0.16754 0.37547 0.81016
 H787 H 0.19868 0.37179 0.84680
 Cu788 Cu 0.15081 0.34703 0.82729
 Cu789 Cu 0.17568 0.34443 0.85610
 Cu790 Cu 0.14535 0.31909 0.85249
 N791 N 0.13451 0.33181 0.82503
 N792 N 0.13235 0.32117 0.83510
 C793 C 0.12108 0.31172 0.83058
 C794 C 0.11589 0.31659 0.81686
 C795 C 0.12461 0.32942 0.81369
 H796 H 0.11739 0.30172 0.83663
 H797 H 0.12417 0.33613 0.80362
 N798 N 0.15975 0.31865 0.86931
 N799 N 0.17154 0.32810 0.87058
 C800 C 0.18005 0.32399 0.88244
 C801 C 0.17324 0.31134 0.88890
 C802 C 0.16041 0.30831 0.88034
 H803 H 0.19071 0.32943 0.88576
 H804 H 0.15257 0.29880 0.88170
 H805 H 0.16471 0.32871 0.84264
 H806 H 0.15221 0.34170 0.85387
 N807 N 0.17509 0.86338 0.34125
 N808 N 0.16476 0.86359 0.33057
 C809 C 0.16828 0.87492 0.32101
 C810 C 0.18151 0.88214 0.32607
 C811 C 0.18546 0.87455 0.33892
 H812 H 0.16204 0.87734 0.31089
 H813 H 0.19556 0.87662 0.34570
 Cu814 Cu 0.14839 0.84833 0.32964
 Cu815 Cu 0.17540 0.84774 0.35647
 Cu816 Cu 0.14776 0.81928 0.35437
 N817 N 0.13317 0.83199 0.32851
 N818 N 0.13301 0.82064 0.33806
 C819 C 0.12168 0.81080 0.33432
 C820 C 0.11438 0.81632 0.32174
 C821 C 0.12194 0.82976 0.31839
 H822 H 0.11910 0.80037 0.34022
 H823 H 0.11958 0.83718 0.30908
 N824 N 0.16367 0.81999 0.37009
 N825 N 0.17404 0.83102 0.37089
 C826 C 0.18371 0.82812 0.38223
 C827 C 0.17928 0.81468 0.38888
 C828 C 0.16651 0.80977 0.38096
 H829 H 0.19365 0.83497 0.38514
 H830 H 0.16013 0.79930 0.38263
 H831 H 0.16504 0.83099 0.34347
 H832 H 0.15206 0.84227 0.35586
 C833 C 0.25893 1.02956 0.24513
 C834 C 0.24818 1.03712 0.25409
 C835 C 0.23682 1.02918 0.26203
 C836 C 0.23626 1.01307 0.26115
 C837 C 0.24694 1.00520 0.25199
 C838 C 0.25827 1.01347 0.24392
 C839 C 0.26836 1.00545 0.23452
 C840 C 0.26756 0.98966 0.23328
 C841 C 0.25672 0.98116 0.24147
 C842 C 0.24624 0.98902 0.25086
 C843 C 0.22554 1.00458 0.26948
 C844 C 0.22498 0.98876 0.26852
 C845 C 0.23503 0.98074 0.25910
 C846 C 0.23443 0.96464 0.25799
 C847 C 0.24475 0.95713 0.24854
 C848 C 0.25581 0.96508 0.24024
 H849 H 0.27685 1.01130 0.22781
 H850 H 0.27548 0.98423 0.22568
 H851 H 0.21758 1.01002 0.27704
 H852 H 0.21662 0.98294 0.27540
 H853 H 0.24862 1.04945 0.25484
 H854 H 0.24416 0.94482 0.24763
 C855 C 0.24531 0.52940 0.76829
 C856 C 0.25471 0.53727 0.75819
 C857 C 0.26340 0.52965 0.74741
 C858 C 0.26319 0.51352 0.74702
 C859 C 0.25363 0.50531 0.75704
 C860 C 0.24456 0.51326 0.76762
 C861 C 0.23475 0.50488 0.77702
 C862 C 0.23390 0.48905 0.77612
 C863 C 0.24285 0.48090 0.76580
 C864 C 0.25303 0.48910 0.75636
 C865 C 0.27246 0.50537 0.73699
 C866 C 0.27218 0.48953 0.73660
 C867 C 0.26261 0.48113 0.74621
 C868 C 0.26217 0.46501 0.74573
 C869 C 0.25180 0.45714 0.75488
 C870 C 0.24209 0.46478 0.76484
 H871 H 0.22742 0.51043 0.78507
 H872 H 0.22624 0.48329 0.78377
 H873 H 0.28024 0.51109 0.72944
 H874 H 0.27942 0.48400 0.72845
 H875 H 0.25506 0.54961 0.75856
 H876 H 0.25133 0.44481 0.75426
 C877 C 0.75917 -0.03619 0.26296
 C878 C 0.74785 -0.04424 0.25508
 C879 C 0.73700 -0.03678 0.24615
 C880 C 0.73741 -0.02067 0.24504
 C881 C 0.74874 -0.01230 0.25303
 C882 C 0.75961 -0.02008 0.26206
 C883 C 0.77041 -0.01151 0.27021
 C884 C 0.77086 0.00431 0.26920
 C885 C 0.76056 0.01225 0.25996
 C886 C 0.74924 0.00388 0.25195
 C887 C 0.72710 -0.01273 0.23580
 C888 C 0.72759 0.00308 0.23473
 C889 C 0.73842 0.01165 0.24284
 C890 C 0.73898 0.02774 0.24179
 C891 C 0.75025 0.03578 0.24975
 C892 C 0.76099 0.02835 0.25883
 H893 H 0.77854 -0.01688 0.27766
 H894 H 0.77932 0.01020 0.27592
 H895 H 0.71862 -0.01862 0.22910
 H896 H 0.71948 0.00844 0.22726
 H897 H 0.74756 -0.05658 0.25579
 H898 H 0.75063 0.04810 0.24890
 C899 C 0.73962 0.52894 0.74608
 C900 C 0.74880 0.53664 0.75645
 C901 C 0.75754 0.52885 0.76710
 C902 C 0.75694 0.51269 0.76756
 C903 C 0.74760 0.50466 0.75719
 C904 C 0.73895 0.51281 0.74640
 C905 C 0.73008 0.50459 0.73605
 C906 C 0.72947 0.48875 0.73641
 C907 C 0.73791 0.48041 0.74696
 C908 C 0.74702 0.48843 0.75752
 C909 C 0.76570 0.50432 0.77786
 C910 C 0.76505 0.48847 0.77825
 C911 C 0.75564 0.48027 0.76832
 C912 C 0.75498 0.46412 0.76859
 C913 C 0.74570 0.45647 0.75823
 C914 C 0.73731 0.46428 0.74736
 H915 H 0.72356 0.51025 0.72744
 H916 H 0.72219 0.48317 0.72830
 H917 H 0.77336 0.50989 0.78565
 H918 H 0.77221 0.48274 0.78633
 H919 H 0.74869 0.54900 0.75656
 H920 H 0.74515 0.44412 0.75851
 C921 C 0.26303 0.46870 0.26230
 C922 C 0.25237 0.46064 0.25361
 C923 C 0.24232 0.46808 0.24381
 C924 C 0.24310 0.48416 0.24243
 C925 C 0.25352 0.49257 0.25144
 C926 C 0.26338 0.48483 0.26153
 C927 C 0.27307 0.49346 0.27083
 C928 C 0.27335 0.50930 0.27005
 C929 C 0.26416 0.51721 0.25974
 C930 C 0.25411 0.50877 0.25036
 C931 C 0.23405 0.49202 0.23199
 C932 C 0.23489 0.50781 0.23067
 C933 C 0.24461 0.51648 0.23992
 C934 C 0.24534 0.53259 0.23881
 C935 C 0.25512 0.54071 0.24837
 C936 C 0.26441 0.53333 0.25886
 H937 H 0.28032 0.48810 0.27909
 H938 H 0.28084 0.51524 0.27772
 H939 H 0.22642 0.48605 0.22447
 H940 H 0.22784 0.51309 0.22220
 H941 H 0.25195 0.44832 0.25440
 H942 H 0.25542 0.55305 0.24772
 C943 C 0.77901 0.97243 0.75907
 C944 C 0.76956 0.96479 0.76925
 C945 C 0.75981 0.97262 0.77899
 C946 C 0.75979 0.98878 0.77889
 C947 C 0.76949 0.99678 0.76883
 C948 C 0.77912 0.98858 0.75887
 C949 C 0.78816 0.99676 0.74864
 C950 C 0.78792 1.01262 0.74824
 C951 C 0.77862 1.02101 0.75806
 C952 C 0.76923 1.01302 0.76841
 C953 C 0.74992 0.99714 0.78820
 C954 C 0.74967 1.01299 0.78780
 C955 C 0.75928 1.02121 0.77807
 C956 C 0.75884 1.03735 0.77739
 C957 C 0.76832 1.04500 0.76722
 C958 C 0.77806 1.03714 0.75748
 H959 H 0.79536 0.99103 0.74060
 H960 H 0.79493 1.01815 0.73991
 H961 H 0.74204 0.99156 0.79576
 H962 H 0.74157 1.01866 0.79505
 H963 H 0.76994 0.95244 0.76971
 H964 H 0.76839 1.05736 0.76711
 C965 C 0.76131 0.53590 0.23936
 C966 C 0.75062 0.54344 0.24838
 C967 C 0.73976 0.53543 0.25687
 C968 C 0.73958 0.51930 0.25643
 C969 C 0.75030 0.51145 0.24731
 C970 C 0.76118 0.51977 0.23873
 C971 C 0.77144 0.51175 0.22953
 C972 C 0.77116 0.49591 0.22886
 C973 C 0.76053 0.48740 0.23728
 C974 C 0.75012 0.49523 0.24674
 C975 C 0.72913 0.51078 0.26504
 C976 C 0.72905 0.49493 0.26460
 C977 C 0.73953 0.48689 0.25563
 C978 C 0.73951 0.47074 0.25513
 C979 C 0.74981 0.46324 0.24565
 C980 C 0.76023 0.47127 0.23669
 H981 H 0.77975 0.51758 0.22259
 H982 H 0.77954 0.49046 0.22175
 H983 H 0.72094 0.51622 0.27236
 H984 H 0.72052 0.48913 0.27129
 H985 H 0.75073 0.55580 0.24877
 H986 H 0.74971 0.45089 0.24523
 C987 C 0.22674 0.02884 0.76050
 C988 C 0.23508 0.03673 0.77136
 C989 C 0.24488 0.02925 0.78134
 C990 C 0.24584 0.01312 0.78096
 C991 C 0.23741 0.00487 0.77006
 C992 C 0.22786 0.01275 0.75978
 C993 C 0.22003 0.00437 0.74882
 C994 C 0.22154 -0.01138 0.74787
 C995 C 0.23108 -0.01944 0.75777
 C996 C 0.23887 -0.01128 0.76916
 C997 C 0.25538 0.00506 0.79084
 C998 C 0.25651 -0.01076 0.79019
 C999 C 0.24834 -0.01919 0.77947
 C1000 C 0.24981 -0.03525 0.77845
 C1001 C 0.24209 -0.04305 0.76708
 C1002 C 0.23293 -0.03544 0.75664
 H1003 H 0.21275 0.00987 0.74068
 H1004 H 0.21504 -0.01714 0.73929
 H1005 H 0.26223 0.01085 0.79915
 H1006 H 0.26418 -0.01625 0.79800
 H1007 H 0.23387 0.04901 0.77211
 H1008 H 0.24344 -0.05530 0.76622
 C1009 C 0.23715 0.25421 1.03389
 C1010 C 0.24731 0.24461 1.04153
 C1011 C 0.25749 0.23492 1.03402
 C1012 C 0.25753 0.23475 1.01830
 C1013 C 0.24749 0.24459 1.01037
 C1014 C 0.23731 0.25439 1.01819
 C1015 C 0.22775 0.26430 1.01009
 C1016 C 0.22810 0.26456 0.99466
 C1017 C 0.23803 0.25493 0.98666
 C1018 C 0.24761 0.24463 0.99457
 C1019 C 0.26713 0.22480 1.01030
 C1020 C 0.26704 0.22463 0.99486
 C1021 C 0.25733 0.23439 0.98674
 C1022 C 0.25729 0.23440 0.97102
 C1023 C 0.24793 0.24482 0.96342
 C1024 C 0.23843 0.25515 0.97095
 H1025 H 0.22000 0.27214 1.01556
 H1026 H 0.22030 0.27231 0.98912
 H1027 H 0.27474 0.21688 1.01585
 H1028 H 0.27486 0.21686 0.98939
 H1029 H 0.24724 0.24464 1.05356
 H1030 H 0.24807 0.24492 0.95140
 C1031 C 0.24877 0.72539 0.47110
 C1032 C 0.23746 0.73392 0.46373
 C1033 C 0.22864 0.74494 0.47102
 C1034 C 0.23070 0.74717 0.48645
 C1035 C 0.24177 0.73832 0.49427
 C1036 C 0.25082 0.72737 0.48658
 C1037 C 0.26190 0.71899 0.49453
 C1038 C 0.26396 0.72113 0.50972
 C1039 C 0.25524 0.73197 0.51757
 C1040 C 0.24400 0.74064 0.50977
 C1041 C 0.22233 0.75833 0.49419
 C1042 C 0.22444 0.76052 0.50933
 C1043 C 0.23502 0.75166 0.51742
 C1044 C 0.23714 0.75381 0.53287
 C1045 C 0.24820 0.74509 0.54037
 C1046 C 0.25724 0.73421 0.53304
 H1047 H 0.26914 0.71065 0.48911
 H1048 H 0.27248 0.71412 0.51520
 H1049 H 0.21415 0.76566 0.48862
 H1050 H 0.21780 0.76947 0.51453
 H1051 H 0.23542 0.73188 0.45202
 H1052 H 0.24971 0.74670 0.55220
 C1053 C 0.23773 0.73244 -0.03270
 C1054 C 0.24625 0.74341 -0.04053
 C1055 C 0.25545 0.75422 -0.03326
 C1056 C 0.25644 0.75395 -0.01757
 C1057 C 0.24793 0.74291 -0.00941
 C1058 C 0.23844 0.73220 -0.01698
 C1059 C 0.22960 0.72185 -0.00861
 C1060 C 0.23025 0.72177 0.00683
 C1061 C 0.23991 0.73193 0.01458
 C1062 C 0.24883 0.74263 0.00637
 C1063 C 0.26591 0.76427 -0.00983
 C1064 C 0.26690 0.76392 0.00557
 C1065 C 0.25854 0.75316 0.01392
 C1066 C 0.25941 0.75284 0.02961
 C1067 C 0.25048 0.74226 0.03748
 C1068 C 0.24063 0.73195 0.03030
 H1069 H 0.22183 0.71383 -0.01386
 H1070 H 0.22294 0.71371 0.01259
 H1071 H 0.27281 0.77269 -0.01557
 H1072 H 0.27419 0.77235 0.01083
 H1073 H 0.24566 0.74359 -0.05255
 H1074 H 0.25159 0.74170 0.04945
 C1075 C 0.25674 0.26419 0.46872
 C1076 C 0.24871 0.25293 0.46085
 C1077 C 0.23923 0.24226 0.46800
 C1078 C 0.23771 0.24281 0.48362
 C1079 C 0.24571 0.25419 0.49181
 C1080 C 0.25526 0.26491 0.48433
 C1081 C 0.26344 0.27574 0.49273
 C1082 C 0.26219 0.27617 0.50811
 C1083 C 0.25260 0.26587 0.51575
 C1084 C 0.24429 0.25474 0.50752
 C1085 C 0.22824 0.23241 0.49125
 C1086 C 0.22690 0.23290 0.50662
 C1087 C 0.23478 0.24398 0.51499
 C1088 C 0.23370 0.24437 0.53065
 C1089 C 0.24190 0.25547 0.53856
 C1090 C 0.25144 0.26609 0.53142
 H1091 H 0.27114 0.28387 0.48753
 H1092 H 0.26902 0.28461 0.51392
 H1093 H 0.22170 0.22373 0.48546
 H1094 H 0.21969 0.22436 0.51181
 H1095 H 0.24992 0.25242 0.44889
 H1096 H 0.24056 0.25604 0.55051
 C1097 C 0.73465 0.75657 1.02768
 C1098 C 0.74645 0.74880 1.03512
 C1099 C 0.75641 0.73884 1.02767
 C1100 C 0.75437 0.73633 1.01226
 C1101 C 0.74256 0.74424 1.00450
 C1102 C 0.73283 0.75456 1.01219
 C1103 C 0.72180 0.76289 1.00411
 C1104 C 0.72010 0.76092 0.98888
 C1105 C 0.72918 0.75034 0.98110
 C1106 C 0.74050 0.74187 0.98899
 C1107 C 0.76363 0.72593 1.00444
 C1108 C 0.76147 0.72343 0.98932
 C1109 C 0.74994 0.73122 0.98137
 C1110 C 0.74786 0.72895 0.96594
 C1111 C 0.73673 0.73750 0.95835
 C1112 C 0.72759 0.74834 0.96557
 H1113 H 0.71455 0.77131 1.00940
 H1114 H 0.71161 0.76790 0.98331
 H1115 H 0.77260 0.71948 1.00993
 H1116 H 0.76912 0.71544 0.98394
 H1117 H 0.74786 0.75044 1.04696
 H1118 H 0.73497 0.73553 0.94659
 C1119 C 0.77016 0.25280 0.46479
 C1120 C 0.75909 0.26172 0.45750
 C1121 C 0.74806 0.27019 0.46530
 C1122 C 0.74847 0.27029 0.48101
 C1123 C 0.75953 0.26127 0.48864
 C1124 C 0.77025 0.25233 0.48051
 C1125 C 0.78044 0.24279 0.48832
 C1126 C 0.78027 0.24216 0.50375
 C1127 C 0.77014 0.25131 0.51207
 C1128 C 0.75971 0.26102 0.50444
 C1129 C 0.73825 0.27934 0.48930
 C1130 C 0.73868 0.27939 0.50474
 C1131 C 0.74931 0.27034 0.51256
 C1132 C 0.74960 0.27012 0.52828
 C1133 C 0.75980 0.26026 0.53558
 C1134 C 0.76986 0.25071 0.52778
 H1135 H 0.78845 0.23540 0.48259
 H1136 H 0.78816 0.23432 0.50904
 H1137 H 0.72989 0.28666 0.48396
 H1138 H 0.73036 0.28645 0.51044
 H1139 H 0.75889 0.26189 0.44548
 H1140 H 0.76029 0.26037 0.54760
 C1141 C 0.75843 0.26415 -0.03319
 C1142 C 0.75024 0.25261 -0.04050
 C1143 C 0.74041 0.24259 -0.03287
 C1144 C 0.73873 0.24410 -0.01730
 C1145 C 0.74729 0.25546 -0.00963
 C1146 C 0.75722 0.26544 -0.01759
 C1147 C 0.76595 0.27626 -0.00969
 C1148 C 0.76498 0.27729 0.00566
 C1149 C 0.75520 0.26757 0.01379
 C1150 C 0.74595 0.25682 0.00605
 C1151 C 0.72855 0.23474 -0.00922
 C1152 C 0.72697 0.23632 0.00608
 C1153 C 0.73555 0.24727 0.01397
 C1154 C 0.73432 0.24871 0.02958
 C1155 C 0.74371 0.25929 0.03700
 C1156 C 0.75434 0.26846 0.02943
 H1157 H 0.77388 0.28391 -0.01523
 H1158 H 0.77186 0.28598 0.01103
 H1159 H 0.72157 0.22615 -0.01464
 H1160 H 0.71908 0.22866 0.01167
 H1161 H 0.75146 0.25150 -0.05241
 H1162 H 0.74296 0.26013 0.04897
 C1163 C 0.75557 0.75605 0.46946
 C1164 C 0.74378 0.74783 0.46244
 C1165 C 0.73229 0.74025 0.47053
 C1166 C 0.73271 0.74062 0.48625
 C1167 C 0.74443 0.74910 0.49357
 C1168 C 0.75583 0.75691 0.48515
 C1169 C 0.76695 0.76571 0.49264
 C1170 C 0.76708 0.76662 0.50805
 C1171 C 0.75621 0.75864 0.51666
 C1172 C 0.74468 0.74986 0.50936
 C1173 C 0.72157 0.73298 0.49485
 C1174 C 0.72203 0.73343 0.51028
 C1175 C 0.73337 0.74193 0.51780
 C1176 C 0.73385 0.74254 0.53351
 C1177 C 0.74519 0.75142 0.54047
 C1178 C 0.75626 0.75955 0.53235
 H1179 H 0.77552 0.77228 0.48669
 H1180 H 0.77578 0.77381 0.51307
 H1181 H 0.71229 0.72655 0.48980
 H1182 H 0.71330 0.72703 0.51619
 H1183 H 0.74387 0.74683 0.45045
 H1184 H 0.74541 0.75204 0.55249
 C1185 C 0.96923 0.25987 0.23772
 C1186 C 0.96172 0.25080 0.24828
 C1187 C 0.96969 0.24017 0.25698
 C1188 C 0.98586 0.23860 0.25513
 C1189 C 0.99373 0.24788 0.24461
 C1190 C 0.98540 0.25860 0.23595
 C1191 C 0.99341 0.26748 0.22546
 C1192 C 1.00931 0.26621 0.22378
 C1193 C 1.01788 0.25585 0.23236
 C1194 C 1.00997 0.24633 0.24264
 C1195 C 0.99435 0.22782 0.26329
 C1196 C 1.01019 0.22624 0.26129
 C1197 C 1.01823 0.23527 0.25095
 C1198 C 1.03436 0.23375 0.24888
 C1199 C 1.04195 0.24335 0.23880
 C1200 C 1.03407 0.25449 0.23065
 H1201 H 0.98751 0.27546 0.21830
 H1202 H 1.01472 0.27325 0.21541
 H1203 H 0.98885 0.22035 0.27124
 H1204 H 1.01604 0.21787 0.26806
 H1205 H 0.94946 0.25240 0.25005
 H1206 H 1.05431 0.24224 0.23739
 C1207 C 0.53160 0.24189 0.75449
 C1208 C 0.53858 0.25108 0.74368
 C1209 C 0.53051 0.26274 0.73645
 C1210 C 0.51480 0.26525 0.74001
 C1211 C 0.50754 0.25613 0.75102
 C1212 C 0.51595 0.24440 0.75826
 C1213 C 0.50854 0.23567 0.76926
 C1214 C 0.49314 0.23811 0.77283
 C1215 C 0.48454 0.24958 0.76575
 C1216 C 0.49181 0.25872 0.75476
 C1217 C 0.50604 0.27635 0.73256
 C1218 C 0.49061 0.27873 0.73605
 C1219 C 0.48327 0.27019 0.74723
 C1220 C 0.46751 0.27244 0.75074
 C1221 C 0.46066 0.26347 0.76179
 C1222 C 0.46876 0.25191 0.76909
 H1223 H 0.51452 0.22683 0.77531
 H1224 H 0.48808 0.23081 0.78119
 H1225 H 0.51090 0.28316 0.72371
 H1226 H 0.48450 0.28725 0.72970
 H1227 H 0.55062 0.24922 0.74098
 H1228 H 0.44873 0.26552 0.76479
 C1229 C -0.02928 0.23063 0.74094
 C1230 C -0.03669 0.24070 0.75066
 C1231 C -0.02841 0.25102 0.75945
 C1232 C -0.01211 0.25129 0.75865
 C1233 C -0.00435 0.24104 0.74902
 C1234 C -0.01294 0.23067 0.74014
 C1235 C -0.00496 0.22090 0.73046
 C1236 C 0.01109 0.22090 0.72988
 C1237 C 0.01987 0.23074 0.73888
 C1238 C 0.01207 0.24114 0.74832
 C1239 C -0.00335 0.26124 0.76753
 C1240 C 0.01266 0.26142 0.76676
 C1241 C 0.02063 0.25159 0.75713
 C1242 C 0.03695 0.25161 0.75643
 C1243 C 0.04444 0.24114 0.74720
 C1244 C 0.03621 0.23069 0.73847
 H1245 H -0.01098 0.21319 0.72309
 H1246 H 0.01650 0.21319 0.72210
 H1247 H -0.00872 0.26891 0.77536
 H1248 H 0.01869 0.26921 0.77405
 H1249 H -0.04918 0.24056 0.75139
 H1250 H 0.05694 0.24107 0.74692
 C1251 C 0.47233 0.25339 0.22673
 C1252 C 0.46432 0.26369 0.23571
 C1253 C 0.47181 0.27259 0.24644
 C1254 C 0.48802 0.27139 0.24807
 C1255 C 0.49647 0.26148 0.23861
 C1256 C 0.48861 0.25252 0.22784
 C1257 C 0.49720 0.24259 0.21883
 C1258 C 0.51317 0.24166 0.22012
 C1259 C 0.52125 0.25046 0.23063
 C1260 C 0.51278 0.26024 0.24018
 C1261 C 0.49596 0.27941 0.25922
 C1262 C 0.51184 0.27795 0.26095
 C1263 C 0.52054 0.26859 0.25146
 C1264 C 0.53671 0.26701 0.25320
 C1265 C 0.54491 0.25766 0.24338
 C1266 C 0.53750 0.24940 0.23211
 H1267 H 0.49170 0.23529 0.21072
 H1268 H 0.51902 0.23363 0.21298
 H1269 H 0.48996 0.28668 0.26700
 H1270 H 0.51715 0.28418 0.26997
 H1271 H 0.45197 0.26487 0.23420
 H1272 H 0.55738 0.25727 0.24421
 C1273 C 1.02900 0.74920 0.75888
 C1274 C 1.03691 0.75928 0.74952
 C1275 C 1.02913 0.76873 0.73948
 C1276 C 1.01280 0.76845 0.73901
 C1277 C 1.00457 0.75822 0.74834
 C1278 C 1.01270 0.74847 0.75819
 C1279 C 1.00431 0.73804 0.76690
 C1280 C 0.98831 0.73733 0.76613
 C1281 C 0.97998 0.74695 0.75657
 C1282 C 0.98816 0.75765 0.74773
 C1283 C 1.00446 0.77784 0.72922
 C1284 C 0.98841 0.77757 0.72892
 C1285 C 0.97999 0.76772 0.73822
 C1286 C 0.96364 0.76737 0.73797
 C1287 C 0.95579 0.75665 0.74671
 C1288 C 0.96368 0.74631 0.75580
 H1289 H 1.00999 0.73013 0.77430
 H1290 H 0.98258 0.72922 0.77332
 H1291 H 1.01022 0.78546 0.72157
 H1292 H 0.98273 0.78498 0.72104
 H1293 H 1.04936 0.76018 0.75040
 H1294 H 0.94330 0.75629 0.74642
 C1295 C 0.46814 0.76483 0.23852
 C1296 C 0.46013 0.75402 0.24701
 C1297 C 0.46775 0.74406 0.25671
 C1298 C 0.48401 0.74499 0.25811
 C1299 C 0.49237 0.75582 0.24956
 C1300 C 0.48444 0.76566 0.23963
 C1301 C 0.49306 0.77577 0.23078
 C1302 C 0.50906 0.77650 0.23188
 C1303 C 0.51714 0.76728 0.24201
 C1304 C 0.50872 0.75677 0.25090
 C1305 C 0.49211 0.73555 0.26802
 C1306 C 0.50806 0.73651 0.26938
 C1307 C 0.51662 0.74709 0.26101
 C1308 C 0.53289 0.74806 0.26227
 C1309 C 0.54095 0.75853 0.25345
 C1310 C 0.53343 0.76800 0.24324
 H1311 H 0.48759 0.78306 0.22266
 H1312 H 0.51497 0.78431 0.22454
 H1313 H 0.48623 0.72733 0.27497
 H1314 H 0.51358 0.72872 0.27700
 H1315 H 0.44769 0.75335 0.24608
 H1316 H 0.55333 0.75966 0.25488
 C1317 C -0.03640 0.76358 0.25888
 C1318 C -0.04415 0.75608 0.24734
 C1319 C -0.03624 0.74787 0.23640
 C1320 C -0.01990 0.74724 0.23689
 C1321 C -0.01178 0.75510 0.24827
 C1322 C -0.02005 0.76327 0.25931
 C1323 C -0.01174 0.77055 0.27071
 C1324 C 0.00430 0.77016 0.27111
 C1325 C 0.01277 0.76239 0.26018
 C1326 C 0.00465 0.75457 0.24876
 C1327 C -0.01148 0.73857 0.22658
 C1328 C 0.00456 0.73794 0.22714
 C1329 C 0.01290 0.74603 0.23798
 C1330 C 0.02923 0.74545 0.23861
 C1331 C 0.03701 0.75349 0.24978
 C1332 C 0.02910 0.76184 0.26061
 H1333 H -0.01751 0.77649 0.27963
 H1334 H 0.00993 0.77582 0.28029
 H1335 H -0.01717 0.73189 0.21809
 H1336 H 0.01028 0.73084 0.21904
 H1337 H -0.05660 0.75703 0.24665
 H1338 H 0.04952 0.75363 0.24978
 C1339 C 0.53254 0.74583 0.73237
 C1340 C 0.54053 0.75345 0.74369
 C1341 C 0.53296 0.76271 0.75404
 C1342 C 0.51675 0.76457 0.75299
 C1343 C 0.50841 0.75688 0.74165
 C1344 C 0.51631 0.74740 0.73138
 C1345 C 0.50769 0.73939 0.72068
 C1346 C 0.49172 0.74083 0.71987
 C1347 C 0.48367 0.75047 0.72963
 C1348 C 0.49209 0.75857 0.74065
 C1349 C 0.50869 0.77411 0.76283
 C1350 C 0.49277 0.77580 0.76182
 C1351 C 0.48422 0.76816 0.75083
 C1352 C 0.46797 0.76958 0.74996
 C1353 C 0.45988 0.76148 0.73906
 C1354 C 0.46739 0.75188 0.72897
 H1355 H 0.51313 0.73164 0.71297
 H1356 H 0.48580 0.73411 0.71157
 H1357 H 0.51457 0.78048 0.77141
 H1358 H 0.48726 0.78308 0.76992
 H1359 H 0.55294 0.75214 0.74446
 H1360 H 0.44749 0.76297 0.73819
 C1361 C 0.39502 0.30769 0.30568
 C1362 C 0.40391 0.31428 0.29447
 C1363 C 0.41521 0.30522 0.28584
 C1364 C 0.42814 0.31239 0.27953
 C1365 C 0.43902 0.30392 0.27151
 C1366 C 0.43705 0.28809 0.26959
 C1367 C 0.42390 0.28107 0.27558
 C1368 C 0.41308 0.28950 0.28355
 C1369 C 0.44792 0.27841 0.26108
 C1370 C 0.46230 0.28304 0.25567
 H1371 H 0.40289 0.32637 0.29224
 H1372 H 0.42988 0.32455 0.28092
 H1373 H 0.44878 0.30988 0.26679
 H1374 H 0.42190 0.26897 0.27404
 H1375 H 0.40294 0.28365 0.28766
 H1376 H 0.44445 0.26669 0.25915
 H1377 H 0.39701 0.29593 0.30877
 H1378 H 0.46677 0.29423 0.25826
 C1379 C 0.39866 0.80722 0.81620
 C1380 C 0.40465 0.81170 0.80246
 C1381 C 0.41554 0.80217 0.79385
 C1382 C 0.42548 0.80919 0.78361
 C1383 C 0.43550 0.80045 0.77491
 C1384 C 0.43564 0.78447 0.77622
 C1385 C 0.42555 0.77745 0.78631
 C1386 C 0.41564 0.78618 0.79509
 C1387 C 0.44542 0.77473 0.76667
 C1388 C 0.45910 0.77968 0.76003
 H1389 H 0.40164 0.82274 0.79795
 H1390 H 0.42543 0.82147 0.78228
 H1391 H 0.44277 0.80623 0.76692
 H1392 H 0.42527 0.76514 0.78735
 H1393 H 0.40779 0.78032 0.80249
 H1394 H 0.44198 0.76293 0.76520
 H1395 H 0.40280 0.79684 0.82132
 H1396 H 0.46359 0.79091 0.76250
 C1397 C -0.09667 0.30721 0.80853
 C1398 C -0.08942 0.29407 0.81376
 C1399 C -0.07850 0.28505 0.80471
 C1400 C -0.07689 0.26944 0.80773
 C1401 C -0.06728 0.26036 0.79900
 C1402 C -0.05885 0.26675 0.78724
 C1403 C -0.06020 0.28247 0.78438
 C1404 C -0.06988 0.29154 0.79308
 C1405 C -0.04937 0.25658 0.77787
 C1406 C -0.03715 0.26166 0.76905
 H1407 H -0.09290 0.28939 0.82437
 H1408 H -0.08336 0.26418 0.81666
 H1409 H -0.06647 0.24828 0.80140
 H1410 H -0.05413 0.28778 0.77526
 H1411 H -0.07052 0.30360 0.79065
 H1412 H -0.05174 0.24444 0.77830
 H1413 H -0.09410 0.31149 0.79754
 H1414 H -0.03358 0.27346 0.76948
 C1415 C -0.10667 0.81108 0.31405
 C1416 C -0.10213 0.79591 0.31562
 C1417 C -0.09052 0.78864 0.30582
 C1418 C -0.09077 0.77273 0.30413
 C1419 C -0.08045 0.76552 0.29449
 C1420 C -0.06950 0.77401 0.28649
 C1421 C -0.06902 0.78993 0.28841
 C1422 C -0.07935 0.79714 0.29803
 C1423 C -0.05931 0.76592 0.27589
 C1424 C -0.04571 0.77205 0.27000
 H1425 H -0.10804 0.78878 0.32362
 H1426 H -0.09917 0.76589 0.31005
 H1427 H -0.08110 0.75325 0.29322
 H1428 H -0.06097 0.79695 0.28230
 H1429 H -0.07845 0.80937 0.29933
 H1430 H -0.06245 0.75437 0.27284
 H1431 H -0.10158 0.81812 0.30549
 H1432 H -0.04159 0.78301 0.27377
 C1433 C 0.60618 0.68793 0.30505
 C1434 C 0.59764 0.70079 0.30892
 C1435 C 0.58663 0.70828 0.29866
 C1436 C 0.57508 0.71773 0.30452
 C1437 C 0.56482 0.72538 0.29514
 C1438 C 0.56597 0.72377 0.27964
 C1439 C 0.57761 0.71446 0.27379
 C1440 C 0.58784 0.70679 0.28315
 C1441 C 0.55592 0.73222 0.26919
 C1442 C 0.54178 0.73873 0.27304
 H1443 H 0.59878 0.70541 0.32001
 H1444 H 0.57406 0.71927 0.31642
 H1445 H 0.55632 0.73282 0.30009
 H1446 H 0.57891 0.71322 0.26188
 H1447 H 0.59689 0.70007 0.27814
 H1448 H 0.55970 0.73309 0.25775
 H1449 H 0.60429 0.68242 0.29446
 H1450 H 0.53703 0.73687 0.28399
 C1451 C 0.60356 0.19537 0.81054
 C1452 C 0.59595 0.19087 0.79763
 C1453 C 0.58567 0.20149 0.78958
 C1454 C 0.57323 0.19581 0.78127
 C1455 C 0.56337 0.20580 0.77370
 C1456 C 0.56593 0.22166 0.77424
 C1457 C 0.57866 0.22723 0.78217
 C1458 C 0.58842 0.21730 0.78974
 C1459 C 0.55602 0.23281 0.76645
 C1460 C 0.54100 0.22982 0.76167
 H1461 H 0.59755 0.17945 0.79334
 H1462 H 0.57106 0.18365 0.78074
 H1463 H 0.55396 0.20102 0.76732
 H1464 H 0.58107 0.23936 0.78255
 H1465 H 0.59828 0.22206 0.79551
 H1466 H 0.56043 0.24432 0.76523
 H1467 H 0.60095 0.20636 0.81539
 H1468 H 0.53578 0.21884 0.76380
 C1469 C 1.10052 0.68755 0.80184
 C1470 C 1.09249 0.70067 0.80587
 C1471 C 1.08192 0.70869 0.79557
 C1472 C 1.07052 0.71831 0.80139
 C1473 C 1.06060 0.72633 0.79195
 C1474 C 1.06197 0.72489 0.77644
 C1475 C 1.07357 0.71549 0.77064
 C1476 C 1.08345 0.70749 0.78006
 C1477 C 1.05210 0.73345 0.76593
 C1478 C 1.03804 0.74014 0.76975
 H1479 H 1.09387 0.70521 0.81696
 H1480 H 1.06930 0.71966 0.81329
 H1481 H 1.05217 0.73384 0.79689
 H1482 H 1.07506 0.71440 0.75875
 H1483 H 1.09248 0.70070 0.77510
 H1484 H 1.05583 0.73410 0.75446
 H1485 H 1.09842 0.68230 0.79116
 H1486 H 1.03339 0.73854 0.78076
 C1487 C 1.11122 0.19268 0.30360
 C1488 C 1.10069 0.18627 0.29370
 C1489 C 1.08995 0.19602 0.28515
 C1490 C 1.07530 0.19049 0.28121
 C1491 C 1.06474 0.19991 0.27382
 C1492 C 1.06879 0.21502 0.27011
 C1493 C 1.08364 0.22029 0.27364
 C1494 C 1.09412 0.21091 0.28096
 C1495 C 1.05815 0.22583 0.26271
 C1496 C 1.04362 0.22218 0.25699
 H1497 H 1.09981 0.17399 0.29272
 H1498 H 1.07190 0.17899 0.28418
 H1499 H 1.05346 0.19532 0.27130
 H1500 H 1.08718 0.23177 0.27072
 H1501 H 1.10554 0.21537 0.28325
 H1502 H 1.06209 0.23752 0.26161
 H1503 H 1.11107 0.20486 0.30551
 H1504 H 1.03894 0.21084 0.25824
 C1505 C 0.60142 0.31388 0.68571
 C1506 C 0.59384 0.30079 0.68072
 C1507 C 0.58186 0.29276 0.68948
 C1508 C 0.57915 0.27725 0.68669
 C1509 C 0.56852 0.26905 0.69521
 C1510 C 0.56020 0.27622 0.70660
 C1511 C 0.56259 0.29188 0.70915
 C1512 C 0.57323 0.30008 0.70062
 C1513 C 0.54991 0.26677 0.71601
 C1514 C 0.53904 0.27267 0.72589
 H1515 H 0.59759 0.29553 0.67047
 H1516 H 0.58556 0.27136 0.67811
 H1517 H 0.56694 0.25701 0.69301
 H1518 H 0.55662 0.29786 0.71791
 H1519 H 0.57463 0.31212 0.70284
 H1520 H 0.55095 0.25449 0.71513
 H1521 H 0.59841 0.31891 0.69627
 H1522 H 0.53671 0.28476 0.72607
 C1523 C 0.60844 0.80745 0.18377
 C1524 C 0.60003 0.81249 0.19602
 C1525 C 0.58894 0.80261 0.20407
 C1526 C 0.57712 0.80937 0.21242
 C1527 C 0.56652 0.80036 0.22023
 C1528 C 0.56761 0.78435 0.21987
 C1529 C 0.57962 0.77764 0.21175
 C1530 C 0.59018 0.78662 0.20395
 C1531 C 0.55703 0.77422 0.22824
 C1532 C 0.54294 0.77876 0.23435
 H1533 H 0.60116 0.82424 0.19954
 H1534 H 0.57607 0.82167 0.21289
 H1535 H 0.55775 0.80603 0.22670
 H1536 H 0.58091 0.76535 0.21149
 H1537 H 0.59946 0.78096 0.19813
 H1538 H 0.56032 0.76235 0.22934
 H1539 H 0.60655 0.79611 0.17941
 H1540 H 0.53868 0.79015 0.23244
 C1541 C 1.10595 0.31223 0.18657
 C1542 C 1.10053 0.29795 0.18204
 C1543 C 1.08858 0.28896 0.19001
 C1544 C 1.08727 0.27335 0.18681
 C1545 C 1.07651 0.26425 0.19424
 C1546 C 1.06662 0.27056 0.20491
 C1547 C 1.06775 0.28626 0.20801
 C1548 C 1.07857 0.29538 0.20060
 C1549 C 1.05600 0.26023 0.21304
 C1550 C 1.04319 0.26512 0.22118
 H1551 H 1.10588 0.29260 0.17252
 H1552 H 1.09478 0.26809 0.17869
 H1553 H 1.07598 0.25218 0.19169
 H1554 H 1.06058 0.29152 0.21638
 H1555 H 1.07897 0.30740 0.20322
 H1556 H 1.05827 0.24810 0.21242
 H1557 H 1.10116 0.31775 0.19625
 H1558 H 1.03981 0.27696 0.22078
 C1559 C 1.10510 0.80642 0.67940
 C1560 C 1.09588 0.81130 0.69117
 C1561 C 1.08420 0.80159 0.69859
 C1562 C 1.07314 0.80858 0.70769
 C1563 C 1.06237 0.79983 0.71552
 C1564 C 1.06246 0.78383 0.71439
 C1565 C 1.07356 0.77684 0.70533
 C1566 C 1.08433 0.78559 0.69751
 C1567 C 1.05189 0.77398 0.72307
 C1568 C 1.03845 0.77909 0.73002
 H1569 H 1.09719 0.82287 0.69518
 H1570 H 1.07294 0.82087 0.70890
 H1571 H 1.05434 0.80567 0.72270
 H1572 H 1.07405 0.76453 0.70445
 H1573 H 1.09294 0.77969 0.69103
 H1574 H 1.05470 0.76197 0.72387
 H1575 H 1.10330 0.79533 0.67446
 H1576 H 1.03455 0.79066 0.72840
 C1577 C 0.39796 0.68847 0.68649
 C1578 C 0.40290 0.70320 0.68305
 C1579 C 0.41352 0.71172 0.69293
 C1580 C 0.42371 0.72255 0.68693
 C1581 C 0.43387 0.73063 0.69616
 C1582 C 0.43385 0.72811 0.71159
 C1583 C 0.42334 0.71760 0.71758
 C1584 C 0.41332 0.70946 0.70838
 C1585 C 0.44403 0.73657 0.72193
 C1586 C 0.45785 0.74362 0.71784
 H1587 H 0.39930 0.70842 0.67272
 H1588 H 0.42388 0.72467 0.67509
 H1589 H 0.44147 0.73900 0.69119
 H1590 H 0.42289 0.71564 0.72945
 H1591 H 0.40523 0.70163 0.71347
 H1592 H 0.44087 0.73658 0.73357
 H1593 H 0.40275 0.68273 0.69608
 H1594 H 0.46201 0.74265 0.70657
 C1595 C 0.39923 0.18786 0.19108
 C1596 C 0.40702 0.20085 0.18610
 C1597 C 0.41844 0.20929 0.19523
 C1598 C 0.42908 0.21898 0.18817
 C1599 C 0.43959 0.22762 0.19647
 C1600 C 0.43957 0.22679 0.21207
 C1601 C 0.42885 0.21719 0.21911
 C1602 C 0.41841 0.20853 0.21082
 C1603 C 0.44983 0.23628 0.22145
 C1604 C 0.46322 0.24361 0.21649
 H1605 H 0.40489 0.20492 0.17494
 H1606 H 0.42918 0.21995 0.17618
 H1607 H 0.44736 0.23519 0.19063
 H1608 H 0.42843 0.21652 0.23111
 H1609 H 0.41007 0.20162 0.21673
 H1610 H 0.44688 0.23728 0.23311
 H1611 H 0.40216 0.18283 0.20167
 H1612 H 0.46730 0.24184 0.20529
 C1613 C -0.10662 0.69017 0.18725
 C1614 C -0.10039 0.70464 0.18484
 C1615 C -0.08972 0.71183 0.19567
 C1616 C -0.07873 0.72250 0.19082
 C1617 C -0.06855 0.72936 0.20093
 C1618 C -0.06932 0.72574 0.21615
 C1619 C -0.08056 0.71534 0.22099
 C1620 C -0.09064 0.70847 0.21092
 C1621 C -0.05924 0.73294 0.22746
 C1622 C -0.04538 0.74049 0.22439
 H1623 H -0.10297 0.71062 0.17462
 H1624 H -0.07796 0.72546 0.17916
 H1625 H -0.06036 0.73766 0.19679
 H1626 H -0.08159 0.71254 0.23267
 H1627 H -0.09934 0.70077 0.21520
 H1628 H -0.06264 0.73174 0.23898
 H1629 H -0.10289 0.68363 0.19678
 H1630 H -0.04097 0.74075 0.21317
 C1631 C -0.10523 0.19259 0.68141
 C1632 C -0.09687 0.18750 0.69369
 C1633 C -0.08535 0.19715 0.70147
 C1634 C -0.07394 0.19016 0.71018
 C1635 C -0.06306 0.19896 0.71788
 C1636 C -0.06347 0.21499 0.71705
 C1637 C -0.07504 0.22194 0.70853
 C1638 C -0.08587 0.21317 0.70085
 C1639 C -0.05264 0.22493 0.72536
 C1640 C -0.03897 0.22002 0.73204
 H1641 H -0.09854 0.17593 0.69757
 H1642 H -0.07344 0.17785 0.71104
 H1643 H -0.05464 0.19312 0.72465
 H1644 H -0.07580 0.23425 0.70790
 H1645 H -0.09482 0.21905 0.69476
 H1646 H -0.05544 0.23696 0.72599
 H1647 H -0.10285 0.20370 0.67670
 H1648 H -0.03514 0.20840 0.73060
 C1649 C 0.30944 0.39697 0.32063
 C1650 C 0.31196 0.40417 0.30702
 C1651 C 0.30131 0.41568 0.30067
 C1652 C 0.30675 0.42557 0.28958
 C1653 C 0.29684 0.43603 0.28277
 C1654 C 0.28119 0.43674 0.28687
 C1655 C 0.27573 0.42681 0.29790
 C1656 C 0.28565 0.41641 0.30477
 C1657 C 0.27004 0.44685 0.27921
 C1658 C 0.27428 0.45995 0.27137
 H1659 H 0.32225 0.40140 0.30078
 H1660 H 0.31869 0.42508 0.28605
 H1661 H 0.30139 0.44314 0.27399
 H1662 H 0.26368 0.42696 0.30110
 H1663 H 0.28084 0.40868 0.31291
 H1664 H 0.25789 0.44396 0.27995
 H1665 H 0.29995 0.40050 0.32762
 H1666 H 0.28610 0.46391 0.27179
 C1667 C 0.31483 -0.10596 0.81818
 C1668 C 0.29996 -0.10057 0.82106
 C1669 C 0.29251 -0.08866 0.81183
 C1670 C 0.28058 -0.07983 0.81789
 C1671 C 0.27293 -0.06892 0.80924
 C1672 C 0.27703 -0.06673 0.79427
 C1673 C 0.28887 -0.07566 0.78821
 C1674 C 0.29653 -0.08649 0.79685
 C1675 C 0.26864 -0.05614 0.78432
 C1676 C 0.25914 -0.04428 0.78915
 H1677 H 0.29356 -0.10505 0.83042
 H1678 H 0.27709 -0.08145 0.82933
 H1679 H 0.26358 -0.06259 0.81423
 H1680 H 0.29207 -0.07441 0.77665
 H1681 H 0.30526 -0.09343 0.79158
 H1682 H 0.27016 -0.05766 0.77247
 H1683 H 0.32167 -0.10049 0.80965
 H1684 H 0.25855 -0.04145 0.80081
 C1685 C 0.81530 0.38965 0.80805
 C1686 C 0.80240 0.39777 0.81291
 C1687 C 0.79460 0.40914 0.80332
 C1688 C 0.78617 0.42105 0.80981
 C1689 C 0.77861 0.43184 0.80093
 C1690 C 0.77929 0.43080 0.78533
 C1691 C 0.78752 0.41872 0.77892
 C1692 C 0.79502 0.40800 0.78776
 C1693 C 0.77120 0.44148 0.77523
 C1694 C 0.76371 0.45486 0.77956
 H1695 H 0.79803 0.39601 0.82403
 H1696 H 0.78547 0.42204 0.82178
 H1697 H 0.77214 0.44074 0.80637
 H1698 H 0.78803 0.41747 0.76696
 H1699 H 0.80084 0.39865 0.78231
 H1700 H 0.77126 0.43869 0.76351
 H1701 H 0.82036 0.39247 0.79741
 H1702 H 0.76431 0.45873 0.79092
 C1703 C 0.80769 -0.10286 0.32461
 C1704 C 0.80958 -0.09752 0.31011
 C1705 C 0.79864 -0.08685 0.30297
 C1706 C 0.80369 -0.07805 0.29089
 C1707 C 0.79353 -0.06827 0.28352
 C1708 C 0.77803 -0.06717 0.28805
 C1709 C 0.77293 -0.07613 0.29999
 C1710 C 0.78310 -0.08585 0.30741
 C1711 C 0.76672 -0.05750 0.28015
 C1712 C 0.77083 -0.04497 0.27145
 H1713 H 0.81955 -0.10104 0.30375
 H1714 H 0.81552 -0.07882 0.28710
 H1715 H 0.79778 -0.06195 0.27405
 H1716 H 0.76099 -0.07568 0.30354
 H1717 H 0.77861 -0.09284 0.31631
 H1718 H 0.75457 -0.06006 0.28161
 H1719 H 0.79848 -0.09834 0.33141
 H1720 H 0.78274 -0.04130 0.27101
 C1721 C 0.31998 0.60053 0.69740
 C1722 C 0.30547 0.59376 0.69612
 C1723 C 0.29923 0.58292 0.70724
 C1724 C 0.28750 0.57277 0.70297
 C1725 C 0.28105 0.56265 0.71324
 C1726 C 0.28617 0.56254 0.72807
 C1727 C 0.29769 0.57289 0.73240
 C1728 C 0.30420 0.58296 0.72211
 C1729 C 0.27921 0.55245 0.73943
 C1730 C 0.27164 0.53882 0.73601
 H1731 H 0.29851 0.59613 0.68641
 H1732 H 0.28328 0.57271 0.69165
 H1733 H 0.27180 0.55524 0.70959
 H1734 H 0.30162 0.57324 0.74381
 H1735 H 0.31281 0.59097 0.72598
 H1736 H 0.28048 0.55565 0.75098
 H1737 H 0.32759 0.59734 0.70639
 H1738 H 0.27165 0.53474 0.72469
 C1739 C 0.30573 1.10379 0.19137
 C1740 C 0.31009 1.09460 0.20319
 C1741 C 0.29916 1.08349 0.20979
 C1742 C 0.30434 1.07330 0.22071
 C1743 C 0.29413 1.06289 0.22727
 C1744 C 0.27849 1.06256 0.22303
 C1745 C 0.27333 1.07280 0.21217
 C1746 C 0.28353 1.08309 0.20554
 C1747 C 0.26707 1.05236 0.23019
 C1748 C 0.27086 1.03880 0.23742
 H1749 H 0.32169 1.09552 0.20763
 H1750 H 0.31629 1.07345 0.22424
 H1751 H 0.29845 1.05545 0.23590
 H1752 H 0.26132 1.07286 0.20880
 H1753 H 0.27908 1.09084 0.19723
 H1754 H 0.25499 1.05542 0.22929
 H1755 H 0.31253 1.11025 0.18823
 H1756 H 0.28262 1.03469 0.23720
 C1757 C 0.80725 0.60418 0.17768
 C1758 C 0.80982 0.59874 0.19202
 C1759 C 0.79916 0.58808 0.19960
 C1760 C 0.80482 0.57887 0.21112
 C1761 C 0.79498 0.56896 0.21878
 C1762 C 0.77921 0.56816 0.21511
 C1763 C 0.77351 0.57757 0.20378
 C1764 C 0.78336 0.58741 0.19606
 C1765 C 0.76828 0.55826 0.22326
 C1766 C 0.77270 0.54520 0.23102
 H1767 H 0.82025 0.60207 0.19781
 H1768 H 0.81689 0.57938 0.21421
 H1769 H 0.79971 0.56225 0.22776
 H1770 H 0.76136 0.57736 0.20092
 H1771 H 0.77845 0.59471 0.18762
 H1772 H 0.75610 0.56098 0.22261
 H1773 H 0.79759 0.59994 0.17127
 H1774 H 0.78457 0.54143 0.23065
 C1775 C 0.80964 1.10522 0.68717
 C1776 C 0.81540 1.09931 0.70045
 C1777 C 0.80664 1.08853 0.70995
 C1778 C 0.81467 1.07945 0.72019
 C1779 C 0.80675 1.06947 0.72964
 C1780 C 0.79055 1.06845 0.72907
 C1781 C 0.78252 1.07768 0.71897
 C1782 C 0.79043 1.08761 0.70951
 C1783 C 0.78156 1.05856 0.73925
 C1784 C 0.78769 1.04618 0.74702
 H1785 H 0.82697 1.10238 0.70391
 H1786 H 0.82714 1.08013 0.72092
 H1787 H 0.81336 1.06291 0.73756
 H1788 H 0.77003 1.07730 0.71847
 H1789 H 0.78374 1.09478 0.70217
 H1790 H 0.76931 1.06083 0.74032
 H1791 H 0.79863 1.10136 0.68293
 H1792 H 0.79951 1.04277 0.74519
 C1793 C 0.69443 0.60409 0.31883
 C1794 C 0.69156 0.59766 0.30494
 C1795 C 0.70214 0.58673 0.29767
 C1796 C 0.69644 0.57749 0.28620
 C1797 C 0.70622 0.56755 0.27858
 C1798 C 0.72198 0.56672 0.28228
 C1799 C 0.72770 0.57606 0.29366
 C1800 C 0.71791 0.58596 0.30130
 C1801 C 0.73291 0.55695 0.27403
 C1802 C 0.72844 0.54427 0.26569
 H1803 H 0.68105 0.60062 0.29912
 H1804 H 0.68439 0.57806 0.28302
 H1805 H 0.70145 0.56091 0.26956
 H1806 H 0.73984 0.57581 0.29655
 H1807 H 0.72289 0.59326 0.30971
 H1808 H 0.74511 0.55958 0.27488
 H1809 H 0.70422 0.60039 0.32533
 H1810 H 0.71655 0.54054 0.26581
 C1811 C 0.68984 1.10798 0.81089
 C1812 C 0.70296 1.10061 0.81635
 C1813 C 0.71209 1.08962 0.80746
 C1814 C 0.72204 1.07947 0.81478
 C1815 C 0.73128 1.06935 0.80672
 C1816 C 0.73078 1.06922 0.79110
 C1817 C 0.72093 1.07946 0.78381
 C1818 C 0.71171 1.08955 0.79184
 C1819 C 0.74070 1.05918 0.78193
 C1820 C 0.74881 1.04657 0.78730
 H1821 H 0.70671 1.10282 0.82762
 H1822 H 0.72273 1.07944 0.82679
 H1823 H 0.73898 1.06196 0.81281
 H1824 H 0.72046 1.07976 0.77179
 H1825 H 0.70467 1.09753 0.78571
 H1826 H 0.74129 1.06159 0.77014
 H1827 H 0.68536 1.10491 0.80008
 H1828 H 0.74756 1.04312 0.79874
 C1829 C 0.18456 0.60205 0.80950
 C1830 C 0.19811 0.59482 0.81394
 C1831 C 0.20591 0.58361 0.80419
 C1832 C 0.21506 0.57206 0.81040
 C1833 C 0.22257 0.56148 0.80126
 C1834 C 0.22112 0.56238 0.78570
 C1835 C 0.21222 0.57413 0.77957
 C1836 C 0.20475 0.58464 0.78865
 C1837 C 0.22917 0.55197 0.77535
 C1838 C 0.23648 0.53840 0.77938
 H1839 H 0.20313 0.59744 0.82465
 H1840 H 0.21636 0.57121 0.82233
 H1841 H 0.22966 0.55286 0.80644
 H1842 H 0.21113 0.57530 0.76763
 H1843 H 0.19836 0.59375 0.78340
 H1844 H 0.22913 0.55506 0.76370
 H1845 H 0.17897 0.59853 0.79931
 H1846 H 0.23566 0.53421 0.79063
 C1847 C 0.19044 1.09955 0.32175
 C1848 C 0.18779 1.09272 0.30799
 C1849 C 0.19837 1.08138 0.30130
 C1850 C 0.19291 1.07195 0.28985
 C1851 C 0.20278 1.06168 0.28273
 C1852 C 0.21839 1.06068 0.28691
 C1853 C 0.22386 1.07015 0.29831
 C1854 C 0.21400 1.08038 0.30545
 C1855 C 0.22952 1.05067 0.27913
 C1856 C 0.22527 1.03808 0.27056
 H1857 H 0.17754 1.09579 0.30180
 H1858 H 0.18099 1.07266 0.28628
 H1859 H 0.19820 1.05492 0.27370
 H1860 H 0.23589 1.06977 0.30160
 H1861 H 0.21885 1.08777 0.31385
 H1862 H 0.24170 1.05313 0.28047
 H1863 H 0.19994 1.09579 0.32862
 H1864 H 0.21333 1.03449 0.27019
 C1865 C 0.69367 0.39423 0.68829
 C1866 C 0.68810 0.40017 0.70166
 C1867 C 0.69645 0.41141 0.71098
 C1868 C 0.69215 0.41280 0.72594
 C1869 C 0.69973 0.42306 0.73529
 C1870 C 0.71163 0.43237 0.72988
 C1871 C 0.71586 0.43118 0.71483
 C1872 C 0.70831 0.42082 0.70546
 C1873 C 0.71976 0.44256 0.74044
 C1874 C 0.72855 0.45521 0.73625
 H1875 H 0.67737 0.39577 0.70605
 H1876 H 0.68300 0.40576 0.73048
 H1877 H 0.69628 0.42370 0.74684
 H1878 H 0.72517 0.43796 0.71030
 H1879 H 0.71176 0.42032 0.69394
 H1880 H 0.71841 0.44022 0.75219
 H1881 H 0.70469 0.39790 0.68394
 H1882 H 0.72893 0.45866 0.72474
 C1883 C 0.69046 -0.10173 0.18248
 C1884 C 0.68759 -0.09749 0.19713
 C1885 C 0.69833 -0.08766 0.20561
 C1886 C 0.69263 -0.07860 0.21720
 C1887 C 0.70258 -0.06922 0.22538
 C1888 C 0.71847 -0.06889 0.22218
 C1889 C 0.72420 -0.07829 0.21088
 C1890 C 0.71427 -0.08756 0.20265
 C1891 C 0.72949 -0.05933 0.23061
 C1892 C 0.72532 -0.04611 0.23822
 H1893 H 0.67698 -0.10111 0.20244
 H1894 H 0.68044 -0.07871 0.21986
 H1895 H 0.69781 -0.06251 0.23434
 H1896 H 0.73643 -0.07844 0.20837
 H1897 H 0.71917 -0.09483 0.19419
 H1898 H 0.74162 -0.06230 0.23005
 H1899 H 0.70036 -0.09708 0.17671
 H1900 H 0.71354 -0.04212 0.23779
 C1901 C 0.19529 0.39834 0.18493
 C1902 C 0.19247 0.40403 0.19912
 C1903 C 0.20328 0.41466 0.20659
 C1904 C 0.19763 0.42502 0.21713
 C1905 C 0.20767 0.43510 0.22439
 C1906 C 0.22359 0.43485 0.22132
 C1907 C 0.22925 0.42424 0.21104
 C1908 C 0.21923 0.41428 0.20371
 C1909 C 0.23474 0.44486 0.22910
 C1910 C 0.23082 0.45881 0.23552
 H1911 H 0.18181 0.40108 0.20471
 H1912 H 0.18543 0.42534 0.21971
 H1913 H 0.20295 0.44278 0.23260
 H1914 H 0.24149 0.42363 0.20869
 H1915 H 0.22407 0.40608 0.19606
 H1916 H 0.24674 0.44141 0.22922
 H1917 H 0.20520 0.40238 0.17875
 H1918 H 0.21926 0.46322 0.23421
 C1919 C 0.18452 -0.10636 0.69997
 C1920 C 0.19869 -0.09884 0.69932
 C1921 C 0.20404 -0.08857 0.71134
 C1922 C 0.21435 -0.07671 0.70800
 C1923 C 0.21958 -0.06686 0.71916
 C1924 C 0.21463 -0.06880 0.73393
 C1925 C 0.20464 -0.08092 0.73730
 C1926 C 0.19937 -0.09069 0.72615
 C1927 C 0.22020 -0.05899 0.74620
 C1928 C 0.22627 -0.04438 0.74416
 H1929 H 0.20581 -0.10000 0.68951
 H1930 H 0.21833 -0.07502 0.69672
 H1931 H 0.22771 -0.05800 0.71619
 H1932 H 0.20091 -0.08285 0.74862
 H1933 H 0.19189 -0.10006 0.72926
 H1934 H 0.21902 -0.06328 0.75743
 H1935 H 0.17675 -0.10415 0.70912
 H1936 H 0.22616 -0.03931 0.73322
 C1937 C 0.31527 0.30259 0.39379
 C1938 C 0.30559 0.30847 0.40474
 C1939 C 0.29817 0.29865 0.41609
 C1940 C 0.29318 0.30509 0.42952
 C1941 C 0.28598 0.29606 0.44034
 C1942 C 0.28352 0.28040 0.43781
 C1943 C 0.28850 0.27402 0.42438
 C1944 C 0.29559 0.28301 0.41359
 C1945 C 0.27569 0.27025 0.44856
 C1946 C 0.26631 0.27519 0.46020
 H1947 H 0.30353 0.32064 0.40517
 H1948 H 0.29495 0.31712 0.43168
 H1949 H 0.28253 0.30139 0.45063
 H1950 H 0.28662 0.26203 0.42208
 H1951 H 0.29869 0.27767 0.40320
 H1952 H 0.27654 0.25807 0.44663
 H1953 H 0.31828 0.29063 0.39391
 H1954 H 0.26531 0.28719 0.46275
 C1955 C 0.31555 0.80316 -0.10063
 C1956 C 0.30041 0.80483 -0.09564
 C1957 C 0.29326 0.79398 -0.08506
 C1958 C 0.28129 0.79893 -0.07575
 C1959 C 0.27417 0.78880 -0.06586
 C1960 C 0.27880 0.77344 -0.06524
 C1961 C 0.29054 0.76844 -0.07477
 C1962 C 0.29774 0.77857 -0.08454
 C1963 C 0.27119 0.76215 -0.05542
 C1964 C 0.26344 0.76596 -0.04236
 H1965 H 0.29371 0.81455 -0.09929
 H1966 H 0.27745 0.81068 -0.07614
 H1967 H 0.26482 0.79296 -0.05902
 H1968 H 0.29413 0.75661 -0.07469
 H1969 H 0.30653 0.77420 -0.09190
 H1970 H 0.27227 0.75019 -0.05828
 H1971 H 0.32275 0.79430 -0.09597
 H1972 H 0.26350 0.77764 -0.03852
 C1973 C 0.82137 0.30693 -0.10268
 C1974 C 0.80685 0.30988 -0.09669
 C1975 C 0.79958 0.29986 -0.08541
 C1976 C 0.78782 0.30572 -0.07637
 C1977 C 0.78033 0.29639 -0.06602
 C1978 C 0.78444 0.28093 -0.06457
 C1979 C 0.79607 0.27506 -0.07373
 C1980 C 0.80357 0.28437 -0.08404
 C1981 C 0.77633 0.27038 -0.05436
 C1982 C 0.76754 0.27511 -0.04223
 H1983 H 0.80055 0.31984 -0.10034
 H1984 H 0.78434 0.31753 -0.07740
 H1985 H 0.77108 0.30125 -0.05952
 H1986 H 0.79927 0.26314 -0.07303
 H1987 H 0.81214 0.27923 -0.09116
 H1988 H 0.77761 0.25825 -0.05630
 H1989 H 0.82826 0.29767 -0.09834
 H1990 H 0.76729 0.28703 -0.03921
 C1991 C 0.80866 0.81297 0.40336
 C1992 C 0.80888 0.79752 0.40699
 C1993 C 0.79757 0.79084 0.41745
 C1994 C 0.80174 0.77827 0.42620
 C1995 C 0.79111 0.77174 0.43606
 C1996 C 0.77603 0.77757 0.43713
 C1997 C 0.77177 0.78987 0.42809
 C1998 C 0.78242 0.79650 0.41840
 C1999 C 0.76426 0.77073 0.44699
 C2000 C 0.76781 0.76303 0.46011
 H2001 H 0.81771 0.79022 0.40235
 H2002 H 0.81326 0.77355 0.42546
 H2003 H 0.79463 0.76196 0.44254
 H2004 H 0.76015 0.79439 0.42853
 H2005 H 0.77866 0.80584 0.41144
 H2006 H 0.75222 0.77253 0.44422
 H2007 H 0.80079 0.82050 0.40911
 H2008 H 0.77967 0.76243 0.46381
 C2009 C 0.68772 0.30972 0.60013
 C2010 C 0.70162 0.31372 0.59335
 C2011 C 0.70913 0.30399 0.58202
 C2012 C 0.71939 0.31062 0.57182
 C2013 C 0.72701 0.30161 0.56131
 C2014 C 0.72458 0.28574 0.56089
 C2015 C 0.71449 0.27912 0.57122
 C2016 C 0.70682 0.28811 0.58166
 C2017 C 0.73302 0.27561 0.55056
 C2018 C 0.73997 0.28052 0.53741
 H2019 H 0.70710 0.32442 0.59625
 H2020 H 0.72156 0.32279 0.57204
 H2021 H 0.73507 0.30709 0.55385
 H2022 H 0.71264 0.26690 0.57133
 H2023 H 0.69945 0.28249 0.58967
 H2024 H 0.73353 0.26358 0.55330
 H2025 H 0.68150 0.29972 0.59638
 H2026 H 0.73836 0.29213 0.53369
 C2027 C 0.69079 0.82087 1.09490
 C2028 C 0.68872 0.80605 1.08963
 C2029 C 0.69890 0.79887 1.07848
 C2030 C 0.69343 0.78615 1.07062
 C2031 C 0.70292 0.77855 1.06052
 C2032 C 0.71816 0.78352 1.05812
 C2033 C 0.72370 0.79614 1.06608
 C2034 C 0.71418 0.80379 1.07613
 C2035 C 0.72882 0.77526 1.04814
 C2036 C 0.72381 0.76598 1.03651
 H2037 H 0.67907 0.79939 1.09370
 H2038 H 0.68180 0.78197 1.07242
 H2039 H 0.69839 0.76855 1.05500
 H2040 H 0.73548 0.80002 1.06461
 H2041 H 0.71901 0.81322 1.08233
 H2042 H 0.74111 0.77679 1.04981
 H2043 H 0.69957 0.82815 1.09013
 H2044 H 0.71168 0.76558 1.03372
 C2045 C 0.19190 0.31810 1.10013
 C2046 C 0.18977 0.30313 1.09532
 C2047 C 0.20014 0.29569 1.08449
 C2048 C 0.19452 0.28353 1.07594
 C2049 C 0.20424 0.27578 1.06613
 C2050 C 0.21986 0.27998 1.06483
 C2051 C 0.22553 0.29201 1.07353
 C2052 C 0.21577 0.29986 1.08321
 C2053 C 0.23071 0.27151 1.05523
 C2054 C 0.22609 0.26346 1.04263
 H2055 H 0.18007 0.29662 1.09949
 H2056 H 0.18259 0.27994 1.07692
 H2057 H 0.19959 0.26625 1.05994
 H2058 H 0.23758 0.29529 1.07291
 H2059 H 0.22063 0.30885 1.09000
 H2060 H 0.24290 0.27202 1.05790
 H2061 H 0.20063 0.32519 1.09499
 H2062 H 0.21424 0.26411 1.03891
 C2063 C 0.20203 0.81854 0.60534
 C2064 C 0.19696 0.80670 0.59615
 C2065 C 0.20642 0.79911 0.58460
 C2066 C 0.19915 0.78852 0.57522
 C2067 C 0.20760 0.78026 0.56478
 C2068 C 0.22363 0.78246 0.56340
 C2069 C 0.23090 0.79317 0.57267
 C2070 C 0.22243 0.80143 0.58316
 C2071 C 0.23324 0.77321 0.55321
 C2072 C 0.22730 0.76435 0.54162
 H2073 H 0.18528 0.80255 0.59753
 H2074 H 0.18687 0.78639 0.57617
 H2075 H 0.20153 0.77187 0.55821
 H2076 H 0.24325 0.79500 0.57194
 H2077 H 0.22860 0.80925 0.59027
 H2078 H 0.24563 0.77339 0.55487
 H2079 H 0.21326 0.82365 0.60378
 H2080 H 0.21520 0.76502 0.53885
 C2081 C 0.30322 0.67973 0.60697
 C2082 C 0.30703 0.69231 0.59820
 C2083 C 0.29628 0.69881 0.58706
 C2084 C 0.30219 0.70738 0.57517
 C2085 C 0.29226 0.71403 0.56474
 C2086 C 0.27617 0.71231 0.56610
 C2087 C 0.27029 0.70390 0.57809
 C2088 C 0.28018 0.69722 0.58845
 C2089 C 0.26508 0.71983 0.55593
 C2090 C 0.26878 0.72558 0.54190
 H2091 H 0.31838 0.69738 0.59927
 H2092 H 0.31453 0.70898 0.57399
 H2093 H 0.29725 0.72079 0.55592
 H2094 H 0.25794 0.70262 0.57955
 H2095 H 0.27512 0.69120 0.59773
 H2096 H 0.25321 0.72069 0.55962
 H2097 H 0.29246 0.67375 0.60509
 H2098 H 0.28012 0.72367 0.53728
 C2099 C 0.31472 0.18848 1.10276
 C2100 C 0.30073 0.18347 1.09675
 C2101 C 0.29175 0.19211 1.08560
 C2102 C 0.27586 0.18922 1.08444
 C2103 C 0.26675 0.19746 1.07450
 C2104 C 0.27336 0.20859 1.06530
 C2105 C 0.28935 0.21133 1.06622
 C2106 C 0.29846 0.20313 1.07624
 C2107 C 0.26311 0.21755 1.05549
 C2108 C 0.26818 0.22540 1.04292
 H2109 H 0.29543 0.17328 1.10122
 H2110 H 0.27040 0.18075 1.09146
 H2111 H 0.25447 0.19517 1.07404
 H2112 H 0.29482 0.22001 1.05950
 H2113 H 0.31072 0.20545 1.07657
 H2114 H 0.25088 0.21759 1.05801
 H2115 H 0.31999 0.19893 1.09891
 H2116 H 0.28003 0.22434 1.03932
 C2117 C 0.81134 0.68510 1.09492
 C2118 C 0.81202 0.70018 1.09010
 C2119 C 0.80045 0.70634 1.07959
 C2120 C 0.80470 0.71757 1.06927
 C2121 C 0.79377 0.72355 1.05937
 C2122 C 0.77833 0.71854 1.05986
 C2123 C 0.77406 0.70755 1.07040
 C2124 C 0.78499 0.70144 1.08010
 C2125 C 0.76619 0.72513 1.05026
 C2126 C 0.76898 0.73149 1.03631
 H2127 H 0.82132 0.70751 1.09384
 H2128 H 0.81649 0.72168 1.06882
 H2129 H 0.79735 0.73233 1.05166
 H2130 H 0.76220 0.70370 1.07116
 H2131 H 0.78122 0.69315 1.08824
 H2132 H 0.75436 0.72443 1.05412
 H2133 H 0.80296 0.67746 1.08995
 H2134 H 0.78042 0.73088 1.03153
 C2135 C 0.80644 0.18444 0.59765
 C2136 C 0.81101 0.19793 0.59066
 C2137 C 0.80165 0.20589 0.57928
 C2138 C 0.80886 0.21670 0.57011
 C2139 C 0.80030 0.22513 0.55982
 C2140 C 0.78427 0.22293 0.55856
 C2141 C 0.77706 0.21214 0.56776
 C2142 C 0.78562 0.20368 0.57800
 C2143 C 0.77455 0.23228 0.54857
 C2144 C 0.78017 0.24057 0.53647
 H2145 H 0.82206 0.20289 0.59351
 H2146 H 0.82116 0.21879 0.57103
 H2147 H 0.80624 0.23364 0.55327
 H2148 H 0.76469 0.21039 0.56716
 H2149 H 0.77953 0.19582 0.58516
 H2150 H 0.76225 0.23251 0.55073
 H2151 H 0.79610 0.17854 0.59411
 H2152 H 0.79211 0.23949 0.53317
 C2153 C 0.68083 0.68960 0.40205
 C2154 C 0.67680 0.70427 0.40658
 C2155 C 0.68525 0.71240 0.41849
 C2156 C 0.68610 0.72836 0.41805
 C2157 C 0.69507 0.73630 0.42839
 C2158 C 0.70321 0.72847 0.43950
 C2159 C 0.70188 0.71249 0.44028
 C2160 C 0.69291 0.70457 0.42995
 C2161 C 0.71362 0.73727 0.44938
 C2162 C 0.72050 0.73143 0.46221
 H2163 H 0.66831 0.71056 0.40025
 H2164 H 0.68021 0.73467 0.40940
 H2165 H 0.69587 0.74861 0.42753
 H2166 H 0.70803 0.70593 0.44851
 H2167 H 0.69212 0.69230 0.43093
 H2168 H 0.71612 0.74898 0.44634
 H2169 H 0.69008 0.68362 0.40761
 H2170 H 0.71731 0.72028 0.46628
 C2171 C 0.69076 0.19699 -0.10869
 C2172 C 0.70047 0.19108 -0.09781
 C2173 C 0.70800 0.20141 -0.08701
 C2174 C 0.71017 0.19681 -0.07223
 C2175 C 0.71623 0.20703 -0.06174
 C2176 C 0.72036 0.22195 -0.06600
 C2177 C 0.71865 0.22627 -0.08089
 C2178 C 0.71267 0.21612 -0.09129
 C2179 C 0.72635 0.23354 -0.05553
 C2180 C 0.73240 0.23048 -0.04148
 H2181 H 0.70188 0.17887 -0.09670
 H2182 H 0.70673 0.18549 -0.06872
 H2183 H 0.71727 0.20328 -0.05036
 H2184 H 0.72195 0.23760 -0.08452
 H2185 H 0.71168 0.21986 -0.10271
 H2186 H 0.72666 0.24523 -0.05945
 H2187 H 0.68823 0.20909 -0.10866
 H2188 H 0.73195 0.21908 -0.03695
 C2189 C 0.17683 0.68923 -0.10388
 C2190 C 0.19065 0.68583 -0.09666
 C2191 C 0.19744 0.69586 -0.08510
 C2192 C 0.20828 0.68984 -0.07512
 C2193 C 0.21546 0.69922 -0.06457
 C2194 C 0.21195 0.71487 -0.06388
 C2195 C 0.20115 0.72086 -0.07390
 C2196 C 0.19398 0.71152 -0.08439
 C2197 C 0.21998 0.72555 -0.05372
 C2198 C 0.22857 0.72115 -0.04132
 H2199 H 0.19679 0.67552 -0.09960
 H2200 H 0.21133 0.67788 -0.07558
 H2201 H 0.22402 0.69421 -0.05734
 H2202 H 0.19842 0.73292 -0.07378
 H2203 H 0.18615 0.71677 -0.09220
 H2204 H 0.21899 0.73763 -0.05608
 H2205 H 0.17002 0.69887 -0.10029
 H2206 H 0.22861 0.70937 -0.03779
 C2207 C 0.19131 0.19727 0.39024
 C2208 C 0.19916 0.19179 0.40263
 C2209 C 0.20628 0.20233 0.41350
 C2210 C 0.20771 0.19791 0.42841
 C2211 C 0.21381 0.20802 0.43893
 C2212 C 0.21871 0.22268 0.43462
 C2213 C 0.21756 0.22692 0.41967
 C2214 C 0.21159 0.21684 0.40919
 C2215 C 0.22489 0.23403 0.44519
 C2216 C 0.23151 0.23041 0.45886
 H2217 H 0.19944 0.17964 0.40480
 H2218 H 0.20378 0.18676 0.43197
 H2219 H 0.21429 0.20442 0.45041
 H2220 H 0.22141 0.23808 0.41604
 H2221 H 0.21127 0.22045 0.39771
 H2222 H 0.22494 0.24585 0.44167
 H2223 H 0.18989 0.20943 0.38877
 H2224 H 0.23163 0.21874 0.46272
 C2225 C 0.30600 0.39748 0.68156
 C2226 C 0.30913 0.40365 0.69552
 C2227 C 0.29858 0.41419 0.70335
 C2228 C 0.30451 0.42328 0.71484
 C2229 C 0.29484 0.43292 0.72294
 C2230 C 0.27896 0.43361 0.71975
 C2231 C 0.27299 0.42437 0.70839
 C2232 C 0.28267 0.41478 0.70024
 C2233 C 0.26824 0.44321 0.72847
 C2234 C 0.27296 0.45610 0.73635
 H2235 H 0.31989 0.40079 0.70095
 H2236 H 0.31666 0.42285 0.71763
 H2237 H 0.29981 0.43945 0.73194
 H2238 H 0.26076 0.42450 0.70588
 H2239 H 0.27755 0.40758 0.69182
 H2240 H 0.25607 0.44034 0.72825
 H2241 H 0.29590 0.40107 0.67543
 H2242 H 0.28477 0.45998 0.73549
 C2243 C 0.30995 0.89559 0.18957
 C2244 C 0.29614 0.90267 0.18552
 C2245 C 0.28778 0.91383 0.19486
 C2246 C 0.27206 0.91627 0.19199
 C2247 C 0.26351 0.92635 0.20067
 C2248 C 0.27051 0.93446 0.21228
 C2249 C 0.28634 0.93226 0.21506
 C2250 C 0.29491 0.92206 0.20641
 C2251 C 0.26073 0.94444 0.22159
 C2252 C 0.26635 0.95617 0.23058
 H2253 H 0.29055 0.89918 0.17533
 H2254 H 0.26629 0.91014 0.18314
 H2255 H 0.25133 0.92779 0.19833
 H2256 H 0.29209 0.93810 0.22408
 H2257 H 0.30706 0.92075 0.20879
 H2258 H 0.24834 0.94274 0.22103
 H2259 H 0.31554 0.89840 0.19995
 H2260 H 0.27846 0.95912 0.23033
 C2261 C 0.82102 0.39801 0.19474
 C2262 C 0.80835 0.40712 0.19120
 C2263 C 0.80136 0.41834 0.20143
 C2264 C 0.79127 0.42928 0.19555
 C2265 C 0.78361 0.43951 0.20484
 C2266 C 0.78589 0.43899 0.22029
 C2267 C 0.79597 0.42804 0.22619
 C2268 C 0.80366 0.41782 0.21688
 C2269 C 0.77727 0.44895 0.23062
 C2270 C 0.77014 0.46252 0.22634
 H2271 H 0.80327 0.40610 0.18026
 H2272 H 0.78911 0.42977 0.18371
 H2273 H 0.77556 0.44742 0.19987
 H2274 H 0.79775 0.42726 0.23807
 H2275 H 0.81098 0.40929 0.22191
 H2276 H 0.77665 0.44555 0.24217
 H2277 H 0.82717 0.39963 0.20507
 H2278 H 0.77184 0.46692 0.21525
 C2279 C 0.80850 0.90289 0.68978
 C2280 C 0.81472 0.90866 0.70294
 C2281 C 0.80638 0.91969 0.71246
 C2282 C 0.81477 0.92907 0.72219
 C2283 C 0.80717 0.93933 0.73158
 C2284 C 0.79096 0.94029 0.73147
 C2285 C 0.78259 0.93073 0.72192
 C2286 C 0.79017 0.92056 0.71251
 C2287 C 0.78228 0.95044 0.74159
 C2288 C 0.78854 0.96314 0.74879
 H2289 H 0.82622 0.90525 0.70625
 H2290 H 0.82725 0.92844 0.72254
 H2291 H 0.81402 0.94617 0.73910
 H2292 H 0.77009 0.93105 0.72179
 H2293 H 0.78323 0.91314 0.70560
 H2294 H 0.77008 0.94811 0.74306
 H2295 H 0.79761 0.90720 0.68570
 H2296 H 0.80028 0.96661 0.74656
 C2297 C 0.68836 0.59804 0.69296
 C2298 C 0.70331 0.59279 0.69036
 C2299 C 0.71126 0.58162 0.70004
 C2300 C 0.72743 0.58097 0.69972
 C2301 C 0.73543 0.57089 0.70893
 C2302 C 0.72742 0.56105 0.71852
 C2303 C 0.71119 0.56154 0.71873
 C2304 C 0.70319 0.57164 0.70953
 C2305 C 0.73640 0.55097 0.72848
 C2306 C 0.73031 0.53811 0.73553
 H2307 H 0.70990 0.59774 0.68136
 H2308 H 0.73393 0.58847 0.69247
 H2309 H 0.74793 0.57080 0.70858
 H2310 H 0.70457 0.55439 0.72617
 H2311 H 0.69072 0.57150 0.70988
 H2312 H 0.74854 0.55354 0.73002
 H2313 H 0.68183 0.59389 0.70235
 H2314 H 0.71864 0.53450 0.73314
 C2315 C 0.69724 0.09982 0.18094
 C2316 C 0.69303 0.09206 0.19383
 C2317 C 0.70302 0.08041 0.20089
 C2318 C 0.69657 0.07030 0.21127
 C2319 C 0.70585 0.05974 0.21875
 C2320 C 0.72183 0.05914 0.21598
 C2321 C 0.72824 0.06928 0.20564
 C2322 C 0.71900 0.07982 0.19821
 C2323 C 0.73240 0.04889 0.22417
 C2324 C 0.72769 0.03656 0.23286
 H2325 H 0.68221 0.09483 0.19919
 H2326 H 0.68434 0.07069 0.21373
 H2327 H 0.70047 0.05243 0.22691
 H2328 H 0.74054 0.06924 0.20346
 H2329 H 0.72461 0.08775 0.19077
 H2330 H 0.74468 0.05110 0.22318
 H2331 H 0.70750 0.09653 0.17493
 H2332 H 0.71571 0.03317 0.23311
 C2333 C 0.19266 0.60307 0.18991
 C2334 C 0.20679 0.59720 0.18524
 C2335 C 0.21517 0.58531 0.19372
 C2336 C 0.23129 0.58457 0.19266
 C2337 C 0.23962 0.57408 0.20116
 C2338 C 0.23200 0.56393 0.21076
 C2339 C 0.21578 0.56434 0.21148
 C2340 C 0.20746 0.57485 0.20299
 C2341 C 0.24141 0.55376 0.22032
 C2342 C 0.23556 0.54134 0.22828
 H2343 H 0.21246 0.60226 0.17572
 H2344 H 0.23750 0.59241 0.18552
 H2345 H 0.25210 0.57403 0.20037
 H2346 H 0.20940 0.55689 0.21881
 H2347 H 0.19500 0.57473 0.20376
 H2348 H 0.25366 0.55615 0.22110
 H2349 H 0.18737 0.59883 0.19997
 H2350 H 0.22371 0.53783 0.22677
 C2351 C 0.19590 0.09909 0.69236
 C2352 C 0.18951 0.09245 0.70503
 C2353 C 0.19812 0.08157 0.71452
 C2354 C 0.18992 0.07127 0.72350
 C2355 C 0.19775 0.06111 0.73282
 C2356 C 0.21398 0.06117 0.73341
 C2357 C 0.22213 0.07163 0.72460
 C2358 C 0.21433 0.08171 0.71525
 C2359 C 0.22285 0.05118 0.74355
 C2360 C 0.21713 0.03784 0.75002
 H2361 H 0.17765 0.09497 0.70792
 H2362 H 0.17742 0.07112 0.72332
 H2363 H 0.19103 0.05354 0.73977
 H2364 H 0.23462 0.07209 0.72502
 H2365 H 0.22107 0.08983 0.70893
 H2366 H 0.23478 0.05424 0.74568
 H2367 H 0.20723 0.09564 0.68862
 H2368 H 0.20577 0.03369 0.74711
 C2369 C 0.31562 0.60427 0.31015
 C2370 C 0.30162 0.59742 0.31396
 C2371 C 0.29364 0.58619 0.30434
 C2372 C 0.27755 0.58485 0.30535
 C2373 C 0.26951 0.57479 0.29612
 C2374 C 0.27740 0.56561 0.28589
 C2375 C 0.29358 0.56671 0.28505
 C2376 C 0.30163 0.57688 0.29422
 C2377 C 0.26829 0.55557 0.27596
 C2378 C 0.27427 0.54282 0.26869
 H2379 H 0.29560 0.60134 0.32376
 H2380 H 0.27113 0.59184 0.31309
 H2381 H 0.25705 0.57419 0.29697
 H2382 H 0.30006 0.56002 0.27714
 H2383 H 0.31407 0.57733 0.29337
 H2384 H 0.25608 0.55794 0.27481
 H2385 H 0.32125 0.60130 0.29984
 H2386 H 0.28605 0.53934 0.27068
 C2387 C 0.30887 0.10415 0.81469
 C2388 C 0.29619 0.09636 0.82052
 C2389 C 0.28764 0.08471 0.81186
 C2390 C 0.27910 0.07343 0.81929
 C2391 C 0.27070 0.06248 0.81130
 C2392 C 0.27064 0.06273 0.79567
 C2393 C 0.27900 0.07417 0.78831
 C2394 C 0.28736 0.08504 0.79626
 C2395 C 0.26161 0.05190 0.78649
 C2396 C 0.25420 0.03876 0.79167
 H2397 H 0.29250 0.09873 0.83176
 H2398 H 0.27893 0.07308 0.83131
 H2399 H 0.26414 0.05409 0.81743
 H2400 H 0.27897 0.07480 0.77629
 H2401 H 0.29324 0.09389 0.79009
 H2402 H 0.26093 0.05432 0.77470
 H2403 H 0.31339 0.10097 0.80393
 H2404 H 0.25548 0.03521 0.80308
 C2405 C 0.81693 0.60393 0.80823
 C2406 C 0.80377 0.59559 0.81203
 C2407 C 0.79688 0.58383 0.80220
 C2408 C 0.78685 0.57290 0.80829
 C2409 C 0.77973 0.56196 0.79925
 C2410 C 0.78250 0.56179 0.78385
 C2411 C 0.79243 0.57279 0.77777
 C2412 C 0.79953 0.58369 0.78679
 C2413 C 0.77461 0.55109 0.77358
 C2414 C 0.76658 0.53800 0.77797
 H2415 H 0.79839 0.59759 0.82269
 H2416 H 0.78443 0.57289 0.82009
 H2417 H 0.77183 0.55399 0.80435
 H2418 H 0.79457 0.57309 0.76592
 H2419 H 0.80671 0.59221 0.78151
 H2420 H 0.77524 0.55362 0.76182
 H2421 H 0.82310 0.60133 0.79812
 H2422 H 0.76683 0.53437 0.78942
 C2423 C 0.80480 0.10292 0.31519
 C2424 C 0.80927 0.09429 0.30293
 C2425 C 0.79884 0.08303 0.29582
 C2426 C 0.80512 0.07134 0.28708
 C2427 C 0.79550 0.06079 0.27993
 C2428 C 0.77935 0.06182 0.28136
 C2429 C 0.77312 0.07365 0.28992
 C2430 C 0.78270 0.08416 0.29702
 C2431 C 0.76849 0.05137 0.27372
 C2432 C 0.77264 0.03774 0.26678
 H2433 H 0.82070 0.09584 0.29833
 H2434 H 0.81751 0.07039 0.28576
 H2435 H 0.80081 0.05211 0.27314
 H2436 H 0.76073 0.07489 0.29101
 H2437 H 0.77732 0.09335 0.30310
 H2438 H 0.75637 0.05440 0.27388
 H2439 H 0.79379 0.10078 0.32046
 H2440 H 0.78439 0.03370 0.26736
 C2441 C 0.69061 0.40075 0.30925
 C2442 C 0.68709 0.40498 0.29471
 C2443 C 0.69599 0.41649 0.28622
 C2444 C 0.69492 0.41648 0.27068
 C2445 C 0.70336 0.42692 0.26222
 C2446 C 0.71293 0.43774 0.26911
 C2447 C 0.71387 0.43790 0.28470
 C2448 C 0.70541 0.42746 0.29316
 C2449 C 0.72214 0.44815 0.25965
 C2450 C 0.72934 0.46140 0.26480
 H2451 H 0.67785 0.39911 0.28897
 H2452 H 0.68769 0.40821 0.26504
 H2453 H 0.70246 0.42649 0.25023
 H2454 H 0.72130 0.44582 0.29049
 H2455 H 0.70628 0.42815 0.30511
 H2456 H 0.72306 0.44542 0.24795
 H2457 H 0.70030 0.40585 0.31497
 H2458 H 0.72749 0.46514 0.27608
 C2459 C 0.69218 0.90079 0.81249
 C2460 C 0.70536 0.90797 0.81803
 C2461 C 0.71423 0.91933 0.80929
 C2462 C 0.72383 0.92980 0.81665
 C2463 C 0.73274 0.94029 0.80861
 C2464 C 0.73225 0.94041 0.79298
 C2465 C 0.72277 0.92982 0.78567
 C2466 C 0.71389 0.91939 0.79368
 C2467 C 0.74190 0.95070 0.78379
 C2468 C 0.74979 0.96352 0.78905
 H2469 H 0.70940 0.90516 0.82907
 H2470 H 0.72450 0.92981 0.82866
 H2471 H 0.74018 0.94797 0.81468
 H2472 H 0.72237 0.92947 0.77365
 H2473 H 0.70716 0.91114 0.78753
 H2474 H 0.74260 0.94820 0.77202
 H2475 H 0.68741 0.90434 0.80195
 H2476 H 0.74839 0.96716 0.80042
 C2477 C 0.19652 0.39052 0.82043
 C2478 C 0.19307 0.39868 0.80756
 C2479 C 0.20382 0.40998 0.80099
 C2480 C 0.19794 0.42149 0.79177
 C2481 C 0.20783 0.43206 0.78504
 C2482 C 0.22388 0.43125 0.78736
 C2483 C 0.22975 0.41962 0.79643
 C2484 C 0.21987 0.40910 0.80319
 C2485 C 0.23491 0.44161 0.77984
 C2486 C 0.23089 0.45565 0.77363
 H2487 H 0.18196 0.39704 0.80228
 H2488 H 0.18564 0.42225 0.78971
 H2489 H 0.20287 0.44053 0.77775
 H2490 H 0.24207 0.41856 0.79818
 H2491 H 0.22492 0.40009 0.80978
 H2492 H 0.24689 0.43812 0.77938
 H2493 H 0.20700 0.39298 0.82651
 H2494 H 0.21938 0.46009 0.77520
 C2495 C 0.19081 0.89416 0.31897
 C2496 C 0.18690 0.90084 0.30544
 C2497 C 0.19726 0.91164 0.29762
 C2498 C 0.19100 0.92201 0.28739
 C2499 C 0.20057 0.93208 0.27957
 C2500 C 0.21665 0.93187 0.28179
 C2501 C 0.22290 0.92132 0.29182
 C2502 C 0.21335 0.91132 0.29965
 C2503 C 0.22737 0.94189 0.27347
 C2504 C 0.22301 0.95533 0.26632
 H2505 H 0.17582 0.89825 0.30046
 H2506 H 0.17866 0.92229 0.28543
 H2507 H 0.19533 0.93971 0.27161
 H2508 H 0.23526 0.92075 0.29355
 H2509 H 0.21871 0.90312 0.30699
 H2510 H 0.23950 0.93885 0.27348
 H2511 H 0.20127 0.89760 0.32462
 H2512 H 0.21128 0.95939 0.26719
 C2513 C 0.39093 0.30975 0.69343
 C2514 C 0.40039 0.31656 0.70406
 C2515 C 0.41112 0.30741 0.71320
 C2516 C 0.42491 0.31393 0.71837
 C2517 C 0.43541 0.30524 0.72662
 C2518 C 0.43218 0.28985 0.72993
 C2519 C 0.41813 0.28356 0.72515
 C2520 C 0.40770 0.29221 0.71694
 C2521 C 0.44284 0.27982 0.73827
 C2522 C 0.45774 0.28372 0.74285
 H2523 H 0.40036 0.32884 0.70534
 H2524 H 0.42767 0.32569 0.71581
 H2525 H 0.44594 0.31066 0.73028
 H2526 H 0.41519 0.27184 0.72774
 H2527 H 0.39690 0.28698 0.71368
 H2528 H 0.43888 0.26830 0.74048
 H2529 H 0.39199 0.29767 0.69124
 H2530 H 0.46253 0.29477 0.74024
 C2531 C 0.39346 0.80551 0.17892
 C2532 C 0.40143 0.80942 0.19184
 C2533 C 0.41333 0.79952 0.19870
 C2534 C 0.42387 0.80593 0.20877
 C2535 C 0.43485 0.79683 0.21593
 C2536 C 0.43545 0.78105 0.21318
 C2537 C 0.42486 0.77464 0.20318
 C2538 C 0.41392 0.78372 0.19602
 C2539 C 0.44614 0.77072 0.22118
 C2540 C 0.45909 0.77554 0.22916
 H2541 H 0.39903 0.82026 0.19710
 H2542 H 0.42353 0.81803 0.21120
 H2543 H 0.44247 0.80219 0.22387
 H2544 H 0.42489 0.76248 0.20104
 H2545 H 0.40570 0.77819 0.18876
 H2546 H 0.44371 0.75860 0.22070
 H2547 H 0.39648 0.79528 0.17291
 H2548 H 0.46267 0.78734 0.22868
 C2549 C 0.89380 0.30229 0.18037
 C2550 C 0.90328 0.30652 0.19221
 C2551 C 0.91444 0.29611 0.19944
 C2552 C 0.92606 0.30239 0.20844
 C2553 C 0.93645 0.29298 0.21597
 C2554 C 0.93542 0.27703 0.21464
 C2555 C 0.92374 0.27075 0.20573
 C2556 C 0.91336 0.28015 0.19819
 C2557 C 0.94569 0.26656 0.22290
 C2558 C 0.95986 0.27085 0.22904
 H2559 H 0.90271 0.31811 0.19631
 H2560 H 0.92701 0.31463 0.20977
 H2561 H 0.94497 0.29828 0.22307
 H2562 H 0.92255 0.25849 0.20469
 H2563 H 0.90431 0.27480 0.19177
 H2564 H 0.94215 0.25473 0.22385
 H2565 H 0.89491 0.29115 0.17535
 H2566 H 0.96436 0.28218 0.22719
 C2567 C 0.89100 0.81181 0.67903
 C2568 C 0.89847 0.81508 0.69238
 C2569 C 0.90970 0.80458 0.69939
 C2570 C 0.92024 0.81040 0.70979
 C2571 C 0.93067 0.80074 0.71698
 C2572 C 0.93070 0.78499 0.71394
 C2573 C 0.92002 0.77917 0.70370
 C2574 C 0.90963 0.78882 0.69649
 C2575 C 0.94099 0.77419 0.72177
 C2576 C 0.95446 0.77848 0.72921
 H2577 H 0.89622 0.82585 0.69783
 H2578 H 0.92035 0.82245 0.71241
 H2579 H 0.93836 0.80563 0.72516
 H2580 H 0.91961 0.76705 0.70135
 H2581 H 0.90133 0.78377 0.68898
 H2582 H 0.93801 0.76218 0.72136
 H2583 H 0.89397 0.80165 0.67287
 H2584 H 0.95849 0.79013 0.72856
 C2585 C 0.60471 0.31361 0.31058
 C2586 C 0.60051 0.29838 0.31256
 C2587 C 0.58860 0.29095 0.30318
 C2588 C 0.58965 0.27527 0.30033
 C2589 C 0.57922 0.26817 0.29068
 C2590 C 0.56741 0.27654 0.28377
 C2591 C 0.56596 0.29215 0.28716
 C2592 C 0.57641 0.29925 0.29678
 C2593 C 0.55725 0.26858 0.27294
 C2594 C 0.54550 0.27553 0.26470
 H2595 H 0.60707 0.29138 0.32019
 H2596 H 0.59883 0.26858 0.30525
 H2597 H 0.58057 0.25611 0.28841
 H2598 H 0.55694 0.29909 0.28241
 H2599 H 0.57486 0.31123 0.29918
 H2600 H 0.55931 0.25654 0.27113
 H2601 H 0.59903 0.32033 0.30212
 H2602 H 0.54262 0.28735 0.26645
 C2603 C 0.60723 0.81556 0.80312
 C2604 C 0.59914 0.80214 0.80607
 C2605 C 0.58816 0.79557 0.79516
 C2606 C 0.57582 0.78648 0.80005
 C2607 C 0.56535 0.78022 0.78986
 C2608 C 0.56715 0.78287 0.77453
 C2609 C 0.57971 0.79165 0.76967
 C2610 C 0.59011 0.79790 0.77982
 C2611 C 0.55675 0.77625 0.76314
 C2612 C 0.54226 0.76990 0.76603
 H2613 H 0.60068 0.79644 0.81663
 H2614 H 0.57424 0.78430 0.81179
 H2615 H 0.55610 0.77314 0.79406
 H2616 H 0.58156 0.79363 0.75793
 H2617 H 0.59983 0.80429 0.77554
 H2618 H 0.56055 0.77680 0.75169
 H2619 H 0.60473 0.82188 0.79309
 H2620 H 0.53753 0.77032 0.77712
 C2621 C 0.10462 0.30904 0.80699
 C2622 C 0.09833 0.29480 0.81050
 C2623 C 0.08821 0.28585 0.80054
 C2624 C 0.08706 0.27007 0.80291
 C2625 C 0.07770 0.26105 0.79386
 C2626 C 0.06903 0.26762 0.78240
 C2627 C 0.07008 0.28345 0.78000
 C2628 C 0.07957 0.29250 0.78901
 C2629 C 0.05940 0.25751 0.77305
 C2630 C 0.04648 0.26245 0.76517
 H2631 H 0.10179 0.28934 0.82074
 H2632 H 0.09356 0.26466 0.81174
 H2633 H 0.07715 0.24888 0.79591
 H2634 H 0.06379 0.28887 0.77107
 H2635 H 0.07995 0.30465 0.78700
 H2636 H 0.06197 0.24542 0.77316
 H2637 H 0.10206 0.31441 0.79647
 H2638 H 0.04280 0.27419 0.76599
 C2639 C 0.10169 0.80951 0.31306
 C2640 C 0.09557 0.79511 0.31615
 C2641 C 0.08366 0.78767 0.30677
 C2642 C 0.08261 0.77171 0.30678
 C2643 C 0.07194 0.76423 0.29766
 C2644 C 0.06189 0.77256 0.28853
 C2645 C 0.06269 0.78859 0.28875
 C2646 C 0.07342 0.79606 0.29782
 C2647 C 0.05141 0.76412 0.27841
 C2648 C 0.03830 0.77043 0.27178
 H2649 H 0.10046 0.78853 0.32516
 H2650 H 0.09029 0.76497 0.31363
 H2651 H 0.07161 0.75188 0.29768
 H2652 H 0.05535 0.79543 0.28169
 H2653 H 0.07359 0.80839 0.29778
 H2654 H 0.05401 0.75224 0.27625
 H2655 H 0.09768 0.81582 0.30350
 H2656 H 0.03461 0.78177 0.27483
 C2657 C 0.60346 0.68225 0.69083
 C2658 C 0.59736 0.69660 0.68765
 C2659 C 0.58590 0.70416 0.69740
 C2660 C 0.57632 0.71554 0.69149
 C2661 C 0.56566 0.72314 0.70052
 C2662 C 0.56446 0.71952 0.71571
 C2663 C 0.57419 0.70828 0.72161
 C2664 C 0.58480 0.70070 0.71261
 C2665 C 0.55399 0.72770 0.72597
 C2666 C 0.54158 0.73676 0.72149
 H2667 H 0.60084 0.70238 0.67757
 H2668 H 0.57712 0.71860 0.67987
 H2669 H 0.55873 0.73204 0.69561
 H2670 H 0.57371 0.70546 0.73332
 H2671 H 0.59236 0.69244 0.71775
 H2672 H 0.55602 0.72632 0.73777
 H2673 H 0.59912 0.67583 0.70019
 H2674 H 0.53835 0.73723 0.70992
 C2675 C 0.61108 0.18711 0.19250
 C2676 C 0.60350 0.20051 0.18848
 C2677 C 0.59212 0.20824 0.19822
 C2678 C 0.58180 0.21875 0.19194
 C2679 C 0.57117 0.22654 0.20083
 C2680 C 0.57067 0.22397 0.21626
 C2681 C 0.58113 0.21362 0.22253
 C2682 C 0.59174 0.20585 0.21366
 C2683 C 0.56006 0.23229 0.22630
 C2684 C 0.54711 0.24045 0.22159
 H2685 H 0.60579 0.20548 0.17770
 H2686 H 0.58201 0.22099 0.18012
 H2687 H 0.56367 0.23475 0.19556
 H2688 H 0.58119 0.21161 0.23440
 H2689 H 0.59983 0.19831 0.21908
 H2690 H 0.56234 0.23164 0.23811
 H2691 H 0.60820 0.18142 0.20279
 H2692 H 0.54379 0.24023 0.21003
 C2693 C 0.10334 0.68511 0.19709
 C2694 C 0.09534 0.69836 0.19332
 C2695 C 0.08374 0.70557 0.20318
 C2696 C 0.07322 0.71603 0.19714
 C2697 C 0.06245 0.72342 0.20621
 C2698 C 0.06203 0.72049 0.22157
 C2699 C 0.07264 0.71012 0.22759
 C2700 C 0.08338 0.70277 0.21856
 C2701 C 0.05142 0.72846 0.23187
 C2702 C 0.03858 0.73698 0.22752
 H2703 H 0.09745 0.70357 0.18261
 H2704 H 0.07339 0.71858 0.18537
 H2705 H 0.05478 0.73162 0.20114
 H2706 H 0.07275 0.70782 0.23941
 H2707 H 0.09159 0.69523 0.22381
 H2708 H 0.05371 0.72734 0.24365
 H2709 H 0.10060 0.67908 0.20722
 H2710 H 0.03516 0.73734 0.21600
 C2711 C 0.10822 0.18527 0.67983
 C2712 C 0.10111 0.18225 0.69340
 C2713 C 0.08978 0.19277 0.70020
 C2714 C 0.07925 0.18710 0.71069
 C2715 C 0.06876 0.19686 0.71767
 C2716 C 0.06869 0.21254 0.71434
 C2717 C 0.07934 0.21821 0.70400
 C2718 C 0.08977 0.20847 0.69699
 C2719 C 0.05847 0.22350 0.72203
 C2720 C 0.04506 0.21939 0.72964
 H2721 H 0.10378 0.17176 0.69919
 H2722 H 0.07921 0.17510 0.71354
 H2723 H 0.06108 0.19211 0.72593
 H2724 H 0.07972 0.23028 0.70143
 H2725 H 0.09807 0.21341 0.68941
 H2726 H 0.06153 0.23548 0.72149
 H2727 H 0.10473 0.19509 0.67337
 H2728 H 0.04090 0.20777 0.72915
 C2729 C 0.39102 0.70058 0.31138
 C2730 C 0.40170 0.69542 0.30096
 C2731 C 0.41260 0.70587 0.29339
 C2732 C 0.42659 0.70018 0.28790
 C2733 C 0.43712 0.70984 0.28075
 C2734 C 0.43374 0.72543 0.27884
 C2735 C 0.41961 0.73101 0.28412
 C2736 C 0.40913 0.72138 0.29124
 C2737 C 0.44427 0.73632 0.27129
 C2738 C 0.45846 0.73256 0.26490
 H2739 H 0.40244 0.68333 0.29861
 H2740 H 0.42946 0.68824 0.28928
 H2741 H 0.44779 0.70494 0.27683
 H2742 H 0.41658 0.74290 0.28265
 H2743 H 0.39822 0.72611 0.29479
 H2744 H 0.44061 0.74811 0.27070
 H2745 H 0.39104 0.71245 0.31465
 H2746 H 0.46292 0.72111 0.26573
 C2747 C 0.39682 0.18773 0.80821
 C2748 C 0.40592 0.19977 0.81334
 C2749 C 0.41656 0.20846 0.80363
 C2750 C 0.42859 0.21692 0.81008
 C2751 C 0.43839 0.22583 0.80126
 C2752 C 0.43625 0.22648 0.78580
 C2753 C 0.42413 0.21813 0.77940
 C2754 C 0.41439 0.20922 0.78818
 C2755 C 0.44577 0.23622 0.77599
 C2756 C 0.46020 0.24220 0.77978
 H2757 H 0.40525 0.20302 0.82492
 H2758 H 0.43033 0.21673 0.82198
 H2759 H 0.44732 0.23242 0.80668
 H2760 H 0.42209 0.21862 0.76754
 H2761 H 0.40493 0.20334 0.78281
 H2762 H 0.44143 0.23839 0.76490
 H2763 H 0.39828 0.18351 0.79702
 H2764 H 0.46553 0.23926 0.79023
 C2765 C 0.89700 0.69653 0.81638
 C2766 C 0.90272 0.69427 0.80209
 C2767 C 0.91271 0.70555 0.79450
 C2768 C 0.92249 0.70064 0.78308
 C2769 C 0.93185 0.71106 0.77549
 C2770 C 0.93149 0.72665 0.77916
 C2771 C 0.92144 0.73160 0.79035
 C2772 C 0.91216 0.72118 0.79798
 C2773 C 0.94093 0.73811 0.77122
 C2774 C 0.95465 0.73458 0.76390
 H2775 H 0.90003 0.68378 0.79630
 H2776 H 0.92290 0.68870 0.78001
 H2777 H 0.93904 0.70688 0.76658
 H2778 H 0.92075 0.74358 0.79320
 H2779 H 0.90433 0.72550 0.80633
 H2780 H 0.93737 0.74994 0.77179
 H2781 H 0.90059 0.70641 0.82271
 H2782 H 0.95915 0.72311 0.76443
 C2783 C 0.89436 0.18528 0.30306
 C2784 C 0.90320 0.19811 0.30654
 C2785 C 0.91441 0.20482 0.29592
 C2786 C 0.92702 0.21325 0.30129
 C2787 C 0.93764 0.21986 0.29146
 C2788 C 0.93573 0.21824 0.27601
 C2789 C 0.92298 0.21002 0.27069
 C2790 C 0.91244 0.20339 0.28048
 C2791 C 0.94608 0.22567 0.26507
 C2792 C 0.96081 0.23135 0.26823
 H2793 H 0.90228 0.20309 0.31750
 H2794 H 0.92866 0.21473 0.31312
 H2795 H 0.94704 0.22649 0.29602
 H2796 H 0.92106 0.20884 0.25886
 H2797 H 0.90256 0.19749 0.27587
 H2798 H 0.94191 0.22657 0.25375
 H2799 H 0.89621 0.17945 0.29263
 H2800 H 0.96590 0.22938 0.27901
 C2801 C 0.30909 0.30560 0.60630
 C2802 C 0.29950 0.31168 0.59539
 C2803 C 0.29108 0.30185 0.58477
 C2804 C 0.28708 0.30759 0.57075
 C2805 C 0.27929 0.29840 0.56047
 C2806 C 0.27519 0.28331 0.56416
 C2807 C 0.27899 0.27772 0.57828
 C2808 C 0.28674 0.28687 0.58850
 C2809 C 0.26717 0.27288 0.55379
 C2810 C 0.25989 0.27735 0.54066
 H2811 H 0.29844 0.32393 0.59432
 H2812 H 0.29022 0.31913 0.56766
 H2813 H 0.27679 0.30313 0.54966
 H2814 H 0.27585 0.26621 0.58147
 H2815 H 0.28909 0.28222 0.59939
 H2816 H 0.26669 0.26093 0.55684
 H2817 H 0.31121 0.29345 0.60660
 H2818 H 0.26019 0.28910 0.53709
 C2819 C 0.30102 0.81561 0.09983
 C2820 C 0.30533 0.80262 0.09191
 C2821 C 0.29507 0.79493 0.08107
 C2822 C 0.30157 0.78513 0.07047
 C2823 C 0.29219 0.77709 0.06053
 C2824 C 0.27604 0.77864 0.06107
 C2825 C 0.26954 0.78835 0.07174
 C2826 C 0.27891 0.79642 0.08162
 C2827 C 0.26557 0.76967 0.05143
 C2828 C 0.27006 0.76288 0.03809
 H2829 H 0.31673 0.79791 0.09360
 H2830 H 0.31397 0.78358 0.06998
 H2831 H 0.29764 0.76936 0.05280
 H2832 H 0.25713 0.78955 0.07255
 H2833 H 0.27339 0.80342 0.08993
 H2834 H 0.25363 0.76857 0.05486
 H2835 H 0.29021 0.82122 0.09741
 H2836 H 0.28148 0.76498 0.03370
 C2837 C 0.80171 0.32351 0.10208
 C2838 C 0.80408 0.31011 0.09409
 C2839 C 0.79312 0.30437 0.08281
 C2840 C 0.79837 0.29386 0.07223
 C2841 C 0.78823 0.28768 0.06177
 C2842 C 0.77257 0.29189 0.06171
 C2843 C 0.76728 0.30227 0.07238
 C2844 C 0.77742 0.30847 0.08283
 C2845 C 0.76126 0.28490 0.05143
 C2846 C 0.76541 0.27773 0.03821
 H2847 H 0.81450 0.30361 0.09600
 H2848 H 0.81034 0.29031 0.07215
 H2849 H 0.79267 0.27929 0.05410
 H2850 H 0.75521 0.30545 0.07276
 H2851 H 0.77278 0.31609 0.09113
 H2852 H 0.74916 0.28545 0.05439
 H2853 H 0.79197 0.33075 0.09956
 H2854 H 0.77720 0.27849 0.03434
 C2855 C 0.80065 0.82513 0.59863
 C2856 C 0.80431 0.81147 0.59150
 C2857 C 0.79386 0.80366 0.58091
 C2858 C 0.79989 0.79223 0.57169
 C2859 C 0.79025 0.78394 0.56218
 C2860 C 0.77431 0.78693 0.56173
 C2861 C 0.76829 0.79834 0.57096
 C2862 C 0.77791 0.80662 0.58045
 C2863 C 0.76345 0.77797 0.55248
 C2864 C 0.76784 0.76869 0.54063
 H2865 H 0.81526 0.80609 0.59386
 H2866 H 0.81209 0.78955 0.57199
 H2867 H 0.79533 0.77497 0.55558
 H2868 H 0.75603 0.80073 0.57099
 H2869 H 0.77266 0.81495 0.58769
 H2870 H 0.75124 0.77902 0.55490
 H2871 H 0.79030 0.83128 0.59569
 H2872 H 0.77974 0.76835 0.53708
 C2873 C 0.30485 0.69079 0.39338
 C2874 C 0.29620 0.68340 0.40429
 C2875 C 0.28749 0.69220 0.41554
 C2876 C 0.28514 0.68619 0.42982
 C2877 C 0.27743 0.69473 0.44069
 C2878 C 0.27181 0.70940 0.43734
 C2879 C 0.27384 0.71515 0.42294
 C2880 C 0.28146 0.70665 0.41216
 C2881 C 0.26381 0.71927 0.44822
 C2882 C 0.25828 0.71474 0.46212
 H2883 H 0.29632 0.67107 0.40497
 H2884 H 0.28957 0.67502 0.43265
 H2885 H 0.27615 0.68989 0.45165
 H2886 H 0.26944 0.72630 0.41997
 H2887 H 0.28247 0.71143 0.40112
 H2888 H 0.26165 0.73094 0.44481
 H2889 H 0.30589 0.70309 0.39367
 H2890 H 0.26054 0.70342 0.46631
 C2891 C 0.31838 0.19147 0.90021
 C2892 C 0.30454 0.18797 0.90734
 C2893 C 0.29744 0.19812 0.91856
 C2894 C 0.28676 0.19204 0.92868
 C2895 C 0.27936 0.20147 0.93899
 C2896 C 0.28246 0.21723 0.93929
 C2897 C 0.29303 0.22330 0.92908
 C2898 C 0.30045 0.21390 0.91884
 C2899 C 0.27428 0.22785 0.94934
 C2900 C 0.26649 0.22338 0.96220
 H2901 H 0.29865 0.17742 0.90466
 H2902 H 0.28405 0.17998 0.92854
 H2903 H 0.27094 0.19640 0.94636
 H2904 H 0.29543 0.23543 0.92891
 H2905 H 0.30815 0.21915 0.91088
 H2906 H 0.27462 0.23988 0.94661
 H2907 H 0.32498 0.20136 0.90361
 H2908 H 0.26719 0.21170 0.96598
 C2909 C 0.81176 0.68534 0.89948
 C2910 C 0.79731 0.68117 0.90493
 C2911 C 0.78864 0.69135 0.91500
 C2912 C 0.77864 0.68517 0.92568
 C2913 C 0.77037 0.69475 0.93523
 C2914 C 0.77184 0.71070 0.93406
 C2915 C 0.78153 0.71682 0.92311
 C2916 C 0.78986 0.70728 0.91371
 C2917 C 0.76297 0.72136 0.94345
 C2918 C 0.75700 0.71769 0.95738
 H2919 H 0.79232 0.67028 0.90187
 H2920 H 0.77731 0.67292 0.92669
 H2921 H 0.76263 0.68965 0.94324
 H2922 H 0.78264 0.72906 0.92181
 H2923 H 0.79702 0.71245 0.90523
 H2924 H 0.76168 0.73297 0.93949
 H2925 H 0.81727 0.69556 0.90369
 H2926 H 0.75940 0.70667 0.96225
 C2927 C 0.80919 0.19478 0.39045
 C2928 C 0.81536 0.20652 0.39907
 C2929 C 0.80574 0.21462 0.41017
 C2930 C 0.81258 0.22102 0.42286
 C2931 C 0.80350 0.22828 0.43364
 C2932 C 0.78738 0.22935 0.43180
 C2933 C 0.78069 0.22328 0.41890
 C2934 C 0.78972 0.21612 0.40819
 C2935 C 0.77694 0.23683 0.44262
 C2936 C 0.78151 0.24425 0.45563
 H2937 H 0.82744 0.20948 0.39800
 H2938 H 0.82493 0.22020 0.42454
 H2939 H 0.80920 0.23292 0.44331
 H2940 H 0.76837 0.22414 0.41703
 H2941 H 0.78407 0.21195 0.39828
 H2942 H 0.76472 0.23663 0.44006
 H2943 H 0.79748 0.19100 0.39250
 H2944 H 0.79342 0.24406 0.45916
 C2945 C 0.69389 0.32277 0.39604
 C2946 C 0.69345 0.30796 0.40163
 C2947 C 0.70489 0.30254 0.41266
 C2948 C 0.70079 0.29110 0.42282
 C2949 C 0.71156 0.28568 0.43315
 C2950 C 0.72671 0.29151 0.43336
 C2951 C 0.73085 0.30275 0.42302
 C2952 C 0.72008 0.30825 0.41282
 C2953 C 0.73878 0.28543 0.44336
 C2954 C 0.73570 0.27795 0.45672
 H2955 H 0.68435 0.30027 0.39813
 H2956 H 0.68923 0.28636 0.42276
 H2957 H 0.70808 0.27666 0.44064
 H2958 H 0.74251 0.30722 0.42277
 H2959 H 0.72382 0.31669 0.40482
 H2960 H 0.75072 0.28711 0.44016
 H2961 H 0.70208 0.33084 0.40060
 H2962 H 0.72401 0.27756 0.46092
 C2963 C 0.68932 0.81210 0.89522
 C2964 C 0.68431 0.79844 0.90157
 C2965 C 0.69375 0.79003 0.91259
 C2966 C 0.68654 0.78037 0.92292
 C2967 C 0.69532 0.77203 0.93316
 C2968 C 0.71154 0.77308 0.93309
 C2969 C 0.71870 0.78256 0.92260
 C2970 C 0.70996 0.79095 0.91249
 C2971 C 0.72148 0.76397 0.94309
 C2972 C 0.71666 0.75744 0.95646
 H2973 H 0.67313 0.79385 0.89854
 H2974 H 0.67408 0.77928 0.92307
 H2975 H 0.68940 0.76452 0.94081
 H2976 H 0.73117 0.78340 0.92215
 H2977 H 0.71598 0.79782 0.90436
 H2978 H 0.73353 0.76284 0.94005
 H2979 H 0.69978 0.81744 0.89925
 H2980 H 0.70511 0.75945 0.96053
 C2981 C 0.17896 0.30169 0.90106
 C2982 C 0.19281 0.30459 0.90844
 C2983 C 0.19967 0.29383 0.91924
 C2984 C 0.21053 0.29928 0.92951
 C2985 C 0.21776 0.28931 0.93943
 C2986 C 0.21428 0.27363 0.93920
 C2987 C 0.20355 0.26817 0.92882
 C2988 C 0.19629 0.27813 0.91895
 C2989 C 0.22219 0.26253 0.94895
 C2990 C 0.22963 0.26649 0.96214
 H2991 H 0.19892 0.31513 0.90626
 H2992 H 0.21353 0.31128 0.92978
 H2993 H 0.22633 0.29391 0.94692
 H2994 H 0.20087 0.25611 0.92825
 H2995 H 0.18843 0.27336 0.91085
 H2996 H 0.22178 0.25060 0.94581
 H2997 H 0.17213 0.29178 0.90394
 H2998 H 0.22892 0.27805 0.96624
 C2999 C 0.18787 0.80697 0.40080
 C3000 C 0.18313 0.79334 0.40736
 C3001 C 0.19299 0.78509 0.41811
 C3002 C 0.18617 0.77577 0.42898
 C3003 C 0.19535 0.76771 0.43909
 C3004 C 0.21155 0.76872 0.43837
 C3005 C 0.21831 0.77779 0.42732
 C3006 C 0.20918 0.78591 0.41732
 C3007 C 0.22185 0.75994 0.44829
 C3008 C 0.21753 0.75398 0.46206
 H3009 H 0.17183 0.78875 0.40479
 H3010 H 0.17373 0.77476 0.42964
 H3011 H 0.18973 0.76047 0.44718
 H3012 H 0.23076 0.77856 0.42635
 H3013 H 0.21486 0.79251 0.40877
 H3014 H 0.23374 0.75856 0.44481
 H3015 H 0.19851 0.81231 0.40441
 H3016 H 0.20620 0.75634 0.46653
 C3017 C 0.69309 0.68198 0.60578
 C3018 C 0.68897 0.69565 0.59891
 C3019 C 0.69880 0.70314 0.58755
 C3020 C 0.69213 0.71348 0.57753
 C3021 C 0.70121 0.72098 0.56692
 C3022 C 0.71721 0.71831 0.56621
 C3023 C 0.72387 0.70814 0.57637
 C3024 C 0.71482 0.70065 0.58692
 C3025 C 0.72754 0.72636 0.55567
 C3026 C 0.72263 0.73422 0.54303
 H3027 H 0.67811 0.70097 0.60178
 H3028 H 0.67986 0.71579 0.57794
 H3029 H 0.69568 0.72905 0.55958
 H3030 H 0.73619 0.70607 0.57624
 H3031 H 0.72054 0.69325 0.59478
 H3032 H 0.73985 0.72571 0.55777
 H3033 H 0.70332 0.67598 0.60219
 H3034 H 0.71060 0.73405 0.53989
 C3035 C 0.69687 0.19192 0.10555
 C3036 C 0.69039 0.20301 0.09639
 C3037 C 0.69983 0.21095 0.08505
 C3038 C 0.69299 0.21611 0.07184
 C3039 C 0.70193 0.22329 0.06089
 C3040 C 0.71788 0.22554 0.06308
 C3041 C 0.72455 0.22067 0.07646
 C3042 C 0.71566 0.21355 0.08733
 C3043 C 0.72808 0.23327 0.05220
 C3044 C 0.72346 0.23935 0.03856
 H3045 H 0.67818 0.20549 0.09715
 H3046 H 0.68077 0.21438 0.06992
 H3047 H 0.69625 0.22700 0.05085
 H3048 H 0.73673 0.22248 0.07859
 H3049 H 0.72123 0.21029 0.09760
 H3050 H 0.74011 0.23452 0.05528
 H3051 H 0.70871 0.18847 0.10375
 H3052 H 0.71189 0.23757 0.03446
 C3053 C 0.18331 0.69196 0.10588
 C3054 C 0.19635 0.68779 0.09775
 C3055 C 0.20292 0.69749 0.08581
 C3056 C 0.21232 0.69083 0.07490
 C3057 C 0.21917 0.69980 0.06383
 C3058 C 0.21680 0.71567 0.06352
 C3059 C 0.20747 0.72230 0.07448
 C3060 C 0.20062 0.71336 0.08549
 C3061 C 0.22455 0.72587 0.05271
 C3062 C 0.23168 0.72107 0.03961
 H3063 H 0.20182 0.67694 0.10002
 H3064 H 0.21447 0.67866 0.07502
 H3065 H 0.22660 0.69428 0.05584
 H3066 H 0.20565 0.73452 0.07465
 H3067 H 0.19393 0.71904 0.09397
 H3068 H 0.22459 0.73798 0.05517
 H3069 H 0.17701 0.70215 0.10292
 H3070 H 0.23071 0.70933 0.03609
 C3071 C 0.19944 0.17678 0.60047
 C3072 C 0.19376 0.18894 0.59210
 C3073 C 0.20309 0.19765 0.58124
 C3074 C 0.19547 0.20705 0.57098
 C3075 C 0.20382 0.21625 0.56118
 C3076 C 0.22005 0.21626 0.56147
 C3077 C 0.22768 0.20686 0.57172
 C3078 C 0.21933 0.19764 0.58150
 C3079 C 0.22940 0.22649 0.55197
 C3080 C 0.22392 0.23353 0.53911
 H3081 H 0.18187 0.19237 0.59360
 H3082 H 0.18297 0.20744 0.57071
 H3083 H 0.19748 0.22364 0.55377
 H3084 H 0.24017 0.20682 0.57231
 H3085 H 0.22568 0.19095 0.58951
 H3086 H 0.24135 0.22835 0.55508
 H3087 H 0.21084 0.17229 0.59836
 H3088 H 0.21253 0.23087 0.53495
   
