data_POSCAR
  _audit_creation_date              2014-09-24
  _audit_creation_method            'ToBaCCo'
  _symmetry_space_group_name_H-M    'P1'
  _symmetry_Int_Tables_number       1
  _symmetry_cell_setting            triclinic
  loop_
  _symmetry_equiv_pos_as_xyz
 x,y,z
_cell_length_a 60.0578
_cell_length_b 59.4277
_cell_length_c 59.9336
_cell_angle_alpha 90.176500
_cell_angle_beta 90.589100
_cell_angle_gamma 89.628600
loop_
  _atom_site_label
  _atom_site_type_symbol
  _atom_site_fract_x
  _atom_site_fract_y
  _atom_site_fract_z
C1 C 0.18810 0.20736 0.22615
 N2 N 0.20161 0.18919 0.22935
 C3 C 0.21879 0.18491 0.21539
 N4 N 0.22239 0.19903 0.19807
 C5 C 0.20907 0.21725 0.19454
 N6 N 0.19191 0.22135 0.20867
 C7 C 0.69167 0.71548 0.72419
 N8 N 0.70608 0.69819 0.72807
 C9 C 0.72335 0.69419 0.71407
 N10 N 0.72624 0.70779 0.69613
 C11 C 0.71213 0.72535 0.69224
 N12 N 0.69489 0.72898 0.70631
 C13 C 0.31239 0.79676 0.72117
 N14 N 0.29750 0.81391 0.72356
 C15 C 0.27976 0.81603 0.70938
 N16 N 0.27714 0.80070 0.69267
 C17 C 0.29192 0.78354 0.69000
 N18 N 0.30947 0.78166 0.70435
 C19 C 0.81224 0.29234 0.21459
 N20 N 0.80936 0.27874 0.19652
 C21 C 0.79100 0.28067 0.18324
 N22 N 0.77542 0.29659 0.18799
 C23 C 0.77817 0.31062 0.20574
 N24 N 0.79655 0.30831 0.21900
 C25 C 0.81159 0.71124 0.27786
 N26 N 0.80795 0.72551 0.29518
 C27 C 0.79065 0.72234 0.30922
 N28 N 0.77688 0.70454 0.30582
 C29 C 0.78033 0.69006 0.28854
 N30 N 0.79770 0.69357 0.27463
 C31 C 0.31263 0.20960 -0.21683
 N32 N 0.30940 0.22253 -0.19835
 C33 C 0.29202 0.21864 -0.18457
 N34 N 0.27778 0.20158 -0.18938
 C35 C 0.28076 0.18837 -0.20767
 N36 N 0.29823 0.19256 -0.22125
 C37 C 0.69500 0.28401 -0.23310
 N38 N 0.69904 0.26852 -0.21693
 C39 C 0.71706 0.27028 -0.20320
 N40 N 0.73121 0.28779 -0.20584
 C41 C 0.72737 0.30362 -0.22181
 N42 N 0.70915 0.30158 -0.23532
 C43 C 0.18778 0.78724 0.27861
 N44 N 0.20374 0.80249 0.27361
 C45 C 0.22264 0.80407 0.28625
 N46 N 0.22544 0.78995 0.30389
 C47 C 0.20955 0.77481 0.30921
 N48 N 0.19073 0.77361 0.29656
 C49 C 0.45959 0.43755 0.46866
 N50 N 0.44205 0.45192 0.47079
 C51 C 0.43982 0.47007 0.45722
 N52 N 0.45522 0.47360 0.44120
 C53 C 0.47279 0.45932 0.43873
 N54 N 0.47496 0.44139 0.45264
 C55 C -0.03675 -0.06276 0.96904
 N56 N -0.02227 -0.05819 0.95245
 C57 C -0.02522 -0.03984 0.93927
 N58 N -0.04292 -0.02595 0.94285
 C59 C -0.05767 -0.03032 0.95935
 N60 N -0.05440 -0.04880 0.97232
 C61 C 1.03686 0.55093 0.97537
 N62 N 1.02207 0.54750 0.95839
 C63 C 1.02512 0.53057 0.94342
 N64 N 1.04319 0.51683 0.94559
 C65 C 1.05812 0.51995 0.96250
 N66 N 1.05485 0.53704 0.97723
 C67 C 0.53644 0.05629 0.47190
 N68 N 0.55414 0.04221 0.47499
 C69 C 0.55734 0.02422 0.46120
 N70 N 0.54251 0.02053 0.44427
 C71 C 0.52478 0.03447 0.44101
 N72 N 0.52190 0.05228 0.45489
 C73 C -0.04571 0.06916 0.53064
 N74 N -0.03202 0.06567 0.54847
 C75 C -0.03404 0.04699 0.56126
 N76 N -0.05008 0.03172 0.55618
 C77 C -0.06426 0.03514 0.53862
 N78 N -0.06183 0.05389 0.52591
 C79 C 0.45871 0.56301 0.02844
 N80 N 0.47310 0.55983 0.04579
 C81 C 0.47008 0.54281 0.06053
 N82 N 0.45240 0.52886 0.05776
 C83 C 0.43783 0.53183 0.04049
 N84 N 0.44113 0.54893 0.02591
 C85 C 0.53867 -0.05463 0.02706
 N86 N 0.55508 -0.03962 0.02274
 C87 C 0.55845 -0.02151 0.03628
 N88 N 0.54512 -0.01843 0.05425
 C89 C 0.52857 -0.03315 0.05871
 N90 N 0.52554 -0.05117 0.04510
 C91 C 1.04039 0.44358 0.52919
 N92 N 1.02607 0.44708 0.54636
 C93 C 1.02843 0.46521 0.56007
 N94 N 1.04539 0.47977 0.55668
 C95 C 1.06005 0.47631 0.53992
 N96 N 1.05736 0.45828 0.52623
 C97 C 0.40600 0.00766 0.21775
 H98 H 0.40383 0.02352 0.22639
 C99 C 0.42106 0.00597 0.20024
 H100 H 0.43009 0.02080 0.19524
 C101 C 0.39657 -0.03081 0.21382
 H102 H 0.38742 -0.04523 0.21952
 C103 C 0.41163 -0.03331 0.19637
 H104 H 0.41380 -0.04974 0.18881
 N105 N 0.39385 -0.01047 0.22392
 C106 C 0.34030 0.02313 0.25985
 H107 H 0.34149 0.01430 0.27558
 C108 C 0.32493 0.04065 0.25720
 H109 H 0.31464 0.04543 0.27117
 C110 C 0.35271 0.02771 0.22276
 H111 H 0.36324 0.02230 0.20924
 C112 C 0.33740 0.04518 0.21929
 H113 H 0.33638 0.05302 0.20303
 Zn114 Zn 0.37432 -0.00666 0.24821
 N115 N 0.35409 0.01731 0.24291
 C116 C 0.39209 0.01991 0.28365
 N117 N 0.39235 -0.00062 0.27357
 C118 C 0.40635 -0.01723 0.28069
 C119 C 0.42027 -0.01381 0.29917
 C120 C 0.40591 0.02415 0.30204
 C121 C 0.34486 -0.04067 0.23514
 C122 C 0.33136 -0.05952 0.23762
 C123 C 0.34237 -0.06112 0.27647
 C124 C 0.35587 -0.04241 0.27315
 N125 N 0.35705 -0.03275 0.25267
 H126 H 0.38147 0.03318 0.27723
 H127 H 0.40651 -0.03327 0.27211
 H128 H 0.43078 -0.02751 0.30492
 H129 H 0.40568 0.04072 0.30959
 H130 H 0.34575 -0.03237 0.21913
 H131 H 0.32228 -0.06586 0.22326
 H132 H 0.34133 -0.06820 0.29303
 H133 H 0.36499 -0.03535 0.28711
 C134 C 0.32335 0.05201 0.23671
 C135 C 0.42403 -0.01473 0.18925
 C136 C 0.32994 -0.07002 0.25854
 C137 C 0.42016 0.00712 0.31016
 C138 C 0.08783 -0.00520 0.71935
 H139 H 0.08699 -0.02053 0.72900
 C140 C 0.07235 -0.00125 0.70223
 H141 H 0.05950 -0.01357 0.69911
 C142 C 0.10496 0.02989 0.71277
 H143 H 0.11731 0.04227 0.71720
 C144 C 0.09011 0.03434 0.69524
 H145 H 0.09184 0.04984 0.68602
 N146 N 0.10375 0.01025 0.72426
 C147 C 0.15511 -0.02893 0.75866
 H148 H 0.15486 -0.02071 0.77479
 C149 C 0.16956 -0.04699 0.75499
 H150 H 0.17996 -0.05283 0.76866
 C151 C 0.14132 -0.03131 0.72156
 H152 H 0.13051 -0.02486 0.70851
 C153 C 0.15585 -0.04918 0.71701
 H154 H 0.15609 -0.05620 0.70034
 Zn155 Zn 0.12312 0.00365 0.74858
 N156 N 0.14119 -0.02165 0.74215
 C157 C 0.10419 -0.02307 0.78259
 N158 N 0.10501 -0.00212 0.77359
 C159 C 0.09221 0.01497 0.78163
 C160 C 0.07853 0.01155 0.80001
 C161 C 0.09062 -0.02729 0.80084
 C162 C 0.15630 0.03450 0.73782
 C163 C 0.17152 0.05183 0.74129
 C164 C 0.15989 0.05401 0.77968
 C165 C 0.14455 0.03693 0.77534
 N166 N 0.14283 0.02775 0.75458
 H167 H 0.11379 -0.03667 0.77545
 H168 H 0.09285 0.03137 0.77389
 H169 H 0.06898 0.02556 0.80652
 H170 H 0.09002 -0.04417 0.80755
 H171 H 0.15508 0.02647 0.72163
 H172 H 0.18144 0.05737 0.72740
 H173 H 0.16129 0.06061 0.79648
 H174 H 0.13442 0.03070 0.78872
 C175 C 0.17027 -0.05731 0.73386
 C176 C 0.07337 0.01875 0.68979
 C177 C 0.17357 0.06186 0.76249
 C178 C 0.07768 -0.00981 0.80995
 C179 C 0.59135 0.49136 0.21895
 H180 H 0.59187 0.47504 0.22689
 C181 C 0.57677 0.49522 0.20105
 H182 H 0.56641 0.48159 0.19510
 C183 C 0.60468 0.52872 0.21694
 H184 H 0.61526 0.54187 0.22346
 C185 C 0.59020 0.53338 0.19914
 H186 H 0.58987 0.55016 0.19217
 N187 N 0.60524 0.50786 0.22623
 C188 C 0.65687 0.46842 0.26014
 H189 H 0.65686 0.47661 0.27629
 C190 C 0.67093 0.45004 0.25637
 H191 H 0.68141 0.44398 0.26990
 C192 C 0.64286 0.46634 0.22311
 H193 H 0.63225 0.47304 0.21004
 C194 C 0.65681 0.44804 0.21854
 H195 H 0.65672 0.44087 0.20192
 Zn196 Zn 0.62466 0.50112 0.25046
 N197 N 0.64293 0.47594 0.24374
 C198 C 0.60593 0.47407 0.28445
 N199 N 0.60665 0.49503 0.27544
 C200 C 0.59371 0.51203 0.28343
 C201 C 0.57990 0.50850 0.30166
 C202 C 0.59220 0.46973 0.30257
 C203 C 0.65723 0.53225 0.23942
 C204 C 0.67232 0.54975 0.24259
 C205 C 0.66066 0.55255 0.28095
 C206 C 0.64563 0.53509 0.27698
 N207 N 0.64405 0.52549 0.25640
 H208 H 0.61570 0.46055 0.27738
 H209 H 0.59431 0.52845 0.27571
 H210 H 0.57021 0.52245 0.30809
 H211 H 0.59162 0.45283 0.30923
 H212 H 0.65590 0.52407 0.22331
 H213 H 0.68225 0.55517 0.22865
 H214 H 0.66193 0.55969 0.29755
 H215 H 0.63558 0.52898 0.29049
 C216 C 0.67104 0.43955 0.23533
 C217 C 0.57611 0.51646 0.19079
 C218 C 0.67425 0.56015 0.26361
 C219 C 0.57900 0.48709 0.31151
 C220 C 0.91060 0.50887 0.72184
 H221 H 0.91267 0.52257 0.73360
 C222 C 0.92550 0.50630 0.70427
 H223 H 0.93915 0.51801 0.70289
 C224 C 0.89085 0.47649 0.71018
 H225 H 0.87761 0.46463 0.71265
 C226 C 0.90512 0.47351 0.69215
 H227 H 0.90211 0.45972 0.68071
 N228 N 0.89353 0.49421 0.72435
 C229 C 0.83860 0.52770 0.75792
 H230 H 0.83562 0.51555 0.77094
 C231 C 0.82430 0.54614 0.75533
 H232 H 0.81016 0.54775 0.76628
 C233 C 0.86025 0.53963 0.72739
 H234 H 0.87422 0.53698 0.71648
 C235 C 0.84657 0.55852 0.72443
 H236 H 0.85054 0.57041 0.71144
 Zn237 Zn 0.87434 0.49911 0.74890
 N238 N 0.85616 0.52479 0.74407
 C239 C 0.89139 0.52306 0.78628
 N240 N 0.89252 0.50352 0.77449
 C241 C 0.90717 0.48694 0.78025
 C242 C 0.92106 0.48943 0.79891
 C243 C 0.90515 0.52637 0.80491
 C244 C 0.84088 0.46824 0.73658
 C245 C 0.82704 0.44962 0.73901
 C246 C 0.84173 0.44465 0.77633
 C247 C 0.85557 0.46307 0.77302
 N248 N 0.85527 0.47417 0.75321
 H249 H 0.87996 0.53622 0.78115
 H250 H 0.90788 0.47166 0.77042
 H251 H 0.93214 0.47574 0.80350
 H252 H 0.90422 0.54221 0.81382
 H253 H 0.84043 0.47777 0.72123
 H254 H 0.81646 0.44469 0.72513
 H255 H 0.84211 0.43632 0.79236
 H256 H 0.86639 0.46857 0.78642
 C257 C 0.82824 0.56200 0.73849
 C258 C 0.92277 0.48855 0.68893
 C259 C 0.82744 0.43739 0.75907
 C260 C 0.92019 0.50937 0.81156
 C261 C 0.21955 0.40378 0.01529
 H262 H 0.22739 0.40399 0.03163
 C263 C 0.20122 0.41770 0.01091
 H264 H 0.19484 0.42825 0.02416
 C265 C 0.21830 0.38939 -0.02159
 H266 H 0.22530 0.37872 -0.03437
 C267 C 0.20007 0.40320 -0.02678
 H268 H 0.19326 0.40291 -0.04357
 N269 N 0.22745 0.38971 -0.00074
 C270 C 0.26369 0.34049 0.03975
 H271 H 0.27990 0.34139 0.03210
 C272 C 0.26028 0.32589 0.05756
 H273 H 0.27414 0.31591 0.06378
 C274 C 0.22601 0.35247 0.04074
 H275 H 0.21254 0.36237 0.03373
 C276 C 0.22182 0.33796 0.05849
 H277 H 0.20509 0.33695 0.06495
 Zn278 Zn 0.25253 0.37162 0.00659
 N279 N 0.24673 0.35355 0.03183
 C280 C 0.28616 0.39342 0.03272
 N281 N 0.27651 0.39146 0.01217
 C282 C 0.28292 0.40464 -0.00508
 C283 C 0.30003 0.42017 -0.00221
 C284 C 0.30325 0.40891 0.03639
 C285 C 0.24284 0.33741 -0.02383
 C286 C 0.24644 0.32223 -0.04124
 C287 C 0.28407 0.33596 -0.04405
 C288 C 0.27966 0.35106 -0.02671
 N289 N 0.25920 0.35171 -0.01718
 H290 H 0.28036 0.38332 0.04641
 H291 H 0.27472 0.40298 -0.02115
 H292 H 0.30515 0.43011 -0.01634
 H293 H 0.31041 0.41050 0.05296
 H294 H 0.22683 0.33805 -0.01573
 H295 H 0.23290 0.31152 -0.04666
 H296 H 0.30055 0.33551 -0.05119
 H297 H 0.29269 0.36203 -0.02070
 C298 C 0.23906 0.32434 0.06710
 C299 C 0.19119 0.41753 -0.01039
 C300 C 0.26728 0.32135 -0.05167
 C301 C 0.31042 0.42256 0.01878
 C302 C 0.72753 0.08417 -0.00325
 H303 H 0.74304 0.07601 -0.00743
 C304 C 0.70875 0.07101 0.00028
 H305 H 0.71027 0.05286 -0.00064
 C306 C 0.70661 0.11750 0.00274
 H307 H 0.70567 0.13561 0.00322
 C308 C 0.68739 0.10496 0.00644
 H309 H 0.67188 0.11363 0.00986
 N310 N 0.72630 0.10700 -0.00164
 C311 C 0.75590 0.16316 -0.03320
 H312 H 0.76459 0.17017 -0.01894
 C313 C 0.75280 0.17619 -0.05232
 H314 H 0.75869 0.19337 -0.05232
 C315 C 0.73753 0.13235 -0.05035
 H316 H 0.73175 0.11518 -0.04942
 C317 C 0.73419 0.14475 -0.06988
 H318 H 0.72595 0.13688 -0.08401
 Zn319 Zn 0.75240 0.12434 -0.00647
 N320 N 0.74811 0.14175 -0.03249
 C321 C 0.78796 0.10456 -0.03049
 N322 N 0.77706 0.10460 -0.01070
 C323 C 0.78316 0.09029 0.00598
 C324 C 0.80100 0.07543 0.00323
 C325 C 0.80564 0.08966 -0.03411
 C326 C 0.74342 0.16140 0.02180
 C327 C 0.74707 0.17666 0.03921
 C328 C 0.78034 0.15596 0.04926
 C329 C 0.77626 0.14134 0.03143
 N330 N 0.75786 0.14404 0.01824
 H331 H 0.78279 0.11591 -0.04363
 H332 H 0.77408 0.09042 0.02148
 H333 H 0.80581 0.06465 0.01700
 H334 H 0.81358 0.08955 -0.05024
 H335 H 0.72942 0.16396 0.01063
 H336 H 0.73566 0.19067 0.04120
 H337 H 0.79482 0.15302 0.05977
 H338 H 0.78800 0.12799 0.02817
 C339 C 0.74180 0.16703 -0.07102
 C340 C 0.68835 0.08137 0.00534
 C341 C 0.76572 0.17402 0.05333
 C342 C 0.81247 0.07482 -0.01710
 C343 C 0.22177 0.59144 0.49289
 H344 H 0.23030 0.59105 0.47708
 C345 C 0.20374 0.57723 0.49642
 H346 H 0.19828 0.56626 0.48303
 C347 C 0.21838 0.60668 0.52926
 H348 H 0.22436 0.61788 0.54218
 C349 C 0.20044 0.59260 0.53361
 H350 H 0.19284 0.59318 0.54990
 N351 N 0.22832 0.60623 0.50897
 C352 C 0.25985 0.66090 0.47302
 H353 H 0.27489 0.66260 0.48296
 C354 C 0.25569 0.67563 0.45534
 H355 H 0.26754 0.68882 0.45207
 C356 C 0.22578 0.64218 0.46609
 H357 H 0.21394 0.62941 0.47050
 C358 C 0.22113 0.65628 0.44803
 H359 H 0.20599 0.65363 0.43845
 Zn360 Zn 0.25223 0.62567 0.50245
 N361 N 0.24506 0.64448 0.47795
 C362 C 0.28652 0.60798 0.47517
 N363 N 0.27710 0.60736 0.49570
 C364 C 0.28449 0.59279 0.51160
 C365 C 0.30236 0.57834 0.50731
 C366 C 0.30430 0.59367 0.47009
 C367 C 0.24207 0.65878 0.53401
 C368 C 0.24572 0.67344 0.55188
 C369 C 0.28361 0.65972 0.55444
 C370 C 0.27915 0.64513 0.53667
 N371 N 0.25856 0.64474 0.52702
 H372 H 0.28003 0.61929 0.46258
 H373 H 0.27649 0.59248 0.52769
 H374 H 0.30826 0.56722 0.52039
 H375 H 0.31128 0.59413 0.45352
 H376 H 0.22596 0.65840 0.52577
 H377 H 0.23213 0.68397 0.55754
 H378 H 0.30021 0.66001 0.56164
 H379 H 0.29226 0.63440 0.53041
 C380 C 0.23617 0.67333 0.44240
 C381 C 0.19265 0.57784 0.51695
 C382 C 0.26674 0.67407 0.56239
 C383 C 0.31249 0.57858 0.48627
 C384 C 0.71883 0.90760 0.51077
 H385 H 0.72664 0.90683 0.52710
 C386 C 0.70038 0.92160 0.50723
 H387 H 0.69389 0.93116 0.52115
 C388 C 0.71769 0.89550 0.47309
 H389 H 0.72477 0.88565 0.45972
 C390 C 0.69943 0.90955 0.46872
 H391 H 0.69272 0.91028 0.45191
 N392 N 0.72677 0.89451 0.49395
 C393 C 0.76325 0.84465 0.53360
 H394 H 0.77956 0.84575 0.52620
 C395 C 0.75991 0.83049 0.55181
 H396 H 0.77389 0.82107 0.55859
 C397 C 0.72533 0.85585 0.53377
 H398 H 0.71175 0.86528 0.52634
 C399 C 0.72121 0.84180 0.55185
 H400 H 0.70443 0.84071 0.55817
 Zn401 Zn 0.75176 0.87586 0.50031
 N402 N 0.74617 0.85731 0.52526
 C403 C 0.78548 0.89744 0.52652
 N404 N 0.77606 0.89532 0.50589
 C405 C 0.78293 0.90811 0.48854
 C406 C 0.80039 0.92325 0.49135
 C407 C 0.80281 0.91265 0.53017
 C408 C 0.74103 0.84310 0.46839
 C409 C 0.74439 0.82859 0.45034
 C410 C 0.78258 0.84094 0.44888
 C411 C 0.77843 0.85536 0.46683
 N412 N 0.75781 0.85646 0.47594
 H413 H 0.77927 0.88772 0.54030
 H414 H 0.77488 0.90639 0.47240
 H415 H 0.80591 0.93274 0.47708
 H416 H 0.80970 0.91442 0.54684
 H417 H 0.72490 0.84400 0.47621
 H418 H 0.73057 0.81868 0.44415
 H419 H 0.79917 0.84020 0.44203
 H420 H 0.79180 0.86544 0.47360
 C421 C 0.73866 0.82900 0.56128
 C422 C 0.69032 0.92269 0.48597
 C423 C 0.76537 0.82747 0.44021
 C424 C 0.81057 0.92581 0.51243
 C425 C 0.00662 0.22473 0.40771
 H426 H 0.02284 0.23251 0.40713
 C427 C 0.00260 0.20773 0.42313
 H428 H 0.01601 0.20226 0.43407
 C429 C -0.03041 0.22249 0.39395
 H430 H -0.04340 0.22869 0.38293
 C431 C -0.03521 0.20551 0.40922
 H432 H -0.05191 0.19878 0.40971
 N433 N -0.00970 0.23158 0.39335
 C434 C 0.03021 0.26461 0.34276
 H435 H 0.02254 0.28113 0.34291
 C436 C 0.04838 0.26034 0.32900
 H437 H 0.05481 0.27386 0.31892
 C438 C 0.03120 0.22715 0.35614
 H439 H 0.02417 0.21413 0.36639
 C440 C 0.04927 0.22207 0.34246
 H441 H 0.05592 0.20510 0.34241
 Zn442 Zn -0.00271 0.25556 0.37397
 N443 N 0.02223 0.24822 0.35622
 C444 C 0.02469 0.28855 0.39453
 N445 N 0.00355 0.28072 0.39237
 C446 C -0.01335 0.28963 0.40453
 C447 C -0.00947 0.30763 0.41906
 C448 C 0.02939 0.30632 0.40909
 C449 C -0.03376 0.24440 0.34100
 C450 C -0.05078 0.24773 0.32533
 C451 C -0.05223 0.28693 0.33605
 C452 C -0.03530 0.28278 0.35171
 N453 N -0.02659 0.26172 0.35402
 H454 H 0.03807 0.28068 0.38539
 H455 H -0.02993 0.28275 0.40286
 H456 H -0.02333 0.31481 0.42809
 H457 H 0.04643 0.31190 0.41088
 H458 H -0.02624 0.22791 0.34289
 H459 H -0.05655 0.23353 0.31557
 H460 H -0.05861 0.30390 0.33417
 H461 H -0.02882 0.29651 0.36162
 C462 C 0.05821 0.23881 0.32871
 C463 C -0.01858 0.19791 0.42411
 C464 C -0.06023 0.26926 0.32259
 C465 C 0.01218 0.31621 0.42156
 C466 C 0.00062 0.72083 0.08349
 H467 H -0.00568 0.73618 0.07611
 C468 C 0.00426 0.70215 0.06983
 H469 H 0.00126 0.70362 0.05205
 C470 C 0.01188 0.70018 0.11541
 H471 H 0.01445 0.69922 0.13319
 C472 C 0.01575 0.68106 0.10235
 H473 H 0.02130 0.66566 0.11032
 N474 N 0.00461 0.71969 0.10586
 C475 C -0.03179 0.75822 0.15585
 H476 H -0.02236 0.77368 0.15590
 C477 C -0.04944 0.75562 0.17053
 H478 H -0.05373 0.76940 0.18155
 C479 C -0.03762 0.72170 0.14103
 H480 H -0.03284 0.70849 0.12958
 C481 C -0.05525 0.71825 0.15565
 H482 H -0.06365 0.70220 0.15545
 Zn483 Zn -0.00113 0.74594 0.12342
 N484 N -0.02624 0.74140 0.14151
 C485 C -0.02664 0.78078 0.10268
 N486 N -0.00636 0.77049 0.10377
 C487 C 0.01044 0.77677 0.09012
 C488 C 0.00739 0.79435 0.07503
 C489 C -0.03051 0.79832 0.08764
 C490 C 0.02765 0.73766 0.15978
 C491 C 0.04483 0.74175 0.17507
 C492 C 0.05194 0.77689 0.15648
 C493 C 0.03473 0.77203 0.14141
 N494 N 0.02320 0.75245 0.14302
 H495 H -0.04000 0.77516 0.11319
 H496 H 0.02628 0.76802 0.09099
 H497 H 0.02120 0.79934 0.06474
 H498 H -0.04690 0.80596 0.08675
 H499 H 0.01750 0.72289 0.16169
 H500 H 0.04829 0.72944 0.18794
 H501 H 0.06062 0.79273 0.15506
 H502 H 0.03037 0.78423 0.12881
 C503 C -0.06131 0.73531 0.17078
 C504 C 0.01195 0.68191 0.07921
 C505 C 0.05729 0.76160 0.17356
 C506 C -0.01333 0.80538 0.07357
 C507 C 0.48392 0.21543 0.59273
 H508 H 0.46835 0.22469 0.59225
 C509 C 0.48725 0.19729 0.57829
 H510 H 0.47390 0.19245 0.56702
 C511 C 0.52008 0.21059 0.60823
 H512 H 0.53290 0.21599 0.61981
 C513 C 0.52422 0.19250 0.59389
 H514 H 0.54039 0.18435 0.59445
 N515 N 0.50025 0.22174 0.60727
 C516 C 0.46564 0.25979 0.65911
 H517 H 0.47447 0.27558 0.65866
 C518 C 0.44859 0.25684 0.67446
 H519 H 0.44400 0.27080 0.68513
 C520 C 0.46121 0.22254 0.64578
 H521 H 0.46646 0.20904 0.63490
 C522 C 0.44434 0.21871 0.66117
 H523 H 0.43694 0.20218 0.66189
 Zn524 Zn 0.49530 0.24769 0.62491
 N525 N 0.47137 0.24289 0.64488
 C526 C 0.47185 0.28660 0.60854
 N527 N 0.48888 0.27184 0.60503
 C528 C 0.50172 0.27337 0.58654
 C529 C 0.49805 0.29051 0.57102
 C530 C 0.46779 0.30420 0.59362
 C531 C 0.52141 0.24893 0.66406
 C532 C 0.54027 0.25288 0.67721
 C533 C 0.55883 0.26718 0.64469
 C534 C 0.53956 0.26298 0.63213
 N535 N 0.52131 0.25406 0.64196
 H536 H 0.46133 0.28493 0.62288
 H537 H 0.51469 0.26103 0.58365
 H538 H 0.50828 0.29107 0.55628
 H539 H 0.45457 0.31609 0.59719
 H540 H 0.50694 0.24147 0.67153
 H541 H 0.53986 0.24889 0.69481
 H542 H 0.57330 0.27397 0.63651
 H543 H 0.53929 0.26667 0.61451
 C544 C 0.43768 0.23603 0.67574
 C545 C 0.50775 0.18571 0.57849
 C546 C 0.55935 0.26204 0.66754
 C547 C 0.48101 0.30639 0.57454
 C548 C 0.51182 0.71962 0.90703
 H549 H 0.52811 0.72725 0.90664
 C550 C 0.50800 0.70139 0.92109
 H551 H 0.52164 0.69485 0.93114
 C552 C 0.47441 0.71890 0.89415
 H553 H 0.46121 0.72612 0.88405
 C554 C 0.46980 0.70079 0.90813
 H555 H 0.45302 0.69427 0.90853
 N556 N 0.49523 0.72776 0.89367
 C557 C 0.53333 0.76444 0.84418
 H558 H 0.52518 0.78068 0.84539
 C559 C 0.55106 0.76143 0.82960
 H560 H 0.55668 0.77561 0.81993
 C561 C 0.53586 0.72638 0.85561
 H562 H 0.52955 0.71263 0.86541
 C563 C 0.55357 0.72256 0.84110
 H564 H 0.56071 0.70583 0.83993
 Zn565 Zn 0.50169 0.75302 0.87570
 N566 N 0.52628 0.74713 0.85702
 C567 C 0.52860 0.78636 0.89692
 N568 N 0.50794 0.77719 0.89535
 C569 C 0.49107 0.78451 0.90851
 C570 C 0.49437 0.80228 0.92339
 C571 C 0.53273 0.80401 0.91183
 C572 C 0.46949 0.74390 0.84287
 C573 C 0.45165 0.74824 0.82837
 C574 C 0.45068 0.78656 0.84190
 C575 C 0.46842 0.78141 0.85629
 N576 N 0.47724 0.76028 0.85675
 H577 H 0.54200 0.77980 0.88687
 H578 H 0.47490 0.77667 0.90717
 H579 H 0.48045 0.80825 0.93314
 H580 H 0.54938 0.81079 0.91306
 H581 H 0.47708 0.72735 0.84326
 H582 H 0.44537 0.73473 0.81797
 H583 H 0.44413 0.80357 0.84160
 H584 H 0.47533 0.79446 0.86681
 C585 C 0.56142 0.74024 0.82785
 C586 C 0.48673 0.69171 0.92182
 C587 C 0.44194 0.76982 0.82775
 C588 C 0.51544 0.81233 0.92524
 C589 C 0.13391 0.21958 0.27152
 C590 C 0.13457 0.23083 0.25074
 C591 C 0.15238 0.22704 0.23613
 C592 C 0.16948 0.21176 0.24167
 C593 C 0.16858 0.20040 0.26213
 C594 C 0.15114 0.20427 0.27688
 C595 C 0.11473 0.22427 0.28674
 C596 C 0.11303 0.21471 0.30815
 C597 C 0.09479 0.21949 0.32164
 C598 C 0.07763 0.23385 0.31420
 C599 C 0.07926 0.24358 0.29293
 C600 C 0.09769 0.23908 0.27932
 C601 C 0.11731 0.24557 0.24454
 C602 C 0.09917 0.24944 0.25842
 H603 H 0.11772 0.25412 0.22861
 H604 H 0.08618 0.26087 0.25276
 H605 H 0.15273 0.23576 0.22027
 H606 H 0.18150 0.18850 0.26689
 H607 H 0.09430 0.21214 0.33813
 H608 H 0.06607 0.25453 0.28682
 H609 H 0.15142 0.19494 0.29228
 H610 H 0.12569 0.20366 0.31492
 C611 C 0.63519 0.72718 0.76678
 C612 C 0.65245 0.71228 0.77354
 C613 C 0.67077 0.70841 0.75959
 C614 C 0.67243 0.71951 0.73903
 C615 C 0.65548 0.73459 0.73261
 C616 C 0.63712 0.73836 0.74621
 C617 C 0.61576 0.73061 0.78198
 C618 C 0.59732 0.74429 0.77632
 C619 C 0.57976 0.74718 0.79113
 C620 C 0.58006 0.73662 0.81204
 C621 C 0.59822 0.72267 0.81770
 C622 C 0.61591 0.71948 0.80282
 C623 C 0.65142 0.70149 0.79426
 C624 C 0.63366 0.70518 0.80866
 H625 H 0.66466 0.69015 0.79951
 H626 H 0.63375 0.69657 0.82458
 H627 H 0.68385 0.69689 0.76489
 H628 H 0.65626 0.74346 0.71688
 H629 H 0.56575 0.75758 0.78604
 H630 H 0.59876 0.71449 0.83384
 H631 H 0.62473 0.75019 0.74030
 H632 H 0.59598 0.75280 0.76050
 C633 C 0.36723 0.78830 0.76761
 C634 C 0.36699 0.77665 0.74697
 C635 C 0.34913 0.77956 0.73195
 C636 C 0.33145 0.79425 0.73691
 C637 C 0.33202 0.80626 0.75710
 C638 C 0.34960 0.80332 0.77228
 C639 C 0.38631 0.78412 0.78348
 C640 C 0.38757 0.79390 0.80491
 C641 C 0.40557 0.78926 0.81915
 C642 C 0.42289 0.77486 0.81243
 C643 C 0.42178 0.76509 0.79108
 C644 C 0.40361 0.76939 0.77674
 C645 C 0.38459 0.76219 0.74139
 C646 C 0.40260 0.75882 0.75585
 H647 H 0.38449 0.75338 0.72552
 H648 H 0.41583 0.74750 0.75070
 H649 H 0.34909 0.77038 0.71629
 H650 H 0.31866 0.81778 0.76136
 H651 H 0.40571 0.79671 0.83565
 H652 H 0.43513 0.75416 0.78550
 H653 H 0.34905 0.81297 0.78753
 H654 H 0.37472 0.80492 0.81114
 C655 C -0.13182 0.28280 0.25764
 C656 C -0.14857 0.29869 0.26308
 C657 C -0.16675 0.30220 0.24852
 C658 C -0.16902 0.28959 0.22870
 C659 C -0.15235 0.27371 0.22354
 C660 C -0.13404 0.27042 0.23769
 C661 C -0.11275 0.27946 0.27369
 C662 C -0.09477 0.26480 0.26938
 C663 C -0.07774 0.26179 0.28511
 C664 C -0.07813 0.27319 0.30565
 C665 C -0.09573 0.28825 0.30988
 C666 C -0.11286 0.29159 0.29406
 C667 C -0.14735 0.31062 0.28325
 C668 C -0.13003 0.30697 0.29851
 H669 H -0.16021 0.32275 0.28749
 H670 H -0.13005 0.31639 0.31402
 H671 H -0.17940 0.31445 0.25303
 H672 H -0.15337 0.26361 0.20849
 H673 H -0.06408 0.25057 0.28104
 H674 H -0.09636 0.29713 0.32569
 H675 H -0.12201 0.25784 0.23280
 H676 H -0.09343 0.25557 0.25393
 C677 C -0.13308 0.72241 0.23401
 C678 C -0.15104 0.70864 0.22711
 C679 C -0.16887 0.70478 0.24158
 C680 C -0.16945 0.71497 0.26274
 C681 C -0.15187 0.72902 0.26930
 C682 C -0.13390 0.73265 0.25522
 C683 C -0.11419 0.72580 0.21822
 C684 C -0.09495 0.73802 0.22401
 C685 C -0.07790 0.74090 0.20867
 C686 C -0.07954 0.73186 0.18705
 C687 C -0.09855 0.71938 0.18123
 C688 C -0.11567 0.71608 0.19667
 C689 C -0.15127 0.69909 0.20571
 C690 C -0.13411 0.70297 0.19072
 H691 H -0.16508 0.68866 0.20035
 H692 H -0.13521 0.69540 0.17428
 H693 H -0.18252 0.69415 0.23617
 H694 H -0.15189 0.73716 0.28550
 H695 H -0.06321 0.75003 0.21393
 H696 H -0.10016 0.71236 0.16459
 H697 H -0.12097 0.74369 0.26123
 H698 H -0.09257 0.74527 0.24036
 C699 C 0.36654 0.22224 0.73963
 C700 C 0.35003 0.20635 0.73380
 C701 C 0.33251 0.20197 0.74846
 C702 C 0.33050 0.21382 0.76874
 C703 C 0.34660 0.23013 0.77407
 C704 C 0.36440 0.23418 0.75984
 C705 C 0.38530 0.22596 0.72374
 C706 C 0.40355 0.23992 0.72875
 C707 C 0.42051 0.24296 0.71330
 C708 C 0.41970 0.23239 0.69231
 C709 C 0.40167 0.21821 0.68732
 C710 C 0.38479 0.21462 0.70294
 C711 C 0.35083 0.19521 0.71319
 C712 C 0.36761 0.19956 0.69793
 H713 H 0.33807 0.18317 0.70862
 H714 H 0.36729 0.19072 0.68208
 H715 H 0.32016 0.18956 0.74370
 H716 H 0.34564 0.23976 0.78941
 H717 H 0.43447 0.25344 0.71802
 H718 H 0.40061 0.21000 0.67118
 H719 H 0.37613 0.24694 0.76486
 H720 H 0.40523 0.24838 0.74461
 C721 C 0.63804 0.27691 0.72295
 C722 C 0.64316 0.26020 0.73902
 C723 C 0.66165 0.26270 0.75328
 C724 C 0.67539 0.28165 0.75185
 C725 C 0.67033 0.29817 0.73587
 C726 C 0.65192 0.29588 0.72162
 C727 C 0.61803 0.27358 0.70812
 C728 C 0.61133 0.28922 0.69168
 C729 C 0.59242 0.28539 0.67846
 C730 C 0.57971 0.26590 0.68125
 C731 C 0.58638 0.25015 0.69742
 C732 C 0.60527 0.25384 0.71084
 C733 C 0.62986 0.24104 0.74079
 C734 C 0.61135 0.23791 0.72698
 H735 H 0.63382 0.22823 0.75307
 H736 H 0.60158 0.22280 0.72905
 H737 H 0.66535 0.24973 0.76548
 H738 H 0.68060 0.31299 0.73434
 H739 H 0.58752 0.29793 0.66627
 H740 H 0.57691 0.23483 0.69947
 H741 H 0.64891 0.30915 0.70971
 H742 H 0.62032 0.30457 0.68884
 C743 C 0.12984 0.77817 0.23654
 C744 C 0.14878 0.78943 0.22836
 C745 C 0.16733 0.79303 0.24237
 C746 C 0.16763 0.78495 0.26436
 C747 C 0.14888 0.77374 0.27238
 C748 C 0.13020 0.77047 0.25876
 C749 C 0.11052 0.77434 0.22095
 C750 C 0.09063 0.76404 0.22766
 C751 C 0.07340 0.76020 0.21236
 C752 C 0.07549 0.76641 0.18990
 C753 C 0.09506 0.77717 0.18318
 C754 C 0.11243 0.78131 0.19850
 C755 C 0.14933 0.79651 0.20611
 C756 C 0.13166 0.79233 0.19144
 H757 H 0.16384 0.80508 0.19981
 H758 H 0.13307 0.79783 0.17429
 H759 H 0.18183 0.80148 0.23589
 H760 H 0.14863 0.76735 0.28928
 H761 H 0.05828 0.75247 0.21823
 H762 H 0.09700 0.78198 0.16588
 H763 H 0.11642 0.76154 0.26586
 H764 H 0.08795 0.75889 0.24465
 C765 C 0.26138 0.12702 0.22564
 C766 C 0.26810 0.14480 0.21161
 C767 C 0.25405 0.16347 0.20820
 C768 C 0.23346 0.16509 0.21899
 C769 C 0.22705 0.14769 0.23327
 C770 C 0.24075 0.12887 0.23652
 C771 C 0.27675 0.10722 0.22854
 C772 C 0.27118 0.08814 0.24117
 C773 C 0.28618 0.07026 0.24359
 C774 C 0.30721 0.07088 0.23359
 C775 C 0.31277 0.08970 0.22072
 C776 C 0.29770 0.10765 0.21795
 C777 C 0.28889 0.14399 0.20126
 C778 C 0.30347 0.12595 0.20457
 H779 H 0.29409 0.15765 0.19061
 H780 H 0.31946 0.12624 0.19636
 H781 H 0.25936 0.17694 0.19735
 H782 H 0.21129 0.14849 0.24186
 H783 H 0.28117 0.05576 0.25316
 H784 H 0.32900 0.09055 0.21304
 H785 H 0.23491 0.11609 0.24773
 H786 H 0.25527 0.08658 0.24918
 C787 C 0.76825 0.63867 0.72689
 C788 C 0.76561 0.64729 0.70502
 C789 C 0.75129 0.66566 0.70102
 C790 C 0.73884 0.67519 0.71840
 C791 C 0.74103 0.66621 0.73993
 C792 C 0.75560 0.64830 0.74419
 C793 C 0.78401 0.61930 0.73052
 C794 C 0.78908 0.61061 0.75183
 C795 C 0.80357 0.59231 0.75432
 C796 C 0.81329 0.58196 0.73567
 C797 C 0.80863 0.59082 0.71438
 C798 C 0.79441 0.60951 0.71174
 C799 C 0.77691 0.63724 0.68721
 C800 C 0.79070 0.61854 0.69044
 H801 H 0.77478 0.64371 0.67043
 H802 H 0.79880 0.61118 0.67605
 H803 H 0.74943 0.67221 0.68423
 H804 H 0.73156 0.67318 0.75362
 H805 H 0.80732 0.58642 0.77102
 H806 H 0.81585 0.58303 0.69975
 H807 H 0.75646 0.64209 0.76106
 H808 H 0.78227 0.61785 0.76682
 C809 C 0.77131 0.35886 0.77126
 C810 C 0.75105 0.35819 0.75905
 C811 C 0.73681 0.33967 0.76106
 C812 C 0.74192 0.32195 0.77584
 C813 C 0.76177 0.32313 0.78846
 C814 C 0.77629 0.34119 0.78613
 C815 C 0.78631 0.37867 0.76820
 C816 C 0.80765 0.38000 0.77803
 C817 C 0.82090 0.39890 0.77487
 C818 C 0.81323 0.41715 0.76202
 C819 C 0.79207 0.41578 0.75186
 C820 C 0.77881 0.39661 0.75453
 C821 C 0.74488 0.37622 0.74525
 C822 C 0.75827 0.39519 0.74336
 H823 H 0.72926 0.37583 0.73603
 H824 H 0.75258 0.40882 0.73272
 H825 H 0.72145 0.33943 0.75139
 H826 H 0.76632 0.30997 0.80014
 H827 H 0.83740 0.39901 0.78232
 H828 H 0.78576 0.42970 0.74197
 H829 H 0.79116 0.34111 0.79636
 H830 H 0.81459 0.36651 0.78794
 C831 C 0.27080 -0.14555 0.27380
 C832 C 0.25069 -0.14613 0.26130
 C833 C 0.23513 -0.16326 0.26495
 C834 C 0.23883 -0.17959 0.28158
 C835 C 0.25882 -0.17878 0.29402
 C836 C 0.27458 -0.16215 0.29014
 C837 C 0.28684 -0.12683 0.26958
 C838 C 0.30773 -0.12533 0.28038
 C839 C 0.32172 -0.10714 0.27649
 C840 C 0.31531 -0.08985 0.26183
 C841 C 0.29475 -0.09152 0.25054
 C842 C 0.28066 -0.10990 0.25412
 C843 C 0.24593 -0.12926 0.24565
 C844 C 0.26044 -0.11139 0.24236
 H845 H 0.23051 -0.12963 0.23611
 H846 H 0.25578 -0.09854 0.23036
 H847 H 0.21981 -0.16335 0.25522
 H848 H 0.26241 -0.19100 0.30696
 H849 H 0.33773 -0.10671 0.28496
 H850 H 0.28943 -0.07828 0.23926
 H851 H 0.28940 -0.16238 0.30044
 H852 H 0.31366 -0.13804 0.29182
 C853 C 0.23243 -0.13115 0.71748
 C854 C 0.25225 -0.13153 0.73043
 C855 C 0.26772 -0.14918 0.72791
 C856 C 0.26422 -0.16630 0.71198
 C857 C 0.24483 -0.16531 0.69860
 C858 C 0.22914 -0.14812 0.70137
 C859 C 0.21599 -0.11243 0.72125
 C860 C 0.19495 -0.11154 0.71065
 C861 C 0.18021 -0.09377 0.71480
 C862 C 0.18607 -0.07624 0.72944
 C863 C 0.20703 -0.07707 0.74010
 C864 C 0.22174 -0.09513 0.73647
 C865 C 0.25672 -0.11412 0.74561
 C866 C 0.24198 -0.09612 0.74827
 H867 H 0.27199 -0.11427 0.75540
 H868 H 0.24633 -0.08296 0.76006
 H869 H 0.28268 -0.14927 0.73819
 H870 H 0.24151 -0.17799 0.68600
 H871 H 0.16400 -0.09402 0.70674
 H872 H 0.21203 -0.06360 0.75126
 H873 H 0.21467 -0.14835 0.69057
 H874 H 0.18937 -0.12459 0.69942
 C875 C 0.73030 0.36366 0.21783
 C876 C 0.75140 0.36390 0.22858
 C877 C 0.76671 0.34634 0.22493
 C878 C 0.76157 0.32858 0.21028
 C879 C 0.74071 0.32847 0.19954
 C880 C 0.72524 0.34568 0.20329
 C881 C 0.71447 0.38280 0.22216
 C882 C 0.69283 0.38385 0.21288
 C883 C 0.67883 0.40216 0.21724
 C884 C 0.68599 0.42000 0.23087
 C885 C 0.70748 0.41901 0.24031
 C886 C 0.72161 0.40057 0.23623
 C887 C 0.75729 0.38182 0.24262
 C888 C 0.74279 0.39985 0.24621
 H889 H 0.77347 0.38205 0.25079
 H890 H 0.74823 0.41340 0.25707
 H891 H 0.78285 0.34678 0.23318
 H892 H 0.73626 0.31500 0.18815
 H893 H 0.66220 0.40219 0.21009
 H894 H 0.71339 0.43276 0.25067
 H895 H 0.70955 0.34467 0.19445
 H896 H 0.68629 0.37066 0.20236
 C897 C 0.73705 0.63332 0.27726
 C898 C 0.73068 0.65082 0.29199
 C899 C 0.74493 0.66914 0.29584
 C900 C 0.76541 0.67059 0.28483
 C901 C 0.77150 0.65336 0.27000
 C902 C 0.75761 0.63497 0.26629
 C903 C 0.72144 0.61399 0.27373
 C904 C 0.72664 0.59532 0.26015
 C905 C 0.71142 0.57791 0.25710
 C906 C 0.69053 0.57859 0.26739
 C907 C 0.68534 0.59698 0.28125
 C908 C 0.70063 0.61450 0.28460
 C909 C 0.71000 0.65011 0.30257
 C910 C 0.69523 0.63246 0.29879
 H911 H 0.70505 0.66353 0.31378
 H912 H 0.67934 0.63282 0.30721
 H913 H 0.73988 0.68244 0.30717
 H914 H 0.78717 0.65398 0.26124
 H915 H 0.71616 0.56371 0.24679
 H916 H 0.66924 0.59784 0.28921
 H917 H 0.76325 0.62237 0.25463
 H918 H 0.74240 0.59370 0.25184
 C919 C 0.23693 0.13423 0.77809
 C920 C 0.23194 0.14980 0.79525
 C921 C 0.24666 0.16747 0.80013
 C922 C 0.26607 0.17056 0.78753
 C923 C 0.27040 0.15551 0.76990
 C924 C 0.25617 0.13757 0.76534
 C925 C 0.22117 0.11517 0.77392
 C926 C 0.22568 0.09759 0.75879
 C927 C 0.21039 0.08031 0.75534
 C928 C 0.19002 0.08014 0.76665
 C929 C 0.18557 0.09746 0.78206
 C930 C 0.20110 0.11461 0.78606
 C931 C 0.21209 0.14792 0.80716
 C932 C 0.19680 0.13098 0.80236
 H933 H 0.20813 0.15997 0.82016
 H934 H 0.18153 0.13047 0.81182
 H935 H 0.24265 0.17905 0.81354
 H936 H 0.28502 0.15734 0.75963
 H937 H 0.21476 0.06687 0.74395
 H938 H 0.16993 0.09775 0.79090
 H939 H 0.26043 0.12668 0.75158
 H940 H 0.24108 0.09665 0.74972
 C941 C 0.22263 0.26113 0.13907
 C942 C 0.20745 0.26789 0.15577
 C943 C 0.20281 0.25346 0.17367
 C944 C 0.21341 0.23239 0.17546
 C945 C 0.22859 0.22588 0.15896
 C946 C 0.23311 0.23995 0.14102
 C947 C 0.22707 0.27696 0.12020
 C948 C 0.24133 0.27149 0.10243
 C949 C 0.24509 0.28684 0.08534
 C950 C 0.23485 0.30813 0.08544
 C951 C 0.22043 0.31367 0.10298
 C952 C 0.21639 0.29826 0.12020
 C953 C 0.19719 0.28911 0.15463
 C954 C 0.20169 0.30401 0.13733
 H955 H 0.18562 0.29436 0.16742
 H956 H 0.19343 0.32028 0.13732
 H957 H 0.19119 0.25881 0.18638
 H958 H 0.23704 0.20975 0.15982
 H959 H 0.25585 0.28184 0.07179
 H960 H 0.21251 0.33010 0.10339
 H961 H 0.24500 0.23394 0.12901
 H962 H 0.24963 0.25540 0.10125
 C963 C 0.72209 0.77088 0.63728
 C964 C 0.73406 0.75030 0.63837
 C965 C 0.73087 0.73552 0.65633
 C966 C 0.71556 0.74075 0.67316
 C967 C 0.70344 0.76098 0.67175
 C968 C 0.70664 0.77584 0.65414
 C969 C 0.72621 0.78636 0.61806
 C970 C 0.71588 0.80762 0.61601
 C971 C 0.72008 0.82134 0.59771
 C972 C 0.73463 0.81430 0.58086
 C973 C 0.74524 0.79325 0.58289
 C974 C 0.74128 0.77937 0.60137
 C975 C 0.74899 0.74451 0.62145
 C976 C 0.75237 0.75863 0.60326
 H977 H 0.75810 0.72873 0.62220
 H978 H 0.76397 0.75329 0.59054
 H979 H 0.74020 0.71986 0.65707
 H980 H 0.69147 0.76551 0.68442
 H981 H 0.71206 0.83769 0.59691
 H982 H 0.75641 0.78749 0.56995
 H983 H 0.69676 0.79104 0.65406
 H984 H 0.70463 0.81411 0.62839
 C985 C 0.78077 0.76880 0.36381
 C986 C 0.76941 0.74799 0.36331
 C987 C 0.77242 0.73301 0.34536
 C988 C 0.78700 0.73824 0.32797
 C989 C 0.79841 0.75876 0.32870
 C990 C 0.79534 0.77385 0.34628
 C991 C 0.77700 0.78440 0.38316
 C992 C 0.78684 0.80581 0.38477
 C993 C 0.78297 0.81964 0.40320
 C994 C 0.76928 0.81255 0.42062
 C995 C 0.75923 0.79130 0.41907
 C996 C 0.76284 0.77732 0.40048
 C997 C 0.75534 0.74215 0.38084
 C998 C 0.75228 0.75640 0.39910
 H999 H 0.74670 0.72619 0.38053
 H1000 H 0.74136 0.75100 0.41230
 H1001 H 0.76365 0.71713 0.34513
 H1002 H 0.80977 0.76330 0.31557
 H1003 H 0.79053 0.83613 0.40363
 H1004 H 0.74874 0.78549 0.43246
 H1005 H 0.80468 0.78927 0.34585
 H1006 H 0.79742 0.81234 0.37194
 C1007 C 0.28128 0.26008 -0.12633
 C1008 C 0.29548 0.26743 -0.14352
 C1009 C 0.29920 0.25371 -0.16227
 C1010 C 0.28851 0.23286 -0.16454
 C1011 C 0.27416 0.22581 -0.14765
 C1012 C 0.27064 0.23913 -0.12878
 C1013 C 0.27785 0.27517 -0.10653
 C1014 C 0.26493 0.26898 -0.08807
 C1015 C 0.26182 0.28383 -0.07027
 C1016 C 0.27138 0.30532 -0.07035
 C1017 C 0.28467 0.31146 -0.08849
 C1018 C 0.28811 0.29655 -0.10638
 C1019 C 0.30557 0.28857 -0.14209
 C1020 C 0.30177 0.30291 -0.12405
 H1021 H 0.31637 0.29426 -0.15528
 H1022 H 0.30975 0.31922 -0.12389
 H1023 H 0.31011 0.25951 -0.17533
 H1024 H 0.26566 0.20983 -0.14893
 H1025 H 0.25199 0.27834 -0.05628
 H1026 H 0.29207 0.32804 -0.08891
 H1027 H 0.25934 0.23280 -0.11646
 H1028 H 0.25719 0.25271 -0.08694
 C1029 C 0.72665 0.22325 -0.14915
 C1030 C 0.74346 0.23893 -0.15435
 C1031 C 0.74037 0.25402 -0.17212
 C1032 C 0.72076 0.25370 -0.18508
 C1033 C 0.70441 0.23771 -0.18025
 C1034 C 0.70726 0.22271 -0.16257
 C1035 C 0.73021 0.20804 -0.12948
 C1036 C 0.71409 0.19261 -0.12226
 C1037 C 0.71799 0.17925 -0.10349
 C1038 C 0.73807 0.18077 -0.09143
 C1039 C 0.75434 0.19590 -0.09866
 C1040 C 0.75050 0.20962 -0.11736
 C1041 C 0.76319 0.23955 -0.14172
 C1042 C 0.76670 0.22511 -0.12373
 H1043 H 0.77614 0.25144 -0.14577
 H1044 H 0.78224 0.22631 -0.11446
 H1045 H 0.75327 0.26611 -0.17577
 H1046 H 0.68913 0.23694 -0.18998
 H1047 H 0.70498 0.16802 -0.09813
 H1048 H 0.77006 0.19705 -0.08970
 H1049 H 0.69402 0.21094 -0.15968
 H1050 H 0.69822 0.19082 -0.13062
 C1051 C 0.21846 0.73161 0.36623
 C1052 C 0.23715 0.74030 0.35501
 C1053 C 0.23411 0.75464 0.33663
 C1054 C 0.21265 0.75986 0.32867
 C1055 C 0.19418 0.75060 0.33932
 C1056 C 0.19699 0.73676 0.35792
 C1057 C 0.22242 0.71689 0.38617
 C1058 C 0.20506 0.70899 0.39962
 C1059 C 0.20959 0.69513 0.41789
 C1060 C 0.23151 0.68855 0.42319
 C1061 C 0.24895 0.69666 0.41003
 C1062 C 0.24461 0.71101 0.39191
 C1063 C 0.25873 0.73434 0.36192
 C1064 C 0.26237 0.71969 0.37972
 H1065 H 0.27304 0.74083 0.35321
 H1066 H 0.27938 0.71534 0.38422
 H1067 H 0.24851 0.76137 0.32824
 H1068 H 0.17745 0.75428 0.33341
 H1069 H 0.19581 0.68979 0.42806
 H1070 H 0.26597 0.69168 0.41372
 H1071 H 0.18216 0.73010 0.36538
 H1072 H 0.18790 0.71355 0.39653
 C1073 C 0.28306 0.73538 0.63668
 C1074 C 0.27155 0.75625 0.63625
 C1075 C 0.27436 0.77174 0.65376
 C1076 C 0.28891 0.76705 0.67165
 C1077 C 0.30067 0.74658 0.67180
 C1078 C 0.29776 0.73091 0.65463
 C1079 C 0.27923 0.71913 0.61784
 C1080 C 0.28893 0.69748 0.61724
 C1081 C 0.28483 0.68297 0.59932
 C1082 C 0.27106 0.68963 0.58143
 C1083 C 0.26127 0.71116 0.58194
 C1084 C 0.26503 0.72576 0.60002
 C1085 C 0.25748 0.76165 0.61825
 C1086 C 0.25448 0.74684 0.60041
 H1087 H 0.24877 0.77768 0.61784
 H1088 H 0.24353 0.75189 0.58681
 H1089 H 0.26539 0.78763 0.65327
 H1090 H 0.31206 0.74253 0.68535
 H1091 H 0.29223 0.66631 0.59967
 H1092 H 0.25080 0.71668 0.56815
 H1093 H 0.30728 0.71550 0.65569
 H1094 H 0.29951 0.69129 0.63053
 C1095 C 0.78259 0.23585 0.12714
 C1096 C 0.76384 0.24608 0.13720
 C1097 C 0.76671 0.26107 0.15516
 C1098 C 0.78803 0.26546 0.16387
 C1099 C 0.80652 0.25483 0.15425
 C1100 C 0.80391 0.24033 0.13607
 C1101 C 0.77884 0.22024 0.10777
 C1102 C 0.79640 0.21058 0.09556
 C1103 C 0.79207 0.19586 0.07788
 C1104 C 0.77013 0.19015 0.07194
 C1105 C 0.75251 0.20005 0.08380
 C1106 C 0.75668 0.21523 0.10134
 C1107 C 0.74233 0.24092 0.12961
 C1108 C 0.73882 0.22555 0.11232
 H1109 H 0.72795 0.24861 0.13740
 H1110 H 0.72183 0.22188 0.10729
 H1111 H 0.75227 0.26888 0.16274
 H1112 H 0.82315 0.25786 0.16071
 H1113 H 0.80604 0.18916 0.06866
 H1114 H 0.73546 0.19581 0.07956
 H1115 H 0.81875 0.23260 0.12949
 H1116 H 0.81360 0.21436 0.09917
 C1117 C 0.46616 0.38093 0.51314
 C1118 C 0.48500 0.38938 0.50197
 C1119 C 0.48268 0.40753 0.48715
 C1120 C 0.46190 0.41799 0.48375
 C1121 C 0.44337 0.40990 0.49521
 C1122 C 0.44539 0.39157 0.50961
 C1123 C 0.46930 0.36137 0.52864
 C1124 C 0.45146 0.35081 0.53943
 C1125 C 0.45529 0.33292 0.55403
 C1126 C 0.47700 0.32509 0.55845
 C1127 C 0.49485 0.33528 0.54744
 C1128 C 0.49114 0.35306 0.53243
 C1129 C 0.50610 0.37998 0.50601
 C1130 C 0.50915 0.36243 0.52114
 H1131 H 0.52055 0.38652 0.49758
 H1132 H 0.52586 0.35597 0.52391
 H1133 H 0.49720 0.41387 0.47865
 H1134 H 0.42714 0.41768 0.49294
 H1135 H 0.44110 0.32504 0.56171
 H1136 H 0.51174 0.32960 0.55073
 H1137 H 0.43055 0.38623 0.51801
 H1138 H 0.43440 0.35593 0.53668
 C1139 C -0.02618 0.87951 0.01138
 C1140 C -0.04059 0.89717 0.01806
 C1141 C -0.04423 0.91574 0.00403
 C1142 C -0.03325 0.91737 -0.01647
 C1143 C -0.01866 0.90005 -0.02286
 C1144 C -0.01521 0.88133 -0.00921
 C1145 C -0.02291 0.85989 0.02678
 C1146 C -0.00987 0.84094 0.02122
 C1147 C -0.00702 0.82328 0.03629
 C1148 C -0.01696 0.82402 0.05738
 C1149 C -0.03031 0.84267 0.06291
 C1150 C -0.03352 0.86040 0.04776
 C1151 C -0.05100 0.89641 0.03884
 C1152 C -0.04734 0.87855 0.05348
 H1153 H -0.06196 0.90998 0.04401
 H1154 H -0.05558 0.87890 0.06948
 H1155 H -0.05532 0.92916 0.00931
 H1156 H -0.00992 0.90088 -0.03855
 H1157 H 0.00287 0.80887 0.03128
 H1158 H -0.03800 0.84359 0.07917
 H1159 H -0.00372 0.86864 -0.01501
 H1160 H -0.00186 0.83930 0.00528
 C1161 C 0.02776 0.60476 0.02135
 C1162 C 0.01211 0.60105 0.00393
 C1163 C 0.01514 0.58317 -0.01113
 C1164 C 0.03370 0.56867 -0.00930
 C1165 C 0.04911 0.57240 0.00816
 C1166 C 0.04621 0.59012 0.02322
 C1167 C 0.02403 0.62424 0.03690
 C1168 C 0.03866 0.62950 0.05469
 C1169 C 0.03460 0.64804 0.06847
 C1170 C 0.01588 0.66185 0.06491
 C1171 C 0.00108 0.65661 0.04741
 C1172 C 0.00501 0.63804 0.03343
 C1173 C -0.00646 0.61525 0.00155
 C1174 C -0.00993 0.63333 0.01598
 H1175 H -0.01849 0.61240 -0.01175
 H1176 H -0.02452 0.64387 0.01335
 H1177 H 0.00295 0.58071 -0.02437
 H1178 H 0.06362 0.56166 0.01026
 H1179 H 0.04641 0.65184 0.08170
 H1180 H -0.01364 0.66694 0.04473
 H1181 H 0.05868 0.59204 0.03614
 H1182 H 0.05342 0.61965 0.05819
 C1183 C 0.52427 0.11297 0.51533
 C1184 C 0.53820 0.09504 0.52253
 C1185 C 0.54262 0.07682 0.50815
 C1186 C 0.53279 0.07586 0.48681
 C1187 C 0.51877 0.09353 0.47989
 C1188 C 0.51462 0.11185 0.49384
 C1189 C 0.51999 0.13212 0.53110
 C1190 C 0.50731 0.15122 0.52511
 C1191 C 0.50350 0.16846 0.54046
 C1192 C 0.51208 0.16718 0.56229
 C1193 C 0.52504 0.14833 0.56833
 C1194 C 0.52922 0.13099 0.55289
 C1195 C 0.54726 0.09519 0.54416
 C1196 C 0.54266 0.11263 0.55909
 H1197 H 0.55785 0.08144 0.54976
 H1198 H 0.54987 0.11181 0.57573
 H1199 H 0.55325 0.06313 0.51380
 H1200 H 0.51095 0.09327 0.46352
 H1201 H 0.49402 0.18305 0.53504
 H1202 H 0.53173 0.14700 0.58514
 H1203 H 0.50358 0.12477 0.48754
 H1204 H 0.50035 0.15336 0.50860
 C1205 C -0.03500 0.12640 0.48797
 C1206 C -0.04901 0.10863 0.48089
 C1207 C -0.05291 0.09032 0.49508
 C1208 C -0.04264 0.08910 0.51621
 C1209 C -0.02877 0.10675 0.52316
 C1210 C -0.02504 0.12516 0.50933
 C1211 C -0.03098 0.14545 0.47216
 C1212 C -0.01770 0.16414 0.47776
 C1213 C -0.01395 0.18114 0.46226
 C1214 C -0.02326 0.18003 0.44071
 C1215 C -0.03689 0.16169 0.43512
 C1216 C -0.04087 0.14454 0.45064
 C1217 C -0.05871 0.10900 0.45953
 C1218 C -0.05460 0.12647 0.44469
 H1219 H -0.06942 0.09540 0.45408
 H1220 H -0.06228 0.12581 0.42826
 H1221 H -0.06353 0.07673 0.48939
 H1222 H -0.02065 0.10633 0.53938
 H1223 H -0.00383 0.19533 0.46727
 H1224 H -0.04408 0.16051 0.41850
 H1225 H -0.01408 0.13806 0.51561
 H1226 H -0.01008 0.16604 0.49401
 C1227 C 0.46894 0.61680 0.98143
 C1228 C 0.48060 0.61649 1.00208
 C1229 C 0.47731 0.59886 1.01723
 C1230 C 0.46218 0.58156 1.01237
 C1231 C 0.45034 0.58214 0.99207
 C1232 C 0.45368 0.59945 0.97678
 C1233 C 0.47322 0.63576 0.96557
 C1234 C 0.46327 0.63711 0.94421
 C1235 C 0.46775 0.65516 0.93011
 C1236 C 0.48217 0.67243 0.93688
 C1237 C 0.49225 0.67114 0.95811
 C1238 C 0.48807 0.65294 0.97232
 C1239 C 0.49530 0.63388 1.00761
 C1240 C 0.49879 0.65181 0.99316
 H1241 H 0.50415 0.63372 1.02347
 H1242 H 0.51023 0.66491 0.99830
 H1243 H 0.48640 0.59878 1.03295
 H1244 H 0.43852 0.56907 0.98786
 H1245 H 0.46008 0.65540 0.91368
 H1246 H 0.50322 0.68446 0.96373
 H1247 H 0.44406 0.59894 0.96150
 H1248 H 0.45217 0.62434 0.93795
 C1249 C 0.52824 0.88797 0.98589
 C1250 C 0.54389 0.90448 0.97976
 C1251 C 0.54755 0.92331 0.99356
 C1252 C 0.53527 0.92645 1.01323
 C1253 C 0.51928 0.91024 1.01881
 C1254 C 0.51589 0.89130 1.00545
 C1255 C 0.52511 0.86793 0.97096
 C1256 C 0.51118 0.84983 0.97642
 C1257 C 0.50838 0.83179 0.96174
 C1258 C 0.51927 0.83127 0.94113
 C1259 C 0.53366 0.84899 0.93580
 C1260 C 0.53685 0.86708 0.95062
 C1261 C 0.55550 0.90231 0.95969
 C1262 C 0.55179 0.88420 0.94528
 H1263 H 0.56739 0.91500 0.95487
 H1264 H 0.56094 0.88349 0.92980
 H1265 H 0.55975 0.93568 0.98867
 H1266 H 0.50932 0.91198 1.03369
 H1267 H 0.49776 0.81808 0.96671
 H1268 H 0.54217 0.84892 0.91994
 H1269 H 0.50330 0.87964 1.01066
 H1270 H 0.50243 0.84913 0.99202
 C1271 C 0.03086 0.38988 0.48316
 C1272 C 0.01741 0.39163 0.50235
 C1273 C 0.02060 0.40939 0.51757
 C1274 C 0.03749 0.42536 0.51434
 C1275 C 0.05134 0.42291 0.49567
 C1276 C 0.04806 0.40554 0.48032
 C1277 C 0.02635 0.37122 0.46686
 C1278 C 0.03760 0.36911 0.44643
 C1279 C 0.03284 0.35142 0.43182
 C1280 C 0.01687 0.33521 0.43715
 C1281 C 0.00540 0.33734 0.45739
 C1282 C 0.00978 0.35531 0.47205
 C1283 C 0.00098 0.37554 0.50631
 C1284 C -0.00252 0.35759 0.49167
 H1285 H -0.00922 0.37672 0.52109
 H1286 H -0.01531 0.34549 0.49561
 H1287 H 0.00991 0.41062 0.53200
 H1288 H 0.06471 0.43462 0.49260
 H1289 H 0.04155 0.35065 0.41610
 H1290 H -0.00687 0.32491 0.46190
 H1291 H 0.05927 0.40467 0.46640
 H1292 H 0.04989 0.38109 0.44124
 C1293 C 0.38603 0.51747 0.46697
 C1294 C 0.38555 0.49602 0.47716
 C1295 C 0.40306 0.48064 0.47385
 C1296 C 0.42107 0.48610 0.46018
 C1297 C 0.42120 0.50714 0.44961
 C1298 C 0.40398 0.52264 0.45296
 C1299 C 0.36733 0.53366 0.47151
 C1300 C 0.36680 0.55581 0.46316
 C1301 C 0.34908 0.57027 0.46799
 C1302 C 0.33133 0.56309 0.48119
 C1303 C 0.33174 0.54105 0.48960
 C1304 C 0.34961 0.52645 0.48508
 C1305 C 0.36758 0.49000 0.49055
 C1306 C 0.34990 0.50480 0.49425
 H1307 H 0.36713 0.47353 0.49825
 H1308 H 0.33636 0.49930 0.50468
 H1309 H 0.40258 0.46435 0.48191
 H1310 H 0.43482 0.51181 0.43890
 H1311 H 0.34947 0.58729 0.46162
 H1312 H 0.31803 0.53514 0.49960
 H1313 H 0.40508 0.53852 0.44441
 H1314 H 0.38000 0.56241 0.45309
 C1315 C 0.88655 0.01245 -0.02960
 C1316 C 0.90325 0.01877 -0.04478
 C1317 C 0.92147 0.00440 -0.04871
 C1318 C 0.92393 -0.01600 -0.03700
 C1319 C 0.90764 -0.02171 -0.02132
 C1320 C 0.88920 -0.00782 -0.01776
 C1321 C 0.86704 0.02793 -0.02637
 C1322 C 0.84858 0.02221 -0.01329
 C1323 C 0.83093 0.03731 -0.01056
 C1324 C 0.83121 0.05865 -0.02055
 C1325 C 0.84941 0.06430 -0.03397
 C1326 C 0.86701 0.04901 -0.03726
 C1327 C 0.90190 0.03960 -0.05561
 C1328 C 0.88440 0.05458 -0.05160
 H1329 H 0.91477 0.04459 -0.06710
 H1330 H 0.88432 0.07064 -0.06012
 H1331 H 0.93397 0.00944 -0.06059
 H1332 H 0.90891 -0.03713 -0.01178
 H1333 H 0.81686 0.03204 -0.00076
 H1334 H 0.85003 0.08070 -0.04178
 H1335 H 0.87740 -0.01316 -0.00545
 H1336 H 0.84725 0.00605 -0.00531
 C1337 C 0.61188 0.02497 0.02372
 C1338 C 0.60883 0.00585 0.00990
 C1339 C 0.59128 -0.00908 0.01392
 C1340 C 0.57664 -0.00542 0.03171
 C1341 C 0.57967 0.01361 0.04530
 C1342 C 0.59698 0.02861 0.04140
 C1343 C 0.63104 0.04030 0.01906
 C1344 C 0.63554 0.05978 0.03179
 C1345 C 0.65392 0.07318 0.02710
 C1346 C 0.66831 0.06758 0.00964
 C1347 C 0.66376 0.04844 -0.00338
 C1348 C 0.64534 0.03483 0.00118
 C1349 C 0.62341 0.00160 -0.00773
 C1350 C 0.64128 0.01574 -0.01197
 H1351 H 0.62106 -0.01302 -0.01834
 H1352 H 0.65218 0.01159 -0.02571
 H1353 H 0.58921 -0.02370 0.00325
 H1354 H 0.56866 0.01696 0.05914
 H1355 H 0.65716 0.08774 0.03753
 H1356 H 0.67456 0.04416 -0.01717
 H1357 H 0.59844 0.04283 0.05251
 H1358 H 0.62524 0.06489 0.04554
 C1359 C 0.11529 0.52140 0.53138
 C1360 C 0.11526 0.49998 0.52097
 C1361 C 0.09706 0.48555 0.52353
 C1362 C 0.07891 0.49187 0.53677
 C1363 C 0.07911 0.51295 0.54734
 C1364 C 0.09698 0.52757 0.54466
 C1365 C 0.13496 0.53639 0.52802
 C1366 C 0.13618 0.55837 0.53681
 C1367 C 0.15486 0.57166 0.53322
 C1368 C 0.17292 0.56343 0.52088
 C1369 C 0.17182 0.54156 0.51200
 C1370 C 0.15298 0.52814 0.51527
 C1371 C 0.13351 0.49296 0.50829
 C1372 C 0.15205 0.50665 0.50569
 H1373 H 0.13355 0.47652 0.50041
 H1374 H 0.16581 0.50036 0.49584
 H1375 H 0.09726 0.46918 0.51548
 H1376 H 0.06536 0.51826 0.55770
 H1377 H 0.15497 0.58863 0.53984
 H1378 H 0.18571 0.53486 0.50262
 H1379 H 0.09617 0.54350 0.55327
 H1380 H 0.12282 0.56575 0.54629
 C1381 C 0.11444 0.47521 -0.02891
 C1382 C 0.11376 0.49623 -0.01776
 C1383 C 0.09540 0.51069 -0.02069
 C1384 C 0.07766 0.50478 -0.03493
 C1385 C 0.07866 0.48423 -0.04646
 C1386 C 0.09674 0.46959 -0.04348
 C1387 C 0.13405 0.45996 -0.02472
 C1388 C 0.13580 0.43820 -0.03399
 C1389 C 0.15430 0.42456 -0.02935
 C1390 C 0.17163 0.43223 -0.01546
 C1391 C 0.17004 0.45392 -0.00621
 C1392 C 0.15139 0.46765 -0.01050
 C1393 C 0.13141 0.50276 -0.00378
 C1394 C 0.14991 0.48888 -0.00041
 H1395 H 0.13096 0.51892 0.00464
 H1396 H 0.16316 0.49476 0.01051
 H1397 H 0.09502 0.52666 -0.01190
 H1398 H 0.06527 0.47925 -0.05763
 H1399 H 0.15481 0.40777 -0.03639
 H1400 H 0.18340 0.46022 0.00433
 H1401 H 0.09651 0.45402 -0.05275
 H1402 H 0.12297 0.43125 -0.04461
 C1403 C 0.61263 0.97997 0.47008
 C1404 C 0.61075 0.99973 0.48318
 C1405 C 0.59227 1.01414 0.48045
 C1406 C 0.57573 1.00963 0.46425
 C1407 C 0.57809 0.99024 0.45090
 C1408 C 0.59614 0.97561 0.45381
 C1409 C 0.63235 0.96476 0.47386
 C1410 C 0.63493 0.94394 0.46285
 C1411 C 0.65362 0.93042 0.46687
 C1412 C 0.67042 0.93728 0.48183
 C1413 C 0.66786 0.95796 0.49302
 C1414 C 0.64890 0.97149 0.48941
 C1415 C 0.62751 1.00518 0.49867
 C1416 C 0.64631 0.99155 0.50148
 H1417 H 0.62620 1.02039 0.50861
 H1418 H 0.65891 0.99667 0.51351
 H1419 H 0.59108 1.02911 0.49078
 H1420 H 0.56587 0.98612 0.43813
 H1421 H 0.65470 0.91432 0.45844
 H1422 H 0.68070 0.96367 0.50450
 H1423 H 0.59694 0.96113 0.44296
 H1424 H 0.62258 0.93759 0.45131
 C1425 C 0.88271 0.98984 0.52526
 C1426 C 0.89893 0.98470 0.54179
 C1427 C 0.91645 0.99971 0.54617
 C1428 C 0.91853 1.01976 0.53388
 C1429 C 0.90281 1.02425 0.51687
 C1430 C 0.88517 1.00961 0.51267
 C1431 C 0.86380 0.97381 0.52171
 C1432 C 0.84588 0.97829 0.50701
 C1433 C 0.82868 0.96283 0.50423
 C1434 C 0.82886 0.94234 0.51585
 C1435 C 0.84654 0.93788 0.53079
 C1436 C 0.86374 0.95353 0.53402
 C1437 C 0.89769 0.96451 0.55372
 C1438 C 0.88068 0.94911 0.54968
 H1439 H 0.91021 0.96044 0.56625
 H1440 H 0.88060 0.93365 0.55921
 H1441 H 0.92852 0.99560 0.55912
 H1442 H 0.90384 1.03932 0.50683
 H1443 H 0.81500 0.96715 0.49311
 H1444 H 0.84705 0.92213 0.53985
 H1445 H 0.87372 1.01408 0.49941
 H1446 H 0.84462 0.99377 0.49773
 C1447 C 0.38193 0.48738 0.03084
 C1448 C 0.39951 0.48141 0.04564
 C1449 C 0.41751 0.49609 0.04899
 C1450 C 0.41859 0.51657 0.03741
 C1451 C 0.40126 0.52227 0.02256
 C1452 C 0.38317 0.50797 0.01934
 C1453 C 0.36298 0.47128 0.02778
 C1454 C 0.34429 0.47603 0.01415
 C1455 C 0.32729 0.46033 0.01149
 C1456 C 0.32840 0.43939 0.02223
 C1457 C 0.34678 0.43466 0.03618
 C1458 C 0.36391 0.45044 0.03914
 C1459 C 0.39920 0.46071 0.05673
 C1460 C 0.38190 0.44548 0.05339
 H1461 H 0.41268 0.45608 0.06800
 H1462 H 0.38258 0.42958 0.06220
 H1463 H 0.43089 0.49134 0.06035
 H1464 H 0.40161 0.53793 0.01337
 H1465 H 0.31308 0.46474 0.00110
 H1466 H 0.34797 0.41853 0.04451
 H1467 H 0.37048 0.51330 0.00762
 H1468 H 0.34236 0.49180 0.00549
 C1469 C 0.52014 0.47003 0.38615
 C1470 C 0.49956 0.48178 0.38623
 C1471 C 0.48442 0.47842 0.40357
 C1472 C 0.48917 0.46313 0.42081
 C1473 C 0.50945 0.45130 0.42057
 C1474 C 0.52478 0.45473 0.40355
 C1475 C 0.53588 0.47422 0.36734
 C1476 C 0.55710 0.46405 0.36606
 C1477 C 0.57102 0.46835 0.34807
 C1478 C 0.56421 0.48281 0.33079
 C1479 C 0.54316 0.49315 0.33203
 C1480 C 0.52912 0.48914 0.35015
 C1481 C 0.49404 0.49659 0.36888
 C1482 C 0.50841 0.50004 0.35114
 H1483 H 0.47824 0.50551 0.36890
 H1484 H 0.50326 0.51153 0.33803
 H1485 H 0.46871 0.48752 0.40339
 H1486 H 0.51357 0.43938 0.43362
 H1487 H 0.58733 0.46048 0.34784
 H1488 H 0.53752 0.50416 0.31871
 H1489 H 0.54004 0.44508 0.40426
 H1490 H 0.56335 0.45287 0.37883
 C1491 C 0.02080 -0.02732 0.88595
 C1492 C 0.00008 -0.01584 0.88661
 C1493 C -0.01468 -0.01966 0.90422
 C1494 C -0.00937 -0.03522 0.92108
 C1495 C 0.01108 -0.04672 0.92023
 C1496 C 0.02599 -0.04281 0.90300
 C1497 C 0.03608 -0.02278 0.86686
 C1498 C 0.05735 -0.03272 0.86508
 C1499 C 0.07078 -0.02831 0.84677
 C1500 C 0.06341 -0.01395 0.82964
 C1501 C 0.04237 -0.00366 0.83144
 C1502 C 0.02879 -0.00784 0.84991
 C1503 C -0.00594 -0.00089 0.86953
 C1504 C 0.00801 0.00287 0.85148
 H1505 H -0.02182 0.00786 0.86997
 H1506 H 0.00246 0.01440 0.83857
 H1507 H -0.03052 -0.01082 0.90453
 H1508 H 0.01566 -0.05881 0.93299
 H1509 H 0.08713 -0.03605 0.84615
 H1510 H 0.03636 0.00735 0.81828
 H1511 H 0.04136 -0.05229 0.90327
 H1512 H 0.06404 -0.04384 0.87768
 C1513 C 0.01077 0.03715 0.61704
 C1514 C 0.00154 0.01840 0.60572
 C1515 C -0.01354 0.02168 0.58791
 C1516 C -0.01887 0.04347 0.58054
 C1517 C -0.00919 0.06198 0.59135
 C1518 C 0.00531 0.05893 0.60945
 C1519 C 0.02647 0.03295 0.63622
 C1520 C 0.03498 0.05035 0.64976
 C1521 C 0.04988 0.04564 0.66717
 C1522 C 0.05698 0.02349 0.67149
 C1523 C 0.04819 0.00598 0.65831
 C1524 C 0.03277 0.01050 0.64107
 C1525 C 0.00787 -0.00347 0.61186
 C1526 C 0.02346 -0.00732 0.62886
 H1527 H 0.00098 -0.01785 0.60309
 H1528 H 0.02809 -0.02455 0.63269
 H1529 H -0.02061 0.00726 0.57936
 H1530 H -0.01296 0.07896 0.58591
 H1531 H 0.05564 0.05948 0.67745
 H1532 H 0.05346 -0.01123 0.66126
 H1533 H 0.01232 0.07382 0.61698
 H1534 H 0.03011 0.06769 0.64742
 C1535 C 0.51670 0.53327 0.11510
 C1536 C 0.49596 0.52208 0.11497
 C1537 C 0.48092 0.52510 0.09709
 C1538 C 0.48600 0.53950 0.07934
 C1539 C 0.50641 0.55087 0.07973
 C1540 C 0.52158 0.54779 0.09728
 C1541 C 0.53243 0.52931 0.13433
 C1542 C 0.55384 0.53883 0.13556
 C1543 C 0.56787 0.53462 0.15381
 C1544 C 0.56097 0.52090 0.17144
 C1545 C 0.53968 0.51127 0.17031
 C1546 C 0.52552 0.51519 0.15189
 C1547 C 0.49024 0.50811 0.13277
 C1548 C 0.50462 0.50490 0.15091
 H1549 H 0.47433 0.49962 0.13275
 H1550 H 0.49934 0.49402 0.16432
 H1551 H 0.46512 0.51638 0.09715
 H1552 H 0.51081 0.56213 0.06633
 H1553 H 0.58435 0.54189 0.15392
 H1554 H 0.53399 0.50083 0.18387
 H1555 H 0.53693 0.55704 0.09659
 H1556 H 0.56022 0.54937 0.12253
 C1557 C 0.48576 -0.02340 0.11536
 C1558 C 0.47978 -0.03851 0.09804
 C1559 C 0.49389 -0.04168 0.07978
 C1560 C 0.51386 -0.02967 0.07813
 C1561 C 0.51955 -0.01435 0.09506
 C1562 C 0.50576 -0.01127 0.11348
 C1563 C 0.47036 -0.02085 0.13478
 C1564 C 0.47522 -0.00712 0.15339
 C1565 C 0.46027 -0.00527 0.17100
 C1566 C 0.44001 -0.01693 0.17055
 C1567 C 0.43512 -0.03077 0.15213
 C1568 C 0.45014 -0.03297 0.13446
 C1569 C 0.45966 -0.05024 0.09890
 C1570 C 0.44506 -0.04736 0.11660
 H1571 H 0.45503 -0.06172 0.08558
 H1572 H 0.42962 -0.05670 0.11640
 H1573 H 0.48913 -0.05336 0.06667
 H1574 H 0.53481 -0.00480 0.09420
 H1575 H 0.46476 0.00514 0.18519
 H1576 H 0.41945 -0.03971 0.15140
 H1577 H 0.51102 0.00074 0.12594
 H1578 H 0.49054 0.00215 0.15481
 C1579 C 0.98322 0.47745 0.61421
 C1580 C 0.98672 0.45529 0.60615
 C1581 C 1.00106 0.45143 0.58812
 C1582 C 1.01270 0.46927 0.57849
 C1583 C 1.00965 0.49111 0.58690
 C1584 C 0.99504 0.49521 0.60442
 C1585 C 0.96750 0.48092 0.63321
 C1586 C 0.96157 0.50240 0.64128
 C1587 C 0.94704 0.50477 0.65917
 C1588 C 0.93813 0.48582 0.66971
 C1589 C 0.94377 0.46433 0.66155
 C1590 C 0.95800 0.46178 0.64325
 C1591 C 0.97629 0.43710 0.61643
 C1592 C 0.96254 0.44024 0.63481
 H1593 H 0.97908 0.42011 0.61040
 H1594 H 0.95513 0.42557 0.64237
 H1595 H 1.00362 0.43443 0.58199
 H1596 H 1.01849 0.50517 0.57981
 H1597 H 0.94254 0.52159 0.66453
 H1598 H 0.93722 0.44947 0.66952
 H1599 H 0.99351 0.51234 0.61021
 H1600 H 0.96768 0.51762 0.63383
 C1601 C 0.97839 0.52203 0.88890
 C1602 C 0.99979 0.51194 0.88806
 C1603 C 1.01478 0.51442 0.90604
 C1604 C 1.00903 0.52736 0.92479
 C1605 C 0.98794 0.53762 0.92542
 C1606 C 0.97278 0.53495 0.90781
 C1607 C 0.96284 0.51883 0.86941
 C1608 C 0.94084 0.52724 0.86902
 C1609 C 0.92710 0.52404 0.85036
 C1610 C 0.93488 0.51247 0.83149
 C1611 C 0.95671 0.50382 0.83184
 C1612 C 0.97058 0.50669 0.85064
 C1613 C 1.00626 0.49974 0.86915
 C1614 C 0.99207 0.49739 0.85075
 H1615 H 1.02268 0.49210 0.86844
 H1616 H 0.99797 0.48799 0.83643
 H1617 H 1.03113 0.50664 0.90520
 H1618 H 0.98305 0.54772 0.93964
 H1619 H 0.91019 0.53043 0.85087
 H1620 H 0.96308 0.49504 0.81735
 H1621 H 0.95690 0.54334 0.90927
 H1622 H 0.93382 0.53616 0.88300
 C1623 C 0.47830 0.02355 0.38675
 C1624 C 0.49936 0.01270 0.38684
 C1625 C 0.51429 0.01601 0.40473
 C1626 C 0.50881 0.03047 0.42244
 C1627 C 0.48806 0.04145 0.42213
 C1628 C 0.47297 0.03801 0.40462
 C1629 C 0.46277 0.01944 0.36742
 C1630 C 0.44109 0.02859 0.36623
 C1631 C 0.42736 0.02447 0.34776
 C1632 C 0.43484 0.01121 0.32989
 C1633 C 0.45636 0.00183 0.33105
 C1634 C 0.47021 0.00564 0.34968
 C1635 C 0.50554 -0.00110 0.36893
 C1636 C 0.49138 -0.00437 0.35065
 H1637 H 0.52170 -0.00933 0.36893
 H1638 H 0.49705 -0.01503 0.33712
 H1639 H 0.53038 0.00763 0.40463
 H1640 H 0.48337 0.05272 0.43554
 H1641 H 0.41068 0.03149 0.34763
 H1642 H 0.46249 -0.00828 0.31731
 H1643 H 0.45736 0.04701 0.40534
 H1644 H 0.43429 0.03880 0.37944
   
