data_POSCAR
  _audit_creation_date              2014-09-24
  _audit_creation_method            'ToBaCCo'
  _symmetry_space_group_name_H-M    'P1'
  _symmetry_Int_Tables_number       1
  _symmetry_cell_setting            triclinic
  loop_
  _symmetry_equiv_pos_as_xyz
 x,y,z
_cell_length_a 75.1994
_cell_length_b 75.3487
_cell_length_c 75.6236
_cell_angle_alpha 89.994800
_cell_angle_beta 90.010700
_cell_angle_gamma 90.014400
loop_
  _atom_site_label
  _atom_site_type_symbol
  _atom_site_fract_x
  _atom_site_fract_y
  _atom_site_fract_z
N1 N 0.17897 0.22236 0.22492
 N2 N 0.18398 0.20848 0.23424
 C3 C 0.17264 0.20628 0.24786
 C4 C 0.15999 0.21947 0.24693
 C5 C 0.16430 0.22946 0.23228
 H6 H 0.17347 0.19590 0.25770
 H7 H 0.15730 0.24098 0.22737
 Cu8 Cu 0.20479 0.19465 0.22762
 Cu9 Cu 0.19178 0.23015 0.20394
 Cu10 Cu 0.22849 0.20533 0.19142
 N11 N 0.22518 0.18063 0.22019
 N12 N 0.23439 0.18488 0.20602
 C13 C 0.24768 0.17310 0.20387
 C14 C 0.24666 0.16090 0.21741
 C15 C 0.23231 0.16597 0.22754
 H16 H 0.25735 0.17337 0.19329
 H17 H 0.22747 0.15945 0.23934
 N18 N 0.22043 0.22647 0.17836
 N19 N 0.20644 0.23593 0.18313
 C20 C 0.20437 0.24947 0.17166
 C21 C 0.21766 0.24838 0.15920
 C22 C 0.22762 0.23374 0.16373
 H23 H 0.19400 0.25939 0.17230
 H24 H 0.23923 0.22881 0.15687
 H25 H 0.20165 0.20540 0.19738
 H26 H 0.21628 0.21998 0.21107
 N27 N 0.67808 0.72165 0.72431
 N28 N 0.68267 0.70733 0.73317
 C29 C 0.67136 0.70509 0.74680
 C30 C 0.65913 0.71870 0.74635
 C31 C 0.66369 0.72899 0.73199
 H32 H 0.67192 0.69441 0.75634
 H33 H 0.65705 0.74089 0.72748
 Cu34 Cu 0.70300 0.69305 0.72603
 Cu35 Cu 0.69106 0.72970 0.70354
 Cu36 Cu 0.72778 0.70493 0.69092
 N37 N 0.72388 0.67954 0.71902
 N38 N 0.73351 0.68426 0.70527
 C39 C 0.74709 0.67276 0.70336
 C40 C 0.74582 0.66028 0.71661
 C41 C 0.73103 0.66487 0.72633
 H42 H 0.75712 0.67344 0.69314
 H43 H 0.72593 0.65805 0.73784
 N44 N 0.71986 0.72627 0.67809
 N45 N 0.70587 0.73571 0.68290
 C46 C 0.70388 0.74937 0.67157
 C47 C 0.71724 0.74839 0.65915
 C48 C 0.72714 0.73368 0.66358
 H49 H 0.69352 0.75930 0.67224
 H50 H 0.73875 0.72878 0.65670
 H51 H 0.70080 0.70514 0.69617
 H52 H 0.71523 0.71889 0.71089
 N53 N 0.32092 0.77823 0.72495
 N54 N 0.31610 0.79234 0.73402
 C55 C 0.32742 0.79458 0.74766
 C56 C 0.33987 0.78118 0.74699
 C57 C 0.33545 0.77103 0.73250
 H58 H 0.32671 0.80512 0.75733
 H59 H 0.34228 0.75931 0.72781
 Cu60 Cu 0.29552 0.80633 0.72705
 Cu61 Cu 0.30804 0.77026 0.70406
 Cu62 Cu 0.27130 0.79504 0.69142
 N63 N 0.27489 0.82013 0.71984
 N64 N 0.26547 0.81562 0.70587
 C65 C 0.25203 0.82725 0.70381
 C66 C 0.25318 0.83959 0.71719
 C67 C 0.26775 0.83480 0.72716
 H68 H 0.24218 0.82675 0.69339
 H69 H 0.27272 0.84149 0.73881
 N70 N 0.27932 0.77378 0.67851
 N71 N 0.29332 0.76434 0.68332
 C72 C 0.29536 0.75073 0.67194
 C73 C 0.28205 0.75175 0.65948
 C74 C 0.27210 0.76642 0.66393
 H75 H 0.30573 0.74082 0.67262
 H76 H 0.26050 0.77133 0.65705
 H77 H 0.29821 0.79487 0.69701
 H78 H 0.28368 0.78072 0.71122
 N79 N 0.82107 0.27735 0.22543
 N80 N 0.81601 0.29122 0.23474
 C81 C 0.82733 0.29347 0.24838
 C82 C 0.84002 0.28031 0.24745
 C83 C 0.83576 0.27029 0.23281
 H84 H 0.82646 0.30386 0.25822
 H85 H 0.84280 0.25878 0.22790
 Cu86 Cu 0.79517 0.30498 0.22810
 Cu87 Cu 0.80830 0.26951 0.20445
 Cu88 Cu 0.77152 0.29422 0.19188
 N89 N 0.77473 0.31894 0.22064
 N90 N 0.76554 0.31465 0.20646
 C91 C 0.75222 0.32639 0.20430
 C92 C 0.75319 0.33860 0.21783
 C93 C 0.76756 0.33358 0.22798
 H94 H 0.74255 0.32609 0.19371
 H95 H 0.77237 0.34013 0.23977
 N96 N 0.77966 0.27311 0.17883
 N97 N 0.79367 0.26369 0.18362
 C98 C 0.79580 0.25016 0.17216
 C99 C 0.78251 0.25121 0.15967
 C100 C 0.77250 0.26582 0.16419
 H101 H 0.80619 0.24026 0.17281
 H102 H 0.76088 0.27071 0.15732
 H103 H 0.79835 0.29423 0.19786
 H104 H 0.78377 0.27961 0.21155
 N105 N 0.82179 0.72168 0.27558
 N106 N 0.81720 0.70736 0.26674
 C107 C 0.82852 0.70512 0.25311
 C108 C 0.84075 0.71873 0.25356
 C109 C 0.83618 0.72902 0.26791
 H110 H 0.82796 0.69443 0.24358
 H111 H 0.84282 0.74093 0.27242
 Cu112 Cu 0.79687 0.69308 0.27388
 Cu113 Cu 0.80880 0.72973 0.29635
 Cu114 Cu 0.77209 0.70494 0.30898
 N115 N 0.77599 0.67955 0.28090
 N116 N 0.76636 0.68426 0.29464
 C117 C 0.75279 0.67275 0.29656
 C118 C 0.75406 0.66026 0.28332
 C119 C 0.76885 0.66487 0.27359
 H120 H 0.74275 0.67342 0.30678
 H121 H 0.77395 0.65805 0.26208
 N122 N 0.78000 0.72629 0.32180
 N123 N 0.79399 0.73574 0.31699
 C124 C 0.79597 0.74941 0.32831
 C125 C 0.78262 0.74842 0.34073
 C126 C 0.77272 0.73370 0.33631
 H127 H 0.80633 0.75934 0.32763
 H128 H 0.76111 0.72879 0.34319
 H129 H 0.79906 0.70517 0.30373
 H130 H 0.78463 0.71890 0.28901
 N131 N 0.32188 0.22199 -0.22519
 N132 N 0.31710 0.20787 -0.23426
 C133 C 0.32844 0.20562 -0.24788
 C134 C 0.34086 0.21905 -0.24717
 C135 C 0.33642 0.22923 -0.23270
 H136 H 0.32776 0.19506 -0.25754
 H137 H 0.34322 0.24097 -0.22799
 Cu138 Cu 0.29652 0.19384 -0.22733
 Cu139 Cu 0.30895 0.22995 -0.20433
 Cu140 Cu 0.27223 0.20510 -0.19175
 N141 N 0.27590 0.18001 -0.22016
 N142 N 0.26646 0.18450 -0.20621
 C143 C 0.25303 0.17285 -0.20418
 C144 C 0.25420 0.16049 -0.21755
 C145 C 0.26878 0.16533 -0.22748
 H146 H 0.24316 0.17332 -0.19379
 H147 H 0.27377 0.15865 -0.23912
 N148 N 0.28019 0.22638 -0.17884
 N149 N 0.29418 0.23585 -0.18363
 C150 C 0.29618 0.24947 -0.17225
 C151 C 0.28284 0.24843 -0.15982
 C152 C 0.27293 0.23373 -0.16429
 H153 H 0.30653 0.25941 -0.17291
 H154 H 0.26132 0.22881 -0.15742
 H155 H 0.29914 0.20532 -0.19729
 H156 H 0.28462 0.21943 -0.21154
 N157 N 0.67823 0.27785 -0.22497
 N158 N 0.68305 0.29195 -0.23406
 C159 C 0.67171 0.29420 -0.24769
 C160 C 0.65926 0.28080 -0.24696
 C161 C 0.66368 0.27064 -0.23248
 H162 H 0.67242 0.30474 -0.25738
 H163 H 0.65685 0.25892 -0.22775
 Cu164 Cu 0.70366 0.30594 -0.22715
 Cu165 Cu 0.69115 0.26989 -0.20410
 Cu166 Cu 0.72794 0.29467 -0.19156
 N167 N 0.72432 0.31973 -0.22000
 N168 N 0.73376 0.31524 -0.20604
 C169 C 0.74721 0.32686 -0.20402
 C170 C 0.74606 0.33921 -0.21741
 C171 C 0.73147 0.33439 -0.22733
 H172 H 0.75708 0.32638 -0.19363
 H173 H 0.72649 0.34108 -0.23898
 N174 N 0.71993 0.27342 -0.17861
 N175 N 0.70592 0.26398 -0.18339
 C176 C 0.70389 0.25038 -0.17199
 C177 C 0.71723 0.25141 -0.15956
 C178 C 0.72718 0.26608 -0.16405
 H179 H 0.69352 0.24046 -0.17263
 H180 H 0.73880 0.27098 -0.15719
 H181 H 0.70102 0.29451 -0.19709
 H182 H 0.71551 0.28034 -0.21132
 N183 N 0.17876 0.77862 0.27541
 N184 N 0.18338 0.79292 0.26653
 C185 C 0.17205 0.79515 0.25290
 C186 C 0.15980 0.78156 0.25338
 C187 C 0.16436 0.77128 0.26775
 H188 H 0.17262 0.80582 0.24335
 H189 H 0.15770 0.75940 0.27228
 Cu190 Cu 0.20373 0.80718 0.27365
 Cu191 Cu 0.19175 0.77058 0.29619
 Cu192 Cu 0.22850 0.79534 0.30877
 N193 N 0.22462 0.82070 0.28065
 N194 N 0.23425 0.81600 0.29440
 C195 C 0.24784 0.82749 0.29632
 C196 C 0.24656 0.83995 0.28306
 C197 C 0.23177 0.83537 0.27331
 H198 H 0.25787 0.82682 0.30656
 H199 H 0.22666 0.84218 0.26179
 N200 N 0.22056 0.77402 0.32163
 N201 N 0.20656 0.76458 0.31683
 C202 C 0.20456 0.75094 0.32818
 C203 C 0.21791 0.75192 0.34059
 C204 C 0.22784 0.76662 0.33616
 H205 H 0.19418 0.74102 0.32752
 H206 H 0.23945 0.77152 0.34303
 H207 H 0.20153 0.79514 0.30353
 H208 H 0.21593 0.78136 0.28883
 N209 N 0.47266 0.42932 0.47572
 N210 N 0.45881 0.43441 0.48506
 C211 C 0.45654 0.42310 0.49868
 C212 C 0.46967 0.41038 0.49773
 C213 C 0.47968 0.41462 0.48307
 H214 H 0.44616 0.42399 0.50854
 H215 H 0.49117 0.40756 0.47814
 Cu216 Cu 0.44508 0.45527 0.47847
 Cu217 Cu 0.48052 0.44205 0.45474
 Cu218 Cu 0.45587 0.47885 0.44224
 N219 N 0.43114 0.47571 0.47104
 N220 N 0.43544 0.48487 0.45686
 C221 C 0.42370 0.49819 0.45471
 C222 C 0.41148 0.49724 0.46824
 C223 C 0.41649 0.48290 0.47839
 H224 H 0.42401 0.50783 0.44411
 H225 H 0.40993 0.47810 0.49018
 N226 N 0.47698 0.47068 0.42916
 N227 N 0.48638 0.45665 0.43392
 C228 C 0.49991 0.45450 0.42243
 C229 C 0.49888 0.46777 0.40996
 C230 C 0.48429 0.47781 0.41452
 H231 H 0.50979 0.44409 0.42305
 H232 H 0.47941 0.48943 0.40767
 H233 H 0.47050 0.46657 0.46188
 H234 H 0.45577 0.45207 0.44821
 N235 N -0.02719 -0.07073 0.97508
 N236 N -0.04105 -0.06565 0.98441
 C237 C -0.04333 -0.07698 0.99802
 C238 C -0.03021 -0.08970 0.99706
 C239 C -0.02018 -0.08543 0.98243
 H240 H -0.05373 -0.07609 1.00786
 H241 H -0.00868 -0.09249 0.97751
 Cu242 Cu -0.05477 -0.04478 0.97782
 Cu243 Cu -0.01930 -0.05797 0.95412
 Cu244 Cu -0.04394 -0.02115 0.94164
 N245 N -0.06870 -0.02433 0.97040
 N246 N -0.06439 -0.01515 0.95623
 C247 C -0.07612 -0.00183 0.95409
 C248 C -0.08835 -0.00279 0.96761
 C249 C -0.08336 -0.01715 0.97774
 H250 H -0.07580 0.00782 0.94350
 H251 H -0.08993 -0.02196 0.98952
 N252 N -0.02280 -0.02932 0.92857
 N253 N -0.01341 -0.04335 0.93333
 C254 C 0.00013 -0.04549 0.92186
 C255 C -0.00088 -0.03220 0.90940
 C256 C -0.01548 -0.02217 0.91395
 H257 H 0.01001 -0.05590 0.92248
 H258 H -0.02035 -0.01055 0.90710
 H259 H -0.02933 -0.03346 0.96128
 H260 H -0.04403 -0.04795 0.94757
 N261 N 1.02746 0.57077 0.97532
 N262 N 1.04134 0.56569 0.98463
 C263 C 1.04366 0.57702 0.99823
 C264 C 1.03053 0.58974 0.99729
 C265 C 1.02047 0.58548 0.98267
 H266 H 1.05407 0.57614 1.00805
 H267 H 1.00896 0.59254 0.97776
 Cu268 Cu 1.05505 0.54482 0.97803
 Cu269 Cu 1.01952 0.55800 0.95438
 Cu270 Cu 1.04412 0.52117 0.94188
 N271 N 1.06895 0.52436 0.97060
 N272 N 1.06460 0.51517 0.95645
 C273 C 1.07633 0.50184 0.95428
 C274 C 1.08859 0.50281 0.96778
 C275 C 1.08363 0.51718 0.97791
 H276 H 1.07598 0.49219 0.94371
 H277 H 1.09023 0.52200 0.98968
 N278 N 1.02297 0.52934 0.92885
 N279 N 1.01359 0.54337 0.93361
 C280 C 1.00003 0.54552 0.92215
 C281 C 1.00101 0.53222 0.90971
 C282 C 1.01561 0.52218 0.91424
 H283 H 0.99016 0.55593 0.92278
 H284 H 1.02046 0.51055 0.90740
 H285 H 1.02956 0.53350 0.96154
 H286 H 1.04424 0.54797 0.94779
 N287 N 0.52726 0.07090 0.47568
 N288 N 0.54115 0.06583 0.48498
 C289 C 0.54345 0.07717 0.49858
 C290 C 0.53031 0.08988 0.49764
 C291 C 0.52025 0.08560 0.48303
 H292 H 0.55387 0.07630 0.50840
 H293 H 0.50874 0.09264 0.47812
 Cu294 Cu 0.55488 0.04498 0.47839
 Cu295 Cu 0.51933 0.05812 0.45474
 Cu296 Cu 0.54397 0.02131 0.44225
 N297 N 0.56881 0.02454 0.47095
 N298 N 0.56447 0.01534 0.45680
 C299 C 0.57621 0.00203 0.45464
 C300 C 0.58848 0.00302 0.46813
 C301 C 0.58349 0.01738 0.47826
 H302 H 0.57587 -0.00762 0.44406
 H303 H 0.59009 0.02221 0.49002
 N304 N 0.52280 0.02945 0.42921
 N305 N 0.51341 0.04347 0.43397
 C306 C 0.49984 0.04559 0.42252
 C307 C 0.50083 0.03229 0.41008
 C308 C 0.51545 0.02228 0.41461
 H309 H 0.48996 0.05599 0.42315
 H310 H 0.52032 0.01065 0.40777
 H311 H 0.52940 0.03363 0.46190
 H312 H 0.54406 0.04811 0.44815
 N313 N -0.02734 0.07104 0.52447
 N314 N -0.04123 0.06598 0.51517
 C315 C -0.04354 0.07732 0.50158
 C316 C -0.03040 0.09003 0.50251
 C317 C -0.02033 0.08574 0.51711
 H318 H -0.05397 0.07645 0.49176
 H319 H -0.00880 0.09279 0.52201
 Cu320 Cu -0.05496 0.04512 0.52177
 Cu321 Cu -0.01939 0.05825 0.54539
 Cu322 Cu -0.04404 0.02143 0.55789
 N323 N -0.06889 0.02467 0.52920
 N324 N -0.06454 0.01546 0.54334
 C325 C -0.07628 0.00214 0.54550
 C326 C -0.08855 0.00313 0.53201
 C327 C -0.08358 0.01750 0.52189
 H328 H -0.07593 -0.00753 0.55606
 H329 H -0.09018 0.02233 0.51013
 N330 N -0.02286 0.02956 0.57091
 N331 N -0.01346 0.04360 0.56615
 C332 C 0.00012 0.04571 0.57759
 C333 C -0.00087 0.03240 0.59003
 C334 C -0.01550 0.02239 0.58550
 H335 H 0.01001 0.05611 0.57696
 H336 H -0.02036 0.01076 0.59234
 H337 H -0.02947 0.03376 0.53823
 H338 H -0.04412 0.04824 0.55200
 N339 N 0.47252 0.57078 0.02472
 N340 N 0.45866 0.56570 0.01539
 C341 C 0.45637 0.57704 0.00180
 C342 C 0.46950 0.58977 0.00277
 C343 C 0.47954 0.58549 0.01740
 H344 H 0.44598 0.57617 -0.00805
 H345 H 0.49104 0.59255 0.02233
 Cu346 Cu 0.44494 0.54482 0.02194
 Cu347 Cu 0.48043 0.55798 0.04566
 Cu348 Cu 0.45580 0.52113 0.05808
 N349 N 0.43102 0.52435 0.02933
 N350 N 0.43534 0.51514 0.04348
 C351 C 0.42361 0.50181 0.04560
 C352 C 0.41137 0.50279 0.03208
 C353 C 0.41636 0.51717 0.02198
 H354 H 0.42394 0.49214 0.05617
 H355 H 0.40978 0.52200 0.01021
 N356 N 0.47694 0.52929 0.07116
 N357 N 0.48632 0.54333 0.06643
 C358 C 0.49987 0.54546 0.07791
 C359 C 0.49886 0.53215 0.09034
 C360 C 0.48427 0.52212 0.08577
 H361 H 0.50974 0.55588 0.07730
 H362 H 0.47940 0.51048 0.09260
 H363 H 0.47040 0.53349 0.03847
 H364 H 0.45569 0.54794 0.05220
 N365 N 0.52753 -0.07076 0.02496
 N366 N 0.54139 -0.06568 0.01562
 C367 C 0.54364 -0.07700 0.00200
 C368 C 0.53050 -0.08971 0.00296
 C369 C 0.52049 -0.08545 0.01761
 H370 H 0.55402 -0.07612 -0.00785
 H371 H 0.50898 -0.09250 0.02254
 Cu372 Cu 0.55515 -0.04483 0.02220
 Cu373 Cu 0.51968 -0.05801 0.04593
 Cu374 Cu 0.54438 -0.02122 0.05841
 N375 N 0.56910 -0.02440 0.02962
 N376 N 0.56482 -0.01522 0.04380
 C377 C 0.57657 -0.00191 0.04593
 C378 C 0.58878 -0.00287 0.03239
 C379 C 0.58376 -0.01722 0.02226
 H380 H 0.57627 0.00774 0.05652
 H381 H 0.59031 -0.02203 0.01047
 N382 N 0.52324 -0.02938 0.07150
 N383 N 0.51383 -0.04340 0.06674
 C384 C 0.50029 -0.04553 0.07822
 C385 C 0.50133 -0.03225 0.09068
 C386 C 0.51594 -0.02223 0.08613
 H387 H 0.49040 -0.05593 0.07759
 H388 H 0.52083 -0.01061 0.09297
 H389 H 0.52973 -0.03350 0.03878
 H390 H 0.54443 -0.04801 0.05247
 N391 N 1.02725 0.42939 0.52438
 N392 N 1.04110 0.43448 0.51503
 C393 C 1.04334 0.42318 0.50140
 C394 C 1.03020 0.41047 0.50235
 C395 C 1.02020 0.41472 0.51701
 H396 H 1.05372 0.42407 0.49154
 H397 H 1.00870 0.40766 0.52194
 Cu398 Cu 1.05487 0.45532 0.52163
 Cu399 Cu 1.01941 0.44212 0.54537
 Cu400 Cu 1.04413 0.47889 0.55788
 N401 N 1.06884 0.47574 0.52907
 N402 N 1.06456 0.48489 0.54326
 C403 C 1.07632 0.49820 0.54542
 C404 C 1.08853 0.49725 0.53187
 C405 C 1.08350 0.48292 0.52172
 H406 H 1.07603 0.50783 0.55602
 H407 H 1.09004 0.47812 0.50992
 N408 N 1.02300 0.47072 0.57097
 N409 N 1.01358 0.45671 0.56620
 C410 C 1.00005 0.45456 0.57769
 C411 C 1.00110 0.46783 0.59016
 C412 C 1.01571 0.47785 0.58561
 H413 H 0.99015 0.44417 0.57706
 H414 H 1.02061 0.48946 0.59247
 H415 H 1.02947 0.46663 0.53824
 H416 H 1.04417 0.45210 0.55190
 C417 C 0.40047 0.00797 0.22640
 H418 H 0.40114 0.02005 0.23409
 C419 C 0.41210 0.00540 0.21224
 H420 H 0.42174 0.01556 0.20894
 C421 C 0.38725 -0.02019 0.22141
 H422 H 0.37776 -0.03025 0.22519
 C423 C 0.39865 -0.02328 0.20716
 H424 H 0.39777 -0.03564 0.19988
 N425 N 0.38822 -0.00466 0.23058
 C426 C 0.34602 0.02373 0.25828
 H427 H 0.34528 0.01603 0.27033
 C428 C 0.33445 0.03800 0.25567
 H429 H 0.32480 0.04136 0.26576
 C430 C 0.35933 0.02865 0.23026
 H431 H 0.36884 0.02482 0.22027
 C432 C 0.34801 0.04301 0.22712
 H433 H 0.34896 0.05029 0.21480
 Zn434 Zn 0.37323 -0.00024 0.25021
 N435 N 0.35829 0.01948 0.24574
 C436 C 0.38709 0.01976 0.27904
 N437 N 0.38812 0.00422 0.26991
 C438 C 0.40037 -0.00838 0.27416
 C439 C 0.41194 -0.00577 0.28838
 C440 C 0.39842 0.02290 0.29335
 C441 C 0.34610 -0.02429 0.24202
 C442 C 0.33452 -0.03856 0.24459
 C443 C 0.34795 -0.04351 0.27321
 C444 C 0.35929 -0.02916 0.27010
 N445 N 0.35830 -0.02000 0.25461
 H446 H 0.37760 0.02979 0.27521
 H447 H 0.40110 -0.02047 0.26649
 H448 H 0.42158 -0.01590 0.29174
 H449 H 0.39749 0.03526 0.30060
 H450 H 0.34541 -0.01661 0.22995
 H451 H 0.32491 -0.04194 0.23447
 H452 H 0.34885 -0.05077 0.28555
 H453 H 0.36874 -0.02529 0.28013
 C454 C 0.33550 0.04774 0.23997
 C455 C 0.41114 -0.01034 0.20251
 C456 C 0.33550 -0.04828 0.26032
 C457 C 0.41091 0.00999 0.29808
 C458 C 0.09980 -0.00834 0.72577
 H459 H 0.09907 -0.02043 0.73345
 C460 C 0.08821 -0.00573 0.71157
 H461 H 0.07854 -0.01586 0.70824
 C462 C 0.11310 0.01978 0.72085
 H463 H 0.12261 0.02981 0.72466
 C464 C 0.10175 0.02292 0.70656
 H465 H 0.10268 0.03529 0.69931
 N466 N 0.11207 0.00425 0.72999
 C467 C 0.15411 -0.02427 0.75783
 H468 H 0.15483 -0.01657 0.76988
 C469 C 0.16566 -0.03856 0.75525
 H470 H 0.17528 -0.04194 0.76537
 C471 C 0.14086 -0.02916 0.72978
 H472 H 0.13139 -0.02530 0.71976
 C473 C 0.15217 -0.04353 0.72667
 H474 H 0.15124 -0.05081 0.71435
 Zn475 Zn 0.12699 -0.00022 0.74967
 N476 N 0.14189 -0.01999 0.74526
 C477 C 0.11300 -0.02014 0.77849
 N478 N 0.11203 -0.00462 0.76933
 C479 C 0.09982 0.00802 0.77353
 C480 C 0.08821 0.00547 0.78772
 C481 C 0.10163 -0.02323 0.79277
 C482 C 0.15422 0.02373 0.74153
 C483 C 0.16582 0.03797 0.74411
 C484 C 0.15234 0.04300 0.77269
 C485 C 0.14098 0.02867 0.76957
 N486 N 0.14197 0.01950 0.75409
 H487 H 0.12247 -0.03022 0.77470
 H488 H 0.09914 0.02011 0.76584
 H489 H 0.07859 0.01563 0.79104
 H490 H 0.10251 -0.03559 0.80004
 H491 H 0.15492 0.01603 0.72948
 H492 H 0.17546 0.04132 0.73401
 H493 H 0.15144 0.05028 0.78501
 H494 H 0.13149 0.02485 0.77958
 C495 C 0.16463 -0.04829 0.73955
 C496 C 0.08924 0.01003 0.70186
 C497 C 0.16483 0.04772 0.75982
 C498 C 0.08917 -0.01028 0.79745
 C499 C 0.59943 0.49167 0.22624
 H500 H 0.59870 0.47959 0.23394
 C501 C 0.58784 0.49426 0.21204
 H502 H 0.57818 0.48413 0.20872
 C503 C 0.61272 0.51979 0.22129
 H504 H 0.62223 0.52982 0.22508
 C505 C 0.60138 0.52291 0.20699
 H506 H 0.60231 0.53526 0.19972
 N507 N 0.61169 0.50427 0.23045
 C508 C 0.65375 0.47580 0.25830
 H509 H 0.65448 0.48352 0.27034
 C510 C 0.66530 0.46151 0.25575
 H511 H 0.67492 0.45814 0.26586
 C512 C 0.64049 0.47087 0.23026
 H513 H 0.63101 0.47471 0.22025
 C514 C 0.65179 0.45648 0.22718
 H515 H 0.65085 0.44919 0.21487
 Zn516 Zn 0.62661 0.49982 0.25013
 N517 N 0.64152 0.48006 0.24573
 C518 C 0.61264 0.47988 0.27895
 N519 N 0.61165 0.49541 0.26979
 C520 C 0.59942 0.50803 0.27399
 C521 C 0.58781 0.50546 0.28818
 C522 C 0.60127 0.47678 0.29324
 C523 C 0.65383 0.52380 0.24202
 C524 C 0.66542 0.53804 0.24462
 C525 C 0.65192 0.54305 0.27319
 C526 C 0.64056 0.52871 0.27005
 N527 N 0.64157 0.51955 0.25457
 H528 H 0.62212 0.46982 0.27516
 H529 H 0.59873 0.52011 0.26629
 H530 H 0.57818 0.51562 0.29149
 H531 H 0.60217 0.46443 0.30051
 H532 H 0.65454 0.51610 0.22996
 H533 H 0.67508 0.54140 0.23453
 H534 H 0.65100 0.55031 0.28551
 H535 H 0.63106 0.52488 0.28005
 C536 C 0.66426 0.45174 0.24006
 C537 C 0.58887 0.51000 0.20231
 C538 C 0.66442 0.54777 0.26033
 C539 C 0.58879 0.48971 0.29791
 C540 C 0.90049 0.50811 0.72605
 H541 H 0.90118 0.52020 0.73374
 C542 C 0.91211 0.50554 0.71188
 H543 H 0.92175 0.51569 0.70856
 C544 C 0.88726 0.47997 0.72109
 H545 H 0.87777 0.46991 0.72488
 C546 C 0.89864 0.47686 0.70682
 H547 H 0.89774 0.46450 0.69956
 N548 N 0.88825 0.49550 0.73025
 C549 C 0.84608 0.52391 0.75798
 H550 H 0.84536 0.51622 0.77004
 C551 C 0.83449 0.53815 0.75536
 H552 H 0.82484 0.54151 0.76545
 C553 C 0.85936 0.52881 0.72994
 H554 H 0.86886 0.52498 0.71995
 C555 C 0.84801 0.54315 0.72680
 H556 H 0.84894 0.55041 0.71447
 Zn557 Zn 0.87327 0.49992 0.74989
 N558 N 0.85834 0.51966 0.74543
 C559 C 0.88717 0.51990 0.77872
 N560 N 0.88818 0.50437 0.76958
 C561 C 0.90042 0.49176 0.77382
 C562 C 0.91199 0.49435 0.78803
 C563 C 0.89851 0.52302 0.79303
 C564 C 0.84612 0.47591 0.74170
 C565 C 0.83453 0.46165 0.74427
 C566 C 0.84797 0.45666 0.77287
 C567 C 0.85932 0.47101 0.76978
 N568 N 0.85833 0.48018 0.75429
 H569 H 0.87769 0.52995 0.77490
 H570 H 0.90113 0.47967 0.76614
 H571 H 0.92163 0.48420 0.79138
 H572 H 0.89759 0.53539 0.80028
 H573 H 0.84543 0.48361 0.72964
 H574 H 0.82491 0.45829 0.73415
 H575 H 0.84887 0.44939 0.78520
 H576 H 0.86878 0.47485 0.77980
 C577 C 0.83551 0.54788 0.73964
 C578 C 0.91113 0.48979 0.70215
 C579 C 0.83551 0.45192 0.75998
 C580 C 0.91099 0.51011 0.79774
 C581 C 0.22598 0.40327 0.00789
 H582 H 0.23374 0.40397 0.01992
 C583 C 0.21167 0.41482 0.00537
 H584 H 0.20833 0.42441 0.01551
 C585 C 0.22096 0.39009 -0.02016
 H586 H 0.22478 0.38064 -0.03020
 C587 C 0.20656 0.40140 -0.02321
 H588 H 0.19923 0.40049 -0.03551
 N589 N 0.23021 0.39108 -0.00471
 C590 C 0.25825 0.34900 0.02346
 H591 H 0.27035 0.34831 0.01575
 C592 C 0.25569 0.33739 0.03763
 H593 H 0.26586 0.32776 0.04091
 C594 C 0.23006 0.36221 0.02847
 H595 H 0.21999 0.37168 0.02471
 C596 C 0.22697 0.35084 0.04274
 H597 H 0.21460 0.35172 0.05002
 Zn598 Zn 0.25000 0.37618 -0.00036
 N599 N 0.24561 0.36123 0.01929
 C600 C 0.27902 0.39004 0.01951
 N601 N 0.26979 0.39109 0.00405
 C602 C 0.27403 0.40332 -0.00850
 C603 C 0.28833 0.41487 -0.00593
 C604 C 0.29342 0.40135 0.02260
 C605 C 0.24178 0.34908 -0.02427
 C606 C 0.24436 0.33751 -0.03847
 C607 C 0.27308 0.35100 -0.04351
 C608 C 0.26996 0.36232 -0.02922
 N609 N 0.25441 0.36130 -0.02006
 H610 H 0.27520 0.38056 0.02951
 H611 H 0.26628 0.40406 -0.02053
 H612 H 0.29168 0.42450 -0.01603
 H613 H 0.30075 0.40040 0.03490
 H614 H 0.22967 0.34836 -0.01658
 H615 H 0.23420 0.32787 -0.04179
 H616 H 0.28546 0.35191 -0.05078
 H617 H 0.28003 0.37180 -0.02542
 C618 C 0.23992 0.33836 0.04737
 C619 C 0.20185 0.41382 -0.01030
 C620 C 0.26014 0.33852 -0.04819
 C621 C 0.29813 0.41383 0.00974
 C622 C 0.72618 0.09652 -0.00823
 H623 H 0.73391 0.09580 -0.02028
 C624 C 0.71188 0.08497 -0.00567
 H625 H 0.70851 0.07536 -0.01578
 C626 C 0.72122 0.10975 0.01980
 H627 H 0.72506 0.11922 0.02981
 C628 C 0.70683 0.09844 0.02290
 H629 H 0.69952 0.09936 0.03520
 N630 N 0.73043 0.10873 0.00433
 C631 C 0.75836 0.15081 -0.02397
 H632 H 0.77048 0.15154 -0.01629
 C633 C 0.75574 0.16240 -0.03815
 H634 H 0.76588 0.17205 -0.04148
 C635 C 0.73018 0.13755 -0.02890
 H636 H 0.72013 0.12806 -0.02510
 C637 C 0.72703 0.14889 -0.04318
 H638 H 0.71463 0.14797 -0.05043
 Zn639 Zn 0.75020 0.12366 -0.00008
 N640 N 0.74574 0.13857 -0.01976
 C641 C 0.77922 0.10982 -0.01996
 N642 N 0.77000 0.10878 -0.00449
 C643 C 0.77427 0.09657 0.00807
 C644 C 0.78858 0.08504 0.00551
 C645 C 0.79362 0.09853 -0.02305
 C646 C 0.74199 0.15080 0.02378
 C647 C 0.74456 0.16238 0.03797
 C648 C 0.77329 0.14893 0.04303
 C649 C 0.77018 0.13759 0.02875
 N650 N 0.75463 0.13858 0.01958
 H651 H 0.77537 0.11928 -0.02997
 H652 H 0.76653 0.09584 0.02011
 H653 H 0.79195 0.07543 0.01562
 H654 H 0.80093 0.09947 -0.03536
 H655 H 0.72988 0.15149 0.01609
 H656 H 0.73439 0.17200 0.04129
 H657 H 0.78567 0.14803 0.05031
 H658 H 0.78026 0.12812 0.02496
 C659 C 0.73994 0.16138 -0.04786
 C660 C 0.70210 0.08599 0.01002
 C661 C 0.76034 0.16139 0.04771
 C662 C 0.79836 0.08608 -0.01017
 C663 C 0.22602 0.59670 0.49170
 H664 H 0.23381 0.59598 0.47970
 C665 C 0.21171 0.58515 0.49421
 H666 H 0.20840 0.57553 0.48409
 C667 C 0.22093 0.60995 0.51970
 H668 H 0.22472 0.61943 0.52973
 C669 C 0.20652 0.59865 0.52274
 H670 H 0.19915 0.59958 0.53501
 N671 N 0.23022 0.60893 0.50428
 C672 C 0.25835 0.65098 0.47614
 H673 H 0.27042 0.65169 0.48389
 C674 C 0.25582 0.66257 0.46195
 H675 H 0.26599 0.67222 0.45869
 C676 C 0.23019 0.63773 0.47103
 H677 H 0.22010 0.62825 0.47477
 C678 C 0.22713 0.64908 0.45674
 H679 H 0.21478 0.64818 0.44941
 Zn680 Zn 0.25003 0.62383 0.49997
 N681 N 0.24569 0.63874 0.48027
 C682 C 0.27913 0.60995 0.48025
 N683 N 0.26984 0.60893 0.49567
 C684 C 0.27402 0.59672 0.50826
 C685 C 0.28833 0.58518 0.50577
 C686 C 0.29354 0.59865 0.47724
 C687 C 0.24170 0.65099 0.52377
 C688 C 0.24422 0.66259 0.53796
 C689 C 0.27291 0.64912 0.54319
 C690 C 0.26986 0.63776 0.52890
 N691 N 0.25436 0.63876 0.51965
 H692 H 0.27535 0.61942 0.47022
 H693 H 0.26623 0.59600 0.52026
 H694 H 0.29164 0.57556 0.51590
 H695 H 0.30091 0.59958 0.46497
 H696 H 0.22964 0.65169 0.51601
 H697 H 0.23404 0.67223 0.54120
 H698 H 0.28525 0.64822 0.55052
 H699 H 0.27994 0.62828 0.52517
 C700 C 0.24009 0.66158 0.45214
 C701 C 0.20185 0.58618 0.50985
 C702 C 0.25995 0.66160 0.54777
 C703 C 0.29820 0.58620 0.49014
 C704 C 0.72600 0.90364 0.50818
 H705 H 0.73377 0.90435 0.52020
 C706 C 0.71169 0.91518 0.50566
 H707 H 0.70836 0.92479 0.51578
 C708 C 0.72095 0.89042 0.48015
 H709 H 0.72475 0.88096 0.47013
 C710 C 0.70655 0.90172 0.47710
 H711 H 0.69920 0.90080 0.46482
 N712 N 0.73021 0.89143 0.49559
 C713 C 0.75825 0.84937 0.52380
 H714 H 0.77034 0.84868 0.51609
 C715 C 0.75567 0.83777 0.53798
 H716 H 0.76583 0.82813 0.54127
 C717 C 0.73007 0.86260 0.52880
 H718 H 0.71999 0.87207 0.52503
 C719 C 0.72696 0.85124 0.54307
 H720 H 0.71458 0.85213 0.55035
 Zn721 Zn 0.75000 0.87652 0.49995
 N722 N 0.74561 0.86160 0.51962
 C723 C 0.77905 0.89041 0.51976
 N724 N 0.76980 0.89142 0.50432
 C725 C 0.77403 0.90364 0.49174
 C726 C 0.78834 0.91518 0.49428
 C727 C 0.79345 0.90171 0.52283
 C728 C 0.74173 0.84939 0.47609
 C729 C 0.74429 0.83780 0.46191
 C730 C 0.77301 0.85125 0.45681
 C731 C 0.76992 0.86261 0.47108
 N732 N 0.75438 0.86161 0.48027
 H733 H 0.77523 0.88094 0.52979
 H734 H 0.76627 0.90436 0.47971
 H735 H 0.79168 0.92480 0.48416
 H736 H 0.80079 0.90079 0.53513
 H737 H 0.72963 0.84869 0.48380
 H738 H 0.73412 0.82816 0.45862
 H739 H 0.78539 0.85215 0.44953
 H740 H 0.78000 0.87208 0.47486
 C741 C 0.73990 0.83875 0.54772
 C742 C 0.70185 0.91417 0.49000
 C743 C 0.76006 0.83878 0.45217
 C744 C 0.79816 0.91416 0.50995
 C745 C 0.00820 0.22644 0.40178
 H746 H 0.02021 0.23433 0.40246
 C747 C 0.00582 0.21219 0.41335
 H748 H 0.01603 0.20902 0.42294
 C749 C -0.01993 0.22105 0.38863
 H750 H -0.03006 0.22471 0.37919
 C751 C -0.02285 0.20670 0.39996
 H752 H -0.03513 0.19924 0.39909
 N753 N -0.00450 0.23046 0.38960
 C754 C 0.02354 0.25872 0.34766
 H755 H 0.01565 0.27071 0.34695
 C756 C 0.03782 0.25631 0.33610
 H757 H 0.04101 0.26648 0.32649
 C758 C 0.02889 0.23067 0.36086
 H759 H 0.02521 0.22058 0.37032
 C760 C 0.04327 0.22772 0.34955
 H761 H 0.05073 0.21545 0.35045
 Zn762 Zn -0.00035 0.25024 0.37471
 N763 N 0.01948 0.24607 0.35986
 C764 C 0.01925 0.27946 0.38853
 N765 N 0.00381 0.27007 0.38954
 C766 C -0.00887 0.27413 0.40172
 C767 C -0.00646 0.28840 0.41325
 C768 C 0.02219 0.29384 0.39983
 C769 C -0.02426 0.24167 0.34769
 C770 C -0.03854 0.24405 0.33613
 C771 C -0.04401 0.27267 0.34949
 C772 C -0.02962 0.26977 0.36081
 N773 N -0.02020 0.25436 0.35985
 H774 H 0.02936 0.27578 0.37909
 H775 H -0.02088 0.26625 0.40242
 H776 H -0.01666 0.29159 0.42285
 H777 H 0.03448 0.30128 0.39893
 H778 H -0.01636 0.22969 0.34702
 H779 H -0.04174 0.23384 0.32655
 H780 H -0.05147 0.28493 0.35036
 H781 H -0.02594 0.27988 0.37024
 C782 C 0.04779 0.24068 0.33710
 C783 C -0.00983 0.20221 0.41239
 C784 C -0.04852 0.25967 0.33708
 C785 C 0.00919 0.29836 0.41226
 C786 C -0.00830 0.72621 0.09778
 H787 H -0.02032 0.73406 0.09708
 C788 C -0.00588 0.71194 0.08625
 H789 H -0.01608 0.70871 0.07666
 C790 C 0.01984 0.72093 0.11096
 H791 H 0.02996 0.72464 0.12039
 C792 C 0.02280 0.70656 0.09966
 H793 H 0.03510 0.69913 0.10056
 N794 N 0.00439 0.73030 0.10995
 C795 C -0.02372 0.75858 0.15182
 H796 H -0.01588 0.77060 0.15248
 C797 C -0.03797 0.75613 0.16341
 H798 H -0.04118 0.76631 0.17301
 C799 C -0.02899 0.73046 0.13870
 H800 H -0.02528 0.72036 0.12927
 C801 C -0.04333 0.72748 0.15006
 H802 H -0.05073 0.71517 0.14922
 Zn803 Zn 0.00019 0.75010 0.12479
 N804 N -0.01963 0.74591 0.13965
 C805 C -0.01946 0.77925 0.11089
 N806 N -0.00401 0.76988 0.10991
 C807 C 0.00867 0.77394 0.09773
 C808 C 0.00625 0.78819 0.08617
 C809 C -0.02241 0.79360 0.09956
 C810 C 0.02409 0.74168 0.15185
 C811 C 0.03834 0.74413 0.16343
 C812 C 0.04375 0.77274 0.15000
 C813 C 0.02939 0.76975 0.13866
 N814 N 0.02002 0.75432 0.13965
 H815 H -0.02958 0.77557 0.12033
 H816 H 0.02069 0.76609 0.09705
 H817 H 0.01646 0.79139 0.07657
 H818 H -0.03471 0.80103 0.10045
 H819 H 0.01623 0.72967 0.15254
 H820 H 0.04154 0.73397 0.17306
 H821 H 0.05117 0.78503 0.14912
 H822 H 0.02570 0.77983 0.12920
 C823 C -0.04787 0.74045 0.16249
 C824 C 0.00980 0.70201 0.08724
 C825 C 0.04827 0.75979 0.16246
 C826 C -0.00942 0.79813 0.08713
 C827 C 0.49159 0.22627 0.59828
 H828 H 0.47958 0.23414 0.59759
 C829 C 0.49400 0.21202 0.58672
 H830 H 0.48379 0.20884 0.57711
 C831 C 0.51971 0.22093 0.61146
 H832 H 0.52983 0.22460 0.62091
 C833 C 0.52265 0.20658 0.60014
 H834 H 0.53494 0.19913 0.60103
 N835 N 0.50428 0.23032 0.61047
 C836 C 0.47617 0.25854 0.65237
 H837 H 0.48403 0.27055 0.65307
 C838 C 0.46189 0.25609 0.66393
 H839 H 0.45868 0.26626 0.67354
 C840 C 0.47088 0.23046 0.63920
 H841 H 0.47459 0.22037 0.62975
 C842 C 0.45651 0.22748 0.65052
 H843 H 0.44909 0.21519 0.64963
 Zn844 Zn 0.50009 0.25009 0.62534
 N845 N 0.48025 0.24589 0.64019
 C846 C 0.48047 0.27928 0.61149
 N847 N 0.49591 0.26991 0.61051
 C848 C 0.50861 0.27398 0.59834
 C849 C 0.50620 0.28825 0.58680
 C850 C 0.47752 0.29365 0.60019
 C851 C 0.52398 0.24158 0.65239
 C852 C 0.53824 0.24400 0.66397
 C853 C 0.54367 0.27262 0.65061
 C854 C 0.52931 0.26968 0.63926
 N855 N 0.51992 0.25426 0.64022
 H856 H 0.47035 0.27559 0.62092
 H857 H 0.52062 0.26612 0.59765
 H858 H 0.51640 0.29146 0.57721
 H859 H 0.46523 0.30108 0.60108
 H860 H 0.51610 0.22958 0.65306
 H861 H 0.54143 0.23381 0.67357
 H862 H 0.55112 0.28491 0.64974
 H863 H 0.52563 0.27978 0.62982
 C864 C 0.45196 0.24043 0.66296
 C865 C 0.50966 0.20207 0.58770
 C866 C 0.54819 0.25964 0.66304
 C867 C 0.49053 0.29819 0.58777
 C868 C 0.50835 0.72626 0.90225
 H869 H 0.52038 0.73411 0.90293
 C870 C 0.50594 0.71199 0.91379
 H871 H 0.51615 0.70877 0.92336
 C872 C 0.48018 0.72099 0.88913
 H873 H 0.47005 0.72470 0.87971
 C874 C 0.47723 0.70662 0.90043
 H875 H 0.46492 0.69920 0.89956
 N876 N 0.49564 0.73035 0.89010
 C877 C 0.52371 0.75862 0.84818
 H878 H 0.51587 0.77064 0.84752
 C879 C 0.53794 0.75617 0.83657
 H880 H 0.54114 0.76634 0.82697
 C881 C 0.52898 0.73050 0.86130
 H882 H 0.52528 0.72041 0.87074
 C883 C 0.54331 0.72752 0.84993
 H884 H 0.55070 0.71521 0.85077
 Zn885 Zn 0.49983 0.75015 0.87524
 N886 N 0.51963 0.74595 0.86036
 C887 C 0.51951 0.77931 0.88910
 N888 N 0.50406 0.76993 0.89010
 C889 C 0.49138 0.77400 0.90229
 C890 C 0.49382 0.78825 0.91385
 C891 C 0.52248 0.79366 0.90041
 C892 C 0.47589 0.74170 0.84823
 C893 C 0.46161 0.74414 0.83667
 C894 C 0.45624 0.77275 0.85008
 C895 C 0.47061 0.76978 0.86140
 N896 N 0.47998 0.75435 0.86041
 H897 H 0.52961 0.77562 0.87964
 H898 H 0.47936 0.76614 0.90300
 H899 H 0.48363 0.79145 0.92346
 H900 H 0.53478 0.80109 0.89951
 H901 H 0.48375 0.72969 0.84753
 H902 H 0.45839 0.73396 0.82706
 H903 H 0.44881 0.78504 0.85096
 H904 H 0.47432 0.77987 0.87084
 C905 C 0.54784 0.74049 0.83749
 C906 C 0.49025 0.70207 0.91283
 C907 C 0.45168 0.75979 0.83764
 C908 C 0.50950 0.79819 0.91286
 C909 C 0.14531 0.22223 0.25876
 C910 C 0.13299 0.22456 0.26868
 C911 C 0.11828 0.22735 0.28053
 C912 C 0.11462 0.21496 0.29386
 C913 C 0.10032 0.21767 0.30536
 C914 C 0.08960 0.23278 0.30357
 C915 C 0.09326 0.24517 0.29024
 C916 C 0.10757 0.24246 0.27874
 C917 C 0.07487 0.23556 0.31540
 C918 C 0.06253 0.23790 0.32529
 H919 H 0.12282 0.20323 0.29536
 H920 H 0.09760 0.20801 0.31562
 H921 H 0.08506 0.25689 0.28874
 H922 H 0.11028 0.25212 0.26847
 C923 C 0.64461 0.72156 0.75834
 C924 C 0.63241 0.72395 0.76840
 C925 C 0.61783 0.72680 0.78039
 C926 C 0.61746 0.74197 0.79110
 C927 C 0.60327 0.74475 0.80273
 C928 C 0.58939 0.73238 0.80369
 C929 C 0.58977 0.71721 0.79298
 C930 C 0.60396 0.71442 0.78136
 C931 C 0.57477 0.73525 0.81562
 C932 C 0.56250 0.73764 0.82560
 H933 H 0.62812 0.75163 0.79046
 H934 H 0.60311 0.75653 0.81095
 H935 H 0.57910 0.70755 0.79362
 H936 H 0.60411 0.70265 0.77313
 C937 C 0.35446 0.77840 0.75892
 C938 C 0.36672 0.77604 0.76892
 C939 C 0.38137 0.77323 0.78084
 C940 C 0.38476 0.78542 0.79442
 C941 C 0.39902 0.78269 0.80598
 C942 C 0.40995 0.76776 0.80401
 C943 C 0.40655 0.75556 0.79044
 C944 C 0.39229 0.75829 0.77887
 C945 C 0.42464 0.76496 0.81588
 C946 C 0.43696 0.76261 0.82581
 H947 H 0.37640 0.79701 0.79606
 H948 H 0.40153 0.79220 0.81643
 H949 H 0.41492 0.74398 0.78879
 H950 H 0.38979 0.74879 0.76842
 C951 C -0.14609 0.27775 0.25866
 C952 C -0.13376 0.27547 0.26860
 C953 C -0.11904 0.27274 0.28045
 C954 C -0.11575 0.28487 0.29411
 C955 C -0.10144 0.28222 0.30562
 C956 C -0.09036 0.26742 0.30353
 C957 C -0.09365 0.25529 0.28987
 C958 C -0.10796 0.25794 0.27836
 C959 C -0.07562 0.26470 0.31536
 C960 C -0.06327 0.26241 0.32527
 H961 H -0.12424 0.29636 0.29584
 H962 H -0.09902 0.29168 0.31613
 H963 H -0.08516 0.24380 0.28814
 H964 H -0.11038 0.24848 0.26784
 C965 C -0.14472 0.72158 0.24157
 C966 C -0.13251 0.72397 0.23153
 C967 C -0.11792 0.72681 0.21955
 C968 C -0.10403 0.71445 0.21863
 C969 C -0.08983 0.71722 0.20702
 C970 C -0.08946 0.73236 0.19626
 C971 C -0.10335 0.74471 0.19716
 C972 C -0.11755 0.74194 0.20878
 C973 C -0.07482 0.73522 0.18434
 C974 C -0.06254 0.73761 0.17437
 H975 H -0.10418 0.70270 0.22690
 H976 H -0.07915 0.70758 0.20643
 H977 H -0.10319 0.75646 0.18891
 H978 H -0.12822 0.75158 0.20938
 C979 C 0.35469 0.22170 0.74157
 C980 C 0.36697 0.22406 0.73159
 C981 C 0.38163 0.22687 0.71969
 C982 C 0.39561 0.21460 0.71900
 C983 C 0.40988 0.21735 0.70746
 C984 C 0.41023 0.23238 0.69656
 C985 C 0.39624 0.24465 0.69724
 C986 C 0.38198 0.24190 0.70878
 C987 C 0.42492 0.23522 0.68470
 C988 C 0.43724 0.23760 0.67478
 H989 H 0.39548 0.20294 0.72738
 H990 H 0.42063 0.20778 0.70704
 H991 H 0.39638 0.25632 0.68886
 H992 H 0.37124 0.25147 0.70921
 C993 C 0.64543 0.27816 0.74177
 C994 C 0.63315 0.27581 0.73178
 C995 C 0.61849 0.27301 0.71987
 C996 C 0.60659 0.25901 0.72281
 C997 C 0.59232 0.25629 0.71124
 C998 C 0.58991 0.26756 0.69670
 C999 C 0.60182 0.28155 0.69377
 C1000 C 0.61608 0.28427 0.70533
 C1001 C 0.57522 0.26477 0.68482
 C1002 C 0.56291 0.26243 0.67488
 H1003 H 0.60833 0.25021 0.73401
 H1004 H 0.58319 0.24542 0.71363
 H1005 H 0.60007 0.29035 0.68256
 H1006 H 0.62521 0.29514 0.70294
 C1007 C 0.14526 0.77870 0.24141
 C1008 C 0.13303 0.77629 0.23137
 C1009 C 0.11842 0.77342 0.21942
 C1010 C 0.11660 0.78401 0.20430
 C1011 C 0.10238 0.78123 0.19270
 C1012 C 0.08992 0.76785 0.19618
 C1013 C 0.09174 0.75725 0.21130
 C1014 C 0.10597 0.76003 0.22290
 C1015 C 0.07526 0.76501 0.18428
 C1016 C 0.06297 0.76263 0.17432
 H1017 H 0.12616 0.79439 0.20148
 H1018 H 0.10109 0.78950 0.18105
 H1019 H 0.08218 0.74687 0.21412
 H1020 H 0.10724 0.75177 0.23455
 C1021 C 0.25820 0.14601 0.22036
 C1022 C 0.26791 0.13353 0.22283
 C1023 C 0.27953 0.11864 0.22578
 C1024 C 0.27869 0.10921 0.24173
 C1025 C 0.29002 0.09478 0.24460
 C1026 C 0.30223 0.08972 0.23155
 C1027 C 0.30305 0.09914 0.21559
 C1028 C 0.29172 0.11358 0.21272
 C1029 C 0.31392 0.07490 0.23452
 C1030 C 0.32375 0.06251 0.23701
 H1031 H 0.26932 0.11302 0.25192
 H1032 H 0.28928 0.08758 0.25699
 H1033 H 0.31244 0.09534 0.20541
 H1034 H 0.29248 0.12078 0.20034
 C1035 C 0.75753 0.64554 0.71966
 C1036 C 0.76736 0.63317 0.72221
 C1037 C 0.77912 0.61841 0.72523
 C1038 C 0.79151 0.61352 0.71229
 C1039 C 0.80295 0.59919 0.71522
 C1040 C 0.80204 0.58968 0.73112
 C1041 C 0.78964 0.59456 0.74407
 C1042 C 0.77821 0.60890 0.74113
 C1043 C 0.81382 0.57494 0.73414
 C1044 C 0.82370 0.56260 0.73666
 H1045 H 0.79233 0.62079 0.69995
 H1046 H 0.81248 0.59552 0.70513
 H1047 H 0.78883 0.58730 0.75641
 H1048 H 0.76867 0.61256 0.75123
 C1049 C 0.75771 0.35401 0.77959
 C1050 C 0.76750 0.36643 0.77709
 C1051 C 0.77922 0.38124 0.77413
 C1052 C 0.79237 0.38539 0.78658
 C1053 C 0.80378 0.39977 0.78370
 C1054 C 0.80208 0.41004 0.76835
 C1055 C 0.78893 0.40589 0.75590
 C1056 C 0.77752 0.39151 0.75878
 C1057 C 0.81384 0.42481 0.76538
 C1058 C 0.82371 0.43718 0.76291
 H1059 H 0.79380 0.37753 0.79850
 H1060 H 0.81391 0.40286 0.79342
 H1061 H 0.78751 0.41375 0.74398
 H1062 H 0.76740 0.38841 0.74906
 C1063 C 0.25763 -0.14609 0.28017
 C1064 C 0.26746 -0.13371 0.27762
 C1065 C 0.27920 -0.11893 0.27461
 C1066 C 0.27742 -0.10861 0.25930
 C1067 C 0.28884 -0.09425 0.25638
 C1068 C 0.30209 -0.09016 0.26875
 C1069 C 0.30387 -0.10048 0.28406
 C1070 C 0.29245 -0.11484 0.28698
 C1071 C 0.31385 -0.07539 0.26575
 C1072 C 0.32371 -0.06302 0.26326
 H1073 H 0.26722 -0.11166 0.24964
 H1074 H 0.28735 -0.08635 0.24449
 H1075 H 0.31407 -0.09743 0.29371
 H1076 H 0.29395 -0.12273 0.29886
 C1077 C 0.24218 -0.14638 0.72000
 C1078 C 0.23241 -0.13394 0.72248
 C1079 C 0.22073 -0.11911 0.72543
 C1080 C 0.20765 -0.11488 0.71293
 C1081 C 0.19627 -0.10048 0.71580
 C1082 C 0.19794 -0.09025 0.73118
 C1083 C 0.21103 -0.09448 0.74368
 C1084 C 0.22240 -0.10888 0.74081
 C1085 C 0.18622 -0.07545 0.73414
 C1086 C 0.17639 -0.06306 0.73661
 H1087 H 0.20624 -0.12270 0.70099
 H1088 H 0.18620 -0.09732 0.70605
 H1089 H 0.21243 -0.08666 0.75563
 H1090 H 0.23247 -0.11204 0.75057
 C1091 C 0.74161 0.35345 0.22076
 C1092 C 0.73186 0.36591 0.22321
 C1093 C 0.72020 0.38077 0.22612
 C1094 C 0.72680 0.39643 0.23365
 C1095 C 0.71546 0.41086 0.23649
 C1096 C 0.69747 0.40969 0.23180
 C1097 C 0.69087 0.39403 0.22426
 C1098 C 0.70221 0.37960 0.22143
 C1099 C 0.68579 0.42453 0.23472
 C1100 C 0.67599 0.43694 0.23716
 H1101 H 0.74069 0.39747 0.23733
 H1102 H 0.72070 0.42291 0.24233
 H1103 H 0.67698 0.39298 0.22058
 H1104 H 0.69697 0.36755 0.21559
 C1105 C 0.74236 0.64551 0.28027
 C1106 C 0.73253 0.63313 0.27773
 C1107 C 0.72079 0.61836 0.27471
 C1108 C 0.70802 0.61381 0.28742
 C1109 C 0.69659 0.59946 0.28449
 C1110 C 0.69788 0.58960 0.26883
 C1111 C 0.71065 0.59414 0.25612
 C1112 C 0.72208 0.60849 0.25906
 C1113 C 0.68611 0.57485 0.26581
 C1114 C 0.67623 0.56250 0.26330
 H1115 H 0.70690 0.62135 0.29957
 H1116 H 0.68676 0.59606 0.29440
 H1117 H 0.71177 0.58661 0.24397
 H1118 H 0.73191 0.61189 0.24914
 C1119 C 0.24258 0.14567 0.77945
 C1120 C 0.23281 0.13323 0.77695
 C1121 C 0.22111 0.11841 0.77399
 C1122 C 0.20889 0.11338 0.78705
 C1123 C 0.19749 0.09900 0.78417
 C1124 C 0.19827 0.08958 0.76821
 C1125 C 0.21049 0.09460 0.75515
 C1126 C 0.22189 0.10899 0.75804
 C1127 C 0.18651 0.07481 0.76523
 C1128 C 0.17664 0.06245 0.76276
 H1129 H 0.20817 0.12058 0.79944
 H1130 H 0.18809 0.09523 0.79435
 H1131 H 0.21120 0.08741 0.74277
 H1132 H 0.23129 0.11276 0.74785
 C1133 C 0.22057 0.26012 0.14452
 C1134 C 0.22301 0.27000 0.13222
 C1135 C 0.22592 0.28179 0.11753
 C1136 C 0.21449 0.29621 0.11476
 C1137 C 0.21733 0.30769 0.10050
 C1138 C 0.23161 0.30480 0.08896
 C1139 C 0.24304 0.29038 0.09173
 C1140 C 0.24020 0.27890 0.10599
 C1141 C 0.23454 0.31662 0.07430
 C1142 C 0.23699 0.32653 0.06202
 H1143 H 0.20342 0.29857 0.12361
 H1144 H 0.20842 0.31880 0.09848
 H1145 H 0.25412 0.28802 0.08288
 H1146 H 0.24912 0.26779 0.10801
 C1147 C 0.72021 0.76024 0.64458
 C1148 C 0.72271 0.77019 0.63234
 C1149 C 0.72570 0.78205 0.61773
 C1150 C 0.71430 0.79650 0.61498
 C1151 C 0.71720 0.80802 0.60076
 C1152 C 0.73150 0.80514 0.58924
 C1153 C 0.74289 0.79069 0.59199
 C1154 C 0.74000 0.77917 0.60621
 C1155 C 0.73447 0.81699 0.57461
 C1156 C 0.73695 0.82691 0.56235
 H1157 H 0.70320 0.79885 0.62380
 H1158 H 0.70831 0.81916 0.59876
 H1159 H 0.75399 0.78834 0.58316
 H1160 H 0.74889 0.76804 0.60821
 C1161 C 0.77965 0.76027 0.35530
 C1162 C 0.77716 0.77021 0.36754
 C1163 C 0.77419 0.78207 0.38215
 C1164 C 0.76049 0.77865 0.39424
 C1165 C 0.75761 0.79018 0.40845
 C1166 C 0.76842 0.80517 0.41064
 C1167 C 0.78212 0.80859 0.39856
 C1168 C 0.78500 0.79706 0.38434
 C1169 C 0.76546 0.81701 0.42527
 C1170 C 0.76299 0.82694 0.43753
 H1171 H 0.75205 0.76710 0.39267
 H1172 H 0.74698 0.78741 0.41772
 H1173 H 0.79056 0.82014 0.40013
 H1174 H 0.79563 0.79983 0.37508
 C1175 C 0.27987 0.26024 -0.14522
 C1176 C 0.27737 0.27015 -0.13296
 C1177 C 0.27439 0.28198 -0.11831
 C1178 C 0.26067 0.27852 -0.10625
 C1179 C 0.25777 0.29001 -0.09201
 C1180 C 0.26857 0.30500 -0.08978
 C1181 C 0.28228 0.30845 -0.10184
 C1182 C 0.28518 0.29697 -0.11608
 C1183 C 0.26559 0.31681 -0.07513
 C1184 C 0.26310 0.32671 -0.06285
 H1185 H 0.25225 0.26697 -0.10785
 H1186 H 0.24713 0.28721 -0.08276
 H1187 H 0.29071 0.32001 -0.10024
 H1188 H 0.29582 0.29976 -0.12533
 C1189 C 0.72018 0.23961 -0.14494
 C1190 C 0.72267 0.22971 -0.13266
 C1191 C 0.72565 0.21790 -0.11800
 C1192 C 0.73532 0.22370 -0.10326
 C1193 C 0.73823 0.21222 -0.08901
 C1194 C 0.73146 0.19490 -0.08944
 C1195 C 0.72178 0.18910 -0.10419
 C1196 C 0.71888 0.20058 -0.11844
 C1197 C 0.73444 0.18309 -0.07479
 C1198 C 0.73695 0.17320 -0.06251
 H1199 H 0.74061 0.23707 -0.10278
 H1200 H 0.74573 0.21684 -0.07767
 H1201 H 0.71649 0.17574 -0.10466
 H1202 H 0.71138 0.19596 -0.12977
 C1203 C 0.22085 0.74009 0.35519
 C1204 C 0.22331 0.73015 0.36744
 C1205 C 0.22623 0.71829 0.38207
 C1206 C 0.23589 0.72401 0.39686
 C1207 C 0.23871 0.71249 0.41108
 C1208 C 0.23188 0.69519 0.41058
 C1209 C 0.22222 0.68947 0.39580
 C1210 C 0.21940 0.70099 0.38157
 C1211 C 0.23477 0.68334 0.42522
 C1212 C 0.23719 0.67341 0.43749
 H1213 H 0.24123 0.73736 0.39738
 H1214 H 0.24620 0.71705 0.42245
 H1215 H 0.21688 0.67612 0.39527
 H1216 H 0.21191 0.69643 0.37020
 C1217 C 0.27914 0.73995 0.64486
 C1218 C 0.27670 0.73004 0.63258
 C1219 C 0.27380 0.71821 0.61792
 C1220 C 0.26337 0.72364 0.60355
 C1221 C 0.26055 0.71215 0.58930
 C1222 C 0.26815 0.69517 0.58937
 C1223 C 0.27858 0.68974 0.60374
 C1224 C 0.28140 0.70123 0.61798
 C1225 C 0.26525 0.68334 0.57471
 C1226 C 0.26283 0.67343 0.56243
 H1227 H 0.25743 0.73674 0.60337
 H1228 H 0.25247 0.71648 0.57826
 H1229 H 0.28452 0.67664 0.60392
 H1230 H 0.28949 0.69690 0.62903
 C1231 C 0.77965 0.23946 0.14499
 C1232 C 0.77723 0.22960 0.13268
 C1233 C 0.77434 0.21782 0.11798
 C1234 C 0.77853 0.19977 0.11951
 C1235 C 0.77570 0.18831 0.10522
 C1236 C 0.76867 0.19487 0.08936
 C1237 C 0.76449 0.21292 0.08782
 C1238 C 0.76732 0.22437 0.10210
 C1239 C 0.76574 0.18308 0.07467
 C1240 C 0.76328 0.17320 0.06237
 H1241 H 0.78396 0.19456 0.13172
 H1242 H 0.77898 0.17437 0.10655
 H1243 H 0.75904 0.21813 0.07561
 H1244 H 0.76403 0.23831 0.10078
 C1245 C 0.47235 0.39570 0.50954
 C1246 C 0.47461 0.38337 0.51945
 C1247 C 0.47734 0.36865 0.53127
 C1248 C 0.48932 0.35514 0.52677
 C1249 C 0.49199 0.34084 0.53825
 C1250 C 0.48269 0.33998 0.55428
 C1251 C 0.47071 0.35348 0.55878
 C1252 C 0.46804 0.36779 0.54730
 C1253 C 0.48544 0.32526 0.56609
 C1254 C 0.48775 0.31292 0.57598
 H1255 H 0.49658 0.35568 0.51440
 H1256 H 0.50128 0.33046 0.53464
 H1257 H 0.46345 0.35295 0.57114
 H1258 H 0.45875 0.37816 0.55091
 C1259 C -0.02754 0.89562 0.00887
 C1260 C -0.02528 0.88329 0.01878
 C1261 C -0.02257 0.86856 0.03059
 C1262 C -0.01061 0.85504 0.02609
 C1263 C -0.00796 0.84073 0.03758
 C1264 C -0.01725 0.83989 0.05361
 C1265 C -0.02921 0.85341 0.05812
 C1266 C -0.03186 0.86772 0.04663
 C1267 C -0.01451 0.82518 0.06544
 C1268 C -0.01220 0.81285 0.07533
 H1269 H -0.00336 0.85556 0.01373
 H1270 H 0.00132 0.83035 0.03397
 H1271 H -0.03646 0.85289 0.07048
 H1272 H -0.04114 0.87811 0.05024
 C1273 C 0.02789 0.60443 0.00909
 C1274 C 0.02565 0.61677 0.01900
 C1275 C 0.02296 0.63150 0.03080
 C1276 C 0.02129 0.62856 0.04903
 C1277 C 0.01864 0.64288 0.06050
 C1278 C 0.01766 0.66019 0.05380
 C1279 C 0.01934 0.66313 0.03558
 C1280 C 0.02199 0.64881 0.02410
 C1281 C 0.01490 0.67492 0.06559
 C1282 C 0.01258 0.68727 0.07547
 H1283 H 0.02202 0.61523 0.05435
 H1284 H 0.01735 0.64046 0.07456
 H1285 H 0.01860 0.67646 0.03025
 H1286 H 0.02327 0.65123 0.01004
 C1287 C 0.52766 0.10456 0.50945
 C1288 C 0.52543 0.11689 0.51936
 C1289 C 0.52274 0.13162 0.53118
 C1290 C 0.52195 0.14895 0.52451
 C1291 C 0.51931 0.16326 0.53600
 C1292 C 0.51746 0.16029 0.55420
 C1293 C 0.51827 0.14296 0.56087
 C1294 C 0.52090 0.12865 0.54938
 C1295 C 0.51473 0.17501 0.56601
 C1296 C 0.51242 0.18735 0.57590
 H1297 H 0.52335 0.15139 0.51046
 H1298 H 0.51871 0.17661 0.53070
 H1299 H 0.51686 0.14052 0.57491
 H1300 H 0.52150 0.11530 0.55467
 C1301 C -0.02775 0.10471 0.49069
 C1302 C -0.02551 0.11704 0.48078
 C1303 C -0.02283 0.13176 0.46894
 C1304 C -0.02960 0.14854 0.47321
 C1305 C -0.02698 0.16285 0.46172
 C1306 C -0.01758 0.16043 0.44591
 C1307 C -0.01081 0.14364 0.44163
 C1308 C -0.01344 0.12934 0.45313
 C1309 C -0.01486 0.17515 0.43409
 C1310 C -0.01257 0.18749 0.42420
 H1311 H -0.03688 0.15056 0.48541
 H1312 H -0.03226 0.17577 0.46515
 H1313 H -0.00353 0.14162 0.42944
 H1314 H -0.00815 0.11641 0.44970
 C1315 C 0.47216 0.60447 0.99097
 C1316 C 0.47441 0.61681 0.98107
 C1317 C 0.47712 0.63154 0.96926
 C1318 C 0.48672 0.62918 0.95356
 C1319 C 0.48937 0.64350 0.94209
 C1320 C 0.48242 0.66024 0.94627
 C1321 C 0.47282 0.66259 0.96197
 C1322 C 0.47017 0.64827 0.97344
 C1323 C 0.48517 0.67498 0.93448
 C1324 C 0.48748 0.68733 0.92461
 H1325 H 0.49215 0.61630 0.95020
 H1326 H 0.49682 0.64154 0.92999
 H1327 H 0.46739 0.67548 0.96534
 H1328 H 0.46272 0.65024 0.98555
 C1329 C 0.52779 0.89562 0.99114
 C1330 C 0.52551 0.88330 0.98123
 C1331 C 0.52276 0.86859 0.96940
 C1332 C 0.51114 0.85484 0.97411
 C1333 C 0.50847 0.84054 0.96262
 C1334 C 0.51739 0.83994 0.94637
 C1335 C 0.52901 0.85369 0.94166
 C1336 C 0.53169 0.86799 0.95315
 C1337 C 0.51463 0.82523 0.93455
 C1338 C 0.51230 0.81290 0.92466
 H1339 H 0.50417 0.85518 0.98664
 H1340 H 0.49945 0.82998 0.96639
 H1341 H 0.53598 0.85335 0.92913
 H1342 H 0.54070 0.87855 0.94938
 C1343 C 0.02749 0.39581 0.49052
 C1344 C 0.02519 0.38350 0.48061
 C1345 C 0.02244 0.36879 0.46878
 C1346 C 0.01084 0.35503 0.47351
 C1347 C 0.00815 0.34073 0.46202
 C1348 C 0.01706 0.34013 0.44576
 C1349 C 0.02866 0.35389 0.44103
 C1350 C 0.03134 0.36819 0.45252
 C1351 C 0.01429 0.32542 0.43394
 C1352 C 0.01197 0.31309 0.42405
 H1353 H 0.00389 0.35535 0.48605
 H1354 H -0.00085 0.33016 0.46580
 H1355 H 0.03561 0.35356 0.42849
 H1356 H 0.04034 0.37876 0.44873
 C1357 C 0.39660 0.50882 0.47116
 C1358 C 0.38412 0.51856 0.47358
 C1359 C 0.36924 0.53021 0.47645
 C1360 C 0.35722 0.52680 0.49019
 C1361 C 0.34277 0.53815 0.49297
 C1362 C 0.34029 0.55295 0.48203
 C1363 C 0.35231 0.55636 0.46830
 C1364 C 0.36676 0.54501 0.46551
 C1365 C 0.32544 0.56464 0.48491
 C1366 C 0.31301 0.57446 0.48730
 H1367 H 0.35902 0.51539 0.49872
 H1368 H 0.33355 0.53539 0.50364
 H1369 H 0.35052 0.56777 0.45976
 H1370 H 0.37598 0.54778 0.45485
 C1371 C 0.89677 0.00878 -0.02946
 C1372 C 0.88429 0.01851 -0.02702
 C1373 C 0.86940 0.03015 -0.02412
 C1374 C 0.85905 0.02841 -0.00881
 C1375 C 0.84460 0.03975 -0.00598
 C1376 C 0.84044 0.05286 -0.01845
 C1377 C 0.85078 0.05459 -0.03377
 C1378 C 0.86523 0.04326 -0.03659
 C1379 C 0.82560 0.06455 -0.01553
 C1380 C 0.81317 0.07435 -0.01309
 H1381 H 0.86216 0.01833 0.00092
 H1382 H 0.83670 0.03830 0.00591
 H1383 H 0.84768 0.06468 -0.04349
 H1384 H 0.87315 0.04471 -0.04848
 C1385 C 0.60366 0.00870 0.02944
 C1386 C 0.61615 0.01842 0.02696
 C1387 C 0.63104 0.03005 0.02400
 C1388 C 0.63168 0.04065 0.00879
 C1389 C 0.64614 0.05197 0.00594
 C1390 C 0.66001 0.05275 0.01828
 C1391 C 0.65938 0.04214 0.03349
 C1392 C 0.64492 0.03081 0.03635
 C1393 C 0.67486 0.06444 0.01537
 C1394 C 0.68729 0.07425 0.01293
 H1395 H 0.62102 0.04016 -0.00083
 H1396 H 0.64650 0.06012 -0.00586
 H1397 H 0.67003 0.04264 0.04312
 H1398 H 0.64456 0.02268 0.04815
 C1399 C 0.10342 0.50882 0.52895
 C1400 C 0.11591 0.51855 0.52652
 C1401 C 0.13080 0.53019 0.52363
 C1402 C 0.13495 0.54329 0.53612
 C1403 C 0.14941 0.55463 0.53331
 C1404 C 0.15977 0.55292 0.51801
 C1405 C 0.15562 0.53982 0.50553
 C1406 C 0.14116 0.52847 0.50833
 C1407 C 0.17462 0.56462 0.51512
 C1408 C 0.18704 0.57444 0.51271
 H1409 H 0.12703 0.54474 0.54799
 H1410 H 0.15250 0.56472 0.54305
 H1411 H 0.16354 0.53838 0.49365
 H1412 H 0.13807 0.51839 0.49859
 C1413 C 0.10347 0.49124 -0.02932
 C1414 C 0.11595 0.48150 -0.02690
 C1415 C 0.13084 0.46985 -0.02404
 C1416 C 0.13548 0.45731 -0.03692
 C1417 C 0.14993 0.44596 -0.03413
 C1418 C 0.15979 0.44710 -0.01845
 C1419 C 0.15516 0.45964 -0.00557
 C1420 C 0.14071 0.47099 -0.00836
 C1421 C 0.17463 0.43539 -0.01557
 C1422 C 0.18705 0.42557 -0.01317
 H1423 H 0.12794 0.45631 -0.04908
 H1424 H 0.15339 0.43631 -0.04417
 H1425 H 0.16269 0.46063 0.00660
 H1426 H 0.13723 0.48064 0.00168
 C1427 C 0.60338 0.99147 0.47102
 C1428 C 0.61588 0.98175 0.47343
 C1429 C 0.63078 0.97012 0.47628
 C1430 C 0.64069 0.97131 0.49194
 C1431 C 0.65515 0.95998 0.49472
 C1432 C 0.65976 0.94741 0.48186
 C1433 C 0.64986 0.94622 0.46620
 C1434 C 0.63540 0.95756 0.46342
 C1435 C 0.67461 0.93572 0.48473
 C1436 C 0.68704 0.92590 0.48713
 H1437 H 0.63722 0.98097 0.50197
 H1438 H 0.66271 0.96100 0.50687
 H1439 H 0.65332 0.93655 0.45618
 H1440 H 0.62783 0.95652 0.45128
 C1441 C 0.89656 0.99156 0.52910
 C1442 C 0.88407 0.98182 0.52667
 C1443 C 0.86918 0.97018 0.52379
 C1444 C 0.86459 0.95755 0.53661
 C1445 C 0.85014 0.94620 0.53380
 C1446 C 0.84022 0.94744 0.51816
 C1447 C 0.84480 0.96007 0.50535
 C1448 C 0.85925 0.97142 0.50816
 C1449 C 0.82538 0.93573 0.51526
 C1450 C 0.81296 0.92591 0.51283
 H1451 H 0.87218 0.95648 0.54874
 H1452 H 0.84672 0.93648 0.54379
 H1453 H 0.83722 0.96114 0.49321
 H1454 H 0.86269 0.98113 0.49816
 C1455 C 0.39649 0.49121 0.02914
 C1456 C 0.38402 0.48147 0.02668
 C1457 C 0.36914 0.46982 0.02376
 C1458 C 0.35932 0.47099 0.00805
 C1459 C 0.34488 0.45964 0.00520
 C1460 C 0.34019 0.44709 0.01805
 C1461 C 0.35000 0.44593 0.03376
 C1462 C 0.36444 0.45728 0.03661
 C1463 C 0.32535 0.43539 0.01511
 C1464 C 0.31294 0.42557 0.01266
 H1465 H 0.36284 0.48064 -0.00198
 H1466 H 0.33739 0.46064 -0.00700
 H1467 H 0.34649 0.43627 0.04379
 H1468 H 0.37194 0.45626 0.04881
 C1469 C 0.51064 0.47061 0.39527
 C1470 C 0.52050 0.47299 0.38294
 C1471 C 0.53229 0.47586 0.36822
 C1472 C 0.53026 0.49090 0.35751
 C1473 C 0.54173 0.49370 0.34322
 C1474 C 0.55526 0.48146 0.33957
 C1475 C 0.55729 0.46641 0.35027
 C1476 C 0.54582 0.46362 0.36456
 C1477 C 0.56708 0.48436 0.32488
 C1478 C 0.57697 0.48679 0.31258
 H1479 H 0.51984 0.50045 0.36022
 H1480 H 0.54005 0.50538 0.33504
 H1481 H 0.56771 0.45687 0.34757
 H1482 H 0.54751 0.45194 0.37276
 C1483 C 0.01089 -0.02936 0.89472
 C1484 C 0.02078 -0.02697 0.88240
 C1485 C 0.03258 -0.02411 0.86770
 C1486 C 0.04594 -0.03649 0.86389
 C1487 C 0.05742 -0.03370 0.84962
 C1488 C 0.05560 -0.01851 0.83909
 C1489 C 0.04224 -0.00612 0.84289
 C1490 C 0.03076 -0.00892 0.85717
 C1491 C 0.06743 -0.01562 0.82441
 C1492 C 0.07734 -0.01319 0.81212
 H1493 H 0.04747 -0.04829 0.87195
 H1494 H 0.06771 -0.04336 0.84679
 H1495 H 0.04072 0.00567 0.83484
 H1496 H 0.02048 0.00075 0.86000
 C1497 C 0.01094 0.02952 0.60467
 C1498 C 0.02085 0.02708 0.61696
 C1499 C 0.03268 0.02415 0.63164
 C1500 C 0.04209 0.03839 0.63901
 C1501 C 0.05358 0.03553 0.65328
 C1502 C 0.05570 0.01842 0.66023
 C1503 C 0.04629 0.00418 0.65285
 C1504 C 0.03480 0.00704 0.63858
 C1505 C 0.06752 0.01548 0.67490
 C1506 C 0.07742 0.01300 0.68719
 H1507 H 0.04054 0.05167 0.63375
 H1508 H 0.06079 0.04663 0.65889
 H1509 H 0.04783 -0.00910 0.65812
 H1510 H 0.02759 -0.00407 0.63298
 C1511 C 0.51064 0.52929 0.10501
 C1512 C 0.52053 0.52687 0.11733
 C1513 C 0.53233 0.52398 0.13203
 C1514 C 0.53242 0.50758 0.14076
 C1515 C 0.54390 0.50475 0.15504
 C1516 C 0.55533 0.51832 0.16065
 C1517 C 0.55524 0.53472 0.15192
 C1518 C 0.54376 0.53755 0.13764
 C1519 C 0.56715 0.51541 0.17533
 C1520 C 0.57705 0.51295 0.18763
 H1521 H 0.52364 0.49699 0.13653
 H1522 H 0.54387 0.49202 0.16170
 H1523 H 0.56402 0.54530 0.15615
 H1524 H 0.54379 0.55028 0.13098
 C1525 C 0.48956 -0.02941 0.10535
 C1526 C 0.47966 -0.02702 0.11767
 C1527 C 0.46784 -0.02416 0.13236
 C1528 C 0.45451 -0.03658 0.13617
 C1529 C 0.44301 -0.03379 0.15043
 C1530 C 0.44479 -0.01857 0.16094
 C1531 C 0.45812 -0.00616 0.15712
 C1532 C 0.46963 -0.00895 0.14286
 C1533 C 0.43293 -0.01569 0.17559
 C1534 C 0.42300 -0.01326 0.18787
 H1535 H 0.45301 -0.04839 0.12813
 H1536 H 0.43274 -0.04347 0.15327
 H1537 H 0.45961 0.00565 0.16516
 H1538 H 0.47989 0.00074 0.14003
 C1539 C 0.98934 0.47066 0.60485
 C1540 C 0.97947 0.47305 0.61718
 C1541 C 0.96768 0.47592 0.63189
 C1542 C 0.96950 0.49113 0.64240
 C1543 C 0.95803 0.49393 0.65668
 C1544 C 0.94469 0.48153 0.66052
 C1545 C 0.94287 0.46632 0.65002
 C1546 C 0.95434 0.46352 0.63573
 C1547 C 0.93287 0.48442 0.67520
 C1548 C 0.92296 0.48686 0.68749
 H1549 H 0.97977 0.50080 0.63954
 H1550 H 0.95955 0.50574 0.66471
 H1551 H 0.93260 0.45664 0.65287
 H1552 H 0.95282 0.45171 0.62769
 C1553 C 0.98921 0.52937 0.89505
 C1554 C 0.97931 0.52696 0.88274
 C1555 C 0.96749 0.52406 0.86805
 C1556 C 0.95991 0.53855 0.85921
 C1557 C 0.94843 0.53573 0.84493
 C1558 C 0.94448 0.51841 0.83943
 C1559 C 0.95206 0.50393 0.84828
 C1560 C 0.96354 0.50675 0.86256
 C1561 C 0.93268 0.51550 0.82474
 C1562 C 0.92279 0.51305 0.81243
 H1563 H 0.96288 0.55199 0.86335
 H1564 H 0.94265 0.54702 0.83818
 H1565 H 0.94910 0.49048 0.84414
 H1566 H 0.96933 0.49545 0.86930
 C1567 C 0.48904 0.02942 0.39542
 C1568 C 0.47914 0.02699 0.38312
 C1569 C 0.46734 0.02407 0.36843
 C1570 C 0.45975 0.03854 0.35956
 C1571 C 0.44829 0.03569 0.34527
 C1572 C 0.44436 0.01836 0.33979
 C1573 C 0.45194 0.00390 0.34866
 C1574 C 0.46340 0.00674 0.36295
 C1575 C 0.43257 0.01543 0.32509
 C1576 C 0.42269 0.01296 0.31277
 H1577 H 0.46271 0.05199 0.36368
 H1578 H 0.44250 0.04697 0.33850
 H1579 H 0.44899 -0.00956 0.34454
 H1580 H 0.46919 -0.00454 0.36971
   
