data_POSCAR
  _audit_creation_date              2014-09-24
  _audit_creation_method            'ToBaCCo'
  _symmetry_space_group_name_H-M    'P1'
  _symmetry_Int_Tables_number       1
  _symmetry_cell_setting            triclinic
  loop_
  _symmetry_equiv_pos_as_xyz
 x,y,z
_cell_length_a 63.0269
_cell_length_b 63.0241
_cell_length_c 62.9906
_cell_angle_alpha 89.995800
_cell_angle_beta 89.991900
_cell_angle_gamma 89.983200
loop_
  _atom_site_label
  _atom_site_type_symbol
  _atom_site_fract_x
  _atom_site_fract_y
  _atom_site_fract_z
C1 C 0.34022 1.36866 0.34046
 C2 C 0.34932 1.37759 0.32220
 C3 C 0.36742 1.36842 0.31306
 C4 C 0.37660 1.35033 0.32218
 C5 C 0.36770 1.34121 0.34044
 C6 C 0.34942 1.35039 0.34965
 C7 C 0.32196 1.37756 0.34958
 C8 C 0.31284 1.36836 0.36768
 C9 C 0.32198 1.35027 0.37685
 C10 C 0.34024 1.34118 0.36793
 C11 C 0.34937 1.32293 0.37682
 C12 C 0.36746 1.31383 0.36764
 C13 C 0.37662 1.32295 0.34955
 H14 H 0.34225 1.39155 0.31502
 H15 H 0.39057 1.34326 0.31499
 H16 H 0.31476 1.39152 0.34253
 H17 H 0.31481 1.34318 0.39082
 H18 H 0.34235 1.31569 0.39078
 H19 H 0.39058 1.31574 0.34252
 C20 C 0.33994 0.86834 0.84092
 C21 C 0.34905 0.87724 0.82265
 C22 C 0.36713 0.86806 0.81353
 C23 C 0.37630 0.84997 0.82264
 C24 C 0.36740 0.84086 0.84090
 C25 C 0.34913 0.85006 0.85011
 C26 C 0.32169 0.87725 0.85004
 C27 C 0.31256 0.86808 0.86814
 C28 C 0.32169 0.84998 0.87732
 C29 C 0.33994 0.84087 0.86839
 C30 C 0.34905 0.82260 0.87729
 C31 C 0.36713 0.81349 0.86809
 C32 C 0.37630 0.82260 0.85000
 H33 H 0.34203 0.89120 0.81543
 H34 H 0.39025 0.84294 0.81541
 H35 H 0.31450 0.89122 0.84297
 H36 H 0.31452 0.84291 0.89129
 H37 H 0.34204 0.81537 0.89125
 H38 H 0.39025 0.81537 0.84296
 C39 C 0.84058 1.36833 0.83992
 C40 C 0.84965 1.37723 0.82162
 C41 C 0.86775 1.36808 0.81248
 C42 C 0.87697 1.35001 0.82163
 C43 C 0.86811 1.34092 0.83992
 C44 C 0.84983 1.35009 0.84912
 C45 C 0.82232 1.37721 0.84905
 C46 C 0.81326 1.36804 0.86717
 C47 C 0.82242 1.34999 0.87636
 C48 C 0.84068 1.34091 0.86744
 C49 C 0.84984 1.32268 0.87636
 C50 C 0.86792 1.31359 0.86716
 C51 C 0.87706 1.32269 0.84905
 H52 H 0.84254 1.39118 0.81443
 H53 H 0.89094 1.34296 0.81444
 H54 H 0.81505 1.39114 0.84202
 H55 H 0.81524 1.34297 0.89034
 H56 H 0.84285 1.31547 0.89034
 H57 H 0.89102 1.31548 0.84201
 C58 C 0.84100 0.86845 0.34028
 C59 C 0.85010 0.87738 0.32202
 C60 C 0.86819 0.86821 0.31286
 C61 C 0.87735 0.85009 0.32197
 C62 C 0.86845 0.84097 0.34022
 C63 C 0.85018 0.85015 0.34944
 C64 C 0.82274 0.87734 0.34941
 C65 C 0.81362 0.86813 0.36747
 C66 C 0.82273 0.85003 0.37662
 C67 C 0.84098 0.84093 0.36770
 C68 C 0.85009 0.82266 0.37658
 C69 C 0.86817 0.81356 0.36739
 C70 C 0.87735 0.82269 0.34932
 H71 H 0.84304 0.89137 0.31486
 H72 H 0.89131 0.84302 0.31476
 H73 H 0.81552 0.89131 0.34241
 H74 H 0.81550 0.84298 0.39057
 H75 H 0.84306 0.81542 0.39053
 H76 H 0.89130 0.81547 0.34228
 C77 C 0.65919 0.63169 0.34015
 C78 C 0.65007 0.62280 0.32189
 C79 C 0.63196 0.63198 0.31279
 C80 C 0.62279 0.65007 0.32194
 C81 C 0.63172 0.65916 0.34021
 C82 C 0.65000 0.64996 0.34937
 C83 C 0.67746 0.62279 0.34924
 C84 C 0.68658 0.63195 0.36733
 C85 C 0.67746 0.65001 0.37654
 C86 C 0.65920 0.65913 0.36766
 C87 C 0.65010 0.67738 0.37659
 C88 C 0.63202 0.68651 0.36743
 C89 C 0.62283 0.67742 0.34934
 H90 H 0.65713 0.60884 0.31469
 H91 H 0.60882 0.65715 0.31478
 H92 H 0.68469 0.60885 0.34220
 H93 H 0.68469 0.65702 0.39050
 H94 H 0.65714 0.68459 0.39055
 H95 H 0.60888 0.68466 0.34233
 C96 C 0.66008 0.13179 0.84080
 C97 C 0.65094 0.12290 0.82254
 C98 C 0.63282 0.13205 0.81348
 C99 C 0.62362 0.15009 0.82265
 C100 C 0.63254 0.15919 0.84090
 C101 C 0.65086 0.15004 0.85004
 C102 C 0.67838 0.12292 0.84986
 C103 C 0.68752 0.13210 0.86795
 C104 C 0.67837 0.15017 0.87716
 C105 C 0.66007 0.15924 0.86831
 C106 C 0.65093 0.17747 0.87725
 C107 C 0.63280 0.18654 0.86812
 C108 C 0.62361 0.17742 0.85005
 H109 H 0.65798 0.10897 0.81528
 H110 H 0.60964 0.15710 0.81546
 H111 H 0.68557 0.10897 0.84276
 H112 H 0.68557 0.15724 0.89112
 H113 H 0.65797 0.18470 0.89120
 H114 H 0.60962 0.18461 0.84307
 C115 C 1.15989 0.63158 0.84095
 C116 C 1.15077 0.62268 0.82270
 C117 C 1.13268 0.63184 0.81360
 C118 C 1.12350 0.64992 0.82272
 C119 C 1.13241 0.65903 0.84097
 C120 C 1.15070 0.64985 0.85016
 C121 C 1.17816 0.62268 0.85005
 C122 C 1.18729 0.63186 0.86815
 C123 C 1.17816 0.64996 0.87733
 C124 C 1.15989 0.65905 0.86843
 C125 C 1.15077 0.67731 0.87734
 C126 C 1.13268 0.68640 0.86817
 C127 C 1.12350 0.67728 0.85009
 H128 H 1.15780 0.60872 0.81546
 H129 H 1.10954 0.65693 0.81551
 H130 H 1.18535 0.60872 0.84298
 H131 H 1.18535 0.65703 0.89129
 H132 H 1.15780 0.68454 0.89129
 H133 H 1.10953 0.68449 0.84307
 C134 C 1.16007 0.13168 0.33994
 C135 C 1.15095 0.12278 0.32167
 C136 C 1.13284 0.13195 0.31257
 C137 C 1.12366 0.15004 0.32173
 C138 C 1.13259 0.15913 0.33999
 C139 C 1.15088 0.14994 0.34915
 C140 C 1.17834 0.12277 0.34903
 C141 C 1.18748 0.13194 0.36713
 C142 C 1.17834 0.15002 0.37633
 C143 C 1.16007 0.15912 0.36744
 C144 C 1.15095 0.17736 0.37637
 C145 C 1.13286 0.18647 0.36722
 C146 C 1.12368 0.17737 0.34913
 H147 H 1.15801 0.10882 0.31447
 H148 H 1.10969 0.15711 0.31457
 H149 H 1.18553 0.10881 0.34194
 H150 H 1.18552 0.15708 0.39030
 H151 H 1.15798 0.18458 0.39033
 H152 H 1.10971 0.18459 0.34213
 C153 C 0.66038 1.36807 0.65939
 C154 C 0.65135 1.37688 0.67774
 C155 C 0.63327 1.36769 0.68685
 C156 C 0.62401 1.34971 0.67763
 C157 C 0.63283 1.34070 0.65929
 C158 C 0.65111 1.34989 0.65010
 C159 C 0.67865 1.37697 0.65028
 C160 C 0.68771 1.36786 0.63211
 C161 C 0.67850 1.34986 0.62284
 C162 C 0.66023 1.34077 0.63174
 C163 C 0.65104 1.32260 0.62275
 C164 C 0.63295 1.31350 0.63193
 C165 C 0.62385 1.32254 0.65009
 H166 H 0.65844 1.39075 0.68505
 H167 H 0.61006 1.34268 0.68486
 H168 H 0.68589 1.39087 0.65742
 H169 H 0.68563 1.34284 0.60882
 H170 H 0.65801 1.31542 0.60874
 H171 H 0.60989 1.31532 0.65711
 C172 C 0.65913 0.86833 1.15994
 C173 C 0.65004 0.87724 1.17821
 C174 C 0.63193 0.86809 1.18734
 C175 C 0.62275 0.85000 1.17821
 C176 C 0.63165 0.84089 1.15994
 C177 C 0.64993 0.85007 1.15074
 C178 C 0.67740 0.87721 1.15083
 C179 C 0.68650 0.86804 1.13273
 C180 C 0.67737 0.84998 1.12354
 C181 C 0.65911 0.84088 1.13245
 C182 C 0.64998 0.82264 1.12353
 C183 C 0.63190 0.81354 1.13272
 C184 C 0.62274 0.82265 1.15081
 H185 H 0.65711 0.89120 1.18540
 H186 H 0.60878 0.84295 1.18539
 H187 H 0.68464 0.89115 1.15786
 H188 H 0.68458 0.84295 1.10957
 H189 H 0.65700 0.81542 1.10957
 H190 H 0.60878 0.81543 1.15784
 C191 C 1.15931 1.36891 1.15839
 C192 C 1.15018 1.37782 1.17664
 C193 C 1.13209 1.36866 1.18574
 C194 C 1.12291 1.35059 1.17661
 C195 C 1.13183 1.34148 1.15836
 C196 C 1.15013 1.35064 1.14919
 C197 C 1.17760 1.37779 1.14932
 C198 C 1.18677 1.36858 1.13125
 C199 C 1.17765 1.35049 1.12206
 C200 C 1.15936 1.34142 1.13094
 C201 C 1.15025 1.32316 1.12204
 C202 C 1.13214 1.31408 1.13119
 C203 C 1.12293 1.32323 1.14924
 H204 H 1.15721 1.39176 1.18388
 H205 H 1.10895 1.34358 1.18382
 H206 H 1.18478 1.39174 1.15640
 H207 H 1.18487 1.34339 1.10813
 H208 H 1.15731 1.31590 1.10811
 H209 H 1.10896 1.31603 1.15625
 C210 C 1.16003 0.86834 0.65894
 C211 C 1.15092 0.87724 0.67721
 C212 C 1.13284 0.86807 0.68633
 C213 C 1.12367 0.84999 0.67722
 C214 C 1.13257 0.84088 0.65896
 C215 C 1.15085 0.85006 0.64976
 C216 C 1.17829 0.87723 0.64983
 C217 C 1.18743 0.86804 0.63174
 C218 C 1.17831 0.84994 0.62257
 C219 C 1.16004 0.84085 0.63148
 C220 C 1.15093 0.82260 0.62258
 C221 C 1.13284 0.81351 0.63177
 C222 C 1.12367 0.82263 0.64985
 H223 H 1.15793 0.89120 0.68443
 H224 H 1.10972 0.84297 0.68445
 H225 H 1.18547 0.89120 0.65690
 H226 H 1.18550 0.84286 0.60861
 H227 H 1.15795 0.81536 0.60863
 H228 H 1.10971 0.81542 0.65688
 C229 C 0.34169 0.63092 0.65826
 C230 C 0.35079 0.62200 0.67652
 C231 C 0.36884 0.63117 0.68567
 C232 C 0.37802 0.64927 0.67659
 C233 C 0.36913 0.65840 0.65834
 C234 C 0.35087 0.64922 0.64911
 C235 C 0.32343 0.62205 0.64914
 C236 C 0.31431 0.63128 0.63109
 C237 C 0.32341 0.64937 0.62194
 C238 C 0.34167 0.65845 0.63085
 C239 C 0.35076 0.67674 0.62200
 C240 C 0.36882 0.68585 0.63121
 C241 C 0.37800 0.67670 0.64928
 H242 H 0.34376 0.60803 0.68373
 H243 H 0.39194 0.65630 0.68386
 H244 H 0.31621 0.60809 0.65615
 H245 H 0.31617 0.65644 0.60801
 H246 H 0.34373 0.68400 0.60806
 H247 H 0.39194 0.68392 0.65634
 C248 C 0.34112 0.13119 1.15958
 C249 C 0.35019 0.12229 1.17787
 C250 C 0.36827 0.13146 1.18702
 C251 C 0.37747 0.14953 1.17788
 C252 C 0.36860 0.15863 1.15960
 C253 C 0.35034 0.14944 1.15039
 C254 C 0.32286 0.12231 1.15046
 C255 C 0.31378 0.13149 1.13236
 C256 C 0.32292 0.14955 1.12317
 C257 C 0.34118 0.15864 1.13209
 C258 C 0.35030 0.17688 1.12318
 C259 C 0.36836 0.18599 1.13239
 C260 C 0.37752 0.17688 1.15049
 H261 H 0.34310 0.10834 1.18507
 H262 H 0.39143 0.15660 1.18508
 H263 H 0.31561 0.10838 1.15749
 H264 H 0.31572 0.15658 1.10920
 H265 H 0.34329 0.18411 1.10922
 H266 H 0.39146 0.18410 1.15753
 C267 C 0.84151 0.63096 1.15832
 C268 C 0.85064 0.62201 1.17655
 C269 C 0.86873 0.63117 1.18566
 C270 C 0.87789 0.64927 1.17657
 C271 C 0.86897 0.65842 1.15834
 C272 C 0.85068 0.64925 1.14915
 C273 C 0.82322 0.62210 1.14924
 C274 C 0.81406 0.63134 1.13121
 C275 C 0.82316 0.64944 1.12205
 C276 C 0.84144 0.65850 1.13092
 C277 C 0.85052 0.67679 1.12206
 C278 C 0.86861 0.68588 1.13124
 C279 C 0.87783 0.67670 1.14927
 H280 H 0.84362 0.60805 1.18377
 H281 H 0.89184 0.65628 1.18380
 H282 H 0.81600 0.60814 1.15625
 H283 H 0.81589 0.65652 1.10813
 H284 H 0.84346 0.68407 1.10815
 H285 H 0.89179 0.68392 1.15630
 C286 C 0.83920 0.13229 0.66061
 C287 C 0.84831 0.12336 0.67887
 C288 C 0.86645 0.13248 0.68797
 C289 C 0.87566 0.15054 0.67880
 C290 C 0.86675 0.15966 0.66055
 C291 C 0.84843 0.15053 0.65139
 C292 C 0.82092 0.12342 0.65151
 C293 C 0.81182 0.13260 0.63339
 C294 C 0.82099 0.15066 0.62420
 C295 C 0.83927 0.15973 0.63310
 C296 C 0.84843 0.17794 0.62416
 C297 C 0.86655 0.18699 0.63330
 C298 C 0.87571 0.17787 0.65140
 H299 H 0.84122 0.10942 0.68608
 H300 H 0.88967 0.15756 0.68595
 H301 H 0.81371 0.10948 0.65859
 H302 H 0.81383 0.15773 0.61021
 H303 H 0.84143 0.18516 0.61018
 H304 H 0.88970 0.18504 0.65839
 C305 C 1.36793 0.33951 0.66060
 C306 C 1.37684 0.34859 0.67888
 C307 C 1.36769 0.36669 0.68803
 C308 C 1.34960 0.37589 0.67890
 C309 C 1.34049 0.36701 0.66063
 C310 C 1.34966 0.34873 0.65142
 C311 C 1.37682 0.32125 0.65146
 C312 C 1.36764 0.31216 0.63334
 C313 C 1.34956 0.32133 0.62418
 C314 C 1.34047 0.33958 0.63312
 C315 C 1.32223 0.34874 0.62422
 C316 C 1.31314 0.36682 0.63341
 C317 C 1.32225 0.37595 0.65152
 H318 H 1.39080 0.34151 0.68606
 H319 H 1.34255 0.38986 0.68609
 H320 H 1.39078 0.31405 0.65852
 H321 H 1.34249 0.31418 0.61020
 H322 H 1.31501 0.34175 0.61024
 H323 H 1.31505 0.38992 0.65855
 C324 C 1.36858 0.84026 1.15882
 C325 C 1.37752 0.84938 1.17705
 C326 C 1.36838 0.86750 1.18614
 C327 C 1.35032 0.87670 1.17702
 C328 C 1.34117 0.86778 1.15880
 C329 C 1.35031 0.84947 1.14963
 C330 C 1.37743 0.82196 1.14973
 C331 C 1.36820 0.81281 1.13167
 C332 C 1.35011 0.82195 1.12251
 C333 C 1.34106 0.84025 1.13139
 C334 C 1.32280 0.84938 1.12251
 C335 C 1.31374 0.86750 1.13167
 C336 C 1.32292 0.87670 1.14971
 H337 H 1.39146 0.84234 1.18428
 H338 H 1.34333 0.89069 1.18423
 H339 H 1.39139 0.81476 1.15680
 H340 H 1.34300 0.81475 1.10857
 H341 H 1.31552 0.84233 1.10859
 H342 H 1.31573 0.89068 1.15673
 C343 C 0.86845 0.34019 1.15889
 C344 C 0.87739 0.34930 1.17713
 C345 C 0.86824 0.36739 1.18626
 C346 C 0.85015 0.37657 1.17718
 C347 C 0.84099 0.36767 1.15895
 C348 C 0.85015 0.34938 1.14974
 C349 C 0.87732 0.32192 1.14978
 C350 C 0.86810 0.31278 1.13171
 C351 C 0.84998 0.32190 1.12257
 C352 C 0.84091 0.34018 1.13149
 C353 C 0.82263 0.34930 1.12263
 C354 C 0.81355 0.36739 1.13183
 C355 C 0.82272 0.37657 1.14988
 H356 H 0.89136 0.34228 1.18433
 H357 H 0.84314 0.39053 1.18442
 H358 H 0.89131 0.31474 1.15682
 H359 H 0.84287 0.31471 1.10863
 H360 H 0.81536 0.34227 1.10870
 H361 H 0.81552 0.39054 1.15692
 C362 C 0.86883 0.84135 0.65851
 C363 C 0.87773 0.85043 0.67678
 C364 C 0.86857 0.86852 0.68590
 C365 C 0.85051 0.87772 0.67679
 C366 C 0.84139 0.86884 0.65853
 C367 C 0.85056 0.85057 0.64932
 C368 C 0.87770 0.82308 0.64939
 C369 C 0.86852 0.81399 0.63130
 C370 C 0.85045 0.82313 0.62212
 C371 C 0.84136 0.84139 0.63104
 C372 C 0.82309 0.85050 0.62216
 C373 C 0.81398 0.86857 0.63137
 C374 C 0.82312 0.87775 0.64944
 H375 H 0.89167 0.84338 0.68401
 H376 H 0.84349 0.89168 0.68403
 H377 H 0.89164 0.81583 0.65642
 H378 H 0.84341 0.81592 0.60816
 H379 H 0.81584 0.84348 0.60822
 H380 H 0.81590 0.89169 0.65649
 C381 C 0.63135 0.65880 0.65881
 C382 C 0.62244 0.64967 0.67707
 C383 C 0.63161 0.63157 0.68616
 C384 C 0.64968 0.62239 0.67703
 C385 C 0.65880 0.63131 0.65878
 C386 C 0.64962 0.64961 0.64961
 C387 C 0.62246 0.67708 0.64973
 C388 C 0.63166 0.68622 0.63167
 C389 C 0.64974 0.67712 0.62248
 C390 C 0.65883 0.65883 0.63135
 C391 C 0.67710 0.64974 0.62245
 C392 C 0.68620 0.63165 0.63161
 C393 C 0.67707 0.62243 0.64967
 H394 H 0.60850 0.65670 0.68431
 H395 H 0.65670 0.60842 0.68423
 H396 H 0.60851 0.68430 0.65677
 H397 H 0.65678 0.68437 0.60854
 H398 H 0.68434 0.65680 0.60852
 H399 H 0.68429 0.60847 0.65668
 C400 C 0.63129 1.15974 1.15882
 C401 C 0.62235 1.15052 1.17701
 C402 C 0.63156 1.13244 1.18610
 C403 C 0.64971 1.12337 1.17702
 C404 C 0.65887 1.13238 1.15883
 C405 C 0.64965 1.15066 1.14967
 C406 C 0.62236 1.17801 1.14977
 C407 C 0.63159 1.18726 1.13175
 C408 C 0.64977 1.17825 1.12262
 C409 C 0.65889 1.15997 1.13148
 C410 C 0.67724 1.15098 1.12264
 C411 C 0.68638 1.13290 1.13179
 C412 C 0.67721 1.12360 1.14978
 H413 H 0.60834 1.15747 1.18422
 H414 H 0.65677 1.10942 1.18423
 H415 H 0.60834 1.18511 1.15681
 H416 H 0.65688 1.18553 1.10872
 H417 H 0.68452 1.15810 1.10876
 H418 H 0.68446 1.10964 1.15679
 C419 C 0.13173 0.66034 1.16022
 C420 C 0.12286 0.65122 1.17850
 C421 C 0.13202 0.63307 1.18757
 C422 C 0.15007 0.62388 1.17836
 C423 C 0.15913 0.63280 1.16008
 C424 C 0.14995 0.65112 1.15095
 C425 C 0.12283 0.67863 1.15116
 C426 C 0.13196 0.68775 1.13303
 C427 C 0.15000 0.67859 1.12378
 C428 C 0.15910 0.66031 1.13264
 C429 C 0.17731 0.65116 1.12366
 C430 C 0.18642 0.63305 1.13279
 C431 C 0.17734 0.62388 1.15090
 H432 H 0.10894 0.65830 1.18575
 H433 H 0.15712 0.60988 1.18548
 H434 H 0.10891 0.68584 1.15828
 H435 H 0.15704 0.68576 1.10978
 H436 H 0.18450 0.65818 1.10968
 H437 H 0.18456 0.60989 1.15788
 C438 C 0.13110 1.15857 0.65953
 C439 C 0.12220 1.14947 0.67781
 C440 C 0.13134 1.13134 0.68691
 C441 C 0.14939 1.12212 0.67774
 C442 C 0.15849 1.13101 0.65947
 C443 C 0.14934 1.14933 0.65031
 C444 C 0.12226 1.17688 0.65046
 C445 C 0.13146 1.18598 0.63238
 C446 C 0.14950 1.17682 0.62317
 C447 C 0.15854 1.15852 0.63203
 C448 C 0.17677 1.14937 0.62310
 C449 C 0.18584 1.13126 0.63224
 C450 C 0.17672 1.12208 0.65032
 H451 H 0.10827 1.15658 0.68503
 H452 H 0.15644 1.10813 0.68491
 H453 H 0.10834 1.18415 0.65751
 H454 H 0.15655 1.18405 0.60922
 H455 H 0.18400 1.15641 0.60915
 H456 H 0.18392 1.10810 0.65733
 C457 C 1.36823 0.66039 0.34005
 C458 C 1.37714 0.65125 0.32179
 C459 C 1.36799 0.63310 0.31273
 C460 C 1.34994 0.62392 0.32192
 C461 C 1.34084 0.63287 0.34017
 C462 C 1.34999 0.65119 0.34929
 C463 C 1.37711 0.67869 0.34910
 C464 C 1.36795 0.68784 0.36720
 C465 C 1.34988 0.67870 0.37642
 C466 C 1.34080 0.66041 0.36756
 C467 C 1.32258 0.65128 0.37652
 C468 C 1.31351 0.63315 0.36741
 C469 C 1.32262 0.62395 0.34934
 H470 H 1.39107 0.65832 0.31456
 H471 H 1.34290 0.60991 0.31479
 H472 H 1.39106 0.68587 0.34200
 H473 H 1.34281 0.68590 0.39039
 H474 H 1.31535 0.65832 0.39047
 H475 H 1.31543 0.60995 0.34237
 C476 C 1.36848 1.15989 0.84107
 C477 C 1.37738 1.15079 0.82279
 C478 C 1.36823 1.13270 0.81369
 C479 C 1.35019 1.12348 0.82284
 C480 C 1.34108 1.13237 0.84111
 C481 C 1.35024 1.15067 0.85029
 C482 C 1.37736 1.17816 0.85017
 C483 C 1.36818 1.18727 0.86828
 C484 C 1.35012 1.17811 0.87748
 C485 C 1.34104 1.15984 0.86858
 C486 C 1.32281 1.15070 0.87750
 C487 C 1.31373 1.13260 0.86833
 C488 C 1.32285 1.12344 0.85024
 H489 H 1.39130 1.15784 0.81554
 H490 H 1.34319 1.10951 0.81562
 H491 H 1.39130 1.18537 0.84308
 H492 H 1.34304 1.18528 0.89146
 H493 H 1.31558 1.15771 0.89146
 H494 H 1.31566 1.10947 0.84322
 C495 C 0.86836 0.65894 0.84113
 C496 C 0.87727 0.64981 0.82287
 C497 C 0.86808 0.63175 0.81376
 C498 C 0.84998 0.62259 0.82287
 C499 C 0.84087 0.63151 0.84112
 C500 C 0.85007 0.64977 0.85032
 C501 C 0.87726 0.67719 0.85023
 C502 C 0.86808 0.68633 0.86830
 C503 C 0.84999 0.67724 0.87748
 C504 C 0.84088 0.65899 0.86859
 C505 C 0.82261 0.64991 0.87749
 C506 C 0.81349 0.63184 0.86831
 C507 C 0.82260 0.62264 0.85023
 H508 H 0.89123 0.65682 0.81565
 H509 H 0.84295 0.60865 0.81564
 H510 H 0.89123 0.68440 0.84320
 H511 H 0.84295 0.68449 0.89143
 H512 H 0.81538 0.65695 0.89144
 H513 H 0.81537 0.60869 0.84320
 C514 C 0.86870 1.15876 0.34053
 C515 C 0.87760 1.14965 0.32226
 C516 C 0.86838 1.13159 0.31311
 C517 C 0.85026 1.12246 0.32222
 C518 C 0.84116 1.13138 0.34048
 C519 C 0.85039 1.14962 0.34970
 C520 C 0.87763 1.17699 0.34966
 C521 C 0.86845 1.18612 0.36774
 C522 C 0.85034 1.17706 0.37689
 C523 C 0.84120 1.15883 0.36798
 C524 C 0.82291 1.14978 0.37685
 C525 C 0.81376 1.13174 0.36765
 C526 C 0.82287 1.12254 0.34957
 H527 H 0.89159 1.15668 0.31509
 H528 H 0.84315 1.10853 0.31501
 H529 H 0.89161 1.18418 0.34265
 H530 H 0.84331 1.18430 0.39084
 H531 H 0.81569 1.15682 0.39081
 H532 H 0.81561 1.10861 0.34253
 C533 C 0.63143 0.34130 0.34063
 C534 C 0.62253 0.35042 0.32236
 C535 C 0.63172 0.36849 0.31322
 C536 C 0.64982 0.37765 0.32235
 C537 C 0.65892 0.36873 0.34062
 C538 C 0.64971 0.35047 0.34982
 C539 C 0.62251 0.32306 0.34974
 C540 C 0.63169 0.31393 0.36782
 C541 C 0.64978 0.32301 0.37700
 C542 C 0.65890 0.34126 0.36809
 C543 C 0.67717 0.35033 0.37699
 C544 C 0.68630 0.36839 0.36780
 C545 C 0.67719 0.37759 0.34973
 H546 H 0.60856 0.34336 0.31517
 H547 H 0.65691 0.39160 0.31516
 H548 H 0.60855 0.31585 0.34272
 H549 H 0.65680 0.31577 0.39095
 H550 H 0.68439 0.34328 0.39094
 H551 H 0.68444 0.39153 0.34269
 C552 C 0.63125 0.84130 0.84133
 C553 C 0.62237 0.85042 0.82306
 C554 C 0.63156 0.86850 0.81397
 C555 C 0.64963 0.87766 0.82310
 C556 C 0.65872 0.86875 0.84137
 C557 C 0.64951 0.85047 0.85054
 C558 C 0.62234 0.82304 0.85041
 C559 C 0.63150 0.81390 0.86850
 C560 C 0.64957 0.82300 0.87771
 C561 C 0.65869 0.84126 0.86883
 C562 C 0.67694 0.85035 0.87774
 C563 C 0.68607 0.86843 0.86857
 C564 C 0.67697 0.87763 0.85049
 H565 H 0.60842 0.84341 0.81581
 H566 H 0.65667 0.89162 0.81588
 H567 H 0.60840 0.81582 0.84336
 H568 H 0.65658 0.81575 0.89166
 H569 H 0.68416 0.84330 0.89170
 H570 H 0.68421 0.89158 0.84347
 C571 C 0.13133 0.34014 0.84118
 C572 C 0.12244 0.34929 0.82292
 C573 C 0.13161 0.36739 0.81385
 C574 C 0.14966 0.37657 0.82302
 C575 C 0.15876 0.36764 0.84127
 C576 C 0.14959 0.34933 0.85041
 C577 C 0.12245 0.32185 0.85023
 C578 C 0.13163 0.31268 0.86831
 C579 C 0.14971 0.32180 0.87752
 C580 C 0.15879 0.34009 0.86866
 C581 C 0.17704 0.34919 0.87759
 C582 C 0.18612 0.36731 0.86846
 C583 C 0.17700 0.37653 0.85040
 H584 H 0.10851 0.34227 0.81566
 H585 H 0.15667 0.39055 0.81583
 H586 H 0.10850 0.31467 0.84314
 H587 H 0.15679 0.31458 0.89147
 H588 H 0.18428 0.34213 0.89152
 H589 H 0.18420 0.39051 0.84341
 C590 C 0.13197 0.83967 0.33984
 C591 C 0.12306 0.84880 0.32158
 C592 C 0.13220 0.86693 0.31249
 C593 C 0.15028 0.87611 0.32164
 C594 C 0.15938 0.86718 0.33990
 C595 C 0.15022 0.84887 0.34906
 C596 C 0.12309 0.82138 0.34893
 C597 C 0.13227 0.81225 0.36703
 C598 C 0.15034 0.82140 0.37623
 C599 C 0.15942 0.83968 0.36734
 C600 C 0.17764 0.84881 0.37627
 C601 C 0.18672 0.86692 0.36713
 C602 C 0.17761 0.87610 0.34904
 H603 H 0.10911 0.84173 0.31438
 H604 H 0.15732 0.89010 0.31449
 H605 H 0.10914 0.81419 0.34185
 H606 H 0.15741 0.81422 0.39020
 H607 H 0.18486 0.84179 0.39024
 H608 H 0.18481 0.89008 0.34204
 O609 O 1.07660 1.02075 1.10605
 O610 O 1.10131 1.02080 1.13084
 C611 C 1.08404 1.02801 1.12332
 C612 C 1.07273 1.04537 1.13443
 C613 C 1.07970 1.05259 1.15435
 H614 H 1.09311 1.04508 1.16208
 O615 O 0.92337 0.97948 1.10589
 O616 O 0.89868 0.97948 1.13071
 C617 C 0.91594 0.97225 1.12319
 C618 C 0.92728 0.95493 1.13434
 C619 C 0.92037 0.94780 1.15431
 H620 H 0.90697 0.95533 1.16204
 O621 O 1.02073 1.10575 1.07682
 O622 O 1.02076 1.13062 1.10145
 C623 C 1.02797 1.12305 1.08419
 C624 C 1.04524 1.13418 1.07277
 C625 C 1.05233 1.15419 1.07957
 H626 H 1.04480 1.16197 1.09294
 O627 O 0.97941 0.89448 1.07691
 O628 O 0.97931 0.86964 1.10157
 C629 C 0.97215 0.87719 1.08429
 C630 C 0.95488 0.86607 1.07287
 C631 C 0.94783 0.84603 1.07964
 H632 H 0.95540 0.83823 1.09298
 O633 O 1.10564 1.07661 1.02078
 O634 O 1.13046 1.10127 1.02082
 C635 C 1.12291 1.08402 1.02804
 C636 C 1.13403 1.07267 1.04537
 C637 C 1.15403 1.07951 1.05246
 H638 H 1.16180 1.09286 1.04489
 O639 O 0.89434 0.92357 1.02084
 O640 O 0.86953 0.89889 1.02088
 C641 C 0.87705 0.91616 1.02809
 C642 C 0.86591 0.92751 1.04541
 C643 C 0.84595 0.92060 1.05257
 H644 H 0.83822 0.90721 1.04505
 O645 O 0.97936 1.07677 1.10594
 O646 O 0.97932 1.10147 1.13074
 C647 C 0.97211 1.08420 1.12322
 C648 C 0.95481 1.07285 1.13437
 C649 C 0.94770 1.07971 1.15437
 H650 H 0.95524 1.09307 1.16213
 O651 O 1.02076 0.92344 1.10610
 O652 O 1.02072 0.89876 1.13092
 C653 C 1.02797 0.91601 1.12340
 C654 C 1.04530 0.92731 1.13454
 C655 C 1.05253 0.92032 1.15445
 H656 H 1.04504 0.90689 1.16216
 O657 O 1.10560 0.97933 1.07697
 O658 O 1.13047 0.97932 1.10161
 C659 C 1.12291 0.97210 1.08436
 C660 C 1.13404 0.95480 1.07298
 C661 C 1.15403 0.94768 1.07984
 H662 H 1.16178 0.95521 1.09322
 O663 O 0.89438 1.02090 1.07679
 O664 O 0.86954 1.02096 1.10146
 C665 C 0.87709 1.02816 1.08419
 C666 C 0.86598 1.04548 1.07281
 C667 C 0.84604 1.05269 1.07972
 H668 H 0.83829 1.04521 1.09314
 O669 O 0.92347 1.10588 1.02072
 O670 O 0.89883 1.13073 1.02074
 C671 C 0.91607 1.12317 1.02797
 C672 C 0.92741 1.13428 1.04531
 C673 C 0.92052 1.15425 1.05246
 H674 H 0.90715 1.16201 1.04491
 O675 O 1.07668 0.89426 1.02096
 O676 O 1.10136 0.86944 1.02101
 C677 C 1.08410 0.87698 1.02823
 C678 C 1.07277 0.86589 1.04560
 C679 C 1.07971 0.84596 1.05283
 H680 H 1.09311 0.83821 1.04532
 O681 O 0.92339 1.02087 1.10591
 O682 O 0.89870 1.02092 1.13073
 C683 C 0.91597 1.02811 1.12320
 C684 C 0.92734 1.04539 1.13436
 C685 C 0.92048 1.05249 1.15436
 H686 H 0.90711 1.04494 1.16212
 O687 O 1.07663 0.97935 1.10613
 O688 O 1.10134 0.97934 1.13091
 C689 C 1.08408 0.97211 1.12341
 C690 C 1.07276 0.95478 1.13455
 C691 C 1.07974 0.94754 1.15447
 H692 H 1.09316 0.95502 1.16219
 O693 O 1.02079 0.89441 1.07700
 O694 O 1.02074 0.86958 1.10168
 C695 C 1.02800 0.87711 1.08443
 C696 C 1.04532 0.86596 1.07310
 C697 C 1.05251 0.84603 1.08007
 H698 H 1.04500 0.83834 1.09351
 O699 O 0.97936 1.10580 1.07684
 O700 O 0.97933 1.13066 1.10149
 C701 C 0.97212 1.12311 1.08423
 C702 C 0.95483 1.13425 1.07284
 C703 C 0.94769 1.15422 1.07972
 H704 H 0.95520 1.16196 1.09313
 O705 O 0.89444 1.07682 1.02071
 O706 O 0.86964 1.10151 1.02074
 C707 C 0.87716 1.08425 1.02796
 C708 C 0.86602 1.07291 1.04529
 C709 C 0.84608 1.07986 1.05244
 H710 H 0.83836 1.09326 1.04490
 O711 O 1.10564 0.92338 1.02092
 O712 O 1.13047 0.89872 1.02097
 C713 C 1.12293 0.91598 1.02818
 C714 C 1.13405 0.92735 1.04548
 C715 C 1.15403 0.92048 1.05259
 H716 H 1.16179 0.90712 1.04504
 O717 O 0.97937 0.92351 1.10600
 O718 O 0.97927 0.89883 1.13082
 C719 C 0.97208 0.91610 1.12328
 C720 C 0.95476 0.92747 1.13439
 C721 C 0.94760 0.92059 1.15436
 H722 H 0.95512 0.90721 1.16212
 O723 O 1.02074 1.07679 1.10598
 O724 O 1.02077 1.10150 1.13077
 C725 C 1.02799 1.08422 1.12326
 C726 C 1.04530 1.07288 1.13441
 C727 C 1.05252 1.07985 1.15433
 H728 H 1.04504 1.09329 1.16204
 O729 O 0.89432 0.97951 1.07683
 O730 O 0.86948 0.97952 1.10149
 C731 C 0.87702 0.97229 1.08423
 C732 C 0.86589 0.95498 1.07288
 C733 C 0.84594 0.94783 1.07979
 H734 H 0.83820 0.95535 1.09319
 O735 O 1.10559 1.02071 1.07693
 O736 O 1.13045 1.02076 1.10156
 C737 C 1.12289 1.02795 1.08430
 C738 C 1.13402 1.04524 1.07289
 C739 C 1.15401 1.05233 1.07973
 H740 H 1.16178 1.04479 1.09311
 O741 O 0.92345 0.89457 1.02085
 O742 O 0.89880 0.86974 1.02087
 C743 C 0.91606 0.87727 1.02808
 C744 C 0.92744 0.86611 1.04537
 C745 C 0.92064 0.84607 1.05239
 H746 H 0.90731 0.83831 1.04479
 O747 O 1.07661 1.10569 1.02071
 O748 O 1.10128 1.13051 1.02073
 C749 C 1.08401 1.12299 1.02794
 C750 C 1.07265 1.13415 1.04523
 C751 C 1.07948 1.15417 1.05226
 H752 H 1.09281 1.16193 1.04466
 Cu753 Cu 1.08862 1.00003 1.08906
 Cu754 Cu 1.11838 1.00006 1.11872
 Cu755 Cu 0.91134 1.00019 1.08888
 Cu756 Cu 0.88161 1.00022 1.11858
 Cu757 Cu 1.00005 1.08880 1.08893
 Cu758 Cu 1.00005 1.11855 1.11860
 Cu759 Cu 1.00009 0.91144 1.08903
 Cu760 Cu 1.00000 0.88172 1.11874
 C761 C 1.05539 1.05550 1.12470
 H762 H 1.05010 1.05021 1.10922
 C763 C 1.06960 1.06971 1.16427
 C764 C 0.94462 0.94479 1.12461
 H765 H 0.94987 0.95001 1.10909
 C766 C 0.93052 0.93074 1.16429
 C767 C 1.05538 1.12439 1.05545
 H768 H 1.05020 1.10883 1.05030
 C769 C 1.06932 1.16416 1.06931
 C770 C 0.94470 0.87588 1.05559
 H771 H 0.94986 0.89145 1.05045
 C772 C 0.93083 0.83607 1.06940
 C773 C 1.12425 1.05539 1.05557
 H774 H 1.10871 1.05020 1.05039
 C775 C 1.16399 1.06934 1.06952
 C776 C 0.87564 0.94485 1.05554
 H777 H 0.89115 0.95009 1.05029
 C778 C 0.83600 0.93076 1.06964
 C779 C 0.94465 1.05555 1.12459
 H780 H 0.94985 1.05035 1.10905
 C781 C 0.93065 1.06953 1.16433
 C782 C 1.05540 0.94469 1.12483
 H783 H 1.05010 0.94999 1.10936
 C784 C 1.06963 0.93042 1.16438
 C785 C 1.12428 0.94465 1.05565
 H786 H 1.10875 0.94986 1.05045
 C787 C 1.16399 0.93064 1.06965
 C788 C 0.87574 1.05558 1.05545
 H789 H 0.89124 1.05031 1.05021
 C790 C 0.83612 1.06976 1.06954
 C791 C 0.94472 1.12452 1.05548
 H792 H 0.94995 1.10900 1.05025
 C793 C 0.93065 1.16419 1.06954
 C794 C 1.05544 0.87565 1.05571
 H795 H 1.05017 0.89113 1.05042
 C796 C 1.06958 0.83607 1.06995
 O797 O 1.07679 0.97925 0.89434
 O798 O 1.10148 0.97920 0.86952
 C799 C 1.08421 0.97200 0.87705
 C800 C 1.07285 0.95471 0.86590
 C801 C 1.07974 0.94757 0.84593
 H802 H 1.09313 0.95510 0.83818
 O803 O 0.92334 1.02092 0.89421
 O804 O 0.89865 1.02089 0.86940
 C805 C 0.91590 1.02814 0.87691
 C806 C 0.92721 1.04546 0.86575
 C807 C 0.92018 1.05271 0.84586
 H808 H 0.90672 1.04524 0.83818
 O809 O 0.97937 1.10571 0.92322
 O810 O 0.97940 1.13053 0.89854
 C811 C 0.97216 1.12301 0.91581
 C812 C 0.95488 1.13418 0.92717
 C813 C 0.94774 1.15414 0.92025
 H814 H 0.95526 1.16185 0.90683
 O815 O 1.02079 0.89437 0.92346
 O816 O 1.02079 0.86954 0.89879
 C817 C 1.02801 0.87706 0.91606
 C818 C 1.04530 0.86591 0.92743
 C819 C 1.05245 0.84594 0.92054
 H820 H 1.04494 0.83821 0.90713
 O821 O 1.10571 0.92330 0.97952
 O822 O 1.13053 0.89864 0.97951
 C823 C 1.12300 0.91589 0.97228
 C824 C 1.13415 0.92723 0.95495
 C825 C 1.15411 0.92030 0.94782
 H826 H 1.16184 0.90691 0.95536
 O827 O 0.89437 1.07688 0.97930
 O828 O 0.86957 1.10158 0.97928
 C829 C 0.87709 1.08431 0.97206
 C830 C 0.86594 1.07297 0.95474
 C831 C 0.84599 1.07989 0.94758
 H832 H 0.83826 1.09329 0.95510
 O833 O 1.02071 1.07656 0.89417
 O834 O 1.02080 1.10122 0.86934
 C835 C 1.02798 1.08395 0.87689
 C836 C 1.04530 1.07257 0.86578
 C837 C 1.05241 1.07939 0.84577
 H838 H 1.04486 1.09274 0.83798
 O839 O 0.97944 0.92349 0.89440
 O840 O 0.97938 0.89882 0.86958
 C841 C 0.97219 0.91609 0.87711
 C842 C 0.95491 0.92748 0.86596
 C843 C 0.94785 0.92066 0.84593
 H844 H 0.95542 0.90730 0.83817
 O845 O 1.10582 1.02063 0.92340
 O846 O 1.13067 1.02064 0.89874
 C847 C 1.12312 1.02786 0.91600
 C848 C 1.13424 1.04516 0.92737
 C849 C 1.15422 1.05230 0.92050
 H850 H 1.16198 1.04478 0.90711
 O851 O 0.89436 0.97955 0.92338
 O852 O 0.86954 0.97947 0.89871
 C853 C 0.87708 0.97229 0.91599
 C854 C 0.86595 0.95501 0.92740
 C855 C 0.84594 0.94793 0.92057
 H856 H 0.83817 0.95547 0.90720
 O857 O 1.07666 1.10562 0.97929
 O858 O 1.10133 1.13043 0.97927
 C859 C 1.08408 1.12290 0.97203
 C860 C 1.07275 1.13403 0.95469
 C861 C 1.07963 1.15400 0.94758
 H862 H 1.09300 1.16175 0.95513
 O863 O 0.92341 0.89452 0.97944
 O864 O 0.89875 0.86970 0.97942
 C865 C 0.91600 0.87723 0.97220
 C866 C 0.92737 0.86608 0.95490
 C867 C 0.92050 0.84609 0.94780
 H868 H 0.90712 0.83836 0.95535
 O869 O 0.92346 0.97953 0.89435
 O870 O 0.89879 0.97945 0.86952
 C871 C 0.91606 0.97227 0.87706
 C872 C 0.92745 0.95497 0.86593
 C873 C 0.92065 0.94790 0.84591
 H874 H 0.90731 0.95547 0.83812
 O875 O 1.07676 1.02063 0.89434
 O876 O 1.10145 1.02063 0.86952
 C877 C 1.08418 1.02785 0.87704
 C878 C 1.07280 1.04513 0.86585
 C879 C 1.07966 1.05220 0.84584
 H880 H 1.09305 1.04465 0.83810
 O881 O 0.97941 0.89442 0.92346
 O882 O 0.97935 0.86959 0.89879
 C883 C 0.97215 0.87714 0.91606
 C884 C 0.95484 0.86603 0.92743
 C885 C 0.94773 0.84605 0.92058
 H886 H 0.95528 0.83827 0.90721
 O887 O 1.02074 1.10565 0.92320
 O888 O 1.02083 1.13048 0.89852
 C889 C 1.02802 1.12293 0.91579
 C890 C 1.04532 1.13404 0.92718
 C891 C 1.05244 1.15402 0.92032
 H892 H 1.04491 1.16179 0.90694
 O893 O 0.89439 0.92361 0.97944
 O894 O 0.86957 0.89895 0.97943
 C895 C 0.87710 0.91621 0.97220
 C896 C 0.86596 0.92757 0.95490
 C897 C 0.84596 0.92074 0.94783
 H898 H 0.83819 0.90739 0.95541
 O899 O 1.10574 1.07658 0.97938
 O900 O 1.13056 1.10124 0.97936
 C901 C 1.12304 1.08398 0.97215
 C902 C 1.13420 1.07261 0.95486
 C903 C 1.15418 1.07950 0.94775
 H904 H 1.16191 1.09288 0.95530
 O905 O 1.02082 0.92337 0.89434
 O906 O 1.02082 0.89869 0.86951
 C907 C 1.02805 0.91595 0.87704
 C908 C 1.04537 0.92727 0.86589
 C909 C 1.05250 0.92039 0.84591
 H910 H 1.04496 0.90701 0.83816
 O911 O 0.97931 1.07674 0.89407
 O912 O 0.97934 1.10141 0.86924
 C913 C 0.97208 1.08417 0.87678
 C914 C 0.95470 1.07289 0.86567
 C915 C 0.94743 1.07989 0.84578
 H916 H 0.95491 1.09331 0.83805
 O917 O 0.89435 1.02094 0.92334
 O918 O 0.86952 1.02091 0.89869
 C919 C 0.87705 1.02816 0.91594
 C920 C 0.86592 1.04548 0.92728
 C921 C 0.84597 1.05264 0.92038
 H922 H 0.83822 1.04511 0.90699
 O923 O 1.10578 0.97924 0.92346
 O924 O 1.13063 0.97919 0.89880
 C925 C 1.12307 0.97199 0.91607
 C926 C 1.13418 0.95467 0.92745
 C927 C 1.15414 0.94750 0.92056
 H928 H 1.16189 0.95501 0.90716
 O929 O 1.07662 0.89429 0.97954
 O930 O 1.10130 0.86947 0.97953
 C931 C 1.08404 0.87700 0.97230
 C932 C 1.07271 0.86588 0.95497
 C933 C 1.07961 0.84591 0.94782
 H934 H 1.09298 0.83816 0.95538
 O935 O 0.92349 1.10587 0.97929
 O936 O 0.89885 1.13071 0.97927
 C937 C 0.91609 1.12316 0.97204
 C938 C 0.92744 1.13426 0.95469
 C939 C 0.92056 1.15422 0.94752
 H940 H 0.90718 1.16199 0.95505
 Cu941 Cu 1.08882 0.99994 0.91136
 Cu942 Cu 1.11855 0.99991 0.88166
 Cu943 Cu 0.91135 1.00024 0.91129
 Cu944 Cu 0.88164 1.00017 0.88159
 Cu945 Cu 1.08869 1.08866 1.00004
 Cu946 Cu 1.11839 1.11835 1.00004
 Cu947 Cu 1.08868 0.91127 1.00023
 Cu948 Cu 1.11840 0.88158 1.00026
 Cu949 Cu 0.91141 1.08889 1.00000
 Cu950 Cu 0.88174 1.11863 1.00001
 Cu951 Cu 0.91137 0.91154 1.00014
 Cu952 Cu 0.88168 0.88183 1.00015
 Cu953 Cu 1.00002 1.08869 0.91113
 Cu954 Cu 1.00011 1.11840 0.88142
 Cu955 Cu 1.00012 0.91139 0.91138
 Cu956 Cu 1.00008 0.88167 0.88168
 C957 C 1.05552 0.94458 0.87565
 H958 H 1.05030 0.94981 0.89118
 C959 C 1.06957 0.93053 0.83596
 C960 C 0.94461 1.05554 0.87542
 H961 H 0.94994 1.05023 0.89088
 C962 C 0.93028 1.06980 0.83590
 C963 C 0.94475 1.12448 0.94454
 H964 H 0.94998 1.10897 0.94980
 C965 C 0.93070 1.16413 0.93041
 C966 C 1.05541 0.87564 0.94479
 H967 H 1.05018 0.89116 0.95002
 C968 C 1.06949 0.83598 0.93073
 C969 C 1.12442 0.94456 0.94479
 H970 H 1.10891 0.94981 0.95002
 C971 C 1.16407 0.93044 0.93074
 C972 C 0.87567 1.05562 0.94461
 H973 H 0.89118 1.05038 0.94985
 C974 C 0.83603 1.06973 0.93052
 C975 C 1.05547 1.05529 0.87559
 H976 H 1.05026 1.05011 0.89114
 C977 C 1.06947 1.06921 0.83583
 C978 C 0.94473 0.94478 0.87573
 H979 H 0.94989 0.94995 0.89129
 C980 C 0.93085 0.93087 0.83594
 C981 C 1.12447 1.05529 0.94470
 H982 H 1.10895 1.05007 0.94991
 C983 C 1.16415 1.06935 0.93069
 C984 C 0.87573 0.94486 0.94471
 H985 H 0.89127 0.95005 0.94988
 C986 C 0.83598 0.93091 0.93079
 C987 C 1.05545 1.12427 0.94451
 H988 H 1.05024 1.10874 0.94971
 C989 C 1.06948 1.16397 0.93051
 C990 C 0.94469 0.87582 0.94474
 H991 H 0.94990 0.89135 0.94994
 C992 C 0.93067 0.83611 0.93076
 O993 O 0.97966 0.42319 0.39425
 O994 O 0.97967 0.39854 0.36940
 C995 C 0.97243 0.41579 0.37694
 C996 C 0.95513 0.42713 0.36579
 C997 C 0.94803 0.42023 0.34581
 H998 H 0.95558 0.40685 0.33807
 O999 O 1.02108 0.57663 0.39414
 O1000 O 1.02106 0.60126 0.36927
 C1001 C 1.02831 0.58403 0.37684
 C1002 C 1.04566 0.57271 0.36572
 C1003 C 1.05284 0.57965 0.34578
 H1004 H 1.04531 0.59305 0.33804
 O1005 O 0.89460 0.47915 0.42327
 O1006 O 0.86982 0.47912 0.39855
 C1007 C 0.87732 0.47192 0.41584
 C1008 C 0.86616 0.45463 0.42720
 C1009 C 0.84617 0.44755 0.42033
 H1010 H 0.83842 0.45512 0.40696
 O1011 O 1.10609 0.52069 0.42325
 O1012 O 1.13092 0.52067 0.39858
 C1013 C 1.12338 0.52791 0.41583
 C1014 C 1.13448 0.54525 0.42717
 C1015 C 1.15442 0.55245 0.42024
 H1016 H 1.16217 0.54493 0.40684
 O1017 O 0.92361 0.39411 0.47927
 O1018 O 0.89895 0.36928 0.47918
 C1019 C 0.91622 0.37682 0.47200
 C1020 C 0.92763 0.36570 0.45471
 C1021 C 0.92082 0.34571 0.44758
 H1022 H 0.90744 0.33794 0.45510
 O1023 O 1.07688 0.60575 0.47910
 O1024 O 1.10156 0.63055 0.47914
 C1025 C 1.08431 0.62304 0.47188
 C1026 C 1.07300 0.63418 0.45453
 C1027 C 1.07995 0.65409 0.44731
 H1028 H 1.09337 0.66182 0.45481
 O1029 O 0.92372 0.52049 0.39422
 O1030 O 0.89911 0.52050 0.36933
 C1031 C 0.91636 0.52771 0.37689
 C1032 C 0.92775 0.54498 0.36573
 C1033 C 0.92096 0.55201 0.34569
 H1034 H 0.90762 0.54443 0.33791
 O1035 O 1.07697 0.47933 0.39426
 O1036 O 1.10163 0.47926 0.36942
 C1037 C 1.08436 0.47207 0.37696
 C1038 C 1.07298 0.45479 0.36583
 C1039 C 1.07978 0.44775 0.34579
 H1040 H 1.09312 0.45532 0.33800
 O1041 O 1.02106 0.39415 0.42330
 O1042 O 1.02112 0.36936 0.39859
 C1043 C 1.02832 0.37688 0.41587
 C1044 C 1.04564 0.36574 0.42721
 C1045 C 1.05281 0.34580 0.42028
 H1046 H 1.04529 0.33807 0.40687
 O1047 O 0.97962 0.60564 0.42316
 O1048 O 0.97955 0.63043 0.39844
 C1049 C 0.97234 0.62291 0.41571
 C1050 C 0.95501 0.63402 0.42705
 C1051 C 0.94788 0.65400 0.42016
 H1052 H 0.95542 0.66175 0.40678
 O1053 O 0.89450 0.57654 0.47904
 O1054 O 0.86967 0.60121 0.47901
 C1055 C 0.87721 0.58395 0.47179
 C1056 C 0.86609 0.57260 0.45448
 C1057 C 0.84613 0.57948 0.44731
 H1058 H 0.83838 0.59287 0.45483
 O1059 O 1.10598 0.42327 0.47927
 O1060 O 1.13081 0.39860 0.47926
 C1061 C 1.12328 0.41586 0.47203
 C1062 C 1.13442 0.42722 0.45472
 C1063 C 1.15439 0.42032 0.44758
 H1064 H 1.16213 0.40693 0.45511
 O1065 O 0.97971 0.57651 0.39417
 O1066 O 0.97963 0.60114 0.36929
 C1067 C 0.97246 0.58387 0.37685
 C1068 C 0.95520 0.57245 0.36572
 C1069 C 0.94815 0.57923 0.34567
 H1070 H 0.95571 0.59258 0.33788
 O1071 O 1.02103 0.42328 0.39431
 O1072 O 1.02109 0.39864 0.36945
 C1073 C 1.02827 0.41591 0.37700
 C1074 C 1.04554 0.42731 0.36584
 C1075 C 1.05259 0.42051 0.34580
 H1076 H 1.04504 0.40716 0.33803
 O1077 O 1.10605 0.47930 0.42329
 O1078 O 1.13087 0.47922 0.39861
 C1079 C 1.12333 0.47203 0.41588
 C1080 C 1.13444 0.45470 0.42725
 C1081 C 1.15441 0.44756 0.42037
 H1082 H 1.16217 0.45509 0.40698
 O1083 O 0.89455 0.52054 0.42316
 O1084 O 0.86978 0.52056 0.39843
 C1085 C 0.87728 0.52778 0.41571
 C1086 C 0.86613 0.54511 0.42703
 C1087 C 0.84617 0.55224 0.42010
 H1088 H 0.83844 0.54470 0.40671
 O1089 O 0.92355 0.60558 0.47904
 O1090 O 0.89888 0.63040 0.47901
 C1091 C 0.91614 0.62287 0.47180
 C1092 C 0.92751 0.63401 0.45449
 C1093 C 0.92062 0.65398 0.44736
 H1094 H 0.90723 0.66172 0.45488
 O1095 O 1.07701 0.39414 0.47925
 O1096 O 1.10168 0.36932 0.47924
 C1097 C 1.08443 0.37685 0.47201
 C1098 C 1.07310 0.36573 0.45468
 C1099 C 1.08002 0.34578 0.44750
 H1100 H 1.09343 0.33804 0.45502
 O1101 O 1.07707 0.52071 0.39417
 O1102 O 1.10174 0.52070 0.36934
 C1103 C 1.08449 0.52794 0.37687
 C1104 C 1.07316 0.54527 0.36573
 C1105 C 1.08010 0.55247 0.34579
 H1106 H 1.09352 0.54498 0.33806
 O1107 O 0.92365 0.47912 0.39419
 O1108 O 0.89902 0.47908 0.36932
 C1109 C 0.91626 0.47187 0.37688
 C1110 C 0.92764 0.45457 0.36576
 C1111 C 0.92078 0.44742 0.34578
 H1112 H 0.90739 0.45494 0.33802
 O1113 O 1.02101 0.60572 0.42316
 O1114 O 1.02099 0.63051 0.39844
 C1115 C 1.02823 0.62301 0.41572
 C1116 C 1.04554 0.63416 0.42705
 C1117 C 1.05274 0.65408 0.42008
 H1118 H 1.04523 0.66179 0.40665
 O1119 O 0.97967 0.39417 0.42335
 O1120 O 0.97969 0.36936 0.39865
 C1121 C 0.97245 0.37688 0.41592
 C1122 C 0.95515 0.36573 0.42727
 C1123 C 0.94809 0.34573 0.42040
 H1124 H 0.95567 0.33798 0.40704
 O1125 O 1.10593 0.57668 0.47911
 O1126 O 1.13076 0.60133 0.47916
 C1127 C 1.12323 0.58409 0.47191
 C1128 C 1.13440 0.57275 0.45461
 C1129 C 1.15434 0.57970 0.44744
 H1130 H 1.16203 0.59313 0.45494
 O1131 O 0.89452 0.42314 0.47924
 O1132 O 0.86970 0.39848 0.47915
 C1133 C 0.87725 0.41575 0.47197
 C1134 C 0.86613 0.42714 0.45466
 C1135 C 0.84614 0.42031 0.44754
 H1136 H 0.83836 0.40695 0.45508
 Cu1137 Cu 1.00035 0.41117 0.41128
 Cu1138 Cu 1.00039 0.38149 0.38154
 Cu1139 Cu 1.00036 0.58866 0.41114
 Cu1140 Cu 1.00030 0.61832 0.38137
 Cu1141 Cu 0.91159 0.49983 0.41119
 Cu1142 Cu 0.88194 0.49981 0.38142
 Cu1143 Cu 1.08908 0.50001 0.41122
 Cu1144 Cu 1.11878 0.49995 0.38150
 C1145 C 0.94496 0.44444 0.37554
 H1146 H 0.95017 0.44967 0.39107
 C1147 C 0.93097 0.43037 0.33584
 C1148 C 1.05579 0.55537 0.37546
 H1149 H 1.05053 0.55011 0.39096
 C1150 C 1.06994 0.56955 0.33584
 C1151 C 0.87591 0.44444 0.44451
 H1152 H 0.89144 0.44963 0.44973
 C1153 C 0.83619 0.43051 0.43050
 C1154 C 1.12471 0.55538 0.44450
 H1155 H 1.10922 0.55010 0.44975
 C1156 C 1.16431 0.56956 0.43037
 C1157 C 0.94495 0.37548 0.44457
 H1158 H 0.95012 0.39102 0.44978
 C1159 C 0.93104 0.33576 0.43055
 C1160 C 1.05565 0.62445 0.44442
 H1161 H 1.05037 0.60897 0.44971
 C1162 C 1.06983 0.66401 0.43020
 C1163 C 0.94502 0.55518 0.37552
 H1164 H 0.95018 0.55003 0.39109
 C1165 C 0.93115 0.56902 0.33569
 C1166 C 1.05571 0.44460 0.37562
 H1167 H 1.05055 0.44976 0.39120
 C1168 C 1.06959 0.43072 0.33581
 C1169 C 1.05576 0.37547 0.44456
 H1170 H 1.05050 0.39097 0.44982
 C1171 C 1.06988 0.33585 0.43042
 C1172 C 0.94484 0.62426 0.44436
 H1173 H 0.95007 0.60874 0.44959
 C1174 C 0.93081 0.66394 0.43031
 C1175 C 0.87586 0.55526 0.44436
 H1176 H 0.89137 0.55004 0.44961
 C1177 C 0.83620 0.56931 0.43024
 C1178 C 1.12468 0.44455 0.44457
 H1179 H 1.10916 0.44978 0.44979
 C1180 C 1.16435 0.43049 0.43052
 O1181 O 1.02072 0.42320 0.60565
 O1182 O 1.02078 0.39855 0.63050
 C1183 C 1.02797 0.41581 0.62296
 C1184 C 1.04525 0.42719 0.63410
 C1185 C 1.05234 0.42034 0.65411
 H1186 H 1.04479 0.40698 0.66187
 O1187 O 0.97946 0.57650 0.60555
 O1188 O 0.97938 0.60117 0.63039
 C1189 C 0.97219 0.58390 0.62284
 C1190 C 0.95489 0.57253 0.63397
 C1191 C 0.94777 0.57938 0.65396
 H1192 H 0.95531 0.59275 0.66173
 O1193 O 0.89443 0.52051 0.57645
 O1194 O 0.86959 0.52058 0.60112
 C1195 C 0.87714 0.52777 0.58384
 C1196 C 0.86602 0.54507 0.57245
 C1197 C 0.84602 0.55218 0.57928
 H1198 H 0.83824 0.54463 0.59264
 O1199 O 1.10586 0.47911 0.57666
 O1200 O 1.13064 0.47910 0.60137
 C1201 C 1.12313 0.47187 0.58411
 C1202 C 1.13429 0.45454 0.57279
 C1203 C 1.15419 0.44734 0.57980
 H1204 H 1.16187 0.45483 0.59325
 O1205 O 1.07688 0.39424 0.52065
 O1206 O 1.10153 0.36940 0.52070
 C1207 C 1.08427 0.37694 0.52790
 C1208 C 1.07288 0.36581 0.54520
 C1209 C 1.07975 0.34584 0.55233
 H1210 H 1.09315 0.33810 0.54482
 O1211 O 0.92355 0.60556 0.52044
 O1212 O 0.89889 0.63039 0.52047
 C1213 C 0.91615 0.62285 0.52768
 C1214 C 0.92751 0.63399 0.54498
 C1215 C 0.92069 0.65402 0.55203
 H1216 H 0.90735 0.66179 0.54444
 O1217 O 0.92342 0.47912 0.60559
 O1218 O 0.89874 0.47915 0.63041
 C1219 C 0.91600 0.47191 0.62289
 C1220 C 0.92733 0.45459 0.63405
 C1221 C 0.92040 0.44745 0.65401
 H1222 H 0.90700 0.45498 0.66174
 O1223 O 1.07677 0.52054 0.60565
 O1224 O 1.10142 0.52059 0.63049
 C1225 C 1.08417 0.52780 0.62294
 C1226 C 1.07281 0.54511 0.63407
 C1227 C 1.07968 0.55223 0.65406
 H1228 H 1.09305 0.54468 0.66181
 O1229 O 0.97936 0.39405 0.57664
 O1230 O 0.97937 0.36925 0.60135
 C1231 C 0.97214 0.37677 0.58408
 C1232 C 0.95480 0.36563 0.57277
 C1233 C 0.94755 0.34575 0.57979
 H1234 H 0.95502 0.33806 0.59324
 O1235 O 1.02086 0.60559 0.57654
 O1236 O 1.02084 0.63041 0.60122
 C1237 C 1.02808 0.62289 0.58396
 C1238 C 1.04539 0.63403 0.57261
 C1239 C 1.05252 0.65399 0.57953
 H1240 H 1.04499 0.66172 0.59293
 O1241 O 0.89446 0.42311 0.52064
 O1242 O 0.86964 0.39846 0.52061
 C1243 C 0.87716 0.41571 0.52786
 C1244 C 0.86601 0.42706 0.54517
 C1245 C 0.84607 0.42013 0.55236
 H1246 H 0.83836 0.40671 0.54486
 O1247 O 1.10579 0.57656 0.52051
 O1248 O 1.13063 0.60120 0.52061
 C1249 C 1.12308 0.58393 0.52778
 C1250 C 1.13420 0.57250 0.54506
 C1251 C 1.15423 0.57927 0.55211
 H1252 H 1.16202 0.59262 0.54455
 O1253 O 1.02084 0.57654 0.60561
 O1254 O 1.02082 0.60120 0.63045
 C1255 C 1.02805 0.58395 0.62291
 C1256 C 1.04535 0.57259 0.63406
 C1257 C 1.05247 0.57946 0.65405
 H1258 H 1.04494 0.59285 0.66180
 O1259 O 0.97934 0.42316 0.60565
 O1260 O 0.97935 0.39851 0.63051
 C1261 C 0.97211 0.41576 0.62296
 C1262 C 0.95478 0.42711 0.63408
 C1263 C 0.94761 0.42021 0.65405
 H1264 H 0.95512 0.40682 0.66180
 O1265 O 1.10576 0.52049 0.57651
 O1266 O 1.13057 0.52054 0.60120
 C1267 C 1.12305 0.52773 0.58392
 C1268 C 1.13420 0.54501 0.57252
 C1269 C 1.15423 0.55203 0.57932
 H1270 H 1.16201 0.54444 0.59266
 O1271 O 0.89438 0.47912 0.57651
 O1272 O 0.86955 0.47914 0.60119
 C1273 C 0.87709 0.47190 0.58394
 C1274 C 0.86597 0.45457 0.57261
 C1275 C 0.84603 0.44739 0.57954
 H1276 H 0.83829 0.45493 0.59293
 O1277 O 1.07681 0.60569 0.52052
 O1278 O 1.10149 0.63049 0.52062
 C1279 C 1.08422 0.62296 0.52780
 C1280 C 1.07285 0.63407 0.54513
 C1281 C 1.07974 0.65402 0.55229
 H1282 H 1.09312 0.66178 0.54477
 O1283 O 0.92348 0.39403 0.52068
 O1284 O 0.89881 0.36922 0.52065
 C1285 C 0.91605 0.37674 0.52791
 C1286 C 0.92735 0.36562 0.54528
 C1287 C 0.92034 0.34574 0.55255
 H1288 H 0.90691 0.33804 0.54507
 O1289 O 1.07670 0.47916 0.60563
 O1290 O 1.10134 0.47916 0.63050
 C1291 C 1.08409 0.47194 0.62295
 C1292 C 1.07271 0.45466 0.63410
 C1293 C 1.07955 0.44756 0.65411
 H1294 H 1.09292 0.45510 0.66188
 O1295 O 0.92348 0.52051 0.60553
 O1296 O 0.89879 0.52059 0.63035
 C1297 C 0.91606 0.52777 0.62281
 C1298 C 0.92743 0.54507 0.63395
 C1299 C 0.92056 0.55217 0.65395
 H1300 H 0.90719 0.54463 0.66170
 O1301 O 0.97948 0.60557 0.57649
 O1302 O 0.97940 0.63039 0.60117
 C1303 C 0.97222 0.62286 0.58389
 C1304 C 0.95495 0.63400 0.57249
 C1305 C 0.94787 0.65402 0.57929
 H1306 H 0.95542 0.66179 0.59265
 O1307 O 1.02076 0.39417 0.57657
 O1308 O 1.02082 0.36936 0.60126
 C1309 C 1.02803 0.37690 0.58398
 C1310 C 1.04536 0.36579 0.57263
 C1311 C 1.05248 0.34581 0.57951
 H1312 H 1.04493 0.33805 0.59288
 O1313 O 1.10602 0.42318 0.52068
 O1314 O 1.13083 0.39850 0.52074
 C1315 C 1.12329 0.41576 0.52795
 C1316 C 1.13437 0.42709 0.54531
 C1317 C 1.15428 0.42013 0.55257
 H1318 H 1.16202 0.40671 0.54509
 O1319 O 0.89451 0.57651 0.52044
 O1320 O 0.86969 0.60118 0.52047
 C1321 C 0.87722 0.58391 0.52768
 C1322 C 0.86606 0.57254 0.54497
 C1323 C 0.84606 0.57940 0.55205
 H1324 H 0.83831 0.59277 0.54449
 Cu1325 Cu 1.00004 0.41111 0.58865
 Cu1326 Cu 1.00009 0.38143 0.61839
 Cu1327 Cu 1.00016 0.58858 0.58857
 Cu1328 Cu 1.00010 0.61828 0.61830
 Cu1329 Cu 0.91149 0.41106 0.49996
 Cu1330 Cu 0.88179 0.38137 0.49988
 Cu1331 Cu 1.08900 0.41118 0.49996
 Cu1332 Cu 1.11870 0.38147 0.49999
 Cu1333 Cu 0.91150 0.58857 0.49974
 Cu1334 Cu 0.88179 0.61828 0.49974
 Cu1335 Cu 1.08887 0.58871 0.49980
 Cu1336 Cu 1.11860 0.61838 0.49990
 Cu1337 Cu 0.91140 0.49981 0.58855
 Cu1338 Cu 0.88168 0.49988 0.61825
 Cu1339 Cu 1.08880 0.49982 0.58864
 Cu1340 Cu 1.11848 0.49985 0.61838
 C1341 C 1.05541 0.44450 0.62433
 H1342 H 1.05022 0.44969 0.60878
 C1343 C 1.06937 0.43051 0.66408
 C1344 C 0.94474 0.55522 0.62419
 H1345 H 0.94995 0.55002 0.60865
 C1346 C 0.93073 0.56921 0.66392
 C1347 C 0.87582 0.55523 0.55515
 H1348 H 0.89136 0.55003 0.54997
 C1349 C 0.83607 0.56922 0.56908
 C1350 C 1.12462 0.44444 0.55540
 H1351 H 1.10915 0.44972 0.55009
 C1352 C 1.16415 0.43025 0.56970
 C1353 C 1.05553 0.37556 0.55533
 H1354 H 1.05032 0.39108 0.55011
 C1355 C 1.06956 0.33587 0.56937
 C1356 C 0.94479 0.62422 0.55518
 H1357 H 0.94997 0.60866 0.55002
 C1358 C 0.93087 0.66400 0.56906
 C1359 C 0.94466 0.44444 0.62432
 H1360 H 0.94992 0.44967 0.60880
 C1361 C 0.93053 0.43038 0.66398
 C1362 C 1.05550 0.55527 0.62430
 H1363 H 1.05030 0.55006 0.60877
 C1364 C 1.06952 0.56929 0.66402
 C1365 C 0.94473 0.37533 0.55536
 H1366 H 0.95004 0.39078 0.55004
 C1367 C 0.93043 0.33584 0.56969
 C1368 C 1.05553 0.62431 0.55527
 H1369 H 1.05030 0.60880 0.55001
 C1370 C 1.06958 0.66396 0.56937
 C1371 C 0.87572 0.44442 0.55528
 H1372 H 0.89122 0.44968 0.55002
 C1373 C 0.83611 0.43029 0.56942
 C1374 C 1.12441 0.55522 0.55524
 H1375 H 1.10884 0.55008 0.55009
 C1376 C 1.16421 0.56904 0.56912
 O1377 O 0.47920 0.92352 0.39421
 O1378 O 0.47919 0.89889 0.36935
 C1379 C 0.47197 0.91614 0.37691
 C1380 C 0.45467 0.92750 0.36578
 C1381 C 0.44758 0.92066 0.34578
 H1382 H 0.45515 0.90731 0.33800
 O1383 O 0.52044 1.07680 0.39425
 O1384 O 0.52046 1.10146 0.36940
 C1385 C 0.52767 1.08420 0.37694
 C1386 C 0.54495 1.07282 0.36577
 C1387 C 0.55201 1.07966 0.34575
 H1388 H 0.54444 1.09303 0.33800
 O1389 O 0.39402 0.97942 0.42329
 O1390 O 0.36923 0.97939 0.39858
 C1391 C 0.37675 0.97217 0.41585
 C1392 C 0.36563 0.95483 0.42718
 C1393 C 0.34571 0.94763 0.42023
 H1394 H 0.33797 0.95514 0.40682
 O1395 O 0.60554 1.02084 0.42319
 O1396 O 0.63033 1.02090 0.39847
 C1397 C 0.62282 1.02810 0.41575
 C1398 C 0.63397 1.04539 0.42712
 C1399 C 0.65395 1.05248 0.42023
 H1400 H 0.66169 1.04494 0.40684
 O1401 O 0.42319 0.89438 0.47910
 O1402 O 0.39855 0.86954 0.47912
 C1403 C 0.41579 0.87708 0.47187
 C1404 C 0.42712 0.86597 0.45452
 C1405 C 0.42018 0.84605 0.44730
 H1406 H 0.40676 0.83832 0.45480
 O1407 O 0.57658 1.10584 0.47921
 O1408 O 0.60121 1.13068 0.47912
 C1409 C 0.58395 1.12313 0.47194
 C1410 C 0.57255 1.13426 0.45465
 C1411 C 0.57938 1.15425 0.44753
 H1412 H 0.59276 1.16201 0.45505
 O1413 O 0.42312 1.02081 0.39428
 O1414 O 0.39848 1.02084 0.36942
 C1415 C 0.41573 1.02805 0.37697
 C1416 C 0.42710 1.04535 0.36584
 C1417 C 0.42025 1.05246 0.34584
 H1418 H 0.40688 1.04491 0.33807
 O1419 O 0.57651 0.97944 0.39414
 O1420 O 0.60115 0.97945 0.36928
 C1421 C 0.58391 0.97221 0.37684
 C1422 C 0.57257 0.95490 0.36570
 C1423 C 0.57948 0.94775 0.34573
 H1424 H 0.59287 0.95528 0.33799
 O1425 O 0.52057 0.89442 0.42324
 O1426 O 0.52061 0.86962 0.39854
 C1427 C 0.52782 0.87714 0.41582
 C1428 C 0.54513 0.86600 0.42717
 C1429 C 0.55227 0.84603 0.42029
 H1430 H 0.54473 0.83828 0.40691
 O1431 O 0.47908 1.10591 0.42331
 O1432 O 0.47905 1.13071 0.39861
 C1433 C 0.47183 1.12319 0.41588
 C1434 C 0.45452 1.13434 0.42723
 C1435 C 0.44739 1.15430 0.42033
 H1436 H 0.45493 1.16205 0.40694
 O1437 O 0.39404 1.07689 0.47921
 O1438 O 0.36920 1.10154 0.47919
 C1439 C 0.37675 1.08429 0.47196
 C1440 C 0.36563 1.07293 0.45464
 C1441 C 0.34569 1.07985 0.44744
 H1442 H 0.33795 1.09326 0.45493
 O1443 O 0.60562 0.92353 0.47910
 O1444 O 0.63046 0.89887 0.47909
 C1445 C 0.62291 0.91612 0.47186
 C1446 C 0.63405 0.92747 0.45455
 C1447 C 0.65402 0.92059 0.44741
 H1448 H 0.66177 0.90721 0.45495
 O1449 O 0.47907 1.07680 0.39429
 O1450 O 0.47904 1.10145 0.36944
 C1451 C 0.47183 1.08420 0.37699
 C1452 C 0.45454 1.07283 0.36585
 C1453 C 0.44744 1.07969 0.34585
 H1454 H 0.45497 1.09307 0.33809
 O1455 O 0.52058 0.92346 0.39415
 O1456 O 0.52062 0.89881 0.36930
 C1457 C 0.52783 0.91606 0.37685
 C1458 C 0.54513 0.92742 0.36571
 C1459 C 0.55229 0.92052 0.34574
 H1460 H 0.54478 0.90712 0.33800
 O1461 O 0.60560 0.97947 0.42316
 O1462 O 0.63040 0.97947 0.39845
 C1463 C 0.62289 0.97224 0.41573
 C1464 C 0.63404 0.95494 0.42708
 C1465 C 0.65401 0.94782 0.42019
 H1466 H 0.66176 0.95536 0.40680
 O1467 O 0.39404 1.02082 0.42331
 O1468 O 0.36925 1.02085 0.39861
 C1469 C 0.37677 1.02807 0.41588
 C1470 C 0.36564 1.04541 0.42720
 C1471 C 0.34570 1.05259 0.42025
 H1472 H 0.33798 1.04506 0.40685
 O1473 O 0.42309 1.10593 0.47924
 O1474 O 0.39841 1.13074 0.47922
 C1475 C 0.41568 1.12322 0.47200
 C1476 C 0.42703 1.13435 0.45469
 C1477 C 0.42015 1.15432 0.44754
 H1478 H 0.40676 1.16207 0.45506
 O1479 O 0.57657 0.89449 0.47914
 O1480 O 0.60125 0.86967 0.47913
 C1481 C 0.58398 0.87719 0.47191
 C1482 C 0.57262 0.86603 0.45462
 C1483 C 0.57951 0.84606 0.44749
 H1484 H 0.59291 0.83833 0.45502
 O1485 O 0.57645 1.02082 0.39417
 O1486 O 0.60108 1.02088 0.36930
 C1487 C 0.58382 1.02807 0.37686
 C1488 C 0.57242 1.04536 0.36573
 C1489 C 0.57923 1.05245 0.34571
 H1490 H 0.59259 1.04491 0.33793
 O1491 O 0.42313 0.97943 0.39427
 O1492 O 0.39850 0.97941 0.36940
 C1493 C 0.41575 0.97220 0.37695
 C1494 C 0.42715 0.95493 0.36580
 C1495 C 0.42031 0.94783 0.34579
 H1496 H 0.40693 0.95536 0.33804
 O1497 O 0.52047 1.10585 0.42332
 O1498 O 0.52049 1.13066 0.39863
 C1499 C 0.52771 1.12313 0.41589
 C1500 C 0.54502 1.13426 0.42723
 C1501 C 0.55211 1.15425 0.42036
 H1502 H 0.54453 1.16201 0.40700
 O1503 O 0.47919 0.89438 0.42318
 O1504 O 0.47917 0.86959 0.39847
 C1505 C 0.47194 0.87711 0.41574
 C1506 C 0.45460 0.86598 0.42706
 C1507 C 0.44741 0.84606 0.42009
 H1508 H 0.45493 0.83835 0.40667
 O1509 O 0.60563 1.07678 0.47921
 O1510 O 0.63042 1.10147 0.47913
 C1511 C 0.62290 1.08419 0.47194
 C1512 C 0.63401 1.07283 0.45461
 C1513 C 0.65400 1.07968 0.44748
 H1514 H 0.66177 1.09304 0.45503
 O1515 O 0.39413 0.92342 0.47915
 O1516 O 0.36934 0.89874 0.47918
 C1517 C 0.37684 0.91600 0.47194
 C1518 C 0.36568 0.92734 0.45463
 C1519 C 0.34576 0.92038 0.44744
 H1520 H 0.33806 0.90695 0.45493
 Cu1521 Cu 0.49989 0.91141 0.41117
 Cu1522 Cu 0.49990 0.88174 0.38142
 Cu1523 Cu 0.49976 1.08887 0.41127
 Cu1524 Cu 0.49976 1.11856 0.38153
 Cu1525 Cu 0.41104 1.00011 0.41127
 Cu1526 Cu 0.38138 1.00013 0.38151
 Cu1527 Cu 0.58856 1.00014 0.41114
 Cu1528 Cu 0.61822 1.00018 0.38138
 C1529 C 0.44447 0.94478 0.37556
 H1530 H 0.44966 0.94998 0.39111
 C1531 C 0.43052 0.93081 0.33582
 C1532 C 0.55513 1.05552 0.37553
 H1533 H 0.54996 1.05033 0.39109
 C1534 C 0.56903 1.06949 0.33576
 C1535 C 0.37538 0.94471 0.44452
 H1536 H 0.39086 0.94999 0.44979
 C1537 C 0.33581 0.93051 0.43035
 C1538 C 0.62423 1.05554 0.44445
 H1539 H 0.60870 1.05035 0.44967
 C1540 C 0.66393 1.06951 0.43041
 C1541 C 0.44448 0.87570 0.44442
 H1542 H 0.44975 0.89118 0.44971
 C1543 C 0.43032 0.83613 0.43020
 C1544 C 0.55522 1.12449 0.44453
 H1545 H 0.55004 1.10896 0.44974
 C1546 C 0.56916 1.16421 0.43051
 C1547 C 0.44440 1.05551 0.37561
 H1548 H 0.44961 1.05030 0.39115
 C1549 C 0.43041 1.06951 0.33588
 C1550 C 0.55525 0.94475 0.37546
 H1551 H 0.55001 0.94999 0.39098
 C1552 C 0.56935 0.93068 0.33578
 C1553 C 0.55529 0.87577 0.44448
 H1554 H 0.55006 0.89129 0.44970
 C1555 C 0.56934 0.83609 0.43044
 C1556 C 0.44437 1.12460 0.44456
 H1557 H 0.44959 1.10908 0.44979
 C1558 C 0.43032 1.16426 0.43048
 C1559 C 0.37537 1.05556 0.44454
 H1560 H 0.39086 1.05031 0.44981
 C1561 C 0.33576 1.06969 0.43036
 C1562 C 0.62429 0.94479 0.44440
 H1563 H 0.60877 0.95001 0.44963
 C1564 C 0.66397 0.93076 0.43035
 O1565 O 0.52061 0.92364 0.60558
 O1566 O 0.52067 0.89897 0.63041
 C1567 C 0.52786 0.91624 0.62287
 C1568 C 0.54514 0.92762 0.63401
 C1569 C 0.55221 0.92080 0.65403
 H1570 H 0.54465 0.90745 0.66181
 O1571 O 0.47917 1.07685 0.60554
 O1572 O 0.47914 1.10149 0.63039
 C1573 C 0.47193 1.08423 0.62284
 C1574 C 0.45465 1.07286 0.63399
 C1575 C 0.44754 1.07973 0.65398
 H1576 H 0.45507 1.09311 0.66173
 O1577 O 0.39418 1.02079 0.57655
 O1578 O 0.36936 1.02081 0.60124
 C1579 C 0.37688 1.02801 0.58396
 C1580 C 0.36571 1.04529 0.57259
 C1581 C 0.34569 1.05232 0.57942
 H1582 H 0.33794 1.04473 0.59278
 O1583 O 0.60562 0.97965 0.57645
 O1584 O 0.63042 0.97957 0.60115
 C1585 C 0.62290 0.97239 0.58386
 C1586 C 0.63404 0.95510 0.57248
 C1587 C 0.65404 0.94801 0.57931
 H1588 H 0.66180 0.95557 0.59268
 O1589 O 0.57659 0.89452 0.52054
 O1590 O 0.60127 0.86970 0.52058
 C1591 C 0.58400 0.87724 0.52779
 C1592 C 0.57264 0.86611 0.54510
 C1593 C 0.57948 0.84610 0.55219
 H1594 H 0.59283 0.83833 0.54462
 O1595 O 0.42305 1.10595 0.52065
 O1596 O 0.39835 1.13074 0.52070
 C1597 C 0.41561 1.12322 0.52791
 C1598 C 0.42695 1.13434 0.54526
 C1599 C 0.41995 1.15423 0.55252
 H1600 H 0.40650 1.16194 0.54506
 O1601 O 0.42326 0.97944 0.60565
 O1602 O 0.39860 0.97942 0.63049
 C1603 C 0.41586 0.97222 0.62295
 C1604 C 0.42722 0.95492 0.63410
 C1605 C 0.42032 0.94777 0.65407
 H1606 H 0.40692 0.95530 0.66181
 O1607 O 0.57655 1.02099 0.60555
 O1608 O 0.60119 1.02098 0.63041
 C1609 C 0.58394 1.02821 0.62286
 C1610 C 0.57257 1.04550 0.63401
 C1611 C 0.57946 1.05264 0.65398
 H1612 H 0.59286 1.04512 0.66172
 O1613 O 0.47927 0.89455 0.57653
 O1614 O 0.47928 0.86972 0.60120
 C1615 C 0.47206 0.87724 0.58393
 C1616 C 0.45480 0.86607 0.57255
 C1617 C 0.44779 0.84604 0.57936
 H1618 H 0.45537 0.83828 0.59271
 O1619 O 0.52051 1.10596 0.57648
 O1620 O 0.52053 1.13077 0.60117
 C1621 C 0.52775 1.12325 0.58390
 C1622 C 0.54507 1.13437 0.57254
 C1623 C 0.55222 1.15433 0.57942
 H1624 H 0.54468 1.16210 0.59280
 O1625 O 0.39420 0.92344 0.52056
 O1626 O 0.36942 0.89874 0.52064
 C1627 C 0.37694 0.91601 0.52784
 C1628 C 0.36582 0.92736 0.54517
 C1629 C 0.34586 0.92047 0.55233
 H1630 H 0.33812 0.90708 0.54480
 O1631 O 0.60574 1.07691 0.52063
 O1632 O 0.63052 1.10161 0.52061
 C1633 C 0.62301 1.08436 0.52787
 C1634 C 0.63413 1.07307 0.54524
 C1635 C 0.65401 1.08008 0.55251
 H1636 H 0.66171 1.09352 0.54503
 O1637 O 0.52055 1.07692 0.60557
 O1638 O 0.52057 1.10158 0.63042
 C1639 C 0.52779 1.08433 0.62287
 C1640 C 0.54510 1.07297 0.63401
 C1641 C 0.55224 1.07986 0.65399
 H1642 H 0.54471 1.09325 0.66174
 O1643 O 0.47923 0.92354 0.60566
 O1644 O 0.47924 0.89887 0.63049
 C1645 C 0.47200 0.91612 0.62296
 C1646 C 0.45469 0.92746 0.63410
 C1647 C 0.44754 0.92056 0.65407
 H1648 H 0.45506 0.90716 0.66182
 O1649 O 0.60571 1.02103 0.57659
 O1650 O 0.63049 1.02102 0.60130
 C1651 C 0.62298 1.02827 0.58404
 C1652 C 0.63411 1.04562 0.57273
 C1653 C 0.65398 1.05288 0.57976
 H1654 H 0.66167 1.04541 0.59322
 O1655 O 0.39422 0.97940 0.57658
 O1656 O 0.36940 0.97937 0.60127
 C1657 C 0.37694 0.97215 0.58400
 C1658 C 0.36581 0.95483 0.57265
 C1659 C 0.34586 0.94768 0.57956
 H1660 H 0.33811 0.95521 0.59296
 O1661 O 0.57657 1.10584 0.52060
 O1662 O 0.60120 1.13070 0.52057
 C1663 C 0.58395 1.12316 0.52780
 C1664 C 0.57258 1.13431 0.54509
 C1665 C 0.57947 1.15428 0.55222
 H1666 H 0.59287 1.16200 0.54469
 O1667 O 0.42331 0.89444 0.52051
 O1668 O 0.39868 0.86958 0.52059
 C1669 C 0.41594 0.87714 0.52777
 C1670 C 0.42735 0.86602 0.54506
 C1671 C 0.42059 0.84599 0.55212
 H1672 H 0.40726 0.83819 0.54454
 O1673 O 0.57660 0.97961 0.60556
 O1674 O 0.60124 0.97955 0.63041
 C1675 C 0.58399 0.97236 0.62286
 C1676 C 0.57261 0.95507 0.63400
 C1677 C 0.57942 0.94800 0.65403
 H1678 H 0.59278 0.95556 0.66180
 O1679 O 0.42324 1.02082 0.60560
 O1680 O 0.39858 1.02086 0.63044
 C1681 C 0.41584 1.02807 0.62289
 C1682 C 0.42719 1.04539 0.63402
 C1683 C 0.42033 1.05252 0.65401
 H1684 H 0.40695 1.04499 0.66178
 O1685 O 0.47911 1.10597 0.57654
 O1686 O 0.47908 1.13076 0.60124
 C1687 C 0.47184 1.12323 0.58398
 C1688 C 0.45447 1.13434 0.57268
 C1689 C 0.44723 1.15423 0.57970
 H1690 H 0.45473 1.16194 0.59312
 O1691 O 0.52064 0.89455 0.57656
 O1692 O 0.52070 0.86972 0.60124
 C1693 C 0.52789 0.87726 0.58396
 C1694 C 0.54518 0.86612 0.57259
 C1695 C 0.55227 0.84612 0.57943
 H1696 H 0.54471 0.83835 0.59279
 O1697 O 0.60559 0.92361 0.52049
 O1698 O 0.63043 0.89895 0.52055
 C1699 C 0.62289 0.91622 0.52774
 C1700 C 0.63403 0.92762 0.54501
 C1701 C 0.65404 0.92079 0.55209
 H1702 H 0.66180 0.90742 0.54454
 O1703 O 0.39408 1.07682 0.52061
 O1704 O 0.36922 1.10145 0.52065
 C1705 C 0.37678 1.08419 0.52785
 C1706 C 0.36566 1.07279 0.54514
 C1707 C 0.34564 1.07957 0.55223
 H1708 H 0.33784 1.09292 0.54468
 Cu1709 Cu 0.49993 0.91154 0.58861
 Cu1710 Cu 0.49997 0.88183 0.61833
 Cu1711 Cu 0.49984 1.08896 0.58855
 Cu1712 Cu 0.49983 1.11864 0.61829
 Cu1713 Cu 0.41118 0.91139 0.49982
 Cu1714 Cu 0.38151 0.88166 0.49990
 Cu1715 Cu 0.58862 0.91151 0.49981
 Cu1716 Cu 0.61834 0.88181 0.49984
 Cu1717 Cu 0.41104 1.08893 0.49992
 Cu1718 Cu 0.38130 1.11860 0.49994
 Cu1719 Cu 0.58867 1.08886 0.49992
 Cu1720 Cu 0.61833 1.11860 0.49985
 Cu1721 Cu 0.41119 1.00011 0.58862
 Cu1722 Cu 0.38150 1.00012 0.61835
 Cu1723 Cu 0.58865 1.00032 0.58856
 Cu1724 Cu 0.61832 1.00027 0.61831
 C1725 C 0.55532 0.94490 0.62422
 H1726 H 0.55014 0.95008 0.60866
 C1727 C 0.56923 0.93099 0.66401
 C1728 C 0.44450 1.05554 0.62424
 H1729 H 0.44971 1.05032 0.60871
 C1730 C 0.43049 1.06957 0.66396
 C1731 C 0.37547 1.05550 0.55530
 H1732 H 0.39103 1.05035 0.55012
 C1733 C 0.33568 1.06934 0.56925
 C1734 C 0.62426 0.94492 0.55518
 H1735 H 0.60872 0.95011 0.55000
 C1736 C 0.66401 0.93098 0.56913
 C1737 C 0.55535 0.87589 0.55528
 H1738 H 0.55017 0.89144 0.55009
 C1739 C 0.56929 0.83614 0.56923
 C1740 C 0.44435 1.12463 0.55532
 H1741 H 0.44965 1.10917 0.55000
 C1742 C 0.43009 1.16414 0.56963
 C1743 C 0.44455 0.94479 0.62435
 H1744 H 0.44979 0.95003 0.60883
 C1745 C 0.43047 0.93071 0.66402
 C1746 C 0.55524 1.05564 0.62426
 H1747 H 0.55001 1.05042 0.60873
 C1748 C 0.56931 1.06971 0.66394
 C1749 C 0.44460 0.87584 0.55525
 H1750 H 0.44973 0.89141 0.55009
 C1751 C 0.43080 0.83603 0.56914
 C1752 C 0.55523 1.12459 0.55523
 H1753 H 0.55000 1.10907 0.55001
 C1754 C 0.56930 1.16426 0.56926
 C1755 C 0.37556 0.94469 0.55531
 H1756 H 0.39107 0.94992 0.55007
 C1757 C 0.33591 0.93062 0.56940
 C1758 C 0.62442 1.05569 0.55533
 H1759 H 0.60898 1.05037 0.55000
 C1760 C 0.66390 1.06999 0.56966
 O1761 O 0.47908 0.42312 0.89448
 O1762 O 0.47909 0.39842 0.86969
 C1763 C 0.47184 0.41567 0.87720
 C1764 C 0.45449 0.42696 0.86606
 C1765 C 0.44727 0.41996 0.84616
 H1766 H 0.45479 0.40654 0.83845
 O1767 O 0.52036 0.57652 0.89450
 O1768 O 0.52037 0.60116 0.86963
 C1769 C 0.52759 0.58391 0.87719
 C1770 C 0.54489 0.57254 0.86605
 C1771 C 0.55198 0.57938 0.84604
 H1772 H 0.54443 0.59274 0.83827
 O1773 O 0.39405 0.47905 0.92358
 O1774 O 0.36922 0.47901 0.89892
 C1775 C 0.37676 0.47181 0.91619
 C1776 C 0.36563 0.45452 0.92759
 C1777 C 0.34565 0.44739 0.92074
 H1778 H 0.33789 0.45490 0.90735
 O1779 O 0.60537 0.52059 0.92358
 O1780 O 0.63020 0.52064 0.89891
 C1781 C 0.62265 0.52785 0.91617
 C1782 C 0.63376 0.54516 0.92753
 C1783 C 0.65375 0.55227 0.92068
 H1784 H 0.66153 0.54472 0.90732
 O1785 O 0.42321 0.39415 0.97963
 O1786 O 0.39856 0.36932 0.97967
 C1787 C 0.41580 0.37685 0.97241
 C1788 C 0.42714 0.36571 0.95509
 C1789 C 0.42025 0.34574 0.94795
 H1790 H 0.40686 0.33800 0.95549
 O1791 O 0.57622 0.60568 0.97954
 O1792 O 0.60088 0.63050 0.97949
 C1793 C 0.58362 0.62296 0.97228
 C1794 C 0.57226 0.63408 0.95496
 C1795 C 0.57910 0.65407 0.94784
 H1796 H 0.59246 0.66184 0.95539
 O1797 O 0.42311 0.52037 0.89447
 O1798 O 0.39846 0.52039 0.86962
 C1799 C 0.41572 0.52760 0.87716
 C1800 C 0.42710 0.54488 0.86601
 C1801 C 0.42034 0.55190 0.84595
 H1802 H 0.40703 0.54430 0.83815
 O1803 O 0.57639 0.47915 0.89452
 O1804 O 0.60107 0.47914 0.86970
 C1805 C 0.58382 0.47191 0.87724
 C1806 C 0.57252 0.45456 0.86611
 C1807 C 0.57956 0.44729 0.84623
 H1808 H 0.59300 0.45477 0.83854
 O1809 O 0.52050 0.39416 0.92360
 O1810 O 0.52056 0.36930 0.89896
 C1811 C 0.52776 0.37686 0.91622
 C1812 C 0.54508 0.36576 0.92760
 C1813 C 0.55226 0.34580 0.92073
 H1814 H 0.54476 0.33804 0.90733
 O1815 O 0.47893 0.60557 0.92352
 O1816 O 0.47887 0.63036 0.89880
 C1817 C 0.47167 0.62284 0.91608
 C1818 C 0.45434 0.63397 0.92743
 C1819 C 0.44719 0.65392 0.92052
 H1820 H 0.45471 0.66167 0.90713
 O1821 O 0.39397 0.57645 0.97950
 O1822 O 0.36913 0.60110 0.97944
 C1823 C 0.37668 0.58385 0.97223
 C1824 C 0.36558 0.57249 0.95490
 C1825 C 0.34563 0.57940 0.94772
 H1826 H 0.33788 0.59279 0.95523
 O1827 O 0.60550 0.42331 0.97962
 O1828 O 0.63033 0.39864 0.97963
 C1829 C 0.62279 0.41589 0.97238
 C1830 C 0.63392 0.42723 0.95505
 C1831 C 0.65388 0.42034 0.94789
 H1832 H 0.66163 0.40695 0.95541
 O1833 O 0.47899 0.57644 0.89452
 O1834 O 0.47894 0.60107 0.86965
 C1835 C 0.47176 0.58380 0.87720
 C1836 C 0.45452 0.57238 0.86604
 C1837 C 0.44752 0.57914 0.84598
 H1838 H 0.45509 0.59248 0.83819
 O1839 O 0.52047 0.42318 0.89450
 O1840 O 0.52055 0.39847 0.86971
 C1841 C 0.52775 0.41574 0.87722
 C1842 C 0.54508 0.42707 0.86610
 C1843 C 0.55238 0.42005 0.84623
 H1844 H 0.54493 0.40659 0.83852
 O1845 O 0.60543 0.47921 0.92360
 O1846 O 0.63026 0.47920 0.89893
 C1847 C 0.62273 0.47198 0.91619
 C1848 C 0.63388 0.45469 0.92756
 C1849 C 0.65384 0.44755 0.92065
 H1850 H 0.66157 0.45507 0.90724
 O1851 O 0.39403 0.52043 0.92351
 O1852 O 0.36921 0.52046 0.89882
 C1853 C 0.37674 0.52768 0.91608
 C1854 C 0.36561 0.54501 0.92743
 C1855 C 0.34566 0.55217 0.92049
 H1856 H 0.33794 0.54465 0.90709
 O1857 O 0.42296 0.60555 0.97950
 O1858 O 0.39827 0.63036 0.97944
 C1859 C 0.41554 0.62283 0.97224
 C1860 C 0.42688 0.63396 0.95491
 C1861 C 0.41998 0.65392 0.94776
 H1862 H 0.40659 0.66166 0.95530
 O1863 O 0.57643 0.39427 0.97964
 O1864 O 0.60111 0.36945 0.97965
 C1865 C 0.58386 0.37697 0.97242
 C1866 C 0.57252 0.36582 0.95510
 C1867 C 0.57946 0.34586 0.94797
 H1868 H 0.59285 0.33814 0.95552
 O1869 O 0.57633 0.52054 0.89450
 O1870 O 0.60100 0.52059 0.86968
 C1871 C 0.58373 0.52778 0.87721
 C1872 C 0.57236 0.54507 0.86605
 C1873 C 0.57920 0.55215 0.84604
 H1874 H 0.59256 0.54460 0.83828
 O1875 O 0.42305 0.47899 0.89445
 O1876 O 0.39837 0.47894 0.86963
 C1877 C 0.41563 0.47173 0.87717
 C1878 C 0.42697 0.45439 0.86605
 C1879 C 0.42000 0.44713 0.84614
 H1880 H 0.40656 0.45459 0.83842
 O1881 O 0.52031 0.60560 0.92354
 O1882 O 0.52031 0.63040 0.89883
 C1883 C 0.52753 0.62289 0.91611
 C1884 C 0.54481 0.63405 0.92747
 C1885 C 0.55190 0.65404 0.92060
 H1886 H 0.54436 0.66178 0.90721
 O1887 O 0.47912 0.39413 0.92360
 O1888 O 0.47912 0.36927 0.89896
 C1889 C 0.47190 0.37682 0.91621
 C1890 C 0.45459 0.36570 0.92759
 C1891 C 0.44745 0.34573 0.92070
 H1892 H 0.45497 0.33799 0.90730
 O1893 O 0.60528 0.57663 0.97953
 O1894 O 0.63009 0.60130 0.97948
 C1895 C 0.62257 0.58403 0.97228
 C1896 C 0.63372 0.57266 0.95498
 C1897 C 0.65371 0.57951 0.94789
 H1898 H 0.66145 0.59289 0.95543
 O1899 O 0.39413 0.42318 0.97963
 O1900 O 0.36933 0.39851 0.97967
 C1901 C 0.37684 0.41576 0.97242
 C1902 C 0.36568 0.42709 0.95511
 C1903 C 0.34570 0.42020 0.94801
 H1904 H 0.33796 0.40683 0.95558
 Cu1905 Cu 0.49979 0.41112 0.91151
 Cu1906 Cu 0.49984 0.38137 0.88184
 Cu1907 Cu 0.49965 0.58857 0.91150
 Cu1908 Cu 0.49962 0.61823 0.88174
 Cu1909 Cu 0.41103 0.49971 0.91147
 Cu1910 Cu 0.38132 0.49970 0.88176
 Cu1911 Cu 0.58841 0.49987 0.91152
 Cu1912 Cu 0.61812 0.49990 0.88181
 C1913 C 0.44435 0.44432 0.87578
 H1914 H 0.44964 0.44964 0.89125
 C1915 C 0.43015 0.43003 0.83622
 C1916 C 0.55506 0.55524 0.87583
 H1917 H 0.54986 0.55005 0.89138
 C1918 C 0.56901 0.56919 0.83607
 C1919 C 0.37541 0.44440 0.94492
 H1920 H 0.39094 0.44962 0.95011
 C1921 C 0.33572 0.43034 0.93095
 C1922 C 0.62398 0.55534 0.94483
 H1923 H 0.60844 0.55013 0.95003
 C1924 C 0.66370 0.56932 0.93086
 C1925 C 0.44446 0.37545 0.94493
 H1926 H 0.44969 0.39097 0.95015
 C1927 C 0.43039 0.33579 0.93087
 C1928 C 0.55497 0.62431 0.94480
 H1929 H 0.54978 0.60877 0.95001
 C1930 C 0.56893 0.66402 0.93078
 C1931 C 0.44434 0.55511 0.87583
 H1932 H 0.44946 0.54997 0.89142
 C1933 C 0.43055 0.56891 0.83596
 C1934 C 0.55514 0.44447 0.87581
 H1935 H 0.54980 0.44979 0.89127
 C1936 C 0.56950 0.43016 0.83632
 C1937 C 0.55519 0.37554 0.94493
 H1938 H 0.54994 0.39105 0.95015
 C1939 C 0.56933 0.33588 0.93090
 C1940 C 0.44421 0.62422 0.94477
 H1941 H 0.44945 0.60871 0.95000
 C1942 C 0.43012 0.66387 0.93069
 C1943 C 0.37534 0.55515 0.94478
 H1944 H 0.39084 0.54991 0.95004
 C1945 C 0.33571 0.56925 0.93063
 C1946 C 0.62415 0.44455 0.94491
 H1947 H 0.60864 0.44978 0.95015
 C1948 C 0.66381 0.43049 0.93080
 O1949 O 0.52046 0.42346 1.10624
 O1950 O 0.52050 0.39880 1.13109
 C1951 C 0.52770 0.41606 1.12354
 C1952 C 0.54500 0.42742 1.13467
 C1953 C 0.55215 0.42054 1.15465
 H1954 H 0.54463 0.40717 1.16241
 O1955 O 0.47895 0.57669 1.10610
 O1956 O 0.47890 0.60140 1.13088
 C1957 C 0.47169 0.58413 1.12338
 C1958 C 0.45437 0.57280 1.13453
 C1959 C 0.44719 0.57976 1.15446
 H1960 H 0.45470 0.59318 1.16218
 O1961 O 0.39399 0.52072 1.07706
 O1962 O 0.36914 0.52073 1.10171
 C1963 C 0.37668 0.52794 1.08445
 C1964 C 0.36553 0.54522 1.07306
 C1965 C 0.34559 0.55241 1.07998
 H1966 H 0.33787 0.54493 1.09342
 O1967 O 0.60541 0.47933 1.07705
 O1968 O 0.63025 0.47934 1.10170
 C1969 C 0.62271 0.47211 1.08445
 C1970 C 0.63385 0.45480 1.07308
 C1971 C 0.65383 0.44767 1.07996
 H1972 H 0.66158 0.45520 1.09335
 O1973 O 0.57641 0.39432 1.02106
 O1974 O 0.60108 0.36950 1.02112
 C1975 C 0.58382 0.37704 1.02833
 C1976 C 0.57247 0.36594 1.04567
 C1977 C 0.57933 0.34595 1.05279
 H1978 H 0.59268 0.33818 1.04523
 O1979 O 0.42297 0.60555 1.02091
 O1980 O 0.39829 0.63036 1.02090
 C1981 C 0.41555 0.62284 1.02813
 C1982 C 0.42690 0.63400 1.04544
 C1983 C 0.42002 0.65399 1.05252
 H1984 H 0.40664 0.66173 1.04496
 O1985 O 0.42308 0.47937 1.10616
 O1986 O 0.39838 0.47932 1.13097
 C1987 C 0.41565 0.47212 1.12345
 C1988 C 0.42700 0.45482 1.13460
 C1989 C 0.42009 0.44768 1.15457
 H1990 H 0.40669 0.45520 1.16230
 O1991 O 0.57636 0.52077 1.10607
 O1992 O 0.60105 0.52084 1.13088
 C1993 C 0.58378 0.52804 1.12335
 C1994 C 0.57242 0.54536 1.13447
 C1995 C 0.57933 0.55254 1.15443
 H1996 H 0.59273 0.54503 1.16217
 O1997 O 0.47913 0.39438 1.07715
 O1998 O 0.47912 0.36956 1.10183
 C1999 C 0.47192 0.37708 1.08455
 C2000 C 0.45467 0.36590 1.07316
 C2001 C 0.44763 0.34589 1.08001
 H2002 H 0.45518 0.33815 1.09339
 O2003 O 0.52031 0.60571 1.07697
 O2004 O 0.52031 0.63057 1.10161
 C2005 C 0.52754 0.62302 1.08436
 C2006 C 0.54485 0.63414 1.07299
 C2007 C 0.55201 0.65409 1.07990
 H2008 H 0.54448 0.66184 1.09330
 O2009 O 0.39420 0.42327 1.02104
 O2010 O 0.36940 0.39859 1.02113
 C2011 C 0.37692 0.41587 1.02831
 C2012 C 0.36577 0.42725 1.04560
 C2013 C 0.34577 0.42041 1.05268
 H2014 H 0.33803 0.40704 1.04513
 O2015 O 0.60529 0.57663 1.02093
 O2016 O 0.63012 0.60129 1.02092
 C2017 C 0.62260 0.58403 1.02814
 C2018 C 0.63377 0.57265 1.04541
 C2019 C 0.65382 0.57944 1.05240
 H2020 H 0.66159 0.59276 1.04479
 O2021 O 0.52034 0.57668 1.10605
 O2022 O 0.52035 0.60138 1.13085
 C2023 C 0.52758 0.58412 1.12333
 C2024 C 0.54492 0.57280 1.13447
 C2025 C 0.55208 0.57973 1.15443
 H2026 H 0.54454 0.59312 1.16217
 O2027 O 0.47907 0.42343 1.10623
 O2028 O 0.47905 0.39876 1.13107
 C2029 C 0.47182 0.41601 1.12352
 C2030 C 0.45448 0.42736 1.13464
 C2031 C 0.44731 0.42046 1.15461
 H2032 H 0.45483 0.40707 1.16237
 O2033 O 0.60539 0.52071 1.07697
 O2034 O 0.63024 0.52078 1.10162
 C2035 C 0.62269 0.52795 1.08434
 C2036 C 0.63382 0.54521 1.07291
 C2037 C 0.65386 0.55225 1.07967
 H2038 H 0.66166 0.54469 1.09301
 O2039 O 0.39410 0.47933 1.07704
 O2040 O 0.36924 0.47929 1.10168
 C2041 C 0.37681 0.47207 1.08442
 C2042 C 0.36571 0.45476 1.07305
 C2043 C 0.34571 0.44766 1.07987
 H2044 H 0.33792 0.45523 1.09322
 O2045 O 0.57625 0.60571 1.02095
 O2046 O 0.60092 0.63052 1.02096
 C2047 C 0.58367 0.62299 1.02819
 C2048 C 0.57232 0.63413 1.04552
 C2049 C 0.57923 0.65408 1.05268
 H2050 H 0.59263 0.66181 1.04515
 O2051 O 0.42325 0.39420 1.02105
 O2052 O 0.39861 0.36936 1.02113
 C2053 C 0.41586 0.37692 1.02832
 C2054 C 0.42724 0.36581 1.04564
 C2055 C 0.42045 0.34580 1.05274
 H2056 H 0.40712 0.33800 1.04517
 O2057 O 0.57639 0.47938 1.10615
 O2058 O 0.60108 0.47939 1.13096
 C2059 C 0.58381 0.47217 1.12345
 C2060 C 0.57247 0.45488 1.13462
 C2061 C 0.57938 0.44775 1.15460
 H2062 H 0.59277 0.45528 1.16233
 O2063 O 0.42302 0.52076 1.10615
 O2064 O 0.39833 0.52077 1.13096
 C2065 C 0.41559 0.52801 1.12344
 C2066 C 0.42691 0.54534 1.13456
 C2067 C 0.41997 0.55255 1.15450
 H2068 H 0.40656 0.54506 1.16224
 O2069 O 0.47893 0.60565 1.07693
 O2070 O 0.47888 0.63052 1.10156
 C2071 C 0.47167 0.62295 1.08431
 C2072 C 0.45436 0.63405 1.07292
 C2073 C 0.44723 0.65405 1.07975
 H2074 H 0.45477 0.66183 1.09311
 O2075 O 0.52050 0.39442 1.07716
 O2076 O 0.52055 0.36960 1.10185
 C2077 C 0.52775 0.37714 1.08458
 C2078 C 0.54504 0.36599 1.07320
 C2079 C 0.55215 0.34600 1.08007
 H2080 H 0.54462 0.33826 1.09346
 O2081 O 0.60546 0.42337 1.02103
 O2082 O 0.63028 0.39870 1.02109
 C2083 C 0.62274 0.41597 1.02829
 C2084 C 0.63387 0.42733 1.04560
 C2085 C 0.65384 0.42046 1.05272
 H2086 H 0.66160 0.40709 1.04518
 O2087 O 0.39390 0.57652 1.02091
 O2088 O 0.36907 0.60118 1.02091
 C2089 C 0.37661 0.58393 1.02815
 C2090 C 0.36549 0.57261 1.04550
 C2091 C 0.34555 0.57954 1.05267
 H2092 H 0.33780 0.59292 1.04512
 Cu2093 Cu 0.49979 0.41140 1.08923
 Cu2094 Cu 0.49981 0.38170 1.11895
 Cu2095 Cu 0.49963 0.58871 1.08905
 Cu2096 Cu 0.49960 0.61846 1.11871
 Cu2097 Cu 0.41117 0.41117 1.00033
 Cu2098 Cu 0.38149 0.38146 1.00041
 Cu2099 Cu 0.58848 0.41129 1.00033
 Cu2100 Cu 0.61819 0.38158 1.00038
 Cu2101 Cu 0.41092 0.58854 1.00021
 Cu2102 Cu 0.38120 0.61823 1.00017
 Cu2103 Cu 0.58829 0.58869 1.00024
 Cu2104 Cu 0.61799 0.61839 1.00021
 Cu2105 Cu 0.41102 0.50005 1.08913
 Cu2106 Cu 0.38128 0.50002 1.11882
 Cu2107 Cu 0.58841 0.50004 1.08909
 Cu2108 Cu 0.61814 0.50009 1.11878
 C2109 C 0.55514 0.44474 1.12490
 H2110 H 0.54990 0.44995 1.10937
 C2111 C 0.56922 0.43070 1.16458
 C2112 C 0.44426 0.55545 1.12481
 H2113 H 0.44952 0.55017 1.10932
 C2114 C 0.43011 0.56965 1.16442
 C2115 C 0.37525 0.55531 1.05568
 H2116 H 0.39075 0.55005 1.05043
 C2117 C 0.33563 0.56945 1.06979
 C2118 C 0.62410 0.44465 1.05576
 H2119 H 0.60858 0.44987 1.05053
 C2120 C 0.66380 0.43062 1.06978
 C2121 C 0.55518 0.37573 1.05585
 H2122 H 0.54998 0.39126 1.05064
 C2123 C 0.56917 0.33601 1.06987
 C2124 C 0.44421 0.62426 1.05562
 H2125 H 0.44943 0.60872 1.05044
 C2126 C 0.43019 0.66399 1.06955
 C2127 C 0.44434 0.44468 1.12487
 H2128 H 0.44959 0.44991 1.10935
 C2129 C 0.43023 0.43062 1.16454
 C2130 C 0.55508 0.55547 1.12473
 H2131 H 0.54984 0.55022 1.10922
 C2132 C 0.56916 0.56960 1.16438
 C2133 C 0.44450 0.37563 1.05583
 H2134 H 0.44965 0.39119 1.05064
 C2135 C 0.43064 0.33587 1.06980
 C2136 C 0.55499 0.62439 1.05565
 H2137 H 0.54974 0.60889 1.05041
 C2138 C 0.56908 0.66403 1.06975
 C2139 C 0.37551 0.44457 1.05576
 H2140 H 0.39106 0.44977 1.05058
 C2141 C 0.33577 0.43061 1.06969
 C2142 C 0.62400 0.55539 1.05564
 H2143 H 0.60842 0.55024 1.05052
 C2144 C 0.66383 0.56924 1.06941
 C2145 C 1.12435 1.12352 1.29456
 C2146 C 1.11693 1.11621 1.27851
 C2147 C 1.10821 1.10767 1.25920
 C2148 C 1.11764 1.08997 1.24959
 C2149 C 1.10948 1.08200 1.23054
 C2150 C 1.09187 1.09168 1.22104
 C2151 C 1.08236 1.10930 1.23072
 C2152 C 1.09051 1.11727 1.24977
 C2153 C 1.08382 1.08380 1.20117
 C2154 C 1.07725 1.07732 1.18441
 H2155 H 1.13135 1.08245 1.25673
 H2156 H 1.11698 1.06839 1.22317
 H2157 H 1.06876 1.11693 1.22348
 H2158 H 1.08313 1.13099 1.25705
 C2159 C 1.12374 0.62292 0.79457
 C2160 C 1.11636 0.61561 0.77850
 C2161 C 1.10770 0.60706 0.75918
 C2162 C 1.09006 0.61668 0.74966
 C2163 C 1.08198 0.60871 0.73059
 C2164 C 1.09150 0.59108 0.72095
 C2165 C 1.10906 0.58137 0.73053
 C2166 C 1.11714 0.58934 0.74961
 C2167 C 1.08355 0.58324 0.70103
 C2168 C 1.07706 0.57681 0.68422
 H2169 H 1.08266 0.63041 0.75691
 H2170 H 1.06842 0.61637 0.72329
 H2171 H 1.11657 0.56776 0.72319
 H2172 H 1.13082 0.58180 0.75681
 C2173 C 0.62388 1.12317 0.79443
 C2174 C 0.61648 1.11591 0.77835
 C2175 C 0.60778 1.10743 0.75901
 C2176 C 0.59014 1.11710 0.74955
 C2177 C 0.58200 1.10917 0.73047
 C2178 C 0.59147 1.09154 0.72079
 C2179 C 0.60904 1.08179 0.73032
 C2180 C 0.61718 1.08972 0.74939
 C2181 C 0.58345 1.08371 0.70090
 C2182 C 0.57690 1.07726 0.68411
 H2183 H 0.58278 1.13083 0.75683
 H2184 H 0.56844 1.11686 0.72322
 H2185 H 0.61652 1.06818 0.72294
 H2186 H 0.63086 1.08215 0.75655
 C2187 C 0.62348 0.62353 1.29478
 C2188 C 0.61608 0.61618 1.27874
 C2189 C 0.60741 0.60758 1.25944
 C2190 C 0.58978 0.61720 1.24990
 C2191 C 0.58168 0.60919 1.23085
 C2192 C 0.59120 0.59153 1.22125
 C2193 C 0.60875 0.58182 1.23086
 C2194 C 0.61684 0.58984 1.24992
 C2195 C 0.58324 0.58364 1.20135
 C2196 C 0.57673 0.57717 1.18456
 H2197 H 0.58239 0.63095 1.25711
 H2198 H 0.56813 0.61683 1.22353
 H2199 H 0.61625 0.56819 1.22355
 H2200 H 0.63050 0.58231 1.25713
 C2201 C 0.87662 0.87666 1.29484
 C2202 C 0.88396 0.88402 1.27877
 C2203 C 0.89255 0.89265 1.25943
 C2204 C 0.91021 0.88312 1.24986
 C2205 C 0.91822 0.89117 1.23078
 C2206 C 0.90859 0.90877 1.22120
 C2207 C 0.89101 0.91838 1.23084
 C2208 C 0.88300 0.91033 1.24992
 C2209 C 0.91648 0.91670 1.20128
 C2210 C 0.92295 0.92319 1.18448
 H2211 H 0.91769 0.86941 1.25706
 H2212 H 0.93180 0.88359 1.22344
 H2213 H 0.88342 0.93197 1.22354
 H2214 H 0.86931 0.91779 1.25717
 C2215 C 0.87618 0.37652 0.79444
 C2216 C 0.88353 0.38385 0.77836
 C2217 C 0.89218 0.39242 0.75904
 C2218 C 0.90992 0.38290 0.74958
 C2219 C 0.91801 0.39091 0.73052
 C2220 C 0.90841 0.40847 0.72083
 C2221 C 0.89075 0.41807 0.73035
 C2222 C 0.88266 0.41006 0.74942
 C2223 C 0.91639 0.41635 0.70094
 C2224 C 0.92292 0.42282 0.68416
 H2225 H 0.91738 0.36923 0.75686
 H2226 H 0.93164 0.38333 0.72327
 H2227 H 0.88318 0.43163 0.72298
 H2228 H 0.86891 0.41752 0.75657
 C2229 C 0.37607 0.87698 0.79449
 C2230 C 0.38346 0.88429 0.77843
 C2231 C 0.39213 0.89284 0.75911
 C2232 C 0.40972 0.88316 0.74955
 C2233 C 0.41782 0.89114 0.73048
 C2234 C 0.40837 0.90883 0.72089
 C2235 C 0.39087 0.91860 0.73052
 C2236 C 0.38276 0.91062 0.74959
 C2237 C 0.41635 0.91670 0.70099
 C2238 C 0.42288 0.92315 0.68420
 H2239 H 0.41706 0.86938 0.75675
 H2240 H 0.43134 0.88344 0.72315
 H2241 H 0.38341 0.93227 0.72322
 H2242 H 0.36913 0.91821 0.75682
 C2243 C 0.37587 0.37687 1.29503
 C2244 C 0.38325 0.38421 1.27897
 C2245 C 0.39191 0.39277 1.25965
 C2246 C 0.40960 0.38320 1.25017
 C2247 C 0.41770 0.39118 1.23110
 C2248 C 0.40813 0.40877 1.22143
 C2249 C 0.39052 0.41843 1.23097
 C2250 C 0.38243 0.41045 1.25005
 C2251 C 0.41611 0.41663 1.20152
 C2252 C 0.42264 0.42307 1.18473
 H2253 H 0.41703 0.36950 1.25744
 H2254 H 0.43130 0.38357 1.22384
 H2255 H 0.38298 0.43201 1.22361
 H2256 H 0.36871 0.41794 1.25722
 C2257 C 0.87496 1.12399 0.70595
 C2258 C 0.88243 1.11663 0.72197
 C2259 C 0.89122 1.10803 0.74122
 C2260 C 0.90892 1.11764 0.75065
 C2261 C 0.91716 1.10961 0.76963
 C2262 C 0.90775 1.09192 0.77927
 C2263 C 0.89014 1.08223 0.76978
 C2264 C 0.88189 1.09027 0.75080
 C2265 C 0.91590 1.08399 0.79909
 C2266 C 0.92255 1.07746 0.81580
 H2267 H 0.91624 1.13141 0.74340
 H2268 H 0.93076 1.11725 0.77685
 H2269 H 0.88271 1.06857 0.77712
 H2270 H 0.86818 1.08274 0.74367
 C2271 C 0.87763 0.62227 0.20471
 C2272 C 0.88494 0.61497 0.22081
 C2273 C 0.89350 0.60645 0.24019
 C2274 C 0.88386 0.58891 0.24988
 C2275 C 0.89183 0.58100 0.26902
 C2276 C 0.90947 0.59059 0.27856
 C2277 C 0.91919 0.60804 0.26881
 C2278 C 0.91122 0.61596 0.24966
 C2279 C 0.91730 0.58282 0.29856
 C2280 C 0.92370 0.57645 0.31542
 H2281 H 0.87012 0.58148 0.24271
 H2282 H 0.88417 0.56752 0.27646
 H2283 H 0.93281 0.61561 0.27608
 H2284 H 0.91877 0.62956 0.24233
 C2285 C 0.37667 1.12304 0.20508
 C2286 C 0.38399 1.11573 0.22118
 C2287 C 0.39256 1.10720 0.24055
 C2288 C 0.41033 1.11666 0.24999
 C2289 C 0.41832 1.10871 0.26911
 C2290 C 0.40859 1.09126 0.27887
 C2291 C 0.39090 1.08172 0.26936
 C2292 C 0.38291 1.08967 0.25024
 C2293 C 0.41646 1.08343 0.29882
 C2294 C 0.42290 1.07701 0.31565
 H2295 H 0.41788 1.13025 0.24265
 H2296 H 0.43198 1.11623 0.27635
 H2297 H 0.38323 1.06825 0.27679
 H2298 H 0.36914 1.08227 0.24309
 C2299 C 0.37769 0.62227 0.70475
 C2300 C 0.38494 0.61495 0.72087
 C2301 C 0.39340 0.60639 0.74028
 C2302 C 0.41114 0.61581 0.74981
 C2303 C 0.41899 0.60786 0.76899
 C2304 C 0.40914 0.59047 0.77872
 C2305 C 0.39149 0.58096 0.76912
 C2306 C 0.38363 0.58891 0.74994
 C2307 C 0.41685 0.58268 0.79876
 C2308 C 0.42316 0.57631 0.81566
 H2309 H 0.41878 0.62937 0.74250
 H2310 H 0.43262 0.61536 0.77631
 H2311 H 0.38372 0.56754 0.77653
 H2312 H 0.36988 0.58154 0.74273
 C2313 C 1.12391 0.87697 0.70538
 C2314 C 1.11654 0.88426 0.72147
 C2315 C 1.10788 0.89277 0.74081
 C2316 C 1.09023 0.88314 0.75031
 C2317 C 1.08212 0.89109 0.76939
 C2318 C 1.09164 0.90870 0.77905
 C2319 C 1.10921 0.91841 0.76950
 C2320 C 1.11731 0.91046 0.75042
 C2321 C 1.08366 0.91654 0.79897
 C2322 C 1.07714 0.92299 0.81577
 H2323 H 1.08284 0.86942 0.74304
 H2324 H 1.06856 0.88344 0.77667
 H2325 H 1.11672 0.93201 0.77686
 H2326 H 1.13099 0.91800 0.74324
 C2327 C 1.12319 0.37753 0.20481
 C2328 C 1.11587 0.38481 0.22092
 C2329 C 1.10730 0.39330 0.24032
 C2330 C 1.08976 0.38360 0.24993
 C2331 C 1.08178 0.39150 0.26909
 C2332 C 1.09131 0.40913 0.27869
 C2333 C 1.10877 0.41892 0.26901
 C2334 C 1.11675 0.41102 0.24985
 C2335 C 1.08347 0.41691 0.29868
 C2336 C 1.07706 0.42328 0.31555
 H2337 H 1.08237 0.36986 0.24272
 H2338 H 1.06830 0.38379 0.27647
 H2339 H 1.11628 0.43254 0.27633
 H2340 H 1.13035 0.41861 0.24258
 C2341 C 0.62347 0.87656 0.20535
 C2342 C 0.61610 0.88393 0.22140
 C2343 C 0.60746 0.89257 0.24070
 C2344 C 0.61696 0.91028 0.25021
 C2345 C 0.60891 0.91833 0.26927
 C2346 C 0.59133 0.90871 0.27890
 C2347 C 0.58175 0.89109 0.26932
 C2348 C 0.58980 0.88303 0.25026
 C2349 C 0.58341 0.91664 0.29880
 C2350 C 0.57692 0.92312 0.31560
 H2351 H 0.63065 0.91775 0.24298
 H2352 H 0.61647 0.93194 0.27657
 H2353 H 0.56817 0.88350 0.27665
 H2354 H 0.58236 0.86931 0.24306
 C2355 C 0.62443 0.37646 0.70601
 C2356 C 0.61709 0.38357 0.72219
 C2357 C 0.60844 0.39179 0.74166
 C2358 C 0.60517 0.41364 0.74414
 C2359 C 0.59699 0.42158 0.76320
 C2360 C 0.59204 0.40768 0.77985
 C2361 C 0.59525 0.38583 0.77734
 C2362 C 0.60343 0.37790 0.75830
 C2363 C 0.58392 0.41580 0.79960
 C2364 C 0.57726 0.42243 0.81627
 H2365 H 0.60901 0.42452 0.73139
 H2366 H 0.59460 0.43851 0.76499
 H2367 H 0.59152 0.37495 0.79013
 H2368 H 0.60591 0.36098 0.75656
 C2369 C 1.29473 1.12263 1.12344
 C2370 C 1.27863 1.11536 1.11609
 C2371 C 1.25928 1.10687 1.10748
 C2372 C 1.24980 1.11646 1.08979
 C2373 C 1.23069 1.10855 1.08175
 C2374 C 1.22098 1.09102 1.09137
 C2375 C 1.23052 1.08135 1.10898
 C2376 C 1.24963 1.08926 1.11702
 C2377 C 1.20104 1.08323 1.08347
 C2378 C 1.18421 1.07683 1.07702
 H2379 H 1.25711 1.13012 1.08232
 H2380 H 1.22343 1.11618 1.06815
 H2381 H 1.22312 1.06781 1.11656
 H2382 H 1.25680 1.08175 1.13073
 C2383 C 1.29523 0.62243 0.62222
 C2384 C 1.27910 0.61516 0.61495
 C2385 C 1.25970 0.60663 0.60647
 C2386 C 1.25014 0.61612 0.58878
 C2387 C 1.23099 0.60817 0.58089
 C2388 C 1.22132 0.59070 0.59067
 C2389 C 1.23095 0.58112 0.60828
 C2390 C 1.25011 0.58907 0.61617
 C2391 C 1.20134 0.58287 0.58291
 C2392 C 1.18448 0.57648 0.57655
 H2393 H 1.25740 0.62974 0.58120
 H2394 H 1.22365 0.61572 0.56730
 H2395 H 1.22359 0.56763 0.61598
 H2396 H 1.25735 0.58164 0.62988
 C2397 C 0.79382 1.12415 0.62488
 C2398 C 0.77780 1.11682 0.61743
 C2399 C 0.75854 1.10824 0.60865
 C2400 C 0.74890 1.09058 0.61810
 C2401 C 0.72991 1.08255 0.60987
 C2402 C 0.72050 1.09214 0.59215
 C2403 C 0.73021 1.10972 0.58262
 C2404 C 0.74920 1.11775 0.59085
 C2405 C 0.70069 1.08420 0.58402
 C2406 C 0.68398 1.07767 0.57738
 H2407 H 0.75597 1.08312 0.63189
 H2408 H 0.72252 1.06897 0.61739
 H2409 H 0.72305 1.11729 0.56894
 H2410 H 0.75650 1.13144 0.58344
 C2411 C 0.79496 0.62251 1.12237
 C2412 C 0.77882 0.61525 1.11512
 C2413 C 0.75940 0.60675 1.10666
 C2414 C 0.74979 0.61631 1.08903
 C2415 C 0.73062 0.60839 1.08115
 C2416 C 0.72099 0.59087 1.09087
 C2417 C 0.73066 0.58122 1.10842
 C2418 C 0.74983 0.58915 1.11630
 C2419 C 0.70098 0.58307 1.08313
 C2420 C 0.68411 0.57668 1.07680
 H2421 H 0.75703 0.62996 1.08148
 H2422 H 0.72324 0.61599 1.06760
 H2423 H 0.72332 0.56769 1.11608
 H2424 H 0.75711 0.58166 1.12997
 C2425 C 1.29455 0.87652 0.87660
 C2426 C 1.27848 0.88387 0.88397
 C2427 C 1.25917 0.89247 0.89259
 C2428 C 1.25018 0.88356 0.91087
 C2429 C 1.23110 0.89157 0.91893
 C2430 C 1.22095 0.90852 0.90873
 C2431 C 1.23001 0.91751 0.89052
 C2432 C 1.24908 0.90951 0.88247
 C2433 C 1.20104 0.91639 0.91669
 C2434 C 1.18425 0.92286 0.92318
 H2435 H 1.25782 0.87035 0.91880
 H2436 H 1.22421 0.88446 0.93300
 H2437 H 1.22226 0.93060 0.88249
 H2438 H 1.25587 0.91649 0.86829
 C2439 C 1.29481 0.37678 0.37615
 C2440 C 1.27875 0.38410 0.38355
 C2441 C 1.25944 0.39265 0.39222
 C2442 C 1.24992 0.38301 0.40986
 C2443 C 1.23086 0.39098 0.41797
 C2444 C 1.22123 0.40863 0.40847
 C2445 C 1.23081 0.41835 0.39091
 C2446 C 1.24988 0.41038 0.38280
 C2447 C 1.20133 0.41648 0.41644
 C2448 C 1.18454 0.42293 0.42296
 H2449 H 1.25716 0.36926 0.41724
 H2450 H 1.22356 0.38331 0.43152
 H2451 H 1.22348 0.43198 0.38341
 H2452 H 1.25708 0.41793 0.36913
 C2453 C 0.79457 0.87703 0.37639
 C2454 C 0.77849 0.88435 0.38371
 C2455 C 0.75914 0.89294 0.39227
 C2456 C 0.75069 0.88476 0.41115
 C2457 C 0.73160 0.89275 0.41918
 C2458 C 0.72089 0.90895 0.40836
 C2459 C 0.72940 0.91722 0.38955
 C2460 C 0.74849 0.90924 0.38153
 C2461 C 0.70097 0.91679 0.41630
 C2462 C 0.68417 0.92323 0.42280
 H2463 H 0.75878 0.87213 0.41957
 H2464 H 0.72513 0.88621 0.43371
 H2465 H 0.72122 0.92973 0.38104
 H2466 H 0.75486 0.91565 0.36689
 C2467 C 0.79422 0.37693 0.87614
 C2468 C 0.77816 0.38422 0.88355
 C2469 C 0.75884 0.39274 0.89227
 C2470 C 0.74924 0.41046 0.88287
 C2471 C 0.73018 0.41841 0.89102
 C2472 C 0.72065 0.40867 0.90860
 C2473 C 0.73032 0.39103 0.91807
 C2474 C 0.74938 0.38308 0.90993
 C2475 C 0.70076 0.41651 0.91663
 C2476 C 0.68398 0.42294 0.92319
 H2477 H 0.75640 0.41802 0.86918
 H2478 H 0.72282 0.43203 0.88354
 H2479 H 0.72306 0.38336 0.93164
 H2480 H 0.75664 0.36935 0.91729
 C2481 C 0.70554 0.87694 1.12381
 C2482 C 0.72161 0.88428 1.11647
 C2483 C 0.74094 0.89288 1.10790
 C2484 C 0.75199 0.90864 1.11903
 C2485 C 0.77106 0.91663 1.11097
 C2486 C 0.77916 0.90890 1.09175
 C2487 C 0.76805 0.89324 1.08055
 C2488 C 0.74897 0.88524 1.08861
 C2489 C 0.79905 0.91675 1.08375
 C2490 C 0.81583 0.92320 1.07723
 H2491 H 0.74595 0.91462 1.13397
 H2492 H 0.77955 0.92871 1.11977
 H2493 H 0.77419 0.88712 1.06570
 H2494 H 0.74058 0.87303 1.07990
 C2495 C 0.70575 0.37627 0.62366
 C2496 C 0.72183 0.38355 0.61628
 C2497 C 0.74117 0.39202 0.60760
 C2498 C 0.75377 0.37950 0.59421
 C2499 C 0.77282 0.38753 0.58615
 C2500 C 0.77936 0.40811 0.59143
 C2501 C 0.76671 0.42067 0.60473
 C2502 C 0.74765 0.41264 0.61280
 C2503 C 0.79921 0.41614 0.58353
 C2504 C 0.81597 0.42268 0.57703
 H2505 H 0.74893 0.36352 0.59013
 H2506 H 0.78250 0.37766 0.57592
 H2507 H 0.77163 0.43659 0.60895
 H2508 H 0.73805 0.42244 0.62317
 C2509 C 0.20546 0.87647 0.62330
 C2510 C 0.22153 0.88382 0.61597
 C2511 C 0.24085 0.89245 0.60739
 C2512 C 0.25044 0.88292 0.58972
 C2513 C 0.26950 0.89098 0.58172
 C2514 C 0.27906 0.90860 0.59134
 C2515 C 0.26941 0.91820 0.60893
 C2516 C 0.25034 0.91014 0.61694
 C2517 C 0.29896 0.91654 0.58345
 C2518 C 0.31574 0.92305 0.57697
 H2519 H 0.24326 0.86921 0.58225
 H2520 H 0.27686 0.88341 0.56814
 H2521 H 0.27669 0.93180 0.61652
 H2522 H 0.24309 0.91759 0.63063
 C2523 C 0.20483 0.37699 1.12288
 C2524 C 0.22095 0.38433 1.11562
 C2525 C 0.24033 0.39293 1.10717
 C2526 C 0.25083 0.40932 1.11791
 C2527 C 0.26998 0.41730 1.11001
 C2528 C 0.27869 0.40892 1.09134
 C2529 C 0.26812 0.39263 1.08052
 C2530 C 0.24897 0.38465 1.08842
 C2531 C 0.29867 0.41673 1.08354
 C2532 C 0.31552 0.42314 1.07715
 H2533 H 0.24431 0.41580 1.13244
 H2534 H 0.27804 0.42986 1.11852
 H2535 H 0.27474 0.38601 1.06610
 H2536 H 0.24100 0.37195 1.08002
 C2537 C 0.70557 1.12368 0.87636
 C2538 C 0.72166 1.11635 0.88370
 C2539 C 0.74099 1.10777 0.89232
 C2540 C 0.75046 1.11728 0.91005
 C2541 C 0.76952 1.10926 0.91811
 C2542 C 0.77919 1.09170 0.90848
 C2543 C 0.76965 1.08212 0.89082
 C2544 C 0.75059 1.09014 0.88276
 C2545 C 0.79908 1.08379 0.91643
 C2546 C 0.81586 1.07731 0.92294
 H2547 H 0.74319 1.13094 0.91754
 H2548 H 0.77679 1.11681 0.93175
 H2549 H 0.77701 1.06857 0.88322
 H2550 H 0.74342 1.08270 0.86901
 C2551 C 0.70563 0.62304 0.37623
 C2552 C 0.72171 0.61572 0.38357
 C2553 C 0.74105 0.60716 0.39216
 C2554 C 0.75043 0.61655 0.41001
 C2555 C 0.76952 0.60856 0.41804
 C2556 C 0.77931 0.59116 0.40825
 C2557 C 0.76987 0.58170 0.39048
 C2558 C 0.75078 0.58968 0.38245
 C2559 C 0.79922 0.58329 0.41618
 C2560 C 0.81602 0.57684 0.42267
 H2561 H 0.74306 0.63010 0.41761
 H2562 H 0.77670 0.61603 0.43176
 H2563 H 0.77733 0.56826 0.38277
 H2564 H 0.74369 0.58233 0.36862
 C2565 C 0.20550 1.12349 0.37559
 C2566 C 0.22155 1.11616 0.38299
 C2567 C 0.24084 1.10760 0.39171
 C2568 C 0.25064 1.09011 0.38207
 C2569 C 0.26967 1.08213 0.39024
 C2570 C 0.27899 1.09160 0.40807
 C2571 C 0.26913 1.10900 0.41778
 C2572 C 0.25010 1.11699 0.40962
 C2573 C 0.29885 1.08373 0.41613
 C2574 C 0.31561 1.07726 0.42272
 H2575 H 0.24364 1.08276 0.36819
 H2576 H 0.27718 1.06869 0.38258
 H2577 H 0.27622 1.11647 0.43155
 H2578 H 0.24268 1.13054 0.41716
 C2579 C 0.20531 0.62341 0.87659
 C2580 C 0.22137 0.61605 0.88394
 C2581 C 0.24068 0.60742 0.89255
 C2582 C 0.25026 0.58980 0.88293
 C2583 C 0.26931 0.58174 0.89096
 C2584 C 0.27887 0.59126 0.90864
 C2585 C 0.26923 0.60880 0.91833
 C2586 C 0.25017 0.61686 0.91030
 C2587 C 0.29876 0.58332 0.91655
 C2588 C 0.31554 0.57682 0.92304
 H2589 H 0.24307 0.58240 0.86917
 H2590 H 0.27666 0.56820 0.88332
 H2591 H 0.27651 0.61631 0.93198
 H2592 H 0.24292 0.63051 0.91783
 C2593 C 1.12323 1.29503 1.12230
 C2594 C 1.11588 1.27894 1.11503
 C2595 C 1.10725 1.25958 1.10655
 C2596 C 1.08942 1.25027 1.11601
 C2597 C 1.08138 1.23114 1.10814
 C2598 C 1.09115 1.22125 1.09078
 C2599 C 1.10890 1.23064 1.08123
 C2600 C 1.11693 1.24977 1.08910
 C2601 C 1.08326 1.20127 1.08306
 C2602 C 1.07681 1.18442 1.07673
 H2603 H 1.08184 1.25770 1.12954
 H2604 H 1.06768 1.22399 1.11567
 H2605 H 1.11660 1.22310 1.06782
 H2606 H 1.13076 1.25681 1.08170
 C2607 C 1.12389 0.79448 0.62286
 C2608 C 1.11651 0.77842 0.61556
 C2609 C 1.10783 0.75909 0.60704
 C2610 C 1.11730 0.74945 0.58937
 C2611 C 1.10920 0.73037 0.58144
 C2612 C 1.09161 0.72086 0.59115
 C2613 C 1.08206 0.73057 0.60873
 C2614 C 1.09015 0.74965 0.61666
 C2615 C 1.08364 0.70094 0.58334
 C2616 C 1.07713 0.68414 0.57692
 H2617 H 1.13100 0.75660 0.58184
 H2618 H 1.11673 0.72298 0.56786
 H2619 H 1.06847 0.72332 0.61638
 H2620 H 1.08274 0.75695 0.63035
 C2621 C 0.62393 1.29455 0.62294
 C2622 C 0.61648 1.27854 0.61559
 C2623 C 0.60774 1.25927 0.60702
 C2624 C 0.59002 1.24986 0.61661
 C2625 C 0.58187 1.23082 0.60864
 C2626 C 0.59141 1.22112 0.59105
 C2627 C 0.60904 1.23060 0.58137
 C2628 C 0.61718 1.24964 0.58934
 C2629 C 0.58341 1.20122 0.58322
 C2630 C 0.57687 1.18444 0.57679
 H2631 H 0.58262 1.25716 0.63031
 H2632 H 0.56826 1.22360 0.61627
 H2633 H 0.61656 1.22320 0.56778
 H2634 H 0.63091 1.25676 0.58183
 C2635 C 0.62297 0.79452 1.12378
 C2636 C 0.61564 0.77845 1.11643
 C2637 C 0.60706 0.75913 1.10782
 C2638 C 0.61664 0.74957 1.09017
 C2639 C 0.60864 0.73049 1.08214
 C2640 C 0.59101 0.72090 1.09172
 C2641 C 0.58134 0.73054 1.10927
 C2642 C 0.58935 0.74961 1.11731
 C2643 C 0.58312 0.70100 1.08380
 C2644 C 0.57664 0.68421 1.07732
 H2645 H 0.63037 0.75677 1.08274
 H2646 H 0.61626 0.72315 1.06858
 H2647 H 0.56773 0.72324 1.11683
 H2648 H 0.58184 0.75686 1.13098
 C2649 C 0.87687 1.29457 0.87610
 C2650 C 0.88422 1.27851 0.88347
 C2651 C 0.89280 1.25920 0.89212
 C2652 C 0.91045 1.24959 0.88260
 C2653 C 0.91844 1.23053 0.89068
 C2654 C 0.90883 1.22099 0.90832
 C2655 C 0.89126 1.23066 0.91792
 C2656 C 0.88326 1.24973 0.90984
 C2657 C 0.91670 1.20109 0.91628
 C2658 C 0.92316 1.18430 0.92281
 H2659 H 0.91791 1.25676 0.86886
 H2660 H 0.93201 1.22316 0.88310
 H2661 H 0.88367 1.22340 0.93154
 H2662 H 0.86958 1.25699 0.91730
 C2663 C 0.87709 0.79452 0.37631
 C2664 C 0.88441 0.77846 0.38367
 C2665 C 0.89297 0.75913 0.39230
 C2666 C 0.91070 0.74961 0.38284
 C2667 C 0.91869 0.73052 0.39089
 C2668 C 0.90897 0.72088 0.40841
 C2669 C 0.89133 0.73047 0.41796
 C2670 C 0.88334 0.74956 0.40992
 C2671 C 0.91683 0.70096 0.41631
 C2672 C 0.92328 0.68415 0.42278
 H2673 H 0.91824 0.75685 0.36919
 H2674 H 0.93231 0.72322 0.38336
 H2675 H 0.88367 0.72313 0.43150
 H2676 H 0.86960 0.75677 0.41732
 C2677 C 0.37639 1.29480 0.37656
 C2678 C 0.38374 1.27874 0.38390
 C2679 C 0.39235 1.25941 0.39250
 C2680 C 0.38282 1.24987 0.41018
 C2681 C 0.39084 1.23079 0.41820
 C2682 C 0.40843 1.22118 0.40856
 C2683 C 0.41804 1.23079 0.39096
 C2684 C 0.41002 1.24987 0.38295
 C2685 C 0.41632 1.20126 0.41645
 C2686 C 0.42279 1.18446 0.42292
 H2687 H 0.36912 1.25709 0.41767
 H2688 H 0.38327 1.22346 0.43179
 H2689 H 0.43162 1.22347 0.38337
 H2690 H 0.41748 1.25710 0.36924
 C2691 C 0.37605 0.79444 0.87699
 C2692 C 0.38340 0.77836 0.88430
 C2693 C 0.39201 0.75902 0.89285
 C2694 C 0.38240 0.74936 0.91043
 C2695 C 0.39045 0.73027 0.91840
 C2696 C 0.40814 0.72077 0.90884
 C2697 C 0.41782 0.73051 0.89135
 C2698 C 0.40978 0.74959 0.88337
 C2699 C 0.41607 0.70086 0.91670
 C2700 C 0.42256 0.68406 0.92314
 H2701 H 0.36863 0.75649 0.91785
 H2702 H 0.38281 0.72285 0.93191
 H2703 H 0.43148 0.72328 0.88380
 H2704 H 0.41730 0.75691 0.86975
 C2705 C 1.12373 0.70544 0.87709
 C2706 C 1.11636 0.72150 0.88441
 C2707 C 1.10770 0.74083 0.89295
 C2708 C 1.08998 0.75027 0.88341
 C2709 C 1.08190 0.76936 0.89137
 C2710 C 1.09151 0.77907 0.90891
 C2711 C 1.10915 0.76955 0.91854
 C2712 C 1.11722 0.75047 0.91058
 C2713 C 1.08355 0.79899 0.91675
 C2714 C 1.07705 0.81579 0.92319
 H2715 H 1.08251 0.74297 0.86974
 H2716 H 1.06828 0.77660 0.88377
 H2717 H 1.11672 0.77695 0.93209
 H2718 H 1.13096 0.74332 0.91806
 C2719 C 1.12392 0.20548 0.37618
 C2720 C 1.11658 0.22153 0.38357
 C2721 C 1.10799 0.24083 0.39223
 C2722 C 1.08933 0.24951 0.38382
 C2723 C 1.08130 0.26856 0.39188
 C2724 C 1.09190 0.27902 0.40839
 C2725 C 1.11049 0.27028 0.41690
 C2726 C 1.11852 0.25122 0.40884
 C2727 C 1.08396 0.29891 0.41632
 C2728 C 1.07746 0.31569 0.42282
 H2729 H 1.08109 0.24162 0.37095
 H2730 H 1.06693 0.27521 0.38516
 H2731 H 1.11883 0.27826 0.42964
 H2732 H 1.13298 0.24468 0.41543
 C2733 C 0.62312 0.70555 0.37637
 C2734 C 0.61581 0.72162 0.38373
 C2735 C 0.60725 0.74096 0.39235
 C2736 C 0.58948 0.75044 0.38294
 C2737 C 0.58149 0.76953 0.39099
 C2738 C 0.59123 0.77919 0.40848
 C2739 C 0.60893 0.76964 0.41797
 C2740 C 0.61692 0.75056 0.40993
 C2741 C 0.58336 0.79911 0.41641
 C2742 C 0.57689 0.81590 0.42289
 H2743 H 0.58191 0.74318 0.36932
 H2744 H 0.56783 0.77680 0.38350
 H2745 H 0.61661 0.77700 0.43148
 H2746 H 0.63069 0.74338 0.41730
 C2747 C 0.62383 0.20554 0.87708
 C2748 C 0.61642 0.22158 0.88441
 C2749 C 0.60773 0.24087 0.89299
 C2750 C 0.58992 0.25024 0.88354
 C2751 C 0.58180 0.26928 0.89154
 C2752 C 0.59146 0.27904 0.90903
 C2753 C 0.60920 0.26961 0.91857
 C2754 C 0.61732 0.25056 0.91056
 C2755 C 0.58347 0.29893 0.91690
 C2756 C 0.57694 0.31571 0.92336
 H2757 H 0.58241 0.24290 0.86992
 H2758 H 0.56810 0.27647 0.88402
 H2759 H 0.61682 0.27705 0.93207
 H2760 H 0.63112 0.24348 0.91797
 C2761 C 0.87747 0.70497 1.12239
 C2762 C 0.88476 0.72110 1.11514
 C2763 C 0.89329 0.74050 1.10667
 C2764 C 0.88369 0.75016 1.08909
 C2765 C 0.89163 0.76933 1.08121
 C2766 C 0.90920 0.77891 1.09089
 C2767 C 0.91889 0.76918 1.10838
 C2768 C 0.91095 0.75001 1.11626
 C2769 C 0.91701 0.79891 1.08314
 C2770 C 0.92339 0.81579 1.07680
 H2771 H 0.87000 0.74296 1.08159
 H2772 H 0.88400 0.77674 1.06770
 H2773 H 0.93246 0.77648 1.11601
 H2774 H 0.91846 0.74270 1.12989
 C2775 C 0.87557 0.20596 0.62431
 C2776 C 0.88300 0.22196 0.61691
 C2777 C 0.89172 0.24120 0.60823
 C2778 C 0.90950 0.25062 0.61769
 C2779 C 0.91766 0.26960 0.60958
 C2780 C 0.90808 0.27924 0.59198
 C2781 C 0.89038 0.26975 0.58244
 C2782 C 0.88222 0.25077 0.59055
 C2783 C 0.91614 0.29905 0.58396
 C2784 C 0.92274 0.31575 0.57738
 H2785 H 0.91695 0.24337 0.63139
 H2786 H 0.93133 0.27682 0.61710
 H2787 H 0.88282 0.27709 0.56885
 H2788 H 0.86845 0.24364 0.58313
 C2789 C 0.37769 0.70494 0.62238
 C2790 C 0.38496 0.72107 0.61512
 C2791 C 0.39346 0.74047 0.60662
 C2792 C 0.41096 0.75015 0.61632
 C2793 C 0.41887 0.76932 0.60841
 C2794 C 0.40930 0.77888 0.59075
 C2795 C 0.39188 0.76913 0.58096
 C2796 C 0.38398 0.74996 0.58888
 C2797 C 0.41706 0.79888 0.58297
 C2798 C 0.42340 0.81575 0.57659
 H2799 H 0.41838 0.74297 0.63008
 H2800 H 0.43231 0.77675 0.61612
 H2801 H 0.38434 0.77641 0.56733
 H2802 H 0.37042 0.74263 0.58128
 C2803 C 0.37727 0.20504 1.12349
 C2804 C 0.38458 0.22113 1.11617
 C2805 C 0.39311 0.24049 1.10760
 C2806 C 0.38364 0.24994 1.08984
 C2807 C 0.39158 0.26907 1.08185
 C2808 C 0.40902 0.27881 1.09160
 C2809 C 0.41858 0.26929 1.10928
 C2810 C 0.41064 0.25017 1.11727
 C2811 C 0.41682 0.29878 1.08374
 C2812 C 0.42320 0.31562 1.07731
 H2813 H 0.37006 0.24262 1.08227
 H2814 H 0.38405 0.27632 1.06820
 H2815 H 0.43204 0.27672 1.11696
 H2816 H 0.41805 0.24302 1.13104
 C2817 C 1.12293 1.12293 0.70497
 C2818 C 1.11563 1.11560 0.72107
 C2819 C 1.10711 1.10701 0.74044
 C2820 C 1.11680 1.08947 0.75007
 C2821 C 1.10886 1.08147 0.76920
 C2822 C 1.09120 1.09099 0.77878
 C2823 C 1.08142 1.10845 0.76908
 C2824 C 1.08935 1.11645 0.74995
 C2825 C 1.08338 1.08313 0.79875
 C2826 C 1.07697 1.07670 0.81559
 H2827 H 1.13056 1.08209 0.74287
 H2828 H 1.11657 1.06800 0.77659
 H2829 H 1.06777 1.11595 0.77638
 H2830 H 1.08177 1.13005 0.74266
 C2831 C 1.12359 0.62456 0.20558
 C2832 C 1.11629 0.61712 0.22162
 C2833 C 1.10776 0.60834 0.24091
 C2834 C 1.09002 0.61770 0.25053
 C2835 C 1.08206 0.60949 0.26956
 C2836 C 1.09180 0.59189 0.27905
 C2837 C 1.10945 0.58245 0.26936
 C2838 C 1.11741 0.59066 0.25033
 C2839 C 1.08396 0.58380 0.29892
 C2840 C 1.07752 0.57719 0.31569
 H2841 H 1.08246 0.63140 0.24341
 H2842 H 1.06843 0.61693 0.27695
 H2843 H 1.11712 0.56887 0.27658
 H2844 H 1.13115 0.58333 0.24304
 C2845 C 0.62263 1.12345 0.20510
 C2846 C 0.61530 1.11606 0.22115
 C2847 C 0.60673 1.10743 0.24048
 C2848 C 0.58893 1.11680 0.24993
 C2849 C 0.58095 1.10877 0.26903
 C2850 C 0.59075 1.09133 0.27874
 C2851 C 0.60847 1.08187 0.26921
 C2852 C 0.61644 1.08990 0.25011
 C2853 C 0.58291 1.08345 0.29869
 C2854 C 0.57650 1.07700 0.31552
 H2855 H 0.58132 1.13039 0.24263
 H2856 H 0.56727 1.11624 0.27629
 H2857 H 0.61619 1.06841 0.27662
 H2858 H 0.63025 1.08256 0.24296
 C2859 C 0.62271 0.62267 0.70522
 C2860 C 0.61538 0.61537 0.72132
 C2861 C 0.60681 0.60683 0.74069
 C2862 C 0.61637 0.58920 0.75028
 C2863 C 0.60838 0.58125 0.76941
 C2864 C 0.59080 0.59090 0.77902
 C2865 C 0.58116 0.60846 0.76935
 C2866 C 0.58915 0.61641 0.75022
 C2867 C 0.58294 0.58308 0.79898
 C2868 C 0.57651 0.57667 0.81582
 H2869 H 0.63006 0.58171 0.74306
 H2870 H 0.61598 0.56770 0.77677
 H2871 H 0.56759 0.61607 0.77667
 H2872 H 0.58167 0.63008 0.74296
 C2873 C 0.87747 0.87740 0.70497
 C2874 C 0.88477 0.88470 0.72108
 C2875 C 0.89331 0.89325 0.74046
 C2876 C 0.88386 0.91102 0.74991
 C2877 C 0.89180 0.91898 0.76906
 C2878 C 0.90922 0.90920 0.77882
 C2879 C 0.91876 0.89152 0.76929
 C2880 C 0.91082 0.88356 0.75015
 C2881 C 0.91701 0.91702 0.79881
 C2882 C 0.92340 0.92341 0.81567
 H2883 H 0.87028 0.91861 0.74258
 H2884 H 0.88428 0.93264 0.77631
 H2885 H 0.93221 0.88381 0.77672
 H2886 H 0.91822 0.86979 0.74299
 C2887 C 0.87719 0.37631 0.20528
 C2888 C 0.88454 0.38365 0.22135
 C2889 C 0.89313 0.39227 0.24068
 C2890 C 0.88378 0.41014 0.25002
 C2891 C 0.89178 0.41819 0.26910
 C2892 C 0.90916 0.40839 0.27891
 C2893 C 0.91859 0.39059 0.26950
 C2894 C 0.91060 0.38255 0.25042
 C2895 C 0.91702 0.41632 0.29883
 C2896 C 0.92345 0.42281 0.31564
 H2897 H 0.87024 0.41775 0.24265
 H2898 H 0.88433 0.43193 0.27627
 H2899 H 0.93201 0.38287 0.27697
 H2900 H 0.91792 0.36869 0.24335
 C2901 C 0.37730 0.87644 0.20517
 C2902 C 0.38458 0.88383 0.22125
 C2903 C 0.39306 0.89251 0.24058
 C2904 C 0.41056 0.88291 0.25038
 C2905 C 0.41846 0.89103 0.26947
 C2906 C 0.40889 0.90877 0.27885
 C2907 C 0.39147 0.91846 0.26898
 C2908 C 0.38358 0.91034 0.24989
 C2909 C 0.41665 0.91676 0.29878
 C2910 C 0.42303 0.92327 0.31560
 H2911 H 0.41799 0.86909 0.24334
 H2912 H 0.43190 0.88339 0.27699
 H2913 H 0.38392 0.93216 0.27612
 H2914 H 0.37001 0.91786 0.24247
 C2915 C 0.37615 0.37516 0.70604
 C2916 C 0.38349 0.38256 0.72209
 C2917 C 0.39207 0.39128 0.74138
 C2918 C 0.38272 0.40922 0.75063
 C2919 C 0.39073 0.41739 0.76965
 C2920 C 0.40812 0.40766 0.77951
 C2921 C 0.41755 0.38980 0.77020
 C2922 C 0.40954 0.38163 0.75118
 C2923 C 0.41603 0.41574 0.79936
 C2924 C 0.42253 0.42235 0.81610
 H2925 H 0.36918 0.41678 0.74321
 H2926 H 0.38329 0.43118 0.77673
 H2927 H 0.43098 0.38213 0.77771
 H2928 H 0.41687 0.36773 0.74419
 C2929 C 1.12374 0.87544 1.29449
 C2930 C 1.11639 0.88288 1.27846
 C2931 C 1.10780 0.89164 1.25919
 C2932 C 1.09018 0.88214 1.24952
 C2933 C 1.08215 0.89033 1.23051
 C2934 C 1.09171 0.90806 1.22108
 C2935 C 1.10926 0.91763 1.23082
 C2936 C 1.11728 0.90944 1.24983
 C2937 C 1.08379 0.91614 1.20124
 C2938 C 1.07727 0.92275 1.18450
 H2939 H 1.08275 0.86835 1.25660
 H2940 H 1.06861 0.88278 1.22310
 H2941 H 1.11680 0.93132 1.22365
 H2942 H 1.13094 0.91688 1.25715
 C2943 C 1.12274 0.37633 0.79479
 C2944 C 1.11547 0.38370 0.77869
 C2945 C 1.10699 0.39234 0.75933
 C2946 C 1.08927 0.38293 0.74975
 C2947 C 1.08135 0.39101 0.73064
 C2948 C 1.09111 0.40853 0.72104
 C2949 C 1.10875 0.41801 0.73069
 C2950 C 1.11667 0.40994 0.74979
 C2951 C 1.08330 0.41648 0.70111
 C2952 C 1.07688 0.42297 0.68429
 H2953 H 1.08169 0.36929 0.75696
 H2954 H 1.06773 0.38352 0.72329
 H2955 H 1.11645 0.43154 0.72338
 H2956 H 1.13041 0.41730 0.75704
 C2957 C 0.62268 0.87743 0.79491
 C2958 C 0.61538 0.88477 0.77882
 C2959 C 0.60683 0.89334 0.75945
 C2960 C 0.61642 0.91096 0.74987
 C2961 C 0.60847 0.91893 0.73074
 C2962 C 0.59090 0.90930 0.72111
 C2963 C 0.58122 0.89177 0.73076
 C2964 C 0.58917 0.88381 0.74990
 C2965 C 0.58309 0.91712 0.70113
 C2966 C 0.57669 0.92352 0.68427
 H2967 H 0.63012 0.91842 0.75711
 H2968 H 0.61610 0.93246 0.72338
 H2969 H 0.56765 0.88419 0.72343
 H2970 H 0.58166 0.87015 0.75715
 C2971 C 0.62329 0.37693 1.29518
 C2972 C 0.61594 0.38425 1.27910
 C2973 C 0.60733 0.39281 1.25976
 C2974 C 0.58968 0.38323 1.25022
 C2975 C 0.58163 0.39122 1.23113
 C2976 C 0.59121 0.40883 1.22150
 C2977 C 0.60878 0.41849 1.23110
 C2978 C 0.61682 0.41049 1.25019
 C2979 C 0.58328 0.41670 1.20158
 C2980 C 0.57679 0.42316 1.18478
 H2981 H 0.58224 0.36953 1.25746
 H2982 H 0.56807 0.38361 1.22382
 H2983 H 0.61633 0.43208 1.22376
 H2984 H 0.63050 0.41799 1.25740
 C2985 C 0.87680 1.12316 1.29506
 C2986 C 0.88413 1.11583 1.27898
 C2987 C 0.89273 1.10728 1.25962
 C2988 C 0.91041 1.11681 1.25011
 C2989 C 0.91843 1.10884 1.23100
 C2990 C 0.90879 1.09130 1.22133
 C2991 C 0.89119 1.08168 1.23091
 C2992 C 0.88317 1.08965 1.25002
 C2993 C 0.91668 1.08346 1.20138
 C2994 C 0.92313 1.07703 1.18456
 H2995 H 0.91789 1.13048 1.25738
 H2996 H 0.93202 1.11643 1.22371
 H2997 H 0.88359 1.06813 1.22354
 H2998 H 0.86946 1.08218 1.25722
 C2999 C 0.87699 0.62283 0.79471
 C3000 C 0.88432 0.61551 0.77862
 C3001 C 0.89290 0.60696 0.75926
 C3002 C 0.88345 0.58922 0.74976
 C3003 C 0.89144 0.58125 0.73064
 C3004 C 0.90891 0.59098 0.72094
 C3005 C 0.91846 0.60863 0.73051
 C3006 C 0.91047 0.61660 0.74963
 C3007 C 0.91677 0.58313 0.70099
 C3008 C 0.92321 0.57671 0.68415
 H3009 H 0.86983 0.58167 0.75705
 H3010 H 0.88391 0.56762 0.72336
 H3011 H 0.93195 0.61630 0.72312
 H3012 H 0.91787 0.63035 0.75681
 C3013 C 0.37712 1.12379 0.79463
 C3014 C 0.38441 1.11643 0.77854
 C3015 C 0.39291 1.10779 0.75919
 C3016 C 0.38334 1.09007 0.74976
 C3017 C 0.39126 1.08199 0.73066
 C3018 C 0.40878 1.09160 0.72091
 C3019 C 0.41843 1.10923 0.73040
 C3020 C 0.41051 1.11731 0.74950
 C3021 C 0.41658 1.08363 0.70098
 C3022 C 0.42299 1.07713 0.68416
 H3023 H 0.36970 1.08261 0.75710
 H3024 H 0.38366 1.06837 0.72343
 H3025 H 0.43195 1.11681 0.72297
 H3026 H 0.41799 1.13105 0.75663
 C3027 C 0.37643 0.62459 1.29472
 C3028 C 0.38375 0.61715 1.27868
 C3029 C 0.39229 0.60839 1.25938
 C3030 C 0.40990 0.61787 1.24967
 C3031 C 0.41786 0.60968 1.23062
 C3032 C 0.40824 0.59198 1.22122
 C3033 C 0.39071 0.58242 1.23101
 C3034 C 0.38275 0.59061 1.25005
 C3035 C 0.41608 0.58390 1.20134
 C3036 C 0.42253 0.57730 1.18457
 H3037 H 0.41737 0.63165 1.25673
 H3038 H 0.43139 0.61721 1.22317
 H3039 H 0.38313 0.56875 1.22385
 H3040 H 0.36910 0.58318 1.25741
 C3041 C 1.12320 1.29463 0.87671
 C3042 C 1.11588 1.27854 0.88403
 C3043 C 1.10731 1.25919 0.89261
 C3044 C 1.08960 1.24968 0.88312
 C3045 C 1.08161 1.23059 0.89113
 C3046 C 1.09131 1.22093 0.90866
 C3047 C 1.10894 1.23050 0.91823
 C3048 C 1.11692 1.24960 0.91022
 C3049 C 1.08345 1.20099 0.91654
 C3050 C 1.07700 1.18418 0.92300
 H3051 H 1.08208 1.25695 0.86947
 H3052 H 1.06800 1.22330 0.88358
 H3053 H 1.11658 1.22314 0.93177
 H3054 H 1.13065 1.25679 0.91765
 C3055 C 1.12384 0.79423 0.37549
 C3056 C 1.11651 0.77817 0.38289
 C3057 C 1.10794 0.75887 0.39158
 C3058 C 1.09029 0.74925 0.38208
 C3059 C 1.08228 0.73022 0.39022
 C3060 C 1.09187 0.72073 0.40790
 C3061 C 1.10944 0.73042 0.41748
 C3062 C 1.11745 0.74945 0.40934
 C3063 C 1.08395 0.70088 0.41595
 C3064 C 1.07744 0.68414 0.42253
 H3065 H 1.08284 0.75638 0.36832
 H3066 H 1.06871 0.72285 0.38266
 H3067 H 1.11700 0.72320 0.43114
 H3068 H 1.13113 0.75673 0.41679
 C3069 C 0.62277 1.29489 0.37673
 C3070 C 0.61545 1.27881 0.38406
 C3071 C 0.60689 1.25947 0.39264
 C3072 C 0.61640 1.24997 0.41036
 C3073 C 0.60842 1.23086 0.41836
 C3074 C 0.59091 1.22119 0.40867
 C3075 C 0.58132 1.23076 0.39103
 C3076 C 0.58929 1.24986 0.38303
 C3077 C 0.58306 1.20125 0.41654
 C3078 C 0.57664 1.18443 0.42298
 H3079 H 0.63004 1.25724 0.41788
 H3080 H 0.61598 1.22357 0.43198
 H3081 H 0.56780 1.22339 0.38340
 H3082 H 0.58185 1.25705 0.36930
 C3083 C 0.62259 0.79484 0.87737
 C3084 C 0.61526 0.77874 0.88465
 C3085 C 0.60668 0.75938 0.89316
 C3086 C 0.58906 0.74983 0.88354
 C3087 C 0.58108 0.73070 0.89148
 C3088 C 0.59068 0.72105 0.90906
 C3089 C 0.60822 0.73066 0.91876
 C3090 C 0.61620 0.74979 0.91083
 C3091 C 0.58283 0.70108 0.91687
 C3092 C 0.57641 0.68425 0.92328
 H3093 H 0.58160 0.75708 0.86985
 H3094 H 0.56753 0.72338 0.88383
 H3095 H 0.61579 0.72331 0.93233
 H3096 H 0.62986 0.75702 0.91835
 C3097 C 0.87653 1.29475 1.12326
 C3098 C 0.88388 1.27868 1.11593
 C3099 C 0.89250 1.25934 1.10735
 C3100 C 0.88216 1.24903 1.09058
 C3101 C 0.89022 1.22995 1.08261
 C3102 C 0.90864 1.22110 1.09136
 C3103 C 0.91906 1.23149 1.10803
 C3104 C 0.91100 1.25057 1.11601
 C3105 C 0.91660 1.20118 1.08352
 C3106 C 0.92309 1.18438 1.07708
 H3107 H 0.86782 1.25565 1.08379
 H3108 H 0.88201 1.22202 1.06974
 H3109 H 0.93329 1.22477 1.11495
 H3110 H 0.91909 1.25840 1.12901
 C3111 C 0.87740 0.79493 0.62239
 C3112 C 0.88470 0.77884 0.61508
 C3113 C 0.89325 0.75947 0.60654
 C3114 C 0.91103 0.75003 0.61597
 C3115 C 0.91899 0.73089 0.60804
 C3116 C 0.90919 0.72111 0.59064
 C3117 C 0.89149 0.73062 0.58111
 C3118 C 0.88354 0.74976 0.58905
 C3119 C 0.91700 0.70112 0.58286
 C3120 C 0.92340 0.68426 0.57650
 H3121 H 0.91863 0.75738 0.62953
 H3122 H 0.93265 0.72365 0.61555
 H3123 H 0.88377 0.72316 0.56768
 H3124 H 0.86975 0.75690 0.58166
 C3125 C 0.37608 1.29417 0.62482
 C3126 C 0.38341 1.27814 0.61737
 C3127 C 0.39197 1.25887 0.60859
 C3128 C 0.38231 1.24943 0.59092
 C3129 C 0.39032 1.23043 0.58269
 C3130 C 0.40801 1.22079 0.59210
 C3131 C 0.41774 1.23030 0.60969
 C3132 C 0.40973 1.24930 0.61792
 C3133 C 0.41593 1.20096 0.58397
 C3134 C 0.42244 1.18424 0.57734
 H3135 H 0.36854 1.25667 0.58361
 H3136 H 0.38265 1.22319 0.56911
 H3137 H 0.43140 1.22296 0.61711
 H3138 H 0.41730 1.25644 0.63161
 C3139 C 0.37659 0.79475 1.12325
 C3140 C 0.38389 0.77865 1.11592
 C3141 C 0.39243 0.75929 1.10734
 C3142 C 0.38272 0.74963 1.08982
 C3143 C 0.39069 0.73052 1.08183
 C3144 C 0.40840 0.72100 1.09132
 C3145 C 0.41819 0.73073 1.10875
 C3146 C 0.41022 0.74984 1.11675
 C3147 C 0.41624 0.70104 1.08346
 C3148 C 0.42267 0.68421 1.07704
 H3149 H 0.36893 0.75679 1.08246
 H3150 H 0.38297 0.72311 1.06837
 H3151 H 0.43186 0.72347 1.11623
 H3152 H 0.41782 0.75715 1.13032
 C3153 C 0.87698 0.70538 0.87719
 C3154 C 0.88430 0.72147 0.88449
 C3155 C 0.89286 0.74083 0.89304
 C3156 C 0.88322 0.75048 0.91061
 C3157 C 0.89121 0.76959 0.91857
 C3158 C 0.90886 0.77913 0.90899
 C3159 C 0.91858 0.76941 0.89151
 C3160 C 0.91059 0.75030 0.88355
 C3161 C 0.91672 0.79908 0.91683
 C3162 C 0.92316 0.81590 0.92326
 H3163 H 0.86948 0.74331 0.91804
 H3164 H 0.88355 0.77700 0.93207
 H3165 H 0.93221 0.77668 0.88396
 H3166 H 0.91814 0.74299 0.86993
 C3167 C 0.87738 0.20515 0.37666
 C3168 C 0.88471 0.22122 0.38400
 C3169 C 0.89328 0.24055 0.39259
 C3170 C 0.91088 0.25016 0.38299
 C3171 C 0.91886 0.26925 0.39100
 C3172 C 0.90929 0.27880 0.40866
 C3173 C 0.89177 0.26912 0.41835
 C3174 C 0.88379 0.25003 0.41033
 C3175 C 0.91714 0.29873 0.41655
 C3176 C 0.92356 0.31554 0.42301
 H3177 H 0.91831 0.24298 0.36924
 H3178 H 0.93238 0.27663 0.38336
 H3179 H 0.88422 0.27639 0.43198
 H3180 H 0.87015 0.24275 0.41785
 C3181 C 0.37639 0.70585 0.37565
 C3182 C 0.38373 0.72191 0.38303
 C3183 C 0.39231 0.74120 0.39171
 C3184 C 0.38279 0.75064 0.40946
 C3185 C 0.39079 0.76968 0.41758
 C3186 C 0.40835 0.77936 0.40799
 C3187 C 0.41796 0.76986 0.39032
 C3188 C 0.40995 0.75082 0.38220
 C3189 C 0.41625 0.79923 0.41600
 C3190 C 0.42273 0.81599 0.42256
 H3191 H 0.36911 0.74336 0.41692
 H3192 H 0.38322 0.77691 0.43123
 H3193 H 0.43153 0.77723 0.38276
 H3194 H 0.41742 0.74368 0.36845
 C3195 C 0.37661 0.20530 0.87673
 C3196 C 0.38393 0.22136 0.88410
 C3197 C 0.39250 0.24068 0.89274
 C3198 C 0.38290 0.25023 0.91038
 C3199 C 0.39089 0.26930 0.91844
 C3200 C 0.40852 0.27890 0.90889
 C3201 C 0.41821 0.26928 0.89133
 C3202 C 0.41022 0.25021 0.88327
 C3203 C 0.41639 0.29881 0.91682
 C3204 C 0.42285 0.31560 0.92332
 H3205 H 0.36916 0.24302 0.91779
 H3206 H 0.38325 0.27662 0.93200
 H3207 H 0.43183 0.27659 0.88380
 H3208 H 0.41775 0.24298 0.86960
 C3209 C 1.12351 0.70578 1.12458
 C3210 C 1.11618 0.72183 1.11719
 C3211 C 1.10760 0.74114 1.10850
 C3212 C 1.11705 0.75049 1.09067
 C3213 C 1.10904 0.76953 1.08253
 C3214 C 1.09156 0.77930 1.09220
 C3215 C 1.08204 0.76988 1.10996
 C3216 C 1.09004 0.75084 1.11809
 C3217 C 1.08366 0.79917 1.08417
 C3218 C 1.07718 0.81592 1.07760
 H3219 H 1.13066 0.74314 1.08315
 H3220 H 1.11655 0.77670 1.06882
 H3221 H 1.06854 0.77732 1.11758
 H3222 H 1.08264 0.74377 1.13191
 C3223 C 1.12267 0.20510 0.62350
 C3224 C 1.11553 0.22124 0.61613
 C3225 C 1.10727 0.24067 0.60745
 C3226 C 1.08589 0.24604 0.61039
 C3227 C 1.07802 0.26517 0.60232
 C3228 C 1.09150 0.27898 0.59128
 C3229 C 1.11284 0.27356 0.58825
 C3230 C 1.12071 0.25444 0.59631
 C3231 C 1.08357 0.29889 0.58339
 C3232 C 1.07710 0.31568 0.57692
 H3233 H 1.07537 0.23552 0.61900
 H3234 H 1.06150 0.26923 0.60478
 H3235 H 1.12340 0.28415 0.57977
 H3236 H 1.13727 0.25046 0.59398
 C3237 C 0.62277 0.70528 0.62278
 C3238 C 0.61546 0.72138 0.61547
 C3239 C 0.60692 0.74075 0.60692
 C3240 C 0.61646 0.75028 0.58923
 C3241 C 0.60851 0.76941 0.58126
 C3242 C 0.59098 0.77908 0.59095
 C3243 C 0.58135 0.76947 0.60855
 C3244 C 0.58931 0.75035 0.61651
 C3245 C 0.58316 0.79905 0.58312
 C3246 C 0.57676 0.81589 0.57671
 H3247 H 0.63011 0.74301 0.58172
 H3248 H 0.61610 0.77672 0.56768
 H3249 H 0.56782 0.77684 0.61618
 H3250 H 0.58184 0.74313 0.63022
 C3251 C 0.62313 0.20531 1.12337
 C3252 C 0.61575 0.22139 1.11609
 C3253 C 0.60713 0.24074 1.10757
 C3254 C 0.61663 0.25034 1.08990
 C3255 C 0.60860 0.26944 1.08195
 C3256 C 0.59103 0.27903 1.09164
 C3257 C 0.58144 0.26937 1.10923
 C3258 C 0.58948 0.25026 1.11718
 C3259 C 0.58314 0.29897 1.08382
 C3260 C 0.57668 0.31580 1.07739
 H3261 H 0.63031 0.24313 1.08237
 H3262 H 0.61616 0.27680 1.06837
 H3263 H 0.56788 0.27667 1.11687
 H3264 H 0.58204 0.24300 1.13088
 C3265 C 1.29471 1.12365 0.87724
 C3266 C 1.27864 1.11626 0.88453
 C3267 C 1.25931 1.10759 0.89305
 C3268 C 1.24976 1.11696 0.91081
 C3269 C 1.23068 1.10886 0.91875
 C3270 C 1.22107 1.09138 0.90894
 C3271 C 1.23069 1.08193 0.89125
 C3272 C 1.24977 1.09002 0.88332
 C3273 C 1.20115 1.08341 0.91675
 C3274 C 1.18435 1.07691 0.92317
 H3275 H 1.25698 1.13057 0.91843
 H3276 H 1.22335 1.11632 0.93240
 H3277 H 1.22338 1.06843 0.88353
 H3278 H 1.25700 1.08269 0.86955
 C3279 C 1.29452 0.62419 0.37639
 C3280 C 1.27849 0.61678 0.38375
 C3281 C 1.25921 0.60808 0.39234
 C3282 C 1.24985 0.59027 0.38288
 C3283 C 1.23082 0.58213 0.39089
 C3284 C 1.22107 0.59177 0.40841
 C3285 C 1.23050 0.60950 0.41795
 C3286 C 1.24953 0.61764 0.40994
 C3287 C 1.20121 0.58375 0.41630
 C3288 C 1.18445 0.57719 0.42278
 H3289 H 1.25718 0.58279 0.36924
 H3290 H 1.22365 0.56845 0.38336
 H3291 H 1.22307 0.61710 0.43148
 H3292 H 1.25660 0.63144 0.41735
 C3293 C 0.79468 1.12289 0.37654
 C3294 C 0.77857 1.11562 0.38385
 C3295 C 0.75920 1.10712 0.39243
 C3296 C 0.74953 1.08956 0.38282
 C3297 C 0.73042 1.08163 0.39084
 C3298 C 0.72090 1.09122 0.40850
 C3299 C 0.73063 1.10870 0.41819
 C3300 C 0.74974 1.11663 0.41018
 C3301 C 0.70096 1.08341 0.41640
 C3302 C 0.68414 1.07700 0.42287
 H3303 H 0.75668 1.08211 0.36906
 H3304 H 0.72300 1.06813 0.38320
 H3305 H 0.72338 1.11626 0.43183
 H3306 H 0.75706 1.13024 0.41770
 C3307 C 0.79443 0.62295 0.87722
 C3308 C 0.77834 0.61565 0.88454
 C3309 C 0.75899 0.60709 0.89310
 C3310 C 0.74946 0.61661 0.91080
 C3311 C 0.73035 0.60863 0.91878
 C3312 C 0.72069 0.59111 0.90909
 C3313 C 0.73029 0.58151 0.89148
 C3314 C 0.74940 0.58948 0.88350
 C3315 C 0.70074 0.58326 0.91694
 C3316 C 0.68392 0.57683 0.92336
 H3317 H 0.75672 0.63025 0.91832
 H3318 H 0.72304 0.61620 0.93239
 H3319 H 0.72294 0.56797 0.88384
 H3320 H 0.75661 0.58203 0.86978
 C3321 C 1.29468 0.87644 1.12283
 C3322 C 1.27858 0.88383 1.11563
 C3323 C 1.25920 0.89255 1.10728
 C3324 C 1.24677 0.90602 1.11987
 C3325 C 1.22766 0.91410 1.11199
 C3326 C 1.22092 0.90875 1.09149
 C3327 C 1.23341 0.89538 1.07885
 C3328 C 1.25252 0.88730 1.08673
 C3329 C 1.20100 0.91664 1.08361
 C3330 C 1.18419 0.92311 1.07717
 H3331 H 1.25177 0.91015 1.13580
 H3332 H 1.21810 0.92439 1.12191
 H3333 H 1.22832 0.89111 1.06299
 H3334 H 1.26200 0.87686 1.07688
 C3335 C 1.29416 0.37583 0.62446
 C3336 C 1.27813 0.38326 0.61711
 C3337 C 1.25886 0.39199 0.60852
 C3338 C 1.24625 0.40544 0.62094
 C3339 C 1.22725 0.41353 0.61281
 C3340 C 1.22078 0.40821 0.59221
 C3341 C 1.23346 0.39485 0.57973
 C3342 C 1.25246 0.38676 0.58787
 C3343 C 1.20097 0.41612 0.58406
 C3344 C 1.18426 0.42262 0.57741
 H3345 H 1.25103 0.40956 0.63694
 H3346 H 1.21756 0.42382 0.62260
 H3347 H 1.22858 0.39060 0.56379
 H3348 H 1.26207 0.37634 0.57813
 C3349 C 0.79489 0.87745 0.62254
 C3350 C 0.77876 0.88476 0.61531
 C3351 C 0.75934 0.89335 0.60691
 C3352 C 0.74691 0.90693 0.61937
 C3353 C 0.72777 0.91488 0.61144
 C3354 C 0.72099 0.90929 0.59101
 C3355 C 0.73348 0.89580 0.57850
 C3356 C 0.75263 0.88784 0.58644
 C3357 C 0.70105 0.91708 0.58309
 C3358 C 0.68423 0.92348 0.57663
 H3359 H 0.75193 0.91125 0.63524
 H3360 H 0.71821 0.92527 0.62126
 H3361 H 0.72836 0.89134 0.56270
 H3362 H 0.76210 0.87731 0.57669
 C3363 C 0.79450 0.37634 1.12297
 C3364 C 0.77841 0.38373 1.11571
 C3365 C 0.75906 0.39241 1.10724
 C3366 C 0.74955 0.41000 1.11697
 C3367 C 0.73044 0.41809 1.10909
 C3368 C 0.72077 0.40863 1.09144
 C3369 C 0.73036 0.39113 1.08162
 C3370 C 0.74947 0.38304 1.08951
 C3371 C 0.70083 0.41659 1.08367
 C3372 C 0.68401 0.42308 1.07728
 H3373 H 0.75681 0.41734 1.13072
 H3374 H 0.72314 0.43160 1.11682
 H3375 H 0.72300 0.38367 1.06799
 H3376 H 0.75667 0.36941 1.08188
 C3377 C 0.70553 1.12412 1.12296
 C3378 C 0.72170 1.11691 1.11571
 C3379 C 0.74115 1.10849 1.10720
 C3380 C 0.75617 1.12219 1.09821
 C3381 C 0.77526 1.11411 1.09029
 C3382 C 0.77942 1.09229 1.09134
 C3383 C 0.76436 1.07857 1.10025
 C3384 C 0.74526 1.08666 1.10817
 C3385 C 0.79925 1.08409 1.08355
 C3386 C 0.81599 1.07744 1.07711
 H3387 H 0.75317 1.13910 1.09742
 H3388 H 0.78680 1.12486 1.08347
 H3389 H 0.76743 1.06168 1.10116
 H3390 H 0.73377 1.07593 1.11513
 C3391 C 0.70528 0.62278 0.62271
 C3392 C 0.72138 0.61549 0.61540
 C3393 C 0.74076 0.60697 0.60685
 C3394 C 0.75032 0.58931 0.61640
 C3395 C 0.76944 0.58135 0.60842
 C3396 C 0.77907 0.59102 0.59085
 C3397 C 0.76944 0.60859 0.58122
 C3398 C 0.75032 0.61655 0.58921
 C3399 C 0.79902 0.58317 0.58300
 C3400 C 0.81585 0.57674 0.57657
 H3401 H 0.74309 0.58181 0.63008
 H3402 H 0.77678 0.56778 0.61601
 H3403 H 0.77678 0.61621 0.56766
 H3404 H 0.74308 0.63024 0.58173
 C3405 C 0.20487 1.12235 0.62330
 C3406 C 0.22094 1.11507 0.61592
 C3407 C 0.24029 1.10658 0.60726
 C3408 C 0.25010 1.08913 0.61693
 C3409 C 0.26922 1.08125 0.60887
 C3410 C 0.27860 1.09080 0.59111
 C3411 C 0.26872 1.10816 0.58135
 C3412 C 0.24959 1.11603 0.58941
 C3413 C 0.29858 1.08308 0.58320
 C3414 C 0.31543 1.07675 0.57674
 H3415 H 0.24306 1.08173 0.63077
 H3416 H 0.27676 1.06785 0.61657
 H3417 H 0.27586 1.11569 0.56764
 H3418 H 0.24216 1.12957 0.58184
 C3419 C 0.20541 0.62410 1.12381
 C3420 C 0.22145 0.61670 1.11646
 C3421 C 0.24074 0.60799 1.10787
 C3422 C 0.25032 0.61745 1.09016
 C3423 C 0.26935 0.60930 1.08214
 C3424 C 0.27887 0.59168 1.09179
 C3425 C 0.26922 0.58215 1.10942
 C3426 C 0.25019 0.59029 1.11744
 C3427 C 0.29873 0.58364 1.08388
 C3428 C 0.31548 0.57708 1.07739
 H3429 H 0.24317 0.63117 1.08267
 H3430 H 0.27670 0.61682 1.06853
 H3431 H 0.27647 0.56854 1.11703
 H3432 H 0.24294 0.58289 1.13116
 C3433 C 0.70512 0.87731 0.87748
 C3434 C 0.72121 0.88462 0.88478
 C3435 C 0.74058 0.89318 0.89330
 C3436 C 0.75000 0.91096 0.88383
 C3437 C 0.76913 0.91894 0.89175
 C3438 C 0.77892 0.90917 0.90917
 C3439 C 0.76943 0.89148 0.91872
 C3440 C 0.75030 0.88350 0.91080
 C3441 C 0.79889 0.91702 0.91695
 C3442 C 0.81574 0.92343 0.92333
 H3443 H 0.74264 0.91854 0.87026
 H3444 H 0.77635 0.93260 0.88422
 H3445 H 0.77689 0.88378 0.93217
 H3446 H 0.74318 0.86972 0.91822
 C3447 C 0.70537 0.37725 0.37670
 C3448 C 0.72148 0.38452 0.38401
 C3449 C 0.74086 0.39303 0.39257
 C3450 C 0.75112 0.40985 0.38228
 C3451 C 0.77025 0.41776 0.39028
 C3452 C 0.77918 0.40889 0.40861
 C3453 C 0.76885 0.39216 0.41898
 C3454 C 0.74972 0.38424 0.41098
 C3455 C 0.79914 0.41666 0.41651
 C3456 C 0.81597 0.42305 0.42298
 H3457 H 0.74443 0.41673 0.36801
 H3458 H 0.77813 0.43068 0.38211
 H3459 H 0.77564 0.38515 0.43314
 H3460 H 0.74194 0.37121 0.41904
 C3461 C 0.20571 0.87590 0.37610
 C3462 C 0.22173 0.88330 0.38347
 C3463 C 0.24100 0.89199 0.39210
 C3464 C 0.25044 0.90974 0.38259
 C3465 C 0.26945 0.91787 0.39066
 C3466 C 0.27910 0.90829 0.40826
 C3467 C 0.26959 0.89062 0.41784
 C3468 C 0.25058 0.88249 0.40978
 C3469 C 0.29894 0.91631 0.41621
 C3470 C 0.31568 0.92287 0.42273
 H3471 H 0.24319 0.91718 0.36889
 H3472 H 0.27669 0.93151 0.38310
 H3473 H 0.27694 0.88307 0.43143
 H3474 H 0.24344 0.86874 0.41722
 C3475 C 0.20516 0.37621 0.87738
 C3476 C 0.22123 0.38356 0.88470
 C3477 C 0.24057 0.39218 0.89324
 C3478 C 0.24991 0.41003 0.88382
 C3479 C 0.26899 0.41809 0.89178
 C3480 C 0.27881 0.40834 0.90919
 C3481 C 0.26940 0.39058 0.91869
 C3482 C 0.25032 0.38251 0.91073
 C3483 C 0.29872 0.41629 0.91702
 C3484 C 0.31552 0.42278 0.92344
 H3485 H 0.24252 0.41760 0.87026
 H3486 H 0.27615 0.43181 0.88428
 H3487 H 0.27689 0.38289 0.93213
 H3488 H 0.24326 0.36868 0.91810
   
