data_POSCAR
  _audit_creation_date              2014-09-24
  _audit_creation_method            'ToBaCCo'
  _symmetry_space_group_name_H-M    'P1'
  _symmetry_Int_Tables_number       1
  _symmetry_cell_setting            triclinic
  loop_
  _symmetry_equiv_pos_as_xyz
 x,y,z
_cell_length_a 68.2899
_cell_length_b 68.7399
_cell_length_c 68.7160
_cell_angle_alpha 92.403800
_cell_angle_beta 92.338500
_cell_angle_gamma 92.355400
loop_
  _atom_site_label
  _atom_site_type_symbol
  _atom_site_fract_x
  _atom_site_fract_y
  _atom_site_fract_z
N1 N 0.17953 0.22489 0.22971
 N2 N 0.18587 0.21033 0.23969
 C3 C 0.17386 0.20720 0.25441
 C4 C 0.15929 0.22053 0.25354
 C5 C 0.16330 0.23153 0.23773
 H6 H 0.17549 0.19606 0.26494
 H7 H 0.15501 0.24345 0.23246
 Cu8 Cu 0.20906 0.19672 0.23247
 Cu9 Cu 0.19266 0.23412 0.20711
 Cu10 Cu 0.23322 0.20944 0.19281
 N11 N 0.23133 0.18259 0.22359
 N12 N 0.24070 0.18761 0.20811
 C13 C 0.25520 0.17528 0.20513
 C14 C 0.25483 0.16184 0.21950
 C15 C 0.23953 0.16687 0.23097
 H16 H 0.26517 0.17591 0.19332
 H17 H 0.23468 0.15948 0.24362
 N18 N 0.22337 0.23191 0.17920
 N19 N 0.20789 0.24130 0.18464
 C20 C 0.20479 0.25582 0.17247
 C21 C 0.21899 0.25550 0.15877
 C22 C 0.23054 0.24021 0.16342
 H23 H 0.19308 0.26589 0.17344
 H24 H 0.24319 0.23552 0.15581
 H25 H 0.20392 0.20750 0.19939
 H26 H 0.22023 0.22493 0.21488
 N27 N 0.68043 0.72478 0.73015
 N28 N 0.68684 0.71019 0.74003
 C29 C 0.67496 0.70703 0.75485
 C30 C 0.66041 0.72038 0.75417
 C31 C 0.66429 0.73143 0.73834
 H32 H 0.67668 0.69586 0.76533
 H33 H 0.65596 0.74336 0.73317
 Cu34 Cu 0.70992 0.69655 0.73254
 Cu35 Cu 0.69335 0.73400 0.70740
 Cu36 Cu 0.73379 0.70930 0.69274
 N37 N 0.73216 0.68246 0.72355
 N38 N 0.74143 0.68748 0.70801
 C39 C 0.75593 0.67518 0.70494
 C40 C 0.75567 0.66174 0.71932
 C41 C 0.74044 0.66675 0.73089
 H42 H 0.76581 0.67582 0.69306
 H43 H 0.73567 0.65935 0.74356
 N44 N 0.72380 0.73175 0.67918
 N45 N 0.70838 0.74115 0.68476
 C46 C 0.70519 0.75567 0.67261
 C47 C 0.71928 0.75534 0.65879
 C48 C 0.73084 0.74004 0.66334
 H49 H 0.69351 0.76576 0.67368
 H50 H 0.74343 0.73533 0.65564
 H51 H 0.70455 0.70740 0.69952
 H52 H 0.72099 0.72479 0.71493
 N53 N 0.31092 0.75632 0.74425
 N54 N 0.30631 0.77250 0.75353
 C55 C 0.31814 0.77542 0.76967
 C56 C 0.33076 0.76023 0.77048
 C57 C 0.32576 0.74837 0.75416
 H58 H 0.31794 0.78784 0.77985
 H59 H 0.33280 0.73523 0.74957
 Cu60 Cu 0.28576 0.78851 0.74323
 Cu61 Cu 0.29827 0.74733 0.71940
 Cu62 Cu 0.26107 0.77501 0.70109
 N63 N 0.26432 0.80347 0.73301
 N64 N 0.25473 0.79807 0.71656
 C65 C 0.24079 0.81086 0.71282
 C66 C 0.24172 0.82504 0.72774
 C67 C 0.25680 0.81992 0.74033
 H68 H 0.23077 0.80994 0.70018
 H69 H 0.26188 0.82764 0.75375
 N70 N 0.26958 0.75120 0.68754
 N71 N 0.28377 0.74063 0.69449
 C72 C 0.28657 0.72576 0.68161
 C73 C 0.27353 0.72709 0.66588
 C74 C 0.26298 0.74333 0.67010
 H75 H 0.29753 0.71498 0.68332
 H76 H 0.25160 0.74916 0.66092
 H77 H 0.29017 0.77437 0.71060
 H78 H 0.27192 0.76003 0.72435
 N79 N 0.81189 0.25694 0.24115
 N80 N 0.80820 0.27387 0.24954
 C81 C 0.81998 0.27697 0.26567
 C82 C 0.83172 0.26114 0.26740
 C83 C 0.82613 0.24867 0.25165
 H84 H 0.82033 0.28993 0.27518
 H85 H 0.83237 0.23489 0.24780
 Cu86 Cu 0.78913 0.29081 0.23815
 Cu87 Cu 0.79894 0.24752 0.21659
 Cu88 Cu 0.76134 0.27474 0.19856
 N89 N 0.76606 0.30421 0.22941
 N90 N 0.75525 0.29792 0.21397
 C91 C 0.74054 0.31008 0.21111
 C92 C 0.74224 0.32473 0.22554
 C93 C 0.75856 0.32057 0.23693
 H94 H 0.72950 0.30848 0.19934
 H95 H 0.76455 0.32889 0.24966
 N96 N 0.76976 0.25085 0.18509
 N97 N 0.78412 0.24045 0.19194
 C98 C 0.78688 0.22552 0.17913
 C99 C 0.77363 0.22664 0.16353
 C100 C 0.76299 0.24282 0.16777
 H101 H 0.79799 0.21487 0.18077
 H102 H 0.75150 0.24854 0.15866
 H103 H 0.79091 0.27403 0.20628
 H104 H 0.77344 0.26152 0.22247
 N105 N 0.80172 0.73559 0.26172
 N106 N 0.79626 0.71882 0.25280
 C107 C 0.80887 0.71483 0.23872
 C108 C 0.82291 0.72990 0.23888
 C109 C 0.81794 0.74283 0.25363
 H110 H 0.80806 0.70189 0.22917
 H111 H 0.82568 0.75640 0.25822
 Cu112 Cu 0.77350 0.70369 0.26079
 Cu113 Cu 0.78765 0.74659 0.28340
 Cu114 Cu 0.74693 0.71986 0.29776
 N115 N 0.75068 0.68880 0.26903
 N116 N 0.74034 0.69520 0.28352
 C117 C 0.72586 0.68193 0.28663
 C118 C 0.72724 0.66641 0.27339
 C119 C 0.74311 0.67123 0.26243
 H120 H 0.71534 0.68328 0.29791
 H121 H 0.74888 0.66239 0.25078
 N122 N 0.75592 0.74512 0.31035
 N123 N 0.77150 0.75526 0.30499
 C124 C 0.77427 0.77133 0.31688
 C125 C 0.75975 0.77126 0.33028
 C126 C 0.74837 0.75450 0.32573
 H127 H 0.78618 0.78210 0.31615
 H128 H 0.73581 0.74932 0.33342
 H129 H 0.77663 0.72036 0.29288
 H130 H 0.76073 0.73327 0.27536
 N131 N 0.30491 0.23307 -0.23550
 N132 N 0.29994 0.21600 -0.24405
 C133 C 0.31268 0.21204 -0.25800
 C134 C 0.32633 0.22746 -0.25816
 C135 C 0.32097 0.24056 -0.24370
 H136 H 0.31213 0.19895 -0.26735
 H137 H 0.32822 0.25446 -0.23945
 Cu138 Cu 0.27735 0.20065 -0.23598
 Cu139 Cu 0.29030 0.24429 -0.21433
 Cu140 Cu 0.24958 0.21739 -0.20020
 N141 N 0.25438 0.18579 -0.22806
 N142 N 0.24356 0.19242 -0.21405
 C143 C 0.22894 0.17922 -0.21121
 C144 C 0.23072 0.16351 -0.22414
 C145 C 0.24698 0.16814 -0.23462
 H146 H 0.21798 0.18079 -0.20039
 H147 H 0.25305 0.15917 -0.24599
 N148 N 0.25807 0.24298 -0.18796
 N149 N 0.27364 0.25316 -0.19323
 C150 C 0.27601 0.26948 -0.18165
 C151 C 0.26123 0.26953 -0.16853
 C152 C 0.25011 0.25257 -0.17293
 H153 H 0.28783 0.28035 -0.18238
 H154 H 0.23746 0.24740 -0.16537
 H155 H 0.27941 0.21821 -0.20432
 H156 H 0.26371 0.23033 -0.22266
 N157 N 0.68413 0.26896 -0.24632
 N158 N 0.69172 0.28240 -0.25719
 C159 C 0.67890 0.28552 -0.27206
 C160 C 0.66248 0.27335 -0.27039
 C161 C 0.66630 0.26302 -0.25392
 H162 H 0.68121 0.29600 -0.28314
 H163 H 0.65671 0.25218 -0.24778
 Cu164 Cu 0.71737 0.29491 -0.25064
 Cu165 Cu 0.69763 0.26056 -0.22286
 Cu166 Cu 0.74259 0.28352 -0.20974
 N167 N 0.74231 0.30808 -0.24249
 N168 N 0.75206 0.30366 -0.22649
 C169 C 0.76820 0.31557 -0.22392
 C170 C 0.76855 0.32810 -0.23911
 C171 C 0.75194 0.32295 -0.25063
 H172 H 0.77864 0.31549 -0.21165
 H173 H 0.74697 0.32996 -0.26363
 N174 N 0.73060 0.26277 -0.19465
 N175 N 0.71345 0.25403 -0.19964
 C176 C 0.70927 0.24060 -0.18652
 C177 C 0.72451 0.24095 -0.17266
 C178 C 0.73778 0.25514 -0.17822
 H179 H 0.69616 0.23119 -0.18699
 H180 H 0.75165 0.25949 -0.17084
 H181 H 0.71318 0.28676 -0.21682
 H182 H 0.72581 0.26748 -0.23092
 N183 N 0.18858 0.76605 0.25058
 N184 N 0.19543 0.78057 0.24061
 C185 C 0.18248 0.78382 0.22588
 C186 C 0.16676 0.77061 0.22672
 C187 C 0.17111 0.75955 0.24253
 H188 H 0.18411 0.79516 0.21555
 H189 H 0.16201 0.74793 0.24801
 Cu190 Cu 0.22016 0.79428 0.24848
 Cu191 Cu 0.20231 0.75728 0.27380
 Cu192 Cu 0.24633 0.78174 0.28816
 N193 N 0.24492 0.80782 0.25658
 N194 N 0.25506 0.80293 0.27217
 C195 C 0.27099 0.81510 0.27499
 C196 C 0.27075 0.82836 0.26040
 C197 C 0.25406 0.82328 0.24892
 H198 H 0.28168 0.81466 0.28701
 H199 H 0.24874 0.83066 0.23629
 N200 N 0.23506 0.75991 0.30237
 N201 N 0.21832 0.75058 0.29688
 C202 C 0.21448 0.73666 0.30959
 C203 C 0.22949 0.73729 0.32370
 C204 C 0.24228 0.75216 0.31871
 H205 H 0.20165 0.72685 0.30878
 H206 H 0.25578 0.75702 0.32654
 H207 H 0.21667 0.78373 0.28163
 H208 H 0.23018 0.76616 0.26626
 N209 N 0.47557 0.42976 0.47924
 N210 N 0.46068 0.43513 0.48946
 C211 C 0.45826 0.42274 0.50395
 C212 C 0.47237 0.40894 0.50270
 C213 C 0.48311 0.41381 0.48687
 H214 H 0.44703 0.42357 0.51456
 H215 H 0.49541 0.40625 0.48128
 Cu216 Cu 0.44577 0.45764 0.48272
 Cu217 Cu 0.48392 0.44374 0.45674
 Cu218 Cu 0.45719 0.48334 0.44379
 N219 N 0.43059 0.47962 0.47495
 N220 N 0.43516 0.48960 0.45974
 C221 C 0.42238 0.50381 0.45752
 C222 C 0.40909 0.50268 0.47210
 C223 C 0.41469 0.48718 0.48291
 H224 H 0.42266 0.51417 0.44610
 H225 H 0.40763 0.48181 0.49555
 N226 N 0.47998 0.47476 0.42946
 N227 N 0.49015 0.45968 0.43443
 C228 C 0.50466 0.45743 0.42193
 C229 C 0.50355 0.47176 0.40847
 C230 C 0.48776 0.48249 0.41365
 H231 H 0.51525 0.44618 0.42246
 H232 H 0.48235 0.49497 0.40635
 H233 H 0.47357 0.47049 0.46527
 H234 H 0.45664 0.45402 0.44944
 N235 N -0.02318 -0.07111 0.97934
 N236 N -0.03807 -0.06576 0.98957
 C237 C -0.04052 -0.07818 1.00401
 C238 C -0.02644 -0.09200 1.00274
 C239 C -0.01567 -0.08709 0.98693
 H240 H -0.05175 -0.07736 1.01463
 H241 H -0.00336 -0.09465 0.98134
 Cu242 Cu -0.05296 -0.04323 0.98295
 Cu243 Cu -0.01480 -0.05702 0.95690
 Cu244 Cu -0.04153 -0.01732 0.94421
 N245 N -0.06814 -0.02120 0.97531
 N246 N -0.06354 -0.01114 0.96016
 C247 C -0.07634 0.00307 0.95799
 C248 C -0.08967 0.00183 0.97253
 C249 C -0.08407 -0.01372 0.98327
 H250 H -0.07607 0.01346 0.94661
 H251 H -0.09117 -0.01919 0.99584
 N252 N -0.01877 -0.02581 0.92983
 N253 N -0.00858 -0.04093 0.93468
 C254 C 0.00589 -0.04309 0.92211
 C255 C 0.00473 -0.02867 0.90875
 C256 C -0.01104 -0.01797 0.91404
 H257 H 0.01647 -0.05436 0.92252
 H258 H -0.01648 -0.00547 0.90683
 H259 H -0.02512 -0.03034 0.96560
 H260 H -0.04206 -0.04671 0.94968
 N261 N 1.03701 0.58232 0.97325
 N262 N 1.05409 0.58012 0.98226
 C263 C 1.05658 0.59366 0.99706
 C264 C 1.04018 0.60485 0.99719
 C265 C 1.02811 0.59726 0.98190
 H266 H 1.06924 0.59522 1.00706
 H267 H 1.01381 0.60217 0.97752
 Cu268 Cu 1.07115 0.55962 0.97371
 Cu269 Cu 1.02725 0.56565 0.95114
 Cu270 Cu 1.05680 0.52882 0.93584
 N271 N 1.08715 0.53815 0.96540
 N272 N 1.08152 0.52648 0.95037
 C273 C 1.09474 0.51272 0.94798
 C274 C 1.10941 0.51581 0.96231
 C275 C 1.10419 0.53207 0.97315
 H276 H 1.09346 0.50091 0.93705
 H277 H 1.11197 0.53861 0.98597
 N278 N 1.03123 0.53344 0.92302
 N279 N 1.01987 0.54736 0.92902
 C280 C 1.00337 0.54671 0.91757
 C281 C 1.00442 0.53168 0.90374
 C282 C 1.02225 0.52356 0.90757
 H283 H 0.99147 0.55649 0.91904
 H284 H 1.02819 0.51139 0.89964
 H285 H 1.04256 0.54154 0.95876
 H286 H 1.05438 0.55833 0.94158
 N287 N 0.53861 0.08397 0.47292
 N288 N 0.55542 0.08132 0.48228
 C289 C 0.55799 0.09487 0.49707
 C290 C 0.54194 0.10654 0.49682
 C291 C 0.52998 0.09921 0.48133
 H292 H 0.57044 0.09607 0.50735
 H293 H 0.51590 0.10446 0.47669
 Cu294 Cu 0.57188 0.06013 0.47421
 Cu295 Cu 0.52871 0.06732 0.45084
 Cu296 Cu 0.55773 0.02990 0.43589
 N297 N 0.58796 0.03879 0.46571
 N298 N 0.58236 0.02730 0.45054
 C299 C 0.59554 0.01351 0.44807
 C300 C 0.61014 0.01638 0.46249
 C301 C 0.60494 0.03256 0.47347
 H302 H 0.59427 0.00181 0.43701
 H303 H 0.61268 0.03893 0.48639
 N304 N 0.53229 0.03482 0.42295
 N305 N 0.52116 0.04901 0.42878
 C306 C 0.50468 0.04851 0.41729
 C307 C 0.50552 0.03332 0.40361
 C308 C 0.52319 0.02494 0.40757
 H309 H 0.49293 0.05848 0.41867
 H310 H 0.52893 0.01257 0.39978
 H311 H 0.54321 0.04275 0.45853
 H312 H 0.55585 0.05943 0.44180
 N313 N -0.03216 0.08944 0.53777
 N314 N -0.04740 0.08336 0.52648
 C315 C -0.05017 0.09609 0.51237
 C316 C -0.03590 0.11089 0.51490
 C317 C -0.02470 0.10627 0.53117
 H318 H -0.06133 0.09447 0.50072
 H319 H -0.01181 0.11427 0.53739
 Cu320 Cu -0.06125 0.05875 0.53054
 Cu321 Cu -0.02264 0.07451 0.55963
 Cu322 Cu -0.04754 0.03032 0.56644
 N323 N -0.07496 0.03391 0.53403
 N324 N -0.06935 0.02278 0.54815
 C325 C -0.08091 0.00643 0.54746
 C326 C -0.09449 0.00738 0.53212
 C327 C -0.09035 0.02499 0.52388
 H328 H -0.07963 -0.00525 0.55745
 H329 H -0.09802 0.03082 0.51149
 N330 N -0.02515 0.04042 0.58340
 N331 N -0.01552 0.05713 0.58086
 C332 C -0.00075 0.05950 0.59454
 C333 C -0.00124 0.04355 0.60615
 C334 C -0.01685 0.03181 0.59870
 H335 H 0.00973 0.07176 0.59584
 H336 H -0.02158 0.01784 0.60394
 H337 H -0.03217 0.04762 0.54778
 H338 H -0.04895 0.06022 0.56438
 N339 N 0.46837 0.58809 0.03834
 N340 N 0.45263 0.58263 0.02749
 C341 C 0.44983 0.59566 0.01367
 C342 C 0.46457 0.61001 0.01596
 C343 C 0.47610 0.60482 0.03176
 H344 H 0.43831 0.59450 0.00236
 H345 H 0.48939 0.61234 0.03766
 Cu346 Cu 0.43782 0.55844 0.03122
 Cu347 Cu 0.47806 0.57258 0.05951
 Cu348 Cu 0.45353 0.52828 0.06535
 N349 N 0.42514 0.53296 0.03419
 N350 N 0.43147 0.52117 0.04740
 C351 C 0.42011 0.50467 0.04632
 C352 C 0.40591 0.50622 0.03165
 C353 C 0.40950 0.52433 0.02422
 H354 H 0.42186 0.49253 0.05566
 H355 H 0.40123 0.53074 0.01255
 N356 N 0.47611 0.53786 0.08220
 N357 N 0.48553 0.55475 0.08009
 C358 C 0.50031 0.55695 0.09376
 C359 C 0.50005 0.54068 0.10493
 C360 C 0.48456 0.52892 0.09722
 H361 H 0.51057 0.56938 0.09543
 H362 H 0.47991 0.51481 0.10217
 H363 H 0.46763 0.54646 0.04639
 H364 H 0.45173 0.55833 0.06453
 N365 N 0.53256 -0.07687 0.03461
 N366 N 0.54718 -0.07129 0.02399
 C367 C 0.54721 -0.08302 0.00780
 C368 C 0.53182 -0.09664 0.00837
 C369 C 0.52281 -0.09235 0.02556
 H370 H 0.55765 -0.08186 -0.00355
 H371 H 0.51014 -0.09993 0.03106
 Cu372 Cu 0.56479 -0.04934 0.03240
 Cu373 Cu 0.52720 -0.06347 0.05918
 Cu374 Cu 0.55774 -0.02350 0.07406
 N375 N 0.58174 -0.02691 0.04079
 N376 N 0.57898 -0.01675 0.05702
 C377 C 0.59254 -0.00189 0.05899
 C378 C 0.60436 -0.00287 0.04313
 C379 C 0.59711 -0.01889 0.03191
 H380 H 0.59360 0.00892 0.07092
 H381 H 0.60253 -0.02411 0.01816
 N382 N 0.53545 -0.03276 0.08921
 N383 N 0.52403 -0.04811 0.08355
 C384 C 0.50996 -0.05050 0.09648
 C385 C 0.51254 -0.03597 0.11091
 C386 C 0.52883 -0.02496 0.10592
 H387 H 0.49829 -0.06166 0.09527
 H388 H 0.53508 -0.01200 0.11367
 H389 H 0.53921 -0.03648 0.05240
 H390 H 0.55559 -0.05274 0.06604
 N391 N 1.03137 0.42427 0.53259
 N392 N 1.04540 0.43044 0.52153
 C393 C 1.04512 0.41901 0.50510
 C394 C 1.03013 0.40499 0.50599
 C395 C 1.02170 0.40872 0.52361
 H396 H 1.05510 0.42064 0.49340
 H397 H 1.00948 0.40070 0.52944
 Cu398 Cu 1.06270 0.45270 0.52979
 Cu399 Cu 1.02658 0.43700 0.55763
 Cu400 Cu 1.05728 0.47677 0.57279
 N401 N 1.08020 0.47459 0.53864
 N402 N 1.07807 0.48403 0.55542
 C403 C 1.09189 0.49863 0.55768
 C404 C 1.10324 0.49823 0.54145
 C405 C 1.09544 0.48281 0.52971
 H406 H 1.09347 0.50887 0.57009
 H407 H 1.10042 0.47811 0.51561
 N408 N 1.03539 0.46704 0.58821
 N409 N 1.02394 0.45175 0.58246
 C410 C 1.01008 0.44907 0.59557
 C411 C 1.01284 0.46337 0.61021
 C412 C 1.02901 0.47453 0.60516
 H413 H 0.99838 0.43796 0.59428
 H414 H 1.03527 0.48743 0.61300
 H415 H 1.03793 0.46442 0.55149
 H416 H 1.05510 0.44781 0.56362
 C417 C 0.36012 0.02031 0.24272
 C418 C 0.34892 0.00062 0.24356
 C419 C 0.36055 -0.01457 0.24706
 C420 C 0.38255 -0.00864 0.24937
 C421 C 0.37205 0.02259 0.26206
 C422 C 0.38390 0.00757 0.26558
 C423 C 0.37530 0.01707 0.22727
 C424 C 0.38713 0.00200 0.23070
 H425 H 0.33312 -0.00113 0.24165
 H426 H 0.39210 -0.02098 0.25222
 H427 H 0.37152 0.03535 0.27180
 H428 H 0.37665 0.02616 0.21485
 C429 C 0.13877 -0.03176 0.74852
 C430 C 0.15120 -0.01305 0.75350
 C431 C 0.14057 0.00289 0.75731
 C432 C 0.11824 -0.00140 0.75592
 C433 C 0.12544 -0.03399 0.76568
 C434 C 0.11468 -0.01819 0.76968
 C435 C 0.12499 -0.02660 0.73146
 C436 C 0.11426 -0.01067 0.73527
 H437 H 0.16707 -0.01247 0.75331
 H438 H 0.10952 0.01153 0.75914
 H439 H 0.12464 -0.04709 0.77390
 H440 H 0.12407 -0.03461 0.71753
 C441 C 0.63991 0.46917 0.24990
 C442 C 0.65180 0.48831 0.25474
 C443 C 0.64064 0.50395 0.25821
 C444 C 0.61843 0.49897 0.25672
 C445 C 0.62660 0.46681 0.26706
 C446 C 0.61531 0.48230 0.27073
 C447 C 0.62611 0.47372 0.23271
 C448 C 0.61486 0.48932 0.23618
 H449 H 0.66765 0.48952 0.25471
 H450 H 0.60928 0.51165 0.25966
 H451 H 0.62626 0.45389 0.27558
 H452 H 0.62566 0.46549 0.21889
 C453 C 0.86043 0.51971 0.74178
 C454 C 0.84910 0.50007 0.74247
 C455 C 0.86061 0.48479 0.74599
 C456 C 0.88263 0.49059 0.74847
 C457 C 0.87223 0.52185 0.76120
 C458 C 0.88396 0.50673 0.76474
 C459 C 0.87569 0.51643 0.72642
 C460 C 0.88740 0.50127 0.72987
 H461 H 0.83330 0.49843 0.74048
 H462 H 0.89207 0.47817 0.75134
 H463 H 0.87170 0.53457 0.77098
 H464 H 0.87718 0.52556 0.71405
 C465 C 0.24135 0.36517 0.02101
 C466 C 0.24194 0.35364 0.00159
 C467 C 0.24558 0.36474 -0.01390
 C468 C 0.24821 0.38670 -0.00847
 C469 C 0.26090 0.37687 0.02301
 C470 C 0.26456 0.38822 0.00769
 C471 C 0.22596 0.38042 0.01753
 C472 C 0.22952 0.39176 0.00215
 H473 H 0.23975 0.33793 0.00035
 H474 H 0.25117 0.39584 -0.02105
 H475 H 0.27063 0.37664 0.03584
 H476 H 0.21356 0.38231 0.02665
 C477 C 0.74933 0.13500 -0.03172
 C478 C 0.75422 0.14729 -0.01295
 C479 C 0.75773 0.13667 0.00302
 C480 C 0.75626 0.11450 -0.00134
 C481 C 0.76665 0.12167 -0.03376
 C482 C 0.77036 0.11093 -0.01794
 C483 C 0.73208 0.12137 -0.02684
 C484 C 0.73560 0.11065 -0.01091
 H485 H 0.75424 0.16306 -0.01233
 H486 H 0.75925 0.10577 0.01160
 H487 H 0.77524 0.12082 -0.04664
 H488 H 0.71823 0.12056 -0.03515
 C489 C 0.24916 0.63731 0.46996
 C490 C 0.25392 0.64927 0.48904
 C491 C 0.25736 0.63831 0.50478
 C492 C 0.25590 0.61621 0.49995
 C493 C 0.26646 0.62410 0.46777
 C494 C 0.27008 0.61300 0.48335
 C495 C 0.23185 0.62362 0.47452
 C496 C 0.23527 0.61256 0.49023
 H497 H 0.25388 0.66502 0.49013
 H498 H 0.25880 0.60722 0.51271
 H499 H 0.27507 0.62366 0.45488
 H500 H 0.21800 0.62307 0.46621
 C501 C 0.74179 0.86534 0.52124
 C502 C 0.74255 0.85380 0.50184
 C503 C 0.74617 0.86492 0.48636
 C504 C 0.74863 0.88689 0.49177
 C505 C 0.76127 0.87717 0.52332
 C506 C 0.76492 0.88852 0.50799
 C507 C 0.72630 0.88048 0.51768
 C508 C 0.72986 0.89183 0.50230
 H509 H 0.74046 0.83808 0.50060
 H510 H 0.75158 0.89604 0.47920
 H511 H 0.77097 0.87699 0.53618
 H512 H 0.71386 0.88231 0.52675
 C513 C 0.02077 0.24239 0.36360
 C514 C 0.00125 0.24288 0.35203
 C515 C -0.01440 0.24637 0.36312
 C516 C -0.00901 0.24896 0.38510
 C517 C 0.02263 0.26180 0.37535
 C518 C 0.00715 0.26532 0.38668
 C519 C 0.01732 0.22705 0.37880
 C520 C 0.00178 0.23044 0.39011
 H521 H 0.00006 0.24074 0.33631
 H522 H -0.02172 0.25179 0.39423
 H523 H 0.03548 0.27156 0.37514
 H524 H 0.02655 0.21478 0.38065
 C525 C -0.03067 0.74920 0.13772
 C526 C -0.01142 0.75383 0.14961
 C527 C 0.00439 0.75723 0.13859
 C528 C -0.00055 0.75587 0.11651
 C529 C -0.03286 0.76644 0.12459
 C530 C -0.01720 0.77003 0.11343
 C531 C -0.02618 0.73203 0.12391
 C532 C -0.01040 0.73543 0.11281
 H533 H -0.01026 0.75370 0.16536
 H534 H 0.01227 0.75876 0.10747
 H535 H -0.04580 0.77505 0.12424
 H536 H -0.03458 0.71829 0.12334
 C537 C 0.46810 0.24938 0.63669
 C538 C 0.48694 0.25428 0.64902
 C539 C 0.50300 0.25803 0.63844
 C540 C 0.49865 0.25666 0.61625
 C541 C 0.46588 0.26655 0.62348
 C542 C 0.48178 0.27049 0.61276
 C543 C 0.47323 0.23231 0.62296
 C544 C 0.48924 0.23606 0.61227
 H545 H 0.48756 0.25405 0.66478
 H546 H 0.51166 0.25983 0.60756
 H547 H 0.45270 0.27479 0.62271
 H548 H 0.46510 0.21842 0.62202
 C549 C 0.52223 0.74143 0.86487
 C550 C 0.50269 0.74224 0.85338
 C551 C 0.48712 0.74573 0.86458
 C552 C 0.49260 0.74802 0.88655
 C553 C 0.52431 0.76069 0.87686
 C554 C 0.50891 0.76421 0.88829
 C555 C 0.51867 0.72592 0.87989
 C556 C 0.50321 0.72935 0.89131
 H557 H 0.50142 0.74025 0.83765
 H558 H 0.47995 0.75087 0.89576
 H559 H 0.53725 0.77035 0.87673
 H560 H 0.52780 0.71354 0.88158
 N561 N 0.12622 0.21271 0.29370
 C562 C 0.11308 0.22669 0.29091
 N563 N 0.11510 0.23859 0.27582
 N564 N 0.12983 0.23660 0.26388
 C565 C 0.14303 0.22262 0.26665
 N566 N 0.14096 0.21071 0.28176
 C567 C 0.09730 0.22897 0.30378
 C568 C 0.08398 0.23111 0.31450
 C569 C 0.06805 0.23391 0.32710
 N570 N 0.05681 0.24958 0.32533
 N571 N 0.04193 0.25220 0.33695
 C572 C 0.03777 0.23925 0.35075
 N573 N 0.04910 0.22357 0.35249
 N574 N 0.06399 0.22094 0.34086
 N575 N 0.62761 0.71230 0.79451
 C576 C 0.61442 0.72626 0.79187
 N577 N 0.61633 0.73826 0.77684
 N578 N 0.63100 0.73637 0.76480
 C579 C 0.64424 0.72241 0.76741
 N580 N 0.64228 0.71040 0.78246
 C581 C 0.59867 0.72841 0.80482
 C582 C 0.58536 0.73043 0.81558
 C583 C 0.56943 0.73313 0.82822
 N584 N 0.55829 0.74889 0.82666
 N585 N 0.54341 0.75143 0.83831
 C586 C 0.53917 0.73831 0.85193
 N587 N 0.55040 0.72252 0.85344
 N588 N 0.56528 0.71998 0.84178
 N589 N 0.37390 0.74051 0.79527
 C590 C 0.37846 0.75436 0.80954
 N591 N 0.36707 0.77001 0.81126
 N592 N 0.35161 0.77172 0.79905
 C593 C 0.34710 0.75790 0.78467
 N594 N 0.35847 0.74223 0.78307
 C595 C 0.39610 0.75320 0.82145
 C596 C 0.41155 0.75201 0.83037
 C597 C 0.43065 0.75033 0.83949
 N598 N 0.43374 0.75259 0.85912
 N599 N 0.45169 0.75108 0.86722
 C600 C 0.46711 0.74727 0.85595
 N601 N 0.46386 0.74500 0.83635
 N602 N 0.44599 0.74650 0.82827
 N603 N -0.12719 0.24083 0.29293
 C604 C -0.12241 0.25499 0.30683
 N605 N -0.13327 0.27105 0.30785
 N606 N -0.14843 0.27289 0.29530
 C607 C -0.15315 0.25880 0.28122
 N608 N -0.14231 0.24267 0.28038
 C609 C -0.10498 0.25369 0.31902
 C610 C -0.08967 0.25243 0.32816
 C611 C -0.07068 0.25069 0.33752
 N612 N -0.05532 0.24641 0.32651
 N613 N -0.03751 0.24497 0.33476
 C614 C -0.03436 0.24774 0.35434
 N615 N -0.04981 0.25201 0.36539
 N616 N -0.06770 0.25346 0.35711
 N617 N -0.14162 0.71899 0.20135
 C618 C -0.12889 0.73467 0.20355
 N619 N -0.13205 0.74880 0.21728
 N620 N -0.14745 0.74730 0.22850
 C621 C -0.16022 0.73161 0.22636
 N622 N -0.15703 0.71749 0.21257
 C623 C -0.11215 0.73625 0.19166
 C624 C -0.09792 0.73783 0.18192
 C625 C -0.08078 0.74007 0.17068
 N626 N -0.06300 0.74411 0.17974
 N627 N -0.04712 0.74677 0.16939
 C628 C -0.04844 0.74548 0.14958
 N629 N -0.06630 0.74134 0.14056
 N630 N -0.08220 0.73868 0.15092
 N631 N 0.36070 0.21711 0.70454
 C632 C 0.37283 0.23326 0.70622
 N633 N 0.36942 0.24745 0.71981
 N634 N 0.35432 0.24556 0.73137
 C635 C 0.34212 0.22941 0.72975
 N636 N 0.34560 0.21522 0.71611
 C637 C 0.38910 0.23539 0.69379
 C638 C 0.40284 0.23747 0.68349
 C639 C 0.41930 0.24036 0.67144
 N640 N 0.42972 0.25760 0.67252
 N641 N 0.44508 0.26035 0.66147
 C642 C 0.45057 0.24596 0.64893
 N643 N 0.44006 0.22869 0.64788
 N644 N 0.42468 0.22594 0.65895
 N645 N 0.62695 0.28250 0.69095
 C646 C 0.61198 0.26989 0.69490
 N647 N 0.61399 0.25837 0.71032
 N648 N 0.63044 0.25942 0.72149
 C649 C 0.64546 0.27206 0.71765
 N650 N 0.64342 0.28355 0.70212
 C651 C 0.59390 0.26910 0.68344
 C652 C 0.57826 0.26810 0.67457
 C653 C 0.55911 0.26645 0.66508
 N654 N 0.55679 0.26531 0.64535
 N655 N 0.53891 0.26295 0.63680
 C656 C 0.52278 0.26161 0.64769
 N657 N 0.52522 0.26287 0.66742
 N658 N 0.54305 0.26524 0.67596
 N659 N 0.11762 0.75487 0.20660
 C660 C 0.11483 0.76745 0.19216
 N661 N 0.12922 0.78096 0.18889
 N662 N 0.14590 0.78184 0.19975
 C663 C 0.14869 0.76929 0.21427
 N664 N 0.13427 0.75576 0.21745
 C665 C 0.09647 0.76691 0.18118
 C666 C 0.08061 0.76613 0.17273
 C667 C 0.06123 0.76477 0.16374
 N668 N 0.04547 0.76382 0.17506
 N669 N 0.02742 0.76173 0.16700
 C670 C 0.02443 0.76050 0.14732
 N671 N 0.04026 0.76158 0.13598
 N672 N 0.05837 0.76366 0.14406
 N673 N 0.29360 0.12714 0.21134
 C674 C 0.29119 0.11504 0.22621
 N675 N 0.27688 0.11835 0.23890
 N676 N 0.26532 0.13331 0.23677
 C677 C 0.26768 0.14546 0.22189
 N678 N 0.28203 0.14212 0.20921
 C679 C 0.30348 0.09883 0.22846
 C680 C 0.31362 0.08509 0.23051
 C681 C 0.32544 0.06860 0.23317
 N682 N 0.31689 0.05053 0.23401
 N683 N 0.32780 0.03522 0.23689
 C684 C 0.34764 0.03743 0.23902
 N685 N 0.35615 0.05557 0.23811
 N686 N 0.34523 0.07090 0.23524
 N687 N 0.77776 0.61815 0.73846
 C688 C 0.79198 0.61486 0.72569
 N689 N 0.79435 0.62701 0.71084
 N690 N 0.78280 0.64201 0.70883
 C691 C 0.76852 0.64534 0.72160
 N692 N 0.76622 0.63315 0.73645
 C693 C 0.80423 0.59859 0.72780
 C694 C 0.81431 0.58479 0.72975
 C695 C 0.82605 0.56822 0.73231
 N696 N 0.84584 0.57042 0.73447
 N697 N 0.85667 0.55503 0.73730
 C698 C 0.84806 0.53691 0.73808
 N699 N 0.82822 0.53480 0.73586
 N700 N 0.81740 0.55019 0.73303
 N701 N 0.79235 0.37150 0.74106
 C702 C 0.80700 0.37605 0.75459
 N703 N 0.80932 0.36457 0.77002
 N704 N 0.79731 0.34902 0.77186
 C705 C 0.78253 0.34452 0.75837
 N706 N 0.78035 0.35599 0.74289
 C707 C 0.81870 0.39374 0.75335
 C708 C 0.82742 0.40922 0.75213
 C709 C 0.83630 0.42832 0.75045
 N710 N 0.85597 0.43176 0.75297
 N711 N 0.86383 0.44972 0.75150
 C712 C 0.85225 0.46479 0.74747
 N713 N 0.83259 0.46119 0.74496
 N714 N 0.82476 0.44331 0.74642
 N715 N 0.31087 -0.13605 0.26976
 C716 C 0.30788 -0.12386 0.25500
 N717 N 0.29276 -0.12791 0.24188
 N718 N 0.28093 -0.14360 0.24346
 C719 C 0.28376 -0.15578 0.25829
 N720 N 0.29904 -0.15178 0.27134
 C721 C 0.31943 -0.10604 0.25405
 C722 C 0.32802 -0.09046 0.25302
 C723 C 0.33671 -0.07125 0.25151
 N724 N 0.32502 -0.05631 0.24776
 N725 N 0.33269 -0.03835 0.24633
 C726 C 0.35235 -0.03464 0.24860
 N727 N 0.36409 -0.04966 0.25236
 N728 N 0.35639 -0.06768 0.25379
 N729 N 0.22149 -0.13073 0.74696
 C730 C 0.20721 -0.12770 0.73327
 N731 N 0.20445 -0.14047 0.71773
 N732 N 0.21566 -0.15582 0.71594
 C733 C 0.22999 -0.15892 0.72963
 N734 N 0.23269 -0.14608 0.74518
 C735 C 0.19512 -0.11120 0.73527
 C736 C 0.18506 -0.09729 0.73718
 C737 C 0.17325 -0.08066 0.73984
 N738 N 0.16070 -0.07535 0.72540
 N739 N 0.14977 -0.05990 0.72800
 C740 C 0.15102 -0.04923 0.74515
 N741 N 0.16361 -0.05463 0.75956
 N742 N 0.17453 -0.07006 0.75696
 N743 N 0.70285 0.35895 0.21760
 C744 C 0.70658 0.37228 0.23254
 N745 N 0.72196 0.36994 0.24521
 N746 N 0.73329 0.35475 0.24300
 C747 C 0.72962 0.34138 0.22805
 N748 N 0.71418 0.34375 0.21540
 C749 C 0.69454 0.38878 0.23487
 C750 C 0.68468 0.40280 0.23701
 C751 C 0.67329 0.41969 0.23984
 N752 N 0.68234 0.43735 0.24414
 N753 N 0.67185 0.45302 0.24717
 C754 C 0.65192 0.45160 0.24601
 N755 N 0.64291 0.43387 0.24163
 N756 N 0.65341 0.41818 0.23860
 N757 N 0.68989 0.62822 0.28321
 C758 C 0.69359 0.61411 0.26962
 N759 N 0.70816 0.61729 0.25717
 N760 N 0.71874 0.63405 0.25827
 C761 C 0.71513 0.64819 0.27187
 N762 N 0.70048 0.64499 0.28430
 C763 C 0.68284 0.59568 0.26882
 C764 C 0.67453 0.57983 0.26785
 C765 C 0.66563 0.56051 0.26627
 N766 N 0.67712 0.54495 0.26509
 N767 N 0.66912 0.52698 0.26283
 C768 C 0.64932 0.52388 0.26166
 N769 N 0.63782 0.53952 0.26296
 N770 N 0.64584 0.55754 0.26521
 N771 N 0.21165 0.11449 0.75933
 C772 C 0.19651 0.11158 0.77117
 N773 N 0.19246 0.12581 0.78449
 N774 N 0.20326 0.14246 0.78591
 C775 C 0.21848 0.14539 0.77408
 N776 N 0.22244 0.13111 0.76075
 C777 C 0.18538 0.09336 0.76991
 C778 C 0.17669 0.07770 0.76854
 C779 C 0.16725 0.05864 0.76648
 N780 N 0.14741 0.05625 0.76557
 N781 N 0.13886 0.03848 0.76293
 C782 C 0.14987 0.02253 0.76109
 N783 N 0.16972 0.02504 0.76211
 N784 N 0.17825 0.04276 0.76476
 N785 N 0.21074 0.29499 0.12525
 C786 C 0.22551 0.29277 0.11286
 N787 N 0.23813 0.27831 0.11555
 N788 N 0.23605 0.26641 0.13020
 C789 C 0.22128 0.26860 0.14264
 N790 N 0.20866 0.28309 0.13990
 C791 C 0.22781 0.30555 0.09712
 C792 C 0.22993 0.31620 0.08383
 C793 C 0.23271 0.32873 0.06796
 N794 N 0.24848 0.32690 0.05678
 N795 N 0.25112 0.33849 0.04198
 C796 C 0.23809 0.35230 0.03785
 N797 N 0.22230 0.35408 0.04910
 N798 N 0.21966 0.34248 0.06391
 N799 N 0.71099 0.79495 0.62539
 C800 C 0.72572 0.79275 0.61296
 N801 N 0.73832 0.77826 0.61557
 N802 N 0.73625 0.76632 0.63019
 C803 C 0.72152 0.76848 0.64267
 N804 N 0.70892 0.78301 0.64001
 C805 C 0.72804 0.80560 0.59726
 C806 C 0.73021 0.81630 0.58402
 C807 C 0.73306 0.82886 0.56818
 N808 N 0.74892 0.82714 0.55712
 N809 N 0.75161 0.83874 0.54233
 C810 C 0.73852 0.85247 0.53810
 N811 N 0.72264 0.85416 0.54924
 N812 N 0.71995 0.84255 0.56403
 N813 N 0.76933 0.81231 0.36615
 C814 C 0.75439 0.80972 0.37832
 N815 N 0.74106 0.79475 0.37447
 N816 N 0.74261 0.78272 0.35897
 C817 C 0.75759 0.78519 0.34680
 N818 N 0.77088 0.80027 0.35061
 C819 C 0.75340 0.82160 0.39590
 C820 C 0.75233 0.83053 0.41128
 C821 C 0.75076 0.83969 0.43027
 N822 N 0.74690 0.82852 0.44553
 N823 N 0.74542 0.83664 0.46329
 C824 C 0.74774 0.85624 0.46649
 N825 N 0.75160 0.86745 0.45116
 N826 N 0.75309 0.85931 0.43332
 N827 N 0.24154 0.29368 -0.12518
 C828 C 0.25468 0.30882 -0.12141
 N829 N 0.26982 0.31131 -0.13337
 N830 N 0.27173 0.29900 -0.14863
 C831 C 0.25864 0.28375 -0.15236
 N832 N 0.24346 0.28137 -0.14040
 C833 C 0.25336 0.32094 -0.10403
 C834 C 0.25205 0.33003 -0.08879
 C835 C 0.25022 0.33932 -0.06989
 N836 N 0.25303 0.35890 -0.06683
 N837 N 0.25147 0.36712 -0.04904
 C838 C 0.24708 0.35602 -0.03376
 N839 N 0.24427 0.33646 -0.03698
 N840 N 0.24581 0.32827 -0.05470
 N841 N 0.74435 0.21925 -0.12832
 C842 C 0.73011 0.20564 -0.12488
 N843 N 0.71397 0.20370 -0.13707
 N844 N 0.71213 0.21503 -0.15226
 C845 C 0.72638 0.22865 -0.15576
 N846 N 0.74250 0.23057 -0.14350
 C847 C 0.73239 0.19317 -0.10878
 C848 C 0.73469 0.18267 -0.09534
 C849 C 0.73798 0.17017 -0.07943
 N850 N 0.72667 0.17099 -0.06368
 N851 N 0.73015 0.15970 -0.04872
 C852 C 0.74507 0.14721 -0.04900
 N853 N 0.75631 0.14642 -0.06487
 N854 N 0.75283 0.15769 -0.07981
 N855 N 0.21885 0.70000 0.35924
 C856 C 0.23454 0.70252 0.37197
 N857 N 0.24858 0.71642 0.36881
 N858 N 0.24700 0.72746 0.35339
 C859 C 0.23130 0.72499 0.34062
 N860 N 0.21726 0.71105 0.34382
 C861 C 0.23621 0.69079 0.38871
 C862 C 0.23783 0.68116 0.40291
 C863 C 0.24007 0.67001 0.42000
 N864 N 0.24419 0.67916 0.43763
 N865 N 0.24682 0.66889 0.45347
 C866 C 0.24543 0.64909 0.45225
 N867 N 0.24122 0.63999 0.43454
 N868 N 0.23858 0.65027 0.41869
 N869 N 0.28266 0.68865 0.62869
 C870 C 0.26932 0.69242 0.61431
 N871 N 0.25725 0.70738 0.61701
 N872 N 0.25848 0.71827 0.63354
 C873 C 0.27184 0.71460 0.64794
 N874 N 0.28389 0.69956 0.64524
 C875 C 0.26842 0.68135 0.59609
 C876 C 0.26735 0.67284 0.58035
 C877 C 0.26566 0.66376 0.56112
 N878 N 0.26451 0.67498 0.54542
 N879 N 0.26216 0.66683 0.52753
 C880 C 0.26086 0.64714 0.52465
 N881 N 0.26212 0.63590 0.54042
 N882 N 0.26447 0.64407 0.55837
 N883 N 0.78292 0.18825 0.12635
 C884 C 0.76947 0.19187 0.11204
 N885 N 0.75725 0.20671 0.11477
 N886 N 0.75846 0.21763 0.13128
 C887 C 0.77194 0.21411 0.14563
 N888 N 0.78413 0.19918 0.14289
 C889 C 0.76859 0.18077 0.09384
 C890 C 0.76756 0.17217 0.07815
 C891 C 0.76591 0.16289 0.05902
 N892 N 0.76462 0.17390 0.04317
 N893 N 0.76232 0.16552 0.02537
 C894 C 0.76123 0.14581 0.02275
 N895 N 0.76264 0.13478 0.03866
 N896 N 0.76493 0.14318 0.05651
 N897 N 0.46551 0.37464 0.54183
 C898 C 0.47984 0.36196 0.53863
 N899 N 0.49181 0.36473 0.52362
 N900 N 0.48949 0.37975 0.51219
 C901 C 0.47511 0.39246 0.51537
 N902 N 0.46319 0.38964 0.53042
 C903 C 0.48195 0.34566 0.55084
 C904 C 0.48290 0.33212 0.56141
 C905 C 0.48289 0.31626 0.57437
 N906 N 0.49863 0.30497 0.57641
 N907 N 0.49835 0.29035 0.58861
 C908 C 0.48233 0.28657 0.59916
 N909 N 0.46665 0.29794 0.59702
 N910 N 0.46692 0.31250 0.58486
 N911 N -0.00712 0.86378 0.02376
 C912 C -0.01914 0.86105 0.03874
 N913 N -0.03347 0.87376 0.04188
 N914 N -0.03573 0.88873 0.03042
 C915 C -0.02375 0.89152 0.01541
 N916 N -0.00938 0.87878 0.01229
 C917 C -0.01708 0.84480 0.05103
 C918 C -0.01615 0.83133 0.06169
 C919 C -0.01615 0.81558 0.07478
 N920 N -0.03191 0.81220 0.08568
 N921 N -0.03217 0.79772 0.09793
 C922 C -0.01667 0.78605 0.09976
 N923 N -0.00087 0.78946 0.08880
 N924 N -0.00061 0.80399 0.07651
 N925 N 0.04439 0.64148 0.03815
 C926 C 0.02726 0.65064 0.03590
 N927 N 0.01456 0.64485 0.02092
 N928 N 0.01882 0.63035 0.00855
 C929 C 0.03591 0.62110 0.01075
 N930 N 0.04865 0.62695 0.02575
 C931 C 0.02216 0.66584 0.04952
 C932 C 0.01712 0.67839 0.06082
 C933 C 0.01033 0.69298 0.07421
 N934 N 0.01954 0.71085 0.07637
 N935 N 0.01292 0.72439 0.08863
 C936 C -0.00314 0.72054 0.09908
 N937 N -0.01231 0.70262 0.09683
 N938 N -0.00570 0.68910 0.08460
 N939 N 0.54589 0.14277 0.53813
 C940 C 0.52908 0.15237 0.53550
 N941 N 0.51670 0.14703 0.52012
 N942 N 0.52097 0.13254 0.50775
 C943 C 0.53774 0.12285 0.51033
 N944 N 0.55017 0.12825 0.52573
 C945 C 0.52385 0.16746 0.54919
 C946 C 0.51860 0.17987 0.56052
 C947 C 0.51142 0.19424 0.57392
 N948 N 0.52030 0.21225 0.57631
 N949 N 0.51325 0.22558 0.58851
 C950 C 0.49705 0.22139 0.59866
 N951 N 0.48823 0.20333 0.59618
 N952 N 0.49527 0.19001 0.58402
 N953 N -0.01377 0.15402 0.49273
 C954 C -0.02595 0.15577 0.47686
 N955 N -0.04154 0.14303 0.47374
 N956 N -0.04484 0.12894 0.48608
 C957 C -0.03264 0.12707 0.50193
 N958 N -0.01707 0.13992 0.50509
 C959 C -0.02170 0.17004 0.46279
 C960 C -0.01790 0.18142 0.45047
 C961 C -0.01289 0.19423 0.43530
 N962 N 0.00241 0.19031 0.42405
 N963 N 0.00701 0.20184 0.40969
 C964 C -0.00355 0.21770 0.40601
 N965 N -0.01890 0.22160 0.41731
 N966 N -0.02352 0.21004 0.43170
 N967 N 0.45893 0.64279 0.97532
 C968 C 0.47502 0.65494 0.97811
 N969 N 0.48751 0.65262 0.99362
 N970 N 0.48403 0.63852 1.00594
 C971 C 0.46798 0.62625 1.00310
 N972 N 0.45546 0.62870 0.98762
 C973 C 0.47944 0.66912 0.96401
 C974 C 0.48337 0.68044 0.95167
 C975 C 0.48844 0.69319 0.93649
 N976 N 0.47804 0.70918 0.93306
 N977 N 0.48269 0.72071 0.91865
 C978 C 0.49785 0.71659 0.90717
 N979 N 0.50819 0.70055 0.91069
 N980 N 0.50356 0.68905 0.92507
 N981 N 0.50702 0.85995 0.98365
 C982 C 0.51757 0.85781 0.96746
 N983 N 0.53262 0.87072 0.96466
 N984 N 0.53703 0.88532 0.97764
 C985 C 0.52655 0.88750 0.99389
 N986 N 0.51143 0.87458 0.99665
 C987 C 0.51356 0.84168 0.95377
 C988 C 0.51125 0.82818 0.94203
 C989 C 0.50990 0.81225 0.92783
 N990 N 0.52428 0.81024 0.91499
 N991 N 0.52375 0.79510 0.90225
 C992 C 0.50883 0.78139 0.90187
 N993 N 0.49435 0.78350 0.91469
 N994 N 0.49488 0.79868 0.92748
 N995 N 0.00552 0.36132 0.48158
 C996 C 0.01544 0.35966 0.46494
 N997 N 0.03001 0.37298 0.46173
 N998 N 0.03456 0.38752 0.47475
 C999 C 0.02470 0.38922 0.49145
 N1000 N 0.01005 0.37590 0.49461
 C1001 C 0.01142 0.34349 0.45129
 C1002 C 0.00909 0.32992 0.43963
 C1003 C 0.00775 0.31388 0.42555
 N1004 N 0.02199 0.31192 0.41257
 N1005 N 0.02156 0.29662 0.40003
 C1006 C 0.00688 0.28268 0.40001
 N1007 N -0.00748 0.28473 0.41297
 N1008 N -0.00705 0.30008 0.42556
 N1009 N 0.36515 0.52368 0.49268
 C1010 C 0.36169 0.53831 0.48050
 N1011 N 0.37382 0.54121 0.46566
 N1012 N 0.38893 0.52988 0.46305
 C1013 C 0.39244 0.51522 0.47518
 N1014 N 0.38029 0.51233 0.49006
 C1015 C 0.34530 0.55050 0.48294
 C1016 C 0.33173 0.56113 0.48408
 C1017 C 0.31587 0.57424 0.48420
 N1018 N 0.31243 0.58514 0.46856
 N1019 N 0.29787 0.59742 0.46839
 C1020 C 0.28618 0.59928 0.48383
 N1021 N 0.28966 0.58832 0.49951
 N1022 N 0.30427 0.57599 0.49970
 N1023 N 0.86609 0.02247 -0.00719
 C1024 C 0.86267 0.03713 -0.01933
 N1025 N 0.87493 0.04020 -0.03403
 N1026 N 0.89014 0.02897 -0.03654
 C1027 C 0.89362 0.01427 -0.02445
 N1028 N 0.88133 0.01123 -0.00971
 C1029 C 0.84614 0.04915 -0.01705
 C1030 C 0.83244 0.05963 -0.01611
 C1031 C 0.81644 0.07256 -0.01628
 N1032 N 0.81281 0.08300 -0.03220
 N1033 N 0.79814 0.09514 -0.03265
 C1034 C 0.78653 0.09731 -0.01719
 N1035 N 0.79018 0.08681 -0.00121
 N1036 N 0.80490 0.07462 -0.00076
 N1037 N 0.64069 0.03851 0.04561
 C1038 C 0.65047 0.03521 0.02907
 N1039 N 0.64521 0.01935 0.01735
 N1040 N 0.63063 0.00719 0.02198
 C1041 C 0.62075 0.01045 0.03848
 N1042 N 0.62608 0.02632 0.05025
 C1043 C 0.66573 0.04860 0.02352
 C1044 C 0.67833 0.05970 0.01813
 C1045 C 0.69298 0.07283 0.01094
 N1046 N 0.68898 0.08281 -0.00524
 N1047 N 0.70255 0.09479 -0.01220
 C1048 C 0.72066 0.09719 -0.00326
 N1049 N 0.72463 0.08715 0.01295
 N1050 N 0.71104 0.07515 0.01992
 N1051 N 0.14378 0.52115 0.51575
 C1052 C 0.14961 0.53635 0.52812
 N1053 N 0.14030 0.53898 0.54504
 N1054 N 0.12560 0.52677 0.54944
 C1055 C 0.11971 0.51155 0.53702
 N1056 N 0.12910 0.50897 0.52013
 C1057 C 0.16499 0.54979 0.52290
 C1058 C 0.17767 0.56098 0.51782
 C1059 C 0.19241 0.57426 0.51101
 N1060 N 0.21040 0.57642 0.52016
 N1061 N 0.22407 0.58858 0.51354
 C1062 C 0.22024 0.59895 0.49751
 N1063 N 0.20220 0.59670 0.48841
 N1064 N 0.18855 0.58457 0.49502
 N1065 N 0.14270 0.47533 -0.04231
 C1066 C 0.15505 0.47867 -0.02648
 N1067 N 0.15270 0.49452 -0.01449
 N1068 N 0.13839 0.50664 -0.01822
 C1069 C 0.12593 0.50323 -0.03402
 N1070 N 0.12841 0.48741 -0.04602
 C1071 C 0.16942 0.46476 -0.02177
 C1072 C 0.18083 0.45249 -0.01770
 C1073 C 0.19362 0.43732 -0.01254
 N1074 N 0.20960 0.43360 -0.02297
 N1075 N 0.22106 0.41909 -0.01833
 C1076 C 0.21688 0.40778 -0.00316
 N1077 N 0.20086 0.41159 0.00721
 N1078 N 0.18943 0.42607 0.00259
 N1079 N 0.65314 0.99462 0.48574
 C1080 C 0.65544 0.97883 0.47366
 N1081 N 0.64317 0.97568 0.45775
 N1082 N 0.62899 0.98790 0.45405
 C1083 C 0.62655 1.00366 0.46615
 N1084 N 0.63894 1.00687 0.48203
 C1085 C 0.66972 0.96481 0.47833
 C1086 C 0.68107 0.95248 0.48238
 C1087 C 0.69383 0.93727 0.48752
 N1088 N 0.68956 0.92593 0.50256
 N1089 N 0.70102 0.91147 0.50720
 C1090 C 0.71714 0.90778 0.49694
 N1091 N 0.72139 0.91917 0.48185
 N1092 N 0.70990 0.93366 0.47719
 N1093 N 0.86190 0.98320 0.50680
 C1094 C 0.85992 0.96660 0.51667
 N1095 N 0.87303 0.96333 0.53138
 N1096 N 0.88769 0.97625 0.53612
 C1097 C 0.88970 0.99291 0.52634
 N1098 N 0.87659 0.99613 0.51154
 C1099 C 0.84358 0.95308 0.51252
 C1100 C 0.82989 0.94149 0.51016
 C1101 C 0.81371 0.92746 0.50883
 N1102 N 0.81154 0.91471 0.52316
 N1103 N 0.79615 0.90217 0.52268
 C1104 C 0.78235 0.90191 0.50786
 N1105 N 0.78462 0.91464 0.49344
 N1106 N 0.80004 0.92723 0.49392
 N1107 N 0.37362 0.46201 0.03025
 C1108 C 0.35987 0.46592 0.01635
 N1109 N 0.36135 0.48301 0.00722
 N1110 N 0.37618 0.49579 0.01190
 C1111 C 0.38994 0.49193 0.02589
 N1112 N 0.38842 0.47479 0.03493
 C1113 C 0.34342 0.45253 0.01228
 C1114 C 0.32966 0.44101 0.00995
 C1115 C 0.31343 0.42705 0.00861
 N1116 N 0.29972 0.42695 -0.00626
 N1117 N 0.28427 0.41438 -0.00678
 C1118 C 0.28203 0.40155 0.00757
 N1119 N 0.29587 0.40169 0.02234
 N1120 N 0.31128 0.41421 0.02285
 N1121 N 0.52505 0.49173 0.36473
 C1122 C 0.53995 0.47965 0.36170
 N1123 N 0.54289 0.46509 0.37406
 N1124 N 0.53132 0.46265 0.38898
 C1125 C 0.51637 0.47468 0.39206
 N1126 N 0.51345 0.48928 0.37967
 C1127 C 0.55236 0.48189 0.34548
 C1128 C 0.56312 0.48294 0.33203
 C1129 C 0.57633 0.48305 0.31628
 N1130 N 0.58734 0.46743 0.31283
 N1131 N 0.59969 0.46727 0.29834
 C1132 C 0.60151 0.48271 0.28675
 N1133 N 0.59044 0.49837 0.29023
 N1134 N 0.57805 0.49854 0.30476
 N1135 N 0.02576 -0.00843 0.86493
 C1136 C 0.04065 -0.02046 0.86169
 N1137 N 0.04376 -0.03508 0.87394
 N1138 N 0.03235 -0.03762 0.88897
 C1139 C 0.01742 -0.02564 0.89227
 N1140 N 0.01434 -0.01097 0.87999
 C1141 C 0.05282 -0.01816 0.84530
 C1142 C 0.06335 -0.01711 0.83167
 C1143 C 0.07628 -0.01710 0.81571
 N1144 N 0.08665 -0.03305 0.81172
 N1145 N 0.09879 -0.03332 0.79706
 C1146 C 0.10104 -0.01765 0.78582
 N1147 N 0.09060 -0.00166 0.78983
 N1148 N 0.07842 -0.00138 0.80454
 N1149 N 0.02182 0.01800 0.64650
 C1150 C 0.03746 0.03006 0.65188
 N1151 N 0.04032 0.04681 0.64240
 N1152 N 0.02791 0.05130 0.62793
 C1153 C 0.01226 0.03916 0.62247
 N1154 N 0.00944 0.02247 0.63206
 C1155 C 0.05118 0.02459 0.66688
 C1156 C 0.06253 0.01915 0.67922
 C1157 C 0.07592 0.01182 0.69354
 N1158 N 0.08596 -0.00429 0.68922
 N1159 N 0.09811 -0.01144 0.70251
 C1160 C 0.10064 -0.00278 0.72062
 N1161 N 0.09054 0.01337 0.72490
 N1162 N 0.07836 0.02053 0.71160
 N1163 N 0.52324 0.51491 0.14506
 C1164 C 0.53841 0.52736 0.15099
 N1165 N 0.54096 0.54435 0.14187
 N1166 N 0.52868 0.54874 0.12725
 C1167 C 0.51349 0.53624 0.12127
 N1168 N 0.51099 0.51928 0.13048
 C1169 C 0.55191 0.52215 0.16629
 C1170 C 0.56313 0.51705 0.17891
 C1171 C 0.57643 0.51019 0.19358
 N1172 N 0.58688 0.49427 0.18969
 N1173 N 0.59905 0.48762 0.20326
 C1174 C 0.60118 0.49663 0.22125
 N1175 N 0.59066 0.51259 0.22511
 N1176 N 0.57847 0.51925 0.21151
 N1177 N 0.49036 -0.01294 0.15365
 C1178 C 0.47453 -0.02510 0.15586
 N1179 N 0.47146 -0.04097 0.14359
 N1180 N 0.48380 -0.04456 0.12949
 C1181 C 0.49961 -0.03237 0.12714
 N1182 N 0.50272 -0.01653 0.13953
 C1183 C 0.46043 -0.02063 0.17014
 C1184 C 0.44805 -0.01678 0.18154
 C1185 C 0.43278 -0.01190 0.19440
 N1186 N 0.42950 -0.02232 0.21037
 N1187 N 0.41496 -0.01793 0.22195
 C1188 C 0.40318 -0.00303 0.21790
 N1189 N 0.40655 0.00733 0.20188
 N1190 N 0.42107 0.00296 0.19033
 N1191 N 0.99075 0.48608 0.65316
 C1192 C 0.97494 0.47388 0.65534
 N1193 N 0.97190 0.45805 0.64300
 N1194 N 0.98422 0.45456 0.62887
 C1195 C 1.00000 0.46679 0.62655
 N1196 N 1.00311 0.48258 0.63901
 C1197 C 0.96081 0.47831 0.66959
 C1198 C 0.94841 0.48218 0.68095
 C1199 C 0.93311 0.48712 0.69375
 N1200 N 0.92967 0.47669 0.70968
 N1201 N 0.91511 0.48115 0.72120
 C1202 C 0.90347 0.49615 0.71714
 N1203 N 0.90699 0.50653 0.70116
 N1204 N 0.92153 0.50208 0.68966
 N1205 N 0.98004 0.50669 0.86026
 C1206 C 0.96318 0.51635 0.85859
 N1207 N 0.95982 0.53085 0.87185
 N1208 N 0.97290 0.53558 0.88634
 C1209 C 0.98983 0.52600 0.88804
 N1210 N 0.99314 0.51141 0.87478
 C1211 C 0.94943 0.51214 0.84249
 C1212 C 0.93765 0.50966 0.82899
 C1213 C 0.92340 0.50811 0.81304
 N1214 N 0.91022 0.52215 0.81106
 N1215 N 0.89749 0.52148 0.79584
 C1216 C 0.89747 0.50676 0.78203
 N1217 N 0.91063 0.49261 0.78412
 N1218 N 0.92341 0.49328 0.79937
 N1219 N 0.46086 0.03276 0.37181
 C1220 C 0.46396 0.01801 0.35873
 N1221 N 0.48067 0.00811 0.36048
 N1222 N 0.49388 0.01285 0.37491
 C1223 C 0.49083 0.02767 0.38799
 N1224 N 0.47406 0.03750 0.38620
 C1225 C 0.45007 0.01371 0.34277
 C1226 C 0.43816 0.01113 0.32939
 C1227 C 0.42377 0.00942 0.31356
 N1228 N 0.42377 -0.00546 0.29995
 N1229 N 0.41085 -0.00629 0.28481
 C1230 C 0.39757 0.00775 0.28277
 N1231 N 0.39760 0.02253 0.29652
 N1232 N 0.41047 0.02335 0.31163
   
