data_POSCAR
  _audit_creation_date              2014-09-24
  _audit_creation_method            'ToBaCCo'
  _symmetry_space_group_name_H-M    'P1'
  _symmetry_Int_Tables_number       1
  _symmetry_cell_setting            triclinic
  loop_
  _symmetry_equiv_pos_as_xyz
 x,y,z
_cell_length_a 65.5377
_cell_length_b 65.4651
_cell_length_c 62.6032
_cell_angle_alpha 90.458000
_cell_angle_beta 86.108300
_cell_angle_gamma 90.991500
loop_
  _atom_site_label
  _atom_site_type_symbol
  _atom_site_fract_x
  _atom_site_fract_y
  _atom_site_fract_z
N1 N 0.18965 0.21126 0.20559
 N2 N 0.19586 0.19856 0.21995
 C3 C 0.18146 0.19709 0.23627
 C4 C 0.16535 0.20958 0.23208
 C5 C 0.17115 0.21830 0.21244
 H6 H 0.18274 0.18770 0.25021
 H7 H 0.16259 0.22904 0.20376
 Cu8 Cu 0.22198 0.18420 0.21643
 Cu9 Cu 0.20638 0.21871 0.17938
 Cu10 Cu 0.25180 0.19547 0.17225
 N11 N 0.24398 0.16652 0.20580
 N12 N 0.25567 0.17082 0.18850
 C13 C 0.26962 0.15608 0.18516
 C14 C 0.26652 0.14174 0.20131
 C15 C 0.25010 0.14898 0.21414
 H16 H 0.28104 0.15580 0.17187
 H17 H 0.24314 0.14217 0.22859
 N18 N 0.24321 0.21538 0.15203
 N19 N 0.22535 0.22417 0.15474
 C20 C 0.22344 0.23748 0.13878
 C21 C 0.24105 0.23703 0.12524
 C22 C 0.25325 0.22273 0.13416
 H23 H 0.21023 0.24689 0.13727
 H24 H 0.26846 0.21829 0.12836
 H25 H 0.21645 0.18948 0.18518
 H26 H 0.22817 0.21132 0.19954
 N27 N 0.68232 0.70653 0.72573
 N28 N 0.68285 0.68703 0.73074
 C29 C 0.66600 0.68212 0.74321
 C30 C 0.65414 0.69933 0.74612
 C31 C 0.66498 0.71454 0.73472
 H32 H 0.66265 0.66708 0.74967
 H33 H 0.66069 0.73031 0.73320
 Cu34 Cu 0.70580 0.66922 0.72193
 Cu35 Cu 0.70401 0.72012 0.70744
 Cu36 Cu 0.74525 0.69190 0.69408
 N37 N 0.73269 0.65715 0.71908
 N38 N 0.74824 0.66592 0.70820
 C39 C 0.76458 0.65374 0.70833
 C40 C 0.75892 0.63637 0.71998
 C41 C 0.73852 0.63911 0.72651
 H42 H 0.77939 0.65723 0.70043
 H43 H 0.72846 0.62863 0.73559
 N44 N 0.73838 0.71521 0.67710
 N45 N 0.72242 0.72647 0.68248
 C46 C 0.72148 0.74164 0.66821
 C47 C 0.73765 0.73967 0.65287
 C48 C 0.74805 0.72269 0.65914
 H49 H 0.70958 0.75291 0.66874
 H50 H 0.76166 0.71620 0.65128
 H51 H 0.70794 0.69109 0.69766
 H52 H 0.71933 0.69735 0.72349
 N53 N 0.31853 0.79948 0.73155
 N54 N 0.31569 0.81673 0.74211
 C55 C 0.32964 0.81846 0.75693
 C56 C 0.34192 0.80139 0.75548
 C57 C 0.33431 0.78969 0.73920
 H58 H 0.33105 0.83137 0.76763
 H59 H 0.33983 0.77511 0.73326
 Cu60 Cu 0.29440 0.83539 0.73481
 Cu61 Cu 0.30217 0.79107 0.70815
 Cu62 Cu 0.26345 0.82328 0.69569
 N63 N 0.27232 0.85321 0.72779
 N64 N 0.26017 0.84813 0.71271
 C65 C 0.24641 0.86288 0.71090
 C66 C 0.25006 0.87831 0.72560
 C67 C 0.26672 0.87151 0.73605
 H68 H 0.23490 0.86242 0.69935
 H69 H 0.27429 0.87923 0.74870
 N70 N 0.26922 0.79747 0.68027
 N71 N 0.28400 0.78523 0.68501
 C72 C 0.28469 0.76939 0.67116
 C73 C 0.26965 0.77175 0.65691
 C74 C 0.26013 0.78975 0.66325
 H75 H 0.29578 0.75737 0.67104
 H76 H 0.24768 0.79688 0.65583
 H77 H 0.29436 0.82009 0.69914
 H78 H 0.27639 0.80672 0.71906
 N79 N 0.83893 0.28597 0.21076
 N80 N 0.83813 0.30231 0.22305
 C81 C 0.85483 0.30312 0.23443
 C82 C 0.86689 0.28633 0.22900
 C83 C 0.85615 0.27583 0.21385
 H84 H 0.85797 0.31521 0.24563
 H85 H 0.86035 0.26179 0.20564
 Cu86 Cu 0.81565 0.32133 0.22285
 Cu87 Cu 0.81760 0.27894 0.19179
 Cu88 Cu 0.77836 0.31322 0.18890
 N89 N 0.79413 0.34097 0.21971
 N90 N 0.77971 0.33779 0.20644
 C91 C 0.76709 0.35381 0.20738
 C92 C 0.77393 0.36791 0.22206
 C93 C 0.79118 0.35915 0.22953
 H94 H 0.75398 0.35506 0.19793
 H95 H 0.80092 0.36551 0.24123
 N96 N 0.77968 0.28746 0.17242
 N97 N 0.79465 0.27442 0.17355
 C98 C 0.79134 0.25843 0.16052
 C99 C 0.77337 0.26148 0.15060
 C100 C 0.76643 0.28012 0.15860
 H101 H 0.80134 0.24552 0.15844
 H102 H 0.75279 0.28786 0.15462
 H103 H 0.80963 0.30899 0.18694
 H104 H 0.79414 0.29454 0.20822
 N105 N 0.83487 0.73678 0.27458
 N106 N 0.82907 0.72008 0.26476
 C107 C 0.84320 0.71553 0.24890
 C108 C 0.85875 0.73018 0.24869
 C109 C 0.85287 0.74344 0.26529
 H110 H 0.84236 0.70234 0.23851
 H111 H 0.86103 0.75695 0.27029
 Cu112 Cu 0.80386 0.70553 0.27381
 Cu113 Cu 0.81880 0.74836 0.29891
 Cu114 Cu 0.77425 0.72234 0.31618
 N115 N 0.77917 0.69079 0.28419
 N116 N 0.76761 0.69740 0.30068
 C117 C 0.75189 0.68414 0.30462
 C118 C 0.75365 0.66826 0.28980
 C119 C 0.77121 0.67310 0.27711
 H120 H 0.74017 0.68590 0.31747
 H121 H 0.77794 0.66426 0.26389
 N122 N 0.78356 0.74784 0.32978
 N123 N 0.80053 0.75770 0.32322
 C124 C 0.80301 0.77407 0.33601
 C125 C 0.78684 0.77461 0.35148
 C126 C 0.77480 0.75769 0.34692
 H127 H 0.81589 0.78457 0.33440
 H128 H 0.76083 0.75270 0.35560
 H129 H 0.80551 0.72093 0.30927
 H130 H 0.79075 0.73664 0.29112
 N131 N 0.30721 0.23192 -0.24280
 N132 N 0.30024 0.21826 -0.25622
 C133 C 0.31525 0.21358 -0.27107
 C134 C 0.33271 0.22492 -0.26706
 C135 C 0.32689 0.23644 -0.24893
 H136 H 0.31341 0.20267 -0.28385
 H137 H 0.33626 0.24718 -0.24060
 Cu138 Cu 0.27218 0.20684 -0.25371
 Cu139 Cu 0.29018 0.24284 -0.21805
 Cu140 Cu 0.24132 0.22590 -0.21419
 N141 N 0.24658 0.19314 -0.24413
 N142 N 0.23436 0.20068 -0.22866
 C143 C 0.21797 0.18817 -0.22529
 C144 C 0.21992 0.17183 -0.23951
 C145 C 0.23833 0.17562 -0.25127
 H146 H 0.20565 0.19082 -0.21327
 H147 H 0.24547 0.16622 -0.26382
 N148 N 0.25150 0.24513 -0.19363
 N149 N 0.27062 0.25164 -0.19488
 C150 C 0.27362 0.26389 -0.17790
 C151 C 0.25540 0.26491 -0.16526
 C152 C 0.24173 0.25282 -0.17587
 H153 H 0.28813 0.27094 -0.17464
 H154 H 0.22591 0.24951 -0.17092
 H155 H 0.27609 0.21469 -0.22246
 H156 H 0.26949 0.23604 -0.24007
 N157 N 0.65543 0.25851 -0.19850
 N158 N 0.66084 0.27211 -0.21321
 C159 C 0.64695 0.27205 -0.22803
 C160 C 0.63177 0.25761 -0.22242
 C161 C 0.63781 0.24931 -0.20347
 H162 H 0.64780 0.28219 -0.24160
 H163 H 0.63004 0.23753 -0.19387
 Cu164 Cu 0.68504 0.28938 -0.21166
 Cu165 Cu 0.67169 0.25400 -0.17397
 Cu166 Cu 0.71044 0.28944 -0.16696
 N167 N 0.70399 0.31136 -0.20532
 N168 N 0.71382 0.31131 -0.18774
 C169 C 0.72597 0.32803 -0.18728
 C170 C 0.72367 0.33928 -0.20559
 C171 C 0.70951 0.32820 -0.21667
 H172 H 0.73561 0.33176 -0.17442
 H173 H 0.70376 0.33195 -0.23191
 N174 N 0.70477 0.26620 -0.14772
 N175 N 0.69013 0.25250 -0.15031
 C176 C 0.69066 0.23830 -0.13485
 C177 C 0.70645 0.24333 -0.12196
 C178 C 0.71494 0.26116 -0.13067
 H179 H 0.68050 0.22513 -0.13334
 H180 H 0.72769 0.26988 -0.12510
 H181 H 0.67994 0.28437 -0.17334
 H182 H 0.69903 0.26633 -0.18625
 N183 N 0.18625 0.74799 0.28457
 N184 N 0.19035 0.76513 0.27422
 C185 C 0.17536 0.76848 0.26100
 C186 C 0.16107 0.75262 0.26331
 C187 C 0.16861 0.73991 0.27836
 H188 H 0.17451 0.78178 0.25098
 H189 H 0.16167 0.72590 0.28460
 Cu190 Cu 0.21430 0.78172 0.28032
 Cu191 Cu 0.20321 0.73785 0.30634
 Cu192 Cu 0.24602 0.76692 0.31705
 N193 N 0.23857 0.79790 0.28628
 N194 N 0.25082 0.79190 0.30066
 C195 C 0.26579 0.80597 0.30250
 C196 C 0.26287 0.82190 0.28855
 C197 C 0.24538 0.81608 0.27843
 H198 H 0.27763 0.80471 0.31356
 H199 H 0.23782 0.82459 0.26664
 N200 N 0.23850 0.74118 0.33193
 N201 N 0.22220 0.73013 0.32782
 C202 C 0.22040 0.71433 0.34147
 C203 C 0.23629 0.71545 0.35496
 C204 C 0.24750 0.73268 0.34833
 H205 H 0.20789 0.70336 0.34214
 H206 H 0.26086 0.73898 0.35534
 H207 H 0.21465 0.76599 0.31548
 H208 H 0.23010 0.75167 0.29434
 N209 N 0.47489 0.41497 0.48254
 N210 N 0.45772 0.41938 0.49355
 C211 C 0.45332 0.40494 0.50829
 C212 C 0.46853 0.39046 0.50667
 C213 C 0.48199 0.39733 0.48997
 H214 H 0.44004 0.40527 0.51949
 H215 H 0.49606 0.39033 0.48393
 Cu216 Cu 0.44264 0.44392 0.48862
 Cu217 Cu 0.48629 0.43334 0.45991
 Cu218 Cu 0.47272 0.48318 0.47252
 N219 N 0.43280 0.47165 0.49002
 N220 N 0.44504 0.48721 0.48488
 C221 C 0.43490 0.50470 0.48868
 C222 C 0.41509 0.49975 0.49617
 C223 C 0.41429 0.47862 0.49681
 H224 H 0.44125 0.51982 0.48550
 H225 H 0.40134 0.46907 0.50216
 N226 N 0.49506 0.47614 0.45116
 N227 N 0.49970 0.45724 0.44541
 C228 C 0.51231 0.45778 0.42745
 C229 C 0.51553 0.47805 0.42151
 C230 C 0.50454 0.48915 0.43714
 H231 H 0.51739 0.44442 0.41847
 H232 H 0.50226 0.50546 0.43746
 H233 H 0.47869 0.45382 0.48253
 H234 H 0.46395 0.45623 0.45814
 N235 N -0.04043 -0.09148 0.95817
 N236 N -0.05577 -0.09152 0.97281
 C237 C -0.05337 -0.10693 0.98653
 C238 C -0.03555 -0.11714 0.98012
 C239 C -0.02782 -0.10680 0.96202
 H240 H -0.06378 -0.11037 1.00020
 H241 H -0.01390 -0.10993 0.95241
 Cu242 Cu -0.07718 -0.07118 0.97259
 Cu243 Cu -0.03753 -0.07147 0.93534
 Cu244 Cu -0.07440 -0.03435 0.93517
 N245 N -0.09745 -0.04968 0.97254
 N246 N -0.09616 -0.03544 0.95783
 C247 C -0.11183 -0.02260 0.96129
 C248 C -0.12375 -0.02899 0.97921
 C249 C -0.11408 -0.04631 0.98593
 H250 H -0.11429 -0.00959 0.95134
 H251 H -0.11873 -0.05573 0.99955
 N252 N -0.05124 -0.03575 0.91352
 N253 N -0.03721 -0.04993 0.91354
 C254 C -0.02355 -0.04690 0.89676
 C255 C -0.02923 -0.02996 0.88557
 C256 C -0.04689 -0.02332 0.89674
 H257 H -0.01055 -0.05649 0.89288
 H258 H -0.05591 -0.01034 0.89300
 H259 H -0.05302 -0.04872 0.95239
 H260 H -0.06825 -0.06522 0.93462
 N261 N 1.03938 0.58113 0.96476
 N262 N 1.05440 0.57854 0.97746
 C263 C 1.05505 0.59470 0.99097
 C264 C 1.03956 0.60798 0.98662
 C265 C 1.03014 0.59883 0.96980
 H266 H 1.06559 0.59634 1.00345
 H267 H 1.01716 0.60441 0.96202
 Cu268 Cu 1.07152 0.55378 0.97592
 Cu269 Cu 1.03097 0.56065 0.94376
 Cu270 Cu 1.05652 0.51692 0.94252
 N271 N 1.08951 0.53128 0.96665
 N272 N 1.08344 0.51707 0.95343
 C273 C 1.09844 0.50360 0.94944
 C274 C 1.11493 0.50944 0.96088
 C275 C 1.10867 0.52707 0.97179
 H276 H 1.09725 0.49033 0.93919
 H277 H 1.11742 0.53626 0.98245
 N278 N 1.03453 0.52110 0.92401
 N279 N 1.02480 0.53846 0.92422
 C280 C 1.01063 0.53754 0.90965
 C281 C 1.01159 0.51857 0.89966
 C282 C 1.02702 0.50854 0.90923
 H283 H 1.00055 0.54988 0.90644
 H284 H 1.03242 0.49329 0.90576
 H285 H 1.04303 0.54358 0.96721
 H286 H 1.06164 0.55357 0.94585
 N287 N 0.51943 0.06323 0.46937
 N288 N 0.53445 0.06039 0.48199
 C289 C 0.53604 0.07689 0.49485
 C290 C 0.52127 0.09079 0.49009
 C291 C 0.51106 0.08150 0.47388
 H292 H 0.54726 0.07871 0.50664
 H293 H 0.49827 0.08747 0.46606
 Cu294 Cu 0.55114 0.03547 0.48067
 Cu295 Cu 0.51127 0.04305 0.44791
 Cu296 Cu 0.53678 -0.00090 0.44648
 N297 N 0.56892 0.01276 0.47203
 N298 N 0.56316 -0.00148 0.45871
 C299 C 0.57805 -0.01527 0.45566
 C300 C 0.59414 -0.00950 0.46780
 C301 C 0.58771 0.00841 0.47806
 H302 H 0.57704 -0.02858 0.44545
 H303 H 0.59604 0.01770 0.48899
 N304 N 0.51538 0.00387 0.42730
 N305 N 0.50549 0.02116 0.42783
 C306 C 0.49218 0.02088 0.41238
 C307 C 0.49390 0.00243 0.40143
 C308 C 0.50882 -0.00798 0.41141
 H309 H 0.48249 0.03346 0.40894
 H310 H 0.51475 -0.02290 0.40725
 H311 H 0.52280 0.02552 0.47118
 H312 H 0.54178 0.03573 0.45028
 N313 N -0.02544 0.09618 0.49587
 N314 N -0.03941 0.08882 0.48372
 C315 C -0.04056 0.10101 0.46665
 C316 C -0.02648 0.11697 0.46815
 C317 C -0.01717 0.11329 0.48696
 H318 H -0.05111 0.09855 0.45431
 H319 H -0.00563 0.12262 0.49405
 Cu320 Cu -0.05535 0.06455 0.49192
 Cu321 Cu -0.01968 0.08355 0.52277
 Cu322 Cu -0.05267 0.04463 0.54115
 N323 N -0.07617 0.04583 0.50404
 N324 N -0.07515 0.03789 0.52314
 C325 C -0.09178 0.02583 0.52746
 C326 C -0.10395 0.02641 0.51017
 C327 C -0.09345 0.03927 0.49562
 H328 H -0.09504 0.01770 0.54230
 H329 H -0.09803 0.04364 0.48006
 N330 N -0.02886 0.05402 0.55669
 N331 N -0.01639 0.06886 0.54956
 C332 C -0.00185 0.07194 0.56343
 C333 C -0.00522 0.05846 0.58027
 C334 C -0.02252 0.04728 0.57540
 H335 H 0.01042 0.08312 0.56129
 H336 H -0.03005 0.03525 0.58484
 H337 H -0.03123 0.05422 0.51762
 H338 H -0.04980 0.07360 0.52874
 N339 N 0.49641 0.57856 0.03565
 N340 N 0.48481 0.57161 0.02082
 C341 C 0.48616 0.58434 0.00408
 C342 C 0.49937 0.60035 0.00847
 C343 C 0.50564 0.59610 0.02873
 H344 H 0.47727 0.58250 -0.00975
 H345 H 0.51564 0.60533 0.03806
 Cu346 Cu 0.46714 0.54793 0.02541
 Cu347 Cu 0.49739 0.56471 0.06316
 Cu348 Cu 0.46009 0.52717 0.07414
 N349 N 0.44346 0.53093 0.03315
 N350 N 0.44060 0.52263 0.05218
 C351 C 0.42258 0.51230 0.05332
 C352 C 0.41363 0.51455 0.03402
 C353 C 0.42740 0.52643 0.02164
 H354 H 0.41613 0.50439 0.06737
 H355 H 0.42580 0.53167 0.00551
 N356 N 0.48136 0.53433 0.09399
 N357 N 0.49550 0.54863 0.08988
 C358 C 0.50801 0.54945 0.10609
 C359 C 0.50149 0.53493 0.12119
 C360 C 0.48450 0.52569 0.11290
 H361 H 0.52123 0.55949 0.10655
 H362 H 0.47521 0.51340 0.11997
 H363 H 0.48586 0.53618 0.05510
 H364 H 0.46689 0.55635 0.06314
 N365 N 0.50384 -0.08831 0.00182
 N366 N 0.51960 -0.08127 -0.01015
 C367 C 0.52184 -0.09256 -0.02817
 C368 C 0.50666 -0.10760 -0.02749
 C369 C 0.49548 -0.10434 -0.00819
 H370 H 0.53426 -0.09058 -0.04027
 H371 H 0.48262 -0.11330 -0.00153
 Cu372 Cu 0.53694 -0.05941 -0.00030
 Cu373 Cu 0.49653 -0.07728 0.03022
 Cu374 Cu 0.53174 -0.04385 0.05106
 N375 N 0.55849 -0.04427 0.01277
 N376 N 0.55652 -0.03815 0.03282
 C377 C 0.57381 -0.02826 0.03767
 C378 C 0.58740 -0.02828 0.01966
 C379 C 0.57706 -0.03861 0.00418
 H380 H 0.57636 -0.02179 0.05322
 H381 H 0.58252 -0.04174 -0.01218
 N382 N 0.50561 -0.05170 0.06666
 N383 N 0.49221 -0.06437 0.05863
 C384 C 0.47611 -0.06682 0.07293
 C385 C 0.47946 -0.05515 0.09094
 C386 C 0.49835 -0.04574 0.08634
 H387 H 0.46288 -0.07635 0.07033
 H388 H 0.50636 -0.03548 0.09661
 H389 H 0.51145 -0.04905 0.02762
 H390 H 0.52690 -0.07122 0.03551
 N391 N 1.01956 0.43313 0.53170
 N392 N 1.03465 0.43789 0.51766
 C393 C 1.03562 0.42378 0.50192
 C394 C 1.02025 0.40927 0.50626
 C395 C 1.01034 0.41581 0.52533
 H396 H 1.04712 0.42381 0.48870
 H397 H 0.99761 0.40838 0.53420
 Cu398 Cu 1.05246 0.46135 0.52171
 Cu399 Cu 1.01380 0.44911 0.55775
 Cu400 Cu 1.04975 0.48638 0.56884
 N401 N 1.07445 0.47930 0.52995
 N402 N 1.07333 0.48908 0.54838
 C403 C 1.09073 0.49995 0.55026
 C404 C 1.10354 0.49677 0.53203
 C405 C 1.09261 0.48355 0.51948
 H406 H 1.09395 0.50906 0.56414
 H407 H 1.09749 0.47730 0.50398
 N408 N 1.02478 0.48120 0.58742
 N409 N 1.01105 0.46703 0.58321
 C410 C 0.99608 0.46696 0.59905
 C411 C 1.00060 0.48182 0.61399
 C412 C 1.01893 0.49053 0.60600
 H413 H 0.98290 0.45679 0.59965
 H414 H 1.02762 0.50251 0.61336
 H415 H 1.02811 0.47629 0.54831
 H416 H 1.04438 0.45642 0.55971
 C417 C 0.34038 -0.03374 0.25204
 C418 C 0.35057 -0.01476 0.25171
 C419 C 0.33960 0.00315 0.24947
 C420 C 0.31838 0.00227 0.24758
 C421 C 0.30824 -0.01683 0.24820
 C422 C 0.31910 -0.03497 0.25040
 C423 C 0.37283 -0.01360 0.25328
 C424 C 0.38592 -0.01600 0.23485
 C425 C 0.40721 -0.01435 0.23598
 C426 C 0.41522 -0.01053 0.25590
 C427 C 0.40223 -0.00816 0.27453
 C428 C 0.38096 -0.00960 0.27304
 H429 H 0.34912 -0.04752 0.25338
 H430 H 0.34763 0.01777 0.24929
 H431 H 0.37944 -0.01866 0.21958
 H432 H 0.37070 -0.00784 0.28724
 H433 H 0.29184 -0.01757 0.24693
 H434 H 0.43164 -0.00926 0.25690
 C435 C 0.13012 -0.00291 0.72372
 C436 C 0.11923 0.01523 0.72651
 C437 C 0.12974 0.03409 0.72598
 C438 C 0.15119 0.03482 0.72269
 C439 C 0.16193 0.01646 0.71997
 C440 C 0.15149 -0.00244 0.72041
 C441 C 0.09681 0.01411 0.73004
 C442 C 0.08791 0.00759 0.74985
 C443 C 0.06667 0.00432 0.75285
 C444 C 0.05447 0.00754 0.73560
 C445 C 0.06322 0.01395 0.71560
 C446 C 0.08447 0.01744 0.71303
 H447 H 0.12190 -0.01743 0.72429
 H448 H 0.12124 0.04810 0.72804
 H449 H 0.09763 0.00498 0.76286
 H450 H 0.09154 0.02181 0.69755
 H451 H 0.17845 0.01688 0.71749
 H452 H 0.03813 0.00468 0.73761
 C453 C 0.66179 0.49523 0.24790
 C454 C 0.65233 0.51381 0.25293
 C455 C 0.66413 0.53183 0.25351
 C456 C 0.68546 0.53136 0.24929
 C457 C 0.69476 0.51258 0.24403
 C458 C 0.68300 0.49447 0.24309
 C459 C 0.62995 0.51429 0.25691
 C460 C 0.62051 0.50500 0.27517
 C461 C 0.59913 0.50475 0.27869
 C462 C 0.58721 0.51340 0.26334
 C463 C 0.59652 0.52237 0.24471
 C464 C 0.61798 0.52305 0.24184
 H465 H 0.65252 0.48137 0.24751
 H466 H 0.65663 0.54620 0.25712
 H467 H 0.62989 0.49832 0.28681
 H468 H 0.62541 0.52958 0.22741
 H469 H 0.71115 0.51208 0.24051
 H470 H 0.57069 0.51298 0.26582
 C471 C 0.84021 0.46751 0.77988
 C472 C 0.85013 0.48618 0.77522
 C473 C 0.83868 0.50367 0.77239
 C474 C 0.81720 0.50261 0.77392
 C475 C 0.80736 0.48376 0.77865
 C476 C 0.81875 0.46615 0.78179
 C477 C 0.87255 0.48740 0.77297
 C478 C 0.88290 0.48203 0.75350
 C479 C 0.90430 0.48367 0.75095
 C480 C 0.91524 0.49039 0.76830
 C481 C 0.90500 0.49564 0.78798
 C482 C 0.88355 0.49425 0.79013
 H483 H 0.84924 0.45402 0.78185
 H484 H 0.84658 0.51809 0.76907
 H485 H 0.87422 0.47709 0.74021
 H486 H 0.87539 0.49818 0.80519
 H487 H 0.79081 0.48277 0.77993
 H488 H 0.93177 0.49164 0.76643
 C489 C 0.26089 0.37455 -0.02493
 C490 C 0.25762 0.38277 -0.00425
 C491 C 0.25231 0.36988 0.01302
 C492 C 0.25023 0.34872 0.00989
 C493 C 0.25363 0.34058 -0.01084
 C494 C 0.25890 0.35336 -0.02840
 C495 C 0.26013 0.40484 -0.00037
 C496 C 0.24385 0.41803 -0.00280
 C497 C 0.24572 0.43890 0.00234
 C498 C 0.26426 0.44642 0.00960
 C499 C 0.28070 0.43332 0.01201
 C500 C 0.27843 0.41247 0.00712
 H501 H 0.26485 0.38466 -0.03825
 H502 H 0.25005 0.37635 0.02899
 H503 H 0.22955 0.41188 -0.00803
 H504 H 0.29095 0.40216 0.00897
 H505 H 0.25217 0.32423 -0.01330
 H506 H 0.26587 0.46250 0.01350
 C507 C 0.72450 0.12717 0.00677
 C508 C 0.73287 0.11730 0.02384
 C509 C 0.74088 0.12880 0.04037
 C510 C 0.74048 0.15025 0.04003
 C511 C 0.73226 0.15998 0.02269
 C512 C 0.72439 0.14857 0.00591
 C513 C 0.73384 0.09488 0.02388
 C514 C 0.75207 0.08524 0.01712
 C515 C 0.75279 0.06384 0.01534
 C516 C 0.73504 0.05218 0.02103
 C517 C 0.71672 0.06176 0.02810
 C518 C 0.71627 0.08317 0.02938
 H519 H 0.71877 0.11814 -0.00619
 H520 H 0.74718 0.12100 0.05357
 H521 H 0.76558 0.09451 0.01287
 H522 H 0.70211 0.09081 0.03412
 H523 H 0.73225 0.17651 0.02207
 H524 H 0.73534 0.03569 0.01954
 C525 C 0.26855 0.63746 0.50185
 C526 C 0.26683 0.62770 0.52172
 C527 C 0.26806 0.63916 0.54057
 C528 C 0.27113 0.66042 0.53972
 C529 C 0.27254 0.67012 0.51970
 C530 C 0.27114 0.65878 0.50067
 C531 C 0.26342 0.60548 0.52281
 C532 C 0.27944 0.59225 0.51700
 C533 C 0.27641 0.57095 0.51822
 C534 C 0.25685 0.56320 0.52479
 C535 C 0.24051 0.57637 0.52994
 C536 C 0.24404 0.59756 0.52930
 H537 H 0.26770 0.62840 0.48737
 H538 H 0.26652 0.63147 0.55588
 H539 H 0.29419 0.59865 0.51146
 H540 H 0.23160 0.60794 0.53314
 H541 H 0.27461 0.68655 0.51897
 H542 H 0.25430 0.54687 0.52623
 C543 C 0.74632 0.86798 0.49407
 C544 C 0.74604 0.87890 0.51346
 C545 C 0.74373 0.86844 0.53294
 C546 C 0.74154 0.84707 0.53323
 C547 C 0.74178 0.83630 0.51371
 C548 C 0.74421 0.84659 0.49406
 C549 C 0.74766 0.90135 0.51348
 C550 C 0.73039 0.91295 0.51031
 C551 C 0.73146 0.93439 0.51112
 C552 C 0.75023 0.94408 0.51480
 C553 C 0.76775 0.93259 0.51780
 C554 C 0.76624 0.91114 0.51731
 H555 H 0.74796 0.87617 0.47905
 H556 H 0.74367 0.87699 0.54784
 H557 H 0.71598 0.90521 0.50781
 H558 H 0.77957 0.90202 0.51953
 H559 H 0.74004 0.81982 0.51379
 H560 H 0.75119 0.96060 0.51535
 C561 C -0.00135 0.27748 0.33264
 C562 C 0.01689 0.27144 0.34093
 C563 C 0.03345 0.26563 0.32704
 C564 C 0.03197 0.26597 0.30476
 C565 C 0.01346 0.27173 0.29662
 C566 C -0.00328 0.27748 0.31045
 C567 C 0.01873 0.27152 0.36419
 C568 C 0.01823 0.25309 0.37543
 C569 C 0.01969 0.25310 0.39770
 C570 C 0.02202 0.27180 0.40853
 C571 C 0.02262 0.29037 0.39738
 C572 C 0.02082 0.29008 0.37516
 H573 H -0.01415 0.28177 0.34353
 H574 H 0.04765 0.26147 0.33364
 H575 H 0.01663 0.23879 0.36681
 H576 H 0.02094 0.30426 0.36634
 H577 H 0.01210 0.27188 0.27947
 H578 H 0.02327 0.27189 0.42569
 C579 C 0.00024 0.75846 0.15151
 C580 C 0.01820 0.75773 0.13805
 C581 C 0.03726 0.75879 0.14691
 C582 C 0.03849 0.76081 0.16915
 C583 C 0.02034 0.76126 0.18249
 C584 C 0.00112 0.75996 0.17382
 C585 C 0.01695 0.75604 0.11466
 C586 C 0.00648 0.77079 0.10381
 C587 C 0.00477 0.76926 0.08162
 C588 C 0.01339 0.75244 0.07044
 C589 C 0.02369 0.73733 0.08118
 C590 C 0.02570 0.73946 0.10330
 H591 H -0.01445 0.75780 0.14453
 H592 H 0.05111 0.75816 0.13644
 H593 H 0.00006 0.78373 0.11266
 H594 H 0.03330 0.72781 0.11188
 H595 H 0.02119 0.76260 0.19966
 H596 H 0.01188 0.75098 0.05337
 C597 C 0.48264 0.24546 0.65064
 C598 C 0.50193 0.24498 0.63950
 C599 C 0.51960 0.24766 0.65061
 C600 C 0.51824 0.25084 0.67285
 C601 C 0.49888 0.25096 0.68395
 C602 C 0.48092 0.24844 0.67299
 C603 C 0.50387 0.24221 0.61610
 C604 C 0.50269 0.25911 0.60269
 C605 C 0.50600 0.25695 0.58038
 C606 C 0.51036 0.23752 0.57168
 C607 C 0.51144 0.22037 0.58495
 C608 C 0.50825 0.22293 0.60724
 H609 H 0.46904 0.24384 0.64180
 H610 H 0.53444 0.24734 0.64186
 H611 H 0.49979 0.27404 0.60975
 H612 H 0.50903 0.20995 0.61777
 H613 H 0.49782 0.25330 0.70113
 H614 H 0.51297 0.23576 0.55450
 C615 C 0.47294 0.74271 0.83275
 C616 C 0.49023 0.73775 0.84354
 C617 C 0.50916 0.73549 0.83203
 C618 C 0.51101 0.73849 0.80980
 C619 C 0.49351 0.74310 0.79912
 C620 C 0.47438 0.74510 0.81043
 C621 C 0.48876 0.73599 0.86702
 C622 C 0.49158 0.71716 0.87680
 C623 C 0.49021 0.71555 0.89926
 C624 C 0.48664 0.73328 0.91172
 C625 C 0.48429 0.75232 0.90205
 C626 C 0.48496 0.75342 0.87964
 H627 H 0.45832 0.74430 0.84174
 H628 H 0.52256 0.73219 0.84055
 H629 H 0.49476 0.70381 0.86687
 H630 H 0.48282 0.76791 0.87190
 H631 H 0.49480 0.74524 0.78193
 H632 H 0.48578 0.73231 0.92901
 C633 C 0.13313 0.22901 0.24103
 C634 C 0.11535 0.23274 0.25414
 C635 C 0.11056 0.22048 0.27233
 C636 C 0.12359 0.20460 0.27698
 C637 C 0.14129 0.20100 0.26386
 C638 C 0.14633 0.21319 0.24579
 C639 C 0.09294 0.22436 0.28562
 C640 C 0.08009 0.24044 0.28101
 C641 C 0.08483 0.25262 0.26273
 C642 C 0.10240 0.24868 0.24940
 C643 C 0.07199 0.26869 0.25817
 C644 C 0.05474 0.27283 0.27171
 C645 C 0.04993 0.26096 0.29004
 C646 C 0.06266 0.24467 0.29450
 H647 H 0.13673 0.23869 0.22731
 H648 H 0.12013 0.19500 0.29082
 H649 H 0.15094 0.18859 0.26793
 H650 H 0.08931 0.21499 0.29963
 H651 H 0.10605 0.25809 0.23543
 H652 H 0.07542 0.27819 0.24425
 H653 H 0.04536 0.28564 0.26807
 H654 H 0.05898 0.23525 0.30845
 C655 C 0.62103 0.71709 0.75526
 C656 C 0.60202 0.71836 0.76692
 C657 C 0.59619 0.70338 0.78241
 C658 C 0.60946 0.68741 0.78597
 C659 C 0.62828 0.68618 0.77422
 C660 C 0.63426 0.70094 0.75873
 C661 C 0.57718 0.70455 0.79403
 C662 C 0.56383 0.72043 0.79026
 C663 C 0.56962 0.73538 0.77471
 C664 C 0.58869 0.73429 0.76319
 C665 C 0.55619 0.75116 0.77088
 C666 C 0.53717 0.75210 0.78228
 C667 C 0.53124 0.73733 0.79776
 C668 C 0.54472 0.72155 0.80172
 H669 H 0.62531 0.72848 0.74325
 H670 H 0.60527 0.67583 0.79782
 H671 H 0.63820 0.67370 0.77746
 H672 H 0.57273 0.69305 0.80591
 H673 H 0.59311 0.74576 0.75127
 H674 H 0.56039 0.76277 0.75907
 H675 H 0.52715 0.76456 0.77917
 H676 H 0.54019 0.70998 0.81348
 C677 C 0.37374 0.78184 0.76058
 C678 C 0.39068 0.77738 0.77213
 C679 C 0.39380 0.78797 0.79142
 C680 C 0.37986 0.80290 0.79878
 C681 C 0.36302 0.80730 0.78712
 C682 C 0.35975 0.79680 0.76793
 C683 C 0.41080 0.78351 0.80296
 C684 C 0.42475 0.76866 0.79535
 C685 C 0.42159 0.75814 0.77599
 C686 C 0.40458 0.76253 0.76456
 C687 C 0.43557 0.74342 0.76831
 C688 C 0.45262 0.73920 0.77959
 C689 C 0.45601 0.74956 0.79881
 C690 C 0.44191 0.76423 0.80668
 H691 H 0.37169 0.77377 0.74570
 H692 H 0.38198 0.81118 0.81354
 H693 H 0.35248 0.81880 0.79328
 H694 H 0.41321 0.79164 0.81777
 H695 H 0.40219 0.75443 0.74972
 H696 H 0.43334 0.73519 0.75354
 H697 H 0.46312 0.72767 0.77337
 H698 H 0.44451 0.77245 0.82138
 C699 C -0.10569 0.29302 0.25316
 C700 C -0.08702 0.28779 0.26121
 C701 C -0.07651 0.27046 0.25300
 C702 C -0.08488 0.25863 0.23696
 C703 C -0.10352 0.26384 0.22910
 C704 C -0.11426 0.28112 0.23701
 C705 C -0.05784 0.26520 0.26098
 C706 C -0.04958 0.27699 0.27718
 C707 C -0.06014 0.29429 0.28550
 C708 C -0.07875 0.29961 0.27742
 C709 C -0.05192 0.30592 0.30185
 C710 C -0.03344 0.30046 0.30993
 C711 C -0.02280 0.28334 0.30174
 C712 C -0.03098 0.27169 0.28530
 H713 H -0.11346 0.30633 0.25976
 H714 H -0.07703 0.24528 0.23049
 H715 H -0.10929 0.25421 0.21670
 H716 H -0.04978 0.25189 0.25463
 H717 H -0.08682 0.31289 0.28380
 H718 H -0.05979 0.31923 0.30840
 H719 H -0.02733 0.30976 0.32246
 H720 H -0.02302 0.25829 0.27909
 C721 C -0.10622 0.74479 0.23821
 C722 C -0.08828 0.74544 0.22459
 C723 C -0.08642 0.73229 0.20656
 C724 C -0.10253 0.71884 0.20240
 C725 C -0.12030 0.71828 0.21601
 C726 C -0.12237 0.73115 0.23412
 C727 C -0.06848 0.73274 0.19301
 C728 C -0.05232 0.74617 0.19724
 C729 C -0.05417 0.75938 0.21522
 C730 C -0.07214 0.75895 0.22877
 C731 C -0.03795 0.77276 0.21937
 C732 C -0.02004 0.77301 0.20590
 C733 C -0.01800 0.75989 0.18802
 C734 C -0.03429 0.74650 0.18381
 H735 H -0.10741 0.75477 0.25209
 H736 H -0.10139 0.70870 0.18862
 H737 H -0.13244 0.70775 0.21219
 H738 H -0.06708 0.72260 0.17921
 H739 H -0.07352 0.76906 0.24259
 H740 H -0.03911 0.78305 0.23303
 H741 H -0.00783 0.78363 0.20936
 H742 H -0.03281 0.73609 0.17026
 C743 C 0.36808 0.23795 0.72649
 C744 C 0.38717 0.23759 0.71478
 C745 C 0.39042 0.22361 0.69763
 C746 C 0.37452 0.21038 0.69235
 C747 C 0.35556 0.21090 0.70392
 C748 C 0.35196 0.22462 0.72124
 C749 C 0.40949 0.22306 0.68600
 C750 C 0.42538 0.23645 0.69121
 C751 C 0.42208 0.25059 0.70823
 C752 C 0.40304 0.25104 0.71993
 C753 C 0.43793 0.26404 0.71330
 C754 C 0.45690 0.26342 0.70173
 C755 C 0.46050 0.24927 0.68491
 C756 C 0.44453 0.23586 0.67970
 H757 H 0.36593 0.24879 0.73955
 H758 H 0.37674 0.19957 0.67924
 H759 H 0.34388 0.20028 0.69918
 H760 H 0.41195 0.21224 0.67290
 H761 H 0.40059 0.26186 0.73304
 H762 H 0.43565 0.27507 0.72620
 H763 H 0.46875 0.27420 0.70585
 H764 H 0.44711 0.22473 0.66693
 C765 C 0.61084 0.26226 0.74698
 C766 C 0.59324 0.25786 0.73614
 C767 C 0.57842 0.24384 0.74492
 C768 C 0.58162 0.23429 0.76434
 C769 C 0.59926 0.23867 0.77503
 C770 C 0.61411 0.25283 0.76663
 C771 C 0.56067 0.23964 0.73418
 C772 C 0.55764 0.24925 0.71469
 C773 C 0.57264 0.26311 0.70583
 C774 C 0.59029 0.26735 0.71661
 C775 C 0.56974 0.27258 0.68630
 C776 C 0.55212 0.26843 0.67562
 C777 C 0.53702 0.25480 0.68428
 C778 C 0.53988 0.24524 0.70388
 H779 H 0.62192 0.27303 0.73982
 H780 H 0.57044 0.22345 0.77131
 H781 H 0.60098 0.23100 0.79001
 H782 H 0.54924 0.22893 0.74097
 H783 H 0.60172 0.27806 0.70981
 H784 H 0.58108 0.28326 0.67932
 H785 H 0.55014 0.27616 0.66069
 H786 H 0.52839 0.23456 0.71058
 C787 C 0.13786 0.76089 0.23429
 C788 C 0.11913 0.75859 0.22475
 C789 C 0.10372 0.74550 0.23418
 C790 C 0.10730 0.73486 0.25283
 C791 C 0.12595 0.73716 0.26214
 C792 C 0.14141 0.75020 0.25305
 C793 C 0.08493 0.74327 0.22490
 C794 C 0.08132 0.75394 0.20626
 C795 C 0.09675 0.76690 0.19666
 C796 C 0.11557 0.76915 0.20597
 C797 C 0.09306 0.77744 0.17794
 C798 C 0.07420 0.77530 0.16891
 C799 C 0.05869 0.76261 0.17845
 C800 C 0.06243 0.75189 0.19710
 H801 H 0.14968 0.77085 0.22698
 H802 H 0.09564 0.72479 0.26028
 H803 H 0.12806 0.72889 0.27669
 H804 H 0.07311 0.73329 0.23223
 H805 H 0.12738 0.77915 0.19865
 H806 H 0.10469 0.78744 0.17035
 H807 H 0.07161 0.78387 0.15465
 H808 H 0.05068 0.74184 0.20441
 C809 C 0.27048 0.10775 0.21871
 C810 C 0.28148 0.08993 0.22172
 C811 C 0.30054 0.08710 0.21021
 C812 C 0.30822 0.10212 0.19586
 C813 C 0.29715 0.11982 0.19294
 C814 C 0.27820 0.12287 0.20433
 C815 C 0.31159 0.06930 0.21320
 C816 C 0.30378 0.05428 0.22754
 C817 C 0.28469 0.05710 0.23901
 C818 C 0.27368 0.07491 0.23605
 C819 C 0.27689 0.04201 0.25323
 C820 C 0.28786 0.02424 0.25605
 C821 C 0.30686 0.02125 0.24474
 C822 C 0.31474 0.03641 0.23051
 H823 H 0.25581 0.10968 0.22747
 H824 H 0.32282 0.10022 0.18692
 H825 H 0.30362 0.13119 0.18188
 H826 H 0.32622 0.06713 0.20436
 H827 H 0.25903 0.07706 0.24486
 H828 H 0.26231 0.04394 0.26219
 H829 H 0.28159 0.01289 0.26726
 H830 H 0.32925 0.03414 0.22150
 C831 C 0.76532 0.60462 0.74042
 C832 C 0.77691 0.58734 0.74405
 C833 C 0.79504 0.58372 0.73113
 C834 C 0.80136 0.59759 0.71496
 C835 C 0.78974 0.61480 0.71148
 C836 C 0.77155 0.61843 0.72406
 C837 C 0.80651 0.56630 0.73455
 C838 C 0.80011 0.55249 0.75078
 C839 C 0.78206 0.55621 0.76380
 C840 C 0.77057 0.57360 0.76035
 C841 C 0.77577 0.54243 0.78006
 C842 C 0.78721 0.52507 0.78337
 C843 C 0.80512 0.52113 0.77045
 C844 C 0.81145 0.53498 0.75414
 H845 H 0.75151 0.60732 0.75046
 H846 H 0.81522 0.59507 0.70492
 H847 H 0.79488 0.62506 0.69869
 H848 H 0.82039 0.56349 0.72459
 H849 H 0.75668 0.57639 0.77030
 H850 H 0.76203 0.54509 0.79025
 H851 H 0.78216 0.51484 0.79624
 H852 H 0.82507 0.53198 0.74387
 C853 C 0.75154 0.36541 0.79857
 C854 C 0.76148 0.38394 0.79304
 C855 C 0.75408 0.39614 0.77682
 C856 C 0.73689 0.38949 0.76635
 C857 C 0.72706 0.37098 0.77197
 C858 C 0.73421 0.35879 0.78819
 C859 C 0.76396 0.41475 0.77137
 C860 C 0.78115 0.42129 0.78196
 C861 C 0.78857 0.40899 0.79811
 C862 C 0.77870 0.39041 0.80354
 C863 C 0.80577 0.41548 0.80862
 C864 C 0.81554 0.43401 0.80323
 C865 C 0.80831 0.44642 0.78726
 C866 C 0.79106 0.43993 0.77666
 H867 H 0.75748 0.35614 0.81089
 H868 H 0.73100 0.39864 0.75388
 H869 H 0.71371 0.36639 0.76375
 H870 H 0.75826 0.42415 0.75896
 H871 H 0.78439 0.38102 0.81597
 H872 H 0.81162 0.40626 0.82106
 H873 H 0.82864 0.43880 0.81179
 H874 H 0.78551 0.44927 0.76413
 C875 C 0.26966 -0.14484 0.27117
 C876 C 0.28086 -0.12636 0.26929
 C877 C 0.29730 -0.12267 0.28236
 C878 C 0.30247 -0.13760 0.29681
 C879 C 0.29132 -0.15592 0.29860
 C880 C 0.27457 -0.15982 0.28602
 C881 C 0.30822 -0.10407 0.28092
 C882 C 0.30292 -0.08905 0.26653
 C883 C 0.28666 -0.09281 0.25323
 C884 C 0.27574 -0.11144 0.25467
 C885 C 0.28149 -0.07779 0.23882
 C886 C 0.29216 -0.05912 0.23775
 C887 C 0.30819 -0.05508 0.25111
 C888 C 0.31354 -0.07025 0.26540
 H889 H 0.25707 -0.14730 0.26108
 H890 H 0.31509 -0.13505 0.30689
 H891 H 0.29589 -0.16683 0.31014
 H892 H 0.32074 -0.10123 0.29108
 H893 H 0.26317 -0.11425 0.24456
 H894 H 0.26915 -0.08044 0.22840
 H895 H 0.28794 -0.04787 0.22633
 H896 H 0.32568 -0.06726 0.27599
 C897 C 0.22218 -0.09914 0.71726
 C898 C 0.21166 -0.08075 0.72015
 C899 C 0.21836 -0.06593 0.73473
 C900 C 0.23539 -0.06988 0.74633
 C901 C 0.24575 -0.08830 0.74346
 C902 C 0.23942 -0.10321 0.72880
 C903 C 0.20794 -0.04744 0.73748
 C904 C 0.19079 -0.04368 0.72592
 C905 C 0.18397 -0.05865 0.71148
 C906 C 0.19449 -0.07703 0.70864
 C907 C 0.16669 -0.05501 0.70015
 C908 C 0.15617 -0.03674 0.70312
 C909 C 0.16284 -0.02172 0.71731
 C910 C 0.18024 -0.02525 0.72863
 H911 H 0.21665 -0.11020 0.70601
 H912 H 0.24072 -0.05871 0.75763
 H913 H 0.25885 -0.09059 0.75271
 H914 H 0.21313 -0.03603 0.74864
 H915 H 0.18928 -0.08845 0.69750
 H916 H 0.16128 -0.06631 0.68902
 H917 H 0.14291 -0.03423 0.69412
 H918 H 0.18533 -0.01381 0.73978
 C919 C 0.74631 0.39391 0.22030
 C920 C 0.73760 0.41272 0.22623
 C921 C 0.74746 0.42587 0.24044
 C922 C 0.76591 0.41996 0.24843
 C923 C 0.77450 0.40120 0.24244
 C924 C 0.76482 0.38792 0.22834
 C925 C 0.73872 0.44465 0.24646
 C926 C 0.72021 0.45045 0.23843
 C927 C 0.71038 0.43727 0.22418
 C928 C 0.71913 0.41853 0.21816
 C929 C 0.69189 0.44304 0.21620
 C930 C 0.68312 0.46163 0.22233
 C931 C 0.69264 0.47484 0.23658
 C932 C 0.71129 0.46916 0.24450
 H933 H 0.73850 0.38398 0.20950
 H934 H 0.77372 0.42984 0.25932
 H935 H 0.78877 0.39722 0.24891
 H936 H 0.74629 0.45472 0.25739
 H937 H 0.71155 0.40845 0.20725
 H938 H 0.68421 0.43317 0.20519
 H939 H 0.66893 0.46579 0.21573
 H940 H 0.71867 0.47914 0.25565
 C941 C 0.74345 0.63573 0.27129
 C942 C 0.73106 0.61811 0.26999
 C943 C 0.71499 0.61448 0.28578
 C944 C 0.71156 0.62860 0.30253
 C945 C 0.72400 0.64607 0.30375
 C946 C 0.74015 0.64985 0.28823
 C947 C 0.70269 0.59679 0.28462
 C948 C 0.70631 0.58262 0.26790
 C949 C 0.72237 0.58629 0.25208
 C950 C 0.73460 0.60402 0.25319
 C951 C 0.72601 0.57209 0.23544
 C952 C 0.71397 0.55434 0.23452
 C953 C 0.69801 0.55044 0.25019
 C954 C 0.69423 0.56475 0.26682
 H955 H 0.75566 0.63830 0.25905
 H956 H 0.69930 0.62607 0.31478
 H957 H 0.72097 0.65649 0.31702
 H958 H 0.69039 0.59400 0.29678
 H959 H 0.74693 0.60679 0.24106
 H960 H 0.73820 0.57470 0.22314
 H961 H 0.71701 0.54372 0.22138
 H962 H 0.68212 0.56181 0.27913
 C963 C 0.20863 0.13987 0.74172
 C964 C 0.19575 0.12259 0.74044
 C965 C 0.17967 0.11931 0.75632
 C966 C 0.17664 0.13348 0.77306
 C967 C 0.18957 0.15059 0.77428
 C968 C 0.20581 0.15394 0.75875
 C969 C 0.16708 0.10180 0.75536
 C970 C 0.17052 0.08739 0.73885
 C971 C 0.18652 0.09077 0.72287
 C972 C 0.19892 0.10841 0.72368
 C973 C 0.19011 0.07626 0.70654
 C974 C 0.17833 0.05830 0.70630
 C975 C 0.16260 0.05459 0.72226
 C976 C 0.15854 0.06939 0.73832
 H977 H 0.22087 0.14221 0.72945
 H978 H 0.16439 0.13123 0.78538
 H979 H 0.18693 0.16100 0.78764
 H980 H 0.15483 0.09924 0.76764
 H981 H 0.21125 0.11090 0.71148
 H982 H 0.20224 0.07864 0.69412
 H983 H 0.18156 0.04720 0.69366
 H984 H 0.14656 0.06656 0.75080
 C985 C 0.23506 0.26755 0.10269
 C986 C 0.23988 0.27979 0.08471
 C987 C 0.25581 0.27407 0.06960
 C988 C 0.26664 0.25619 0.07280
 C989 C 0.26183 0.24415 0.09084
 C990 C 0.24601 0.24968 0.10597
 C991 C 0.26072 0.28636 0.05165
 C992 C 0.25001 0.30440 0.04873
 C993 C 0.23413 0.31013 0.06391
 C994 C 0.22911 0.29776 0.08173
 C995 C 0.22359 0.32826 0.06110
 C996 C 0.22882 0.34071 0.04351
 C997 C 0.24458 0.33521 0.02832
 C998 C 0.25505 0.31693 0.03098
 H999 H 0.22299 0.27221 0.11429
 H1000 H 0.27889 0.25155 0.06138
 H1001 H 0.27042 0.23040 0.09282
 H1002 H 0.27295 0.28197 0.04006
 H1003 H 0.21693 0.30218 0.09336
 H1004 H 0.21136 0.33286 0.07256
 H1005 H 0.22041 0.35461 0.04166
 H1006 H 0.26739 0.31269 0.01947
 C1007 C 0.73309 0.77142 0.63147
 C1008 C 0.73727 0.78321 0.61298
 C1009 C 0.75099 0.77591 0.59637
 C1010 C 0.76043 0.75710 0.59860
 C1011 C 0.75619 0.74547 0.61700
 C1012 C 0.74242 0.75240 0.63360
 C1013 C 0.75494 0.78742 0.57772
 C1014 C 0.74524 0.80611 0.57537
 C1015 C 0.73167 0.81356 0.59204
 C1016 C 0.72781 0.80209 0.61078
 C1017 C 0.72203 0.83227 0.58957
 C1018 C 0.72550 0.84332 0.57062
 C1019 C 0.73870 0.83589 0.55380
 C1020 C 0.74872 0.81735 0.55645
 H1021 H 0.72260 0.77713 0.64415
 H1022 H 0.77098 0.75128 0.58601
 H1023 H 0.76353 0.73087 0.61799
 H1024 H 0.76538 0.78173 0.56494
 H1025 H 0.71731 0.80775 0.62352
 H1026 H 0.71158 0.83823 0.60217
 H1027 H 0.71745 0.85746 0.56890
 H1028 H 0.75919 0.81162 0.54373
 C1029 C 0.76747 0.78670 0.38524
 C1030 C 0.76506 0.80012 0.40283
 C1031 C 0.77898 0.81664 0.40480
 C1032 C 0.79488 0.81963 0.38896
 C1033 C 0.79723 0.80618 0.37156
 C1034 C 0.78371 0.78942 0.36955
 C1035 C 0.77698 0.82970 0.42269
 C1036 C 0.76134 0.82631 0.43878
 C1037 C 0.74726 0.80991 0.43665
 C1038 C 0.74913 0.79702 0.41865
 C1039 C 0.73175 0.80643 0.45280
 C1040 C 0.73051 0.81868 0.47117
 C1041 C 0.74467 0.83476 0.47372
 C1042 C 0.75985 0.83873 0.45723
 H1043 H 0.75683 0.77399 0.38410
 H1044 H 0.80565 0.83227 0.39015
 H1045 H 0.80978 0.80896 0.35978
 H1046 H 0.78779 0.84227 0.42427
 H1047 H 0.73841 0.78435 0.41715
 H1048 H 0.72077 0.79401 0.45138
 H1049 H 0.71853 0.81552 0.48352
 H1050 H 0.77093 0.85097 0.45913
 C1051 C 0.26458 0.29119 -0.13768
 C1052 C 0.26073 0.30093 -0.11772
 C1053 C 0.24364 0.29473 -0.10417
 C1054 C 0.23063 0.27909 -0.11080
 C1055 C 0.23449 0.26957 -0.13063
 C1056 C 0.25148 0.27542 -0.14430
 C1057 C 0.23982 0.30415 -0.08415
 C1058 C 0.25286 0.31976 -0.07742
 C1059 C 0.26983 0.32620 -0.09099
 C1060 C 0.27368 0.31674 -0.11107
 C1061 C 0.28273 0.34192 -0.08416
 C1062 C 0.27901 0.35097 -0.06397
 C1063 C 0.26235 0.34444 -0.05023
 C1064 C 0.24923 0.32892 -0.05721
 H1065 H 0.27764 0.29599 -0.14807
 H1066 H 0.21749 0.27413 -0.10059
 H1067 H 0.22424 0.25736 -0.13505
 H1068 H 0.22675 0.29926 -0.07376
 H1069 H 0.28676 0.32161 -0.12144
 H1070 H 0.29582 0.34708 -0.09433
 H1071 H 0.28944 0.36278 -0.05891
 H1072 H 0.23614 0.32398 -0.04690
 C1073 C 0.70166 0.21577 -0.09402
 C1074 C 0.70822 0.20549 -0.07613
 C1075 C 0.72664 0.21171 -0.06729
 C1076 C 0.73824 0.22790 -0.07649
 C1077 C 0.73166 0.23798 -0.09422
 C1078 C 0.71329 0.23217 -0.10319
 C1079 C 0.73325 0.20169 -0.04940
 C1080 C 0.72172 0.18545 -0.04016
 C1081 C 0.70334 0.17904 -0.04897
 C1082 C 0.69667 0.18914 -0.06689
 C1083 C 0.69201 0.16262 -0.03969
 C1084 C 0.69882 0.15267 -0.02186
 C1085 C 0.71699 0.15906 -0.01293
 C1086 C 0.72837 0.17547 -0.02224
 H1087 H 0.68745 0.21106 -0.10061
 H1088 H 0.75244 0.23279 -0.06996
 H1089 H 0.74120 0.25030 -0.10089
 H1090 H 0.74738 0.20655 -0.04265
 H1091 H 0.68256 0.18427 -0.07364
 H1092 H 0.67790 0.15747 -0.04621
 H1093 H 0.68976 0.14011 -0.01488
 H1094 H 0.74260 0.18028 -0.01572
 C1095 C 0.25382 0.70770 0.38845
 C1096 C 0.25560 0.69610 0.40697
 C1097 C 0.24278 0.67875 0.41083
 C1098 C 0.22877 0.67303 0.39588
 C1099 C 0.22704 0.68467 0.37752
 C1100 C 0.23928 0.70232 0.37373
 C1101 C 0.24392 0.66760 0.42972
 C1102 C 0.25765 0.67364 0.44489
 C1103 C 0.27078 0.69074 0.44087
 C1104 C 0.26973 0.70183 0.42190
 C1105 C 0.28452 0.69666 0.45607
 C1106 C 0.28493 0.68604 0.47530
 C1107 C 0.27161 0.66930 0.47969
 C1108 C 0.25816 0.66306 0.46423
 H1109 H 0.26344 0.72117 0.38590
 H1110 H 0.21893 0.65968 0.39850
 H1111 H 0.21593 0.67984 0.36645
 H1112 H 0.23390 0.65443 0.43277
 H1113 H 0.27964 0.71509 0.41893
 H1114 H 0.29480 0.70964 0.45319
 H1115 H 0.29569 0.69094 0.48676
 H1116 H 0.24761 0.65037 0.46751
 C1117 C 0.27435 0.73915 0.63590
 C1118 C 0.27127 0.72699 0.61781
 C1119 C 0.25909 0.73423 0.60178
 C1120 C 0.25004 0.75341 0.60425
 C1121 C 0.25325 0.76546 0.62227
 C1122 C 0.26556 0.75857 0.63821
 C1123 C 0.25632 0.72229 0.58348
 C1124 C 0.26568 0.70323 0.58093
 C1125 C 0.27770 0.69590 0.59706
 C1126 C 0.28037 0.70780 0.61542
 C1127 C 0.28703 0.67686 0.59446
 C1128 C 0.28469 0.66527 0.57594
 C1129 C 0.27297 0.67249 0.55968
 C1130 C 0.26336 0.69146 0.56240
 H1131 H 0.28367 0.73342 0.64809
 H1132 H 0.24065 0.75920 0.59213
 H1133 H 0.24632 0.78033 0.62344
 H1134 H 0.24706 0.72791 0.57113
 H1135 H 0.28970 0.70221 0.62773
 H1136 H 0.29630 0.67101 0.60666
 H1137 H 0.29241 0.65080 0.57413
 H1138 H 0.25402 0.69705 0.55012
 C1139 C 0.77354 0.22989 0.12741
 C1140 C 0.76478 0.21723 0.11218
 C1141 C 0.74600 0.22260 0.10409
 C1142 C 0.73626 0.24043 0.11148
 C1143 C 0.74509 0.25296 0.12662
 C1144 C 0.76386 0.24793 0.13473
 C1145 C 0.73733 0.21014 0.08866
 C1146 C 0.74727 0.19242 0.08112
 C1147 C 0.76599 0.18697 0.08931
 C1148 C 0.77460 0.19938 0.10482
 C1149 C 0.77587 0.16926 0.08170
 C1150 C 0.76745 0.15720 0.06591
 C1151 C 0.74897 0.16260 0.05746
 C1152 C 0.73887 0.18018 0.06534
 H1153 H 0.78798 0.22563 0.13334
 H1154 H 0.72183 0.24476 0.10548
 H1155 H 0.73710 0.26660 0.13188
 H1156 H 0.72295 0.21432 0.08240
 H1157 H 0.78901 0.19523 0.11103
 H1158 H 0.79023 0.16486 0.08779
 H1159 H 0.77564 0.14387 0.05995
 H1160 H 0.72445 0.18433 0.05918
 C1161 C 0.48555 0.35776 0.51643
 C1162 C 0.48675 0.34062 0.52971
 C1163 C 0.47224 0.33788 0.54727
 C1164 C 0.45686 0.35220 0.55129
 C1165 C 0.45577 0.36913 0.53809
 C1166 C 0.47003 0.37219 0.52049
 C1167 C 0.47329 0.32089 0.56061
 C1168 C 0.48869 0.30651 0.55668
 C1169 C 0.50324 0.30914 0.53914
 C1170 C 0.50219 0.32618 0.52576
 C1171 C 0.51859 0.29464 0.53532
 C1172 C 0.51949 0.27772 0.54870
 C1173 C 0.50507 0.27496 0.56618
 C1174 C 0.48970 0.28949 0.57004
 H1175 H 0.49666 0.35976 0.50297
 H1176 H 0.44565 0.35034 0.56470
 H1177 H 0.44368 0.37982 0.54195
 H1178 H 0.46212 0.31887 0.57406
 H1179 H 0.51336 0.32820 0.51232
 H1180 H 0.52992 0.29641 0.52201
 H1181 H 0.53165 0.26691 0.54553
 H1182 H 0.47833 0.28741 0.58328
 C1183 C -0.03509 0.85722 0.00992
 C1184 C -0.02606 0.84082 0.01990
 C1185 C -0.00804 0.83215 0.01032
 C1186 C 0.00051 0.83985 -0.00913
 C1187 C -0.00854 0.85614 -0.01894
 C1188 C -0.02636 0.86515 -0.00953
 C1189 C 0.00126 0.81603 0.02039
 C1190 C -0.00720 0.80848 0.04000
 C1191 C -0.02533 0.81700 0.04951
 C1192 C -0.03467 0.83308 0.03939
 C1193 C -0.03371 0.80941 0.06912
 C1194 C -0.02407 0.79374 0.07938
 C1195 C -0.00588 0.78532 0.07022
 C1196 C 0.00236 0.79269 0.05037
 H1197 H -0.04879 0.86385 0.01749
 H1198 H 0.01428 0.83334 -0.01674
 H1199 H -0.00141 0.86161 -0.03393
 H1200 H 0.01515 0.80949 0.01306
 H1201 H -0.04852 0.83968 0.04676
 H1202 H -0.04765 0.81568 0.07660
 H1203 H -0.03090 0.78813 0.09449
 H1204 H 0.01650 0.78650 0.04327
 C1205 C 0.04581 0.63699 0.01242
 C1206 C 0.03943 0.65506 0.02306
 C1207 C 0.02020 0.66329 0.01926
 C1208 C 0.00771 0.65343 0.00502
 C1209 C 0.01410 0.63557 -0.00542
 C1210 C 0.03319 0.62710 -0.00197
 C1211 C 0.01364 0.68121 0.02977
 C1212 C 0.02599 0.69110 0.04416
 C1213 C 0.04523 0.68301 0.04808
 C1214 C 0.05187 0.66505 0.03747
 C1215 C 0.05740 0.69299 0.06268
 C1216 C 0.05051 0.71071 0.07335
 C1217 C 0.03139 0.71884 0.06952
 C1218 C 0.01925 0.70891 0.05482
 H1219 H 0.06058 0.63076 0.01525
 H1220 H -0.00711 0.65950 0.00201
 H1221 H 0.00378 0.62835 -0.01604
 H1222 H -0.00114 0.68742 0.02679
 H1223 H 0.06662 0.65882 0.04048
 H1224 H 0.07220 0.68705 0.06592
 H1225 H 0.06020 0.71815 0.08450
 H1226 H 0.00431 0.71480 0.05203
 C1227 C 0.52561 0.11708 0.51917
 C1228 C 0.52120 0.13622 0.52860
 C1229 C 0.50807 0.14961 0.51870
 C1230 C 0.49970 0.14375 0.49957
 C1231 C 0.50415 0.12476 0.49032
 C1232 C 0.51705 0.11113 0.49999
 C1233 C 0.50350 0.16866 0.52804
 C1234 C 0.51193 0.17460 0.54715
 C1235 C 0.52512 0.16130 0.55708
 C1236 C 0.52965 0.14217 0.54777
 C1237 C 0.53356 0.16741 0.57615
 C1238 C 0.52907 0.18654 0.58524
 C1239 C 0.51599 0.19990 0.57548
 C1240 C 0.50740 0.19370 0.55644
 H1241 H 0.53550 0.10680 0.52694
 H1242 H 0.48969 0.15387 0.49172
 H1243 H 0.49750 0.12090 0.47544
 H1244 H 0.49340 0.17888 0.52040
 H1245 H 0.53974 0.13196 0.55540
 H1246 H 0.54375 0.15746 0.58397
 H1247 H 0.53612 0.19100 0.59975
 H1248 H 0.49702 0.20368 0.54891
 C1249 C -0.00681 0.14872 0.45655
 C1250 C -0.00392 0.16598 0.44349
 C1251 C -0.01720 0.16928 0.42703
 C1252 C -0.03299 0.15512 0.42379
 C1253 C -0.03584 0.13803 0.43695
 C1254 C -0.02292 0.13469 0.45359
 C1255 C -0.01463 0.18677 0.41427
 C1256 C 0.00092 0.20113 0.41792
 C1257 C 0.01428 0.19775 0.43431
 C1258 C 0.01186 0.18015 0.44689
 C1259 C 0.02967 0.21222 0.43805
 C1260 C 0.03159 0.23006 0.42595
 C1261 C 0.01826 0.23369 0.40979
 C1262 C 0.00309 0.21901 0.40570
 H1263 H 0.00348 0.14640 0.46908
 H1264 H -0.04330 0.15739 0.41123
 H1265 H -0.04839 0.12763 0.43418
 H1266 H -0.02490 0.18935 0.40171
 H1267 H 0.02205 0.17763 0.45953
 H1268 H 0.04008 0.20985 0.45049
 H1269 H 0.04354 0.24105 0.42921
 H1270 H -0.00742 0.22179 0.39343
 C1271 C 0.49675 0.61996 0.97451
 C1272 C 0.49893 0.63802 0.96264
 C1273 C 0.50871 0.65528 0.97132
 C1274 C 0.51647 0.65399 0.99160
 C1275 C 0.51394 0.63600 1.00347
 C1276 C 0.50373 0.61889 0.99524
 C1277 C 0.51010 0.67364 0.95982
 C1278 C 0.50139 0.67505 0.94000
 C1279 C 0.49183 0.65767 0.93126
 C1280 C 0.49089 0.63922 0.94250
 C1281 C 0.48287 0.65916 0.91165
 C1282 C 0.48277 0.67785 0.90109
 C1283 C 0.49186 0.69539 0.90976
 C1284 C 0.50155 0.69370 0.92907
 H1285 H 0.48917 0.60691 0.96762
 H1286 H 0.52407 0.66705 0.99849
 H1287 H 0.51959 0.63573 1.01930
 H1288 H 0.51744 0.68696 0.96657
 H1289 H 0.48336 0.62595 0.93586
 H1290 H 0.47545 0.64599 0.90476
 H1291 H 0.47496 0.67869 0.88643
 H1292 H 0.50897 0.70697 0.93578
 C1293 C 0.49232 0.85799 0.96285
 C1294 C 0.49158 0.84109 0.94899
 C1295 C 0.50297 0.84153 0.92899
 C1296 C 0.51450 0.85901 0.92300
 C1297 C 0.51526 0.87571 0.93694
 C1298 C 0.50447 0.87528 0.95713
 C1299 C 0.50300 0.82435 0.91549
 C1300 C 0.49192 0.80666 0.92182
 C1301 C 0.48019 0.80632 0.94162
 C1302 C 0.48001 0.82358 0.95505
 C1303 C 0.46915 0.78857 0.94783
 C1304 C 0.47010 0.77114 0.93479
 C1305 C 0.48210 0.77117 0.91529
 C1306 C 0.49278 0.78913 0.90883
 H1307 H 0.48393 0.85730 0.97834
 H1308 H 0.52320 0.85966 0.90766
 H1309 H 0.52448 0.88889 0.93188
 H1310 H 0.51194 0.82463 0.90026
 H1311 H 0.47121 0.82324 0.97036
 H1312 H 0.45997 0.78807 0.96289
 H1313 H 0.46148 0.75761 0.93998
 H1314 H 0.50233 0.78928 0.89400
 C1315 C 0.02632 0.38703 0.47364
 C1316 C 0.02314 0.36885 0.46223
 C1317 C 0.00948 0.35373 0.47105
 C1318 C -0.00088 0.35715 0.49104
 C1319 C 0.00244 0.37525 0.50234
 C1320 C 0.01617 0.39035 0.49388
 C1321 C 0.00651 0.33541 0.45982
 C1322 C 0.01711 0.33198 0.43992
 C1323 C 0.03067 0.34718 0.43104
 C1324 C 0.03356 0.36553 0.44222
 C1325 C 0.04121 0.34372 0.41114
 C1326 C 0.03848 0.32532 0.40019
 C1327 C 0.02516 0.31003 0.40892
 C1328 C 0.01444 0.31354 0.42880
 H1329 H 0.03679 0.39850 0.46667
 H1330 H -0.01142 0.34573 0.49803
 H1331 H -0.00561 0.37721 0.51786
 H1332 H -0.00392 0.32377 0.46664
 H1333 H 0.04404 0.37714 0.43543
 H1334 H 0.05168 0.35519 0.40412
 H1335 H 0.04707 0.32289 0.38502
 H1336 H 0.00391 0.30197 0.43554
 C1337 C 0.37804 0.50809 0.49793
 C1338 C 0.36195 0.52159 0.50266
 C1339 C 0.36603 0.54096 0.51175
 C1340 C 0.38622 0.54667 0.51545
 C1341 C 0.40222 0.53331 0.51019
 C1342 C 0.39823 0.51390 0.50159
 C1343 C 0.34991 0.55433 0.51685
 C1344 C 0.32983 0.54877 0.51250
 C1345 C 0.32586 0.52963 0.50288
 C1346 C 0.34190 0.51607 0.49823
 C1347 C 0.30590 0.52438 0.49800
 C1348 C 0.28995 0.53791 0.50268
 C1349 C 0.29357 0.55683 0.51270
 C1350 C 0.31366 0.56211 0.51755
 H1351 H 0.37491 0.49325 0.49097
 H1352 H 0.38965 0.56148 0.52230
 H1353 H 0.41769 0.53804 0.51316
 H1354 H 0.35301 0.56911 0.52401
 H1355 H 0.33881 0.50131 0.49103
 H1356 H 0.30262 0.50986 0.49041
 H1357 H 0.27479 0.53357 0.49825
 H1358 H 0.31674 0.57647 0.52553
 C1359 C 0.85034 -0.00109 -0.01966
 C1360 C 0.83246 0.00808 -0.01090
 C1361 C 0.82128 -0.00097 0.00675
 C1362 C 0.82825 -0.01910 0.01531
 C1363 C 0.84609 -0.02820 0.00644
 C1364 C 0.85734 -0.01934 -0.01117
 C1365 C 0.80335 0.00823 0.01549
 C1366 C 0.79648 0.02636 0.00673
 C1367 C 0.80775 0.03535 -0.01095
 C1368 C 0.82564 0.02618 -0.01962
 C1369 C 0.80093 0.05339 -0.01975
 C1370 C 0.78312 0.06253 -0.01115
 C1371 C 0.77176 0.05387 0.00648
 C1372 C 0.77854 0.03568 0.01532
 H1373 H 0.85869 0.00614 -0.03313
 H1374 H 0.81989 -0.02629 0.02885
 H1375 H 0.85094 -0.04221 0.01341
 H1376 H 0.79476 0.00129 0.02905
 H1377 H 0.83423 0.03313 -0.03318
 H1378 H 0.80933 0.06041 -0.03337
 H1379 H 0.77806 0.07629 -0.01853
 H1380 H 0.77000 0.02894 0.02901
 C1381 C 0.61493 -0.00484 0.03228
 C1382 C 0.63442 0.00439 0.02950
 C1383 C 0.64759 -0.00091 0.01156
 C1384 C 0.64115 -0.01549 -0.00314
 C1385 C 0.62171 -0.02450 -0.00034
 C1386 C 0.60831 -0.01918 0.01726
 C1387 C 0.66685 0.00867 0.00839
 C1388 C 0.67302 0.02370 0.02280
 C1389 C 0.65993 0.02887 0.04086
 C1390 C 0.64078 0.01909 0.04418
 C1391 C 0.66606 0.04407 0.05508
 C1392 C 0.68473 0.05442 0.05116
 C1393 C 0.69770 0.04965 0.03307
 C1394 C 0.69187 0.03401 0.01912
 H1395 H 0.60480 -0.00045 0.04586
 H1396 H 0.65108 -0.01980 -0.01692
 H1397 H 0.61725 -0.03568 -0.01202
 H1398 H 0.67687 0.00470 -0.00547
 H1399 H 0.63070 0.02318 0.05795
 H1400 H 0.65627 0.04818 0.06904
 H1401 H 0.68902 0.06630 0.06222
 H1402 H 0.70165 0.03040 0.00497
 C1403 C 0.13215 0.52111 0.53989
 C1404 C 0.15211 0.52883 0.53573
 C1405 C 0.16473 0.52048 0.51875
 C1406 C 0.15715 0.50462 0.50624
 C1407 C 0.13727 0.49701 0.51049
 C1408 C 0.12455 0.50511 0.52737
 C1409 C 0.18469 0.52812 0.51455
 C1410 C 0.19220 0.54405 0.52707
 C1411 C 0.17960 0.55246 0.54403
 C1412 C 0.15963 0.54477 0.54827
 C1413 C 0.18717 0.56848 0.55639
 C1414 C 0.20701 0.57619 0.55193
 C1415 C 0.21964 0.56793 0.53512
 C1416 C 0.21211 0.55180 0.52278
 H1417 H 0.12256 0.52772 0.55282
 H1418 H 0.16663 0.49803 0.49318
 H1419 H 0.13201 0.48461 0.50064
 H1420 H 0.19436 0.52170 0.50152
 H1421 H 0.14996 0.55122 0.56128
 H1422 H 0.17773 0.57509 0.56946
 H1423 H 0.21254 0.58853 0.56173
 H1424 H 0.22162 0.54555 0.50955
 C1425 C 0.14697 0.50068 -0.02133
 C1426 C 0.16472 0.48897 -0.02045
 C1427 C 0.17020 0.47518 -0.03731
 C1428 C 0.15814 0.47356 -0.05486
 C1429 C 0.14051 0.48507 -0.05553
 C1430 C 0.13454 0.49852 -0.03870
 C1431 C 0.18748 0.46299 -0.03626
 C1432 C 0.19934 0.46425 -0.01850
 C1433 C 0.19410 0.47822 -0.00174
 C1434 C 0.17685 0.49052 -0.00284
 C1435 C 0.20611 0.47947 0.01594
 C1436 C 0.22299 0.46685 0.01712
 C1437 C 0.22816 0.45271 0.00069
 C1438 C 0.21628 0.45160 -0.01715
 H1439 H 0.14254 0.51093 -0.00822
 H1440 H 0.16221 0.46319 -0.06799
 H1441 H 0.13151 0.48335 -0.06931
 H1442 H 0.19153 0.45233 -0.04915
 H1443 H 0.17274 0.50110 0.01011
 H1444 H 0.20235 0.49006 0.02894
 H1445 H 0.23178 0.46786 0.03114
 H1446 H 0.22028 0.44093 -0.03003
 C1447 C 0.62735 0.98530 0.48501
 C1448 C 0.64557 0.97460 0.48681
 C1449 C 0.65028 0.95799 0.47287
 C1450 C 0.63684 0.95250 0.45727
 C1451 C 0.61878 0.96317 0.45559
 C1452 C 0.61371 0.97961 0.46948
 C1453 C 0.66826 0.94705 0.47477
 C1454 C 0.68165 0.95246 0.49050
 C1455 C 0.67710 0.96918 0.50434
 C1456 C 0.65909 0.98015 0.50242
 C1457 C 0.69060 0.97457 0.51997
 C1458 C 0.70834 0.96340 0.52200
 C1459 C 0.71291 0.94661 0.50848
 C1460 C 0.69949 0.94131 0.49266
 H1461 H 0.62375 0.99785 0.49591
 H1462 H 0.64025 0.93986 0.44639
 H1463 H 0.60887 0.95846 0.44328
 H1464 H 0.67177 0.93426 0.46411
 H1465 H 0.65556 0.99291 0.51311
 H1466 H 0.68737 0.98733 0.53073
 H1467 H 0.71832 0.96766 0.53446
 H1468 H 0.70299 0.92855 0.48196
 C1469 C 0.86952 0.99936 0.52057
 C1470 C 0.85060 0.98952 0.51787
 C1471 C 0.83787 0.99670 0.50228
 C1472 C 0.84422 1.01351 0.48969
 C1473 C 0.86305 1.02310 0.49237
 C1474 C 0.87595 1.01615 0.50775
 C1475 C 0.81904 0.98694 0.49942
 C1476 C 0.81274 0.96998 0.51187
 C1477 C 0.82542 0.96272 0.52744
 C1478 C 0.84425 0.97257 0.53040
 C1479 C 0.81906 0.94566 0.53974
 C1480 C 0.80035 0.93588 0.53661
 C1481 C 0.78760 0.94301 0.52119
 C1482 C 0.79396 0.96012 0.50888
 H1483 H 0.87932 0.99372 0.53239
 H1484 H 0.83463 1.01924 0.47772
 H1485 H 0.86737 1.03613 0.48245
 H1486 H 0.80932 0.99249 0.48744
 H1487 H 0.85398 0.96699 0.54234
 H1488 H 0.82855 0.93989 0.55178
 H1489 H 0.79571 0.92286 0.54645
 H1490 H 0.78442 0.96557 0.49671
 C1491 C 0.38417 0.48947 0.03769
 C1492 C 0.36527 0.48199 0.03131
 C1493 C 0.35532 0.49236 0.01532
 C1494 C 0.36440 0.50992 0.00597
 C1495 C 0.38328 0.51707 0.01217
 C1496 C 0.39339 0.50694 0.02801
 C1497 C 0.33654 0.48494 0.00877
 C1498 C 0.32764 0.46711 0.01777
 C1499 C 0.33759 0.45661 0.03364
 C1500 C 0.35628 0.46419 0.04042
 C1501 C 0.32873 0.43860 0.04234
 C1502 C 0.31025 0.43103 0.03530
 C1503 C 0.30023 0.44141 0.01958
 C1504 C 0.30901 0.45951 0.01095
 H1505 H 0.39189 0.48146 0.04981
 H1506 H 0.35695 0.51808 -0.00625
 H1507 H 0.38987 0.53071 0.00466
 H1508 H 0.32895 0.49294 -0.00349
 H1509 H 0.36391 0.45614 0.05261
 H1510 H 0.33612 0.43033 0.05451
 H1511 H 0.30366 0.41714 0.04230
 H1512 H 0.30152 0.46747 -0.00139
 C1513 C 0.53963 0.47467 0.38855
 C1514 C 0.54840 0.48245 0.36905
 C1515 C 0.54254 0.50182 0.36197
 C1516 C 0.52825 0.51315 0.37447
 C1517 C 0.51976 0.50543 0.39381
 C1518 C 0.52526 0.48614 0.40111
 C1519 C 0.55104 0.50965 0.34252
 C1520 C 0.56557 0.49851 0.33008
 C1521 C 0.57168 0.47923 0.33717
 C1522 C 0.56296 0.47125 0.35655
 C1523 C 0.58655 0.46836 0.32480
 C1524 C 0.59538 0.47659 0.30573
 C1525 C 0.58933 0.49571 0.29855
 C1526 C 0.57429 0.50651 0.31077
 H1527 H 0.54409 0.45983 0.39399
 H1528 H 0.52358 0.52800 0.36925
 H1529 H 0.50853 0.51456 0.40280
 H1530 H 0.54644 0.52449 0.33714
 H1531 H 0.56760 0.45644 0.36195
 H1532 H 0.59145 0.45358 0.32995
 H1533 H 0.60690 0.46797 0.29649
 H1534 H 0.56975 0.52140 0.30548
 C1535 C 0.00047 -0.02791 0.85797
 C1536 C 0.01014 -0.01973 0.83916
 C1537 C 0.00041 -0.00437 0.82803
 C1538 C -0.01876 0.00258 0.83592
 C1539 C -0.02830 -0.00568 0.85460
 C1540 C -0.01887 -0.02105 0.86584
 C1541 C 0.00992 0.00370 0.80912
 C1542 C 0.02899 -0.00350 0.80111
 C1543 C 0.03876 -0.01882 0.81228
 C1544 C 0.02931 -0.02679 0.83127
 C1545 C 0.05776 -0.02604 0.80415
 C1546 C 0.06690 -0.01837 0.78499
 C1547 C 0.05728 -0.00324 0.77364
 C1548 C 0.03834 0.00424 0.78196
 H1549 H 0.00813 -0.03960 0.86640
 H1550 H -0.02644 0.01433 0.82758
 H1551 H -0.04319 -0.00007 0.86004
 H1552 H 0.00240 0.01545 0.80056
 H1553 H 0.03680 -0.03858 0.83979
 H1554 H 0.06545 -0.03781 0.81247
 H1555 H 0.08133 -0.02462 0.77882
 H1556 H 0.03089 0.01610 0.77353
 C1557 C 0.00437 0.03987 0.61312
 C1558 C 0.01635 0.03808 0.63078
 C1559 C 0.03132 0.05323 0.63463
 C1560 C 0.03396 0.06996 0.62089
 C1561 C 0.02200 0.07165 0.60340
 C1562 C 0.00714 0.05663 0.59920
 C1563 C 0.04345 0.05144 0.65211
 C1564 C 0.04082 0.03466 0.66587
 C1565 C 0.02576 0.01955 0.66212
 C1566 C 0.01365 0.02133 0.64460
 C1567 C 0.02310 0.00286 0.67597
 C1568 C 0.03523 0.00114 0.69335
 C1569 C 0.05028 0.01603 0.69721
 C1570 C 0.05300 0.03277 0.68333
 H1571 H -0.00691 0.02809 0.61016
 H1572 H 0.04529 0.08177 0.62365
 H1573 H 0.02443 0.08488 0.59327
 H1574 H 0.05496 0.06306 0.65499
 H1575 H 0.00216 0.00969 0.64172
 H1576 H 0.01169 -0.00889 0.67333
 H1577 H 0.03304 -0.01206 0.70362
 H1578 H 0.06444 0.04443 0.68627
 C1579 C 0.52674 0.54216 0.14901
 C1580 C 0.53647 0.53668 0.16741
 C1581 C 0.53052 0.51846 0.17827
 C1582 C 0.51480 0.50619 0.17073
 C1583 C 0.50526 0.51169 0.15239
 C1584 C 0.51119 0.52962 0.14118
 C1585 C 0.54056 0.51263 0.19631
 C1586 C 0.55665 0.52469 0.20352
 C1587 C 0.56246 0.54304 0.19281
 C1588 C 0.55225 0.54899 0.17492
 C1589 C 0.57867 0.55495 0.19994
 C1590 C 0.58940 0.54847 0.21714
 C1591 C 0.58401 0.53007 0.22766
 C1592 C 0.56736 0.51841 0.22094
 H1593 H 0.53142 0.55613 0.14080
 H1594 H 0.51004 0.49218 0.17886
 H1595 H 0.49346 0.50161 0.14687
 H1596 H 0.53608 0.49856 0.20451
 H1597 H 0.55684 0.56299 0.16663
 H1598 H 0.58329 0.56910 0.19200
 H1599 H 0.60203 0.55781 0.22216
 H1600 H 0.56324 0.50406 0.22875
 C1601 C 0.46945 -0.03813 0.12616
 C1602 C 0.45656 -0.03643 0.14491
 C1603 C 0.43977 -0.05013 0.14842
 C1604 C 0.43620 -0.06529 0.13316
 C1605 C 0.44910 -0.06689 0.11456
 C1606 C 0.46585 -0.05335 0.11080
 C1607 C 0.42682 -0.04846 0.16710
 C1608 C 0.43043 -0.03324 0.18234
 C1609 C 0.44724 -0.01956 0.17887
 C1610 C 0.46019 -0.02123 0.16018
 C1611 C 0.45081 -0.00441 0.19418
 C1612 C 0.43784 -0.00279 0.21273
 C1613 C 0.42105 -0.01627 0.21633
 C1614 C 0.41746 -0.03150 0.20101
 H1615 H 0.48216 -0.02745 0.12354
 H1616 H 0.42344 -0.07595 0.13561
 H1617 H 0.44594 -0.07891 0.10325
 H1618 H 0.41394 -0.05897 0.16975
 H1619 H 0.47307 -0.01071 0.15752
 H1620 H 0.46359 0.00624 0.19176
 H1621 H 0.44077 0.00924 0.22415
 H1622 H 0.40470 -0.04213 0.20375
 C1623 C 0.97298 0.47388 0.64270
 C1624 C 0.96225 0.47841 0.66229
 C1625 C 0.96742 0.49622 0.67378
 C1626 C 0.98309 0.50926 0.66543
 C1627 C 0.99369 0.50464 0.64595
 C1628 C 0.98887 0.48688 0.63441
 C1629 C 0.95693 0.50069 0.69347
 C1630 C 0.94132 0.48757 0.70185
 C1631 C 0.93601 0.46981 0.69031
 C1632 C 0.94652 0.46534 0.67061
 C1633 C 0.92028 0.45683 0.69872
 C1634 C 0.90994 0.46134 0.71841
 C1635 C 0.91522 0.47887 0.73006
 C1636 C 0.93092 0.49194 0.72162
 H1637 H 0.96908 0.46006 0.63416
 H1638 H 0.98719 0.52302 0.67399
 H1639 H 1.00564 0.51512 0.63998
 H1640 H 0.96097 0.51434 0.70230
 H1641 H 0.94250 0.45168 0.66180
 H1642 H 0.91600 0.44315 0.69011
 H1643 H 0.89797 0.45099 0.72468
 H1644 H 0.93488 0.50567 0.73033
 C1645 C 0.98092 0.52065 0.87791
 C1646 C 0.96920 0.51358 0.86135
 C1647 C 0.97569 0.49643 0.84898
 C1648 C 0.99370 0.48659 0.85349
 C1649 C 1.00527 0.49372 0.87002
 C1650 C 0.99908 0.51085 0.88235
 C1651 C 0.96414 0.48945 0.83226
 C1652 C 0.94617 0.49941 0.82773
 C1653 C 0.93956 0.51645 0.84021
 C1654 C 0.95112 0.52342 0.85695
 C1655 C 0.92154 0.52629 0.83568
 C1656 C 0.91023 0.51942 0.81882
 C1657 C 0.91676 0.50262 0.80618
 C1658 C 0.93473 0.49262 0.81084
 H1659 H 0.97577 0.53372 0.88739
 H1660 H 0.99891 0.47344 0.84416
 H1661 H 1.01923 0.48592 0.87290
 H1662 H 0.96918 0.47634 0.82272
 H1663 H 0.94609 0.53655 0.86647
 H1664 H 0.91626 0.53938 0.84507
 H1665 H 0.89655 0.52749 0.81541
 H1666 H 0.93973 0.47946 0.80138
 C1667 C 0.46534 0.00595 0.37701
 C1668 C 0.45563 0.00048 0.35844
 C1669 C 0.46376 -0.01526 0.34499
 C1670 C 0.48124 -0.02546 0.35053
 C1671 C 0.49081 -0.01993 0.36903
 C1672 C 0.48312 -0.00405 0.38235
 C1673 C 0.45443 -0.02039 0.32612
 C1674 C 0.43712 -0.00992 0.32047
 C1675 C 0.42877 0.00560 0.33409
 C1676 C 0.43806 0.01067 0.35301
 C1677 C 0.41141 0.01594 0.32841
 C1678 C 0.40258 0.01123 0.30923
 C1679 C 0.41098 -0.00390 0.29539
 C1680 C 0.42815 -0.01457 0.30126
 H1681 H 0.45903 0.01802 0.38723
 H1682 H 0.48765 -0.03759 0.34042
 H1683 H 0.50451 -0.02785 0.37260
 H1684 H 0.46079 -0.03235 0.31571
 H1685 H 0.43176 0.02270 0.36336
 H1686 H 0.40480 0.02786 0.33866
 H1687 H 0.38946 0.01976 0.30497
 H1688 H 0.43455 -0.02647 0.29083
   
