data_POSCAR
  _audit_creation_date              2014-09-24
  _audit_creation_method            'ToBaCCo'
  _symmetry_space_group_name_H-M    'P1'
  _symmetry_Int_Tables_number       1
  _symmetry_cell_setting            triclinic
  loop_
  _symmetry_equiv_pos_as_xyz
 x,y,z
_cell_length_a 116.6294
_cell_length_b 116.8755
_cell_length_c 117.1890
_cell_angle_alpha 89.940200
_cell_angle_beta 89.991200
_cell_angle_gamma 89.969800
loop_
  _atom_site_label
  _atom_site_type_symbol
  _atom_site_fract_x
  _atom_site_fract_y
  _atom_site_fract_z
N1 N 0.35327 0.32117 0.32867
 N2 N 0.35316 0.32944 0.32107
 C3 C 0.36190 0.32787 0.31372
 C4 C 0.36786 0.31809 0.31688
 C5 C 0.36209 0.31409 0.32643
 H6 H 0.36373 0.33341 0.30657
 H7 H 0.36412 0.30659 0.33144
 Cu8 Cu 0.34155 0.34141 0.32142
 Cu9 Cu 0.34197 0.32015 0.34085
 Cu10 Cu 0.32079 0.34094 0.34137
 N11 N 0.32936 0.35279 0.32167
 N12 N 0.32129 0.35257 0.32948
 C13 C 0.31399 0.36129 0.32766
 C14 C 0.31764 0.36736 0.31816
 C15 C 0.32745 0.36168 0.31460
 H16 H 0.30650 0.36300 0.33282
 H17 H 0.33283 0.36386 0.30742
 N18 N 0.32172 0.32849 0.35268
 N19 N 0.32978 0.32058 0.35249
 C20 C 0.32811 0.31335 0.36129
 C21 C 0.31852 0.31685 0.36734
 C22 C 0.31471 0.32650 0.36159
 H23 H 0.33347 0.30603 0.36311
 H24 H 0.30743 0.33177 0.36379
 H25 H 0.32908 0.32844 0.33198
 H26 H 0.33816 0.33740 0.34158
 N27 N 0.35316 0.82079 -0.17167
 N28 N 0.35307 0.82886 -0.17947
 C29 C 0.36194 0.82723 -0.18664
 C30 C 0.36798 0.81757 -0.18318
 C31 C 0.36207 0.81374 -0.17360
 H32 H 0.36378 0.83268 -0.19385
 H33 H 0.36406 0.80641 -0.16834
 Cu34 Cu 0.34125 0.84061 -0.17953
 Cu35 Cu 0.34177 0.82004 -0.15952
 Cu36 Cu 0.32077 0.84108 -0.15939
 N37 N 0.32953 0.85245 -0.17932
 N38 N 0.32149 0.85254 -0.17147
 C39 C 0.31442 0.86144 -0.17337
 C40 C 0.31820 0.86734 -0.18297
 C41 C 0.32786 0.86132 -0.18647
 H42 H 0.30708 0.86339 -0.16810
 H43 H 0.33326 0.86315 -0.19372
 N44 N 0.32153 0.82875 -0.14790
 N45 N 0.32952 0.82075 -0.14796
 C46 C 0.32775 0.81365 -0.13907
 C47 C 0.31818 0.81732 -0.13310
 C48 C 0.31447 0.82693 -0.13898
 H49 H 0.33302 0.80630 -0.13714
 H50 H 0.30723 0.83229 -0.13687
 H51 H 0.32877 0.82815 -0.16837
 H52 H 0.33808 0.83735 -0.15924
 N53 N 0.85263 0.32101 -0.17196
 N54 N 0.85207 0.32887 -0.17996
 C55 C 0.86076 0.32729 -0.18736
 C56 C 0.86714 0.31791 -0.18384
 C57 C 0.86168 0.31416 -0.17401
 H58 H 0.86231 0.33257 -0.19477
 H59 H 0.86413 0.30704 -0.16865
 Cu60 Cu 0.84008 0.34046 -0.17992
 Cu61 Cu 0.84166 0.32025 -0.15947
 Cu62 Cu 0.82063 0.34119 -0.15873
 N63 N 0.82837 0.35231 -0.17918
 N64 N 0.82085 0.35259 -0.17085
 C65 C 0.81382 0.36159 -0.17237
 C66 C 0.81707 0.36735 -0.18224
 C67 C 0.82639 0.36114 -0.18629
 H68 H 0.80684 0.36368 -0.16668
 H69 H 0.83141 0.36288 -0.19384
 N70 N 0.82179 0.32893 -0.14724
 N71 N 0.82978 0.32094 -0.14752
 C72 C 0.82822 0.31379 -0.13863
 C73 C 0.81877 0.31743 -0.13244
 C74 C 0.81494 0.32707 -0.13818
 H75 H 0.83350 0.30640 -0.13688
 H76 H 0.80772 0.33239 -0.13592
 H77 H 0.82826 0.32814 -0.16790
 H78 H 0.83799 0.33756 -0.15942
 N79 N 0.85302 0.82109 0.32865
 N80 N 0.85277 0.82900 0.32069
 C81 C 0.86159 0.82731 0.31347
 C82 C 0.86772 0.81781 0.31708
 C83 C 0.86200 0.81410 0.32677
 H84 H 0.86334 0.83256 0.30608
 H85 H 0.86419 0.80690 0.33213
 Cu86 Cu 0.84088 0.84068 0.32051
 Cu87 Cu 0.84170 0.82041 0.34085
 Cu88 Cu 0.82056 0.84131 0.34084
 N89 N 0.82912 0.85248 0.32072
 N90 N 0.82116 0.85264 0.32864
 C91 C 0.81408 0.86154 0.32674
 C92 C 0.81780 0.86737 0.31707
 C93 C 0.82741 0.86131 0.31352
 H94 H 0.80681 0.86356 0.33207
 H95 H 0.83277 0.86309 0.30623
 N96 N 0.82145 0.82911 0.35246
 N97 N 0.82950 0.82118 0.35246
 C98 C 0.82779 0.81412 0.36140
 C99 C 0.81819 0.81776 0.36734
 C100 C 0.81441 0.82730 0.36139
 H101 H 0.83310 0.80681 0.36336
 H102 H 0.80711 0.83260 0.36345
 H103 H 0.82858 0.82831 0.33198
 H104 H 0.83791 0.83771 0.34089
 N105 N 0.64740 0.68010 0.33012
 N106 N 0.64758 0.67214 0.32221
 C107 C 0.63868 0.67379 0.31507
 C108 C 0.63257 0.68331 0.31869
 C109 C 0.63840 0.68707 0.32829
 H110 H 0.63677 0.66843 0.30782
 H111 H 0.63635 0.69438 0.33354
 Cu112 Cu 0.65949 0.66046 0.32204
 Cu113 Cu 0.65882 0.68089 0.34220
 Cu114 Cu 0.67987 0.65994 0.34233
 N115 N 0.67123 0.64861 0.32235
 N116 N 0.67917 0.64847 0.33031
 C117 C 0.68620 0.63952 0.32853
 C118 C 0.68251 0.63368 0.31892
 C119 C 0.67296 0.63973 0.31524
 H120 H 0.69352 0.63751 0.33381
 H121 H 0.66763 0.63779 0.30796
 N122 N 0.67912 0.67227 0.35377
 N123 N 0.67111 0.68024 0.35372
 C124 C 0.67291 0.68739 0.36254
 C125 C 0.68253 0.68378 0.36847
 C126 C 0.68622 0.67415 0.36263
 H127 H 0.66763 0.69474 0.36444
 H128 H 0.69351 0.66883 0.36471
 H129 H 0.67187 0.67288 0.33333
 H130 H 0.66253 0.66358 0.34237
 N131 N 0.64741 0.17980 -0.16981
 N132 N 0.64742 0.17166 -0.17753
 C133 C 0.63860 0.17339 -0.18475
 C134 C 0.63271 0.18313 -0.18136
 C135 C 0.63860 0.18695 -0.17183
 H136 H 0.63656 0.16790 -0.19188
 H137 H 0.63670 0.19442 -0.16675
 Cu138 Cu 0.65893 0.15959 -0.17735
 Cu139 Cu 0.65877 0.18054 -0.15768
 Cu140 Cu 0.67964 0.15943 -0.15734
 N141 N 0.67095 0.14801 -0.17723
 N142 N 0.67894 0.14795 -0.16934
 C143 C 0.68608 0.13910 -0.17120
 C144 C 0.68243 0.13323 -0.18085
 C145 C 0.67276 0.13921 -0.18442
 H146 H 0.69342 0.13720 -0.16591
 H147 H 0.66739 0.13734 -0.19169
 N148 N 0.67891 0.17180 -0.14594
 N149 N 0.67098 0.17985 -0.14609
 C150 C 0.67279 0.18703 -0.13730
 C151 C 0.68235 0.18336 -0.13129
 C152 C 0.68598 0.17366 -0.13705
 H153 H 0.66758 0.19445 -0.13547
 H154 H 0.69321 0.16830 -0.13490
 H155 H 0.67159 0.17219 -0.16660
 H156 H 0.66234 0.16323 -0.15713
 N157 N 0.14726 0.68005 -0.16967
 N158 N 0.14715 0.67181 -0.17728
 C159 C 0.13828 0.67350 -0.18446
 C160 C 0.13250 0.68334 -0.18116
 C161 C 0.13849 0.68724 -0.17172
 H162 H 0.13617 0.66795 -0.19151
 H163 H 0.13669 0.69481 -0.16674
 Cu164 Cu 0.15861 0.65969 -0.17711
 Cu165 Cu 0.15876 0.68090 -0.15769
 Cu166 Cu 0.17968 0.65986 -0.15746
 N167 N 0.17069 0.64818 -0.17705
 N168 N 0.17886 0.64829 -0.16935
 C169 C 0.18604 0.63949 -0.17128
 C170 C 0.18220 0.63349 -0.18073
 C171 C 0.17241 0.63930 -0.18417
 H172 H 0.19357 0.63768 -0.16621
 H173 H 0.16691 0.63719 -0.19128
 N174 N 0.17906 0.67230 -0.14614
 N175 N 0.17110 0.68031 -0.14624
 C176 C 0.17297 0.68753 -0.13748
 C177 C 0.18258 0.68390 -0.13155
 C178 C 0.18621 0.67421 -0.13732
 H179 H 0.16773 0.69492 -0.13562
 H180 H 0.19346 0.66886 -0.13520
 H181 H 0.17143 0.67246 -0.16676
 H182 H 0.16238 0.66359 -0.15700
 N183 N 0.14753 0.17989 0.33024
 N184 N 0.14772 0.17194 0.32233
 C185 C 0.13884 0.17362 0.31517
 C186 C 0.13274 0.18314 0.31878
 C187 C 0.13855 0.18688 0.32840
 H188 H 0.13693 0.16826 0.30791
 H189 H 0.13650 0.19419 0.33364
 Cu190 Cu 0.15960 0.16023 0.32216
 Cu191 Cu 0.15894 0.18066 0.34233
 Cu192 Cu 0.17993 0.15964 0.34251
 N193 N 0.17131 0.14835 0.32251
 N194 N 0.17921 0.14817 0.33049
 C195 C 0.18621 0.13919 0.32874
 C196 C 0.18253 0.13337 0.31911
 C197 C 0.17302 0.13947 0.31539
 H198 H 0.19350 0.13714 0.33404
 H199 H 0.16771 0.13756 0.30809
 N200 N 0.17920 0.17199 0.35394
 N201 N 0.17122 0.17999 0.35386
 C202 C 0.17304 0.18716 0.36266
 C203 C 0.18264 0.18353 0.36860
 C204 C 0.18631 0.17387 0.36280
 H205 H 0.16779 0.19453 0.36453
 H206 H 0.19358 0.16854 0.36489
 H207 H 0.17199 0.17261 0.33349
 H208 H 0.16260 0.16335 0.34251
 N209 N 0.64697 0.32002 0.67049
 N210 N 0.64715 0.32798 0.67839
 C211 C 0.63828 0.32631 0.68556
 C212 C 0.63219 0.31677 0.68197
 C213 C 0.63800 0.31303 0.67235
 H214 H 0.63636 0.33167 0.69282
 H215 H 0.63596 0.30570 0.66712
 Cu216 Cu 0.65902 0.33969 0.67854
 Cu217 Cu 0.65835 0.31924 0.65837
 Cu218 Cu 0.67931 0.34025 0.65813
 N219 N 0.67071 0.35158 0.67814
 N220 N 0.67860 0.35173 0.67014
 C221 C 0.68560 0.36071 0.67186
 C222 C 0.68193 0.36656 0.68148
 C223 C 0.67243 0.36048 0.68522
 H224 H 0.69289 0.36273 0.66654
 H225 H 0.66712 0.36241 0.69252
 N226 N 0.67857 0.32790 0.64672
 N227 N 0.67060 0.31991 0.64682
 C228 C 0.67240 0.31275 0.63800
 C229 C 0.68198 0.31639 0.63202
 C230 C 0.68565 0.32604 0.63783
 H231 H 0.66714 0.30538 0.63612
 H232 H 0.69290 0.33138 0.63571
 H233 H 0.67140 0.32730 0.66718
 H234 H 0.66198 0.33657 0.65819
 N235 N 0.64659 0.82018 1.16980
 N236 N 0.64645 0.82828 1.17756
 C237 C 0.63762 0.82643 1.18472
 C238 C 0.63187 0.81664 1.18126
 C239 C 0.63785 0.81293 1.17173
 H240 H 0.63549 0.83185 1.19187
 H241 H 0.63607 0.80545 1.16662
 Cu242 Cu 0.65785 0.84043 1.17761
 Cu243 Cu 0.65811 0.81960 1.15780
 Cu244 Cu 0.67894 0.84073 1.15797
 N245 N 0.66983 0.85201 1.17776
 N246 N 0.67803 0.85210 1.17008
 C247 C 0.68515 0.86090 1.17222
 C248 C 0.68123 0.86668 1.18179
 C249 C 0.67146 0.86075 1.18506
 H250 H 0.69261 0.86291 1.16715
 H251 H 0.66600 0.86257 1.19228
 N252 N 0.67839 0.82849 1.14642
 N253 N 0.67046 0.82045 1.14637
 C254 C 0.67238 0.81338 1.13752
 C255 C 0.68200 0.81711 1.13167
 C256 C 0.68558 0.82673 1.13759
 H257 H 0.66719 0.80599 1.13554
 H258 H 0.69283 0.83210 1.13560
 H259 H 0.67075 0.82792 1.16701
 H260 H 0.66166 0.83693 1.15743
 N261 N 0.14680 0.32001 1.17033
 N262 N 0.14705 0.32791 1.17830
 C263 C 0.13818 0.32624 1.18547
 C264 C 0.13203 0.31677 1.18182
 C265 C 0.13780 0.31306 1.17216
 H266 H 0.13632 0.33156 1.19277
 H267 H 0.13570 0.30579 1.16688
 Cu268 Cu 0.15899 0.33954 1.17851
 Cu269 Cu 0.15817 0.31925 1.15820
 Cu270 Cu 0.17926 0.34012 1.15809
 N271 N 0.17074 0.35137 1.17817
 N272 N 0.17863 0.35152 1.17017
 C273 C 0.18567 0.36046 1.17191
 C274 C 0.18203 0.36629 1.18156
 C275 C 0.17251 0.36024 1.18529
 H276 H 0.19294 0.36249 1.16658
 H277 H 0.16721 0.36216 1.19260
 N278 N 0.17844 0.32786 1.14659
 N279 N 0.17041 0.31991 1.14663
 C280 C 0.17217 0.31280 1.13778
 C281 C 0.18179 0.31641 1.13184
 C282 C 0.18552 0.32600 1.13771
 H283 H 0.16689 0.30546 1.13586
 H284 H 0.19281 0.33129 1.13564
 H285 H 0.17127 0.32715 1.16706
 H286 H 0.16190 0.33654 1.15814
 N287 N 0.14670 0.82004 0.66974
 N288 N 0.14683 0.82784 0.67780
 C289 C 0.13796 0.82597 0.68493
 C290 C 0.13194 0.81647 0.68115
 C291 C 0.13778 0.81296 0.67146
 H292 H 0.13602 0.83119 0.69229
 H293 H 0.13578 0.80574 0.66607
 Cu294 Cu 0.15861 0.83962 0.67822
 Cu295 Cu 0.15812 0.81960 0.65764
 Cu296 Cu 0.17894 0.84075 0.65788
 N297 N 0.17020 0.85159 0.67809
 N298 N 0.17812 0.85198 0.67013
 C299 C 0.18505 0.86097 0.67210
 C300 C 0.18128 0.86657 0.68183
 C301 C 0.17181 0.86034 0.68538
 H302 H 0.19226 0.86325 0.66678
 H303 H 0.16654 0.86197 0.69278
 N304 N 0.17831 0.82863 0.64620
 N305 N 0.17038 0.82059 0.64613
 C306 C 0.17226 0.81358 0.63721
 C307 C 0.18185 0.81737 0.63134
 C308 C 0.18545 0.82694 0.63732
 H309 H 0.16708 0.80620 0.63521
 H310 H 0.19270 0.83233 0.63533
 H311 H 0.17110 0.82757 0.66663
 H312 H 0.16164 0.83696 0.65781
 N313 N 0.35275 0.67914 0.67100
 N314 N 0.35263 0.67094 0.67867
 C315 C 0.36138 0.67254 0.68599
 C316 C 0.36734 0.68228 0.68274
 C317 C 0.36157 0.68622 0.67317
 H318 H 0.36322 0.66705 0.69318
 H319 H 0.36365 0.69365 0.66807
 Cu320 Cu 0.34103 0.65898 0.67836
 Cu321 Cu 0.34150 0.68005 0.65877
 Cu322 Cu 0.32039 0.65920 0.65828
 N323 N 0.32891 0.64754 0.67813
 N324 N 0.32088 0.64767 0.67027
 C325 C 0.31363 0.63891 0.67210
 C326 C 0.31727 0.63292 0.68166
 C327 C 0.32701 0.63868 0.68525
 H328 H 0.30619 0.63713 0.66690
 H329 H 0.33237 0.63656 0.69246
 N330 N 0.32134 0.67158 0.64689
 N331 N 0.32938 0.67951 0.64707
 C332 C 0.32772 0.68671 0.63824
 C333 C 0.31816 0.68316 0.63218
 C334 C 0.31436 0.67352 0.63795
 H335 H 0.33304 0.69405 0.63642
 H336 H 0.30709 0.66825 0.63576
 H337 H 0.32856 0.67180 0.66760
 H338 H 0.33774 0.66277 0.65814
 N339 N 0.35281 0.17908 1.17121
 N340 N 0.35243 0.17112 1.17912
 C341 C 0.36114 0.17276 1.18648
 C342 C 0.36733 0.18228 1.18301
 C343 C 0.36175 0.18605 1.17326
 H344 H 0.36281 0.16744 1.19384
 H345 H 0.36404 0.19326 1.16795
 Cu346 Cu 0.34065 0.15934 1.17892
 Cu347 Cu 0.34173 0.17982 1.15878
 Cu348 Cu 0.32072 0.15884 1.15821
 N349 N 0.32878 0.14766 1.17854
 N350 N 0.32109 0.14745 1.17035
 C351 C 0.31401 0.13851 1.17201
 C352 C 0.31741 0.13279 1.18181
 C353 C 0.32682 0.13887 1.18572
 H354 H 0.30684 0.13643 1.16655
 H355 H 0.33194 0.13696 1.19317
 N356 N 0.32178 0.17112 1.14672
 N357 N 0.32976 0.17910 1.14693
 C358 C 0.32814 0.18624 1.13805
 C359 C 0.31865 0.18261 1.13193
 C360 C 0.31486 0.17298 1.13770
 H361 H 0.33341 0.19363 1.13626
 H362 H 0.30762 0.16767 1.13549
 H363 H 0.32851 0.17178 1.16738
 H364 H 0.33805 0.16252 1.15852
 N365 N 0.85254 0.67896 1.17116
 N366 N 0.85119 0.67218 1.18001
 C367 C 0.86001 0.67368 1.18726
 C368 C 0.86727 0.68192 1.18276
 C369 C 0.86222 0.68505 1.17251
 H370 H 0.86094 0.66924 1.19530
 H371 H 0.86530 0.69135 1.16649
 Cu372 Cu 0.83798 0.66216 1.18132
 Cu373 Cu 0.84133 0.67988 1.15888
 Cu374 Cu 0.81745 0.66237 1.16127
 N375 N 0.82696 0.64977 1.18000
 N376 N 0.81892 0.64990 1.17216
 C377 C 0.81224 0.64061 1.17342
 C378 C 0.81632 0.63423 1.18255
 C379 C 0.82571 0.64035 1.18649
 H380 H 0.80485 0.63879 1.16816
 H381 H 0.83122 0.63818 1.19359
 N382 N 0.81973 0.67311 1.14852
 N383 N 0.82892 0.67960 1.14747
 C384 C 0.82794 0.68590 1.13790
 C385 C 0.81763 0.68325 1.13262
 C386 C 0.81269 0.67506 1.13964
 H387 H 0.83423 0.69205 1.13506
 H388 H 0.80455 0.67084 1.13844
 H389 H 0.82755 0.67522 1.16851
 H390 H 0.83498 0.66337 1.16084
 N391 N 0.85176 0.17915 0.67167
 N392 N 0.85343 0.16940 0.67703
 C393 C 0.86250 0.17046 0.68405
 C394 C 0.86665 0.18151 0.68313
 C395 C 0.85961 0.18679 0.67522
 H396 H 0.86574 0.16375 0.68953
 H397 H 0.86035 0.19546 0.67206
 Cu398 Cu 0.84346 0.15632 0.67464
 Cu399 Cu 0.84010 0.18090 0.65990
 Cu400 Cu 0.82010 0.15923 0.65795
 N401 N 0.83071 0.14564 0.67542
 N402 N 0.82163 0.14679 0.66889
 C403 C 0.81415 0.13837 0.67129
 C404 C 0.81875 0.13156 0.67984
 C405 C 0.82930 0.13647 0.68224
 H406 H 0.80588 0.13742 0.66725
 H407 H 0.83551 0.13363 0.68847
 N408 N 0.82011 0.17258 0.64769
 N409 N 0.82769 0.18091 0.64848
 C410 C 0.82568 0.18859 0.64014
 C411 C 0.81636 0.18493 0.63378
 C412 C 0.81306 0.17474 0.63886
 H413 H 0.83073 0.19621 0.63874
 H414 H 0.80622 0.16913 0.63616
 H415 H 0.82915 0.17009 0.66861
 H416 H 0.83724 0.16382 0.65626
 N417 N 0.32082 0.35392 0.67195
 N418 N 0.32869 0.35355 0.67995
 C419 C 0.32702 0.36233 0.68720
 C420 C 0.31757 0.36855 0.68357
 C421 C 0.31387 0.36292 0.67383
 H422 H 0.33226 0.36401 0.69462
 H423 H 0.30671 0.36521 0.66845
 Cu424 Cu 0.34032 0.34161 0.68012
 Cu425 Cu 0.32011 0.34273 0.65968
 Cu426 Cu 0.34101 0.32163 0.65948
 N427 N 0.35216 0.32988 0.67972
 N428 N 0.35237 0.32209 0.67165
 C429 C 0.36132 0.31504 0.67341
 C430 C 0.36708 0.31858 0.68313
 C431 C 0.36099 0.32805 0.68689
 H432 H 0.36348 0.30791 0.66796
 H433 H 0.36279 0.33318 0.69434
 N434 N 0.32878 0.32262 0.64791
 N435 N 0.32083 0.33065 0.64799
 C436 C 0.31370 0.32898 0.63911
 C437 C 0.31730 0.31942 0.63311
 C438 C 0.32690 0.31562 0.63897
 H439 H 0.30635 0.33428 0.63723
 H440 H 0.33218 0.30832 0.63689
 H441 H 0.32797 0.32953 0.66844
 H442 H 0.33744 0.33896 0.65969
 N443 N 0.32139 0.85337 0.17216
 N444 N 0.33117 0.85518 0.17744
 C445 C 0.33004 0.86425 0.18442
 C446 C 0.31890 0.86825 0.18357
 C447 C 0.31365 0.86113 0.17573
 H448 H 0.33675 0.86758 0.18984
 H449 H 0.30494 0.86175 0.17263
 Cu450 Cu 0.34438 0.84535 0.17507
 Cu451 Cu 0.31972 0.84167 0.16046
 Cu452 Cu 0.34153 0.82180 0.15873
 N453 N 0.35510 0.83265 0.17605
 N454 N 0.35392 0.82346 0.16972
 C455 C 0.36230 0.81599 0.17232
 C456 C 0.36914 0.82071 0.18078
 C457 C 0.36426 0.83134 0.18291
 H458 H 0.36320 0.80767 0.16841
 H459 H 0.36707 0.83764 0.18904
 N460 N 0.32821 0.82169 0.14842
 N461 N 0.31982 0.82922 0.14913
 C462 C 0.31219 0.82716 0.14076
 C463 C 0.31594 0.81784 0.13446
 C464 C 0.32614 0.81461 0.13961
 H465 H 0.30454 0.83216 0.13930
 H466 H 0.33181 0.80780 0.13697
 H467 H 0.33063 0.83096 0.16932
 H468 H 0.33684 0.83889 0.15682
 N469 N 0.82093 0.35387 0.17175
 N470 N 0.82884 0.35352 0.17973
 C471 C 0.82713 0.36225 0.18702
 C472 C 0.81763 0.36842 0.18345
 C473 C 0.81393 0.36281 0.17370
 H474 H 0.83237 0.36392 0.19444
 H475 H 0.80673 0.36506 0.16836
 Cu476 Cu 0.84054 0.34167 0.17983
 Cu477 Cu 0.82028 0.34270 0.15944
 Cu478 Cu 0.84130 0.32170 0.15921
 N479 N 0.85240 0.32998 0.17946
 N480 N 0.85265 0.32218 0.17140
 C481 C 0.86160 0.31514 0.17320
 C482 C 0.86732 0.31869 0.18295
 C483 C 0.86121 0.32816 0.18667
 H484 H 0.86377 0.30799 0.16778
 H485 H 0.86296 0.33328 0.19413
 N486 N 0.82907 0.32266 0.14763
 N487 N 0.82108 0.33065 0.14772
 C488 C 0.81398 0.32897 0.13882
 C489 C 0.81765 0.31944 0.13280
 C490 C 0.82726 0.31569 0.13867
 H491 H 0.80661 0.33423 0.13693
 H492 H 0.83259 0.30843 0.13656
 H493 H 0.82822 0.32952 0.16818
 H494 H 0.83763 0.33900 0.15941
 N495 N 0.82114 0.85445 0.67153
 N496 N 0.82931 0.85432 0.67923
 C497 C 0.82763 0.86300 0.68658
 C498 C 0.81786 0.86894 0.68333
 C499 C 0.81399 0.86322 0.67371
 H500 H 0.83307 0.86479 0.69382
 H501 H 0.80654 0.86527 0.66861
 Cu502 Cu 0.84134 0.84278 0.67898
 Cu503 Cu 0.82031 0.84320 0.65932
 Cu504 Cu 0.84124 0.82216 0.65895
 N505 N 0.85282 0.83070 0.67881
 N506 N 0.85275 0.82268 0.67097
 C507 C 0.86151 0.81543 0.67289
 C508 C 0.86744 0.81908 0.68247
 C509 C 0.86163 0.82882 0.68599
 H510 H 0.86342 0.80808 0.66764
 H511 H 0.86359 0.83408 0.69331
 N512 N 0.82888 0.82307 0.64752
 N513 N 0.82091 0.83109 0.64766
 C514 C 0.81371 0.82939 0.63885
 C515 C 0.81728 0.81982 0.63283
 C516 C 0.82695 0.81607 0.63861
 H517 H 0.80634 0.83468 0.63702
 H518 H 0.83223 0.80879 0.63648
 H519 H 0.82855 0.83031 0.66823
 H520 H 0.83762 0.83946 0.65877
 N521 N 0.67910 0.64687 0.67083
 N522 N 0.67107 0.64729 0.67867
 C523 C 0.67253 0.63852 0.68599
 C524 C 0.68202 0.63224 0.68257
 C525 C 0.68595 0.63784 0.67289
 H526 H 0.66715 0.63690 0.69331
 H527 H 0.69323 0.63552 0.66768
 Cu528 Cu 0.65955 0.65934 0.67861
 Cu529 Cu 0.68017 0.65811 0.65860
 Cu530 Cu 0.65948 0.67942 0.65803
 N531 N 0.64786 0.67122 0.67805
 N532 N 0.64788 0.67903 0.66998
 C533 C 0.63898 0.68618 0.67161
 C534 C 0.63302 0.68269 0.68124
 C535 C 0.63894 0.67314 0.68508
 H536 H 0.63709 0.69344 0.66621
 H537 H 0.63688 0.66793 0.69242
 N538 N 0.67192 0.67835 0.64670
 N539 N 0.67980 0.67025 0.64692
 C540 C 0.68712 0.67191 0.63818
 C541 C 0.68372 0.68153 0.63215
 C542 C 0.67403 0.68537 0.63783
 H543 H 0.69447 0.66656 0.63644
 H544 H 0.66886 0.69272 0.63567
 H545 H 0.67227 0.67136 0.66723
 H546 H 0.66289 0.66206 0.65825
 N547 N 0.67892 0.14659 0.17004
 N548 N 0.66999 0.14578 0.17682
 C549 C 0.67147 0.13680 0.18388
 C550 C 0.68189 0.13167 0.18136
 C551 C 0.68637 0.13816 0.17251
 H552 H 0.66534 0.13415 0.19027
 H553 H 0.69448 0.13692 0.16823
 Cu554 Cu 0.65720 0.15640 0.17572
 Cu555 Cu 0.68021 0.15843 0.15844
 Cu556 Cu 0.65977 0.17980 0.15900
 N557 N 0.64695 0.16944 0.17721
 N558 N 0.64813 0.17864 0.17087
 C559 C 0.63999 0.18628 0.17373
 C560 C 0.63328 0.18159 0.18230
 C561 C 0.63797 0.17088 0.18428
 H562 H 0.63886 0.19452 0.16969
 H563 H 0.63512 0.16462 0.19047
 N564 N 0.67223 0.17933 0.14764
 N565 N 0.68000 0.17113 0.14742
 C566 C 0.68718 0.17299 0.13863
 C567 C 0.68379 0.18285 0.13298
 C568 C 0.67426 0.18662 0.13897
 H569 H 0.69434 0.16753 0.13651
 H570 H 0.66906 0.19404 0.13708
 H571 H 0.67111 0.16997 0.16836
 H572 H 0.66300 0.16258 0.15669
 N573 N 0.17918 0.64701 0.17061
 N574 N 0.17089 0.64714 0.17819
 C575 C 0.17238 0.63837 0.18549
 C576 C 0.18214 0.63237 0.18232
 C577 C 0.18621 0.63815 0.17281
 H578 H 0.16679 0.63653 0.19261
 H579 H 0.19369 0.63607 0.16779
 Cu580 Cu 0.15895 0.65877 0.17780
 Cu581 Cu 0.18028 0.65832 0.15845
 Cu582 Cu 0.15948 0.67950 0.15784
 N583 N 0.14756 0.67093 0.17751
 N584 N 0.14779 0.67898 0.16968
 C585 C 0.13902 0.68625 0.17146
 C586 C 0.13293 0.68260 0.18094
 C587 C 0.13863 0.67283 0.18455
 H588 H 0.13730 0.69371 0.16627
 H589 H 0.13643 0.66745 0.19172
 N590 N 0.17200 0.67856 0.14660
 N591 N 0.17993 0.67051 0.14683
 C592 C 0.18727 0.67222 0.13813
 C593 C 0.18384 0.68183 0.13210
 C594 C 0.17411 0.68560 0.13774
 H595 H 0.19465 0.66690 0.13640
 H596 H 0.16889 0.69292 0.13555
 H597 H 0.17197 0.67122 0.16728
 H598 H 0.16300 0.66217 0.15765
 N599 N 0.17901 0.14659 0.67034
 N600 N 0.17076 0.14651 0.67798
 C601 C 0.17242 0.13762 0.68513
 C602 C 0.18223 0.13181 0.68178
 C603 C 0.18616 0.13779 0.67235
 H604 H 0.16685 0.13551 0.69219
 H605 H 0.19373 0.13597 0.66735
 Cu606 Cu 0.15872 0.15805 0.67785
 Cu607 Cu 0.17992 0.15810 0.65838
 Cu608 Cu 0.15896 0.17911 0.65822
 N609 N 0.14720 0.17012 0.67782
 N610 N 0.14734 0.17830 0.67012
 C611 C 0.13853 0.18548 0.67206
 C612 C 0.13251 0.18163 0.68151
 C613 C 0.13829 0.17184 0.68493
 H614 H 0.13675 0.19302 0.66702
 H615 H 0.13615 0.16633 0.69202
 N616 N 0.17142 0.17846 0.64688
 N617 N 0.17940 0.17045 0.64695
 C618 C 0.18665 0.17230 0.63821
 C619 C 0.18311 0.18195 0.63230
 C620 C 0.17340 0.18561 0.63808
 H621 H 0.19403 0.16704 0.63634
 H622 H 0.16811 0.19291 0.63600
 H623 H 0.17155 0.17077 0.66744
 H624 H 0.16259 0.16180 0.65772
 N625 N 0.32039 0.64602 0.32850
 N626 N 0.32863 0.64605 0.32087
 C627 C 0.32699 0.63730 0.31358
 C628 C 0.31718 0.63143 0.31681
 C629 C 0.31323 0.63725 0.32635
 H630 H 0.33249 0.63542 0.30641
 H631 H 0.30574 0.63527 0.33140
 Cu632 Cu 0.34069 0.65754 0.32111
 Cu633 Cu 0.31951 0.65736 0.34063
 Cu634 Cu 0.34054 0.67830 0.34099
 N635 N 0.35221 0.66956 0.32126
 N636 N 0.35212 0.67764 0.32905
 C637 C 0.36093 0.68482 0.32715
 C638 C 0.36691 0.68108 0.31763
 C639 C 0.36109 0.67135 0.31413
 H640 H 0.36283 0.69219 0.33237
 H641 H 0.36308 0.66602 0.30688
 N642 N 0.32810 0.67752 0.35235
 N643 N 0.32008 0.66957 0.35221
 C644 C 0.31286 0.67136 0.36099
 C645 C 0.31647 0.68091 0.36699
 C646 C 0.32618 0.68458 0.36122
 H647 H 0.30547 0.66611 0.36284
 H648 H 0.33152 0.69181 0.36336
 H649 H 0.32787 0.67015 0.33169
 H650 H 0.33683 0.66101 0.34128
 N651 N 0.32019 0.14608 0.82882
 N652 N 0.32805 0.14628 0.82080
 C653 C 0.32629 0.13745 0.81364
 C654 C 0.31678 0.13137 0.81736
 C655 C 0.31315 0.13714 0.82704
 H656 H 0.33158 0.13555 0.80631
 H657 H 0.30589 0.13508 0.83238
 Cu658 Cu 0.33981 0.15809 0.82052
 Cu659 Cu 0.31958 0.15740 0.84096
 Cu660 Cu 0.34067 0.17828 0.84096
 N661 N 0.35176 0.16971 0.82079
 N662 N 0.35203 0.17758 0.82879
 C663 C 0.36103 0.18453 0.82696
 C664 C 0.36677 0.18086 0.81727
 C665 C 0.36061 0.17140 0.81360
 H666 H 0.36324 0.19169 0.83235
 H667 H 0.36237 0.16619 0.80620
 N668 N 0.32843 0.17754 0.85253
 N669 N 0.32041 0.16958 0.85252
 C670 C 0.31330 0.17139 0.86140
 C671 C 0.31700 0.18096 0.86732
 C672 C 0.32663 0.18461 0.86142
 H673 H 0.30591 0.16617 0.86332
 H674 H 0.33197 0.19187 0.86346
 H675 H 0.32757 0.17044 0.83206
 H676 H 0.33696 0.16100 0.84092
 N677 N 0.82036 0.64620 0.82842
 N678 N 0.82825 0.64659 0.82044
 C679 C 0.82660 0.63786 0.81314
 C680 C 0.81713 0.63164 0.81671
 C681 C 0.81341 0.63723 0.82647
 H682 H 0.83185 0.63622 0.80572
 H683 H 0.80622 0.63494 0.83181
 Cu684 Cu 0.83991 0.65849 0.82034
 Cu685 Cu 0.81963 0.65737 0.84071
 Cu686 Cu 0.84056 0.67842 0.84100
 N687 N 0.85175 0.67019 0.82077
 N688 N 0.85196 0.67796 0.82886
 C689 C 0.86094 0.68498 0.82713
 C690 C 0.86672 0.68144 0.81742
 C691 C 0.86061 0.67200 0.81363
 H692 H 0.86310 0.69209 0.83260
 H693 H 0.86242 0.66687 0.80618
 N694 N 0.82830 0.67745 0.85253
 N695 N 0.82034 0.66944 0.85243
 C696 C 0.81319 0.67113 0.86129
 C697 C 0.81678 0.68069 0.86729
 C698 C 0.82641 0.68445 0.86146
 H699 H 0.80582 0.66585 0.86314
 H700 H 0.83168 0.69174 0.86355
 H701 H 0.82752 0.67057 0.83200
 H702 H 0.83695 0.66110 0.84076
 N703 N 0.82024 0.14605 0.32904
 N704 N 0.82835 0.14599 0.32127
 C705 C 0.82656 0.13718 0.31409
 C706 C 0.81679 0.13137 0.31755
 C707 C 0.81303 0.13728 0.32709
 H708 H 0.83200 0.13512 0.30692
 H709 H 0.80555 0.13544 0.33221
 Cu710 Cu 0.84046 0.15745 0.32127
 Cu711 Cu 0.81957 0.15747 0.34108
 Cu712 Cu 0.84062 0.17837 0.34101
 N713 N 0.85202 0.16946 0.32118
 N714 N 0.85204 0.17759 0.32891
 C715 C 0.86086 0.18472 0.32688
 C716 C 0.86673 0.18090 0.31733
 C717 C 0.86083 0.17117 0.31395
 H718 H 0.86285 0.19211 0.33204
 H719 H 0.86275 0.16576 0.30673
 N720 N 0.82833 0.17770 0.35255
 N721 N 0.82033 0.16973 0.35256
 C722 C 0.81321 0.17157 0.36142
 C723 C 0.81688 0.18116 0.36730
 C724 C 0.82651 0.18481 0.36140
 H725 H 0.80583 0.16633 0.36337
 H726 H 0.83186 0.19207 0.36343
 H727 H 0.82784 0.17018 0.33193
 H728 H 0.83692 0.16110 0.34146
 N729 N 0.67851 0.35382 0.32892
 N730 N 0.67031 0.35368 0.32123
 C731 C 0.67170 0.36264 0.31412
 C732 C 0.68131 0.36874 0.31751
 C733 C 0.68538 0.36285 0.32697
 H734 H 0.66623 0.36446 0.30691
 H735 H 0.69283 0.36491 0.33205
 Cu736 Cu 0.65886 0.34160 0.32115
 Cu737 Cu 0.67980 0.34217 0.34076
 Cu738 Cu 0.65955 0.32042 0.34050
 N739 N 0.64737 0.32954 0.32119
 N740 N 0.64789 0.32110 0.32860
 C741 C 0.63923 0.31377 0.32660
 C742 C 0.63286 0.31787 0.31751
 C743 C 0.63826 0.32792 0.31432
 H744 H 0.63759 0.30610 0.33152
 H745 H 0.63583 0.33352 0.30738
 N746 N 0.67199 0.32130 0.35186
 N747 N 0.67965 0.32959 0.35200
 C748 C 0.68686 0.32788 0.36082
 C749 C 0.68359 0.31803 0.36655
 C750 C 0.67411 0.31410 0.36059
 H751 H 0.69397 0.33341 0.36289
 H752 H 0.66903 0.30663 0.36252
 H753 H 0.67203 0.32924 0.33161
 H754 H 0.66262 0.33782 0.34123
 N755 N 0.67874 0.85351 0.82879
 N756 N 0.67075 0.85309 0.82091
 C757 C 0.67225 0.86187 0.81360
 C758 C 0.68172 0.86814 0.81706
 C759 C 0.68560 0.86254 0.82676
 H760 H 0.66690 0.86350 0.80625
 H761 H 0.69284 0.86486 0.83202
 Cu762 Cu 0.65921 0.84107 0.82094
 Cu763 Cu 0.67973 0.84231 0.84107
 Cu764 Cu 0.65900 0.82107 0.84158
 N765 N 0.64749 0.82922 0.82148
 N766 N 0.64747 0.82144 0.82958
 C767 C 0.63859 0.81428 0.82794
 C768 C 0.63268 0.81773 0.81826
 C769 C 0.63861 0.82727 0.81441
 H770 H 0.63669 0.80704 0.83335
 H771 H 0.63660 0.83244 0.80703
 N772 N 0.67137 0.82213 0.85298
 N773 N 0.67927 0.83021 0.85279
 C774 C 0.68650 0.82857 0.86160
 C775 C 0.68301 0.81898 0.86765
 C776 C 0.67337 0.81515 0.86191
 H777 H 0.69383 0.83391 0.86341
 H778 H 0.66815 0.80784 0.86407
 H779 H 0.67186 0.82907 0.83243
 H780 H 0.66244 0.83843 0.84132
 N781 N 0.17865 0.35324 0.82893
 N782 N 0.17071 0.35284 0.82099
 C783 C 0.17225 0.36165 0.81373
 C784 C 0.18169 0.36792 0.81729
 C785 C 0.18551 0.36229 0.82699
 H786 H 0.16695 0.36332 0.80636
 H787 H 0.19270 0.36460 0.83232
 Cu788 Cu 0.15917 0.34081 0.82093
 Cu789 Cu 0.17958 0.34200 0.84116
 Cu790 Cu 0.15886 0.32074 0.84153
 N791 N 0.14746 0.32896 0.82139
 N792 N 0.14738 0.32116 0.82947
 C793 C 0.13848 0.31404 0.82778
 C794 C 0.13262 0.31753 0.81809
 C795 C 0.13859 0.32705 0.81427
 H796 H 0.13651 0.30680 0.83317
 H797 H 0.13661 0.33225 0.80691
 N798 N 0.17120 0.32177 0.85297
 N799 N 0.17908 0.32986 0.85283
 C800 C 0.18631 0.32820 0.86164
 C801 C 0.18285 0.31859 0.86765
 C802 C 0.17322 0.31475 0.86187
 H803 H 0.19364 0.33355 0.86345
 H804 H 0.16803 0.30740 0.86400
 H805 H 0.17176 0.32876 0.83244
 H806 H 0.16230 0.33809 0.84132
 N807 N 0.17816 0.85372 0.32889
 N808 N 0.16987 0.85352 0.32132
 C809 C 0.17135 0.86224 0.31394
 C810 C 0.18111 0.86825 0.31704
 C811 C 0.18518 0.86256 0.32661
 H812 H 0.16579 0.86398 0.30677
 H813 H 0.19269 0.86465 0.33158
 Cu814 Cu 0.15799 0.84184 0.32172
 Cu815 Cu 0.17933 0.84244 0.34107
 Cu816 Cu 0.15872 0.82111 0.34168
 N817 N 0.14673 0.82957 0.32201
 N818 N 0.14704 0.82151 0.32983
 C819 C 0.13837 0.81414 0.32801
 C820 C 0.13226 0.81775 0.31852
 C821 C 0.13786 0.82759 0.31495
 H822 H 0.13673 0.80665 0.33318
 H823 H 0.13561 0.83294 0.30777
 N824 N 0.17122 0.82215 0.35293
 N825 N 0.17906 0.83027 0.35271
 C826 C 0.18642 0.82861 0.36142
 C827 C 0.18306 0.81897 0.36745
 C828 C 0.17337 0.81512 0.36179
 H829 H 0.19374 0.83399 0.36316
 H830 H 0.16822 0.80776 0.36396
 H831 H 0.17114 0.82950 0.33223
 H832 H 0.16209 0.83847 0.34187
 C833 C 0.24542 1.00087 0.25460
 C834 C 0.25410 1.00080 0.24679
 C835 C 0.25874 1.01162 0.24193
 C836 C 0.25930 0.98997 0.24249
 C837 C 0.23996 0.99016 0.25872
 C838 C 0.24094 1.01170 0.25953
 C839 C 0.25151 1.01960 0.23658
 C840 C 0.25603 1.02959 0.23182
 C841 C 0.26789 1.03170 0.23216
 C842 C 0.27511 1.02365 0.23743
 C843 C 0.27058 1.01370 0.24225
 C844 C 0.26093 0.98849 0.23072
 C845 C 0.26582 0.97846 0.22647
 C846 C 0.26907 0.96954 0.23389
 C847 C 0.26758 0.97112 0.24571
 C848 C 0.26294 0.98129 0.24996
 C849 C 0.23957 0.98788 0.27046
 C850 C 0.23470 0.97776 0.27451
 C851 C 0.23003 0.96973 0.26689
 C852 C 0.23018 0.97216 0.25513
 C853 C 0.23507 0.98231 0.25108
 C854 C 0.24824 1.01947 0.26506
 C855 C 0.24385 1.02958 0.26971
 C856 C 0.23207 1.03206 0.26898
 C857 C 0.22478 1.02418 0.26355
 C858 C 0.22917 1.01409 0.25892
 H859 H 0.24237 1.01802 0.23600
 H860 H 0.25028 1.03555 0.22766
 H861 H 0.28427 1.02509 0.23792
 H862 H 0.27631 1.00762 0.24628
 H863 H 0.25837 0.99511 0.22477
 H864 H 0.26713 0.97776 0.21736
 H865 H 0.26213 0.98235 0.25910
 H866 H 0.24320 0.99389 0.27650
 H867 H 0.23453 0.97623 0.28362
 H868 H 0.22668 0.96612 0.24905
 H869 H 0.23512 0.98401 0.24199
 H870 H 0.25732 1.01769 0.26579
 H871 H 0.24968 1.03550 0.27379
 H872 H 0.21564 1.02576 0.26303
 H873 H 0.22338 1.00815 0.25478
 H874 H 0.26987 0.96446 0.25171
 C875 C 0.24495 0.50109 0.75456
 C876 C 0.25329 0.50109 0.74641
 C877 C 0.25780 0.51188 0.74143
 C878 C 0.25835 0.49029 0.74201
 C879 C 0.23987 0.49030 0.75895
 C880 C 0.24048 0.51189 0.75955
 C881 C 0.25047 0.51985 0.73622
 C882 C 0.25489 0.52993 0.73153
 C883 C 0.26673 0.53218 0.73192
 C884 C 0.27404 0.52410 0.73702
 C885 C 0.26963 0.51403 0.74168
 C886 C 0.25825 0.48812 0.73025
 C887 C 0.26297 0.47803 0.72594
 C888 C 0.26797 0.46995 0.73331
 C889 C 0.26822 0.47223 0.74509
 C890 C 0.26348 0.48233 0.74940
 C891 C 0.23998 0.48808 0.77071
 C892 C 0.23529 0.47797 0.77500
 C893 C 0.23031 0.46991 0.76762
 C894 C 0.23004 0.47223 0.75585
 C895 C 0.23475 0.48236 0.75155
 C896 C 0.24786 0.51981 0.76475
 C897 C 0.24349 0.52993 0.76941
 C898 C 0.23166 0.53225 0.76903
 C899 C 0.22430 0.52420 0.76395
 C900 C 0.22867 0.51411 0.75930
 H901 H 0.24133 0.51825 0.73577
 H902 H 0.24903 0.53603 0.72771
 H903 H 0.28322 0.52550 0.73727
 H904 H 0.27543 0.50793 0.74557
 H905 H 0.25443 0.49421 0.72440
 H906 H 0.26283 0.47662 0.71681
 H907 H 0.26381 0.48395 0.75849
 H908 H 0.24379 0.49415 0.77656
 H909 H 0.23544 0.47652 0.78413
 H910 H 0.22631 0.46616 0.74995
 H911 H 0.23441 0.48400 0.74246
 H912 H 0.25698 0.51816 0.76520
 H913 H 0.24937 0.53598 0.77321
 H914 H 0.21513 0.52565 0.76370
 H915 H 0.22283 0.50804 0.75543
 H916 H 0.27196 0.46614 0.75098
 C917 C 0.74506 -0.00104 0.24538
 C918 C 0.75345 -0.00094 0.25348
 C919 C 0.75858 -0.01168 0.25799
 C920 C 0.75794 0.00991 0.25832
 C921 C 0.74044 0.00969 0.24037
 C922 C 0.74005 -0.01188 0.24107
 C923 C 0.75872 -0.01364 0.26979
 C924 C 0.76348 -0.02367 0.27421
 C925 C 0.76825 -0.03194 0.26691
 C926 C 0.76826 -0.02987 0.25507
 C927 C 0.76352 -0.01980 0.25066
 C928 C 0.75060 0.01786 0.26354
 C929 C 0.75499 0.02801 0.26810
 C930 C 0.76681 0.03033 0.26758
 C931 C 0.77413 0.02227 0.26248
 C932 C 0.76974 0.01215 0.25794
 C933 C 0.74769 0.01770 0.23508
 C934 C 0.74316 0.02772 0.23036
 C935 C 0.73130 0.02985 0.23072
 C936 C 0.72407 0.02175 0.23591
 C937 C 0.72860 0.01176 0.24065
 C938 C 0.74018 -0.01415 0.22933
 C939 C 0.73555 -0.02431 0.22510
 C940 C 0.73062 -0.03237 0.23253
 C941 C 0.73033 -0.03000 0.24429
 C942 C 0.73498 -0.01982 0.24852
 H943 H 0.75506 -0.00742 0.27560
 H944 H 0.76354 -0.02489 0.28337
 H945 H 0.77180 -0.03610 0.24922
 H946 H 0.76370 -0.01835 0.24154
 H947 H 0.74148 0.01621 0.26409
 H948 H 0.74913 0.03408 0.27193
 H949 H 0.77555 0.00606 0.25404
 H950 H 0.75683 0.01614 0.23456
 H951 H 0.74892 0.03372 0.22626
 H952 H 0.71492 0.02321 0.23644
 H953 H 0.72287 0.00568 0.24466
 H954 H 0.74396 -0.00808 0.22344
 H955 H 0.73571 -0.02580 0.21598
 H956 H 0.72664 -0.03607 0.25023
 H957 H 0.73464 -0.01814 0.25760
 H958 H 0.78330 0.02373 0.26213
 C959 C 0.74483 0.49907 0.74572
 C960 C 0.75321 0.49908 0.75383
 C961 C 0.75778 0.48830 0.75880
 C962 C 0.75827 0.50989 0.75817
 C963 C 0.73971 0.50987 0.74138
 C964 C 0.74034 0.48829 0.74074
 C965 C 0.75048 0.48023 0.76390
 C966 C 0.75495 0.47017 0.76858
 C967 C 0.76682 0.46803 0.76833
 C968 C 0.77410 0.47622 0.76336
 C969 C 0.76963 0.48626 0.75868
 C970 C 0.75819 0.51213 0.76992
 C971 C 0.76290 0.52225 0.77416
 C972 C 0.76786 0.53029 0.76673
 C973 C 0.76810 0.52795 0.75496
 C974 C 0.76338 0.51781 0.75072
 C975 C 0.73982 0.51215 0.72963
 C976 C 0.73514 0.52229 0.72539
 C977 C 0.73018 0.53033 0.73281
 C978 C 0.72990 0.52794 0.74457
 C979 C 0.73459 0.51778 0.74881
 C980 C 0.74769 0.48037 0.73548
 C981 C 0.74330 0.47027 0.73082
 C982 C 0.73147 0.46795 0.73127
 C983 C 0.72414 0.47599 0.73641
 C984 C 0.72853 0.48607 0.74105
 H985 H 0.74132 0.48175 0.76428
 H986 H 0.74911 0.46400 0.77229
 H987 H 0.78330 0.47494 0.76322
 H988 H 0.77542 0.49243 0.75488
 H989 H 0.75439 0.50607 0.77580
 H990 H 0.76277 0.52372 0.78328
 H991 H 0.76370 0.51614 0.74164
 H992 H 0.74364 0.50610 0.72375
 H993 H 0.73531 0.52379 0.71627
 H994 H 0.72618 0.53399 0.75051
 H995 H 0.73426 0.51608 0.75789
 H996 H 0.75681 0.48201 0.73499
 H997 H 0.74917 0.46422 0.72697
 H998 H 0.71497 0.47454 0.73671
 H999 H 0.72271 0.49213 0.74497
 H1000 H 0.77181 0.53401 0.74903
 C1001 C 0.24467 0.49906 0.24555
 C1002 C 0.25305 0.49909 0.25364
 C1003 C 0.25762 0.48832 0.25862
 C1004 C 0.25810 0.50991 0.25797
 C1005 C 0.23955 0.50982 0.24114
 C1006 C 0.24016 0.48826 0.24062
 C1007 C 0.25034 0.48034 0.26388
 C1008 C 0.25481 0.47027 0.26857
 C1009 C 0.26666 0.46805 0.26812
 C1010 C 0.27392 0.47614 0.26297
 C1011 C 0.26945 0.48619 0.25831
 C1012 C 0.25804 0.51215 0.26972
 C1013 C 0.26272 0.52228 0.27395
 C1014 C 0.26766 0.53034 0.26652
 C1015 C 0.26788 0.52799 0.25475
 C1016 C 0.26318 0.51784 0.25052
 C1017 C 0.23956 0.51196 0.22936
 C1018 C 0.23467 0.52196 0.22502
 C1019 C 0.22958 0.52999 0.23237
 C1020 C 0.22951 0.52780 0.24417
 C1021 C 0.23440 0.51778 0.24851
 C1022 C 0.24749 0.48035 0.23530
 C1023 C 0.24305 0.47033 0.23052
 C1024 C 0.23120 0.46810 0.23087
 C1025 C 0.22391 0.47608 0.23614
 C1026 C 0.22835 0.48607 0.24092
 H1027 H 0.24120 0.48192 0.26438
 H1028 H 0.24900 0.46417 0.27242
 H1029 H 0.28310 0.47477 0.26268
 H1030 H 0.27522 0.49230 0.25438
 H1031 H 0.25426 0.50608 0.27561
 H1032 H 0.26261 0.52375 0.28307
 H1033 H 0.26349 0.51617 0.24143
 H1034 H 0.24347 0.50592 0.22354
 H1035 H 0.23500 0.52347 0.21591
 H1036 H 0.22550 0.53375 0.25002
 H1037 H 0.23410 0.51617 0.25761
 H1038 H 0.25661 0.48200 0.23477
 H1039 H 0.24886 0.46443 0.22636
 H1040 H 0.21477 0.47454 0.23668
 H1041 H 0.22256 0.49209 0.24496
 H1042 H 0.27157 0.53406 0.24880
 C1043 C 0.74519 1.00134 0.75463
 C1044 C 0.75363 1.00121 0.74658
 C1045 C 0.75835 1.01190 0.74155
 C1046 C 0.75859 0.99032 0.74230
 C1047 C 0.73996 0.99059 0.75896
 C1048 C 0.74074 1.01218 0.75956
 C1049 C 0.75117 1.02001 0.73633
 C1050 C 0.75582 1.02989 0.73142
 C1051 C 0.76773 1.03175 0.73153
 C1052 C 0.77488 1.02356 0.73670
 C1053 C 0.77023 1.01373 0.74163
 C1054 C 0.75852 0.98803 0.73056
 C1055 C 0.76317 0.97786 0.72637
 C1056 C 0.76808 0.96982 0.73383
 C1057 C 0.76829 0.97220 0.74559
 C1058 C 0.76362 0.98239 0.74979
 C1059 C 0.74002 0.98829 0.77070
 C1060 C 0.73526 0.97817 0.77491
 C1061 C 0.73025 0.97019 0.76746
 C1062 C 0.73001 0.97261 0.75571
 C1063 C 0.73478 0.98274 0.75150
 C1064 C 0.74814 1.02022 0.76457
 C1065 C 0.74377 1.03035 0.76920
 C1066 C 0.73192 1.03257 0.76902
 C1067 C 0.72454 1.02440 0.76417
 C1068 C 0.72891 1.01431 0.75951
 H1069 H 0.74200 1.01864 0.73596
 H1070 H 0.75012 1.03596 0.72735
 H1071 H 0.78407 1.02482 0.73703
 H1072 H 0.77591 1.00755 0.74558
 H1073 H 0.75477 0.99410 0.72464
 H1074 H 0.76306 0.97637 0.71725
 H1075 H 0.76393 0.98409 0.75886
 H1076 H 0.74388 0.99429 0.77660
 H1077 H 0.73540 0.97664 0.78403
 H1078 H 0.72627 0.96661 0.74975
 H1079 H 0.73448 0.98446 0.74242
 H1080 H 0.75728 1.01864 0.76489
 H1081 H 0.74969 1.03649 0.77282
 H1082 H 0.71535 1.02574 0.76410
 H1083 H 0.72305 1.00817 0.75581
 H1084 H 0.77196 0.96614 0.75156
 C1085 C 0.74524 0.50127 0.25415
 C1086 C 0.75365 0.50112 0.24608
 C1087 C 0.75829 0.51181 0.24100
 C1088 C 0.75863 0.49024 0.24181
 C1089 C 0.74004 0.49055 0.25857
 C1090 C 0.74082 0.51213 0.25903
 C1091 C 0.75106 0.51979 0.23567
 C1092 C 0.75562 0.52969 0.23074
 C1093 C 0.76750 0.53173 0.23095
 C1094 C 0.77471 0.52367 0.23624
 C1095 C 0.77015 0.51379 0.24117
 C1096 C 0.75855 0.48794 0.23007
 C1097 C 0.76320 0.47777 0.22588
 C1098 C 0.76811 0.46973 0.23336
 C1099 C 0.76834 0.47213 0.24511
 C1100 C 0.76366 0.48231 0.24930
 C1101 C 0.74011 0.48835 0.27033
 C1102 C 0.73535 0.47828 0.27464
 C1103 C 0.73033 0.47023 0.26726
 C1104 C 0.73009 0.47254 0.25548
 C1105 C 0.73487 0.48263 0.25118
 C1106 C 0.74821 0.52005 0.26422
 C1107 C 0.74387 0.53018 0.26887
 C1108 C 0.73205 0.53253 0.26848
 C1109 C 0.72467 0.52452 0.26339
 C1110 C 0.72901 0.51440 0.25876
 H1111 H 0.74191 0.51829 0.23523
 H1112 H 0.74987 0.53566 0.22657
 H1113 H 0.78388 0.52505 0.23667
 H1114 H 0.77587 0.50771 0.24521
 H1115 H 0.75480 0.49400 0.22415
 H1116 H 0.76309 0.47626 0.21677
 H1117 H 0.76398 0.48402 0.25837
 H1118 H 0.74397 0.49441 0.27618
 H1119 H 0.73549 0.47683 0.28376
 H1120 H 0.72634 0.46648 0.24958
 H1121 H 0.73456 0.48426 0.24208
 H1122 H 0.75733 0.51837 0.26469
 H1123 H 0.74977 0.53622 0.27268
 H1124 H 0.71551 0.52599 0.26313
 H1125 H 0.72316 0.50835 0.25489
 H1126 H 0.77201 0.46607 0.25108
 C1127 C 0.24508 -0.00113 0.74551
 C1128 C 0.25346 -0.00114 0.75361
 C1129 C 0.25853 -0.01193 0.75804
 C1130 C 0.25801 0.00965 0.75851
 C1131 C 0.24056 0.00968 0.74058
 C1132 C 0.23998 -0.01190 0.74112
 C1133 C 0.25868 -0.01396 0.76984
 C1134 C 0.26344 -0.02402 0.77419
 C1135 C 0.26820 -0.03225 0.76684
 C1136 C 0.26819 -0.03012 0.75502
 C1137 C 0.26345 -0.02002 0.75067
 C1138 C 0.25072 0.01759 0.76383
 C1139 C 0.25516 0.02770 0.76841
 C1140 C 0.26698 0.03001 0.76782
 C1141 C 0.27426 0.02196 0.76262
 C1142 C 0.26982 0.01187 0.75806
 C1143 C 0.24787 0.01762 0.73531
 C1144 C 0.24346 0.02778 0.73076
 C1145 C 0.23165 0.03013 0.73134
 C1146 C 0.22434 0.02206 0.73647
 C1147 C 0.22875 0.01192 0.74101
 C1148 C 0.24004 -0.01408 0.72936
 C1149 C 0.23534 -0.02417 0.72506
 C1150 C 0.23040 -0.03227 0.73245
 C1151 C 0.23017 -0.02999 0.74423
 C1152 C 0.23489 -0.01987 0.74853
 H1153 H 0.25504 -0.00777 0.77568
 H1154 H 0.26351 -0.02529 0.78334
 H1155 H 0.27174 -0.03631 0.74912
 H1156 H 0.26362 -0.01852 0.74155
 H1157 H 0.24160 0.01594 0.76443
 H1158 H 0.24934 0.03377 0.77230
 H1159 H 0.27559 0.00579 0.75410
 H1160 H 0.25699 0.01596 0.73473
 H1161 H 0.24931 0.03385 0.72692
 H1162 H 0.21518 0.02353 0.73687
 H1163 H 0.22296 0.00585 0.74495
 H1164 H 0.24383 -0.00798 0.72350
 H1165 H 0.23546 -0.02558 0.71593
 H1166 H 0.22647 -0.03609 0.75013
 H1167 H 0.23458 -0.01826 0.75762
 H1168 H 0.28342 0.02341 0.76221
 C1169 C 0.25465 0.24577 0.99953
 C1170 C 0.24643 0.25406 0.99954
 C1171 C 0.24139 0.25847 1.01031
 C1172 C 0.24202 0.25914 0.98878
 C1173 C 0.25904 0.24071 0.98876
 C1174 C 0.25969 0.24129 1.01029
 C1175 C 0.23615 0.25108 1.01818
 C1176 C 0.23142 0.25539 1.02827
 C1177 C 0.23181 0.26719 1.03061
 C1178 C 0.23694 0.27457 1.02263
 C1179 C 0.24163 0.27025 1.01256
 C1180 C 0.23021 0.25903 0.98657
 C1181 C 0.22590 0.26376 0.97650
 C1182 C 0.23332 0.26879 0.96848
 C1183 C 0.24515 0.26905 0.97080
 C1184 C 0.24946 0.26430 0.98088
 C1185 C 0.27085 0.24084 0.98651
 C1186 C 0.27514 0.23613 0.97644
 C1187 C 0.26770 0.23111 0.96844
 C1188 C 0.25587 0.23084 0.97080
 C1189 C 0.25159 0.23557 0.98089
 C1190 C 0.26491 0.24865 1.01820
 C1191 C 0.26962 0.24428 1.02828
 C1192 C 0.26925 0.23247 1.03058
 C1193 C 0.26416 0.22513 1.02255
 C1194 C 0.25947 0.22950 1.01249
 H1195 H 0.23571 0.24198 1.01651
 H1196 H 0.22758 0.24950 1.03428
 H1197 H 0.23719 0.28371 1.02410
 H1198 H 0.24555 0.27610 1.00653
 H1199 H 0.22433 0.25519 0.99261
 H1200 H 0.21673 0.26361 0.97505
 H1201 H 0.25859 0.26464 0.98253
 H1202 H 0.27674 0.24468 0.99254
 H1203 H 0.28430 0.23629 0.97496
 H1204 H 0.24993 0.22708 0.96478
 H1205 H 0.24246 0.23521 0.98256
 H1206 H 0.26534 0.25776 1.01657
 H1207 H 0.27343 0.25015 1.03433
 H1208 H 0.26392 0.21598 1.02399
 H1209 H 0.25558 0.22368 1.00643
 H1210 H 0.25108 0.27281 0.96476
 C1211 C 0.25467 0.74599 0.49940
 C1212 C 0.24654 0.75436 0.49930
 C1213 C 0.24151 0.75894 0.51001
 C1214 C 0.24222 0.75939 0.48848
 C1215 C 0.25905 0.74076 0.48871
 C1216 C 0.25961 0.74157 0.51023
 C1217 C 0.23618 0.75167 0.51795
 C1218 C 0.23149 0.75612 0.52799
 C1219 C 0.23199 0.76793 0.53024
 C1220 C 0.23719 0.77518 0.52219
 C1221 C 0.24186 0.77073 0.51216
 C1222 C 0.23041 0.75940 0.48623
 C1223 C 0.22618 0.76411 0.47613
 C1224 C 0.23368 0.76900 0.46809
 C1225 C 0.24551 0.76913 0.47043
 C1226 C 0.24974 0.76440 0.48056
 C1227 C 0.27087 0.74063 0.48656
 C1228 C 0.27517 0.73561 0.47664
 C1229 C 0.26773 0.73051 0.46870
 C1230 C 0.25587 0.73058 0.47090
 C1231 C 0.25157 0.73561 0.48085
 C1232 C 0.26491 0.74893 0.51808
 C1233 C 0.26955 0.74461 0.52820
 C1234 C 0.26903 0.73283 0.53062
 C1235 C 0.26385 0.72548 0.52266
 C1236 C 0.25924 0.72980 0.51255
 H1237 H 0.23565 0.74256 0.51636
 H1238 H 0.22760 0.75031 0.53406
 H1239 H 0.23753 0.78433 0.52358
 H1240 H 0.24584 0.77649 0.50608
 H1241 H 0.22447 0.75568 0.49229
 H1242 H 0.21702 0.76407 0.47466
 H1243 H 0.25886 0.76464 0.48223
 H1244 H 0.27677 0.74454 0.49254
 H1245 H 0.28433 0.73583 0.47513
 H1246 H 0.24994 0.72657 0.46504
 H1247 H 0.24243 0.73540 0.48247
 H1248 H 0.26545 0.75802 0.51635
 H1249 H 0.27343 0.75049 0.53420
 H1250 H 0.26351 0.71635 0.52419
 H1251 H 0.25528 0.72397 0.50655
 H1252 H 0.25149 0.77278 0.46438
 C1253 C 0.24703 0.74705 0.00045
 C1254 C 0.25511 0.75547 0.00039
 C1255 C 0.26008 0.75992 -0.01041
 C1256 C 0.25943 0.76063 0.01114
 C1257 C 0.24273 0.74195 0.01125
 C1258 C 0.24200 0.74249 -0.01026
 C1259 C 0.26533 0.75255 -0.01830
 C1260 C 0.26992 0.75687 -0.02844
 C1261 C 0.26941 0.76865 -0.03085
 C1262 C 0.26430 0.77601 -0.02285
 C1263 C 0.25973 0.77169 -0.01271
 C1264 C 0.27124 0.76065 0.01340
 C1265 C 0.27544 0.76528 0.02355
 C1266 C 0.26792 0.77007 0.03161
 C1267 C 0.25610 0.77025 0.02923
 C1268 C 0.25190 0.76561 0.01906
 C1269 C 0.23093 0.74194 0.01353
 C1270 C 0.22673 0.73717 0.02362
 C1271 C 0.23425 0.73223 0.03160
 C1272 C 0.24607 0.73209 0.02922
 C1273 C 0.25027 0.73689 0.01912
 C1274 C 0.23661 0.74976 -0.01816
 C1275 C 0.23177 0.74529 -0.02812
 C1276 C 0.23212 0.73346 -0.03028
 C1277 C 0.23746 0.72622 -0.02230
 C1278 C 0.24231 0.73069 -0.01237
 H1279 H 0.26585 0.74345 -0.01659
 H1280 H 0.27374 0.75098 -0.03447
 H1281 H 0.26396 0.78515 -0.02437
 H1282 H 0.25581 0.77752 -0.00668
 H1283 H 0.27719 0.75695 0.00734
 H1284 H 0.28460 0.76520 0.02505
 H1285 H 0.24277 0.76584 0.01739
 H1286 H 0.22497 0.74571 0.00752
 H1287 H 0.21757 0.73722 0.02512
 H1288 H 0.25208 0.72840 0.03523
 H1289 H 0.25940 0.73664 0.01742
 H1290 H 0.23608 0.75887 -0.01657
 H1291 H 0.22756 0.75105 -0.03402
 H1292 H 0.23801 0.71709 -0.02379
 H1293 H 0.24640 0.72495 -0.00636
 H1294 H 0.25009 0.77382 0.03530
 C1295 C 0.24688 0.24677 0.50067
 C1296 C 0.25507 0.25508 0.50064
 C1297 C 0.26017 0.25946 0.48987
 C1298 C 0.25942 0.26022 0.51139
 C1299 C 0.24243 0.24179 0.51146
 C1300 C 0.24190 0.24222 0.48994
 C1301 C 0.26544 0.25204 0.48205
 C1302 C 0.27032 0.25634 0.47202
 C1303 C 0.27011 0.26815 0.46970
 C1304 C 0.26489 0.27554 0.47761
 C1305 C 0.26001 0.27124 0.48761
 C1306 C 0.27121 0.26009 0.51369
 C1307 C 0.27545 0.26483 0.52377
 C1308 C 0.26797 0.26988 0.53172
 C1309 C 0.25617 0.27017 0.52930
 C1310 C 0.25193 0.26542 0.51921
 C1311 C 0.23061 0.24194 0.51364
 C1312 C 0.22626 0.23726 0.52371
 C1313 C 0.23365 0.23226 0.53178
 C1314 C 0.24549 0.23198 0.52951
 C1315 C 0.24984 0.23668 0.51942
 C1316 C 0.23667 0.24950 0.48195
 C1317 C 0.23185 0.24502 0.47199
 C1318 C 0.23207 0.23317 0.46990
 C1319 C 0.23727 0.22592 0.47797
 C1320 C 0.24209 0.23040 0.48790
 H1321 H 0.26586 0.24294 0.48376
 H1322 H 0.27444 0.25045 0.46619
 H1323 H 0.26445 0.28466 0.47600
 H1324 H 0.25601 0.27710 0.49355
 H1325 H 0.27713 0.25621 0.50771
 H1326 H 0.28461 0.26465 0.52529
 H1327 H 0.24281 0.26578 0.51749
 H1328 H 0.22475 0.24575 0.50755
 H1329 H 0.21709 0.23742 0.52512
 H1330 H 0.25140 0.22824 0.53559
 H1331 H 0.25897 0.23631 0.51780
 H1332 H 0.23623 0.25862 0.48348
 H1333 H 0.22775 0.25080 0.46602
 H1334 H 0.23771 0.21678 0.47654
 H1335 H 0.24606 0.22465 0.49398
 H1336 H 0.25019 0.27395 0.53528
 C1337 C 0.75471 0.74592 0.99943
 C1338 C 0.74657 0.75429 0.99950
 C1339 C 0.74165 0.75876 1.01031
 C1340 C 0.74211 0.75940 0.98878
 C1341 C 0.75898 0.74084 0.98862
 C1342 C 0.75977 0.74137 1.01015
 C1343 C 0.73643 0.75142 1.01825
 C1344 C 0.73182 0.75579 1.02836
 C1345 C 0.73229 0.76758 1.03068
 C1346 C 0.73740 0.77491 1.02263
 C1347 C 0.74199 0.77054 1.01253
 C1348 C 0.73027 0.75936 0.98667
 C1349 C 0.72590 0.76413 0.97664
 C1350 C 0.73328 0.76912 0.96857
 C1351 C 0.74513 0.76931 0.97078
 C1352 C 0.74950 0.76451 0.98082
 C1353 C 0.77077 0.74086 0.98629
 C1354 C 0.77495 0.73608 0.97619
 C1355 C 0.76741 0.73110 0.96826
 C1356 C 0.75560 0.73094 0.97070
 C1357 C 0.75143 0.73574 0.98081
 C1358 C 0.76502 0.74866 1.01810
 C1359 C 0.76969 0.74422 1.02816
 C1360 C 0.76929 0.73239 1.03039
 C1361 C 0.76419 0.72512 1.02231
 C1362 C 0.75951 0.72956 1.01228
 H1363 H 0.73591 0.74232 1.01660
 H1364 H 0.72799 0.74993 1.03442
 H1365 H 0.73771 0.78405 1.02408
 H1366 H 0.74589 0.77635 1.00646
 H1367 H 0.72442 0.75555 0.99276
 H1368 H 0.71672 0.76403 0.97527
 H1369 H 0.75865 0.76480 0.98238
 H1370 H 0.77674 0.74465 0.99227
 H1371 H 0.78410 0.73616 0.97466
 H1372 H 0.74958 0.72722 0.96473
 H1373 H 0.74231 0.73546 0.98255
 H1374 H 0.76548 0.75778 1.01652
 H1375 H 0.77351 0.75004 1.03425
 H1376 H 0.76392 0.71596 1.02369
 H1377 H 0.75560 0.72379 1.00619
 H1378 H 0.75103 0.77304 0.96469
 C1379 C 0.75455 0.24616 0.49947
 C1380 C 0.74624 0.25436 0.49937
 C1381 C 0.74110 0.25882 0.51007
 C1382 C 0.74181 0.25931 0.48855
 C1383 C 0.75897 0.24102 0.48875
 C1384 C 0.75962 0.24185 0.51028
 C1385 C 0.73592 0.25144 0.51800
 C1386 C 0.73102 0.25580 0.52798
 C1387 C 0.73111 0.26764 0.53014
 C1388 C 0.73623 0.27500 0.52212
 C1389 C 0.74113 0.27063 0.51217
 C1390 C 0.73001 0.25907 0.48630
 C1391 C 0.72568 0.26370 0.47620
 C1392 C 0.73307 0.26876 0.46817
 C1393 C 0.74489 0.26913 0.47051
 C1394 C 0.74922 0.26447 0.48063
 C1395 C 0.77077 0.24122 0.48648
 C1396 C 0.77508 0.23647 0.47642
 C1397 C 0.76766 0.23133 0.46848
 C1398 C 0.75585 0.23097 0.47087
 C1399 C 0.75155 0.23574 0.48093
 C1400 C 0.76467 0.24936 0.51816
 C1401 C 0.76944 0.24515 0.52828
 C1402 C 0.76935 0.23334 0.53063
 C1403 C 0.76439 0.22586 0.52265
 C1404 C 0.75962 0.23008 0.51256
 H1405 H 0.73561 0.24232 0.51642
 H1406 H 0.72699 0.24994 0.53390
 H1407 H 0.73657 0.28413 0.52361
 H1408 H 0.74506 0.27646 0.50614
 H1409 H 0.72415 0.25521 0.49236
 H1410 H 0.71651 0.26345 0.47473
 H1411 H 0.75834 0.26491 0.48229
 H1412 H 0.77665 0.24515 0.49246
 H1413 H 0.78424 0.23669 0.47493
 H1414 H 0.74992 0.22713 0.46489
 H1415 H 0.74243 0.23532 0.48263
 H1416 H 0.76497 0.25846 0.51645
 H1417 H 0.77336 0.25110 0.53418
 H1418 H 0.76406 0.21675 0.52428
 H1419 H 0.75578 0.22415 0.50658
 H1420 H 0.75080 0.27291 0.46446
 C1421 C 0.74675 0.24691 0.00057
 C1422 C 0.75498 0.25518 0.00045
 C1423 C 0.75999 0.25951 -0.01038
 C1424 C 0.75945 0.26032 0.01115
 C1425 C 0.74233 0.24201 0.01141
 C1426 C 0.74168 0.24232 -0.01011
 C1427 C 0.76517 0.25206 -0.01823
 C1428 C 0.76987 0.25631 -0.02836
 C1429 C 0.76953 0.26810 -0.03078
 C1430 C 0.76447 0.27554 -0.02281
 C1431 C 0.75979 0.27128 -0.01269
 C1432 C 0.77126 0.26012 0.01335
 C1433 C 0.77561 0.26484 0.02340
 C1434 C 0.76824 0.26995 0.03140
 C1435 C 0.75641 0.27031 0.02908
 C1436 C 0.75206 0.26557 0.01903
 C1437 C 0.73052 0.24224 0.01365
 C1438 C 0.72620 0.23765 0.02377
 C1439 C 0.73360 0.23264 0.03182
 C1440 C 0.74542 0.23227 0.02949
 C1441 C 0.74974 0.23689 0.01935
 C1442 C 0.73641 0.24958 -0.01810
 C1443 C 0.73155 0.24508 -0.02803
 C1444 C 0.73177 0.23323 -0.03009
 C1445 C 0.73699 0.22600 -0.02202
 C1446 C 0.74185 0.23050 -0.01212
 H1447 H 0.76557 0.24297 -0.01651
 H1448 H 0.77366 0.25037 -0.03436
 H1449 H 0.76426 0.28467 -0.02433
 H1450 H 0.75593 0.27718 -0.00669
 H1451 H 0.77711 0.25620 0.00733
 H1452 H 0.78478 0.26461 0.02484
 H1453 H 0.74293 0.26597 0.01739
 H1454 H 0.72465 0.24606 0.00757
 H1455 H 0.71703 0.23787 0.02523
 H1456 H 0.75134 0.22853 0.03555
 H1457 H 0.75887 0.23645 0.01768
 H1458 H 0.73599 0.25871 -0.01659
 H1459 H 0.72743 0.25085 -0.03400
 H1460 H 0.73743 0.21685 -0.02343
 H1461 H 0.74585 0.22476 -0.00604
 H1462 H 0.75051 0.27413 0.03511
 C1463 C 0.74698 0.74680 0.50055
 C1464 C 0.75506 0.75522 0.50047
 C1465 C 0.75997 0.75970 0.48965
 C1466 C 0.75941 0.76040 0.51119
 C1467 C 0.74270 0.74172 0.51137
 C1468 C 0.74192 0.74225 0.48985
 C1469 C 0.76523 0.75236 0.48174
 C1470 C 0.76981 0.75673 0.47160
 C1471 C 0.76928 0.76852 0.46924
 C1472 C 0.76414 0.77584 0.47726
 C1473 C 0.75959 0.77148 0.48739
 C1474 C 0.77123 0.76045 0.51341
 C1475 C 0.77546 0.76521 0.52348
 C1476 C 0.76797 0.77012 0.53150
 C1477 C 0.75614 0.77023 0.52917
 C1478 C 0.75190 0.76545 0.51909
 C1479 C 0.73090 0.74170 0.51365
 C1480 C 0.72670 0.73692 0.52374
 C1481 C 0.73423 0.73198 0.53172
 C1482 C 0.74605 0.73187 0.52934
 C1483 C 0.75025 0.73668 0.51924
 C1484 C 0.73651 0.74952 0.48197
 C1485 C 0.73165 0.74505 0.47202
 C1486 C 0.73200 0.73322 0.46984
 C1487 C 0.73736 0.72598 0.47781
 C1488 C 0.74223 0.73045 0.48773
 H1489 H 0.76578 0.74327 0.48342
 H1490 H 0.77365 0.75087 0.46556
 H1491 H 0.76378 0.78498 0.47577
 H1492 H 0.75566 0.77728 0.49344
 H1493 H 0.77716 0.75669 0.50737
 H1494 H 0.78463 0.76518 0.52494
 H1495 H 0.74277 0.76567 0.51744
 H1496 H 0.72494 0.74546 0.50763
 H1497 H 0.71754 0.73696 0.52523
 H1498 H 0.75206 0.72818 0.53535
 H1499 H 0.75937 0.73644 0.51754
 H1500 H 0.73598 0.75863 0.48357
 H1501 H 0.72742 0.75082 0.46614
 H1502 H 0.73791 0.71686 0.47631
 H1503 H 0.74633 0.72470 0.49373
 H1504 H 0.75015 0.77389 0.53521
 C1505 C 0.99947 0.25359 0.24634
 C1506 C 0.99956 0.24528 0.25450
 C1507 C 1.01043 0.24086 0.25942
 C1508 C 0.98881 0.24013 0.25895
 C1509 C 0.98861 0.25856 0.24194
 C1510 C 1.01024 0.25818 0.24136
 C1511 C 1.01275 0.22910 0.25905
 C1512 C 1.02292 0.22477 0.26363
 C1513 C 1.03094 0.23213 0.26875
 C1514 C 1.02852 0.24391 0.26925
 C1515 C 1.01834 0.24823 0.26465
 C1516 C 0.98086 0.23493 0.25161
 C1517 C 0.97086 0.22999 0.25599
 C1518 C 0.96870 0.23006 0.26780
 C1519 C 0.97674 0.23522 0.27511
 C1520 C 0.98670 0.24015 0.27073
 C1521 C 0.98060 0.26361 0.24933
 C1522 C 0.97046 0.26832 0.24502
 C1523 C 0.96819 0.26812 0.23323
 C1524 C 0.97631 0.26317 0.22586
 C1525 C 0.98643 0.25848 0.23018
 C1526 C 1.01237 0.26998 0.24171
 C1527 C 1.02245 0.27446 0.23710
 C1528 C 1.03056 0.26722 0.23194
 C1529 C 1.02833 0.25541 0.23144
 C1530 C 1.01824 0.25093 0.23608
 H1531 H 1.00671 0.22326 0.25514
 H1532 H 1.02445 0.21564 0.26329
 H1533 H 1.03456 0.24979 0.27309
 H1534 H 1.01661 0.25732 0.26518
 H1535 H 0.98245 0.23461 0.24251
 H1536 H 0.96493 0.22593 0.25017
 H1537 H 0.99275 0.24411 0.27653
 H1538 H 0.98222 0.26393 0.25843
 H1539 H 0.96435 0.27202 0.25091
 H1540 H 0.97490 0.26307 0.21673
 H1541 H 0.99255 0.25472 0.22433
 H1542 H 1.00625 0.27572 0.24566
 H1543 H 1.02383 0.28361 0.23743
 H1544 H 1.03445 0.24961 0.22758
 H1545 H 1.01666 0.24182 0.23556
 H1546 H 0.97525 0.23555 0.28423
 C1547 C 0.49949 0.25365 0.74626
 C1548 C 0.49952 0.24534 0.75443
 C1549 C 0.51035 0.24089 0.75940
 C1550 C 0.48872 0.24027 0.75885
 C1551 C 0.48867 0.25865 0.74181
 C1552 C 0.51030 0.25821 0.74133
 C1553 C 0.51262 0.22911 0.75909
 C1554 C 0.52278 0.22476 0.76367
 C1555 C 0.53083 0.23211 0.76875
 C1556 C 0.52846 0.24390 0.76922
 C1557 C 0.51828 0.24824 0.76462
 C1558 C 0.48075 0.23512 0.75148
 C1559 C 0.47063 0.23039 0.75581
 C1560 C 0.46834 0.23065 0.76759
 C1561 C 0.47643 0.23567 0.77494
 C1562 C 0.48653 0.24038 0.77061
 C1563 C 0.48065 0.26376 0.74916
 C1564 C 0.47053 0.26846 0.74480
 C1565 C 0.46829 0.26820 0.73301
 C1566 C 0.47641 0.26321 0.72568
 C1567 C 0.48652 0.25853 0.73004
 C1568 C 0.51246 0.27000 0.74166
 C1569 C 0.52257 0.27445 0.73709
 C1570 C 0.53070 0.26719 0.73199
 C1571 C 0.52845 0.25537 0.73151
 C1572 C 0.51832 0.25093 0.73611
 H1573 H 0.50655 0.22329 0.75520
 H1574 H 0.52427 0.21562 0.76336
 H1575 H 0.53453 0.24977 0.77302
 H1576 H 0.51660 0.25734 0.76511
 H1577 H 0.48238 0.23478 0.74239
 H1578 H 0.46454 0.22663 0.74993
 H1579 H 0.49262 0.24422 0.77644
 H1580 H 0.48225 0.26412 0.75826
 H1581 H 0.46441 0.27220 0.75066
 H1582 H 0.47502 0.26306 0.71655
 H1583 H 0.49265 0.25473 0.72423
 H1584 H 0.50632 0.27577 0.74556
 H1585 H 0.52397 0.28360 0.73741
 H1586 H 0.53457 0.24956 0.72770
 H1587 H 0.51673 0.24181 0.73560
 H1588 H 0.47500 0.23583 0.78407
 C1589 C 0.00008 0.24515 0.74610
 C1590 C 0.00022 0.25384 0.75387
 C1591 C -0.01044 0.25939 0.75805
 C1592 C 0.01113 0.25830 0.75868
 C1593 C 0.01091 0.24049 0.74127
 C1594 C -0.01079 0.23999 0.74183
 C1595 C -0.01837 0.26429 0.75046
 C1596 C -0.02832 0.26954 0.75462
 C1597 C -0.03043 0.27009 0.76642
 C1598 C -0.02239 0.26528 0.77397
 C1599 C -0.01249 0.26002 0.76982
 C1600 C 0.01358 0.27002 0.75791
 C1601 C 0.02371 0.27440 0.76251
 C1602 C 0.03155 0.26715 0.76807
 C1603 C 0.02901 0.25542 0.76894
 C1604 C 0.01887 0.25104 0.76432
 C1605 C 0.01319 0.22873 0.74202
 C1606 C 0.02326 0.22420 0.73742
 C1607 C 0.03122 0.23134 0.73188
 C1608 C 0.02885 0.24312 0.73104
 C1609 C 0.01877 0.24764 0.73565
 C1610 C -0.01954 0.23652 0.74932
 C1611 C -0.02976 0.23194 0.74509
 C1612 C -0.03133 0.23035 0.73328
 C1613 C -0.02235 0.23341 0.72586
 C1614 C -0.01226 0.23824 0.73007
 H1615 H -0.01683 0.26409 0.74135
 H1616 H -0.03428 0.27332 0.74861
 H1617 H -0.02384 0.26542 0.78309
 H1618 H -0.00646 0.25631 0.77581
 H1619 H 0.00766 0.27578 0.75369
 H1620 H 0.02532 0.28350 0.76188
 H1621 H 0.01703 0.24200 0.76518
 H1622 H 0.00717 0.22306 0.74622
 H1623 H 0.02475 0.21508 0.73803
 H1624 H 0.03484 0.24885 0.72690
 H1625 H 0.01707 0.25671 0.73481
 H1626 H -0.01850 0.23742 0.75845
 H1627 H -0.03647 0.22979 0.75109
 H1628 H -0.02304 0.23201 0.71676
 H1629 H -0.00559 0.24066 0.72412
 H1630 H 0.03491 0.24961 0.77312
 C1631 C 0.50059 0.24523 0.24605
 C1632 C 0.50053 0.25388 0.25378
 C1633 C 0.48976 0.25911 0.25806
 C1634 C 0.51138 0.25855 0.25833
 C1635 C 0.51151 0.24060 0.24160
 C1636 C 0.48988 0.24002 0.24163
 C1637 C 0.48171 0.26389 0.25053
 C1638 C 0.47154 0.26867 0.25470
 C1639 C 0.46929 0.26879 0.26649
 C1640 C 0.47746 0.26416 0.27400
 C1641 C 0.48761 0.25941 0.26983
 C1642 C 0.51549 0.26906 0.25436
 C1643 C 0.52565 0.27362 0.25874
 C1644 C 0.53176 0.26782 0.26735
 C1645 C 0.52755 0.25722 0.27128
 C1646 C 0.51749 0.25260 0.26674
 C1647 C 0.51550 0.22997 0.24542
 C1648 C 0.52570 0.22543 0.24109
 C1649 C 0.53199 0.23137 0.23271
 C1650 C 0.52792 0.24208 0.22896
 C1651 C 0.51781 0.24668 0.23342
 C1652 C 0.48171 0.23527 0.24906
 C1653 C 0.47158 0.23058 0.24475
 C1654 C 0.46947 0.23050 0.23293
 C1655 C 0.47777 0.23507 0.22553
 C1656 C 0.48789 0.23974 0.22984
 H1657 H 0.48329 0.26389 0.24142
 H1658 H 0.46538 0.27212 0.24871
 H1659 H 0.47606 0.26431 0.28314
 H1660 H 0.49374 0.25584 0.27579
 H1661 H 0.51087 0.27370 0.24780
 H1662 H 0.52873 0.28165 0.25532
 H1663 H 0.51435 0.24448 0.26992
 H1664 H 0.51074 0.22522 0.25179
 H1665 H 0.52867 0.21729 0.24437
 H1666 H 0.53241 0.24682 0.22239
 H1667 H 0.51477 0.25489 0.23036
 H1668 H 0.48317 0.23526 0.25819
 H1669 H 0.46531 0.22716 0.25066
 H1670 H 0.47647 0.23496 0.21638
 H1671 H 0.49412 0.24328 0.22396
 H1672 H 0.53188 0.25260 0.27802
 C1673 C 0.99940 0.75380 0.74608
 C1674 C 0.99951 0.74564 0.75439
 C1675 C 1.01039 0.74124 0.75930
 C1676 C 0.98876 0.74060 0.75896
 C1677 C 0.98854 0.75873 0.74165
 C1678 C 1.01016 0.75824 0.74095
 C1679 C 1.01263 0.72945 0.75913
 C1680 C 1.02281 0.72514 0.76369
 C1681 C 1.03093 0.73254 0.76861
 C1682 C 1.02859 0.74434 0.76892
 C1683 C 1.01839 0.74865 0.76434
 C1684 C 0.98078 0.73530 0.75173
 C1685 C 0.97078 0.73047 0.75622
 C1686 C 0.96865 0.73074 0.76803
 C1687 C 0.97673 0.73598 0.77524
 C1688 C 0.98670 0.74081 0.77075
 C1689 C 0.98059 0.76395 0.74898
 C1690 C 0.97044 0.76861 0.74463
 C1691 C 0.96810 0.76818 0.73286
 C1692 C 0.97617 0.76307 0.72555
 C1693 C 0.98630 0.75844 0.72990
 C1694 C 1.01238 0.77002 0.74111
 C1695 C 1.02246 0.77435 0.73636
 C1696 C 1.03049 0.76698 0.73127
 C1697 C 1.02816 0.75517 0.73095
 C1698 C 1.01806 0.75085 0.73572
 H1699 H 1.00651 0.72359 0.75538
 H1700 H 1.02427 0.71600 0.76351
 H1701 H 1.03470 0.75025 0.77259
 H1702 H 1.01673 0.75776 0.76472
 H1703 H 0.98234 0.73483 0.74263
 H1704 H 0.96481 0.72634 0.75048
 H1705 H 0.99278 0.74484 0.77647
 H1706 H 0.98225 0.76443 0.75806
 H1707 H 0.96437 0.77244 0.75048
 H1708 H 0.97471 0.76280 0.71643
 H1709 H 0.99238 0.75455 0.72409
 H1710 H 1.00633 0.77587 0.74501
 H1711 H 1.02392 0.78350 0.73655
 H1712 H 1.03421 0.74928 0.72714
 H1713 H 1.01641 0.74174 0.73534
 H1714 H 0.97527 0.73645 0.78435
 C1715 C 0.49943 0.75399 0.24634
 C1716 C 0.49940 0.74575 0.25457
 C1717 C 0.51020 0.74124 0.25957
 C1718 C 0.48857 0.74078 0.25902
 C1719 C 0.48866 0.75905 0.24184
 C1720 C 0.51028 0.75839 0.24135
 C1721 C 0.51239 0.72945 0.25931
 C1722 C 0.52252 0.72505 0.26391
 C1723 C 0.53063 0.73236 0.26895
 C1724 C 0.52833 0.74417 0.26936
 C1725 C 0.51819 0.74857 0.26474
 C1726 C 0.48059 0.73562 0.25168
 C1727 C 0.47045 0.73095 0.25603
 C1728 C 0.46816 0.73130 0.26781
 C1729 C 0.47625 0.73635 0.27513
 C1730 C 0.48637 0.74099 0.27078
 C1731 C 0.48065 0.76424 0.24913
 C1732 C 0.47061 0.76908 0.24470
 C1733 C 0.46846 0.76887 0.23289
 C1734 C 0.47658 0.76378 0.22562
 C1735 C 0.48658 0.75896 0.23005
 C1736 C 0.51255 0.77017 0.24159
 C1737 C 0.52268 0.77448 0.23693
 C1738 C 0.53070 0.76710 0.23185
 C1739 C 0.52834 0.75530 0.23148
 C1740 C 0.51820 0.75099 0.23616
 H1741 H 0.50627 0.72365 0.25545
 H1742 H 0.52395 0.71590 0.26364
 H1743 H 0.53445 0.75003 0.27313
 H1744 H 0.51657 0.75768 0.26519
 H1745 H 0.48222 0.73520 0.24259
 H1746 H 0.46436 0.72717 0.25018
 H1747 H 0.49247 0.74484 0.27659
 H1748 H 0.48218 0.76457 0.25824
 H1749 H 0.46450 0.77288 0.25052
 H1750 H 0.47527 0.76367 0.21648
 H1751 H 0.49272 0.75510 0.22427
 H1752 H 0.50649 0.77602 0.24547
 H1753 H 0.52416 0.78362 0.23717
 H1754 H 0.53439 0.74941 0.22767
 H1755 H 0.51651 0.74189 0.23572
 H1756 H 0.47482 0.73657 0.28426
 C1757 C 0.00035 0.74552 0.24552
 C1758 C 0.00040 0.75376 0.25374
 C1759 C -0.01036 0.75883 0.25824
 C1760 C 0.01126 0.75819 0.25868
 C1761 C 0.01115 0.74109 0.24047
 C1762 C -0.01048 0.74050 0.24112
 C1763 C -0.01836 0.76404 0.25094
 C1764 C -0.02835 0.76895 0.25537
 C1765 C -0.03045 0.76884 0.26719
 C1766 C -0.02237 0.76368 0.27446
 C1767 C -0.01241 0.75877 0.27003
 C1768 C 0.01348 0.76998 0.25842
 C1769 C 0.02359 0.77433 0.26307
 C1770 C 0.03166 0.76697 0.26814
 C1771 C 0.02935 0.75517 0.26853
 C1772 C 0.01921 0.75082 0.26386
 C1773 C 0.01340 0.72931 0.24070
 C1774 C 0.02350 0.72498 0.23599
 C1775 C 0.03152 0.73235 0.23086
 C1776 C 0.02916 0.74415 0.23048
 C1777 C 0.01905 0.74848 0.23521
 C1778 C -0.01852 0.73549 0.24852
 C1779 C -0.02863 0.73073 0.24419
 C1780 C -0.03081 0.73080 0.23239
 C1781 C -0.02265 0.73568 0.22502
 C1782 C -0.01258 0.74044 0.22934
 H1783 H -0.01681 0.76438 0.24183
 H1784 H -0.03432 0.77302 0.24957
 H1785 H -0.02381 0.76332 0.28358
 H1786 H -0.00633 0.75481 0.27580
 H1787 H 0.00739 0.77581 0.25456
 H1788 H 0.02504 0.78347 0.26282
 H1789 H 0.01756 0.74171 0.26431
 H1790 H 0.00736 0.72347 0.24461
 H1791 H 0.02498 0.71584 0.23623
 H1792 H 0.03520 0.75004 0.22664
 H1793 H 0.01737 0.75758 0.23478
 H1794 H -0.01697 0.73525 0.25762
 H1795 H -0.03478 0.72710 0.25009
 H1796 H -0.02397 0.73567 0.21587
 H1797 H -0.00642 0.74415 0.22349
 H1798 H 0.03543 0.74929 0.27233
 C1799 C 0.50042 0.74584 0.74559
 C1800 C 0.50044 0.75410 0.75379
 C1801 C 0.48966 0.75916 0.75827
 C1802 C 0.51129 0.75853 0.75874
 C1803 C 0.51124 0.74141 0.74056
 C1804 C 0.48962 0.74075 0.74122
 C1805 C 0.48152 0.76410 0.75094
 C1806 C 0.47150 0.76896 0.75536
 C1807 C 0.46953 0.76910 0.76719
 C1808 C 0.47775 0.76424 0.77450
 C1809 C 0.48772 0.75935 0.77008
 C1810 C 0.51355 0.77031 0.75846
 C1811 C 0.52366 0.77465 0.76313
 C1812 C 0.53168 0.76729 0.76827
 C1813 C 0.52933 0.75549 0.76867
 C1814 C 0.51921 0.75116 0.76398
 C1815 C 0.51351 0.72963 0.74084
 C1816 C 0.52361 0.72530 0.73614
 C1817 C 0.53162 0.73266 0.73099
 C1818 C 0.52925 0.74446 0.73057
 C1819 C 0.51913 0.74879 0.73529
 C1820 C 0.48169 0.73558 0.74863
 C1821 C 0.47166 0.73066 0.74432
 C1822 C 0.46944 0.73071 0.73252
 C1823 C 0.47745 0.73584 0.72515
 C1824 C 0.48745 0.74076 0.72945
 H1825 H 0.48297 0.76428 0.74181
 H1826 H 0.46539 0.77279 0.74954
 H1827 H 0.47641 0.76411 0.78365
 H1828 H 0.49391 0.75561 0.77589
 H1829 H 0.50749 0.77615 0.75455
 H1830 H 0.52512 0.78379 0.76287
 H1831 H 0.51753 0.74206 0.76445
 H1832 H 0.50747 0.72380 0.74478
 H1833 H 0.52510 0.71616 0.73642
 H1834 H 0.53528 0.75034 0.72671
 H1835 H 0.51744 0.75789 0.73482
 H1836 H 0.48332 0.73528 0.75772
 H1837 H 0.46574 0.72662 0.75019
 H1838 H 0.47592 0.73616 0.71604
 H1839 H 0.49347 0.74468 0.72360
 H1840 H 0.53537 0.74960 0.77252
 C1841 C 0.39764 0.30334 0.30064
 C1842 C 0.39326 0.31392 0.29697
 C1843 C 0.38361 0.31870 0.30222
 C1844 C 0.37811 0.31302 0.31128
 C1845 C 0.38251 0.30242 0.31493
 C1846 C 0.39215 0.29765 0.30968
 C1847 C 0.40792 0.29827 0.29511
 C1848 C 0.40853 0.28645 0.29303
 C1849 C 0.41829 0.28163 0.28806
 C1850 C 0.42767 0.28854 0.28502
 C1851 C 0.42702 0.30038 0.28698
 C1852 C 0.41726 0.30520 0.29198
 C1853 C 0.43818 0.28337 0.28005
 C1854 C 0.44403 0.28879 0.27106
 C1855 C 0.45406 0.28401 0.26656
 C1856 C 0.45846 0.27373 0.27100
 C1857 C 0.45255 0.26827 0.27992
 C1858 C 0.44252 0.27303 0.28439
 H1859 H 0.39721 0.31846 0.28994
 H1860 H 0.38054 0.32687 0.29914
 H1861 H 0.37856 0.29774 0.32185
 H1862 H 0.39541 0.28956 0.31282
 H1863 H 0.40140 0.28091 0.29516
 H1864 H 0.41846 0.27251 0.28649
 H1865 H 0.43418 0.30590 0.28490
 H1866 H 0.41713 0.31431 0.29362
 H1867 H 0.44083 0.29671 0.26747
 H1868 H 0.45847 0.28846 0.25975
 H1869 H 0.45566 0.26028 0.28343
 H1870 H 0.43828 0.26870 0.29139
 C1871 C 0.39775 0.80311 0.80165
 C1872 C 0.39265 0.79796 0.81121
 C1873 C 0.38286 0.80270 0.81620
 C1874 C 0.37785 0.81275 0.81176
 C1875 C 0.38301 0.81785 0.80212
 C1876 C 0.39281 0.81310 0.79716
 C1877 C 0.40824 0.79813 0.79644
 C1878 C 0.40962 0.79788 0.78453
 C1879 C 0.41953 0.79325 0.77965
 C1880 C 0.42829 0.78877 0.78658
 C1881 C 0.42688 0.78898 0.79849
 C1882 C 0.41699 0.79361 0.80336
 C1883 C 0.43886 0.78391 0.78144
 C1884 C 0.44961 0.78592 0.78648
 C1885 C 0.45955 0.78118 0.78180
 C1886 C 0.45898 0.77435 0.77196
 C1887 C 0.44827 0.77245 0.76682
 C1888 C 0.43831 0.77717 0.77152
 H1889 H 0.39615 0.79015 0.81478
 H1890 H 0.37927 0.79836 0.82352
 H1891 H 0.37961 0.82558 0.79835
 H1892 H 0.39663 0.81737 0.78990
 H1893 H 0.40299 0.80118 0.77896
 H1894 H 0.42040 0.79331 0.77045
 H1895 H 0.43340 0.78546 0.80406
 H1896 H 0.41625 0.79378 0.81257
 H1897 H 0.45036 0.79125 0.79399
 H1898 H 0.46771 0.78295 0.78583
 H1899 H 0.44756 0.76711 0.75931
 H1900 H 0.43015 0.77534 0.76752
 C1901 C -0.10251 0.30381 0.80043
 C1902 C -0.10786 0.29814 0.80956
 C1903 C -0.11771 0.30268 0.81462
 C1904 C -0.12245 0.31302 0.81069
 C1905 C -0.11712 0.31865 0.80149
 C1906 C -0.10728 0.31410 0.79642
 C1907 C -0.09193 0.29907 0.79520
 C1908 C -0.09036 0.29927 0.78330
 C1909 C -0.08038 0.29480 0.77841
 C1910 C -0.07174 0.29008 0.78532
 C1911 C -0.07331 0.28989 0.79721
 C1912 C -0.08329 0.29432 0.80209
 C1913 C -0.06112 0.28532 0.78018
 C1914 C -0.05042 0.28727 0.78533
 C1915 C -0.04046 0.28248 0.78076
 C1916 C -0.04096 0.27561 0.77093
 C1917 C -0.05163 0.27383 0.76565
 C1918 C -0.06161 0.27863 0.77023
 H1919 H -0.10449 0.29011 0.81273
 H1920 H -0.12159 0.29800 0.82159
 H1921 H -0.12043 0.32666 0.79824
 H1922 H -0.10327 0.31874 0.78949
 H1923 H -0.09692 0.30278 0.77776
 H1924 H -0.07938 0.29515 0.76923
 H1925 H -0.06686 0.28619 0.80274
 H1926 H -0.08418 0.29415 0.81128
 H1927 H -0.04974 0.29256 0.79288
 H1928 H -0.03234 0.28418 0.78489
 H1929 H -0.05231 0.26846 0.75815
 H1930 H -0.06974 0.27687 0.76614
 C1931 C -0.10208 0.80309 0.30165
 C1932 C -0.10780 0.79738 0.31054
 C1933 C -0.11759 0.80214 0.31552
 C1934 C -0.12190 0.81273 0.31175
 C1935 C -0.11617 0.81842 0.30283
 C1936 C -0.10638 0.81365 0.29784
 C1937 C -0.09161 0.79809 0.29644
 C1938 C -0.08985 0.79861 0.28459
 C1939 C -0.07995 0.79395 0.27971
 C1940 C -0.07160 0.78870 0.28659
 C1941 C -0.07338 0.78817 0.29844
 C1942 C -0.08327 0.79280 0.30331
 C1943 C -0.06104 0.78381 0.28145
 C1944 C -0.05037 0.78525 0.28683
 C1945 C -0.04046 0.78048 0.28215
 C1946 C -0.04097 0.77414 0.27198
 C1947 C -0.05161 0.77280 0.26652
 C1948 C -0.06154 0.77758 0.27121
 H1949 H -0.10479 0.78915 0.31355
 H1950 H -0.12179 0.79742 0.32227
 H1951 H -0.11912 0.82662 0.29974
 H1952 H -0.10207 0.81834 0.29112
 H1953 H -0.09617 0.80253 0.27906
 H1954 H -0.07878 0.79458 0.27057
 H1955 H -0.06715 0.78406 0.30395
 H1956 H -0.08433 0.79237 0.31248
 H1957 H -0.04968 0.79018 0.29462
 H1958 H -0.03235 0.78186 0.28644
 H1959 H -0.05230 0.76784 0.25875
 H1960 H -0.06966 0.77621 0.26694
 C1961 C 0.60235 0.69821 0.30344
 C1962 C 0.60839 0.68947 0.29783
 C1963 C 0.61817 0.68463 0.30276
 C1964 C 0.62215 0.68841 0.31344
 C1965 C 0.61607 0.69715 0.31906
 C1966 C 0.60630 0.70199 0.31411
 C1967 C 0.59196 0.70336 0.29821
 C1968 C 0.59003 0.71521 0.29880
 C1969 C 0.58020 0.72005 0.29394
 C1970 C 0.57208 0.71313 0.28840
 C1971 C 0.57403 0.70127 0.28780
 C1972 C 0.58385 0.69644 0.29264
 C1973 C 0.56159 0.71823 0.28331
 C1974 C 0.55739 0.71431 0.27278
 C1975 C 0.54741 0.71895 0.26809
 C1976 C 0.54139 0.72764 0.27382
 C1977 C 0.54564 0.73166 0.28429
 C1978 C 0.55563 0.72700 0.28899
 H1979 H 0.60564 0.68647 0.28953
 H1980 H 0.62264 0.67801 0.29811
 H1981 H 0.61875 0.70024 0.32733
 H1982 H 0.60173 0.70860 0.31873
 H1983 H 0.59620 0.72079 0.30288
 H1984 H 0.57904 0.72923 0.29439
 H1985 H 0.56784 0.69568 0.28375
 H1986 H 0.58501 0.68726 0.29221
 H1987 H 0.56190 0.70771 0.26809
 H1988 H 0.54445 0.71582 0.25991
 H1989 H 0.54111 0.73823 0.28898
 H1990 H 0.55855 0.73010 0.29719
 C1991 C 0.60265 0.19814 0.80322
 C1992 C 0.60659 0.20195 0.81388
 C1993 C 0.61632 0.19709 0.81886
 C1994 C 0.62237 0.18830 0.81331
 C1995 C 0.61842 0.18450 0.80263
 C1996 C 0.60867 0.18936 0.79765
 C1997 C 0.59226 0.20327 0.79796
 C1998 C 0.58416 0.19635 0.79240
 C1999 C 0.57433 0.20116 0.78755
 C2000 C 0.57237 0.21301 0.78814
 C2001 C 0.58049 0.21995 0.79367
 C2002 C 0.59032 0.21513 0.79853
 C2003 C 0.56187 0.21810 0.78306
 C2004 C 0.55588 0.22683 0.78876
 C2005 C 0.54587 0.23145 0.78407
 C2006 C 0.54163 0.22743 0.77359
 C2007 C 0.54768 0.21879 0.76784
 C2008 C 0.55769 0.21418 0.77252
 H2009 H 0.60203 0.20859 0.81846
 H2010 H 0.61899 0.20019 0.82714
 H2011 H 0.62288 0.17784 0.79802
 H2012 H 0.60594 0.18634 0.78935
 H2013 H 0.58531 0.18716 0.79199
 H2014 H 0.56814 0.19556 0.78352
 H2015 H 0.57932 0.22913 0.79412
 H2016 H 0.59649 0.22072 0.80260
 H2017 H 0.55879 0.22993 0.79697
 H2018 H 0.54130 0.23800 0.78878
 H2019 H 0.54474 0.21566 0.75966
 H2020 H 0.56223 0.20761 0.76782
 C2021 C 1.10257 0.69847 0.80330
 C2022 C 1.10850 0.68957 0.79781
 C2023 C 1.11821 0.68467 0.80284
 C2024 C 1.12220 0.68855 0.81348
 C2025 C 1.11625 0.69746 0.81895
 C2026 C 1.10656 0.70236 0.81391
 C2027 C 1.09222 0.70364 0.79800
 C2028 C 1.09040 0.71552 0.79842
 C2029 C 1.08061 0.72037 0.79351
 C2030 C 1.07242 0.71344 0.78808
 C2031 C 1.07426 0.70156 0.78764
 C2032 C 1.08405 0.69672 0.79253
 C2033 C 1.06195 0.71856 0.78296
 C2034 C 1.05772 0.71454 0.77247
 C2035 C 1.04772 0.71915 0.76778
 C2036 C 1.04173 0.72790 0.77345
 C2037 C 1.04603 0.73202 0.78387
 C2038 C 1.05603 0.72739 0.78857
 H2039 H 1.10573 0.68650 0.78955
 H2040 H 1.12260 0.67792 0.79829
 H2041 H 1.11895 0.70061 0.82719
 H2042 H 1.10207 0.70909 0.81843
 H2043 H 1.09663 0.72110 0.80241
 H2044 H 1.07952 0.72957 0.79384
 H2045 H 1.06802 0.69598 0.78368
 H2046 H 1.08512 0.68752 0.79223
 H2047 H 1.06220 0.70789 0.76784
 H2048 H 1.04473 0.71594 0.75965
 H2049 H 1.04152 0.73864 0.78851
 H2050 H 1.05898 0.73056 0.79674
 C2051 C 1.10258 0.19808 0.30348
 C2052 C 1.10645 0.20178 0.31420
 C2053 C 1.11620 0.19693 0.31917
 C2054 C 1.12234 0.18826 0.31352
 C2055 C 1.11844 0.18455 0.30278
 C2056 C 1.10868 0.18940 0.29783
 C2057 C 1.09219 0.20323 0.29823
 C2058 C 1.08415 0.19633 0.29256
 C2059 C 1.07435 0.20116 0.28768
 C2060 C 1.07236 0.21300 0.28834
 C2061 C 1.08042 0.21991 0.29400
 C2062 C 1.09022 0.21507 0.29889
 C2063 C 1.06190 0.21811 0.28321
 C2064 C 1.05584 0.22680 0.28891
 C2065 C 1.04587 0.23144 0.28417
 C2066 C 1.04171 0.22747 0.27364
 C2067 C 1.04783 0.21887 0.26789
 C2068 C 1.05781 0.21424 0.27261
 H2069 H 1.10183 0.20833 0.31885
 H2070 H 1.11882 0.19995 0.32748
 H2071 H 1.12296 0.17799 0.29810
 H2072 H 1.10599 0.18647 0.28948
 H2073 H 1.08534 0.18715 0.29206
 H2074 H 1.06821 0.19558 0.28355
 H2075 H 1.07922 0.22908 0.29451
 H2076 H 1.09635 0.22064 0.30306
 H2077 H 1.05868 0.22985 0.29716
 H2078 H 1.04125 0.23794 0.28888
 H2079 H 1.04495 0.21578 0.25966
 H2080 H 1.06239 0.20771 0.26791
 C2081 C 0.60211 0.30174 0.69733
 C2082 C 0.60601 0.29802 0.68662
 C2083 C 0.61573 0.30291 0.68163
 C2084 C 0.62181 0.31163 0.68725
 C2085 C 0.61788 0.31536 0.69797
 C2086 C 0.60815 0.31048 0.70294
 C2087 C 0.59177 0.29654 0.70260
 C2088 C 0.58365 0.30341 0.70823
 C2089 C 0.57387 0.29853 0.71310
 C2090 C 0.57199 0.28666 0.71247
 C2091 C 0.58012 0.27979 0.70687
 C2092 C 0.58990 0.28468 0.70199
 C2093 C 0.56154 0.28150 0.71758
 C2094 C 0.55559 0.27275 0.71187
 C2095 C 0.54564 0.26803 0.71659
 C2096 C 0.54142 0.27197 0.72711
 C2097 C 0.54743 0.28065 0.73286
 C2098 C 0.55737 0.28535 0.72815
 H2099 H 0.60144 0.29142 0.68200
 H2100 H 0.61837 0.29987 0.67333
 H2101 H 0.62236 0.32197 0.70262
 H2102 H 0.60544 0.31343 0.71128
 H2103 H 0.58477 0.31259 0.70869
 H2104 H 0.56768 0.30407 0.71719
 H2105 H 0.57900 0.27061 0.70640
 H2106 H 0.59608 0.27914 0.69786
 H2107 H 0.55848 0.26971 0.70363
 H2108 H 0.54111 0.26147 0.71188
 H2109 H 0.54449 0.28372 0.74107
 H2110 H 0.56187 0.29194 0.73285
 C2111 C 0.60197 0.80131 0.19663
 C2112 C 0.60593 0.79757 0.18595
 C2113 C 0.61563 0.80252 0.18097
 C2114 C 0.62160 0.81134 0.18657
 C2115 C 0.61764 0.81504 0.19728
 C2116 C 0.60794 0.81009 0.20225
 C2117 C 0.59162 0.79611 0.20188
 C2118 C 0.58351 0.80300 0.20749
 C2119 C 0.57376 0.79813 0.21243
 C2120 C 0.57190 0.78626 0.21189
 C2121 C 0.58000 0.77937 0.20627
 C2122 C 0.58976 0.78424 0.20132
 C2123 C 0.56151 0.78112 0.21713
 C2124 C 0.55549 0.77235 0.21153
 C2125 C 0.54557 0.76770 0.21636
 C2126 C 0.54144 0.77175 0.22688
 C2127 C 0.54753 0.78042 0.23253
 C2128 C 0.55746 0.78506 0.22771
 H2129 H 0.60142 0.79092 0.18134
 H2130 H 0.61832 0.79950 0.17268
 H2131 H 0.62205 0.82170 0.20193
 H2132 H 0.60520 0.81304 0.21057
 H2133 H 0.58461 0.81219 0.20790
 H2134 H 0.56758 0.80369 0.21652
 H2135 H 0.57889 0.77019 0.20585
 H2136 H 0.59593 0.77870 0.19720
 H2137 H 0.55831 0.76924 0.20330
 H2138 H 0.54097 0.76113 0.21174
 H2139 H 0.54467 0.78357 0.24074
 H2140 H 0.56202 0.79166 0.23233
 C2141 C 1.10190 0.30180 0.19716
 C2142 C 1.10796 0.31052 0.20278
 C2143 C 1.11771 0.31538 0.19782
 C2144 C 1.12163 0.31166 0.18709
 C2145 C 1.11552 0.30296 0.18146
 C2146 C 1.10579 0.29809 0.18644
 C2147 C 1.09156 0.29661 0.20243
 C2148 C 1.08967 0.28475 0.20180
 C2149 C 1.07990 0.27987 0.20669
 C2150 C 1.07179 0.28674 0.21233
 C2151 C 1.07370 0.29860 0.21298
 C2152 C 1.08347 0.30348 0.20810
 C2153 C 1.06135 0.28158 0.21745
 C2154 C 1.05720 0.28543 0.22804
 C2155 C 1.04727 0.28071 0.23276
 C2156 C 1.04126 0.27203 0.22702
 C2157 C 1.04546 0.26810 0.21649
 C2158 C 1.05538 0.27283 0.21175
 H2159 H 1.10526 0.31346 0.21112
 H2160 H 1.12220 0.32198 0.20248
 H2161 H 1.11815 0.29992 0.17316
 H2162 H 1.10120 0.29151 0.18181
 H2163 H 1.09584 0.27922 0.19765
 H2164 H 1.07877 0.27069 0.20620
 H2165 H 1.06752 0.30415 0.21710
 H2166 H 1.08460 0.31266 0.20858
 H2167 H 1.06171 0.29201 0.23273
 H2168 H 1.04435 0.28378 0.24098
 H2169 H 1.04092 0.26154 0.21179
 H2170 H 1.05826 0.26980 0.20351
 C2171 C 1.10190 0.80110 0.69625
 C2172 C 1.10594 0.79741 0.68557
 C2173 C 1.11566 0.80239 0.68068
 C2174 C 1.12159 0.81119 0.68634
 C2175 C 1.11753 0.81487 0.69703
 C2176 C 1.10781 0.80988 0.70192
 C2177 C 1.09155 0.79582 0.70143
 C2178 C 1.09114 0.79347 0.71318
 C2179 C 1.08137 0.78858 0.71807
 C2180 C 1.07179 0.78592 0.71130
 C2181 C 1.07221 0.78822 0.69954
 C2182 C 1.08198 0.79312 0.69466
 C2183 C 1.06134 0.78088 0.71651
 C2184 C 1.05531 0.77211 0.71095
 C2185 C 1.04536 0.76751 0.71577
 C2186 C 1.04121 0.77163 0.72626
 C2187 C 1.04730 0.78035 0.73186
 C2188 C 1.05725 0.78492 0.72705
 H2189 H 1.10165 0.79057 0.68104
 H2190 H 1.11845 0.79933 0.67243
 H2191 H 1.12184 0.82158 0.70170
 H2192 H 1.10483 0.81300 0.71010
 H2193 H 1.09845 0.79528 0.71859
 H2194 H 1.08137 0.78675 0.72713
 H2195 H 1.06490 0.78644 0.69414
 H2196 H 1.08196 0.79500 0.68561
 H2197 H 1.05832 0.76874 0.70288
 H2198 H 1.04080 0.76087 0.71121
 H2199 H 1.04439 0.78360 0.74001
 H2200 H 1.06165 0.79174 0.73149
 C2201 C 0.39748 0.69683 0.69845
 C2202 C 0.39175 0.70265 0.68964
 C2203 C 0.38197 0.69797 0.68460
 C2204 C 0.37767 0.68733 0.68822
 C2205 C 0.38338 0.68154 0.69710
 C2206 C 0.39316 0.68624 0.70215
 C2207 C 0.40799 0.70173 0.70365
 C2208 C 0.40981 0.70113 0.71549
 C2209 C 0.41975 0.70572 0.72035
 C2210 C 0.42810 0.71096 0.71345
 C2211 C 0.42627 0.71157 0.70161
 C2212 C 0.41633 0.70701 0.69677
 C2213 C 0.43871 0.71577 0.71854
 C2214 C 0.44934 0.71428 0.71309
 C2215 C 0.45930 0.71902 0.71770
 C2216 C 0.45888 0.72539 0.72785
 C2217 C 0.44827 0.72676 0.73340
 C2218 C 0.43830 0.72200 0.72879
 H2219 H 0.39477 0.71091 0.68672
 H2220 H 0.37779 0.70277 0.67789
 H2221 H 0.38042 0.67331 0.70010
 H2222 H 0.39747 0.68148 0.70882
 H2223 H 0.40350 0.69721 0.72102
 H2224 H 0.42097 0.70505 0.72948
 H2225 H 0.43248 0.71566 0.69609
 H2226 H 0.41523 0.70750 0.68761
 H2227 H 0.44997 0.70934 0.70531
 H2228 H 0.46737 0.71762 0.71334
 H2229 H 0.44765 0.73174 0.74116
 H2230 H 0.43021 0.72341 0.73312
 C2231 C 0.39756 0.19671 0.19863
 C2232 C 0.39311 0.18622 0.20246
 C2233 C 0.38331 0.18155 0.19742
 C2234 C 0.37770 0.18728 0.18845
 C2235 C 0.38213 0.19782 0.18469
 C2236 C 0.39194 0.20246 0.18971
 C2237 C 0.40806 0.20162 0.20386
 C2238 C 0.41648 0.20677 0.19699
 C2239 C 0.42633 0.21146 0.20188
 C2240 C 0.42799 0.21114 0.21376
 C2241 C 0.41959 0.20594 0.22063
 C2242 C 0.40974 0.20122 0.21573
 C2243 C 0.43845 0.21623 0.21891
 C2244 C 0.44414 0.21073 0.22797
 C2245 C 0.45414 0.21541 0.23261
 C2246 C 0.45866 0.22567 0.22829
 C2247 C 0.45289 0.23124 0.21934
 C2248 C 0.44290 0.22658 0.21472
 H2249 H 0.39734 0.18152 0.20922
 H2250 H 0.38025 0.17339 0.20052
 H2251 H 0.37803 0.20257 0.17791
 H2252 H 0.39506 0.21065 0.18669
 H2253 H 0.41553 0.20702 0.18780
 H2254 H 0.43274 0.21521 0.19633
 H2255 H 0.42055 0.20569 0.22981
 H2256 H 0.40333 0.19744 0.22126
 H2257 H 0.44101 0.20266 0.23129
 H2258 H 0.45848 0.21086 0.23941
 H2259 H 0.45606 0.23928 0.21597
 H2260 H 0.43859 0.23114 0.20791
 C2261 C -0.10202 0.69579 0.19788
 C2262 C -0.10687 0.68563 0.20211
 C2263 C -0.11681 0.68110 0.19719
 C2264 C -0.12211 0.68662 0.18792
 C2265 C -0.11722 0.69677 0.18368
 C2266 C -0.10731 0.70129 0.18860
 C2267 C -0.09151 0.70068 0.20312
 C2268 C -0.08293 0.70556 0.19625
 C2269 C -0.07317 0.71041 0.20116
 C2270 C -0.07175 0.71048 0.21307
 C2271 C -0.08026 0.70550 0.21995
 C2272 C -0.09004 0.70066 0.21503
 C2273 C -0.06144 0.71581 0.21825
 C2274 C -0.05574 0.71051 0.22741
 C2275 C -0.04587 0.71542 0.23208
 C2276 C -0.04150 0.72575 0.22771
 C2277 C -0.04732 0.73112 0.21867
 C2278 C -0.05716 0.72620 0.21399
 H2279 H -0.10291 0.68110 0.20914
 H2280 H -0.12024 0.67322 0.20061
 H2281 H -0.12111 0.70135 0.17666
 H2282 H -0.10389 0.70923 0.18526
 H2283 H -0.08370 0.70552 0.18704
 H2284 H -0.06666 0.71400 0.19563
 H2285 H -0.07946 0.70555 0.22916
 H2286 H -0.09657 0.69711 0.22057
 H2287 H -0.05876 0.70243 0.23079
 H2288 H -0.04150 0.71100 0.23894
 H2289 H -0.04430 0.73919 0.21526
 H2290 H -0.06149 0.73060 0.20708
 C2291 C -0.10396 0.19624 0.69980
 C2292 C -0.10426 0.18450 0.69710
 C2293 C -0.11390 0.17968 0.69190
 C2294 C -0.12335 0.18651 0.68904
 C2295 C -0.12312 0.19821 0.69169
 C2296 C -0.11360 0.20299 0.69713
 C2297 C -0.09359 0.20144 0.70516
 C2298 C -0.09041 0.21278 0.70267
 C2299 C -0.08062 0.21761 0.70756
 C2300 C -0.07355 0.21117 0.71488
 C2301 C -0.07674 0.19983 0.71738
 C2302 C -0.08667 0.19508 0.71269
 C2303 C -0.06283 0.21620 0.71972
 C2304 C -0.05877 0.21287 0.73053
 C2305 C -0.04857 0.21738 0.73490
 C2306 C -0.04224 0.22553 0.72868
 C2307 C -0.04642 0.22900 0.71796
 C2308 C -0.05647 0.22430 0.71349
 H2309 H -0.09695 0.17904 0.69876
 H2310 H -0.11381 0.17065 0.68983
 H2311 H -0.13038 0.20364 0.68970
 H2312 H -0.11387 0.21198 0.69931
 H2313 H -0.09536 0.21793 0.69679
 H2314 H -0.07864 0.22643 0.70558
 H2315 H -0.07148 0.19450 0.72283
 H2316 H -0.08892 0.18640 0.71502
 H2317 H -0.06348 0.20682 0.73571
 H2318 H -0.04559 0.21435 0.74311
 H2319 H -0.04197 0.23541 0.71298
 H2320 H -0.05914 0.22697 0.70505
 C2321 C 0.30194 0.39717 0.30302
 C2322 C 0.31077 0.39132 0.29733
 C2323 C 0.31585 0.38166 0.30222
 C2324 C 0.31223 0.37762 0.31295
 C2325 C 0.30338 0.38349 0.31862
 C2326 C 0.29830 0.39314 0.31371
 C2327 C 0.29660 0.40748 0.29783
 C2328 C 0.28469 0.40922 0.29847
 C2329 C 0.27968 0.41892 0.29358
 C2330 C 0.28646 0.42710 0.28794
 C2331 C 0.29837 0.42536 0.28732
 C2332 C 0.30338 0.41566 0.29220
 C2333 C 0.28117 0.43743 0.28275
 C2334 C 0.28501 0.44155 0.27215
 C2335 C 0.28023 0.45141 0.26737
 C2336 C 0.27148 0.45738 0.27307
 C2337 C 0.26753 0.45320 0.28361
 C2338 C 0.27233 0.44334 0.28840
 H2339 H 0.31366 0.39411 0.28900
 H2340 H 0.32254 0.37733 0.29751
 H2341 H 0.30042 0.38074 0.32693
 H2342 H 0.29163 0.39757 0.31838
 H2343 H 0.27922 0.40299 0.30261
 H2344 H 0.27046 0.41994 0.29407
 H2345 H 0.30385 0.43160 0.28321
 H2346 H 0.31260 0.41465 0.29172
 H2347 H 0.29166 0.43708 0.26749
 H2348 H 0.28331 0.45431 0.25914
 H2349 H 0.26091 0.45770 0.28828
 H2350 H 0.26929 0.44047 0.29665
 C2351 C 0.30337 -0.10325 0.80159
 C2352 C 0.29831 -0.10826 0.81124
 C2353 C 0.30319 -0.11790 0.81636
 C2354 C 0.31329 -0.12286 0.81193
 C2355 C 0.31832 -0.11775 0.80223
 C2356 C 0.31344 -0.10808 0.79716
 C2357 C 0.29817 -0.09301 0.79616
 C2358 C 0.30509 -0.08390 0.79245
 C2359 C 0.30018 -0.07420 0.78745
 C2360 C 0.28824 -0.07342 0.78602
 C2361 C 0.28133 -0.08257 0.78966
 C2362 C 0.28624 -0.09225 0.79469
 C2363 C 0.28299 -0.06301 0.78091
 C2364 C 0.27275 -0.05851 0.78535
 C2365 C 0.26791 -0.04862 0.78071
 C2366 C 0.27321 -0.04295 0.77153
 C2367 C 0.28340 -0.04750 0.76702
 C2368 C 0.28824 -0.05742 0.77165
 H2369 H 0.29061 -0.10463 0.81493
 H2370 H 0.29895 -0.12140 0.82378
 H2371 H 0.32606 -0.12114 0.79843
 H2372 H 0.31747 -0.10447 0.78965
 H2373 H 0.31430 -0.08417 0.79362
 H2374 H 0.30572 -0.06722 0.78491
 H2375 H 0.27212 -0.08232 0.78850
 H2376 H 0.28071 -0.09922 0.79730
 H2377 H 0.26856 -0.06254 0.79256
 H2378 H 0.25997 -0.04542 0.78430
 H2379 H 0.28776 -0.04329 0.76002
 H2380 H 0.29607 -0.06075 0.76795
 C2381 C 0.80188 0.39704 0.80320
 C2382 C 0.79767 0.39245 0.81345
 C2383 C 0.80265 0.38269 0.81825
 C2384 C 0.81203 0.37723 0.81294
 C2385 C 0.81621 0.38191 0.80265
 C2386 C 0.81120 0.39165 0.79786
 C2387 C 0.79658 0.40742 0.79809
 C2388 C 0.80346 0.41591 0.79307
 C2389 C 0.79849 0.42563 0.78818
 C2390 C 0.78653 0.42709 0.78823
 C2391 C 0.77965 0.41863 0.79330
 C2392 C 0.78462 0.40889 0.79816
 C2393 C 0.78128 0.43743 0.78302
 C2394 C 0.77216 0.44310 0.78844
 C2395 C 0.76740 0.45298 0.78364
 C2396 C 0.77164 0.45737 0.77330
 C2397 C 0.78067 0.45160 0.76781
 C2398 C 0.78544 0.44175 0.77262
 H2399 H 0.79059 0.39650 0.81786
 H2400 H 0.79910 0.37955 0.82617
 H2401 H 0.82333 0.37809 0.79814
 H2402 H 0.81455 0.39489 0.78986
 H2403 H 0.81271 0.41513 0.79305
 H2404 H 0.80403 0.43210 0.78452
 H2405 H 0.77040 0.41945 0.79332
 H2406 H 0.77907 0.40242 0.80181
 H2407 H 0.76887 0.44005 0.79653
 H2408 H 0.76056 0.45731 0.78815
 H2409 H 0.78399 0.45466 0.75973
 H2410 H 0.79232 0.43745 0.76815
 C2411 C 0.80305 -0.10313 0.30170
 C2412 C 0.79801 -0.10811 0.31137
 C2413 C 0.80287 -0.11779 0.31646
 C2414 C 0.81290 -0.12281 0.31198
 C2415 C 0.81791 -0.11775 0.30224
 C2416 C 0.81306 -0.10804 0.29720
 C2417 C 0.79790 -0.09284 0.29632
 C2418 C 0.80488 -0.08378 0.29258
 C2419 C 0.80003 -0.07404 0.28760
 C2420 C 0.78808 -0.07316 0.28621
 C2421 C 0.78112 -0.08227 0.28989
 C2422 C 0.78597 -0.09198 0.29490
 C2423 C 0.78290 -0.06273 0.28109
 C2424 C 0.77268 -0.05816 0.28553
 C2425 C 0.76790 -0.04825 0.28086
 C2426 C 0.77322 -0.04264 0.27166
 C2427 C 0.78339 -0.04726 0.26716
 C2428 C 0.78818 -0.05719 0.27182
 H2429 H 0.79036 -0.10443 0.31511
 H2430 H 0.79865 -0.12126 0.32391
 H2431 H 0.82559 -0.12118 0.29840
 H2432 H 0.81707 -0.10446 0.28967
 H2433 H 0.81409 -0.08412 0.29371
 H2434 H 0.80561 -0.06710 0.28504
 H2435 H 0.77191 -0.08194 0.28877
 H2436 H 0.78040 -0.09890 0.29754
 H2437 H 0.76847 -0.06215 0.29274
 H2438 H 0.75997 -0.04501 0.28443
 H2439 H 0.78777 -0.04309 0.26015
 H2440 H 0.79598 -0.06056 0.26812
 C2441 C 0.30172 0.60306 0.69684
 C2442 C 0.29805 0.60706 0.68614
 C2443 C 0.30309 0.61673 0.68122
 C2444 C 0.31191 0.62265 0.68689
 C2445 C 0.31555 0.61863 0.69761
 C2446 C 0.31053 0.60895 0.70252
 C2447 C 0.29642 0.59275 0.70205
 C2448 C 0.30323 0.58459 0.70766
 C2449 C 0.29826 0.57489 0.71258
 C2450 C 0.28635 0.57314 0.71200
 C2451 C 0.27953 0.58130 0.70637
 C2452 C 0.28451 0.59100 0.70144
 C2453 C 0.28109 0.56281 0.71722
 C2454 C 0.27225 0.55689 0.71161
 C2455 C 0.26750 0.54702 0.71643
 C2456 C 0.27149 0.54286 0.72695
 C2457 C 0.28023 0.54886 0.73263
 C2458 C 0.28497 0.55872 0.72782
 H2459 H 0.29140 0.60261 0.68148
 H2460 H 0.30011 0.61946 0.67291
 H2461 H 0.32222 0.62298 0.70231
 H2462 H 0.31343 0.60617 0.71085
 H2463 H 0.31245 0.58560 0.70810
 H2464 H 0.30377 0.56866 0.71668
 H2465 H 0.27032 0.58027 0.70592
 H2466 H 0.27902 0.59722 0.69731
 H2467 H 0.26919 0.55974 0.70336
 H2468 H 0.26088 0.54250 0.71178
 H2469 H 0.28334 0.54597 0.74085
 H2470 H 0.29162 0.56321 0.73246
 C2471 C 0.30206 1.10278 0.19679
 C2472 C 0.29972 1.10579 0.18541
 C2473 C 0.30467 1.11554 0.18057
 C2474 C 0.31212 1.12247 0.18696
 C2475 C 0.31448 1.11944 0.19834
 C2476 C 0.30947 1.10972 0.20320
 C2477 C 0.29683 1.09241 0.20192
 C2478 C 0.29247 1.09266 0.21310
 C2479 C 0.28761 1.08286 0.21794
 C2480 C 0.28707 1.07259 0.21174
 C2481 C 0.29142 1.07235 0.20056
 C2482 C 0.29622 1.08216 0.19569
 C2483 C 0.28211 1.06212 0.21695
 C2484 C 0.28746 1.05146 0.21546
 C2485 C 0.28285 1.04160 0.22040
 C2486 C 0.27275 1.04218 0.22691
 C2487 C 0.26735 1.05284 0.22837
 C2488 C 0.27201 1.06271 0.22347
 H2489 H 0.29395 1.10066 0.18030
 H2490 H 0.30271 1.11755 0.17177
 H2491 H 0.32011 1.12460 0.20355
 H2492 H 0.31153 1.10755 0.21195
 H2493 H 0.29273 1.10046 0.21806
 H2494 H 0.28442 1.08327 0.22661
 H2495 H 0.29103 1.06459 0.19554
 H2496 H 0.29961 1.08168 0.18710
 H2497 H 0.29531 1.05076 0.21057
 H2498 H 0.28713 1.03350 0.21903
 H2499 H 0.25961 1.05355 0.23342
 H2500 H 0.26764 1.07080 0.22468
 C2501 C 0.80193 0.60318 0.19645
 C2502 C 0.81071 0.60900 0.20224
 C2503 C 0.81542 0.61902 0.19771
 C2504 C 0.81146 0.62347 0.18727
 C2505 C 0.80273 0.61758 0.18145
 C2506 C 0.79802 0.60757 0.18598
 C2507 C 0.79683 0.59262 0.20134
 C2508 C 0.78493 0.59074 0.20080
 C2509 C 0.78012 0.58085 0.20549
 C2510 C 0.78708 0.57261 0.21081
 C2511 C 0.79898 0.57447 0.21132
 C2512 C 0.80379 0.58437 0.20664
 C2513 C 0.78197 0.56212 0.21584
 C2514 C 0.78741 0.55147 0.21456
 C2515 C 0.78268 0.54161 0.21940
 C2516 C 0.77241 0.54218 0.22565
 C2517 C 0.76692 0.55282 0.22687
 C2518 C 0.77165 0.56268 0.22202
 H2519 H 0.81381 0.60592 0.21039
 H2520 H 0.82206 0.62332 0.20251
 H2521 H 0.79952 0.62064 0.17334
 H2522 H 0.79138 0.60319 0.18123
 H2523 H 0.77933 0.59699 0.19687
 H2524 H 0.77094 0.57960 0.20486
 H2525 H 0.80456 0.56833 0.21546
 H2526 H 0.81299 0.58551 0.20710
 H2527 H 0.79526 0.55072 0.20968
 H2528 H 0.78700 0.53351 0.21814
 H2529 H 0.75909 0.55356 0.23178
 H2530 H 0.76735 0.57079 0.22330
 C2531 C 0.80326 1.10207 0.69574
 C2532 C 0.81279 1.10745 0.70074
 C2533 C 0.81783 1.11699 0.69558
 C2534 C 0.81345 1.12140 0.68530
 C2535 C 0.80392 1.11601 0.68031
 C2536 C 0.79889 1.10646 0.68545
 C2537 C 0.79795 1.09186 0.70116
 C2538 C 0.78597 1.09047 0.70124
 C2539 C 0.78099 1.08079 0.70619
 C2540 C 0.78786 1.07227 0.71118
 C2541 C 0.79983 1.07370 0.71118
 C2542 C 0.80481 1.08337 0.70622
 C2543 C 0.78260 1.06189 0.71631
 C2544 C 0.78772 1.05111 0.71481
 C2545 C 0.78285 1.04134 0.71969
 C2546 C 0.77275 1.04212 0.72618
 C2547 C 0.76756 1.05288 0.72760
 C2548 C 0.77244 1.06266 0.72273
 H2549 H 0.81625 1.10437 0.70875
 H2550 H 0.82507 1.12097 0.69976
 H2551 H 0.80038 1.11906 0.67233
 H2552 H 0.79169 1.10240 0.68127
 H2553 H 0.78043 1.09692 0.69753
 H2554 H 0.77175 1.07990 0.70596
 H2555 H 0.80536 1.06736 0.71508
 H2556 H 0.81407 1.08412 0.70621
 H2557 H 0.79541 1.05018 0.70973
 H2558 H 0.78694 1.03314 0.71828
 H2559 H 0.75986 1.05377 0.73268
 H2560 H 0.76838 1.07087 0.72417
 C2561 C 0.69765 0.60364 0.30368
 C2562 C 0.70135 0.60753 0.31440
 C2563 C 0.69643 0.61724 0.31935
 C2564 C 0.68770 0.62332 0.31368
 C2565 C 0.68401 0.61940 0.30295
 C2566 C 0.68893 0.60968 0.29801
 C2567 C 0.70286 0.59331 0.29843
 C2568 C 0.69598 0.58525 0.29276
 C2569 C 0.70087 0.57552 0.28783
 C2570 C 0.71276 0.57363 0.28843
 C2571 C 0.71964 0.58168 0.29410
 C2572 C 0.71475 0.59141 0.29905
 C2573 C 0.71792 0.56326 0.28320
 C2574 C 0.72673 0.55725 0.28880
 C2575 C 0.73140 0.54735 0.28397
 C2576 C 0.72736 0.54324 0.27345
 C2577 C 0.71865 0.54932 0.26779
 C2578 C 0.71399 0.55922 0.27261
 H2579 H 0.70794 0.60297 0.31905
 H2580 H 0.69944 0.61988 0.32766
 H2581 H 0.67741 0.62387 0.29825
 H2582 H 0.68600 0.60698 0.28967
 H2583 H 0.68677 0.58637 0.29230
 H2584 H 0.69530 0.56938 0.28370
 H2585 H 0.72885 0.58056 0.29457
 H2586 H 0.72030 0.59755 0.30322
 H2587 H 0.72983 0.56005 0.29704
 H2588 H 0.73799 0.54277 0.28861
 H2589 H 0.71550 0.54647 0.25958
 H2590 H 0.70737 0.56377 0.26798
 C2591 C 0.69747 1.10376 0.80402
 C2592 C 0.70203 1.10844 0.81407
 C2593 C 0.69711 1.11813 0.81904
 C2594 C 0.68743 1.12344 0.81412
 C2595 C 0.68289 1.11868 0.80403
 C2596 C 0.68785 1.10900 0.79906
 C2597 C 0.70269 1.09342 0.79877
 C2598 C 0.69573 1.08485 0.79399
 C2599 C 0.70062 1.07513 0.78906
 C2600 C 0.71259 1.07372 0.78881
 C2601 C 0.71955 1.08226 0.79360
 C2602 C 0.71466 1.09201 0.79851
 C2603 C 0.71775 1.06335 0.78362
 C2604 C 0.72695 1.05770 0.78895
 C2605 C 0.73161 1.04778 0.78418
 C2606 C 0.72720 1.04330 0.77395
 C2607 C 0.71810 1.04904 0.76855
 C2608 C 0.71342 1.05894 0.77334
 H2609 H 0.70934 1.10450 0.81821
 H2610 H 0.70094 1.12133 0.82681
 H2611 H 0.67553 1.12239 0.79981
 H2612 H 0.68423 1.10571 0.79122
 H2613 H 0.68648 1.08557 0.79424
 H2614 H 0.69503 1.06860 0.78560
 H2615 H 0.72880 1.08148 0.79340
 H2616 H 0.72027 1.09853 0.80194
 H2617 H 0.73037 1.06082 0.79695
 H2618 H 0.73850 1.04346 0.78864
 H2619 H 0.71465 1.04594 0.76056
 H2620 H 0.70646 1.06321 0.76893
 C2621 C 0.19738 0.60352 0.80396
 C2622 C 0.20120 0.60750 0.81461
 C2623 C 0.19628 0.61720 0.81957
 C2624 C 0.18742 0.62318 0.81399
 C2625 C 0.18363 0.61919 0.80333
 C2626 C 0.18854 0.60947 0.79838
 C2627 C 0.20256 0.59317 0.79873
 C2628 C 0.19564 0.58506 0.79318
 C2629 C 0.20051 0.57530 0.78828
 C2630 C 0.21240 0.57343 0.78880
 C2631 C 0.21932 0.58155 0.79434
 C2632 C 0.21446 0.59131 0.79925
 C2633 C 0.21754 0.56303 0.78362
 C2634 C 0.22636 0.55706 0.78923
 C2635 C 0.23102 0.54714 0.78445
 C2636 C 0.22696 0.54296 0.77396
 C2637 C 0.21822 0.54900 0.76830
 C2638 C 0.21357 0.55892 0.77307
 H2639 H 0.20788 0.60300 0.81920
 H2640 H 0.19937 0.61991 0.82783
 H2641 H 0.17693 0.62359 0.79870
 H2642 H 0.18552 0.60671 0.79009
 H2643 H 0.18643 0.58616 0.79280
 H2644 H 0.19492 0.56912 0.78424
 H2645 H 0.22853 0.58044 0.79473
 H2646 H 0.22003 0.59749 0.80331
 H2647 H 0.22949 0.55992 0.79744
 H2648 H 0.23763 0.54258 0.78909
 H2649 H 0.21505 0.54610 0.76011
 H2650 H 0.20693 0.56344 0.76844
 C2651 C 0.19761 1.10329 0.30390
 C2652 C 0.20115 1.10706 0.31472
 C2653 C 0.19625 1.11678 0.31965
 C2654 C 0.18769 1.12299 0.31388
 C2655 C 0.18415 1.11920 0.30306
 C2656 C 0.18905 1.10946 0.29813
 C2657 C 0.20281 1.09294 0.29866
 C2658 C 0.19597 1.08502 0.29276
 C2659 C 0.20085 1.07527 0.28786
 C2660 C 0.21269 1.07321 0.28875
 C2661 C 0.21954 1.08113 0.29465
 C2662 C 0.21466 1.09089 0.29955
 C2663 C 0.21786 1.06281 0.28358
 C2664 C 0.22641 1.05663 0.28938
 C2665 C 0.23111 1.04672 0.28461
 C2666 C 0.22734 1.04276 0.27393
 C2667 C 0.21887 1.04899 0.26808
 C2668 C 0.21418 1.05890 0.27285
 H2669 H 0.20761 1.10238 0.31945
 H2670 H 0.19914 1.11933 0.32804
 H2671 H 0.17768 1.12378 0.29828
 H2672 H 0.18624 1.10687 0.28972
 H2673 H 0.18679 1.08627 0.29208
 H2674 H 0.19531 1.06924 0.28354
 H2675 H 0.22872 1.07988 0.29533
 H2676 H 0.22018 1.09691 0.30390
 H2677 H 0.22931 1.05933 0.29774
 H2678 H 0.23750 1.04201 0.28939
 H2679 H 0.21593 1.04626 0.25975
 H2680 H 0.20776 1.06358 0.26808
 C2681 C 0.69704 0.39668 0.69654
 C2682 C 0.68833 0.39066 0.70226
 C2683 C 0.68343 0.38091 0.69738
 C2684 C 0.68710 0.37695 0.68665
 C2685 C 0.69580 0.38301 0.68094
 C2686 C 0.70071 0.39275 0.68583
 C2687 C 0.70224 0.40704 0.70173
 C2688 C 0.71412 0.40896 0.70104
 C2689 C 0.71900 0.41872 0.70591
 C2690 C 0.71212 0.42679 0.71157
 C2691 C 0.70024 0.42488 0.71225
 C2692 C 0.69536 0.41511 0.70739
 C2693 C 0.71728 0.43720 0.71673
 C2694 C 0.71339 0.44128 0.72732
 C2695 C 0.71807 0.45120 0.73207
 C2696 C 0.72675 0.45725 0.72635
 C2697 C 0.73073 0.45310 0.71582
 C2698 C 0.72604 0.44319 0.71105
 H2699 H 0.68542 0.39339 0.71060
 H2700 H 0.67684 0.37645 0.70211
 H2701 H 0.69880 0.38034 0.67263
 H2702 H 0.70729 0.39730 0.68114
 H2703 H 0.71967 0.40281 0.69687
 H2704 H 0.72820 0.41986 0.70539
 H2705 H 0.69467 0.43103 0.71638
 H2706 H 0.68616 0.41397 0.70791
 H2707 H 0.70680 0.43675 0.73200
 H2708 H 0.71496 0.45407 0.74029
 H2709 H 0.73730 0.45767 0.71113
 H2710 H 0.72911 0.44035 0.70281
 C2711 C 0.69613 -0.10366 0.19796
 C2712 C 0.70192 -0.10930 0.18908
 C2713 C 0.69709 -0.11890 0.18384
 C2714 C 0.68636 -0.12311 0.18735
 C2715 C 0.68059 -0.11745 0.19626
 C2716 C 0.68542 -0.10785 0.20149
 C2717 C 0.70123 -0.09342 0.20348
 C2718 C 0.69435 -0.08398 0.20636
 C2719 C 0.69917 -0.07428 0.21141
 C2720 C 0.71099 -0.07379 0.21368
 C2721 C 0.71786 -0.08326 0.21088
 C2722 C 0.71304 -0.09296 0.20584
 C2723 C 0.71615 -0.06336 0.21876
 C2724 C 0.72668 -0.05915 0.21470
 C2725 C 0.73140 -0.04917 0.21924
 C2726 C 0.72573 -0.04317 0.22797
 C2727 C 0.71528 -0.04745 0.23214
 C2728 C 0.71053 -0.05743 0.22757
 H2729 H 0.71012 -0.10620 0.18606
 H2730 H 0.70184 -0.12300 0.17705
 H2731 H 0.67231 -0.12036 0.19921
 H2732 H 0.68080 -0.10378 0.20840
 H2733 H 0.68526 -0.08399 0.20449
 H2734 H 0.69368 -0.06705 0.21330
 H2735 H 0.72697 -0.08321 0.21268
 H2736 H 0.71854 -0.10017 0.20390
 H2737 H 0.73116 -0.06347 0.20785
 H2738 H 0.73954 -0.04616 0.21595
 H2739 H 0.71066 -0.04297 0.23879
 H2740 H 0.70247 -0.06053 0.23095
 C2741 C 0.19712 0.39644 0.19659
 C2742 C 0.20092 0.39240 0.18596
 C2743 C 0.19603 0.38264 0.18109
 C2744 C 0.18722 0.37667 0.18674
 C2745 C 0.18345 0.38073 0.19739
 C2746 C 0.18833 0.39050 0.20225
 C2747 C 0.20225 0.40687 0.20170
 C2748 C 0.19529 0.41501 0.20718
 C2749 C 0.20009 0.42489 0.21188
 C2750 C 0.21196 0.42686 0.21123
 C2751 C 0.21894 0.41870 0.20581
 C2752 C 0.21413 0.40882 0.20108
 C2753 C 0.21701 0.43743 0.21613
 C2754 C 0.22742 0.43703 0.22218
 C2755 C 0.23207 0.44699 0.22690
 C2756 C 0.22642 0.45754 0.22568
 C2757 C 0.21607 0.45794 0.21955
 C2758 C 0.21142 0.44800 0.21483
 H2759 H 0.20756 0.39689 0.18130
 H2760 H 0.19913 0.37989 0.17284
 H2761 H 0.17677 0.37635 0.20208
 H2762 H 0.18533 0.39332 0.21053
 H2763 H 0.18610 0.41381 0.20770
 H2764 H 0.19451 0.43095 0.21611
 H2765 H 0.22809 0.42002 0.20509
 H2766 H 0.21973 0.40266 0.19702
 H2767 H 0.23185 0.42899 0.22344
 H2768 H 0.23997 0.44638 0.23171
 H2769 H 0.21162 0.46597 0.21827
 H2770 H 0.20350 0.44861 0.21004
 C2771 C 0.19599 -0.10358 0.69781
 C2772 C 0.18534 -0.10786 0.70142
 C2773 C 0.18057 -0.11752 0.69624
 C2774 C 0.18633 -0.12313 0.68731
 C2775 C 0.19698 -0.11882 0.68369
 C2776 C 0.20176 -0.10917 0.68888
 C2777 C 0.20106 -0.09331 0.70330
 C2778 C 0.21288 -0.09279 0.70559
 C2779 C 0.21768 -0.08307 0.71062
 C2780 C 0.21076 -0.07364 0.71347
 C2781 C 0.19893 -0.07419 0.71126
 C2782 C 0.19414 -0.08391 0.70623
 C2783 C 0.21590 -0.06320 0.71855
 C2784 C 0.21031 -0.05732 0.72741
 C2785 C 0.21506 -0.04735 0.73201
 C2786 C 0.22548 -0.04303 0.72782
 C2787 C 0.23112 -0.04897 0.71903
 C2788 C 0.22639 -0.05893 0.71445
 H2789 H 0.18074 -0.10382 0.70836
 H2790 H 0.17234 -0.12051 0.69925
 H2791 H 0.20172 -0.12289 0.67688
 H2792 H 0.20991 -0.10600 0.68580
 H2793 H 0.21841 -0.09996 0.70361
 H2794 H 0.22679 -0.08297 0.71238
 H2795 H 0.19341 -0.06700 0.71320
 H2796 H 0.18503 -0.08398 0.70442
 H2797 H 0.20227 -0.06046 0.73083
 H2798 H 0.21047 -0.04292 0.73871
 H2799 H 0.23923 -0.04592 0.71571
 H2800 H 0.23085 -0.06320 0.70756
 C2801 C 0.30395 0.30157 0.39760
 C2802 C 0.29810 0.31028 0.39173
 C2803 C 0.30279 0.31519 0.38191
 C2804 C 0.31348 0.31152 0.37771
 C2805 C 0.31930 0.30275 0.38356
 C2806 C 0.31459 0.29784 0.39338
 C2807 C 0.29903 0.29650 0.40814
 C2808 C 0.29970 0.28466 0.41016
 C2809 C 0.29508 0.27992 0.42011
 C2810 C 0.28974 0.28693 0.42828
 C2811 C 0.28906 0.29877 0.42624
 C2812 C 0.29365 0.30349 0.41629
 C2813 C 0.28490 0.28196 0.43891
 C2814 C 0.28630 0.28760 0.44939
 C2815 C 0.28159 0.28306 0.45938
 C2816 C 0.27534 0.27279 0.45911
 C2817 C 0.27404 0.26708 0.44864
 C2818 C 0.27877 0.27161 0.43864
 H2819 H 0.28980 0.31322 0.39467
 H2820 H 0.29796 0.32181 0.37761
 H2821 H 0.32757 0.29974 0.38068
 H2822 H 0.31938 0.29124 0.39779
 H2823 H 0.30369 0.27904 0.40399
 H2824 H 0.29581 0.27079 0.42149
 H2825 H 0.28489 0.30437 0.43231
 H2826 H 0.29311 0.31266 0.41504
 H2827 H 0.29116 0.29548 0.44991
 H2828 H 0.28293 0.28756 0.46734
 H2829 H 0.26914 0.25922 0.44813
 H2830 H 0.27742 0.26714 0.43067
 C2831 C 0.30334 0.80231 -0.10283
 C2832 C 0.31406 0.79862 -0.10687
 C2833 C 0.31887 0.80347 -0.11667
 C2834 C 0.31306 0.81213 -0.12269
 C2835 C 0.30231 0.81579 -0.11865
 C2836 C 0.29752 0.81095 -0.10884
 C2837 C 0.29828 0.79722 -0.09237
 C2838 C 0.29269 0.80417 -0.08432
 C2839 C 0.28794 0.79940 -0.07445
 C2840 C 0.28865 0.78756 -0.07241
 C2841 C 0.29424 0.78061 -0.08046
 C2842 C 0.29900 0.78538 -0.09033
 C2843 C 0.28362 0.78252 -0.06190
 C2844 C 0.28941 0.77385 -0.05589
 C2845 C 0.28476 0.76927 -0.04588
 C2846 C 0.27423 0.77329 -0.04163
 C2847 C 0.26839 0.78188 -0.04769
 C2848 C 0.27303 0.78644 -0.05771
 H2849 H 0.31883 0.79209 -0.10234
 H2850 H 0.32720 0.80048 -0.11942
 H2851 H 0.29750 0.82234 -0.12308
 H2852 H 0.28917 0.81386 -0.10603
 H2853 H 0.29216 0.81333 -0.08555
 H2854 H 0.28388 0.80501 -0.06832
 H2855 H 0.29478 0.77144 -0.07922
 H2856 H 0.30310 0.77979 -0.09645
 H2857 H 0.29766 0.77076 -0.05881
 H2858 H 0.28954 0.76277 -0.04132
 H2859 H 0.26017 0.78500 -0.04475
 H2860 H 0.26825 0.79296 -0.06225
 C2861 C 0.80422 0.30211 -0.10220
 C2862 C 0.81492 0.29848 -0.10634
 C2863 C 0.81965 0.30344 -0.11613
 C2864 C 0.81377 0.31214 -0.12203
 C2865 C 0.80304 0.31572 -0.11789
 C2866 C 0.79833 0.31078 -0.10810
 C2867 C 0.79920 0.29693 -0.09176
 C2868 C 0.79362 0.30382 -0.08365
 C2869 C 0.78879 0.29896 -0.07388
 C2870 C 0.78940 0.28710 -0.07198
 C2871 C 0.79503 0.28021 -0.08006
 C2872 C 0.79988 0.28507 -0.08984
 C2873 C 0.78418 0.28197 -0.06160
 C2874 C 0.78982 0.27320 -0.05560
 C2875 C 0.78502 0.26860 -0.04567
 C2876 C 0.77448 0.27269 -0.04152
 C2877 C 0.76877 0.28135 -0.04761
 C2878 C 0.77356 0.28593 -0.05753
 H2879 H 0.81973 0.29193 -0.10189
 H2880 H 0.82797 0.30051 -0.11897
 H2881 H 0.79816 0.32228 -0.12223
 H2882 H 0.78998 0.31364 -0.10522
 H2883 H 0.79313 0.31300 -0.08479
 H2884 H 0.78470 0.30453 -0.06771
 H2885 H 0.79551 0.27103 -0.07892
 H2886 H 0.80399 0.27953 -0.09601
 H2887 H 0.79808 0.27007 -0.05843
 H2888 H 0.78968 0.26204 -0.04108
 H2889 H 0.76054 0.28452 -0.04474
 H2890 H 0.76889 0.29252 -0.06208
 C2891 C 0.80334 0.80266 0.39755
 C2892 C 0.81410 0.79903 0.39355
 C2893 C 0.81891 0.80393 0.38378
 C2894 C 0.81308 0.81256 0.37774
 C2895 C 0.80230 0.81617 0.38176
 C2896 C 0.79750 0.81128 0.39154
 C2897 C 0.79825 0.79749 0.40797
 C2898 C 0.79260 0.80438 0.41603
 C2899 C 0.78783 0.79954 0.42585
 C2900 C 0.78859 0.78770 0.42784
 C2901 C 0.79425 0.78082 0.41979
 C2902 C 0.79903 0.78566 0.40996
 C2903 C 0.78354 0.78259 0.43831
 C2904 C 0.78934 0.77391 0.44429
 C2905 C 0.78467 0.76926 0.45427
 C2906 C 0.77411 0.77321 0.45849
 C2907 C 0.76826 0.78181 0.45245
 C2908 C 0.77291 0.78644 0.44247
 H2909 H 0.81889 0.79252 0.39809
 H2910 H 0.82727 0.80099 0.38106
 H2911 H 0.79747 0.82270 0.37732
 H2912 H 0.78912 0.81414 0.39432
 H2913 H 0.79202 0.81355 0.41483
 H2914 H 0.78371 0.80511 0.43199
 H2915 H 0.79483 0.77165 0.42099
 H2916 H 0.80319 0.78011 0.40383
 H2917 H 0.79761 0.77087 0.44140
 H2918 H 0.78945 0.76276 0.45882
 H2919 H 0.76001 0.78489 0.45538
 H2920 H 0.76813 0.79297 0.43795
 C2921 C 0.69687 0.30127 0.60188
 C2922 C 0.68626 0.29743 0.60605
 C2923 C 0.68144 0.30231 0.61582
 C2924 C 0.68713 0.31115 0.62167
 C2925 C 0.69778 0.31494 0.61750
 C2926 C 0.70258 0.31007 0.60772
 C2927 C 0.70191 0.29619 0.59141
 C2928 C 0.70722 0.30319 0.58321
 C2929 C 0.71188 0.29845 0.57330
 C2930 C 0.71136 0.28660 0.57138
 C2931 C 0.70611 0.27958 0.57960
 C2932 C 0.70141 0.28433 0.58950
 C2933 C 0.71626 0.28160 0.56080
 C2934 C 0.72252 0.27132 0.56117
 C2935 C 0.72728 0.26675 0.55122
 C2936 C 0.72587 0.27234 0.54069
 C2937 C 0.71950 0.28255 0.54032
 C2938 C 0.71476 0.28713 0.55026
 H2939 H 0.68157 0.29077 0.60164
 H2940 H 0.67319 0.29920 0.61867
 H2941 H 0.70250 0.32163 0.62180
 H2942 H 0.71085 0.31310 0.60481
 H2943 H 0.70764 0.31237 0.58438
 H2944 H 0.71599 0.30406 0.56719
 H2945 H 0.70549 0.27043 0.57831
 H2946 H 0.69748 0.27871 0.59572
 H2947 H 0.72394 0.26695 0.56920
 H2948 H 0.73227 0.25895 0.55181
 H2949 H 0.71809 0.28694 0.53230
 H2950 H 0.70981 0.29494 0.54967
 C2951 C 0.69740 0.80197 1.10178
 C2952 C 0.70308 0.81068 1.10778
 C2953 C 0.69810 0.81559 1.11747
 C2954 C 0.68731 0.81191 1.12137
 C2955 C 0.68163 0.80320 1.11533
 C2956 C 0.68662 0.79828 1.10566
 C2957 C 0.70268 0.79677 1.09148
 C2958 C 0.70202 0.78491 1.08960
 C2959 C 0.70693 0.78002 1.07987
 C2960 C 0.71261 0.78689 1.07180
 C2961 C 0.71327 0.79875 1.07369
 C2962 C 0.70837 0.80363 1.08342
 C2963 C 0.71777 0.78173 1.06142
 C2964 C 0.72841 0.78560 1.05730
 C2965 C 0.73315 0.78094 1.04740
 C2966 C 0.72738 0.77229 1.04138
 C2967 C 0.71682 0.76831 1.04556
 C2968 C 0.71206 0.77299 1.05547
 H2969 H 0.71146 0.81360 1.10509
 H2970 H 0.70280 0.82219 1.12192
 H2971 H 0.67327 0.80020 1.11795
 H2972 H 0.68196 0.79170 1.10111
 H2973 H 0.69784 0.77938 1.09574
 H2974 H 0.70643 0.77084 1.07875
 H2975 H 0.71741 0.80430 1.06754
 H2976 H 0.70886 0.81281 1.08454
 H2977 H 0.73312 0.79218 1.06181
 H2978 H 0.74140 0.78404 1.04449
 H2979 H 0.71209 0.76177 1.04103
 H2980 H 0.70378 0.76994 1.05833
 C2981 C 0.19681 0.30123 1.10179
 C2982 C 0.20260 0.30987 1.10779
 C2983 C 0.19775 0.31477 1.11753
 C2984 C 0.18696 0.31117 1.12151
 C2985 C 0.18118 0.30250 1.11550
 C2986 C 0.18605 0.29759 1.10577
 C2987 C 0.20195 0.29607 1.09142
 C2988 C 0.20127 0.28422 1.08948
 C2989 C 0.20616 0.27938 1.07972
 C2990 C 0.21185 0.28628 1.07169
 C2991 C 0.21249 0.29813 1.07361
 C2992 C 0.20761 0.30297 1.08337
 C2993 C 0.21707 0.28117 1.06131
 C2994 C 0.22772 0.28508 1.05728
 C2995 C 0.23254 0.28047 1.04738
 C2996 C 0.22682 0.27183 1.04130
 C2997 C 0.21624 0.26781 1.04540
 C2998 C 0.21141 0.27244 1.05530
 H2999 H 0.21099 0.31274 1.10503
 H3000 H 0.20255 0.32132 1.12195
 H3001 H 0.17282 0.29955 1.11820
 H3002 H 0.18130 0.29105 1.10124
 H3003 H 0.19710 0.27867 1.09561
 H3004 H 0.20566 0.27020 1.07856
 H3005 H 0.21663 0.30371 1.06748
 H3006 H 0.20811 0.31214 1.08452
 H3007 H 0.23240 0.29165 1.06183
 H3008 H 0.24079 0.28360 1.04454
 H3009 H 0.21157 0.26127 1.04082
 H3010 H 0.20313 0.26935 1.05810
 C3011 C 0.19717 0.80237 0.60134
 C3012 C 0.20285 0.81107 0.60736
 C3013 C 0.19789 0.81594 0.61707
 C3014 C 0.18712 0.81223 0.62099
 C3015 C 0.18143 0.80354 0.61494
 C3016 C 0.18640 0.79866 0.60524
 C3017 C 0.20243 0.79718 0.59103
 C3018 C 0.20176 0.78533 0.58913
 C3019 C 0.20665 0.78046 0.57939
 C3020 C 0.21232 0.78734 0.57132
 C3021 C 0.21299 0.79919 0.57323
 C3022 C 0.20811 0.80406 0.58297
 C3023 C 0.21745 0.78219 0.56092
 C3024 C 0.22809 0.78605 0.55679
 C3025 C 0.23283 0.78136 0.54690
 C3026 C 0.22705 0.77270 0.54089
 C3027 C 0.21647 0.76876 0.54507
 C3028 C 0.21172 0.77346 0.55497
 H3029 H 0.21123 0.81401 0.60465
 H3030 H 0.20260 0.82253 0.62153
 H3031 H 0.17308 0.80052 0.61758
 H3032 H 0.18173 0.79209 0.60069
 H3033 H 0.19759 0.77979 0.59527
 H3034 H 0.20614 0.77128 0.57825
 H3035 H 0.21713 0.80475 0.56708
 H3036 H 0.20861 0.81324 0.58410
 H3037 H 0.23282 0.79261 0.56129
 H3038 H 0.24109 0.78444 0.54400
 H3039 H 0.21174 0.76222 0.54054
 H3040 H 0.20344 0.77042 0.55783
 C3041 C 0.30343 0.69860 0.60208
 C3042 C 0.29754 0.68996 0.60802
 C3043 C 0.30230 0.68498 0.61777
 C3044 C 0.31309 0.68850 0.62183
 C3045 C 0.31896 0.69717 0.61589
 C3046 C 0.31418 0.70216 0.60614
 C3047 C 0.29839 0.70381 0.59166
 C3048 C 0.29917 0.71565 0.58971
 C3049 C 0.29435 0.72053 0.57992
 C3050 C 0.28866 0.71367 0.57187
 C3051 C 0.28793 0.70182 0.57381
 C3052 C 0.29273 0.69695 0.58359
 C3053 C 0.28351 0.71881 0.56146
 C3054 C 0.27285 0.71498 0.55740
 C3055 C 0.26812 0.71960 0.54746
 C3056 C 0.27393 0.72818 0.54136
 C3057 C 0.28453 0.73212 0.54549
 C3058 C 0.28927 0.72749 0.55543
 H3059 H 0.28916 0.68715 0.60520
 H3060 H 0.29744 0.67844 0.62215
 H3061 H 0.32731 0.70006 0.61866
 H3062 H 0.31900 0.70869 0.60167
 H3063 H 0.30334 0.72117 0.59585
 H3064 H 0.29492 0.72970 0.57875
 H3065 H 0.28378 0.69628 0.56767
 H3066 H 0.29216 0.68778 0.58476
 H3067 H 0.26811 0.70846 0.56196
 H3068 H 0.25985 0.71653 0.54460
 H3069 H 0.28928 0.73861 0.54089
 H3070 H 0.29757 0.73052 0.55826
 C3071 C 0.30396 0.19798 1.10177
 C3072 C 0.29812 0.18928 1.10765
 C3073 C 0.30288 0.18431 1.11741
 C3074 C 0.31360 0.18791 1.12154
 C3075 C 0.31943 0.19664 1.11565
 C3076 C 0.31466 0.20163 1.10589
 C3077 C 0.29891 0.20321 1.09137
 C3078 C 0.29957 0.21508 1.08951
 C3079 C 0.29472 0.21999 1.07975
 C3080 C 0.28910 0.21314 1.07164
 C3081 C 0.28849 0.20127 1.07349
 C3082 C 0.29333 0.19637 1.08324
 C3083 C 0.28390 0.21832 1.06128
 C3084 C 0.27329 0.21440 1.05717
 C3085 C 0.26850 0.21906 1.04728
 C3086 C 0.27421 0.22777 1.04127
 C3087 C 0.28475 0.23180 1.04544
 C3088 C 0.28955 0.22713 1.05534
 H3089 H 0.28978 0.18641 1.10478
 H3090 H 0.29804 0.17771 1.12174
 H3091 H 0.32775 0.19960 1.11847
 H3092 H 0.31944 0.20821 1.10146
 H3093 H 0.30368 0.22060 1.09570
 H3094 H 0.29520 0.22918 1.07866
 H3095 H 0.28441 0.19573 1.06730
 H3096 H 0.29285 0.18718 1.08434
 H3097 H 0.26862 0.20778 1.06167
 H3098 H 0.26027 0.21592 1.04438
 H3099 H 0.28942 0.23840 1.04091
 H3100 H 0.29781 0.23023 1.05820
 C3101 C 0.80353 0.69798 1.10185
 C3102 C 0.81401 0.70190 1.10626
 C3103 C 0.81861 0.69709 1.11618
 C3104 C 0.81283 0.68826 1.12196
 C3105 C 0.80235 0.68432 1.11750
 C3106 C 0.79776 0.68912 1.10758
 C3107 C 0.79858 0.70314 1.09136
 C3108 C 0.79327 0.69623 1.08311
 C3109 C 0.78851 0.70109 1.07330
 C3110 C 0.78895 0.71297 1.07151
 C3111 C 0.79431 0.71989 1.07973
 C3112 C 0.79907 0.71503 1.08955
 C3113 C 0.78382 0.71812 1.06109
 C3114 C 0.78946 0.72700 1.05525
 C3115 C 0.78471 0.73169 1.04534
 C3116 C 0.77422 0.72762 1.04107
 C3117 C 0.76854 0.71882 1.04698
 C3118 C 0.77328 0.71413 1.05687
 H3119 H 0.81874 0.70861 1.10196
 H3120 H 0.82669 0.70038 1.11928
 H3121 H 0.79761 0.67755 1.12165
 H3122 H 0.78960 0.68601 1.10448
 H3123 H 0.79293 0.68703 1.08416
 H3124 H 0.78461 0.69551 1.06702
 H3125 H 0.79464 0.72908 1.07867
 H3126 H 0.80295 0.72060 1.09583
 H3127 H 0.79766 0.73015 1.05821
 H3128 H 0.78937 0.73835 1.04089
 H3129 H 0.76035 0.71564 1.04401
 H3130 H 0.76864 0.70744 1.06130
 C3131 C 0.80196 0.20041 0.60354
 C3132 C 0.79620 0.19149 0.60918
 C3133 C 0.80081 0.18655 0.61902
 C3134 C 0.81131 0.19041 0.62349
 C3135 C 0.81701 0.19943 0.61792
 C3136 C 0.81239 0.20437 0.60806
 C3137 C 0.79720 0.20542 0.59290
 C3138 C 0.79766 0.21728 0.59093
 C3139 C 0.79323 0.22196 0.58086
 C3140 C 0.78827 0.21487 0.57253
 C3141 C 0.78780 0.20302 0.57451
 C3142 C 0.79220 0.19835 0.58458
 C3143 C 0.78364 0.21978 0.56178
 C3144 C 0.78540 0.21417 0.55132
 C3145 C 0.78085 0.21863 0.54123
 C3146 C 0.77443 0.22880 0.54134
 C3147 C 0.77277 0.23449 0.55178
 C3148 C 0.77732 0.23003 0.56189
 H3149 H 0.78806 0.18837 0.60601
 H3150 H 0.79608 0.17974 0.62313
 H3151 H 0.82514 0.20259 0.62101
 H3152 H 0.81711 0.21113 0.60384
 H3153 H 0.80136 0.22296 0.59722
 H3154 H 0.79381 0.23111 0.57953
 H3155 H 0.78392 0.19735 0.56832
 H3156 H 0.79183 0.18917 0.58578
 H3157 H 0.79040 0.20637 0.55093
 H3158 H 0.78246 0.21415 0.53330
 H3159 H 0.76773 0.24227 0.55216
 H3160 H 0.77570 0.23448 0.56983
 C3161 C 0.69754 0.69902 0.39849
 C3162 C 0.70330 0.69029 0.39257
 C3163 C 0.69845 0.68537 0.38284
 C3164 C 0.68771 0.68905 0.37879
 C3165 C 0.68197 0.69780 0.38471
 C3166 C 0.68683 0.70273 0.39444
 C3167 C 0.70264 0.70416 0.40890
 C3168 C 0.70197 0.71601 0.41082
 C3169 C 0.70671 0.72083 0.42066
 C3170 C 0.71219 0.71390 0.42881
 C3171 C 0.71289 0.70205 0.42686
 C3172 C 0.70818 0.69724 0.41702
 C3173 C 0.71713 0.71897 0.43933
 C3174 C 0.71587 0.71340 0.44989
 C3175 C 0.72063 0.71807 0.45978
 C3176 C 0.72677 0.72841 0.45934
 C3177 C 0.72795 0.73403 0.44880
 C3178 C 0.72318 0.72936 0.43890
 H3179 H 0.71164 0.68735 0.39539
 H3180 H 0.70321 0.67874 0.37848
 H3181 H 0.67365 0.70082 0.38196
 H3182 H 0.68210 0.70933 0.39891
 H3183 H 0.69786 0.72158 0.40467
 H3184 H 0.70595 0.72997 0.42197
 H3185 H 0.71717 0.69651 0.43292
 H3186 H 0.70873 0.68807 0.41583
 H3187 H 0.71109 0.70549 0.45053
 H3188 H 0.71939 0.71364 0.46780
 H3189 H 0.73276 0.74193 0.44816
 H3190 H 0.72441 0.73377 0.43086
 C3191 C 0.69737 0.19871 -0.10133
 C3192 C 0.70306 0.18986 -0.10714
 C3193 C 0.69821 0.18490 -0.11685
 C3194 C 0.68753 0.18866 -0.12099
 C3195 C 0.68186 0.19754 -0.11518
 C3196 C 0.68673 0.20251 -0.10548
 C3197 C 0.70248 0.20390 -0.09095
 C3198 C 0.70192 0.21578 -0.08914
 C3199 C 0.70666 0.22063 -0.07931
 C3200 C 0.71201 0.21372 -0.07107
 C3201 C 0.71259 0.20185 -0.07290
 C3202 C 0.70789 0.19700 -0.08273
 C3203 C 0.71694 0.21884 -0.06056
 C3204 C 0.71554 0.21340 -0.04996
 C3205 C 0.72027 0.21811 -0.04008
 C3206 C 0.72654 0.22837 -0.04058
 C3207 C 0.72787 0.23387 -0.05117
 C3208 C 0.72311 0.22915 -0.06106
 H3209 H 0.71135 0.18685 -0.10425
 H3210 H 0.70291 0.17818 -0.12112
 H3211 H 0.67360 0.20063 -0.11800
 H3212 H 0.68206 0.20920 -0.10110
 H3213 H 0.69791 0.22133 -0.09537
 H3214 H 0.70599 0.22979 -0.07809
 H3215 H 0.71678 0.19631 -0.06676
 H3216 H 0.70836 0.18781 -0.08383
 H3217 H 0.71065 0.20555 -0.04927
 H3218 H 0.71892 0.21379 -0.03202
 H3219 H 0.73278 0.24170 -0.05185
 H3220 H 0.72446 0.23346 -0.06913
 C3221 C 0.19767 0.69920 -0.10160
 C3222 C 0.20340 0.69044 -0.10750
 C3223 C 0.19853 0.68551 -0.11721
 C3224 C 0.18780 0.68920 -0.12127
 C3225 C 0.18209 0.69800 -0.11536
 C3226 C 0.18697 0.70294 -0.10566
 C3227 C 0.20278 0.70435 -0.09120
 C3228 C 0.20213 0.71621 -0.08930
 C3229 C 0.20687 0.72103 -0.07946
 C3230 C 0.21233 0.71410 -0.07130
 C3231 C 0.21299 0.70225 -0.07322
 C3232 C 0.20829 0.69743 -0.08306
 C3233 C 0.21726 0.71918 -0.06078
 C3234 C 0.21597 0.71364 -0.05021
 C3235 C 0.22072 0.71832 -0.04033
 C3236 C 0.22689 0.72863 -0.04078
 C3237 C 0.22811 0.73423 -0.05133
 C3238 C 0.22334 0.72955 -0.06123
 H3239 H 0.21173 0.68749 -0.10468
 H3240 H 0.20327 0.67886 -0.12156
 H3241 H 0.17378 0.70102 -0.11812
 H3242 H 0.18226 0.70956 -0.10120
 H3243 H 0.19804 0.72178 -0.09547
 H3244 H 0.20613 0.73017 -0.07817
 H3245 H 0.21725 0.69670 -0.06715
 H3246 H 0.20882 0.68826 -0.08423
 H3247 H 0.21115 0.70575 -0.04956
 H3248 H 0.21946 0.71391 -0.03229
 H3249 H 0.23295 0.74211 -0.05198
 H3250 H 0.22461 0.73393 -0.06927
 C3251 C 0.19768 0.19882 0.39859
 C3252 C 0.20338 0.19000 0.39275
 C3253 C 0.19853 0.18507 0.38302
 C3254 C 0.18784 0.18881 0.37891
 C3255 C 0.18216 0.19766 0.38476
 C3256 C 0.18702 0.20260 0.39447
 C3257 C 0.20278 0.20398 0.40898
 C3258 C 0.20222 0.21585 0.41083
 C3259 C 0.20695 0.22069 0.42066
 C3260 C 0.21232 0.21376 0.42888
 C3261 C 0.21291 0.20190 0.42702
 C3262 C 0.20821 0.19706 0.41718
 C3263 C 0.21724 0.21885 0.43939
 C3264 C 0.21585 0.21339 0.44999
 C3265 C 0.22059 0.21808 0.45987
 C3266 C 0.22685 0.22834 0.45940
 C3267 C 0.22817 0.23386 0.44882
 C3268 C 0.22341 0.22917 0.43892
 H3269 H 0.21169 0.18701 0.39562
 H3270 H 0.20325 0.17837 0.37872
 H3271 H 0.17388 0.20074 0.38196
 H3272 H 0.18234 0.20927 0.39888
 H3273 H 0.19820 0.22142 0.40461
 H3274 H 0.20627 0.22985 0.42190
 H3275 H 0.21710 0.19635 0.43314
 H3276 H 0.20868 0.18788 0.41606
 H3277 H 0.21096 0.20554 0.45065
 H3278 H 0.21924 0.21373 0.46792
 H3279 H 0.23308 0.24170 0.44816
 H3280 H 0.22476 0.23351 0.43086
 C3281 C 0.30288 0.39870 0.69899
 C3282 C 0.29709 0.39292 0.69021
 C3283 C 0.30184 0.38315 0.68523
 C3284 C 0.31251 0.37891 0.68891
 C3285 C 0.31828 0.38469 0.69772
 C3286 C 0.31351 0.39446 0.70271
 C3287 C 0.29783 0.40912 0.70421
 C3288 C 0.29839 0.41090 0.71605
 C3289 C 0.29352 0.42067 0.72095
 C3290 C 0.28799 0.42887 0.71410
 C3291 C 0.28751 0.42711 0.70225
 C3292 C 0.29236 0.41735 0.69736
 C3293 C 0.28274 0.43922 0.71926
 C3294 C 0.27216 0.44336 0.71527
 C3295 C 0.26733 0.45326 0.71991
 C3296 C 0.27296 0.45924 0.72866
 C3297 C 0.28346 0.45502 0.73278
 C3298 C 0.28831 0.44512 0.72812
 H3299 H 0.28880 0.39587 0.68727
 H3300 H 0.29706 0.37890 0.67857
 H3301 H 0.32655 0.38179 0.70073
 H3302 H 0.31825 0.39882 0.70936
 H3303 H 0.30241 0.40463 0.72157
 H3304 H 0.29390 0.42170 0.73012
 H3305 H 0.28350 0.43337 0.69672
 H3306 H 0.29197 0.41632 0.68819
 H3307 H 0.26756 0.43889 0.70860
 H3308 H 0.25913 0.45618 0.71670
 H3309 H 0.28807 0.45953 0.73941
 H3310 H 0.29654 0.44223 0.73129
 C3311 C 0.30388 0.89742 0.20027
 C3312 C 0.31563 0.89725 0.19750
 C3313 C 0.32055 0.88769 0.19228
 C3314 C 0.31379 0.87817 0.18948
 C3315 C 0.30208 0.87828 0.19220
 C3316 C 0.29721 0.88773 0.19766
 C3317 C 0.29858 0.90771 0.20566
 C3318 C 0.28716 0.91076 0.20326
 C3319 C 0.28223 0.92048 0.20816
 C3320 C 0.28865 0.92762 0.21541
 C3321 C 0.30008 0.92457 0.21782
 C3322 C 0.30492 0.91470 0.21312
 C3323 C 0.28352 0.93826 0.22027
 C3324 C 0.28688 0.94235 0.23105
 C3325 C 0.28227 0.95249 0.23544
 C3326 C 0.27399 0.95870 0.22927
 C3327 C 0.27049 0.95449 0.21859
 C3328 C 0.27528 0.94451 0.21409
 H3329 H 0.32102 0.90460 0.19911
 H3330 H 0.32958 0.88787 0.19015
 H3331 H 0.29672 0.87097 0.19026
 H3332 H 0.28821 0.88736 0.19990
 H3333 H 0.28201 0.90575 0.19743
 H3334 H 0.27335 0.92236 0.20626
 H3335 H 0.30539 0.92989 0.22320
 H3336 H 0.31366 0.91257 0.21537
 H3337 H 0.29304 0.93772 0.23618
 H3338 H 0.28534 0.95550 0.24361
 H3339 H 0.26398 0.95886 0.21365
 H3340 H 0.27259 0.94181 0.20568
 C3341 C 0.80277 0.39827 0.19929
 C3342 C 0.81343 0.39404 0.20294
 C3343 C 0.81824 0.38437 0.19781
 C3344 C 0.81252 0.37870 0.18889
 C3345 C 0.80185 0.38297 0.18525
 C3346 C 0.79704 0.39262 0.19038
 C3347 C 0.79766 0.40856 0.20471
 C3348 C 0.78584 0.40905 0.20701
 C3349 C 0.78101 0.41879 0.21197
 C3350 C 0.78788 0.42826 0.21475
 C3351 C 0.79971 0.42773 0.21254
 C3352 C 0.80455 0.41799 0.20757
 C3353 C 0.78270 0.43872 0.21975
 C3354 C 0.78828 0.44469 0.22854
 C3355 C 0.78349 0.45468 0.23306
 C3356 C 0.77304 0.45893 0.22884
 C3357 C 0.76742 0.45290 0.22012
 C3358 C 0.77218 0.44290 0.21563
 H3359 H 0.81800 0.39813 0.20986
 H3360 H 0.82648 0.38142 0.20085
 H3361 H 0.79714 0.37885 0.17845
 H3362 H 0.78887 0.39576 0.18728
 H3363 H 0.78034 0.40184 0.20509
 H3364 H 0.77189 0.41887 0.21373
 H3365 H 0.80520 0.43496 0.21442
 H3366 H 0.81365 0.41794 0.20575
 H3367 H 0.79633 0.44161 0.23197
 H3368 H 0.78808 0.45919 0.23971
 H3369 H 0.75929 0.45589 0.21679
 H3370 H 0.76773 0.43856 0.20878
 C3371 C 0.80288 0.89854 0.69953
 C3372 C 0.81359 0.89434 0.70309
 C3373 C 0.81843 0.88475 0.69785
 C3374 C 0.81270 0.87912 0.68891
 C3375 C 0.80197 0.88334 0.68538
 C3376 C 0.79713 0.89292 0.69062
 C3377 C 0.79775 0.90877 0.70505
 C3378 C 0.78593 0.90921 0.70738
 C3379 C 0.78108 0.91892 0.71238
 C3380 C 0.78792 0.92840 0.71518
 C3381 C 0.79975 0.92792 0.71295
 C3382 C 0.80461 0.91822 0.70794
 C3383 C 0.78271 0.93884 0.72020
 C3384 C 0.78827 0.94481 0.72901
 C3385 C 0.78347 0.95478 0.73354
 C3386 C 0.77302 0.95903 0.72931
 C3387 C 0.76741 0.95300 0.72057
 C3388 C 0.77219 0.94301 0.71608
 H3389 H 0.81817 0.89840 0.71002
 H3390 H 0.82671 0.88183 0.70082
 H3391 H 0.79725 0.87926 0.67856
 H3392 H 0.78893 0.89604 0.68759
 H3393 H 0.78046 0.90200 0.70543
 H3394 H 0.77197 0.91896 0.71416
 H3395 H 0.80522 0.93516 0.71485
 H3396 H 0.81371 0.91821 0.70610
 H3397 H 0.79633 0.94173 0.73244
 H3398 H 0.78804 0.95929 0.74019
 H3399 H 0.75929 0.95599 0.71723
 H3400 H 0.76776 0.93867 0.70922
 C3401 C 0.69637 0.60225 0.69868
 C3402 C 0.70227 0.60783 0.68983
 C3403 C 0.69762 0.61753 0.68460
 C3404 C 0.68694 0.62190 0.68810
 C3405 C 0.68104 0.61629 0.69696
 C3406 C 0.68570 0.60659 0.70218
 C3407 C 0.70131 0.59191 0.70418
 C3408 C 0.69430 0.58253 0.70698
 C3409 C 0.69900 0.57272 0.71195
 C3410 C 0.71081 0.57205 0.71423
 C3411 C 0.71780 0.58147 0.71153
 C3412 C 0.71310 0.59128 0.70657
 C3413 C 0.71586 0.56149 0.71919
 C3414 C 0.72636 0.55724 0.71509
 C3415 C 0.73102 0.54718 0.71957
 C3416 C 0.72531 0.54115 0.72826
 C3417 C 0.71487 0.54546 0.73244
 C3418 C 0.71019 0.55551 0.72794
 H3419 H 0.71044 0.60461 0.68683
 H3420 H 0.70246 0.62159 0.67786
 H3421 H 0.67280 0.61934 0.69989
 H3422 H 0.68100 0.60255 0.70906
 H3423 H 0.68521 0.58269 0.70510
 H3424 H 0.69342 0.56554 0.71378
 H3425 H 0.72690 0.58128 0.71335
 H3426 H 0.71869 0.59843 0.70470
 H3427 H 0.73088 0.56158 0.70828
 H3428 H 0.73914 0.54415 0.71626
 H3429 H 0.71023 0.54095 0.73906
 H3430 H 0.70215 0.55865 0.73134
 C3431 C 0.69697 0.10177 0.19692
 C3432 C 0.70118 0.10602 0.18652
 C3433 C 0.69631 0.11572 0.18151
 C3434 C 0.68709 0.12141 0.18676
 C3435 C 0.68288 0.11716 0.19718
 C3436 C 0.68777 0.10746 0.20221
 C3437 C 0.70210 0.09136 0.20215
 C3438 C 0.69510 0.08305 0.20732
 C3439 C 0.69990 0.07314 0.21200
 C3440 C 0.71181 0.07131 0.21162
 C3441 C 0.71882 0.07966 0.20653
 C3442 C 0.71402 0.08957 0.20185
 C3443 C 0.71689 0.06069 0.21643
 C3444 C 0.72724 0.06104 0.22257
 C3445 C 0.73196 0.05104 0.22714
 C3446 C 0.72643 0.04046 0.22569
 C3447 C 0.71612 0.04010 0.21948
 C3448 C 0.71141 0.05009 0.21490
 H3449 H 0.70812 0.10173 0.18213
 H3450 H 0.69970 0.11863 0.17342
 H3451 H 0.67588 0.12138 0.20154
 H3452 H 0.68443 0.10449 0.21031
 H3453 H 0.68588 0.08411 0.20759
 H3454 H 0.69429 0.06694 0.21598
 H3455 H 0.72801 0.07846 0.20601
 H3456 H 0.71965 0.09587 0.19805
 H3457 H 0.73159 0.06909 0.22402
 H3458 H 0.73983 0.05161 0.23202
 H3459 H 0.71177 0.03205 0.21804
 H3460 H 0.70355 0.04949 0.21003
 C3461 C 0.19638 0.60213 0.19809
 C3462 C 0.18583 0.60659 0.20179
 C3463 C 0.18123 0.61640 0.19671
 C3464 C 0.18708 0.62201 0.18782
 C3465 C 0.19769 0.61757 0.18419
 C3466 C 0.20227 0.60776 0.18926
 C3467 C 0.20117 0.59158 0.20331
 C3468 C 0.20637 0.58320 0.19646
 C3469 C 0.21081 0.57323 0.20133
 C3470 C 0.21019 0.57142 0.21317
 C3471 C 0.20503 0.57982 0.22004
 C3472 C 0.20054 0.58979 0.21516
 C3473 C 0.21490 0.56079 0.21830
 C3474 C 0.22114 0.56115 0.22855
 C3475 C 0.22582 0.55115 0.23319
 C3476 C 0.22434 0.54058 0.22767
 C3477 C 0.21795 0.54021 0.21751
 C3478 C 0.21329 0.55019 0.21288
 H3479 H 0.18102 0.60237 0.20847
 H3480 H 0.17303 0.61947 0.19972
 H3481 H 0.20253 0.62166 0.17747
 H3482 H 0.21050 0.60463 0.18633
 H3483 H 0.20687 0.58427 0.18729
 H3484 H 0.21485 0.56697 0.19583
 H3485 H 0.20433 0.57862 0.22918
 H3486 H 0.19669 0.59615 0.22067
 H3487 H 0.22263 0.56921 0.23285
 H3488 H 0.23081 0.55173 0.24095
 H3489 H 0.21647 0.53217 0.21318
 H3490 H 0.20834 0.54960 0.20508
 C3491 C 0.19733 0.10182 0.69719
 C3492 C 0.18852 0.10782 0.70277
 C3493 C 0.18362 0.11753 0.69779
 C3494 C 0.18741 0.12148 0.68710
 C3495 C 0.19622 0.11546 0.68152
 C3496 C 0.20112 0.10576 0.68651
 C3497 C 0.20250 0.09147 0.70244
 C3498 C 0.21439 0.08955 0.70180
 C3499 C 0.21924 0.07973 0.70662
 C3500 C 0.21233 0.07161 0.71218
 C3501 C 0.20045 0.07356 0.71285
 C3502 C 0.19559 0.08337 0.70804
 C3503 C 0.21746 0.06111 0.71719
 C3504 C 0.21358 0.05689 0.72774
 C3505 C 0.21825 0.04689 0.73236
 C3506 C 0.22690 0.04090 0.72654
 C3507 C 0.23087 0.04518 0.71605
 C3508 C 0.22619 0.05517 0.71142
 H3509 H 0.18551 0.10508 0.71108
 H3510 H 0.17694 0.12197 0.70241
 H3511 H 0.19930 0.11813 0.67324
 H3512 H 0.20777 0.10123 0.68191
 H3513 H 0.21996 0.09572 0.69770
 H3514 H 0.22844 0.07857 0.70612
 H3515 H 0.19486 0.06737 0.71691
 H3516 H 0.18639 0.08452 0.70851
 H3517 H 0.20700 0.06137 0.73248
 H3518 H 0.21515 0.04392 0.74055
 H3519 H 0.23741 0.04066 0.71129
 H3520 H 0.22925 0.05812 0.70320
 C3521 C 0.30228 0.60171 0.30077
 C3522 C 0.29650 0.60737 0.30964
 C3523 C 0.30132 0.61699 0.31483
 C3524 C 0.31204 0.62120 0.31128
 C3525 C 0.31780 0.61552 0.30238
 C3526 C 0.31298 0.60590 0.29720
 C3527 C 0.29717 0.59144 0.29531
 C3528 C 0.30406 0.58199 0.29246
 C3529 C 0.29923 0.57226 0.28747
 C3530 C 0.28741 0.57176 0.28523
 C3531 C 0.28053 0.58123 0.28800
 C3532 C 0.28536 0.59097 0.29298
 C3533 C 0.28223 0.56130 0.28021
 C3534 C 0.27173 0.55710 0.28434
 C3535 C 0.26697 0.54712 0.27982
 C3536 C 0.27260 0.54111 0.27107
 C3537 C 0.28303 0.54538 0.26685
 C3538 C 0.28781 0.55536 0.27139
 H3539 H 0.28831 0.60427 0.31269
 H3540 H 0.29658 0.62110 0.32162
 H3541 H 0.32607 0.61844 0.29940
 H3542 H 0.31758 0.60180 0.29030
 H3543 H 0.31316 0.58202 0.29431
 H3544 H 0.30472 0.56502 0.28560
 H3545 H 0.27143 0.58117 0.28622
 H3546 H 0.27986 0.59818 0.29489
 H3547 H 0.26729 0.56143 0.29120
 H3548 H 0.25886 0.54412 0.28316
 H3549 H 0.28761 0.54089 0.26018
 H3550 H 0.29586 0.55845 0.26796
 C3551 C 0.30163 0.10132 0.80220
 C3552 C 0.29803 0.10518 0.81296
 C3553 C 0.30294 0.11489 0.81788
 C3554 C 0.31159 0.12101 0.81214
 C3555 C 0.31520 0.11713 0.80137
 C3556 C 0.31028 0.10740 0.79646
 C3557 C 0.29641 0.09099 0.79700
 C3558 C 0.30326 0.08295 0.79126
 C3559 C 0.29835 0.07318 0.78643
 C3560 C 0.28648 0.07124 0.78721
 C3561 C 0.27963 0.07930 0.79293
 C3562 C 0.28454 0.08906 0.79777
 C3563 C 0.28130 0.06082 0.78213
 C3564 C 0.27261 0.05482 0.78792
 C3565 C 0.26788 0.04489 0.78323
 C3566 C 0.27176 0.04073 0.77267
 C3567 C 0.28037 0.04678 0.76684
 C3568 C 0.28508 0.05671 0.77151
 H3569 H 0.29150 0.10058 0.81767
 H3570 H 0.30000 0.11750 0.82623
 H3571 H 0.32174 0.12163 0.79662
 H3572 H 0.31314 0.10472 0.78809
 H3573 H 0.31245 0.08410 0.79068
 H3574 H 0.30389 0.06704 0.78225
 H3575 H 0.27044 0.07814 0.79352
 H3576 H 0.27902 0.09519 0.80199
 H3577 H 0.26962 0.05767 0.79619
 H3578 H 0.26137 0.04033 0.78799
 H3579 H 0.28339 0.04389 0.75859
 H3580 H 0.29161 0.06125 0.76675
 C3581 C 0.80242 0.60174 0.80087
 C3582 C 0.79665 0.60738 0.80976
 C3583 C 0.80142 0.61705 0.81490
 C3584 C 0.81208 0.62133 0.81127
 C3585 C 0.81785 0.61567 0.80238
 C3586 C 0.81308 0.60599 0.79725
 C3587 C 0.79735 0.59144 0.79544
 C3588 C 0.80427 0.58202 0.79257
 C3589 C 0.79946 0.57227 0.78761
 C3590 C 0.78762 0.57172 0.78541
 C3591 C 0.78073 0.58118 0.78819
 C3592 C 0.78553 0.59093 0.79315
 C3593 C 0.78246 0.56125 0.78042
 C3594 C 0.77196 0.55706 0.78454
 C3595 C 0.76719 0.54708 0.78003
 C3596 C 0.77282 0.54106 0.77129
 C3597 C 0.78327 0.54530 0.76709
 C3598 C 0.78805 0.55528 0.77161
 H3599 H 0.78849 0.60422 0.81285
 H3600 H 0.79667 0.62116 0.82168
 H3601 H 0.82609 0.61864 0.79936
 H3602 H 0.81769 0.60190 0.79034
 H3603 H 0.81337 0.58209 0.79438
 H3604 H 0.80497 0.56505 0.78572
 H3605 H 0.77161 0.58108 0.78643
 H3606 H 0.78001 0.59812 0.79507
 H3607 H 0.76750 0.56140 0.79139
 H3608 H 0.75906 0.54409 0.78336
 H3609 H 0.78785 0.54080 0.76042
 H3610 H 0.79610 0.55837 0.76818
 C3611 C 0.80146 0.10154 0.30218
 C3612 C 0.79776 0.10543 0.31290
 C3613 C 0.80273 0.11509 0.31788
 C3614 C 0.81151 0.12111 0.31225
 C3615 C 0.81520 0.11720 0.30151
 C3616 C 0.81023 0.10753 0.29654
 C3617 C 0.79621 0.09124 0.29692
 C3618 C 0.80306 0.08315 0.29126
 C3619 C 0.79814 0.07342 0.28638
 C3620 C 0.78625 0.07155 0.28705
 C3621 C 0.77939 0.07966 0.29269
 C3622 C 0.78432 0.08940 0.29757
 C3623 C 0.78105 0.06115 0.28194
 C3624 C 0.77229 0.05520 0.28765
 C3625 C 0.76759 0.04527 0.28295
 C3626 C 0.77154 0.04107 0.27243
 C3627 C 0.78021 0.04709 0.26666
 C3628 C 0.78491 0.05702 0.27135
 H3629 H 0.79114 0.10090 0.31753
 H3630 H 0.79973 0.11772 0.32620
 H3631 H 0.82185 0.12164 0.29684
 H3632 H 0.81316 0.10483 0.28819
 H3633 H 0.81227 0.08424 0.29077
 H3634 H 0.80368 0.06723 0.28226
 H3635 H 0.77019 0.07856 0.29320
 H3636 H 0.77879 0.09557 0.30173
 H3637 H 0.76925 0.05807 0.29590
 H3638 H 0.76103 0.04073 0.28767
 H3639 H 0.78330 0.04417 0.25845
 H3640 H 0.79150 0.06152 0.26664
 C3641 C 0.69587 0.39874 0.30161
 C3642 C 0.68518 0.39450 0.29807
 C3643 C 0.68045 0.38480 0.30324
 C3644 C 0.68629 0.37911 0.31208
 C3645 C 0.69698 0.38339 0.31563
 C3646 C 0.70171 0.39308 0.31046
 C3647 C 0.70091 0.40905 0.29614
 C3648 C 0.71272 0.40958 0.29380
 C3649 C 0.71750 0.41935 0.28883
 C3650 C 0.71059 0.42881 0.28608
 C3651 C 0.69876 0.42824 0.28832
 C3652 C 0.69397 0.41848 0.29330
 C3653 C 0.71572 0.43930 0.28107
 C3654 C 0.71011 0.44528 0.27228
 C3655 C 0.71489 0.45525 0.26772
 C3656 C 0.72536 0.45949 0.27189
 C3657 C 0.73100 0.45346 0.28062
 C3658 C 0.72624 0.44348 0.28516
 H3659 H 0.68052 0.39860 0.29120
 H3660 H 0.67220 0.38183 0.30026
 H3661 H 0.70178 0.37927 0.32237
 H3662 H 0.70988 0.39623 0.31350
 H3663 H 0.71825 0.40239 0.29570
 H3664 H 0.72660 0.41945 0.28703
 H3665 H 0.69324 0.43546 0.28644
 H3666 H 0.68488 0.41840 0.29515
 H3667 H 0.70205 0.44220 0.26888
 H3668 H 0.71030 0.45976 0.26106
 H3669 H 0.73914 0.45644 0.28392
 H3670 H 0.73071 0.43913 0.29200
 C3671 C 0.69612 0.89820 0.80113
 C3672 C 0.68547 0.89388 0.79757
 C3673 C 0.68080 0.88414 0.80272
 C3674 C 0.68667 0.87849 0.81158
 C3675 C 0.69732 0.88284 0.81513
 C3676 C 0.70199 0.89257 0.80998
 C3677 C 0.70109 0.90856 0.79570
 C3678 C 0.71290 0.90919 0.79337
 C3679 C 0.71763 0.91902 0.78849
 C3680 C 0.71067 0.92846 0.78581
 C3681 C 0.69884 0.92780 0.78802
 C3682 C 0.69411 0.91796 0.79291
 C3683 C 0.71576 0.93904 0.78093
 C3684 C 0.71013 0.94508 0.77219
 C3685 C 0.71487 0.95514 0.76775
 C3686 C 0.72531 0.95938 0.77198
 C3687 C 0.73096 0.95330 0.78067
 C3688 C 0.72624 0.94324 0.78509
 H3689 H 0.68079 0.89796 0.79070
 H3690 H 0.67257 0.88112 0.79976
 H3691 H 0.70214 0.87875 0.82188
 H3692 H 0.71014 0.89577 0.81302
 H3693 H 0.71848 0.90201 0.79523
 H3694 H 0.72674 0.91920 0.78672
 H3695 H 0.69327 0.93500 0.78620
 H3696 H 0.68501 0.91781 0.79474
 H3697 H 0.70210 0.94200 0.76874
 H3698 H 0.71027 0.95969 0.76112
 H3699 H 0.73908 0.95628 0.78401
 H3700 H 0.73072 0.93885 0.79190
 C3701 C 0.19604 0.39823 0.80182
 C3702 C 0.18543 0.39392 0.79814
 C3703 C 0.18078 0.38409 0.80313
 C3704 C 0.18664 0.37833 0.81192
 C3705 C 0.19728 0.38264 0.81556
 C3706 C 0.20192 0.39247 0.81057
 C3707 C 0.20096 0.40873 0.79662
 C3708 C 0.20635 0.41699 0.80348
 C3709 C 0.21110 0.42681 0.79860
 C3710 C 0.21058 0.42862 0.78676
 C3711 C 0.20511 0.42041 0.77990
 C3712 C 0.20035 0.41057 0.78478
 C3713 C 0.21574 0.43903 0.78161
 C3714 C 0.21013 0.44495 0.77278
 C3715 C 0.21490 0.45490 0.76815
 C3716 C 0.22538 0.45915 0.77226
 C3717 C 0.23106 0.45315 0.78098
 C3718 C 0.22630 0.44321 0.78560
 H3719 H 0.18063 0.39825 0.79151
 H3720 H 0.17253 0.38112 0.80015
 H3721 H 0.20214 0.37842 0.82219
 H3722 H 0.21020 0.39548 0.81347
 H3723 H 0.20678 0.41592 0.81265
 H3724 H 0.21506 0.43308 0.80414
 H3725 H 0.20470 0.42148 0.77073
 H3726 H 0.19638 0.40430 0.77926
 H3727 H 0.20191 0.44203 0.76962
 H3728 H 0.21025 0.45941 0.76153
 H3729 H 0.23925 0.45610 0.78418
 H3730 H 0.23095 0.43873 0.79224
 C3731 C 0.19569 0.89792 0.30054
 C3732 C 0.20150 0.89245 0.30951
 C3733 C 0.19678 0.88285 0.31485
 C3734 C 0.18612 0.87846 0.31135
 C3735 C 0.18031 0.88395 0.30236
 C3736 C 0.18504 0.89356 0.29702
 C3737 C 0.20069 0.90817 0.29494
 C3738 C 0.19372 0.91751 0.29191
 C3739 C 0.19850 0.92728 0.28693
 C3740 C 0.21035 0.92793 0.28487
 C3741 C 0.21730 0.91854 0.28776
 C3742 C 0.21252 0.90877 0.29273
 C3743 C 0.21550 0.93848 0.28002
 C3744 C 0.22584 0.94278 0.28441
 C3745 C 0.23058 0.95285 0.28008
 C3746 C 0.22509 0.95887 0.27125
 C3747 C 0.21482 0.95452 0.26675
 C3748 C 0.21005 0.94444 0.27111
 H3749 H 0.20965 0.89569 0.31253
 H3750 H 0.20156 0.87889 0.32170
 H3751 H 0.17208 0.88090 0.29941
 H3752 H 0.18040 0.89751 0.29005
 H3753 H 0.18460 0.91738 0.29365
 H3754 H 0.19295 0.93444 0.28494
 H3755 H 0.22643 0.91872 0.28611
 H3756 H 0.21809 0.90164 0.29476
 H3757 H 0.23018 0.93845 0.29135
 H3758 H 0.23858 0.95592 0.28363
 H3759 H 0.21035 0.95901 0.26000
 H3760 H 0.20213 0.94128 0.26748
 C3761 C 0.39712 0.30339 0.69844
 C3762 C 0.39303 0.31404 0.70222
 C3763 C 0.38331 0.31897 0.69725
 C3764 C 0.37743 0.31336 0.68840
 C3765 C 0.38154 0.30269 0.68463
 C3766 C 0.39127 0.29778 0.68959
 C3767 C 0.40747 0.29817 0.70369
 C3768 C 0.41569 0.29266 0.69686
 C3769 C 0.42543 0.28774 0.70177
 C3770 C 0.42717 0.28819 0.71363
 C3771 C 0.41895 0.29372 0.72046
 C3772 C 0.40921 0.29865 0.71554
 C3773 C 0.43754 0.28295 0.71883
 C3774 C 0.44343 0.28849 0.72771
 C3775 C 0.45333 0.28366 0.73240
 C3776 C 0.45757 0.27318 0.72831
 C3777 C 0.45160 0.26757 0.71953
 C3778 C 0.44170 0.27239 0.71485
 H3779 H 0.39745 0.31865 0.70891
 H3780 H 0.38051 0.32723 0.70032
 H3781 H 0.37722 0.29804 0.67793
 H3782 H 0.39411 0.28948 0.68661
 H3783 H 0.41469 0.29232 0.68768
 H3784 H 0.43170 0.28373 0.69626
 H3785 H 0.41997 0.29407 0.72964
 H3786 H 0.40295 0.30269 0.72104
 H3787 H 0.44052 0.29671 0.73085
 H3788 H 0.45783 0.28826 0.73905
 H3789 H 0.45454 0.25939 0.71634
 H3790 H 0.43724 0.26780 0.70817
 C3791 C 0.39860 0.80536 0.19705
 C3792 C 0.39308 0.79986 0.18794
 C3793 C 0.38355 0.80483 0.18268
 C3794 C 0.37928 0.81545 0.18640
 C3795 C 0.38481 0.82094 0.19556
 C3796 C 0.39434 0.81595 0.20082
 C3797 C 0.40879 0.80008 0.20255
 C3798 C 0.41020 0.80041 0.21446
 C3799 C 0.41974 0.79530 0.21959
 C3800 C 0.42807 0.78974 0.21293
 C3801 C 0.42669 0.78948 0.20102
 C3802 C 0.41717 0.79458 0.19589
 C3803 C 0.43819 0.78424 0.21834
 C3804 C 0.44223 0.77364 0.21436
 C3805 C 0.45195 0.76860 0.21918
 C3806 C 0.45787 0.77404 0.22810
 C3807 C 0.45373 0.78455 0.23222
 C3808 C 0.44399 0.78960 0.22739
 H3809 H 0.39605 0.79161 0.18493
 H3810 H 0.37960 0.80030 0.17568
 H3811 H 0.38181 0.82910 0.19871
 H3812 H 0.39848 0.82047 0.20775
 H3813 H 0.40381 0.80444 0.21983
 H3814 H 0.42049 0.79552 0.22880
 H3815 H 0.43307 0.78545 0.19564
 H3816 H 0.41644 0.79436 0.18668
 H3817 H 0.43782 0.76919 0.20755
 H3818 H 0.45481 0.76039 0.21597
 H3819 H 0.45818 0.78902 0.23898
 H3820 H 0.44117 0.79783 0.23054
 C3821 C 0.89718 0.30347 0.19857
 C3822 C 0.89305 0.31413 0.20230
 C3823 C 0.88340 0.31906 0.19722
 C3824 C 0.87763 0.31347 0.18829
 C3825 C 0.88178 0.30281 0.18456
 C3826 C 0.89144 0.29787 0.18964
 C3827 C 0.90744 0.29823 0.20397
 C3828 C 0.90782 0.28641 0.20618
 C3829 C 0.91751 0.28147 0.21119
 C3830 C 0.92703 0.28823 0.21410
 C3831 C 0.92663 0.30005 0.21194
 C3832 C 0.91694 0.30499 0.20693
 C3833 C 0.93741 0.28295 0.21922
 C3834 C 0.94332 0.28844 0.22812
 C3835 C 0.95323 0.28357 0.23277
 C3836 C 0.95747 0.27313 0.22858
 C3837 C 0.95149 0.26759 0.21975
 C3838 C 0.94158 0.27244 0.21513
 H3839 H 0.89721 0.31860 0.20924
 H3840 H 0.88053 0.32729 0.20032
 H3841 H 0.87758 0.29820 0.17775
 H3842 H 0.89449 0.28972 0.18648
 H3843 H 0.90057 0.28100 0.20418
 H3844 H 0.91750 0.27236 0.21290
 H3845 H 0.93390 0.30546 0.21392
 H3846 H 0.91698 0.31409 0.20517
 H3847 H 0.94024 0.29648 0.23154
 H3848 H 0.95769 0.28808 0.23949
 H3849 H 0.95448 0.25948 0.21643
 H3850 H 0.93728 0.26806 0.20821
 C3851 C 0.89715 0.80352 0.69804
 C3852 C 0.89328 0.81431 0.70164
 C3853 C 0.88367 0.81936 0.69659
 C3854 C 0.87767 0.81372 0.68783
 C3855 C 0.88155 0.80291 0.68425
 C3856 C 0.89117 0.79788 0.68929
 C3857 C 0.90741 0.79820 0.70334
 C3858 C 0.91552 0.79244 0.69659
 C3859 C 0.92521 0.78747 0.70156
 C3860 C 0.92700 0.78811 0.71340
 C3861 C 0.91888 0.79386 0.72016
 C3862 C 0.90919 0.79885 0.71519
 C3863 C 0.93734 0.78286 0.71865
 C3864 C 0.94330 0.78851 0.72741
 C3865 C 0.95321 0.78369 0.73213
 C3866 C 0.95737 0.77313 0.72817
 C3867 C 0.95132 0.76742 0.71951
 C3868 C 0.94142 0.77222 0.71481
 H3869 H 0.89780 0.81895 0.70824
 H3870 H 0.88105 0.82773 0.69952
 H3871 H 0.87713 0.79823 0.67763
 H3872 H 0.89385 0.78948 0.68644
 H3873 H 0.91449 0.79196 0.68742
 H3874 H 0.93140 0.78328 0.69609
 H3875 H 0.91992 0.79436 0.72933
 H3876 H 0.90301 0.80308 0.72064
 H3877 H 0.94047 0.79679 0.73045
 H3878 H 0.95777 0.78837 0.73868
 H3879 H 0.95421 0.75918 0.71642
 H3880 H 0.93690 0.76756 0.70822
 C3881 C 0.60284 0.30273 0.30251
 C3882 C 0.61088 0.29590 0.30828
 C3883 C 0.62059 0.30083 0.31324
 C3884 C 0.62254 0.31266 0.31235
 C3885 C 0.61454 0.31947 0.30648
 C3886 C 0.60474 0.31456 0.30168
 C3887 C 0.59249 0.29753 0.29737
 C3888 C 0.58164 0.30238 0.29925
 C3889 C 0.57185 0.29748 0.29443
 C3890 C 0.57271 0.28771 0.28747
 C3891 C 0.58362 0.28291 0.28558
 C3892 C 0.59338 0.28772 0.29054
 C3893 C 0.56229 0.28260 0.28220
 C3894 C 0.56129 0.27068 0.28084
 C3895 C 0.55149 0.26590 0.27591
 C3896 C 0.54234 0.27290 0.27236
 C3897 C 0.54333 0.28481 0.27374
 C3898 C 0.55320 0.28960 0.27851
 H3899 H 0.60956 0.28676 0.30910
 H3900 H 0.62664 0.29536 0.31763
 H3901 H 0.61577 0.32862 0.30572
 H3902 H 0.59869 0.31999 0.29721
 H3903 H 0.58072 0.30987 0.30462
 H3904 H 0.56360 0.30128 0.29629
 H3905 H 0.58465 0.27552 0.28010
 H3906 H 0.60167 0.28390 0.28887
 H3907 H 0.56803 0.26500 0.28371
 H3908 H 0.55112 0.25671 0.27485
 H3909 H 0.53642 0.29048 0.27127
 H3910 H 0.55371 0.29881 0.27923
 C3911 C 0.60281 0.80195 0.80327
 C3912 C 0.60863 0.81077 0.79754
 C3913 C 0.61828 0.81590 0.80240
 C3914 C 0.62237 0.81232 0.81311
 C3915 C 0.61653 0.80349 0.81884
 C3916 C 0.60687 0.79837 0.81398
 C3917 C 0.59254 0.79652 0.79810
 C3918 C 0.58297 0.79375 0.80486
 C3919 C 0.57327 0.78874 0.79998
 C3920 C 0.57289 0.78640 0.78823
 C3921 C 0.58247 0.78912 0.78148
 C3922 C 0.59219 0.79411 0.78636
 C3923 C 0.56248 0.78130 0.78301
 C3924 C 0.55842 0.78528 0.77244
 C3925 C 0.54848 0.78067 0.76762
 C3926 C 0.54240 0.77196 0.77326
 C3927 C 0.54653 0.76789 0.78378
 C3928 C 0.55646 0.77252 0.78860
 H3929 H 0.60563 0.81382 0.78933
 H3930 H 0.62252 0.82263 0.79768
 H3931 H 0.61935 0.80050 0.82711
 H3932 H 0.60266 0.79151 0.81855
 H3933 H 0.58291 0.79566 0.81390
 H3934 H 0.56595 0.78692 0.80538
 H3935 H 0.58251 0.78725 0.77243
 H3936 H 0.59949 0.79597 0.78095
 H3937 H 0.56280 0.79210 0.76797
 H3938 H 0.54559 0.78389 0.75945
 H3939 H 0.54198 0.76126 0.78837
 H3940 H 0.55945 0.76919 0.79670
 C3941 C 0.10264 0.30205 0.80301
 C3942 C 0.10878 0.31055 0.79713
 C3943 C 0.11848 0.31557 0.80202
 C3944 C 0.12229 0.31221 0.81290
 C3945 C 0.11613 0.30370 0.81877
 C3946 C 0.10643 0.29868 0.81388
 C3947 C 0.09230 0.29675 0.79782
 C3948 C 0.09029 0.28494 0.79888
 C3949 C 0.08056 0.27997 0.79398
 C3950 C 0.07264 0.28669 0.78791
 C3951 C 0.07465 0.29851 0.78688
 C3952 C 0.08437 0.30347 0.79177
 C3953 C 0.06228 0.28144 0.78271
 C3954 C 0.05843 0.28500 0.77191
 C3955 C 0.04854 0.28027 0.76712
 C3956 C 0.04227 0.27188 0.77302
 C3957 C 0.04619 0.26821 0.78376
 C3958 C 0.05608 0.27294 0.78855
 H3959 H 0.10618 0.31322 0.78867
 H3960 H 0.12303 0.32200 0.79716
 H3961 H 0.11869 0.30094 0.82721
 H3962 H 0.10178 0.29227 0.81870
 H3963 H 0.09633 0.27950 0.80334
 H3964 H 0.07934 0.27082 0.79478
 H3965 H 0.06861 0.30395 0.78243
 H3966 H 0.08558 0.31262 0.79097
 H3967 H 0.06313 0.29137 0.76710
 H3968 H 0.04585 0.28313 0.75875
 H3969 H 0.04145 0.26187 0.78858
 H3970 H 0.05874 0.27013 0.79696
 C3971 C 0.10252 0.80194 0.30335
 C3972 C 0.10835 0.81078 0.29767
 C3973 C 0.11799 0.81588 0.30257
 C3974 C 0.12204 0.81227 0.31329
 C3975 C 0.11621 0.80340 0.31896
 C3976 C 0.10657 0.79829 0.31404
 C3977 C 0.09222 0.79660 0.29816
 C3978 C 0.09052 0.78471 0.29874
 C3979 C 0.08084 0.77970 0.29379
 C3980 C 0.07265 0.78648 0.28814
 C3981 C 0.07435 0.79838 0.28759
 C3982 C 0.08402 0.80338 0.29254
 C3983 C 0.06235 0.78121 0.28287
 C3984 C 0.05828 0.78512 0.27227
 C3985 C 0.04841 0.78040 0.26745
 C3986 C 0.04238 0.77167 0.27310
 C3987 C 0.04654 0.76764 0.28362
 C3988 C 0.05642 0.77236 0.28845
 H3989 H 0.10554 0.81366 0.28934
 H3990 H 0.12230 0.82258 0.29786
 H3991 H 0.11898 0.80044 0.32726
 H3992 H 0.10216 0.79160 0.31870
 H3993 H 0.09677 0.77925 0.30288
 H3994 H 0.07986 0.77050 0.29422
 H3995 H 0.06809 0.80386 0.28349
 H3996 H 0.08499 0.81258 0.29211
 H3997 H 0.06278 0.79177 0.26766
 H3998 H 0.04553 0.78355 0.25924
 H3999 H 0.04200 0.76102 0.28825
 H4000 H 0.05926 0.76927 0.29670
 C4001 C 0.60289 0.69814 0.69608
 C4002 C 0.60884 0.68945 0.70188
 C4003 C 0.61860 0.68446 0.69708
 C4004 C 0.62265 0.68802 0.68635
 C4005 C 0.61670 0.69674 0.68056
 C4006 C 0.60694 0.70175 0.68537
 C4007 C 0.59249 0.70339 0.70117
 C4008 C 0.59062 0.71525 0.70047
 C4009 C 0.58086 0.72018 0.70535
 C4010 C 0.57275 0.71335 0.71103
 C4011 C 0.57460 0.70148 0.71168
 C4012 C 0.58436 0.69656 0.70682
 C4013 C 0.56238 0.71854 0.71626
 C4014 C 0.55836 0.71467 0.72690
 C4015 C 0.54846 0.71934 0.73171
 C4016 C 0.54234 0.72799 0.72601
 C4017 C 0.54644 0.73198 0.71546
 C4018 C 0.55635 0.72730 0.71063
 H4019 H 0.60603 0.68661 0.71022
 H4020 H 0.62298 0.67787 0.70188
 H4021 H 0.61946 0.69967 0.67225
 H4022 H 0.60245 0.70832 0.68062
 H4023 H 0.59681 0.72076 0.69631
 H4024 H 0.57975 0.72936 0.70484
 H4025 H 0.56841 0.69596 0.71582
 H4026 H 0.58546 0.68737 0.70733
 H4027 H 0.56294 0.70809 0.73155
 H4028 H 0.54562 0.71624 0.73995
 H4029 H 0.54183 0.73853 0.71080
 H4030 H 0.55915 0.73036 0.70236
 C4031 C 0.60348 0.19664 0.19796
 C4032 C 0.61184 0.20358 0.19283
 C4033 C 0.62152 0.19870 0.18776
 C4034 C 0.62312 0.18678 0.18784
 C4035 C 0.61483 0.17985 0.19314
 C4036 C 0.60507 0.18472 0.19807
 C4037 C 0.59306 0.20178 0.20308
 C4038 C 0.58220 0.19717 0.20079
 C4039 C 0.57236 0.20204 0.20555
 C4040 C 0.57316 0.21157 0.21284
 C4041 C 0.58408 0.21615 0.21515
 C4042 C 0.59391 0.21136 0.21026
 C4043 C 0.56267 0.21666 0.21803
 C4044 C 0.56177 0.22854 0.21972
 C4045 C 0.55191 0.23330 0.22457
 C4046 C 0.54262 0.22631 0.22776
 C4047 C 0.54352 0.21443 0.22605
 C4048 C 0.55343 0.20967 0.22133
 H4049 H 0.61078 0.21279 0.19256
 H4050 H 0.62779 0.20428 0.18384
 H4051 H 0.61576 0.17064 0.19330
 H4052 H 0.59879 0.17919 0.20206
 H4053 H 0.58130 0.18989 0.19514
 H4054 H 0.56410 0.19843 0.20337
 H4055 H 0.58507 0.22335 0.22087
 H4056 H 0.60220 0.21500 0.21226
 H4057 H 0.56863 0.23422 0.21715
 H4058 H 0.55161 0.24246 0.22589
 H4059 H 0.53650 0.20878 0.22823
 H4060 H 0.55387 0.20047 0.22034
 C4061 C 0.10287 0.69804 0.19591
 C4062 C 0.10879 0.68928 0.20164
 C4063 C 0.11853 0.68430 0.19680
 C4064 C 0.12260 0.68795 0.18610
 C4065 C 0.11669 0.69675 0.18039
 C4066 C 0.10695 0.70174 0.18524
 C4067 C 0.09247 0.70326 0.20103
 C4068 C 0.09060 0.71512 0.20041
 C4069 C 0.08082 0.72001 0.20529
 C4070 C 0.07269 0.71314 0.21090
 C4071 C 0.07454 0.70126 0.21147
 C4072 C 0.08431 0.69638 0.20660
 C4073 C 0.06231 0.71829 0.21613
 C4074 C 0.05826 0.71436 0.22672
 C4075 C 0.04834 0.71900 0.23154
 C4076 C 0.04224 0.72769 0.22587
 C4077 C 0.04636 0.73173 0.21535
 C4078 C 0.05629 0.72708 0.21052
 H4079 H 0.10596 0.68637 0.20995
 H4080 H 0.12290 0.67766 0.20154
 H4081 H 0.11947 0.69973 0.17211
 H4082 H 0.10248 0.70837 0.18055
 H4083 H 0.09681 0.72066 0.19631
 H4084 H 0.07972 0.72920 0.20485
 H4085 H 0.06833 0.69571 0.21554
 H4086 H 0.08541 0.68719 0.20704
 H4087 H 0.06282 0.70776 0.23135
 H4088 H 0.04549 0.71586 0.23976
 H4089 H 0.04177 0.73831 0.21071
 H4090 H 0.05911 0.73018 0.20228
 C4091 C 0.10251 0.19680 0.69688
 C4092 C 0.10635 0.20044 0.68611
 C4093 C 0.11607 0.19553 0.68113
 C4094 C 0.12219 0.18685 0.68680
 C4095 C 0.11834 0.18322 0.69759
 C4096 C 0.10862 0.18814 0.70256
 C4097 C 0.09214 0.20198 0.70214
 C4098 C 0.08417 0.19513 0.70798
 C4099 C 0.07440 0.19998 0.71289
 C4100 C 0.07236 0.21181 0.71207
 C4101 C 0.08034 0.21867 0.70624
 C4102 C 0.09012 0.21382 0.70133
 C4103 C 0.06193 0.21695 0.71723
 C4104 C 0.05578 0.22552 0.71143
 C4105 C 0.04587 0.23024 0.71621
 C4106 C 0.04187 0.22649 0.72690
 C4107 C 0.04806 0.21798 0.73273
 C4108 C 0.05797 0.21327 0.72795
 H4109 H 0.10174 0.20698 0.68143
 H4110 H 0.11867 0.19848 0.67277
 H4111 H 0.12287 0.17667 0.70229
 H4112 H 0.10598 0.18526 0.71094
 H4113 H 0.08539 0.18596 0.70859
 H4114 H 0.06832 0.19444 0.71716
 H4115 H 0.07911 0.22784 0.70561
 H4116 H 0.09619 0.21935 0.69704
 H4117 H 0.05850 0.22842 0.70308
 H4118 H 0.04119 0.23665 0.71143
 H4119 H 0.04531 0.21505 0.74106
 H4120 H 0.06262 0.20682 0.73272
 C4121 C 0.39689 0.69631 0.30228
 C4122 C 0.39093 0.70200 0.31101
 C4123 C 0.38121 0.69708 0.31597
 C4124 C 0.37723 0.68633 0.31234
 C4125 C 0.38321 0.68065 0.30359
 C4126 C 0.39291 0.68558 0.29862
 C4127 C 0.40725 0.70152 0.29705
 C4128 C 0.40908 0.70090 0.28522
 C4129 C 0.41884 0.70582 0.28031
 C4130 C 0.42698 0.71144 0.28714
 C4131 C 0.42515 0.71202 0.29898
 C4132 C 0.41539 0.70713 0.30388
 C4133 C 0.43737 0.71665 0.28196
 C4134 C 0.44149 0.72724 0.28587
 C4135 C 0.45140 0.73203 0.28120
 C4136 C 0.45743 0.72635 0.27251
 C4137 C 0.45324 0.71583 0.26848
 C4138 C 0.44333 0.71102 0.27317
 H4139 H 0.39369 0.71035 0.31390
 H4140 H 0.37681 0.70179 0.32259
 H4141 H 0.38051 0.67232 0.30061
 H4142 H 0.39742 0.68091 0.29202
 H4143 H 0.40288 0.69678 0.27972
 H4144 H 0.41992 0.70536 0.27115
 H4145 H 0.43136 0.71611 0.30450
 H4146 H 0.41431 0.70757 0.31305
 H4147 H 0.43698 0.73188 0.29249
 H4148 H 0.45431 0.74025 0.28434
 H4149 H 0.45779 0.71118 0.26190
 H4150 H 0.44046 0.70278 0.27008
 C4151 C 0.39696 0.19569 0.80193
 C4152 C 0.39278 0.18507 0.79819
 C4153 C 0.38301 0.18025 0.80315
 C4154 C 0.37716 0.18596 0.81197
 C4155 C 0.38134 0.19661 0.81568
 C4156 C 0.39112 0.20141 0.81072
 C4157 C 0.40738 0.20079 0.79671
 C4158 C 0.41560 0.20627 0.80356
 C4159 C 0.42538 0.21114 0.79868
 C4160 C 0.42717 0.21066 0.78683
 C4161 C 0.41897 0.20514 0.77998
 C4162 C 0.40919 0.20026 0.78487
 C4163 C 0.43755 0.21590 0.78167
 C4164 C 0.44349 0.21035 0.77282
 C4165 C 0.45341 0.21518 0.76816
 C4166 C 0.45761 0.22567 0.77226
 C4167 C 0.45160 0.23128 0.78101
 C4168 C 0.44169 0.22646 0.78566
 H4169 H 0.39718 0.18038 0.79153
 H4170 H 0.38015 0.17200 0.80012
 H4171 H 0.37704 0.20135 0.82235
 H4172 H 0.39402 0.20969 0.81367
 H4173 H 0.41455 0.20665 0.81274
 H4174 H 0.43163 0.21515 0.80422
 H4175 H 0.42003 0.20476 0.77081
 H4176 H 0.40294 0.19623 0.77935
 H4177 H 0.44060 0.20213 0.76966
 H4178 H 0.45794 0.21058 0.76153
 H4179 H 0.45452 0.23947 0.78421
 H4180 H 0.43719 0.23105 0.79231
 C4181 C 0.89693 0.69643 0.80228
 C4182 C 0.89109 0.70206 0.81114
 C4183 C 0.88131 0.69721 0.81603
 C4184 C 0.87712 0.68661 0.81220
 C4185 C 0.88297 0.68100 0.80332
 C4186 C 0.89275 0.68585 0.79842
 C4187 C 0.90739 0.70154 0.79714
 C4188 C 0.90924 0.70104 0.78529
 C4189 C 0.91913 0.70576 0.78048
 C4190 C 0.92741 0.71106 0.78740
 C4191 C 0.92553 0.71158 0.79924
 C4192 C 0.91564 0.70688 0.80405
 C4193 C 0.93798 0.71598 0.78233
 C4194 C 0.94862 0.71457 0.78778
 C4195 C 0.95856 0.71930 0.78310
 C4196 C 0.95810 0.72555 0.77286
 C4197 C 0.94748 0.72689 0.76736
 C4198 C 0.93752 0.72215 0.77204
 H4199 H 0.89401 0.71030 0.81419
 H4200 H 0.87701 0.70186 0.82276
 H4201 H 0.88011 0.67278 0.80019
 H4202 H 0.89715 0.68123 0.79172
 H4203 H 0.90298 0.69708 0.77973
 H4204 H 0.92038 0.70514 0.77134
 H4205 H 0.93169 0.71572 0.80479
 H4206 H 0.91451 0.70730 0.81321
 H4207 H 0.94928 0.70968 0.79561
 H4208 H 0.96664 0.71794 0.78744
 H4209 H 0.94683 0.73179 0.75954
 H4210 H 0.92943 0.72351 0.76772
 C4211 C 0.89687 0.19575 0.30187
 C4212 C 0.89108 0.20145 0.31071
 C4213 C 0.88130 0.19667 0.31568
 C4214 C 0.87706 0.18604 0.31195
 C4215 C 0.88284 0.18038 0.30305
 C4216 C 0.89261 0.18518 0.29807
 C4217 C 0.90736 0.20077 0.29671
 C4218 C 0.90921 0.20026 0.28486
 C4219 C 0.91912 0.20494 0.28004
 C4220 C 0.92743 0.21019 0.28696
 C4221 C 0.92556 0.21072 0.29880
 C4222 C 0.91564 0.20607 0.30362
 C4223 C 0.93801 0.21509 0.28189
 C4224 C 0.94865 0.21364 0.28734
 C4225 C 0.95859 0.21841 0.28271
 C4226 C 0.95815 0.22476 0.27253
 C4227 C 0.94753 0.22612 0.26701
 C4228 C 0.93757 0.22133 0.27164
 H4229 H 0.89405 0.20970 0.31371
 H4230 H 0.87708 0.20137 0.32241
 H4231 H 0.87994 0.17216 0.29997
 H4232 H 0.89697 0.18051 0.29137
 H4233 H 0.90293 0.19633 0.27931
 H4234 H 0.92036 0.20432 0.27091
 H4235 H 0.93174 0.21483 0.30435
 H4236 H 0.91453 0.20650 0.31278
 H4237 H 0.94930 0.20870 0.29514
 H4238 H 0.96667 0.21703 0.28706
 H4239 H 0.94689 0.23109 0.25924
 H4240 H 0.92948 0.22272 0.26732
 C4241 C 0.30177 0.30455 0.60316
 C4242 C 0.29810 0.31523 0.60726
 C4243 C 0.30313 0.32005 0.61695
 C4244 C 0.31197 0.31431 0.62278
 C4245 C 0.31564 0.30362 0.61866
 C4246 C 0.31059 0.29880 0.60897
 C4247 C 0.29644 0.29943 0.59284
 C4248 C 0.29411 0.28764 0.59236
 C4249 C 0.28923 0.28281 0.58260
 C4250 C 0.28655 0.28966 0.57310
 C4251 C 0.28880 0.30146 0.57361
 C4252 C 0.29369 0.30629 0.58337
 C4253 C 0.28159 0.28450 0.56264
 C4254 C 0.27282 0.29010 0.55658
 C4255 C 0.26832 0.28532 0.54661
 C4256 C 0.27253 0.27485 0.54246
 C4257 C 0.28124 0.26921 0.54856
 C4258 C 0.28571 0.27397 0.55854
 H4259 H 0.29123 0.31981 0.60305
 H4260 H 0.30008 0.32830 0.61979
 H4261 H 0.32237 0.29889 0.62290
 H4262 H 0.31372 0.29062 0.60594
 H4263 H 0.29595 0.28216 0.59959
 H4264 H 0.28743 0.27373 0.58253
 H4265 H 0.28699 0.30693 0.56637
 H4266 H 0.29553 0.31537 0.58341
 H4267 H 0.26939 0.29816 0.55960
 H4268 H 0.26169 0.28991 0.54205
 H4269 H 0.28456 0.26107 0.54564
 H4270 H 0.29254 0.26950 0.56294
 C4271 C 0.30069 0.80328 0.10424
 C4272 C 0.29672 0.81375 0.10861
 C4273 C 0.30159 0.81843 0.11846
 C4274 C 0.31055 0.81275 0.12417
 C4275 C 0.31442 0.80222 0.11984
 C4276 C 0.30956 0.79755 0.11000
 C4277 C 0.29571 0.79841 0.09364
 C4278 C 0.30282 0.79328 0.08543
 C4279 C 0.29817 0.78866 0.07546
 C4280 C 0.28629 0.78905 0.07347
 C4281 C 0.27917 0.79422 0.08166
 C4282 C 0.28383 0.79885 0.09164
 C4283 C 0.28138 0.78409 0.06288
 C4284 C 0.27253 0.78972 0.05698
 C4285 C 0.26809 0.78514 0.04688
 C4286 C 0.27242 0.77483 0.04246
 C4287 C 0.28119 0.76914 0.04843
 C4288 C 0.28561 0.77371 0.05851
 H4289 H 0.28999 0.81844 0.10428
 H4290 H 0.29842 0.82659 0.12144
 H4291 H 0.32118 0.79750 0.12406
 H4292 H 0.31268 0.78937 0.10695
 H4293 H 0.31202 0.79299 0.08662
 H4294 H 0.30391 0.78492 0.06922
 H4295 H 0.26998 0.79452 0.08045
 H4296 H 0.27811 0.80261 0.09788
 H4297 H 0.26920 0.79781 0.06004
 H4298 H 0.26144 0.78980 0.04240
 H4299 H 0.28455 0.76108 0.04535
 H4300 H 0.29228 0.76906 0.06297
 C4301 C 0.80243 0.30463 0.10267
 C4302 C 0.79872 0.31530 0.10674
 C4303 C 0.80365 0.32011 0.11649
 C4304 C 0.81241 0.31435 0.12243
 C4305 C 0.81609 0.30364 0.11835
 C4306 C 0.81116 0.29885 0.10859
 C4307 C 0.79725 0.29954 0.09227
 C4308 C 0.80416 0.29398 0.08417
 C4309 C 0.79931 0.28915 0.07440
 C4310 C 0.78742 0.28975 0.07251
 C4311 C 0.78051 0.29534 0.08059
 C4312 C 0.78537 0.30018 0.09036
 C4313 C 0.78229 0.28457 0.06212
 C4314 C 0.77349 0.29021 0.05615
 C4315 C 0.76885 0.28543 0.04624
 C4316 C 0.77292 0.27490 0.04209
 C4317 C 0.78162 0.26921 0.04813
 C4318 C 0.78625 0.27398 0.05803
 H4319 H 0.79211 0.32004 0.10227
 H4320 H 0.80064 0.32841 0.11926
 H4321 H 0.82270 0.29886 0.12271
 H4322 H 0.81409 0.29053 0.10577
 H4323 H 0.81337 0.29351 0.08530
 H4324 H 0.80490 0.28509 0.06824
 H4325 H 0.77131 0.29581 0.07946
 H4326 H 0.77980 0.30427 0.09653
 H4327 H 0.77037 0.29846 0.05899
 H4328 H 0.76226 0.29009 0.04169
 H4329 H 0.78479 0.26099 0.04526
 H4330 H 0.79287 0.26932 0.06256
 C4331 C 0.80166 0.80493 0.60293
 C4332 C 0.79790 0.81555 0.60711
 C4333 C 0.80296 0.82038 0.61679
 C4334 C 0.81191 0.81470 0.62253
 C4335 C 0.81566 0.80407 0.61831
 C4336 C 0.81059 0.79925 0.60864
 C4337 C 0.79631 0.79981 0.59262
 C4338 C 0.79414 0.78800 0.59208
 C4339 C 0.78928 0.78315 0.58232
 C4340 C 0.78646 0.79001 0.57287
 C4341 C 0.78854 0.80184 0.57344
 C4342 C 0.79342 0.80669 0.58320
 C4343 C 0.78154 0.78482 0.56240
 C4344 C 0.77266 0.79032 0.55641
 C4345 C 0.76818 0.78551 0.54645
 C4346 C 0.77252 0.77512 0.54223
 C4347 C 0.78134 0.76959 0.54826
 C4348 C 0.78580 0.77438 0.55823
 H4349 H 0.79095 0.82008 0.60298
 H4350 H 0.79984 0.82858 0.61970
 H4351 H 0.82248 0.79940 0.62247
 H4352 H 0.81379 0.79113 0.60554
 H4353 H 0.79609 0.78250 0.59927
 H4354 H 0.78761 0.77404 0.58222
 H4355 H 0.78663 0.80732 0.56623
 H4356 H 0.79514 0.81579 0.58327
 H4357 H 0.76912 0.79831 0.55948
 H4358 H 0.76145 0.79002 0.54194
 H4359 H 0.78477 0.76151 0.54529
 H4360 H 0.79271 0.77000 0.56258
 C4361 C 0.30123 0.69579 0.39710
 C4362 C 0.29731 0.68526 0.39287
 C4363 C 0.30222 0.68045 0.38310
 C4364 C 0.31117 0.68607 0.37731
 C4365 C 0.31502 0.69665 0.38153
 C4366 C 0.31012 0.70145 0.39130
 C4367 C 0.29615 0.70082 0.40758
 C4368 C 0.30319 0.70606 0.41579
 C4369 C 0.29845 0.71074 0.42569
 C4370 C 0.28656 0.71032 0.42760
 C4371 C 0.27951 0.70512 0.41938
 C4372 C 0.28426 0.70041 0.40949
 C4373 C 0.28156 0.71529 0.43815
 C4374 C 0.27133 0.72163 0.43774
 C4375 C 0.26678 0.72650 0.44766
 C4376 C 0.27237 0.72512 0.45820
 C4377 C 0.28252 0.71865 0.45862
 C4378 C 0.28707 0.71380 0.44871
 H4379 H 0.29057 0.68062 0.39723
 H4380 H 0.29905 0.67226 0.38021
 H4381 H 0.32179 0.70133 0.37729
 H4382 H 0.31321 0.70966 0.39425
 H4383 H 0.31239 0.70641 0.41463
 H4384 H 0.30409 0.71480 0.43181
 H4385 H 0.27033 0.70458 0.42066
 H4386 H 0.27860 0.69653 0.40327
 H4387 H 0.26696 0.72304 0.42971
 H4388 H 0.25902 0.73156 0.44703
 H4389 H 0.28691 0.71725 0.46664
 H4390 H 0.29485 0.70878 0.44934
 C4391 C 0.30166 0.19608 0.89725
 C4392 C 0.31049 0.20175 0.89137
 C4393 C 0.31547 0.19685 0.88169
 C4394 C 0.31174 0.18616 0.87764
 C4395 C 0.30290 0.18050 0.88354
 C4396 C 0.29793 0.18540 0.89322
 C4397 C 0.29640 0.20127 0.90756
 C4398 C 0.29365 0.19446 0.91707
 C4399 C 0.28876 0.19935 0.92680
 C4400 C 0.28651 0.21115 0.92725
 C4401 C 0.28922 0.21796 0.91773
 C4402 C 0.29410 0.21307 0.90799
 C4403 C 0.28150 0.21637 0.93766
 C4404 C 0.28560 0.22690 0.94175
 C4405 C 0.28106 0.23171 0.95168
 C4406 C 0.27231 0.22611 0.95774
 C4407 C 0.26812 0.21563 0.95360
 C4408 C 0.27268 0.21081 0.94368
 H4409 H 0.31366 0.20993 0.89434
 H4410 H 0.32221 0.20152 0.87739
 H4411 H 0.29979 0.17225 0.88076
 H4412 H 0.29105 0.18087 0.89749
 H4413 H 0.29548 0.18538 0.91708
 H4414 H 0.28694 0.19392 0.93407
 H4415 H 0.28743 0.22705 0.91775
 H4416 H 0.29594 0.21851 0.90073
 H4417 H 0.29246 0.23134 0.93737
 H4418 H 0.28438 0.23985 0.95460
 H4419 H 0.26145 0.21107 0.95814
 H4420 H 0.26927 0.20274 0.94067
 C4421 C 0.80114 0.69572 0.89712
 C4422 C 0.79747 0.68503 0.89305
 C4423 C 0.80254 0.68015 0.88341
 C4424 C 0.81142 0.68584 0.87759
 C4425 C 0.81510 0.69653 0.88170
 C4426 C 0.81002 0.70140 0.89134
 C4427 C 0.79576 0.70092 0.90737
 C4428 C 0.79348 0.71272 0.90777
 C4429 C 0.78859 0.71765 0.91747
 C4430 C 0.78584 0.71089 0.92701
 C4431 C 0.78802 0.69907 0.92659
 C4432 C 0.79293 0.69414 0.91688
 C4433 C 0.78091 0.71617 0.93743
 C4434 C 0.77208 0.71070 0.94350
 C4435 C 0.76761 0.71559 0.95344
 C4436 C 0.77191 0.72604 0.95754
 C4437 C 0.78068 0.73155 0.95142
 C4438 C 0.78512 0.72668 0.94147
 H4439 H 0.79056 0.68049 0.89725
 H4440 H 0.79948 0.67190 0.88058
 H4441 H 0.82187 0.70121 0.87748
 H4442 H 0.81315 0.70958 0.89435
 H4443 H 0.79538 0.71814 0.90051
 H4444 H 0.78685 0.72675 0.91747
 H4445 H 0.78616 0.69366 0.93386
 H4446 H 0.79473 0.68505 0.91691
 H4447 H 0.76858 0.70266 0.94054
 H4448 H 0.76092 0.71109 0.95803
 H4449 H 0.78408 0.73967 0.95429
 H4450 H 0.79200 0.73104 0.93705
 C4451 C 0.80158 0.19630 0.39725
 C4452 C 0.79787 0.18559 0.39325
 C4453 C 0.80283 0.18069 0.38357
 C4454 C 0.81163 0.18637 0.37762
 C4455 C 0.81534 0.19709 0.38164
 C4456 C 0.81037 0.20199 0.39133
 C4457 C 0.79632 0.20148 0.40757
 C4458 C 0.79398 0.21328 0.40798
 C4459 C 0.78911 0.21816 0.41772
 C4460 C 0.78645 0.21137 0.42727
 C4461 C 0.78874 0.19957 0.42683
 C4462 C 0.79363 0.19469 0.41710
 C4463 C 0.78145 0.21658 0.43769
 C4464 C 0.77270 0.21098 0.44376
 C4465 C 0.76815 0.21581 0.45369
 C4466 C 0.77228 0.22632 0.45779
 C4467 C 0.78098 0.23196 0.45167
 C4468 C 0.78550 0.22715 0.44174
 H4469 H 0.79102 0.18105 0.39755
 H4470 H 0.79975 0.17242 0.38081
 H4471 H 0.82205 0.20176 0.37731
 H4472 H 0.81352 0.21018 0.39427
 H4473 H 0.79578 0.21871 0.40071
 H4474 H 0.78728 0.22725 0.41774
 H4475 H 0.78697 0.19415 0.43412
 H4476 H 0.79549 0.18561 0.41711
 H4477 H 0.76931 0.20289 0.44078
 H4478 H 0.76152 0.21121 0.45826
 H4479 H 0.78425 0.24013 0.45455
 H4480 H 0.79232 0.23162 0.43732
 C4481 C 0.69897 0.30319 0.39665
 C4482 C 0.69030 0.29737 0.39072
 C4483 C 0.68535 0.30215 0.38095
 C4484 C 0.68894 0.31289 0.37688
 C4485 C 0.69766 0.31869 0.38282
 C4486 C 0.70262 0.31389 0.39257
 C4487 C 0.70414 0.29814 0.40708
 C4488 C 0.71602 0.29881 0.40902
 C4489 C 0.72086 0.29401 0.41883
 C4490 C 0.71394 0.28843 0.42693
 C4491 C 0.70206 0.28780 0.42500
 C4492 C 0.69722 0.29259 0.41519
 C4493 C 0.71905 0.28329 0.43735
 C4494 C 0.71510 0.27270 0.44148
 C4495 C 0.71972 0.26796 0.45141
 C4496 C 0.72840 0.27368 0.45745
 C4497 C 0.73245 0.28420 0.45326
 C4498 C 0.72782 0.28895 0.44332
 H4499 H 0.68742 0.28903 0.39355
 H4500 H 0.67875 0.29734 0.37661
 H4501 H 0.70062 0.32701 0.38005
 H4502 H 0.70919 0.31865 0.39705
 H4503 H 0.72159 0.30290 0.40285
 H4504 H 0.73006 0.29449 0.41999
 H4505 H 0.69646 0.28375 0.43117
 H4506 H 0.68802 0.29210 0.41403
 H4507 H 0.70851 0.26802 0.43696
 H4508 H 0.71656 0.25975 0.45432
 H4509 H 0.73902 0.28888 0.45781
 H4510 H 0.73093 0.29720 0.44045
 C4511 C 0.69860 0.80422 0.89766
 C4512 C 0.68982 0.79844 0.89186
 C4513 C 0.68479 0.80320 0.88213
 C4514 C 0.68841 0.81390 0.87797
 C4515 C 0.69724 0.81968 0.88378
 C4516 C 0.70228 0.81489 0.89350
 C4517 C 0.70387 0.79916 0.90804
 C4518 C 0.71577 0.79973 0.90982
 C4519 C 0.72071 0.79483 0.91954
 C4520 C 0.71385 0.78928 0.92770
 C4521 C 0.70194 0.78878 0.92595
 C4522 C 0.69701 0.79365 0.91623
 C4523 C 0.71907 0.78400 0.93801
 C4524 C 0.71506 0.77343 0.94211
 C4525 C 0.71975 0.76856 0.95195
 C4526 C 0.72857 0.77415 0.95792
 C4527 C 0.73269 0.78465 0.95374
 C4528 C 0.72798 0.78953 0.94390
 H4529 H 0.68692 0.79012 0.89475
 H4530 H 0.67813 0.79841 0.87787
 H4531 H 0.70022 0.82796 0.88093
 H4532 H 0.70893 0.81962 0.89788
 H4533 H 0.72130 0.80378 0.90358
 H4534 H 0.72993 0.79522 0.92057
 H4535 H 0.69640 0.78475 0.93218
 H4536 H 0.68779 0.79325 0.91521
 H4537 H 0.70836 0.76885 0.93765
 H4538 H 0.71654 0.76037 0.95485
 H4539 H 0.73938 0.78922 0.95824
 H4540 H 0.73115 0.79775 0.94104
 C4541 C 0.19876 0.30371 0.89744
 C4542 C 0.18990 0.29794 0.89171
 C4543 C 0.18474 0.30276 0.88208
 C4544 C 0.18831 0.31348 0.87792
 C4545 C 0.19717 0.31924 0.88368
 C4546 C 0.20233 0.31442 0.89332
 C4547 C 0.20422 0.29858 0.90770
 C4548 C 0.20704 0.30540 0.91716
 C4549 C 0.21205 0.30054 0.92685
 C4550 C 0.21434 0.28874 0.92731
 C4551 C 0.21159 0.28193 0.91783
 C4552 C 0.20659 0.28679 0.90813
 C4553 C 0.21941 0.28353 0.93772
 C4554 C 0.21534 0.27299 0.94184
 C4555 C 0.21992 0.26819 0.95176
 C4556 C 0.22868 0.27379 0.95778
 C4557 C 0.23285 0.28427 0.95360
 C4558 C 0.22824 0.28910 0.94369
 H4559 H 0.18685 0.28974 0.89476
 H4560 H 0.17799 0.29801 0.87790
 H4561 H 0.20015 0.32751 0.88081
 H4562 H 0.20921 0.31902 0.89747
 H4563 H 0.20517 0.31448 0.91715
 H4564 H 0.21391 0.30598 0.93409
 H4565 H 0.21341 0.27284 0.91786
 H4566 H 0.20470 0.28133 0.90091
 H4567 H 0.20847 0.26855 0.93749
 H4568 H 0.21662 0.26004 0.95469
 H4569 H 0.23953 0.28884 0.95811
 H4570 H 0.23164 0.29717 0.94066
 C4571 C 0.19929 0.80404 0.39704
 C4572 C 0.19037 0.79829 0.39140
 C4573 C 0.18512 0.80312 0.38182
 C4574 C 0.18865 0.81384 0.37764
 C4575 C 0.19759 0.81959 0.38331
 C4576 C 0.20283 0.81474 0.39289
 C4577 C 0.20482 0.79889 0.40726
 C4578 C 0.20772 0.80571 0.41670
 C4579 C 0.21273 0.80083 0.42638
 C4580 C 0.21494 0.78901 0.42685
 C4581 C 0.21213 0.78221 0.41737
 C4582 C 0.20713 0.78709 0.40769
 C4583 C 0.21996 0.78377 0.43726
 C4584 C 0.21578 0.77329 0.44141
 C4585 C 0.22030 0.76846 0.45135
 C4586 C 0.22912 0.77400 0.45736
 C4587 C 0.23340 0.78442 0.45315
 C4588 C 0.22885 0.78927 0.44322
 H4589 H 0.18733 0.79009 0.39448
 H4590 H 0.17832 0.79838 0.37772
 H4591 H 0.20055 0.82786 0.38041
 H4592 H 0.20977 0.81934 0.39698
 H4593 H 0.20589 0.81479 0.41670
 H4594 H 0.21464 0.80626 0.43361
 H4595 H 0.21389 0.77311 0.41741
 H4596 H 0.20518 0.78164 0.40048
 H4597 H 0.20886 0.76890 0.43707
 H4598 H 0.21692 0.76036 0.45431
 H4599 H 0.24012 0.78893 0.45765
 H4600 H 0.23232 0.79730 0.44016
 C4601 C 0.69993 0.69653 0.60258
 C4602 C 0.70348 0.68581 0.60671
 C4603 C 0.69823 0.68094 0.61628
 C4604 C 0.68929 0.68667 0.62195
 C4605 C 0.68573 0.69739 0.61778
 C4606 C 0.69099 0.70225 0.60823
 C4607 C 0.70548 0.70171 0.59241
 C4608 C 0.70779 0.71351 0.59204
 C4609 C 0.71279 0.71844 0.58238
 C4610 C 0.71561 0.71169 0.57287
 C4611 C 0.71342 0.69987 0.57328
 C4612 C 0.70840 0.69494 0.58294
 C4613 C 0.72060 0.71699 0.56248
 C4614 C 0.72947 0.71153 0.55645
 C4615 C 0.73399 0.71645 0.54654
 C4616 C 0.72970 0.72690 0.54242
 C4617 C 0.72089 0.73240 0.54850
 C4618 C 0.71640 0.72751 0.55842
 H4619 H 0.71043 0.68123 0.60262
 H4620 H 0.70120 0.67266 0.61916
 H4621 H 0.67892 0.70212 0.62189
 H4622 H 0.68794 0.71045 0.60516
 H4623 H 0.70583 0.71892 0.59928
 H4624 H 0.71455 0.72754 0.58239
 H4625 H 0.71533 0.69447 0.56602
 H4626 H 0.70658 0.68585 0.58289
 H4627 H 0.73296 0.70348 0.55944
 H4628 H 0.74071 0.71196 0.54199
 H4629 H 0.71750 0.74052 0.54560
 H4630 H 0.70949 0.73186 0.56280
 C4631 C 0.69923 0.19798 0.10306
 C4632 C 0.70295 0.18730 0.10713
 C4633 C 0.69796 0.18241 0.11681
 C4634 C 0.68911 0.18808 0.12269
 C4635 C 0.68540 0.19878 0.11861
 C4636 C 0.69040 0.20367 0.10892
 C4637 C 0.70452 0.20314 0.09274
 C4638 C 0.70685 0.21493 0.09227
 C4639 C 0.71179 0.21978 0.08254
 C4640 C 0.71452 0.21295 0.07306
 C4641 C 0.71223 0.20115 0.07354
 C4642 C 0.70727 0.19631 0.08326
 C4643 C 0.71962 0.21811 0.06265
 C4644 C 0.72844 0.21249 0.05671
 C4645 C 0.73307 0.21725 0.04678
 C4646 C 0.72894 0.22773 0.04255
 C4647 C 0.72018 0.23340 0.04854
 C4648 C 0.71558 0.22865 0.05848
 H4649 H 0.70984 0.18276 0.10289
 H4650 H 0.70107 0.17416 0.11961
 H4651 H 0.67864 0.20345 0.12287
 H4652 H 0.68724 0.21185 0.10592
 H4653 H 0.70500 0.22039 0.09950
 H4654 H 0.71361 0.22886 0.08249
 H4655 H 0.71406 0.19570 0.06630
 H4656 H 0.70542 0.18723 0.08329
 H4657 H 0.73181 0.20441 0.05978
 H4658 H 0.73973 0.21263 0.04230
 H4659 H 0.71691 0.24154 0.04557
 H4660 H 0.70872 0.23314 0.06281
 C4661 C 0.20000 0.69685 0.10252
 C4662 C 0.20356 0.68613 0.10663
 C4663 C 0.19832 0.68125 0.11620
 C4664 C 0.18940 0.68698 0.12190
 C4665 C 0.18584 0.69772 0.11776
 C4666 C 0.19108 0.70258 0.10820
 C4667 C 0.20553 0.70204 0.09234
 C4668 C 0.20785 0.71383 0.09197
 C4669 C 0.21284 0.71876 0.08230
 C4670 C 0.21563 0.71200 0.07278
 C4671 C 0.21341 0.70019 0.07319
 C4672 C 0.20841 0.69526 0.08285
 C4673 C 0.22062 0.71729 0.06239
 C4674 C 0.22948 0.71181 0.05636
 C4675 C 0.23400 0.71671 0.04644
 C4676 C 0.22972 0.72717 0.04232
 C4677 C 0.22093 0.73269 0.04840
 C4678 C 0.21644 0.72781 0.05832
 H4679 H 0.21049 0.68155 0.10252
 H4680 H 0.20129 0.67297 0.11906
 H4681 H 0.17904 0.70244 0.12190
 H4682 H 0.18803 0.71079 0.10515
 H4683 H 0.20592 0.71924 0.09921
 H4684 H 0.21461 0.72785 0.08231
 H4685 H 0.21531 0.69479 0.06592
 H4686 H 0.20657 0.68618 0.08281
 H4687 H 0.23295 0.70375 0.05935
 H4688 H 0.24070 0.71221 0.04189
 H4689 H 0.21755 0.74082 0.04550
 H4690 H 0.20955 0.73219 0.06271
 C4691 C 0.19888 0.19717 0.60262
 C4692 C 0.20256 0.18647 0.60668
 C4693 C 0.19745 0.18154 0.61629
 C4694 C 0.18852 0.18719 0.62207
 C4695 C 0.18484 0.19790 0.61798
 C4696 C 0.18996 0.20283 0.60838
 C4697 C 0.20429 0.20238 0.59238
 C4698 C 0.20659 0.21418 0.59199
 C4699 C 0.21161 0.21909 0.58233
 C4700 C 0.21446 0.21231 0.57284
 C4701 C 0.21221 0.20050 0.57325
 C4702 C 0.20718 0.19560 0.58291
 C4703 C 0.21959 0.21754 0.56248
 C4704 C 0.22847 0.21198 0.55657
 C4705 C 0.23312 0.21680 0.54667
 C4706 C 0.22897 0.22728 0.54247
 C4707 C 0.22016 0.23289 0.54844
 C4708 C 0.21553 0.22808 0.55834
 H4709 H 0.20949 0.18195 0.60251
 H4710 H 0.20051 0.17328 0.61910
 H4711 H 0.17804 0.20256 0.62219
 H4712 H 0.18683 0.21102 0.60537
 H4713 H 0.20464 0.21960 0.59922
 H4714 H 0.21339 0.22818 0.58233
 H4715 H 0.21413 0.19509 0.56601
 H4716 H 0.20535 0.18651 0.58287
 H4717 H 0.23186 0.20391 0.55962
 H4718 H 0.23983 0.21223 0.54220
 H4719 H 0.21686 0.24103 0.54548
 H4720 H 0.20863 0.23252 0.56265
   
