data_POSCAR
  _audit_creation_date              2014-09-24
  _audit_creation_method            'ToBaCCo'
  _symmetry_space_group_name_H-M    'P1'
  _symmetry_Int_Tables_number       1
  _symmetry_cell_setting            triclinic
  loop_
  _symmetry_equiv_pos_as_xyz
 x,y,z
_cell_length_a 54.8866
_cell_length_b 54.9025
_cell_length_c 54.8866
_cell_angle_alpha 90.073500
_cell_angle_beta 89.991900
_cell_angle_gamma 89.976200
loop_
  _atom_site_label
  _atom_site_type_symbol
  _atom_site_fract_x
  _atom_site_fract_y
  _atom_site_fract_z
C1 C 0.12511 -0.00094 0.25037
 C2 C 0.37494 0.00032 0.74976
 C3 C 0.87482 0.50053 0.24997
 C4 C 0.62514 0.49911 0.75147
 C5 C 0.25038 0.12515 0.99866
 C6 C 0.75012 0.37491 1.00100
 C7 C 0.25150 0.87485 0.50104
 C8 C 0.75066 0.62500 0.49890
 C9 C -0.00072 0.25140 0.12492
 C10 C -0.00041 0.74806 0.37479
 C11 C 0.49953 0.24966 0.87474
 C12 C 0.49900 0.75179 0.62504
 C13 C 0.87486 0.99913 0.75036
 C14 C 0.37492 0.49893 0.25137
 C15 C 0.62513 1.00064 0.24968
 C16 C 0.12510 0.50034 0.74989
 C17 C 0.75046 0.87490 -0.00082
 C18 C 0.25081 0.37511 0.49888
 C19 C 0.24999 0.62478 0.00056
 C20 C 0.75131 0.12482 0.50068
 C21 C 0.99895 0.75112 0.87523
 C22 C 0.49929 0.25146 0.37525
 C23 C 0.99946 0.24834 0.62455
 C24 C 0.49963 0.75004 0.12461
 O25 O -0.00452 1.05442 1.04793
 O26 O -0.04185 1.03575 1.05229
 O27 O 0.04674 0.99522 1.05404
 O28 O 0.05525 0.96067 1.03483
 O29 O 0.05363 1.04797 0.99534
 O30 O 0.03292 1.05365 0.95793
 O31 O -0.01570 0.93195 0.98795
 O32 O -0.00153 0.93075 1.02702
 O33 O -0.06868 0.98744 0.98532
 O34 O -0.06998 1.03006 0.99677
 O35 O -0.01358 0.98553 0.93185
 O36 O 0.02855 0.99629 0.93017
 O37 O 0.00275 0.94697 0.95405
 O38 O 0.04307 0.96843 0.94840
 O39 O -0.04722 1.00436 0.94683
 O40 O -0.05235 1.04425 0.96837
 O41 O -0.05347 0.95347 1.00332
 O42 O -0.03462 0.95336 1.04444
 O43 O 0.01340 1.06967 1.01382
 O44 O 0.00166 1.07009 0.97152
 O45 O 0.06884 1.01435 1.01398
 O46 O 0.06799 0.97139 1.00014
 O47 O 0.01358 1.01485 1.06918
 O48 O -0.02888 0.99981 1.06824
 Zr49 Zr -0.01035 1.01758 1.03931
 O50 O -0.03381 0.99592 1.01806
 Zr51 Zr 0.03893 0.99053 1.01685
 O52 O 0.01744 0.96714 0.99539
 Zr53 Zr 0.01661 1.03974 0.98991
 O54 O -0.00528 1.01850 0.96661
 Zr55 Zr -0.01704 0.96230 1.01116
 O56 O 0.00568 0.98302 1.03446
 Zr57 Zr -0.03886 1.01148 0.98355
 O58 O -0.01784 1.03485 1.00588
 Zr59 Zr 0.01031 0.98385 0.96175
 O60 O 0.03400 1.00641 0.98233
 O61 O 0.02355 1.02437 1.02374
 O62 O -0.02386 0.97724 0.97688
 C63 C 0.00442 1.07205 1.03536
 C64 C 0.03466 1.00495 1.07162
 C65 C 0.07125 1.03564 1.00459
 C66 C -0.00701 0.92955 0.96633
 C67 C -0.07095 0.96573 0.99375
 C68 C -0.03509 0.99443 0.92943
 H69 H -0.04940 0.99375 1.02683
 H70 H -0.00729 1.02718 0.95097
 H71 H 0.03402 1.03474 1.03417
 H72 H 0.02595 0.95138 0.99351
 H73 H 0.00629 0.93603 1.04240
 H74 H 0.04467 0.94643 1.03180
 H75 H -0.04203 1.04843 0.95420
 H76 H -0.01477 1.07276 0.97847
 H77 H -0.04256 0.93726 1.04243
 H78 H -0.02661 1.00936 1.08344
 H79 H 0.02283 1.01305 0.92690
 H80 H 0.04365 1.04062 0.95157
 H81 H -0.04820 1.04561 1.03861
 H82 H -0.07399 1.02323 1.01294
 H83 H 0.07200 0.98014 0.98490
 H84 H 0.04684 0.95392 0.95837
 O85 O 0.55371 0.54842 0.49670
 O86 O 0.53496 0.55270 0.45939
 O87 O 0.49451 0.55475 0.54800
 O88 O 0.46000 0.53555 0.55658
 O89 O 0.54739 0.49604 0.55494
 O90 O 0.55306 0.45857 0.53430
 O91 O 0.43129 0.48840 0.48567
 O92 O 0.42999 0.52751 0.49983
 O93 O 0.48676 0.48570 0.43270
 O94 O 0.52938 0.49715 0.43139
 O95 O 0.48497 0.43239 0.48787
 O96 O 0.49585 0.43090 0.53009
 O97 O 0.44640 0.45458 0.50416
 O98 O 0.46781 0.44904 0.54446
 O99 O 0.50370 0.44731 0.45418
 O100 O 0.54360 0.46877 0.44901
 O101 O 0.45275 0.50375 0.44788
 O102 O 0.45256 0.54489 0.46674
 O103 O 0.56902 0.51435 0.51467
 O104 O 0.56948 0.47205 0.50303
 O105 O 0.51375 0.51472 0.57017
 O106 O 0.47078 0.50091 0.56937
 O107 O 0.51412 0.56974 0.51481
 O108 O 0.49902 0.56869 0.47239
 Zr109 Zr 0.51685 0.53982 0.49093
 O110 O 0.49519 0.51851 0.46752
 Zr111 Zr 0.48987 0.51752 0.54028
 O112 O 0.46650 0.49599 0.51882
 Zr113 Zr 0.53911 0.49050 0.51794
 O114 O 0.51789 0.46715 0.49610
 Zr115 Zr 0.46158 0.51166 0.48432
 O116 O 0.48230 0.53502 0.50699
 Zr117 Zr 0.51081 0.48401 0.46251
 O118 O 0.53418 0.50637 0.48349
 Zr119 Zr 0.48326 0.46235 0.51173
 O120 O 0.50580 0.48299 0.53538
 O121 O 0.52370 0.52435 0.52485
 O122 O 0.47660 0.47737 0.47754
 C123 C 0.57137 0.53586 0.50563
 C124 C 0.50420 0.57227 0.53588
 C125 C 0.53506 0.50533 0.57257
 C126 C 0.42895 0.46680 0.49437
 C127 C 0.46503 0.49413 0.43041
 C128 C 0.49382 0.42994 0.46634
 H129 H 0.49299 0.52724 0.45192
 H130 H 0.52660 0.45151 0.49410
 H131 H 0.53407 0.53481 0.53529
 H132 H 0.45073 0.49413 0.52734
 H133 H 0.43524 0.54290 0.50765
 H134 H 0.44574 0.53248 0.54602
 H135 H 0.54778 0.45461 0.45933
 H136 H 0.57211 0.47891 0.48657
 H137 H 0.43645 0.54285 0.45879
 H138 H 0.50857 0.58389 0.47461
 H139 H 0.51253 0.42748 0.52419
 H140 H 0.54004 0.45225 0.54505
 H141 H 0.54486 0.53900 0.45306
 H142 H 0.52248 0.51328 0.42731
 H143 H 0.47954 0.48566 0.57336
 H144 H 0.45334 0.45910 0.54827
 O145 O 0.44718 -0.04594 0.49537
 O146 O 0.46585 -0.05017 0.45793
 O147 O 0.50638 -0.05220 0.54649
 O148 O 0.54100 -0.03304 0.55495
 O149 O 0.45358 0.00644 0.55367
 O150 O 0.44787 0.04395 0.53312
 O151 O 0.56957 0.01404 0.48419
 O152 O 0.57086 -0.02503 0.49821
 O153 O 0.51396 0.01672 0.43128
 O154 O 0.47133 0.00530 0.43007
 O155 O 0.51583 0.07013 0.48656
 O156 O 0.50515 0.07170 0.52873
 O157 O 0.55452 0.04790 0.50278
 O158 O 0.53307 0.05347 0.54312
 O159 O 0.49703 0.05518 0.45289
 O160 O 0.45718 0.03371 0.44775
 O161 O 0.54801 -0.00128 0.44637
 O162 O 0.54824 -0.04240 0.46514
 O163 O 0.43188 -0.01189 0.51345
 O164 O 0.43138 0.03043 0.50183
 O165 O 0.48726 -0.01223 0.56876
 O166 O 0.53019 0.00163 0.56791
 O167 O 0.48672 -0.06721 0.51330
 O168 O 0.50180 -0.06622 0.47087
 Zr169 Zr 0.48400 -0.03731 0.48948
 O170 O 0.50561 -0.01602 0.46607
 Zr171 Zr 0.51108 -0.01499 0.53881
 O172 O 0.53440 0.00653 0.51735
 Zr173 Zr 0.46178 0.01201 0.51666
 O174 O 0.48296 0.03535 0.49480
 Zr175 Zr 0.53925 -0.00916 0.48281
 O176 O 0.51858 -0.03251 0.50547
 Zr177 Zr 0.48998 0.01847 0.46117
 O178 O 0.46665 -0.00387 0.48215
 Zr179 Zr 0.51763 0.04017 0.51035
 O180 O 0.49514 0.01954 0.53401
 O181 O 0.47722 -0.02183 0.52344
 O182 O 0.52423 0.02513 0.47612
 C183 C 0.42954 -0.03342 0.50442
 C184 C 0.49661 -0.06971 0.53437
 C185 C 0.46592 -0.00289 0.57123
 C186 C 0.57196 0.03563 0.49298
 C187 C 0.53568 0.00827 0.42893
 C188 C 0.50689 0.07257 0.46507
 H189 H 0.50778 -0.02477 0.45045
 H190 H 0.47425 0.05098 0.49286
 H191 H 0.46688 -0.03227 0.53388
 H192 H 0.55018 0.00839 0.52585
 H193 H 0.56562 -0.04040 0.50603
 H194 H 0.55526 -0.02985 0.54444
 H195 H 0.45295 0.04781 0.45817
 H196 H 0.42869 0.02351 0.48539
 H197 H 0.56432 -0.04038 0.45716
 H198 H 0.49222 -0.08139 0.47305
 H199 H 0.48836 0.07496 0.52307
 H200 H 0.46089 0.05023 0.54390
 H201 H 0.45583 -0.03652 0.45174
 H202 H 0.47820 -0.01085 0.42597
 H203 H 0.52143 0.01686 0.57197
 H204 H 0.54757 0.04344 0.54688
 O205 O -0.05395 0.45361 0.99518
 O206 O -0.03527 0.44933 0.95775
 O207 O 0.00530 0.44738 1.04632
 O208 O 0.03989 0.46653 1.05478
 O209 O -0.04749 0.50609 1.05343
 O210 O -0.05318 0.54357 1.03278
 O211 O 0.06851 0.51353 0.98402
 O212 O 0.06976 0.47445 0.99811
 O213 O 0.01299 0.51613 0.93104
 O214 O -0.02968 0.50472 0.92981
 O215 O 0.01480 0.56961 0.98625
 O216 O 0.00401 0.57121 1.02846
 O217 O 0.05342 0.54742 1.00252
 O218 O 0.03201 0.55308 1.04281
 O219 O -0.00397 0.55464 0.95258
 O220 O -0.04382 0.53318 0.94741
 O221 O 0.04701 0.49817 0.94622
 O222 O 0.04718 0.45707 0.96499
 O223 O -0.06921 0.48770 1.01323
 O224 O -0.06971 0.52996 1.00156
 O225 O -0.01383 0.48738 1.06853
 O226 O 0.02908 0.50121 1.06770
 O227 O -0.01437 0.43232 1.01314
 O228 O 0.00066 0.43327 0.97071
 Zr229 Zr -0.01711 0.46221 0.98929
 O230 O 0.00456 0.48345 0.96587
 Zr231 Zr 0.00998 0.48457 1.03860
 O232 O 0.03332 0.50607 1.01715
 Zr233 Zr -0.03929 0.51158 1.01640
 O234 O -0.01810 0.53486 0.99451
 Zr235 Zr 0.03819 0.49032 0.98264
 O236 O 0.01748 0.46700 1.00529
 Zr237 Zr -0.01105 0.51794 0.96089
 O238 O -0.03442 0.49565 0.98191
 Zr239 Zr 0.01655 0.53970 1.01009
 O240 O -0.00595 0.51910 1.03376
 O241 O -0.02388 0.47773 1.02324
 O242 O 0.02318 0.52461 0.97588
 C243 C -0.07158 0.46617 1.00422
 C244 C -0.00446 0.42984 1.03421
 C245 C -0.03514 0.49676 1.07100
 C246 C 0.07088 0.53515 0.99276
 C247 C 0.03472 0.50770 0.92874
 C248 C 0.00589 0.57204 0.96474
 H249 H 0.00674 0.47468 0.95027
 H250 H -0.02681 0.55050 0.99253
 H251 H -0.03423 0.46731 1.03369
 H252 H 0.04909 0.50794 1.02565
 H253 H 0.06449 0.45907 1.00591
 H254 H 0.05416 0.46975 1.04430
 H255 H -0.04807 0.54727 0.95782
 H256 H -0.07235 0.52308 0.98509
 H257 H 0.06329 0.45908 0.95705
 H258 H -0.00892 0.41810 0.97291
 H259 H -0.01271 0.57457 1.02265
 H260 H -0.04017 0.54985 1.04358
 H261 H -0.04525 0.46299 0.95153
 H262 H -0.02279 0.48857 0.92573
 H263 H 0.02034 0.51648 1.07170
 H264 H 0.04646 0.54301 1.04663
 O265 O 0.01453 0.42931 0.51269
 O266 O 0.00174 0.42832 0.47280
 O267 O 0.06906 0.48607 0.51328
 O268 O 0.07131 0.52558 0.50551
 O269 O 0.01254 0.48436 0.56915
 O270 O -0.02904 0.49560 0.56957
 O271 O 0.00395 0.55129 0.45184
 O272 O 0.04162 0.53370 0.44862
 O273 O -0.04748 0.49496 0.44663
 O274 O -0.05378 0.45618 0.46717
 O275 O -0.05336 0.54587 0.50345
 O276 O -0.03304 0.55261 0.54170
 O277 O -0.01474 0.56650 0.48557
 O278 O -0.00209 0.56727 0.52962
 O279 O -0.06867 0.51213 0.48511
 O280 O -0.06903 0.46849 0.49778
 O281 O -0.01401 0.51403 0.43160
 O282 O 0.02738 0.49590 0.43189
 O283 O -0.00481 0.44431 0.54618
 O284 O -0.04302 0.46524 0.55184
 O285 O 0.04633 0.50288 0.55413
 O286 O 0.04985 0.54242 0.53264
 O287 O 0.05393 0.45184 0.49559
 O288 O 0.03293 0.44950 0.45576
 Zr289 Zr 0.01687 0.45966 0.48948
 O290 O -0.00556 0.48053 0.46642
 Zr291 Zr 0.03858 0.50896 0.51709
 O292 O 0.01774 0.53186 0.49453
 Zr293 Zr -0.01066 0.48153 0.53877
 O294 O -0.03381 0.50379 0.51780
 Zr295 Zr 0.01041 0.51480 0.46110
 O296 O 0.03420 0.49316 0.48237
 Zr297 Zr -0.03901 0.48792 0.48335
 O298 O -0.01781 0.46439 0.50529
 Zr299 Zr -0.01669 0.53721 0.51033
 O300 O 0.00509 0.51618 0.53429
 O301 O 0.02337 0.47498 0.52358
 O302 O -0.02373 0.52192 0.47631
 C303 C 0.00483 0.42679 0.53387
 C304 C 0.07155 0.46456 0.50435
 C305 C 0.03387 0.49366 0.57168
 C306 C -0.00591 0.56876 0.46397
 C307 C -0.03551 0.50509 0.42925
 C308 C -0.07089 0.53376 0.49378
 H309 H -0.00766 0.47184 0.45077
 H310 H -0.04934 0.50604 0.52662
 H311 H 0.03384 0.46460 0.53396
 H312 H 0.02659 0.54734 0.49206
 H313 H 0.05584 0.52325 0.45237
 H314 H 0.06751 0.53433 0.49025
 H315 H -0.07451 0.47705 0.51267
 H316 H -0.04854 0.45377 0.53905
 H317 H 0.02656 0.50637 0.41719
 H318 H 0.04236 0.43425 0.45808
 H319 H -0.04480 0.54059 0.54814
 H320 H -0.02319 0.51252 0.57173
 H321 H -0.01538 0.42721 0.47836
 H322 H -0.04223 0.45054 0.45453
 H323 H 0.03817 0.54632 0.54583
 H324 H 0.01246 0.57303 0.52069
 O325 O 0.51295 0.98523 0.06875
 O326 O 0.47304 0.99808 0.06972
 O327 O 0.51354 0.93067 0.01198
 O328 O 0.50569 0.92841 -0.02758
 O329 O 0.56938 0.98716 0.01375
 O330 O 0.56980 1.02872 0.00250
 O331 O 0.45204 0.99575 -0.05328
 O332 O 0.44884 0.95811 -0.03575
 O333 O 0.44685 1.04719 0.00317
 O334 O 0.46745 1.05348 0.04198
 O335 O 0.50364 1.05309 -0.04773
 O336 O 0.54191 1.03270 -0.05447
 O337 O 0.48575 1.01442 -0.06846
 O338 O 0.52977 1.00183 -0.06926
 O339 O 0.48528 1.06837 -0.01396
 O340 O 0.49798 1.06876 0.02964
 O341 O 0.43180 1.01373 -0.01596
 O342 O 0.43214 0.97234 0.00208
 O343 O 0.54643 1.00455 0.05379
 O344 O 0.55209 1.04273 0.03289
 O345 O 0.55438 0.95337 -0.00482
 O346 O 0.53288 0.94982 -0.04438
 O347 O 0.49588 0.94588 0.04620
 O348 O 0.45604 0.96683 0.04851
 Zr349 Zr 0.48974 0.98290 0.03838
 O350 O 0.46666 1.00530 0.01752
 Zr351 Zr 0.51732 0.96113 -0.01092
 O352 O 0.49476 0.98198 -0.03382
 Zr353 Zr 0.53901 1.01038 0.01656
 O354 O 0.51801 1.03351 -0.00568
 Zr355 Zr 0.46132 0.98932 -0.01678
 O356 O 0.48261 0.96554 0.00486
 Zr357 Zr 0.48358 1.03872 0.01019
 O358 O 0.50554 1.01755 0.03371
 Zr359 Zr 0.51052 1.01640 -0.03914
 O360 O 0.53450 0.99461 -0.01811
 O361 O 0.52382 0.97637 0.02307
 O362 O 0.47651 1.02344 -0.02385
 C363 C 0.53414 0.99492 0.07129
 C364 C 0.50464 0.92824 0.03350
 C365 C 0.57192 0.96582 0.00444
 C366 C 0.46415 1.00559 -0.07074
 C367 C 0.42946 1.03522 -0.00697
 C368 C 0.49395 1.07061 -0.03557
 H369 H 0.45101 1.00740 0.02622
 H370 H 0.52683 1.04904 -0.00790
 H371 H 0.53422 0.96591 0.03346
 H372 H 0.49228 0.97312 -0.04932
 H373 H 0.45263 0.94390 -0.02533
 H374 H 0.49050 0.93224 -0.03643
 H375 H 0.51290 1.07421 0.02113
 H376 H 0.53931 1.04827 0.04436
 H377 H 0.41743 0.97316 -0.00839
 H378 H 0.45837 0.95746 0.06379
 H379 H 0.54832 1.04450 -0.04245
 H380 H 0.57195 1.02284 -0.01442
 H381 H 0.47867 1.01516 0.07090
 H382 H 0.45477 1.04197 0.04757
 H383 H 0.54602 0.96153 -0.04829
 H384 H 0.52091 0.98721 -0.07496
 O385 O 0.43048 0.51180 0.01579
 O386 O 0.42951 0.47188 0.00301
 O387 O 0.48724 0.51246 0.07032
 O388 O 0.52677 0.50455 0.07257
 O389 O 0.48547 0.56814 0.01379
 O390 O 0.49675 0.56853 -0.02776
 O391 O 0.55253 0.45080 0.00520
 O392 O 0.53496 0.44761 0.04282
 O393 O 0.49611 0.44563 -0.04625
 O394 O 0.45739 0.46616 -0.05258
 O395 O 0.54704 0.50238 -0.05212
 O396 O 0.55379 0.54059 -0.03176
 O397 O 0.56771 0.48449 -0.01347
 O398 O 0.56848 0.52851 -0.00084
 O399 O 0.51328 0.48408 -0.06743
 O400 O 0.46960 0.49679 -0.06772
 O401 O 0.51515 0.43054 -0.01279
 O402 O 0.49712 0.43096 0.02865
 O403 O 0.44548 0.54522 -0.00355
 O404 O 0.46641 0.55080 -0.04177
 O405 O 0.50406 0.55321 0.04758
 O406 O 0.54362 0.53164 0.05112
 O407 O 0.45302 0.49478 0.05518
 O408 O 0.45072 0.45490 0.03422
 Zr409 Zr 0.46085 0.48857 0.01813
 O410 O 0.48172 0.46547 -0.00431
 Zr411 Zr 0.51015 0.51614 0.03985
 O412 O 0.53305 0.49352 0.01899
 Zr413 Zr 0.48270 0.53776 -0.00941
 O414 O 0.50497 0.51675 -0.03255
 Zr415 Zr 0.51602 0.46010 0.01164
 O416 O 0.49437 0.48143 0.03545
 Zr417 Zr 0.48910 0.48235 -0.03775
 O418 O 0.46555 0.50431 -0.01655
 Zr419 Zr 0.53840 0.50926 -0.01543
 O420 O 0.51736 0.53327 0.00636
 O421 O 0.47616 0.52264 0.02462
 O422 O 0.52312 0.47525 -0.02249
 C423 C 0.42796 0.53297 0.00609
 C424 C 0.46571 0.50358 0.07280
 C425 C 0.49478 0.57072 0.03511
 C426 C 0.57000 0.46291 -0.00462
 C427 C 0.50619 0.42822 -0.03428
 C428 C 0.53490 0.49274 -0.06966
 H429 H 0.47302 0.44983 -0.00642
 H430 H 0.50720 0.52557 -0.04808
 H431 H 0.46577 0.53305 0.03509
 H432 H 0.54853 0.49104 0.02785
 H433 H 0.52455 0.45143 0.05706
 H434 H 0.53555 0.48930 0.06876
 H435 H 0.47818 0.51163 -0.07325
 H436 H 0.45489 0.53806 -0.04727
 H437 H 0.50757 0.41624 0.02781
 H438 H 0.43546 0.45725 0.04364
 H439 H 0.54175 0.54706 -0.04348
 H440 H 0.51367 0.57069 -0.02189
 H441 H 0.42836 0.47744 -0.01410
 H442 H 0.45168 0.45363 -0.04097
 H443 H 0.54751 0.54481 0.03945
 H444 H 0.57421 0.51962 0.01374
 O445 O -0.00418 -0.05567 0.45302
 O446 O -0.04159 -0.03702 0.44874
 O447 O 0.04695 0.00355 0.44678
 O448 O 0.05542 0.03813 0.46596
 O449 O 0.05402 -0.04917 0.50549
 O450 O 0.03335 -0.05481 0.54297
 O451 O -0.01544 0.06683 0.51297
 O452 O -0.00134 0.06802 0.47388
 O453 O -0.06839 0.01130 0.51564
 O454 O -0.06961 -0.03134 0.50425
 O455 O -0.01321 0.01326 0.56908
 O456 O 0.02895 0.00251 0.57070
 O457 O 0.00307 0.05183 0.54685
 O458 O 0.04340 0.03037 0.55245
 O459 O -0.04685 -0.00557 0.55415
 O460 O -0.05197 -0.04547 0.53266
 O461 O -0.05322 0.04528 0.49766
 O462 O -0.03442 0.04540 0.45652
 O463 O 0.01381 -0.07090 0.48711
 O464 O 0.00211 -0.07131 0.52941
 O465 O 0.06912 -0.01554 0.48679
 O466 O 0.06827 0.02740 0.50063
 O467 O 0.01380 -0.01612 0.43172
 O468 O -0.02867 -0.00110 0.43272
 Zr469 Zr -0.01008 -0.01883 0.46163
 O470 O -0.03353 0.00284 0.48291
 Zr471 Zr 0.03920 0.00827 0.48400
 O472 O 0.01771 0.03164 0.50550
 Zr473 Zr 0.01698 -0.04095 0.51100
 O474 O -0.00491 -0.01971 0.53432
 Zr475 Zr -0.01679 0.03647 0.48977
 O476 O 0.00591 0.01575 0.46643
 Zr477 Zr -0.03852 -0.01271 0.51743
 O478 O -0.01749 -0.03609 0.49509
 Zr479 Zr 0.01064 0.01494 0.53914
 O480 O 0.03433 -0.00760 0.51853
 O481 O 0.02385 -0.02559 0.47714
 O482 O -0.02355 0.02154 0.52407
 C483 C 0.00482 -0.07329 0.46557
 C484 C 0.03486 -0.00620 0.42924
 C485 C 0.07159 -0.03683 0.49617
 C486 C -0.00671 0.06925 0.53458
 C487 C -0.07069 0.03301 0.50721
 C488 C -0.03471 0.00435 0.57154
 H489 H -0.04913 0.00500 0.47416
 H490 H -0.00689 -0.02839 0.54996
 H491 H 0.03432 -0.03595 0.46670
 H492 H 0.02621 0.04741 0.50735
 H493 H 0.00648 0.06274 0.45849
 H494 H 0.04487 0.05239 0.46908
 H495 H -0.04160 -0.04965 0.54679
 H496 H -0.01433 -0.07398 0.52251
 H497 H -0.04238 0.06150 0.45854
 H498 H -0.02643 -0.01068 0.41753
 H499 H 0.02324 -0.01425 0.57399
 H500 H 0.04411 -0.04178 0.54928
 H501 H -0.04785 -0.04695 0.46242
 H502 H -0.07365 -0.02453 0.48808
 H503 H 0.07230 0.01866 0.51588
 H504 H 0.04717 0.04486 0.54244
 O505 O 0.73728 0.18141 0.26565
 O506 O 0.77718 0.18049 0.25278
 O507 O 0.73670 0.23804 0.32036
 O508 O 0.74455 0.27758 0.32269
 O509 O 0.68080 0.23638 0.26389
 O510 O 0.68030 0.24767 0.22236
 O511 O 0.79807 0.30346 0.25525
 O512 O 0.80136 0.28588 0.29287
 O513 O 0.80319 0.24714 0.20370
 O514 O 0.78266 0.20835 0.19736
 O515 O 0.74633 0.29798 0.19800
 O516 O 0.70807 0.30463 0.21854
 O517 O 0.76430 0.31863 0.23665
 O518 O 0.72036 0.31944 0.24933
 O519 O 0.76470 0.26426 0.18263
 O520 O 0.75204 0.22064 0.18219
 O521 O 0.81831 0.26617 0.23719
 O522 O 0.81805 0.24808 0.27857
 O523 O 0.70376 0.19639 0.24642
 O524 O 0.69802 0.21734 0.20827
 O525 O 0.69580 0.25491 0.29771
 O526 O 0.71733 0.29443 0.30135
 O527 O 0.75438 0.20388 0.30505
 O528 O 0.79420 0.20165 0.28405
 Zr529 Zr 0.76047 0.21178 0.26803
 O530 O 0.78349 0.23268 0.24563
 Zr531 Zr 0.73287 0.26100 0.28995
 O532 O 0.75538 0.28395 0.26909
 Zr533 Zr 0.71114 0.23361 0.24065
 O534 O 0.73206 0.25591 0.21752
 Zr535 Zr 0.78883 0.26696 0.26166
 O536 O 0.76760 0.24527 0.28544
 Zr537 Zr 0.76649 0.24007 0.21223
 O538 O 0.74460 0.21650 0.23340
 Zr539 Zr 0.73955 0.28932 0.23470
 O540 O 0.71563 0.26825 0.25649
 O541 O 0.72638 0.22705 0.27464
 O542 O 0.77357 0.27407 0.22756
 C543 C 0.71608 0.17888 0.25598
 C544 C 0.74564 0.21652 0.32273
 C545 C 0.67826 0.24568 0.28524
 C546 C 0.78592 0.32092 0.24545
 C547 C 0.82060 0.25725 0.21566
 C548 C 0.75599 0.28586 0.18044
 H549 H 0.79914 0.22401 0.24347
 H550 H 0.72321 0.25814 0.20201
 H551 H 0.71600 0.21664 0.28509
 H552 H 0.75787 0.29942 0.27798
 H553 H 0.79760 0.27545 0.30709
 H554 H 0.75974 0.28643 0.31886
 H555 H 0.73713 0.22917 0.17675
 H556 H 0.71078 0.20588 0.20270
 H557 H 0.83275 0.25855 0.27774
 H558 H 0.79191 0.18637 0.29340
 H559 H 0.70172 0.29269 0.20662
 H560 H 0.67816 0.26459 0.22825
 H561 H 0.77155 0.17935 0.23569
 H562 H 0.79534 0.20273 0.20886
 H563 H 0.70418 0.29838 0.28965
 H564 H 0.72922 0.32508 0.26399
 O565 O 0.75386 0.70187 0.69595
 O566 O 0.79119 0.69754 0.71465
 O567 O 0.70264 0.69581 0.75523
 O568 O 0.69411 0.71509 0.78974
 O569 O 0.69567 0.75441 0.70234
 O570 O 0.71633 0.79181 0.69661
 O571 O 0.76505 0.76204 0.81837
 O572 O 0.75093 0.72297 0.81965
 O573 O 0.81799 0.76460 0.76282
 O574 O 0.81927 0.75306 0.72021
 O575 O 0.76288 0.81802 0.76468
 O576 O 0.72071 0.81965 0.75391
 O577 O 0.74657 0.79590 0.80329
 O578 O 0.70625 0.80150 0.78184
 O579 O 0.79651 0.80301 0.74587
 O580 O 0.80160 0.78142 0.70597
 O581 O 0.80283 0.74667 0.79685
 O582 O 0.78401 0.70554 0.79704
 O583 O 0.73591 0.73595 0.68066
 O584 O 0.74758 0.77824 0.68018
 O585 O 0.68049 0.73583 0.73601
 O586 O 0.68135 0.74973 0.77897
 O587 O 0.73579 0.68067 0.73559
 O588 O 0.77825 0.68166 0.75062
 Zr589 Zr 0.75969 0.71054 0.73280
 O590 O 0.78315 0.73183 0.75442
 Zr591 Zr 0.71040 0.73302 0.75984
 O592 O 0.73190 0.75452 0.78319
 Zr593 Zr 0.73269 0.75988 0.71057
 O594 O 0.75457 0.78322 0.73176
 Zr595 Zr 0.76639 0.73878 0.78805
 O596 O 0.74368 0.71544 0.76737
 Zr597 Zr 0.78815 0.76630 0.73879
 O598 O 0.76714 0.74393 0.71546
 Zr599 Zr 0.73899 0.78812 0.76642
 O600 O 0.71531 0.76750 0.74390
 O601 O 0.72577 0.72607 0.72599
 O602 O 0.77318 0.77303 0.77303
 C603 C 0.74492 0.71442 0.67830
 C604 C 0.71473 0.67823 0.74554
 C605 C 0.67806 0.74518 0.71470
 C606 C 0.75634 0.78366 0.82074
 C607 C 0.82029 0.75622 0.78455
 C608 C 0.78438 0.82042 0.75577
 H609 H 0.79875 0.72308 0.75661
 H610 H 0.75656 0.79884 0.72305
 H611 H 0.71531 0.71562 0.71564
 H612 H 0.72340 0.75642 0.79896
 H613 H 0.74311 0.70759 0.81439
 H614 H 0.70472 0.71812 0.80397
 H615 H 0.79130 0.79560 0.70180
 H616 H 0.76402 0.77131 0.67751
 H617 H 0.79197 0.70759 0.81314
 H618 H 0.77599 0.66645 0.74109
 H619 H 0.72646 0.82293 0.73715
 H620 H 0.70561 0.79819 0.70965
 H621 H 0.79753 0.71121 0.70476
 H622 H 0.82332 0.73692 0.72709
 H623 H 0.67733 0.76495 0.77018
 H624 H 0.70247 0.79152 0.79635
 O625 O 0.29735 0.19686 0.74443
 O626 O 0.30173 0.21556 0.70706
 O627 O 0.30342 0.25614 0.79567
 O628 O 0.28419 0.29072 0.80408
 O629 O 0.24475 0.20333 0.80250
 O630 O 0.20731 0.19764 0.78177
 O631 O 0.23726 0.31930 0.73325
 O632 O 0.27634 0.32056 0.74739
 O633 O 0.23482 0.26371 0.68017
 O634 O 0.24629 0.22114 0.67889
 O635 O 0.18123 0.26551 0.73523
 O636 O 0.17960 0.25477 0.77744
 O637 O 0.20335 0.30418 0.75161
 O638 O 0.19763 0.28281 0.79183
 O639 O 0.19629 0.24672 0.70160
 O640 O 0.21791 0.20689 0.69648
 O641 O 0.25273 0.29775 0.69541
 O642 O 0.29380 0.29798 0.71431
 O643 O 0.26322 0.18163 0.76235
 O644 O 0.22097 0.18111 0.75056
 O645 O 0.26338 0.23699 0.81772
 O646 O 0.24949 0.27990 0.81690
 O647 O 0.31858 0.23647 0.76254
 O648 O 0.31769 0.25149 0.72009
 Zr649 Zr 0.28874 0.23371 0.73857
 O650 O 0.26749 0.25534 0.71510
 Zr651 Zr 0.26622 0.26080 0.78783
 O652 O 0.24472 0.28411 0.76632
 Zr653 Zr 0.23931 0.21153 0.76548
 O654 O 0.21603 0.23268 0.74355
 Zr655 Zr 0.26052 0.28898 0.73186
 O656 O 0.28384 0.26830 0.75458
 Zr657 Zr 0.23301 0.23971 0.71000
 O658 O 0.25532 0.21639 0.73106
 Zr659 Zr 0.21112 0.26733 0.75915
 O660 O 0.23171 0.24486 0.78287
 O661 O 0.27314 0.22695 0.77245
 O662 O 0.22626 0.27395 0.72499
 C663 C 0.28477 0.17924 0.75340
 C664 C 0.32100 0.24639 0.78362
 C665 C 0.25402 0.21568 0.82012
 C666 C 0.21563 0.32164 0.74193
 C667 C 0.24324 0.28544 0.67790
 C668 C 0.17885 0.25656 0.71372
 H669 H 0.27628 0.25752 0.69953
 H670 H 0.20041 0.22396 0.74153
 H671 H 0.28356 0.21661 0.78292
 H672 H 0.24282 0.29987 0.77484
 H673 H 0.29171 0.31530 0.75524
 H674 H 0.28098 0.30498 0.79360
 H675 H 0.20375 0.20267 0.70679
 H676 H 0.22792 0.17844 0.73413
 H677 H 0.29178 0.31407 0.70637
 H678 H 0.33288 0.24194 0.72236
 H679 H 0.17626 0.23806 0.77159
 H680 H 0.20099 0.21065 0.79256
 H681 H 0.28809 0.20559 0.70076
 H682 H 0.26248 0.22796 0.67493
 H683 H 0.23422 0.27115 0.82084
 H684 H 0.20772 0.29723 0.79573
 O685 O 0.20282 0.80250 0.24664
 O686 O 0.19853 0.78372 0.20927
 O687 O 0.19676 0.74341 0.29790
 O688 O 0.21604 0.70890 0.30641
 O689 O 0.25542 0.79630 0.30475
 O690 O 0.29284 0.80199 0.28403
 O691 O 0.26301 0.68014 0.23548
 O692 O 0.22396 0.67886 0.24965
 O693 O 0.26547 0.73557 0.18247
 O694 O 0.25396 0.77817 0.18120
 O695 O 0.31902 0.73391 0.23751
 O696 O 0.32064 0.74477 0.27971
 O697 O 0.29689 0.69528 0.25390
 O698 O 0.30255 0.71681 0.29416
 O699 O 0.30394 0.75258 0.20387
 O700 O 0.28239 0.79241 0.19875
 O701 O 0.24754 0.70156 0.19767
 O702 O 0.20646 0.70136 0.21660
 O703 O 0.23692 0.81786 0.26455
 O704 O 0.27921 0.81836 0.25278
 O705 O 0.23683 0.76268 0.32000
 O706 O 0.25071 0.71975 0.31917
 O707 O 0.18164 0.76295 0.26472
 O708 O 0.18258 0.74781 0.22231
 Zr709 Zr 0.21150 0.76567 0.24080
 O710 O 0.23277 0.74400 0.21735
 Zr711 Zr 0.23399 0.73877 0.29010
 O712 O 0.25550 0.71540 0.26860
 Zr713 Zr 0.26087 0.78799 0.26773
 O714 O 0.28420 0.76677 0.24584
 Zr715 Zr 0.23974 0.71042 0.23413
 O716 O 0.21640 0.73115 0.25684
 Zr717 Zr 0.26724 0.75964 0.21229
 O718 O 0.24490 0.78301 0.23331
 Zr719 Zr 0.28912 0.73216 0.26144
 O720 O 0.26849 0.75471 0.28513
 O721 O 0.22706 0.77257 0.27470
 O722 O 0.27399 0.72545 0.22728
 C723 C 0.21536 0.82018 0.25559
 C724 C 0.17919 0.75309 0.28580
 C725 C 0.24619 0.78400 0.32239
 C726 C 0.28463 0.67780 0.24418
 C727 C 0.25706 0.71384 0.18018
 C728 C 0.32138 0.74277 0.21599
 H729 H 0.22399 0.74177 0.20177
 H730 H 0.29981 0.77549 0.24382
 H731 H 0.21661 0.78293 0.28516
 H732 H 0.25741 0.69966 0.27712
 H733 H 0.20858 0.68411 0.25751
 H734 H 0.21916 0.69463 0.29587
 H735 H 0.29653 0.79666 0.20908
 H736 H 0.27225 0.82098 0.23635
 H737 H 0.20849 0.68526 0.20865
 H738 H 0.16739 0.75737 0.22454
 H739 H 0.32395 0.76148 0.27389
 H740 H 0.29921 0.78900 0.29477
 H741 H 0.21217 0.79370 0.20299
 H742 H 0.23781 0.77127 0.17717
 H743 H 0.26597 0.72852 0.32313
 H744 H 0.29251 0.70236 0.29801
 O745 O 0.23685 0.68143 0.76580
 O746 O 0.27680 0.68045 0.75309
 O747 O 0.23612 0.73825 0.82035
 O748 O 0.24403 0.77778 0.82258
 O749 O 0.18042 0.73642 0.76374
 O750 O 0.18005 0.74762 0.72217
 O751 O 0.29776 0.80342 0.75526
 O752 O 0.30091 0.78593 0.79295
 O753 O 0.30299 0.74695 0.70388
 O754 O 0.28245 0.70810 0.69764
 O755 O 0.24626 0.79780 0.69784
 O756 O 0.20791 0.80454 0.71819
 O757 O 0.26407 0.81856 0.73649
 O758 O 0.22006 0.81941 0.74902
 O759 O 0.26463 0.76400 0.68265
 O760 O 0.25192 0.72041 0.68228
 O761 O 0.31802 0.76611 0.73734
 O762 O 0.31765 0.74810 0.77877
 O763 O 0.20340 0.69638 0.74642
 O764 O 0.19778 0.71724 0.70821
 O765 O 0.19535 0.75506 0.79754
 O766 O 0.21686 0.79458 0.80110
 O767 O 0.25381 0.70401 0.80520
 O768 O 0.29372 0.70170 0.78436
 Zr769 Zr 0.26005 0.71179 0.76818
 O770 O 0.28317 0.73262 0.74579
 Zr771 Zr 0.23243 0.76112 0.78985
 O772 O 0.25502 0.78398 0.76900
 Zr773 Zr 0.21082 0.73358 0.74058
 O774 O 0.23185 0.75579 0.71744
 Zr775 Zr 0.28848 0.76694 0.76173
 O776 O 0.26716 0.74533 0.78552
 Zr777 Zr 0.26628 0.73990 0.71233
 O778 O 0.24429 0.71642 0.73349
 Zr779 Zr 0.23930 0.78925 0.73454
 O780 O 0.21530 0.76827 0.75633
 O781 O 0.22596 0.72712 0.77463
 O782 O 0.27333 0.77395 0.72757
 C783 C 0.21568 0.67888 0.75607
 C784 C 0.24501 0.71672 0.82281
 C785 C 0.17783 0.74578 0.78506
 C786 C 0.28566 0.82086 0.74536
 C787 C 0.32037 0.75713 0.71584
 C788 C 0.25598 0.78561 0.68036
 H789 H 0.29882 0.72393 0.74372
 H790 H 0.22305 0.75799 0.70189
 H791 H 0.21554 0.71674 0.78508
 H792 H 0.25749 0.79949 0.77785
 H793 H 0.29711 0.77552 0.80717
 H794 H 0.25922 0.78665 0.81875
 H795 H 0.23703 0.72893 0.67678
 H796 H 0.21056 0.70576 0.70270
 H797 H 0.33236 0.75857 0.77795
 H798 H 0.29138 0.68644 0.79376
 H799 H 0.20158 0.79255 0.70631
 H800 H 0.17791 0.76456 0.72801
 H801 H 0.27123 0.67927 0.73598
 H802 H 0.29516 0.70257 0.70916
 H803 H 0.20376 0.79850 0.78935
 H804 H 0.22888 0.82511 0.76367
 O805 O 0.25423 0.20181 0.19579
 O806 O 0.29159 0.19752 0.21448
 O807 O 0.20300 0.19547 0.25498
 O808 O 0.19447 0.21458 0.28959
 O809 O 0.19594 0.25423 0.20233
 O810 O 0.21655 0.29168 0.19670
 O811 O 0.26533 0.26167 0.31837
 O812 O 0.25124 0.22257 0.31955
 O813 O 0.31823 0.26449 0.26286
 O814 O 0.31955 0.25308 0.22022
 O815 O 0.26297 0.31777 0.26486
 O816 O 0.22077 0.31931 0.25405
 O817 O 0.24677 0.29553 0.30337
 O818 O 0.20642 0.30108 0.28200
 O819 O 0.29666 0.30290 0.24602
 O820 O 0.30182 0.28145 0.20606
 O821 O 0.30311 0.24639 0.29682
 O822 O 0.28435 0.20524 0.29690
 O823 O 0.23619 0.23588 0.18060
 O824 O 0.24783 0.27819 0.18023
 O825 O 0.18078 0.23552 0.23593
 O826 O 0.18162 0.24926 0.27894
 O827 O 0.23621 0.18046 0.23533
 O828 O 0.27866 0.18149 0.25039
 Zr829 Zr 0.26005 0.21038 0.23266
 O830 O 0.28346 0.23166 0.25435
 Zr831 Zr 0.21071 0.23267 0.25975
 O832 O 0.23215 0.25415 0.28317
 Zr833 Zr 0.23295 0.25974 0.21057
 O834 O 0.25478 0.28306 0.23183
 Zr835 Zr 0.26668 0.23848 0.28800
 O836 O 0.24402 0.21514 0.26724
 Zr837 Zr 0.28839 0.26619 0.23883
 O838 O 0.26743 0.24385 0.21542
 Zr839 Zr 0.23917 0.28781 0.26650
 O840 O 0.21554 0.26721 0.24392
 O841 O 0.22610 0.22587 0.22589
 O842 O 0.27339 0.27278 0.27308
 C843 C 0.24524 0.21437 0.17818
 C844 C 0.21514 0.17795 0.24522
 C845 C 0.17834 0.24494 0.21465
 C846 C 0.25660 0.28327 0.32078
 C847 C 0.32055 0.25604 0.28456
 C848 C 0.28448 0.32025 0.25598
 H849 H 0.29907 0.22294 0.25651
 H850 H 0.25673 0.29871 0.22317
 H851 H 0.21566 0.21544 0.21551
 H852 H 0.22365 0.25599 0.29895
 H853 H 0.24345 0.20718 0.31426
 H854 H 0.20504 0.21764 0.30384
 H855 H 0.29148 0.29561 0.20192
 H856 H 0.26428 0.27129 0.17754
 H857 H 0.29231 0.20725 0.31300
 H858 H 0.27645 0.16630 0.24081
 H859 H 0.22660 0.32271 0.23735
 H860 H 0.20581 0.29801 0.20975
 H861 H 0.29788 0.21122 0.20461
 H862 H 0.32362 0.23692 0.22703
 H863 H 0.17758 0.26451 0.27023
 H864 H 0.20267 0.29105 0.29649
 O865 O 0.74512 0.70301 0.30263
 O866 O 0.70765 0.69891 0.28395
 O867 O 0.79622 0.69655 0.24339
 O868 O 0.80470 0.71568 0.20878
 O869 O 0.80350 0.75520 0.29623
 O870 O 0.78301 0.79278 0.30197
 O871 O 0.73408 0.76306 0.18026
 O872 O 0.74799 0.72391 0.17894
 O873 O 0.68114 0.76588 0.23591
 O874 O 0.67992 0.75443 0.27853
 O875 O 0.73647 0.81908 0.23404
 O876 O 0.77872 0.82048 0.24483
 O877 O 0.75271 0.79684 0.19538
 O878 O 0.79300 0.80231 0.21677
 O879 O 0.70279 0.80423 0.25283
 O880 O 0.69763 0.78280 0.29269
 O881 O 0.69620 0.74787 0.20182
 O882 O 0.71487 0.70667 0.20154
 O883 O 0.76327 0.73701 0.31792
 O884 O 0.75172 0.77934 0.31848
 O885 O 0.81856 0.73646 0.26254
 O886 O 0.81775 0.75030 0.21962
 O887 O 0.76300 0.68166 0.26306
 O888 O 0.72058 0.68280 0.24800
 Zr889 Zr 0.73924 0.71165 0.26581
 O890 O 0.71587 0.73301 0.24420
 Zr891 Zr 0.78861 0.73379 0.23873
 O892 O 0.76719 0.75540 0.21543
 Zr893 Zr 0.76650 0.76089 0.28804
 O894 O 0.74468 0.78429 0.26690
 Zr895 Zr 0.73262 0.73984 0.21056
 O896 O 0.75523 0.71639 0.23121
 Zr897 Zr 0.71102 0.76751 0.25988
 O898 O 0.73197 0.74511 0.28319
 Zr899 Zr 0.76025 0.78906 0.23224
 O900 O 0.78388 0.76834 0.25469
 O901 O 0.77323 0.72702 0.27258
 O902 O 0.72599 0.77414 0.22563
 C903 C 0.75420 0.71551 0.32027
 C904 C 0.78406 0.67908 0.25315
 C905 C 0.82105 0.74581 0.28387
 C906 C 0.74289 0.78462 0.17792
 C907 C 0.67877 0.75749 0.21417
 C908 C 0.71497 0.82157 0.24296
 H909 H 0.70024 0.72432 0.24202
 H910 H 0.74275 0.79993 0.27563
 H911 H 0.78365 0.71654 0.28291
 H912 H 0.77569 0.75724 0.19966
 H913 H 0.75578 0.70850 0.18417
 H914 H 0.79421 0.71894 0.19452
 H915 H 0.70805 0.79689 0.29691
 H916 H 0.73525 0.77250 0.32115
 H917 H 0.70689 0.70874 0.18546
 H918 H 0.72273 0.66762 0.25757
 H919 H 0.77289 0.82388 0.26154
 H920 H 0.79379 0.79903 0.28894
 H921 H 0.70150 0.71258 0.29400
 H922 H 0.67577 0.73831 0.27162
 H923 H 0.82180 0.76554 0.22838
 H924 H 0.79681 0.79219 0.20234
 O925 O 0.70293 0.30275 0.74665
 O926 O 0.69870 0.28410 0.70921
 O927 O 0.69648 0.24352 0.79770
 O928 O 0.71562 0.20893 0.80618
 O929 O 0.75528 0.29621 0.80493
 O930 O 0.79279 0.30185 0.78438
 O931 O 0.76276 0.18024 0.73534
 O932 O 0.72365 0.17904 0.74936
 O933 O 0.76560 0.23583 0.68251
 O934 O 0.75422 0.27848 0.68133
 O935 O 0.81892 0.23380 0.73774
 O936 O 0.82043 0.24456 0.77998
 O937 O 0.79662 0.19523 0.75394
 O938 O 0.80220 0.21661 0.79427
 O939 O 0.80402 0.25263 0.70410
 O940 O 0.78264 0.29256 0.69903
 O941 O 0.74752 0.20183 0.69754
 O942 O 0.70635 0.20170 0.71631
 O943 O 0.73700 0.31795 0.76473
 O944 O 0.77934 0.31835 0.75313
 O945 O 0.73652 0.26260 0.82001
 O946 O 0.75028 0.21963 0.81910
 O947 O 0.68155 0.26322 0.76453
 O948 O 0.68259 0.24819 0.72208
 Zr949 Zr 0.71150 0.26591 0.74073
 O950 O 0.73279 0.24425 0.71729
 Zr951 Zr 0.73372 0.23880 0.79003
 O952 O 0.75524 0.21542 0.76854
 Zr953 Zr 0.76084 0.28800 0.76792
 O954 O 0.78418 0.26678 0.74604
 Zr955 Zr 0.73959 0.21060 0.73400
 O956 O 0.71623 0.23133 0.75668
 Zr957 Zr 0.76733 0.25981 0.71241
 O958 O 0.74498 0.28318 0.73341
 Zr959 Zr 0.78893 0.23211 0.76155
 O960 O 0.76829 0.25464 0.78524
 O961 O 0.72695 0.27266 0.77470
 O962 O 0.77391 0.22555 0.72732
 C963 C 0.71549 0.32036 0.75569
 C964 C 0.67899 0.25330 0.78557
 C965 C 0.74593 0.28389 0.82249
 C966 C 0.78435 0.17782 0.74411
 C967 C 0.75714 0.21414 0.68012
 C968 C 0.82139 0.24271 0.71624
 H969 H 0.72407 0.24210 0.70167
 H970 H 0.79984 0.27545 0.74410
 H971 H 0.71651 0.28302 0.78516
 H972 H 0.75707 0.19965 0.77702
 H973 H 0.70827 0.18431 0.75718
 H974 H 0.71873 0.19468 0.79561
 H975 H 0.79677 0.29672 0.70942
 H976 H 0.77246 0.32104 0.73668
 H977 H 0.70837 0.18561 0.70831
 H978 H 0.66742 0.25779 0.72428
 H979 H 0.82382 0.26127 0.77420
 H980 H 0.79908 0.28879 0.79510
 H981 H 0.71239 0.29404 0.70300
 H982 H 0.73807 0.27163 0.67721
 H983 H 0.76554 0.22835 0.82315
 H984 H 0.79210 0.20218 0.79805
 C985 C 0.04344 1.01351 1.13975
 C986 C 0.06622 1.00263 1.14328
 C987 C 0.07886 0.99292 1.12338
 C988 C 0.06873 0.99390 1.10005
 C989 C 0.10996 0.99919 1.22838
 C990 C 0.03324 1.01452 1.11641
 C991 C 0.07688 1.00158 1.16721
 C992 C 0.08646 1.00067 1.18695
 C993 C 0.09861 0.99973 1.20958
 C994 C 0.04575 1.00464 1.09627
 H995 H 0.03353 1.02116 1.15502
 H996 H 0.09655 0.98453 1.12590
 H997 H 0.07888 0.98610 1.08502
 H998 H 0.01552 1.02291 1.11420
 C999 C 0.54346 0.51352 0.64079
 C1000 C 0.56647 0.50312 0.64430
 C1001 C 0.57941 0.49393 0.62434
 C1002 C 0.56935 0.49492 0.60098
 C1003 C 0.60993 0.49933 0.72952
 C1004 C 0.53334 0.51454 0.61742
 C1005 C 0.57701 0.50198 0.66828
 C1006 C 0.58651 0.50099 0.68805
 C1007 C 0.59859 0.49994 0.71072
 C1008 C 0.54613 0.50515 0.59723
 H1009 H 0.53332 0.52077 0.65610
 H1010 H 0.59728 0.48591 0.62685
 H1011 H 0.57972 0.48750 0.58591
 H1012 H 0.51542 0.52252 0.61523
 C1013 C 0.45740 -0.01195 0.63930
 C1014 C 0.43437 -0.00165 0.64293
 C1015 C 0.42148 0.00786 0.62311
 C1016 C 0.43162 0.00725 0.59976
 C1017 C 0.39038 0.00041 0.72796
 C1018 C 0.46760 -0.01259 0.61595
 C1019 C 0.42370 -0.00101 0.66688
 C1020 C 0.41410 -0.00044 0.68663
 C1021 C 0.40187 0.00014 0.70923
 C1022 C 0.45485 -0.00292 0.59589
 H1023 H 0.46750 -0.01944 0.65451
 H1024 H 0.40359 0.01580 0.62571
 H1025 H 0.42128 0.01487 0.58479
 H1026 H 0.48552 -0.02053 0.61367
 C1027 C -0.07934 0.50784 1.12303
 C1028 C -0.06641 0.49832 1.14282
 C1029 C -0.04345 0.48789 1.13911
 C1030 C -0.03336 0.48714 1.11572
 C1031 C -0.10983 0.50062 1.22812
 C1032 C -0.06932 0.50711 1.09963
 C1033 C -0.07694 0.49908 1.16682
 C1034 C -0.08640 0.49971 1.18663
 C1035 C -0.09846 0.50033 1.20932
 C1036 C -0.04615 0.49682 1.09568
 H1037 H -0.09718 0.51588 1.12569
 H1038 H -0.03332 0.48040 1.15429
 H1039 H -0.01549 0.47910 1.11339
 H1040 H -0.07967 0.51475 1.08469
 C1041 C -0.04464 0.51540 0.36145
 C1042 C -0.06764 0.50504 0.35781
 C1043 C -0.08049 0.49550 0.37764
 C1044 C -0.07028 0.49596 0.40096
 C1045 C -0.11030 0.50102 0.27215
 C1046 C -0.03437 0.51590 0.38477
 C1047 C -0.07811 0.50401 0.33379
 C1048 C -0.08744 0.50299 0.31393
 C1049 C -0.09924 0.50181 0.29112
 C1050 C -0.04699 0.50599 0.40480
 H1051 H -0.03456 0.52291 0.34624
 H1052 H -0.09835 0.48750 0.37504
 H1053 H -0.08053 0.48817 0.41590
 H1054 H -0.01641 0.52375 0.38702
 C1055 C 0.41919 0.99583 -0.12235
 C1056 C 0.43224 1.00488 -0.14228
 C1057 C 0.45539 1.01493 -0.13873
 C1058 C 0.46560 1.01562 -0.11539
 C1059 C 0.38975 1.00071 -0.22802
 C1060 C 0.42934 0.99648 -0.09901
 C1061 C 0.42180 1.00373 -0.16631
 C1062 C 0.41251 1.00265 -0.18618
 C1063 C 0.40076 1.00146 -0.20902
 C1064 C 0.45277 1.00622 -0.09525
 H1065 H 0.40121 0.98808 -0.12488
 H1066 H 0.46562 1.02207 -0.15402
 H1067 H 0.48367 1.02323 -0.11321
 H1068 H 0.41893 0.98909 -0.08398
 C1069 C 0.54374 0.48386 -0.13773
 C1070 C 0.56694 0.49383 -0.14112
 C1071 C 0.58000 0.50264 -0.12107
 C1072 C 0.56980 0.50184 -0.09777
 C1073 C 0.61009 0.49863 -0.22647
 C1074 C 0.53347 0.48303 -0.11441
 C1075 C 0.57747 0.49515 -0.16510
 C1076 C 0.58691 0.49638 -0.18489
 C1077 C 0.59887 0.49775 -0.20760
 C1078 C 0.54631 0.49220 -0.09416
 H1079 H 0.53350 0.47691 -0.15312
 H1080 H 0.59802 0.51032 -0.12349
 H1081 H 0.58022 0.50906 -0.08264
 H1082 H 0.51536 0.47550 -0.11234
 C1083 C 0.04356 -0.01499 0.36113
 C1084 C 0.06631 -0.00410 0.35752
 C1085 C 0.07896 0.00572 0.37737
 C1086 C 0.06886 0.00482 0.40072
 C1087 C 0.10996 -0.00102 0.27236
 C1088 C 0.03340 -0.01591 0.38449
 C1089 C 0.07694 -0.00315 0.33357
 C1090 C 0.08650 -0.00233 0.31382
 C1091 C 0.09862 -0.00149 0.29117
 C1092 C 0.04590 -0.00594 0.40457
 H1093 H 0.03365 -0.02271 0.34590
 H1094 H 0.09663 0.01412 0.37478
 H1095 H 0.07901 0.01268 0.41570
 H1096 H 0.01570 -0.02432 0.38675
 C1097 C 0.12318 1.07977 0.99313
 C1098 C 0.14307 1.06681 1.00241
 C1099 C 0.13946 1.04388 1.01287
 C1100 C 0.11606 1.03383 1.01387
 C1101 C 0.22845 1.10994 0.99886
 C1102 C 0.09978 1.06979 0.99409
 C1103 C 0.16708 1.07727 1.00132
 C1104 C 0.18690 1.08668 1.00039
 C1105 C 0.20961 1.09866 0.99942
 C1106 C 0.09593 1.04664 1.00440
 H1107 H 0.12577 1.09759 0.98506
 H1108 H 0.15472 1.03373 1.02018
 H1109 H 0.11380 1.01597 1.02190
 H1110 H 0.08476 1.08016 0.98661
 C1111 C 0.63969 0.54380 0.51331
 C1112 C 0.64322 0.56693 0.50324
 C1113 C 0.62325 0.58011 0.49447
 C1114 C 0.59985 0.57017 0.49554
 C1115 C 0.72866 0.60989 0.49914
 C1116 C 0.61628 0.53379 0.51441
 C1117 C 0.66725 0.57733 0.50199
 C1118 C 0.68707 0.58671 0.50092
 C1119 C 0.70980 0.59865 0.49980
 C1120 C 0.59607 0.54682 0.50543
 H1121 H 0.65502 0.53347 0.52022
 H1122 H 0.62578 0.59807 0.48671
 H1123 H 0.58477 0.58072 0.48844
 H1124 H 0.61408 0.51578 0.52211
 C1125 C 0.62181 0.41825 0.00546
 C1126 C 0.64168 0.43131 -0.00371
 C1127 C 0.63802 0.45433 -0.01397
 C1128 C 0.61463 0.46443 -0.01474
 C1129 C 0.72778 0.38955 0.00064
 C1130 C 0.59841 0.42828 0.00472
 C1131 C 0.66578 0.42103 -0.00246
 C1132 C 0.68572 0.41191 -0.00134
 C1133 C 0.70868 0.40038 -0.00012
 C1134 C 0.59455 0.45160 -0.00521
 H1135 H 0.62443 0.40036 0.01336
 H1136 H 0.65326 0.46457 -0.02119
 H1137 H 0.61237 0.48241 -0.02250
 H1138 H 0.58343 0.41788 0.01221
 C1139 C 0.12366 -0.08091 0.50741
 C1140 C 0.14346 -0.06795 0.49797
 C1141 C 0.13975 -0.04503 0.48750
 C1142 C 0.11634 -0.03501 0.48664
 C1143 C 0.22926 -0.11037 0.50097
 C1144 C 0.10024 -0.07094 0.50658
 C1145 C 0.16751 -0.07835 0.49892
 C1146 C 0.18740 -0.08762 0.49972
 C1147 C 0.21025 -0.09936 0.50053
 C1148 C 0.09629 -0.04781 0.49626
 H1149 H 0.12633 -0.09870 0.51549
 H1150 H 0.15495 -0.03488 0.48007
 H1151 H 0.11400 -0.01716 0.47858
 H1152 H 0.08528 -0.08131 0.51417
 C1153 C 0.37793 -0.07820 0.49405
 C1154 C 0.35796 -0.06519 0.50310
 C1155 C 0.36139 -0.04195 0.51299
 C1156 C 0.38470 -0.03167 0.51367
 C1157 C 0.27324 -0.10966 0.50086
 C1158 C 0.40123 -0.06799 0.49470
 C1159 C 0.33407 -0.07596 0.50238
 C1160 C 0.31440 -0.08569 0.50174
 C1161 C 0.29189 -0.09807 0.50112
 C1162 C 0.40491 -0.04455 0.50446
 H1163 H 0.37549 -0.09625 0.48642
 H1164 H 0.34605 -0.03175 0.52012
 H1165 H 0.38683 -0.01359 0.52129
 H1166 H 0.41632 -0.07844 0.48744
 C1167 C -0.13976 0.45787 1.01283
 C1168 C -0.14329 0.43466 1.00289
 C1169 C -0.12338 0.42159 0.99379
 C1170 C -0.10003 0.43171 0.99445
 C1171 C -0.22819 0.39049 1.00079
 C1172 C -0.11641 0.46805 1.01351
 C1173 C -0.16724 0.42400 1.00219
 C1174 C -0.18696 0.41437 1.00159
 C1175 C -0.20952 0.40207 1.00102
 C1176 C -0.09625 0.45512 1.00425
 H1177 H -0.15504 0.46811 1.02000
 H1178 H -0.12590 0.40357 0.98613
 H1179 H -0.08499 0.42122 0.98714
 H1180 H -0.11420 0.48611 1.02117
 C1181 C -0.13886 0.54289 0.48448
 C1182 C -0.14221 0.56616 0.49435
 C1183 C -0.12218 0.57913 0.50329
 C1184 C -0.09892 0.56879 0.50270
 C1185 C -0.22734 0.60986 0.49846
 C1186 C -0.11559 0.53248 0.48385
 C1187 C -0.16614 0.57685 0.49544
 C1188 C -0.18588 0.58642 0.49649
 C1189 C -0.20852 0.59854 0.49768
 C1190 C -0.09535 0.54525 0.49313
 H1191 H -0.15424 0.53272 0.47744
 H1192 H -0.12456 0.59719 0.51091
 H1193 H -0.08380 0.57916 0.51000
 H1194 H -0.11354 0.51434 0.47637
 C1195 C 0.37788 1.08019 0.00287
 C1196 C 0.35800 1.06728 -0.00650
 C1197 C 0.36158 1.04427 -0.01687
 C1198 C 0.38490 1.03402 -0.01753
 C1199 C 0.27247 1.11014 -0.00188
 C1200 C 0.40121 1.07000 0.00225
 C1201 C 0.33398 1.07775 -0.00529
 C1202 C 0.31415 1.08711 -0.00412
 C1203 C 0.29138 1.09898 -0.00278
 C1204 C 0.40499 1.04668 -0.00777
 H1205 H 0.37533 1.09806 0.01086
 H1206 H 0.34631 1.03415 -0.02425
 H1207 H 0.38712 1.01604 -0.02536
 H1208 H 0.41620 1.08028 0.00991
 C1209 C 0.01237 1.14031 1.04353
 C1210 C 0.00242 1.14384 1.06674
 C1211 C -0.00640 1.12388 1.07988
 C1212 C -0.00548 1.10051 1.06982
 C1213 C -0.00081 1.22928 1.10994
 C1214 C 0.01332 1.11693 1.03341
 C1215 C 0.00136 1.16783 1.07728
 C1216 C 0.00047 1.18764 1.08674
 C1217 C -0.00040 1.21037 1.09874
 C1218 C 0.00431 1.09674 1.04640
 H1219 H 0.01932 1.15563 1.03323
 H1220 H -0.01407 1.12640 1.09790
 H1221 H -0.01259 1.08544 1.08036
 H1222 H 0.02094 1.11474 1.01534
 C1223 C 0.51276 0.64041 0.54434
 C1224 C 0.50179 0.64412 0.56705
 C1225 C 0.49202 0.62434 0.57977
 C1226 C 0.49302 0.60093 0.56977
 C1227 C 0.49883 0.72966 0.61008
 C1228 C 0.51380 0.61701 0.53428
 C1229 C 0.50076 0.66813 0.57756
 C1230 C 0.49994 0.68796 0.58698
 C1231 C 0.49916 0.71073 0.59891
 C1232 C 0.50386 0.59697 0.54685
 H1233 H 0.52046 0.65559 0.53438
 H1234 H 0.48356 0.62700 0.59741
 H1235 H 0.48518 0.58599 0.57996
 H1236 H 0.52226 0.61467 0.51661
 C1237 C -0.01538 0.63671 0.45524
 C1238 C -0.00534 0.64023 0.43208
 C1239 C 0.00374 0.62031 0.41901
 C1240 C 0.00313 0.59698 0.42915
 C1241 C -0.00098 0.72589 0.38963
 C1242 C -0.01602 0.61339 0.46544
 C1243 C -0.00419 0.66425 0.42166
 C1244 C -0.00310 0.68411 0.41239
 C1245 C -0.00184 0.70692 0.40064
 C1246 C -0.00658 0.59325 0.45260
 H1247 H -0.02252 0.65200 0.46549
 H1248 H 0.01148 0.62283 0.40103
 H1249 H 0.01054 0.58195 0.41873
 H1250 H -0.02362 0.61122 0.48352
 C1251 C 0.48445 1.13856 -0.04437
 C1252 C 0.49452 1.14207 -0.06752
 C1253 C 0.50365 1.12214 -0.08055
 C1254 C 0.50305 1.09882 -0.07038
 C1255 C 0.49888 1.22759 -0.11027
 C1256 C 0.48382 1.11524 -0.03414
 C1257 C 0.49564 1.16607 -0.07798
 C1258 C 0.49672 1.18590 -0.08732
 C1259 C 0.49798 1.20867 -0.09915
 C1260 C 0.49329 1.09510 -0.04695
 H1261 H 0.47726 1.15385 -0.03416
 H1262 H 0.51143 1.12464 -0.09852
 H1263 H 0.51051 1.08378 -0.08077
 H1264 H 0.47618 1.11308 -0.01608
 C1265 C 0.51556 0.36025 -0.04340
 C1266 C 0.50536 0.35680 -0.06651
 C1267 C 0.49631 0.37680 -0.07944
 C1268 C 0.49706 0.40009 -0.06920
 C1269 C 0.50017 0.27160 -0.11000
 C1270 C 0.51635 0.38356 -0.03309
 C1271 C 0.50400 0.33282 -0.07707
 C1272 C 0.50268 0.31306 -0.08657
 C1273 C 0.50118 0.29040 -0.09865
 C1274 C 0.50690 0.40375 -0.04579
 H1275 H 0.52269 0.34491 -0.03326
 H1276 H 0.48845 0.37435 -0.09739
 H1277 H 0.48963 0.41517 -0.07951
 H1278 H 0.52403 0.38568 -0.01504
 C1279 C 0.01304 -0.14152 0.45732
 C1280 C 0.00313 -0.14504 0.43409
 C1281 C -0.00576 -0.12509 0.42098
 C1282 C -0.00496 -0.10173 0.43108
 C1283 C -0.00019 -0.23011 0.39021
 C1284 C 0.01387 -0.11816 0.46748
 C1285 C 0.00217 -0.16901 0.42349
 C1286 C 0.00130 -0.18876 0.41391
 C1287 C 0.00038 -0.21137 0.40169
 C1288 C 0.00479 -0.09797 0.45451
 H1289 H 0.02004 -0.15684 0.46760
 H1290 H -0.01340 -0.12760 0.40295
 H1291 H -0.01212 -0.08667 0.42057
 H1292 H 0.02148 -0.11596 0.48556
 C1293 C 0.50809 -0.12165 0.57845
 C1294 C 0.49800 -0.14138 0.56584
 C1295 C 0.48716 -0.13768 0.54308
 C1296 C 0.48652 -0.11435 0.53289
 C1297 C 0.49936 -0.22636 0.60974
 C1298 C 0.50748 -0.09832 0.56833
 C1299 C 0.49852 -0.16529 0.57653
 C1300 C 0.49895 -0.18501 0.58613
 C1301 C 0.49930 -0.20762 0.59832
 C1302 C 0.49673 -0.09437 0.54539
 H1303 H 0.51644 -0.12431 0.59614
 H1304 H 0.47922 -0.15281 0.53320
 H1305 H 0.47811 -0.11201 0.51520
 H1306 H 0.51551 -0.08342 0.57847
 C1307 C -0.01348 0.36182 1.04292
 C1308 C -0.00260 0.35819 1.06567
 C1309 C 0.00733 0.37799 1.07829
 C1310 C 0.00654 0.40132 1.06819
 C1311 C -0.00046 0.27324 1.10961
 C1312 C -0.01430 0.38515 1.03274
 C1313 C -0.00185 0.33428 1.07635
 C1314 C -0.00124 0.31456 1.08596
 C1315 C -0.00067 0.29198 1.09817
 C1316 C -0.00424 0.40519 1.04524
 H1317 H -0.02131 0.34663 1.03303
 H1318 H 0.01572 0.37538 1.09597
 H1319 H 0.01448 0.41627 1.07832
 H1320 H -0.02273 0.38744 1.01505
 C1321 C 0.76528 0.29472 0.11246
 C1322 C 0.75510 0.31781 0.10898
 C1323 C 0.74597 0.33081 0.12894
 C1324 C 0.74669 0.32064 0.15226
 C1325 C 0.75063 0.36019 0.02325
 C1326 C 0.76602 0.28449 0.13577
 C1327 C 0.75388 0.32826 0.08497
 C1328 C 0.75274 0.33753 0.06510
 C1329 C 0.75147 0.34923 0.04227
 C1330 C 0.75655 0.29726 0.15595
 H1331 H 0.77247 0.28453 0.09714
 H1332 H 0.73812 0.34874 0.12645
 H1333 H 0.73923 0.33100 0.16732
 H1334 H 0.77374 0.26647 0.13791
 C1335 C 0.24648 0.83049 0.62871
 C1336 C 0.25577 0.81745 0.60885
 C1337 C 0.26587 0.79434 0.61245
 C1338 C 0.26637 0.78414 0.63579
 C1339 C 0.25201 0.85997 0.52319
 C1340 C 0.24695 0.82035 0.65205
 C1341 C 0.25481 0.82788 0.58483
 C1342 C 0.25387 0.83717 0.56496
 C1343 C 0.25277 0.84892 0.54215
 C1344 C 0.25674 0.79696 0.65586
 H1345 H 0.23869 0.84844 0.62613
 H1346 H 0.27318 0.78412 0.59721
 H1347 H 0.27404 0.76610 0.63802
 H1348 H 0.23938 0.83074 0.66703
 C1349 C 0.73713 0.70630 0.61000
 C1350 C 0.74717 0.68313 0.60647
 C1351 C 0.75596 0.66998 0.62644
 C1352 C 0.75495 0.68000 0.64984
 C1353 C 0.75071 0.64003 0.52099
 C1354 C 0.73609 0.71638 0.63340
 C1355 C 0.74833 0.67264 0.58246
 C1356 C 0.74929 0.66321 0.56264
 C1357 C 0.75024 0.65125 0.53989
 C1358 C 0.74509 0.70339 0.65361
 H1359 H 0.73019 0.71660 0.59467
 H1360 H 0.76369 0.65199 0.62392
 H1361 H 0.76206 0.66948 0.66492
 H1362 H 0.72841 0.73442 0.63559
 C1363 C 0.23717 0.20630 0.10991
 C1364 C 0.24720 0.18314 0.10633
 C1365 C 0.25611 0.16999 0.12625
 C1366 C 0.25521 0.18000 0.14965
 C1367 C 0.25041 0.14011 0.02080
 C1368 C 0.23624 0.21637 0.13331
 C1369 C 0.24823 0.17265 0.08231
 C1370 C 0.24911 0.16323 0.06248
 C1371 C 0.24998 0.15129 0.03972
 C1372 C 0.24534 0.20338 0.15348
 H1373 H 0.23014 0.21660 0.09462
 H1374 H 0.26384 0.15201 0.12368
 H1375 H 0.26240 0.16948 0.16469
 H1376 H 0.22855 0.23440 0.13556
 C1377 C 0.26273 0.20723 0.88823
 C1378 C 0.25240 0.18423 0.89178
 C1379 C 0.24298 0.17133 0.87191
 C1380 C 0.24373 0.18143 0.84856
 C1381 C 0.25017 0.14046 0.97682
 C1382 C 0.26351 0.21739 0.86489
 C1383 C 0.25163 0.17360 0.91572
 C1384 C 0.25100 0.16404 0.93546
 C1385 C 0.25040 0.15188 0.95807
 C1386 C 0.25394 0.20463 0.84476
 H1387 H 0.27015 0.21734 0.90349
 H1388 H 0.23501 0.15346 0.87446
 H1389 H 0.23617 0.17109 0.83355
 H1390 H 0.27148 0.23529 0.86266
 C1391 C 0.74372 0.67094 0.37200
 C1392 C 0.75286 0.68397 0.39192
 C1393 C 0.76285 0.70714 0.38841
 C1394 C 0.76355 0.71733 0.36508
 C1395 C 0.75055 0.64024 0.47700
 C1396 C 0.74438 0.68107 0.34867
 C1397 C 0.75212 0.67333 0.41586
 C1398 C 0.75148 0.66377 0.43560
 C1399 C 0.75084 0.65162 0.45822
 C1400 C 0.75424 0.70444 0.34491
 H1401 H 0.73601 0.65295 0.37451
 H1402 H 0.77005 0.71735 0.40370
 H1403 H 0.77124 0.73535 0.36289
 H1404 H 0.73704 0.67062 0.33362
 C1405 C 0.25747 0.82848 0.37413
 C1406 C 0.24825 0.81560 0.39408
 C1407 C 0.23790 0.79258 0.39058
 C1408 C 0.23696 0.78238 0.36723
 C1409 C 0.25147 0.85950 0.47917
 C1410 C 0.25656 0.81835 0.35079
 C1411 C 0.24926 0.82626 0.41804
 C1412 C 0.25012 0.83585 0.43778
 C1413 C 0.25100 0.84805 0.46041
 C1414 C 0.24636 0.79512 0.34704
 H1415 H 0.26545 0.84636 0.37663
 H1416 H 0.23063 0.78249 0.40589
 H1417 H 0.22901 0.76446 0.36504
 H1418 H 0.26398 0.82867 0.33572
 C1419 C 0.73731 0.29234 0.89066
 C1420 C 0.74771 0.31532 0.89426
 C1421 C 0.75710 0.32821 0.87439
 C1422 C 0.75629 0.31812 0.85102
 C1423 C 0.75030 0.35940 0.97925
 C1424 C 0.73647 0.28218 0.86728
 C1425 C 0.74857 0.32596 0.91822
 C1426 C 0.74929 0.33557 0.93796
 C1427 C 0.75000 0.34785 0.96055
 C1428 C 0.74603 0.29493 0.84717
 H1429 H 0.72991 0.28225 0.90590
 H1430 H 0.76512 0.34606 0.87697
 H1431 H 0.76383 0.32845 0.83602
 H1432 H 0.72847 0.26430 0.86502
 C1433 C 0.79463 0.38886 0.23593
 C1434 C 0.81777 0.39245 0.24599
 C1435 C 0.83083 0.37257 0.25513
 C1436 C 0.82070 0.34922 0.25454
 C1437 C 0.86009 0.47826 0.24972
 C1438 C 0.78443 0.36553 0.23532
 C1439 C 0.82819 0.41648 0.24705
 C1440 C 0.83745 0.43637 0.24802
 C1441 C 0.84913 0.45923 0.24908
 C1442 C 0.79728 0.34543 0.24479
 H1443 H 0.78439 0.40412 0.22874
 H1444 H 0.84881 0.37513 0.26288
 H1445 H 0.83111 0.33422 0.26199
 H1446 H 0.76638 0.36331 0.22769
 C1447 C 0.33062 0.87250 0.75497
 C1448 C 0.31761 0.89237 0.74574
 C1449 C 0.29448 0.88877 0.73564
 C1450 C 0.28425 0.86545 0.73508
 C1451 C 0.36011 0.97811 0.74942
 C1452 C 0.32045 0.84916 0.75444
 C1453 C 0.32807 0.91640 0.74674
 C1454 C 0.33736 0.93627 0.74769
 C1455 C 0.34910 0.95911 0.74875
 C1456 C 0.29704 0.84536 0.74465
 H1457 H 0.34858 0.87506 0.76275
 H1458 H 0.28428 0.90402 0.72837
 H1459 H 0.26621 0.86323 0.72742
 H1460 H 0.33083 0.83418 0.76196
 C1461 C 0.17069 0.87184 0.24495
 C1462 C 0.18379 0.89184 0.25378
 C1463 C 0.20703 0.88840 0.26367
 C1464 C 0.21722 0.86506 0.26455
 C1465 C 0.14024 0.97705 0.25047
 C1466 C 0.18082 0.84851 0.24580
 C1467 C 0.17318 0.91580 0.25277
 C1468 C 0.16365 0.93556 0.25189
 C1469 C 0.15155 0.95822 0.25098
 C1470 C 0.20426 0.84482 0.25553
 H1471 H 0.15265 0.87430 0.23732
 H1472 H 0.21730 0.90376 0.27063
 H1473 H 0.23530 0.86293 0.27214
 H1474 H 0.17031 0.83340 0.23867
 C1475 C 0.67103 0.37219 0.74503
 C1476 C 0.68414 0.39211 0.75400
 C1477 C 0.70732 0.38857 0.76399
 C1478 C 0.71745 0.36520 0.76482
 C1479 C 0.64044 0.47722 0.75130
 C1480 C 0.68109 0.34882 0.74583
 C1481 C 0.67356 0.41608 0.75311
 C1482 C 0.66402 0.43583 0.75236
 C1483 C 0.65185 0.45846 0.75162
 C1484 C 0.70447 0.34503 0.75566
 H1485 H 0.65302 0.37472 0.73734
 H1486 H 0.71760 0.40387 0.77106
 H1487 H 0.73549 0.36299 0.77248
 H1488 H 0.67057 0.33377 0.73860
 C1489 C 0.70614 0.61008 0.73716
 C1490 C 0.68341 0.60650 0.74813
 C1491 C 0.67073 0.62638 0.75783
 C1492 C 0.68078 0.64974 0.75676
 C1493 C 0.64013 0.52119 0.75152
 C1494 C 0.71624 0.63344 0.73606
 C1495 C 0.67284 0.58254 0.74925
 C1496 C 0.66337 0.56277 0.75017
 C1497 C 0.65136 0.54007 0.75107
 C1498 C 0.70371 0.65356 0.74593
 H1499 H 0.71606 0.59482 0.72951
 H1500 H 0.65308 0.62383 0.76629
 H1501 H 0.67061 0.66476 0.76455
 H1502 H 0.73393 0.63568 0.72760
 C1503 C 0.20657 0.10985 0.23637
 C1504 C 0.18381 0.10621 0.24725
 C1505 C 0.17112 0.12602 0.25707
 C1506 C 0.18117 0.14938 0.25619
 C1507 C 0.14028 0.02103 0.25028
 C1508 C 0.21669 0.13322 0.23547
 C1509 C 0.17322 0.08225 0.24818
 C1510 C 0.16370 0.06249 0.24899
 C1511 C 0.15160 0.03984 0.24982
 C1512 C 0.20413 0.15328 0.24544
 H1513 H 0.21651 0.09465 0.22864
 H1514 H 0.15344 0.12341 0.26546
 H1515 H 0.17098 0.16435 0.26406
 H1516 H 0.23439 0.13551 0.22707
 C1517 C 0.32920 0.12728 0.74289
 C1518 C 0.31606 0.10743 0.75196
 C1519 C 0.29288 0.11106 0.76192
 C1520 C 0.28279 0.13445 0.76266
 C1521 C 0.35954 0.02215 0.74963
 C1522 C 0.31917 0.15068 0.74360
 C1523 C 0.32659 0.08342 0.75119
 C1524 C 0.33606 0.06362 0.75053
 C1525 C 0.34814 0.04093 0.74991
 C1526 C 0.29578 0.15455 0.75342
 H1527 H 0.34720 0.12468 0.73521
 H1528 H 0.28259 0.09583 0.76907
 H1529 H 0.26475 0.13673 0.77032
 H1530 H 0.32969 0.16567 0.73631
 C1531 C 0.82801 0.62696 0.24154
 C1532 C 0.81535 0.60728 0.25159
 C1533 C 0.79260 0.61106 0.26246
 C1534 C 0.78248 0.63444 0.26316
 C1535 C 0.85932 0.52227 0.24981
 C1536 C 0.81795 0.65034 0.24221
 C1537 C 0.82598 0.58332 0.25099
 C1538 C 0.83557 0.56358 0.25049
 C1539 C 0.84780 0.54097 0.25001
 C1540 C 0.79502 0.65438 0.25299
 H1541 H 0.84568 0.62424 0.23316
 H1542 H 0.78269 0.59596 0.27037
 H1543 H 0.76480 0.63684 0.27158
 H1544 H 0.82812 0.66521 0.23420
 C1545 C 0.88849 0.26698 0.20641
 C1546 C 0.89193 0.25680 0.18328
 C1547 C 0.87195 0.24763 0.17038
 C1548 C 0.84867 0.24824 0.18068
 C1549 C 0.97723 0.25200 0.13998
 C1550 C 0.86520 0.26764 0.21677
 C1551 C 0.91589 0.25557 0.17270
 C1552 C 0.93567 0.25435 0.16322
 C1553 C 0.95836 0.25295 0.15121
 C1554 C 0.84503 0.25807 0.20411
 H1555 H 0.90382 0.27421 0.21653
 H1556 H 0.87439 0.23978 0.15242
 H1557 H 0.83361 0.24072 0.17039
 H1558 H 0.86310 0.27532 0.23484
 C1559 C 0.38821 0.76714 0.70660
 C1560 C 0.39169 0.75696 0.68348
 C1561 C 0.37176 0.74766 0.67059
 C1562 C 0.34849 0.74817 0.68090
 C1563 C 0.47696 0.75245 0.64010
 C1564 C 0.36493 0.76768 0.71697
 C1565 C 0.41565 0.75586 0.67288
 C1566 C 0.43542 0.75473 0.66338
 C1567 C 0.45810 0.75339 0.65135
 C1568 C 0.34480 0.75800 0.70431
 H1569 H 0.40351 0.77446 0.71670
 H1570 H 0.37424 0.73981 0.65264
 H1571 H 0.33346 0.74056 0.67061
 H1572 H 0.36278 0.77537 0.73502
 C1573 C 0.38904 0.23739 0.79262
 C1574 C 0.39259 0.24826 0.81542
 C1575 C 0.37274 0.25819 0.82796
 C1576 C 0.34943 0.25741 0.81774
 C1577 C 0.47759 0.25013 0.85953
 C1578 C 0.36574 0.23658 0.78234
 C1579 C 0.41649 0.24899 0.82621
 C1580 C 0.43620 0.24957 0.83588
 C1581 C 0.45880 0.25004 0.84812
 C1582 C 0.34563 0.24663 0.79476
 H1583 H 0.40428 0.22957 0.78279
 H1584 H 0.37527 0.26658 0.84566
 H1585 H 0.33443 0.26534 0.82782
 H1586 H 0.36352 0.22816 0.76462
 C1587 C 0.88911 0.73658 0.29240
 C1588 C 0.89274 0.74688 0.31544
 C1589 C 0.87292 0.75644 0.32832
 C1590 C 0.84957 0.75589 0.31818
 C1591 C 0.97776 0.74843 0.35943
 C1592 C 0.86576 0.73600 0.28219
 C1593 C 0.91668 0.74744 0.32612
 C1594 C 0.93641 0.74792 0.33574
 C1595 C 0.95902 0.74834 0.34796
 C1596 C 0.84570 0.74572 0.29495
 H1597 H 0.90431 0.72905 0.28230
 H1598 H 0.87552 0.76438 0.34622
 H1599 H 0.83461 0.76355 0.32852
 H1600 H 0.86348 0.72805 0.26427
 C1601 C 0.11107 0.76187 0.29435
 C1602 C 0.10738 0.75094 0.31706
 C1603 C 0.12717 0.74110 0.32974
 C1604 C 0.15056 0.74201 0.31972
 C1605 C 0.02176 0.74806 0.35989
 C1606 C 0.13446 0.76281 0.28427
 C1607 C 0.08336 0.74999 0.32756
 C1608 C 0.06352 0.74921 0.33693
 C1609 C 0.04072 0.74844 0.34879
 C1610 C 0.15450 0.75281 0.29681
 H1611 H 0.09589 0.76962 0.28441
 H1612 H 0.12452 0.73266 0.34738
 H1613 H 0.16551 0.73412 0.32989
 H1614 H 0.13678 0.77125 0.26660
 C1615 C 0.62680 0.24141 0.82933
 C1616 C 0.60709 0.25140 0.81663
 C1617 C 0.61089 0.26237 0.79396
 C1618 C 0.63431 0.26322 0.78394
 C1619 C 0.52158 0.24933 0.85967
 C1620 C 0.65022 0.24222 0.81937
 C1621 C 0.58307 0.25062 0.82713
 C1622 C 0.56323 0.25001 0.83653
 C1623 C 0.54047 0.24948 0.84846
 C1624 C 0.65427 0.25308 0.79650
 H1625 H 0.62406 0.23295 0.84695
 H1626 H 0.59577 0.27024 0.78402
 H1627 H 0.63672 0.27170 0.76630
 H1628 H 0.66510 0.23423 0.82954
 C1629 C 0.62618 0.75660 0.67049
 C1630 C 0.60626 0.74744 0.68348
 C1631 C 0.60984 0.73706 0.70646
 C1632 C 0.63323 0.73602 0.71652
 C1633 C 0.52095 0.75144 0.64025
 C1634 C 0.64957 0.75559 0.68048
 C1635 C 0.58226 0.74862 0.67301
 C1636 C 0.56246 0.74965 0.66358
 C1637 C 0.53977 0.75075 0.65156
 C1638 C 0.65338 0.74537 0.70368
 H1639 H 0.62362 0.76461 0.65264
 H1640 H 0.59455 0.72984 0.71664
 H1641 H 0.63546 0.72805 0.73442
 H1642 H 0.66461 0.76299 0.67009
 C1643 C 0.12646 0.25644 0.17045
 C1644 C 0.10654 0.24722 0.18340
 C1645 C 0.11012 0.23678 0.20636
 C1646 C 0.13351 0.23573 0.21643
 C1647 C 0.02123 0.25113 0.14013
 C1648 C 0.14984 0.25543 0.18046
 C1649 C 0.08254 0.24839 0.17292
 C1650 C 0.06274 0.24941 0.16347
 C1651 C 0.04005 0.25048 0.15144
 C1652 C 0.15366 0.24514 0.20363
 H1653 H 0.12390 0.26450 0.15262
 H1654 H 0.09484 0.22951 0.21651
 H1655 H 0.13575 0.22772 0.23431
 H1656 H 0.16488 0.26286 0.17009
 C1657 C -0.04376 0.98513 0.86137
 C1658 C -0.06690 0.99524 0.85784
 C1659 C -0.07994 1.00431 0.87778
 C1660 C -0.06981 1.00363 0.90112
 C1661 C -0.11009 0.99911 0.77243
 C1662 C -0.03356 0.98441 0.88472
 C1663 C -0.07741 0.99637 0.83383
 C1664 C -0.08686 0.99742 0.81403
 C1665 C -0.09885 0.99852 0.79131
 C1666 C -0.04640 0.99382 0.90488
 H1667 H -0.03354 0.97797 0.84607
 H1668 H -0.09791 1.01210 0.87527
 H1669 H -0.08023 1.01104 0.91616
 H1670 H -0.01551 0.97676 0.88691
 C1671 C 0.45632 0.48509 0.36233
 C1672 C 0.43293 0.49465 0.35896
 C1673 C 0.41971 0.50317 0.37903
 C1674 C 0.42993 0.50252 0.40233
 C1675 C 0.38981 0.49887 0.27354
 C1676 C 0.46661 0.48440 0.38565
 C1677 C 0.42238 0.49588 0.33498
 C1678 C 0.41293 0.49701 0.31519
 C1679 C 0.40097 0.49821 0.29246
 C1680 C 0.45361 0.49331 0.40592
 H1681 H 0.46669 0.47837 0.34693
 H1682 H 0.40154 0.51053 0.37664
 H1683 H 0.41937 0.50952 0.41747
 H1684 H 0.48487 0.47722 0.38771
 C1685 C 0.54406 0.01648 0.36074
 C1686 C 0.56747 0.00695 0.35736
 C1687 C 0.58084 -0.00118 0.37747
 C1688 C 0.57073 -0.00021 0.40081
 C1689 C 0.61026 0.00111 0.27187
 C1690 C 0.53388 0.01748 0.38409
 C1691 C 0.57789 0.00531 0.33335
 C1692 C 0.58725 0.00380 0.31354
 C1693 C 0.59914 0.00214 0.29080
 C1694 C 0.54702 0.00892 0.40440
 H1695 H 0.53358 0.02290 0.34530
 H1696 H 0.59902 -0.00850 0.37508
 H1697 H 0.58139 -0.00696 0.41597
 H1698 H 0.51559 0.02459 0.38616
 C1699 C 0.04339 0.51575 0.86055
 C1700 C 0.06690 0.50640 0.85734
 C1701 C 0.08021 0.49842 0.87754
 C1702 C 0.06996 0.49937 0.90082
 C1703 C 0.11024 0.50071 0.77209
 C1704 C 0.03307 0.51674 0.88385
 C1705 C 0.07749 0.50479 0.83339
 C1706 C 0.08701 0.50330 0.81365
 C1707 C 0.09905 0.50168 0.79098
 C1708 C 0.04616 0.50834 0.90426
 H1709 H 0.03296 0.52206 0.84503
 H1710 H 0.09846 0.49123 0.87527
 H1711 H 0.08059 0.49276 0.91606
 H1712 H 0.01472 0.52372 0.88580
 C1713 C 0.07826 0.50500 0.62341
 C1714 C 0.06523 0.49615 0.64343
 C1715 C 0.04211 0.48597 0.63999
 C1716 C 0.03197 0.48484 0.61661
 C1717 C 0.10962 0.50028 0.72814
 C1718 C 0.06820 0.50390 0.60007
 C1719 C 0.07587 0.49741 0.66736
 C1720 C 0.08558 0.49852 0.68702
 C1721 C 0.09800 0.49966 0.70950
 C1722 C 0.04487 0.49389 0.59637
 H1723 H 0.09621 0.51284 0.62586
 H1724 H 0.03190 0.47898 0.65535
 H1725 H 0.01398 0.47705 0.61446
 H1726 H 0.07866 0.51106 0.58496
 C1727 C 0.54263 0.98650 0.13947
 C1728 C 0.56552 0.99713 0.14304
 C1729 C 0.57833 1.00656 0.12314
 C1730 C 0.56827 1.00557 0.09979
 C1731 C 0.60970 1.00067 0.22789
 C1732 C 0.53249 0.98549 0.11610
 C1733 C 0.57615 0.99823 0.16698
 C1734 C 0.58581 0.99919 0.18667
 C1735 C 0.59814 1.00017 0.20921
 C1736 C 0.54517 0.99510 0.09597
 H1737 H 0.53259 0.97907 0.15474
 H1738 H 0.59611 1.01475 0.12568
 H1739 H 0.57855 1.01317 0.08477
 H1740 H 0.51467 0.97733 0.11386
 C1741 C 0.45774 0.51140 0.14114
 C1742 C 0.43448 0.50158 0.14464
 C1743 C 0.42130 0.49282 0.12465
 C1744 C 0.43134 0.49370 0.10128
 C1745 C 0.39034 0.49875 0.22956
 C1746 C 0.46786 0.51231 0.11776
 C1747 C 0.42385 0.50066 0.16860
 C1748 C 0.41420 0.49986 0.18831
 C1749 C 0.40188 0.49909 0.21086
 C1750 C 0.45479 0.50339 0.09753
 H1751 H 0.46807 0.51831 0.15648
 H1752 H 0.40324 0.48526 0.12714
 H1753 H 0.42075 0.48666 0.08620
 H1754 H 0.48594 0.51987 0.11557
 C1755 C -0.04331 0.01346 0.63963
 C1756 C -0.06647 0.00340 0.64315
 C1757 C -0.07954 -0.00557 0.62319
 C1758 C -0.06942 -0.00482 0.59984
 C1759 C -0.10991 -0.00077 0.72841
 C1760 C -0.03313 0.01424 0.61627
 C1761 C -0.07698 0.00219 0.66715
 C1762 C -0.08647 0.00108 0.68693
 C1763 C -0.09856 -0.00011 0.70960
 C1764 C -0.04600 0.00493 0.59610
 H1765 H -0.03307 0.02053 0.65495
 H1766 H -0.09752 -0.01332 0.62569
 H1767 H -0.07987 -0.01215 0.58479
 H1768 H -0.01506 0.02185 0.61409
 C1769 C -0.13906 0.95693 0.98512
 C1770 C -0.14231 0.93348 0.99454
 C1771 C -0.12216 0.92027 1.00282
 C1772 C -0.09890 0.93054 1.00207
 C1773 C -0.22745 0.88990 0.99909
 C1774 C -0.11578 0.96728 0.98434
 C1775 C -0.16624 0.92285 0.99586
 C1776 C -0.18597 0.91329 0.99708
 C1777 C -0.20861 0.90118 0.99838
 C1778 C -0.09542 0.95428 0.99301
 H1779 H -0.15454 0.96730 0.97859
 H1780 H -0.12446 0.90206 1.01006
 H1781 H -0.08370 0.91998 1.00889
 H1782 H -0.11380 0.98558 0.97728
 C1783 C 0.37765 0.42151 0.50379
 C1784 C 0.35760 0.43450 0.49493
 C1785 C 0.36094 0.45778 0.48511
 C1786 C 0.38421 0.46817 0.48447
 C1787 C 0.27275 0.39033 0.49881
 C1788 C 0.40090 0.43183 0.50318
 C1789 C 0.33370 0.42377 0.49601
 C1790 C 0.31403 0.41408 0.49706
 C1791 C 0.29149 0.40178 0.49819
 C1792 C 0.40447 0.45537 0.49368
 H1793 H 0.37529 0.40344 0.51134
 H1794 H 0.34554 0.46796 0.47813
 H1795 H 0.38626 0.48631 0.47705
 H1796 H 0.41602 0.42143 0.51041
 C1797 C 0.35978 0.54165 0.01442
 C1798 C 0.35631 0.56456 0.00383
 C1799 C 0.37626 0.57731 -0.00554
 C1800 C 0.39958 0.56717 -0.00454
 C1801 C 0.27172 0.60925 0.00039
 C1802 C 0.38312 0.53143 0.01546
 C1803 C 0.33241 0.57530 0.00274
 C1804 C 0.31278 0.58508 0.00178
 C1805 C 0.29033 0.59757 0.00083
 C1806 C 0.40331 0.54405 0.00589
 H1807 H 0.34445 0.53166 0.02182
 H1808 H 0.37379 0.59511 -0.01370
 H1809 H 0.41464 0.57742 -0.01209
 H1810 H 0.38529 0.51360 0.02358
 C1811 C -0.13888 0.04170 0.51540
 C1812 C -0.14209 0.06520 0.50608
 C1813 C -0.12189 0.07848 0.49804
 C1814 C -0.09862 0.06822 0.49892
 C1815 C -0.22689 0.10938 0.50089
 C1816 C -0.11558 0.03137 0.51632
 C1817 C -0.16602 0.07585 0.50459
 C1818 C -0.18569 0.08550 0.50322
 C1819 C -0.20821 0.09783 0.50174
 C1820 C -0.09518 0.04444 0.50788
 H1821 H -0.15439 0.03129 0.52175
 H1822 H -0.12416 0.09672 0.49088
 H1823 H -0.08339 0.07884 0.49228
 H1824 H -0.11363 0.01303 0.52329
 C1825 C 0.64010 0.04412 0.48425
 C1826 C 0.64359 0.06728 0.49434
 C1827 C 0.62358 0.08043 0.50311
 C1828 C 0.60023 0.07036 0.50218
 C1829 C 0.72912 0.10998 0.50003
 C1830 C 0.61673 0.03399 0.48328
 C1831 C 0.66762 0.07767 0.49588
 C1832 C 0.68744 0.08702 0.49732
 C1833 C 0.71019 0.09888 0.49896
 C1834 C 0.59652 0.04691 0.49245
 H1835 H 0.65546 0.03382 0.47733
 H1836 H 0.62606 0.09841 0.51088
 H1837 H 0.58515 0.08085 0.50940
 H1838 H 0.61457 0.01590 0.47569
 C1839 C 0.13903 0.54374 0.98422
 C1840 C 0.14240 0.56700 0.99412
 C1841 C 0.12232 0.58017 1.00269
 C1842 C 0.09901 0.57002 1.00176
 C1843 C 0.22777 0.60999 0.99993
 C1844 C 0.11569 0.53353 0.98325
 C1845 C 0.16638 0.57748 0.99569
 C1846 C 0.18616 0.58691 0.99717
 C1847 C 0.20886 0.59886 0.99884
 C1848 C 0.09541 0.54647 0.99222
 H1849 H 0.15444 0.53342 0.97746
 H1850 H 0.12472 0.59822 1.01031
 H1851 H 0.08387 0.58054 1.00882
 H1852 H 0.11361 0.51537 0.97581
 C1853 C 0.12352 0.42037 0.49310
 C1854 C 0.14349 0.43362 0.50176
 C1855 C 0.13994 0.45683 0.51171
 C1856 C 0.11652 0.46683 0.51283
 C1857 C 0.22878 0.39022 0.49855
 C1858 C 0.10011 0.43030 0.49420
 C1859 C 0.16750 0.42313 0.50063
 C1860 C 0.18728 0.41363 0.49971
 C1861 C 0.20995 0.40154 0.49887
 C1862 C 0.09631 0.45371 0.50400
 H1863 H 0.12605 0.40234 0.48545
 H1864 H 0.15528 0.46721 0.51855
 H1865 H 0.11430 0.48489 0.52047
 H1866 H 0.08502 0.41967 0.48721
 C1867 C 0.62372 0.92142 -0.00673
 C1868 C 0.64368 0.93441 0.00233
 C1869 C 0.64018 0.95751 0.01256
 C1870 C 0.61681 0.96767 0.01354
 C1871 C 0.72858 0.89022 -0.00098
 C1872 C 0.60037 0.93151 -0.00578
 C1873 C 0.66762 0.92375 0.00128
 C1874 C 0.68732 0.91407 0.00036
 C1875 C 0.70987 0.90174 -0.00056
 C1876 C 0.59661 0.95481 0.00429
 H1877 H 0.62621 0.90349 -0.01461
 H1878 H 0.65551 0.96769 0.01971
 H1879 H 0.61461 0.98565 0.02139
 H1880 H 0.58530 0.92108 -0.01309
 C1881 C 0.00273 0.87800 0.92131
 C1882 C -0.00604 0.85801 0.93442
 C1883 C -0.01595 0.86147 0.95766
 C1884 C -0.01676 0.88481 0.96790
 C1885 C -0.00136 0.77298 0.89059
 C1886 C 0.00196 0.90132 0.93148
 C1887 C -0.00475 0.83403 0.92385
 C1888 C -0.00352 0.81430 0.91428
 C1889 C -0.00218 0.79171 0.90206
 C1890 C -0.00761 0.90501 0.95500
 H1891 H 0.01036 0.87553 0.90326
 H1892 H -0.02287 0.84612 0.96793
 H1893 H -0.02424 0.88696 0.98603
 H1894 H 0.00915 0.91639 0.92100
 C1895 C 0.50350 0.37840 0.42128
 C1896 C 0.49465 0.35842 0.43436
 C1897 C 0.48475 0.36189 0.45760
 C1898 C 0.48402 0.38522 0.46788
 C1899 C 0.49901 0.27337 0.39054
 C1900 C 0.50280 0.40171 0.43148
 C1901 C 0.49584 0.33446 0.42376
 C1902 C 0.49698 0.31473 0.41418
 C1903 C 0.49824 0.29213 0.40197
 C1904 C 0.49321 0.40541 0.45500
 H1905 H 0.51112 0.37594 0.40323
 H1906 H 0.47778 0.34655 0.46786
 H1907 H 0.47654 0.38737 0.48601
 H1908 H 0.51003 0.41678 0.42102
 C1909 C -0.00690 0.37499 0.57802
 C1910 C 0.00252 0.35507 0.56520
 C1911 C 0.01318 0.35861 0.54231
 C1912 C 0.01423 0.38197 0.53219
 C1913 C -0.00081 0.27019 0.60922
 C1914 C -0.00587 0.39834 0.56798
 C1915 C 0.00141 0.33114 0.57582
 C1916 C 0.00047 0.31144 0.58545
 C1917 C -0.00043 0.28890 0.59773
 C1918 C 0.00462 0.40212 0.54488
 H1919 H -0.01510 0.37248 0.59580
 H1920 H 0.02061 0.34331 0.53226
 H1921 H 0.02241 0.38418 0.51438
 H1922 H -0.01346 0.41337 0.57827
 C1923 C 0.49363 0.87660 0.07800
 C1924 C 0.50222 0.85653 0.06483
 C1925 C 0.51204 0.85989 0.04154
 C1926 C 0.51309 0.88324 0.03138
 C1927 C 0.49922 0.77186 0.10925
 C1928 C 0.49465 0.89992 0.06792
 C1929 C 0.50117 0.83263 0.07552
 C1930 C 0.50030 0.81299 0.08526
 C1931 C 0.49950 0.79051 0.09767
 C1932 C 0.50433 0.90355 0.04444
 H1933 H 0.48608 0.87421 0.09608
 H1934 H 0.51883 0.84449 0.03122
 H1935 H 0.52063 0.88534 0.01328
 H1936 H 0.48773 0.91507 0.07851
 C1937 C 0.50595 0.62271 0.07931
 C1938 C 0.49679 0.64258 0.06628
 C1939 C 0.48650 0.63896 0.04324
 C1940 C 0.48555 0.61555 0.03317
 C1941 C 0.49985 0.72793 0.10962
 C1942 C 0.50503 0.59932 0.06932
 C1943 C 0.49781 0.66658 0.07681
 C1944 C 0.49867 0.68636 0.08631
 C1945 C 0.49950 0.70906 0.09837
 C1946 C 0.49490 0.59544 0.04607
 H1947 H 0.51388 0.62530 0.09721
 H1948 H 0.47927 0.65421 0.03303
 H1949 H 0.47766 0.61326 0.01523
 H1950 H 0.51242 0.58432 0.07976
 C1951 C -0.01556 0.13736 0.54317
 C1952 C -0.00557 0.14085 0.56637
 C1953 C 0.00321 0.12086 0.57949
 C1954 C 0.00237 0.09752 0.56936
 C1955 C -0.00076 0.22622 0.60956
 C1956 C -0.01644 0.11400 0.53297
 C1957 C -0.00420 0.16485 0.57686
 C1958 C -0.00293 0.18464 0.58631
 C1959 C -0.00156 0.20734 0.59832
 C1960 C -0.00728 0.09380 0.54588
 H1961 H -0.02249 0.15270 0.53289
 H1962 H 0.01090 0.12335 0.59750
 H1963 H 0.00958 0.08245 0.57984
 H1964 H -0.02397 0.11183 0.51487
 C1965 C 0.51527 0.14073 0.45663
 C1966 C 0.50531 0.14415 0.43341
 C1967 C 0.49671 0.12409 0.42023
 C1968 C 0.49769 0.10077 0.43031
 C1969 C 0.49976 0.22940 0.39027
 C1970 C 0.51630 0.11738 0.46678
 C1971 C 0.50376 0.16813 0.42296
 C1972 C 0.50233 0.18790 0.41352
 C1973 C 0.50075 0.21056 0.40151
 C1974 C 0.50732 0.09712 0.45381
 H1975 H 0.52206 0.15613 0.46696
 H1976 H 0.48904 0.12651 0.40221
 H1977 H 0.49063 0.08564 0.41979
 H1978 H 0.52380 0.11528 0.48490
 C1979 C 0.01459 0.64015 0.95625
 C1980 C 0.00455 0.64361 0.93308
 C1981 C -0.00422 0.62361 0.91994
 C1982 C -0.00332 0.60027 0.93002
 C1983 C -0.00062 0.72900 0.89016
 C1984 C 0.01552 0.61680 0.96640
 C1985 C 0.00311 0.66761 0.92265
 C1986 C 0.00177 0.68741 0.91326
 C1987 C 0.00030 0.71011 0.90133
 C1988 C 0.00638 0.59658 0.95348
 H1989 H 0.02151 0.65550 0.96656
 H1990 H -0.01195 0.62607 0.90195
 H1991 H -0.01052 0.58519 0.91953
 H1992 H 0.02309 0.61465 0.98450
 C1993 C 0.23738 0.70865 0.89116
 C1994 C 0.24714 0.68535 0.89454
 C1995 C 0.25579 0.67219 0.87449
 C1996 C 0.25486 0.68229 0.85116
 C1997 C 0.25018 0.64045 0.97896
 C1998 C 0.23642 0.71883 0.86781
 C1999 C 0.24811 0.67462 0.91843
 C2000 C 0.24896 0.66479 0.93804
 C2001 C 0.24981 0.65222 0.96043
 C2002 C 0.24523 0.70578 0.84752
 H2003 H 0.23055 0.71897 0.90656
 H2004 H 0.26331 0.65410 0.87688
 H2005 H 0.26182 0.67170 0.83603
 H2006 H 0.22891 0.73695 0.86570
 C2007 C 0.73841 0.20831 0.39111
 C2008 C 0.74824 0.18502 0.39439
 C2009 C 0.75679 0.17191 0.37426
 C2010 C 0.75569 0.18204 0.35096
 C2011 C 0.75161 0.14030 0.47893
 C2012 C 0.73729 0.21852 0.36778
 C2013 C 0.74938 0.17426 0.41827
 C2014 C 0.75033 0.16446 0.43789
 C2015 C 0.75124 0.15196 0.46032
 C2016 C 0.74600 0.20552 0.34741
 H2017 H 0.73166 0.21859 0.40657
 H2018 H 0.76435 0.15382 0.37658
 H2019 H 0.76258 0.17149 0.33576
 H2020 H 0.72975 0.23663 0.36575
 C2021 C 0.26574 0.29213 0.38884
 C2022 C 0.25593 0.31541 0.39224
 C2023 C 0.24713 0.32847 0.37223
 C2024 C 0.24779 0.31821 0.34894
 C2025 C 0.25129 0.35968 0.47707
 C2026 C 0.26644 0.28179 0.36553
 C2027 C 0.25473 0.32608 0.41618
 C2028 C 0.25355 0.33576 0.43587
 C2029 C 0.25218 0.34811 0.45839
 C2030 C 0.25728 0.29465 0.34530
 H2031 H 0.27268 0.28189 0.40421
 H2032 H 0.23958 0.34655 0.37464
 H2033 H 0.24060 0.32867 0.33385
 H2034 H 0.27385 0.26363 0.36342
 C2035 C 0.74660 0.82877 0.87221
 C2036 C 0.75538 0.81571 0.89224
 C2037 C 0.76530 0.79247 0.88882
 C2038 C 0.76610 0.78218 0.86549
 C2039 C 0.75073 0.85959 0.97727
 C2040 C 0.74737 0.81856 0.84891
 C2041 C 0.75409 0.82632 0.91620
 C2042 C 0.75287 0.83592 0.93593
 C2043 C 0.75154 0.84814 0.95852
 C2044 C 0.75695 0.79504 0.84526
 H2045 H 0.73897 0.84682 0.87464
 H2046 H 0.77222 0.78223 0.90420
 H2047 H 0.77358 0.76405 0.86339
 H2048 H 0.74018 0.82900 0.83381
 C2049 C 0.75297 0.82963 0.12653
 C2050 C 0.74434 0.81654 0.10643
 C2051 C 0.73437 0.79333 0.10977
 C2052 C 0.73338 0.78309 0.13309
 C2053 C 0.74995 0.85989 0.02126
 C2054 C 0.75202 0.81947 0.14982
 C2055 C 0.74588 0.82707 0.08247
 C2056 C 0.74733 0.83657 0.06273
 C2057 C 0.74893 0.84864 0.04009
 C2058 C 0.74240 0.79597 0.15340
 H2059 H 0.76065 0.84766 0.12416
 H2060 H 0.72755 0.78306 0.09434
 H2061 H 0.72588 0.76497 0.13514
 H2062 H 0.75913 0.82993 0.16498
 C2063 C 0.25268 0.33067 0.62659
 C2064 C 0.24457 0.31734 0.60642
 C2065 C 0.23509 0.29391 0.60971
 C2066 C 0.23409 0.28370 0.63303
 C2067 C 0.25034 0.36025 0.52105
 C2068 C 0.25172 0.32052 0.64989
 C2069 C 0.24619 0.32780 0.58244
 C2070 C 0.24769 0.33720 0.56266
 C2071 C 0.24932 0.34912 0.53995
 C2072 C 0.24262 0.29680 0.65340
 H2073 H 0.25998 0.34885 0.62427
 H2074 H 0.22868 0.28346 0.59422
 H2075 H 0.22700 0.26540 0.63503
 H2076 H 0.25844 0.33115 0.66510
 C2077 C 0.76590 0.20570 0.61199
 C2078 C 0.75625 0.18237 0.60852
 C2079 C 0.74780 0.16908 0.62853
 C2080 C 0.74860 0.17918 0.65189
 C2081 C 0.75146 0.13966 0.52289
 C2082 C 0.76673 0.21587 0.63536
 C2083 C 0.75486 0.17195 0.58448
 C2084 C 0.75358 0.16261 0.56464
 C2085 C 0.75222 0.15075 0.54186
 C2086 C 0.75787 0.20281 0.65559
 H2087 H 0.77257 0.21612 0.59662
 H2088 H 0.74038 0.15095 0.62606
 H2089 H 0.74163 0.16858 0.66699
 H2090 H 0.77396 0.23409 0.63751
 C2091 C 0.24758 0.66863 0.12873
 C2092 C 0.25587 0.68190 0.10864
 C2093 C 0.26548 0.70527 0.11201
 C2094 C 0.26643 0.71549 0.13536
 C2095 C 0.25038 0.63941 0.02292
 C2096 C 0.24849 0.67878 0.15207
 C2097 C 0.25431 0.67147 0.08462
 C2098 C 0.25287 0.66215 0.06477
 C2099 C 0.25133 0.65038 0.04195
 C2100 C 0.25772 0.70245 0.15566
 H2101 H 0.24018 0.65049 0.12634
 H2102 H 0.27203 0.71567 0.09659
 H2103 H 0.27362 0.73374 0.13742
 H2104 H 0.24163 0.66820 0.16723
 C2105 C 0.17155 0.62705 0.74423
 C2106 C 0.18438 0.60714 0.75360
 C2107 C 0.20726 0.61069 0.76428
 C2108 C 0.21737 0.63406 0.76540
 C2109 C 0.14042 0.52221 0.74981
 C2110 C 0.18159 0.65040 0.74531
 C2111 C 0.17379 0.58319 0.75240
 C2112 C 0.16417 0.56348 0.75136
 C2113 C 0.15190 0.54093 0.75032
 C2114 C 0.20468 0.65421 0.75583
 H2115 H 0.15379 0.62451 0.73600
 H2116 H 0.21731 0.59540 0.77168
 H2117 H 0.23517 0.63630 0.77359
 H2118 H 0.17129 0.66542 0.73775
 C2119 C 0.70771 0.11067 0.26405
 C2120 C 0.68479 0.10715 0.25344
 C2121 C 0.67193 0.12708 0.24416
 C2122 C 0.68197 0.15043 0.24526
 C2123 C 0.64058 0.02240 0.24961
 C2124 C 0.71781 0.13404 0.26519
 C2125 C 0.67418 0.08322 0.25223
 C2126 C 0.66452 0.06355 0.25118
 C2127 C 0.65216 0.04105 0.25013
 C2128 C 0.70509 0.15421 0.25571
 H2129 H 0.71778 0.09537 0.27138
 H2130 H 0.65413 0.12456 0.23599
 H2131 H 0.67164 0.16547 0.23777
 H2132 H 0.73565 0.13626 0.27332
 C2133 C 0.82926 0.12624 0.75395
 C2134 C 0.81614 0.10624 0.74517
 C2135 C 0.79293 0.10971 0.73520
 C2136 C 0.78273 0.13306 0.73435
 C2137 C 0.85965 0.02108 0.75004
 C2138 C 0.81913 0.14957 0.75314
 C2139 C 0.82665 0.08225 0.74651
 C2140 C 0.83616 0.06250 0.74778
 C2141 C 0.84829 0.03987 0.74918
 C2142 C 0.79564 0.15327 0.74351
 H2143 H 0.84728 0.12378 0.76162
 H2144 H 0.78264 0.09435 0.72826
 H2145 H 0.76462 0.13521 0.72683
 H2146 H 0.82962 0.16465 0.76035
 C2147 C 0.32969 0.62634 0.25409
 C2148 C 0.31658 0.60628 0.24542
 C2149 C 0.29334 0.60967 0.23549
 C2150 C 0.28310 0.63300 0.23458
 C2151 C 0.35988 0.52101 0.25082
 C2152 C 0.31951 0.64965 0.25321
 C2153 C 0.32710 0.58230 0.24688
 C2154 C 0.33658 0.56253 0.24826
 C2155 C 0.34862 0.53986 0.24981
 C2156 C 0.29599 0.65327 0.24363
 H2157 H 0.34773 0.62394 0.26173
 H2158 H 0.28306 0.59427 0.22865
 H2159 H 0.26496 0.63509 0.22710
 H2160 H 0.32999 0.66477 0.26034
 C2161 C 0.29304 0.38827 0.26541
 C2162 C 0.31621 0.39183 0.25539
 C2163 C 0.32930 0.37192 0.24633
 C2164 C 0.31918 0.34858 0.24695
 C2165 C 0.35967 0.47702 0.25153
 C2166 C 0.28285 0.36492 0.26606
 C2167 C 0.32671 0.41582 0.25432
 C2168 C 0.33620 0.43559 0.25330
 C2169 C 0.34830 0.45824 0.25218
 C2170 C 0.29575 0.34480 0.25666
 H2171 H 0.28278 0.40356 0.27256
 H2172 H 0.34729 0.37445 0.23862
 H2173 H 0.32965 0.33357 0.23955
 H2174 H 0.26478 0.36271 0.27364
 C2175 C 0.79312 0.88847 0.76484
 C2176 C 0.81631 0.89191 0.75483
 C2177 C 0.82936 0.87191 0.74590
 C2178 C 0.81918 0.84861 0.74664
 C2179 C 0.85976 0.97711 0.75054
 C2180 C 0.78287 0.86515 0.76562
 C2181 C 0.82687 0.91588 0.75361
 C2182 C 0.83638 0.93563 0.75248
 C2183 C 0.84846 0.95828 0.75125
 C2184 C 0.79572 0.84494 0.75634
 H2185 H 0.78289 0.90383 0.77188
 H2186 H 0.84737 0.87436 0.73819
 H2187 H 0.82961 0.83352 0.73935
 H2188 H 0.76477 0.86303 0.77319
 C2189 C 0.67004 0.87313 0.25290
 C2190 C 0.68320 0.89314 0.24424
 C2191 C 0.70645 0.88970 0.23435
 C2192 C 0.71665 0.86635 0.23344
 C2193 C 0.64001 0.97846 0.24932
 C2194 C 0.68017 0.84981 0.25202
 C2195 C 0.67269 0.91713 0.24566
 C2196 C 0.66322 0.93689 0.24698
 C2197 C 0.65120 0.95958 0.24843
 C2198 C 0.70370 0.84613 0.24246
 H2199 H 0.65199 0.87558 0.26051
 H2200 H 0.71677 0.90506 0.22753
 H2201 H 0.73480 0.86421 0.22599
 H2202 H 0.66965 0.83472 0.25912
 C2203 C 0.17046 0.37299 0.75192
 C2204 C 0.18363 0.39312 0.74359
 C2205 C 0.20696 0.38983 0.73382
 C2206 C 0.21722 0.36651 0.73274
 C2207 C 0.14012 0.47825 0.74946
 C2208 C 0.18065 0.34969 0.75088
 C2209 C 0.17307 0.41708 0.74524
 C2210 C 0.16352 0.43680 0.74676
 C2211 C 0.15141 0.45942 0.74843
 C2212 C 0.20426 0.34616 0.74147
 H2213 H 0.15235 0.37532 0.75944
 H2214 H 0.21729 0.40529 0.72723
 H2215 H 0.23543 0.36449 0.72540
 H2216 H 0.17011 0.33451 0.75776
 C2217 C 0.10956 0.73767 0.79315
 C2218 C 0.10597 0.74798 0.81621
 C2219 C 0.12589 0.75709 0.82925
 C2220 C 0.14927 0.75611 0.81925
 C2221 C 0.02088 0.75130 0.85998
 C2222 C 0.13296 0.73666 0.78308
 C2223 C 0.08199 0.74905 0.82676
 C2224 C 0.06225 0.74998 0.83634
 C2225 C 0.03964 0.75089 0.84856
 C2226 C 0.15311 0.74596 0.79599
 H2227 H 0.09427 0.73048 0.78293
 H2228 H 0.12333 0.76503 0.84715
 H2229 H 0.16430 0.76345 0.82971
 H2230 H 0.13522 0.72876 0.76514
 C2231 C 0.60997 0.23770 0.29331
 C2232 C 0.60639 0.24799 0.31637
 C2233 C 0.62632 0.25702 0.32944
 C2234 C 0.64971 0.25599 0.31946
 C2235 C 0.52121 0.25158 0.35999
 C2236 C 0.63338 0.23663 0.28326
 C2237 C 0.58239 0.24915 0.32689
 C2238 C 0.56263 0.25014 0.33642
 C2239 C 0.53999 0.25112 0.34858
 C2240 C 0.65354 0.24586 0.29619
 H2241 H 0.59467 0.23057 0.28307
 H2242 H 0.62377 0.26495 0.34735
 H2243 H 0.66475 0.26329 0.32994
 H2244 H 0.63562 0.22875 0.26531
 C2245 C 0.61062 0.76615 0.20581
 C2246 C 0.60720 0.75664 0.18240
 C2247 C 0.62726 0.74837 0.16902
 C2248 C 0.65061 0.74917 0.17912
 C2249 C 0.52173 0.75082 0.13959
 C2250 C 0.63398 0.76699 0.21598
 C2251 C 0.58317 0.75512 0.17201
 C2252 C 0.56335 0.75366 0.16265
 C2253 C 0.54062 0.75197 0.15075
 C2254 C 0.65425 0.75828 0.20284
 H2255 H 0.59522 0.77268 0.21630
 H2256 H 0.62483 0.74105 0.15084
 H2257 H 0.66574 0.74232 0.16845
 H2258 H 0.63608 0.77409 0.23428
 C2259 C 0.11066 0.26485 0.70521
 C2260 C 0.10723 0.25472 0.68205
 C2261 C 0.12729 0.24606 0.66891
 C2262 C 0.15064 0.24714 0.67898
 C2263 C 0.02168 0.24885 0.63937
 C2264 C 0.13403 0.26597 0.71535
 C2265 C 0.08321 0.25306 0.67165
 C2266 C 0.06339 0.25155 0.66231
 C2267 C 0.04063 0.24989 0.65046
 C2268 C 0.15429 0.25693 0.70243
 H2269 H 0.09526 0.27169 0.71551
 H2270 H 0.12486 0.23826 0.65093
 H2271 H 0.16577 0.24002 0.66850
 H2272 H 0.13614 0.27359 0.73343
 C2273 C 0.88950 0.23382 0.70753
 C2274 C 0.89289 0.24365 0.68426
 C2275 C 0.87285 0.25238 0.67117
 C2276 C 0.84955 0.25163 0.68138
 C2277 C 0.97769 0.24812 0.64003
 C2278 C 0.86617 0.23303 0.71781
 C2279 C 0.91683 0.24488 0.67362
 C2280 C 0.93651 0.24606 0.66395
 C2281 C 0.95903 0.24736 0.65161
 C2282 C 0.84592 0.24211 0.70491
 H2283 H 0.90488 0.22693 0.71779
 H2284 H 0.87525 0.25994 0.65311
 H2285 H 0.83444 0.25877 0.67090
 H2286 H 0.86407 0.22561 0.73596
 C2287 C 0.38954 0.73435 0.20718
 C2288 C 0.39283 0.74416 0.18389
 C2289 C 0.37270 0.75268 0.17080
 C2290 C 0.34942 0.75176 0.18103
 C2291 C 0.47774 0.74955 0.13992
 C2292 C 0.36623 0.73339 0.21749
 C2293 C 0.41677 0.74563 0.17327
 C2294 C 0.43646 0.74702 0.16364
 C2295 C 0.45902 0.74856 0.15139
 C2296 C 0.34590 0.74228 0.20460
 H2297 H 0.40500 0.72763 0.21745
 H2298 H 0.37503 0.76022 0.15272
 H2299 H 0.33424 0.75875 0.17056
 H2300 H 0.36422 0.72601 0.23567
 C2301 C 0.38861 0.26512 0.29333
 C2302 C 0.39197 0.25561 0.31674
 C2303 C 0.37190 0.24710 0.32993
 C2304 C 0.34862 0.24771 0.31968
 C2305 C 0.47721 0.25152 0.36020
 C2306 C 0.36530 0.26577 0.28301
 C2307 C 0.41593 0.25444 0.32734
 C2308 C 0.43569 0.25334 0.33686
 C2309 C 0.45836 0.25217 0.34893
 C2310 C 0.34503 0.25687 0.29600
 H2311 H 0.40401 0.27184 0.28299
 H2312 H 0.37429 0.23978 0.34810
 H2313 H 0.33349 0.24071 0.33022
 H2314 H 0.36324 0.27292 0.26475
 C2315 C 0.88837 0.76508 0.79324
 C2316 C 0.89171 0.75565 0.81668
 C2317 C 0.87162 0.74728 0.82993
 C2318 C 0.84833 0.74795 0.81969
 C2319 C 0.97691 0.75126 0.86016
 C2320 C 0.86507 0.76579 0.78294
 C2321 C 0.91566 0.75440 0.82727
 C2322 C 0.93542 0.75323 0.83679
 C2323 C 0.95807 0.75197 0.84887
 C2324 C 0.84477 0.75703 0.79597
 H2325 H 0.90380 0.77168 0.78286
 H2326 H 0.87398 0.74003 0.84813
 H2327 H 0.83317 0.74107 0.83027
 H2328 H 0.86303 0.77286 0.76464
   
