data_POSCAR
  _audit_creation_date              2014-09-24
  _audit_creation_method            'ToBaCCo'
  _symmetry_space_group_name_H-M    'P1'
  _symmetry_Int_Tables_number       1
  _symmetry_cell_setting            triclinic
  loop_
  _symmetry_equiv_pos_as_xyz
 x,y,z
_cell_length_a 59.7070
_cell_length_b 60.8319
_cell_length_c 61.8483
_cell_angle_alpha 90.350600
_cell_angle_beta 88.587900
_cell_angle_gamma 89.306500
loop_
  _atom_site_label
  _atom_site_type_symbol
  _atom_site_fract_x
  _atom_site_fract_y
  _atom_site_fract_z
C1 C 0.38046 -0.03160 0.24750
 C2 C 0.38912 -0.01064 0.24257
 C3 C 0.39759 -0.00633 0.22164
 C4 C 0.39681 -0.02239 0.20543
 C5 C 0.38759 -0.04284 0.21033
 C6 C 0.37859 -0.04756 0.23102
 C7 C 0.38562 0.00793 0.25786
 C8 C 0.39467 0.00749 0.27863
 C9 C 0.38973 0.02452 0.29374
 C10 C 0.37559 0.04195 0.28723
 C11 C 0.36650 0.04250 0.26659
 C12 C 0.37182 0.02565 0.25184
 H13 H 0.37288 -0.03443 0.26333
 H14 H 0.40360 0.00994 0.21770
 H15 H 0.40465 -0.00667 0.28311
 H16 H 0.36427 0.02572 0.23608
 H17 H 0.38716 -0.05518 0.19762
 H18 H 0.37179 0.05570 0.29794
 C19 C 0.13362 -0.01776 0.75194
 C20 C 0.11852 -0.00118 0.75903
 C21 C 0.10790 -0.00265 0.77946
 C22 C 0.11240 -0.02058 0.79293
 C23 C 0.12769 -0.03690 0.78573
 C24 C 0.13857 -0.03545 0.76548
 C25 C 0.11566 0.01869 0.74589
 C26 C 0.10439 0.01753 0.72626
 C27 C 0.10429 0.03552 0.71194
 C28 C 0.11533 0.05486 0.71840
 C29 C 0.12696 0.05598 0.73778
 C30 C 0.12674 0.03798 0.75170
 H31 H 0.14240 -0.01626 0.73648
 H32 H 0.09673 0.01048 0.78508
 H33 H 0.09720 0.00198 0.72172
 H34 H 0.13646 0.03840 0.76627
 H35 H 0.13144 -0.05074 0.79605
 H36 H 0.11527 0.06938 0.70839
 C37 C 0.63355 0.48273 0.25580
 C38 C 0.62106 0.50157 0.26213
 C39 C 0.61142 0.50295 0.28306
 C40 C 0.61455 0.48575 0.29773
 C41 C 0.62748 0.46734 0.29139
 C42 C 0.63709 0.46574 0.27057
 C43 C 0.61963 0.52039 0.24730
 C44 C 0.60911 0.51794 0.22738
 C45 C 0.61018 0.53470 0.21192
 C46 C 0.62180 0.55401 0.21674
 C47 C 0.63282 0.55651 0.23638
 C48 C 0.63120 0.53983 0.25189
 H49 H 0.64142 0.48182 0.23983
 H50 H 0.60196 0.51752 0.28803
 H51 H 0.60100 0.50260 0.22357
 H52 H 0.64031 0.54123 0.26677
 H53 H 0.63018 0.45415 0.30279
 H54 H 0.62311 0.56689 0.20475
 C55 C 0.87514 0.46553 0.74757
 C56 C 0.88487 0.48593 0.74242
 C57 C 0.89381 0.48940 0.72145
 C58 C 0.89299 0.47279 0.70563
 C59 C 0.88330 0.45258 0.71111
 C60 C 0.87384 0.44896 0.73176
 C61 C 0.88296 0.50449 0.75800
 C62 C 0.89267 0.50298 0.77850
 C63 C 0.88859 0.51945 0.79437
 C64 C 0.87496 0.53760 0.78887
 C65 C 0.86531 0.53938 0.76854
 C66 C 0.86962 0.52294 0.75299
 H67 H 0.86714 0.46321 0.76330
 H68 H 0.90048 0.50535 0.71724
 H69 H 0.90232 0.48838 0.78229
 H70 H 0.86162 0.52387 0.73748
 H71 H 0.88222 0.43980 0.69890
 H72 H 0.87201 0.55097 0.80027
 C73 C 0.26521 0.34897 1.02837
 C74 C 0.26328 0.36454 1.01188
 C75 C 0.27983 0.38046 1.00903
 C76 C 0.29811 0.38149 1.02295
 C77 C 0.29933 0.36615 1.03988
 C78 C 0.28323 0.34949 1.04279
 C79 C 0.24339 0.36464 0.99806
 C80 C 0.22704 0.38130 1.00067
 C81 C 0.20756 0.38126 0.98827
 C82 C 0.20504 0.36448 0.97282
 C83 C 0.22154 0.34803 0.96958
 C84 C 0.24058 0.34805 0.98254
 H85 H 0.25263 0.33636 1.02951
 H86 H 0.27837 0.39185 0.99575
 H87 H 0.22955 0.39420 1.01248
 H88 H 0.25330 0.33531 0.98046
 H89 H 0.31215 0.36820 1.05171
 H90 H 0.19025 0.36429 0.96306
 C91 C 0.74195 0.14611 1.02139
 C92 C 0.73947 0.13641 1.00108
 C93 C 0.71821 0.13004 0.99456
 C94 C 0.69919 0.13357 1.00817
 C95 C 0.70189 0.14439 1.02822
 C96 C 0.72334 0.15022 1.03539
 C97 C 0.75950 0.13286 0.98694
 C98 C 0.77588 0.11734 0.99259
 C99 C 0.79579 0.11487 0.98013
 C100 C 0.79912 0.12839 0.96199
 C101 C 0.78301 0.14425 0.95624
 C102 C 0.76309 0.14621 0.96882
 H103 H 0.75856 0.15125 1.02574
 H104 H 0.71676 0.12161 0.97919
 H105 H 0.77299 0.10716 1.00668
 H106 H 0.75068 0.15866 0.96508
 H107 H 0.68735 0.14715 1.03871
 H108 H 0.81444 0.12667 0.95238
 C109 C 0.24181 0.64483 0.51913
 C110 C 0.23995 0.63474 0.49891
 C111 C 0.21929 0.62619 0.49281
 C112 C 0.20032 0.62784 0.50687
 C113 C 0.20238 0.63895 0.52681
 C114 C 0.22314 0.64701 0.53312
 C115 C 0.26022 0.63197 0.48501
 C116 C 0.27682 0.61679 0.49078
 C117 C 0.29703 0.61500 0.47876
 C118 C 0.30036 0.62868 0.46072
 C119 C 0.28401 0.64430 0.45487
 C120 C 0.26385 0.64570 0.46719
 H121 H 0.25796 0.65077 0.52412
 H122 H 0.21840 0.61739 0.47759
 H123 H 0.27392 0.60640 0.50471
 H124 H 0.25125 0.65798 0.46350
 H125 H 0.18811 0.64067 0.53786
 H126 H 0.31589 0.62730 0.45139
 C127 C 0.75455 0.85584 0.53134
 C128 C 0.75819 0.86441 0.51066
 C129 C 0.77923 0.87298 0.50493
 C130 C 0.79705 0.87313 0.51978
 C131 C 0.79301 0.86333 0.54027
 C132 C 0.77186 0.85505 0.54616
 C133 C 0.73942 0.86525 0.49549
 C134 C 0.72089 0.87908 0.50003
 C135 C 0.70223 0.87921 0.48657
 C136 C 0.70234 0.86502 0.46853
 C137 C 0.72069 0.85091 0.46378
 C138 C 0.73934 0.85135 0.47729
 H139 H 0.73818 0.84954 0.53583
 H140 H 0.78082 0.88071 0.48930
 H141 H 0.72120 0.88986 0.51402
 H142 H 0.75347 0.84034 0.47415
 H143 H 0.80612 0.86190 0.55193
 H144 H 0.68798 0.86481 0.45821
 C145 C -0.04778 0.23758 0.35580
 C146 C -0.02563 0.23588 0.36250
 C147 C -0.01849 0.21709 0.37334
 C148 C -0.03348 0.20025 0.37856
 C149 C -0.05579 0.20224 0.37187
 C150 C -0.06317 0.22061 0.36001
 C151 C -0.01021 0.25449 0.36017
 C152 C -0.01657 0.27524 0.36844
 C153 C -0.00073 0.29191 0.36988
 C154 C 0.02116 0.28815 0.36201
 C155 C 0.02781 0.26750 0.35392
 C156 C 0.01195 0.25076 0.35278
 H157 H -0.05302 0.25262 0.34802
 H158 H -0.00158 0.21659 0.37931
 H159 H -0.03326 0.27782 0.37536
 H160 H 0.01706 0.23451 0.34717
 H161 H -0.06685 0.18850 0.37442
 H162 H 0.03328 0.30122 0.36293
 C163 C -0.00830 0.74442 0.15998
 C164 C 0.01237 0.75040 0.15065
 C165 C 0.01563 0.77186 0.14342
 C166 C -0.00195 0.78718 0.14447
 C167 C -0.02265 0.78119 0.15366
 C168 C -0.02624 0.75975 0.16164
 C169 C 0.02952 0.73368 0.14503
 C170 C 0.02584 0.71918 0.12779
 C171 C 0.04343 0.70592 0.11919
 C172 C 0.06431 0.70659 0.12917
 C173 C 0.06782 0.72023 0.14704
 C174 C 0.05051 0.73423 0.15462
 H175 H -0.01065 0.72742 0.16453
 H176 H 0.03133 0.77611 0.13539
 H177 H 0.00977 0.71973 0.12003
 H178 H 0.05331 0.74552 0.16787
 H179 H -0.03572 0.79366 0.15483
 H180 H 0.07794 0.69600 0.12344
 C181 C 0.47823 0.24126 0.65731
 C182 C 0.49726 0.24622 0.64466
 C183 C 0.49643 0.26311 0.62944
 C184 C 0.47659 0.27522 0.62679
 C185 C 0.45785 0.27061 0.63992
 C186 C 0.45835 0.25344 0.65498
 C187 C 0.51712 0.23193 0.64512
 C188 C 0.51735 0.21256 0.63292
 C189 C 0.53664 0.19925 0.63148
 C190 C 0.55572 0.20551 0.64264
 C191 C 0.55570 0.22507 0.65492
 C192 C 0.53623 0.23826 0.65609
 H193 H 0.47877 0.22755 0.66840
 H194 H 0.51096 0.26619 0.61909
 H195 H 0.50267 0.20836 0.62385
 H196 H 0.53608 0.25364 0.66502
 H197 H 0.44283 0.28061 0.63847
 H198 H 0.57053 0.19504 0.64191
 C199 C 0.46092 0.75131 0.85760
 C200 C 0.48295 0.75010 0.86449
 C201 C 0.48964 0.73298 0.87798
 C202 C 0.47421 0.71710 0.88523
 C203 C 0.45203 0.71854 0.87791
 C204 C 0.44549 0.73526 0.86380
 C205 C 0.49895 0.76714 0.85808
 C206 C 0.49517 0.78893 0.86469
 C207 C 0.51145 0.80488 0.86068
 C208 C 0.53132 0.79900 0.84942
 C209 C 0.53476 0.77735 0.84192
 C210 C 0.51859 0.76144 0.84646
 H211 H 0.45591 0.76461 0.84710
 H212 H 0.50664 0.73298 0.88370
 H213 H 0.48007 0.79322 0.87397
 H214 H 0.52150 0.74453 0.84140
 H215 H 0.44012 0.70581 0.88186
 H216 H 0.54401 0.81128 0.84640
 C217 C -0.27881 0.63440 1.00126
 C218 C -0.26038 0.64516 1.00976
 C219 C -0.26268 0.65689 1.02920
 C220 C -0.28361 0.65848 1.04002
 C221 C -0.30227 0.64830 1.03086
 C222 C -0.30000 0.63552 1.01175
 C223 C -0.23865 0.64370 0.99809
 C224 C -0.23554 0.65547 0.97881
 C225 C -0.21620 0.65214 0.96550
 C226 C -0.19990 0.63699 0.97269
 C227 C -0.20328 0.62468 0.99153
 C228 C -0.22250 0.62831 1.00445
 H229 H -0.27652 0.62556 0.98610
 H230 H -0.24804 0.66433 1.03605
 H231 H -0.24919 0.66592 0.97374
 H232 H -0.22553 0.61830 1.01864
 H233 H -0.31824 0.64927 1.03948
 H234 H -0.18433 0.63427 0.96374
 C235 C -0.27442 0.36298 0.50324
 C236 C -0.25700 0.35041 0.49372
 C237 C -0.26030 0.33935 0.47416
 C238 C -0.28137 0.33990 0.46446
 C239 C -0.29928 0.35119 0.47521
 C240 C -0.29574 0.36375 0.49407
 C241 C -0.23477 0.35065 0.50348
 C242 C -0.23098 0.33904 0.52266
 C243 C -0.21077 0.34150 0.53362
 C244 C -0.19433 0.35542 0.52480
 C245 C -0.19829 0.36748 0.50605
 C246 C -0.21841 0.36491 0.49527
 H247 H -0.27128 0.37204 0.51798
 H248 H -0.24617 0.33112 0.46617
 H249 H -0.24422 0.32906 0.52956
 H250 H -0.22188 0.37490 0.48126
 H251 H -0.31553 0.35173 0.46782
 H252 H -0.17878 0.35785 0.53313
 C253 C 0.22726 -0.12561 -0.00791
 C254 C 0.24632 -0.13792 -0.01456
 C255 C 0.24853 -0.14555 -0.03599
 C256 C 0.23210 -0.14052 -0.05127
 C257 C 0.21333 -0.12776 -0.04425
 C258 C 0.21084 -0.12021 -0.02283
 C259 C 0.26453 -0.14195 0.00069
 C260 C 0.26114 -0.15635 0.01801
 C261 C 0.27785 -0.15992 0.03347
 C262 C 0.29818 -0.14835 0.03073
 C263 C 0.30167 -0.13352 0.01354
 C264 C 0.28485 -0.13079 -0.00167
 H265 H 0.22575 -0.11944 0.00855
 H266 H 0.26366 -0.15448 -0.04079
 H267 H 0.24554 -0.16519 0.01870
 H268 H 0.28704 -0.11915 -0.01472
 H269 H 0.19996 -0.12404 -0.05521
 H270 H 0.31109 -0.14968 0.04260
 C271 C 0.21554 1.13291 0.50455
 C272 C 0.23518 1.14440 0.50912
 C273 C 0.23720 1.15501 0.52926
 C274 C 0.21971 1.15397 0.54484
 C275 C 0.20029 1.14232 0.54001
 C276 C 0.19828 1.13140 0.52017
 C277 C 0.25454 1.14235 0.49393
 C278 C 0.25321 1.15098 0.47295
 C279 C 0.26978 1.14590 0.45693
 C280 C 0.28796 1.13234 0.46296
 C281 C 0.28908 1.12304 0.48360
 C282 C 0.27260 1.12856 0.49925
 H283 H 0.21448 1.12370 0.48956
 H284 H 0.25268 1.16309 0.53312
 H285 H 0.23832 1.16029 0.46898
 H286 H 0.27288 1.12083 0.51499
 H287 H 0.18701 1.14081 0.55218
 H288 H 0.30161 1.12868 0.45164
 C289 C 0.12255 0.50965 0.21294
 C290 C 0.13134 0.51285 0.23352
 C291 C 0.14049 0.53336 0.23873
 C292 C 0.14056 0.55079 0.22374
 C293 C 0.13076 0.54740 0.20349
 C294 C 0.12199 0.52685 0.19798
 C295 C 0.12983 0.49506 0.24983
 C296 C 0.13654 0.47338 0.24454
 C297 C 0.13349 0.45610 0.25944
 C298 C 0.12325 0.46101 0.27969
 C299 C 0.11699 0.48265 0.28541
 C300 C 0.12048 0.49958 0.27043
 H301 H 0.11538 0.49393 0.20880
 H302 H 0.14797 0.53547 0.25437
 H303 H 0.14447 0.47020 0.22889
 H304 H 0.11506 0.51620 0.27451
 H305 H 0.13008 0.56061 0.19187
 H306 H 0.12013 0.44803 0.29122
 C307 C -0.11276 1.00658 0.22637
 C308 C -0.12269 1.00272 0.24676
 C309 C -0.13214 0.98220 0.25118
 C310 C -0.13147 0.96501 0.23574
 C311 C -0.12040 0.96899 0.21573
 C312 C -0.11089 0.98957 0.21075
 C313 C -0.12149 1.01923 0.26443
 C314 C -0.13032 1.04065 0.26230
 C315 C -0.12928 1.05609 0.27952
 C316 C -0.11879 1.04941 0.29866
 C317 C -0.11017 1.02804 0.30100
 C318 C -0.11161 1.01309 0.28384
 H319 H -0.10493 1.02230 0.22349
 H320 H -0.14067 0.98021 0.26666
 H321 H -0.13765 1.04515 0.24709
 H322 H -0.10475 0.99662 0.28547
 H323 H -0.11908 0.95597 0.20382
 H324 H -0.11870 1.06023 0.31261
 C325 C 0.38323 0.50480 -0.27067
 C326 C 0.37328 0.50092 -0.25026
 C327 C 0.36410 0.48026 -0.24584
 C328 C 0.36526 0.46320 -0.26132
 C329 C 0.37647 0.46700 -0.28121
 C330 C 0.38545 0.48779 -0.28629
 C331 C 0.37445 0.51772 -0.23280
 C332 C 0.36625 0.53932 -0.23563
 C333 C 0.36859 0.55553 -0.21929
 C334 C 0.37944 0.54937 -0.20020
 C335 C 0.38753 0.52792 -0.19712
 C336 C 0.38480 0.51215 -0.21341
 H337 H 0.39082 0.52062 -0.27357
 H338 H 0.35585 0.47764 -0.23029
 H339 H 0.35870 0.54346 -0.25083
 H340 H 0.39137 0.49564 -0.21130
 H341 H 0.37758 0.45380 -0.29301
 H342 H 0.38044 0.56087 -0.18685
 C343 C 0.60442 0.01002 -0.28417
 C344 C 0.61587 0.00891 -0.26464
 C345 C 0.63078 0.02561 -0.25913
 C346 C 0.63430 0.04359 -0.27297
 C347 C 0.62287 0.04428 -0.29255
 C348 C 0.60828 0.02742 -0.29874
 C349 C 0.61364 -0.01067 -0.25077
 C350 C 0.62855 -0.02846 -0.25376
 C351 C 0.62683 -0.04728 -0.24074
 C352 C 0.61000 -0.04786 -0.22445
 C353 C 0.59494 -0.03011 -0.22110
 C354 C 0.59683 -0.01157 -0.23455
 H355 H 0.59377 -0.00351 -0.28851
 H356 H 0.63991 0.02429 -0.24427
 H357 H 0.64165 -0.02747 -0.26615
 H358 H 0.58528 0.00220 -0.23250
 H359 H 0.62468 0.05861 -0.30270
 H360 H 0.60874 -0.06218 -0.21422
 C361 C -0.00870 0.21287 0.92406
 C362 C -0.01099 0.23321 0.91399
 C363 C -0.03061 0.23836 0.90307
 C364 C -0.04763 0.22280 0.90141
 C365 C -0.04513 0.20226 0.91140
 C366 C -0.02584 0.19742 0.92313
 C367 C 0.00741 0.24892 0.91455
 C368 C 0.02784 0.24410 0.90379
 C369 C 0.04498 0.25966 0.90325
 C370 C 0.04176 0.27971 0.91430
 C371 C 0.02146 0.28446 0.92539
 C372 C 0.00427 0.26903 0.92530
 H373 H 0.00655 0.20904 0.93250
 H374 H -0.03220 0.25410 0.89509
 H375 H 0.02996 0.22868 0.89505
 H376 H -0.01170 0.27274 0.93329
 H377 H -0.05830 0.19023 0.91029
 H378 H 0.05508 0.29165 0.91424
 C379 C 0.49587 0.22915 0.09444
 C380 C 0.49765 0.25137 0.10033
 C381 C 0.51738 0.25867 0.10980
 C382 C 0.53487 0.24387 0.11371
 C383 C 0.53303 0.22182 0.10751
 C384 C 0.51349 0.21419 0.09802
 C385 C 0.47816 0.26645 0.09867
 C386 C 0.45674 0.25935 0.10511
 C387 C 0.43869 0.27419 0.10634
 C388 C 0.44186 0.29613 0.10047
 C389 C 0.46312 0.30353 0.09394
 C390 C 0.48116 0.28851 0.09286
 H391 H 0.48045 0.22344 0.08762
 H392 H 0.51860 0.27550 0.11547
 H393 H 0.45442 0.24270 0.11080
 H394 H 0.49775 0.29416 0.08836
 H395 H 0.54686 0.21061 0.11040
 H396 H 0.42780 0.30755 0.10162
 C397 C 0.01496 0.71880 0.59190
 C398 C 0.01559 0.74048 0.59948
 C399 C 0.03586 0.74897 0.60661
 C400 C 0.05541 0.73612 0.60560
 C401 C 0.05482 0.71468 0.59738
 C402 C 0.03451 0.70573 0.59086
 C403 C -0.00496 0.75418 0.60043
 C404 C -0.02513 0.74578 0.60897
 C405 C -0.04410 0.75955 0.61182
 C406 C -0.04289 0.78129 0.60418
 C407 C -0.02280 0.78995 0.59621
 C408 C -0.00392 0.77624 0.59419
 H409 H -0.00089 0.71206 0.58710
 H410 H 0.03638 0.76540 0.61345
 H411 H -0.02521 0.72917 0.61516
 H412 H 0.01182 0.78286 0.58827
 H413 H 0.07004 0.70479 0.59679
 H414 H -0.05768 0.79178 0.60457
 C415 C 0.50179 0.71352 0.41784
 C416 C 0.49957 0.73374 0.40754
 C417 C 0.47979 0.73898 0.39692
 C418 C 0.46237 0.72376 0.39604
 C419 C 0.46471 0.70344 0.40646
 C420 C 0.48426 0.69842 0.41773
 C421 C 0.51766 0.74975 0.40860
 C422 C 0.53856 0.74535 0.39862
 C423 C 0.55541 0.76124 0.39884
 C424 C 0.55132 0.78129 0.40975
 C425 C 0.53062 0.78539 0.42033
 C426 C 0.51380 0.76964 0.41948
 H427 H 0.51711 0.70968 0.42615
 H428 H 0.47823 0.75469 0.38887
 H429 H 0.54132 0.72999 0.38994
 H430 H 0.49756 0.77292 0.42715
 H431 H 0.45111 0.69181 0.40626
 H432 H 0.56428 0.79359 0.41018
 Zr433 Zr 0.00733 -0.04131 1.02884
 O434 O 0.02760 -0.02800 1.05315
 O435 O 0.00168 -0.07316 1.04049
 O436 O -0.01049 -0.03952 1.05876
 O437 O 0.05135 -0.05252 0.99305
 O438 O -0.04272 -0.02077 1.05118
 O439 O 0.03990 -0.05598 1.02832
 O440 O -0.02315 -0.08702 1.01673
 O441 O -0.02632 -0.04627 1.02150
 O442 O 0.00750 -0.05935 1.00000
 O443 O -0.00735 -0.00971 1.02661
 O444 O 0.02523 -0.02200 1.00619
 Zr445 Zr -0.02395 -0.01399 0.96584
 Zr446 Zr -0.04053 -0.01493 1.01769
 Zr447 Zr 0.02365 -0.03970 0.97707
 Zr448 Zr -0.02589 -0.06335 0.99219
 O449 O 0.05338 -0.02321 0.96781
 O450 O -0.05867 -0.07234 1.00242
 O451 O -0.00927 -0.04558 0.96769
 O452 O -0.04183 -0.03279 0.98866
 O453 O -0.02441 0.00453 0.99452
 O454 O 0.00943 -0.00858 0.97343
 C455 C -0.01172 -0.08813 1.03407
 C456 C 0.05466 -0.05803 1.01275
 C457 C -0.02960 -0.03076 1.06421
 O458 O -0.07132 -0.03068 1.02425
 O459 O -0.06605 0.00284 1.00208
 O460 O -0.05510 0.00260 0.96649
 C461 C -0.06883 0.00794 0.98210
 O462 O 0.03143 0.01498 1.02785
 Zr463 Zr 0.00894 0.00860 1.00251
 O464 O -0.01960 0.01795 0.95453
 O465 O -0.04668 0.01497 1.03459
 O466 O -0.00475 0.03517 1.02107
 O467 O 0.03979 0.02009 0.98943
 O468 O 0.00085 0.03411 0.98077
 C469 C -0.01016 0.03462 0.96308
 O470 O -0.04534 -0.02737 0.94248
 O471 O 0.03110 -0.07066 0.96269
 O472 O -0.00736 -0.01731 0.93539
 O473 O 0.02459 -0.03616 0.94333
 O474 O -0.01203 -0.09216 0.97742
 O475 O -0.04398 -0.07084 0.96396
 C476 C 0.01159 -0.02645 0.93002
 H477 H 0.01519 -0.07378 1.00126
 H478 H -0.05747 -0.03494 0.98419
 H479 H 0.01768 -0.00012 0.96224
 H480 H -0.00667 -0.00174 1.04058
 H481 H -0.05972 -0.08852 1.00093
 H482 H -0.08052 -0.02034 1.03330
 H483 H -0.06212 0.01427 1.04077
 H484 H 0.00383 0.04847 1.01715
 H485 H -0.02196 -0.10453 0.98137
 H486 H 0.04636 -0.06966 0.95614
 H487 H 0.06256 -0.03362 0.95883
 H488 H 0.03970 0.03630 0.99117
 H489 H -0.05056 -0.08565 0.96534
 H490 H -0.04806 -0.01574 0.93164
 H491 H 0.03012 -0.03981 1.06384
 H492 H 0.03534 0.03075 1.02784
 Zr493 Zr 0.51026 0.46465 0.53433
 O494 O 0.53008 0.47990 0.55786
 O495 O 0.50718 0.43301 0.54637
 O496 O 0.49193 0.46584 0.56403
 O497 O 0.55437 0.45103 0.49921
 O498 O 0.45907 0.48311 0.55578
 O499 O 0.54213 0.44895 0.53446
 O500 O 0.48457 0.41599 0.52242
 O501 O 0.47693 0.45788 0.52716
 O502 O 0.51124 0.44592 0.50588
 O503 O 0.49436 0.49548 0.53132
 O504 O 0.52806 0.48377 0.51150
 Zr505 Zr 0.47885 0.48860 0.47057
 Zr506 Zr 0.46158 0.48858 0.52222
 Zr507 Zr 0.52736 0.46521 0.48278
 Zr508 Zr 0.47829 0.43994 0.49835
 O509 O 0.55694 0.48266 0.47521
 O510 O 0.44658 0.43027 0.51091
 O511 O 0.49469 0.45766 0.47348
 O512 O 0.46132 0.46981 0.49369
 O513 O 0.47734 0.50792 0.49871
 O514 O 0.51190 0.49560 0.47830
 C515 C 0.49665 0.41624 0.53945
 C516 C 0.55645 0.44488 0.51893
 C517 C 0.47232 0.47371 0.56911
 O518 O 0.43105 0.47229 0.52863
 O519 O 0.43584 0.50524 0.50577
 O520 O 0.44721 0.50408 0.47032
 C521 C 0.43318 0.50960 0.48560
 O522 O 0.53216 0.52142 0.53245
 Zr523 Zr 0.51040 0.51356 0.50692
 O524 O 0.48200 0.52038 0.45842
 O525 O 0.45424 0.51860 0.53851
 O526 O 0.49536 0.54019 0.52440
 O527 O 0.54088 0.52611 0.49405
 O528 O 0.50184 0.53797 0.48423
 C529 C 0.49097 0.53758 0.46645
 O530 O 0.45842 0.47351 0.44740
 O531 O 0.53578 0.43478 0.46773
 O532 O 0.49587 0.48527 0.44039
 O533 O 0.52901 0.46893 0.44900
 O534 O 0.49223 0.41158 0.48282
 O535 O 0.45932 0.43104 0.47109
 C536 C 0.51549 0.47746 0.43538
 H537 H 0.51916 0.43162 0.50698
 H538 H 0.44582 0.46698 0.48915
 H539 H 0.51996 0.50415 0.46706
 H540 H 0.49454 0.50376 0.54515
 H541 H 0.44624 0.41400 0.51034
 H542 H 0.42152 0.48255 0.53745
 H543 H 0.43874 0.51753 0.54448
 H544 H 0.50352 0.55367 0.52022
 H545 H 0.48283 0.39892 0.48707
 H546 H 0.55118 0.43619 0.46158
 H547 H 0.56660 0.47270 0.46620
 H548 H 0.54013 0.54233 0.49562
 H549 H 0.45188 0.41685 0.47390
 H550 H 0.45523 0.48467 0.43622
 H551 H 0.53301 0.46867 0.56904
 H552 H 0.53527 0.53737 0.53228
 Zr553 Zr 0.47755 1.01872 0.53201
 O554 O 0.45622 1.00316 0.55490
 O555 O 0.48075 1.05006 0.54546
 O556 O 0.49338 1.01584 0.56213
 O557 O 0.43527 1.03070 0.49679
 O558 O 0.52828 1.00255 0.55286
 O559 O 0.44493 1.03296 0.53218
 O560 O 0.50589 1.06661 0.52266
 O561 O 0.51117 1.02603 0.52504
 O562 O 0.47803 1.03803 0.50416
 O563 O 0.49421 0.98819 0.52819
 O564 O 0.46174 0.99966 0.50833
 Zr565 Zr 0.51354 0.99588 0.46764
 Zr566 Zr 0.52736 0.99582 0.51954
 Zr567 Zr 0.46401 1.01870 0.48021
 Zr568 Zr 0.51143 1.04428 0.49670
 O569 O 0.43559 1.00102 0.47057
 O570 O 0.54313 1.05422 0.50772
 O571 O 0.49706 1.02661 0.47126
 O572 O 0.52919 1.01476 0.49141
 O573 O 0.51349 0.97641 0.49545
 O574 O 0.48010 0.98851 0.47490
 C575 C 0.49339 1.06611 0.53995
 C576 C 0.43110 1.03590 0.51669
 C577 C 0.51354 1.00993 0.56669
 O578 O 0.55753 1.01224 0.52603
 O579 O 0.55422 0.97949 0.50336
 O580 O 0.54552 0.98055 0.46769
 C581 C 0.55846 0.97515 0.48326
 O582 O 0.45661 0.96175 0.52803
 Zr583 Zr 0.48003 0.97021 0.50311
 O584 O 0.51156 0.96416 0.45480
 O585 O 0.53389 0.96607 0.53591
 O586 O 0.49405 0.94358 0.52039
 O587 O 0.45072 0.95752 0.48920
 O588 O 0.49085 0.94604 0.48034
 C589 C 0.50283 0.94669 0.46272
 O590 O 0.53542 1.01119 0.44506
 O591 O 0.45571 1.04967 0.46698
 O592 O 0.49825 0.99984 0.43735
 O593 O 0.46498 1.01669 0.44633
 O594 O 0.49687 1.07299 0.48341
 O595 O 0.53050 1.05421 0.46906
 C596 C 0.47921 1.00852 0.43244
 H597 H 0.46970 1.05210 0.50607
 H598 H 0.54490 1.01785 0.48706
 H599 H 0.47291 0.98013 0.46325
 H600 H 0.49339 0.97965 0.54176
 H601 H 0.54334 1.07050 0.50747
 H602 H 0.56658 1.00221 0.53499
 H603 H 0.54895 0.96741 0.54214
 H604 H 0.48628 0.93006 0.51588
 H605 H 0.50576 1.08567 0.48828
 H606 H 0.44081 1.04817 0.46044
 H607 H 0.42633 1.01124 0.46200
 H608 H 0.45162 0.94129 0.49024
 H609 H 0.53651 1.06909 0.47159
 H610 H 0.53932 1.00010 0.43372
 H611 H 0.45247 1.01418 0.56636
 H612 H 0.45336 0.94585 0.52712
 Zr613 Zr -0.01110 0.52656 1.02809
 O614 O -0.02858 0.51255 1.05471
 O615 O -0.01016 0.55967 1.03702
 O616 O 0.00791 0.52934 1.05639
 O617 O -0.05718 0.53213 0.99597
 O618 O 0.04176 0.51411 1.04659
 O619 O -0.04450 0.53825 1.02995
 O620 O 0.01164 0.57497 1.01043
 O621 O 0.02132 0.53479 1.01764
 O622 O -0.01432 0.54238 0.99840
 O623 O 0.00676 0.49659 1.02618
 O624 O -0.02786 0.50411 1.00816
 Zr625 Zr 0.02051 0.49820 0.96385
 Zr626 Zr 0.03857 0.50481 1.01404
 Zr627 Zr -0.02926 0.51979 0.97810
 Zr628 Zr 0.01794 0.54950 0.98755
 O629 O -0.05721 0.49955 0.97288
 O630 O 0.04941 0.56250 0.99582
 O631 O 0.00250 0.52825 0.96561
 O632 O 0.03695 0.52045 0.98403
 O633 O 0.02388 0.48209 0.99343
 O634 O -0.01182 0.49009 0.97461
 C635 C 0.00009 0.57593 1.02831
 C636 C -0.05981 0.53899 1.01563
 C637 C 0.02824 0.52351 1.06039
 O638 O 0.06799 0.52363 1.01641
 O639 O 0.06486 0.48811 0.99758
 O640 O 0.05308 0.48391 0.96304
 C641 C 0.06754 0.48109 0.97801
 O642 O -0.02878 0.46825 1.03224
 Zr643 Zr -0.00845 0.47515 1.00448
 O644 O 0.01875 0.46527 0.95446
 O645 O 0.04843 0.47728 1.03246
 O646 O 0.00895 0.45129 1.02269
 O647 O -0.03844 0.45988 0.99503
 O648 O 0.00099 0.44915 0.98318
 C649 C 0.01118 0.44843 0.96456
 O650 O 0.04003 0.51167 0.93827
 O651 O -0.04081 0.54852 0.96254
 O652 O 0.00267 0.49862 0.93460
 O653 O -0.03091 0.51427 0.94465
 O654 O 0.00091 0.57517 0.97142
 O655 O 0.03502 0.55699 0.95800
 C656 C -0.01722 0.50579 0.93043
 H657 H -0.02349 0.55603 0.99931
 H658 H 0.05210 0.52376 0.97812
 H659 H -0.01955 0.48021 0.96452
 H660 H 0.00758 0.48968 1.04060
 H661 H 0.04854 0.57863 0.99383
 H662 H 0.07843 0.51510 1.02543
 H663 H 0.06391 0.48000 1.03717
 H664 H 0.00164 0.43697 1.02030
 H665 H 0.00924 0.58890 0.97396
 H666 H -0.05615 0.54545 0.95765
 H667 H -0.06783 0.50823 0.96418
 H668 H -0.03665 0.44390 0.99762
 H669 H 0.04057 0.57225 0.95863
 H670 H 0.04344 0.49953 0.92787
 H671 H -0.03210 0.52466 1.06511
 H672 H -0.03089 0.45217 1.03336
 Zr673 Zr -0.01088 0.47428 0.46435
 O674 O -0.03061 0.48300 0.43767
 O675 O -0.00252 0.44162 0.45726
 O676 O 0.00852 0.47327 0.43541
 O677 O -0.05596 0.46354 0.49839
 O678 O 0.03861 0.49464 0.44253
 O679 O -0.04118 0.45682 0.46457
 O680 O 0.02095 0.43178 0.48415
 O681 O 0.02248 0.47252 0.47386
 O682 O -0.01146 0.46017 0.49507
 O683 O 0.00055 0.50679 0.46354
 O684 O -0.03241 0.49458 0.48350
 Zr685 Zr 0.01305 0.51169 0.52520
 Zr686 Zr 0.03332 0.50513 0.47482
 Zr687 Zr -0.03116 0.48108 0.51459
 Zr688 Zr 0.02152 0.45947 0.50494
 O689 O -0.06269 0.49665 0.52012
 O690 O 0.05523 0.45153 0.49622
 O691 O 0.00158 0.47906 0.52613
 O692 O 0.03417 0.49139 0.50579
 O693 O 0.01370 0.52612 0.49455
 O694 O -0.02016 0.51343 0.51541
 C695 C 0.01035 0.42781 0.46668
 C696 C -0.05664 0.45496 0.47933
 C697 C 0.02726 0.48225 0.42998
 O698 O 0.06598 0.49137 0.47194
 O699 O 0.05600 0.52657 0.48955
 O700 O 0.04277 0.53011 0.52432
 C701 C 0.05711 0.53419 0.50898
 O702 O -0.04046 0.52713 0.45723
 Zr703 Zr -0.01935 0.52646 0.48439
 O704 O 0.00482 0.54462 0.53181
 O705 O 0.03765 0.53294 0.45483
 O706 O -0.00743 0.55152 0.46354
 O707 O -0.05196 0.53702 0.49448
 O708 O -0.01555 0.55521 0.50290
 C709 C -0.00560 0.55912 0.52069
 O710 O 0.03407 0.50397 0.55127
 O711 O -0.03713 0.45180 0.53200
 O712 O -0.00463 0.50983 0.55522
 O713 O -0.03433 0.48806 0.54787
 O714 O 0.00983 0.43247 0.52338
 O715 O 0.03916 0.45732 0.53430
 C716 C -0.02254 0.49945 0.56090
 H717 H -0.01769 0.44516 0.49531
 H718 H 0.04959 0.49100 0.51132
 H719 H -0.02981 0.52253 0.52527
 H720 H 0.00013 0.51274 0.44868
 H721 H 0.05765 0.43575 0.49945
 H722 H 0.07464 0.50099 0.46201
 H723 H 0.05343 0.53255 0.44946
 H724 H -0.01792 0.56422 0.46505
 H725 H 0.02103 0.42039 0.52158
 H726 H -0.05291 0.45255 0.53736
 H727 H -0.07159 0.48677 0.52957
 H728 H -0.05358 0.55268 0.49040
 H729 H 0.04792 0.44340 0.53445
 H730 H 0.03469 0.51723 0.56067
 H731 H -0.03137 0.46982 0.42820
 H732 H -0.04631 0.54225 0.45519
 Zr733 Zr 0.48436 -0.01566 -0.03810
 O734 O 0.46106 -0.00843 -0.06238
 O735 O 0.49660 -0.04646 -0.04838
 O736 O 0.50051 -0.01151 -0.06883
 O737 O 0.44512 -0.03332 -0.00016
 O738 O 0.52804 0.01322 -0.06207
 O739 O 0.45543 -0.03603 -0.03580
 O740 O 0.52402 -0.05435 -0.02456
 O741 O 0.51859 -0.01370 -0.03140
 O742 O 0.48871 -0.03136 -0.00847
 O743 O 0.49195 0.01811 -0.03734
 O744 O 0.46292 0.00109 -0.01568
 Zr745 Zr 0.50989 0.02142 0.02300
 Zr746 Zr 0.52573 0.01990 -0.02884
 Zr747 Zr 0.46909 -0.01373 0.01419
 Zr748 Zr 0.52239 -0.02860 -0.00144
 O749 O 0.43636 -0.00276 0.02316
 O750 O 0.55611 -0.03174 -0.01274
 O751 O 0.50275 -0.01248 0.02274
 O752 O 0.53117 0.00453 0.00075
 O753 O 0.50580 0.03752 -0.00646
 O754 O 0.47592 0.01967 0.01609
 C755 C 0.51263 -0.05862 -0.04147
 C756 C 0.44231 -0.04054 -0.01944
 C757 C 0.51695 0.00089 -0.07481
 O758 O 0.55890 0.00938 -0.03649
 O759 O 0.54855 0.04171 -0.01445
 O760 O 0.53754 0.04246 0.02108
 C761 C 0.55066 0.04816 0.00531
 O762 O 0.44836 0.03381 -0.03897
 Zr763 Zr 0.47206 0.03426 -0.01388
 O764 O 0.49883 0.05320 0.03196
 O765 O 0.52509 0.04990 -0.04594
 O766 O 0.47868 0.06159 -0.03409
 O767 O 0.43952 0.04024 -0.00042
 O768 O 0.47422 0.06236 0.00581
 C769 C 0.48550 0.06680 0.02269
 O770 O 0.53368 0.01446 0.04697
 O771 O 0.46915 -0.04426 0.03041
 O772 O 0.49509 0.01680 0.05397
 O773 O 0.46790 -0.00828 0.04779
 O774 O 0.51531 -0.05807 0.01542
 O775 O 0.54271 -0.03090 0.02622
 C776 C 0.47897 0.00432 0.06033
 H777 H 0.48437 -0.04702 -0.00883
 H778 H 0.54703 0.00541 0.00494
 H779 H 0.46617 0.02713 0.02712
 H780 H 0.48927 0.02503 -0.05150
 H781 H 0.56077 -0.04729 -0.01088
 H782 H 0.56553 0.02067 -0.04611
 H783 H 0.54012 0.05158 -0.05284
 H784 H 0.46690 0.07287 -0.03094
 H785 H 0.52742 -0.06879 0.01161
 H786 H 0.45409 -0.04586 0.03728
 H787 H 0.42991 -0.01395 0.03301
 H788 H 0.43561 0.05582 -0.00326
 H789 H 0.55250 -0.04412 0.02492
 H790 H 0.53384 0.02725 0.05702
 H791 H 0.46102 -0.02128 -0.07233
 H792 H 0.44044 0.04818 -0.03945
 Zr793 Zr 0.50553 0.54204 -0.01831
 O794 O 0.52717 0.53659 -0.04551
 O795 O 0.49391 0.57401 -0.02358
 O796 O 0.48745 0.54229 -0.04715
 O797 O 0.54771 0.55567 0.01632
 O798 O 0.45922 0.51803 -0.04096
 O799 O 0.53397 0.56233 -0.01720
 O800 O 0.46812 0.58005 0.00369
 O801 O 0.47182 0.54039 -0.00836
 O802 O 0.50358 0.55467 0.01314
 O803 O 0.49713 0.50866 -0.02082
 O804 O 0.52808 0.52265 -0.00064
 Zr805 Zr 0.48302 0.49958 0.04062
 Zr806 Zr 0.46396 0.50700 -0.00915
 Zr807 Zr 0.52444 0.53457 0.03114
 Zr808 Zr 0.47039 0.55190 0.02347
 O809 O 0.55727 0.52187 0.03484
 O810 O 0.43614 0.55687 0.01636
 O811 O 0.49134 0.53309 0.04328
 O812 O 0.46079 0.51893 0.02266
 O813 O 0.48467 0.48675 0.00912
 O814 O 0.51653 0.50130 0.03028
 C815 C 0.47882 0.58578 -0.01368
 C816 C 0.54828 0.56514 -0.00220
 C817 C 0.46997 0.53177 -0.05297
 O818 O 0.43053 0.51856 -0.01135
 O819 O 0.44220 0.48379 0.00484
 O820 O 0.45579 0.47784 0.03853
 C821 C 0.44188 0.47417 0.02332
 O822 O 0.54010 0.49209 -0.02864
 Zr823 Zr 0.51793 0.48964 -0.00137
 O824 O 0.49409 0.46730 0.04540
 O825 O 0.46261 0.47949 -0.03015
 O826 O 0.50908 0.46486 -0.02376
 O827 O 0.55087 0.48122 0.00794
 O828 O 0.51562 0.45955 0.01533
 C829 C 0.50562 0.45404 0.03313
 O830 O 0.46030 0.50430 0.06711
 O831 O 0.52674 0.56309 0.05071
 O832 O 0.49973 0.50127 0.07048
 O833 O 0.52755 0.52579 0.06360
 O834 O 0.47915 0.57931 0.04272
 O835 O 0.45218 0.55127 0.05341
 C836 C 0.51680 0.51261 0.07615
 H837 H 0.50821 0.57021 0.01415
 H838 H 0.44524 0.51768 0.02841
 H839 H 0.52669 0.49257 0.03939
 H840 H 0.49863 0.50342 -0.03598
 H841 H 0.43211 0.57220 0.02050
 H842 H 0.42302 0.50866 -0.02161
 H843 H 0.44711 0.47893 -0.03548
 H844 H 0.52053 0.45296 -0.02307
 H845 H 0.46695 0.59041 0.04162
 H846 H 0.54230 0.56356 0.05589
 H847 H 0.56484 0.53183 0.04500
 H848 H 0.55390 0.46591 0.00303
 H849 H 0.44247 0.56455 0.05472
 H850 H 0.46055 0.49059 0.07572
 H851 H 0.52697 0.55023 -0.05422
 H852 H 0.54743 0.47764 -0.03152
 Zr853 Zr 0.00747 1.02933 0.47979
 O854 O 0.02831 1.02334 0.45212
 O855 O -0.00364 1.06147 0.47447
 O856 O -0.01109 1.03042 0.45144
 O857 O 0.05051 1.04091 0.51371
 O858 O -0.03990 1.00676 0.45758
 O859 O 0.03715 1.04812 0.48029
 O860 O -0.03020 1.06732 0.50105
 O861 O -0.02622 1.02807 0.48992
 O862 O 0.00582 1.04227 0.51109
 O863 O -0.00166 0.99612 0.47731
 O864 O 0.02959 1.00958 0.49746
 Zr865 Zr -0.01573 0.98738 0.53900
 Zr866 Zr -0.03482 0.99486 0.48916
 Zr867 Zr 0.02614 1.02171 0.52912
 Zr868 Zr -0.02743 1.03988 0.52158
 O869 O 0.05845 1.00821 0.53405
 O870 O -0.06182 1.04532 0.51535
 O871 O -0.00688 1.02077 0.54140
 O872 O -0.03760 1.00707 0.52092
 O873 O -0.01442 0.97434 0.50752
 O874 O 0.01774 0.98859 0.52847
 C875 C -0.01942 1.07291 0.48370
 C876 C 0.05203 1.04985 0.49497
 C877 C -0.02907 1.02070 0.44580
 O878 O -0.06823 1.00658 0.48738
 O879 O -0.05673 0.97163 0.50316
 O880 O -0.04424 0.96723 0.53745
 C881 C -0.05802 0.96316 0.52221
 O882 O 0.04065 0.97872 0.46919
 Zr883 Zr 0.01884 0.97686 0.49678
 O884 O -0.00506 0.95482 0.54359
 O885 O -0.03643 0.96767 0.46779
 O886 O 0.00920 0.95195 0.47488
 O887 O 0.05192 0.96838 0.50566
 O888 O 0.01697 0.94715 0.51382
 C889 C 0.00694 0.94168 0.53157
 O890 O -0.03796 0.99217 0.56588
 O891 O 0.02935 1.05085 0.54762
 O892 O 0.00099 0.98936 0.56897
 O893 O 0.02846 1.01407 0.56178
 O894 O -0.01782 1.06756 0.54002
 O895 O -0.04507 1.03979 0.55185
 C896 C 0.01767 1.00129 0.57464
 H897 H 0.01095 1.05768 0.51177
 H898 H -0.05316 1.00619 0.52672
 H899 H 0.02780 0.97987 0.53769
 H900 H -0.00037 0.99089 0.46213
 H901 H -0.06556 1.06069 0.51961
 H902 H -0.07587 0.99686 0.47705
 H903 H -0.05197 0.96730 0.46256
 H904 H 0.02050 0.93991 0.47548
 H905 H -0.02981 1.07886 0.53875
 H906 H 0.04491 1.05104 0.55282
 H907 H 0.06618 1.01835 0.54393
 H908 H 0.05490 0.95308 0.50070
 H909 H -0.05400 1.05354 0.55350
 H910 H -0.03773 0.97845 0.57448
 H911 H 0.02842 1.03703 0.44347
 H912 H 0.04754 0.96409 0.46622
 Zr913 Zr 0.70974 0.26470 0.21908
 O914 O 0.71982 0.28520 0.19315
 O915 O 0.67577 0.26018 0.21297
 O916 O 0.70684 0.24842 0.18891
 O917 O 0.70468 0.30697 0.25633
 O918 O 0.72641 0.21643 0.19344
 O919 O 0.69571 0.29670 0.22211
 O920 O 0.66464 0.23569 0.23868
 O921 O 0.70515 0.23160 0.22679
 O922 O 0.69583 0.26416 0.25043
 O923 O 0.74178 0.25003 0.21617
 O924 O 0.73272 0.28133 0.23861
 Zr925 Zr 0.74673 0.23134 0.27656
 Zr926 Zr 0.73716 0.21737 0.22546
 Zr927 Zr 0.71923 0.27891 0.27011
 Zr928 Zr 0.69250 0.23122 0.25850
 O929 O 0.73802 0.30711 0.27768
 O930 O 0.68129 0.19972 0.24905
 O931 O 0.71462 0.24623 0.27974
 O932 O 0.72370 0.21518 0.25694
 O933 O 0.76085 0.23192 0.24523
 O934 O 0.75106 0.26448 0.26880
 C935 C 0.66119 0.24747 0.22185
 C936 C 0.69624 0.31079 0.23776
 C937 C 0.71477 0.22976 0.18205
 O938 O 0.71951 0.18786 0.22061
 O939 O 0.75548 0.19084 0.23752
 O940 O 0.76315 0.20033 0.27229
 C941 C 0.76417 0.18700 0.25593
 O942 O 0.76708 0.28733 0.21108
 Zr943 Zr 0.76396 0.26502 0.23727
 O944 O 0.78072 0.23594 0.28266
 O945 O 0.76510 0.21137 0.20444
 O946 O 0.78826 0.25161 0.21518
 O947 O 0.77686 0.29530 0.24832
 O948 O 0.79284 0.25754 0.25487
 C949 C 0.79609 0.24633 0.27212
 O950 O 0.73772 0.20894 0.30126
 O951 O 0.68991 0.28675 0.28866
 O952 O 0.74598 0.24606 0.30780
 O953 O 0.72598 0.27779 0.30320
 O954 O 0.66644 0.24482 0.27852
 O955 O 0.68881 0.21213 0.28701
 C956 C 0.73650 0.26395 0.31504
 H957 H 0.68122 0.27200 0.25161
 H958 H 0.72185 0.19970 0.26144
 H959 H 0.76103 0.27214 0.27887
 H960 H 0.74780 0.25102 0.20115
 H961 H 0.66514 0.19888 0.25303
 H962 H 0.72827 0.17906 0.20975
 H963 H 0.76306 0.19662 0.19794
 H964 H 0.80223 0.26003 0.21682
 H965 H 0.65296 0.23576 0.27648
 H966 H 0.69213 0.30154 0.29501
 H967 H 0.72881 0.31597 0.28814
 H968 H 0.79297 0.29562 0.24408
 H969 H 0.67351 0.20605 0.28786
 H970 H 0.75125 0.20630 0.30992
 H971 H 0.70633 0.28828 0.18455
 H972 H 0.78304 0.29113 0.20879
 Zr973 Zr 0.77796 0.73668 0.72664
 O974 O 0.76502 0.71557 0.70279
 O975 O 0.81059 0.74228 0.71459
 O976 O 0.77734 0.75279 0.69652
 O977 O 0.78894 0.69510 0.76270
 O978 O 0.75871 0.78503 0.70385
 O979 O 0.79347 0.70515 0.72742
 O980 O 0.82314 0.76853 0.73767
 O981 O 0.78247 0.77001 0.73360
 O982 O 0.79565 0.73808 0.75532
 O983 O 0.74552 0.75075 0.72883
 O984 O 0.75784 0.71994 0.74963
 Zr985 Zr 0.74815 0.77021 0.78929
 Zr986 Zr 0.75040 0.78374 0.73713
 Zr987 Zr 0.77523 0.72301 0.77850
 Zr988 Zr 0.79904 0.77126 0.76279
 O989 O 0.75825 0.69442 0.78876
 O990 O 0.80826 0.80329 0.75290
 O991 O 0.78047 0.75586 0.78742
 O992 O 0.76770 0.78679 0.76606
 O993 O 0.73003 0.76898 0.76075
 O994 O 0.74331 0.73693 0.78240
 C995 C 0.82486 0.75671 0.72040
 C996 C 0.79538 0.69128 0.74301
 C997 C 0.76945 0.77170 0.69095
 O998 O 0.76588 0.81415 0.73046
 O999 O 0.73149 0.80914 0.75213
 O1000 O 0.73035 0.80047 0.78794
 C1001 C 0.72539 0.81298 0.77191
 O1002 O 0.72025 0.71277 0.72840
 Zr1003 Zr 0.72637 0.73580 0.75349
 O1004 O 0.71576 0.76548 0.80130
 O1005 O 0.72071 0.78825 0.71962
 O1006 O 0.69952 0.74842 0.73529
 O1007 O 0.71509 0.70580 0.76695
 O1008 O 0.69980 0.74402 0.77573
 C1009 C 0.69901 0.75548 0.79340
 O1010 O 0.76041 0.79309 0.81193
 O1011 O 0.80661 0.71618 0.79233
 O1012 O 0.75228 0.75590 0.82009
 O1013 O 0.77199 0.72439 0.81228
 O1014 O 0.82841 0.75843 0.77693
 O1015 O 0.80561 0.78979 0.79112
 C1016 C 0.76250 0.73808 0.82566
 H1017 H 0.81050 0.73070 0.75398
 H1018 H 0.76955 0.80238 0.77026
 H1019 H 0.73476 0.72929 0.79396
 H1020 H 0.73788 0.74940 0.71486
 H1021 H 0.82468 0.80450 0.75448
 H1022 H 0.75561 0.82252 0.72113
 H1023 H 0.72142 0.80313 0.71323
 H1024 H 0.68593 0.74013 0.73951
 H1025 H 0.84091 0.76820 0.77268
 H1026 H 0.80544 0.70157 0.79923
 H1027 H 0.76874 0.68597 0.79781
 H1028 H 0.69859 0.70552 0.76559
 H1029 H 0.82084 0.79601 0.78995
 H1030 H 0.74821 0.79592 0.82281
 H1031 H 0.77729 0.71267 0.69200
 H1032 H 0.70421 0.70878 0.72883
 Zr1033 Zr 0.22173 0.24730 0.78433
 O1034 O 0.23400 0.22457 0.80712
 O1035 O 0.19045 0.25593 0.79834
 O1036 O 0.22779 0.26250 0.81458
 O1037 O 0.20411 0.20776 0.74846
 O1038 O 0.24975 0.29172 0.80558
 O1039 O 0.20401 0.21716 0.78423
 O1040 O 0.17761 0.28280 0.77612
 O1041 O 0.21979 0.28111 0.77813
 O1042 O 0.20214 0.25083 0.75696
 O1043 O 0.25507 0.25764 0.77962
 O1044 O 0.23819 0.22857 0.75966
 Zr1045 Zr 0.24986 0.27749 0.71971
 Zr1046 Zr 0.25278 0.29104 0.77177
 Zr1047 Zr 0.21917 0.23388 0.73205
 Zr1048 Zr 0.20115 0.28426 0.75021
 O1049 O 0.23203 0.20314 0.72089
 O1050 O 0.19599 0.31663 0.76240
 O1051 O 0.21638 0.26719 0.72391
 O1052 O 0.23353 0.29600 0.74437
 O1053 O 0.26992 0.27407 0.74683
 O1054 O 0.25192 0.24386 0.72626
 C1055 C 0.17602 0.27073 0.79311
 C1056 C 0.19962 0.20392 0.76850
 C1057 C 0.23967 0.27936 0.81941
 O1058 O 0.23998 0.32237 0.78101
 O1059 O 0.27163 0.31521 0.75555
 O1060 O 0.26944 0.30624 0.71983
 C1061 C 0.27611 0.31861 0.73538
 O1062 O 0.27617 0.21705 0.77852
 Zr1063 Zr 0.27064 0.24058 0.75388
 O1064 O 0.28112 0.26900 0.70582
 O1065 O 0.28485 0.29275 0.78548
 O1066 O 0.30005 0.24997 0.76993
 O1067 O 0.27770 0.20924 0.73991
 O1068 O 0.29595 0.24501 0.72998
 C1069 C 0.29686 0.25632 0.71245
 O1070 O 0.23777 0.30106 0.69766
 O1071 O 0.18641 0.23161 0.72000
 O1072 O 0.24322 0.26316 0.68930
 O1073 O 0.22130 0.23394 0.69806
 O1074 O 0.17020 0.27510 0.73688
 O1075 O 0.19404 0.30477 0.72347
 C1076 C 0.23188 0.24603 0.68428
 H1077 H 0.18683 0.24503 0.75914
 H1078 H 0.23262 0.31175 0.74050
 H1079 H 0.25895 0.23511 0.71432
 H1080 H 0.26392 0.25523 0.79274
 H1081 H 0.17966 0.31979 0.76240
 H1082 H 0.25179 0.32962 0.78937
 H1083 H 0.28593 0.30747 0.79232
 H1084 H 0.31232 0.23992 0.76494
 H1085 H 0.15871 0.28590 0.74210
 H1086 H 0.18535 0.21687 0.71322
 H1087 H 0.22006 0.19602 0.71261
 H1088 H 0.29413 0.20680 0.74031
 H1089 H 0.17984 0.31296 0.72640
 H1090 H 0.24941 0.30263 0.68606
 H1091 H 0.22224 0.22308 0.81863
 H1092 H 0.29173 0.21130 0.77718
 Zr1093 Zr 0.29501 0.75646 0.27644
 O1094 O 0.28402 0.77907 0.30074
 O1095 O 0.32492 0.74493 0.28982
 O1096 O 0.28644 0.74086 0.30613
 O1097 O 0.31750 0.79465 0.24125
 O1098 O 0.26149 0.71462 0.29644
 O1099 O 0.31367 0.78617 0.27701
 O1100 O 0.33526 0.71642 0.26753
 O1101 O 0.29349 0.72276 0.26935
 O1102 O 0.31569 0.75111 0.24902
 O1103 O 0.26093 0.74975 0.27150
 O1104 O 0.28210 0.77678 0.25200
 Zr1105 Zr 0.26687 0.73003 0.21109
 Zr1106 Zr 0.25991 0.71642 0.26276
 Zr1107 Zr 0.30188 0.76963 0.22426
 Zr1108 Zr 0.31323 0.71784 0.24145
 O1109 O 0.29282 0.80093 0.21222
 O1110 O 0.31418 0.68503 0.25284
 O1111 O 0.30118 0.73638 0.21551
 O1112 O 0.27998 0.70973 0.23526
 O1113 O 0.24605 0.73543 0.23838
 O1114 O 0.26834 0.76356 0.21825
 C1115 C 0.33756 0.72834 0.28458
 C1116 C 0.31975 0.79905 0.26142
 C1117 C 0.27270 0.72517 0.31052
 O1118 O 0.26849 0.68375 0.27108
 O1119 O 0.23932 0.69449 0.24597
 O1120 O 0.24482 0.70313 0.21045
 C1121 C 0.23590 0.69150 0.22568
 O1122 O 0.24542 0.79258 0.27128
 Zr1123 Zr 0.24880 0.76872 0.24613
 O1124 O 0.23618 0.74068 0.19884
 O1125 O 0.22713 0.71832 0.27652
 O1126 O 0.21769 0.76299 0.26228
 O1127 O 0.24622 0.80060 0.23266
 O1128 O 0.22403 0.76739 0.22259
 C1129 C 0.22176 0.75508 0.20585
 O1130 O 0.27745 0.70603 0.18797
 O1131 O 0.33583 0.76926 0.21357
 O1132 O 0.27604 0.74438 0.18109
 O1133 O 0.30340 0.76835 0.19027
 O1134 O 0.34566 0.72408 0.22829
 O1135 O 0.31967 0.69675 0.21442
 C1136 C 0.29129 0.75852 0.17635
 H1137 H 0.33136 0.75548 0.25144
 H1138 H 0.27941 0.69403 0.23103
 H1139 H 0.26287 0.77293 0.20641
 H1140 H 0.25178 0.75288 0.28476
 H1141 H 0.33008 0.68015 0.25279
 H1142 H 0.25547 0.67776 0.27925
 H1143 H 0.22396 0.70378 0.28296
 H1144 H 0.20706 0.77465 0.25779
 H1145 H 0.35583 0.71237 0.23350
 H1146 H 0.33870 0.78373 0.20685
 H1147 H 0.30609 0.80665 0.20423
 H1148 H 0.23019 0.80506 0.23344
 H1149 H 0.33309 0.68752 0.21706
 H1150 H 0.26613 0.70586 0.17648
 H1151 H 0.29563 0.77923 0.31197
 H1152 H 0.23079 0.80028 0.27021
 Zr1153 Zr 0.22850 0.77364 0.70918
 O1154 O 0.24149 0.79134 0.68241
 O1155 O 0.19438 0.77254 0.70274
 O1156 O 0.22390 0.75613 0.68000
 O1157 O 0.22742 0.81833 0.74369
 O1158 O 0.23795 0.72206 0.68726
 O1159 O 0.21746 0.80680 0.71017
 O1160 O 0.17938 0.75284 0.73074
 O1161 O 0.21933 0.74210 0.71913
 O1162 O 0.21451 0.77693 0.74036
 O1163 O 0.25824 0.75477 0.70755
 O1164 O 0.25349 0.78861 0.72760
 Zr1165 Zr 0.26043 0.74003 0.76916
 Zr1166 Zr 0.24914 0.72382 0.71910
 Zr1167 Zr 0.23964 0.79005 0.75905
 Zr1168 Zr 0.20662 0.74551 0.75070
 O1169 O 0.26199 0.81627 0.76384
 O1170 O 0.19124 0.71536 0.74279
 O1171 O 0.23059 0.75908 0.77099
 O1172 O 0.23545 0.72557 0.75056
 O1173 O 0.27458 0.73657 0.73799
 O1174 O 0.26926 0.77162 0.75906
 C1175 C 0.17798 0.76321 0.71272
 C1176 C 0.21878 0.82160 0.72510
 C1177 C 0.22871 0.73606 0.67467
 O1178 O 0.22778 0.69648 0.71637
 O1179 O 0.26397 0.69620 0.73308
 O1180 O 0.27296 0.70717 0.76710
 C1181 C 0.27232 0.69272 0.75171
 O1182 O 0.28840 0.78799 0.70001
 Zr1183 Zr 0.28224 0.76824 0.72771
 O1184 O 0.29468 0.74082 0.77544
 O1185 O 0.27592 0.71287 0.69856
 O1186 O 0.30454 0.75029 0.70682
 O1187 O 0.29936 0.79711 0.73671
 O1188 O 0.30981 0.75824 0.74610
 C1189 C 0.31137 0.74824 0.76430
 O1190 O 0.24828 0.72076 0.79521
 O1191 O 0.21196 0.80255 0.77754
 O1192 O 0.26174 0.75683 0.79931
 O1193 O 0.24686 0.79059 0.79199
 O1194 O 0.18273 0.76340 0.76994
 O1195 O 0.20034 0.72883 0.78029
 C1196 C 0.25516 0.77640 0.80498
 H1197 H 0.20094 0.78645 0.74103
 H1198 H 0.23157 0.71083 0.75612
 H1199 H 0.28019 0.77866 0.76860
 H1200 H 0.26438 0.75391 0.69255
 H1201 H 0.17508 0.71688 0.74662
 H1202 H 0.23525 0.68598 0.70612
 H1203 H 0.27184 0.69814 0.69308
 H1204 H 0.31956 0.75689 0.70801
 H1205 H 0.16812 0.75605 0.76850
 H1206 H 0.21615 0.81732 0.78281
 H1207 H 0.25424 0.82688 0.77377
 H1208 H 0.31537 0.79497 0.73252
 H1209 H 0.18444 0.72441 0.78116
 H1210 H 0.26132 0.71695 0.80416
 H1211 H 0.22862 0.79544 0.67335
 H1212 H 0.30476 0.78949 0.69757
 Zr1213 Zr 0.26356 0.23004 0.21577
 O1214 O 0.25642 0.20837 0.18999
 O1215 O 0.29574 0.24064 0.20682
 O1216 O 0.26168 0.24686 0.18591
 O1217 O 0.27695 0.18862 0.25131
 O1218 O 0.23687 0.27500 0.19321
 O1219 O 0.28290 0.20044 0.21673
 O1220 O 0.30341 0.26618 0.23260
 O1221 O 0.26265 0.26341 0.22442
 O1222 O 0.27831 0.23227 0.24600
 O1223 O 0.22948 0.23954 0.21604
 O1224 O 0.24447 0.20960 0.23647
 Zr1225 Zr 0.22390 0.25596 0.27738
 Zr1226 Zr 0.22872 0.27246 0.22628
 Zr1227 Zr 0.25842 0.21365 0.26700
 Zr1228 Zr 0.27640 0.26520 0.25505
 O1229 O 0.24511 0.18247 0.27466
 O1230 O 0.28177 0.29844 0.24638
 O1231 O 0.25803 0.24645 0.27754
 O1232 O 0.24307 0.27603 0.25663
 O1233 O 0.20876 0.25379 0.24726
 O1234 O 0.22467 0.22272 0.26862
 C1235 C 0.30808 0.25563 0.21494
 C1236 C 0.28520 0.18626 0.23204
 C1237 C 0.24987 0.26373 0.18038
 O1238 O 0.24145 0.30425 0.22048
 O1239 O 0.20728 0.29612 0.24119
 O1240 O 0.20426 0.28509 0.27628
 C1241 C 0.20013 0.29865 0.26087
 O1242 O 0.21134 0.19825 0.21161
 Zr1243 Zr 0.21104 0.22070 0.23809
 O1244 O 0.19089 0.24670 0.28501
 O1245 O 0.19887 0.27441 0.20861
 O1246 O 0.18438 0.22988 0.21784
 O1247 O 0.20339 0.18875 0.24942
 O1248 O 0.18174 0.22373 0.25745
 C1249 C 0.17702 0.23449 0.27495
 O1250 O 0.23024 0.27814 0.30300
 O1251 O 0.28911 0.21062 0.28319
 O1252 O 0.22725 0.24046 0.30775
 O1253 O 0.25219 0.21258 0.30050
 O1254 O 0.30533 0.25553 0.27199
 O1255 O 0.27803 0.28381 0.28416
 C1256 C 0.23951 0.22400 0.31354
 H1257 H 0.29405 0.22691 0.24568
 H1258 H 0.24277 0.29152 0.26162
 H1259 H 0.21630 0.21342 0.27903
 H1260 H 0.22301 0.23772 0.20157
 H1261 H 0.29763 0.30183 0.24924
 H1262 H 0.23073 0.31182 0.21097
 H1263 H 0.19820 0.28936 0.20235
 H1264 H 0.17222 0.21911 0.22006
 H1265 H 0.31690 0.26680 0.26924
 H1266 H 0.28966 0.19558 0.28923
 H1267 H 0.25594 0.17504 0.28417
 H1268 H 0.18751 0.18593 0.24613
 H1269 H 0.29217 0.29214 0.28419
 H1270 H 0.21668 0.27867 0.31262
 H1271 H 0.26990 0.20778 0.18027
 H1272 H 0.19634 0.19166 0.21037
 Zr1273 Zr 0.73314 0.74608 0.28036
 O1274 O 0.74598 0.72360 0.30307
 O1275 O 0.70187 0.75455 0.29467
 O1276 O 0.73866 0.76174 0.31053
 O1277 O 0.71595 0.70621 0.24466
 O1278 O 0.76024 0.79117 0.30143
 O1279 O 0.71554 0.71587 0.28036
 O1280 O 0.68880 0.78141 0.27257
 O1281 O 0.73070 0.77983 0.27411
 O1282 O 0.71334 0.74935 0.25311
 O1283 O 0.76634 0.75678 0.27540
 O1284 O 0.74978 0.72757 0.25559
 Zr1285 Zr 0.76035 0.77665 0.21558
 Zr1286 Zr 0.76347 0.79014 0.26764
 Zr1287 Zr 0.73047 0.73257 0.22813
 Zr1288 Zr 0.71184 0.78275 0.24633
 O1289 O 0.74410 0.70229 0.21661
 O1290 O 0.70629 0.81521 0.25818
 O1291 O 0.72711 0.76584 0.22004
 O1292 O 0.74398 0.79494 0.24036
 O1293 O 0.78061 0.77347 0.24257
 O1294 O 0.76308 0.74303 0.22187
 C1295 C 0.68746 0.76947 0.28965
 C1296 C 0.71125 0.70252 0.26469
 C1297 C 0.75002 0.77898 0.31530
 O1298 O 0.75052 0.82146 0.27679
 O1299 O 0.78196 0.81438 0.25128
 O1300 O 0.77944 0.80567 0.21554
 C1301 C 0.78619 0.81795 0.23111
 O1302 O 0.78781 0.71601 0.27355
 Zr1303 Zr 0.78205 0.74000 0.24940
 O1304 O 0.79200 0.76947 0.20192
 O1305 O 0.79552 0.79206 0.28135
 O1306 O 0.81123 0.74920 0.26594
 O1307 O 0.78973 0.70921 0.23456
 O1308 O 0.80767 0.74592 0.22592
 C1309 C 0.80847 0.75785 0.20875
 O1310 O 0.74783 0.80006 0.19359
 O1311 O 0.69759 0.72925 0.21663
 O1312 O 0.75329 0.76235 0.18526
 O1313 O 0.73125 0.73330 0.19419
 O1314 O 0.68082 0.77306 0.23350
 O1315 O 0.70428 0.80286 0.21942
 C1316 C 0.74130 0.74563 0.18029
 H1317 H 0.69812 0.74339 0.25543
 H1318 H 0.74284 0.81068 0.23652
 H1319 H 0.77019 0.73464 0.20972
 H1320 H 0.77521 0.75454 0.28854
 H1321 H 0.68993 0.81817 0.25814
 H1322 H 0.76234 0.82887 0.28500
 H1323 H 0.79656 0.80685 0.28805
 H1324 H 0.82363 0.73935 0.26082
 H1325 H 0.66927 0.78377 0.23877
 H1326 H 0.69687 0.71453 0.20974
 H1327 H 0.73225 0.69497 0.20835
 H1328 H 0.80622 0.70718 0.23476
 H1329 H 0.68991 0.81077 0.22227
 H1330 H 0.75937 0.80178 0.18192
 H1331 H 0.73433 0.72198 0.31465
 H1332 H 0.80328 0.71008 0.27183
 Zr1333 Zr 0.79072 0.25031 0.77329
 O1334 O 0.77752 0.27310 0.79642
 O1335 O 0.82144 0.24155 0.78707
 O1336 O 0.78388 0.23528 0.80362
 O1337 O 0.80824 0.29023 0.73725
 O1338 O 0.76290 0.20551 0.79486
 O1339 O 0.80792 0.28078 0.77291
 O1340 O 0.83517 0.21475 0.76434
 O1341 O 0.79337 0.21651 0.76681
 O1342 O 0.81124 0.24694 0.74553
 O1343 O 0.75766 0.23943 0.76912
 O1344 O 0.77461 0.26851 0.74898
 Zr1345 Zr 0.76511 0.21907 0.70913
 Zr1346 Zr 0.76078 0.20598 0.76115
 Zr1347 Zr 0.79461 0.26342 0.72097
 Zr1348 Zr 0.81294 0.21346 0.73851
 O1349 O 0.78146 0.29368 0.70985
 O1350 O 0.81844 0.18101 0.74974
 O1351 O 0.79823 0.23008 0.71263
 O1352 O 0.78096 0.20103 0.73337
 O1353 O 0.74414 0.22242 0.73660
 O1354 O 0.76219 0.25275 0.71571
 C1355 C 0.83591 0.22649 0.78168
 C1356 C 0.81217 0.29421 0.75723
 C1357 C 0.77229 0.21816 0.80855
 O1358 O 0.77387 0.17490 0.76988
 O1359 O 0.74259 0.18151 0.74529
 O1360 O 0.74578 0.19015 0.70956
 C1361 C 0.73862 0.17796 0.72521
 O1362 O 0.73593 0.27988 0.76828
 Zr1363 Zr 0.74252 0.25596 0.74367
 O1364 O 0.73409 0.22655 0.69589
 O1365 O 0.72839 0.20393 0.77565
 O1366 O 0.71289 0.24649 0.76059
 O1367 O 0.73521 0.28683 0.72954
 O1368 O 0.71777 0.25025 0.72045
 C1369 C 0.71761 0.23855 0.70300
 O1370 O 0.77830 0.19541 0.68687
 O1371 O 0.82779 0.26635 0.70863
 O1372 O 0.77246 0.23315 0.67870
 O1373 O 0.79383 0.26271 0.68694
 O1374 O 0.84432 0.22326 0.72522
 O1375 O 0.82122 0.19340 0.71115
 C1376 C 0.78387 0.25024 0.67337
 H1377 H 0.82636 0.25300 0.74759
 H1378 H 0.78221 0.18527 0.72940
 H1379 H 0.75532 0.26114 0.70386
 H1380 H 0.74839 0.24182 0.78244
 H1381 H 0.83482 0.17812 0.74918
 H1382 H 0.76194 0.16748 0.77840
 H1383 H 0.72732 0.18923 0.78241
 H1384 H 0.70057 0.25623 0.75580
 H1385 H 0.85574 0.21256 0.73011
 H1386 H 0.82872 0.28099 0.70176
 H1387 H 0.79356 0.30090 0.70134
 H1388 H 0.71871 0.28887 0.73016
 H1389 H 0.83566 0.18568 0.71344
 H1390 H 0.76704 0.19350 0.67549
 H1391 H 0.78890 0.27480 0.80772
 H1392 H 0.72039 0.28554 0.76711
 C1393 C 0.41888 1.01396 0.31983
 C1394 C 0.42738 1.01482 0.34089
 C1395 C 0.41473 1.02550 0.35755
 C1396 C 0.39396 1.03497 0.35312
 C1397 C 0.38577 1.03431 0.33227
 C1398 C 0.39810 1.02413 0.31508
 C1399 C 0.42296 1.02664 0.37849
 C1400 C 0.44379 1.01729 0.38315
 C1401 C 0.45669 1.00662 0.36668
 C1402 C 0.44840 1.00545 0.34557
 C1403 C 0.47753 0.99725 0.37176
 C1404 C 0.48527 0.99818 0.39300
 C1405 C 0.47233 1.00858 0.40949
 C1406 C 0.45169 1.01831 0.40422
 H1407 H 0.42907 1.00633 0.30707
 H1408 H 0.38394 1.04291 0.36583
 H1409 H 0.36923 1.04124 0.33001
 H1410 H 0.41310 1.03482 0.39121
 H1411 H 0.45825 0.99726 0.33287
 H1412 H 0.48772 0.98899 0.35938
 H1413 H 0.50119 0.99047 0.39656
 H1414 H 0.44142 1.02646 0.41662
 C1415 C -0.08193 0.50774 0.81974
 C1416 C -0.07309 0.50813 0.84073
 C1417 C -0.08580 0.51791 0.85790
 C1418 C -0.10692 0.52692 0.85407
 C1419 C -0.11529 0.52699 0.83330
 C1420 C -0.10290 0.51784 0.81560
 C1421 C -0.07718 0.51887 0.87870
 C1422 C -0.05576 0.51054 0.88270
 C1423 C -0.04280 0.50074 0.86577
 C1424 C -0.05161 0.49945 0.84484
 C1425 C -0.02124 0.49259 0.87016
 C1426 C -0.01270 0.49423 0.89108
 C1427 C -0.02557 0.50402 0.90799
 C1428 C -0.04715 0.51208 0.90350
 H1429 H -0.07184 0.50076 0.80656
 H1430 H -0.11697 0.53416 0.86716
 H1431 H -0.13196 0.53377 0.83137
 H1432 H -0.08707 0.52642 0.89177
 H1433 H -0.04167 0.49200 0.83177
 H1434 H -0.01099 0.48500 0.85743
 H1435 H 0.00394 0.48779 0.89401
 H1436 H -0.05743 0.51969 0.91622
 C1437 C 0.07937 -0.01769 0.81898
 C1438 C 0.06994 -0.02025 0.83987
 C1439 C 0.08380 -0.02695 0.85693
 C1440 C 0.10672 -0.03061 0.85302
 C1441 C 0.11590 -0.02807 0.83230
 C1442 C 0.10236 -0.02190 0.81504
 C1443 C 0.07460 -0.02997 0.87767
 C1444 C 0.05172 -0.02625 0.88177
 C1445 C 0.03774 -0.01931 0.86496
 C1446 C 0.04694 -0.01644 0.84402
 C1447 C 0.01489 -0.01524 0.86953
 C1448 C 0.00610 -0.01780 0.89060
 C1449 C 0.01997 -0.02480 0.90733
 C1450 C 0.04275 -0.02914 0.90262
 H1451 H 0.06881 -0.01297 0.80574
 H1452 H 0.11755 -0.03555 0.86597
 H1453 H 0.13371 -0.03096 0.82975
 H1454 H 0.08529 -0.03517 0.89068
 H1455 H 0.03626 -0.01122 0.83103
 H1456 H 0.00388 -0.00984 0.85690
 H1457 H -0.01149 -0.01424 0.89380
 H1458 H 0.05380 -0.03426 0.91534
 C1459 C 0.58205 0.48946 0.32401
 C1460 C 0.57309 0.48741 0.34514
 C1461 C 0.58765 0.48325 0.36242
 C1462 C 0.61079 0.48162 0.35844
 C1463 C 0.61947 0.48329 0.33742
 C1464 C 0.60522 0.48688 0.32004
 C1465 C 0.57888 0.48032 0.38336
 C1466 C 0.55572 0.48137 0.38737
 C1467 C 0.54106 0.48584 0.37031
 C1468 C 0.54985 0.48885 0.34925
 C1469 C 0.51789 0.48717 0.37469
 C1470 C 0.50938 0.48419 0.39578
 C1471 C 0.52389 0.47953 0.41276
 C1472 C 0.54707 0.47808 0.40831
 H1473 H 0.57101 0.49204 0.31058
 H1474 H 0.62215 0.47852 0.37151
 H1475 H 0.63737 0.48135 0.33460
 H1476 H 0.59009 0.47699 0.39653
 H1477 H 0.53863 0.49208 0.33608
 H1478 H 0.50636 0.49065 0.36186
 H1479 H 0.49147 0.48555 0.39880
 H1480 H 0.55854 0.47486 0.42127
 C1481 C 0.58005 0.52244 0.18662
 C1482 C 0.57185 0.52024 0.16554
 C1483 C 0.58541 0.52677 0.14767
 C1484 C 0.60684 0.53499 0.15099
 C1485 C 0.61474 0.53725 0.17185
 C1486 C 0.60141 0.53134 0.18989
 C1487 C 0.57731 0.52534 0.12671
 C1488 C 0.55567 0.51771 0.12322
 C1489 C 0.54206 0.51079 0.14082
 C1490 C 0.55028 0.51200 0.16195
 C1491 C 0.52037 0.50315 0.13686
 C1492 C 0.51211 0.50302 0.11578
 C1493 C 0.52542 0.51059 0.09836
 C1494 C 0.54737 0.51745 0.10230
 H1495 H 0.56967 0.51780 0.20043
 H1496 H 0.61745 0.53988 0.13743
 H1497 H 0.63143 0.54360 0.17389
 H1498 H 0.58771 0.53057 0.11311
 H1499 H 0.53982 0.50690 0.17555
 H1500 H 0.50967 0.49764 0.15010
 H1501 H 0.49518 0.49759 0.11319
 H1502 H 0.55803 0.52300 0.08903
 C1503 C 0.07727 1.01920 0.68649
 C1504 C 0.06848 1.01774 0.66556
 C1505 C 0.07761 1.03093 0.64890
 C1506 C 0.09509 1.04519 0.65318
 C1507 C 0.10363 1.04662 0.67381
 C1508 C 0.09492 1.03386 0.69103
 C1509 C 0.06925 1.02974 0.62807
 C1510 C 0.05168 1.01562 0.62348
 C1511 C 0.04221 1.00236 0.63984
 C1512 C 0.05072 1.00346 0.66091
 C1513 C 0.02444 0.98838 0.63467
 C1514 C 0.01621 0.98771 0.61353
 C1515 C 0.02570 1.00097 0.59725
 C1516 C 0.04350 1.01480 0.60258
 H1517 H 0.06972 1.00945 0.69925
 H1518 H 0.10240 1.05515 0.64043
 H1519 H 0.11792 1.05714 0.67572
 H1520 H 0.07641 1.03992 0.61538
 H1521 H 0.04355 0.99330 0.67359
 H1522 H 0.01688 0.97803 0.64697
 H1523 H 0.00249 0.97690 0.60995
 H1524 H 0.05117 1.02525 0.59043
 C1525 C -0.07933 0.48670 0.67737
 C1526 C -0.07250 0.48904 0.65550
 C1527 C -0.08670 0.48177 0.63900
 C1528 C -0.10751 0.47273 0.64446
 C1529 C -0.11405 0.47033 0.66608
 C1530 C -0.09998 0.47690 0.68277
 C1531 C -0.07982 0.48327 0.61724
 C1532 C -0.05879 0.49178 0.61162
 C1533 C -0.04463 0.49945 0.62793
 C1534 C -0.05160 0.49811 0.64981
 C1535 C -0.02363 0.50803 0.62201
 C1536 C -0.01656 0.50853 0.60022
 C1537 C -0.03034 0.50042 0.58393
 C1538 C -0.05161 0.49235 0.58986
 H1539 H -0.06838 0.49185 0.69012
 H1540 H -0.11864 0.46726 0.63200
 H1541 H -0.13023 0.46321 0.66979
 H1542 H -0.09070 0.47747 0.60469
 H1543 H -0.04065 0.50378 0.66236
 H1544 H -0.01254 0.51408 0.63425
 H1545 H -0.00012 0.51486 0.59618
 H1546 H -0.06258 0.48619 0.57756
 C1547 C 0.42416 -0.00838 0.17721
 C1548 C 0.43067 -0.00586 0.15533
 C1549 C 0.41583 -0.01217 0.13896
 C1550 C 0.39469 -0.02032 0.14458
 C1551 C 0.38848 -0.02296 0.16623
 C1552 C 0.40324 -0.01747 0.18271
 C1553 C 0.42245 -0.01070 0.11718
 C1554 C 0.44380 -0.00317 0.11141
 C1555 C 0.45857 0.00366 0.12756
 C1556 C 0.45189 0.00233 0.14949
 C1557 C 0.47985 0.01143 0.12143
 C1558 C 0.48651 0.01202 0.09955
 C1559 C 0.47207 0.00466 0.08349
 C1560 C 0.45063 -0.00268 0.08962
 H1561 H 0.43559 -0.00409 0.18987
 H1562 H 0.38309 -0.02504 0.13222
 H1563 H 0.37213 -0.02960 0.17014
 H1564 H 0.41110 -0.01581 0.10472
 H1565 H 0.46330 0.00728 0.16195
 H1566 H 0.49139 0.01686 0.13355
 H1567 H 0.50308 0.01784 0.09523
 H1568 H 0.43917 -0.00808 0.07740
 C1569 C 0.33778 0.39506 0.02709
 C1570 C 0.35400 0.41156 0.02542
 C1571 C 0.34844 0.43189 0.01590
 C1572 C 0.32657 0.43565 0.00897
 C1573 C 0.31029 0.41948 0.01146
 C1574 C 0.31562 0.39884 0.02035
 C1575 C 0.36476 0.44818 0.01357
 C1576 C 0.38643 0.44465 0.02126
 C1577 C 0.39176 0.42467 0.03163
 C1578 C 0.37562 0.40811 0.03332
 C1579 C 0.41316 0.42162 0.04013
 C1580 C 0.42924 0.43806 0.03808
 C1581 C 0.42437 0.45759 0.02707
 C1582 C 0.40288 0.46081 0.01876
 H1583 H 0.34260 0.37925 0.03357
 H1584 H 0.32193 0.45127 0.00191
 H1585 H 0.29342 0.42342 0.00667
 H1586 H 0.36056 0.46364 0.00594
 H1587 H 0.37982 0.39266 0.04097
 H1588 H 0.41749 0.40649 0.04829
 H1589 H 0.44573 0.43525 0.04451
 H1590 H 0.39895 0.47597 0.01044
 C1591 C -0.16779 0.89116 0.53098
 C1592 C -0.14797 0.90255 0.52590
 C1593 C -0.14207 0.90676 0.50411
 C1594 C -0.15567 0.89885 0.48776
 C1595 C -0.17523 0.88736 0.49286
 C1596 C -0.18210 0.88356 0.51459
 C1597 C -0.12283 0.91900 0.49901
 C1598 C -0.10931 0.92705 0.51549
 C1599 C -0.11486 0.92229 0.53730
 C1600 C -0.13416 0.91016 0.54237
 C1601 C -0.10116 0.92997 0.55373
 C1602 C -0.08242 0.94270 0.54871
 C1603 C -0.07702 0.94821 0.52716
 C1604 C -0.09050 0.94004 0.51057
 H1605 H -0.17236 0.88945 0.54790
 H1606 H -0.15119 0.90156 0.47090
 H1607 H -0.18452 0.88108 0.47944
 H1608 H -0.11853 0.92245 0.48224
 H1609 H -0.13853 0.90682 0.55915
 H1610 H -0.10508 0.92636 0.57053
 H1611 H -0.07244 0.94868 0.56185
 H1612 H -0.08652 0.94395 0.49385
 C1613 C -0.17429 0.08679 0.97028
 C1614 C -0.15672 0.07254 0.97590
 C1615 C -0.15149 0.06977 0.99789
 C1616 C -0.16405 0.08121 1.01387
 C1617 C -0.18135 0.09558 1.00812
 C1618 C -0.18657 0.09868 0.98628
 C1619 C -0.13362 0.05585 1.00351
 C1620 C -0.12072 0.04490 0.98738
 C1621 C -0.12603 0.04768 0.96539
 C1622 C -0.14407 0.06132 0.95981
 C1623 C -0.11299 0.03701 0.94928
 C1624 C -0.09464 0.02396 0.95480
 C1625 C -0.08900 0.02110 0.97658
 C1626 C -0.10235 0.03151 0.99283
 H1627 H -0.17834 0.08869 0.95340
 H1628 H -0.16026 0.07934 1.03081
 H1629 H -0.19028 0.10469 1.02079
 H1630 H -0.12957 0.05380 1.02038
 H1631 H -0.14804 0.06348 0.94293
 H1632 H -0.11683 0.03896 0.93236
 H1633 H -0.08478 0.01615 0.94192
 H1634 H -0.09818 0.02960 1.00968
 C1635 C 0.32767 0.58739 0.46990
 C1636 C 0.34518 0.57336 0.47618
 C1637 C 0.34999 0.57115 0.49834
 C1638 C 0.33709 0.58290 0.51384
 C1639 C 0.31980 0.59693 0.50745
 C1640 C 0.31495 0.59943 0.48545
 C1641 C 0.36775 0.55746 0.50463
 C1642 C 0.38094 0.54611 0.48901
 C1643 C 0.37604 0.54827 0.46686
 C1644 C 0.35813 0.56175 0.46060
 C1645 C 0.38936 0.53716 0.45126
 C1646 C 0.40763 0.52434 0.45745
 C1647 C 0.41290 0.52219 0.47941
 C1648 C 0.39923 0.53297 0.49515
 H1649 H 0.32394 0.58891 0.45291
 H1650 H 0.34056 0.58147 0.53089
 H1651 H 0.31051 0.60622 0.51976
 H1652 H 0.37148 0.55587 0.52163
 H1653 H 0.35448 0.56344 0.44359
 H1654 H 0.38583 0.53860 0.43422
 H1655 H 0.41775 0.51623 0.44495
 H1656 H 0.40311 0.53160 0.51212
 C1657 C 0.16580 0.60676 0.51793
 C1658 C 0.14628 0.59529 0.51296
 C1659 C 0.13989 0.59325 0.49121
 C1660 C 0.15279 0.60330 0.47488
 C1661 C 0.17205 0.61495 0.47999
 C1662 C 0.17898 0.61663 0.50152
 C1663 C 0.12086 0.58103 0.48613
 C1664 C 0.10802 0.57100 0.50259
 C1665 C 0.11409 0.57364 0.52440
 C1666 C 0.13322 0.58564 0.52943
 C1667 C 0.10100 0.56407 0.54086
 C1668 C 0.08228 0.55167 0.53580
 C1669 C 0.07638 0.54834 0.51416
 C1670 C 0.08931 0.55824 0.49761
 H1671 H 0.17099 0.60742 0.53457
 H1672 H 0.14803 0.60209 0.45812
 H1673 H 0.18151 0.62265 0.46701
 H1674 H 0.11613 0.57922 0.46940
 H1675 H 0.13800 0.58738 0.54616
 H1676 H 0.10533 0.56605 0.55766
 H1677 H 0.07267 0.54429 0.54888
 H1678 H 0.08483 0.55603 0.48086
 C1679 C 0.66235 0.11573 0.01795
 C1680 C 0.64223 0.10573 0.01219
 C1681 C 0.63658 0.10413 -0.00980
 C1682 C 0.65079 0.11339 -0.02559
 C1683 C 0.67066 0.12358 -0.01971
 C1684 C 0.67696 0.12456 0.00208
 C1685 C 0.61702 0.09306 -0.01565
 C1686 C 0.60297 0.08370 0.00030
 C1687 C 0.60831 0.08607 0.02234
 C1688 C 0.62789 0.09694 0.02813
 C1689 C 0.59416 0.07723 0.03833
 C1690 C 0.57518 0.06561 0.03263
 C1691 C 0.56993 0.06233 0.01078
 C1692 C 0.58384 0.07173 -0.00537
 H1693 H 0.66694 0.11590 0.03479
 H1694 H 0.64663 0.11258 -0.04253
 H1695 H 0.68118 0.13060 -0.03232
 H1696 H 0.61291 0.09152 -0.03256
 H1697 H 0.63210 0.09836 0.04504
 H1698 H 0.59793 0.07904 0.05529
 H1699 H 0.56491 0.05868 0.04549
 H1700 H 0.57999 0.06951 -0.02227
 C1701 C 0.67022 0.90358 0.47495
 C1702 C 0.65094 0.91639 0.47971
 C1703 C 0.64383 0.91961 0.50148
 C1704 C 0.65605 0.90995 0.51807
 C1705 C 0.67501 0.89702 0.51320
 C1706 C 0.68235 0.89361 0.49163
 C1707 C 0.62452 0.93225 0.50633
 C1708 C 0.61202 0.94152 0.48968
 C1709 C 0.61902 0.93825 0.46790
 C1710 C 0.63852 0.92583 0.46304
 C1711 C 0.60625 0.94731 0.45133
 C1712 C 0.58666 0.95937 0.45628
 C1713 C 0.57953 0.96279 0.47790
 C1714 C 0.59247 0.95383 0.49452
 H1715 H 0.67579 0.90144 0.45826
 H1716 H 0.65076 0.91216 0.53484
 H1717 H 0.68368 0.88929 0.52637
 H1718 H 0.61910 0.93469 0.52306
 H1719 H 0.64389 0.92332 0.44632
 H1720 H 0.61133 0.94494 0.43453
 H1721 H 0.57708 0.96602 0.44313
 H1722 H 0.58720 0.95613 0.51128
 C1723 C 0.17691 0.40607 0.97432
 C1724 C 0.15878 0.42074 0.97789
 C1725 C 0.15356 0.42821 0.99912
 C1726 C 0.16651 0.42097 1.01634
 C1727 C 0.18419 0.40606 1.01272
 C1728 C 0.18955 0.39826 0.99174
 C1729 C 0.13522 0.44244 1.00290
 C1730 C 0.12169 0.44896 0.98580
 C1731 C 0.12680 0.44155 0.96455
 C1732 C 0.14549 0.42766 0.96067
 C1733 C 0.11284 0.44784 0.94764
 C1734 C 0.09376 0.46098 0.95183
 C1735 C 0.08844 0.46832 0.97296
 C1736 C 0.10277 0.46239 0.98980
 H1737 H 0.18101 0.40063 0.95797
 H1738 H 0.16266 0.42648 1.03272
 H1739 H 0.19325 0.40016 1.02651
 H1740 H 0.13120 0.44807 1.01924
 H1741 H 0.14939 0.42188 0.94437
 H1742 H 0.11648 0.44229 0.93123
 H1743 H 0.08307 0.46521 0.93855
 H1744 H 0.09893 0.46773 1.00624
 C1745 C 0.00889 0.31842 0.39855
 C1746 C 0.00544 0.33808 0.40991
 C1747 C -0.01309 0.35172 0.40510
 C1748 C -0.02816 0.34507 0.38933
 C1749 C -0.02454 0.32532 0.37802
 C1750 C -0.00575 0.31216 0.38230
 C1751 C -0.01600 0.37187 0.41592
 C1752 C -0.00054 0.37849 0.43132
 C1753 C 0.01769 0.36457 0.43643
 C1754 C 0.02052 0.34440 0.42572
 C1755 C 0.03296 0.37121 0.45196
 C1756 C 0.03046 0.39168 0.46210
 C1757 C 0.01271 0.40583 0.45674
 C1758 C -0.00287 0.39898 0.44148
 H1759 H 0.02316 0.30798 0.40220
 H1760 H -0.04253 0.35527 0.38554
 H1761 H -0.03604 0.32057 0.36560
 H1762 H -0.03006 0.38252 0.41213
 H1763 H 0.03464 0.33380 0.42942
 H1764 H 0.04696 0.36068 0.45610
 H1765 H 0.04263 0.39660 0.47383
 H1766 H -0.01681 0.40964 0.43741
 C1767 C 0.52368 -0.16449 -0.11569
 C1768 C 0.51936 -0.14450 -0.10490
 C1769 C 0.49963 -0.13237 -0.10930
 C1770 C 0.48461 -0.14044 -0.12442
 C1771 C 0.48874 -0.16067 -0.13462
 C1772 C 0.50820 -0.17284 -0.13023
 C1773 C 0.49492 -0.11270 -0.09810
 C1774 C 0.50937 -0.10530 -0.08216
 C1775 C 0.52903 -0.11745 -0.07768
 C1776 C 0.53405 -0.13684 -0.08927
 C1777 C 0.54317 -0.11017 -0.06142
 C1778 C 0.53779 -0.09113 -0.04956
 C1779 C 0.51828 -0.07890 -0.05388
 C1780 C 0.50423 -0.08608 -0.07036
 H1781 H 0.53854 -0.17408 -0.11206
 H1782 H 0.46940 -0.13139 -0.12795
 H1783 H 0.47664 -0.16700 -0.14576
 H1784 H 0.47977 -0.10343 -0.10144
 H1785 H 0.54909 -0.14621 -0.08579
 H1786 H 0.55829 -0.11929 -0.05776
 H1787 H 0.54900 -0.08593 -0.03707
 H1788 H 0.48908 -0.07690 -0.07386
 C1789 C -0.01464 -0.18621 1.11701
 C1790 C -0.01142 -0.16744 1.10442
 C1791 C 0.00674 -0.15342 1.10852
 C1792 C 0.02145 -0.15859 1.12515
 C1793 C 0.01845 -0.17774 1.13726
 C1794 C 0.00040 -0.19162 1.13324
 C1795 C 0.01011 -0.13477 1.09564
 C1796 C -0.00413 -0.13033 1.07842
 C1797 C -0.02208 -0.14460 1.07425
 C1798 C -0.02576 -0.16289 1.08741
 C1799 C -0.03601 -0.14048 1.05685
 C1800 C -0.03231 -0.12235 1.04365
 C1801 C -0.01470 -0.10785 1.04768
 C1802 C -0.00064 -0.11196 1.06518
 H1803 H -0.02833 -0.19717 1.11360
 H1804 H 0.03551 -0.14811 1.12848
 H1805 H 0.03028 -0.18182 1.14965
 H1806 H 0.02400 -0.12396 1.09877
 H1807 H -0.03956 -0.17378 1.08419
 H1808 H -0.04980 -0.15129 1.05342
 H1809 H -0.04351 -0.11956 1.03041
 H1810 H 0.01302 -0.10095 1.06848
 C1811 C 0.49254 0.30771 0.60782
 C1812 C 0.49069 0.32502 0.59316
 C1813 C 0.47137 0.32710 0.58050
 C1814 C 0.45435 0.31154 0.58252
 C1815 C 0.45622 0.29445 0.59734
 C1816 C 0.47520 0.29256 0.61026
 C1817 C 0.46918 0.34493 0.56641
 C1818 C 0.48588 0.36091 0.56519
 C1819 C 0.50527 0.35860 0.57776
 C1820 C 0.50765 0.34058 0.59146
 C1821 C 0.52182 0.37463 0.57685
 C1822 C 0.51893 0.39314 0.56411
 C1823 C 0.49957 0.39589 0.55185
 C1824 C 0.48327 0.37947 0.55207
 H1825 H 0.50711 0.30646 0.61788
 H1826 H 0.43947 0.31278 0.57290
 H1827 H 0.44279 0.28270 0.59877
 H1828 H 0.45429 0.34664 0.55683
 H1829 H 0.52245 0.33897 0.60120
 H1830 H 0.53681 0.37305 0.58627
 H1831 H 0.53194 0.40542 0.56391
 H1832 H 0.46831 0.38149 0.54266
 C1833 C 0.51794 1.16605 0.61687
 C1834 C 0.51692 1.14876 0.60195
 C1835 C 0.53531 1.14444 0.58764
 C1836 C 0.55456 1.15732 0.58880
 C1837 C 0.55532 1.17475 0.60356
 C1838 C 0.53689 1.17946 0.61746
 C1839 C 0.53402 1.12753 0.57226
 C1840 C 0.51456 1.11495 0.57102
 C1841 C 0.49629 1.11915 0.58552
 C1842 C 0.49759 1.13602 0.60089
 C1843 C 0.47700 1.10635 0.58445
 C1844 C 0.47591 1.08932 0.56933
 C1845 C 0.49397 1.08502 0.55486
 C1846 C 0.51318 1.09806 0.55565
 H1847 H 0.50380 1.16934 0.62779
 H1848 H 0.56881 1.15423 0.57798
 H1849 H 0.57002 1.18500 0.60359
 H1850 H 0.54807 1.12425 0.56121
 H1851 H 0.48352 1.13934 0.61191
 H1852 H 0.46286 1.10935 0.59543
 H1853 H 0.46094 1.07946 0.56898
 H1854 H 0.52731 1.09465 0.54474
 C1855 C 0.01998 0.68145 1.09795
 C1856 C 0.01818 0.66535 1.08179
 C1857 C 0.03663 0.66078 1.06763
 C1858 C 0.05640 0.67258 1.06961
 C1859 C 0.05842 0.68783 1.08629
 C1860 C 0.04047 0.69214 1.10107
 C1861 C 0.03546 0.64374 1.05242
 C1862 C 0.01657 0.63038 1.05203
 C1863 C -0.00197 0.63498 1.06610
 C1864 C -0.00129 0.65281 1.08048
 C1865 C -0.02043 0.62098 1.06630
 C1866 C -0.02000 0.60200 1.05352
 C1867 C -0.00140 0.59707 1.03991
 C1868 C 0.01651 0.61173 1.03868
 H1869 H 0.00601 0.68409 1.10923
 H1870 H 0.07061 0.66946 1.05873
 H1871 H 0.07411 0.69648 1.08737
 H1872 H 0.04975 0.64010 1.04175
 H1873 H -0.01539 0.65616 1.09146
 H1874 H -0.03479 0.62424 1.07695
 H1875 H -0.03408 0.59096 1.05453
 H1876 H 0.03099 0.60790 1.02835
 C1877 C 0.46532 0.69057 -0.08608
 C1878 C 0.47156 0.67303 -0.07287
 C1879 C 0.49360 0.66439 -0.07445
 C1880 C 0.50923 0.67391 -0.08864
 C1881 C 0.50300 0.69155 -0.10157
 C1882 C 0.48083 0.69994 -0.10085
 C1883 C 0.49959 0.64615 -0.06210
 C1884 C 0.48379 0.63645 -0.04816
 C1885 C 0.46196 0.64556 -0.04589
 C1886 C 0.45598 0.66384 -0.05826
 C1887 C 0.44636 0.63590 -0.03165
 C1888 C 0.45209 0.61687 -0.02038
 C1889 C 0.47343 0.60721 -0.02333
 C1890 C 0.48935 0.61741 -0.03686
 H1891 H 0.44846 0.69723 -0.08431
 H1892 H 0.52621 0.66747 -0.09003
 H1893 H 0.51543 0.69769 -0.11296
 H1894 H 0.51641 0.63926 -0.06363
 H1895 H 0.43911 0.67062 -0.05685
 H1896 H 0.42960 0.64275 -0.02960
 H1897 H 0.43957 0.60926 -0.01001
 H1898 H 0.50599 0.61023 -0.03899
 C1899 C -0.04105 1.17232 0.40606
 C1900 C -0.03365 1.15522 0.41924
 C1901 C -0.01149 1.14702 0.41666
 C1902 C 0.00304 1.15638 0.40133
 C1903 C -0.00419 1.17388 0.38875
 C1904 C -0.02636 1.18210 0.39083
 C1905 C -0.00416 1.12966 0.42952
 C1906 C -0.01860 1.12067 0.44519
 C1907 C -0.04054 1.12931 0.44830
 C1908 C -0.04799 1.14645 0.43519
 C1909 C -0.05472 1.12044 0.46431
 C1910 C -0.04749 1.10268 0.47663
 C1911 C -0.02601 1.09347 0.47301
 C1912 C -0.01151 1.10287 0.45754
 H1913 H -0.05792 1.17876 0.40860
 H1914 H 0.02007 1.15025 0.39913
 H1915 H 0.00748 1.18045 0.37685
 H1916 H 0.01275 1.12315 0.42732
 H1917 H -0.06491 1.15293 0.43737
 H1918 H -0.07154 1.12696 0.46701
 H1919 H -0.05900 1.09563 0.48840
 H1920 H 0.00517 1.09601 0.45476
 C1921 C 0.77417 0.68188 0.93975
 C1922 C 0.77537 0.69081 0.91881
 C1923 C 0.78905 0.68042 0.90275
 C1924 C 0.80128 0.66153 0.90772
 C1925 C 0.79970 0.65251 0.92829
 C1926 C 0.78607 0.66232 0.94484
 C1927 C 0.78994 0.68871 0.88174
 C1928 C 0.77697 0.70706 0.87633
 C1929 C 0.76337 0.71778 0.89224
 C1930 C 0.76283 0.70971 0.91353
 C1931 C 0.75027 0.73605 0.88636
 C1932 C 0.75022 0.74317 0.86482
 C1933 C 0.76337 0.73218 0.84886
 C1934 C 0.77703 0.71440 0.85499
 H1935 H 0.76416 0.69053 0.95196
 H1936 H 0.81164 0.65327 0.89545
 H1937 H 0.80839 0.63704 0.93047
 H1938 H 0.80034 0.68052 0.86943
 H1939 H 0.75228 0.71779 0.92578
 H1940 H 0.73975 0.74455 0.89832
 H1941 H 0.73956 0.75694 0.86058
 H1942 H 0.78748 0.70582 0.84301
 C1943 C 0.25537 0.17203 0.42955
 C1944 C 0.25373 0.17864 0.40781
 C1945 C 0.26437 0.16589 0.39129
 C1946 C 0.27620 0.14683 0.39655
 C1947 C 0.27780 0.14038 0.41799
 C1948 C 0.26772 0.15287 0.43507
 C1949 C 0.26313 0.17232 0.36968
 C1950 C 0.25145 0.19148 0.36420
 C1951 C 0.24061 0.20435 0.38049
 C1952 C 0.24179 0.19784 0.40227
 C1953 C 0.22891 0.22352 0.37462
 C1954 C 0.22823 0.22993 0.35287
 C1955 C 0.23926 0.21730 0.33662
 C1956 C 0.25068 0.19797 0.34256
 H1957 H 0.24774 0.18239 0.44204
 H1958 H 0.28413 0.13671 0.38399
 H1959 H 0.28626 0.12489 0.42081
 H1960 H 0.27141 0.16246 0.35710
 H1961 H 0.23355 0.20773 0.41483
 H1962 H 0.22042 0.23361 0.38684
 H1963 H 0.21928 0.24487 0.34882
 H1964 H 0.25918 0.18788 0.33032
 C1965 C 0.72786 0.31216 0.43457
 C1966 C 0.72684 0.30540 0.41276
 C1967 C 0.71358 0.31759 0.39836
 C1968 C 0.70153 0.33609 0.40586
 C1969 C 0.70288 0.34286 0.42735
 C1970 C 0.71605 0.33113 0.44203
 C1971 C 0.71282 0.31139 0.37655
 C1972 C 0.72530 0.29324 0.36875
 C1973 C 0.73849 0.28083 0.38298
 C1974 C 0.73913 0.28693 0.40498
 C1975 C 0.75090 0.26267 0.37484
 C1976 C 0.75032 0.25699 0.35281
 C1977 C 0.73737 0.26941 0.33851
 C1978 C 0.72483 0.28749 0.34680
 H1979 H 0.73799 0.30282 0.44562
 H1980 H 0.69141 0.34566 0.39496
 H1981 H 0.69412 0.35783 0.43223
 H1982 H 0.70269 0.32089 0.36556
 H1983 H 0.74934 0.27751 0.41593
 H1984 H 0.76111 0.25291 0.38548
 H1985 H 0.76011 0.24298 0.34697
 H1986 H 0.71459 0.29724 0.33615
 C1987 C 0.24587 0.83271 0.92085
 C1988 C 0.24699 0.82552 0.89913
 C1989 C 0.23722 0.83862 0.88301
 C1990 C 0.22660 0.85848 0.88867
 C1991 C 0.22513 0.86527 0.91018
 C1992 C 0.23446 0.85251 0.92679
 C1993 C 0.23788 0.83161 0.86144
 C1994 C 0.24776 0.81137 0.85566
 C1995 C 0.25752 0.79803 0.87155
 C1996 C 0.25726 0.80528 0.89324
 C1997 C 0.26706 0.77760 0.86538
 C1998 C 0.26660 0.77042 0.84375
 C1999 C 0.25675 0.78363 0.82791
 C2000 C 0.24758 0.80422 0.83415
 H2001 H 0.25284 0.82220 0.93312
 H2002 H 0.21928 0.86880 0.87641
 H2003 H 0.21725 0.88107 0.91353
 H2004 H 0.23032 0.84176 0.84916
 H2005 H 0.26469 0.79506 0.90553
 H2006 H 0.27466 0.76709 0.87730
 H2007 H 0.27383 0.75452 0.83947
 H2008 H 0.23982 0.81471 0.82229
 C2009 C 0.29200 0.81651 0.06297
 C2010 C 0.28821 0.80398 0.08172
 C2011 C 0.26610 0.80028 0.08930
 C2012 C 0.24816 0.80896 0.07786
 C2013 C 0.25200 0.82171 0.05944
 C2014 C 0.27400 0.82607 0.05165
 C2015 C 0.26227 0.78847 0.10848
 C2016 C 0.28036 0.78082 0.12054
 C2017 C 0.30253 0.78438 0.11284
 C2018 C 0.30629 0.79556 0.09332
 C2019 C 0.32062 0.77749 0.12524
 C2020 C 0.31683 0.76816 0.14555
 C2021 C 0.29492 0.76490 0.15356
 C2022 C 0.27670 0.77065 0.14070
 H2023 H 0.30912 0.81834 0.05719
 H2024 H 0.23106 0.80642 0.08351
 H2025 H 0.23743 0.82902 0.05221
 H2026 H 0.24525 0.78588 0.11437
 H2027 H 0.32332 0.79842 0.08758
 H2028 H 0.33770 0.78010 0.11961
 H2029 H 0.33107 0.76393 0.15530
 H2030 H 0.25975 0.76856 0.14700
 C2031 C 0.78500 0.31028 0.56020
 C2032 C 0.78760 0.30156 0.58106
 C2033 C 0.79774 0.31441 0.59717
 C2034 C 0.80506 0.33560 0.59228
 C2035 C 0.80226 0.34417 0.57168
 C2036 C 0.79233 0.33167 0.55535
 C2037 C 0.80011 0.30609 0.61805
 C2038 C 0.79214 0.28518 0.62328
 C2039 C 0.78205 0.27218 0.60730
 C2040 C 0.78000 0.28038 0.58620
 C2041 C 0.77379 0.25141 0.61288
 C2042 C 0.77494 0.24390 0.63420
 C2043 C 0.78462 0.25691 0.65029
 C2044 C 0.79358 0.27739 0.64448
 H2045 H 0.77735 0.30044 0.54778
 H2046 H 0.81269 0.34570 0.60450
 H2047 H 0.80752 0.36087 0.56868
 H2048 H 0.80778 0.31608 0.63037
 H2049 H 0.77217 0.27046 0.57394
 H2050 H 0.76601 0.24117 0.60087
 H2051 H 0.76786 0.22807 0.63815
 H2052 H 0.80100 0.28774 0.65664
 C2053 C 0.22845 0.18452 0.57107
 C2054 C 0.22862 0.19277 0.59244
 C2055 C 0.22287 0.17874 0.60984
 C2056 C 0.21755 0.15679 0.60580
 C2057 C 0.21725 0.14884 0.58467
 C2058 C 0.22227 0.16261 0.56711
 C2059 C 0.22222 0.18683 0.63106
 C2060 C 0.22726 0.20881 0.63531
 C2061 C 0.23342 0.22292 0.61817
 C2062 C 0.23403 0.21482 0.59676
 C2063 C 0.23888 0.24483 0.62285
 C2064 C 0.23827 0.25258 0.64429
 C2065 C 0.23185 0.23865 0.66135
 C2066 C 0.22633 0.21678 0.65659
 H2067 H 0.23235 0.19522 0.55758
 H2068 H 0.21330 0.14582 0.61898
 H2069 H 0.21282 0.13183 0.58200
 H2070 H 0.21764 0.17601 0.64430
 H2071 H 0.23855 0.22564 0.58354
 H2072 H 0.24375 0.25591 0.60998
 H2073 H 0.24276 0.26946 0.64750
 H2074 H 0.22172 0.20566 0.66955
 C2075 C 0.72634 0.68842 0.06646
 C2076 C 0.72561 0.69745 0.08747
 C2077 C 0.71254 0.68725 0.10384
 C2078 C 0.70030 0.66845 0.09898
 C2079 C 0.70133 0.65945 0.07819
 C2080 C 0.71440 0.66919 0.06171
 C2081 C 0.71226 0.69567 0.12497
 C2082 C 0.72517 0.71397 0.13011
 C2083 C 0.73808 0.72442 0.11382
 C2084 C 0.73808 0.71619 0.09251
 C2085 C 0.75109 0.74262 0.11928
 C2086 C 0.75178 0.74999 0.14077
 C2087 C 0.73936 0.73935 0.15716
 C2088 C 0.72576 0.72157 0.15150
 H2089 H 0.73633 0.69622 0.05389
 H2090 H 0.69029 0.66040 0.11138
 H2091 H 0.69236 0.64441 0.07522
 H2092 H 0.70236 0.68767 0.13752
 H2093 H 0.74813 0.72407 0.08001
 H2094 H 0.76107 0.75090 0.10701
 H2095 H 0.76238 0.76372 0.14460
 H2096 H 0.71597 0.71317 0.16384
 C2097 C 0.16267 0.58447 0.21311
 C2098 C 0.17346 0.60418 0.21840
 C2099 C 0.17299 0.61176 0.24005
 C2100 C 0.16117 0.59991 0.25588
 C2101 C 0.15028 0.58049 0.25047
 C2102 C 0.15114 0.57227 0.22913
 C2103 C 0.18455 0.63091 0.24558
 C2104 C 0.19654 0.64267 0.22971
 C2105 C 0.19644 0.63548 0.20794
 C2106 C 0.18496 0.61627 0.20242
 C2107 C 0.20812 0.64747 0.19208
 C2108 C 0.22033 0.66602 0.19777
 C2109 C 0.22125 0.67295 0.21948
 C2110 C 0.20894 0.66129 0.23533
 H2111 H 0.16381 0.57839 0.19662
 H2112 H 0.16040 0.60562 0.27252
 H2113 H 0.14112 0.57192 0.26310
 H2114 H 0.18443 0.63650 0.26227
 H2115 H 0.18519 0.61061 0.18575
 H2116 H 0.20810 0.64230 0.17528
 H2117 H 0.22952 0.67462 0.18518
 H2118 H 0.20927 0.66648 0.25212
 C2119 C 0.66229 0.07266 0.71647
 C2120 C 0.67544 0.09092 0.72143
 C2121 C 0.67676 0.09814 0.74311
 C2122 C 0.66485 0.08696 0.75941
 C2123 C 0.65139 0.06909 0.75427
 C2124 C 0.64975 0.06179 0.73274
 C2125 C 0.68973 0.11653 0.74809
 C2126 C 0.70111 0.12802 0.73161
 C2127 C 0.69962 0.12091 0.70990
 C2128 C 0.68697 0.10230 0.70497
 C2129 C 0.71068 0.13263 0.69345
 C2130 C 0.72316 0.15123 0.69839
 C2131 C 0.72500 0.15841 0.71992
 C2132 C 0.71386 0.14662 0.73647
 H2133 H 0.66174 0.06702 0.69984
 H2134 H 0.66560 0.09231 0.77612
 H2135 H 0.64180 0.06134 0.76714
 H2136 H 0.69076 0.12204 0.76475
 H2137 H 0.68586 0.09684 0.68831
 H2138 H 0.70966 0.12743 0.67671
 H2139 H 0.73154 0.15988 0.68532
 H2140 H 0.71496 0.15196 0.75315
 C2141 C 0.84124 0.08099 0.26614
 C2142 C 0.82986 0.10137 0.26692
 C2143 C 0.83816 0.11883 0.27946
 C2144 C 0.85783 0.11563 0.29091
 C2145 C 0.86881 0.09521 0.29047
 C2146 C 0.86059 0.07734 0.27837
 C2147 C 0.82658 0.13912 0.28049
 C2148 C 0.80665 0.14212 0.26922
 C2149 C 0.79837 0.12451 0.25677
 C2150 C 0.80998 0.10435 0.25569
 C2151 C 0.77863 0.12735 0.24538
 C2152 C 0.76743 0.14755 0.24582
 C2153 C 0.77554 0.16536 0.25781
 C2154 C 0.79501 0.16246 0.26987
 H2155 H 0.83401 0.06766 0.25708
 H2156 H 0.86465 0.12888 0.30041
 H2157 H 0.88414 0.09372 0.29935
 H2158 H 0.83305 0.15251 0.29007
 H2159 H 0.80351 0.09096 0.24611
 H2160 H 0.77200 0.11403 0.23584
 H2161 H 0.75237 0.14932 0.23652
 H2162 H 0.80149 0.17614 0.27902
 C2163 C 0.34035 0.58161 0.76682
 C2164 C 0.33056 0.60279 0.76671
 C2165 C 0.34069 0.62025 0.77787
 C2166 C 0.36050 0.61628 0.78886
 C2167 C 0.36988 0.59516 0.78933
 C2168 C 0.35985 0.57728 0.77864
 C2169 C 0.33083 0.64137 0.77798
 C2170 C 0.31080 0.64527 0.76713
 C2171 C 0.30062 0.62770 0.75608
 C2172 C 0.31053 0.60666 0.75594
 C2173 C 0.28077 0.63149 0.74508
 C2174 C 0.27139 0.65255 0.74446
 C2175 C 0.28146 0.67030 0.75502
 C2176 C 0.30099 0.66649 0.76675
 H2177 H 0.33186 0.56835 0.75878
 H2178 H 0.36870 0.62950 0.79727
 H2179 H 0.38543 0.59310 0.79774
 H2180 H 0.33873 0.65474 0.78648
 H2181 H 0.30264 0.59330 0.74741
 H2182 H 0.27270 0.61823 0.73660
 H2183 H 0.25628 0.65505 0.73540
 H2184 H 0.30899 0.68011 0.77475
 C2185 C 0.34405 0.42959 0.72693
 C2186 C 0.33372 0.40939 0.73144
 C2187 C 0.33389 0.40097 0.75268
 C2188 C 0.34481 0.41259 0.76889
 C2189 C 0.35522 0.43253 0.76424
 C2190 C 0.35481 0.44145 0.74331
 C2191 C 0.32303 0.38116 0.75744
 C2192 C 0.31205 0.36955 0.74120
 C2193 C 0.31231 0.37767 0.71983
 C2194 C 0.32307 0.39757 0.71510
 C2195 C 0.30160 0.36584 0.70360
 C2196 C 0.29034 0.34638 0.70853
 C2197 C 0.28942 0.33841 0.72984
 C2198 C 0.30059 0.35007 0.74605
 H2199 H 0.34326 0.43627 0.71077
 H2200 H 0.34529 0.40627 0.78522
 H2201 H 0.36375 0.44090 0.77709
 H2202 H 0.32298 0.37486 0.77381
 H2203 H 0.32305 0.40391 0.69874
 H2204 H 0.30172 0.37175 0.68711
 H2205 H 0.28192 0.33783 0.69571
 H2206 H 0.30022 0.34410 0.76253
 C2207 C 0.85076 0.93060 0.22346
 C2208 C 0.84057 0.91039 0.22800
 C2209 C 0.83786 0.90353 0.24965
 C2210 C 0.84564 0.91678 0.26635
 C2211 C 0.85581 0.93681 0.26177
 C2212 C 0.85850 0.94431 0.24026
 C2213 C 0.82724 0.88363 0.25433
 C2214 C 0.81916 0.87049 0.23759
 C2215 C 0.82207 0.87714 0.21587
 C2216 C 0.83277 0.89705 0.21119
 C2217 C 0.81400 0.86384 0.19923
 C2218 C 0.80274 0.84436 0.20408
 C2219 C 0.79932 0.83783 0.22568
 C2220 C 0.80790 0.85094 0.24232
 H2221 H 0.85154 0.93590 0.20680
 H2222 H 0.84394 0.91162 0.28304
 H2223 H 0.86227 0.94589 0.27529
 H2224 H 0.82504 0.87849 0.27100
 H2225 H 0.83486 0.90224 0.19453
 H2226 H 0.81616 0.86862 0.18247
 H2227 H 0.79640 0.83461 0.19092
 H2228 H 0.80557 0.84615 0.25907
 C2229 C 0.65023 0.92130 0.77333
 C2230 C 0.66401 0.90263 0.76989
 C2231 C 0.67032 0.89631 0.74855
 C2232 C 0.66275 0.90867 0.73107
 C2233 C 0.64884 0.92702 0.73462
 C2234 C 0.64233 0.93355 0.75573
 C2235 C 0.68392 0.87762 0.74497
 C2236 C 0.69115 0.86500 0.76244
 C2237 C 0.68484 0.87122 0.78380
 C2238 C 0.67140 0.89008 0.78741
 C2239 C 0.69197 0.85834 0.80115
 C2240 C 0.70517 0.83944 0.79738
 C2241 C 0.71159 0.83312 0.77619
 C2242 C 0.70449 0.84614 0.75881
 H2243 H 0.64571 0.92628 0.78973
 H2244 H 0.66736 0.90398 0.71461
 H2245 H 0.64278 0.93585 0.72074
 H2246 H 0.68873 0.87280 0.72857
 H2247 H 0.66653 0.89486 0.80380
 H2248 H 0.68727 0.86282 0.81764
 H2249 H 0.71032 0.82978 0.81108
 H2250 H 0.70916 0.84154 0.74234
 C2251 C 0.14823 0.41866 0.27036
 C2252 C 0.15522 0.39702 0.26540
 C2253 C 0.15578 0.38967 0.24369
 C2254 C 0.14852 0.40385 0.22743
 C2255 C 0.14102 0.42517 0.23255
 C2256 C 0.14100 0.43304 0.25403
 C2257 C 0.16372 0.36837 0.23858
 C2258 C 0.17089 0.35422 0.25498
 C2259 C 0.16947 0.36129 0.27679
 C2260 C 0.16179 0.38267 0.28185
 C2261 C 0.17615 0.34699 0.29318
 C2262 C 0.18502 0.32619 0.28802
 C2263 C 0.18755 0.31928 0.26634
 C2264 C 0.17994 0.33330 0.24990
 H2265 H 0.14886 0.42431 0.28696
 H2266 H 0.14856 0.39841 0.21071
 H2267 H 0.13505 0.43540 0.21960
 H2268 H 0.16455 0.36290 0.22185
 H2269 H 0.16111 0.38819 0.29857
 H2270 H 0.17499 0.35208 0.30999
 H2271 H 0.19072 0.31586 0.30102
 H2272 H 0.18162 0.32820 0.23311
 C2273 C 0.07314 0.27222 0.87579
 C2274 C 0.09226 0.26874 0.86261
 C2275 C 0.10426 0.24861 0.86371
 C2276 C 0.09670 0.23222 0.87790
 C2277 C 0.07740 0.23573 0.89081
 C2278 C 0.06557 0.25579 0.88992
 C2279 C 0.12344 0.24517 0.85048
 C2280 C 0.13052 0.26149 0.83597
 C2281 C 0.11827 0.28148 0.83475
 C2282 C 0.09935 0.28503 0.84818
 C2283 C 0.12505 0.29759 0.82000
 C2284 C 0.14374 0.29396 0.80645
 C2285 C 0.15619 0.27425 0.80755
 C2286 C 0.14952 0.25809 0.82247
 H2287 H 0.06384 0.28758 0.87475
 H2288 H 0.10563 0.21666 0.87893
 H2289 H 0.07181 0.22288 0.90164
 H2290 H 0.13271 0.22976 0.85134
 H2291 H 0.09003 0.30041 0.84727
 H2292 H 0.11583 0.31298 0.81886
 H2293 H 0.14858 0.30674 0.79521
 H2294 H 0.15890 0.24275 0.82337
 C2295 C 0.58483 0.77377 0.37259
 C2296 C 0.60420 0.76998 0.35983
 C2297 C 0.61594 0.74973 0.36129
 C2298 C 0.60799 0.73360 0.37556
 C2299 C 0.58842 0.73738 0.38797
 C2300 C 0.57669 0.75746 0.38656
 C2301 C 0.63516 0.74584 0.34822
 C2302 C 0.64247 0.76179 0.33340
 C2303 C 0.63055 0.78195 0.33193
 C2304 C 0.61167 0.78600 0.34529
 C2305 C 0.63750 0.79770 0.31690
 C2306 C 0.65595 0.79349 0.30322
 C2307 C 0.66800 0.77354 0.30444
 C2308 C 0.66128 0.75780 0.31978
 H2309 H 0.57565 0.78916 0.37116
 H2310 H 0.61673 0.71797 0.37690
 H2311 H 0.58242 0.72463 0.39873
 H2312 H 0.64417 0.73031 0.34931
 H2313 H 0.60257 0.80147 0.34410
 H2314 H 0.62856 0.81322 0.31558
 H2315 H 0.66087 0.80600 0.29172
 H2316 H 0.67038 0.74232 0.32082
 C2317 C 0.55794 0.23970 0.14603
 C2318 C 0.57634 0.24515 0.15838
 C2319 C 0.59116 0.26167 0.15114
 C2320 C 0.58675 0.27297 0.13194
 C2321 C 0.56812 0.26756 0.11981
 C2322 C 0.55394 0.25062 0.12663
 C2323 C 0.61025 0.26630 0.16301
 C2324 C 0.61464 0.25455 0.18193
 C2325 C 0.59936 0.23857 0.18947
 C2326 C 0.58029 0.23402 0.17767
 C2327 C 0.60368 0.22698 0.20841
 C2328 C 0.62342 0.23051 0.21940
 C2329 C 0.63918 0.24573 0.21163
 C2330 C 0.63440 0.25809 0.19312
 H2331 H 0.54670 0.22685 0.15142
 H2332 H 0.59782 0.28579 0.12622
 H2333 H 0.56503 0.27620 0.10489
 H2334 H 0.62187 0.27867 0.15731
 H2335 H 0.56876 0.22149 0.18326
 H2336 H 0.59205 0.21479 0.21446
 H2337 H 0.62659 0.22082 0.23365
 H2338 H 0.64633 0.26996 0.18699
 C2339 C 0.07548 0.74904 0.63760
 C2340 C 0.09530 0.75411 0.64798
 C2341 C 0.11564 0.75512 0.63580
 C2342 C 0.11575 0.75103 0.61345
 C2343 C 0.09599 0.74521 0.60338
 C2344 C 0.07587 0.74412 0.61545
 C2345 C 0.13563 0.75930 0.64629
 C2346 C 0.13565 0.76143 0.66886
 C2347 C 0.11536 0.76022 0.68106
 C2348 C 0.09521 0.75710 0.67046
 C2349 C 0.11571 0.76126 0.70372
 C2350 C 0.13610 0.76263 0.71421
 C2351 C 0.15626 0.76370 0.70214
 C2352 C 0.15585 0.76366 0.67948
 H2353 H 0.05991 0.74780 0.64691
 H2354 H 0.13121 0.75162 0.60393
 H2355 H 0.09640 0.74134 0.58626
 H2356 H 0.15128 0.75994 0.63702
 H2357 H 0.07962 0.75605 0.67977
 H2358 H 0.10033 0.76029 0.71330
 H2359 H 0.13615 0.76268 0.73172
 H2360 H 0.17140 0.76418 0.67010
 C2361 C 0.92512 0.76848 0.63695
 C2362 C 0.90717 0.76249 0.65028
 C2363 C 0.90006 0.74047 0.65083
 C2364 C 0.91159 0.72468 0.63803
 C2365 C 0.93006 0.73073 0.62502
 C2366 C 0.93693 0.75284 0.62410
 C2367 C 0.88191 0.73470 0.66447
 C2368 C 0.87142 0.75070 0.67791
 C2369 C 0.87919 0.77260 0.67750
 C2370 C 0.89672 0.77837 0.66353
 C2371 C 0.86948 0.78853 0.69122
 C2372 C 0.85216 0.78292 0.70538
 C2373 C 0.84397 0.76138 0.70586
 C2374 C 0.85350 0.74527 0.69196
 H2375 H 0.93071 0.78534 0.63781
 H2376 H 0.90648 0.70765 0.63824
 H2377 H 0.93845 0.71815 0.61526
 H2378 H 0.87623 0.71784 0.66489
 H2379 H 0.90248 0.79523 0.66320
 H2380 H 0.87532 0.80533 0.69105
 H2381 H 0.84481 0.79568 0.71569
 H2382 H 0.84721 0.72863 0.69230
 C2383 C 0.41024 0.27910 0.13570
 C2384 C 0.39143 0.27212 0.14751
 C2385 C 0.37934 0.25373 0.14032
 C2386 C 0.38654 0.24250 0.12145
 C2387 C 0.40575 0.24926 0.11005
 C2388 C 0.41759 0.26764 0.11710
 C2389 C 0.36052 0.24672 0.15229
 C2390 C 0.35400 0.25765 0.17154
 C2391 C 0.36643 0.27579 0.17881
 C2392 C 0.38492 0.28301 0.16666
 C2393 C 0.36018 0.28646 0.19817
 C2394 C 0.34157 0.27947 0.21014
 C2395 C 0.32876 0.26172 0.20293
 C2396 C 0.33522 0.25077 0.18363
 H2397 H 0.41970 0.29302 0.14138
 H2398 H 0.37756 0.22830 0.11574
 H2399 H 0.41142 0.24017 0.09579
 H2400 H 0.35111 0.23271 0.14677
 H2401 H 0.39437 0.29700 0.17222
 H2402 H 0.36960 0.30032 0.20398
 H2403 H 0.33702 0.28829 0.22489
 H2404 H 0.32553 0.23706 0.17786
 C2405 C 0.43426 0.71390 0.36852
 C2406 C 0.41600 0.71933 0.35568
 C2407 C 0.40503 0.73993 0.35847
 C2408 C 0.41256 0.75474 0.37408
 C2409 C 0.43105 0.74937 0.38650
 C2410 C 0.44206 0.72897 0.38377
 C2411 C 0.38700 0.74553 0.34537
 C2412 C 0.38011 0.73097 0.32923
 C2413 C 0.39120 0.71044 0.32640
 C2414 C 0.40891 0.70466 0.33977
 C2415 C 0.38459 0.69608 0.31005
 C2416 C 0.36726 0.70203 0.29647
 C2417 C 0.35603 0.72238 0.29907
 C2418 C 0.36249 0.73674 0.31565
 H2419 H 0.44290 0.69825 0.36616
 H2420 H 0.40437 0.77060 0.37645
 H2421 H 0.43679 0.76115 0.39827
 H2422 H 0.37859 0.76133 0.34750
 H2423 H 0.41741 0.68892 0.33755
 H2424 H 0.39291 0.68029 0.30766
 H2425 H 0.36257 0.69054 0.28397
 H2426 H 0.35403 0.75249 0.31783
 C2427 C 0.92752 0.21344 0.87106
 C2428 C 0.91009 0.21871 0.85716
 C2429 C 0.89718 0.23811 0.86075
 C2430 C 0.90215 0.25201 0.87814
 C2431 C 0.91996 0.24691 0.89157
 C2432 C 0.93272 0.22761 0.88812
 C2433 C 0.87982 0.24345 0.84672
 C2434 C 0.87555 0.22987 0.82887
 C2435 C 0.88876 0.21068 0.82520
 C2436 C 0.90574 0.20511 0.83946
 C2437 C 0.88488 0.19735 0.80721
 C2438 C 0.86801 0.20285 0.79298
 C2439 C 0.85448 0.22171 0.79649
 C2440 C 0.85839 0.23520 0.81456
 H2441 H 0.93760 0.19871 0.86816
 H2442 H 0.89252 0.26698 0.88112
 H2443 H 0.92383 0.25803 0.90466
 H2444 H 0.86985 0.25827 0.84951
 H2445 H 0.91578 0.19034 0.83661
 H2446 H 0.89489 0.18263 0.80413
 H2447 H 0.86539 0.19203 0.77933
 H2448 H 0.84814 0.24980 0.81749
 C2449 C 0.57721 1.01898 0.67679
 C2450 C 0.56800 1.01961 0.65603
 C2451 C 0.58079 1.02810 0.63852
 C2452 C 0.60204 1.03656 0.64207
 C2453 C 0.61073 1.03661 0.66274
 C2454 C 0.59867 1.02769 0.68049
 C2455 C 0.57224 1.02803 0.61766
 C2456 C 0.55074 1.02011 0.61404
 C2457 C 0.53735 1.01257 0.63156
 C2458 C 0.54617 1.01211 0.65246
 C2459 C 0.51544 1.00552 0.62775
 C2460 C 0.50717 1.00543 0.60672
 C2461 C 0.52086 1.01196 0.58920
 C2462 C 0.54252 1.01952 0.59303
 H2463 H 0.56724 1.01256 0.69014
 H2464 H 0.61204 1.04311 0.62879
 H2465 H 0.62754 1.04276 0.66447
 H2466 H 0.58232 1.03416 0.60422
 H2467 H 0.53609 1.00595 0.66588
 H2468 H 0.50481 0.99987 0.64099
 H2469 H 0.49041 0.99956 0.60403
 H2470 H 0.55304 1.02488 0.57956
 C2471 C 0.09396 0.53542 1.16951
 C2472 C 0.08433 0.53082 1.14946
 C2473 C 0.09379 0.51404 1.13603
 C2474 C 0.11240 0.50196 1.14295
 C2475 C 0.12150 0.50629 1.16307
 C2476 C 0.11246 0.52303 1.17645
 C2477 C 0.08443 0.50944 1.11596
 C2478 C 0.06548 0.52111 1.10922
 C2479 C 0.05567 0.53758 1.12273
 C2480 C 0.06527 0.54247 1.14271
 C2481 C 0.03643 0.54885 1.11596
 C2482 C 0.02715 0.54400 1.09591
 C2483 C 0.03707 0.52795 1.08219
 C2484 C 0.05621 0.51651 1.08909
 H2485 H 0.08681 0.54819 1.17996
 H2486 H 0.11978 0.48901 1.13289
 H2487 H 0.13573 0.49660 1.16823
 H2488 H 0.09183 0.49668 1.10564
 H2489 H 0.05784 0.55520 1.15305
 H2490 H 0.02861 0.56148 1.12611
 H2491 H 0.01248 0.55314 1.09096
 H2492 H 0.06396 0.50394 1.07879
 C2493 C -0.08742 -0.02468 1.18031
 C2494 C -0.07701 -0.02196 1.15992
 C2495 C -0.07895 -0.00164 1.14919
 C2496 C -0.09027 0.01595 1.15956
 C2497 C -0.10011 0.01331 1.18013
 C2498 C -0.09947 -0.00722 1.19061
 C2499 C -0.06965 0.00071 1.12826
 C2500 C -0.05800 -0.01689 1.11815
 C2501 C -0.05504 -0.03685 1.12937
 C2502 C -0.06474 -0.03933 1.15010
 C2503 C -0.04263 -0.05411 1.11956
 C2504 C -0.03365 -0.05181 1.09861
 C2505 C -0.03733 -0.03241 1.08699
 C2506 C -0.04938 -0.01492 1.09692
 H2507 H -0.08544 -0.04032 1.18837
 H2508 H -0.09175 0.03172 1.15164
 H2509 H -0.10931 0.02712 1.18720
 H2510 H -0.07157 0.01618 1.11983
 H2511 H -0.06288 -0.05482 1.15851
 H2512 H -0.04005 -0.06945 1.12800
 H2513 H -0.02446 -0.06548 1.09120
 H2514 H -0.05204 0.00020 1.08809
 C2515 C 0.40928 0.47443 0.68304
 C2516 C 0.42030 0.47799 0.66303
 C2517 C 0.41801 0.49851 0.65271
 C2518 C 0.40567 0.51544 0.66305
 C2519 C 0.39545 0.51206 0.68332
 C2520 C 0.39664 0.49140 0.69352
 C2521 C 0.42808 0.50180 0.63224
 C2522 C 0.44101 0.48501 0.62222
 C2523 C 0.44433 0.46488 0.63307
 C2524 C 0.43372 0.46139 0.65326
 C2525 C 0.45808 0.44851 0.62342
 C2526 C 0.46800 0.45181 0.60298
 C2527 C 0.46395 0.47133 0.59165
 C2528 C 0.45057 0.48797 0.60146
 H2529 H 0.41143 0.45865 0.69081
 H2530 H 0.40386 0.53133 0.65543
 H2531 H 0.38565 0.52547 0.69043
 H2532 H 0.42588 0.51741 0.62412
 H2533 H 0.43589 0.44577 0.66136
 H2534 H 0.46097 0.43306 0.63157
 H2535 H 0.47815 0.43876 0.59565
 H2536 H 0.44755 0.50316 0.59286
 C2537 C 0.41356 0.53681 -0.16720
 C2538 C 0.42254 0.53248 -0.14690
 C2539 C 0.41648 0.51313 -0.13577
 C2540 C 0.40190 0.49824 -0.14539
 C2541 C 0.39297 0.50273 -0.16560
 C2542 C 0.39843 0.52219 -0.17654
 C2543 C 0.42484 0.50913 -0.11513
 C2544 C 0.43918 0.52425 -0.10549
 C2545 C 0.44555 0.54340 -0.11682
 C2546 C 0.43720 0.54738 -0.13744
 C2547 C 0.46008 0.55834 -0.10725
 C2548 C 0.46812 0.55446 -0.08659
 C2549 C 0.46166 0.53566 -0.07501
 C2550 C 0.44718 0.52058 -0.08465
 H2551 H 0.41815 0.55171 -0.17566
 H2552 H 0.39712 0.48330 -0.13711
 H2553 H 0.38124 0.49130 -0.17239
 H2554 H 0.42003 0.49438 -0.10651
 H2555 H 0.44193 0.56218 -0.14603
 H2556 H 0.46516 0.57307 -0.11572
 H2557 H 0.47920 0.56637 -0.07954
 H2558 H 0.44221 0.50591 -0.07600
 C2559 C -0.08580 1.03528 0.33257
 C2560 C -0.07724 1.02941 0.35267
 C2561 C -0.08332 1.00919 0.36218
 C2562 C -0.09763 0.99506 0.35123
 C2563 C -0.10604 1.00101 0.33118
 C2564 C -0.10037 1.02123 0.32176
 C2565 C -0.07510 1.00349 0.38249
 C2566 C -0.06076 1.01772 0.39334
 C2567 C -0.05447 1.03779 0.38363
 C2568 C -0.06278 1.04353 0.36341
 C2569 C -0.03995 1.05187 0.39431
 C2570 C -0.03168 1.04616 0.41442
 C2571 C -0.03791 1.02633 0.42437
 C2572 C -0.05257 1.01220 0.41373
 H2573 H -0.08111 1.05078 0.32530
 H2574 H -0.10246 0.97949 0.35825
 H2575 H -0.11742 0.99002 0.32324
 H2576 H -0.07986 0.98804 0.38985
 H2577 H -0.05804 1.05900 0.35606
 H2578 H -0.03498 1.06731 0.38710
 H2579 H -0.02058 1.05745 0.42234
 H2580 H -0.05739 0.99683 0.42120
 C2581 C 0.08984 0.47412 0.31580
 C2582 C 0.08052 0.47848 0.33648
 C2583 C 0.08835 0.49643 0.34869
 C2584 C 0.10512 0.50986 0.33988
 C2585 C 0.11420 0.50549 0.31924
 C2586 C 0.10679 0.48753 0.30707
 C2587 C 0.07934 0.50064 0.36949
 C2588 C 0.06247 0.48722 0.37822
 C2589 C 0.05440 0.46948 0.36590
 C2590 C 0.06352 0.46517 0.34515
 C2591 C 0.03734 0.45630 0.37458
 C2592 C 0.02840 0.46058 0.39530
 C2593 C 0.03646 0.47802 0.40783
 C2594 C 0.05354 0.49130 0.39910
 H2595 H 0.08379 0.46040 0.30641
 H2596 H 0.11130 0.52370 0.34900
 H2597 H 0.12735 0.51594 0.31292
 H2598 H 0.08545 0.51433 0.37888
 H2599 H 0.05741 0.45146 0.33576
 H2600 H 0.03092 0.44265 0.36536
 H2601 H 0.01533 0.45003 0.40163
 H2602 H 0.05983 0.50491 0.40848
 C2603 C 0.57341 -0.01164 -0.19047
 C2604 C 0.55974 -0.01258 -0.17171
 C2605 C 0.55056 -0.03282 -0.16503
 C2606 C 0.55440 -0.05161 -0.17789
 C2607 C 0.56799 -0.05054 -0.19661
 C2608 C 0.57816 -0.03069 -0.20281
 C2609 C 0.53834 -0.03404 -0.14532
 C2610 C 0.53545 -0.01528 -0.13211
 C2611 C 0.54397 0.00509 -0.13938
 C2612 C 0.55585 0.00633 -0.15913
 C2613 C 0.54128 0.02386 -0.12640
 C2614 C 0.53144 0.02233 -0.10587
 C2615 C 0.52382 0.00208 -0.09789
 C2616 C 0.52511 -0.01663 -0.11138
 H2617 H 0.58123 0.00376 -0.19481
 H2618 H 0.54728 -0.06723 -0.17324
 H2619 H 0.57080 -0.06539 -0.20606
 H2620 H 0.53175 -0.04968 -0.13995
 H2621 H 0.56275 0.02190 -0.16434
 H2622 H 0.54752 0.03960 -0.13181
 H2623 H 0.53033 0.03702 -0.09588
 H2624 H 0.51934 -0.03231 -0.10532
 C2625 C 0.65945 0.63047 0.00696
 C2626 C 0.64150 0.61727 0.00080
 C2627 C 0.64581 0.59608 -0.00792
 C2628 C 0.66796 0.58901 -0.01164
 C2629 C 0.68573 0.60241 -0.00600
 C2630 C 0.68185 0.62309 0.00403
 C2631 C 0.62796 0.58207 -0.01227
 C2632 C 0.60579 0.58908 -0.00818
 C2633 C 0.60141 0.61082 -0.00081
 C2634 C 0.61930 0.62477 0.00366
 C2635 C 0.57921 0.61793 0.00286
 C2636 C 0.56160 0.60325 0.00059
 C2637 C 0.56596 0.58134 -0.00544
 C2638 C 0.58798 0.57441 -0.01034
 H2639 H 0.65585 0.64665 0.01370
 H2640 H 0.67157 0.57287 -0.01846
 H2641 H 0.70251 0.59572 -0.00823
 H2642 H 0.63133 0.56553 -0.01827
 H2643 H 0.61593 0.64119 0.00997
 H2644 H 0.57552 0.63457 0.00835
 H2645 H 0.54466 0.60864 0.00472
 H2646 H 0.59130 0.55736 -0.01470
 C2647 C 0.16379 1.11740 0.50203
 C2648 C 0.14593 1.10246 0.50147
 C2649 C 0.14513 1.08502 0.51653
 C2650 C 0.16202 1.08260 0.53164
 C2651 C 0.17931 1.09766 0.53236
 C2652 C 0.18025 1.11524 0.51781
 C2653 C 0.12716 1.07053 0.51675
 C2654 C 0.10954 1.07344 0.50253
 C2655 C 0.11016 1.09056 0.48723
 C2656 C 0.12854 1.10490 0.48662
 C2657 C 0.09209 1.09324 0.47325
 C2658 C 0.07331 1.07960 0.47505
 C2659 C 0.07239 1.06306 0.49081
 C2660 C 0.09093 1.05980 0.50403
 H2661 H 0.16452 1.13101 0.49082
 H2662 H 0.16161 1.06930 0.54322
 H2663 H 0.19199 1.09572 0.54446
 H2664 H 0.12656 1.05734 0.52849
 H2665 H 0.12901 1.11822 0.47505
 H2666 H 0.09224 1.10620 0.46132
 H2667 H 0.05927 1.08243 0.46462
 H2668 H 0.09069 1.04689 0.51605
 C2669 C 0.17561 -0.11032 0.99894
 C2670 C 0.15612 -0.09707 1.00176
 C2671 C 0.15337 -0.07826 0.98866
 C2672 C 0.17015 -0.07262 0.97356
 C2673 C 0.18908 -0.08599 0.97062
 C2674 C 0.19185 -0.10512 0.98289
 C2675 C 0.13354 -0.06578 0.99017
 C2676 C 0.11604 -0.07203 1.00421
 C2677 C 0.11876 -0.09033 1.01788
 C2678 C 0.13893 -0.10267 1.01672
 C2679 C 0.10089 -0.09632 1.03184
 C2680 C 0.08020 -0.08503 1.03134
 C2681 C 0.07713 -0.06760 1.01687
 C2682 C 0.09544 -0.06078 1.00395
 H2683 H 0.17763 -0.12513 1.00838
 H2684 H 0.16830 -0.05821 0.96351
 H2685 H 0.20146 -0.08167 0.95831
 H2686 H 0.13139 -0.05165 0.97977
 H2687 H 0.14092 -0.11701 1.02686
 H2688 H 0.10264 -0.11021 1.04257
 H2689 H 0.06634 -0.09062 1.04141
 H2690 H 0.09334 -0.04717 0.99289
 C2691 C 0.66465 0.37246 0.50285
 C2692 C 0.64795 0.38762 0.50979
 C2693 C 0.65384 0.40941 0.51501
 C2694 C 0.67650 0.41508 0.51522
 C2695 C 0.69311 0.39957 0.50954
 C2696 C 0.68744 0.37830 0.50243
 C2697 C 0.63700 0.42525 0.51957
 C2698 C 0.61435 0.41930 0.51986
 C2699 C 0.60868 0.39698 0.51682
 C2700 C 0.62544 0.38138 0.51143
 C2701 C 0.58620 0.39075 0.51843
 C2702 C 0.56936 0.40664 0.52151
 C2703 C 0.57465 0.42901 0.52265
 C2704 C 0.59720 0.43532 0.52233
 H2705 H 0.65990 0.35595 0.49827
 H2706 H 0.68138 0.43161 0.51951
 H2707 H 0.71037 0.40487 0.50925
 H2708 H 0.64150 0.44219 0.52257
 H2709 H 0.62093 0.36448 0.50816
 H2710 H 0.58156 0.37369 0.51648
 H2711 H 0.55201 0.40158 0.52141
 H2712 H 0.60128 0.45263 0.52298
 C2713 C -0.16405 0.38205 0.48722
 C2714 C -0.14801 0.39867 0.48492
 C2715 C -0.15133 0.41890 0.49609
 C2716 C -0.17100 0.42258 0.50845
 C2717 C -0.18678 0.40601 0.51064
 C2718 C -0.18319 0.38558 0.50047
 C2719 C -0.13457 0.43478 0.49549
 C2720 C -0.11439 0.43069 0.48408
 C2721 C -0.11143 0.41102 0.47198
 C2722 C -0.12832 0.39514 0.47241
 C2723 C -0.09124 0.40728 0.46034
 C2724 C -0.07375 0.42230 0.46165
 C2725 C -0.07614 0.44118 0.47475
 C2726 C -0.09676 0.44558 0.48539
 H2727 H -0.16129 0.36616 0.47950
 H2728 H -0.17384 0.43801 0.51699
 H2729 H -0.20146 0.40879 0.52099
 H2730 H -0.13689 0.45000 0.50457
 H2731 H -0.12582 0.37977 0.46364
 H2732 H -0.08872 0.39241 0.45081
 H2733 H -0.05796 0.41858 0.45334
 H2734 H -0.09879 0.46024 0.49534
 C2735 C 0.33415 -0.11492 -0.00623
 C2736 C 0.35307 -0.10114 -0.00599
 C2737 C 0.35936 -0.09151 0.01380
 C2738 C 0.34696 -0.09562 0.03279
 C2739 C 0.32843 -0.10926 0.03242
 C2740 C 0.32181 -0.11921 0.01308
 C2741 C 0.37798 -0.07782 0.01445
 C2742 C 0.39064 -0.07353 -0.00436
 C2743 C 0.38474 -0.08299 -0.02426
 C2744 C 0.36587 -0.09679 -0.02499
 C2745 C 0.39791 -0.07841 -0.04290
 C2746 C 0.41668 -0.06464 -0.04171
 C2747 C 0.42256 -0.05517 -0.02187
 C2748 C 0.40924 -0.05985 -0.00334
 H2749 H 0.32920 -0.12246 -0.02127
 H2750 H 0.35155 -0.08821 0.04801
 H2751 H 0.31899 -0.11175 0.04737
 H2752 H 0.38265 -0.07049 0.02971
 H2753 H 0.36121 -0.10411 -0.04023
 H2754 H 0.39372 -0.08550 -0.05837
 H2755 H 0.42654 -0.06143 -0.05625
 H2756 H 0.41329 -0.05287 0.01223
 C2757 C 0.32035 1.10568 0.50491
 C2758 C 0.33740 1.08952 0.50661
 C2759 C 0.33934 1.07264 0.49078
 C2760 C 0.32412 1.07177 0.47398
 C2761 C 0.30763 1.08796 0.47223
 C2762 C 0.30580 1.10528 0.48732
 C2763 C 0.35693 1.05727 0.49144
 C2764 C 0.37311 1.05878 0.50735
 C2765 C 0.37106 1.07513 0.52361
 C2766 C 0.35302 1.09030 0.52331
 C2767 C 0.38763 1.07648 0.53933
 C2768 C 0.40665 1.06267 0.53809
 C2769 C 0.40931 1.04723 0.52120
 C2770 C 0.39197 1.04485 0.50643
 H2771 H 0.31899 1.11898 0.51664
 H2772 H 0.32532 1.05885 0.46184
 H2773 H 0.29634 1.08712 0.45880
 H2774 H 0.35855 1.04464 0.47901
 H2775 H 0.35164 1.10314 0.53553
 H2776 H 0.38634 1.08880 0.55204
 H2777 H 0.41980 1.06491 0.54963
 H2778 H 0.39369 1.03286 0.49343
 C2779 C -0.17231 0.60651 1.01186
 C2780 C -0.15539 0.59022 1.01266
 C2781 C -0.15475 0.57306 0.99705
 C2782 C -0.17140 0.57191 0.98156
 C2783 C -0.18781 0.58832 0.98066
 C2784 C -0.18809 0.60592 0.99541
 C2785 C -0.13688 0.55795 0.99641
 C2786 C -0.11924 0.56006 1.01073
 C2787 C -0.12021 0.57654 1.02696
 C2788 C -0.13845 0.59139 1.02799
 C2789 C -0.10239 0.57847 1.04120
 C2790 C -0.08319 0.56520 1.03845
 C2791 C -0.08153 0.54976 1.02145
 C2792 C -0.10006 0.54671 1.00822
 H2793 H -0.17246 0.62023 1.02314
 H2794 H -0.17120 0.55884 0.96958
 H2795 H -0.19992 0.58773 0.96790
 H2796 H -0.13616 0.54520 0.98405
 H2797 H -0.13892 0.60441 1.04005
 H2798 H -0.10288 0.59085 1.05387
 H2799 H -0.06920 0.56783 1.04893
 H2800 H -0.09911 0.53469 0.99520
 C2801 C 0.01912 0.67651 0.56722
 C2802 C 0.01647 0.65443 0.56172
 C2803 C 0.02875 0.63804 0.57259
 C2804 C 0.04339 0.64405 0.58890
 C2805 C 0.04555 0.66611 0.59463
 C2806 C 0.03335 0.68251 0.58393
 C2807 C 0.02610 0.61592 0.56709
 C2808 C 0.01123 0.61004 0.55095
 C2809 C -0.00124 0.62642 0.54025
 C2810 C 0.00152 0.64854 0.54566
 C2811 C -0.01608 0.62041 0.52412
 C2812 C -0.01810 0.59838 0.51822
 C2813 C -0.00540 0.58204 0.52845
 C2814 C 0.00895 0.58800 0.54509
 H2815 H 0.00996 0.68904 0.55858
 H2816 H 0.05285 0.63169 0.59745
 H2817 H 0.05634 0.67027 0.60782
 H2818 H 0.03562 0.60332 0.57531
 H2819 H -0.00796 0.66115 0.53741
 H2820 H -0.02582 0.63276 0.51583
 H2821 H -0.02931 0.59422 0.50536
 H2822 H 0.01895 0.57559 0.55304
 C2823 C 0.49955 0.18424 0.07407
 C2824 C 0.49741 0.16201 0.06870
 C2825 C 0.50752 0.14574 0.08159
 C2826 C 0.51898 0.15200 0.10008
 C2827 C 0.52066 0.17419 0.10558
 C2828 C 0.51123 0.19056 0.09249
 C2829 C 0.50621 0.12354 0.07565
 C2830 C 0.49482 0.11746 0.05703
 C2831 C 0.48405 0.13372 0.04461
 C2832 C 0.48546 0.15589 0.05048
 C2833 C 0.47240 0.12762 0.02622
 C2834 C 0.47212 0.10568 0.01967
 C2835 C 0.48356 0.08944 0.03135
 C2836 C 0.49448 0.09542 0.05034
 H2837 H 0.49245 0.19661 0.06363
 H2838 H 0.52661 0.13974 0.11029
 H2839 H 0.52923 0.17848 0.12020
 H2840 H 0.51430 0.11107 0.08531
 H2841 H 0.47750 0.16838 0.04073
 H2842 H 0.46392 0.13986 0.01663
 H2843 H 0.46350 0.10160 0.00501
 H2844 H 0.50325 0.08307 0.05958
 C2845 C -0.02670 0.15641 0.92299
 C2846 C -0.02245 0.13620 0.93294
 C2847 C -0.01487 0.13575 0.95444
 C2848 C -0.01176 0.15552 0.96564
 C2849 C -0.01575 0.17555 0.95552
 C2850 C -0.02311 0.17615 0.93413
 C2851 C -0.01038 0.11560 0.96435
 C2852 C -0.01332 0.09587 0.95304
 C2853 C -0.02088 0.09631 0.93154
 C2854 C -0.02539 0.11647 0.92162
 C2855 C -0.02396 0.07654 0.92036
 C2856 C -0.01998 0.05650 0.93049
 C2857 C -0.01267 0.05586 0.95193
 C2858 C -0.00910 0.07567 0.96302
 H2859 H -0.03213 0.15683 0.90639
 H2860 H -0.00601 0.15548 0.98212
 H2861 H -0.01303 0.19066 0.96438
 H2862 H -0.00460 0.11527 0.98084
 H2863 H -0.03117 0.11680 0.90514
 H2864 H -0.02970 0.07656 0.90387
 H2865 H -0.02281 0.04146 0.92155
 H2866 H -0.00365 0.07541 0.97961
 C2867 C 0.48073 0.65762 0.41997
 C2868 C 0.48383 0.63780 0.43097
 C2869 C 0.49260 0.63801 0.45202
 C2870 C 0.49799 0.65803 0.46176
 C2871 C 0.49499 0.67766 0.45064
 C2872 C 0.48649 0.67761 0.42966
 C2873 C 0.49594 0.61822 0.46297
 C2874 C 0.49068 0.59821 0.45314
 C2875 C 0.48187 0.59798 0.43212
 C2876 C 0.47850 0.61777 0.42115
 C2877 C 0.47651 0.57792 0.42243
 C2878 C 0.47969 0.55827 0.43352
 C2879 C 0.48840 0.55833 0.45446
 C2880 C 0.49398 0.57842 0.46410
 H2881 H 0.47436 0.65748 0.40370
 H2882 H 0.50464 0.65850 0.47790
 H2883 H 0.49927 0.69297 0.45848
 H2884 H 0.50267 0.61840 0.47911
 H2885 H 0.47179 0.61760 0.40501
 H2886 H 0.46975 0.57742 0.40634
 H2887 H 0.47527 0.54302 0.42567
 H2888 H 0.50057 0.57874 0.48028
 C2889 C 0.52984 0.82634 0.42116
 C2890 C 0.52357 0.84624 0.43122
 C2891 C 0.51373 0.84611 0.45227
 C2892 C 0.51042 0.82612 0.46292
 C2893 C 0.51640 0.80638 0.45265
 C2894 C 0.52601 0.80635 0.43170
 C2895 C 0.50715 0.86593 0.46227
 C2896 C 0.51021 0.88587 0.45147
 C2897 C 0.52003 0.88603 0.43043
 C2898 C 0.52665 0.86620 0.42042
 C2899 C 0.52319 0.90607 0.41980
 C2900 C 0.51708 0.92580 0.43009
 C2901 C 0.50751 0.92581 0.45111
 C2902 C 0.50387 0.90570 0.46157
 H2903 H 0.53700 0.82632 0.40487
 H2904 H 0.50294 0.82573 0.47906
 H2905 H 0.51342 0.79105 0.46101
 H2906 H 0.49963 0.86583 0.47842
 H2907 H 0.53417 0.86630 0.40427
 H2908 H 0.53066 0.90650 0.40367
 H2909 H 0.52006 0.94108 0.42166
 H2910 H 0.49670 0.90547 0.47785
 C2911 C 0.02412 0.32527 0.92550
 C2912 C 0.02020 0.34579 0.93527
 C2913 C 0.00988 0.34706 0.95608
 C2914 C 0.00367 0.32772 0.96675
 C2915 C 0.00756 0.30732 0.95683
 C2916 C 0.01781 0.30595 0.93617
 C2917 C 0.00590 0.36762 0.96583
 C2918 C 0.01207 0.38687 0.95500
 C2919 C 0.02235 0.38555 0.93418
 C2920 C 0.02635 0.36502 0.92444
 C2921 C 0.02855 0.40480 0.92343
 C2922 C 0.02472 0.42522 0.93325
 C2923 C 0.01458 0.42677 0.95400
 C2924 C 0.00821 0.40745 0.96474
 H2925 H 0.03169 0.32434 0.90939
 H2926 H -0.00423 0.32839 0.98270
 H2927 H 0.00270 0.29255 0.96535
 H2928 H -0.00199 0.36862 0.98180
 H2929 H 0.03424 0.36400 0.90847
 H2930 H 0.03644 0.40407 0.90747
 H2931 H 0.02983 0.43981 0.92458
 H2932 H 0.00044 0.40836 0.98075
 C2933 C 0.48131 0.33393 0.07299
 C2934 C 0.48505 0.35633 0.06942
 C2935 C 0.47401 0.37220 0.08281
 C2936 C 0.45971 0.36545 0.09969
 C2937 C 0.45621 0.34315 0.10323
 C2938 C 0.46681 0.32719 0.08986
 C2939 C 0.47727 0.39458 0.07903
 C2940 C 0.49125 0.40133 0.06190
 C2941 C 0.50256 0.38555 0.04864
 C2942 C 0.49947 0.36310 0.05255
 C2943 C 0.51633 0.39254 0.03139
 C2944 C 0.51816 0.41492 0.02681
 C2945 C 0.50642 0.43068 0.03955
 C2946 C 0.49349 0.42370 0.05745
 H2947 H 0.48945 0.32178 0.06248
 H2948 H 0.45125 0.37741 0.11019
 H2949 H 0.44540 0.33839 0.11668
 H2950 H 0.46860 0.40674 0.08918
 H2951 H 0.50797 0.35095 0.04228
 H2952 H 0.52520 0.38068 0.02110
 H2953 H 0.52828 0.41983 0.01292
 H2954 H 0.48431 0.43559 0.06746
 C2955 C -0.00817 0.82110 0.57394
 C2956 C -0.00630 0.84361 0.56989
 C2957 C -0.01789 0.85896 0.58346
 C2958 C -0.03083 0.85157 0.60106
 C2959 C -0.03238 0.82915 0.60514
 C2960 C -0.02124 0.81371 0.59154
 C2961 C -0.01652 0.88144 0.57914
 C2962 C -0.00375 0.88875 0.56139
 C2963 C 0.00822 0.87346 0.54807
 C2964 C 0.00690 0.85097 0.55242
 C2965 C 0.02096 0.88092 0.53035
 C2966 C 0.02121 0.90325 0.52542
 C2967 C 0.00877 0.91850 0.53819
 C2968 C -0.00328 0.91112 0.55646
 H2969 H 0.00033 0.80935 0.56324
 H2970 H -0.03966 0.86312 0.61171
 H2971 H -0.04209 0.82391 0.61916
 H2972 H -0.02562 0.89319 0.58940
 H2973 H 0.01589 0.83920 0.54209
 H2974 H 0.03034 0.86945 0.52004
 H2975 H 0.03073 0.90848 0.51128
 H2976 H -0.01292 0.92267 0.56648
 C2977 C 0.26550 0.32461 0.06954
 C2978 C 0.26687 0.31122 0.08791
 C2979 C 0.28784 0.30694 0.09718
 C2980 C 0.30718 0.31566 0.08752
 C2981 C 0.30572 0.32918 0.06940
 C2982 C 0.28481 0.33437 0.06025
 C2983 C 0.28905 0.29458 0.11628
 C2984 C 0.26941 0.28699 0.12656
 C2985 C 0.24845 0.29102 0.11698
 C2986 C 0.24737 0.30279 0.09762
 C2987 C 0.22874 0.28406 0.12740
 C2988 C 0.22959 0.27426 0.14766
 C2989 C 0.25017 0.27069 0.15764
 C2990 C 0.27017 0.27643 0.14676
 H2991 H 0.24903 0.32850 0.06361
 H2992 H 0.32348 0.31229 0.09417
 H2993 H 0.32125 0.33513 0.06238
 H2994 H 0.30515 0.29159 0.12354
 H2995 H 0.23123 0.30608 0.09054
 H2996 H 0.21258 0.28699 0.12028
 H2997 H 0.21404 0.26994 0.15589
 H2998 H 0.28605 0.27397 0.15460
 C2999 C 0.78064 0.82939 0.57667
 C3000 C 0.77571 0.82090 0.59736
 C3001 C 0.75763 0.82993 0.60984
 C3002 C 0.74461 0.84700 0.60136
 C3003 C 0.74934 0.85502 0.58067
 C3004 C 0.76738 0.84639 0.56819
 C3005 C 0.75276 0.82176 0.63057
 C3006 C 0.76553 0.80444 0.63897
 C3007 C 0.78332 0.79506 0.62639
 C3008 C 0.78840 0.80343 0.60572
 C3009 C 0.79579 0.77751 0.63478
 C3010 C 0.79088 0.76952 0.65551
 C3011 C 0.77352 0.77903 0.66835
 C3012 C 0.76082 0.79645 0.65983
 H3013 H 0.79445 0.82254 0.56701
 H3014 H 0.73067 0.85407 0.61068
 H3015 H 0.73900 0.86817 0.57443
 H3016 H 0.73900 0.82886 0.64016
 H3017 H 0.80216 0.79634 0.59614
 H3018 H 0.80947 0.77007 0.62538
 H3019 H 0.80107 0.75624 0.66171
 H3020 H 0.74732 0.80389 0.66948
 C3021 C 0.21510 0.67489 0.56249
 C3022 C 0.21921 0.68334 0.58325
 C3023 C 0.23403 0.67190 0.59685
 C3024 C 0.24461 0.65247 0.58956
 C3025 C 0.24082 0.64451 0.56883
 C3026 C 0.22613 0.65560 0.55519
 C3027 C 0.23834 0.68013 0.61747
 C3028 C 0.22839 0.69989 0.62465
 C3029 C 0.21379 0.71161 0.61114
 C3030 C 0.20911 0.70316 0.59053
 C3031 C 0.20433 0.73165 0.61849
 C3032 C 0.20932 0.73992 0.63901
 C3033 C 0.22359 0.72813 0.65263
 C3034 C 0.23305 0.70811 0.64519
 H3035 H 0.20387 0.68352 0.55186
 H3036 H 0.25603 0.64357 0.59979
 H3037 H 0.24937 0.62959 0.56338
 H3038 H 0.24965 0.67125 0.62786
 H3039 H 0.19787 0.71207 0.58011
 H3040 H 0.19314 0.74095 0.60837
 H3041 H 0.20189 0.75543 0.64426
 H3042 H 0.24429 0.69888 0.65533
 C3043 C 0.71015 0.17306 0.06672
 C3044 C 0.71401 0.18233 0.08725
 C3045 C 0.73406 0.17714 0.09787
 C3046 C 0.75004 0.16329 0.08785
 C3047 C 0.74642 0.15466 0.06737
 C3048 C 0.72650 0.15930 0.05632
 C3049 C 0.73797 0.18586 0.11840
 C3050 C 0.72229 0.20007 0.12845
 C3051 C 0.70245 0.20592 0.11780
 C3052 C 0.69833 0.19687 0.09726
 C3053 C 0.68713 0.22063 0.12800
 C3054 C 0.69130 0.22908 0.14868
 C3055 C 0.71071 0.22271 0.15954
 C3056 C 0.72620 0.20839 0.14914
 H3057 H 0.69491 0.17746 0.05856
 H3058 H 0.76542 0.15907 0.09589
 H3059 H 0.75906 0.14348 0.06068
 H3060 H 0.75329 0.18158 0.12656
 H3061 H 0.68301 0.20114 0.08912
 H3062 H 0.67186 0.22544 0.12008
 H3063 H 0.67908 0.24005 0.15641
 H3064 H 0.74139 0.20359 0.15724
 C3065 C 0.76936 0.16462 0.92372
 C3066 C 0.77329 0.17719 0.90508
 C3067 C 0.79526 0.18393 0.89955
 C3068 C 0.81283 0.17859 0.91328
 C3069 C 0.80877 0.16617 0.93190
 C3070 C 0.78708 0.15868 0.93715
 C3071 C 0.79936 0.19540 0.88019
 C3072 C 0.78175 0.19993 0.86616
 C3073 C 0.75968 0.19368 0.87216
 C3074 C 0.75559 0.18256 0.89159
 C3075 C 0.74207 0.19785 0.85822
 C3076 C 0.74637 0.20696 0.83798
 C3077 C 0.76825 0.21247 0.83141
 C3078 C 0.78588 0.20964 0.84582
 H3079 H 0.75259 0.15885 0.92733
 H3080 H 0.82976 0.18380 0.90949
 H3081 H 0.82269 0.16242 0.94219
 H3082 H 0.81629 0.20019 0.87576
 H3083 H 0.73871 0.17749 0.89589
 H3084 H 0.72508 0.19328 0.86261
 H3085 H 0.73259 0.20909 0.82707
 H3086 H 0.80284 0.21365 0.84068
 C3087 C 0.27037 0.66569 0.42291
 C3088 C 0.27423 0.67908 0.40483
 C3089 C 0.29620 0.68597 0.39949
 C3090 C 0.31382 0.67995 0.41288
 C3091 C 0.30980 0.66682 0.43104
 C3092 C 0.28811 0.65920 0.43610
 C3093 C 0.30021 0.69835 0.38067
 C3094 C 0.28250 0.70377 0.36704
 C3095 C 0.26043 0.69741 0.37291
 C3096 C 0.25645 0.68527 0.39175
 C3097 C 0.24270 0.70258 0.35942
 C3098 C 0.24686 0.71280 0.33969
 C3099 C 0.26875 0.71837 0.33314
 C3100 C 0.28651 0.71453 0.34720
 H3101 H 0.25359 0.65984 0.42631
 H3102 H 0.33074 0.68526 0.40924
 H3103 H 0.32376 0.66271 0.44115
 H3104 H 0.31714 0.70324 0.37635
 H3105 H 0.23956 0.68012 0.39593
 H3106 H 0.22570 0.69798 0.36375
 H3107 H 0.23295 0.71573 0.32911
 H3108 H 0.30346 0.71860 0.34213
 C3109 C 0.73928 0.83243 0.43139
 C3110 C 0.73827 0.81956 0.41248
 C3111 C 0.71786 0.80974 0.40681
 C3112 C 0.69899 0.81243 0.42054
 C3113 C 0.70011 0.82530 0.43928
 C3114 C 0.72012 0.83580 0.44473
 C3115 C 0.71651 0.79790 0.38727
 C3116 C 0.73524 0.79609 0.37315
 C3117 C 0.75577 0.80552 0.37918
 C3118 C 0.75720 0.81696 0.39884
 C3119 C 0.77441 0.80410 0.36508
 C3120 C 0.77253 0.79447 0.34473
 C3121 C 0.75210 0.78570 0.33815
 C3122 C 0.73362 0.78590 0.35270
 H3123 H 0.75478 0.84051 0.43524
 H3124 H 0.68325 0.80487 0.41661
 H3125 H 0.68521 0.82713 0.44949
 H3126 H 0.70075 0.79070 0.38278
 H3127 H 0.77288 0.82444 0.40319
 H3128 H 0.79027 0.81113 0.36948
 H3129 H 0.78700 0.79437 0.33381
 H3130 H 0.71775 0.77936 0.34764
 C3131 C 0.23779 0.32740 0.93764
 C3132 C 0.23513 0.31511 0.91862
 C3133 C 0.21387 0.30674 0.91360
 C3134 C 0.19580 0.31015 0.92820
 C3135 C 0.19851 0.32271 0.94696
 C3136 C 0.21938 0.33191 0.95160
 C3137 C 0.21085 0.29592 0.89373
 C3138 C 0.22872 0.29394 0.87859
 C3139 C 0.25009 0.30187 0.88402
 C3140 C 0.25322 0.31206 0.90406
 C3141 C 0.26788 0.30040 0.86893
 C3142 C 0.26435 0.29226 0.84825
 C3143 C 0.24309 0.28500 0.84231
 C3144 C 0.22543 0.28516 0.85776
 H3145 H 0.25390 0.33460 0.94088
 H3146 H 0.17941 0.30373 0.92477
 H3147 H 0.18413 0.32565 0.95764
 H3148 H 0.19444 0.28989 0.88970
 H3149 H 0.26953 0.31846 0.90793
 H3150 H 0.28436 0.30629 0.87287
 H3151 H 0.27823 0.29204 0.83663
 H3152 H 0.20897 0.27970 0.85321
 C3153 C 0.86370 0.41336 0.75079
 C3154 C 0.85113 0.39377 0.75139
 C3155 C 0.83402 0.39070 0.73624
 C3156 C 0.82929 0.40717 0.72129
 C3157 C 0.84192 0.42623 0.72062
 C3158 C 0.85948 0.42940 0.73496
 C3159 C 0.82223 0.37097 0.73574
 C3160 C 0.82739 0.35393 0.74995
 C3161 C 0.84391 0.35691 0.76560
 C3162 C 0.85567 0.37691 0.76631
 C3163 C 0.84864 0.33956 0.77985
 C3164 C 0.83771 0.31928 0.77797
 C3165 C 0.82202 0.31602 0.76173
 C3166 C 0.81663 0.33369 0.74817
 H3167 H 0.87724 0.41571 0.76189
 H3168 H 0.81615 0.40508 0.70970
 H3169 H 0.83826 0.43846 0.70850
 H3170 H 0.80942 0.36863 0.72382
 H3171 H 0.86865 0.37913 0.77806
 H3172 H 0.86114 0.34150 0.79209
 H3173 H 0.84213 0.30594 0.78862
 H3174 H 0.80429 0.33151 0.73578
 C3175 C 0.36669 0.91986 0.25246
 C3176 C 0.35531 0.89954 0.25316
 C3177 C 0.34162 0.89366 0.23572
 C3178 C 0.33948 0.90761 0.21809
 C3179 C 0.35158 0.92686 0.21697
 C3180 C 0.36569 0.93324 0.23380
 C3181 C 0.33075 0.87353 0.23559
 C3182 C 0.33409 0.85840 0.25208
 C3183 C 0.34766 0.86367 0.26967
 C3184 C 0.35795 0.88451 0.27034
 C3185 C 0.35094 0.84769 0.28579
 C3186 C 0.34154 0.82658 0.28390
 C3187 C 0.32872 0.82128 0.26587
 C3188 C 0.32459 0.83767 0.25054
 H3189 H 0.37746 0.92440 0.26557
 H3190 H 0.32888 0.90332 0.20476
 H3191 H 0.34944 0.93710 0.20287
 H3192 H 0.32037 0.86922 0.22207
 H3193 H 0.36853 0.88868 0.28371
 H3194 H 0.36119 0.85132 0.29954
 H3195 H 0.34481 0.81432 0.29608
 H3196 H 0.31421 0.83413 0.23683
 C3197 C 0.15491 0.93415 0.74207
 C3198 C 0.17058 0.91684 0.73902
 C3199 C 0.18836 0.91447 0.75360
 C3200 C 0.19060 0.92965 0.77049
 C3201 C 0.17472 0.94639 0.77368
 C3202 C 0.15658 0.94852 0.75983
 C3203 C 0.20303 0.89640 0.75178
 C3204 C 0.19977 0.88017 0.73606
 C3205 C 0.18251 0.88271 0.72101
 C3206 C 0.16819 0.90124 0.72237
 C3207 C 0.17929 0.86613 0.70553
 C3208 C 0.19206 0.84666 0.70588
 C3209 C 0.20839 0.84353 0.72162
 C3210 C 0.21273 0.86083 0.73606
 H3211 H 0.14081 0.93573 0.73144
 H3212 H 0.20416 0.92809 0.78172
 H3213 H 0.17626 0.95743 0.78736
 H3214 H 0.21632 0.89442 0.76329
 H3215 H 0.15463 0.90298 0.71114
 H3216 H 0.16625 0.86781 0.69375
 H3217 H 0.18837 0.83363 0.69455
 H3218 H 0.22542 0.85879 0.74815
 C3219 C 0.64673 0.43117 0.24978
 C3220 C 0.65939 0.41153 0.24776
 C3221 C 0.67797 0.40815 0.26120
 C3222 C 0.68402 0.42454 0.27585
 C3223 C 0.67113 0.44369 0.27805
 C3224 C 0.65221 0.44697 0.26540
 C3225 C 0.68972 0.38811 0.26047
 C3226 C 0.68292 0.37112 0.24686
 C3227 C 0.66485 0.37452 0.23289
 C3228 C 0.65327 0.39482 0.23328
 C3229 C 0.65832 0.35728 0.21927
 C3230 C 0.66902 0.33666 0.22015
 C3231 C 0.68633 0.33296 0.23473
 C3232 C 0.69350 0.35049 0.24763
 H3233 H 0.63200 0.43363 0.24014
 H3234 H 0.69824 0.42221 0.28618
 H3235 H 0.67553 0.45576 0.29013
 H3236 H 0.70367 0.38546 0.27110
 H3237 H 0.63911 0.39734 0.22290
 H3238 H 0.64460 0.35958 0.20833
 H3239 H 0.66323 0.32342 0.21000
 H3240 H 0.70707 0.34795 0.25872
 C3241 C 0.64751 0.58983 0.25613
 C3242 C 0.66210 0.60796 0.25668
 C3243 C 0.67836 0.61047 0.23985
 C3244 C 0.68011 0.59495 0.22309
 C3245 C 0.66543 0.57740 0.22248
 C3246 C 0.64884 0.57478 0.23870
 C3247 C 0.69232 0.62876 0.23957
 C3248 C 0.69001 0.64504 0.25556
 C3249 C 0.67417 0.64267 0.27269
 C3250 C 0.66039 0.62396 0.27328
 C3251 C 0.67209 0.65939 0.28850
 C3252 C 0.68486 0.67863 0.28672
 C3253 C 0.69991 0.68136 0.26914
 C3254 C 0.70281 0.66410 0.25406
 H3255 H 0.63474 0.58786 0.26870
 H3256 H 0.69255 0.59664 0.21018
 H3257 H 0.66691 0.56582 0.20912
 H3258 H 0.70454 0.63068 0.22646
 H3259 H 0.64800 0.62219 0.28624
 H3260 H 0.66014 0.65790 0.30185
 H3261 H 0.68230 0.69168 0.29854
 H3262 H 0.71460 0.66580 0.24058
 C3263 C 0.13971 0.08962 0.75819
 C3264 C 0.15384 0.10803 0.75942
 C3265 C 0.17114 0.11063 0.74358
 C3266 C 0.17431 0.09492 0.72714
 C3267 C 0.16005 0.07709 0.72582
 C3268 C 0.14253 0.07438 0.74105
 C3269 C 0.18463 0.12923 0.74389
 C3270 C 0.18083 0.14572 0.75944
 C3271 C 0.16398 0.14326 0.77563
 C3272 C 0.15067 0.12424 0.77567
 C3273 C 0.16042 0.16023 0.79099
 C3274 C 0.17271 0.17979 0.78960
 C3275 C 0.18873 0.18258 0.77286
 C3276 C 0.19313 0.16510 0.75834
 H3277 H 0.12614 0.08756 0.76994
 H3278 H 0.18752 0.09670 0.71496
 H3279 H 0.16251 0.06541 0.71265
 H3280 H 0.19763 0.13124 0.73151
 H3281 H 0.13748 0.12239 0.78786
 H3282 H 0.14767 0.15866 0.80363
 H3283 H 0.16903 0.19303 0.80098
 H3284 H 0.20572 0.16690 0.74555
 C3285 C 0.35312 0.07547 0.24562
 C3286 C 0.33755 0.09287 0.24312
 C3287 C 0.31800 0.09375 0.25656
 C3288 C 0.31410 0.07729 0.27187
 C3289 C 0.32978 0.06048 0.27454
 C3290 C 0.34947 0.05953 0.26173
 C3291 C 0.30297 0.11145 0.25511
 C3292 C 0.30740 0.12875 0.24089
 C3293 C 0.32656 0.12796 0.22706
 C3294 C 0.34146 0.10983 0.22807
 C3295 C 0.33075 0.14570 0.21306
 C3296 C 0.31670 0.16444 0.21362
 C3297 C 0.29826 0.16564 0.22814
 C3298 C 0.29336 0.14733 0.24112
 H3299 H 0.36840 0.07481 0.23579
 H3300 H 0.29919 0.07776 0.28222
 H3301 H 0.32672 0.04827 0.28692
 H3302 H 0.28820 0.11217 0.26570
 H3303 H 0.35638 0.10928 0.21773
 H3304 H 0.34528 0.14539 0.20222
 H3305 H 0.32083 0.17833 0.20346
 H3306 H 0.27897 0.14788 0.25218
 C3307 C 0.85268 0.57363 0.74900
 C3308 C 0.83880 0.59261 0.74846
 C3309 C 0.82096 0.59508 0.76382
 C3310 C 0.81675 0.57845 0.77887
 C3311 C 0.83071 0.55997 0.77950
 C3312 C 0.84903 0.55756 0.76498
 C3313 C 0.80803 0.61446 0.76451
 C3314 C 0.81281 0.63169 0.75028
 C3315 C 0.83005 0.62915 0.73437
 C3316 C 0.84291 0.60954 0.73347
 C3317 C 0.83445 0.64656 0.72008
 C3318 C 0.82254 0.66654 0.72215
 C3319 C 0.80611 0.66949 0.73863
 C3320 C 0.80103 0.65172 0.75227
 H3321 H 0.86688 0.57190 0.73784
 H3322 H 0.80307 0.58005 0.79064
 H3323 H 0.82760 0.54772 0.79183
 H3324 H 0.79468 0.61640 0.77662
 H3325 H 0.85645 0.60774 0.72157
 H3326 H 0.84749 0.64493 0.70766
 H3327 H 0.82678 0.67996 0.71143
 H3328 H 0.78820 0.65366 0.76489
 C3329 C 0.93273 0.76395 0.16311
 C3330 C 0.91176 0.75893 0.17230
 C3331 C 0.91015 0.74347 0.18917
 C3332 C 0.92958 0.73269 0.19599
 C3333 C 0.95048 0.73760 0.18660
 C3334 C 0.95251 0.75373 0.17036
 C3335 C 0.88922 0.73929 0.19907
 C3336 C 0.86991 0.75040 0.19222
 C3337 C 0.87154 0.76530 0.17480
 C3338 C 0.89240 0.76941 0.16493
 C3339 C 0.85234 0.77627 0.16779
 C3340 C 0.83178 0.77316 0.17839
 C3341 C 0.82994 0.75900 0.19625
 C3342 C 0.84909 0.74730 0.20281
 H3343 H 0.93336 0.77545 0.14982
 H3344 H 0.92869 0.72070 0.20886
 H3345 H 0.96510 0.72948 0.19298
 H3346 H 0.88802 0.72770 0.21229
 H3347 H 0.89362 0.78112 0.15180
 H3348 H 0.85330 0.78763 0.15438
 H3349 H 0.81740 0.78237 0.17288
 H3350 H 0.84798 0.73628 0.21649
 C3351 C 0.41690 0.24985 0.65787
 C3352 C 0.39709 0.24814 0.67015
 C3353 C 0.39803 0.24363 0.69250
 C3354 C 0.41890 0.24060 0.70206
 C3355 C 0.43867 0.24309 0.68977
 C3356 C 0.43779 0.24825 0.66769
 C3357 C 0.37816 0.24298 0.70499
 C3358 C 0.35753 0.24761 0.69550
 C3359 C 0.35670 0.25213 0.67312
 C3360 C 0.37644 0.25191 0.66052
 C3361 C 0.33620 0.25745 0.66382
 C3362 C 0.31672 0.25880 0.67665
 C3363 C 0.31738 0.25443 0.69890
 C3364 C 0.33779 0.24849 0.70817
 H3365 H 0.41602 0.25320 0.64071
 H3366 H 0.41994 0.23711 0.71916
 H3367 H 0.45459 0.24180 0.69771
 H3368 H 0.37881 0.23965 0.72218
 H3369 H 0.37582 0.25553 0.64338
 H3370 H 0.33531 0.26097 0.64670
 H3371 H 0.30109 0.26319 0.66915
 H3372 H 0.33844 0.24523 0.72537
 C3373 C 0.42081 0.73898 0.83217
 C3374 C 0.39972 0.73893 0.82287
 C3375 C 0.38045 0.73489 0.83592
 C3376 C 0.38268 0.73087 0.85807
 C3377 C 0.40383 0.73101 0.86724
 C3378 C 0.42300 0.73519 0.85438
 C3379 C 0.35930 0.73510 0.82663
 C3380 C 0.35722 0.73953 0.80454
 C3381 C 0.37654 0.74349 0.79152
 C3382 C 0.39768 0.74302 0.80074
 C3383 C 0.37434 0.74822 0.76953
 C3384 C 0.35316 0.74946 0.76057
 C3385 C 0.33384 0.74575 0.77342
 C3386 C 0.33606 0.74049 0.79537
 H3387 H 0.43559 0.74178 0.82207
 H3388 H 0.36809 0.72775 0.86830
 H3389 H 0.40519 0.72810 0.88442
 H3390 H 0.34447 0.73209 0.83662
 H3391 H 0.41251 0.74612 0.79078
 H3392 H 0.38898 0.75126 0.75933
 H3393 H 0.35190 0.75344 0.74360
 H3394 H 0.32129 0.73774 0.80550
 C3395 C 0.90996 0.23337 0.33316
 C3396 C 0.88834 0.23383 0.32491
 C3397 C 0.87083 0.22278 0.33591
 C3398 C 0.87525 0.21152 0.35500
 C3399 C 0.89687 0.21096 0.36306
 C3400 C 0.91469 0.22177 0.35226
 C3401 C 0.84923 0.22306 0.32758
 C3402 C 0.84497 0.23417 0.30830
 C3403 C 0.86250 0.24519 0.29725
 C3404 C 0.88407 0.24496 0.30564
 C3405 C 0.85816 0.25626 0.27799
 C3406 C 0.83662 0.25651 0.26976
 C3407 C 0.81901 0.24568 0.28064
 C3408 C 0.82340 0.23446 0.29991
 H3409 H 0.92324 0.24118 0.32390
 H3410 H 0.86197 0.20313 0.36375
 H3411 H 0.89926 0.20258 0.37822
 H3412 H 0.83579 0.21458 0.33604
 H3413 H 0.89752 0.25341 0.29715
 H3414 H 0.87142 0.26476 0.26931
 H3415 H 0.83376 0.26529 0.25487
 H3416 H 0.81004 0.22602 0.30851
 C3417 C 0.05765 0.25091 0.32962
 C3418 C 0.08026 0.24784 0.32366
 C3419 C 0.09707 0.25712 0.33649
 C3420 C 0.09103 0.26872 0.35538
 C3421 C 0.06852 0.27170 0.36120
 C3422 C 0.05164 0.26319 0.34818
 C3423 C 0.11961 0.25506 0.33002
 C3424 C 0.12555 0.24409 0.31073
 C3425 C 0.10882 0.23429 0.29819
 C3426 C 0.08628 0.23613 0.30479
 C3427 C 0.11490 0.22330 0.27894
 C3428 C 0.13722 0.22274 0.27175
 C3429 C 0.15387 0.23314 0.28371
 C3430 C 0.14792 0.24336 0.30347
 H3431 H 0.04474 0.24433 0.31948
 H3432 H 0.10370 0.27573 0.36552
 H3433 H 0.06429 0.28072 0.37591
 H3434 H 0.13246 0.26247 0.33969
 H3435 H 0.07341 0.22891 0.29500
 H3436 H 0.10233 0.21559 0.26919
 H3437 H 0.14131 0.21466 0.25648
 H3438 H 0.16058 0.25130 0.31296
 C3439 C 0.57632 0.77540 0.83974
 C3440 C 0.59638 0.76910 0.82917
 C3441 C 0.59594 0.75864 0.80869
 C3442 C 0.57526 0.75421 0.79940
 C3443 C 0.55528 0.76021 0.81026
 C3444 C 0.55573 0.77103 0.83036
 C3445 C 0.61613 0.75291 0.79786
 C3446 C 0.63671 0.75743 0.80734
 C3447 C 0.63697 0.76738 0.82809
 C3448 C 0.61686 0.77315 0.83883
 C3449 C 0.65738 0.77176 0.83769
 C3450 C 0.67743 0.76708 0.82660
 C3451 C 0.67753 0.75790 0.80564
 C3452 C 0.65704 0.75264 0.79626
 H3453 H 0.57664 0.78345 0.85544
 H3454 H 0.57455 0.74612 0.78378
 H3455 H 0.53945 0.75667 0.80288
 H3456 H 0.61583 0.74515 0.78204
 H3457 H 0.61715 0.78101 0.85462
 H3458 H 0.65786 0.77920 0.85364
 H3459 H 0.69292 0.77110 0.83438
 H3460 H 0.65687 0.74557 0.78014
 C3461 C 0.59718 0.22934 0.65540
 C3462 C 0.61688 0.23417 0.66614
 C3463 C 0.61570 0.24196 0.68773
 C3464 C 0.59472 0.24517 0.69803
 C3465 C 0.57512 0.24008 0.68725
 C3466 C 0.57623 0.23180 0.66599
 C3467 C 0.63550 0.24588 0.69879
 C3468 C 0.65640 0.24165 0.68865
 C3469 C 0.65749 0.23415 0.66694
 C3470 C 0.63774 0.23072 0.65576
 C3471 C 0.67833 0.22955 0.65695
 C3472 C 0.69791 0.23156 0.66856
 C3473 C 0.69703 0.23851 0.69029
 C3474 C 0.67622 0.24406 0.70009
 H3475 H 0.59816 0.22338 0.63884
 H3476 H 0.59348 0.25115 0.71456
 H3477 H 0.55914 0.24205 0.69574
 H3478 H 0.63463 0.25162 0.71543
 H3479 H 0.63860 0.22474 0.63919
 H3480 H 0.67945 0.22386 0.64031
 H3481 H 0.71376 0.22738 0.66059
 H3482 H 0.67535 0.24932 0.71687
 C3483 C 0.10113 0.73969 0.16112
 C3484 C 0.12319 0.73924 0.16835
 C3485 C 0.13411 0.71879 0.17165
 C3486 C 0.12266 0.69919 0.16824
 C3487 C 0.10076 0.69979 0.16104
 C3488 C 0.08998 0.71997 0.15706
 C3489 C 0.15632 0.71820 0.17825
 C3490 C 0.16766 0.73778 0.18202
 C3491 C 0.15668 0.75827 0.17920
 C3492 C 0.13457 0.75888 0.17212
 C3493 C 0.16790 0.77777 0.18400
 C3494 C 0.18951 0.77690 0.19214
 C3495 C 0.20041 0.75657 0.19483
 C3496 C 0.18960 0.73711 0.18932
 H3497 H 0.09293 0.75529 0.15792
 H3498 H 0.13072 0.68341 0.17089
 H3499 H 0.09229 0.68442 0.15826
 H3500 H 0.16470 0.70250 0.18069
 H3501 H 0.12617 0.77456 0.16978
 H3502 H 0.15973 0.79362 0.18206
 H3503 H 0.19765 0.79204 0.19657
 H3504 H 0.19783 0.72138 0.19192
   
