data_POSCAR
  _audit_creation_date              2014-09-24
  _audit_creation_method            'ToBaCCo'
  _symmetry_space_group_name_H-M    'P1'
  _symmetry_Int_Tables_number       1
  _symmetry_cell_setting            triclinic
  loop_
  _symmetry_equiv_pos_as_xyz
 x,y,z
_cell_length_a 54.6194
_cell_length_b 54.6582
_cell_length_c 54.6463
_cell_angle_alpha 89.817500
_cell_angle_beta 89.967100
_cell_angle_gamma 90.029300
loop_
  _atom_site_label
  _atom_site_type_symbol
  _atom_site_fract_x
  _atom_site_fract_y
  _atom_site_fract_z
C1 C 0.24122 0.95118 -0.02880
 C2 C 0.24019 0.93775 -0.00691
 C3 C 0.23693 0.94896 0.01578
 C4 C 0.23551 0.97475 0.01708
 C5 C 0.23828 0.98897 -0.00452
 C6 C 0.24060 0.97720 -0.02759
 C7 C 0.24325 0.99183 -0.04859
 C8 C 0.24228 1.01712 -0.04726
 C9 C 0.24127 1.02933 -0.02464
 C10 C 0.23869 1.01504 -0.00300
 C11 C 0.23055 0.98665 0.03923
 C12 C 0.23035 1.01201 0.04061
 C13 C 0.23587 1.02666 0.02009
 C14 C 0.23669 1.05264 0.02169
 C15 C 0.23842 1.06627 -0.00011
 C16 C 0.24121 1.05534 -0.02315
 H17 H 0.24623 0.98408 -0.06648
 H18 H 0.24212 1.02679 -0.06450
 H19 H 0.22633 0.97648 0.05571
 H20 H 0.22529 1.01997 0.05798
 H21 H 0.24080 0.91791 -0.00751
 H22 H 0.24009 1.08601 0.00103
 C23 C 0.73538 0.45218 0.47070
 C24 C 0.73256 0.43810 0.49189
 C25 C 0.73171 0.44875 0.51510
 C26 C 0.73345 0.47452 0.51728
 C27 C 0.73707 0.48903 0.49600
 C28 C 0.73775 0.47786 0.47260
 C29 C 0.74109 0.49261 0.45178
 C30 C 0.74352 0.51782 0.45382
 C31 C 0.74377 0.52927 0.47684
 C32 C 0.74021 0.51477 0.49814
 C33 C 0.73119 0.48621 0.54004
 C34 C 0.73414 0.51140 0.54213
 C35 C 0.73946 0.52595 0.52154
 C36 C 0.74325 0.55151 0.52358
 C37 C 0.74678 0.56549 0.50236
 C38 C 0.74694 0.55487 0.47911
 H39 H 0.74187 0.48488 0.43362
 H40 H 0.74522 0.52813 0.43701
 H41 H 0.72685 0.47604 0.55649
 H42 H 0.73194 0.51933 0.56010
 H43 H 0.73148 0.41835 0.49027
 H44 H 0.74965 0.58507 0.50395
 C45 C 0.75761 1.02225 1.04900
 C46 C 0.75472 0.99977 1.06091
 C47 C 0.74952 0.97812 1.04820
 C48 C 0.74749 0.97903 1.02224
 C49 C 0.75136 1.00162 1.00973
 C50 C 0.75657 1.02323 1.02314
 C51 C 0.76163 1.04499 1.01030
 C52 C 0.76108 1.04576 0.98485
 C53 C 0.75549 1.02479 0.97116
 C54 C 0.75092 1.00241 0.98367
 C55 C 0.74349 0.95782 1.00824
 C56 C 0.74212 0.95881 0.98291
 C57 C 0.74647 0.98071 0.97017
 C58 C 0.74662 0.98146 0.94427
 C59 C 0.75069 1.00373 0.93233
 C60 C 0.75518 1.02532 0.94524
 H61 H 0.76668 1.06158 1.01978
 H62 H 0.76558 1.06293 0.97603
 H63 H 0.74182 0.93994 1.01645
 H64 H 0.73798 0.94197 0.97348
 H65 H 0.75551 0.99932 1.08076
 H66 H 0.75074 1.00421 0.91248
 C67 C 0.24349 0.47678 0.54686
 C68 C 0.24780 0.49786 0.56057
 C69 C 0.25200 0.52057 0.54938
 C70 C 0.25269 0.52212 0.52346
 C71 C 0.24784 0.50091 0.50930
 C72 C 0.24285 0.47826 0.52107
 C73 C 0.23781 0.45758 0.50674
 C74 C 0.23789 0.45897 0.48136
 C75 C 0.24400 0.48085 0.46922
 C76 C 0.24858 0.50218 0.48330
 C77 C 0.25893 0.54398 0.51133
 C78 C 0.25968 0.54523 0.48587
 C79 C 0.25421 0.52468 0.47148
 C80 C 0.25492 0.52573 0.44557
 C81 C 0.25060 0.50444 0.43208
 C82 C 0.24543 0.48205 0.44338
 H83 H 0.23365 0.44005 0.51500
 H84 H 0.23313 0.44258 0.47141
 H85 H 0.26381 0.56027 0.52140
 H86 H 0.26500 0.56244 0.47761
 H87 H 0.24782 0.49651 0.58039
 H88 H 0.25147 0.50530 0.41225
 C89 C 0.95040 0.26288 -0.02463
 C90 C 0.93808 0.26224 -0.00208
 C91 C 0.95057 0.26090 0.02018
 C92 C 0.97644 0.25971 0.02028
 C93 C 0.98945 0.26079 -0.00215
 C94 C 0.97646 0.26335 -0.02454
 C95 C 0.98986 0.26861 -0.04586
 C96 C 1.01521 0.26824 -0.04587
 C97 C 1.02851 0.26247 -0.02458
 C98 C 1.01557 0.26008 -0.00216
 C99 C 0.98965 0.25789 0.04221
 C100 C 1.01506 0.25801 0.04226
 C101 C 1.02859 0.25814 0.02030
 C102 C 1.05470 0.25841 0.02016
 C103 C 1.06694 0.26046 -0.00238
 C104 C 1.05448 0.26148 -0.02481
 H105 H 0.98093 0.27396 -0.06270
 H106 H 1.02426 0.27337 -0.06272
 H107 H 0.98055 0.25677 0.05974
 H108 H 1.02374 0.25867 0.05997
 H109 H 0.91823 0.26194 -0.00169
 H110 H 1.08676 0.25910 -0.00255
 C111 C 0.55519 0.74027 0.52407
 C112 C 0.56769 0.74081 0.50170
 C113 C 0.55523 0.74259 0.47941
 C114 C 0.52939 0.74436 0.47938
 C115 C 0.51634 0.74329 0.50184
 C116 C 0.52925 0.74125 0.52428
 C117 C 0.51587 0.74086 0.54628
 C118 C 0.49042 0.74180 0.54626
 C119 C 0.47724 0.74429 0.52432
 C120 C 0.49034 0.74483 0.50186
 C121 C 0.51631 0.74811 0.45756
 C122 C 0.49093 0.74947 0.45757
 C123 C 0.47751 0.74712 0.47940
 C124 C 0.45162 0.74773 0.47943
 C125 C 0.43903 0.74745 0.50171
 C126 C 0.45133 0.74607 0.52413
 H127 H 0.52484 0.73987 0.56387
 H128 H 0.48125 0.74052 0.56375
 H129 H 0.52554 0.75040 0.44019
 H130 H 0.48201 0.75280 0.44022
 H131 H 0.58753 0.73977 0.50163
 H132 H 0.41919 0.74840 0.50157
 C133 C 0.02433 0.72092 -0.04944
 C134 C 0.00157 0.71983 -0.06128
 C135 C -0.02071 0.72473 -0.04943
 C136 C -0.02025 0.73073 -0.02406
 C137 C 0.00244 0.73062 -0.01119
 C138 C 0.02467 0.72530 -0.02379
 C139 C 0.04625 0.72244 -0.01004
 C140 C 0.04664 0.72671 0.01499
 C141 C 0.02537 0.73369 0.02755
 C142 C 0.00284 0.73493 0.01459
 C143 C -0.04183 0.73525 -0.01073
 C144 C -0.04120 0.74110 0.01397
 C145 C -0.01930 0.74005 0.02742
 C146 C -0.01865 0.74487 0.05308
 C147 C 0.00416 0.74466 0.06495
 C148 C 0.02584 0.73851 0.05294
 H149 H 0.06305 0.71608 -0.01832
 H150 H 0.06384 0.72413 0.02444
 H151 H -0.05972 0.73411 -0.01898
 H152 H -0.05832 0.74637 0.02230
 H153 H 0.00122 0.71721 -0.08095
 H154 H 0.00501 0.74775 0.08454
 C155 C 0.52438 0.22402 0.44649
 C156 C 0.50203 0.22521 0.43407
 C157 C 0.47974 0.22761 0.44642
 C158 C 0.47973 0.22986 0.47225
 C159 C 0.50223 0.22842 0.48525
 C160 C 0.52456 0.22493 0.47238
 C161 C 0.54628 0.22159 0.48575
 C162 C 0.54636 0.22278 0.51118
 C163 C 0.52476 0.22761 0.52429
 C164 C 0.50236 0.22994 0.51125
 C165 C 0.45790 0.23297 0.48549
 C166 C 0.45814 0.23548 0.51080
 C167 C 0.48006 0.23360 0.52413
 C168 C 0.48040 0.23546 0.54997
 C169 C 0.50266 0.23344 0.56242
 C170 C 0.52477 0.22945 0.55014
 H171 H 0.56343 0.21756 0.47673
 H172 H 0.56357 0.21965 0.52042
 H173 H 0.44031 0.23363 0.47649
 H174 H 0.44082 0.23877 0.51977
 H175 H 0.50195 0.22426 0.41424
 H176 H 0.50278 0.23493 0.58222
 C177 C 0.94793 -0.01735 0.23399
 C178 C 0.93588 0.00464 0.23883
 C179 C 0.94867 0.02597 0.24481
 C180 C 0.97454 0.02539 0.24629
 C181 C 0.98716 0.00337 0.24088
 C182 C 0.97382 -0.01795 0.23432
 C183 C 0.98672 -0.03923 0.22799
 C184 C 1.01201 -0.04026 0.23010
 C185 C 1.02546 -0.01995 0.23827
 C186 C 1.01314 0.00246 0.24258
 C187 C 0.98803 0.04582 0.25400
 C188 C 1.01347 0.04493 0.25567
 C189 C 1.02662 0.02373 0.24919
 C190 C 1.05268 0.02252 0.25091
 C191 C 1.06408 -0.00040 0.24800
 C192 C 1.05096 -0.02147 0.24201
 H193 H 0.97739 -0.05536 0.22137
 H194 H 1.02093 -0.05720 0.22513
 H195 H 0.97900 0.06258 0.25939
 H196 H 1.02257 0.06089 0.26294
 H197 H 0.91603 0.00508 0.23841
 H198 H 1.08381 -0.00192 0.24959
 C199 C 0.44610 0.47885 0.73047
 C200 C 0.43386 0.50071 0.73546
 C201 C 0.44648 0.52208 0.74167
 C202 C 0.47237 0.52168 0.74312
 C203 C 0.48512 0.49971 0.73773
 C204 C 0.47197 0.47836 0.73099
 C205 C 0.48502 0.45718 0.72462
 C206 C 0.51034 0.45633 0.72662
 C207 C 0.52365 0.47673 0.73475
 C208 C 0.51108 0.49894 0.73943
 C209 C 0.48580 0.54231 0.75052
 C210 C 0.51127 0.54159 0.75201
 C211 C 0.52434 0.52022 0.74616
 C212 C 0.55027 0.51923 0.74751
 C213 C 0.56221 0.49687 0.74369
 C214 C 0.54929 0.47556 0.73795
 H215 H 0.47581 0.44100 0.71794
 H216 H 0.51939 0.43951 0.72146
 H217 H 0.47672 0.55915 0.75555
 H218 H 0.52054 0.55789 0.75828
 H219 H 0.41400 0.50099 0.73494
 H220 H 0.58197 0.49594 0.74545
 C221 C 1.01945 0.94650 0.77920
 C222 C 0.99630 0.93531 0.77952
 C223 C 0.97465 0.94858 0.77700
 C224 C 0.97570 0.97438 0.77544
 C225 C 0.99872 0.98649 0.77577
 C226 C 1.02071 0.97255 0.77723
 C227 C 1.04310 0.98519 0.77776
 C228 C 1.04412 1.01047 0.77506
 C229 C 1.02273 1.02483 0.77426
 C230 C 0.99968 1.01263 0.77459
 C231 C 0.95427 0.98834 0.77356
 C232 C 0.95524 1.01356 0.77133
 C233 C 0.97755 1.02635 0.77284
 C234 C 0.97843 1.05231 0.77089
 C235 C 1.00141 1.06370 0.76958
 C236 C 1.02360 1.05081 0.77156
 H237 H 1.06031 0.97580 0.78023
 H238 H 1.06213 1.01837 0.77331
 H239 H 0.93634 0.97997 0.77358
 H240 H 0.93808 1.02271 0.76787
 H241 H 0.99504 0.91549 0.77994
 H242 H 1.00205 1.08354 0.76906
 C243 C 0.52042 0.44955 0.27740
 C244 C 0.49754 0.43816 0.27615
 C245 C 0.47574 0.45153 0.27584
 C246 C 0.47672 0.47738 0.27724
 C247 C 0.49979 0.48938 0.27826
 C248 C 0.52175 0.47544 0.27816
 C249 C 0.54431 0.48776 0.27909
 C250 C 0.54540 0.51321 0.27931
 C251 C 0.52396 0.52744 0.27983
 C252 C 0.50089 0.51538 0.27946
 C253 C 0.45528 0.49152 0.27794
 C254 C 0.45635 0.51690 0.27860
 C255 C 0.47890 0.52926 0.27964
 C256 C 0.48007 0.55514 0.28025
 C257 C 0.50292 0.56667 0.28046
 C258 C 0.52484 0.55339 0.28010
 H259 H 0.56145 0.47788 0.27949
 H260 H 0.56334 0.52153 0.27907
 H261 H 0.43734 0.48318 0.27800
 H262 H 0.43915 0.52663 0.27817
 H263 H 0.49671 0.41836 0.27493
 H264 H 0.50366 0.58651 0.28073
 O265 O 0.24820 0.18923 0.21181
 O266 O 0.27424 0.17873 0.24634
 O267 O 0.18535 0.22029 0.24542
 O268 O 0.17693 0.25117 0.27064
 O269 O 0.22175 0.25820 0.18500
 O270 O 0.25859 0.28130 0.18142
 O271 O 0.24932 0.28091 0.31492
 O272 O 0.21864 0.24937 0.31777
 O273 O 0.31198 0.24361 0.28702
 O274 O 0.32007 0.21939 0.25213
 O275 O 0.28780 0.31142 0.25704
 O276 O 0.25549 0.32201 0.22627
 O277 O 0.25169 0.31162 0.28683
 O278 O 0.22800 0.32273 0.25071
 O279 O 0.31497 0.28005 0.26000
 O280 O 0.32040 0.24970 0.22460
 O281 O 0.28122 0.24804 0.31480
 O282 O 0.24967 0.22010 0.31960
 O283 O 0.25175 0.22067 0.18465
 O284 O 0.28302 0.25194 0.18185
 O285 O 0.18998 0.25573 0.21186
 O286 O 0.18352 0.28283 0.24738
 O287 O 0.21318 0.18937 0.24601
 O288 O 0.24749 0.17755 0.27193
 Zr289 Zr 0.24754 0.20673 0.24638
 O290 O 0.26979 0.22512 0.27186
 Zr291 Zr 0.20709 0.25211 0.24636
 O292 O 0.22779 0.27243 0.27177
 Zr293 Zr 0.25304 0.25217 0.20636
 O294 O 0.27570 0.27243 0.22991
 Zr295 Zr 0.24893 0.24885 0.29361
 O296 O 0.22582 0.22800 0.27027
 Zr297 Zr 0.29427 0.24830 0.25332
 O298 O 0.27389 0.22770 0.22765
 Zr299 Zr 0.25372 0.29386 0.25293
 O300 O 0.23110 0.27569 0.22738
 O301 O 0.22753 0.22972 0.22367
 O302 O 0.27403 0.27129 0.27597
 C303 C 0.24951 0.19786 0.18988
 C304 C 0.19111 0.19749 0.24589
 C305 C 0.19883 0.25856 0.19020
 C306 C 0.25022 0.30366 0.30890
 C307 C 0.30390 0.24526 0.30902
 C308 C 0.30947 0.30288 0.26032
 H309 H 0.27833 0.21293 0.28219
 H310 H 0.28739 0.28237 0.22026
 H311 H 0.21677 0.22067 0.21228
 H312 H 0.21663 0.28244 0.28187
 H313 H 0.20718 0.23655 0.31211
 H314 H 0.18252 0.25820 0.28632
 H315 H 0.33622 0.25540 0.23142
 H316 H 0.29401 0.23857 0.18721
 H317 H 0.23883 0.20713 0.31325
 H318 H 0.23390 0.18050 0.28350
 H319 H 0.27039 0.31940 0.21632
 H320 H 0.24834 0.29504 0.18722
 H321 H 0.28713 0.18380 0.23461
 H322 H 0.31308 0.20544 0.26133
 H323 H 0.18964 0.29463 0.23503
 H324 H 0.21431 0.31872 0.26189
 O325 O 0.75557 0.81413 0.21128
 O326 O 0.72911 0.82561 0.24546
 O327 O 0.81698 0.78333 0.24794
 O328 O 0.82503 0.75204 0.27253
 O329 O 0.78367 0.74625 0.18540
 O330 O 0.74780 0.72189 0.18098
 O331 O 0.74779 0.72505 0.31516
 O332 O 0.77998 0.75402 0.31929
 O333 O 0.68851 0.75712 0.28443
 O334 O 0.68320 0.78525 0.25320
 O335 O 0.71405 0.69246 0.25639
 O336 O 0.74724 0.68063 0.22862
 O337 O 0.74797 0.69321 0.28845
 O338 O 0.77499 0.68195 0.25300
 O339 O 0.68644 0.72346 0.25334
 O340 O 0.68285 0.75472 0.22122
 O341 O 0.71896 0.76050 0.31269
 O342 O 0.75528 0.78595 0.31751
 O343 O 0.75188 0.78331 0.18358
 O344 O 0.72204 0.75022 0.18021
 O345 O 0.81381 0.74811 0.21410
 O346 O 0.81806 0.72014 0.24990
 O347 O 0.78926 0.81420 0.24448
 O348 O 0.75627 0.82515 0.27179
 Zr349 Zr 0.75500 0.79683 0.24554
 O350 O 0.73126 0.77899 0.26993
 Zr351 Zr 0.79529 0.75142 0.24776
 O352 O 0.77352 0.73182 0.27300
 Zr353 Zr 0.75118 0.75141 0.20564
 O354 O 0.72780 0.73126 0.22891
 Zr355 Zr 0.75163 0.75613 0.29303
 O356 O 0.77595 0.77599 0.27033
 Zr357 Zr 0.70776 0.75537 0.25100
 O358 O 0.72927 0.77592 0.22587
 Zr359 Zr 0.74836 0.71007 0.25366
 O360 O 0.77185 0.72787 0.22826
 O361 O 0.77588 0.77373 0.22390
 O362 O 0.72713 0.73313 0.27517
 C363 C 0.75419 0.80601 0.18933
 C364 C 0.81128 0.80609 0.24596
 C365 C 0.80631 0.74597 0.19190
 C366 C 0.74698 0.70215 0.31016
 C367 C 0.69629 0.75974 0.30651
 C368 C 0.69204 0.70073 0.25537
 H369 H 0.72177 0.79140 0.27903
 H370 H 0.71675 0.72115 0.21877
 H371 H 0.78687 0.78281 0.21269
 H372 H 0.78400 0.72200 0.28402
 H373 H 0.79363 0.76418 0.31300
 H374 H 0.81930 0.74458 0.28801
 H375 H 0.66605 0.75309 0.22794
 H376 H 0.71068 0.76359 0.18464
 H377 H 0.74329 0.79865 0.31275
 H378 H 0.76836 0.82008 0.28432
 H379 H 0.73470 0.68450 0.21616
 H380 H 0.75767 0.70833 0.18786
 H381 H 0.71733 0.82218 0.23216
 H382 H 0.68657 0.79582 0.23887
 H383 H 0.81266 0.70876 0.23691
 H384 H 0.78676 0.68509 0.26638
 O385 O 0.75463 0.19230 0.78344
 O386 O 0.73054 0.18192 0.74723
 O387 O 0.81835 0.22393 0.75093
 O388 O 0.82622 0.25731 0.72532
 O389 O 0.78176 0.26001 0.81192
 O390 O 0.74580 0.28357 0.81571
 O391 O 0.75407 0.28541 0.68197
 O392 O 0.78503 0.25192 0.67760
 O393 O 0.69220 0.24929 0.70901
 O394 O 0.68505 0.22304 0.74063
 O395 O 0.71773 0.31537 0.73781
 O396 O 0.74832 0.32587 0.77000
 O397 O 0.75407 0.31595 0.71013
 O398 O 0.77757 0.32563 0.74748
 O399 O 0.68911 0.28513 0.73753
 O400 O 0.68325 0.25493 0.77112
 O401 O 0.72349 0.25077 0.68147
 O402 O 0.76040 0.22428 0.67743
 O403 O 0.74959 0.22273 0.81130
 O404 O 0.72020 0.25564 0.81415
 O405 O 0.81377 0.25888 0.78525
 O406 O 0.82167 0.28559 0.75038
 O407 O 0.79082 0.19270 0.75150
 O408 O 0.75905 0.18310 0.72240
 Zr409 Zr 0.75654 0.21051 0.74950
 O410 O 0.73417 0.22948 0.72441
 Zr411 Zr 0.79698 0.25577 0.75062
 O412 O 0.77688 0.27632 0.72495
 Zr413 Zr 0.75059 0.25502 0.79016
 O414 O 0.72869 0.27616 0.76653
 Zr415 Zr 0.75566 0.25301 0.70288
 O416 O 0.77856 0.23218 0.72637
 Zr417 Zr 0.70979 0.25280 0.74283
 O418 O 0.72981 0.23119 0.76822
 Zr419 Zr 0.75111 0.29758 0.74375
 O420 O 0.77290 0.27894 0.76962
 O421 O 0.77627 0.23290 0.77288
 O422 O 0.73065 0.27556 0.72037
 C423 C 0.75162 0.20007 0.80541
 C424 C 0.81284 0.20110 0.75117
 C425 C 0.80471 0.26101 0.80689
 C426 C 0.75406 0.30811 0.68804
 C427 C 0.70063 0.24914 0.68706
 C428 C 0.69565 0.30769 0.73572
 H429 H 0.72514 0.21739 0.71445
 H430 H 0.71712 0.28619 0.77615
 H431 H 0.78658 0.22353 0.78448
 H432 H 0.78829 0.28646 0.71519
 H433 H 0.79539 0.26648 0.68041
 H434 H 0.82098 0.24762 0.71098
 H435 H 0.66695 0.25689 0.76335
 H436 H 0.70871 0.24289 0.80839
 H437 H 0.74754 0.21193 0.68062
 H438 H 0.77110 0.18901 0.71020
 H439 H 0.73322 0.32316 0.77964
 H440 H 0.75501 0.29778 0.80922
 H441 H 0.71760 0.18552 0.75935
 H442 H 0.68730 0.21320 0.75568
 H443 H 0.81519 0.29778 0.76206
 H444 H 0.79080 0.32240 0.73555
 O445 O 0.24757 0.81116 0.78397
 O446 O 0.27441 0.81751 0.74568
 O447 O 0.18277 0.78157 0.75479
 O448 O 0.17256 0.75093 0.72916
 O449 O 0.21846 0.74694 0.81469
 O450 O 0.25312 0.71949 0.81736
 O451 O 0.24138 0.71635 0.68435
 O452 O 0.21258 0.74792 0.68101
 O453 O 0.30692 0.74999 0.70900
 O454 O 0.31445 0.77900 0.73888
 O455 O 0.28173 0.68664 0.74444
 O456 O 0.24851 0.67776 0.77402
 O457 O 0.24734 0.68661 0.71291
 O458 O 0.22135 0.67716 0.74913
 O459 O 0.31006 0.71675 0.73948
 O460 O 0.31750 0.74775 0.77079
 O461 O 0.27484 0.74753 0.68251
 O462 O 0.24363 0.77745 0.67837
 O463 O 0.25347 0.78090 0.81195
 O464 O 0.27966 0.74668 0.81629
 O465 O 0.18676 0.74513 0.78777
 O466 O 0.17783 0.71930 0.75339
 O467 O 0.21150 0.81131 0.74970
 O468 O 0.24198 0.82312 0.72664
 Zr469 Zr 0.24503 0.79255 0.75021
 O470 O 0.26575 0.77251 0.72465
 Zr471 Zr 0.20299 0.74879 0.75302
 O472 O 0.22217 0.72675 0.72785
 Zr473 Zr 0.24966 0.74854 0.79194
 O474 O 0.27100 0.72689 0.76839
 Zr475 Zr 0.24329 0.74888 0.70460
 O476 O 0.22184 0.77130 0.72779
 Zr477 Zr 0.28994 0.74928 0.74347
 O478 O 0.27107 0.77136 0.76922
 Zr479 Zr 0.24801 0.70521 0.74661
 O480 O 0.22661 0.72502 0.77211
 O481 O 0.22473 0.77136 0.77448
 O482 O 0.26827 0.72627 0.72225
 C483 C 0.25180 0.80352 0.80584
 C484 C 0.18927 0.80409 0.75239
 C485 C 0.19557 0.74487 0.80958
 C486 C 0.24421 0.69390 0.69073
 C487 C 0.29788 0.74828 0.68736
 C488 C 0.30380 0.69416 0.74117
 H489 H 0.27470 0.78383 0.71365
 H490 H 0.28249 0.71700 0.77831
 H491 H 0.21495 0.78135 0.78597
 H492 H 0.21051 0.71670 0.71838
 H493 H 0.20107 0.76061 0.68685
 H494 H 0.17674 0.74160 0.71426
 H495 H 0.33355 0.74622 0.76245
 H496 H 0.29277 0.75691 0.80906
 H497 H 0.23148 0.78968 0.68385
 H498 H 0.24553 0.81718 0.70995
 H499 H 0.26226 0.68145 0.78519
 H500 H 0.24058 0.70718 0.81296
 H501 H 0.28420 0.81721 0.76091
 H502 H 0.31370 0.78877 0.75407
 H503 H 0.18512 0.70630 0.76372
 H504 H 0.20878 0.68030 0.73649
 O505 O 0.25471 0.30996 0.70512
 O506 O 0.22948 0.32316 0.73967
 O507 O 0.31626 0.27866 0.74183
 O508 O 0.32404 0.24781 0.76703
 O509 O 0.28077 0.24075 0.68098
 O510 O 0.24424 0.21680 0.67824
 O511 O 0.24743 0.22441 0.81211
 O512 O 0.28047 0.25277 0.81434
 O513 O 0.18815 0.25785 0.78166
 O514 O 0.18291 0.28450 0.74938
 O515 O 0.21117 0.19084 0.75472
 O516 O 0.24348 0.17722 0.72717
 O517 O 0.24569 0.19177 0.78646
 O518 O 0.27176 0.17864 0.75084
 O519 O 0.18442 0.22260 0.75198
 O520 O 0.18080 0.25260 0.71884
 O521 O 0.21941 0.26053 0.80907
 O522 O 0.25624 0.28501 0.81245
 O523 O 0.24953 0.27826 0.67867
 O524 O 0.21918 0.24568 0.67688
 O525 O 0.31148 0.24276 0.70908
 O526 O 0.31576 0.21554 0.74539
 O527 O 0.28931 0.31010 0.73744
 O528 O 0.25741 0.32291 0.76514
 Zr529 Zr 0.25466 0.29376 0.73995
 O530 O 0.23113 0.27734 0.76549
 Zr531 Zr 0.29375 0.24734 0.74291
 O532 O 0.27208 0.22909 0.76919
 Zr533 Zr 0.24879 0.24711 0.70174
 O534 O 0.22538 0.22845 0.72617
 Zr535 Zr 0.25140 0.25466 0.78885
 O536 O 0.27560 0.27318 0.76499
 Zr537 Zr 0.20651 0.25381 0.74792
 O538 O 0.22796 0.27286 0.72158
 Zr539 Zr 0.24588 0.20747 0.75113
 O540 O 0.26931 0.22379 0.72469
 O541 O 0.27443 0.26939 0.71870
 O542 O 0.22580 0.23179 0.77238
 C543 C 0.25241 0.30109 0.68354
 C544 C 0.31111 0.30145 0.73902
 C545 C 0.30351 0.24028 0.68711
 C546 C 0.24570 0.20139 0.80790
 C547 C 0.19660 0.26081 0.80345
 C548 C 0.18938 0.19972 0.75410
 H549 H 0.22223 0.29032 0.77438
 H550 H 0.21383 0.21835 0.71660
 H551 H 0.28532 0.27790 0.70697
 H552 H 0.28255 0.21933 0.78027
 H553 H 0.29409 0.26255 0.80741
 H554 H 0.31849 0.24084 0.78281
 H555 H 0.16414 0.25185 0.72605
 H556 H 0.20797 0.25919 0.68133
 H557 H 0.24485 0.29807 0.80723
 H558 H 0.26960 0.31789 0.77759
 H559 H 0.23126 0.18130 0.71444
 H560 H 0.25435 0.20342 0.68513
 H561 H 0.21733 0.31969 0.72671
 H562 H 0.18608 0.29424 0.73443
 H563 H 0.30973 0.20394 0.73288
 H564 H 0.28384 0.18184 0.76393
 O565 O 0.74763 0.68510 0.71766
 O566 O 0.77375 0.67500 0.75223
 O567 O 0.68480 0.71640 0.75109
 O568 O 0.67671 0.74714 0.77686
 O569 O 0.72025 0.75370 0.69041
 O570 O 0.75705 0.77698 0.68625
 O571 O 0.74939 0.77784 0.81978
 O572 O 0.71874 0.74622 0.82330
 O573 O 0.81176 0.74046 0.79163
 O574 O 0.81947 0.71582 0.75673
 O575 O 0.78702 0.80784 0.76112
 O576 O 0.75436 0.81805 0.73067
 O577 O 0.75122 0.80825 0.79132
 O578 O 0.72713 0.81892 0.75537
 O579 O 0.81432 0.77659 0.76433
 O580 O 0.81951 0.74604 0.72910
 O581 O 0.78128 0.74491 0.81971
 O582 O 0.74984 0.71710 0.82515
 O583 O 0.75037 0.71632 0.69011
 O584 O 0.78156 0.74759 0.68663
 O585 O 0.68887 0.75125 0.71777
 O586 O 0.68273 0.77884 0.75298
 O587 O 0.71261 0.68544 0.75185
 O588 O 0.74701 0.67409 0.77801
 Zr589 Zr 0.74697 0.70293 0.75207
 O590 O 0.76946 0.72165 0.77710
 Zr591 Zr 0.70644 0.74821 0.75205
 O592 O 0.72734 0.76885 0.77700
 Zr593 Zr 0.75188 0.74803 0.71148
 O594 O 0.77476 0.76856 0.73459
 Zr595 Zr 0.74877 0.74553 0.79884
 O596 O 0.72545 0.72437 0.77598
 Zr597 Zr 0.79366 0.74473 0.75806
 O598 O 0.77303 0.72383 0.73282
 Zr599 Zr 0.75296 0.79015 0.75761
 O600 O 0.73009 0.77169 0.73251
 O601 O 0.72671 0.72568 0.72936
 O602 O 0.77359 0.76789 0.78068
 C603 C 0.74851 0.69355 0.69563
 C604 C 0.69055 0.69361 0.75147
 C605 C 0.69740 0.75379 0.69596
 C606 C 0.75009 0.80052 0.81348
 C607 C 0.80392 0.74218 0.81372
 C608 C 0.80872 0.79941 0.76438
 H609 H 0.77815 0.70959 0.78745
 H610 H 0.78632 0.77843 0.72472
 H611 H 0.71592 0.71648 0.71813
 H612 H 0.71626 0.77894 0.78712
 H613 H 0.70727 0.73328 0.81791
 H614 H 0.68230 0.75487 0.79221
 H615 H 0.83540 0.75177 0.73575
 H616 H 0.79269 0.73437 0.69208
 H617 H 0.73920 0.70392 0.81891
 H618 H 0.73330 0.67707 0.78945
 H619 H 0.76910 0.81532 0.72051
 H620 H 0.74669 0.79068 0.69194
 H621 H 0.78659 0.68001 0.74044
 H622 H 0.81282 0.70209 0.76650
 H623 H 0.68862 0.79049 0.74038
 H624 H 0.71354 0.81495 0.76669
 O625 O 0.25554 0.69476 0.28627
 O626 O 0.23048 0.68528 0.25027
 O627 O 0.31949 0.72492 0.25258
 O628 O 0.32773 0.75847 0.22714
 O629 O 0.28498 0.76174 0.31457
 O630 O 0.24954 0.78613 0.31902
 O631 O 0.25583 0.78842 0.18526
 O632 O 0.28595 0.75403 0.18039
 O633 O 0.19345 0.75379 0.21294
 O634 O 0.18624 0.72724 0.24447
 O635 O 0.22083 0.81886 0.24193
 O636 O 0.25235 0.82841 0.27365
 O637 O 0.25665 0.81881 0.21354
 O638 O 0.28106 0.82777 0.25040
 O639 O 0.19158 0.78923 0.24191
 O640 O 0.18552 0.75898 0.27526
 O641 O 0.22439 0.75459 0.18499
 O642 O 0.26036 0.72729 0.18012
 O643 O 0.25183 0.72517 0.31437
 O644 O 0.22335 0.75877 0.31790
 O645 O 0.31644 0.75940 0.28728
 O646 O 0.32436 0.78650 0.25272
 O647 O 0.29114 0.69442 0.25402
 O648 O 0.25893 0.68568 0.22520
 Zr649 Zr 0.25734 0.71309 0.25237
 O650 O 0.23513 0.73271 0.22767
 Zr651 Zr 0.29893 0.75731 0.25297
 O652 O 0.27894 0.77855 0.22779
 Zr653 Zr 0.25325 0.75754 0.29334
 O654 O 0.23143 0.77925 0.27014
 Zr655 Zr 0.25687 0.75585 0.20595
 O656 O 0.27954 0.73428 0.22896
 Zr657 Zr 0.21161 0.75647 0.24659
 O658 O 0.23148 0.73433 0.27164
 Zr659 Zr 0.25395 0.80030 0.24711
 O660 O 0.27577 0.78099 0.27249
 O661 O 0.27802 0.73488 0.27549
 O662 O 0.23265 0.77887 0.22394
 C663 C 0.25318 0.70249 0.30834
 C664 C 0.31334 0.70225 0.25321
 C665 C 0.30786 0.76177 0.30908
 C666 C 0.25626 0.81109 0.19141
 C667 C 0.20157 0.75360 0.19086
 C668 C 0.19855 0.81166 0.24017
 H669 H 0.22566 0.72092 0.21776
 H670 H 0.22024 0.78948 0.27999
 H671 H 0.28826 0.72517 0.28688
 H672 H 0.29042 0.78848 0.21790
 H673 H 0.29651 0.76852 0.18286
 H674 H 0.32213 0.74880 0.21292
 H675 H 0.16915 0.76122 0.26773
 H676 H 0.21137 0.74646 0.31219
 H677 H 0.24751 0.71503 0.18371
 H678 H 0.27087 0.69141 0.21281
 H679 H 0.23730 0.82606 0.28346
 H680 H 0.25913 0.80008 0.31252
 H681 H 0.21804 0.68892 0.26290
 H682 H 0.18839 0.71730 0.25948
 H683 H 0.31831 0.79875 0.26459
 H684 H 0.29413 0.82413 0.23842
 O685 O 0.74813 0.31485 0.28063
 O686 O 0.77519 0.32108 0.24245
 O687 O 0.68410 0.28382 0.25208
 O688 O 0.67438 0.25285 0.22663
 O689 O 0.72032 0.25068 0.31219
 O690 O 0.75530 0.22379 0.31534
 O691 O 0.74371 0.21872 0.18228
 O692 O 0.71446 0.24972 0.17852
 O693 O 0.80866 0.25379 0.20659
 O694 O 0.81586 0.28301 0.23614
 O695 O 0.78441 0.19033 0.24295
 O696 O 0.75128 0.18123 0.27232
 O697 O 0.75022 0.18941 0.21117
 O698 O 0.72414 0.18007 0.24752
 O699 O 0.81236 0.22073 0.23757
 O700 O 0.81930 0.25227 0.26840
 O701 O 0.77665 0.25056 0.18008
 O702 O 0.74494 0.27975 0.17557
 O703 O 0.75493 0.28511 0.30899
 O704 O 0.78152 0.25120 0.31382
 O705 O 0.68871 0.24772 0.28525
 O706 O 0.68009 0.22152 0.25117
 O707 O 0.71232 0.31388 0.24610
 O708 O 0.74285 0.32599 0.22322
 Zr709 Zr 0.74617 0.29573 0.24715
 O710 O 0.76722 0.27567 0.22191
 Zr711 Zr 0.70483 0.25136 0.25050
 O712 O 0.72432 0.22931 0.22561
 Zr713 Zr 0.75149 0.25238 0.28946
 O714 O 0.77309 0.23069 0.26621
 Zr715 Zr 0.74511 0.25149 0.20213
 O716 O 0.72330 0.27386 0.22500
 Zr717 Zr 0.79174 0.25304 0.24104
 O718 O 0.77254 0.27522 0.26645
 Zr719 Zr 0.75045 0.20841 0.24467
 O720 O 0.72880 0.22824 0.26992
 O721 O 0.72620 0.27455 0.27168
 O722 O 0.77045 0.22946 0.22005
 C723 C 0.75265 0.30759 0.30257
 C724 C 0.69025 0.30636 0.24916
 C725 C 0.69751 0.24801 0.30705
 C726 C 0.74692 0.19639 0.18892
 C727 C 0.79965 0.25187 0.18496
 C728 C 0.80640 0.19808 0.23969
 H729 H 0.77599 0.28701 0.21080
 H730 H 0.78470 0.22111 0.27629
 H731 H 0.71624 0.28453 0.28304
 H732 H 0.71281 0.21898 0.21626
 H733 H 0.70273 0.26228 0.18419
 H734 H 0.67867 0.24337 0.21185
 H735 H 0.83539 0.25084 0.26010
 H736 H 0.79446 0.26158 0.30649
 H737 H 0.73262 0.29186 0.18094
 H738 H 0.74645 0.31989 0.20660
 H739 H 0.76475 0.18541 0.28367
 H740 H 0.74299 0.21121 0.31107
 H741 H 0.78488 0.32113 0.25775
 H742 H 0.81485 0.29304 0.25114
 H743 H 0.68761 0.20870 0.26155
 H744 H 0.71173 0.18268 0.23460
 C745 C 0.25434 0.07174 0.08511
 C746 C 0.24193 0.09431 0.08764
 C747 C 0.22734 0.10232 0.06773
 C748 C 0.22489 0.08797 0.04666
 C749 C 0.23735 0.06561 0.04421
 C750 C 0.25229 0.05789 0.06373
 C751 C 0.21550 0.12486 0.06867
 C752 C 0.21871 0.14028 0.08848
 C753 C 0.23355 0.13350 0.10852
 C754 C 0.24412 0.10958 0.10879
 C755 C 0.25623 0.10172 0.13026
 C756 C 0.25866 0.11702 0.15045
 C757 C 0.24997 0.14103 0.14973
 C758 C 0.23778 0.14975 0.12849
 C759 C 0.23089 0.17465 0.12781
 C760 C 0.23518 0.18994 0.14764
 C761 C 0.24629 0.18107 0.16898
 C762 C 0.25358 0.15650 0.17001
 H763 H 0.26668 0.06482 0.09887
 H764 H 0.21307 0.09432 0.03201
 H765 H 0.26341 0.04157 0.06211
 H766 H 0.20399 0.13090 0.05367
 H767 H 0.20873 0.15727 0.08781
 H768 H 0.26351 0.08350 0.13227
 H769 H 0.26787 0.11013 0.16662
 H770 H 0.22275 0.18313 0.11196
 H771 H 0.22939 0.20886 0.14633
 H772 H 0.26249 0.14959 0.18635
 C773 C 0.76212 0.57151 0.58732
 C774 C 0.74685 0.59205 0.59137
 C775 C 0.73012 0.59857 0.57258
 C776 C 0.72845 0.58466 0.55114
 C777 C 0.74375 0.56451 0.54742
 C778 C 0.76072 0.55818 0.56555
 C779 C 0.71541 0.61921 0.57502
 C780 C 0.71765 0.63432 0.59521
 C781 C 0.73443 0.62905 0.61414
 C782 C 0.74815 0.60682 0.61294
 C783 C 0.76247 0.60007 0.63340
 C784 C 0.76412 0.61502 0.65391
 C785 C 0.75234 0.63767 0.65451
 C786 C 0.73771 0.64519 0.63438
 C787 C 0.72757 0.66897 0.63496
 C788 C 0.73141 0.68432 0.65483
 C789 C 0.74518 0.67656 0.67500
 C790 C 0.75542 0.65307 0.67492
 H791 H 0.77596 0.56584 0.60018
 H792 H 0.71554 0.58982 0.53695
 H793 H 0.77321 0.54307 0.56268
 H794 H 0.70232 0.62405 0.56089
 H795 H 0.70545 0.64979 0.59573
 H796 H 0.77221 0.58295 0.63433
 H797 H 0.77520 0.60903 0.66924
 H798 H 0.71725 0.67662 0.61999
 H799 H 0.72332 0.70242 0.65449
 H800 H 0.76638 0.64713 0.69037
 C801 C 0.72568 0.91921 0.07397
 C802 C 0.74443 0.91262 0.09068
 C803 C 0.76454 0.92886 0.09302
 C804 C 0.76578 0.95040 0.07912
 C805 C 0.74754 0.95628 0.06204
 C806 C 0.72724 0.94068 0.06004
 C807 C 0.78349 0.92363 0.10920
 C808 C 0.78297 0.90269 0.12348
 C809 C 0.76331 0.88595 0.12222
 C810 C 0.74384 0.89080 0.10534
 C811 C 0.72445 0.87374 0.10381
 C812 C 0.72359 0.85315 0.11881
 C813 C 0.74198 0.84860 0.13591
 C814 C 0.76231 0.86474 0.13762
 C815 C 0.78056 0.85924 0.15519
 C816 C 0.77798 0.83951 0.17107
 C817 C 0.75751 0.82429 0.16989
 C818 C 0.73984 0.82836 0.15184
 H819 H 0.70944 0.90836 0.07136
 H820 H 0.78155 0.96234 0.08103
 H821 H 0.71222 0.94533 0.04793
 H822 H 0.79895 0.93596 0.11094
 H823 H 0.79842 0.90034 0.13545
 H824 H 0.70943 0.87582 0.09122
 H825 H 0.70812 0.84081 0.11723
 H826 H 0.79684 0.87003 0.15767
 H827 H 0.79199 0.83627 0.18471
 H828 H 0.72391 0.81654 0.15100
 C829 C 0.21793 0.41918 0.57605
 C830 C 0.23903 0.40874 0.58705
 C831 C 0.26155 0.42142 0.58423
 C832 C 0.26272 0.44331 0.57084
 C833 C 0.24172 0.45324 0.56019
 C834 C 0.21934 0.44115 0.56290
 C835 C 0.28283 0.41237 0.59493
 C836 C 0.28226 0.39145 0.60930
 C837 C 0.26024 0.37853 0.61346
 C838 C 0.23851 0.38664 0.60124
 C839 C 0.21704 0.37240 0.60370
 C840 C 0.21643 0.35171 0.61857
 C841 C 0.23697 0.34460 0.63195
 C842 C 0.25922 0.35788 0.62958
 C843 C 0.27926 0.35053 0.64431
 C844 C 0.27700 0.33136 0.66099
 C845 C 0.25501 0.31856 0.66331
 C846 C 0.23516 0.32479 0.64842
 H847 H 0.19999 0.41117 0.57769
 H848 H 0.28003 0.45287 0.56882
 H849 H 0.20289 0.44883 0.55492
 H850 H 0.30014 0.42179 0.59247
 H851 H 0.29960 0.38574 0.61672
 H852 H 0.20032 0.37669 0.59419
 H853 H 0.19946 0.34153 0.62008
 H854 H 0.29664 0.35983 0.64427
 H855 H 0.29242 0.32683 0.67263
 H856 H 0.21796 0.31510 0.65063
 C857 C 0.78128 0.06687 0.89655
 C858 C 0.76474 0.08681 0.89653
 C859 C 0.74667 0.08749 0.91520
 C860 C 0.74413 0.06787 0.93173
 C861 C 0.75986 0.04769 0.93050
 C862 C 0.77872 0.04766 0.91319
 C863 C 0.73087 0.10743 0.91687
 C864 C 0.73234 0.12669 0.90027
 C865 C 0.74928 0.12642 0.88072
 C866 C 0.76532 0.10583 0.87849
 C867 C 0.78065 0.10439 0.85772
 C868 C 0.78036 0.12233 0.83973
 C869 C 0.76533 0.14278 0.84195
 C870 C 0.75011 0.14558 0.86279
 C871 C 0.73639 0.16751 0.86473
 C872 C 0.73715 0.18529 0.84629
 C873 C 0.75126 0.18168 0.82524
 C874 C 0.76544 0.16046 0.82328
 H875 H 0.79640 0.06552 0.88397
 H876 H 0.72946 0.06791 0.94511
 H877 H 0.79124 0.03232 0.91218
 H878 H 0.71709 0.10812 0.93114
 H879 H 0.71919 0.14115 0.90270
 H880 H 0.79252 0.08906 0.85428
 H881 H 0.79208 0.12015 0.82386
 H882 H 0.72520 0.17168 0.88041
 H883 H 0.72633 0.20176 0.84833
 H884 H 0.77692 0.15787 0.80729
 C885 C 0.28197 0.56808 0.39804
 C886 C 0.26558 0.58814 0.39824
 C887 C 0.24741 0.58865 0.41680
 C888 C 0.24456 0.56874 0.43295
 C889 C 0.26010 0.54842 0.43145
 C890 C 0.27912 0.54858 0.41431
 C891 C 0.23177 0.60870 0.41872
 C892 C 0.23349 0.62822 0.40244
 C893 C 0.25049 0.62811 0.38295
 C894 C 0.26639 0.60744 0.38049
 C895 C 0.28178 0.60617 0.35975
 C896 C 0.28161 0.62433 0.34196
 C897 C 0.26669 0.64484 0.34439
 C898 C 0.25148 0.64750 0.36526
 C899 C 0.23793 0.66950 0.36745
 C900 C 0.23878 0.68748 0.34919
 C901 C 0.25281 0.68398 0.32806
 C902 C 0.26686 0.66270 0.32589
 H903 H 0.29717 0.56683 0.38555
 H904 H 0.22975 0.56866 0.44618
 H905 H 0.29150 0.53314 0.41309
 H906 H 0.21792 0.60927 0.43293
 H907 H 0.22044 0.64275 0.40503
 H908 H 0.29357 0.59081 0.35615
 H909 H 0.29334 0.62227 0.32609
 H910 H 0.22679 0.67357 0.38319
 H911 H 0.22807 0.70400 0.35140
 H912 H 0.27828 0.66019 0.30984
 C913 C 0.22685 0.92827 0.90842
 C914 C 0.24330 0.90840 0.90605
 C915 C 0.25910 0.90338 0.92601
 C916 C 0.25869 0.91800 0.94701
 C917 C 0.24254 0.93786 0.94905
 C918 C 0.22639 0.94253 0.92961
 C919 C 0.27513 0.88360 0.92515
 C920 C 0.27519 0.86792 0.90530
 C921 C 0.25935 0.87162 0.88522
 C922 C 0.24409 0.89289 0.88500
 C923 C 0.23031 0.89797 0.86372
 C924 C 0.23053 0.88223 0.84379
 C925 C 0.24394 0.86054 0.84447
 C926 C 0.25838 0.85479 0.86529
 C927 C 0.27061 0.83198 0.86566
 C928 C 0.26860 0.81574 0.84620
 C929 C 0.25461 0.82164 0.82558
 C930 C 0.24258 0.84425 0.82464
 H931 H 0.21347 0.93274 0.89464
 H932 H 0.27127 0.91400 0.96186
 H933 H 0.21265 0.95674 0.93112
 H934 H 0.28753 0.87993 0.94021
 H935 H 0.28828 0.85322 0.90608
 H936 H 0.21942 0.91428 0.86172
 H937 H 0.21963 0.88686 0.82786
 H938 H 0.28121 0.82567 0.88104
 H939 H 0.27801 0.79833 0.84739
 H940 H 0.23139 0.84876 0.80887
 C941 C 0.72029 0.42822 0.40749
 C942 C 0.73912 0.41080 0.40365
 C943 C 0.75684 0.40779 0.42240
 C944 C 0.75588 0.42201 0.44366
 C945 C 0.73710 0.43898 0.44714
 C946 C 0.71926 0.44190 0.42904
 C947 C 0.77522 0.39030 0.42012
 C948 C 0.77583 0.37478 0.40014
 C949 C 0.75822 0.37646 0.38131
 C950 C 0.74050 0.39569 0.38236
 C951 C 0.72487 0.39918 0.36206
 C952 C 0.72568 0.38366 0.34197
 C953 C 0.74150 0.36364 0.34162
 C954 C 0.75782 0.35958 0.36142
 C955 C 0.77242 0.33820 0.36094
 C956 C 0.77083 0.32171 0.34165
 C957 C 0.75502 0.32605 0.32200
 C958 C 0.74066 0.34726 0.32185
 H959 H 0.70561 0.43109 0.39464
 H960 H 0.76951 0.41953 0.45789
 H961 H 0.70428 0.45459 0.43177
 H962 H 0.78904 0.38823 0.43422
 H963 H 0.79072 0.36187 0.39975
 H964 H 0.71204 0.41410 0.36095
 H965 H 0.71331 0.38701 0.32682
 H966 H 0.78455 0.33314 0.37564
 H967 H 0.78198 0.30532 0.34218
 H968 H 0.72804 0.35044 0.30686
 C969 C 0.07914 0.23703 0.08057
 C970 C 0.09888 0.25336 0.08447
 C971 C 0.10424 0.27047 0.06568
 C972 C 0.08953 0.27199 0.04473
 C973 C 0.06922 0.25653 0.04160
 C974 C 0.06482 0.23848 0.05943
 C975 C 0.12422 0.28615 0.06787
 C976 C 0.13947 0.28493 0.08810
 C977 C 0.13499 0.26824 0.10735
 C978 C 0.11375 0.25297 0.10604
 C979 C 0.10781 0.23828 0.12651
 C980 C 0.12254 0.23789 0.14724
 C981 C 0.14411 0.25151 0.14817
 C982 C 0.15088 0.26658 0.12807
 C983 C 0.17366 0.27888 0.12928
 C984 C 0.18882 0.27643 0.14962
 C985 C 0.18178 0.26200 0.16959
 C986 C 0.15925 0.24979 0.16893
 H987 H 0.07472 0.22248 0.09317
 H988 H 0.09356 0.28583 0.03103
 H989 H 0.05047 0.22503 0.05681
 H990 H 0.12828 0.29942 0.05364
 H991 H 0.15430 0.29792 0.08840
 H992 H 0.09144 0.22730 0.12732
 H993 H 0.11718 0.22643 0.16257
 H994 H 0.18075 0.28986 0.11450
 H995 H 0.20629 0.28584 0.14967
 H996 H 0.15397 0.23815 0.18415
 C997 C 0.58244 0.72047 0.58485
 C998 C 0.59907 0.73972 0.58989
 C999 C 0.60156 0.75854 0.57213
 C1000 C 0.58693 0.75865 0.55106
 C1001 C 0.57010 0.73987 0.54676
 C1002 C 0.56842 0.72049 0.56346
 C1003 C 0.61870 0.77713 0.57538
 C1004 C 0.63404 0.77718 0.59559
 C1005 C 0.63234 0.75890 0.61382
 C1006 C 0.61370 0.74065 0.61159
 C1007 C 0.60998 0.72431 0.63131
 C1008 C 0.62456 0.72517 0.65213
 C1009 C 0.64394 0.74171 0.65377
 C1010 C 0.64844 0.75850 0.63443
 C1011 C 0.66938 0.77368 0.63617
 C1012 C 0.68495 0.77229 0.65633
 C1013 C 0.67993 0.75621 0.67563
 C1014 C 0.65924 0.74116 0.67443
 H1015 H 0.58036 0.70482 0.59672
 H1016 H 0.58866 0.77339 0.53782
 H1017 H 0.55610 0.70536 0.55996
 H1018 H 0.62052 0.79167 0.56196
 H1019 H 0.64662 0.79232 0.59680
 H1020 H 0.59540 0.71102 0.63148
 H1021 H 0.62094 0.71237 0.66689
 H1022 H 0.67482 0.78612 0.62183
 H1023 H 0.70111 0.78379 0.65681
 H1024 H 0.65571 0.72821 0.68910
 C1025 C 0.06533 0.70163 0.89950
 C1026 C 0.08469 0.71871 0.90089
 C1027 C 0.08517 0.73465 0.92129
 C1028 C 0.06570 0.73483 0.93824
 C1029 C 0.04571 0.71871 0.93579
 C1030 C 0.04629 0.70177 0.91648
 C1031 C 0.10475 0.75077 0.92430
 C1032 C 0.12384 0.75158 0.90743
 C1033 C 0.12366 0.73684 0.88624
 C1034 C 0.10338 0.72065 0.88261
 C1035 C 0.10181 0.70776 0.86031
 C1036 C 0.11939 0.71047 0.84220
 C1037 C 0.13964 0.72554 0.84574
 C1038 C 0.14255 0.73841 0.86805
 C1039 C 0.16429 0.75229 0.87109
 C1040 C 0.18175 0.75395 0.85237
 C1041 C 0.17796 0.74220 0.82997
 C1042 C 0.15695 0.72789 0.82689
 H1043 H 0.06438 0.68773 0.88560
 H1044 H 0.06553 0.74857 0.95250
 H1045 H 0.03183 0.68835 0.91445
 H1046 H 0.10534 0.76297 0.93990
 H1047 H 0.13806 0.76475 0.91101
 H1048 H 0.08657 0.69611 0.85579
 H1049 H 0.11709 0.70059 0.82517
 H1050 H 0.16851 0.76178 0.88782
 H1051 H 0.19803 0.76490 0.85524
 H1052 H 0.15417 0.71829 0.80976
 C1053 C 0.56804 0.20330 0.39710
 C1054 C 0.58643 0.22157 0.39758
 C1055 C 0.58545 0.23912 0.41661
 C1056 C 0.56558 0.23952 0.43298
 C1057 C 0.54692 0.22199 0.43138
 C1058 C 0.54866 0.20363 0.41369
 C1059 C 0.60402 0.25648 0.41888
 C1060 C 0.62354 0.25700 0.40254
 C1061 C 0.62477 0.24066 0.38261
 C1062 C 0.60550 0.22314 0.37970
 C1063 C 0.60526 0.20855 0.35843
 C1064 C 0.62313 0.21098 0.34056
 C1065 C 0.64239 0.22742 0.34346
 C1066 C 0.64405 0.24193 0.36487
 C1067 C 0.66495 0.25712 0.36747
 C1068 C 0.68267 0.25859 0.34902
 C1069 C 0.67995 0.24530 0.32736
 C1070 C 0.65992 0.22957 0.32483
 H1071 H 0.56815 0.18841 0.38423
 H1072 H 0.56428 0.25383 0.44662
 H1073 H 0.53460 0.18970 0.41241
 H1074 H 0.60346 0.26988 0.43346
 H1075 H 0.63689 0.27121 0.40541
 H1076 H 0.59083 0.19573 0.35446
 H1077 H 0.62183 0.19982 0.32425
 H1078 H 0.66828 0.26784 0.38364
 H1079 H 0.69824 0.27063 0.35144
 H1080 H 0.65807 0.21880 0.30828
 C1081 C 0.94190 0.76972 0.10281
 C1082 C 0.92157 0.75372 0.10268
 C1083 C 0.92032 0.73607 0.08378
 C1084 C 0.93974 0.73342 0.06702
 C1085 C 0.96034 0.74891 0.06791
 C1086 C 0.96082 0.76722 0.08591
 C1087 C 0.89990 0.72081 0.08203
 C1088 C 0.88059 0.72274 0.09854
 C1089 C 0.88135 0.73947 0.11818
 C1090 C 0.90259 0.75460 0.12074
 C1091 C 0.90466 0.76939 0.14178
 C1092 C 0.88652 0.76971 0.15955
 C1093 C 0.86527 0.75589 0.15682
 C1094 C 0.86198 0.74105 0.13583
 C1095 C 0.83931 0.72862 0.13339
 C1096 C 0.82116 0.73040 0.15141
 C1097 C 0.82516 0.74418 0.17258
 C1098 C 0.84724 0.75692 0.17510
 H1099 H 0.94365 0.78461 0.11556
 H1100 H 0.93928 0.71845 0.05406
 H1101 H 0.97604 0.77993 0.08688
 H1102 H 0.89876 0.70726 0.06763
 H1103 H 0.86566 0.71013 0.09599
 H1104 H 0.92059 0.78035 0.14558
 H1105 H 0.88914 0.78105 0.17558
 H1106 H 0.83484 0.71781 0.11756
 H1107 H 0.80405 0.72068 0.14894
 H1108 H 0.85020 0.76815 0.19116
 C1109 C 0.43808 0.26343 0.59678
 C1110 C 0.41870 0.24628 0.59819
 C1111 C 0.41884 0.22652 0.58142
 C1112 C 0.43875 0.22314 0.56544
 C1113 C 0.45818 0.23989 0.56500
 C1114 C 0.45744 0.26018 0.58049
 C1115 C 0.39931 0.21008 0.58095
 C1116 C 0.37954 0.21277 0.59677
 C1117 C 0.37898 0.23155 0.61444
 C1118 C 0.39933 0.24803 0.61570
 C1119 C 0.40018 0.26508 0.63504
 C1120 C 0.38179 0.26614 0.65248
 C1121 C 0.36143 0.25087 0.65098
 C1122 C 0.35925 0.23387 0.63156
 C1123 C 0.33731 0.22002 0.63013
 C1124 C 0.31894 0.22238 0.64785
 C1125 C 0.32208 0.23819 0.66767
 C1126 C 0.34325 0.25251 0.66899
 H1127 H 0.43873 0.27972 0.60780
 H1128 H 0.43932 0.20731 0.55354
 H1129 H 0.47219 0.27345 0.58021
 H1130 H 0.39925 0.19498 0.56814
 H1131 H 0.36535 0.19914 0.59538
 H1132 H 0.41542 0.27726 0.63785
 H1133 H 0.38351 0.27917 0.66730
 H1134 H 0.33362 0.20756 0.61534
 H1135 H 0.30245 0.21147 0.64634
 H1136 H 0.34541 0.26530 0.68398
 C1137 C 0.92862 0.24599 0.91280
 C1138 C 0.90698 0.26001 0.91046
 C1139 C 0.89989 0.27459 0.93066
 C1140 C 0.91446 0.27574 0.95172
 C1141 C 0.93628 0.26225 0.95360
 C1142 C 0.94280 0.24699 0.93401
 C1143 C 0.87821 0.28798 0.92985
 C1144 C 0.86287 0.28664 0.90972
 C1145 C 0.86888 0.27215 0.88924
 C1146 C 0.89185 0.25960 0.88911
 C1147 C 0.89905 0.24739 0.86753
 C1148 C 0.88392 0.24661 0.84712
 C1149 C 0.86079 0.25737 0.84758
 C1150 C 0.85278 0.27002 0.86876
 C1151 C 0.82866 0.27945 0.86881
 C1152 C 0.81339 0.27661 0.84864
 C1153 C 0.82157 0.26454 0.82763
 C1154 C 0.84542 0.25517 0.82709
 H1155 H 0.93469 0.23343 0.89891
 H1156 H 0.90899 0.28772 0.96653
 H1157 H 0.95863 0.23512 0.93532
 H1158 H 0.87285 0.29940 0.94513
 H1159 H 0.84661 0.29774 0.91056
 H1160 H 0.91663 0.23867 0.86562
 H1161 H 0.89025 0.23708 0.83094
 H1162 H 0.82069 0.28844 0.88441
 H1163 H 0.79497 0.28391 0.84953
 H1164 H 0.85172 0.24543 0.81101
 C1165 C 0.42559 0.73038 0.41763
 C1166 C 0.40809 0.74904 0.41343
 C1167 C 0.40477 0.76686 0.43195
 C1168 C 0.41939 0.76663 0.45304
 C1169 C 0.43695 0.74835 0.45659
 C1170 C 0.43954 0.72997 0.43902
 C1171 C 0.38673 0.78471 0.42947
 C1172 C 0.37122 0.78480 0.40939
 C1173 C 0.37367 0.76739 0.39052
 C1174 C 0.39332 0.75017 0.39188
 C1175 C 0.39778 0.73497 0.37152
 C1176 C 0.38287 0.73577 0.35096
 C1177 C 0.36248 0.75109 0.35020
 C1178 C 0.35731 0.76683 0.37015
 C1179 C 0.33548 0.78075 0.36924
 C1180 C 0.31969 0.77917 0.34929
 C1181 C 0.32530 0.76412 0.32942
 C1182 C 0.34688 0.75035 0.32980
 H1183 H 0.42834 0.71541 0.40515
 H1184 H 0.41699 0.78060 0.46689
 H1185 H 0.45243 0.71518 0.44190
 H1186 H 0.38428 0.79853 0.44345
 H1187 H 0.35785 0.79928 0.40881
 H1188 H 0.41316 0.72266 0.37066
 H1189 H 0.38704 0.72384 0.33570
 H1190 H 0.32958 0.79230 0.38405
 H1191 H 0.30292 0.78976 0.34940
 H1192 H 0.35097 0.73824 0.31464
 C1193 C 0.10541 0.06021 0.27217
 C1194 C 0.10283 0.08198 0.25838
 C1195 C 0.08152 0.08456 0.24382
 C1196 C 0.06458 0.06522 0.24186
 C1197 C 0.06798 0.04318 0.25481
 C1198 C 0.08847 0.04127 0.27025
 C1199 C 0.07749 0.10623 0.23087
 C1200 C 0.09418 0.12543 0.23195
 C1201 C 0.11611 0.12344 0.24550
 C1202 C 0.12076 0.10108 0.25842
 C1203 C 0.14359 0.09814 0.27017
 C1204 C 0.16122 0.11637 0.26953
 C1205 C 0.15673 0.13849 0.25767
 C1206 C 0.13394 0.14271 0.24596
 C1207 C 0.13010 0.16607 0.23525
 C1208 C 0.14843 0.18399 0.23556
 C1209 C 0.17121 0.17914 0.24625
 C1210 C 0.17511 0.15639 0.25740
 H1211 H 0.12021 0.05723 0.28485
 H1212 H 0.04940 0.06697 0.22919
 H1213 H 0.09137 0.02499 0.28125
 H1214 H 0.06121 0.10839 0.21973
 H1215 H 0.08974 0.14136 0.22119
 H1216 H 0.14886 0.08153 0.27939
 H1217 H 0.17863 0.11307 0.27848
 H1218 H 0.11305 0.17120 0.22676
 H1219 H 0.14491 0.20155 0.22701
 H1220 H 0.19253 0.15267 0.26618
 C1221 C 0.60025 0.55864 0.77456
 C1222 C 0.60019 0.57944 0.75905
 C1223 C 0.58140 0.58119 0.74123
 C1224 C 0.56479 0.56182 0.73786
 C1225 C 0.56584 0.54092 0.75273
 C1226 C 0.58337 0.53977 0.77135
 C1227 C 0.57956 0.60203 0.72657
 C1228 C 0.59601 0.62126 0.72910
 C1229 C 0.61563 0.62002 0.74589
 C1230 C 0.61820 0.59840 0.76052
 C1231 C 0.63923 0.59596 0.77534
 C1232 C 0.65711 0.61397 0.77595
 C1233 C 0.65446 0.63549 0.76248
 C1234 C 0.63334 0.63925 0.74786
 C1235 C 0.63090 0.66216 0.73587
 C1236 C 0.64919 0.67997 0.73756
 C1237 C 0.67057 0.67546 0.75091
 C1238 C 0.67300 0.65325 0.76348
 H1239 H 0.61295 0.55646 0.78948
 H1240 H 0.55133 0.56276 0.72331
 H1241 H 0.58427 0.52390 0.78326
 H1242 H 0.56520 0.60352 0.71296
 H1243 H 0.59345 0.63651 0.71684
 H1244 H 0.64296 0.57978 0.78601
 H1245 H 0.67322 0.61102 0.78717
 H1246 H 0.61494 0.66702 0.72535
 H1247 H 0.64683 0.69716 0.72791
 H1248 H 0.68931 0.64989 0.77429
 C1249 C 0.91723 0.07925 0.78655
 C1250 C 0.91520 0.09861 0.76941
 C1251 C 0.93534 0.10281 0.75359
 C1252 C 0.95586 0.08737 0.75409
 C1253 C 0.95727 0.06750 0.77045
 C1254 C 0.93797 0.06425 0.78719
 C1255 C 0.93498 0.12239 0.73721
 C1256 C 0.91528 0.13834 0.73647
 C1257 C 0.89471 0.13503 0.75179
 C1258 C 0.89417 0.11422 0.76773
 C1259 C 0.87245 0.10943 0.78098
 C1260 C 0.85219 0.12477 0.77920
 C1261 C 0.85297 0.14590 0.76482
 C1262 C 0.87445 0.15161 0.75132
 C1263 C 0.87497 0.17403 0.73831
 C1264 C 0.85490 0.18974 0.73836
 C1265 C 0.83348 0.18366 0.75103
 C1266 C 0.83251 0.16159 0.76412
 H1267 H 0.90343 0.07567 0.80020
 H1268 H 0.97058 0.09050 0.74111
 H1269 H 0.93910 0.05030 0.80127
 H1270 H 0.95026 0.12557 0.72491
 H1271 H 0.91643 0.15277 0.72305
 H1272 H 0.87030 0.09348 0.79241
 H1273 H 0.83585 0.12022 0.78953
 H1274 H 0.89087 0.18039 0.72851
 H1275 H 0.85615 0.20681 0.72830
 H1276 H 0.81613 0.15703 0.77441
 C1277 C 0.41928 0.58484 0.29631
 C1278 C 0.41582 0.60137 0.27657
 C1279 C 0.43463 0.60295 0.25871
 C1280 C 0.45519 0.58764 0.26000
 C1281 C 0.45795 0.57094 0.27924
 C1282 C 0.44017 0.57009 0.29768
 C1283 C 0.43291 0.61983 0.23965
 C1284 C 0.41321 0.63576 0.23815
 C1285 C 0.39399 0.63500 0.25542
 C1286 C 0.39468 0.61670 0.27418
 C1287 C 0.37403 0.61403 0.28954
 C1288 C 0.35372 0.62920 0.28716
 C1289 C 0.35349 0.64818 0.27002
 C1290 C 0.37386 0.65168 0.25426
 C1291 C 0.37357 0.67223 0.23843
 C1292 C 0.35377 0.68830 0.23812
 C1293 C 0.33342 0.68428 0.25312
 C1294 C 0.33321 0.66403 0.26888
 H1295 H 0.40651 0.58334 0.31128
 H1296 H 0.46921 0.58869 0.24596
 H1297 H 0.44241 0.55784 0.31313
 H1298 H 0.44713 0.62096 0.22583
 H1299 H 0.41321 0.64803 0.22269
 H1300 H 0.37274 0.59983 0.30321
 H1301 H 0.33820 0.62633 0.29922
 H1302 H 0.38872 0.67697 0.22672
 H1303 H 0.35439 0.70406 0.22604
 H1304 H 0.31769 0.66122 0.28096
 C1305 C 0.05855 0.89304 0.79534
 C1306 C 0.07735 0.89415 0.77760
 C1307 C 0.07790 0.91482 0.76185
 C1308 C 0.05922 0.93255 0.76278
 C1309 C 0.04008 0.93071 0.77992
 C1310 C 0.04033 0.91082 0.79631
 C1311 C 0.09681 0.91740 0.74487
 C1312 C 0.11534 0.90005 0.74327
 C1313 C 0.11528 0.87883 0.75812
 C1314 C 0.09547 0.87544 0.77493
 C1315 C 0.09394 0.85308 0.78789
 C1316 C 0.11138 0.83487 0.78496
 C1317 C 0.13142 0.83835 0.76956
 C1318 C 0.13400 0.86057 0.75628
 C1319 C 0.15544 0.86364 0.74200
 C1320 C 0.17318 0.84529 0.74075
 C1321 C 0.17007 0.82313 0.75330
 C1322 C 0.14906 0.81974 0.76759
 H1323 H 0.05748 0.87878 0.80894
 H1324 H 0.05897 0.94708 0.74922
 H1325 H 0.02620 0.90900 0.81014
 H1326 H 0.09737 0.93311 0.73272
 H1327 H 0.12908 0.90339 0.72951
 H1328 H 0.07895 0.84869 0.79993
 H1329 H 0.10925 0.81791 0.79509
 H1330 H 0.15939 0.88025 0.73209
 H1331 H 0.18942 0.84844 0.72979
 H1332 H 0.14678 0.80285 0.77780
 C1333 C 0.56233 0.39759 0.29512
 C1334 C 0.57938 0.39708 0.27561
 C1335 C 0.57822 0.41615 0.25798
 C1336 C 0.55944 0.43372 0.25892
 C1337 C 0.54217 0.43327 0.27785
 C1338 C 0.54406 0.41536 0.29609
 C1339 C 0.59553 0.41734 0.23926
 C1340 C 0.61415 0.40010 0.23767
 C1341 C 0.61570 0.38036 0.25435
 C1342 C 0.59744 0.37831 0.27302
 C1343 C 0.59728 0.35713 0.28791
 C1344 C 0.61464 0.33882 0.28504
 C1345 C 0.63331 0.34116 0.26781
 C1346 C 0.63451 0.36221 0.25259
 C1347 C 0.65477 0.36437 0.23653
 C1348 C 0.67268 0.34619 0.23543
 C1349 C 0.67082 0.32509 0.24988
 C1350 C 0.65101 0.32261 0.26594
 H1351 H 0.56270 0.38464 0.31002
 H1352 H 0.55790 0.44746 0.24464
 H1353 H 0.53092 0.41484 0.31096
 H1354 H 0.59475 0.43184 0.22570
 H1355 H 0.62657 0.40223 0.22249
 H1356 H 0.58338 0.35372 0.30149
 H1357 H 0.61358 0.32275 0.29668
 H1358 H 0.65772 0.38021 0.22512
 H1359 H 0.68805 0.34861 0.22313
 H1360 H 0.64983 0.30656 0.27761
 C1361 C 0.89712 0.94145 0.21153
 C1362 C 0.89894 0.92100 0.22742
 C1363 C 0.91905 0.92016 0.24380
 C1364 C 0.93526 0.94003 0.24551
 C1365 C 0.93254 0.96054 0.23032
 C1366 C 0.91364 0.96085 0.21307
 C1367 C 0.92260 0.89974 0.25873
 C1368 C 0.90650 0.88008 0.25797
 C1369 C 0.88557 0.88047 0.24282
 C1370 C 0.88138 0.90159 0.22783
 C1371 C 0.85923 0.90316 0.21461
 C1372 C 0.84168 0.88489 0.21611
 C1373 C 0.84578 0.86396 0.23012
 C1374 C 0.86811 0.86093 0.24297
 C1375 C 0.87187 0.83846 0.25547
 C1376 C 0.85369 0.82042 0.25605
 C1377 C 0.83115 0.82435 0.24456
 C1378 C 0.82745 0.84610 0.23148
 H1379 H 0.88326 0.94297 0.19759
 H1380 H 0.94975 0.93979 0.25907
 H1381 H 0.91140 0.97643 0.20097
 H1382 H 0.93802 0.89895 0.27120
 H1383 H 0.91040 0.86521 0.27036
 H1384 H 0.85435 0.91887 0.20371
 H1385 H 0.82467 0.88719 0.20614
 H1386 H 0.88877 0.83411 0.26467
 H1387 H 0.85710 0.80356 0.26595
 H1388 H 0.81020 0.84911 0.22216
 C1389 C 0.39685 0.43701 0.70588
 C1390 C 0.39850 0.41643 0.72163
 C1391 C 0.41776 0.41604 0.73902
 C1392 C 0.43343 0.43622 0.74154
 C1393 C 0.43096 0.45671 0.72631
 C1394 C 0.41279 0.45679 0.70831
 C1395 C 0.42104 0.39573 0.75414
 C1396 C 0.40540 0.37577 0.75271
 C1397 C 0.38530 0.37562 0.73648
 C1398 C 0.38153 0.39650 0.72101
 C1399 C 0.36036 0.39725 0.70621
 C1400 C 0.34318 0.37860 0.70686
 C1401 C 0.34667 0.35813 0.72169
 C1402 C 0.36818 0.35580 0.73601
 C1403 C 0.37139 0.33379 0.74947
 C1404 C 0.35324 0.31575 0.74983
 C1405 C 0.33135 0.31915 0.73701
 C1406 C 0.32843 0.34014 0.72258
 H1407 H 0.38355 0.43842 0.69140
 H1408 H 0.44737 0.43621 0.75567
 H1409 H 0.41075 0.47243 0.69626
 H1410 H 0.43582 0.39530 0.76737
 H1411 H 0.40902 0.36107 0.76536
 H1412 H 0.35592 0.41254 0.69458
 H1413 H 0.32684 0.38032 0.69572
 H1414 H 0.38770 0.32990 0.75983
 H1415 H 0.35602 0.29942 0.76076
 H1416 H 0.31175 0.34257 0.71209
 C1417 C 0.07515 0.24427 0.91232
 C1418 C 0.09657 0.25855 0.90934
 C1419 C 0.10399 0.27328 0.92933
 C1420 C 0.09007 0.27414 0.95088
 C1421 C 0.06837 0.26058 0.95327
 C1422 C 0.06147 0.24523 0.93387
 C1423 C 0.12527 0.28723 0.92777
 C1424 C 0.13983 0.28649 0.90703
 C1425 C 0.13355 0.27184 0.88673
 C1426 C 0.11111 0.25835 0.88751
 C1427 C 0.10388 0.24535 0.86640
 C1428 C 0.11850 0.24470 0.84560
 C1429 C 0.14108 0.25659 0.84505
 C1430 C 0.14898 0.27028 0.86564
 C1431 C 0.17239 0.28128 0.86451
 C1432 C 0.18727 0.27855 0.84406
 C1433 C 0.17942 0.26499 0.82384
 C1434 C 0.15608 0.25441 0.82421
 H1435 H 0.06872 0.23173 0.89858
 H1436 H 0.09582 0.28611 0.96561
 H1437 H 0.04564 0.23339 0.93556
 H1438 H 0.13087 0.29875 0.94289
 H1439 H 0.15578 0.29804 0.90742
 H1440 H 0.08675 0.23567 0.86522
 H1441 H 0.11223 0.23438 0.82989
 H1442 H 0.18022 0.29151 0.87938
 H1443 H 0.20524 0.28694 0.84419
 H1444 H 0.15003 0.24363 0.80872
 C1445 C 0.58048 0.72552 0.41711
 C1446 C 0.59795 0.74422 0.41274
 C1447 C 0.60154 0.76187 0.43139
 C1448 C 0.58749 0.76125 0.45289
 C1449 C 0.56994 0.74299 0.45656
 C1450 C 0.56686 0.72491 0.43876
 C1451 C 0.61915 0.78010 0.42856
 C1452 C 0.63390 0.78089 0.40792
 C1453 C 0.63132 0.76362 0.38891
 C1454 C 0.61230 0.74571 0.39082
 C1455 C 0.60808 0.73015 0.37066
 C1456 C 0.62256 0.73135 0.34975
 C1457 C 0.64221 0.74759 0.34830
 C1458 C 0.64706 0.76379 0.36797
 C1459 C 0.66800 0.77895 0.36622
 C1460 C 0.68341 0.77788 0.34595
 C1461 C 0.67837 0.76208 0.32651
 C1462 C 0.65749 0.74726 0.32754
 H1463 H 0.57727 0.71080 0.40445
 H1464 H 0.59014 0.77505 0.46686
 H1465 H 0.55375 0.71030 0.44163
 H1466 H 0.62177 0.79380 0.44263
 H1467 H 0.64685 0.79573 0.40717
 H1468 H 0.59333 0.71708 0.37027
 H1469 H 0.61863 0.71903 0.33475
 H1470 H 0.67362 0.79115 0.38060
 H1471 H 0.69961 0.78934 0.34558
 H1472 H 0.65384 0.73461 0.31273
 C1473 C 0.93532 0.70314 0.90325
 C1474 C 0.91793 0.72222 0.90221
 C1475 C 0.92009 0.74142 0.91945
 C1476 C 0.94017 0.74231 0.93562
 C1477 C 0.95775 0.72348 0.93603
 C1478 C 0.95475 0.70387 0.91970
 C1479 C 0.90238 0.75981 0.92019
 C1480 C 0.88241 0.75943 0.90437
 C1481 C 0.87994 0.74114 0.88633
 C1482 C 0.89857 0.72285 0.88461
 C1483 C 0.89785 0.70639 0.86475
 C1484 C 0.87943 0.70751 0.84734
 C1485 C 0.86051 0.72445 0.84940
 C1486 C 0.85999 0.74104 0.86931
 C1487 C 0.83941 0.75670 0.87133
 C1488 C 0.82083 0.75650 0.85370
 C1489 C 0.82236 0.74105 0.83339
 C1490 C 0.84216 0.72497 0.83145
 H1491 H 0.93422 0.68710 0.89189
 H1492 H 0.94259 0.75825 0.94713
 H1493 H 0.96756 0.68872 0.91976
 H1494 H 0.90385 0.77457 0.93331
 H1495 H 0.86968 0.77439 0.90604
 H1496 H 0.91194 0.69300 0.86151
 H1497 H 0.87994 0.69483 0.83213
 H1498 H 0.83696 0.76903 0.88649
 H1499 H 0.80552 0.76892 0.85561
 H1500 H 0.84316 0.71265 0.81596
 C1501 C 0.43367 0.20490 0.40034
 C1502 C 0.41712 0.22470 0.39820
 C1503 C 0.42028 0.24485 0.41420
 C1504 C 0.44054 0.24585 0.43009
 C1505 C 0.45713 0.22633 0.43134
 C1506 C 0.45325 0.20580 0.41663
 C1507 C 0.40336 0.26396 0.41405
 C1508 C 0.38324 0.26349 0.39845
 C1509 C 0.37982 0.24430 0.38153
 C1510 C 0.39763 0.22513 0.38075
 C1511 C 0.39601 0.20760 0.36190
 C1512 C 0.37755 0.20859 0.34451
 C1513 C 0.35945 0.22649 0.34567
 C1514 C 0.35976 0.24412 0.36466
 C1515 C 0.33991 0.26078 0.36591
 C1516 C 0.32131 0.26053 0.34833
 C1517 C 0.32211 0.24404 0.32883
 C1518 C 0.34111 0.22695 0.32771
 H1519 H 0.43177 0.18828 0.38997
 H1520 H 0.44355 0.26188 0.44134
 H1521 H 0.46574 0.19042 0.41753
 H1522 H 0.40559 0.27940 0.42625
 H1523 H 0.37117 0.27906 0.39932
 H1524 H 0.40945 0.19341 0.35940
 H1525 H 0.37740 0.19508 0.33002
 H1526 H 0.33807 0.27396 0.38042
 H1527 H 0.30662 0.27377 0.34956
 H1528 H 0.34150 0.21386 0.31283
 C1529 C 0.06683 0.71822 0.10467
 C1530 C 0.08712 0.73422 0.10267
 C1531 C 0.08819 0.74993 0.08197
 C1532 C 0.06856 0.75095 0.06529
 C1533 C 0.04808 0.73580 0.06839
 C1534 C 0.04770 0.71913 0.08785
 C1535 C 0.10863 0.76482 0.07833
 C1536 C 0.12805 0.76458 0.09481
 C1537 C 0.12738 0.75003 0.11622
 C1538 C 0.10620 0.73521 0.12056
 C1539 C 0.10424 0.72269 0.14312
 C1540 C 0.12237 0.72438 0.16078
 C1541 C 0.14351 0.73798 0.15649
 C1542 C 0.14675 0.75046 0.13392
 C1543 C 0.16931 0.76275 0.13010
 C1544 C 0.18730 0.76330 0.14833
 C1545 C 0.18328 0.75201 0.17101
 C1546 C 0.16139 0.73925 0.17486
 H1547 H 0.06522 0.70466 0.11892
 H1548 H 0.06893 0.76386 0.05018
 H1549 H 0.03217 0.70701 0.09032
 H1550 H 0.10966 0.77681 0.06252
 H1551 H 0.14298 0.77683 0.09076
 H1552 H 0.08836 0.71213 0.14818
 H1553 H 0.11980 0.71483 0.17801
 H1554 H 0.17377 0.77178 0.11312
 H1555 H 0.20424 0.77299 0.14482
 H1556 H 0.15838 0.72998 0.19219
 C1557 C 0.56721 0.20924 0.60084
 C1558 C 0.58673 0.22621 0.59916
 C1559 C 0.58675 0.24273 0.57909
 C1560 C 0.56685 0.24345 0.56274
 C1561 C 0.54718 0.22718 0.56542
 C1562 C 0.54782 0.20984 0.58427
 C1563 C 0.60640 0.25871 0.57572
 C1564 C 0.62605 0.25879 0.59189
 C1565 C 0.62641 0.24345 0.61274
 C1566 C 0.60603 0.22745 0.61680
 C1567 C 0.60504 0.21401 0.63889
 C1568 C 0.62327 0.21604 0.65641
 C1569 C 0.64360 0.23091 0.65239
 C1570 C 0.64596 0.24424 0.63021
 C1571 C 0.66783 0.25778 0.62656
 C1572 C 0.68590 0.25881 0.64469
 C1573 C 0.68260 0.24677 0.66708
 C1574 C 0.66152 0.23265 0.67067
 H1575 H 0.56642 0.19512 0.61462
 H1576 H 0.56640 0.25699 0.54819
 H1577 H 0.53293 0.19691 0.58645
 H1578 H 0.60660 0.27132 0.56036
 H1579 H 0.64031 0.27190 0.58811
 H1580 H 0.58981 0.20245 0.64373
 H1581 H 0.62140 0.20581 0.67333
 H1582 H 0.67167 0.26750 0.60980
 H1583 H 0.70226 0.26954 0.64140
 H1584 H 0.65913 0.22279 0.68777
 C1585 C 0.92310 0.27943 0.08105
 C1586 C 0.90451 0.26166 0.08446
 C1587 C 0.90143 0.24373 0.06601
 C1588 C 0.91720 0.24303 0.04578
 C1589 C 0.93559 0.26061 0.04285
 C1590 C 0.93811 0.27904 0.06037
 C1591 C 0.88238 0.22683 0.06758
 C1592 C 0.86563 0.22785 0.08663
 C1593 C 0.86781 0.24539 0.10540
 C1594 C 0.88840 0.26156 0.10507
 C1595 C 0.89243 0.27674 0.12553
 C1596 C 0.87640 0.27677 0.14526
 C1597 C 0.85528 0.26243 0.14499
 C1598 C 0.85036 0.24695 0.12480
 C1599 C 0.82783 0.23413 0.12459
 C1600 C 0.81134 0.23611 0.14396
 C1601 C 0.81687 0.25059 0.16429
 C1602 C 0.83891 0.26365 0.16476
 H1603 H 0.92583 0.29443 0.09351
 H1604 H 0.91484 0.22907 0.03191
 H1605 H 0.95163 0.29335 0.05789
 H1606 H 0.88008 0.21295 0.05364
 H1607 H 0.85150 0.21407 0.08656
 H1608 H 0.90835 0.28828 0.12718
 H1609 H 0.88036 0.28852 0.16072
 H1610 H 0.82209 0.22297 0.10942
 H1611 H 0.79430 0.22598 0.14320
 H1612 H 0.84303 0.27524 0.18030
 C1613 C 0.42462 0.76673 0.58478
 C1614 C 0.40454 0.75058 0.58791
 C1615 C 0.40037 0.73288 0.56946
 C1616 C 0.41638 0.73082 0.54949
 C1617 C 0.43619 0.74687 0.54675
 C1618 C 0.43990 0.76506 0.56434
 C1619 C 0.37999 0.71758 0.57075
 C1620 C 0.36304 0.71999 0.58951
 C1621 C 0.36628 0.73738 0.60828
 C1622 C 0.38807 0.75191 0.60823
 C1623 C 0.39286 0.76689 0.62867
 C1624 C 0.37655 0.76823 0.64816
 C1625 C 0.35445 0.75545 0.64767
 C1626 C 0.34869 0.74031 0.62744
 C1627 C 0.32531 0.72914 0.62698
 C1628 C 0.30880 0.73224 0.64620
 C1629 C 0.31509 0.74627 0.66664
 C1630 C 0.33797 0.75782 0.66728
 H1631 H 0.42837 0.78148 0.59727
 H1632 H 0.41310 0.71705 0.53562
 H1633 H 0.45451 0.77829 0.56205
 H1634 H 0.37682 0.70387 0.55680
 H1635 H 0.34788 0.70739 0.58921
 H1636 H 0.40954 0.77726 0.63051
 H1637 H 0.38115 0.77973 0.66362
 H1638 H 0.31896 0.71838 0.61176
 H1639 H 0.29115 0.72323 0.64526
 H1640 H 0.34276 0.76905 0.68290
 C1641 C 0.26556 0.08186 0.91845
 C1642 C 0.24967 0.10192 0.91451
 C1643 C 0.23233 0.10730 0.93301
 C1644 C 0.22975 0.09190 0.95344
 C1645 C 0.24447 0.07099 0.95631
 C1646 C 0.26317 0.06697 0.93912
 C1647 C 0.21744 0.12790 0.93097
 C1648 C 0.21956 0.14357 0.91106
 C1649 C 0.23620 0.13879 0.89189
 C1650 C 0.25067 0.11702 0.89311
 C1651 C 0.26501 0.11065 0.87259
 C1652 C 0.26569 0.12535 0.85180
 C1653 C 0.25284 0.14737 0.85094
 C1654 C 0.23839 0.15473 0.87121
 C1655 C 0.22708 0.17801 0.87013
 C1656 C 0.22963 0.19296 0.84958
 C1657 C 0.24315 0.18516 0.82931
 C1658 C 0.25459 0.16227 0.82998
 H1659 H 0.28045 0.07763 0.90622
 H1660 H 0.21557 0.09581 0.96677
 H1661 H 0.27626 0.05230 0.94177
 H1662 H 0.20407 0.13207 0.94503
 H1663 H 0.20715 0.15889 0.91080
 H1664 H 0.27529 0.09385 0.87170
 H1665 H 0.27669 0.11956 0.83635
 H1666 H 0.21676 0.18554 0.88512
 H1667 H 0.22081 0.21072 0.84948
 H1668 H 0.26548 0.15640 0.81448
 C1669 C 0.77124 0.58363 0.42070
 C1670 C 0.75359 0.60200 0.41583
 C1671 C 0.73474 0.60555 0.43332
 C1672 C 0.73277 0.59009 0.45376
 C1673 C 0.74974 0.57134 0.45765
 C1674 C 0.76940 0.56875 0.44146
 C1675 C 0.71786 0.62442 0.43032
 C1676 C 0.71949 0.64028 0.41052
 C1677 C 0.73771 0.63739 0.39243
 C1678 C 0.75424 0.61720 0.39448
 C1679 C 0.77034 0.61246 0.37483
 C1680 C 0.77081 0.62737 0.35419
 C1681 C 0.75597 0.64807 0.35268
 C1682 C 0.73960 0.65371 0.37203
 C1683 C 0.72622 0.67583 0.37044
 C1684 C 0.72875 0.69134 0.35032
 C1685 C 0.74428 0.68520 0.33094
 C1686 C 0.75768 0.66342 0.33205
 H1687 H 0.78694 0.58068 0.40914
 H1688 H 0.71788 0.59252 0.46667
 H1689 H 0.78321 0.55490 0.44473
 H1690 H 0.70333 0.62712 0.44356
 H1691 H 0.70556 0.65419 0.40945
 H1692 H 0.78231 0.59680 0.37453
 H1693 H 0.78328 0.62288 0.33943
 H1694 H 0.71428 0.68212 0.38481
 H1695 H 0.71839 0.70825 0.34984
 H1696 H 0.77009 0.65890 0.31724
 C1697 C 0.78080 0.06328 0.09957
 C1698 C 0.76369 0.08274 0.09937
 C1699 C 0.74606 0.08315 0.08031
 C1700 C 0.74459 0.06380 0.06349
 C1701 C 0.76105 0.04420 0.06466
 C1702 C 0.77938 0.04437 0.08253
 C1703 C 0.72967 0.10260 0.07842
 C1704 C 0.73026 0.12174 0.09507
 C1705 C 0.74687 0.12183 0.11487
 C1706 C 0.76334 0.10162 0.11747
 C1707 C 0.77823 0.10045 0.13857
 C1708 C 0.77718 0.11838 0.15646
 C1709 C 0.76187 0.13860 0.15379
 C1710 C 0.74700 0.14103 0.13264
 C1711 C 0.73299 0.16271 0.13017
 C1712 C 0.73318 0.18064 0.14832
 C1713 C 0.74702 0.17750 0.16964
 C1714 C 0.76141 0.15646 0.17221
 H1715 H 0.79558 0.06216 0.11256
 H1716 H 0.73023 0.06366 0.04979
 H1717 H 0.79243 0.02948 0.08359
 H1718 H 0.71618 0.10303 0.06388
 H1719 H 0.71672 0.13582 0.09243
 H1720 H 0.79032 0.08534 0.14230
 H1721 H 0.78862 0.11644 0.17257
 H1722 H 0.72206 0.16662 0.11423
 H1723 H 0.72219 0.19695 0.14578
 H1724 H 0.77266 0.15421 0.18841
 C1725 C 0.27465 0.55978 0.60161
 C1726 C 0.25853 0.58006 0.60093
 C1727 C 0.24166 0.58144 0.58124
 C1728 C 0.23996 0.56234 0.56414
 C1729 C 0.25548 0.54201 0.56570
 C1730 C 0.27303 0.54112 0.58432
 C1731 C 0.22627 0.60165 0.57894
 C1732 C 0.22715 0.62063 0.59576
 C1733 C 0.24306 0.61983 0.61612
 C1734 C 0.25848 0.59885 0.61913
 C1735 C 0.27266 0.59692 0.64065
 C1736 C 0.27194 0.61484 0.65857
 C1737 C 0.25765 0.63574 0.65556
 C1738 C 0.24351 0.63892 0.63402
 C1739 C 0.23051 0.66120 0.63132
 C1740 C 0.23096 0.67902 0.64959
 C1741 C 0.24407 0.67518 0.67126
 C1742 C 0.25748 0.65352 0.67406
 H1743 H 0.28884 0.55781 0.61515
 H1744 H 0.22621 0.56303 0.54984
 H1745 H 0.28535 0.52565 0.58569
 H1746 H 0.21335 0.60283 0.56393
 H1747 H 0.21440 0.63535 0.59276
 H1748 H 0.28395 0.58127 0.64467
 H1749 H 0.28282 0.61233 0.67499
 H1750 H 0.22017 0.66566 0.61512
 H1751 H 0.22072 0.69577 0.64686
 H1752 H 0.26819 0.65068 0.69054
 C1753 C 0.72278 0.93959 0.89477
 C1754 C 0.73880 0.91928 0.89625
 C1755 C 0.75647 0.91910 0.91526
 C1756 C 0.75905 0.93937 0.93078
 C1757 C 0.74326 0.95946 0.92874
 C1758 C 0.72504 0.95927 0.91078
 C1759 C 0.77156 0.89879 0.91857
 C1760 C 0.76946 0.87846 0.90351
 C1761 C 0.75275 0.87807 0.88381
 C1762 C 0.73789 0.89922 0.87956
 C1763 C 0.72335 0.90008 0.85823
 C1764 C 0.72325 0.88095 0.84163
 C1765 C 0.73689 0.85986 0.84600
 C1766 C 0.75116 0.85765 0.86756
 C1767 C 0.76320 0.83506 0.87185
 C1768 C 0.76212 0.81613 0.85472
 C1769 C 0.74940 0.81927 0.83275
 C1770 C 0.73654 0.84103 0.82868
 H1771 H 0.70800 0.94065 0.88175
 H1772 H 0.77337 0.93956 0.94451
 H1773 H 0.71256 0.97459 0.90904
 H1774 H 0.78508 0.89853 0.93309
 H1775 H 0.78197 0.86366 0.90715
 H1776 H 0.71260 0.91583 0.85322
 H1777 H 0.71230 0.88269 0.82517
 H1778 H 0.77331 0.83136 0.88838
 H1779 H 0.77184 0.79925 0.85836
 H1780 H 0.72615 0.84327 0.81190
 C1781 C 0.22309 0.44197 0.39171
 C1782 C 0.23831 0.42108 0.39367
 C1783 C 0.25474 0.41988 0.41371
 C1784 C 0.25702 0.43969 0.42987
 C1785 C 0.24215 0.46042 0.42729
 C1786 C 0.22505 0.46123 0.40827
 C1787 C 0.26896 0.39901 0.41741
 C1788 C 0.26718 0.37913 0.40171
 C1789 C 0.25173 0.37975 0.38101
 C1790 C 0.23777 0.40146 0.37645
 C1791 C 0.22453 0.40326 0.35434
 C1792 C 0.22478 0.38451 0.33731
 C1793 C 0.23750 0.36291 0.34192
 C1794 C 0.25049 0.35978 0.36416
 C1795 C 0.26164 0.33675 0.36853
 C1796 C 0.26089 0.31822 0.35094
 C1797 C 0.24938 0.32219 0.32842
 C1798 C 0.23747 0.34445 0.32418
 H1799 H 0.20919 0.44383 0.37786
 H1800 H 0.27046 0.43908 0.44446
 H1801 H 0.21324 0.47702 0.40610
 H1802 H 0.28154 0.39795 0.43272
 H1803 H 0.27899 0.36385 0.40572
 H1804 H 0.21455 0.41944 0.34912
 H1805 H 0.21482 0.38697 0.32032
 H1806 H 0.27077 0.33237 0.38546
 H1807 H 0.26987 0.30096 0.35472
 H1808 H 0.22800 0.34737 0.30697
 C1809 C 0.21839 0.89631 0.05673
 C1810 C 0.23576 0.89757 0.07589
 C1811 C 0.25204 0.91781 0.07611
 C1812 C 0.25206 0.93483 0.05679
 C1813 C 0.23534 0.93269 0.03753
 C1814 C 0.21828 0.91359 0.03791
 C1815 C 0.26845 0.92076 0.09540
 C1816 C 0.26902 0.90414 0.11466
 C1817 C 0.25369 0.88332 0.11496
 C1818 C 0.23752 0.87948 0.09475
 C1819 C 0.22432 0.85729 0.09359
 C1820 C 0.22649 0.83961 0.11174
 C1821 C 0.24121 0.84362 0.13214
 C1822 C 0.25453 0.86579 0.13443
 C1823 C 0.26785 0.86959 0.15632
 C1824 C 0.26835 0.85183 0.17472
 C1825 C 0.25601 0.82961 0.17178
 C1826 C 0.24252 0.82559 0.15043
 H1827 H 0.20447 0.88237 0.05586
 H1828 H 0.26539 0.94955 0.05649
 H1829 H 0.20500 0.91183 0.02329
 H1830 H 0.28095 0.93617 0.09567
 H1831 H 0.28244 0.90763 0.12866
 H1832 H 0.21277 0.85259 0.07834
 H1833 H 0.21629 0.82269 0.10988
 H1834 H 0.27752 0.88634 0.16011
 H1835 H 0.27859 0.85543 0.19130
 H1836 H 0.23242 0.80864 0.14837
 C1837 C 0.71312 0.39608 0.55614
 C1838 C 0.73175 0.39609 0.57415
 C1839 C 0.74912 0.41538 0.57353
 C1840 C 0.74881 0.43267 0.55451
 C1841 C 0.73064 0.43196 0.53648
 C1842 C 0.71266 0.41374 0.53766
 C1843 C 0.76692 0.41714 0.59169
 C1844 C 0.76776 0.40032 0.61075
 C1845 C 0.75126 0.38045 0.61190
 C1846 C 0.73370 0.37769 0.59270
 C1847 C 0.71929 0.35624 0.59219
 C1848 C 0.72161 0.33830 0.61007
 C1849 C 0.73767 0.34138 0.62963
 C1850 C 0.75224 0.36282 0.63124
 C1851 C 0.76685 0.36588 0.65241
 C1852 C 0.76738 0.34808 0.67075
 C1853 C 0.75381 0.32653 0.66840
 C1854 C 0.73904 0.32322 0.64778
 H1855 H 0.69846 0.38288 0.55600
 H1856 H 0.76297 0.44657 0.55350
 H1857 H 0.69835 0.41300 0.52396
 H1858 H 0.78029 0.43180 0.59127
 H1859 H 0.78226 0.40285 0.62385
 H1860 H 0.70661 0.35232 0.57763
 H1861 H 0.71045 0.32194 0.60873
 H1862 H 0.77749 0.38214 0.65572
 H1863 H 0.77858 0.35111 0.68681
 H1864 H 0.72798 0.30682 0.64630
 C1865 C 0.08514 0.07675 0.78800
 C1866 C 0.08774 0.09592 0.77069
 C1867 C 0.06834 0.09960 0.75390
 C1868 C 0.04794 0.08404 0.75385
 C1869 C 0.04557 0.06482 0.77086
 C1870 C 0.06429 0.06178 0.78827
 C1871 C 0.06914 0.11897 0.73729
 C1872 C 0.08844 0.13543 0.73745
 C1873 C 0.10818 0.13277 0.75389
 C1874 C 0.10851 0.11198 0.76985
 C1875 C 0.12975 0.10771 0.78397
 C1876 C 0.14978 0.12348 0.78286
 C1877 C 0.14908 0.14463 0.76848
 C1878 C 0.12793 0.14993 0.75437
 C1879 C 0.12719 0.17250 0.74167
 C1880 C 0.14700 0.18853 0.74211
 C1881 C 0.16838 0.18265 0.75494
 C1882 C 0.16933 0.16064 0.76817
 H1883 H 0.09841 0.07353 0.80224
 H1884 H 0.03373 0.08691 0.74026
 H1885 H 0.06243 0.04842 0.80283
 H1886 H 0.05446 0.12170 0.72422
 H1887 H 0.08773 0.14970 0.72382
 H1888 H 0.13175 0.09180 0.79549
 H1889 H 0.16586 0.11925 0.79370
 H1890 H 0.11131 0.17864 0.73171
 H1891 H 0.14570 0.20554 0.73195
 H1892 H 0.18564 0.15622 0.77861
 C1893 C 0.58704 0.58070 0.29555
 C1894 C 0.59039 0.59795 0.27640
 C1895 C 0.57160 0.59995 0.25860
 C1896 C 0.55101 0.58465 0.25954
 C1897 C 0.54800 0.56767 0.27853
 C1898 C 0.56599 0.56607 0.29670
 C1899 C 0.57319 0.61746 0.24009
 C1900 C 0.59263 0.63376 0.23925
 C1901 C 0.61171 0.63278 0.25663
 C1902 C 0.61130 0.61374 0.27465
 C1903 C 0.63194 0.61091 0.28996
 C1904 C 0.65201 0.62656 0.28816
 C1905 C 0.65193 0.64620 0.27177
 C1906 C 0.63147 0.64996 0.25622
 C1907 C 0.63131 0.67118 0.24132
 C1908 C 0.65093 0.68747 0.24138
 C1909 C 0.67155 0.68310 0.25590
 C1910 C 0.67204 0.66235 0.27103
 H1911 H 0.59989 0.57872 0.31039
 H1912 H 0.53687 0.58628 0.24569
 H1913 H 0.56360 0.55365 0.31200
 H1914 H 0.55901 0.61887 0.22628
 H1915 H 0.59254 0.64655 0.22421
 H1916 H 0.63343 0.59624 0.30309
 H1917 H 0.66757 0.62350 0.30008
 H1918 H 0.61596 0.67615 0.22998
 H1919 H 0.65005 0.70355 0.22975
 H1920 H 0.68776 0.65920 0.28275
 C1921 C 0.07238 0.91410 0.25610
 C1922 C 0.09289 0.91146 0.24045
 C1923 C 0.09889 0.93143 0.22488
 C1924 C 0.08466 0.95280 0.22489
 C1925 C 0.06460 0.95508 0.24061
 C1926 C 0.05865 0.93565 0.25625
 C1927 C 0.11932 0.93021 0.20969
 C1928 C 0.13478 0.91011 0.21041
 C1929 C 0.13017 0.89012 0.22618
 C1930 C 0.10815 0.89016 0.24036
 C1931 C 0.10219 0.86895 0.25397
 C1932 C 0.11789 0.84895 0.25486
 C1933 C 0.14038 0.84948 0.24279
 C1934 C 0.14690 0.87011 0.22832
 C1935 C 0.17039 0.87030 0.21740
 C1936 C 0.18668 0.85106 0.22103
 C1937 C 0.18015 0.83078 0.23529
 C1938 C 0.15674 0.82978 0.24568
 H1939 H 0.06696 0.90024 0.26908
 H1940 H 0.08945 0.96797 0.21296
 H1941 H 0.04350 0.93735 0.26894
 H1942 H 0.12374 0.94523 0.19745
 H1943 H 0.15011 0.91067 0.19801
 H1944 H 0.08528 0.86710 0.26394
 H1945 H 0.11263 0.83315 0.26570
 H1946 H 0.17719 0.88546 0.20675
 H1947 H 0.20469 0.85217 0.21275
 H1948 H 0.15171 0.81421 0.25697
 C1949 C 0.57076 0.41128 0.75249
 C1950 C 0.59096 0.40831 0.73650
 C1951 C 0.59693 0.42812 0.72072
 C1952 C 0.58294 0.44967 0.72083
 C1953 C 0.56308 0.45219 0.73676
 C1954 C 0.55722 0.43294 0.75265
 C1955 C 0.61705 0.42653 0.70515
 C1956 C 0.63218 0.40617 0.70561
 C1957 C 0.62758 0.38629 0.72155
 C1958 C 0.60591 0.38678 0.73625
 C1959 C 0.59999 0.36579 0.75021
 C1960 C 0.61545 0.34561 0.75100
 C1961 C 0.63764 0.34568 0.73838
 C1962 C 0.64403 0.36601 0.72342
 C1963 C 0.66717 0.36565 0.71178
 C1964 C 0.68335 0.34632 0.71540
 C1965 C 0.67704 0.32647 0.73036
 C1966 C 0.65388 0.32587 0.74128
 H1967 H 0.56538 0.39757 0.76563
 H1968 H 0.58767 0.46471 0.70872
 H1969 H 0.54224 0.43483 0.76551
 H1970 H 0.62145 0.44143 0.69277
 H1971 H 0.64727 0.40647 0.69293
 H1972 H 0.58331 0.36427 0.76062
 H1973 H 0.61026 0.33003 0.76219
 H1974 H 0.67384 0.38046 0.70057
 H1975 H 0.70118 0.34707 0.70668
 H1976 H 0.64903 0.31062 0.75308
 C1977 C 0.89857 0.06605 0.26986
 C1978 C 0.89888 0.08629 0.25363
 C1979 C 0.91845 0.08789 0.23661
 C1980 C 0.93554 0.06876 0.23457
 C1981 C 0.93381 0.04812 0.24971
 C1982 C 0.91568 0.04728 0.26775
 C1983 C 0.92041 0.10820 0.22123
 C1984 C 0.90320 0.12691 0.22209
 C1985 C 0.88277 0.12568 0.23792
 C1986 C 0.88028 0.10471 0.25350
 C1987 C 0.85877 0.10226 0.26763
 C1988 C 0.84039 0.11971 0.26680
 C1989 C 0.84288 0.14062 0.25239
 C1990 C 0.86431 0.14429 0.23816
 C1991 C 0.86631 0.16654 0.22490
 C1992 C 0.84759 0.18397 0.22545
 C1993 C 0.82617 0.17969 0.23887
 C1994 C 0.82396 0.15795 0.25226
 H1995 H 0.88532 0.06408 0.28434
 H1996 H 0.94962 0.06944 0.22059
 H1997 H 0.91431 0.03157 0.27983
 H1998 H 0.93537 0.10960 0.20825
 H1999 H 0.90594 0.14173 0.20935
 H2000 H 0.85509 0.08652 0.27896
 H2001 H 0.82403 0.11682 0.27769
 H2002 H 0.88228 0.17129 0.21433
 H2003 H 0.84979 0.20080 0.21514
 H2004 H 0.80763 0.15476 0.26314
 C2005 C 0.39619 0.56141 0.76755
 C2006 C 0.39620 0.58186 0.75159
 C2007 C 0.41557 0.58380 0.73438
 C2008 C 0.43279 0.56483 0.73194
 C2009 C 0.43142 0.54403 0.74688
 C2010 C 0.41344 0.54282 0.76506
 C2011 C 0.41723 0.60432 0.71924
 C2012 C 0.39998 0.62295 0.72060
 C2013 C 0.37978 0.62143 0.73670
 C2014 C 0.37752 0.60021 0.75196
 C2015 C 0.35618 0.59748 0.76630
 C2016 C 0.33778 0.61494 0.76603
 C2017 C 0.34010 0.63614 0.75202
 C2018 C 0.36134 0.64005 0.73756
 C2019 C 0.36322 0.66256 0.72474
 C2020 C 0.34459 0.68004 0.72596
 C2021 C 0.32336 0.67559 0.73963
 C2022 C 0.32123 0.65355 0.75255
 H2023 H 0.38308 0.55916 0.78212
 H2024 H 0.44672 0.56579 0.71781
 H2025 H 0.41233 0.52696 0.77698
 H2026 H 0.43203 0.60597 0.70610
 H2027 H 0.40249 0.63796 0.70803
 H2028 H 0.35266 0.58152 0.77737
 H2029 H 0.32156 0.61185 0.77708
 H2030 H 0.37905 0.66748 0.71404
 H2031 H 0.34673 0.69708 0.71598
 H2032 H 0.30505 0.65020 0.76359
 C2033 C 0.91597 0.92203 0.75110
 C2034 C 0.90967 0.90407 0.76874
 C2035 C 0.92535 0.90117 0.78923
 C2036 C 0.94564 0.91660 0.79238
 C2037 C 0.95152 0.93436 0.77481
 C2038 C 0.93680 0.93657 0.75395
 C2039 C 0.92103 0.88256 0.80619
 C2040 C 0.90209 0.86599 0.80274
 C2041 C 0.88607 0.86799 0.78257
 C2042 C 0.88896 0.88828 0.76625
 C2043 C 0.87086 0.89230 0.74824
 C2044 C 0.85117 0.87643 0.74559
 C2045 C 0.84925 0.85545 0.76005
 C2046 C 0.86698 0.85062 0.77841
 C2047 C 0.86530 0.82819 0.79133
 C2048 C 0.84651 0.81160 0.78648
 C2049 C 0.82856 0.81700 0.76905
 C2050 C 0.82987 0.83904 0.75602
 H2051 H 0.90583 0.92448 0.73435
 H2052 H 0.95739 0.91434 0.80823
 H2053 H 0.94166 0.94941 0.73961
 H2054 H 0.93281 0.88038 0.82201
 H2055 H 0.89996 0.85213 0.81667
 H2056 H 0.87104 0.90810 0.73638
 H2057 H 0.83758 0.88035 0.73166
 H2058 H 0.87868 0.82255 0.80469
 H2059 H 0.84586 0.79454 0.79662
 H2060 H 0.81621 0.84303 0.74217
 C2061 C 0.41559 0.42718 0.25113
 C2062 C 0.41035 0.40766 0.26744
 C2063 C 0.42715 0.40315 0.28671
 C2064 C 0.44764 0.41828 0.28995
 C2065 C 0.45252 0.43749 0.27366
 C2066 C 0.43654 0.44156 0.25406
 C2067 C 0.42375 0.38327 0.30237
 C2068 C 0.40458 0.36702 0.29875
 C2069 C 0.38751 0.37049 0.27967
 C2070 C 0.38956 0.39195 0.26476
 C2071 C 0.37064 0.39712 0.24793
 C2072 C 0.35090 0.38134 0.24503
 C2073 C 0.34967 0.35939 0.25807
 C2074 C 0.36822 0.35340 0.27524
 C2075 C 0.36708 0.33017 0.28672
 C2076 C 0.34809 0.31390 0.28165
 C2077 C 0.32941 0.32032 0.26535
 C2078 C 0.33015 0.34319 0.25376
 H2079 H 0.40445 0.43111 0.23533
 H2080 H 0.46028 0.41472 0.30485
 H2081 H 0.44050 0.45572 0.24071
 H2082 H 0.43639 0.37990 0.31730
 H2083 H 0.40321 0.35217 0.31170
 H2084 H 0.37023 0.41367 0.23717
 H2085 H 0.33669 0.38614 0.23202
 H2086 H 0.38100 0.32368 0.29910
 H2087 H 0.34790 0.29623 0.29071
 H2088 H 0.31592 0.34803 0.24079
   
