data_POSCAR
  _audit_creation_date              2014-09-24
  _audit_creation_method            'ToBaCCo'
  _symmetry_space_group_name_H-M    'P1'
  _symmetry_Int_Tables_number       1
  _symmetry_cell_setting            triclinic
  loop_
  _symmetry_equiv_pos_as_xyz
 x,y,z
_cell_length_a 83.6921
_cell_length_b 83.5160
_cell_length_c 84.5099
_cell_angle_alpha 89.969300
_cell_angle_beta 89.967000
_cell_angle_gamma 89.903800
loop_
  _atom_site_label
  _atom_site_type_symbol
  _atom_site_fract_x
  _atom_site_fract_y
  _atom_site_fract_z
N1 N 0.35716 0.31246 0.32508
 N2 N 0.35719 0.32378 0.31426
 C3 C 0.36948 0.32127 0.30425
 C4 C 0.37748 0.30771 0.30914
 C5 C 0.36943 0.30237 0.32236
 H6 H 0.37241 0.32869 0.29417
 H7 H 0.37228 0.29196 0.32943
 Cu8 Cu 0.34109 0.34061 0.31418
 Cu9 Cu 0.34122 0.31157 0.34183
 Cu10 Cu 0.31193 0.34099 0.34162
 N11 N 0.32429 0.35675 0.31400
 N12 N 0.31293 0.35683 0.32476
 C13 C 0.30290 0.36911 0.32189
 C14 C 0.30830 0.37706 0.30864
 C15 C 0.32186 0.36900 0.30388
 H16 H 0.29247 0.37204 0.32888
 H17 H 0.32932 0.37185 0.29382
 N18 N 0.31293 0.32395 0.35771
 N19 N 0.32408 0.31273 0.35778
 C20 C 0.32150 0.30285 0.37014
 C21 C 0.30816 0.30817 0.37811
 C22 C 0.30298 0.32151 0.37001
 H23 H 0.32875 0.29256 0.37313
 H24 H 0.29272 0.32884 0.37288
 H25 H 0.32346 0.32301 0.32917
 H26 H 0.33612 0.33577 0.34226
 N27 N 0.35777 0.81311 -0.17543
 N28 N 0.35753 0.82436 -0.18635
 C29 C 0.36987 0.82206 -0.19636
 C30 C 0.37813 0.80869 -0.19135
 C31 C 0.37024 0.80327 -0.17809
 H32 H 0.37265 0.82947 -0.20649
 H33 H 0.37330 0.79296 -0.17094
 Cu34 Cu 0.34096 0.84072 -0.18632
 Cu35 Cu 0.34187 0.81196 -0.15862
 Cu36 Cu 0.31228 0.84120 -0.15857
 N37 N 0.32440 0.85708 -0.18631
 N38 N 0.31319 0.85717 -0.17537
 C39 C 0.30323 0.86957 -0.17799
 C40 C 0.30854 0.87757 -0.19124
 C41 C 0.32195 0.86945 -0.19628
 H42 H 0.29295 0.87254 -0.17080
 H43 H 0.32932 0.87236 -0.20640
 N44 N 0.31346 0.82398 -0.14262
 N45 N 0.32472 0.81285 -0.14266
 C46 C 0.32222 0.80281 -0.13042
 C47 C 0.30882 0.80790 -0.12241
 C48 C 0.30352 0.82129 -0.13035
 H49 H 0.32956 0.79255 -0.12754
 H50 H 0.29320 0.82850 -0.12740
 H51 H 0.32373 0.82321 -0.17082
 H52 H 0.33650 0.83617 -0.15811
 N53 N 0.85718 0.31368 -0.17514
 N54 N 0.85662 0.32453 -0.18641
 C55 C 0.86818 0.32141 -0.19708
 C56 C 0.87633 0.30795 -0.19215
 C57 C 0.86914 0.30332 -0.17821
 H58 H 0.87064 0.32849 -0.20752
 H59 H 0.87249 0.29334 -0.17074
 Cu60 Cu 0.84125 0.34204 -0.18591
 Cu61 Cu 0.84290 0.31426 -0.15703
 Cu62 Cu 0.81146 0.34123 -0.15898
 N63 N 0.82413 0.35781 -0.18596
 N64 N 0.81241 0.35732 -0.17558
 C65 C 0.80217 0.36943 -0.17846
 C66 C 0.80782 0.37784 -0.19132
 C67 C 0.82172 0.37025 -0.19585
 H68 H 0.79149 0.37196 -0.17169
 H69 H 0.82943 0.37351 -0.20560
 N70 N 0.81275 0.32415 -0.14297
 N71 N 0.82485 0.31401 -0.14210
 C72 C 0.82248 0.30404 -0.12978
 C73 C 0.80827 0.30820 -0.12263
 C74 C 0.80238 0.32094 -0.13119
 H75 H 0.83048 0.29451 -0.12624
 H76 H 0.79146 0.32745 -0.12888
 H77 H 0.82478 0.32372 -0.17058
 H78 H 0.83566 0.33818 -0.15764
 N79 N 0.85710 0.81296 0.32465
 N80 N 0.85701 0.82434 0.31387
 C81 C 0.86926 0.82191 0.30379
 C82 C 0.87733 0.80836 0.30858
 C83 C 0.86938 0.80294 0.32181
 H84 H 0.87212 0.82938 0.29372
 H85 H 0.87232 0.79250 0.32883
 Cu86 Cu 0.84087 0.84112 0.31398
 Cu87 Cu 0.84128 0.81194 0.34148
 Cu88 Cu 0.81187 0.84123 0.34159
 N89 N 0.82400 0.85719 0.31397
 N90 N 0.81270 0.85716 0.32480
 C91 C 0.80258 0.86941 0.32204
 C92 C 0.80789 0.87743 0.30880
 C93 C 0.82146 0.86947 0.30392
 H94 H 0.79217 0.87224 0.32911
 H95 H 0.82887 0.87240 0.29384
 N96 N 0.81304 0.82411 0.35758
 N97 N 0.82425 0.81295 0.35754
 C98 C 0.82179 0.80298 0.36984
 C99 C 0.80845 0.80818 0.37790
 C100 C 0.80316 0.82154 0.36991
 H101 H 0.82910 0.79271 0.37275
 H102 H 0.79288 0.82880 0.37288
 H103 H 0.82339 0.82340 0.32900
 H104 H 0.83608 0.83615 0.34207
 N105 N 0.64238 0.68737 0.32554
 N106 N 0.64277 0.67651 0.31428
 C107 C 0.63119 0.67974 0.30369
 C108 C 0.62320 0.69328 0.30866
 C109 C 0.63050 0.69784 0.32255
 H110 H 0.62856 0.67266 0.29330
 H111 H 0.62726 0.70782 0.33005
 Cu112 Cu 0.65788 0.65877 0.31476
 Cu113 Cu 0.65666 0.68656 0.34363
 Cu114 Cu 0.68802 0.65952 0.34131
 N115 N 0.67505 0.64305 0.31444
 N116 N 0.68691 0.64354 0.32464
 C117 C 0.69714 0.63148 0.32157
 C118 C 0.69135 0.62308 0.30878
 C119 C 0.67736 0.63065 0.30450
 H120 H 0.70792 0.62895 0.32817
 H121 H 0.66953 0.62739 0.29486
 N122 N 0.68687 0.67651 0.35741
 N123 N 0.67479 0.68665 0.35843
 C124 C 0.67725 0.69653 0.37078
 C125 C 0.69150 0.69233 0.37779
 C126 C 0.69733 0.67964 0.36912
 H127 H 0.66927 0.70603 0.37444
 H128 H 0.70828 0.67312 0.37130
 H129 H 0.67461 0.67703 0.32985
 H130 H 0.66385 0.66260 0.34296
 N131 N 0.64328 0.18700 -0.17517
 N132 N 0.64273 0.17520 -0.18545
 C133 C 0.63026 0.17756 -0.19528
 C134 C 0.62272 0.19154 -0.19084
 C135 C 0.63120 0.19726 -0.17808
 H136 H 0.62695 0.16978 -0.20495
 H137 H 0.62872 0.20802 -0.17139
 Cu138 Cu 0.65848 0.15803 -0.18540
 Cu139 Cu 0.65936 0.18802 -0.15861
 Cu140 Cu 0.68634 0.15657 -0.15668
 N141 N 0.67608 0.14278 -0.18601
 N142 N 0.68698 0.14230 -0.17481
 C143 C 0.69738 0.13037 -0.17789
 C144 C 0.69272 0.12313 -0.19179
 C145 C 0.67920 0.13119 -0.19667
 H146 H 0.70737 0.12707 -0.17045
 H147 H 0.67206 0.12862 -0.20703
 N148 N 0.68655 0.17464 -0.14175
 N149 N 0.67643 0.18677 -0.14264
 C150 C 0.67967 0.19720 -0.13091
 C151 C 0.69240 0.19131 -0.12237
 C152 C 0.69652 0.17705 -0.12947
 H153 H 0.67319 0.20817 -0.12864
 H154 H 0.70603 0.16904 -0.12593
 H155 H 0.67676 0.17467 -0.17025
 H156 H 0.66241 0.16378 -0.15718
 N157 N 0.14262 0.68732 -0.17504
 N158 N 0.14282 0.67604 -0.18590
 C159 C 0.13052 0.67838 -0.19592
 C160 C 0.12230 0.69180 -0.19101
 C161 C 0.13021 0.69722 -0.17777
 H162 H 0.12775 0.67097 -0.20603
 H163 H 0.12719 0.70758 -0.17070
 Cu164 Cu 0.15922 0.65952 -0.18596
 Cu165 Cu 0.15850 0.68842 -0.15828
 Cu166 Cu 0.18789 0.65905 -0.15809
 N167 N 0.17578 0.64316 -0.18573
 N168 N 0.18696 0.64304 -0.17479
 C169 C 0.19692 0.63065 -0.17743
 C170 C 0.19165 0.62267 -0.19069
 C171 C 0.17825 0.63082 -0.19571
 H172 H 0.20724 0.62770 -0.17029
 H173 H 0.17094 0.62800 -0.20588
 N174 N 0.18678 0.67629 -0.14221
 N175 N 0.17560 0.68748 -0.14230
 C176 C 0.17814 0.69756 -0.13012
 C177 C 0.19150 0.69242 -0.12210
 C178 C 0.19673 0.67897 -0.12997
 H179 H 0.17088 0.70789 -0.12729
 H180 H 0.20703 0.67174 -0.12700
 H181 H 0.17660 0.67704 -0.17064
 H182 H 0.16371 0.66418 -0.15783
 N183 N 0.14282 0.18766 0.32527
 N184 N 0.14273 0.17641 0.31438
 C185 C 0.13041 0.17902 0.30445
 C186 C 0.12247 0.19257 0.30945
 C187 C 0.13057 0.19780 0.32266
 H188 H 0.12744 0.17169 0.29432
 H189 H 0.12779 0.20819 0.32978
 Cu190 Cu 0.15879 0.15957 0.31408
 Cu191 Cu 0.15887 0.18841 0.34190
 Cu192 Cu 0.18812 0.15896 0.34130
 N193 N 0.17559 0.14347 0.31367
 N194 N 0.18701 0.14326 0.32435
 C195 C 0.19700 0.13099 0.32129
 C196 C 0.19151 0.12321 0.30800
 C197 C 0.17795 0.13134 0.30341
 H198 H 0.20746 0.12797 0.32819
 H199 H 0.17041 0.12861 0.29338
 N200 N 0.18724 0.17589 0.35751
 N201 N 0.17611 0.18714 0.35771
 C202 C 0.17878 0.19694 0.37009
 C203 C 0.19215 0.19154 0.37795
 C204 C 0.19725 0.17823 0.36977
 H205 H 0.17157 0.20723 0.37318
 H206 H 0.20750 0.17085 0.37256
 H207 H 0.17657 0.17702 0.32905
 H208 H 0.16399 0.16419 0.34216
 N209 N 0.64280 0.31284 0.67533
 N210 N 0.64287 0.32420 0.68610
 C211 C 0.63063 0.32180 0.69619
 C212 C 0.62257 0.30827 0.69140
 C213 C 0.63052 0.30284 0.67816
 H214 H 0.62777 0.32926 0.70626
 H215 H 0.62760 0.29242 0.67116
 Cu216 Cu 0.65902 0.34094 0.68598
 Cu217 Cu 0.65863 0.31180 0.65849
 Cu218 Cu 0.68802 0.34102 0.65836
 N219 N 0.67584 0.35699 0.68597
 N220 N 0.68715 0.35694 0.67514
 C221 C 0.69723 0.36918 0.67789
 C222 C 0.69192 0.37722 0.69112
 C223 C 0.67837 0.36927 0.69599
 H224 H 0.70763 0.37200 0.67083
 H225 H 0.67097 0.37222 0.70608
 N226 N 0.68687 0.32389 0.64238
 N227 N 0.67567 0.31276 0.64243
 C228 C 0.67811 0.30280 0.63012
 C229 C 0.69144 0.30796 0.62204
 C230 C 0.69673 0.32130 0.63003
 H231 H 0.67080 0.29256 0.62722
 H232 H 0.70701 0.32853 0.62705
 H233 H 0.67655 0.32321 0.67097
 H234 H 0.66385 0.33601 0.65790
 N235 N 0.64278 0.81283 1.17527
 N236 N 0.64312 0.82394 1.18630
 C237 C 0.63084 0.82159 1.19635
 C238 C 0.62249 0.80835 1.19128
 C239 C 0.63030 0.80304 1.17792
 H240 H 0.62816 0.82890 1.20658
 H241 H 0.62715 0.79283 1.17070
 Cu242 Cu 0.65968 0.84025 1.18644
 Cu243 Cu 0.65854 0.81182 1.15836
 Cu244 Cu 0.68798 0.84104 1.15826
 N245 N 0.67609 0.85671 1.18617
 N246 N 0.68716 0.85692 1.17511
 C247 C 0.69708 0.86932 1.17770
 C248 C 0.69190 0.87722 1.19106
 C249 C 0.67859 0.86901 1.19618
 H250 H 0.70731 0.87233 1.17047
 H251 H 0.67136 0.87178 1.20644
 N252 N 0.68677 0.82395 1.14224
 N253 N 0.67555 0.81283 1.14227
 C254 C 0.67799 0.80288 1.12995
 C255 C 0.69134 0.80802 1.12190
 C256 C 0.69665 0.82135 1.12990
 H257 H 0.67068 0.79263 1.12706
 H258 H 0.70696 0.82854 1.12696
 H259 H 0.67681 0.82283 1.17061
 H260 H 0.66381 0.83596 1.15820
 N261 N 0.14277 0.31286 1.17539
 N262 N 0.14307 0.32400 1.18639
 C263 C 0.13080 0.32161 1.19646
 C264 C 0.12250 0.30833 1.19141
 C265 C 0.13032 0.30303 1.17806
 H266 H 0.12809 0.32891 1.20668
 H267 H 0.12723 0.29278 1.17087
 Cu268 Cu 0.15955 0.34040 1.18649
 Cu269 Cu 0.15857 0.31184 1.15850
 Cu270 Cu 0.18806 0.34098 1.15846
 N271 N 0.17615 0.35668 1.18635
 N272 N 0.18726 0.35684 1.17533
 C273 C 0.19723 0.36919 1.17795
 C274 C 0.19205 0.37710 1.19130
 C275 C 0.17870 0.36896 1.19639
 H276 H 0.20747 0.37217 1.17073
 H277 H 0.17145 0.37178 1.20661
 N278 N 0.18683 0.32392 1.14241
 N279 N 0.17560 0.31282 1.14243
 C280 C 0.17804 0.30288 1.13011
 C281 C 0.19138 0.30804 1.12205
 C282 C 0.19670 0.32135 1.13007
 H283 H 0.17072 0.29264 1.12720
 H284 H 0.20700 0.32856 1.12712
 H285 H 0.17677 0.32289 1.17088
 H286 H 0.16389 0.33599 1.15830
 N287 N 0.14276 0.81295 0.67518
 N288 N 0.14283 0.82432 0.68595
 C289 C 0.13059 0.82190 0.69605
 C290 C 0.12255 0.80836 0.69126
 C291 C 0.13050 0.80293 0.67803
 H292 H 0.12774 0.82936 0.70612
 H293 H 0.12759 0.79250 0.67103
 Cu294 Cu 0.15895 0.84107 0.68583
 Cu295 Cu 0.15858 0.81191 0.65834
 Cu296 Cu 0.18797 0.84112 0.65823
 N297 N 0.17581 0.85709 0.68583
 N298 N 0.18712 0.85703 0.67501
 C299 C 0.19725 0.86921 0.67780
 C300 C 0.19197 0.87724 0.69104
 C301 C 0.17838 0.86933 0.69589
 H302 H 0.20769 0.87199 0.67077
 H303 H 0.17101 0.87227 0.70600
 N304 N 0.18681 0.82402 0.64224
 N305 N 0.17561 0.81289 0.64228
 C306 C 0.17807 0.80294 0.62996
 C307 C 0.19140 0.80811 0.62190
 C308 C 0.19668 0.82144 0.62990
 H309 H 0.17076 0.79269 0.62706
 H310 H 0.20697 0.82868 0.62694
 H311 H 0.17647 0.82332 0.67085
 H312 H 0.16378 0.83611 0.65776
 N313 N 0.35716 0.68719 0.67537
 N314 N 0.35683 0.67607 0.68640
 C315 C 0.36909 0.67844 0.69646
 C316 C 0.37740 0.69173 0.69141
 C317 C 0.36960 0.69703 0.67804
 H318 H 0.37177 0.67114 0.70669
 H319 H 0.37271 0.70727 0.67085
 Cu320 Cu 0.34030 0.65972 0.68656
 Cu321 Cu 0.34140 0.68819 0.65847
 Cu322 Cu 0.31203 0.65889 0.65834
 N323 N 0.32392 0.64321 0.68625
 N324 N 0.31287 0.64298 0.67518
 C325 C 0.30300 0.63054 0.67775
 C326 C 0.30818 0.62262 0.69110
 C327 C 0.32144 0.63087 0.69625
 H328 H 0.29280 0.62751 0.67050
 H329 H 0.32866 0.62810 0.70650
 N330 N 0.31322 0.67601 0.64233
 N331 N 0.32440 0.68716 0.64237
 C332 C 0.32194 0.69713 0.63007
 C333 C 0.30864 0.69196 0.62200
 C334 C 0.30336 0.67860 0.62998
 H335 H 0.32923 0.70741 0.62718
 H336 H 0.29308 0.67137 0.62702
 H337 H 0.32311 0.67707 0.67071
 H338 H 0.33617 0.66400 0.65830
 N339 N 0.35740 0.18729 1.17509
 N340 N 0.35747 0.17595 1.18589
 C341 C 0.36976 0.17844 1.19589
 C342 C 0.37769 0.19202 1.19102
 C343 C 0.36963 0.19738 1.17782
 H344 H 0.37271 0.17101 1.20596
 H345 H 0.37243 0.20782 1.17078
 Cu346 Cu 0.34144 0.15912 1.18599
 Cu347 Cu 0.34146 0.18818 1.15837
 Cu348 Cu 0.31222 0.15882 1.15861
 N349 N 0.32464 0.14307 1.18622
 N350 N 0.31325 0.14301 1.17549
 C351 C 0.30321 0.13079 1.17845
 C352 C 0.30864 0.12286 1.19170
 C353 C 0.32221 0.13087 1.19638
 H354 H 0.29275 0.12789 1.17151
 H355 H 0.32969 0.12803 1.20644
 N356 N 0.31321 0.17586 1.14251
 N357 N 0.32433 0.18706 1.14244
 C358 C 0.32177 0.19694 1.13008
 C359 C 0.30844 0.19165 1.12211
 C360 C 0.30328 0.17831 1.13020
 H361 H 0.32901 0.20721 1.12708
 H362 H 0.29305 0.17099 1.12731
 H363 H 0.32369 0.17671 1.17107
 H364 H 0.33635 0.16395 1.15793
 N365 N 0.85734 0.68744 1.17519
 N366 N 0.85737 0.67613 1.18603
 C367 C 0.86961 0.67867 1.19607
 C368 C 0.87755 0.69224 1.19119
 C369 C 0.86954 0.69756 1.17795
 H370 H 0.87254 0.67127 1.20617
 H371 H 0.87236 0.70798 1.17089
 Cu372 Cu 0.84136 0.65927 1.18605
 Cu373 Cu 0.84147 0.68827 1.15839
 Cu374 Cu 0.81234 0.65879 1.15851
 N375 N 0.82470 0.64306 1.18617
 N376 N 0.81338 0.64296 1.17537
 C377 C 0.80338 0.63069 1.17824
 C378 C 0.80876 0.62276 1.19151
 C379 C 0.82227 0.63083 1.19630
 H380 H 0.79296 0.62778 1.17125
 H381 H 0.82968 0.62802 1.20640
 N382 N 0.81332 0.67584 1.14243
 N383 N 0.82442 0.68708 1.14238
 C384 C 0.82185 0.69695 1.13002
 C385 C 0.80856 0.69162 1.12202
 C386 C 0.80340 0.67828 1.13010
 H387 H 0.82906 0.70726 1.12705
 H388 H 0.79318 0.67095 1.12720
 H389 H 0.82365 0.67675 1.17096
 H390 H 0.83645 0.66401 1.15795
 N391 N 0.85725 0.18693 0.67546
 N392 N 0.85686 0.17569 0.68636
 C393 C 0.86905 0.17798 0.69653
 C394 C 0.87738 0.19132 0.69167
 C395 C 0.86967 0.19675 0.67831
 H396 H 0.87165 0.17058 0.70672
 H397 H 0.87281 0.20707 0.67124
 Cu398 Cu 0.84035 0.15934 0.68626
 Cu399 Cu 0.84154 0.18814 0.65850
 Cu400 Cu 0.81195 0.15907 0.65817
 N401 N 0.82373 0.14309 0.68596
 N402 N 0.81264 0.14308 0.67494
 C403 C 0.80259 0.13077 0.67749
 C404 C 0.80772 0.12272 0.69079
 C405 C 0.82111 0.13076 0.69592
 H406 H 0.79233 0.12790 0.67026
 H407 H 0.82832 0.12785 0.70614
 N408 N 0.81331 0.17626 0.64225
 N409 N 0.82458 0.18731 0.64236
 C410 C 0.82225 0.19732 0.63006
 C411 C 0.80893 0.19226 0.62193
 C412 C 0.80352 0.17894 0.62988
 H413 H 0.82964 0.20753 0.62721
 H414 H 0.79321 0.17178 0.62686
 H415 H 0.82323 0.17702 0.67072
 H416 H 0.83612 0.16400 0.65808
 N417 N 0.31285 0.35685 0.67523
 N418 N 0.32418 0.35676 0.68601
 C419 C 0.32172 0.36900 0.69612
 C420 C 0.30820 0.37708 0.69132
 C421 C 0.30282 0.36914 0.67808
 H422 H 0.32916 0.37184 0.70619
 H423 H 0.29241 0.37208 0.67106
 Cu424 Cu 0.34099 0.34063 0.68586
 Cu425 Cu 0.31191 0.34103 0.65837
 Cu426 Cu 0.34119 0.31162 0.65820
 N427 N 0.35707 0.32377 0.68582
 N428 N 0.35708 0.31246 0.67498
 C429 C 0.36934 0.30238 0.67771
 C430 C 0.37736 0.30769 0.69094
 C431 C 0.36934 0.32124 0.69584
 H432 H 0.37221 0.29197 0.67064
 H433 H 0.37225 0.32864 0.70593
 N434 N 0.32409 0.31279 0.64222
 N435 N 0.31294 0.32400 0.64228
 C436 C 0.30298 0.32154 0.62999
 C437 C 0.30816 0.30819 0.62193
 C438 C 0.32151 0.30289 0.62989
 H439 H 0.29270 0.32884 0.62712
 H440 H 0.32874 0.29257 0.62693
 H441 H 0.32335 0.32303 0.67087
 H442 H 0.33605 0.33579 0.65780
 N443 N 0.31287 0.85726 0.17476
 N444 N 0.32396 0.85693 0.18579
 C445 C 0.32149 0.86919 0.19587
 C446 C 0.30819 0.87749 0.19082
 C447 C 0.30297 0.86969 0.17744
 H448 H 0.32873 0.87186 0.20613
 H449 H 0.29273 0.87278 0.17026
 Cu450 Cu 0.34030 0.84035 0.18593
 Cu451 Cu 0.31190 0.84145 0.15790
 Cu452 Cu 0.34117 0.81196 0.15777
 N453 N 0.35680 0.82393 0.18564
 N454 N 0.35704 0.81283 0.17459
 C455 C 0.36946 0.80291 0.17718
 C456 C 0.37734 0.80811 0.19052
 C457 C 0.36910 0.82144 0.19563
 H458 H 0.37250 0.79266 0.16996
 H459 H 0.37184 0.82868 0.20588
 N460 N 0.32407 0.81316 0.14180
 N461 N 0.31294 0.82441 0.14185
 C462 C 0.30297 0.82194 0.12958
 C463 C 0.30811 0.80857 0.12155
 C464 C 0.32146 0.80325 0.12949
 H465 H 0.29270 0.82927 0.12672
 H466 H 0.32865 0.79291 0.12654
 H467 H 0.32302 0.82313 0.17015
 H468 H 0.33605 0.83617 0.15770
 N469 N 0.81330 0.35763 0.17483
 N470 N 0.82459 0.35731 0.18566
 C471 C 0.82233 0.36959 0.19578
 C472 C 0.80895 0.37790 0.19096
 C473 C 0.80348 0.37008 0.17768
 H474 H 0.82977 0.37228 0.20589
 H475 H 0.79309 0.37315 0.17070
 Cu476 Cu 0.84085 0.34066 0.18549
 Cu477 Cu 0.81202 0.34179 0.15796
 Cu478 Cu 0.84106 0.31204 0.15763
 N479 N 0.85711 0.32400 0.18530
 N480 N 0.85708 0.31281 0.17435
 C481 C 0.86941 0.30276 0.17687
 C482 C 0.87751 0.30797 0.19008
 C483 C 0.86950 0.32145 0.19518
 H484 H 0.87225 0.29243 0.16968
 H485 H 0.87250 0.32878 0.20530
 N486 N 0.82381 0.31336 0.14178
 N487 N 0.81276 0.32468 0.14191
 C488 C 0.80267 0.32227 0.12972
 C489 C 0.80767 0.30886 0.12164
 C490 C 0.82105 0.30347 0.12949
 H491 H 0.79244 0.32967 0.12692
 H492 H 0.82819 0.29312 0.12647
 H493 H 0.82322 0.32347 0.17010
 H494 H 0.83616 0.33626 0.15735
 N495 N 0.81281 0.85751 0.67449
 N496 N 0.82353 0.85698 0.68586
 C497 C 0.82090 0.86921 0.69593
 C498 C 0.80787 0.87771 0.69055
 C499 C 0.80298 0.87005 0.67696
 H500 H 0.82788 0.87175 0.70640
 H501 H 0.79296 0.87327 0.66952
 Cu502 Cu 0.83991 0.84043 0.68641
 Cu503 Cu 0.81210 0.84169 0.65760
 Cu504 Cu 0.83936 0.81046 0.65989
 N505 N 0.85674 0.82432 0.68571
 N506 N 0.85649 0.81265 0.67526
 C507 C 0.86914 0.80298 0.67766
 C508 C 0.87773 0.80898 0.69022
 C509 C 0.86962 0.82249 0.69510
 H510 H 0.87175 0.79227 0.67094
 H511 H 0.87276 0.83021 0.70487
 N512 N 0.82352 0.81239 0.64278
 N513 N 0.81326 0.82438 0.64180
 C514 C 0.80402 0.82228 0.62891
 C515 C 0.80879 0.80838 0.62151
 C516 C 0.82114 0.80238 0.63050
 H517 H 0.79443 0.83014 0.62526
 H518 H 0.82781 0.79151 0.62830
 H519 H 0.82151 0.82375 0.67107
 H520 H 0.83602 0.83487 0.65841
 N521 N 0.68697 0.64305 0.67491
 N522 N 0.67576 0.64314 0.68583
 C523 C 0.67820 0.63075 0.69579
 C524 C 0.69158 0.62259 0.69075
 C525 C 0.69689 0.63062 0.67751
 H526 H 0.67085 0.62785 0.70592
 H527 H 0.70717 0.62765 0.67034
 Cu528 Cu 0.65928 0.65959 0.68594
 Cu529 Cu 0.68791 0.65904 0.65814
 Cu530 Cu 0.65846 0.68841 0.65826
 N531 N 0.64277 0.67600 0.68596
 N532 N 0.64258 0.68729 0.67509
 C533 C 0.63013 0.69715 0.67779
 C534 C 0.62220 0.69172 0.69103
 C535 C 0.63044 0.67833 0.69597
 H536 H 0.62709 0.70748 0.67068
 H537 H 0.62763 0.67090 0.70609
 N538 N 0.67560 0.68746 0.64228
 N539 N 0.68680 0.67628 0.64223
 C540 C 0.69673 0.67890 0.62994
 C541 C 0.69148 0.69231 0.62199
 C542 C 0.67812 0.69748 0.63002
 H543 H 0.70700 0.67164 0.62698
 H544 H 0.67081 0.70775 0.62713
 H545 H 0.67656 0.67707 0.67046
 H546 H 0.66371 0.66418 0.65774
 N547 N 0.68716 0.14247 0.17473
 N548 N 0.67590 0.14262 0.18561
 C549 C 0.67822 0.13022 0.19557
 C550 C 0.69162 0.12201 0.19062
 C551 C 0.69703 0.13001 0.17740
 H552 H 0.67083 0.12740 0.20569
 H553 H 0.70740 0.12705 0.17035
 Cu554 Cu 0.65958 0.15924 0.18583
 Cu555 Cu 0.68827 0.15848 0.15800
 Cu556 Cu 0.65901 0.18794 0.15790
 N557 N 0.64307 0.17568 0.18550
 N558 N 0.64299 0.18693 0.17459
 C559 C 0.63058 0.19686 0.17718
 C560 C 0.62253 0.19150 0.19038
 C561 C 0.63066 0.17807 0.19540
 H562 H 0.62767 0.20723 0.17008
 H563 H 0.62777 0.17068 0.20552
 N564 N 0.67624 0.18692 0.14202
 N565 N 0.68739 0.17569 0.14206
 C566 C 0.69737 0.17821 0.12979
 C567 C 0.69221 0.19160 0.12175
 C568 C 0.67885 0.19687 0.12973
 H569 H 0.70761 0.17087 0.12686
 H570 H 0.67158 0.20715 0.12675
 H571 H 0.67699 0.17664 0.17031
 H572 H 0.66408 0.16372 0.15766
 N573 N 0.18706 0.64298 0.17482
 N574 N 0.17595 0.64332 0.18583
 C575 C 0.17833 0.63103 0.19589
 C576 C 0.19160 0.62268 0.19086
 C577 C 0.19689 0.63050 0.17750
 H578 H 0.17103 0.62835 0.20612
 H579 H 0.20713 0.62737 0.17031
 Cu580 Cu 0.15962 0.65992 0.18594
 Cu581 Cu 0.18806 0.65880 0.15793
 Cu582 Cu 0.15881 0.68831 0.15774
 N583 N 0.14315 0.67637 0.18563
 N584 N 0.14292 0.68746 0.17457
 C585 C 0.13049 0.69738 0.17714
 C586 C 0.12260 0.69217 0.19049
 C587 C 0.13084 0.67886 0.19563
 H588 H 0.12745 0.70762 0.16990
 H589 H 0.12807 0.67161 0.20587
 N590 N 0.17593 0.68709 0.14176
 N591 N 0.18707 0.67584 0.14184
 C592 C 0.19706 0.67830 0.12958
 C593 C 0.19193 0.69167 0.12151
 C594 C 0.17857 0.69699 0.12944
 H595 H 0.20733 0.67098 0.12674
 H596 H 0.17137 0.70732 0.12646
 H597 H 0.17691 0.67716 0.17014
 H598 H 0.16390 0.66412 0.15770
 N599 N 0.18689 0.14253 0.67538
 N600 N 0.17575 0.14283 0.68637
 C601 C 0.17814 0.13053 0.69643
 C602 C 0.19144 0.12220 0.69141
 C603 C 0.19674 0.13005 0.67806
 H604 H 0.17084 0.12783 0.70665
 H605 H 0.20700 0.12696 0.67090
 Cu606 Cu 0.15940 0.15944 0.68649
 Cu607 Cu 0.18787 0.15836 0.65848
 Cu608 Cu 0.15858 0.18784 0.65833
 N609 N 0.14292 0.17591 0.68622
 N610 N 0.14272 0.18700 0.67516
 C611 C 0.13033 0.19697 0.67774
 C612 C 0.12242 0.19180 0.69110
 C613 C 0.13063 0.17845 0.69623
 H614 H 0.12733 0.20722 0.67051
 H615 H 0.12786 0.17122 0.70649
 N616 N 0.17568 0.18663 0.64232
 N617 N 0.18684 0.17542 0.64238
 C618 C 0.19678 0.17789 0.63007
 C619 C 0.19158 0.19123 0.62200
 C620 C 0.17823 0.19652 0.62998
 H621 H 0.20705 0.17059 0.62719
 H622 H 0.17098 0.20682 0.62700
 H623 H 0.17670 0.17670 0.67071
 H624 H 0.16370 0.16367 0.65826
 N625 N 0.31285 0.64296 0.32487
 N626 N 0.32416 0.64293 0.31404
 C627 C 0.32163 0.63065 0.30400
 C628 C 0.30808 0.62269 0.30888
 C629 C 0.30277 0.63073 0.32211
 H630 H 0.32902 0.62772 0.29391
 H631 H 0.29236 0.62791 0.32916
 Cu632 Cu 0.34096 0.65900 0.31401
 Cu633 Cu 0.31196 0.65889 0.34163
 Cu634 Cu 0.34129 0.68816 0.34147
 N635 N 0.35706 0.67577 0.31387
 N636 N 0.35711 0.68714 0.32464
 C637 C 0.36937 0.69717 0.32178
 C638 C 0.37732 0.69174 0.30855
 C639 C 0.36929 0.67819 0.30378
 H640 H 0.37227 0.70760 0.32878
 H641 H 0.37216 0.67072 0.29372
 N642 N 0.32427 0.68718 0.35754
 N643 N 0.31309 0.67602 0.35760
 C644 C 0.30323 0.67858 0.36995
 C645 C 0.30850 0.69193 0.37794
 C646 C 0.32181 0.69712 0.36986
 H647 H 0.29298 0.67132 0.37294
 H648 H 0.32911 0.70738 0.37276
 H649 H 0.32338 0.67668 0.32900
 H650 H 0.33611 0.66393 0.34209
 N651 N 0.31289 0.14279 0.82500
 N652 N 0.32394 0.14303 0.81393
 C653 C 0.32149 0.13071 0.80394
 C654 C 0.30823 0.12244 0.80909
 C655 C 0.30303 0.13034 0.82244
 H656 H 0.32873 0.12795 0.79369
 H657 H 0.29283 0.12728 0.82970
 Cu658 Cu 0.34030 0.15954 0.81360
 Cu659 Cu 0.31201 0.15866 0.84185
 Cu660 Cu 0.34137 0.18795 0.84171
 N661 N 0.35684 0.17588 0.81378
 N662 N 0.35716 0.18699 0.82481
 C663 C 0.36963 0.19681 0.82217
 C664 C 0.37745 0.19151 0.80881
 C665 C 0.36913 0.17825 0.80374
 H666 H 0.37274 0.20703 0.82937
 H667 H 0.37183 0.17095 0.79352
 N668 N 0.32437 0.18692 0.85781
 N669 N 0.31318 0.17576 0.85786
 C670 C 0.30331 0.17833 0.87021
 C671 C 0.30859 0.19167 0.87820
 C672 C 0.32190 0.19686 0.87012
 H673 H 0.29304 0.17109 0.87317
 H674 H 0.32918 0.20714 0.87301
 H675 H 0.32308 0.17684 0.82947
 H676 H 0.33614 0.16374 0.84186
 N677 N 0.81313 0.64271 0.82512
 N678 N 0.82433 0.64279 0.81419
 C679 C 0.82188 0.63047 0.80421
 C680 C 0.80848 0.62235 0.80921
 C681 C 0.80318 0.63034 0.82247
 H682 H 0.82921 0.62763 0.79404
 H683 H 0.79285 0.62742 0.82960
 Cu684 Cu 0.84083 0.65917 0.81395
 Cu685 Cu 0.81216 0.65871 0.84184
 Cu686 Cu 0.84149 0.68802 0.84168
 N687 N 0.85718 0.67568 0.81399
 N688 N 0.85735 0.68695 0.82487
 C689 C 0.86971 0.69687 0.82211
 C690 C 0.87761 0.69148 0.80883
 C691 C 0.86945 0.67806 0.80393
 H692 H 0.87269 0.70723 0.82918
 H693 H 0.87222 0.67066 0.79379
 N694 N 0.82441 0.68707 0.85770
 N695 N 0.81323 0.67591 0.85776
 C696 C 0.80330 0.67854 0.87006
 C697 C 0.80854 0.69192 0.87800
 C698 C 0.82189 0.69707 0.86997
 H699 H 0.79304 0.67130 0.87304
 H700 H 0.82917 0.70734 0.87286
 H701 H 0.82343 0.67673 0.82933
 H702 H 0.83632 0.66383 0.84210
 N703 N 0.81295 0.14278 0.32493
 N704 N 0.82439 0.14265 0.31424
 C705 C 0.82215 0.13014 0.30442
 C706 C 0.80863 0.12214 0.30929
 C707 C 0.80305 0.13037 0.32230
 H708 H 0.82967 0.12712 0.29445
 H709 H 0.79259 0.12757 0.32929
 Cu710 Cu 0.84067 0.15922 0.31409
 Cu711 Cu 0.81177 0.15890 0.34159
 Cu712 Cu 0.84317 0.18601 0.34339
 N713 N 0.85693 0.17583 0.31388
 N714 N 0.85773 0.18640 0.32538
 C715 C 0.87000 0.19642 0.32262
 C716 C 0.87716 0.19186 0.30864
 C717 C 0.86867 0.17879 0.30335
 H718 H 0.87353 0.20618 0.33026
 H719 H 0.87098 0.17193 0.29274
 N720 N 0.82510 0.18626 0.35837
 N721 N 0.81305 0.17608 0.35755
 C722 C 0.80265 0.17936 0.36930
 C723 C 0.80847 0.19216 0.37778
 C724 C 0.82266 0.19629 0.37062
 H725 H 0.79174 0.17285 0.37162
 H726 H 0.83060 0.20586 0.37411
 H727 H 0.82452 0.17693 0.33032
 H728 H 0.83590 0.16214 0.34247
 N729 N 0.68717 0.35691 0.32451
 N730 N 0.67591 0.35675 0.31366
 C731 C 0.67835 0.36898 0.30353
 C732 C 0.69180 0.37711 0.30838
 C733 C 0.69714 0.36922 0.32168
 H734 H 0.67095 0.37178 0.29341
 H735 H 0.70749 0.37220 0.32875
 Cu736 Cu 0.65925 0.34054 0.31378
 Cu737 Cu 0.68814 0.34114 0.34145
 Cu738 Cu 0.65891 0.31175 0.34160
 N739 N 0.64314 0.32378 0.31384
 N740 N 0.64308 0.31255 0.32477
 C741 C 0.63082 0.30249 0.32206
 C742 C 0.62287 0.30774 0.30877
 C743 C 0.63090 0.32123 0.30380
 H744 H 0.62792 0.29214 0.32921
 H745 H 0.62803 0.32858 0.29365
 N746 N 0.67593 0.31295 0.35764
 N747 N 0.68706 0.32414 0.35758
 C748 C 0.69694 0.32172 0.36994
 C749 C 0.69172 0.30842 0.37805
 C750 C 0.67843 0.30311 0.37003
 H751 H 0.70718 0.32902 0.37283
 H752 H 0.67119 0.29283 0.37302
 H753 H 0.67684 0.32314 0.32908
 H754 H 0.66401 0.33601 0.34194
 N755 N 0.68695 0.85699 0.82509
 N756 N 0.67580 0.85686 0.81413
 C757 C 0.67829 0.86917 0.80410
 C758 C 0.69166 0.87732 0.80914
 C759 C 0.69690 0.86936 0.82244
 H760 H 0.67099 0.87200 0.79392
 H761 H 0.70717 0.87232 0.82961
 Cu762 Cu 0.65928 0.84050 0.81397
 Cu763 Cu 0.68783 0.84107 0.84191
 Cu764 Cu 0.65847 0.81180 0.84184
 N765 N 0.64287 0.82403 0.81405
 N766 N 0.64265 0.81281 0.82499
 C767 C 0.63025 0.80292 0.82229
 C768 C 0.62238 0.80827 0.80899
 C769 C 0.63060 0.82164 0.80400
 H770 H 0.62722 0.79261 0.82943
 H771 H 0.62784 0.82900 0.79383
 N772 N 0.67550 0.81279 0.85789
 N773 N 0.68669 0.82394 0.85792
 C774 C 0.69657 0.82136 0.87025
 C775 C 0.69130 0.80800 0.87824
 C776 C 0.67798 0.80282 0.87020
 H777 H 0.70684 0.82860 0.87321
 H778 H 0.67069 0.79256 0.87312
 H779 H 0.67660 0.82303 0.82949
 H780 H 0.66368 0.83600 0.84215
 N781 N 0.18709 0.35671 0.82491
 N782 N 0.17606 0.35646 0.81382
 C783 C 0.17853 0.36879 0.80382
 C784 C 0.19175 0.37709 0.80900
 C785 C 0.19693 0.36919 0.82236
 H786 H 0.17132 0.37154 0.79356
 H787 H 0.20709 0.37227 0.82965
 Cu788 Cu 0.15970 0.33993 0.81351
 Cu789 Cu 0.18794 0.34085 0.84177
 Cu790 Cu 0.15858 0.31156 0.84169
 N791 N 0.14317 0.32357 0.81370
 N792 N 0.14283 0.31250 0.82478
 C793 C 0.13038 0.30266 0.82215
 C794 C 0.12260 0.30789 0.80875
 C795 C 0.13092 0.32114 0.80363
 H796 H 0.12725 0.29247 0.82941
 H797 H 0.12826 0.32839 0.79336
 N798 N 0.17554 0.31263 0.85780
 N799 N 0.18674 0.32377 0.85782
 C800 C 0.19658 0.32122 0.87019
 C801 C 0.19127 0.30790 0.87822
 C802 C 0.17797 0.30271 0.87015
 H803 H 0.20686 0.32845 0.87313
 H804 H 0.17067 0.29245 0.87306
 H805 H 0.17687 0.32265 0.82942
 H806 H 0.16380 0.33576 0.84179
 N807 N 0.18717 0.85712 0.32497
 N808 N 0.17614 0.85691 0.31389
 C809 C 0.17867 0.86921 0.30387
 C810 C 0.19197 0.87741 0.30901
 C811 C 0.19710 0.86951 0.32238
 H812 H 0.17148 0.87199 0.29360
 H813 H 0.20731 0.87252 0.32964
 Cu814 Cu 0.15972 0.84046 0.31360
 Cu815 Cu 0.18799 0.84124 0.34181
 Cu816 Cu 0.15859 0.81200 0.34168
 N817 N 0.14314 0.82416 0.31378
 N818 N 0.14281 0.81302 0.32480
 C819 C 0.13036 0.80320 0.32212
 C820 C 0.12256 0.80851 0.30876
 C821 C 0.13088 0.82179 0.30372
 H822 H 0.12725 0.79295 0.32931
 H823 H 0.12822 0.82910 0.29348
 N824 N 0.17560 0.81299 0.35777
 N825 N 0.18678 0.82414 0.35782
 C826 C 0.19664 0.82155 0.37016
 C827 C 0.19137 0.80819 0.37814
 C828 C 0.17806 0.80301 0.37007
 H829 H 0.20692 0.82878 0.37312
 H830 H 0.17079 0.79273 0.37295
 H831 H 0.17690 0.82309 0.32945
 H832 H 0.16386 0.83619 0.34185
 C833 C 0.25597 1.01475 0.24408
 C834 C 0.24390 1.01478 0.25580
 C835 C 0.23806 1.00015 0.26153
 C836 C 0.24398 0.98548 0.25592
 C837 C 0.25610 0.98546 0.24425
 C838 C 0.26191 1.00009 0.23849
 H839 H 0.27119 1.00007 0.22952
 H840 H 0.22879 1.00017 0.27050
 C841 C 0.25624 0.51457 0.74458
 C842 C 0.24346 0.51462 0.75555
 C843 C 0.23720 0.49999 0.76085
 C844 C 0.24351 0.48530 0.75571
 C845 C 0.25631 0.48525 0.74475
 C846 C 0.26255 0.49988 0.73943
 H847 H 0.27213 0.49984 0.73079
 H848 H 0.22761 0.50003 0.76948
 C849 C 0.75667 -0.01503 0.25565
 C850 C 0.74389 -0.01496 0.24469
 C851 C 0.73761 -0.00028 0.23952
 C852 C 0.74388 0.01435 0.24479
 C853 C 0.75670 0.01429 0.25570
 C854 C 0.76296 -0.00040 0.26090
 H855 H 0.77254 -0.00045 0.26954
 H856 H 0.72802 -0.00023 0.23089
 C857 C 0.75634 0.48529 0.75554
 C858 C 0.74360 0.48531 0.74454
 C859 C 0.73733 0.49998 0.73930
 C860 C 0.74359 0.51463 0.74455
 C861 C 0.75633 0.51460 0.75555
 C862 C 0.76259 0.49993 0.76080
 H863 H 0.77214 0.49991 0.76946
 H864 H 0.72779 0.50000 0.73063
 C865 C 0.25646 0.48535 0.25537
 C866 C 0.24365 0.48535 0.24444
 C867 C 0.23730 0.50001 0.23927
 C868 C 0.24350 0.51466 0.24456
 C869 C 0.25629 0.51466 0.25550
 C870 C 0.26265 0.50000 0.26066
 H871 H 0.27223 0.49999 0.26929
 H872 H 0.22772 0.50001 0.23064
 C873 C 0.75606 1.01483 0.74471
 C874 C 0.74338 1.01491 0.75580
 C875 C 0.73715 1.00029 0.76115
 C876 C 0.74338 0.98559 0.75593
 C877 C 0.75608 0.98553 0.74486
 C878 C 0.76229 1.00015 0.73949
 H879 H 0.77177 1.00010 0.73074
 H880 H 0.72763 1.00035 0.76987
 C881 C 0.75547 0.51488 0.24386
 C882 C 0.74427 0.51485 0.25642
 C883 C 0.73893 0.50018 0.26253
 C884 C 0.74433 0.48554 0.25636
 C885 C 0.75554 0.48557 0.24382
 C886 C 0.76087 0.50024 0.23770
 H887 H 0.76973 0.50027 0.22833
 H888 H 0.73009 0.50015 0.27191
 C889 C 0.25684 -0.01506 0.75573
 C890 C 0.24405 -0.01506 0.74480
 C891 C 0.23768 -0.00041 0.73963
 C892 C 0.24388 0.01425 0.74490
 C893 C 0.25670 0.01425 0.75581
 C894 C 0.26306 -0.00040 0.76098
 H895 H 0.27265 -0.00040 0.76961
 H896 H 0.22809 -0.00042 0.73100
 C897 C 0.24440 0.25622 1.01462
 C898 C 0.25557 0.24347 1.01460
 C899 C 0.26093 0.23725 1.00012
 C900 C 0.25560 0.24351 0.98564
 C901 C 0.24441 0.25624 0.98565
 C902 C 0.23906 0.26247 1.00014
 H903 H 0.23023 0.27199 1.00014
 H904 H 0.26975 0.22772 1.00011
 C905 C 0.24448 0.75641 0.51446
 C906 C 0.25571 0.74372 0.51448
 C907 C 0.26108 0.73747 0.50000
 C908 C 0.25572 0.74368 0.48551
 C909 C 0.24450 0.75638 0.48549
 C910 C 0.23913 0.76262 0.49997
 H911 H 0.23028 0.77213 0.49995
 H912 H 0.26992 0.72796 0.50002
 C913 C 0.25632 0.75607 -0.01481
 C914 C 0.24436 0.74412 -0.01482
 C915 C 0.23853 0.73831 -0.00035
 C916 C 0.24430 0.74410 0.01414
 C917 C 0.25629 0.75603 0.01414
 C918 C 0.26212 0.76184 -0.00033
 H919 H 0.27129 0.77099 -0.00032
 H920 H 0.22935 0.72916 -0.00036
 C921 C 0.25623 0.25537 0.48560
 C922 C 0.24361 0.24411 0.48562
 C923 C 0.23736 0.23880 0.50011
 C924 C 0.24351 0.24421 0.51459
 C925 C 0.25616 0.25544 0.51457
 C926 C 0.26238 0.26079 0.50008
 H927 H 0.27184 0.26966 0.50007
 H928 H 0.22790 0.22994 0.50012
 C929 C 0.74456 0.75625 1.01457
 C930 C 0.75573 0.74350 1.01453
 C931 C 0.76110 0.73733 1.00004
 C932 C 0.75577 0.74362 0.98557
 C933 C 0.74456 0.75633 0.98560
 C934 C 0.73921 0.76253 1.00010
 H935 H 0.73037 0.77205 1.00012
 H936 H 0.76992 0.72779 1.00001
 C937 C 0.74433 0.25620 0.51448
 C938 C 0.75561 0.24355 0.51442
 C939 C 0.76094 0.23735 0.49991
 C940 C 0.75555 0.24362 0.48545
 C941 C 0.74431 0.25631 0.48551
 C942 C 0.73892 0.26245 0.50002
 H943 H 0.73005 0.27193 0.50005
 H944 H 0.76981 0.22787 0.49987
 C945 C 0.75644 0.25575 -0.01490
 C946 C 0.74384 0.24446 -0.01490
 C947 C 0.73760 0.23912 -0.00041
 C948 C 0.74371 0.24457 0.01408
 C949 C 0.75627 0.25591 0.01407
 C950 C 0.76251 0.26124 -0.00042
 H951 H 0.77192 0.27015 -0.00043
 H952 H 0.72818 0.23022 -0.00041
 C953 C 0.75550 0.75649 0.48536
 C954 C 0.74433 0.74378 0.48538
 C955 C 0.73899 0.73757 0.49988
 C956 C 0.74432 0.74383 0.51435
 C957 C 0.75550 0.75653 0.51433
 C958 C 0.76083 0.76274 0.49983
 H959 H 0.76964 0.77225 0.49981
 H960 H 0.73018 0.72806 0.49990
 C961 C 1.01441 0.24394 0.25575
 C962 C 1.01441 0.25667 0.24468
 C963 C 0.99979 0.26276 0.23921
 C964 C 0.98517 0.25637 0.24432
 C965 C 0.98517 0.24366 0.25540
 C966 C 0.99979 0.23755 0.26085
 H967 H 0.99978 0.22802 0.26958
 H968 H 0.99979 0.27228 0.23048
 C969 C 0.51471 0.24349 0.75574
 C970 C 0.51469 0.25632 0.74479
 C971 C 0.50006 0.26254 0.73948
 C972 C 0.48544 0.25617 0.74461
 C973 C 0.48546 0.24334 0.75557
 C974 C 0.50009 0.23713 0.76089
 H975 H 0.50009 0.22753 0.76954
 H976 H 0.50005 0.27215 0.73084
 C977 C -0.01488 0.25600 0.75603
 C978 C -0.01481 0.24389 0.74433
 C979 C -0.00015 0.23807 0.73865
 C980 C 0.01444 0.24400 0.74432
 C981 C 0.01437 0.25614 0.75599
 C982 C -0.00029 0.26196 0.76167
 H983 H -0.00034 0.27126 0.77063
 H984 H -0.00011 0.22879 0.72968
 C985 C 0.48564 0.25619 0.25560
 C986 C 0.48562 0.24346 0.24454
 C987 C 0.50022 0.23719 0.23921
 C988 C 0.51486 0.24341 0.24445
 C989 C 0.51489 0.25613 0.25551
 C990 C 0.50028 0.26241 0.26082
 H991 H 0.50030 0.27195 0.26953
 H992 H 0.50020 0.22767 0.23049
 C993 C 1.01443 0.74381 0.75539
 C994 C 1.01449 0.75675 0.74458
 C995 C 0.99989 0.76315 0.73937
 C996 C 0.98523 0.75683 0.74445
 C997 C 0.98516 0.74385 0.75523
 C998 C 0.99977 0.73747 0.76045
 H999 H 0.99972 0.72774 0.76896
 H1000 H 0.99995 0.77285 0.73083
 C1001 C 0.51450 0.74405 0.25559
 C1002 C 0.51442 0.75681 0.24456
 C1003 C 0.49977 0.76295 0.23923
 C1004 C 0.48519 0.75655 0.24440
 C1005 C 0.48525 0.74375 0.25539
 C1006 C 0.49991 0.73762 0.26074
 H1007 H 0.49996 0.72805 0.26943
 H1008 H 0.49973 0.77252 0.23055
 C1009 C -0.01448 0.75659 0.25548
 C1010 C -0.01447 0.74376 0.24454
 C1011 C 0.00015 0.73745 0.23931
 C1012 C 0.01477 0.74374 0.24451
 C1013 C 0.01476 0.75656 0.25546
 C1014 C 0.00014 0.76285 0.26071
 H1015 H 0.00013 0.77246 0.26934
 H1016 H 0.00016 0.72785 0.23068
 C1017 C 0.48514 0.75671 0.75557
 C1018 C 0.48517 0.74374 0.74479
 C1019 C 0.49981 0.73737 0.73967
 C1020 C 0.51443 0.74371 0.74484
 C1021 C 0.51440 0.75668 0.75562
 C1022 C 0.49976 0.76306 0.76073
 H1023 H 0.49973 0.77277 0.76925
 H1024 H 0.49983 0.72767 0.73115
 C1025 C 0.45390 0.28580 0.26856
 C1026 C 0.44277 0.27571 0.27585
 C1027 C 0.44558 0.25919 0.27643
 C1028 C 0.45948 0.25278 0.26977
 C1029 C 0.39137 0.30065 0.30198
 C1030 C 0.46781 0.27941 0.26189
 C1031 C 0.42859 0.28236 0.28294
 C1032 C 0.41680 0.28804 0.28892
 C1033 C 0.40305 0.29479 0.29596
 C1034 C 0.47069 0.26284 0.26238
 H1035 H 0.45187 0.29861 0.26807
 H1036 H 0.43708 0.25128 0.28212
 H1037 H 0.46159 0.24000 0.27051
 H1038 H 0.47631 0.28737 0.25629
 C1039 C 0.44502 0.76014 0.77623
 C1040 C 0.44231 0.77667 0.77548
 C1041 C 0.45347 0.78661 0.76804
 C1042 C 0.46735 0.78008 0.76146
 C1043 C 0.39127 0.80208 0.80181
 C1044 C 0.45891 0.75359 0.76966
 C1045 C 0.42824 0.78349 0.78260
 C1046 C 0.41654 0.78929 0.78863
 C1047 C 0.40291 0.79618 0.79574
 C1048 C 0.47017 0.76351 0.76217
 H1049 H 0.43649 0.75235 0.78203
 H1050 H 0.45150 0.79942 0.76742
 H1051 H 0.47589 0.78794 0.75578
 H1052 H 0.46095 0.74081 0.77058
 C1053 C -0.04662 0.26909 0.78523
 C1054 C -0.05811 0.27585 0.77520
 C1055 C -0.05548 0.27614 0.75883
 C1056 C -0.04142 0.26966 0.75252
 C1057 C -0.10989 0.30086 0.80051
 C1058 C -0.03258 0.26263 0.77894
 C1059 C -0.07247 0.28262 0.78179
 C1060 C -0.08439 0.28831 0.78753
 C1061 C -0.09820 0.29503 0.79446
 C1062 C -0.02990 0.26278 0.76254
 H1063 H -0.04852 0.26884 0.79791
 H1064 H -0.06425 0.28142 0.75097
 H1065 H -0.03948 0.27011 0.73986
 H1066 H -0.02383 0.25741 0.78687
 C1067 C -0.04621 0.78637 0.26804
 C1068 C -0.05738 0.77636 0.27538
 C1069 C -0.05462 0.75983 0.27609
 C1070 C -0.04070 0.75334 0.26955
 C1071 C -0.10879 0.80137 0.30135
 C1072 C -0.03229 0.77989 0.26148
 C1073 C -0.07155 0.78309 0.28238
 C1074 C -0.08335 0.78879 0.28831
 C1075 C -0.09710 0.79555 0.29532
 C1076 C -0.02944 0.76332 0.26213
 H1077 H -0.04821 0.79917 0.26745
 H1078 H -0.06316 0.75199 0.28181
 H1079 H -0.03862 0.74057 0.27040
 H1080 H -0.02375 0.78779 0.25585
 C1081 C 0.54668 0.71486 0.26840
 C1082 C 0.55770 0.72509 0.27565
 C1083 C 0.55463 0.74156 0.27631
 C1084 C 0.54059 0.74778 0.26976
 C1085 C 0.60941 0.70048 0.30143
 C1086 C 0.53264 0.72105 0.26185
 C1087 C 0.57202 0.71862 0.28260
 C1088 C 0.58392 0.71305 0.28848
 C1089 C 0.59773 0.70636 0.29543
 C1090 C 0.52951 0.73757 0.26239
 H1091 H 0.54891 0.70209 0.26786
 H1092 H 0.56303 0.74958 0.28197
 H1093 H 0.53829 0.76052 0.27055
 H1094 H 0.52424 0.71298 0.25627
 C1095 C 0.54646 0.21382 0.76857
 C1096 C 0.55759 0.22387 0.77590
 C1097 C 0.55479 0.24040 0.77652
 C1098 C 0.54088 0.24684 0.76989
 C1099 C 0.60886 0.19864 0.80199
 C1100 C 0.53256 0.22024 0.76193
 C1101 C 0.57174 0.21717 0.78298
 C1102 C 0.58350 0.21142 0.78896
 C1103 C 0.59720 0.20457 0.79598
 C1104 C 0.52968 0.23681 0.76248
 H1105 H 0.54849 0.20102 0.76806
 H1106 H 0.56328 0.24828 0.78223
 H1107 H 0.53878 0.25961 0.77068
 H1108 H 0.52407 0.21230 0.75632
 C1109 C 1.04606 0.71393 0.76805
 C1110 C 1.05720 0.72389 0.77548
 C1111 C 1.05446 0.74041 0.77622
 C1112 C 1.04058 0.74695 0.76962
 C1113 C 1.10841 0.69874 0.80173
 C1114 C 1.03220 0.72045 0.76143
 C1115 C 1.07131 0.71709 0.78255
 C1116 C 1.08306 0.71134 0.78855
 C1117 C 1.09675 0.70456 0.79565
 C1118 C 1.02936 0.73702 0.76211
 H1119 H 1.04805 0.70112 0.76745
 H1120 H 1.06297 0.74821 0.78202
 H1121 H 1.03852 0.75972 0.77051
 H1122 H 1.02370 0.71258 0.75573
 C1123 C 1.05434 0.24126 0.27683
 C1124 C 1.05729 0.22476 0.27625
 C1125 C 1.04629 0.21459 0.26889
 C1126 C 1.03238 0.22087 0.26215
 C1127 C 1.10862 0.19974 0.30234
 C1128 C 1.04043 0.24756 0.27009
 C1129 C 1.07147 0.21819 0.28337
 C1130 C 1.08325 0.21251 0.28935
 C1131 C 1.09696 0.20568 0.29636
 C1132 C 1.02937 0.23741 0.26263
 H1133 H 1.06273 0.24923 0.28257
 H1134 H 1.04843 0.20180 0.26840
 H1135 H 1.02399 0.21284 0.25651
 H1136 H 1.03820 0.26032 0.27082
 C1137 C 0.55481 0.25967 0.72415
 C1138 C 0.55749 0.27620 0.72484
 C1139 C 0.54626 0.28618 0.73219
 C1140 C 0.53240 0.27967 0.73878
 C1141 C 0.60871 0.30129 0.69866
 C1142 C 0.54095 0.25314 0.73073
 C1143 C 0.57160 0.28297 0.71778
 C1144 C 0.58335 0.28870 0.71180
 C1145 C 0.59705 0.29547 0.70473
 C1146 C 0.52964 0.26309 0.73816
 H1147 H 0.56338 0.25185 0.71841
 H1148 H 0.54819 0.29899 0.73276
 H1149 H 0.52382 0.28755 0.74440
 H1150 H 0.53894 0.24036 0.72988
 C1151 C 0.54595 0.78665 0.23183
 C1152 C 0.55717 0.77664 0.22451
 C1153 C 0.55450 0.76011 0.22386
 C1154 C 0.54064 0.75360 0.23048
 C1155 C 0.60855 0.80148 0.19846
 C1156 C 0.53209 0.78015 0.23844
 C1157 C 0.57130 0.78338 0.21747
 C1158 C 0.58308 0.78905 0.21151
 C1159 C 0.59683 0.79574 0.20448
 C1160 C 0.52935 0.76357 0.23788
 H1161 H 0.54788 0.79946 0.23236
 H1162 H 0.56307 0.75228 0.21814
 H1163 H 0.53865 0.74082 0.22968
 H1164 H 0.52351 0.78805 0.24405
 C1165 C 1.05459 0.25996 0.22416
 C1166 C 1.05725 0.27649 0.22479
 C1167 C 1.04601 0.28650 0.23207
 C1168 C 1.03212 0.28001 0.23864
 C1169 C 1.10858 0.30141 0.19862
 C1170 C 1.04071 0.25345 0.23074
 C1171 C 1.07138 0.28323 0.21772
 C1172 C 1.08315 0.28891 0.21173
 C1173 C 1.09688 0.29563 0.20467
 C1174 C 1.02938 0.26343 0.23808
 H1175 H 1.06317 0.25213 0.21847
 H1176 H 1.04794 0.29931 0.23259
 H1177 H 1.02352 0.28792 0.24420
 H1178 H 1.03871 0.24067 0.22995
 C1179 C 1.04630 0.78644 0.73214
 C1180 C 1.05746 0.77641 0.72476
 C1181 C 1.05467 0.75990 0.72400
 C1182 C 1.04073 0.75345 0.73052
 C1183 C 1.10870 0.80137 0.69854
 C1184 C 1.03237 0.78000 0.73868
 C1185 C 1.07160 0.78312 0.71771
 C1186 C 1.08336 0.78881 0.71171
 C1187 C 1.09705 0.79556 0.70462
 C1188 C 1.02949 0.76345 0.73797
 H1189 H 1.04832 0.79923 0.73277
 H1190 H 1.06319 0.75205 0.71824
 H1191 H 1.03863 0.74070 0.72959
 H1192 H 1.02384 0.78792 0.74433
 C1193 C 0.45353 0.71391 0.73234
 C1194 C 0.44237 0.72388 0.72488
 C1195 C 0.44511 0.74039 0.72407
 C1196 C 0.45898 0.74691 0.73063
 C1197 C 0.39126 0.69870 0.69866
 C1198 C 0.46740 0.72041 0.73891
 C1199 C 0.42828 0.71710 0.71782
 C1200 C 0.41656 0.71135 0.71182
 C1201 C 0.40290 0.70454 0.70474
 C1202 C 0.47022 0.73698 0.73816
 H1203 H 0.45155 0.70111 0.73300
 H1204 H 0.43659 0.74820 0.71825
 H1205 H 0.46104 0.75968 0.72968
 H1206 H 0.47593 0.71254 0.74462
 C1207 C 0.44554 0.24055 0.22380
 C1208 C 0.44273 0.22404 0.22444
 C1209 C 0.45384 0.21394 0.23180
 C1210 C 0.46774 0.22030 0.23842
 C1211 C 0.39152 0.19910 0.19821
 C1212 C 0.45944 0.24693 0.23044
 C1213 C 0.42859 0.21740 0.21734
 C1214 C 0.41684 0.21172 0.21133
 C1215 C 0.40315 0.20496 0.20426
 C1216 C 0.47064 0.23685 0.23784
 H1217 H 0.43706 0.24846 0.21807
 H1218 H 0.45180 0.20114 0.23234
 H1219 H 0.47624 0.21233 0.24405
 H1220 H 0.46156 0.25969 0.22964
 C1221 C -0.04623 0.71420 0.23185
 C1222 C -0.05732 0.72427 0.22443
 C1223 C -0.05449 0.74078 0.22372
 C1224 C -0.04060 0.74718 0.23034
 C1225 C -0.10860 0.69931 0.19836
 C1226 C -0.03234 0.72058 0.23848
 C1227 C -0.07146 0.71762 0.21736
 C1228 C -0.08324 0.71194 0.21139
 C1229 C -0.09694 0.70517 0.20437
 C1230 C -0.02943 0.73712 0.23783
 H1231 H -0.04829 0.70140 0.23244
 H1232 H -0.06296 0.74867 0.21794
 H1233 H -0.03847 0.75993 0.22949
 H1234 H -0.02386 0.71262 0.24415
 C1235 C -0.04618 0.23038 0.71504
 C1236 C -0.05757 0.22342 0.72502
 C1237 C -0.05504 0.22317 0.74140
 C1238 C -0.04115 0.22989 0.74778
 C1239 C -0.10880 0.19820 0.69909
 C1240 C -0.03232 0.23708 0.72139
 C1241 C -0.07176 0.21647 0.71832
 C1242 C -0.08353 0.21069 0.71242
 C1243 C -0.09719 0.20396 0.70528
 C1244 C -0.02971 0.23696 0.73780
 H1245 H -0.04800 0.23059 0.70235
 H1246 H -0.06374 0.21773 0.74922
 H1247 H -0.03926 0.22947 0.76045
 H1248 H -0.02363 0.24243 0.71350
 C1249 C 0.25980 0.44516 0.27604
 C1250 C 0.27629 0.44240 0.27529
 C1251 C 0.28625 0.45359 0.26790
 C1252 C 0.27976 0.46752 0.26132
 C1253 C 0.30133 0.39096 0.30138
 C1254 C 0.25329 0.45908 0.26946
 C1255 C 0.28303 0.42822 0.28232
 C1256 C 0.28875 0.41641 0.28828
 C1257 C 0.29551 0.40266 0.29532
 C1258 C 0.26322 0.47035 0.26200
 H1259 H 0.25200 0.43661 0.28180
 H1260 H 0.29903 0.45160 0.26729
 H1261 H 0.28761 0.47607 0.25566
 H1262 H 0.24054 0.46114 0.27033
 C1263 C 0.28659 -0.04678 0.76844
 C1264 C 0.27661 -0.05797 0.77581
 C1265 C 0.26011 -0.05523 0.77647
 C1266 C 0.25362 -0.04131 0.76986
 C1267 C 0.30187 -0.10924 0.80201
 C1268 C 0.28012 -0.03287 0.76181
 C1269 C 0.28335 -0.07210 0.78293
 C1270 C 0.28911 -0.08386 0.78894
 C1271 C 0.29596 -0.09756 0.79600
 C1272 C 0.26358 -0.03005 0.76241
 H1273 H 0.29937 -0.04877 0.76788
 H1274 H 0.25230 -0.06377 0.78222
 H1275 H 0.24087 -0.03925 0.77070
 H1276 H 0.28800 -0.02432 0.75618
 C1277 C 0.78599 0.45348 0.76830
 C1278 C 0.77598 0.44233 0.77567
 C1279 C 0.75949 0.44511 0.77632
 C1280 C 0.75304 0.45903 0.76967
 C1281 C 0.80111 0.39098 0.80188
 C1282 C 0.77956 0.46740 0.76166
 C1283 C 0.78268 0.42817 0.78278
 C1284 C 0.78840 0.41638 0.78878
 C1285 C 0.79521 0.40266 0.79585
 C1286 C 0.76303 0.47028 0.76224
 H1287 H 0.79877 0.45146 0.76776
 H1288 H 0.75165 0.43660 0.78207
 H1289 H 0.74029 0.46112 0.77048
 H1290 H 0.78747 0.47593 0.75602
 C1291 C 0.78619 -0.04692 0.26845
 C1292 C 0.77613 -0.05803 0.27583
 C1293 C 0.75965 -0.05518 0.27647
 C1294 C 0.75326 -0.04124 0.26981
 C1295 C 0.80117 -0.10944 0.30199
 C1296 C 0.77982 -0.03299 0.26179
 C1297 C 0.78277 -0.07223 0.28293
 C1298 C 0.78847 -0.08403 0.28891
 C1299 C 0.79527 -0.09776 0.29596
 C1300 C 0.76329 -0.03005 0.26236
 H1301 H 0.79896 -0.04899 0.26792
 H1302 H 0.75177 -0.06365 0.28224
 H1303 H 0.74052 -0.03909 0.27061
 H1304 H 0.78776 -0.02450 0.25615
 C1305 C 0.25941 0.55474 0.72380
 C1306 C 0.27591 0.55744 0.72441
 C1307 C 0.28591 0.54622 0.73172
 C1308 C 0.27947 0.53233 0.73837
 C1309 C 0.30113 0.60871 0.69826
 C1310 C 0.25295 0.54084 0.73044
 C1311 C 0.28264 0.57158 0.71731
 C1312 C 0.28840 0.58334 0.71132
 C1313 C 0.29524 0.59704 0.70428
 C1314 C 0.26293 0.52954 0.73784
 H1315 H 0.25157 0.56331 0.71810
 H1316 H 0.29870 0.54816 0.73223
 H1317 H 0.28737 0.52375 0.74397
 H1318 H 0.24019 0.53881 0.72966
 C1319 C 0.26929 1.04625 0.21474
 C1320 C 0.27620 1.05768 0.22470
 C1321 C 0.27642 1.05514 0.24109
 C1322 C 0.26976 1.04121 0.24748
 C1323 C 0.30166 1.10905 0.19906
 C1324 C 0.26265 1.03233 0.22110
 C1325 C 0.28317 1.07189 0.21803
 C1326 C 0.28900 1.08369 0.21220
 C1327 C 0.29582 1.09740 0.20518
 C1328 C 0.26278 1.02972 0.23751
 H1329 H 0.26907 1.04808 0.20205
 H1330 H 0.28182 1.06388 0.24890
 H1331 H 0.27018 1.03932 0.26015
 H1332 H 0.25733 1.02360 0.21322
 C1333 C 0.77630 0.55509 0.24070
 C1334 C 0.77571 0.55778 0.22435
 C1335 C 0.76836 0.54656 0.21445
 C1336 C 0.76167 0.53267 0.22085
 C1337 C 0.80172 0.60894 0.19882
 C1338 C 0.76961 0.54119 0.24712
 C1339 C 0.78283 0.57191 0.21764
 C1340 C 0.78880 0.58365 0.21184
 C1341 C 0.79578 0.59732 0.20487
 C1342 C 0.76220 0.52988 0.23724
 H1343 H 0.78202 0.56366 0.24845
 H1344 H 0.76786 0.54851 0.20179
 H1345 H 0.75605 0.52410 0.21303
 H1346 H 0.77037 0.53915 0.25975
 C1347 C 0.75898 1.05484 0.72364
 C1348 C 0.77547 1.05762 0.72417
 C1349 C 0.78555 1.04650 0.73154
 C1350 C 0.77920 1.03263 0.73831
 C1351 C 0.80055 1.10886 0.69790
 C1352 C 0.75261 1.04097 0.73041
 C1353 C 0.78210 1.07175 0.71699
 C1354 C 0.78780 1.08351 0.71095
 C1355 C 0.79462 1.09720 0.70390
 C1356 C 0.76267 1.02978 0.73786
 H1357 H 0.75109 1.06333 0.71789
 H1358 H 0.79833 1.04852 0.73199
 H1359 H 0.78716 1.02413 0.74394
 H1360 H 0.73986 1.03888 0.72970
 C1361 C 0.72350 0.55515 0.25968
 C1362 C 0.72413 0.55781 0.27602
 C1363 C 0.73141 0.54649 0.28590
 C1364 C 0.73803 0.53256 0.27948
 C1365 C 0.69839 0.60921 0.30151
 C1366 C 0.73012 0.54121 0.25323
 C1367 C 0.71711 0.57201 0.28275
 C1368 C 0.71122 0.58381 0.28854
 C1369 C 0.70430 0.59754 0.29548
 C1370 C 0.73751 0.52983 0.26309
 H1371 H 0.71782 0.56379 0.25193
 H1372 H 0.73192 0.54841 0.29857
 H1373 H 0.74363 0.52393 0.28728
 H1374 H 0.72934 0.53921 0.24060
 C1375 C 0.74053 1.05528 0.77621
 C1376 C 0.72406 1.05817 0.77561
 C1377 C 0.71394 1.04697 0.76846
 C1378 C 0.72026 1.03293 0.76196
 C1379 C 0.69942 1.11002 0.80132
 C1380 C 0.74687 1.04124 0.76971
 C1381 C 0.71750 1.07251 0.78251
 C1382 C 0.71190 1.08443 0.78836
 C1383 C 0.70523 1.09829 0.79531
 C1384 C 0.73678 1.02997 0.76247
 H1385 H 0.74846 1.06382 0.78179
 H1386 H 0.70117 1.04906 0.76797
 H1387 H 0.71227 1.02439 0.75647
 H1388 H 0.75961 1.03909 0.77046
 C1389 C 0.24035 0.55476 0.77634
 C1390 C 0.22386 0.55756 0.77573
 C1391 C 0.21384 0.54643 0.76835
 C1392 C 0.22026 0.53253 0.76167
 C1393 C 0.19872 0.60880 0.80209
 C1394 C 0.24679 0.54086 0.76967
 C1395 C 0.21715 0.57169 0.78287
 C1396 C 0.21142 0.58345 0.78891
 C1397 C 0.20460 0.59714 0.79602
 C1398 C 0.23679 0.52964 0.76223
 H1399 H 0.24820 0.56326 0.78210
 H1400 H 0.20106 0.54845 0.76785
 H1401 H 0.21234 0.52403 0.75603
 H1402 H 0.25953 0.53875 0.77046
 C1403 C 0.22333 1.05521 0.25851
 C1404 C 0.22358 1.05785 0.27488
 C1405 C 0.23051 1.04646 0.28492
 C1406 C 0.23715 1.03249 0.27865
 C1407 C 0.19839 1.10938 0.30055
 C1408 C 0.22999 1.04122 0.25222
 C1409 C 0.21665 1.07213 0.28148
 C1410 C 0.21088 1.08398 0.28730
 C1411 C 0.20415 1.09772 0.29437
 C1412 C 0.23702 1.02978 0.26226
 H1413 H 0.21793 1.06391 0.25065
 H1414 H 0.23075 1.04837 0.29760
 H1415 H 0.24248 1.02380 0.28658
 H1416 H 0.22956 1.03924 0.23956
 C1417 C 0.71402 0.45362 0.73163
 C1418 C 0.72408 0.44244 0.72432
 C1419 C 0.74057 0.44518 0.72373
 C1420 C 0.74698 0.45908 0.73041
 C1421 C 0.69900 0.39109 0.69829
 C1422 C 0.72041 0.46751 0.73831
 C1423 C 0.71741 0.42827 0.71725
 C1424 C 0.71170 0.41648 0.71130
 C1425 C 0.70489 0.40276 0.70429
 C1426 C 0.73695 0.47033 0.73781
 H1427 H 0.70124 0.45164 0.73210
 H1428 H 0.74845 0.43665 0.71802
 H1429 H 0.75973 0.46114 0.72964
 H1430 H 0.71247 0.47605 0.74390
 C1431 C 0.74072 -0.05507 0.22385
 C1432 C 0.72422 -0.05778 0.22448
 C1433 C 0.71422 -0.04658 0.23184
 C1434 C 0.72066 -0.03271 0.23851
 C1435 C 0.69898 -0.10893 0.19826
 C1436 C 0.74719 -0.04120 0.23052
 C1437 C 0.71750 -0.07189 0.21737
 C1438 C 0.71174 -0.08363 0.21137
 C1439 C 0.70489 -0.09729 0.20430
 C1440 C 0.73720 -0.02993 0.23796
 H1441 H 0.74856 -0.06361 0.21810
 H1442 H 0.70144 -0.04853 0.23236
 H1443 H 0.71276 -0.02416 0.24414
 H1444 H 0.75994 -0.03917 0.22973
 C1445 C 0.24064 0.44521 0.22367
 C1446 C 0.22416 0.44241 0.22435
 C1447 C 0.21411 0.45357 0.23171
 C1448 C 0.22050 0.46749 0.23833
 C1449 C 0.19911 0.39100 0.19843
 C1450 C 0.24704 0.45913 0.23028
 C1451 C 0.21750 0.42823 0.21731
 C1452 C 0.21179 0.41643 0.21137
 C1453 C 0.20499 0.40269 0.20440
 C1454 C 0.23702 0.47036 0.23772
 H1455 H 0.24850 0.43669 0.21792
 H1456 H 0.20134 0.45154 0.23228
 H1457 H 0.21256 0.47601 0.24397
 H1458 H 0.25978 0.46123 0.22945
 C1459 C 0.21447 -0.04680 0.73206
 C1460 C 0.22449 -0.05796 0.72466
 C1461 C 0.24097 -0.05519 0.72399
 C1462 C 0.24740 -0.04129 0.73064
 C1463 C 0.19915 -0.10899 0.69831
 C1464 C 0.22088 -0.03291 0.73871
 C1465 C 0.21778 -0.07207 0.71753
 C1466 C 0.21201 -0.08378 0.71149
 C1467 C 0.20512 -0.09741 0.70439
 C1468 C 0.23740 -0.03006 0.73810
 H1469 H 0.20169 -0.04880 0.73262
 H1470 H 0.24882 -0.06370 0.71821
 H1471 H 0.26015 -0.03921 0.72981
 H1472 H 0.21296 -0.02439 0.74438
 C1473 C 0.25929 0.27620 0.44579
 C1474 C 0.27580 0.27562 0.44308
 C1475 C 0.28584 0.26832 0.45420
 C1476 C 0.27944 0.26166 0.46799
 C1477 C 0.30106 0.30120 0.39197
 C1478 C 0.25287 0.26953 0.45958
 C1479 C 0.28249 0.28262 0.42900
 C1480 C 0.28825 0.28849 0.41728
 C1481 C 0.29513 0.29535 0.40361
 C1482 C 0.26289 0.26215 0.47077
 H1483 H 0.25142 0.28189 0.43731
 H1484 H 0.29863 0.26784 0.45225
 H1485 H 0.28737 0.25607 0.47647
 H1486 H 0.24011 0.27026 0.46160
 C1487 C 0.26958 0.78563 -0.04611
 C1488 C 0.27653 0.77549 -0.05737
 C1489 C 0.27685 0.75893 -0.05475
 C1490 C 0.27022 0.75253 -0.04093
 C1491 C 0.30185 0.80075 -0.10858
 C1492 C 0.26297 0.77925 -0.03229
 C1493 C 0.28345 0.78216 -0.07150
 C1494 C 0.28924 0.78791 -0.08325
 C1495 C 0.29604 0.79480 -0.09694
 C1496 C 0.26317 0.76265 -0.02962
 H1497 H 0.26930 0.79846 -0.04799
 H1498 H 0.28229 0.75098 -0.06334
 H1499 H 0.27070 0.73972 -0.03899
 H1500 H 0.25762 0.78726 -0.02371
 C1501 C 0.78622 0.26847 -0.04625
 C1502 C 0.77623 0.27566 -0.05748
 C1503 C 0.75972 0.27631 -0.05484
 C1504 C 0.75322 0.26978 -0.04102
 C1505 C 0.80129 0.30106 -0.10879
 C1506 C 0.77974 0.26194 -0.03244
 C1507 C 0.78296 0.28253 -0.07162
 C1508 C 0.78868 0.28833 -0.08340
 C1509 C 0.79546 0.29516 -0.09712
 C1510 C 0.76318 0.26246 -0.02973
 H1511 H 0.79901 0.26794 -0.04815
 H1512 H 0.75189 0.28194 -0.06341
 H1513 H 0.74046 0.27055 -0.03906
 H1514 H 0.78763 0.25641 -0.02387
 C1515 C 0.77637 0.75950 0.44561
 C1516 C 0.77571 0.77602 0.44284
 C1517 C 0.76837 0.78610 0.45390
 C1518 C 0.76172 0.77971 0.46769
 C1519 C 0.80145 0.80110 0.39174
 C1520 C 0.76973 0.75308 0.45941
 C1521 C 0.78273 0.78269 0.42876
 C1522 C 0.78863 0.78840 0.41704
 C1523 C 0.79555 0.79521 0.40338
 C1524 C 0.76228 0.76314 0.47053
 H1525 H 0.78211 0.75160 0.43717
 H1526 H 0.76783 0.79890 0.45189
 H1527 H 0.75608 0.78766 0.47614
 H1528 H 0.77052 0.74031 0.46148
 C1529 C 0.72357 0.25915 0.55431
 C1530 C 0.72407 0.27568 0.55704
 C1531 C 0.73129 0.28578 0.54592
 C1532 C 0.73795 0.27940 0.53212
 C1533 C 0.69841 0.30087 0.60817
 C1534 C 0.73023 0.25275 0.54051
 C1535 C 0.71704 0.28235 0.57113
 C1536 C 0.71115 0.28809 0.58285
 C1537 C 0.70427 0.29495 0.59652
 C1538 C 0.73755 0.26283 0.52933
 H1539 H 0.71793 0.25123 0.56280
 H1540 H 0.73172 0.29859 0.54789
 H1541 H 0.74348 0.28739 0.52364
 H1542 H 0.72955 0.23997 0.53847
 C1543 C 0.73162 0.78584 1.04603
 C1544 C 0.72426 0.77576 1.05707
 C1545 C 0.72362 0.75924 1.05429
 C1546 C 0.73031 0.75283 1.04050
 C1547 C 0.69836 0.80090 1.10808
 C1548 C 0.73831 0.77945 1.03225
 C1549 C 0.71718 0.78243 1.07113
 C1550 C 0.71124 0.78815 1.08284
 C1551 C 0.70429 0.79498 1.09647
 C1552 C 0.73777 0.76289 1.02940
 H1553 H 0.73214 0.79864 1.04804
 H1554 H 0.71786 0.75135 1.06271
 H1555 H 0.72952 0.74007 1.03842
 H1556 H 0.74397 0.78741 1.02382
 C1557 C 0.23151 0.28586 1.04607
 C1558 C 0.22417 0.27580 1.05714
 C1559 C 0.22354 0.25928 1.05439
 C1560 C 0.23019 0.25285 1.04059
 C1561 C 0.19838 0.30094 1.10820
 C1562 C 0.23816 0.27945 1.03228
 C1563 C 0.21713 0.28248 1.07121
 C1564 C 0.21121 0.28821 1.08292
 C1565 C 0.20428 0.29504 1.09657
 C1566 C 0.23762 0.26289 1.02945
 H1567 H 0.23204 0.29866 1.04807
 H1568 H 0.21782 0.25139 1.06284
 H1569 H 0.22941 0.24008 1.03853
 H1570 H 0.24380 0.28740 1.02383
 C1571 C 0.23142 0.78605 0.54582
 C1572 C 0.22410 0.77597 0.55689
 C1573 C 0.22351 0.75945 0.55415
 C1574 C 0.23021 0.75302 0.54039
 C1575 C 0.19838 0.80105 0.60803
 C1576 C 0.23813 0.77964 0.53206
 C1577 C 0.21706 0.78266 0.57097
 C1578 C 0.21116 0.78837 0.58269
 C1579 C 0.20426 0.79518 0.59637
 C1580 C 0.23765 0.76307 0.52926
 H1581 H 0.23191 0.79885 0.54780
 H1582 H 0.21778 0.75156 0.56260
 H1583 H 0.22947 0.74025 0.53833
 H1584 H 0.24375 0.78759 0.52360
 C1585 C 0.26871 0.71412 0.54594
 C1586 C 0.27602 0.72420 0.55700
 C1587 C 0.27660 0.74072 0.55423
 C1588 C 0.26991 0.74714 0.54044
 C1589 C 0.30167 0.69905 0.60813
 C1590 C 0.26203 0.72051 0.53216
 C1591 C 0.28305 0.71753 0.57108
 C1592 C 0.28893 0.71180 0.58281
 C1593 C 0.29581 0.70496 0.59648
 C1594 C 0.26251 0.73708 0.52932
 H1595 H 0.26821 0.70132 0.54796
 H1596 H 0.28230 0.74863 0.56267
 H1597 H 0.27064 0.75991 0.53837
 H1598 H 0.25642 0.71254 0.52372
 C1599 C 0.26836 0.21368 1.04596
 C1600 C 0.27565 0.22370 1.05709
 C1601 C 0.27629 0.24023 1.05440
 C1602 C 0.26970 0.24672 1.04061
 C1603 C 0.30138 0.19862 1.10823
 C1604 C 0.26176 0.22016 1.03218
 C1605 C 0.28264 0.21696 1.07117
 C1606 C 0.28853 0.21123 1.08289
 C1607 C 0.29545 0.20445 1.09657
 C1608 C 0.26231 0.23674 1.02942
 H1609 H 0.26782 0.20087 1.04791
 H1610 H 0.28198 0.24808 1.06289
 H1611 H 0.27049 0.25950 1.03859
 H1612 H 0.25616 0.21225 1.02368
 C1613 C 0.77644 0.74018 1.05432
 C1614 C 0.77581 0.72364 1.05698
 C1615 C 0.76852 0.71364 1.04584
 C1616 C 0.76192 0.72014 1.03206
 C1617 C 0.80152 0.69856 1.10812
 C1618 C 0.76985 0.74669 1.04055
 C1619 C 0.78281 0.71688 1.07104
 C1620 C 0.78870 0.71115 1.08276
 C1621 C 0.79562 0.70437 1.09644
 C1622 C 0.76246 0.73673 1.02933
 H1623 H 0.78211 0.74801 1.06284
 H1624 H 0.76798 0.70083 1.04777
 H1625 H 0.75634 0.71225 1.02355
 H1626 H 0.77064 0.75948 1.03855
 C1627 C 0.77677 0.24083 0.55403
 C1628 C 0.77632 0.22431 0.55686
 C1629 C 0.76905 0.21413 0.54586
 C1630 C 0.76224 0.22043 0.53210
 C1631 C 0.80205 0.19940 0.60805
 C1632 C 0.76996 0.24714 0.54026
 C1633 C 0.78342 0.21774 0.57095
 C1634 C 0.78934 0.21209 0.58269
 C1635 C 0.79622 0.20531 0.59639
 C1636 C 0.76256 0.23699 0.52921
 H1637 H 0.78245 0.24880 0.56242
 H1638 H 0.76867 0.20133 0.54791
 H1639 H 0.75665 0.21239 0.52371
 H1640 H 0.77059 0.25991 0.53815
 C1641 C 0.72362 0.74075 0.44556
 C1642 C 0.72426 0.72423 0.44281
 C1643 C 0.73153 0.71414 0.45392
 C1644 C 0.73811 0.72053 0.46774
 C1645 C 0.69859 0.69939 0.39160
 C1646 C 0.73019 0.74716 0.45938
 C1647 C 0.71729 0.71759 0.42870
 C1648 C 0.71142 0.71194 0.41694
 C1649 C 0.70451 0.70522 0.40324
 C1650 C 0.73757 0.73710 0.47056
 H1651 H 0.71796 0.74866 0.43707
 H1652 H 0.73207 0.70134 0.45192
 H1653 H 0.74370 0.71256 0.47621
 H1654 H 0.72942 0.75994 0.46142
 C1655 C 0.71445 0.23139 -0.04641
 C1656 C 0.72458 0.22412 -0.05748
 C1657 C 0.74106 0.22355 -0.05467
 C1658 C 0.74738 0.23021 -0.04084
 C1659 C 0.69960 0.19838 -0.10861
 C1660 C 0.72075 0.23805 -0.03259
 C1661 C 0.71800 0.21711 -0.07160
 C1662 C 0.71233 0.21121 -0.08334
 C1663 C 0.70553 0.20430 -0.09701
 C1664 C 0.73728 0.23759 -0.02972
 H1665 H 0.70168 0.23187 -0.04844
 H1666 H 0.74901 0.21789 -0.06311
 H1667 H 0.76013 0.22949 -0.03875
 H1668 H 0.71275 0.24363 -0.02416
 C1669 C 0.22380 0.74140 -0.05470
 C1670 C 0.22410 0.72484 -0.05733
 C1671 C 0.23110 0.71467 -0.04614
 C1672 C 0.23774 0.72099 -0.03234
 C1673 C 0.19853 0.69960 -0.10834
 C1674 C 0.23046 0.74775 -0.04089
 C1675 C 0.21711 0.71822 -0.07142
 C1676 C 0.21125 0.71248 -0.08313
 C1677 C 0.20440 0.70559 -0.09676
 C1678 C 0.23753 0.73758 -0.02963
 H1679 H 0.21834 0.74937 -0.06326
 H1680 H 0.23139 0.70185 -0.04806
 H1681 H 0.24311 0.71297 -0.02379
 H1682 H 0.23000 0.76055 -0.03893
 C1683 C 0.24080 0.22314 0.44589
 C1684 C 0.22431 0.22373 0.44311
 C1685 C 0.21419 0.23101 0.45417
 C1686 C 0.22051 0.23770 0.46796
 C1687 C 0.19928 0.19839 0.39183
 C1688 C 0.24714 0.22983 0.45969
 C1689 C 0.21771 0.21676 0.42898
 C1690 C 0.21202 0.21094 0.41722
 C1691 C 0.20520 0.20416 0.40351
 C1692 C 0.23704 0.23724 0.47081
 H1693 H 0.24872 0.21745 0.43745
 H1694 H 0.20142 0.23150 0.45215
 H1695 H 0.21252 0.24331 0.47639
 H1696 H 0.25988 0.22911 0.46177
 C1697 C 0.25957 0.44504 0.72412
 C1698 C 0.27606 0.44227 0.72482
 C1699 C 0.28604 0.45345 0.73218
 C1700 C 0.27957 0.46737 0.73877
 C1701 C 0.30118 0.39095 0.69860
 C1702 C 0.25308 0.45897 0.73071
 C1703 C 0.28281 0.42812 0.71775
 C1704 C 0.28854 0.41634 0.71176
 C1705 C 0.29533 0.40262 0.70468
 C1706 C 0.26303 0.47023 0.73814
 H1707 H 0.25176 0.43651 0.71837
 H1708 H 0.29882 0.45146 0.73274
 H1709 H 0.28745 0.47593 0.74439
 H1710 H 0.24034 0.46106 0.72984
 C1711 C 0.28579 0.95381 0.23140
 C1712 C 0.27577 0.94248 0.22434
 C1713 C 0.25924 0.94509 0.22393
 C1714 C 0.25276 0.95903 0.23050
 C1715 C 0.30112 0.89132 0.19809
 C1716 C 0.27934 0.96774 0.23796
 C1717 C 0.28252 0.92834 0.21726
 C1718 C 0.28830 0.91660 0.21126
 C1719 C 0.29518 0.90294 0.20417
 C1720 C 0.26277 0.97045 0.23760
 H1721 H 0.29860 0.95191 0.23177
 H1722 H 0.25139 0.93643 0.21843
 H1723 H 0.23999 0.96100 0.22991
 H1724 H 0.28725 0.97641 0.24337
 C1725 C 0.76869 0.45401 0.21439
 C1726 C 0.77607 0.44277 0.22428
 C1727 C 0.77663 0.44544 0.24064
 C1728 C 0.76985 0.45931 0.24706
 C1729 C 0.80198 0.39170 0.19839
 C1730 C 0.76191 0.46786 0.22079
 C1731 C 0.78320 0.42865 0.21755
 C1732 C 0.78915 0.41693 0.21166
 C1733 C 0.79608 0.40330 0.20456
 C1734 C 0.76238 0.47061 0.23718
 H1735 H 0.76823 0.45208 0.20172
 H1736 H 0.78240 0.43687 0.24839
 H1737 H 0.77057 0.46131 0.25970
 H1738 H 0.75625 0.47644 0.21297
 C1739 C 0.78565 0.95378 0.73180
 C1740 C 0.77560 0.94267 0.72443
 C1741 C 0.75910 0.94544 0.72396
 C1742 C 0.75268 0.95931 0.73073
 C1743 C 0.80075 0.89158 0.69774
 C1744 C 0.77925 0.96764 0.73858
 C1745 C 0.78228 0.92859 0.71715
 C1746 C 0.78801 0.91688 0.71102
 C1747 C 0.79483 0.90322 0.70383
 C1748 C 0.76271 0.97051 0.73814
 H1749 H 0.79843 0.95179 0.73222
 H1750 H 0.75122 0.93696 0.71822
 H1751 H 0.73993 0.96140 0.73002
 H1752 H 0.78719 0.97615 0.74419
 C1753 C 0.74044 0.55477 0.72372
 C1754 C 0.72395 0.55752 0.72432
 C1755 C 0.71394 0.54638 0.73172
 C1756 C 0.72038 0.53249 0.73841
 C1757 C 0.69864 0.60867 0.69791
 C1758 C 0.74690 0.54087 0.73040
 C1759 C 0.71723 0.57163 0.71713
 C1760 C 0.71146 0.58336 0.71106
 C1761 C 0.70457 0.59701 0.70395
 C1762 C 0.73691 0.52963 0.73785
 H1763 H 0.74828 0.56330 0.71797
 H1764 H 0.70116 0.54838 0.73225
 H1765 H 0.71247 0.52396 0.74405
 H1766 H 0.75965 0.53879 0.72960
 C1767 C 0.74053 0.05456 0.22412
 C1768 C 0.72403 0.05728 0.22480
 C1769 C 0.71408 0.04610 0.23223
 C1770 C 0.72059 0.03221 0.23885
 C1771 C 0.69871 0.10820 0.19796
 C1772 C 0.74705 0.04066 0.23074
 C1773 C 0.71723 0.07133 0.21756
 C1774 C 0.71146 0.08301 0.21140
 C1775 C 0.70462 0.09661 0.20415
 C1776 C 0.73713 0.02938 0.23819
 H1777 H 0.74833 0.06309 0.21831
 H1778 H 0.70130 0.04807 0.23279
 H1779 H 0.71272 0.02365 0.24450
 H1780 H 0.75980 0.03860 0.22986
 C1781 C 0.24020 0.55481 0.22381
 C1782 C 0.22370 0.55755 0.22449
 C1783 C 0.21374 0.54638 0.23190
 C1784 C 0.22022 0.53249 0.23854
 C1785 C 0.19858 0.60878 0.19812
 C1786 C 0.24670 0.54091 0.23044
 C1787 C 0.21695 0.57167 0.21736
 C1788 C 0.21121 0.58342 0.21132
 C1789 C 0.20442 0.59712 0.20421
 C1790 C 0.23676 0.52965 0.23790
 H1791 H 0.24801 0.56334 0.21803
 H1792 H 0.20095 0.54837 0.23247
 H1793 H 0.21234 0.52394 0.24419
 H1794 H 0.25945 0.53885 0.22960
 C1795 C 0.24036 0.05447 0.72427
 C1796 C 0.22385 0.05713 0.72497
 C1797 C 0.21395 0.04588 0.73235
 C1798 C 0.22051 0.03199 0.73894
 C1799 C 0.19844 0.10831 0.69867
 C1800 C 0.24694 0.04058 0.73086
 C1801 C 0.21700 0.07123 0.71787
 C1802 C 0.21119 0.08296 0.71185
 C1803 C 0.20433 0.09665 0.70475
 C1804 C 0.23706 0.02924 0.73829
 H1805 H 0.24812 0.06307 0.71853
 H1806 H 0.20116 0.04779 0.73294
 H1807 H 0.21269 0.02339 0.74459
 H1808 H 0.25970 0.03859 0.73000
 C1809 C 0.25933 0.55482 0.27626
 C1810 C 0.27581 0.55759 0.27559
 C1811 C 0.28585 0.54642 0.26824
 C1812 C 0.27946 0.53251 0.26162
 C1813 C 0.30098 0.60887 0.30167
 C1814 C 0.25291 0.54090 0.26964
 C1815 C 0.28249 0.57176 0.28265
 C1816 C 0.28822 0.58353 0.28861
 C1817 C 0.29506 0.59723 0.29564
 C1818 C 0.26293 0.52965 0.26221
 H1819 H 0.25147 0.56334 0.28200
 H1820 H 0.29862 0.54843 0.26769
 H1821 H 0.28739 0.52398 0.25599
 H1822 H 0.24017 0.53881 0.27047
 C1823 C 0.25973 0.05438 0.77661
 C1824 C 0.27621 0.05717 0.77592
 C1825 C 0.28625 0.04602 0.76854
 C1826 C 0.27986 0.03212 0.76190
 C1827 C 0.30122 0.10853 0.80195
 C1828 C 0.25332 0.04046 0.76998
 C1829 C 0.28288 0.07133 0.78299
 C1830 C 0.28859 0.08311 0.78895
 C1831 C 0.29537 0.09684 0.79595
 C1832 C 0.26334 0.02924 0.76252
 H1833 H 0.25187 0.06289 0.78237
 H1834 H 0.29902 0.04804 0.76797
 H1835 H 0.28779 0.02360 0.75625
 H1836 H 0.24058 0.03836 0.77083
 C1837 C 0.78602 0.54623 0.76833
 C1838 C 0.77603 0.55744 0.77568
 C1839 C 0.75953 0.55476 0.77631
 C1840 C 0.75305 0.54088 0.76965
 C1841 C 0.80139 0.60852 0.80197
 C1842 C 0.77956 0.53237 0.76167
 C1843 C 0.78278 0.57155 0.78279
 C1844 C 0.78857 0.58327 0.78880
 C1845 C 0.79546 0.59691 0.79589
 C1846 C 0.76302 0.52959 0.76224
 H1847 H 0.79881 0.54816 0.76782
 H1848 H 0.75170 0.56332 0.78205
 H1849 H 0.74030 0.53886 0.77045
 H1850 H 0.78746 0.52380 0.75604
 C1851 C 0.78645 0.04585 0.26849
 C1852 C 0.77648 0.05704 0.27590
 C1853 C 0.75998 0.05436 0.27656
 C1854 C 0.75348 0.04051 0.26989
 C1855 C 0.80164 0.10822 0.30214
 C1856 C 0.77998 0.03201 0.26182
 C1857 C 0.78323 0.07113 0.28303
 C1858 C 0.78898 0.08286 0.28905
 C1859 C 0.79579 0.09654 0.29612
 C1860 C 0.76343 0.02924 0.26241
 H1861 H 0.79924 0.04780 0.26795
 H1862 H 0.75217 0.06291 0.28233
 H1863 H 0.74073 0.03848 0.27072
 H1864 H 0.78786 0.02345 0.25616
 C1865 C 0.73147 0.45377 0.28570
 C1866 C 0.72422 0.44252 0.27576
 C1867 C 0.72363 0.44526 0.25942
 C1868 C 0.73026 0.45921 0.25305
 C1869 C 0.69875 0.39101 0.30113
 C1870 C 0.73809 0.46771 0.27935
 C1871 C 0.71725 0.42829 0.28242
 C1872 C 0.71141 0.41647 0.28819
 C1873 C 0.70459 0.40271 0.29512
 C1874 C 0.73760 0.47053 0.26296
 H1875 H 0.73196 0.45179 0.29836
 H1876 H 0.71797 0.43668 0.25164
 H1877 H 0.72951 0.46127 0.24042
 H1878 H 0.74364 0.47630 0.28720
 C1879 C 0.71374 0.95392 0.76879
 C1880 C 0.72376 0.94267 0.77603
 C1881 C 0.74026 0.94538 0.77663
 C1882 C 0.74671 0.95930 0.77002
 C1883 C 0.69869 0.89122 0.80197
 C1884 C 0.72016 0.96784 0.76218
 C1885 C 0.71706 0.92848 0.78305
 C1886 C 0.71135 0.91667 0.78898
 C1887 C 0.70456 0.90292 0.79597
 C1888 C 0.73671 0.97062 0.76268
 H1889 H 0.70095 0.95197 0.76831
 H1890 H 0.74812 0.93679 0.78229
 H1891 H 0.75946 0.96132 0.77077
 H1892 H 0.71225 0.97643 0.75662
 C1893 C 0.24033 0.44517 0.77655
 C1894 C 0.22383 0.44244 0.77590
 C1895 C 0.21384 0.45364 0.76854
 C1896 C 0.22028 0.46753 0.76189
 C1897 C 0.19874 0.39104 0.80188
 C1898 C 0.24679 0.45907 0.76991
 C1899 C 0.21712 0.42828 0.78296
 C1900 C 0.21139 0.41650 0.78891
 C1901 C 0.20459 0.40275 0.79590
 C1902 C 0.23682 0.47034 0.76246
 H1903 H 0.24816 0.43662 0.78230
 H1904 H 0.20106 0.45167 0.76800
 H1905 H 0.21238 0.47608 0.75625
 H1906 H 0.25954 0.46112 0.77074
 C1907 C 0.24099 0.94513 0.27633
 C1908 C 0.22446 0.94254 0.27597
 C1909 C 0.21439 0.95391 0.26897
 C1910 C 0.22080 0.96784 0.26240
 C1911 C 0.19909 0.89126 0.30185
 C1912 C 0.24741 0.95908 0.26975
 C1913 C 0.21776 0.92837 0.28299
 C1914 C 0.21197 0.91660 0.28891
 C1915 C 0.20506 0.90291 0.29588
 C1916 C 0.23736 0.97052 0.26268
 H1917 H 0.24887 0.93644 0.28179
 H1918 H 0.20159 0.95203 0.26866
 H1919 H 0.21285 0.97652 0.25702
 H1920 H 0.26019 0.96102 0.27030
 C1921 C 0.44541 0.25912 0.72371
 C1922 C 0.44257 0.27564 0.72430
 C1923 C 0.45366 0.28573 0.73163
 C1924 C 0.46755 0.27936 0.73833
 C1925 C 0.39124 0.30063 0.69811
 C1926 C 0.45931 0.25273 0.73040
 C1927 C 0.42841 0.28229 0.71718
 C1928 C 0.41663 0.28798 0.71118
 C1929 C 0.40291 0.29476 0.70414
 C1930 C 0.47047 0.26279 0.73782
 H1931 H 0.43695 0.25122 0.71799
 H1932 H 0.45161 0.29854 0.73212
 H1933 H 0.47602 0.28733 0.74394
 H1934 H 0.46145 0.23996 0.72963
 C1935 C 0.45336 0.78605 0.23148
 C1936 C 0.44232 0.77595 0.22410
 C1937 C 0.44518 0.75944 0.22350
 C1938 C 0.45908 0.75306 0.23019
 C1939 C 0.39118 0.80103 0.19771
 C1940 C 0.46725 0.77969 0.23819
 C1941 C 0.42820 0.78259 0.21693
 C1942 C 0.41647 0.78831 0.21088
 C1943 C 0.40281 0.79512 0.20378
 C1944 C 0.47021 0.76314 0.23764
 H1945 H 0.45128 0.79885 0.23198
 H1946 H 0.43675 0.75152 0.21774
 H1947 H 0.46125 0.74030 0.22941
 H1948 H 0.47569 0.78768 0.24383
 C1949 C 0.94530 0.25907 0.22314
 C1950 C 0.94238 0.27557 0.22368
 C1951 C 0.95335 0.28573 0.23111
 C1952 C 0.96721 0.27944 0.23791
 C1953 C 0.89135 0.30077 0.19718
 C1954 C 0.95918 0.25275 0.22995
 C1955 C 0.92829 0.28217 0.21642
 C1956 C 0.91659 0.28790 0.21032
 C1957 C 0.90296 0.29478 0.20320
 C1958 C 0.97022 0.26289 0.23743
 H1959 H 0.93693 0.25111 0.21736
 H1960 H 0.95122 0.29852 0.23156
 H1961 H 0.97559 0.28746 0.24358
 H1962 H 0.96139 0.23999 0.22923
 C1963 C 0.94532 0.76029 0.72342
 C1964 C 0.94264 0.77683 0.72406
 C1965 C 0.95374 0.78677 0.73157
 C1966 C 0.96752 0.78022 0.73834
 C1967 C 0.89171 0.80208 0.69736
 C1968 C 0.95911 0.75372 0.73016
 C1969 C 0.92865 0.78366 0.71678
 C1970 C 0.91700 0.78944 0.71064
 C1971 C 0.90338 0.79626 0.70344
 C1972 C 0.97031 0.76363 0.73772
 H1973 H 0.93683 0.75250 0.71759
 H1974 H 0.95180 0.79958 0.73212
 H1975 H 0.97602 0.78807 0.74407
 H1976 H 0.96114 0.74094 0.72931
 C1977 C 0.55498 0.25909 0.27622
 C1978 C 0.55779 0.27560 0.27554
 C1979 C 0.54667 0.28568 0.26819
 C1980 C 0.53276 0.27931 0.26159
 C1981 C 0.60904 0.30066 0.30159
 C1982 C 0.54107 0.25269 0.26961
 C1983 C 0.57194 0.28225 0.28260
 C1984 C 0.58371 0.28796 0.28856
 C1985 C 0.59740 0.29476 0.29558
 C1986 C 0.52987 0.26275 0.26219
 H1987 H 0.56347 0.25119 0.28197
 H1988 H 0.54871 0.29848 0.26764
 H1989 H 0.52426 0.28727 0.25597
 H1990 H 0.53895 0.23993 0.27044
 C1991 C 0.55447 0.75995 0.77634
 C1992 C 0.55722 0.77646 0.77556
 C1993 C 0.54607 0.78646 0.76814
 C1994 C 0.53219 0.77999 0.76156
 C1995 C 0.60849 0.80134 0.80176
 C1996 C 0.54059 0.75346 0.76977
 C1997 C 0.57134 0.78319 0.78262
 C1998 C 0.58311 0.78886 0.78862
 C1999 C 0.59682 0.79556 0.79570
 C2000 C 0.52935 0.76342 0.76227
 H2001 H 0.56299 0.75212 0.78213
 H2002 H 0.54805 0.79926 0.76751
 H2003 H 0.52366 0.78788 0.75588
 H2004 H 0.53852 0.74070 0.77070
 C2005 C 0.05470 0.25930 0.77625
 C2006 C 0.05726 0.27586 0.77583
 C2007 C 0.04587 0.28591 0.76885
 C2008 C 0.03195 0.27945 0.76235
 C2009 C 0.10868 0.30092 0.80158
 C2010 C 0.04078 0.25281 0.76974
 C2011 C 0.07144 0.28259 0.78278
 C2012 C 0.08324 0.28831 0.78866
 C2013 C 0.09699 0.29509 0.79561
 C2014 C 0.02931 0.26284 0.76269
 H2015 H 0.06341 0.25142 0.78169
 H2016 H 0.04771 0.29874 0.76847
 H2017 H 0.02325 0.28738 0.75698
 H2018 H 0.03888 0.24000 0.77033
 C2019 C 0.04638 0.78636 0.26798
 C2020 C 0.05760 0.77636 0.27531
 C2021 C 0.05492 0.75983 0.27600
 C2022 C 0.04103 0.75332 0.26946
 C2023 C 0.10871 0.80155 0.30150
 C2024 C 0.03250 0.77987 0.26143
 C2025 C 0.07170 0.78313 0.28236
 C2026 C 0.08342 0.78889 0.28835
 C2027 C 0.09708 0.79570 0.29543
 C2028 C 0.02972 0.76330 0.26208
 H2029 H 0.04832 0.79917 0.26740
 H2030 H 0.06349 0.75200 0.28172
 H2031 H 0.03901 0.74055 0.27031
 H2032 H 0.02392 0.78776 0.25582
 C2033 C 0.54610 0.71385 0.73228
 C2034 C 0.55724 0.72382 0.72483
 C2035 C 0.55451 0.74034 0.72411
 C2036 C 0.54064 0.74687 0.73072
 C2037 C 0.60831 0.69867 0.69828
 C2038 C 0.53224 0.72036 0.73891
 C2039 C 0.57131 0.71705 0.71766
 C2040 C 0.58302 0.71131 0.71157
 C2041 C 0.59666 0.70451 0.70440
 C2042 C 0.52940 0.73694 0.73822
 H2043 H 0.54808 0.70104 0.73289
 H2044 H 0.56303 0.74814 0.71831
 H2045 H 0.53858 0.75965 0.72982
 H2046 H 0.52371 0.71249 0.74459
 C2047 C 0.54651 0.21372 0.23149
 C2048 C 0.55764 0.22377 0.22414
 C2049 C 0.55489 0.24030 0.22358
 C2050 C 0.54102 0.24675 0.23027
 C2051 C 0.60870 0.19861 0.19760
 C2052 C 0.53265 0.22014 0.23818
 C2053 C 0.57172 0.21706 0.21694
 C2054 C 0.58343 0.21133 0.21085
 C2055 C 0.59708 0.20452 0.20370
 C2056 C 0.52981 0.23672 0.23769
 H2057 H 0.54851 0.20090 0.23195
 H2058 H 0.56338 0.24818 0.21783
 H2059 H 0.53893 0.25953 0.22950
 H2060 H 0.52413 0.21220 0.24378
 C2061 C 0.05474 0.74073 0.22355
 C2062 C 0.05756 0.72421 0.22415
 C2063 C 0.04650 0.71413 0.23156
 C2064 C 0.03263 0.72053 0.23830
 C2065 C 0.10872 0.69922 0.19767
 C2066 C 0.04087 0.74714 0.23027
 C2067 C 0.07165 0.71754 0.21695
 C2068 C 0.08339 0.71185 0.21087
 C2069 C 0.09706 0.70508 0.20374
 C2070 C 0.02973 0.73709 0.23775
 H2071 H 0.06319 0.74862 0.21777
 H2072 H 0.04854 0.70133 0.23207
 H2073 H 0.02417 0.71257 0.24396
 H2074 H 0.03875 0.75991 0.22948
 C2075 C 0.05476 0.24100 0.72394
 C2076 C 0.05737 0.22444 0.72424
 C2077 C 0.04605 0.21435 0.73124
 C2078 C 0.03214 0.22077 0.73784
 C2079 C 0.10857 0.19895 0.69825
 C2080 C 0.04083 0.24745 0.73055
 C2081 C 0.07152 0.21771 0.71718
 C2082 C 0.08327 0.21189 0.71123
 C2083 C 0.09694 0.20495 0.70424
 C2084 C 0.02943 0.23737 0.73759
 H2085 H 0.06342 0.24891 0.71850
 H2086 H 0.04794 0.20151 0.73152
 H2087 H 0.02348 0.21279 0.74318
 H2088 H 0.03887 0.26026 0.73002
 C2089 C 0.44508 0.74036 0.27591
 C2090 C 0.44243 0.72383 0.27523
 C2091 C 0.45369 0.71385 0.26793
 C2092 C 0.46758 0.72037 0.26139
 C2093 C 0.39117 0.69873 0.30129
 C2094 C 0.45896 0.74689 0.26937
 C2095 C 0.42829 0.71706 0.28224
 C2096 C 0.41653 0.71133 0.28819
 C2097 C 0.40282 0.70456 0.29523
 C2098 C 0.47031 0.73695 0.26201
 H2099 H 0.43647 0.74818 0.28160
 H2100 H 0.45177 0.70104 0.26737
 H2101 H 0.47618 0.71249 0.25580
 H2102 H 0.46094 0.75968 0.27020
 C2103 C 0.45386 0.21350 0.76814
 C2104 C 0.44262 0.22349 0.77546
 C2105 C 0.44530 0.24002 0.77614
 C2106 C 0.45918 0.24654 0.76958
 C2107 C 0.39136 0.19844 0.80160
 C2108 C 0.46774 0.22000 0.76158
 C2109 C 0.42850 0.21673 0.78251
 C2110 C 0.41675 0.21100 0.78849
 C2111 C 0.40304 0.20424 0.79555
 C2112 C 0.47050 0.23658 0.76219
 H2113 H 0.45192 0.20069 0.76758
 H2114 H 0.43672 0.24785 0.78186
 H2115 H 0.46119 0.25932 0.77042
 H2116 H 0.47633 0.21211 0.75598
 C2117 C 0.95357 0.71394 0.76767
 C2118 C 0.94235 0.72388 0.77508
 C2119 C 0.94499 0.74041 0.77580
 C2120 C 0.95885 0.74698 0.76923
 C2121 C 0.89141 0.69850 0.80151
 C2122 C 0.96741 0.72049 0.76108
 C2123 C 0.92830 0.71704 0.78219
 C2124 C 0.91661 0.71124 0.78823
 C2125 C 0.90300 0.70438 0.79538
 C2126 C 0.97017 0.73707 0.76177
 H2127 H 0.95166 0.70113 0.76709
 H2128 H 0.93642 0.74820 0.78158
 H2129 H 0.96084 0.75976 0.77013
 H2130 H 0.97599 0.71264 0.75542
 C2131 C 0.95348 0.21392 0.26798
 C2132 C 0.94224 0.22396 0.27523
 C2133 C 0.94495 0.24049 0.27586
 C2134 C 0.95888 0.24695 0.26933
 C2135 C 0.89096 0.19893 0.30135
 C2136 C 0.96741 0.22036 0.26145
 C2137 C 0.92808 0.21726 0.28226
 C2138 C 0.91631 0.21156 0.28822
 C2139 C 0.90260 0.20479 0.29528
 C2140 C 0.97019 0.23693 0.26201
 H2141 H 0.95151 0.20111 0.26746
 H2142 H 0.93637 0.24835 0.28152
 H2143 H 0.96092 0.25972 0.27014
 H2144 H 0.97600 0.21243 0.25592
 C2145 C 0.25929 0.27627 0.55435
 C2146 C 0.27579 0.27564 0.55703
 C2147 C 0.28581 0.26833 0.54590
 C2148 C 0.27938 0.26169 0.53213
 C2149 C 0.30107 0.30120 0.60808
 C2150 C 0.25284 0.26963 0.54058
 C2151 C 0.28251 0.28263 0.57109
 C2152 C 0.28827 0.28849 0.58280
 C2153 C 0.29515 0.29534 0.59645
 C2154 C 0.26283 0.26222 0.52938
 H2155 H 0.25143 0.28197 0.56285
 H2156 H 0.29860 0.26780 0.54784
 H2157 H 0.28730 0.25608 0.52364
 H2158 H 0.24008 0.27040 0.53857
 C2159 C 0.25913 0.77659 0.05405
 C2160 C 0.27565 0.77620 0.05668
 C2161 C 0.28576 0.76917 0.04545
 C2162 C 0.27941 0.76257 0.03165
 C2163 C 0.30096 0.80159 0.10775
 C2164 C 0.25275 0.76997 0.04024
 C2165 C 0.28231 0.78314 0.07078
 C2166 C 0.28807 0.78895 0.08250
 C2167 C 0.29498 0.79576 0.09614
 C2168 C 0.26285 0.76284 0.02896
 H2169 H 0.25121 0.78208 0.06263
 H2170 H 0.29856 0.76883 0.04736
 H2171 H 0.28739 0.75716 0.02308
 H2172 H 0.23998 0.77050 0.03828
 C2173 C 0.78561 0.26928 0.04548
 C2174 C 0.77545 0.27651 0.05655
 C2175 C 0.75896 0.27697 0.05377
 C2176 C 0.75265 0.27019 0.03999
 C2177 C 0.80049 0.30196 0.10780
 C2178 C 0.77933 0.26251 0.03171
 C2179 C 0.78202 0.28352 0.07068
 C2180 C 0.78770 0.28936 0.08244
 C2181 C 0.79454 0.29616 0.09614
 C2182 C 0.76279 0.26283 0.02888
 H2183 H 0.79839 0.26891 0.04748
 H2184 H 0.75100 0.28263 0.06220
 H2185 H 0.73990 0.27082 0.03792
 H2186 H 0.78735 0.25695 0.02328
 C2187 C 0.77652 0.75960 0.55400
 C2188 C 0.77598 0.77614 0.55668
 C2189 C 0.76859 0.78620 0.54562
 C2190 C 0.76184 0.77978 0.53190
 C2191 C 0.80192 0.80134 0.60759
 C2192 C 0.76976 0.75315 0.54028
 C2193 C 0.78314 0.78285 0.57066
 C2194 C 0.78912 0.78861 0.58232
 C2195 C 0.79607 0.79545 0.59594
 C2196 C 0.76231 0.76319 0.52913
 H2197 H 0.78227 0.75171 0.56245
 H2198 H 0.76811 0.79901 0.54757
 H2199 H 0.75620 0.78773 0.52345
 H2200 H 0.77048 0.74037 0.53827
 C2201 C 0.27658 0.74060 0.44575
 C2202 C 0.27597 0.72408 0.44302
 C2203 C 0.26869 0.71402 0.45413
 C2204 C 0.26203 0.72043 0.46791
 C2205 C 0.30154 0.69898 0.39182
 C2206 C 0.26992 0.74704 0.45954
 C2207 C 0.28296 0.71739 0.42893
 C2208 C 0.28881 0.71166 0.41718
 C2209 C 0.29568 0.70485 0.40349
 C2210 C 0.26252 0.73701 0.47070
 H2211 H 0.28228 0.74849 0.43728
 H2212 H 0.26819 0.70121 0.45216
 H2213 H 0.25644 0.71249 0.47639
 H2214 H 0.27067 0.75982 0.46158
 C2215 C 0.27651 0.24045 0.94589
 C2216 C 0.27592 0.22392 0.94317
 C2217 C 0.26858 0.21386 0.95424
 C2218 C 0.26189 0.22028 0.96801
 C2219 C 0.30161 0.19874 0.89206
 C2220 C 0.26982 0.24688 0.95966
 C2221 C 0.28297 0.21722 0.92910
 C2222 C 0.28886 0.21148 0.91739
 C2223 C 0.29574 0.20464 0.90371
 C2224 C 0.26240 0.23685 0.97081
 H2225 H 0.28223 0.24833 0.93743
 H2226 H 0.26808 0.20105 0.95226
 H2227 H 0.25625 0.21233 0.97646
 H2228 H 0.27056 0.25966 0.96170
 C2229 C 0.76868 0.71406 0.95410
 C2230 C 0.77597 0.72415 0.94302
 C2231 C 0.77658 0.74067 0.94579
 C2232 C 0.76995 0.74707 0.95960
 C2233 C 0.80153 0.69903 0.89184
 C2234 C 0.76205 0.72044 0.96791
 C2235 C 0.78294 0.71749 0.92891
 C2236 C 0.78879 0.71177 0.91716
 C2237 C 0.79566 0.70494 0.90348
 C2238 C 0.76256 0.73700 0.97074
 H2239 H 0.76817 0.70126 0.95209
 H2240 H 0.78227 0.74858 0.93733
 H2241 H 0.77069 0.75984 0.96167
 H2242 H 0.75646 0.71247 0.97636
 C2243 C 0.77643 0.24082 0.44567
 C2244 C 0.77578 0.22432 0.44280
 C2245 C 0.76846 0.21419 0.45382
 C2246 C 0.76183 0.22050 0.46766
 C2247 C 0.80142 0.19936 0.39155
 C2248 C 0.76979 0.24716 0.45951
 C2249 C 0.78277 0.21773 0.42865
 C2250 C 0.78864 0.21207 0.41688
 C2251 C 0.79553 0.20528 0.40318
 C2252 C 0.76236 0.23705 0.47059
 H2253 H 0.78214 0.24877 0.43725
 H2254 H 0.76793 0.20140 0.45174
 H2255 H 0.75620 0.21250 0.47607
 H2256 H 0.77055 0.25992 0.46164
 C2257 C 0.72363 0.25972 0.44571
 C2258 C 0.72426 0.27627 0.44310
 C2259 C 0.73153 0.28623 0.45429
 C2260 C 0.73812 0.27969 0.46804
 C2261 C 0.69872 0.30148 0.39196
 C2262 C 0.73022 0.25316 0.45947
 C2263 C 0.71730 0.28307 0.42905
 C2264 C 0.71145 0.28884 0.41734
 C2265 C 0.70458 0.29565 0.40364
 C2266 C 0.73758 0.26310 0.47072
 H2267 H 0.71797 0.25192 0.43715
 H2268 H 0.73206 0.29905 0.45240
 H2269 H 0.74370 0.28756 0.47658
 H2270 H 0.72945 0.24037 0.46141
 C2271 C 0.73145 0.78595 0.95421
 C2272 C 0.72411 0.77587 0.94318
 C2273 C 0.72355 0.75934 0.94593
 C2274 C 0.73029 0.75293 0.95969
 C2275 C 0.69830 0.80092 0.89210
 C2276 C 0.73819 0.77956 0.96796
 C2277 C 0.71704 0.78253 0.92912
 C2278 C 0.71112 0.78823 0.91740
 C2279 C 0.70420 0.79504 0.90373
 C2280 C 0.73772 0.76299 0.97079
 H2281 H 0.73192 0.79876 0.95220
 H2282 H 0.71782 0.75145 0.93751
 H2283 H 0.72958 0.74015 0.96175
 H2284 H 0.74383 0.78752 0.97638
 C2285 C 0.23129 0.28583 0.95425
 C2286 C 0.22396 0.27574 0.94321
 C2287 C 0.22340 0.25922 0.94598
 C2288 C 0.23014 0.25281 0.95974
 C2289 C 0.19824 0.30083 0.89209
 C2290 C 0.23803 0.27945 0.96800
 C2291 C 0.21690 0.28240 0.92914
 C2292 C 0.21100 0.28811 0.91742
 C2293 C 0.20411 0.29493 0.90374
 C2294 C 0.23758 0.26288 0.97084
 H2295 H 0.23175 0.29864 0.95224
 H2296 H 0.21767 0.25131 0.93757
 H2297 H 0.22943 0.24004 0.96182
 H2298 H 0.24367 0.28742 0.97642
 C2299 C 0.23151 0.78602 0.45407
 C2300 C 0.22417 0.77596 0.44302
 C2301 C 0.22358 0.75943 0.44577
 C2302 C 0.23028 0.75300 0.45954
 C2303 C 0.19836 0.80110 0.39198
 C2304 C 0.23820 0.77961 0.46784
 C2305 C 0.21710 0.78265 0.42897
 C2306 C 0.21118 0.78838 0.41727
 C2307 C 0.20425 0.79521 0.40362
 C2308 C 0.23770 0.76304 0.47067
 H2309 H 0.23201 0.79883 0.45207
 H2310 H 0.21786 0.75155 0.43733
 H2311 H 0.22953 0.74022 0.46160
 H2312 H 0.24382 0.78757 0.47628
 C2313 C 0.73136 0.71426 0.54582
 C2314 C 0.72405 0.72435 0.55689
 C2315 C 0.72345 0.74088 0.55412
 C2316 C 0.73012 0.74728 0.54032
 C2317 C 0.69845 0.69937 0.60812
 C2318 C 0.73802 0.72063 0.53202
 C2319 C 0.71705 0.71770 0.57099
 C2320 C 0.71118 0.71201 0.58274
 C2321 C 0.70431 0.70523 0.59645
 C2322 C 0.73752 0.73720 0.52919
 H2323 H 0.73186 0.70145 0.54782
 H2324 H 0.71774 0.74880 0.56257
 H2325 H 0.72937 0.76005 0.53826
 H2326 H 0.74363 0.71266 0.52357
 C2327 C 0.71416 0.23149 0.04550
 C2328 C 0.72423 0.22425 0.05662
 C2329 C 0.74074 0.22374 0.05391
 C2330 C 0.74713 0.23042 0.04011
 C2331 C 0.69924 0.19858 0.10785
 C2332 C 0.72053 0.23816 0.03170
 C2333 C 0.71758 0.21722 0.07073
 C2334 C 0.71188 0.21134 0.08247
 C2335 C 0.70509 0.20445 0.09617
 C2336 C 0.73708 0.23775 0.02892
 H2337 H 0.70137 0.23194 0.04746
 H2338 H 0.74864 0.21809 0.06240
 H2339 H 0.75989 0.22974 0.03809
 H2340 H 0.71257 0.24372 0.02321
 C2341 C 0.21464 0.73102 0.04536
 C2342 C 0.22468 0.72399 0.05665
 C2343 C 0.24122 0.72360 0.05410
 C2344 C 0.24768 0.73020 0.04029
 C2345 C 0.19911 0.69865 0.10770
 C2346 C 0.22108 0.73760 0.03157
 C2347 C 0.21794 0.71707 0.07074
 C2348 C 0.21211 0.71127 0.08245
 C2349 C 0.20513 0.70447 0.09609
 C2350 C 0.23765 0.73730 0.02894
 H2351 H 0.20184 0.73138 0.04721
 H2352 H 0.24909 0.71813 0.06273
 H2353 H 0.26047 0.72966 0.03840
 H2354 H 0.21315 0.74300 0.02295
 C2355 C 0.24031 0.22334 0.55437
 C2356 C 0.22381 0.22396 0.55704
 C2357 C 0.21381 0.23131 0.54592
 C2358 C 0.22026 0.23798 0.53216
 C2359 C 0.19863 0.19823 0.60813
 C2360 C 0.24679 0.23002 0.54061
 C2361 C 0.21708 0.21692 0.57110
 C2362 C 0.21134 0.21102 0.58281
 C2363 C 0.20451 0.20412 0.59648
 C2364 C 0.23681 0.23745 0.52941
 H2365 H 0.24815 0.21762 0.56286
 H2366 H 0.20102 0.23184 0.54786
 H2367 H 0.21235 0.24362 0.52367
 H2368 H 0.25955 0.22925 0.53861
   
