data_POSCAR
  _audit_creation_date              2014-09-24
  _audit_creation_method            'ToBaCCo'
  _symmetry_space_group_name_H-M    'P1'
  _symmetry_Int_Tables_number       1
  _symmetry_cell_setting            triclinic
  loop_
  _symmetry_equiv_pos_as_xyz
 x,y,z
_cell_length_a 67.4425
_cell_length_b 67.5048
_cell_length_c 67.2361
_cell_angle_alpha 90.063600
_cell_angle_beta 90.083100
_cell_angle_gamma 90.119700
loop_
  _atom_site_label
  _atom_site_type_symbol
  _atom_site_fract_x
  _atom_site_fract_y
  _atom_site_fract_z
O1 O 0.35257 0.32669 -0.01811
 O2 O 0.32309 0.35374 0.01876
 O3 O 0.35038 0.32707 0.02013
 O4 O 0.32525 0.35404 -0.01998
 O5 O 0.30166 0.33144 -0.02087
 O6 O 0.32795 0.30329 0.01828
 O7 O 0.30020 0.33037 0.01784
 O8 O 0.32916 0.30392 -0.02044
 Cu9 Cu 0.34005 0.34277 0.00022
 Cu10 Cu 0.31240 0.31494 -0.00149
 C11 C 0.34609 0.31056 -0.02538
 C12 C 0.30675 0.34661 0.02484
 C13 C 0.34367 0.31047 0.02594
 C14 C 0.30900 0.34764 -0.02715
 O15 O 0.65344 0.68095 -0.02024
 O16 O 0.68060 0.65176 0.01670
 O17 O 0.65383 0.67957 0.01849
 O18 O 0.67965 0.65321 -0.02153
 O19 O 0.70392 0.67510 -0.02044
 O20 O 0.67698 0.70271 0.01856
 O21 O 0.70390 0.67473 0.01817
 O22 O 0.67726 0.70341 -0.02019
 Cu23 Cu 0.66445 0.66420 -0.00161
 Cu24 Cu 0.69287 0.69131 -0.00090
 C25 C 0.66073 0.69705 -0.02671
 C26 C 0.69702 0.65803 0.02353
 C27 C 0.66077 0.69575 0.02521
 C28 C 0.69641 0.65932 -0.02762
 O29 O 0.68352 0.34141 0.97835
 O30 O 0.65650 0.31658 1.01854
 O31 O 0.68410 0.34368 1.01657
 O32 O 0.65659 0.31427 0.97986
 O33 O 0.67975 0.29125 0.98072
 O34 O 0.70665 0.32023 1.01889
 O35 O 0.67898 0.29289 1.01938
 O36 O 0.70719 0.31896 0.98019
 Cu37 Cu 0.66782 0.33123 0.99829
 Cu38 Cu 0.69546 0.30348 0.99994
 C39 C 0.70010 0.33468 0.97259
 C40 C 0.66288 0.30038 1.02566
 C41 C 0.70021 0.33721 1.02389
 C42 C 0.66349 0.29784 0.97385
 O43 O 0.34768 0.67275 1.02066
 O44 O 0.32090 0.65054 0.97875
 O45 O 0.34882 0.67671 0.98284
 O46 O 0.31922 0.64652 1.01710
 O47 O 0.29746 0.67065 1.01999
 O48 O 0.32597 0.70007 0.98351
 O49 O 0.29765 0.67336 0.98115
 O50 O 0.32585 0.69702 1.02206
 Cu51 Cu 0.33629 0.65918 0.99972
 Cu52 Cu 0.30941 0.68762 1.00183
 C53 C 0.34181 0.68902 1.02808
 C54 C 0.30465 0.65795 0.97286
 C55 C 0.34261 0.69361 0.97745
 C56 C 0.30332 0.65335 1.02454
 O57 O 0.01571 0.31749 0.35002
 O58 O -0.01701 0.34826 0.31931
 O59 O -0.02224 0.32153 0.34672
 O60 O 0.02091 0.34493 0.32336
 O61 O 0.01983 0.32304 0.29899
 O62 O -0.02121 0.29726 0.32481
 O63 O -0.01872 0.32441 0.29688
 O64 O 0.01727 0.29528 0.32595
 Cu65 Cu -0.00067 0.33535 0.33717
 Cu66 Cu -0.00076 0.30767 0.30929
 C67 C 0.02217 0.30118 0.34322
 C68 C -0.02347 0.34162 0.30285
 C69 C -0.02876 0.30506 0.34029
 C70 C 0.02746 0.33838 0.30693
 O71 O 0.01574 0.67906 0.64777
 O72 O -0.01789 0.64898 0.67829
 O73 O -0.02234 0.67557 0.65055
 O74 O 0.02014 0.65185 0.67489
 O75 O 0.01907 0.67398 0.69903
 O76 O -0.02127 0.69997 0.67231
 O77 O -0.01953 0.67307 0.70046
 O78 O 0.01732 0.70150 0.67163
 Cu79 Cu -0.00110 0.66155 0.66058
 Cu80 Cu -0.00113 0.68949 0.68818
 C81 C 0.02237 0.69537 0.65451
 C82 C -0.02449 0.65587 0.69457
 C83 C -0.02877 0.69212 0.65679
 C84 C 0.02656 0.65847 0.69137
 O85 O 0.97870 0.68020 0.34361
 O86 O 1.02154 0.65666 0.31981
 O87 O 1.01674 0.68393 0.34683
 O88 O 0.98361 0.65331 0.31626
 O89 O 0.98197 0.67707 0.29380
 O90 O 1.01835 0.70615 0.32290
 O91 O 1.02040 0.67859 0.29553
 O92 O 0.97966 0.70437 0.32157
 Cu93 Cu 1.00014 0.66625 0.33396
 Cu94 Cu 1.00007 0.69392 0.30614
 C95 C 0.97214 0.69654 0.33702
 C96 C 1.02792 0.66318 0.30331
 C97 C 1.02341 0.70022 0.34013
 C98 C 0.97716 0.65988 0.29980
 O99 O 0.97935 0.32206 0.65423
 O100 O 1.02283 0.34497 0.67773
 O101 O 1.01725 0.31764 0.65088
 O102 O 0.98493 0.34879 0.68167
 O103 O 0.98304 0.32497 0.70406
 O104 O 1.01865 0.29545 0.67485
 O105 O 1.02154 0.32310 0.70205
 O106 O 0.98006 0.29789 0.67626
 Cu107 Cu 1.00112 0.33566 0.66381
 Cu108 Cu 1.00079 0.30800 0.69164
 C109 C 0.97254 0.30582 0.66085
 C110 C 1.02933 0.33835 0.69415
 C111 C 1.02364 0.30124 0.65757
 C112 C 0.97838 0.34219 0.69809
 O113 O 0.31996 -0.01980 0.34480
 O114 O 0.34644 0.01966 0.31837
 O115 O 0.31926 0.01861 0.34554
 O116 O 0.34698 -0.01887 0.31747
 O117 O 0.32397 -0.01886 0.29411
 O118 O 0.29596 0.01869 0.32247
 O119 O 0.32349 0.01975 0.29496
 O120 O 0.29657 -0.01975 0.32181
 Cu121 Cu 0.33548 -0.00011 0.33383
 Cu122 Cu 0.30768 -0.00005 0.30597
 C123 C 0.30367 -0.02642 0.33800
 C124 C 0.33960 0.02645 0.30216
 C125 C 0.30280 0.02496 0.33894
 C126 C 0.34030 -0.02527 0.30100
 O127 O 0.64721 0.01765 0.67375
 O128 O 0.67509 -0.02048 0.64695
 O129 O 0.64742 -0.02011 0.67392
 O130 O 0.67504 0.01829 0.64701
 O131 O 0.69799 0.01849 0.67041
 O132 O 0.67034 -0.02038 0.69739
 O133 O 0.69819 -0.02021 0.67021
 O134 O 0.66996 0.01814 0.69739
 Cu135 Cu 0.65906 -0.00119 0.65791
 Cu136 Cu 0.68649 -0.00097 0.68616
 C137 C 0.65348 0.02405 0.69037
 C138 C 0.69134 -0.02694 0.65393
 C139 C 0.65386 -0.02646 0.69047
 C140 C 0.69116 0.02506 0.65408
 O141 O 0.34346 0.98228 0.68724
 O142 O 0.31434 1.01763 0.65813
 O143 O 0.34065 1.02025 0.68581
 O144 O 0.31698 0.97919 0.65892
 O145 O 0.29280 0.97849 0.68096
 O146 O 0.31755 1.01867 0.70899
 O147 O 0.29070 1.01696 0.68078
 O148 O 0.31947 0.98022 0.70944
 Cu149 Cu 0.33118 0.99982 0.67021
 Cu150 Cu 0.30271 0.99842 0.69730
 C151 C 0.33669 0.97548 0.70347
 C152 C 0.29767 1.02353 0.66450
 C153 C 0.33336 1.02632 0.70211
 C154 C 0.30067 0.97205 0.66507
 O155 O 0.67707 1.01852 0.35215
 O156 O 0.64872 0.98245 0.32282
 O157 O 0.67622 0.98016 0.34977
 O158 O 0.64919 1.02027 0.32496
 O159 O 0.67166 1.02111 0.30115
 O160 O 0.69983 0.98189 0.32717
 O161 O 0.67202 0.98255 0.29979
 O162 O 0.69942 1.02062 0.32838
 Cu163 Cu 0.66061 1.00031 0.33984
 Cu164 Cu 0.68809 1.00165 0.31181
 C165 C 0.69309 1.02582 0.34541
 C166 C 0.65537 0.97646 0.30623
 C167 C 0.69270 0.97423 0.34289
 C168 C 0.65538 1.02710 0.30851
 C169 C 0.85325 0.79278 0.51666
 C170 C 0.86033 0.78567 0.49847
 C171 C 0.85363 0.79325 0.48033
 C172 C 0.83922 0.80846 0.48022
 C173 C 0.83185 0.81589 0.49854
 C174 C 0.83885 0.80801 0.51684
 C175 C 0.83076 0.81508 0.53474
 C176 C 0.81625 0.82972 0.53474
 C177 C 0.80922 0.83785 0.51684
 C178 C 0.81701 0.83081 0.49854
 C179 C 0.83150 0.81592 0.46230
 C180 C 0.81698 0.83054 0.46231
 C181 C 0.80957 0.83825 0.48023
 C182 C 0.79442 0.85271 0.48037
 C183 C 0.78695 0.85946 0.49853
 C184 C 0.79409 0.85233 0.51668
 H185 H 0.83533 0.80913 0.54895
 H186 H 0.81037 0.83437 0.54896
 H187 H 0.83636 0.81031 0.44805
 H188 H 0.81139 0.83551 0.44808
 H189 H 0.87139 0.77401 0.49842
 H190 H 0.77534 0.87057 0.49853
 C191 C 0.12850 0.18529 0.48195
 C192 C 0.12046 0.19156 0.50003
 C193 C 0.12809 0.18530 0.51831
 C194 C 0.14442 0.17215 0.51861
 C195 C 0.15293 0.16575 0.50036
 C196 C 0.14494 0.17233 0.48196
 C197 C 0.15340 0.16553 0.46413
 C198 C 0.16979 0.15305 0.46430
 C199 C 0.17797 0.14634 0.48229
 C200 C 0.16939 0.15265 0.50051
 C201 C 0.15225 0.16495 0.53657
 C202 C 0.16858 0.15240 0.53672
 C203 C 0.17735 0.14602 0.51888
 C204 C 0.19405 0.13339 0.51891
 C205 C 0.20255 0.12763 0.50087
 C206 C 0.19471 0.13372 0.48262
 H207 H 0.14748 0.16979 0.44982
 H208 H 0.17599 0.14877 0.45011
 H209 H 0.14584 0.16890 0.55075
 H210 H 0.17426 0.14781 0.55103
 H211 H 0.10815 0.20189 0.49986
 H212 H 0.21531 0.11787 0.50103
 C213 C 0.13349 0.80901 0.51700
 C214 C 0.12542 0.80332 0.49871
 C215 C 0.13330 0.80984 0.48064
 C216 C 0.15002 0.82256 0.48076
 C217 C 0.15853 0.82844 0.49921
 C218 C 0.15023 0.82167 0.51740
 C219 C 0.15868 0.82803 0.53543
 C220 C 0.17525 0.84032 0.53567
 C221 C 0.18369 0.84729 0.51790
 C222 C 0.17525 0.84131 0.49947
 C223 C 0.15824 0.82983 0.46301
 C224 C 0.17486 0.84207 0.46327
 C225 C 0.18352 0.84812 0.48131
 C226 C 0.20040 0.86061 0.48170
 C227 C 0.20869 0.86610 0.49996
 C228 C 0.20051 0.85988 0.51801
 H229 H 0.15256 0.82359 0.54960
 H230 H 0.18140 0.84425 0.55001
 H231 H 0.15192 0.82620 0.44868
 H232 H 0.18083 0.84672 0.44910
 H233 H 0.11280 0.79332 0.49853
 H234 H 0.22148 0.87588 0.50014
 C235 C 0.79944 0.14250 0.48317
 C236 C 0.79109 0.13684 0.50133
 C237 C 0.79645 0.14590 0.51922
 C238 C 0.81073 0.16125 0.51917
 C239 C 0.81927 0.16739 0.50088
 C240 C 0.81358 0.15805 0.48279
 C241 C 0.82232 0.16437 0.46492
 C242 C 0.83571 0.18009 0.46465
 C243 C 0.84155 0.18957 0.48235
 C244 C 0.83344 0.18301 0.50068
 C245 C 0.81633 0.17091 0.53683
 C246 C 0.83034 0.18606 0.53665
 C247 C 0.83923 0.19223 0.51879
 C248 C 0.85334 0.20777 0.51846
 C249 C 0.86071 0.21444 0.50022
 C250 C 0.85500 0.20570 0.48223
 H251 H 0.81883 0.15734 0.45089
 H252 H 0.84146 0.18468 0.45038
 H253 H 0.80981 0.16694 0.55097
 H254 H 0.83387 0.19314 0.55066
 H255 H 0.78009 0.12507 0.50156
 H256 H 0.87135 0.22652 0.50003
 C257 C 0.51905 0.80550 0.86517
 C258 C 0.50151 0.79878 0.87390
 C259 C 0.48321 0.80761 0.86980
 C260 C 0.48232 0.82358 0.85618
 C261 C 0.49998 0.83029 0.84683
 C262 C 0.51844 0.82138 0.85152
 C263 C 0.53577 0.82852 0.84241
 C264 C 0.53509 0.84428 0.82913
 C265 C 0.51697 0.85311 0.82390
 C266 C 0.49923 0.84613 0.83294
 C267 C 0.46441 0.83339 0.85210
 C268 C 0.46365 0.84885 0.83846
 C269 C 0.48078 0.85519 0.82842
 C270 C 0.48011 0.87080 0.81442
 C271 C 0.49770 0.87742 0.80566
 C272 C 0.51608 0.86904 0.81026
 H273 H 0.55010 0.82203 0.84550
 H274 H 0.54900 0.84947 0.82308
 H275 H 0.45080 0.82937 0.85956
 H276 H 0.44949 0.85596 0.83610
 H277 H 0.50216 0.78654 0.88433
 H278 H 0.49705 0.88932 0.79483
 C279 C 0.51621 0.14133 0.19956
 C280 C 0.49791 0.13558 0.20747
 C281 C 0.48017 0.14439 0.20146
 C282 C 0.48052 0.15961 0.18706
 C283 C 0.49894 0.16575 0.17888
 C284 C 0.51687 0.15661 0.18513
 C285 C 0.53485 0.16285 0.17664
 C286 C 0.53537 0.17828 0.16293
 C287 C 0.51785 0.18763 0.15662
 C288 C 0.49942 0.18118 0.16451
 C289 C 0.46304 0.16916 0.18099
 C290 C 0.46351 0.18421 0.16687
 C291 C 0.48150 0.19035 0.15832
 C292 C 0.48213 0.20583 0.14415
 C293 C 0.50045 0.21229 0.13691
 C294 C 0.51824 0.20351 0.14291
 H295 H 0.54876 0.15595 0.18055
 H296 H 0.54971 0.18280 0.15734
 H297 H 0.44880 0.16522 0.18724
 H298 H 0.44962 0.19120 0.16297
 H299 H 0.49744 0.12396 0.21860
 H300 H 0.50088 0.22427 0.12616
 C301 C 0.48392 0.19570 0.86437
 C302 C 0.50274 0.20229 0.87017
 C303 C 0.52002 0.19425 0.86213
 C304 C 0.51867 0.17899 0.84780
 C305 C 0.49972 0.17248 0.84126
 C306 C 0.48225 0.18081 0.84959
 C307 C 0.46369 0.17380 0.84313
 C308 C 0.46223 0.15959 0.82819
 C309 C 0.47930 0.15130 0.81961
 C310 C 0.49824 0.15761 0.82635
 C311 C 0.53572 0.17020 0.83974
 C312 C 0.53426 0.15529 0.82551
 C313 C 0.51571 0.14909 0.81822
 C314 C 0.51405 0.13438 0.80326
 C315 C 0.49524 0.12876 0.79646
 C316 C 0.47795 0.13696 0.80434
 H317 H 0.45003 0.17925 0.84949
 H318 H 0.44754 0.15512 0.82349
 H319 H 0.55041 0.17470 0.84444
 H320 H 0.54791 0.14875 0.82027
 H321 H 0.50398 0.21396 0.88122
 H322 H 0.49401 0.11773 0.78477
 C323 C 0.51715 0.86168 0.19642
 C324 C 0.49874 0.86798 0.20355
 C325 C 0.48099 0.85967 0.19677
 C326 C 0.48147 0.84461 0.18216
 C327 C 0.50003 0.83757 0.17516
 C328 C 0.51796 0.84610 0.18233
 C329 C 0.53612 0.83902 0.17499
 C330 C 0.53674 0.82339 0.16150
 C331 C 0.51922 0.81475 0.15419
 C332 C 0.50065 0.82200 0.16093
 C333 C 0.46393 0.83633 0.17447
 C334 C 0.46454 0.82149 0.16009
 C335 C 0.48271 0.81380 0.15341
 C336 C 0.48352 0.79836 0.13915
 C337 C 0.50197 0.79104 0.13316
 C338 C 0.51972 0.79892 0.14042
 H339 H 0.55008 0.84539 0.17966
 H340 H 0.55117 0.81824 0.15678
 H341 H 0.44953 0.84134 0.17940
 H342 H 0.45056 0.81610 0.15437
 H343 H 0.49819 0.87966 0.21465
 H344 H 0.50253 0.77903 0.12244
 C345 C 0.80210 0.51672 0.86249
 C346 C 0.79432 0.49849 0.86858
 C347 C 0.80292 0.48056 0.86282
 C348 C 0.81969 0.48069 0.85021
 C349 C 0.82758 0.49904 0.84357
 C350 C 0.81886 0.51713 0.84983
 C351 C 0.82692 0.53510 0.84301
 C352 C 0.84339 0.53537 0.83058
 C353 C 0.85208 0.51767 0.82392
 C354 C 0.84416 0.49930 0.83054
 C355 C 0.82858 0.46298 0.84382
 C356 C 0.84503 0.46323 0.83137
 C357 C 0.85288 0.48118 0.82428
 C358 C 0.86943 0.48157 0.81137
 C359 C 0.87699 0.49979 0.80506
 C360 C 0.86868 0.51778 0.81107
 H361 H 0.82056 0.54920 0.84717
 H362 H 0.84921 0.54966 0.82626
 H363 H 0.82291 0.44869 0.84836
 H364 H 0.85151 0.44915 0.82739
 H365 H 0.78154 0.49826 0.87836
 H366 H 0.88949 0.49998 0.79491
 C367 C 0.14344 0.48150 0.20713
 C368 C 0.13611 0.49970 0.21378
 C369 C 0.14162 0.51755 0.20479
 C370 C 0.15485 0.51733 0.18847
 C371 C 0.16293 0.49905 0.18193
 C372 C 0.15733 0.48108 0.19138
 C373 C 0.16618 0.46327 0.18521
 C374 C 0.17996 0.46300 0.16984
 C375 C 0.18538 0.48052 0.15999
 C376 C 0.17688 0.49876 0.16611
 C377 C 0.16049 0.53489 0.17876
 C378 C 0.17369 0.53454 0.16286
 C379 C 0.18240 0.51672 0.15655
 C380 C 0.19636 0.51625 0.14083
 C381 C 0.20467 0.49813 0.13518
 C382 C 0.19945 0.48039 0.14445
 H383 H 0.16280 0.44936 0.19244
 H384 H 0.18644 0.44890 0.16585
 H385 H 0.15475 0.54913 0.18332
 H386 H 0.17704 0.54846 0.15567
 H387 H 0.12563 0.49996 0.22601
 H388 H 0.21555 0.49782 0.12330
 C389 C 0.81453 0.51658 0.12464
 C390 C 0.80721 0.49836 0.11798
 C391 C 0.81491 0.48036 0.12473
 C392 C 0.83026 0.48049 0.13911
 C393 C 0.83754 0.49887 0.14648
 C394 C 0.82988 0.51699 0.13899
 C395 C 0.83829 0.53493 0.14547
 C396 C 0.85335 0.53520 0.15962
 C397 C 0.86062 0.51753 0.16786
 C398 C 0.85292 0.49915 0.16095
 C399 C 0.83906 0.46283 0.14574
 C400 C 0.85406 0.46310 0.15996
 C401 C 0.86093 0.48104 0.16807
 C402 C 0.87614 0.48145 0.18258
 C403 C 0.88322 0.49968 0.18948
 C404 C 0.87591 0.51766 0.18229
 H405 H 0.83353 0.54900 0.13948
 H406 H 0.85942 0.54945 0.16380
 H407 H 0.83465 0.44859 0.13981
 H408 H 0.86041 0.44905 0.16427
 H409 H 0.79524 0.49819 0.10718
 H410 H 0.89470 0.49988 0.20081
 C411 C 0.14744 0.48147 0.79137
 C412 C 0.13993 0.49926 0.78387
 C413 C 0.14626 0.51763 0.79113
 C414 C 0.16073 0.51837 0.80639
 C415 C 0.16858 0.50044 0.81415
 C416 C 0.16196 0.48192 0.80658
 C417 C 0.17052 0.46442 0.81392
 C418 C 0.18513 0.46501 0.82856
 C419 C 0.19174 0.48314 0.83649
 C420 C 0.18347 0.50105 0.82913
 C421 C 0.16807 0.53652 0.81359
 C422 C 0.18261 0.53711 0.82828
 C423 C 0.19046 0.51959 0.83631
 C424 C 0.20562 0.52008 0.85084
 C425 C 0.21357 0.50233 0.85793
 C426 C 0.20690 0.48392 0.85107
 H427 H 0.16626 0.45005 0.80817
 H428 H 0.19142 0.45109 0.83336
 H429 H 0.16286 0.55049 0.80773
 H430 H 0.18787 0.55151 0.83306
 H431 H 0.12880 0.49879 0.77221
 H432 H 0.22517 0.50287 0.86912
 C433 C 0.27367 0.37936 0.06857
 C434 C 0.29374 0.38366 0.06494
 C435 C 0.30442 0.37293 0.05084
 C436 C 0.29538 0.35747 0.04015
 C437 C 0.27544 0.35280 0.04405
 C438 C 0.26465 0.36373 0.05804
 C439 C 0.26220 0.39169 0.08269
 N440 N 0.24208 0.39075 0.08333
 N441 N 0.23182 0.40286 0.09512
 C442 C 0.24127 0.41634 0.10683
 N443 N 0.26138 0.41701 0.10641
 N444 N 0.27162 0.40497 0.09460
 C445 C 0.23001 0.43106 0.11865
 C446 C 0.24017 0.44487 0.13062
 C447 C 0.22998 0.46033 0.13982
 C448 C 0.20944 0.46221 0.13740
 C449 C 0.19906 0.44802 0.12623
 C450 C 0.20925 0.43250 0.11698
 H451 H 0.30117 0.39562 0.07272
 H452 H 0.31980 0.37680 0.04828
 H453 H 0.26809 0.34096 0.03604
 H454 H 0.24923 0.36000 0.06052
 H455 H 0.25612 0.44419 0.13234
 H456 H 0.23822 0.47125 0.14829
 H457 H 0.18321 0.44943 0.12405
 H458 H 0.20097 0.42213 0.10789
 C459 C 0.73287 0.61971 0.05946
 C460 C 0.71732 0.61207 0.04786
 C461 C 0.70517 0.62470 0.03693
 C462 C 0.70857 0.64523 0.03701
 C463 C 0.72386 0.65297 0.04897
 C464 C 0.73578 0.64030 0.06033
 C465 C 0.74652 0.60596 0.06956
 N466 N 0.75534 0.61076 0.08711
 N467 N 0.76748 0.59799 0.09610
 C468 C 0.77146 0.58012 0.08768
 N469 N 0.76275 0.57547 0.07008
 N470 N 0.75047 0.58809 0.06125
 C471 C 0.78447 0.56557 0.09751
 C472 C 0.79497 0.55184 0.08591
 C473 C 0.80561 0.53661 0.09491
 C474 C 0.80578 0.53463 0.11567
 C475 C 0.79575 0.54865 0.12737
 C476 C 0.78537 0.56419 0.11834
 H477 H 0.71468 0.59625 0.04706
 H478 H 0.69357 0.61829 0.02779
 H479 H 0.72677 0.66875 0.04931
 H480 H 0.74773 0.64650 0.06914
 H481 H 0.79461 0.55265 0.06983
 H482 H 0.81319 0.52592 0.08562
 H483 H 0.79540 0.54715 0.14340
 H484 H 0.77725 0.57451 0.12759
 C485 C 0.73287 0.37011 0.93089
 C486 C 0.71214 0.37163 0.93221
 C487 C 0.70151 0.35968 0.94534
 C488 C 0.71130 0.34573 0.95730
 C489 C 0.73192 0.34352 0.95538
 C490 C 0.74263 0.35570 0.94239
 C491 C 0.74417 0.38431 0.91845
 N492 N 0.76412 0.38631 0.92048
 N493 N 0.77396 0.40017 0.91039
 C494 C 0.76426 0.41258 0.89780
 N495 N 0.74438 0.41035 0.89555
 N496 N 0.73455 0.39654 0.90567
 C497 C 0.77483 0.42897 0.88761
 C498 C 0.76473 0.44108 0.87393
 C499 C 0.77411 0.45749 0.86548
 C500 C 0.79378 0.46208 0.87043
 C501 C 0.80407 0.44989 0.88379
 C502 C 0.79472 0.43340 0.89223
 H503 H 0.70412 0.38253 0.92358
 H504 H 0.68560 0.36163 0.94640
 H505 H 0.73984 0.33291 0.96445
 H506 H 0.75858 0.35409 0.94164
 H507 H 0.74943 0.43813 0.87001
 H508 H 0.76591 0.46684 0.85530
 H509 H 0.81918 0.45340 0.88799
 H510 H 0.80290 0.42445 0.90276
 C511 C 0.27289 0.62629 0.92728
 C512 C 0.29352 0.62420 0.92941
 C513 C 0.30380 0.63487 0.94390
 C514 C 0.29379 0.64811 0.95646
 C515 C 0.27331 0.65089 0.95385
 C516 C 0.26292 0.63997 0.93948
 C517 C 0.26192 0.61336 0.91320
 N518 N 0.24187 0.61154 0.91416
 N519 N 0.23231 0.59861 0.90257
 C520 C 0.24240 0.58701 0.88952
 N521 N 0.26238 0.58913 0.88835
 N522 N 0.27193 0.60199 0.89993
 C523 C 0.23219 0.57133 0.87788
 C524 C 0.24305 0.55934 0.86469
 C525 C 0.23411 0.54316 0.85533
 C526 C 0.21412 0.53871 0.85880
 C527 C 0.20298 0.55099 0.87136
 C528 C 0.21192 0.56722 0.88079
 H529 H 0.30170 0.61383 0.92029
 H530 H 0.31961 0.63252 0.94546
 H531 H 0.26523 0.66099 0.96337
 H532 H 0.24705 0.64198 0.93816
 H533 H 0.25864 0.56206 0.86203
 H534 H 0.24293 0.53375 0.84575
 H535 H 0.18756 0.54761 0.87435
 H536 H 0.20313 0.57612 0.89085
 C537 C 0.05729 0.26342 0.38041
 C538 C 0.05965 0.26281 0.35967
 C539 C 0.04831 0.27518 0.34745
 C540 C 0.03489 0.28870 0.35585
 C541 C 0.03304 0.28969 0.37661
 C542 C 0.04395 0.27701 0.38875
 C543 C 0.06817 0.24968 0.39345
 N544 N 0.05965 0.24308 0.41047
 N545 N 0.06944 0.23102 0.42262
 C546 C 0.08820 0.22520 0.41835
 N547 N 0.09677 0.23178 0.40130
 N548 N 0.08687 0.24369 0.38899
 C549 C 0.09920 0.21282 0.43264
 C550 C 0.11983 0.21481 0.43484
 C551 C 0.12967 0.20517 0.45040
 C552 C 0.11908 0.19300 0.46360
 C553 C 0.09865 0.19025 0.46072
 C554 C 0.08878 0.20014 0.44547
 H555 H 0.06983 0.25240 0.35292
 H556 H 0.05000 0.27418 0.33146
 H557 H 0.02271 0.29989 0.38345
 H558 H 0.04196 0.27784 0.40472
 H559 H 0.12815 0.22465 0.42525
 H560 H 0.14536 0.20780 0.45263
 H561 H 0.09021 0.18103 0.47083
 H562 H 0.07289 0.19828 0.44402
 C563 C 0.05892 0.73209 0.61749
 C564 C 0.04533 0.71870 0.60907
 C565 C 0.03392 0.70639 0.62117
 C566 C 0.03551 0.70755 0.64195
 C567 C 0.04915 0.72089 0.65043
 C568 C 0.06099 0.73287 0.63826
 C569 C 0.07038 0.74543 0.60447
 N570 N 0.08916 0.75108 0.60921
 N571 N 0.09954 0.76266 0.59697
 C572 C 0.09140 0.76927 0.57970
 N573 N 0.07257 0.76377 0.57514
 N574 N 0.06231 0.75202 0.58722
 C575 C 0.10288 0.78145 0.56557
 C576 C 0.09293 0.79441 0.55267
 C577 C 0.10323 0.80428 0.53768
 C578 C 0.12364 0.80122 0.53511
 C579 C 0.13376 0.78871 0.54836
 C580 C 0.12349 0.77910 0.56367
 H581 H 0.04355 0.71773 0.59308
 H582 H 0.02345 0.69632 0.61426
 H583 H 0.05065 0.72202 0.66643
 H584 H 0.07133 0.74313 0.64508
 H585 H 0.07707 0.79656 0.55388
 H586 H 0.09513 0.81376 0.52755
 H587 H 0.14942 0.78581 0.54637
 H588 H 0.13146 0.76905 0.57333
 C589 C 0.92789 0.72652 0.37179
 C590 C 0.93863 0.73686 0.35717
 C591 C 0.95248 0.72699 0.34526
 C592 C 0.95603 0.70666 0.34792
 C593 C 0.94488 0.69625 0.36211
 C594 C 0.93090 0.70602 0.37381
 C595 C 0.91446 0.73707 0.38565
 N596 N 0.90259 0.72672 0.39822
 N597 N 0.89154 0.73601 0.41168
 C598 C 0.89189 0.75607 0.41323
 N599 N 0.90357 0.76646 0.40049
 N600 N 0.91461 0.75716 0.38696
 C601 C 0.88069 0.76616 0.42927
 C602 C 0.88318 0.78656 0.43290
 C603 C 0.87391 0.79558 0.44917
 C604 C 0.86186 0.78441 0.46194
 C605 C 0.85894 0.76421 0.45807
 C606 C 0.86820 0.75518 0.44189
 H607 H 0.93659 0.75264 0.35516
 H608 H 0.96089 0.73541 0.33446
 H609 H 0.94719 0.68054 0.36443
 H610 H 0.92290 0.69757 0.38489
 H611 H 0.89273 0.79545 0.42353
 H612 H 0.87652 0.81115 0.45210
 H613 H 0.84977 0.75534 0.46786
 H614 H 0.86589 0.73947 0.43954
 C615 C 0.92752 0.27634 0.62631
 C616 C 0.93123 0.29669 0.62385
 C617 C 0.94544 0.30633 0.63549
 C618 C 0.95616 0.29592 0.65002
 C619 C 0.95190 0.27577 0.65311
 C620 C 0.93778 0.26605 0.64130
 C621 C 0.91387 0.26585 0.61253
 N622 N 0.91299 0.24574 0.61212
 N623 N 0.90183 0.23636 0.59869
 C624 C 0.89104 0.24669 0.58514
 N625 N 0.89170 0.26678 0.58577
 N626 N 0.90288 0.27615 0.59914
 C627 C 0.87980 0.23636 0.56920
 C628 C 0.86845 0.24726 0.55547
 C629 C 0.85929 0.23783 0.53939
 C630 C 0.86116 0.21731 0.53675
 C631 C 0.87205 0.20629 0.55066
 C632 C 0.88120 0.21570 0.56680
 H633 H 0.92359 0.30512 0.61250
 H634 H 0.94829 0.32189 0.63283
 H635 H 0.95995 0.26736 0.66419
 H636 H 0.93521 0.25039 0.64366
 H637 H 0.86701 0.26317 0.55685
 H638 H 0.85105 0.24659 0.52873
 H639 H 0.87390 0.19047 0.54869
 H640 H 0.88985 0.20686 0.57703
 C641 C 0.37406 0.07038 0.27123
 C642 C 0.35866 0.06027 0.26136
 C643 C 0.34704 0.04634 0.27150
 C644 C 0.35078 0.04211 0.29162
 C645 C 0.36589 0.05252 0.30155
 C646 C 0.37731 0.06655 0.29152
 C647 C 0.38734 0.08416 0.26040
 N648 N 0.40060 0.09551 0.27051
 N649 N 0.41352 0.10690 0.26087
 C650 C 0.41381 0.10743 0.24069
 N651 N 0.40036 0.09628 0.23054
 N652 N 0.38737 0.08491 0.24020
 C653 C 0.42940 0.11881 0.23013
 C654 C 0.43163 0.11729 0.20937
 C655 C 0.44771 0.12632 0.19983
 C656 C 0.46170 0.13714 0.21087
 C657 C 0.45913 0.13927 0.23144
 C658 C 0.44312 0.13027 0.24097
 H659 H 0.35573 0.06293 0.24576
 H660 H 0.33549 0.03854 0.26347
 H661 H 0.36904 0.04969 0.31708
 H662 H 0.38903 0.07404 0.29960
 H663 H 0.42137 0.10857 0.20057
 H664 H 0.44963 0.12434 0.18397
 H665 H 0.46988 0.14748 0.24018
 H666 H 0.44185 0.13184 0.25695
 C667 C 0.61556 0.06119 0.72555
 C668 C 0.60778 0.04915 0.71040
 C669 C 0.62028 0.03772 0.69859
 C670 C 0.64084 0.03770 0.70192
 C671 C 0.64873 0.04992 0.71693
 C672 C 0.63619 0.06180 0.72850
 C673 C 0.60191 0.07230 0.73855
 N674 N 0.60701 0.09018 0.74637
 N675 N 0.59424 0.10021 0.75767
 C676 C 0.57603 0.09260 0.76178
 N677 N 0.57107 0.07467 0.75410
 N678 N 0.58370 0.06477 0.74265
 C679 C 0.56150 0.10363 0.77390
 C680 C 0.54708 0.09322 0.78475
 C681 C 0.53225 0.10337 0.79495
 C682 C 0.53136 0.12412 0.79434
 C683 C 0.54588 0.13461 0.78367
 C684 C 0.56103 0.12444 0.77377
 H685 H 0.59194 0.04851 0.70774
 H686 H 0.61374 0.02836 0.68723
 H687 H 0.66454 0.05016 0.71980
 H688 H 0.64252 0.07093 0.74015
 H689 H 0.54714 0.07718 0.78516
 H690 H 0.52112 0.09499 0.80298
 H691 H 0.54519 0.15060 0.78262
 H692 H 0.57185 0.13279 0.76532
 C693 C 0.37472 0.94105 0.74112
 C694 C 0.38263 0.95354 0.72646
 C695 C 0.37016 0.96410 0.71382
 C696 C 0.34948 0.96274 0.71583
 C697 C 0.34149 0.95009 0.73036
 C698 C 0.35405 0.93909 0.74276
 C699 C 0.38826 0.93068 0.75482
 N700 N 0.38382 0.91245 0.76216
 N701 N 0.39670 0.90291 0.77376
 C702 C 0.41435 0.91138 0.77869
 N703 N 0.41858 0.92970 0.77157
 N704 N 0.40584 0.93912 0.75983
 C705 C 0.42938 0.90060 0.79041
 C706 C 0.44415 0.91122 0.80064
 C707 C 0.46001 0.90134 0.80947
 C708 C 0.46150 0.88066 0.80814
 C709 C 0.44636 0.86991 0.79861
 C710 C 0.43028 0.87980 0.79000
 H711 H 0.39852 0.95518 0.72478
 H712 H 0.37674 0.97383 0.70285
 H713 H 0.32559 0.94880 0.73220
 H714 H 0.34763 0.92955 0.75399
 H715 H 0.44376 0.92724 0.80130
 H716 H 0.47157 0.90989 0.81670
 H717 H 0.44743 0.85397 0.79713
 H718 H 0.41917 0.87128 0.78208
 C719 C 0.61855 0.93911 0.26990
 C720 C 0.61023 0.95192 0.28403
 C721 C 0.62233 0.96356 0.29614
 C722 C 0.64303 0.96301 0.29408
 C723 C 0.65145 0.95017 0.27997
 C724 C 0.63928 0.93806 0.26815
 C725 C 0.60536 0.92742 0.25686
 N726 N 0.61036 0.90892 0.25068
 N727 N 0.59783 0.89824 0.23962
 C728 C 0.57998 0.90579 0.23412
 N729 N 0.57516 0.92436 0.24012
 N730 N 0.58754 0.93491 0.25133
 C731 C 0.56552 0.89397 0.22259
 C732 C 0.55129 0.90362 0.21084
 C733 C 0.53621 0.89287 0.20157
 C734 C 0.53492 0.87228 0.20398
 C735 C 0.54938 0.86248 0.21535
 C736 C 0.56475 0.87323 0.22437
 H737 H 0.59429 0.95291 0.28577
 H738 H 0.61544 0.97343 0.30679
 H739 H 0.66739 0.94948 0.27812
 H740 H 0.64601 0.92832 0.25729
 H741 H 0.55158 0.91957 0.20914
 H742 H 0.52513 0.90071 0.19297
 H743 H 0.54840 0.84665 0.21773
 H744 H 0.57543 0.86546 0.23351
 C745 C 0.38399 0.27549 0.93735
 C746 C 0.39193 0.28993 0.95013
 C747 C 0.37949 0.30175 0.96165
 C748 C 0.35884 0.29911 0.96097
 C749 C 0.35083 0.28484 0.94800
 C750 C 0.36331 0.27328 0.93607
 C751 C 0.39746 0.26239 0.92614
 N752 N 0.39229 0.25485 0.90810
 N753 N 0.40479 0.24326 0.89807
 C754 C 0.42278 0.23855 0.90585
 N755 N 0.42783 0.24597 0.92393
 N756 N 0.41547 0.25771 0.93383
 C757 C 0.43698 0.22602 0.89488
 C758 C 0.45097 0.21478 0.90541
 C759 C 0.46557 0.20419 0.89532
 C760 C 0.46665 0.20480 0.87450
 C761 C 0.45249 0.21579 0.86387
 C762 C 0.43757 0.22609 0.87398
 H763 H 0.40782 0.29203 0.95130
 H764 H 0.38610 0.31256 0.97158
 H765 H 0.33495 0.28253 0.94719
 H766 H 0.35685 0.26219 0.92636
 H767 H 0.45080 0.21438 0.92152
 H768 H 0.47642 0.19593 0.90381
 H769 H 0.45333 0.21682 0.84782
 H770 H 0.42706 0.23481 0.86553
 C771 C 0.62638 0.73053 0.93126
 C772 C 0.62272 0.71024 0.93420
 C773 C 0.63412 0.69938 0.94761
 C774 C 0.64961 0.70846 0.95823
 C775 C 0.65378 0.72857 0.95482
 C776 C 0.64218 0.73954 0.94154
 C777 C 0.61303 0.74228 0.91836
 N778 N 0.61321 0.76240 0.91894
 N779 N 0.60005 0.77284 0.90852
 C780 C 0.58623 0.76360 0.89706
 N781 N 0.58632 0.74351 0.89622
 N782 N 0.59941 0.73308 0.90665
 C783 C 0.57040 0.77498 0.88692
 C784 C 0.55644 0.76517 0.87483
 C785 C 0.54020 0.77535 0.86708
 C786 C 0.53765 0.79554 0.87114
 C787 C 0.55185 0.80559 0.88261
 C788 C 0.56817 0.79542 0.89036
 H789 H 0.61068 0.70282 0.92655
 H790 H 0.63065 0.68386 0.94981
 H791 H 0.66564 0.73594 0.96281
 H792 H 0.64542 0.75513 0.93954
 H793 H 0.55772 0.74946 0.87182
 H794 H 0.52928 0.76736 0.85836
 H795 H 0.54994 0.82114 0.88609
 H796 H 0.57860 0.80342 0.89964
 C797 C 0.38007 0.72102 0.06788
 C798 C 0.35968 0.72520 0.06753
 C799 C 0.34696 0.71449 0.05497
 C800 C 0.35441 0.69913 0.04298
 C801 C 0.37465 0.69439 0.04416
 C802 C 0.38735 0.70534 0.05631
 C803 C 0.39410 0.73358 0.07910
 N804 N 0.41258 0.73676 0.07181
 N805 N 0.42542 0.74819 0.08154
 C806 C 0.42039 0.75678 0.09906
 N807 N 0.40193 0.75354 0.10648
 N808 N 0.38895 0.74227 0.09659
 C809 C 0.43504 0.76911 0.10973
 C810 C 0.43588 0.76939 0.13061
 C811 C 0.45132 0.77937 0.14040
 C812 C 0.46574 0.78968 0.12942
 C813 C 0.46438 0.79000 0.10860
 C814 C 0.44928 0.77972 0.09885
 H815 H 0.35374 0.73728 0.07629
 H816 H 0.33142 0.71844 0.05434
 H817 H 0.38086 0.68272 0.03505
 H818 H 0.40300 0.70173 0.05642
 H819 H 0.42516 0.76115 0.13930
 H820 H 0.45235 0.77858 0.15645
 H821 H 0.47541 0.79776 0.09986
 H822 H 0.44892 0.77982 0.08275
 C823 C 0.62659 0.26995 0.06846
 C824 C 0.64178 0.25983 0.05841
 C825 C 0.65404 0.26983 0.04495
 C826 C 0.65114 0.29007 0.04106
 C827 C 0.63622 0.30025 0.05140
 C828 C 0.62418 0.29034 0.06504
 C829 C 0.61271 0.25930 0.08177
 N830 N 0.60036 0.26953 0.09393
 N831 N 0.58700 0.26014 0.10503
 C832 C 0.58534 0.24010 0.10441
 N833 N 0.59783 0.22981 0.09240
 N834 N 0.61127 0.23921 0.08134
 C835 C 0.56944 0.22993 0.11571
 C836 C 0.56478 0.20992 0.11205
 C837 C 0.54851 0.20102 0.12139
 C838 C 0.53681 0.21191 0.13471
 C839 C 0.54177 0.23166 0.13883
 C840 C 0.55793 0.24058 0.12947
 H841 H 0.64407 0.24413 0.06079
 H842 H 0.66540 0.26159 0.03715
 H843 H 0.63370 0.31587 0.04880
 H844 H 0.61262 0.29860 0.07249
 H845 H 0.57328 0.20132 0.10149
 H846 H 0.54470 0.18583 0.11783
 H847 H 0.53280 0.24031 0.14897
 H848 H 0.56111 0.25598 0.13270
 C849 C 0.26472 0.06406 0.62799
 C850 C 0.25511 0.05333 0.64311
 C851 C 0.26586 0.04052 0.65541
 C852 C 0.28634 0.03802 0.65262
 C853 C 0.29597 0.04903 0.63777
 C854 C 0.28531 0.06198 0.62570
 C855 C 0.25339 0.07667 0.61404
 N856 N 0.26301 0.08920 0.60155
 N857 N 0.25307 0.09960 0.58803
 C858 C 0.23308 0.09788 0.58635
 N859 N 0.22340 0.08552 0.59900
 N860 N 0.23334 0.07515 0.61260
 C861 C 0.22238 0.10832 0.57024
 C862 C 0.20242 0.10387 0.56599
 C863 C 0.19297 0.11244 0.54960
 C864 C 0.20323 0.12578 0.53737
 C865 C 0.22295 0.13063 0.54184
 C866 C 0.23243 0.12204 0.55813
 H867 H 0.23927 0.05467 0.64529
 H868 H 0.25807 0.03220 0.66674
 H869 H 0.31177 0.04751 0.63536
 H870 H 0.29319 0.06999 0.61420
 H871 H 0.19428 0.09331 0.57494
 H872 H 0.17781 0.10833 0.54617
 H873 H 0.23111 0.14081 0.53245
 H874 H 0.24777 0.12585 0.56098
 C875 C 0.72711 0.06425 0.38171
 C876 C 0.73223 0.06152 0.36168
 C877 C 0.72094 0.04893 0.34954
 C878 C 0.70399 0.03927 0.35710
 C879 C 0.69852 0.04282 0.37700
 C880 C 0.71012 0.05491 0.38920
 C881 C 0.73978 0.07603 0.39515
 N882 N 0.74239 0.07014 0.41425
 N883 N 0.75365 0.08065 0.42664
 C884 C 0.76258 0.09760 0.42051
 N885 N 0.75993 0.10359 0.40140
 N886 N 0.74885 0.09290 0.38889
 C887 C 0.77432 0.10942 0.43476
 C888 C 0.77386 0.13022 0.43435
 C889 C 0.78274 0.14120 0.44967
 C890 C 0.79272 0.13153 0.46523
 C891 C 0.79400 0.11078 0.46500
 C892 C 0.78477 0.09983 0.45001
 H893 H 0.74533 0.06857 0.35561
 H894 H 0.72559 0.04670 0.33429
 H895 H 0.68560 0.03577 0.38344
 H896 H 0.70581 0.05693 0.40459
 H897 H 0.76572 0.13793 0.42283
 H898 H 0.78118 0.15717 0.44980
 H899 H 0.80150 0.10301 0.47692
 H900 H 0.78540 0.08381 0.45060
 C901 C 0.72338 0.92957 0.61994
 C902 C 0.73286 0.93998 0.63541
 C903 C 0.72238 0.95382 0.64680
 C904 C 0.70231 0.95770 0.64277
 C905 C 0.69281 0.94710 0.62749
 C906 C 0.70317 0.93313 0.61630
 C907 C 0.73450 0.91562 0.60709
 N908 N 0.72467 0.90353 0.59428
 N909 N 0.73452 0.89182 0.58183
 C910 C 0.75465 0.89169 0.58159
 N911 N 0.76452 0.90362 0.59457
 N912 N 0.75465 0.91531 0.60710
 C913 C 0.76542 0.87979 0.56652
 C914 C 0.78599 0.88206 0.56376
 C915 C 0.79559 0.87243 0.54804
 C916 C 0.78482 0.86026 0.53498
 C917 C 0.76449 0.85737 0.53816
 C918 C 0.75489 0.86698 0.55379
 H919 H 0.74840 0.93754 0.63863
 H920 H 0.73010 0.96179 0.65848
 H921 H 0.67732 0.94966 0.62409
 H922 H 0.69540 0.92543 0.60450
 H923 H 0.79454 0.89183 0.57326
 H924 H 0.81126 0.87501 0.54563
 H925 H 0.75594 0.84811 0.52814
 H926 H 0.73908 0.86478 0.55551
 C927 C 0.27162 0.93156 0.37373
 C928 C 0.29212 0.93431 0.37633
 C929 C 0.30256 0.94763 0.36440
 C930 C 0.29280 0.95833 0.34941
 C931 C 0.27246 0.95506 0.34625
 C932 C 0.26193 0.94189 0.35839
 C933 C 0.26039 0.91877 0.38764
 N934 N 0.24029 0.91968 0.38864
 N935 N 0.23036 0.90918 0.40214
 C936 C 0.24011 0.89728 0.41517
 N937 N 0.26017 0.89616 0.41395
 N938 N 0.27009 0.90670 0.40051
 C939 C 0.22932 0.88662 0.43111
 C940 C 0.23935 0.87301 0.44333
 C941 C 0.22970 0.86411 0.45937
 C942 C 0.20983 0.86855 0.46348
 C943 C 0.19964 0.88186 0.45115
 C944 C 0.20925 0.89070 0.43501
 H945 H 0.30007 0.92662 0.38799
 H946 H 0.31825 0.94975 0.36711
 H947 H 0.26455 0.96314 0.33482
 H948 H 0.24617 0.94003 0.35594
 H949 H 0.25479 0.86949 0.44075
 H950 H 0.23784 0.85399 0.46883
 H951 H 0.18438 0.88571 0.45431
 H952 H 0.20112 0.90119 0.42597
 C953 C 0.07412 0.37257 0.72427
 C954 C 0.06324 0.35810 0.73464
 C955 C 0.04921 0.34635 0.72473
 C956 C 0.04565 0.34902 0.70431
 C957 C 0.05697 0.36302 0.69385
 C958 C 0.07111 0.37457 0.70367
 C959 C 0.08768 0.38634 0.73488
 N960 N 0.09949 0.39893 0.72451
 N961 N 0.11059 0.41236 0.73387
 C962 C 0.11033 0.41384 0.75401
 N963 N 0.09873 0.40106 0.76442
 N964 N 0.08765 0.38757 0.75505
 C965 C 0.12147 0.42992 0.76417
 C966 C 0.11923 0.43331 0.78471
 C967 C 0.12826 0.44969 0.79378
 C968 C 0.13979 0.46285 0.78251
 C969 C 0.14254 0.45918 0.76218
 C970 C 0.13354 0.44287 0.75310
 H971 H 0.06526 0.35612 0.75049
 H972 H 0.04068 0.33569 0.73318
 H973 H 0.05465 0.36534 0.67808
 H974 H 0.07923 0.38553 0.69518
 H975 H 0.11002 0.42368 0.79366
 H976 H 0.12579 0.45245 0.80945
 H977 H 0.15131 0.46926 0.75324
 H978 H 0.13565 0.44072 0.73729
 C979 C 0.07077 0.62772 0.27224
 C980 C 0.05984 0.64223 0.26203
 C981 C 0.04653 0.65443 0.27226
 C982 C 0.04371 0.65216 0.29284
 C983 C 0.05512 0.63811 0.30312
 C984 C 0.06858 0.62613 0.29297
 C985 C 0.08352 0.61352 0.26135
 N986 N 0.09609 0.60143 0.27140
 N987 N 0.10653 0.58768 0.26187
 C988 C 0.10481 0.58532 0.24188
 N989 N 0.09240 0.59756 0.23177
 N990 N 0.08200 0.61139 0.24130
 C991 C 0.11541 0.56902 0.23163
 C992 C 0.11092 0.56401 0.21180
 C993 C 0.11979 0.54756 0.20280
 C994 C 0.13348 0.53602 0.21339
 C995 C 0.13830 0.54123 0.23299
 C996 C 0.12940 0.55757 0.24202
 H997 H 0.06126 0.64391 0.24609
 H998 H 0.03789 0.66510 0.26394
 H999 H 0.05334 0.63609 0.31900
 H1000 H 0.07677 0.61514 0.30132
 H1001 H 0.10014 0.57244 0.20340
 H1002 H 0.11570 0.54356 0.18773
 H1003 H 0.14873 0.53239 0.24143
 H1004 H 0.13325 0.56100 0.25728
 C1005 C 0.94273 0.37952 0.26451
 C1006 C 0.94058 0.35887 0.26309
 C1007 C 0.95140 0.34640 0.27570
 C1008 C 0.96408 0.35445 0.29024
 C1009 C 0.96562 0.37511 0.29206
 C1010 C 0.95523 0.38750 0.27918
 C1011 C 0.93263 0.39288 0.25044
 N1012 N 0.94130 0.41025 0.24520
 N1013 N 0.93230 0.42261 0.23275
 C1014 C 0.91417 0.41820 0.22515
 N1015 N 0.90543 0.40081 0.23038
 N1016 N 0.91457 0.38830 0.24269
 C1017 C 0.90403 0.43261 0.21218
 C1018 C 0.88325 0.43412 0.21206
 C1019 C 0.87397 0.44958 0.20178
 C1020 C 0.88533 0.46339 0.19108
 C1021 C 0.90600 0.46125 0.19045
 C1022 C 0.91527 0.44609 0.20098
 H1023 H 0.93105 0.35239 0.25185
 H1024 H 0.94995 0.33050 0.27403
 H1025 H 0.97537 0.38171 0.30305
 H1026 H 0.95703 0.40339 0.28068
 H1027 H 0.87427 0.42400 0.22072
 H1028 H 0.85803 0.45120 0.20276
 H1029 H 0.91503 0.47180 0.18235
 H1030 H 0.93130 0.44518 0.20072
 C1031 C 0.93998 0.61895 0.73239
 C1032 C 0.93771 0.63962 0.73297
 C1033 C 0.94916 0.65176 0.72059
 C1034 C 0.96261 0.64335 0.70706
 C1035 C 0.96436 0.62266 0.70608
 C1036 C 0.95335 0.61060 0.71878
 C1037 C 0.92903 0.60597 0.74618
 N1038 N 0.93753 0.58905 0.75289
 N1039 N 0.92771 0.57695 0.76499
 C1040 C 0.90890 0.58116 0.77074
 N1041 N 0.90034 0.59810 0.76403
 N1042 N 0.91028 0.61037 0.75209
 C1043 C 0.89788 0.56693 0.78321
 C1044 C 0.87727 0.56459 0.78114
 C1045 C 0.86745 0.54911 0.79090
 C1046 C 0.87803 0.53611 0.80328
 C1047 C 0.89843 0.53913 0.80611
 C1048 C 0.90828 0.55431 0.79610
 H1049 H 0.92752 0.64638 0.74339
 H1050 H 0.94755 0.66769 0.72159
 H1051 H 0.97470 0.61580 0.69588
 H1052 H 0.95527 0.59470 0.71796
 H1053 H 0.86896 0.57403 0.77115
 H1054 H 0.85179 0.54677 0.78818
 H1055 H 0.90688 0.52919 0.81549
 H1056 H 0.92415 0.55585 0.79804
 C1057 C 0.72818 0.62382 0.93140
 C1058 C 0.73696 0.64091 0.93955
 C1059 C 0.72629 0.65309 0.95257
 C1060 C 0.70672 0.64821 0.95804
 C1061 C 0.69787 0.63133 0.94943
 C1062 C 0.70841 0.61941 0.93621
 C1063 C 0.73968 0.61006 0.91871
 N1064 N 0.73024 0.59597 0.90779
 N1065 N 0.74048 0.58268 0.89741
 C1066 C 0.76061 0.58282 0.89758
 N1067 N 0.77008 0.59705 0.90833
 N1068 N 0.75982 0.61043 0.91865
 C1069 C 0.77183 0.56704 0.88718
 C1070 C 0.79213 0.56412 0.89103
 C1071 C 0.80217 0.54807 0.88258
 C1072 C 0.79219 0.53487 0.86989
 C1073 C 0.77209 0.53804 0.86564
 C1074 C 0.76201 0.55396 0.87417
 H1075 H 0.75215 0.64476 0.93602
 H1076 H 0.73363 0.66597 0.95880
 H1077 H 0.68281 0.62707 0.95306
 H1078 H 0.70119 0.60636 0.93022
 H1079 H 0.80010 0.57383 0.90108
 H1080 H 0.81761 0.54565 0.88630
 H1081 H 0.76411 0.52791 0.85599
 H1082 H 0.74641 0.55579 0.87083
 C1083 C 0.27856 0.38231 0.93003
 C1084 C 0.26998 0.36481 0.93741
 C1085 C 0.28018 0.35307 0.95120
 C1086 C 0.29907 0.35874 0.95820
 C1087 C 0.30766 0.37618 0.95056
 C1088 C 0.29760 0.38770 0.93659
 C1089 C 0.26762 0.39529 0.91603
 N1090 N 0.27732 0.40970 0.90584
 N1091 N 0.26750 0.42207 0.89401
 C1092 C 0.24752 0.42065 0.89188
 N1093 N 0.23780 0.40614 0.90195
 N1094 N 0.24765 0.39368 0.91373
 C1095 C 0.23662 0.43539 0.87971
 C1096 C 0.21587 0.43724 0.88109
 C1097 C 0.20599 0.45255 0.87114
 C1098 C 0.21664 0.46607 0.85943
 C1099 C 0.23721 0.46381 0.85746
 C1100 C 0.24709 0.44864 0.86747
 H1101 H 0.25536 0.36021 0.93257
 H1102 H 0.27303 0.33976 0.95666
 H1103 H 0.32218 0.38109 0.95542
 H1104 H 0.30463 0.40111 0.93126
 H1105 H 0.20737 0.42733 0.89045
 H1106 H 0.19014 0.45424 0.87308
 H1107 H 0.24570 0.47418 0.84859
 H1108 H 0.26304 0.44761 0.86596
 C1109 C 0.26850 0.61688 0.06196
 C1110 C 0.28516 0.60923 0.05219
 C1111 C 0.29698 0.62143 0.04036
 C1112 C 0.29206 0.64150 0.03751
 C1113 C 0.27537 0.64917 0.04750
 C1114 C 0.26388 0.63702 0.05984
 C1115 C 0.25575 0.60357 0.07373
 N1116 N 0.24703 0.60978 0.09084
 N1117 N 0.23596 0.59738 0.10159
 C1118 C 0.23295 0.57843 0.09542
 N1119 N 0.24152 0.57234 0.07822
 N1120 N 0.25277 0.58463 0.06765
 C1121 C 0.22128 0.56428 0.10736
 C1122 C 0.21076 0.54903 0.09782
 C1123 C 0.20158 0.53417 0.10889
 C1124 C 0.20299 0.53406 0.12972
 C1125 C 0.21305 0.54961 0.13935
 C1126 C 0.22187 0.56479 0.12824
 H1127 H 0.28909 0.59376 0.05373
 H1128 H 0.30967 0.61490 0.03300
 H1129 H 0.27114 0.66455 0.04581
 H1130 H 0.25105 0.64321 0.06723
 H1131 H 0.21001 0.54836 0.08173
 H1132 H 0.19402 0.52226 0.10116
 H1133 H 0.21472 0.54957 0.15537
 H1134 H 0.23008 0.57630 0.13592
 C1135 C 0.73495 0.37502 0.06010
 C1136 C 0.71731 0.38180 0.05146
 C1137 C 0.70541 0.36905 0.04029
 C1138 C 0.71117 0.34926 0.03698
 C1139 C 0.72863 0.34234 0.04620
 C1140 C 0.74028 0.35506 0.05786
 C1141 C 0.74822 0.38920 0.07021
 N1142 N 0.75885 0.38399 0.08658
 N1143 N 0.77072 0.39711 0.09552
 C1144 C 0.77263 0.41577 0.08819
 N1145 N 0.76211 0.42086 0.07177
 N1146 N 0.75008 0.40788 0.06302
 C1147 C 0.78554 0.43059 0.09786
 C1148 C 0.79536 0.44470 0.08615
 C1149 C 0.80588 0.46015 0.09503
 C1150 C 0.80650 0.46203 0.11582
 C1151 C 0.79708 0.44763 0.12760
 C1152 C 0.78692 0.43182 0.11867
 H1153 H 0.71283 0.39711 0.05314
 H1154 H 0.69207 0.37501 0.03361
 H1155 H 0.73350 0.32719 0.04416
 H1156 H 0.75387 0.34954 0.06439
 H1157 H 0.79459 0.44399 0.07007
 H1158 H 0.81297 0.47111 0.08566
 H1159 H 0.79701 0.44903 0.14365
 H1160 H 0.77927 0.42119 0.12798
 C1161 C 0.92806 0.72229 0.62241
 C1162 C 0.93341 0.70270 0.61790
 C1163 C 0.94735 0.69269 0.62946
 C1164 C 0.95619 0.70188 0.64608
 C1165 C 0.95023 0.72126 0.65107
 C1166 C 0.93646 0.73141 0.63924
 C1167 C 0.91445 0.73323 0.60901
 N1168 N 0.91331 0.75333 0.60953
 N1169 N 0.90208 0.76311 0.59649
 C1170 C 0.89145 0.75318 0.58244
 N1171 N 0.89239 0.73309 0.58215
 N1172 N 0.90365 0.72334 0.59511
 C1173 C 0.88002 0.76391 0.56695
 C1174 C 0.86779 0.75334 0.55368
 C1175 C 0.85848 0.76296 0.53786
 C1176 C 0.86111 0.78336 0.53498
 C1177 C 0.87282 0.79413 0.54848
 C1178 C 0.88211 0.78451 0.56441
 H1179 H 0.92725 0.69521 0.60504
 H1180 H 0.95135 0.67776 0.62512
 H1181 H 0.95662 0.72886 0.66375
 H1182 H 0.93255 0.74646 0.64318
 H1183 H 0.86576 0.73750 0.55521
 H1184 H 0.84959 0.75439 0.52753
 H1185 H 0.87524 0.80985 0.54631
 H1186 H 0.89147 0.79308 0.57430
 C1187 C 0.92813 0.27471 0.37449
 C1188 C 0.93670 0.26553 0.35783
 C1189 C 0.95035 0.27578 0.34595
 C1190 C 0.95608 0.29529 0.35080
 C1191 C 0.94701 0.30455 0.36721
 C1192 C 0.93314 0.29446 0.37877
 C1193 C 0.91482 0.26367 0.38806
 N1194 N 0.90317 0.27357 0.40115
 N1195 N 0.89226 0.26382 0.41441
 C1196 C 0.89260 0.24373 0.41526
 N1197 N 0.90408 0.23377 0.40201
 N1198 N 0.91493 0.24354 0.38864
 C1199 C 0.88158 0.23317 0.43111
 C1200 C 0.88559 0.21319 0.43552
 C1201 C 0.87653 0.20395 0.45180
 C1202 C 0.86310 0.21445 0.46373
 C1203 C 0.85866 0.23417 0.45902
 C1204 C 0.86777 0.24344 0.44289
 H1205 H 0.93302 0.25035 0.35409
 H1206 H 0.95692 0.26812 0.33343
 H1207 H 0.95082 0.31959 0.37140
 H1208 H 0.92683 0.30198 0.39150
 H1209 H 0.89623 0.20489 0.42683
 H1210 H 0.88035 0.18880 0.45541
 H1211 H 0.84843 0.24254 0.46816
 H1212 H 0.86427 0.25879 0.43990
 C1213 C 0.05841 0.26439 0.62060
 C1214 C 0.05621 0.25985 0.64083
 C1215 C 0.04479 0.27204 0.65316
 C1216 C 0.03587 0.28935 0.64559
 C1217 C 0.03890 0.29420 0.62544
 C1218 C 0.04976 0.28168 0.61305
 C1219 C 0.06894 0.25086 0.60708
 N1220 N 0.06174 0.24751 0.58852
 N1221 N 0.07115 0.23545 0.57607
 C1222 C 0.08827 0.22644 0.58158
 N1223 N 0.09556 0.22984 0.60012
 N1224 N 0.08597 0.24170 0.61272
 C1225 C 0.09889 0.21381 0.56724
 C1226 C 0.11965 0.21445 0.56586
 C1227 C 0.12937 0.20457 0.55038
 C1228 C 0.11851 0.19335 0.53649
 C1229 C 0.09783 0.19196 0.53855
 C1230 C 0.08810 0.20224 0.55365
 H1231 H 0.06275 0.24653 0.64692
 H1232 H 0.04293 0.26785 0.66859
 H1233 H 0.03235 0.30735 0.61898
 H1234 H 0.05139 0.28552 0.59750
 H1235 H 0.12824 0.22348 0.57606
 H1236 H 0.14526 0.20627 0.54879
 H1237 H 0.08914 0.18350 0.52796
 H1238 H 0.07208 0.20148 0.55448
 C1239 C 0.05959 0.73601 0.37703
 C1240 C 0.05727 0.74078 0.35686
 C1241 C 0.04535 0.72896 0.34454
 C1242 C 0.03604 0.71181 0.35207
 C1243 C 0.03917 0.70675 0.37216
 C1244 C 0.05052 0.71890 0.38453
 C1245 C 0.07071 0.74910 0.39059
 N1246 N 0.06368 0.75266 0.40913
 N1247 N 0.07372 0.76412 0.42173
 C1248 C 0.09132 0.77228 0.41637
 N1249 N 0.09844 0.76868 0.39782
 N1250 N 0.08822 0.75742 0.38508
 C1251 C 0.10264 0.78410 0.43093
 C1252 C 0.12335 0.78236 0.43234
 C1253 C 0.13359 0.79136 0.44809
 C1254 C 0.12335 0.80275 0.46222
 C1255 C 0.10279 0.80527 0.46014
 C1256 C 0.09252 0.79589 0.44476
 H1257 H 0.06413 0.75398 0.35082
 H1258 H 0.04342 0.73331 0.32916
 H1259 H 0.03234 0.69372 0.37859
 H1260 H 0.05224 0.71489 0.40003
 H1261 H 0.13142 0.77314 0.42195
 H1262 H 0.14937 0.78882 0.44967
 H1263 H 0.09457 0.81388 0.47094
 H1264 H 0.07656 0.79749 0.44393
 C1265 C 0.61662 0.93663 0.72661
 C1266 C 0.60850 0.94874 0.71176
 C1267 C 0.62076 0.96001 0.69951
 C1268 C 0.64142 0.95981 0.70216
 C1269 C 0.64964 0.94745 0.71681
 C1270 C 0.63732 0.93570 0.72877
 C1271 C 0.60329 0.92600 0.74032
 N1272 N 0.60786 0.90773 0.74742
 N1273 N 0.59540 0.89823 0.75954
 C1274 C 0.57810 0.90682 0.76523
 N1275 N 0.57368 0.92513 0.75824
 N1276 N 0.58597 0.93448 0.74596
 C1277 C 0.56393 0.89650 0.77835
 C1278 C 0.55198 0.90757 0.79130
 C1279 C 0.53717 0.89834 0.80240
 C1280 C 0.53378 0.87790 0.80057
 C1281 C 0.54594 0.86671 0.78788
 C1282 C 0.56114 0.87591 0.77707
 H1283 H 0.59259 0.94962 0.70973
 H1284 H 0.61400 0.96950 0.68844
 H1285 H 0.66553 0.94704 0.71914
 H1286 H 0.64390 0.92651 0.74020
 H1287 H 0.55389 0.92345 0.79261
 H1288 H 0.52789 0.90727 0.81201
 H1289 H 0.54329 0.85100 0.78589
 H1290 H 0.57005 0.86711 0.76701
 C1291 C 0.37552 0.93280 0.26822
 C1292 C 0.35997 0.94300 0.25880
 C1293 C 0.34817 0.95630 0.26951
 C1294 C 0.35187 0.95985 0.28978
 C1295 C 0.36723 0.94945 0.29923
 C1296 C 0.37883 0.93601 0.28862
 C1297 C 0.38879 0.91946 0.25687
 N1298 N 0.40168 0.90743 0.26657
 N1299 N 0.41447 0.89627 0.25653
 C1300 C 0.41500 0.89666 0.23635
 N1301 N 0.40194 0.90852 0.22660
 N1302 N 0.38907 0.91965 0.23666
 C1303 C 0.43039 0.88536 0.22544
 C1304 C 0.43348 0.88829 0.20494
 C1305 C 0.44946 0.87923 0.19528
 C1306 C 0.46245 0.86697 0.20592
 C1307 C 0.45898 0.86344 0.22615
 C1308 C 0.44309 0.87247 0.23580
 H1309 H 0.35700 0.94081 0.24312
 H1310 H 0.33644 0.96413 0.26183
 H1311 H 0.37039 0.95178 0.31486
 H1312 H 0.39069 0.92845 0.29637
 H1313 H 0.42401 0.89815 0.19652
 H1314 H 0.45211 0.88231 0.17970
 H1315 H 0.46898 0.85412 0.23459
 H1316 H 0.44113 0.86979 0.25155
 C1317 C 0.61791 0.06566 0.27430
 C1318 C 0.61000 0.05356 0.28930
 C1319 C 0.62237 0.04171 0.30088
 C1320 C 0.64290 0.04133 0.29745
 C1321 C 0.65092 0.05366 0.28264
 C1322 C 0.63852 0.06594 0.27132
 C1323 C 0.60439 0.07715 0.26143
 N1324 N 0.60986 0.09492 0.25366
 N1325 N 0.59727 0.10526 0.24240
 C1326 C 0.57887 0.09806 0.23827
 N1327 N 0.57355 0.08023 0.24591
 N1328 N 0.58601 0.07003 0.25731
 C1329 C 0.56447 0.10948 0.22631
 C1330 C 0.54960 0.09947 0.21563
 C1331 C 0.53463 0.10999 0.20600
 C1332 C 0.53404 0.13074 0.20701
 C1333 C 0.54917 0.14085 0.21726
 C1334 C 0.56444 0.13030 0.22661
 H1335 H 0.59418 0.05316 0.29200
 H1336 H 0.61574 0.03228 0.31209
 H1337 H 0.66670 0.05364 0.27969
 H1338 H 0.64496 0.07512 0.25980
 H1339 H 0.54932 0.08343 0.21506
 H1340 H 0.52305 0.10188 0.19829
 H1341 H 0.54876 0.15684 0.21860
 H1342 H 0.57563 0.13837 0.23489
 C1343 C 0.36721 0.06942 0.73488
 C1344 C 0.36925 0.06766 0.71415
 C1345 C 0.35782 0.05405 0.70350
 C1346 C 0.34387 0.04205 0.71325
 C1347 C 0.34113 0.04439 0.73383
 C1348 C 0.35280 0.05786 0.74458
 C1349 C 0.38097 0.08232 0.74626
 N1350 N 0.38273 0.08063 0.76632
 N1351 N 0.39637 0.09103 0.77623
 C1352 C 0.40877 0.10361 0.76650
 N1353 N 0.40672 0.10555 0.74650
 N1354 N 0.39315 0.09512 0.73660
 C1355 C 0.42515 0.11388 0.77707
 C1356 C 0.43772 0.12690 0.76666
 C1357 C 0.45444 0.13497 0.77587
 C1358 C 0.45888 0.13033 0.79568
 C1359 C 0.44609 0.11790 0.80638
 C1360 C 0.42930 0.10979 0.79718
 H1361 H 0.38017 0.07632 0.70617
 H1362 H 0.36016 0.05267 0.68762
 H1363 H 0.33050 0.03529 0.74173
 H1364 H 0.35080 0.05893 0.76052
 H1365 H 0.43498 0.13044 0.75120
 H1366 H 0.46426 0.14446 0.76738
 H1367 H 0.44946 0.11401 0.82164
 H1368 H 0.41997 0.09980 0.80561
 C1369 C 0.62609 0.72793 0.06808
 C1370 C 0.62288 0.70759 0.06488
 C1371 C 0.63439 0.69712 0.05122
 C1372 C 0.64957 0.70666 0.04062
 C1373 C 0.65327 0.72684 0.04426
 C1374 C 0.64155 0.73741 0.05776
 C1375 C 0.61274 0.73922 0.08139
 N1376 N 0.61221 0.75934 0.08090
 N1377 N 0.59919 0.76935 0.09190
 C1378 C 0.58622 0.75966 0.10392
 N1379 N 0.58699 0.73957 0.10462
 N1380 N 0.59993 0.72958 0.09359
 C1381 C 0.57066 0.77052 0.11502
 C1382 C 0.55829 0.76036 0.12842
 C1383 C 0.54228 0.76994 0.13733
 C1384 C 0.53834 0.78988 0.13313
 C1385 C 0.55097 0.80030 0.12029
 C1386 C 0.56708 0.79074 0.11139
 H1387 H 0.61109 0.69982 0.07253
 H1388 H 0.63124 0.68156 0.04882
 H1389 H 0.66486 0.73459 0.03627
 H1390 H 0.64446 0.75304 0.05995
 H1391 H 0.56064 0.74483 0.13163
 H1392 H 0.53257 0.76164 0.14709
 H1393 H 0.54795 0.81563 0.11667
 H1394 H 0.57627 0.79899 0.10111
 C1395 C 0.37783 0.27816 0.06924
 C1396 C 0.38074 0.29860 0.06646
 C1397 C 0.36936 0.30907 0.05269
 C1398 C 0.35462 0.29944 0.04147
 C1399 C 0.35120 0.27914 0.04467
 C1400 C 0.36277 0.26858 0.05835
 C1401 C 0.39109 0.26694 0.08277
 N1402 N 0.39113 0.24681 0.08290
 N1403 N 0.40400 0.23685 0.09415
 C1404 C 0.41732 0.24660 0.10579
 N1405 N 0.41706 0.26672 0.10586
 N1406 N 0.40426 0.27665 0.09459
 C1407 C 0.43265 0.23570 0.11726
 C1408 C 0.44620 0.24609 0.12933
 C1409 C 0.46180 0.23620 0.13868
 C1410 C 0.46413 0.21571 0.13629
 C1411 C 0.45035 0.20515 0.12474
 C1412 C 0.43468 0.21504 0.11537
 H1413 H 0.39217 0.30649 0.07458
 H1414 H 0.37228 0.32472 0.05067
 H1415 H 0.33996 0.27132 0.03622
 H1416 H 0.36009 0.25287 0.06018
 H1417 H 0.44508 0.26199 0.13119
 H1418 H 0.47237 0.24461 0.14744
 H1419 H 0.45209 0.18936 0.12249
 H1420 H 0.42456 0.20657 0.10617
 C1421 C 0.62870 0.26439 0.93192
 C1422 C 0.62606 0.28493 0.93402
 C1423 C 0.63758 0.29575 0.94743
 C1424 C 0.65221 0.28636 0.95889
 C1425 C 0.65536 0.26594 0.95637
 C1426 C 0.64360 0.25502 0.94311
 C1427 C 0.61527 0.25288 0.91880
 N1428 N 0.61386 0.23285 0.92034
 N1429 N 0.60061 0.22279 0.90956
 C1430 C 0.58830 0.23234 0.89675
 N1431 N 0.58999 0.25230 0.89499
 N1432 N 0.60316 0.26235 0.90578
 C1433 C 0.57234 0.22159 0.88602
 C1434 C 0.56019 0.23174 0.87241
 C1435 C 0.54369 0.22245 0.86400
 C1436 C 0.53908 0.20281 0.86888
 C1437 C 0.55152 0.19232 0.88182
 C1438 C 0.56810 0.20161 0.89028
 H1439 H 0.61471 0.29264 0.92567
 H1440 H 0.63490 0.31149 0.94895
 H1441 H 0.66653 0.25832 0.96504
 H1442 H 0.64604 0.23922 0.94177
 H1443 H 0.56303 0.24708 0.86871
 H1444 H 0.53413 0.23077 0.85412
 H1445 H 0.54800 0.17720 0.88590
 H1446 H 0.57713 0.19337 0.90070
 C1447 C 0.38077 0.73091 0.94258
 C1448 C 0.36014 0.73377 0.94204
 C1449 C 0.34755 0.72159 0.95325
 C1450 C 0.35539 0.70606 0.96472
 C1451 C 0.37596 0.70291 0.96472
 C1452 C 0.38851 0.71531 0.95395
 C1453 C 0.39444 0.74428 0.93189
 N1454 N 0.41296 0.74751 0.93913
 N1455 N 0.42564 0.75915 0.92950
 C1456 C 0.42041 0.76794 0.91213
 N1457 N 0.40186 0.76474 0.90484
 N1458 N 0.38906 0.75323 0.91461
 C1459 C 0.43508 0.78003 0.90120
 C1460 C 0.43434 0.78166 0.88037
 C1461 C 0.44966 0.79119 0.87005
 C1462 C 0.46564 0.79967 0.88046
 C1463 C 0.46591 0.79873 0.90130
 C1464 C 0.45086 0.78894 0.91155
 H1465 H 0.35383 0.74575 0.93341
 H1466 H 0.33173 0.72432 0.95300
 H1467 H 0.38245 0.69115 0.97352
 H1468 H 0.40434 0.71268 0.95452
 H1469 H 0.42243 0.77478 0.87202
 H1470 H 0.44936 0.79143 0.85394
 H1471 H 0.47815 0.80509 0.90960
 H1472 H 0.45175 0.78802 0.92761
 C1473 C 0.72475 0.93029 0.37632
 C1474 C 0.73447 0.94155 0.36166
 C1475 C 0.72399 0.95545 0.35033
 C1476 C 0.70365 0.95854 0.35362
 C1477 C 0.69390 0.94702 0.36799
 C1478 C 0.70428 0.93300 0.37911
 C1479 C 0.73584 0.91641 0.38930
 N1480 N 0.72595 0.90380 0.40150
 N1481 N 0.73570 0.89216 0.41411
 C1482 C 0.75581 0.89263 0.41514
 N1483 N 0.76576 0.90507 0.40277
 N1484 N 0.75598 0.91669 0.39009
 C1485 C 0.76640 0.88073 0.43037
 C1486 C 0.78687 0.88322 0.43369
 C1487 C 0.79628 0.87346 0.44947
 C1488 C 0.78540 0.86094 0.46205
 C1489 C 0.76517 0.85789 0.45834
 C1490 C 0.75577 0.86762 0.44265
 H1491 H 0.75021 0.93977 0.35910
 H1492 H 0.73191 0.96414 0.33937
 H1493 H 0.67822 0.94897 0.37081
 H1494 H 0.69629 0.92463 0.39026
 H1495 H 0.79550 0.89322 0.42455
 H1496 H 0.81187 0.87616 0.45228
 H1497 H 0.75653 0.84837 0.46799
 H1498 H 0.74003 0.86525 0.44051
 C1499 C 0.27041 0.92964 0.62801
 C1500 C 0.29076 0.93341 0.62544
 C1501 C 0.30067 0.94680 0.63781
 C1502 C 0.29055 0.95657 0.65319
 C1503 C 0.27040 0.95223 0.65629
 C1504 C 0.26040 0.93899 0.64375
 C1505 C 0.25958 0.91688 0.61368
 N1506 N 0.23944 0.91684 0.61302
 N1507 N 0.22976 0.90640 0.59923
 C1508 C 0.23982 0.89550 0.58557
 N1509 N 0.25994 0.89532 0.58643
 N1510 N 0.26960 0.90581 0.60016
 C1511 C 0.22920 0.88496 0.56937
 C1512 C 0.23953 0.87215 0.55655
 C1513 C 0.22997 0.86346 0.54029
 C1514 C 0.20989 0.86734 0.53653
 C1515 C 0.19942 0.87983 0.54946
 C1516 C 0.20894 0.88844 0.56583
 H1517 H 0.29894 0.92647 0.61347
 H1518 H 0.31623 0.94975 0.63510
 H1519 H 0.26219 0.95955 0.66801
 H1520 H 0.24476 0.93634 0.64621
 H1521 H 0.25512 0.86911 0.55884
 H1522 H 0.23833 0.85399 0.53036
 H1523 H 0.18400 0.88328 0.54659
 H1524 H 0.20057 0.89831 0.57533
 C1525 C 0.26940 0.06519 0.37550
 C1526 C 0.28981 0.06241 0.37871
 C1527 C 0.30067 0.04962 0.36660
 C1528 C 0.29146 0.03948 0.35084
 C1529 C 0.27120 0.04271 0.34719
 C1530 C 0.26025 0.05535 0.35948
 C1531 C 0.25771 0.07761 0.38937
 N1532 N 0.23757 0.07676 0.38954
 N1533 N 0.22718 0.08702 0.40288
 C1534 C 0.23649 0.09862 0.41655
 N1535 N 0.25660 0.09966 0.41618
 N1536 N 0.26697 0.08936 0.40291
 C1537 C 0.22515 0.10904 0.43227
 C1538 C 0.23480 0.12237 0.44516
 C1539 C 0.22464 0.13093 0.46106
 C1540 C 0.20461 0.12641 0.46437
 C1541 C 0.19477 0.11347 0.45132
 C1542 C 0.20491 0.10496 0.43532
 H1543 H 0.29734 0.06973 0.39091
 H1544 H 0.31628 0.04751 0.36973
 H1545 H 0.26370 0.03507 0.33516
 H1546 H 0.24457 0.05724 0.35656
 H1547 H 0.25035 0.12590 0.44324
 H1548 H 0.23250 0.14077 0.47108
 H1549 H 0.17939 0.10957 0.45385
 H1550 H 0.19705 0.09469 0.42574
 C1551 C 0.72311 0.06918 0.62071
 C1552 C 0.70322 0.06475 0.61625
 C1553 C 0.69286 0.05057 0.62721
 C1554 C 0.70206 0.04059 0.64304
 C1555 C 0.72180 0.04531 0.64784
 C1556 C 0.73227 0.05938 0.63672
 C1557 C 0.73432 0.08336 0.60818
 N1558 N 0.75440 0.08472 0.60940
 N1559 N 0.76448 0.09659 0.59720
 C1560 C 0.75489 0.10767 0.58334
 N1561 N 0.73481 0.10652 0.58236
 N1562 N 0.72475 0.09462 0.59449
 C1563 C 0.76603 0.11964 0.56859
 C1564 C 0.75575 0.13133 0.55469
 C1565 C 0.76588 0.14072 0.53925
 C1566 C 0.78648 0.13874 0.53745
 C1567 C 0.79695 0.12781 0.55173
 C1568 C 0.78682 0.11839 0.56725
 H1569 H 0.69570 0.07196 0.60401
 H1570 H 0.67763 0.04734 0.62320
 H1571 H 0.72929 0.03786 0.65996
 H1572 H 0.74755 0.06248 0.64057
 H1573 H 0.73978 0.13272 0.55531
 H1574 H 0.75756 0.14899 0.52826
 H1575 H 0.81284 0.12592 0.55039
 H1576 H 0.79519 0.10951 0.57768
 C1577 C 0.94314 0.62155 0.26179
 C1578 C 0.94101 0.64219 0.26024
 C1579 C 0.95192 0.65481 0.27271
 C1580 C 0.96466 0.64694 0.28724
 C1581 C 0.96621 0.62629 0.28916
 C1582 C 0.95574 0.61375 0.27643
 C1583 C 0.93292 0.60799 0.24791
 N1584 N 0.94162 0.59066 0.24266
 N1585 N 0.93248 0.57805 0.23051
 C1586 C 0.91416 0.58214 0.22323
 N1587 N 0.90539 0.59949 0.22847
 N1588 N 0.91467 0.61226 0.24048
 C1589 C 0.90388 0.56742 0.21062
 C1590 C 0.88311 0.56563 0.21090
 C1591 C 0.87378 0.54988 0.20103
 C1592 C 0.88505 0.53602 0.19033
 C1593 C 0.90569 0.53842 0.18928
 C1594 C 0.91502 0.55388 0.19940
 H1595 H 0.93141 0.64853 0.24902
 H1596 H 0.95047 0.67069 0.27096
 H1597 H 0.97600 0.61980 0.30013
 H1598 H 0.95753 0.59788 0.27802
 H1599 H 0.87420 0.57578 0.21958
 H1600 H 0.85787 0.54807 0.20233
 H1601 H 0.91466 0.52785 0.18118
 H1602 H 0.93103 0.55499 0.19883
 C1603 C 0.94322 0.37993 0.73539
 C1604 C 0.94077 0.35928 0.73626
 C1605 C 0.95219 0.34688 0.72412
 C1606 C 0.96578 0.35500 0.71055
 C1607 C 0.96779 0.37567 0.70935
 C1608 C 0.95680 0.38799 0.72181
 C1609 C 0.93204 0.39319 0.74873
 N1610 N 0.94025 0.41050 0.75490
 N1611 N 0.93018 0.42283 0.76656
 C1612 C 0.91142 0.41844 0.77238
 N1613 N 0.90316 0.40110 0.76622
 N1614 N 0.91334 0.38863 0.75472
 C1615 C 0.90011 0.43284 0.78438
 C1616 C 0.87941 0.43435 0.78246
 C1617 C 0.86917 0.44975 0.79187
 C1618 C 0.87942 0.46351 0.80377
 C1619 C 0.89995 0.46140 0.80639
 C1620 C 0.91021 0.44630 0.79671
 H1621 H 0.93042 0.35273 0.74666
 H1622 H 0.95036 0.33098 0.72529
 H1623 H 0.97824 0.38230 0.69910
 H1624 H 0.95887 0.40387 0.72075
 H1625 H 0.87130 0.42427 0.77289
 H1626 H 0.85340 0.45137 0.78930
 H1627 H 0.90815 0.47193 0.81539
 H1628 H 0.92614 0.44541 0.79852
 C1629 C 0.07025 0.62369 0.72230
 C1630 C 0.06733 0.62148 0.70170
 C1631 C 0.05353 0.63316 0.69164
 C1632 C 0.04245 0.64752 0.70184
 C1633 C 0.04587 0.65033 0.72228
 C1634 C 0.05956 0.63845 0.73243
 C1635 C 0.08366 0.61000 0.73311
 N1636 N 0.08362 0.60906 0.75330
 N1637 N 0.09476 0.59581 0.76285
 C1638 C 0.10645 0.58298 0.75261
 N1639 N 0.10667 0.58414 0.73245
 N1640 N 0.09551 0.59732 0.72292
 C1641 C 0.11793 0.56735 0.76301
 C1642 C 0.13053 0.55474 0.75217
 C1643 C 0.14019 0.53902 0.76153
 C1644 C 0.13757 0.53559 0.78191
 C1645 C 0.12536 0.54833 0.79292
 C1646 C 0.11570 0.56415 0.78357
 H1647 H 0.07530 0.61030 0.69339
 H1648 H 0.05131 0.63070 0.67587
 H1649 H 0.03751 0.66126 0.73055
 H1650 H 0.06151 0.64061 0.74827
 H1651 H 0.13266 0.55675 0.73635
 H1652 H 0.14945 0.52925 0.75277
 H1653 H 0.12296 0.54574 0.80863
 H1654 H 0.10607 0.57351 0.79236
 C1655 C 0.07170 0.37318 0.27686
 C1656 C 0.06132 0.35822 0.26660
 C1657 C 0.04750 0.34630 0.27651
 C1658 C 0.04364 0.34924 0.29683
 C1659 C 0.05450 0.36372 0.30721
 C1660 C 0.06843 0.37547 0.29738
 C1661 C 0.08495 0.38713 0.26618
 N1662 N 0.09594 0.40060 0.27641
 N1663 N 0.10674 0.41412 0.26689
 C1664 C 0.10699 0.41480 0.24670
 N1665 N 0.09620 0.40116 0.23645
 N1666 N 0.08542 0.38759 0.24598
 C1667 C 0.11781 0.43084 0.23622
 C1668 C 0.11604 0.43318 0.21550
 C1669 C 0.12486 0.44933 0.20594
 C1670 C 0.13579 0.46332 0.21686
 C1671 C 0.13799 0.46080 0.23744
 C1672 C 0.12914 0.44470 0.24703
 H1673 H 0.06356 0.35599 0.25081
 H1674 H 0.03933 0.33527 0.26812
 H1675 H 0.05196 0.36627 0.32291
 H1676 H 0.07616 0.38679 0.30579
 H1677 H 0.10737 0.42285 0.20673
 H1678 H 0.12277 0.45120 0.19007
 H1679 H 0.14627 0.47152 0.24613
 H1680 H 0.13085 0.44338 0.26298
   
