data_POSCAR
  _audit_creation_date              2014-09-24
  _audit_creation_method            'ToBaCCo'
  _symmetry_space_group_name_H-M    'P1'
  _symmetry_Int_Tables_number       1
  _symmetry_cell_setting            triclinic
  loop_
  _symmetry_equiv_pos_as_xyz
 x,y,z
_cell_length_a 36.6362
_cell_length_b 36.6543
_cell_length_c 32.5366
_cell_angle_alpha 89.902400
_cell_angle_beta 90.042400
_cell_angle_gamma 90.048200
loop_
  _atom_site_label
  _atom_site_type_symbol
  _atom_site_fract_x
  _atom_site_fract_y
  _atom_site_fract_z
C1 C 0.34303 -0.04965 0.25508
 C2 C 0.36281 -0.01872 0.24064
 C3 C 0.39108 -0.02381 0.21269
 C4 C 0.39645 -0.05690 0.19255
 C5 C 0.37308 -0.08568 0.20221
 C6 C 0.34897 -0.08441 0.23687
 C7 C 0.36288 0.01747 0.26074
 C8 C 0.39135 0.02272 0.28847
 C9 C 0.39713 0.05606 0.30834
 C10 C 0.37394 0.08495 0.29801
 C11 C 0.34953 0.08316 0.26369
 C12 C 0.34324 0.04831 0.24605
 H13 H 0.32370 -0.04666 0.27999
 H14 H 0.40855 -0.00081 0.20511
 H15 H 0.40859 -0.00042 0.29618
 H16 H 0.32378 0.04527 0.22124
 H17 H 0.37397 -0.10941 0.18266
 H18 H 0.37470 0.10897 0.31702
 C19 C 0.15571 -0.04902 0.74454
 C20 C 0.13564 -0.01837 0.75893
 C21 C 0.10725 -0.02386 0.78668
 C22 C 0.10197 -0.05716 0.80659
 C23 C 0.12533 -0.08582 0.79666
 C24 C 0.14978 -0.08391 0.76245
 C25 C 0.13555 0.01794 0.73898
 C26 C 0.10715 0.02332 0.71119
 C27 C 0.10162 0.05668 0.69114
 C28 C 0.12484 0.08553 0.70159
 C29 C 0.14916 0.08356 0.73599
 C30 C 0.15531 0.04866 0.75365
 H31 H 0.17521 -0.04581 0.71982
 H32 H 0.08971 -0.00100 0.79439
 H33 H 0.08985 0.00023 0.70346
 H34 H 0.17475 0.04551 0.77847
 H35 H 0.12445 -0.10973 0.81596
 H36 H 0.12414 0.10967 0.68266
 C37 C 0.65747 0.45087 0.24551
 C38 C 0.63730 0.48148 0.25981
 C39 C 0.60859 0.47587 0.28710
 C40 C 0.60321 0.44258 0.30701
 C41 C 0.62661 0.41391 0.29717
 C42 C 0.65130 0.41593 0.26316
 C43 C 0.63739 0.51787 0.24005
 C44 C 0.60884 0.52353 0.21253
 C45 C 0.60344 0.55694 0.19288
 C46 C 0.62671 0.58564 0.20313
 C47 C 0.65128 0.58348 0.23726
 C48 C 0.65743 0.54846 0.25471
 H49 H 0.67718 0.45414 0.22101
 H50 H 0.59091 0.49868 0.29458
 H51 H 0.59122 0.50070 0.20477
 H52 H 0.67702 0.54514 0.27935
 H53 H 0.62550 0.38986 0.31625
 H54 H 0.62557 0.60984 0.18430
 C55 C 0.84365 0.45142 0.75546
 C56 C 0.86365 0.48205 0.74076
 C57 C 0.89187 0.47656 0.71285
 C58 C 0.89696 0.44326 0.69298
 C59 C 0.87368 0.41457 0.70328
 C60 C 0.84946 0.41654 0.73770
 C61 C 0.86389 0.51831 0.76059
 C62 C 0.89234 0.52366 0.78830
 C63 C 0.89776 0.55691 0.80847
 C64 C 0.87436 0.58565 0.79823
 C65 C 0.85015 0.58385 0.76373
 C66 C 0.84408 0.54903 0.74596
 H67 H 0.82431 0.45462 0.78032
 H68 H 0.90944 0.49941 0.70500
 H69 H 0.90969 0.50059 0.79598
 H70 H 0.82463 0.54594 0.72114
 H71 H 0.87453 0.39054 0.68425
 H72 H 0.87482 0.60956 0.81744
 C73 C 0.24393 0.39003 1.05312
 C74 C 0.25671 0.41364 1.02210
 C75 C 0.28186 0.44060 1.03133
 C76 C 0.30244 0.43876 1.06728
 C77 C 0.29202 0.41332 1.09731
 C78 C 0.25996 0.39119 1.09257
 C79 C 0.24250 0.41356 0.98017
 C80 C 0.21751 0.44057 0.97053
 C81 C 0.19745 0.43891 0.93414
 C82 C 0.20830 0.41369 0.90423
 C83 C 0.24002 0.39145 0.90975
 C84 C 0.25559 0.39008 0.94932
 H85 H 0.22244 0.37065 1.04628
 H86 H 0.28968 0.45967 1.00730
 H87 H 0.20943 0.45958 0.99442
 H88 H 0.27703 0.37070 0.95625
 H89 H 0.30981 0.40963 1.12346
 H90 H 0.19104 0.41016 0.87763
 C91 C 0.75644 0.11003 1.05333
 C92 C 0.74342 0.08640 1.02252
 C93 C 0.71835 0.05946 1.03206
 C94 C 0.69782 0.06154 1.06797
 C95 C 0.70834 0.08707 1.09773
 C96 C 0.74056 0.10897 1.09283
 C97 C 0.75728 0.08635 0.98049
 C98 C 0.78195 0.05914 0.97080
 C99 C 0.80182 0.06070 0.93432
 C100 C 0.79081 0.08582 0.90427
 C101 C 0.75915 0.10811 0.90984
 C102 C 0.74397 0.10974 0.94956
 H103 H 0.77797 0.12932 1.04631
 H104 H 0.71043 0.04031 1.00821
 H105 H 0.79008 0.04011 0.99474
 H106 H 0.72266 0.12923 0.95651
 H107 H 0.69059 0.09094 1.12384
 H108 H 0.80794 0.08924 0.87758
 C109 C 0.25625 0.60947 0.55128
 C110 C 0.24318 0.58571 0.52068
 C111 C 0.21824 0.55869 0.53054
 C112 C 0.19805 0.56072 0.56675
 C113 C 0.20884 0.58623 0.59641
 C114 C 0.24067 0.60838 0.59081
 C115 C 0.25696 0.58567 0.47862
 C116 C 0.28176 0.55857 0.46890
 C117 C 0.30199 0.56053 0.43270
 C118 C 0.29131 0.58605 0.40289
 C119 C 0.25959 0.60829 0.40838
 C120 C 0.24401 0.60946 0.44791
 H121 H 0.27766 0.62887 0.54419
 H122 H 0.21015 0.53952 0.50678
 H123 H 0.28975 0.53938 0.49274
 H124 H 0.22271 0.62894 0.45491
 H125 H 0.19150 0.59003 0.62286
 H126 H 0.30870 0.58979 0.37646
 C127 C 0.74449 0.89147 0.55145
 C128 C 0.75730 0.91536 0.52081
 C129 C 0.78205 0.94255 0.53057
 C130 C 0.80284 0.94036 0.56655
 C131 C 0.79214 0.91462 0.59628
 C132 C 0.76025 0.89253 0.59089
 C133 C 0.74353 0.91522 0.47872
 C134 C 0.71854 0.94212 0.46877
 C135 C 0.69830 0.93990 0.43258
 C136 C 0.70916 0.91440 0.40295
 C137 C 0.74105 0.89240 0.40862
 C138 C 0.75664 0.89144 0.44819
 H139 H 0.72315 0.87198 0.54445
 H140 H 0.78975 0.96179 0.50664
 H141 H 0.71043 0.96130 0.49248
 H142 H 0.77809 0.87214 0.45535
 H143 H 0.80952 0.91044 0.62266
 H144 H 0.69182 0.91049 0.37648
 C145 C -0.04552 0.23891 0.34264
 C146 C -0.01464 0.23553 0.36763
 C147 C -0.01310 0.20983 0.39910
 C148 C -0.04160 0.18545 0.40583
 C149 C -0.07172 0.18695 0.37814
 C150 C -0.07548 0.21551 0.34832
 C151 C 0.01371 0.26307 0.36741
 C152 C 0.01223 0.28898 0.39857
 C153 C 0.04080 0.31317 0.40499
 C154 C 0.07095 0.31161 0.37757
 C155 C 0.07423 0.28339 0.34755
 C156 C 0.04451 0.25970 0.34231
 H157 H -0.04607 0.26033 0.31976
 H158 H 0.01106 0.20876 0.41842
 H159 H -0.01174 0.29024 0.41809
 H160 H 0.04532 0.23810 0.31975
 H161 H -0.09284 0.16641 0.37984
 H162 H 0.09236 0.33179 0.37971
 C163 C -0.04560 0.75879 0.15792
 C164 C -0.01485 0.76219 0.13273
 C165 C -0.01345 0.78787 0.10129
 C166 C -0.04195 0.81203 0.09479
 C167 C -0.07195 0.81066 0.12237
 C168 C -0.07553 0.78225 0.15237
 C169 C 0.01354 0.73479 0.13261
 C170 C 0.01212 0.70930 0.10102
 C171 C 0.04097 0.68550 0.09379
 C172 C 0.07134 0.68735 0.12111
 C173 C 0.07453 0.71541 0.15135
 C174 C 0.04452 0.73844 0.15734
 H175 H -0.04604 0.73738 0.18080
 H176 H 0.01047 0.78907 0.08167
 H177 H -0.01214 0.70801 0.08189
 H178 H 0.04530 0.75984 0.18015
 H179 H -0.09310 0.83110 0.12022
 H180 H 0.09296 0.66743 0.11898
 C181 C 0.45449 0.25975 0.65825
 C182 C 0.48520 0.26306 0.63306
 C183 C 0.48660 0.28869 0.60154
 C184 C 0.45801 0.31273 0.59486
 C185 C 0.42794 0.31130 0.62235
 C186 C 0.42475 0.28325 0.65267
 C187 C 0.51348 0.23563 0.63304
 C188 C 0.51222 0.21027 0.60132
 C189 C 0.54104 0.18657 0.59437
 C190 C 0.57123 0.18812 0.62173
 C191 C 0.57425 0.21594 0.65225
 C192 C 0.54427 0.23903 0.65814
 H193 H 0.45372 0.23830 0.68109
 H194 H 0.51054 0.28989 0.58196
 H195 H 0.48823 0.20904 0.58178
 H196 H 0.54493 0.26031 0.68111
 H197 H 0.40654 0.33145 0.62003
 H198 H 0.59282 0.16821 0.61921
 C199 C 0.45548 0.73949 0.84293
 C200 C 0.48622 0.73614 0.86808
 C201 C 0.48762 0.71050 0.89962
 C202 C 0.45904 0.68619 0.90627
 C203 C 0.42904 0.68768 0.87843
 C204 C 0.42576 0.71595 0.84838
 C205 C 0.51454 0.76362 0.86797
 C206 C 0.51313 0.78935 0.89929
 C207 C 0.54171 0.81351 0.90574
 C208 C 0.57179 0.81205 0.87826
 C209 C 0.57501 0.78390 0.84815
 C210 C 0.54526 0.76032 0.84278
 H211 H 0.45467 0.76101 0.82016
 H212 H 0.51170 0.70942 0.91906
 H213 H 0.48919 0.79055 0.91886
 H214 H 0.54603 0.73882 0.82009
 H215 H 0.40773 0.66735 0.88008
 H216 H 0.59316 0.83227 0.88040
 C217 C -0.29999 0.59386 0.99466
 C218 C -0.26908 0.61362 1.00913
 C219 C -0.27421 0.64183 1.03708
 C220 C -0.30728 0.64707 1.05735
 C221 C -0.33613 0.62381 1.04756
 C222 C -0.33481 0.59977 1.01284
 C223 C -0.23282 0.61363 0.98914
 C224 C -0.22737 0.64208 0.96141
 C225 C -0.19393 0.64774 0.94161
 C226 C -0.16516 0.62446 0.95205
 C227 C -0.16713 0.60010 0.98642
 C228 C -0.20207 0.59391 1.00395
 H229 H -0.29696 0.57456 0.96975
 H230 H -0.25120 0.65929 1.04465
 H231 H -0.25045 0.65938 0.95360
 H232 H -0.20525 0.57447 1.02877
 H233 H -0.35994 0.62472 1.06704
 H234 H -0.14108 0.62511 0.93308
 C235 C -0.30028 0.40687 0.50477
 C236 C -0.26926 0.38736 0.49035
 C237 C -0.27425 0.35883 0.46275
 C238 C -0.30741 0.35292 0.44281
 C239 C -0.33648 0.37587 0.45258
 C240 C -0.33515 0.40035 0.48693
 C241 C -0.23300 0.38774 0.51040
 C242 C -0.22756 0.35954 0.53842
 C243 C -0.19407 0.35392 0.55785
 C244 C -0.16520 0.37687 0.54728
 C245 C -0.16724 0.40123 0.51295
 C246 C -0.20223 0.40739 0.49541
 H247 H -0.29729 0.42644 0.52942
 H248 H -0.25110 0.34158 0.45525
 H249 H -0.25052 0.34218 0.54647
 H250 H -0.20541 0.42670 0.47047
 H251 H -0.36038 0.37445 0.43327
 H252 H -0.14095 0.37562 0.56603
 C253 C 0.20114 -0.09487 0.00373
 C254 C 0.23186 -0.11466 -0.01080
 C255 C 0.22647 -0.14312 -0.03839
 C256 C 0.19313 -0.14871 -0.05842
 C257 C 0.16426 -0.12551 -0.04811
 C258 C 0.16624 -0.10108 -0.01388
 C259 C 0.26816 -0.11448 0.00911
 C260 C 0.27377 -0.14288 0.03681
 C261 C 0.30693 -0.14768 0.05748
 C262 C 0.33546 -0.12391 0.04744
 C263 C 0.33350 -0.09978 0.01287
 C264 C 0.29869 -0.09419 -0.00524
 H265 H 0.20431 -0.07535 0.02840
 H266 H 0.24958 -0.16040 -0.04604
 H267 H 0.25091 -0.16063 0.04420
 H268 H 0.29545 -0.07479 -0.03009
 H269 H 0.14012 -0.12628 -0.06703
 H270 H 0.35945 -0.12414 0.06663
 C271 C 0.20091 1.09390 0.49488
 C272 C 0.23161 1.11382 0.50954
 C273 C 0.22614 1.14221 0.53720
 C274 C 0.19274 1.14767 0.55677
 C275 C 0.16399 1.12445 0.54659
 C276 C 0.16596 1.09999 0.51243
 C277 C 0.26789 1.11390 0.48966
 C278 C 0.27328 1.14236 0.46195
 C279 C 0.30652 1.14771 0.44167
 C280 C 0.33521 1.12419 0.45176
 C281 C 0.33340 1.09991 0.48622
 C282 C 0.29858 1.09395 0.50413
 H283 H 0.20412 1.07442 0.47019
 H284 H 0.24907 1.15968 0.54506
 H285 H 0.25024 1.15979 0.45437
 H286 H 0.29546 1.07449 0.52894
 H287 H 0.13997 1.12545 0.56566
 H288 H 0.35910 1.12463 0.43247
 C289 C 0.14121 0.49415 0.19849
 C290 C 0.16518 0.50713 0.22898
 C291 C 0.19224 0.53198 0.21898
 C292 C 0.19009 0.55217 0.18270
 C293 C 0.16439 0.54144 0.15316
 C294 C 0.14216 0.50972 0.15893
 C295 C 0.16522 0.49343 0.27109
 C296 C 0.19214 0.46844 0.28096
 C297 C 0.18990 0.44810 0.31711
 C298 C 0.16437 0.45887 0.34676
 C299 C 0.14234 0.49073 0.34115
 C300 C 0.14139 0.50643 0.30165
 H301 H 0.12174 0.47284 0.20572
 H302 H 0.21150 0.54006 0.24268
 H303 H 0.21133 0.46037 0.25721
 H304 H 0.12203 0.52783 0.29451
 H305 H 0.16046 0.55882 0.12671
 H306 H 0.16042 0.44146 0.37317
 C307 C -0.14047 1.00541 0.19732
 C308 C -0.16453 0.99275 0.22791
 C309 C -0.19138 0.96759 0.21830
 C310 C -0.18873 0.94639 0.18275
 C311 C -0.16268 0.95680 0.15328
 C312 C -0.14098 0.98913 0.15808
 C313 C -0.16462 1.00674 0.26991
 C314 C -0.19153 1.03182 0.27951
 C315 C -0.18945 1.05229 0.31570
 C316 C -0.16403 1.04119 0.34556
 C317 C -0.14220 1.00919 0.34021
 C318 C -0.14109 0.99357 0.30075
 H319 H -0.12124 1.02697 0.20436
 H320 H -0.21076 0.96002 0.24212
 H321 H -0.21057 1.03981 0.25550
 H322 H -0.12184 0.97203 0.29387
 H323 H -0.15813 0.93902 0.12737
 H324 H -0.15989 1.05836 0.37205
 C325 C 0.36006 0.50631 -0.30320
 C326 C 0.33633 0.49361 -0.27226
 C327 C 0.30940 0.46844 -0.28150
 C328 C 0.31133 0.44781 -0.31735
 C329 C 0.33688 0.45814 -0.34725
 C330 C 0.35902 0.49019 -0.34256
 C331 C 0.33637 0.50785 -0.23037
 C332 C 0.30940 0.53288 -0.22087
 C333 C 0.31126 0.55333 -0.18466
 C334 C 0.33663 0.54232 -0.15469
 C335 C 0.35863 0.51042 -0.16000
 C336 C 0.35987 0.49477 -0.19946
 H337 H 0.37943 0.52779 -0.29637
 H338 H 0.29027 0.46065 -0.25754
 H339 H 0.29036 0.54075 -0.24493
 H340 H 0.37917 0.47326 -0.20625
 H341 H 0.34064 0.44032 -0.37330
 H342 H 0.34059 0.55946 -0.12814
 C343 C 0.63972 -0.00600 -0.30321
 C344 C 0.66336 0.00684 -0.27226
 C345 C 0.69045 0.03179 -0.28171
 C346 C 0.68857 0.05234 -0.31769
 C347 C 0.66308 0.04193 -0.34762
 C348 C 0.64095 0.00989 -0.34275
 C349 C 0.66334 -0.00717 -0.23022
 C350 C 0.69055 -0.03191 -0.22047
 C351 C 0.68907 -0.05178 -0.18394
 C352 C 0.66396 -0.04083 -0.15393
 C353 C 0.64160 -0.00920 -0.15956
 C354 C 0.63996 0.00605 -0.19931
 H355 H 0.62029 -0.02742 -0.29626
 H356 H 0.70958 0.03962 -0.25776
 H357 H 0.70955 -0.04002 -0.24438
 H358 H 0.62047 0.02738 -0.20630
 H359 H 0.65938 0.05971 -0.37379
 H360 H 0.66061 -0.05797 -0.12720
 C361 C -0.01058 0.20474 0.90907
 C362 C -0.01412 0.23568 0.88418
 C363 C -0.03987 0.23719 0.85280
 C364 C -0.06378 0.20849 0.84594
 C365 C -0.06214 0.17820 0.87317
 C366 C -0.03399 0.17491 0.90337
 C367 C 0.01336 0.26401 0.88405
 C368 C 0.03886 0.26263 0.85244
 C369 C 0.06265 0.29141 0.84534
 C370 C 0.06107 0.32168 0.87248
 C371 C 0.03311 0.32486 0.90285
 C372 C 0.00988 0.29493 0.90886
 H373 H 0.01098 0.20387 0.93176
 H374 H -0.04120 0.26127 0.83339
 H375 H 0.04012 0.23859 0.83306
 H376 H -0.01152 0.29572 0.93171
 H377 H -0.08222 0.15672 0.87075
 H378 H 0.08108 0.34321 0.86992
 C379 C 0.51061 0.20560 0.09216
 C380 C 0.51415 0.23626 0.11735
 C381 C 0.53993 0.23748 0.14873
 C382 C 0.56386 0.20875 0.15527
 C383 C 0.56215 0.17873 0.12778
 C384 C 0.53398 0.17574 0.09759
 C385 C 0.48673 0.26459 0.11752
 C386 C 0.46113 0.26309 0.14903
 C387 C 0.43711 0.29168 0.15576
 C388 C 0.43863 0.32192 0.12841
 C389 C 0.46663 0.32517 0.09806
 C390 C 0.49003 0.29539 0.09240
 H391 H 0.48906 0.20497 0.06945
 H392 H 0.54128 0.26137 0.16835
 H393 H 0.45992 0.23907 0.16852
 H394 H 0.51141 0.29618 0.06952
 H395 H 0.58216 0.15719 0.13001
 H396 H 0.41855 0.34336 0.13079
 C397 C 0.00965 0.70508 0.59284
 C398 C 0.01305 0.73573 0.61812
 C399 C 0.03888 0.73702 0.64944
 C400 C 0.06302 0.70843 0.65581
 C401 C 0.06146 0.67847 0.62822
 C402 C 0.03326 0.67535 0.59808
 C403 C -0.01439 0.76408 0.61837
 C404 C -0.03983 0.76270 0.65007
 C405 C -0.06397 0.79133 0.65694
 C406 C -0.06253 0.82139 0.62916
 C407 C -0.03450 0.82464 0.59886
 C408 C -0.01111 0.79486 0.59322
 H409 H -0.01193 0.70438 0.57017
 H410 H 0.04017 0.76088 0.66909
 H411 H -0.04088 0.73859 0.66947
 H412 H 0.01023 0.79564 0.57030
 H413 H 0.08165 0.65709 0.63032
 H414 H -0.08275 0.84275 0.63100
 C415 C 0.48993 0.70481 0.40784
 C416 C 0.48666 0.73568 0.38282
 C417 C 0.46100 0.73728 0.35134
 C418 C 0.43689 0.70871 0.34453
 C419 C 0.43838 0.67842 0.37179
 C420 C 0.46643 0.67506 0.40210
 C421 C 0.51422 0.76393 0.38301
 C422 C 0.54004 0.76255 0.35173
 C423 C 0.56411 0.79121 0.34519
 C424 C 0.56249 0.82131 0.37257
 C425 C 0.53428 0.82446 0.40265
 C426 C 0.51078 0.79466 0.40809
 H427 H 0.51136 0.70393 0.43068
 H428 H 0.45984 0.76134 0.33189
 H429 H 0.54132 0.73862 0.33219
 H430 H 0.48921 0.79540 0.43073
 H431 H 0.41823 0.65700 0.36936
 H432 H 0.58258 0.84280 0.37034
 B433 B -0.04052 0.00513 1.01961
 B434 B -0.05614 -0.00087 0.96943
 B435 B -0.02142 0.02859 0.97810
 B436 B 0.00616 0.01070 1.01588
 B437 B -0.01182 -0.02957 1.02909
 B438 B -0.05087 -0.03585 1.00101
 B439 B 0.00636 -0.03625 0.94858
 B440 B 0.02335 -0.02989 0.99691
 B441 B -0.01349 -0.05938 0.98995
 B442 B -0.03958 -0.04114 0.95156
 B443 B -0.02069 -0.00105 0.93761
 B444 B 0.01731 0.00667 0.96586
 B445 B 0.45961 0.50561 0.51892
 B446 B 0.44413 0.49944 0.46871
 B447 B 0.47881 0.52893 0.47738
 B448 B 0.50631 0.51117 0.51535
 B449 B 0.48830 0.47094 0.52865
 B450 B 0.44932 0.46457 0.50045
 B451 B 0.50671 0.46399 0.44824
 B452 B 0.52359 0.47051 0.49661
 B453 B 0.48673 0.44100 0.48964
 B454 B 0.46077 0.45912 0.45107
 B455 B 0.47969 0.49916 0.43701
 B456 B 0.51759 0.50698 0.46540
 B457 B 0.54051 0.99394 0.51860
 B458 B 0.55583 1.00016 0.46835
 B459 B 0.52130 0.97051 0.47720
 B460 B 0.49383 0.98815 0.51511
 B461 B 0.51171 1.02847 0.52821
 B462 B 0.55058 1.03503 0.49993
 B463 B 0.49300 1.03529 0.44780
 B464 B 0.47635 1.02873 0.49626
 B465 B 0.51301 1.05841 0.48909
 B466 B 0.53895 1.04041 0.45053
 B467 B 0.52020 1.00025 0.43671
 B468 B 0.48238 0.99228 0.46515
 B469 B 0.03983 0.49405 1.01933
 B470 B 0.05531 0.50037 0.96918
 B471 B 0.02063 0.47082 0.97782
 B472 B -0.00684 0.48844 1.01574
 B473 B 0.01116 0.52865 1.02907
 B474 B 0.05008 0.53519 1.00090
 B475 B -0.00735 0.53580 0.94863
 B476 B -0.02414 0.52913 0.99702
 B477 B 0.01262 0.55873 0.99006
 B478 B 0.03860 0.54074 0.95150
 B479 B 0.01974 0.50069 0.93745
 B480 B -0.01816 0.49277 0.96577
 B481 B 0.04025 0.50641 0.48074
 B482 B 0.05566 0.49998 0.53092
 B483 B 0.02111 0.52960 0.52228
 B484 B -0.00639 0.51209 0.48423
 B485 B 0.01146 0.47183 0.47084
 B486 B 0.05035 0.46522 0.49909
 B487 B -0.00709 0.46459 0.55121
 B488 B -0.02384 0.47141 0.50283
 B489 B 0.01281 0.44172 0.50980
 B490 B 0.03884 0.45959 0.54844
 B491 B 0.02010 0.49963 0.56256
 B492 B -0.01775 0.50768 0.53416
 B493 B 0.54033 0.00676 -0.01914
 B494 B 0.55578 0.00047 0.03105
 B495 B 0.52111 0.02995 0.02233
 B496 B 0.49367 0.01225 -0.01565
 B497 B 0.51168 -0.02797 -0.02889
 B498 B 0.55061 -0.03434 -0.00065
 B499 B 0.49313 -0.03507 0.05148
 B500 B 0.47638 -0.02846 0.00307
 B501 B 0.51316 -0.05796 0.01016
 B502 B 0.53909 -0.03991 0.04873
 B503 B 0.52019 0.00007 0.06271
 B504 B 0.48232 0.00794 0.03428
 B505 B 0.45992 0.49432 -0.01941
 B506 B 0.44436 0.50057 0.03068
 B507 B 0.47905 0.47109 0.02221
 B508 B 0.50659 0.48882 -0.01572
 B509 B 0.48862 0.52903 -0.02915
 B510 B 0.44962 0.53542 -0.00110
 B511 B 0.50700 0.53609 0.05128
 B512 B 0.52389 0.52952 0.00297
 B513 B 0.48707 0.55903 0.00979
 B514 B 0.46103 0.54095 0.04831
 B515 B 0.47989 0.50095 0.06249
 B516 B 0.51782 0.49310 0.03422
 B517 B -0.04091 0.99356 0.48081
 B518 B -0.05641 1.00004 0.53091
 B519 B -0.02181 0.97043 0.52254
 B520 B 0.00572 0.98796 0.48449
 B521 B -0.01219 1.02818 0.47087
 B522 B -0.05112 1.03477 0.49894
 B523 B 0.00633 1.03549 0.55127
 B524 B 0.02308 1.02870 0.50292
 B525 B -0.01362 1.05833 0.50967
 B526 B -0.03963 1.04044 0.54834
 B527 B -0.02085 1.00042 0.56268
 B528 B 0.01704 0.99241 0.53443
 B529 B 0.75697 0.20887 0.23166
 B530 B 0.75056 0.19322 0.28179
 B531 B 0.78026 0.22780 0.27344
 B532 B 0.76278 0.25548 0.23548
 B533 B 0.72248 0.23772 0.22192
 B534 B 0.71579 0.19871 0.24995
 B535 B 0.71524 0.25590 0.30232
 B536 B 0.72211 0.27284 0.25402
 B537 B 0.69235 0.23617 0.26076
 B538 B 0.71019 0.20998 0.29935
 B539 B 0.75026 0.22866 0.31367
 B540 B 0.75838 0.26663 0.28547
 B541 B 0.74429 0.79076 0.73109
 B542 B 0.75060 0.80618 0.78124
 B543 B 0.72094 0.77160 0.77261
 B544 B 0.73856 0.74414 0.73468
 B545 B 0.77887 0.76205 0.72139
 B546 B 0.78546 0.80091 0.74955
 B547 B 0.78583 0.74342 0.80184
 B548 B 0.77920 0.72674 0.75342
 B549 B 0.80889 0.76339 0.76043
 B550 B 0.79091 0.78936 0.79898
 B551 B 0.75078 0.77059 0.81297
 B552 B 0.74279 0.73276 0.78464
 B553 B 0.25558 0.29032 0.76938
 B554 B 0.24936 0.30600 0.71928
 B555 B 0.27878 0.27126 0.72784
 B556 B 0.26102 0.24368 0.76569
 B557 B 0.22082 0.26167 0.77902
 B558 B 0.21447 0.30071 0.75097
 B559 B 0.21373 0.24352 0.69854
 B560 B 0.22029 0.22652 0.74687
 B561 B 0.19081 0.26332 0.73999
 B562 B 0.20892 0.28945 0.70154
 B563 B 0.24893 0.27059 0.68747
 B564 B 0.25672 0.23259 0.71570
 B565 B 0.24386 0.71018 0.26825
 B566 B 0.25025 0.69478 0.21811
 B567 B 0.22059 0.72929 0.22665
 B568 B 0.23817 0.75681 0.26465
 B569 B 0.27847 0.73895 0.27810
 B570 B 0.28502 0.70009 0.24995
 B571 B 0.28559 0.75754 0.19770
 B572 B 0.27888 0.77426 0.24604
 B573 B 0.30854 0.73757 0.23917
 B574 B 0.29059 0.71163 0.20056
 B575 B 0.25050 0.73037 0.18637
 B576 B 0.24249 0.76819 0.21471
 B577 B 0.25654 0.70960 0.73112
 B578 B 0.25031 0.69389 0.78124
 B579 B 0.27979 0.72865 0.77276
 B580 B 0.26206 0.75622 0.73485
 B581 B 0.22181 0.73820 0.72143
 B582 B 0.21543 0.69917 0.74950
 B583 B 0.21474 0.75641 0.80188
 B584 B 0.22134 0.77334 0.75353
 B585 B 0.19183 0.73651 0.76043
 B586 B 0.20991 0.71044 0.79895
 B587 B 0.24994 0.72935 0.81308
 B588 B 0.25776 0.76735 0.78484
 B589 B 0.24395 0.29046 0.23107
 B590 B 0.25014 0.30573 0.28131
 B591 B 0.22050 0.27121 0.27252
 B592 B 0.23820 0.24379 0.23458
 B593 B 0.27854 0.26169 0.22143
 B594 B 0.28505 0.30052 0.24969
 B595 B 0.28538 0.24298 0.30183
 B596 B 0.27881 0.22633 0.25341
 B597 B 0.30849 0.26300 0.26053
 B598 B 0.29043 0.28890 0.29908
 B599 B 0.25027 0.27011 0.31297
 B600 B 0.24234 0.23232 0.28455
 B601 B 0.75730 0.79047 0.26895
 B602 B 0.75091 0.80593 0.21878
 B603 B 0.78041 0.77128 0.22732
 B604 B 0.76284 0.74383 0.26541
 B605 B 0.72264 0.76178 0.27889
 B606 B 0.71612 0.80070 0.25065
 B607 B 0.71523 0.74333 0.19855
 B608 B 0.72208 0.72652 0.24691
 B609 B 0.69248 0.76326 0.24001
 B610 B 0.71040 0.78927 0.20132
 B611 B 0.75035 0.77042 0.18711
 B612 B 0.75833 0.73253 0.21548
 B613 B 0.74321 0.20960 0.76950
 B614 B 0.74961 0.19427 0.71935
 B615 B 0.72003 0.22884 0.72794
 B616 B 0.73762 0.25623 0.76600
 B617 B 0.77787 0.23828 0.77941
 B618 B 0.78439 0.19945 0.75121
 B619 B 0.78505 0.25702 0.69908
 B620 B 0.77834 0.27363 0.74746
 B621 B 0.80795 0.23696 0.74051
 B622 B 0.79000 0.21108 0.70185
 B623 B 0.74997 0.22991 0.68770
 B624 B 0.74198 0.26768 0.71609
 C625 C 0.42275 1.05652 0.34234
 C626 C 0.41010 1.02793 0.37276
 C627 C 0.43384 1.02102 0.40248
 C628 C 0.46761 1.04645 0.40545
 C629 C 0.48538 1.04042 0.36287
 C630 C 0.46215 1.04534 0.33019
 C631 C 0.42878 1.09095 0.36880
 C632 C 0.45249 1.08570 0.40102
 H633 H 0.38671 1.01008 0.36804
 H634 H 0.43101 0.99434 0.41606
 H635 H 0.51405 1.03414 0.35849
 H636 H 0.47132 1.04303 0.29858
 H637 H 0.41998 1.11815 0.36026
 H638 H 0.46383 1.10882 0.41720
 C639 C -0.07692 0.55734 0.84272
 C640 C -0.07128 0.59165 0.86949
 C641 C -0.04781 0.58632 0.90193
 C642 C -0.03254 0.54712 0.90620
 C643 C -0.06619 0.52156 0.90273
 C644 C -0.08970 0.52852 0.87280
 C645 C -0.03739 0.54641 0.83089
 C646 C -0.01440 0.54143 0.86376
 H647 H -0.08016 0.61884 0.86106
 H648 H -0.03675 0.60939 0.91844
 H649 H -0.06911 0.49485 0.91622
 H650 H -0.11300 0.51063 0.86776
 H651 H -0.02794 0.54435 0.79936
 H652 H 0.01434 0.53533 0.85961
 C653 C 0.07524 -0.05772 0.84251
 C654 C 0.07027 -0.09181 0.86973
 C655 C 0.04691 -0.08654 0.90217
 C656 C 0.03125 -0.04748 0.90606
 C657 C 0.06460 -0.02156 0.90201
 C658 C 0.08788 -0.02846 0.87191
 C659 C 0.03561 -0.04724 0.83072
 C660 C 0.01275 -0.04225 0.86368
 H661 H 0.07967 -0.11886 0.86153
 H662 H 0.03612 -0.10966 0.91888
 H663 H 0.06745 0.00520 0.91534
 H664 H 0.11094 -0.01040 0.86632
 H665 H 0.02608 -0.04535 0.79919
 H666 H -0.01604 -0.03631 0.85967
 C667 C 0.57624 0.44211 0.34276
 C668 C 0.53651 0.45195 0.33057
 C669 C 0.51342 0.45706 0.36332
 C670 C 0.53179 0.45262 0.40587
 C671 C 0.54799 0.41372 0.40270
 C672 C 0.57158 0.40833 0.37049
 C673 C 0.58835 0.47189 0.37179
 C674 C 0.56475 0.47898 0.40149
 H675 H 0.52714 0.45338 0.29895
 H676 H 0.48459 0.46270 0.35909
 H677 H 0.53735 0.39066 0.41963
 H678 H 0.58137 0.38130 0.36280
 H679 H 0.61131 0.49007 0.36621
 H680 H 0.56722 0.50596 0.41436
 C681 C 0.57653 0.55762 0.15704
 C682 C 0.57187 0.59155 0.12952
 C683 C 0.54831 0.58629 0.09720
 C684 C 0.53212 0.54737 0.09373
 C685 C 0.56512 0.52108 0.09801
 C686 C 0.58869 0.52806 0.12783
 C687 C 0.53680 0.54763 0.16906
 C688 C 0.51373 0.54267 0.13622
 H689 H 0.58170 0.61854 0.13740
 H690 H 0.53776 0.60940 0.08030
 H691 H 0.56764 0.49417 0.08501
 H692 H 0.61166 0.50990 0.13332
 H693 H 0.52740 0.54604 0.20064
 H694 H 0.48489 0.53701 0.14036
 C695 C 0.07623 1.05714 0.65693
 C696 C 0.07048 1.09148 0.63010
 C697 C 0.04693 1.08613 0.59774
 C698 C 0.03166 1.04689 0.59359
 C699 C 0.06536 1.02145 0.59699
 C700 C 0.08895 1.02844 0.62681
 C701 C 0.03673 1.04609 0.66889
 C702 C 0.01366 1.04109 0.63611
 H703 H 0.07946 1.11867 0.63840
 H704 H 0.03587 1.10919 0.58116
 H705 H 0.06827 0.99475 0.58358
 H706 H 0.11231 1.01063 0.63178
 H707 H 0.02737 1.04395 0.70045
 H708 H -0.01506 1.03491 0.64038
 C709 C -0.07637 0.44271 0.65699
 C710 C -0.03663 0.45271 0.66888
 C711 C -0.01370 0.45777 0.63599
 C712 C -0.03222 0.45314 0.59355
 C713 C -0.04835 0.41419 0.59709
 C714 C -0.07178 0.40884 0.62950
 C715 C -0.08868 0.47233 0.62779
 C716 C -0.06529 0.47933 0.59778
 H717 H -0.02711 0.45421 0.70043
 H718 H 0.01515 0.46339 0.64008
 H719 H -0.03791 0.39115 0.58009
 H720 H -0.08159 0.38183 0.63741
 H721 H -0.11162 0.49048 0.63340
 H722 H -0.06790 0.50621 0.58464
 C723 C 0.42343 -0.05716 0.15686
 C724 C 0.46303 -0.04685 0.16907
 C725 C 0.48615 -0.04165 0.13634
 C726 C 0.46793 -0.04651 0.09378
 C727 C 0.45209 -0.08556 0.09729
 C728 C 0.42848 -0.09103 0.12947
 C729 C 0.41112 -0.02763 0.12756
 C730 C 0.43466 -0.02052 0.09773
 H731 H 0.47232 -0.04521 0.20069
 H732 H 0.51492 -0.03576 0.14063
 H733 H 0.46295 -0.10858 0.08060
 H734 H 0.41898 -0.11814 0.13745
 H735 H 0.38810 -0.00956 0.13307
 H736 H 0.43202 0.00636 0.08457
 C737 C 0.33977 0.45677 0.06511
 C738 C 0.35938 0.43928 0.02897
 C739 C 0.39099 0.45478 0.01936
 C740 C 0.40365 0.48578 0.04734
 C741 C 0.37178 0.51325 0.04726
 C742 C 0.33847 0.49807 0.05552
 C743 C 0.36743 0.45412 0.10063
 C744 C 0.40056 0.46986 0.09151
 H745 H 0.34835 0.41716 0.01048
 H746 H 0.40385 0.44690 -0.00866
 H747 H 0.37524 0.54235 0.04236
 H748 H 0.31379 0.51432 0.05763
 H749 H 0.36048 0.44575 0.13163
 H750 H 0.41985 0.47598 0.11576
 C751 C -0.16148 0.95698 0.56471
 C752 C -0.14143 0.93903 0.52907
 C753 C -0.10970 0.95432 0.51975
 C754 C -0.09719 0.98549 0.54754
 C755 C -0.12886 1.01317 0.54693
 C756 C -0.16233 0.99830 0.55487
 C757 C -0.13414 0.95450 0.60071
 C758 C -0.10079 0.96994 0.59182
 H759 H -0.15225 0.91673 0.51067
 H760 H -0.09655 0.94609 0.49203
 H761 H -0.12514 1.04224 0.54206
 H762 H -0.18684 1.01485 0.55677
 H763 H -0.14142 0.94679 0.63183
 H764 H -0.08174 0.97625 0.61625
 C765 C -0.16083 0.04284 0.93584
 C766 C -0.14086 0.06030 0.97181
 C767 C -0.10923 0.04481 0.98109
 C768 C -0.09683 0.01391 0.95290
 C769 C -0.12869 -0.01363 0.95301
 C770 C -0.16206 0.00152 0.94522
 C771 C -0.13348 0.04569 0.90006
 C772 C -0.10024 0.02999 0.90882
 H773 H -0.15161 0.08247 0.99039
 H774 H -0.09615 0.05266 1.00902
 H775 H -0.12518 -0.04276 0.95758
 H776 H -0.18675 -0.01477 0.94319
 H777 H -0.14068 0.05423 0.86919
 H778 H -0.08111 0.02406 0.88441
 C779 C 0.33940 0.54278 0.43452
 C780 C 0.35912 0.56036 0.47058
 C781 C 0.39082 0.54505 0.48003
 C782 C 0.40345 0.51412 0.45198
 C783 C 0.37168 0.48647 0.45203
 C784 C 0.33829 0.50147 0.44399
 C785 C 0.36689 0.54566 0.39888
 C786 C 0.40014 0.53010 0.40784
 H787 H 0.34815 0.58247 0.48908
 H788 H 0.40381 0.55304 0.50796
 H789 H 0.37527 0.45736 0.45675
 H790 H 0.31367 0.48508 0.44188
 H791 H 0.35976 0.55408 0.36794
 H792 H 0.41936 0.52414 0.38353
 C793 C 0.16056 0.54306 0.56505
 C794 C 0.14090 0.56074 0.52898
 C795 C 0.10913 0.54554 0.51960
 C796 C 0.09639 0.51457 0.54768
 C797 C 0.12804 0.48685 0.54768
 C798 C 0.16149 0.50176 0.55567
 C799 C 0.13309 0.54597 0.60070
 C800 C 0.09975 0.53051 0.59177
 H801 H 0.15190 0.58292 0.51049
 H802 H 0.09607 0.55375 0.49179
 H803 H 0.12432 0.45776 0.54303
 H804 H 0.18604 0.48530 0.55782
 H805 H 0.14025 0.55439 0.63159
 H806 H 0.08047 0.52465 0.61609
 C807 C 0.66039 0.04379 0.06580
 C808 C 0.64095 0.06141 0.02952
 C809 C 0.60930 0.04608 0.01981
 C810 C 0.59643 0.01513 0.04785
 C811 C 0.62815 -0.01251 0.04800
 C812 C 0.66150 0.00248 0.05638
 C813 C 0.63269 0.04660 0.10119
 C814 C 0.59949 0.03105 0.09198
 H815 H 0.65213 0.08348 0.01101
 H816 H 0.59657 0.05399 -0.00832
 H817 H 0.62455 -0.04158 0.04314
 H818 H 0.68608 -0.01390 0.05866
 H819 H 0.63962 0.05500 0.13216
 H820 H 0.58007 0.02511 0.11614
 C821 C 0.66076 0.95739 0.43429
 C822 C 0.64121 0.93973 0.47047
 C823 C 0.60944 0.95485 0.47986
 C824 C 0.59656 0.98567 0.45166
 C825 C 0.62815 1.01352 0.45155
 C826 C 0.66161 0.99872 0.44354
 C827 C 0.63321 0.95427 0.39870
 C828 C 0.59988 0.96964 0.40761
 H829 H 0.65236 0.91771 0.48908
 H830 H 0.59657 0.94683 0.50787
 H831 H 0.62439 1.04260 0.45616
 H832 H 0.68612 1.01527 0.44133
 H833 H 0.64033 0.94580 0.36782
 H834 H 0.58053 0.97538 0.38329
 C835 C 0.16009 0.45680 0.93563
 C836 C 0.14016 0.43923 0.97156
 C837 C 0.10849 0.45463 0.98076
 C838 C 0.09604 0.48565 0.95260
 C839 C 0.12789 0.51320 0.95276
 C840 C 0.16128 0.49809 0.94502
 C841 C 0.13271 0.45405 0.89981
 C842 C 0.09946 0.46971 0.90852
 H843 H 0.15094 0.41700 0.99013
 H844 H 0.09536 0.44655 1.00855
 H845 H 0.12436 0.54231 0.95731
 H846 H 0.18596 0.51441 0.94302
 H847 H 0.13991 0.44563 0.86894
 H848 H 0.08032 0.47573 0.88409
 C849 C 0.03488 0.34345 0.43663
 C850 C 0.06859 0.36551 0.44771
 C851 C 0.06172 0.39337 0.47371
 C852 C 0.02065 0.39962 0.48606
 C853 C -0.00048 0.39820 0.44450
 C854 C 0.00758 0.37046 0.41929
 C855 C 0.01883 0.33275 0.47945
 C856 C 0.01188 0.36200 0.50522
 H857 H 0.09633 0.35639 0.44235
 H858 H 0.08476 0.40538 0.48976
 H859 H -0.02224 0.41661 0.43587
 H860 H -0.00648 0.36677 0.39017
 H861 H 0.01521 0.30470 0.48935
 H862 H 0.00281 0.35836 0.53665
 C863 C 0.53571 -0.15624 -0.06267
 C864 C 0.56933 -0.13404 -0.05164
 C865 C 0.56234 -0.10617 -0.02569
 C866 C 0.52122 -0.10008 -0.01340
 C867 C 0.50011 -0.10166 -0.05496
 C868 C 0.50832 -0.12939 -0.08010
 C869 C 0.51969 -0.16696 -0.01985
 C870 C 0.51262 -0.13770 0.00585
 H871 H 0.59712 -0.14306 -0.05696
 H872 H 0.58531 -0.09407 -0.00963
 H873 H 0.47828 -0.08339 -0.06366
 H874 H 0.49429 -0.13316 -0.10923
 H875 H 0.51622 -0.19501 -0.00988
 H876 H 0.50359 -0.14133 0.03731
 C877 C -0.03594 -0.15777 1.06304
 C878 C -0.06955 -0.13560 1.05198
 C879 C -0.06257 -0.10775 1.02590
 C880 C -0.02147 -0.10160 1.01352
 C881 C -0.00025 -0.10323 1.05502
 C882 C -0.00848 -0.13092 1.08031
 C883 C -0.02000 -0.16848 1.02022
 C884 C -0.01293 -0.13921 0.99438
 H885 H -0.09734 -0.14468 1.05733
 H886 H -0.08555 -0.09571 1.00978
 H887 H 0.02173 -0.08505 1.06354
 H888 H 0.00565 -0.13473 1.10938
 H889 H -0.01658 -0.19654 1.01036
 H890 H -0.00397 -0.14283 0.96292
 C891 C 0.46401 0.34286 0.56305
 C892 C 0.43043 0.36506 0.55193
 C893 C 0.43745 0.39284 0.52578
 C894 C 0.47858 0.39890 0.51339
 C895 C 0.49977 0.39735 0.55492
 C896 C 0.49149 0.36972 0.58026
 C897 C 0.47994 0.33203 0.52026
 C898 C 0.48705 0.36123 0.49435
 H899 H 0.40263 0.35604 0.55732
 H900 H 0.41449 0.40489 0.50963
 H901 H 0.52177 0.41554 0.56340
 H902 H 0.50560 0.36596 0.60936
 H903 H 0.48337 0.30395 0.51049
 H904 H 0.49609 0.35755 0.46292
 C905 C 0.53516 1.15656 0.56245
 C906 C 0.50795 1.12943 0.57969
 C907 C 0.49977 1.10187 0.55432
 C908 C 0.52082 1.10059 0.51274
 C909 C 0.51198 1.13828 0.49380
 C910 C 0.51898 1.16744 0.51973
 C911 C 0.56886 1.13465 0.55118
 C912 C 0.56193 1.10691 0.52501
 H913 H 0.49396 1.13292 0.60886
 H914 H 0.47802 1.08348 0.56292
 H915 H 0.50289 1.14206 0.46238
 H916 H 0.51535 1.19554 0.51000
 H917 H 0.59661 1.14384 0.55649
 H918 H 0.58492 1.09508 0.50878
 C919 C 0.03533 0.65674 1.06377
 C920 C 0.06898 0.63481 1.05192
 C921 C 0.06179 0.60711 1.02577
 C922 C 0.02060 0.60085 1.01386
 C923 C -0.00018 0.60202 1.05560
 C924 C 0.00823 0.62943 1.08110
 C925 C 0.01890 0.66768 1.02109
 C926 C 0.01168 0.63860 0.99514
 H927 H 0.09682 0.64405 1.05653
 H928 H 0.08460 0.59534 1.00917
 H929 H -0.02205 0.58372 1.06415
 H930 H -0.00563 0.63274 1.11039
 H931 H 0.01537 0.69578 1.01131
 H932 H 0.00249 0.64247 0.96377
 C933 C 0.46460 0.65729 -0.06380
 C934 C 0.48072 0.66803 -0.02095
 C935 C 0.48778 0.63880 0.00494
 C936 C 0.47906 0.60116 -0.01404
 C937 C 0.43794 0.60733 -0.02625
 C938 C 0.43089 0.63520 -0.05231
 C939 C 0.49184 0.63019 -0.08105
 C940 C 0.50008 0.60259 -0.05564
 H941 H 0.48415 0.69607 -0.01101
 H942 H 0.49680 0.64248 0.03639
 H943 H 0.41503 0.59538 -0.00991
 H944 H 0.40307 0.64439 -0.05712
 H945 H 0.50588 0.63374 -0.11021
 H946 H 0.52198 0.58433 -0.06413
 C947 C -0.03596 1.15656 0.43581
 C948 C -0.00889 1.12931 0.41853
 C949 C -0.00066 1.10171 0.44399
 C950 C -0.02149 1.10045 0.48571
 C951 C -0.01253 1.13813 0.50448
 C952 C -0.01961 1.16732 0.47854
 C953 C -0.06969 1.13460 0.44758
 C954 C -0.06263 1.10676 0.47369
 H955 H 0.00500 1.13271 0.38925
 H956 H 0.02102 1.08329 0.43538
 H957 H -0.00347 1.14189 0.53590
 H958 H -0.01608 1.19537 0.48840
 H959 H -0.09750 1.14387 0.44287
 H960 H -0.08551 1.09490 0.49016
 C961 C 0.80672 0.67327 0.90754
 C962 C 0.79557 0.71269 0.91952
 C963 C 0.79080 0.73586 0.88677
 C964 C 0.79691 0.71802 0.84425
 C965 C 0.83614 0.70285 0.84881
 C966 C 0.84127 0.67920 0.88114
 C967 C 0.77821 0.66061 0.87708
 C968 C 0.77142 0.68429 0.84727
 H969 H 0.79321 0.72192 0.95110
 H970 H 0.78459 0.76454 0.89106
 H971 H 0.85933 0.71405 0.83257
 H972 H 0.86843 0.67033 0.88976
 H973 H 0.76031 0.63726 0.88181
 H974 H 0.74477 0.68141 0.83364
 C975 C 0.30691 0.17312 0.40750
 C976 C 0.34120 0.17877 0.38064
 C977 C 0.33586 0.20235 0.34831
 C978 C 0.29666 0.21770 0.34419
 C979 C 0.27101 0.18414 0.34763
 C980 C 0.27798 0.16052 0.37747
 C981 C 0.29608 0.21264 0.41947
 C982 C 0.29106 0.23572 0.38668
 H983 H 0.36840 0.16983 0.38899
 H984 H 0.35895 0.21345 0.33183
 H985 H 0.24427 0.18135 0.33420
 H986 H 0.26004 0.13726 0.38251
 H987 H 0.29407 0.22197 0.45104
 H988 H 0.28498 0.26444 0.39092
 C989 C 0.69253 0.32577 0.40726
 C990 C 0.70311 0.28631 0.41977
 C991 C 0.70852 0.26310 0.38721
 C992 C 0.70359 0.28108 0.34451
 C993 C 0.66441 0.29662 0.34777
 C994 C 0.65873 0.32032 0.37977
 C995 C 0.72203 0.33817 0.37795
 C996 C 0.72938 0.31451 0.34837
 H997 H 0.70480 0.27718 0.45146
 H998 H 0.71465 0.23441 0.39170
 H999 H 0.64149 0.28559 0.33094
 H1000 H 0.63156 0.32974 0.38748
 H1001 H 0.73997 0.36134 0.38335
 H1002 H 0.75635 0.31715 0.33550
 C1003 C 0.19277 0.82594 0.90743
 C1004 C 0.20403 0.78652 0.91944
 C1005 C 0.20916 0.76354 0.88669
 C1006 C 0.20324 0.78155 0.84417
 C1007 C 0.16390 0.79654 0.84836
 C1008 C 0.15844 0.82001 0.88068
 C1009 C 0.22143 0.83889 0.87726
 C1010 C 0.22854 0.81538 0.84747
 H1011 H 0.20621 0.77714 0.95102
 H1012 H 0.21550 0.73487 0.89097
 H1013 H 0.14088 0.78534 0.83187
 H1014 H 0.13120 0.82879 0.88903
 H1015 H 0.23915 0.86233 0.88218
 H1016 H 0.25524 0.81845 0.83404
 C1017 C 0.30734 0.82713 0.09187
 C1018 C 0.27774 0.83933 0.12121
 C1019 C 0.27071 0.81574 0.15102
 C1020 C 0.29698 0.78275 0.15533
 C1021 C 0.29238 0.76433 0.11290
 C1022 C 0.29744 0.78731 0.08002
 C1023 C 0.34130 0.82239 0.11948
 C1024 C 0.33592 0.79893 0.15191
 H1025 H 0.25956 0.86231 0.11575
 H1026 H 0.24379 0.81823 0.16405
 H1027 H 0.28685 0.73548 0.10882
 H1028 H 0.29604 0.77774 0.04849
 H1029 H 0.36845 0.83181 0.11161
 H1030 H 0.35899 0.78834 0.16886
 C1031 C 0.80663 0.32695 0.59361
 C1032 C 0.79606 0.28745 0.58150
 C1033 C 0.79111 0.26428 0.61424
 C1034 C 0.79640 0.28235 0.65678
 C1035 C 0.83551 0.29808 0.65295
 C1036 C 0.84078 0.32173 0.62068
 C1037 C 0.77748 0.33932 0.62326
 C1038 C 0.77053 0.31573 0.65309
 H1039 H 0.79414 0.27822 0.54989
 H1040 H 0.78516 0.23554 0.60996
 H1041 H 0.85862 0.28727 0.66966
 H1042 H 0.86781 0.33136 0.61258
 H1043 H 0.75949 0.36248 0.61803
 H1044 H 0.74373 0.31844 0.66637
 C1045 C 0.19213 0.17446 0.59260
 C1046 C 0.20282 0.21402 0.58072
 C1047 C 0.20781 0.23693 0.61361
 C1048 C 0.20241 0.21856 0.65604
 C1049 C 0.16326 0.20299 0.65199
 C1050 C 0.15797 0.17959 0.61959
 C1051 C 0.22124 0.16181 0.62223
 C1052 C 0.22820 0.18514 0.65225
 H1053 H 0.20480 0.22347 0.54916
 H1054 H 0.21385 0.26569 0.60951
 H1055 H 0.14016 0.21380 0.66863
 H1056 H 0.13091 0.17017 0.61131
 H1057 H 0.23922 0.13870 0.61686
 H1058 H 0.25498 0.18227 0.66559
 C1059 C 0.69258 0.67389 0.09319
 C1060 C 0.65888 0.67871 0.12095
 C1061 C 0.66451 0.70222 0.15316
 C1062 C 0.70355 0.71821 0.15631
 C1063 C 0.72965 0.68508 0.15199
 C1064 C 0.72238 0.66161 0.12217
 C1065 C 0.70265 0.71356 0.08101
 C1066 C 0.70801 0.73657 0.11375
 H1067 H 0.63176 0.66905 0.11327
 H1068 H 0.64158 0.71287 0.17019
 H1069 H 0.75663 0.68249 0.16489
 H1070 H 0.74046 0.63864 0.11647
 H1071 H 0.70403 0.72296 0.04940
 H1072 H 0.71379 0.76537 0.10949
 C1073 C 0.20765 0.58968 0.18431
 C1074 C 0.20473 0.61704 0.14848
 C1075 C 0.22007 0.65043 0.15729
 C1076 C 0.23585 0.65398 0.20147
 C1077 C 0.20486 0.64118 0.22945
 C1078 C 0.18980 0.60934 0.22018
 C1079 C 0.24895 0.58893 0.19393
 C1080 C 0.26371 0.62245 0.20181
 H1081 H 0.19649 0.60974 0.11756
 H1082 H 0.22603 0.66961 0.13288
 H1083 H 0.19662 0.65419 0.25723
 H1084 H 0.16768 0.59825 0.23867
 H1085 H 0.26552 0.56446 0.19201
 H1086 H 0.29279 0.62628 0.20658
 C1087 C 0.70638 0.08972 0.68450
 C1088 C 0.74767 0.08858 0.69421
 C1089 C 0.76267 0.12191 0.70258
 C1090 C 0.73503 0.15364 0.70249
 C1091 C 0.71926 0.15060 0.65826
 C1092 C 0.70370 0.11743 0.64902
 C1093 C 0.68865 0.10916 0.72061
 C1094 C 0.70397 0.14078 0.73034
 H1095 H 0.76406 0.06400 0.69208
 H1096 H 0.79175 0.12550 0.70758
 H1097 H 0.72533 0.16999 0.63409
 H1098 H 0.69544 0.11051 0.61800
 H1099 H 0.66650 0.09799 0.73901
 H1100 H 0.69598 0.15348 0.75840
 C1101 C 0.79391 0.08796 0.31433
 C1102 C 0.75249 0.08711 0.30501
 C1103 C 0.73753 0.12063 0.29764
 C1104 C 0.76522 0.15234 0.29807
 C1105 C 0.78121 0.14842 0.34210
 C1106 C 0.79670 0.11502 0.35053
 C1107 C 0.81155 0.10832 0.27866
 C1108 C 0.79619 0.14010 0.26982
 H1109 H 0.73596 0.06257 0.30689
 H1110 H 0.70839 0.12435 0.29325
 H1111 H 0.77512 0.16725 0.36675
 H1112 H 0.80466 0.10753 0.38151
 H1113 H 0.83379 0.09778 0.26000
 H1114 H 0.80436 0.15357 0.24223
 C1115 C 0.29433 0.58888 0.81392
 C1116 C 0.25295 0.58772 0.80442
 C1117 C 0.23774 0.62112 0.79696
 C1118 C 0.26518 0.65305 0.79754
 C1119 C 0.28103 0.64921 0.84165
 C1120 C 0.29679 0.61594 0.85013
 C1121 C 0.31192 0.60939 0.77833
 C1122 C 0.29631 0.64103 0.76940
 H1123 H 0.23660 0.56305 0.80623
 H1124 H 0.20859 0.62462 0.79246
 H1125 H 0.27470 0.66798 0.86628
 H1126 H 0.30473 0.60850 0.88113
 H1127 H 0.33425 0.59900 0.75969
 H1128 H 0.30432 0.65447 0.74175
 C1129 C 0.29330 0.41051 0.68485
 C1130 C 0.29601 0.38286 0.64941
 C1131 C 0.28026 0.34974 0.65855
 C1132 C 0.26424 0.34667 0.70264
 C1133 C 0.29523 0.35931 0.73072
 C1134 C 0.31074 0.39092 0.72113
 C1135 C 0.25197 0.41182 0.69424
 C1136 C 0.23676 0.37853 0.70252
 H1137 H 0.30446 0.38980 0.61845
 H1138 H 0.27425 0.33043 0.63434
 H1139 H 0.30310 0.34643 0.75878
 H1140 H 0.33284 0.40194 0.73969
 H1141 H 0.23572 0.43649 0.69200
 H1142 H 0.20765 0.37508 0.70732
 C1143 C 0.79458 0.91075 0.18477
 C1144 C 0.79751 0.88314 0.14915
 C1145 C 0.78198 0.84986 0.15813
 C1146 C 0.76578 0.84660 0.20210
 C1147 C 0.79663 0.85929 0.23034
 C1148 C 0.81203 0.89098 0.22100
 C1149 C 0.75311 0.91168 0.19381
 C1150 C 0.73811 0.87829 0.20187
 H1151 H 0.80568 0.89015 0.11810
 H1152 H 0.77612 0.83059 0.13384
 H1153 H 0.80471 0.84619 0.25817
 H1154 H 0.83416 0.90189 0.23963
 H1155 H 0.73660 0.93618 0.19139
 H1156 H 0.70898 0.87462 0.20632
 C1157 C 0.70701 0.91089 0.81465
 C1158 C 0.68940 0.89090 0.77882
 C1159 C 0.70487 0.85929 0.76962
 C1160 C 0.73592 0.84690 0.79775
 C1161 C 0.76346 0.87876 0.79742
 C1162 C 0.74831 0.91212 0.80513
 C1163 C 0.70435 0.88357 0.85054
 C1164 C 0.72004 0.85035 0.84186
 H1165 H 0.66711 0.90160 0.76029
 H1166 H 0.69681 0.84615 0.74184
 H1167 H 0.79258 0.87525 0.79279
 H1168 H 0.76461 0.93680 0.80702
 H1169 H 0.69595 0.89080 0.88141
 H1170 H 0.72613 0.83126 0.86633
 C1171 C 0.20736 0.41058 0.31536
 C1172 C 0.18973 0.39111 0.27915
 C1173 C 0.20483 0.35932 0.26978
 C1174 C 0.23561 0.34640 0.29800
 C1175 C 0.26351 0.37795 0.29817
 C1176 C 0.24872 0.41141 0.30616
 C1177 C 0.20416 0.38299 0.35094
 C1178 C 0.21949 0.34967 0.34202
 H1179 H 0.16772 0.40228 0.26056
 H1180 H 0.19673 0.34641 0.24186
 H1181 H 0.29261 0.37417 0.29361
 H1182 H 0.26530 0.43588 0.30840
 H1183 H 0.19565 0.39007 0.38182
 H1184 H 0.22518 0.33030 0.36633
 C1185 C 0.09271 0.28551 0.81343
 C1186 C 0.11481 0.31915 0.80218
 C1187 C 0.14254 0.31222 0.77600
 C1188 C 0.14866 0.27115 0.76368
 C1189 C 0.14727 0.24997 0.80522
 C1190 C 0.11972 0.25815 0.83062
 C1191 C 0.08176 0.26950 0.77070
 C1192 C 0.11091 0.26250 0.74474
 H1193 H 0.10574 0.34691 0.80747
 H1194 H 0.15450 0.33520 0.75978
 H1195 H 0.16552 0.22805 0.81370
 H1196 H 0.11610 0.24404 0.85974
 H1197 H 0.05364 0.26595 0.76100
 H1198 H 0.10712 0.25348 0.71332
 C1199 C 0.59434 0.78538 0.31346
 C1200 C 0.61649 0.81907 0.30243
 C1201 C 0.64432 0.81221 0.27635
 C1202 C 0.65044 0.77118 0.26387
 C1203 C 0.64902 0.74995 0.30539
 C1204 C 0.62132 0.75800 0.33068
 C1205 C 0.58354 0.76950 0.27064
 C1206 C 0.61276 0.76258 0.24477
 H1207 H 0.60744 0.84681 0.30788
 H1208 H 0.65638 0.83526 0.26034
 H1209 H 0.66741 0.72816 0.31396
 H1210 H 0.61766 0.74389 0.35979
 H1211 H 0.55546 0.76599 0.26080
 H1212 H 0.60906 0.75364 0.21332
 C1213 C 0.59409 0.21443 0.18709
 C1214 C 0.61608 0.18067 0.19810
 C1215 C 0.64393 0.18740 0.22426
 C1216 C 0.65024 0.22841 0.23683
 C1217 C 0.64891 0.24970 0.19536
 C1218 C 0.62119 0.24176 0.16999
 C1219 C 0.58334 0.23027 0.22992
 C1220 C 0.61258 0.23707 0.25586
 H1221 H 0.60691 0.15296 0.19257
 H1222 H 0.65588 0.16430 0.24025
 H1223 H 0.66739 0.27143 0.18684
 H1224 H 0.61762 0.25592 0.14089
 H1225 H 0.55527 0.23380 0.23972
 H1226 H 0.60888 0.24589 0.28734
 C1227 C 0.09334 0.71429 0.68745
 C1228 C 0.12024 0.74170 0.67013
 C1229 C 0.14803 0.74981 0.69532
 C1230 C 0.14964 0.72859 0.73682
 C1231 C 0.11203 0.73715 0.75605
 C1232 C 0.08271 0.73017 0.73030
 C1233 C 0.11550 0.68064 0.69841
 C1234 C 0.14344 0.68754 0.72440
 H1235 H 0.11648 0.75578 0.64101
 H1236 H 0.16640 0.77156 0.68663
 H1237 H 0.10844 0.74597 0.78755
 H1238 H 0.05466 0.73357 0.74028
 H1239 H 0.10642 0.65289 0.69298
 H1240 H 0.15556 0.66452 0.74038
 C1241 C 0.90722 0.78572 0.68694
 C1242 C 0.91800 0.76928 0.72967
 C1243 C 0.88880 0.76218 0.75555
 C1244 C 0.85112 0.77121 0.73672
 C1245 C 0.85754 0.81235 0.72478
 C1246 C 0.88537 0.81943 0.69871
 C1247 C 0.87988 0.75872 0.66958
 C1248 C 0.85233 0.75044 0.69500
 H1249 H 0.94607 0.76570 0.73955
 H1250 H 0.89256 0.75304 0.78697
 H1251 H 0.84578 0.83520 0.74130
 H1252 H 0.89472 0.84722 0.69404
 H1253 H 0.88323 0.74485 0.64031
 H1254 H 0.83391 0.72872 0.68637
 C1255 C 0.40690 0.28557 0.18750
 C1256 C 0.41764 0.26930 0.23023
 C1257 C 0.38838 0.26215 0.25602
 C1258 C 0.35072 0.27096 0.23696
 C1259 C 0.35701 0.31210 0.22481
 C1260 C 0.38484 0.31916 0.19876
 C1261 C 0.37988 0.25834 0.17009
 C1262 C 0.35218 0.25004 0.19533
 H1263 H 0.44571 0.26570 0.24007
 H1264 H 0.39205 0.25296 0.28742
 H1265 H 0.34505 0.33501 0.24103
 H1266 H 0.39398 0.34694 0.19353
 H1267 H 0.38356 0.24442 0.14092
 H1268 H 0.33386 0.22824 0.18668
 C1269 C 0.40672 0.71485 0.31270
 C1270 C 0.37975 0.74214 0.32998
 C1271 C 0.35211 0.75044 0.30463
 C1272 C 0.35067 0.72949 0.26301
 C1273 C 0.38839 0.73820 0.24407
 C1274 C 0.41758 0.73105 0.26999
 C1275 C 0.38458 0.68128 0.30140
 C1276 C 0.35681 0.68834 0.27525
 H1277 H 0.38345 0.75610 0.35912
 H1278 H 0.33384 0.77231 0.31315
 H1279 H 0.39212 0.74742 0.21269
 H1280 H 0.44568 0.73464 0.26027
 H1281 H 0.39363 0.65349 0.30668
 H1282 H 0.34481 0.66543 0.25901
 C1283 C 0.90608 0.21449 0.81409
 C1284 C 0.87906 0.24174 0.83132
 C1285 C 0.85143 0.24997 0.80594
 C1286 C 0.85006 0.22899 0.76435
 C1287 C 0.88777 0.23776 0.74543
 C1288 C 0.91695 0.23068 0.77138
 C1289 C 0.88400 0.18087 0.80281
 C1290 C 0.85623 0.18787 0.77663
 H1291 H 0.88266 0.25568 0.86050
 H1292 H 0.83309 0.27174 0.81450
 H1293 H 0.89151 0.24692 0.71403
 H1294 H 0.94505 0.23428 0.76167
 H1295 H 0.89309 0.15310 0.80814
 H1296 H 0.84426 0.16493 0.76041
 C1297 C 0.61537 0.99971 0.62496
 C1298 C 0.58003 1.02114 0.62955
 C1299 C 0.55571 1.01586 0.59885
 C1300 C 0.56851 0.99098 0.56246
 C1301 C 0.60702 1.00628 0.55237
 C1302 C 0.63073 1.00933 0.58309
 C1303 C 0.60209 0.95964 0.61858
 C1304 C 0.57772 0.95522 0.58597
 H1305 H 0.57265 1.03569 0.65740
 H1306 H 0.52789 1.02487 0.60383
 H1307 H 0.61601 1.01558 0.52331
 H1308 H 0.65889 1.01696 0.57703
 H1309 H 0.61076 0.93700 0.63776
 H1310 H 0.56565 0.92907 0.57850
 C1311 C 0.11485 0.49876 1.12537
 C1312 C 0.07964 0.52029 1.13037
 C1313 C 0.05518 0.51537 1.09971
 C1314 C 0.06782 0.49070 1.06309
 C1315 C 0.10634 0.50599 1.05304
 C1316 C 0.13011 0.50874 1.08369
 C1317 C 0.10145 0.45884 1.11877
 C1318 C 0.07694 0.45474 1.08625
 H1319 H 0.07252 0.53465 1.15841
 H1320 H 0.02743 0.52454 1.10478
 H1321 H 0.11524 0.51582 1.02418
 H1322 H 0.15826 0.51641 1.07769
 H1323 H 0.10996 0.43615 1.13794
 H1324 H 0.06457 0.42872 1.07879
 C1325 C -0.11526 -0.00062 1.12598
 C1326 C -0.08008 -0.02237 1.13050
 C1327 C -0.05576 -0.01713 1.09980
 C1328 C -0.06842 0.00807 1.06351
 C1329 C -0.10706 -0.00688 1.05341
 C1330 C -0.13076 -0.00987 1.08409
 C1331 C -0.10167 0.03938 1.11973
 C1332 C -0.07730 0.04377 1.08712
 H1333 H -0.07281 -0.03714 1.15831
 H1334 H -0.02803 -0.02644 1.10471
 H1335 H -0.11605 -0.01639 1.02447
 H1336 H -0.15892 -0.01760 1.07810
 H1337 H -0.11015 0.06200 1.13893
 H1338 H -0.06506 0.06987 1.07969
 C1339 C 0.38469 0.50024 0.62520
 C1340 C 0.41991 0.47858 0.62991
 C1341 C 0.44426 0.48371 0.59922
 C1342 C 0.43161 0.50869 0.56274
 C1343 C 0.39301 0.49362 0.55265
 C1344 C 0.36928 0.49071 0.58334
 C1345 C 0.39822 0.54023 0.61869
 C1346 C 0.42262 0.54449 0.58610
 H1347 H 0.42718 0.46396 0.65782
 H1348 H 0.47201 0.47448 0.60423
 H1349 H 0.38402 0.48417 0.52368
 H1350 H 0.34110 0.48311 0.57729
 H1351 H 0.38967 0.56292 0.63775
 H1352 H 0.43484 0.57058 0.57855
 C1353 C 0.38554 0.49932 -0.12603
 C1354 C 0.39860 0.45930 -0.11912
 C1355 C 0.42285 0.45506 -0.08637
 C1356 C 0.43209 0.49097 -0.06329
 C1357 C 0.44515 0.51552 -0.09995
 C1358 C 0.42094 0.52061 -0.13080
 C1359 C 0.37007 0.50941 -0.08451
 C1360 C 0.39357 0.50640 -0.05357
 H1361 H 0.39000 0.43664 -0.13823
 H1362 H 0.43489 0.42895 -0.07861
 H1363 H 0.47303 0.52438 -0.10493
 H1364 H 0.42839 0.53486 -0.15887
 H1365 H 0.34187 0.51701 -0.07880
 H1366 H 0.38435 0.51556 -0.02456
 C1367 C -0.11525 0.99809 0.37414
 C1368 C -0.07987 1.01941 0.36928
 C1369 C -0.05566 1.01445 0.40015
 C1370 C -0.06869 0.99000 0.43691
 C1371 C -0.10719 1.00542 0.44654
 C1372 C -0.13072 1.00824 0.41564
 C1373 C -0.10214 0.95811 0.38117
 C1374 C -0.07789 0.95400 0.41396
 H1375 H -0.07243 1.03357 0.34115
 H1376 H -0.02778 1.02331 0.39513
 H1377 H -0.11634 1.01495 0.47539
 H1378 H -0.15891 1.01588 0.42133
 H1379 H -0.11069 0.93540 0.36212
 H1380 H -0.06578 0.92794 0.42178
 C1381 C 0.11517 0.50171 0.37478
 C1382 C 0.07980 0.48041 0.36966
 C1383 C 0.05540 0.48537 0.40031
 C1384 C 0.06825 0.50982 0.43706
 C1385 C 0.10669 0.49431 0.44709
 C1386 C 0.13040 0.49149 0.41642
 C1387 C 0.10207 0.54170 0.38156
 C1388 C 0.07762 0.54582 0.41408
 H1389 H 0.07254 0.46622 0.34153
 H1390 H 0.02757 0.47644 0.39515
 H1391 H 0.11564 0.48461 0.47602
 H1392 H 0.15852 0.48375 0.42240
 H1393 H 0.11077 0.56441 0.36253
 H1394 H 0.06550 0.57188 0.42172
 C1395 C 0.61473 0.00186 -0.12561
 C1396 C 0.57930 -0.01937 -0.13041
 C1397 C 0.55509 -0.01429 -0.09962
 C1398 C 0.56818 0.01017 -0.06297
 C1399 C 0.60666 -0.00532 -0.05314
 C1400 C 0.63017 -0.00831 -0.08402
 C1401 C 0.60173 0.04189 -0.11880
 C1402 C 0.57748 0.04611 -0.08610
 H1403 H 0.57182 -0.03355 -0.15848
 H1404 H 0.52719 -0.02307 -0.10466
 H1405 H 0.61594 -0.01432 -0.02402
 H1406 H 0.65840 -0.01572 -0.07818
 H1407 H 0.61035 0.06455 -0.13796
 H1408 H 0.56545 0.07222 -0.07844
 C1409 C 0.63181 0.57996 0.00128
 C1410 C 0.62205 0.56823 -0.04367
 C1411 C 0.58792 0.55095 -0.04725
 C1412 C 0.56711 0.54662 -0.00571
 C1413 C 0.59632 0.52643 0.01955
 C1414 C 0.62842 0.54427 0.02529
 C1415 C 0.59877 0.60305 0.01214
 C1416 C 0.56694 0.58605 0.00952
 H1417 H 0.63977 0.57302 -0.06983
 H1418 H 0.57731 0.54109 -0.07632
 H1419 H 0.59474 0.49741 0.02574
 H1420 H 0.65174 0.53072 0.03916
 H1421 H 0.59936 0.63254 0.01580
 H1422 H 0.54346 0.60246 0.01283
 C1423 C 0.13084 1.07894 0.50002
 C1424 C 0.12802 1.04277 0.52315
 C1425 C 0.09581 1.02498 0.51783
 C1426 C 0.06614 1.04571 0.49382
 C1427 C 0.06625 1.08479 0.51013
 C1428 C 0.09810 1.10171 0.51242
 C1429 C 0.12023 1.06818 0.45507
 C1430 C 0.08611 1.05090 0.45189
 H1431 H 0.15164 1.02911 0.53617
 H1432 H 0.09420 0.99590 0.52363
 H1433 H 0.04282 1.10124 0.51399
 H1434 H 0.09867 1.13118 0.51615
 H1435 H 0.13756 1.07339 0.42869
 H1436 H 0.07506 1.04141 0.42287
 C1437 C 0.13114 -0.08013 0.99864
 C1438 C 0.09831 -0.10305 0.98676
 C1439 C 0.06642 -0.08621 0.98949
 C1440 C 0.06648 -0.04700 1.00547
 C1441 C 0.08695 -0.05188 1.04715
 C1442 C 0.12103 -0.06910 1.04364
 C1443 C 0.12802 -0.04413 0.97524
 C1444 C 0.09586 -0.02640 0.98083
 H1445 H 0.09895 -0.13250 0.98291
 H1446 H 0.04294 -0.10272 0.98609
 H1447 H 0.07619 -0.04232 1.07625
 H1448 H 0.13864 -0.07417 1.06985
 H1449 H 0.15148 -0.03049 0.96182
 H1450 H 0.09425 0.00265 0.97489
 C1451 C 0.63145 0.42011 0.49838
 C1452 C 0.62179 0.43196 0.54329
 C1453 C 0.58769 0.44923 0.54685
 C1454 C 0.56679 0.45342 0.50532
 C1455 C 0.59597 0.47355 0.47995
 C1456 C 0.62804 0.45571 0.47423
 C1457 C 0.59837 0.39695 0.48763
 C1458 C 0.56656 0.41393 0.49025
 H1459 H 0.63956 0.42725 0.56945
 H1460 H 0.57714 0.45916 0.57589
 H1461 H 0.59442 0.50254 0.47366
 H1462 H 0.65134 0.46924 0.46029
 H1463 H 0.59891 0.36744 0.48421
 H1464 H 0.54306 0.39746 0.48715
 C1465 C -0.13202 0.42202 0.50033
 C1466 C -0.09939 0.39867 0.51186
 C1467 C -0.06734 0.41529 0.50942
 C1468 C -0.06705 0.45469 0.49391
 C1469 C -0.08755 0.45049 0.45216
 C1470 C -0.12183 0.43352 0.45546
 C1471 C -0.12855 0.45768 0.52415
 C1472 C -0.09624 0.47522 0.51876
 H1473 H -0.10033 0.36918 0.51536
 H1474 H -0.04401 0.39858 0.51271
 H1475 H -0.07666 0.46027 0.42317
 H1476 H -0.13948 0.42890 0.42919
 H1477 H -0.15189 0.47138 0.53767
 H1478 H -0.09441 0.50420 0.52493
 C1479 C 0.36856 -0.07867 0.00044
 C1480 C 0.40131 -0.10171 0.01226
 C1481 C 0.43323 -0.08485 0.00982
 C1482 C 0.43328 -0.04550 -0.00587
 C1483 C 0.41296 -0.05002 -0.04768
 C1484 C 0.37881 -0.06727 -0.04444
 C1485 C 0.37166 -0.04288 0.02410
 C1486 C 0.40385 -0.02511 0.01876
 H1487 H 0.40055 -0.13117 0.01612
 H1488 H 0.45665 -0.10136 0.01335
 H1489 H 0.42385 -0.04024 -0.07667
 H1490 H 0.36129 -0.07211 -0.07076
 H1491 H 0.34817 -0.02934 0.03749
 H1492 H 0.40547 0.00390 0.02485
 C1493 C 0.36855 1.07892 0.49870
 C1494 C 0.40128 1.10161 0.48592
 C1495 C 0.43313 1.08475 0.48842
 C1496 C 0.43325 1.04576 0.50522
 C1497 C 0.41332 1.05121 0.54711
 C1498 C 0.37922 1.06848 0.54376
 C1499 C 0.37131 1.04259 0.47602
 C1500 C 0.40351 1.02485 0.48153
 H1501 H 0.40072 1.13104 0.48170
 H1502 H 0.45657 1.10120 0.48433
 H1503 H 0.42436 1.04188 0.57622
 H1504 H 0.36192 1.07383 0.57011
 H1505 H 0.34765 1.02883 0.46319
 H1506 H 0.40510 0.99574 0.47605
 C1507 C -0.13197 0.57920 0.99909
 C1508 C -0.12155 0.56851 1.04416
 C1509 C -0.08742 0.55131 1.04764
 C1510 C -0.06724 0.54614 1.00586
 C1511 C -0.09680 0.52534 0.98177
 C1512 C -0.12899 0.54303 0.97616
 C1513 C -0.09920 0.60205 0.98674
 C1514 C -0.06731 0.58523 0.98940
 H1515 H -0.13899 0.57371 1.07042
 H1516 H -0.07648 0.54191 1.07677
 H1517 H -0.09516 0.49625 0.97613
 H1518 H -0.15254 0.52929 0.96306
 H1519 H -0.09982 0.63150 0.98275
 H1520 H -0.04385 0.60175 0.98572
 C1521 C 0.02729 0.63918 0.57495
 C1522 C 0.03410 0.60768 0.60401
 C1523 C 0.03111 0.57478 0.58682
 C1524 C 0.02208 0.57377 0.53995
 C1525 C -0.01361 0.59627 0.53859
 C1526 C -0.01111 0.63022 0.55684
 C1527 C 0.05312 0.63336 0.53854
 C1528 C 0.04937 0.60030 0.51962
 H1529 H 0.03506 0.61050 0.63725
 H1530 H 0.02756 0.55267 0.60838
 H1531 H -0.03874 0.58639 0.52490
 H1532 H -0.03455 0.64813 0.55885
 H1533 H 0.06833 0.65553 0.52449
 H1534 H 0.05878 0.59720 0.48838
 C1535 C 0.52773 0.13958 0.07459
 C1536 C 0.53423 0.10813 0.10381
 C1537 C 0.53099 0.07522 0.08675
 C1538 C 0.52211 0.07414 0.03984
 C1539 C 0.48657 0.09685 0.03829
 C1540 C 0.48928 0.13084 0.05641
 C1541 C 0.55358 0.13348 0.03828
 C1542 C 0.54959 0.10041 0.01947
 H1543 H 0.53507 0.11106 0.13704
 H1544 H 0.52708 0.05325 0.10841
 H1545 H 0.46140 0.08706 0.02460
 H1546 H 0.46595 0.14891 0.05833
 H1547 H 0.56894 0.15550 0.02416
 H1548 H 0.55896 0.09718 -0.01177
 C1549 C -0.02786 0.13856 0.92618
 C1550 C 0.01073 0.12948 0.94372
 C1551 C 0.01337 0.09539 0.96174
 C1552 C -0.02236 0.07290 0.96074
 C1553 C -0.04937 0.09928 0.98159
 C1554 C -0.05330 0.13246 0.96290
 C1555 C -0.03500 0.10728 0.89703
 C1556 C -0.03184 0.07426 0.91399
 H1557 H 0.03417 0.14742 0.94147
 H1558 H 0.03864 0.08539 0.97504
 H1559 H -0.05849 0.09590 1.01293
 H1560 H -0.06834 0.15452 0.97727
 H1561 H -0.03613 0.11033 0.86381
 H1562 H -0.02833 0.05238 0.89224
 C1563 C 0.47244 0.63874 0.42503
 C1564 C 0.51098 0.62969 0.44273
 C1565 C 0.51358 0.59566 0.46089
 C1566 C 0.47785 0.57317 0.45983
 C1567 C 0.45076 0.59959 0.48048
 C1568 C 0.44689 0.63273 0.46168
 C1569 C 0.46536 0.60739 0.39596
 C1570 C 0.46850 0.57441 0.41304
 H1571 H 0.53445 0.64759 0.44046
 H1572 H 0.53881 0.58570 0.47428
 H1573 H 0.44151 0.59626 0.51178
 H1574 H 0.43178 0.65481 0.47590
 H1575 H 0.46427 0.61036 0.36273
 H1576 H 0.47208 0.55246 0.39138
 C1577 C 0.52808 0.86071 0.42546
 C1578 C 0.53482 0.89207 0.39617
 C1579 C 0.53158 0.92505 0.41308
 C1580 C 0.52243 0.92628 0.45990
 C1581 C 0.48685 0.90358 0.46124
 C1582 C 0.48956 0.86954 0.44328
 C1583 C 0.55376 0.86692 0.46196
 C1584 C 0.54977 0.90006 0.48060
 H1585 H 0.53583 0.88905 0.36296
 H1586 H 0.52784 0.94696 0.39132
 H1587 H 0.46162 0.91341 0.47469
 H1588 H 0.46620 0.85149 0.44124
 H1589 H 0.56905 0.84494 0.47626
 H1590 H 0.55910 0.90345 0.51186
 C1591 C 0.02702 0.36113 0.92565
 C1592 C 0.03416 0.39255 0.89657
 C1593 C 0.03103 0.42549 0.91361
 C1594 C 0.02157 0.42661 0.96034
 C1595 C -0.01419 0.40414 0.96125
 C1596 C -0.01156 0.37014 0.94315
 C1597 C 0.05247 0.36703 0.96242
 C1598 C 0.04857 0.40013 0.98117
 H1599 H 0.03526 0.38967 0.86335
 H1600 H 0.02752 0.44750 0.89192
 H1601 H -0.03944 0.41408 0.97453
 H1602 H -0.03501 0.35222 0.94080
 H1603 H 0.06750 0.34490 0.97676
 H1604 H 0.05769 0.40334 1.01252
 C1605 C 0.47266 0.36141 0.07498
 C1606 C 0.46584 0.39285 0.10399
 C1607 C 0.46899 0.42578 0.08679
 C1608 C 0.47809 0.42688 0.03994
 C1609 C 0.51374 0.40435 0.03877
 C1610 C 0.51114 0.37037 0.05705
 C1611 C 0.44694 0.36736 0.03845
 C1612 C 0.45081 0.40045 0.01951
 H1613 H 0.46489 0.38995 0.13723
 H1614 H 0.47272 0.44778 0.10837
 H1615 H 0.53893 0.41425 0.02522
 H1616 H 0.53456 0.35244 0.05926
 H1617 H 0.43171 0.34526 0.02435
 H1618 H 0.44147 0.40366 -0.01177
 C1619 C -0.02847 0.86088 0.57571
 C1620 C -0.05373 0.86655 0.53870
 C1621 C -0.04981 0.89961 0.51968
 C1622 C -0.02293 0.92627 0.54042
 C1623 C -0.03269 0.92530 0.58709
 C1624 C -0.03587 0.89242 0.60442
 C1625 C 0.01018 0.86998 0.55840
 C1626 C 0.01285 0.90389 0.53999
 H1627 H -0.06874 0.84434 0.52452
 H1628 H -0.05896 0.90276 0.48831
 H1629 H -0.02940 0.94742 0.60859
 H1630 H -0.03722 0.88967 0.63766
 H1631 H 0.03366 0.85216 0.56109
 H1632 H 0.03817 0.91384 0.52680
 C1633 C 0.24979 0.36555 0.12484
 C1634 C 0.25949 0.38079 0.16671
 C1635 C 0.25640 0.35703 0.19739
 C1636 C 0.24102 0.31857 0.18727
 C1637 C 0.20525 0.32789 0.16385
 C1638 C 0.20968 0.35233 0.13129
 C1639 C 0.27118 0.33020 0.12015
 C1640 C 0.26587 0.30582 0.15082
 H1641 H 0.26720 0.40891 0.17280
 H1642 H 0.26577 0.36594 0.22644
 H1643 H 0.17906 0.31588 0.17139
 H1644 H 0.18703 0.36111 0.11221
 H1645 H 0.28572 0.32288 0.09226
 H1646 H 0.27487 0.27802 0.14580
 C1647 C 0.74927 0.86543 0.62469
 C1648 C 0.70925 0.85228 0.63150
 C1649 C 0.70505 0.82791 0.66415
 C1650 C 0.74101 0.81866 0.68724
 C1651 C 0.76555 0.80578 0.65059
 C1652 C 0.77058 0.83010 0.61981
 C1653 C 0.75943 0.88075 0.66627
 C1654 C 0.75651 0.85712 0.69708
 H1655 H 0.68656 0.86089 0.61237
 H1656 H 0.67896 0.81576 0.67178
 H1657 H 0.77451 0.77796 0.64561
 H1658 H 0.78485 0.82280 0.59175
 H1659 H 0.76726 0.90886 0.67207
 H1660 H 0.76618 0.86609 0.72596
 C1661 C 0.25174 0.63541 0.62456
 C1662 C 0.24181 0.61986 0.66613
 C1663 C 0.24464 0.64338 0.69694
 C1664 C 0.25992 0.68195 0.68717
 C1665 C 0.29587 0.67297 0.66401
 C1666 C 0.29171 0.64872 0.63131
 C1667 C 0.23024 0.67066 0.61976
 C1668 C 0.23523 0.69487 0.65057
 H1669 H 0.23412 0.59168 0.67192
 H1670 H 0.23490 0.63427 0.72574
 H1671 H 0.32192 0.68523 0.67161
 H1672 H 0.31439 0.64033 0.61212
 H1673 H 0.21590 0.67801 0.59172
 H1674 H 0.22616 0.72267 0.64562
 C1675 C 0.75098 0.13447 0.12504
 C1676 C 0.74145 0.11899 0.16687
 C1677 C 0.74457 0.14258 0.19759
 C1678 C 0.75992 0.18108 0.18764
 C1679 C 0.79565 0.17188 0.16414
 C1680 C 0.79112 0.14765 0.13145
 C1681 C 0.72960 0.16986 0.12050
 C1682 C 0.73501 0.19406 0.15123
 H1683 H 0.73364 0.09087 0.17287
 H1684 H 0.73491 0.13358 0.22644
 H1685 H 0.82188 0.18376 0.17177
 H1686 H 0.81372 0.13894 0.11233
 H1687 H 0.71505 0.17737 0.09263
 H1688 H 0.72610 0.22191 0.14626
 C1689 C 0.74804 0.13503 0.87591
 C1690 C 0.70800 0.14803 0.86900
 C1691 C 0.70378 0.17235 0.83629
 C1692 C 0.73975 0.18170 0.81330
 C1693 C 0.76420 0.19470 0.85003
 C1694 C 0.76928 0.17042 0.88081
 C1695 C 0.75822 0.11969 0.83435
 C1696 C 0.75526 0.14327 0.80350
 H1697 H 0.68532 0.13937 0.88810
 H1698 H 0.67767 0.18442 0.82858
 H1699 H 0.77295 0.22258 0.85513
 H1700 H 0.78344 0.17783 0.90894
 H1701 H 0.76565 0.09149 0.82851
 H1702 H 0.76439 0.13411 0.77445
 C1703 C 0.24865 0.63541 0.37458
 C1704 C 0.20865 0.64852 0.36766
 C1705 C 0.20452 0.67292 0.33503
 C1706 C 0.24051 0.68224 0.31206
 C1707 C 0.26501 0.69512 0.34881
 C1708 C 0.26998 0.67077 0.37958
 C1709 C 0.25885 0.62015 0.33302
 C1710 C 0.25602 0.64381 0.30224
 H1711 H 0.18595 0.63991 0.38674
 H1712 H 0.17845 0.68512 0.32741
 H1713 H 0.27398 0.72294 0.35385
 H1714 H 0.28422 0.67805 0.40770
 H1715 H 0.26655 0.59203 0.32715
 H1716 H 0.26572 0.63485 0.27338
 C1717 C 0.75221 0.86530 0.37499
 C1718 C 0.79228 0.85233 0.36824
 C1719 C 0.79655 0.82794 0.33571
 C1720 C 0.76061 0.81847 0.31268
 C1721 C 0.73614 0.80553 0.34942
 C1722 C 0.73101 0.82987 0.38006
 C1723 C 0.74202 0.88052 0.33334
 C1724 C 0.74503 0.85689 0.30264
 H1725 H 0.81495 0.86114 0.38726
 H1726 H 0.82271 0.81601 0.32799
 H1727 H 0.72733 0.77766 0.35460
 H1728 H 0.71680 0.82252 0.40817
 H1729 H 0.73430 0.90864 0.32734
 H1730 H 0.73559 0.86593 0.27363
 C1731 C 0.25098 0.36453 0.87586
 C1732 C 0.24092 0.38008 0.83429
 C1733 C 0.24374 0.35660 0.80342
 C1734 C 0.25904 0.31804 0.81322
 C1735 C 0.29503 0.32707 0.83635
 C1736 C 0.29094 0.35130 0.86905
 C1737 C 0.22950 0.32924 0.88065
 C1738 C 0.23443 0.30506 0.84984
 H1739 H 0.23346 0.40831 0.82851
 H1740 H 0.23449 0.36586 0.77440
 H1741 H 0.32108 0.31489 0.82868
 H1742 H 0.31366 0.35975 0.88821
 H1743 H 0.21521 0.32185 0.90870
 H1744 H 0.22539 0.27723 0.85480
 C1745 C 0.82844 0.38144 0.75021
 C1746 C 0.79246 0.37843 0.72676
 C1747 C 0.77472 0.34622 0.73213
 C1748 C 0.79532 0.31670 0.75651
 C1749 C 0.83457 0.31685 0.74057
 C1750 C 0.85141 0.34875 0.73820
 C1751 C 0.81734 0.37099 0.79513
 C1752 C 0.80012 0.33684 0.79837
 H1753 H 0.77881 0.40196 0.71353
 H1754 H 0.74565 0.34459 0.72618
 H1755 H 0.85110 0.29346 0.73693
 H1756 H 0.88090 0.34946 0.73446
 H1757 H 0.82233 0.38840 0.82146
 H1758 H 0.79048 0.32585 0.82737
 C1759 C 0.32914 0.88217 0.24830
 C1760 C 0.29355 0.87881 0.22411
 C1761 C 0.27574 0.84668 0.22965
 C1762 C 0.29589 0.81743 0.25490
 C1763 C 0.33539 0.81738 0.23979
 C1764 C 0.35236 0.84921 0.23744
 C1765 C 0.31724 0.87225 0.29315
 C1766 C 0.30001 0.83809 0.29653
 H1767 H 0.28000 0.90216 0.21030
 H1768 H 0.24673 0.84508 0.22337
 H1769 H 0.35187 0.79395 0.23638
 H1770 H 0.38188 0.84987 0.23391
 H1771 H 0.32190 0.88987 0.31939
 H1772 H 0.29004 0.82735 0.32552
 C1773 C 0.17091 0.88097 0.75032
 C1774 C 0.20709 0.87830 0.77346
 C1775 C 0.22492 0.84612 0.76833
 C1776 C 0.20424 0.81637 0.74446
 C1777 C 0.16514 0.81639 0.76085
 C1778 C 0.14817 0.84820 0.76297
 C1779 C 0.18170 0.87030 0.70544
 C1780 C 0.19904 0.83625 0.70244
 H1781 H 0.22072 0.90197 0.78637
 H1782 H 0.25401 0.84460 0.77417
 H1783 H 0.14872 0.79291 0.76486
 H1784 H 0.11870 0.84870 0.76679
 H1785 H 0.17648 0.88755 0.67897
 H1786 H 0.20857 0.82519 0.67347
 C1787 C 0.67234 0.38080 0.25094
 C1788 C 0.68370 0.37043 0.20612
 C1789 C 0.70084 0.33627 0.20304
 C1790 C 0.70532 0.31601 0.24494
 C1791 C 0.72585 0.34544 0.26949
 C1792 C 0.70817 0.37767 0.27468
 C1793 C 0.64921 0.34810 0.26280
 C1794 C 0.66598 0.31618 0.26055
 H1795 H 0.67893 0.38792 0.17974
 H1796 H 0.71062 0.32534 0.17412
 H1797 H 0.75486 0.34372 0.27574
 H1798 H 0.72179 0.40115 0.28805
 H1799 H 0.61970 0.34881 0.26620
 H1800 H 0.64932 0.29281 0.26394
 C1801 C 0.67229 0.61857 0.24972
 C1802 C 0.70789 0.62192 0.22569
 C1803 C 0.72558 0.65414 0.23097
 C1804 C 0.70524 0.68338 0.25593
 C1805 C 0.66577 0.68324 0.24067
 C1806 C 0.64901 0.65128 0.23833
 C1807 C 0.68401 0.62868 0.29452
 C1808 C 0.70113 0.66287 0.29772
 H1809 H 0.72145 0.59855 0.21208
 H1810 H 0.75456 0.65588 0.22461
 H1811 H 0.64911 0.70660 0.23747
 H1812 H 0.61949 0.65045 0.23501
 H1813 H 0.67943 0.61104 0.32082
 H1814 H 0.71107 0.67370 0.32664
 C1815 C 0.17009 0.11868 0.74863
 C1816 C 0.14718 0.15145 0.73656
 C1817 C 0.16402 0.18336 0.73933
 C1818 C 0.20321 0.18338 0.75553
 C1819 C 0.19822 0.16294 0.79722
 C1820 C 0.18100 0.12883 0.79368
 C1821 C 0.20617 0.12185 0.72546
 C1822 C 0.22389 0.15402 0.73111
 H1823 H 0.11772 0.15076 0.73258
 H1824 H 0.14750 0.20681 0.73584
 H1825 H 0.20774 0.17371 0.82635
 H1826 H 0.17589 0.11123 0.81989
 H1827 H 0.21986 0.09842 0.71215
 H1828 H 0.25297 0.15570 0.72531
 C1829 C 0.32870 0.11841 0.25114
 C1830 C 0.29252 0.12142 0.27413
 C1831 C 0.27490 0.15366 0.26859
 C1832 C 0.29577 0.18321 0.24452
 C1833 C 0.33489 0.18302 0.26094
 C1834 C 0.35163 0.15108 0.26354
 C1835 C 0.31802 0.12896 0.20611
 C1836 C 0.30090 0.16312 0.20271
 H1837 H 0.27872 0.09790 0.28720
 H1838 H 0.24580 0.15536 0.27428
 H1839 H 0.35149 0.20641 0.26458
 H1840 H 0.38110 0.15038 0.26750
 H1841 H 0.32319 0.11157 0.17981
 H1842 H 0.29153 0.17414 0.17360
 C1843 C 0.82926 0.61900 0.75113
 C1844 C 0.85199 0.65168 0.76389
 C1845 C 0.83517 0.68354 0.76132
 C1846 C 0.79620 0.68369 0.74448
 C1847 C 0.80171 0.66377 0.70262
 C1848 C 0.81892 0.62966 0.70604
 C1849 C 0.79287 0.62180 0.77376
 C1850 C 0.77519 0.65400 0.76818
 H1851 H 0.88143 0.65108 0.76812
 H1852 H 0.85165 0.70695 0.76537
 H1853 H 0.79246 0.67482 0.67348
 H1854 H 0.82431 0.61236 0.67973
 H1855 H 0.77905 0.59818 0.78660
 H1856 H 0.74605 0.65563 0.77361
 C1857 C 0.89001 0.77678 0.17412
 C1858 C 0.85833 0.78313 0.14503
 C1859 C 0.82547 0.78050 0.16243
 C1860 C 0.82456 0.77202 0.20946
 C1861 C 0.84701 0.73634 0.21128
 C1862 C 0.88094 0.73854 0.19287
 C1863 C 0.88421 0.80300 0.21019
 C1864 C 0.85117 0.79947 0.22926
 H1865 H 0.86100 0.78365 0.11174
 H1866 H 0.80327 0.77692 0.14101
 H1867 H 0.83698 0.71132 0.22512
 H1868 H 0.89845 0.71482 0.19077
 H1869 H 0.90640 0.81829 0.22407
 H1870 H 0.84823 0.80906 0.26046
 C1871 C 0.38852 0.27727 0.67563
 C1872 C 0.38255 0.30315 0.71192
 C1873 C 0.34942 0.29938 0.73072
 C1874 C 0.32299 0.27208 0.71036
 C1875 C 0.32417 0.28099 0.66345
 C1876 C 0.35714 0.28399 0.64640
 C1877 C 0.37952 0.23890 0.69383
 C1878 C 0.34548 0.23642 0.71194
 H1879 H 0.40468 0.31834 0.72604
 H1880 H 0.34623 0.30875 0.76195
 H1881 H 0.30218 0.27730 0.64178
 H1882 H 0.36010 0.28481 0.61316
 H1883 H 0.39745 0.21547 0.69194
 H1884 H 0.33552 0.21132 0.72566
 C1885 C 0.38950 0.72207 0.82538
 C1886 C 0.38030 0.76082 0.80839
 C1887 C 0.34631 0.76351 0.79014
 C1888 C 0.32402 0.72765 0.79040
 C1889 C 0.35071 0.70108 0.76933
 C1890 C 0.38381 0.69711 0.78820
 C1891 C 0.35804 0.71435 0.85416
 C1892 C 0.32512 0.71755 0.83700
 H1893 H 0.39809 0.78432 0.81118
 H1894 H 0.33627 0.78888 0.77717
 H1895 H 0.34754 0.69225 0.73787
 H1896 H 0.40605 0.68234 0.77381
 H1897 H 0.36086 0.71280 0.88738
 H1898 H 0.30306 0.72064 0.85864
 C1899 C 0.88996 0.22120 0.32670
 C1900 C 0.88078 0.25987 0.30921
 C1901 C 0.84687 0.26243 0.29076
 C1902 C 0.82448 0.22666 0.29134
 C1903 C 0.85115 0.19980 0.27072
 C1904 C 0.88421 0.19591 0.28975
 C1905 C 0.85826 0.21396 0.35547
 C1906 C 0.82539 0.21698 0.33806
 H1907 H 0.89823 0.28360 0.31220
 H1908 H 0.83682 0.28778 0.27774
 H1909 H 0.84808 0.19074 0.23932
 H1910 H 0.90641 0.18094 0.27552
 H1911 H 0.86087 0.21269 0.38874
 H1912 H 0.80321 0.22015 0.35952
 C1913 C 0.11055 0.27745 0.32460
 C1914 C 0.14194 0.28416 0.35384
 C1915 C 0.17495 0.28114 0.33683
 C1916 C 0.17620 0.27222 0.28996
 C1917 C 0.15358 0.23659 0.28848
 C1918 C 0.11952 0.23909 0.30653
 C1919 C 0.11667 0.30334 0.28822
 C1920 C 0.14985 0.29959 0.26950
 H1921 H 0.13892 0.28510 0.38705
 H1922 H 0.19695 0.27752 0.35851
 H1923 H 0.16346 0.21149 0.27484
 H1924 H 0.10153 0.21567 0.30843
 H1925 H 0.09463 0.31863 0.27406
 H1926 H 0.15319 0.30912 0.23830
 C1927 C 0.61123 0.77791 0.82513
 C1928 C 0.64270 0.78512 0.85408
 C1929 C 0.67563 0.78206 0.83694
 C1930 C 0.67671 0.77258 0.79021
 C1931 C 0.65427 0.73682 0.78941
 C1932 C 0.62029 0.73938 0.80762
 C1933 C 0.61703 0.80338 0.78832
 C1934 C 0.65013 0.79955 0.76946
 H1935 H 0.63986 0.78629 0.88731
 H1936 H 0.69768 0.77865 0.85858
 H1937 H 0.66422 0.71160 0.77610
 H1938 H 0.60242 0.71590 0.81003
 H1939 H 0.59485 0.81840 0.77407
 H1940 H 0.65330 0.80876 0.73811
 C1941 C 0.61044 0.22213 0.67527
 C1942 C 0.61920 0.26062 0.69320
 C1943 C 0.65318 0.26335 0.71146
 C1944 C 0.67586 0.22780 0.71026
 C1945 C 0.64952 0.20043 0.73071
 C1946 C 0.61646 0.19642 0.71179
 C1947 C 0.64193 0.21550 0.64623
 C1948 C 0.67484 0.21876 0.66342
 H1949 H 0.60115 0.28395 0.69099
 H1950 H 0.66298 0.28855 0.72500
 H1951 H 0.65275 0.19109 0.76200
 H1952 H 0.59440 0.18111 0.72590
 H1953 H 0.63906 0.21466 0.61299
 H1954 H 0.69683 0.22267 0.64183
 C1955 C 0.11085 0.72182 0.17417
 C1956 C 0.11693 0.69660 0.21113
 C1957 C 0.15003 0.70084 0.22993
 C1958 C 0.17636 0.72796 0.20901
 C1959 C 0.17528 0.71829 0.16233
 C1960 C 0.14233 0.71477 0.14523
 C1961 C 0.11966 0.76053 0.19143
 C1962 C 0.15366 0.76351 0.20961
 H1963 H 0.09491 0.68141 0.22549
 H1964 H 0.15337 0.69179 0.26131
 H1965 H 0.19728 0.72196 0.14070
 H1966 H 0.13943 0.71346 0.11201
 H1967 H 0.10162 0.78384 0.18883
 H1968 H 0.16347 0.78890 0.22269
   
