data_POSCAR
  _audit_creation_date              2014-09-24
  _audit_creation_method            'ToBaCCo'
  _symmetry_space_group_name_H-M    'P1'
  _symmetry_Int_Tables_number       1
  _symmetry_cell_setting            triclinic
  loop_
  _symmetry_equiv_pos_as_xyz
 x,y,z
_cell_length_a 30.5362
_cell_length_b 30.6605
_cell_length_c 35.5819
_cell_angle_alpha 89.891900
_cell_angle_beta 89.975800
_cell_angle_gamma 89.925600
loop_
  _atom_site_label
  _atom_site_type_symbol
  _atom_site_fract_x
  _atom_site_fract_y
  _atom_site_fract_z
Zr1 Zr 0.24082 0.24371 0.31549
 O2 O 0.25517 0.25896 0.37227
 O3 O 0.19567 0.19763 0.33740
 O4 O 0.20436 0.29096 0.34606
 O5 O 0.33245 0.17628 0.30184
 O6 O 0.16927 0.33160 0.30159
 O7 O 0.29205 0.21261 0.34564
 O8 O 0.16144 0.16691 0.28720
 O9 O 0.18622 0.24730 0.27995
 O10 O 0.24574 0.18946 0.28001
 O11 O 0.24701 0.30408 0.28736
 O12 O 0.30200 0.24867 0.28803
 Zr13 Zr 0.25627 0.25962 0.18476
 Zr14 Zr 0.19347 0.30634 0.25017
 Zr15 Zr 0.30446 0.19620 0.25008
 Zr16 Zr 0.19344 0.19486 0.24237
 O17 O 0.37356 0.20109 0.24783
 O18 O 0.12480 0.20376 0.23635
 O19 O 0.25161 0.19860 0.21220
 O20 O 0.19576 0.25317 0.21291
 O21 O 0.25264 0.31384 0.22038
 O22 O 0.31091 0.25478 0.22015
 C23 C 0.16782 0.17152 0.32219
 C24 C 0.32390 0.18744 0.33600
 C25 C 0.17898 0.32248 0.33599
 O26 O 0.12452 0.29993 0.25053
 O27 O 0.16792 0.33069 0.19880
 O28 O 0.20865 0.29596 0.15424
 C29 C 0.17703 0.32125 0.16436
 O30 O 0.32890 0.32248 0.31247
 Zr31 Zr 0.30546 0.30670 0.25788
 O32 O 0.30222 0.30492 0.16295
 O33 O 0.19969 0.37504 0.24989
 O34 O 0.29647 0.37500 0.26424
 O35 O 0.37411 0.29606 0.25960
 O36 O 0.33302 0.33910 0.21310
 C37 C 0.32823 0.33288 0.17811
 O38 O 0.24090 0.24542 0.12797
 O39 O 0.29985 0.12735 0.25223
 O40 O 0.28760 0.20877 0.15453
 O41 O 0.32435 0.16856 0.19829
 O42 O 0.20434 0.12653 0.24032
 O43 O 0.17729 0.17167 0.18781
 C44 C 0.31299 0.17710 0.16415
 H45 H 0.24591 0.16163 0.29417
 H46 H 0.17010 0.25175 0.19604
 H47 H 0.33879 0.25479 0.20592
 H48 H 0.24847 0.32959 0.30423
 H49 H 0.11080 0.17461 0.23637
 H50 H 0.11229 0.32989 0.25074
 H51 H 0.16957 0.38714 0.24976
 H52 H 0.32573 0.38897 0.26432
 H53 H 0.17542 0.11190 0.24084
 H54 H 0.33020 0.11600 0.25364
 H55 H 0.38507 0.17091 0.24639
 H56 H 0.38869 0.32492 0.25914
 H57 H 0.15311 0.15031 0.18970
 H58 H 0.26054 0.26329 0.11178
 H59 H 0.23739 0.23927 0.38848
 H60 H 0.35052 0.34642 0.31062
 Zr61 Zr 0.75448 0.75951 0.31571
 O62 O 0.73970 0.74411 0.37244
 O63 O 0.80000 0.80526 0.33738
 O64 O 0.79135 0.71281 0.34652
 O65 O 0.66185 0.82572 0.30146
 O66 O 0.82713 0.67253 0.30226
 O67 O 0.70304 0.79085 0.34567
 O68 O 0.83442 0.83565 0.28704
 O69 O 0.80909 0.75630 0.28008
 O70 O 0.74919 0.81367 0.28007
 O71 O 0.74908 0.69901 0.28780
 O72 O 0.69341 0.75383 0.28831
 Zr73 Zr 0.73927 0.74312 0.18506
 Zr74 Zr 0.80267 0.69717 0.25055
 Zr75 Zr 0.69058 0.80615 0.25010
 Zr76 Zr 0.80150 0.80866 0.24237
 O77 O 0.62155 0.80061 0.24736
 O78 O 0.87017 0.80098 0.23537
 O79 O 0.74343 0.80417 0.21226
 O80 O 0.79977 0.75031 0.21312
 O81 O 0.74353 0.68903 0.22095
 O82 O 0.68456 0.74744 0.22039
 C83 C 0.82845 0.83074 0.32207
 C84 C 0.67059 0.81520 0.33571
 C85 C 0.81725 0.68169 0.33663
 O86 O 0.87155 0.70420 0.25086
 O87 O 0.82849 0.67327 0.19899
 O88 O 0.78757 0.70803 0.15449
 C89 C 0.81938 0.68294 0.16452
 O90 O 0.66726 0.68050 0.31326
 Zr91 Zr 0.69061 0.69571 0.25845
 O92 O 0.69421 0.69659 0.16373
 O93 O 0.79718 0.62842 0.25057
 O94 O 0.69985 0.62756 0.26597
 O95 O 0.62184 0.70569 0.25942
 O96 O 0.66423 0.66190 0.21408
 C97 C 0.66910 0.66784 0.17906
 O98 O 0.75321 0.75674 0.12784
 O99 O 0.69443 0.87505 0.25241
 O100 O 0.70802 0.79412 0.15475
 O101 O 0.67112 0.83414 0.19842
 O102 O 0.78992 0.87691 0.24102
 O103 O 0.81663 0.83234 0.18766
 C104 C 0.68274 0.82587 0.16437
 H105 H 0.74895 0.84143 0.29426
 H106 H 0.82545 0.75212 0.19628
 H107 H 0.65678 0.74700 0.20605
 H108 H 0.74791 0.67352 0.30481
 H109 H 0.88364 0.83037 0.23495
 H110 H 0.88403 0.67435 0.25114
 H111 H 0.82744 0.61669 0.25044
 H112 H 0.67064 0.61350 0.26658
 H113 H 0.81873 0.89175 0.24170
 H114 H 0.66396 0.88612 0.25354
 H115 H 0.60974 0.83067 0.24572
 H116 H 0.60758 0.67667 0.25919
 H117 H 0.83976 0.85484 0.18941
 H118 H 0.73351 0.73837 0.11222
 H119 H 0.75730 0.76383 0.38869
 H120 H 0.64500 0.65715 0.31164
 Zr121 Zr 0.76045 0.23846 -0.31605
 O122 O 0.74684 0.25189 -0.37337
 O123 O 0.80682 0.19298 -0.33731
 O124 O 0.79555 0.28616 -0.34712
 O125 O 0.66883 0.17137 -0.30215
 O126 O 0.83153 0.32634 -0.30309
 O127 O 0.70903 0.20779 -0.34604
 O128 O 0.84189 0.16330 -0.28698
 O129 O 0.81506 0.24209 -0.28063
 O130 O 0.75595 0.18415 -0.28052
 O131 O 0.75387 0.29889 -0.28818
 O132 O 0.69932 0.24360 -0.28849
 Zr133 Zr 0.74550 0.25401 -0.18533
 Zr134 Zr 0.80766 0.30118 -0.25136
 Zr135 Zr 0.69719 0.19096 -0.25063
 Zr136 Zr 0.80811 0.18972 -0.24271
 O137 O 0.62809 0.19570 -0.24787
 O138 O 0.87659 0.19802 -0.23513
 O139 O 0.74987 0.19310 -0.21270
 O140 O 0.80566 0.24820 -0.21379
 O141 O 0.74884 0.30821 -0.22124
 O142 O 0.69080 0.24935 -0.22066
 C143 C 0.83570 0.16793 -0.32196
 C144 C 0.67716 0.18276 -0.33630
 C145 C 0.82120 0.31744 -0.33739
 O146 O 0.87661 0.29464 -0.25186
 O147 O 0.83290 0.32527 -0.20002
 O148 O 0.78959 0.29427 -0.15503
 C149 C 0.82229 0.31791 -0.16548
 O150 O 0.67093 0.31805 -0.31219
 Zr151 Zr 0.69571 0.30147 -0.25816
 O152 O 0.70122 0.29949 -0.16191
 O153 O 0.80159 0.36991 -0.25134
 O154 O 0.70441 0.36977 -0.26474
 O155 O 0.62705 0.29099 -0.25896
 O156 O 0.66982 0.33352 -0.21221
 C157 C 0.67547 0.32779 -0.17713
 O158 O 0.77064 0.23101 -0.13333
 O159 O 0.70186 0.12212 -0.25307
 O160 O 0.70850 0.20763 -0.15452
 O161 O 0.67815 0.16312 -0.19877
 O162 O 0.79773 0.12130 -0.24173
 O163 O 0.82305 0.16662 -0.18779
 C164 C 0.68616 0.17395 -0.16447
 H165 H 0.75607 0.15641 -0.29475
 H166 H 0.83096 0.24734 -0.19648
 H167 H 0.66303 0.24962 -0.20628
 H168 H 0.75208 0.32445 -0.30507
 H169 H 0.89038 0.16874 -0.23443
 H170 H 0.88878 0.32459 -0.25209
 H171 H 0.83174 0.38184 -0.25121
 H172 H 0.67517 0.38380 -0.26358
 H173 H 0.82680 0.10688 -0.24184
 H174 H 0.67151 0.11080 -0.25401
 H175 H 0.61672 0.16550 -0.24626
 H176 H 0.61255 0.31985 -0.25706
 H177 H 0.84603 0.14389 -0.18931
 H178 H 0.75458 0.24603 -0.11271
 H179 H 0.76519 0.23201 -0.38888
 H180 H 0.64901 0.34169 -0.30975
 Zr181 Zr 0.24464 0.75654 -0.31496
 O182 O 0.26829 0.73149 -0.36671
 O183 O 0.19916 0.80060 -0.33892
 O184 O 0.20479 0.71216 -0.34539
 O185 O 0.33545 0.82416 -0.30113
 O186 O 0.17281 0.66926 -0.30062
 O187 O 0.29134 0.79366 -0.34561
 O188 O 0.16491 0.83243 -0.28907
 O189 O 0.18980 0.75304 -0.27954
 O190 O 0.24876 0.81103 -0.27970
 O191 O 0.25032 0.69671 -0.28616
 O192 O 0.30556 0.75234 -0.28709
 Zr193 Zr 0.25895 0.74189 -0.18390
 Zr194 Zr 0.19667 0.69453 -0.24907
 Zr195 Zr 0.30714 0.80493 -0.24933
 Zr196 Zr 0.19602 0.80600 -0.24267
 O197 O 0.37624 0.80036 -0.24635
 O198 O 0.12742 0.79659 -0.23727
 O199 O 0.25390 0.80264 -0.21186
 O200 O 0.19852 0.74815 -0.21233
 O201 O 0.25579 0.68743 -0.21924
 O202 O 0.31378 0.74654 -0.21907
 C203 C 0.17087 0.82677 -0.32417
 C204 C 0.32499 0.81628 -0.33561
 C205 C 0.18084 0.67964 -0.33513
 O206 O 0.12767 0.70051 -0.24946
 O207 O 0.17112 0.67051 -0.19740
 O208 O 0.21122 0.70614 -0.15313
 C209 C 0.17989 0.68039 -0.16292
 O210 O 0.33248 0.67878 -0.31123
 Zr211 Zr 0.30877 0.69444 -0.25669
 O212 O 0.30445 0.69590 -0.16179
 O213 O 0.20346 0.62589 -0.24860
 O214 O 0.30038 0.62616 -0.26355
 O215 O 0.37742 0.70509 -0.25758
 O216 O 0.33555 0.66166 -0.21185
 C217 C 0.33027 0.66756 -0.17689
 O218 O 0.24385 0.75652 -0.12712
 O219 O 0.30222 0.87374 -0.25224
 O220 O 0.28997 0.79305 -0.15386
 O221 O 0.32619 0.83345 -0.19775
 O222 O 0.20624 0.87442 -0.24132
 O223 O 0.17825 0.83061 -0.18893
 C224 C 0.31484 0.82503 -0.16360
 H225 H 0.24858 0.83870 -0.29410
 H226 H 0.17277 0.74968 -0.19554
 H227 H 0.34150 0.74653 -0.20463
 H228 H 0.25140 0.67144 -0.30334
 H229 H 0.11305 0.82554 -0.23892
 H230 H 0.11573 0.67047 -0.24964
 H231 H 0.17342 0.61368 -0.24842
 H232 H 0.32975 0.61234 -0.26361
 H233 H 0.17725 0.88879 -0.24346
 H234 H 0.33252 0.88514 -0.25374
 H235 H 0.38755 0.83061 -0.24545
 H236 H 0.39206 0.67622 -0.25707
 H237 H 0.15379 0.85159 -0.19169
 H238 H 0.26341 0.73855 -0.11091
 H239 H 0.25329 0.74738 -0.38748
 H240 H 0.35503 0.65567 -0.30927
 Zr241 Zr 1.25485 1.26000 0.81588
 O242 O 1.23978 1.24430 0.87250
 O243 O 1.30013 1.30576 0.83785
 O244 O 1.29158 1.21323 0.84671
 O245 O 1.16288 1.32686 0.80157
 O246 O 1.32716 1.17279 0.80247
 O247 O 1.20357 1.29137 0.84577
 O248 O 1.33459 1.33642 0.78761
 O249 O 1.30958 1.25657 0.78043
 O250 O 1.24997 1.31424 0.78028
 O251 O 1.24907 1.19959 0.78793
 O252 O 1.19382 1.25477 0.78834
 Zr253 Zr 1.23987 1.24421 0.68527
 Zr254 Zr 1.30272 1.19753 0.75082
 Zr255 Zr 1.19139 1.30721 0.75023
 Zr256 Zr 1.30241 1.30903 0.74274
 O257 O 1.12233 1.30206 0.74750
 O258 O 1.37106 1.30052 0.73645
 O259 O 1.24436 1.30514 0.71252
 O260 O 1.30036 1.25073 0.71342
 O261 O 1.24367 1.18998 0.72103
 O262 O 1.18506 1.24864 0.72043
 C263 C 1.32835 1.33152 0.82261
 C264 C 1.17144 1.31605 0.83578
 C265 C 1.31734 1.18201 0.83683
 O266 O 1.37166 1.20405 0.75079
 O267 O 1.32785 1.17301 0.69933
 O268 O 1.28740 1.20826 0.65481
 C269 C 1.31870 1.18266 0.66489
 O270 O 1.16687 1.18151 0.81302
 Zr271 Zr 1.19068 1.19675 0.75838
 O272 O 1.19479 1.19820 0.66346
 O273 O 1.29677 1.12882 0.75117
 O274 O 1.19947 1.12855 0.76586
 O275 O 1.12195 1.20699 0.75905
 O276 O 1.16467 1.16324 0.71363
 C277 C 1.16970 1.16937 0.67863
 O278 O 1.25507 1.25869 0.62843
 O279 O 1.19563 1.37609 0.75259
 O280 O 1.20850 1.29508 0.65491
 O281 O 1.17202 1.33538 0.69862
 O282 O 1.29136 1.37735 0.74093
 O283 O 1.31838 1.33247 0.68814
 C284 C 1.18344 1.32696 0.66456
 H285 H 1.24976 1.34202 0.79444
 H286 H 1.32604 1.25217 0.69655
 H287 H 1.15732 1.24840 0.70602
 H288 H 1.24778 1.17413 0.80496
 H289 H 1.38490 1.32975 0.73639
 H290 H 1.38391 1.17410 0.75111
 H291 H 1.32694 1.11686 0.75094
 H292 H 1.17017 1.11466 0.76612
 H293 H 1.32026 1.39201 0.74159
 H294 H 1.16522 1.38733 0.75378
 H295 H 1.11068 1.33219 0.74596
 H296 H 1.10761 1.17802 0.75844
 H297 H 1.34215 1.35428 0.69001
 H298 H 1.23555 1.24075 0.61226
 H299 H 1.25730 1.26390 0.88892
 H300 H 1.14447 1.15830 0.81123
 Zr301 Zr 0.74043 0.74362 0.81507
 O302 O 0.75294 0.75726 0.87248
 O303 O 0.69531 0.69689 0.83586
 O304 O 0.70385 0.79078 0.84567
 O305 O 0.83243 0.67669 0.80195
 O306 O 0.66923 0.83174 0.80115
 O307 O 0.79196 0.71347 0.84544
 O308 O 0.66123 0.66712 0.78521
 O309 O 0.68634 0.74746 0.77903
 O310 O 0.74594 0.68964 0.77933
 O311 O 0.74702 0.80428 0.78754
 O312 O 0.80194 0.74880 0.78828
 Zr313 Zr 0.75790 0.76066 0.68478
 Zr314 Zr 0.69406 0.80679 0.74981
 Zr315 Zr 0.80506 0.69665 0.75003
 Zr316 Zr 0.69419 0.69537 0.74115
 O317 O 0.87419 0.70143 0.74831
 O318 O 0.62565 0.70410 0.73421
 O319 O 0.75277 0.69941 0.71167
 O320 O 0.69696 0.75394 0.71223
 O321 O 0.75366 0.81459 0.72069
 O322 O 0.81202 0.75553 0.72069
 C323 C 0.66752 0.67107 0.82023
 C324 C 0.82380 0.68821 0.83599
 C325 C 0.67861 0.82241 0.83558
 O326 O 0.62510 0.80042 0.74960
 O327 O 0.66915 0.83121 0.69831
 O328 O 0.71033 0.79656 0.65398
 C329 C 0.67851 0.82164 0.66396
 O330 O 0.82847 0.82192 0.81382
 Zr331 Zr 0.80589 0.80711 0.75876
 O332 O 0.80461 0.80596 0.66414
 O333 O 0.70019 0.87550 0.74977
 O334 O 0.79682 0.87533 0.76564
 O335 O 0.87453 0.79652 0.76110
 O336 O 0.83409 0.84021 0.71481
 C337 C 0.83024 0.83390 0.67979
 O338 O 0.74462 0.74824 0.62729
 O339 O 0.80056 0.62778 0.75199
 O340 O 0.78853 0.70939 0.65454
 O341 O 0.82530 0.66917 0.69825
 O342 O 0.70526 0.62707 0.73894
 O343 O 0.67916 0.67274 0.68617
 C344 C 0.81388 0.67766 0.66412
 H345 H 0.74599 0.66167 0.79330
 H346 H 0.67146 0.75244 0.69519
 H347 H 0.84013 0.75560 0.70679
 H348 H 0.74831 0.82967 0.80457
 H349 H 0.61176 0.67491 0.73355
 H350 H 0.61288 0.83038 0.74974
 H351 H 0.67006 0.88755 0.74946
 H352 H 0.82608 0.88927 0.76652
 H353 H 0.67635 0.61239 0.73887
 H354 H 0.83091 0.61648 0.75367
 H355 H 0.88567 0.67125 0.74679
 H356 H 0.88908 0.82540 0.76128
 H357 H 0.65523 0.65105 0.68757
 H358 H 0.76499 0.76639 0.61205
 H359 H 0.73486 0.73696 0.88784
 H360 H 0.85001 0.84597 0.81254
 Zr361 Zr 1.25989 0.73939 0.18371
 O362 O 1.24595 0.75359 0.12658
 O363 O 1.30591 0.69405 0.16195
 O364 O 1.29520 0.78702 0.15284
 O365 O 1.16806 0.67260 0.19735
 O366 O 1.33139 0.82679 0.19701
 O367 O 1.20849 0.70908 0.15365
 O368 O 1.34053 0.66321 0.21199
 O369 O 1.31461 0.74242 0.21902
 O370 O 1.25518 0.68478 0.21890
 O371 O 1.25366 0.79963 0.21186
 O372 O 1.19884 0.74447 0.21135
 Zr373 Zr 1.24514 0.75396 0.31442
 Zr374 Zr 1.30751 0.80131 0.24863
 Zr375 Zr 1.19654 0.69157 0.24896
 Zr376 Zr 1.30746 0.68977 0.25663
 O377 O 1.12746 0.69649 0.25185
 O378 O 1.37600 0.69793 0.26381
 O379 O 1.24930 0.69322 0.28678
 O380 O 1.30525 0.74804 0.28589
 O381 O 1.24873 0.80840 0.27880
 O382 O 1.19040 0.74979 0.27913
 C383 C 1.33444 0.66846 0.17705
 C384 C 1.17653 0.68419 0.16329
 C385 C 1.32099 0.81812 0.16268
 O386 O 1.37643 0.79447 0.24791
 O387 O 1.33305 0.82463 0.30009
 O388 O 1.28922 0.79397 0.34488
 C389 C 1.32223 0.81722 0.33457
 O390 O 1.17092 0.81910 0.18787
 Zr391 Zr 1.19553 0.80214 0.24188
 O392 O 1.20102 0.79946 0.33805
 O393 O 1.30183 0.87006 0.24922
 O394 O 1.20451 0.87047 0.23581
 O395 O 1.12681 0.79203 0.24089
 O396 O 1.16957 0.83377 0.28791
 C397 C 1.17525 0.82781 0.32294
 O398 O 1.27045 0.73040 0.36619
 O399 O 1.20091 0.62273 0.24607
 O400 O 1.20791 0.70771 0.34512
 O401 O 1.17756 0.66340 0.30073
 O402 O 1.29668 0.62141 0.25754
 O403 O 1.32285 0.66617 0.31130
 C404 C 1.18556 0.67408 0.33507
 H405 H 1.25514 0.65717 0.20451
 H406 H 1.33054 0.74688 0.30320
 H407 H 1.16263 0.75006 0.29351
 H408 H 1.25198 0.82532 0.19512
 H409 H 1.38978 0.66863 0.26402
 H410 H 1.38874 0.82436 0.24791
 H411 H 1.33205 0.88181 0.24933
 H412 H 1.17532 0.88459 0.23696
 H413 H 1.32566 0.60682 0.25715
 H414 H 1.17050 0.61155 0.24507
 H415 H 1.11602 0.66631 0.25337
 H416 H 1.11245 0.82096 0.24274
 H417 H 1.34597 0.64361 0.30950
 H418 H 1.25456 0.74527 0.38698
 H419 H 1.26413 0.73385 0.11077
 H420 H 1.14935 0.84306 0.19036
 Zr421 Zr 0.74476 1.25599 0.18538
 O422 O 0.76843 1.23136 0.13349
 O423 O 0.69896 1.29996 0.16181
 O424 O 0.70488 1.21183 0.15476
 O425 O 0.83673 1.32152 0.19961
 O426 O 0.67266 1.16896 0.19942
 O427 O 0.79128 1.29345 0.15489
 O428 O 0.66512 1.33178 0.21194
 O429 O 0.69005 1.25261 0.22093
 O430 O 0.74931 1.31026 0.22089
 O431 O 0.75025 1.19594 0.21384
 O432 O 0.80566 1.25129 0.21320
 Zr433 Zr 0.75947 1.24049 0.31634
 Zr434 Zr 0.69673 1.19388 0.25102
 Zr435 Zr 0.80769 1.30356 0.25124
 Zr436 Zr 0.69669 1.30532 0.25805
 O437 O 0.87678 1.29910 0.25474
 O438 O 0.62805 1.29655 0.26395
 O439 O 0.75457 1.30144 0.28877
 O440 O 0.69899 1.24725 0.28802
 O441 O 0.75587 1.18627 0.28072
 O442 O 0.81421 1.24497 0.28111
 C443 C 0.67075 1.32590 0.17688
 C444 C 0.82568 1.31465 0.16516
 C445 C 0.68079 1.17938 0.16494
 O446 O 0.62776 1.20025 0.25068
 O447 O 0.67113 1.16984 0.30257
 O448 O 0.71151 1.20505 0.34697
 C449 C 0.68006 1.17964 0.33698
 O450 O 0.83211 1.17780 0.18845
 Zr451 Zr 0.80874 1.19320 0.24316
 O452 O 0.80493 1.19412 0.33785
 O453 O 0.70309 1.12519 0.25129
 O454 O 0.79997 1.12499 0.23612
 O455 O 0.87741 1.20369 0.24196
 O456 O 0.83570 1.16004 0.28759
 C457 C 0.83060 1.16580 0.32255
 O458 O 0.74517 1.25418 0.37344
 O459 O 0.80321 1.37238 0.24792
 O460 O 0.79043 1.29158 0.34660
 O461 O 0.82669 1.33208 0.30283
 O462 O 0.70748 1.37366 0.25932
 O463 O 0.67945 1.32976 0.31197
 C464 C 0.81532 1.32361 0.33696
 H465 H 0.74918 1.33796 0.20654
 H466 H 0.67327 1.24893 0.30482
 H467 H 0.84198 1.24478 0.29548
 H468 H 0.75121 1.17074 0.19657
 H469 H 0.61394 1.32565 0.26265
 H470 H 0.61564 1.17028 0.25040
 H471 H 0.67298 1.11316 0.25140
 H472 H 0.82927 1.11103 0.23571
 H473 H 0.67859 1.38825 0.25728
 H474 H 0.83357 1.38355 0.24624
 H475 H 0.88811 1.32935 0.25547
 H476 H 0.89198 1.17478 0.24221
 H477 H 0.65558 1.35144 0.30936
 H478 H 0.76495 1.23594 0.38922
 H479 H 0.75333 1.24731 0.11281
 H480 H 0.85446 1.15448 0.19021
 O481 O 0.55650 1.07968 0.06837
 O482 O 0.60856 1.04121 0.03532
 C483 C 0.59653 1.06994 0.06068
 O484 O 0.44078 0.91813 0.06314
 O485 O 0.38842 0.96048 0.03416
 C486 C 0.40072 0.92908 0.05703
 O487 O 0.55771 0.92403 0.06791
 O488 O 0.60932 0.96283 0.03476
 C489 C 0.59764 0.93415 0.06016
 O490 O 0.43919 1.08270 0.06506
 O491 O 0.38761 1.04156 0.03408
 C492 C 0.39925 1.07195 0.05796
 Zr493 Zr 0.49798 1.05560 0.04716
 O494 O 0.49364 1.05061 0.10652
 O495 O 0.49653 1.12460 0.05063
 Zr496 Zr 0.49860 0.94796 0.04727
 O497 O 0.49321 0.95442 0.10645
 O498 O 0.50113 0.87941 0.05372
 O499 O 0.53857 1.00183 0.05481
 O500 O 0.45889 1.00158 0.05419
 O501 O 0.44031 1.08240 -0.06544
 O502 O 0.38823 1.04236 -0.03379
 C503 C 0.40029 1.07252 -0.05793
 O504 O 0.55663 0.92453 -0.06833
 O505 O 0.60863 0.96221 -0.03473
 C506 C 0.59662 0.93388 -0.06039
 O507 O 0.43962 0.92227 -0.06591
 O508 O 0.38778 0.96187 -0.03367
 C509 C 0.39961 0.93221 -0.05819
 O510 O 0.55753 1.07828 -0.06837
 O511 O 0.60913 1.04037 -0.03431
 C512 C 0.59748 1.06847 -0.06022
 Zr513 Zr 0.49859 1.05591 -0.04618
 O514 O 0.49380 1.05519 -0.10562
 O515 O 0.50249 1.12489 -0.04509
 Zr516 Zr 0.49836 0.94769 -0.04619
 O517 O 0.49381 0.94886 -0.10564
 O518 O 0.50211 0.87866 -0.04518
 Zr519 Zr 0.56635 1.00171 0.00036
 Zr520 Zr 0.43043 1.00164 0.00031
 O521 O 0.45957 1.00190 -0.05332
 O522 O 0.53843 1.00174 -0.05391
 O523 O 0.45845 1.06455 0.00035
 O524 O 0.53734 0.93946 0.00047
 O525 O 0.53730 1.06398 0.00047
 O526 O 0.45880 0.93878 0.00049
 H527 H 0.43916 1.00128 0.07631
 H528 H 0.55641 0.91329 0.00033
 H529 H 0.44062 1.00208 -0.07592
 H530 H 0.55674 1.08980 0.00006
 H531 H 0.50644 0.86685 0.02860
 H532 H 0.47730 0.86760 -0.02999
 H533 H 0.51903 0.96548 -0.11558
 H534 H 0.51902 1.03864 -0.11567
 H535 H 0.48005 1.13560 -0.02725
 H536 H 0.51550 1.13673 0.03071
 H537 H 0.52145 1.03836 0.11618
 H538 H 0.52215 0.96287 0.11658
 O539 O 1.05632 0.57998 0.56822
 O540 O 1.10845 0.54156 0.53522
 C541 C 1.09637 0.57029 0.56056
 O542 O 0.94098 0.41811 0.56335
 O543 O 0.88849 0.46019 0.53424
 C544 C 0.90087 0.42885 0.55716
 O545 O 1.05794 0.42440 0.56804
 O546 O 1.10942 0.46322 0.53476
 C547 C 1.09784 0.43460 0.56023
 O548 O 0.93907 0.58274 0.56489
 O549 O 0.88751 0.54140 0.53407
 C550 C 0.89914 0.57190 0.55786
 Zr551 Zr 0.99786 0.55571 0.54703
 O552 O 0.99356 0.55089 0.60641
 O553 O 0.99617 0.62472 0.55029
 Zr554 Zr 0.99872 0.44807 0.54739
 O555 O 0.99331 0.45473 0.60656
 O556 O 1.00143 0.37956 0.55402
 O557 O 1.03857 0.50206 0.55479
 O558 O 0.95887 0.50161 0.55419
 O559 O 0.94009 0.58209 0.43441
 O560 O 0.88810 0.54201 0.46613
 C561 C 0.90010 0.57215 0.44193
 O562 O 1.05680 0.42444 0.43188
 O563 O 1.10871 0.46241 0.46535
 C564 C 1.09677 0.43395 0.43978
 O565 O 0.93978 0.42180 0.43432
 O566 O 0.88784 0.46138 0.46645
 C567 C 0.89974 0.43162 0.44203
 O568 O 1.05723 0.57819 0.43137
 O569 O 1.10896 0.54054 0.46551
 C570 C 1.09721 0.56851 0.43952
 Zr571 Zr 0.99840 0.55574 0.45370
 O572 O 0.99354 0.55485 0.39427
 O573 O 1.00213 0.62473 0.45470
 Zr574 Zr 0.99844 0.44753 0.45393
 O575 O 0.99385 0.44860 0.39448
 O576 O 1.00239 0.37851 0.45502
 Zr577 Zr 1.06632 0.50187 0.50032
 Zr578 Zr 0.93038 0.50143 0.50033
 O579 O 0.95949 0.50161 0.44670
 O580 O 1.03837 0.50165 0.44607
 O581 O 0.95826 0.56440 0.50023
 O582 O 1.03746 0.43954 0.50059
 O583 O 1.03713 0.56407 0.50031
 O584 O 0.95894 0.43866 0.50064
 H585 H 0.93914 0.50132 0.57632
 H586 H 1.05659 0.41342 0.50051
 H587 H 0.94052 0.50167 0.42411
 H588 H 1.05652 0.58991 0.49984
 H589 H 1.00684 0.36692 0.52895
 H590 H 0.97774 0.36742 0.47038
 H591 H 1.01914 0.46507 0.38449
 H592 H 1.01872 0.53823 0.38424
 H593 H 0.97978 0.63542 0.47263
 H594 H 1.01544 0.63684 0.53058
 H595 H 1.02136 0.53863 0.61607
 H596 H 1.02227 0.46311 0.61668
 O597 O 0.91885 0.44690 -0.06732
 O598 O 0.95755 0.39436 -0.03538
 C599 C 0.92858 0.40683 -0.06054
 O600 O 1.08233 0.55985 -0.06534
 O601 O 1.04153 0.61245 -0.03525
 C602 C 1.07225 0.59992 -0.05884
 O603 O 1.07522 0.44319 -0.06858
 O604 O 1.03599 0.39241 -0.03488
 C605 C 1.06462 0.40357 -0.06054
 O606 O 0.91721 0.56352 -0.06400
 O607 O 0.96013 0.61446 -0.03416
 C608 C 0.92894 0.60315 -0.05745
 Zr609 Zr 0.94442 0.50468 -0.04692
 O610 O 0.94951 0.50898 -0.10629
 O611 O 0.87526 0.50614 -0.05121
 Zr612 Zr 1.05244 0.50259 -0.04797
 O613 O 1.04545 0.50746 -0.10715
 O614 O 1.12129 0.49995 -0.05434
 O615 O 0.99769 0.46350 -0.05492
 O616 O 0.99902 0.54287 -0.05453
 O617 O 0.91975 0.56234 0.06614
 O618 O 0.95979 0.61377 0.03384
 C619 C 0.92981 0.60208 0.05844
 O620 O 1.07635 0.44460 0.06779
 O621 O 1.03735 0.39327 0.03465
 C622 C 1.06622 0.40487 0.06013
 O623 O 1.08011 0.56125 0.06459
 O624 O 1.04042 0.61336 0.03272
 C625 C 1.07023 0.60119 0.05702
 O626 O 0.92163 0.44611 0.06847
 O627 O 0.95872 0.39392 0.03491
 C628 C 0.93088 0.40607 0.06096
 Zr629 Zr 0.94517 0.50420 0.04631
 O630 O 0.94710 0.50875 0.10575
 O631 O 0.87583 0.50150 0.04590
 Zr632 Zr 1.05381 0.50290 0.04542
 O633 O 1.05404 0.50759 0.10484
 O634 O 1.12304 0.49822 0.04359
 Zr635 Zr 0.99797 0.43582 -0.00040
 Zr636 Zr 0.99994 0.57129 -0.00074
 O637 O 1.00002 0.54227 0.05292
 O638 O 0.99906 0.46378 0.05375
 O639 O 0.93641 0.54423 -0.00019
 O640 O 1.06090 0.46384 -0.00114
 O641 O 0.93590 0.46569 -0.00014
 O642 O 1.06271 0.54222 -0.00139
 H643 H 0.99917 0.56246 -0.07672
 H644 H 1.08680 0.44436 -0.00103
 H645 H 1.00036 0.56108 0.07554
 H646 H 0.90962 0.44680 0.00042
 H647 H 1.13386 0.49144 -0.02984
 H648 H 1.13419 0.52279 0.02824
 H649 H 1.03618 0.48343 0.11504
 H650 H 0.96272 0.48288 0.11565
 H651 H 0.86507 0.52477 0.02890
 H652 H 0.86296 0.49158 -0.02880
 H653 H 0.95963 0.48050 -0.11607
 H654 H 1.03565 0.47889 -0.11691
 O655 O 0.57592 0.94230 0.56815
 O656 O 0.53637 0.89092 0.53554
 C657 C 0.56571 0.90259 0.56055
 O658 O 0.41553 1.05983 0.56529
 O659 O 0.45782 1.11140 0.53534
 C660 C 0.42674 1.09959 0.55877
 O661 O 0.41939 0.94300 0.56963
 O662 O 0.45737 0.89132 0.53596
 C663 C 0.42901 0.90309 0.56173
 O664 O 0.58042 1.05896 0.56482
 O665 O 0.53905 1.11105 0.53453
 C666 C 0.56983 1.09892 0.55801
 Zr667 Zr 0.55195 1.00089 0.54751
 O668 O 0.54719 1.00520 0.60688
 O669 O 0.62118 1.00071 0.55141
 Zr670 Zr 0.44391 1.00164 0.54856
 O671 O 0.45106 1.00642 0.60772
 O672 O 0.37504 1.00072 0.55503
 O673 O 0.49769 0.96108 0.55556
 O674 O 0.49830 1.04050 0.55501
 O675 O 0.57811 1.05833 0.43448
 O676 O 0.53914 1.11062 0.46669
 C677 C 0.56890 1.09830 0.44219
 O678 O 0.41850 0.94487 0.43335
 O679 O 0.45661 0.89227 0.46575
 C680 C 0.42815 0.90481 0.44022
 O681 O 0.41758 1.06129 0.43550
 O682 O 0.45846 1.11222 0.46734
 C683 C 0.42838 1.10095 0.44294
 O684 O 0.57307 0.94182 0.43181
 O685 O 0.53482 0.89070 0.46595
 C686 C 0.56299 0.90210 0.43991
 Zr687 Zr 0.55121 1.00064 0.45416
 O688 O 0.54955 1.00548 0.39473
 O689 O 0.62045 0.99594 0.45466
 Zr690 Zr 0.44251 1.00240 0.45523
 O691 O 0.44244 1.00702 0.39577
 O692 O 0.37319 0.99979 0.45715
 Zr693 Zr 0.49665 0.93363 0.50106
 Zr694 Zr 0.49811 1.06906 0.50114
 O695 O 0.49731 1.04022 0.44754
 O696 O 0.49625 0.96181 0.44689
 O697 O 0.56094 1.04028 0.50066
 O698 O 0.43445 0.96329 0.50179
 O699 O 0.55946 0.96184 0.50072
 O700 O 0.43463 1.04176 0.50195
 H701 H 0.49862 1.06005 0.57716
 H702 H 0.40812 0.94445 0.50177
 H703 H 0.49745 1.05909 0.42490
 H704 H 0.58528 0.94229 0.50009
 H705 H 0.36223 0.99316 0.53043
 H706 H 0.36271 1.02473 0.47236
 H707 H 0.45931 0.98212 0.38565
 H708 H 0.53275 0.98043 0.38487
 H709 H 0.63174 1.01864 0.47186
 H710 H 0.63305 0.98458 0.52967
 H711 H 0.53588 0.97717 0.61668
 H712 H 0.46009 0.97760 0.61761
 O713 O 0.92094 0.92322 0.45045
 O714 O 0.96307 0.95800 0.40618
 C715 C 0.93189 0.93156 0.41632
 O716 O 0.92842 1.07628 0.55028
 O717 O 0.96682 1.03627 0.59379
 C718 C 0.93862 1.06615 0.58417
 O719 O 0.92304 1.07194 0.44982
 O720 O 0.96291 1.03419 0.40589
 C721 C 0.93291 1.06212 0.41583
 O722 O 0.92836 0.91779 0.55128
 O723 O 0.96652 0.95855 0.59430
 C724 C 0.93827 0.92871 0.58505
 Zr725 Zr 0.94983 0.94190 0.50037
 O726 O 0.88097 0.93458 0.50240
 O727 O 0.95771 0.87340 0.49881
 Zr728 Zr 0.94959 1.05086 0.49986
 O729 O 0.88038 1.05099 0.50428
 O730 O 0.95046 1.11979 0.49512
 O731 O 0.94001 0.99629 0.46659
 O732 O 0.94154 0.99661 0.53313
 O733 O 1.08005 0.91644 0.55011
 O734 O 1.04297 0.95798 0.59357
 C735 C 1.07042 0.92746 0.58402
 O736 O 1.08261 1.07177 0.44736
 O737 O 1.04073 1.03414 0.40460
 C738 C 1.07089 1.06209 0.41367
 O739 O 1.08034 1.07628 0.54899
 O740 O 1.04308 1.03598 0.59309
 C741 C 1.07080 1.06603 0.58308
 O742 O 1.08314 0.92098 0.44818
 O743 O 1.04243 0.95954 0.40493
 C744 C 1.07250 0.93151 0.41436
 Zr745 Zr 1.05832 0.94184 0.49930
 O746 O 1.12757 0.94148 0.50301
 O747 O 1.05737 0.87289 0.49565
 Zr748 Zr 1.05860 1.05046 0.49867
 O749 O 1.12787 1.04874 0.50230
 O750 O 1.05971 1.11934 0.49394
 Zr751 Zr 1.00294 0.99612 0.44239
 Zr752 Zr 1.00457 0.99685 0.55676
 O753 O 1.06718 0.99634 0.53202
 O754 O 1.06683 0.99602 0.46499
 O755 O 1.00440 0.93341 0.53400
 O756 O 1.00353 1.05884 0.46622
 O757 O 1.00348 0.93343 0.46641
 O758 O 1.00453 1.05991 0.53311
 H759 H 0.91559 0.99693 0.54986
 H760 H 1.00314 1.08493 0.44973
 H761 H 1.09348 0.99632 0.54834
 H762 H 1.00312 0.90767 0.44961
 H763 H 0.96725 1.13159 0.51658
 H764 H 1.04083 1.13138 0.51399
 H765 H 1.13924 1.03346 0.47986
 H766 H 1.13910 0.95984 0.48240
 H767 H 1.03765 0.86186 0.51559
 H768 H 0.92781 0.86090 0.49807
 H769 H 0.86844 0.96303 0.50970
 H770 H 0.86874 1.03128 0.48469
 O771 O 0.41996 0.42592 -0.05263
 O772 O 0.46419 0.46026 -0.09578
 C773 C 0.43227 0.43441 -0.08642
 O774 O 0.42760 0.57818 0.04833
 O775 O 0.46422 0.53704 0.09225
 C776 C 0.43684 0.56751 0.08233
 O777 O 0.42475 0.57416 -0.05287
 O778 O 0.46433 0.53460 -0.09601
 C779 C 0.43483 0.56326 -0.08665
 O780 O 0.42413 0.41969 0.04859
 O781 O 0.46241 0.45927 0.09237
 C782 C 0.43378 0.43000 0.08259
 Zr783 Zr 0.44761 0.44364 -0.00185
 O784 O 0.37858 0.43776 -0.00127
 O785 O 0.45417 0.37502 -0.00354
 Zr786 Zr 0.44945 0.55272 -0.00195
 O787 O 0.38017 0.55426 0.00114
 O788 O 0.45170 0.62163 -0.00642
 O789 O 0.43981 0.49843 -0.03549
 O790 O 0.43959 0.49838 0.03096
 O791 O 0.57604 0.41558 0.05019
 O792 O 0.53886 0.45768 0.09319
 C793 C 0.56610 0.42685 0.08397
 O794 O 0.58468 0.57081 -0.05147
 O795 O 0.54291 0.53491 -0.09521
 C796 C 0.57350 0.56205 -0.08543
 O797 O 0.57976 0.57500 0.04976
 O798 O 0.54050 0.53547 0.09302
 C799 C 0.56915 0.56495 0.08363
 O800 O 0.58210 0.42056 -0.05170
 O801 O 0.54324 0.46029 -0.09537
 C802 C 0.57256 0.43164 -0.08564
 Zr803 Zr 0.55603 0.44133 -0.00095
 O804 O 0.62510 0.43875 0.00411
 O805 O 0.55310 0.37246 -0.00503
 Zr806 Zr 0.55841 0.55019 -0.00097
 O807 O 0.62754 0.54831 0.00406
 O808 O 0.55981 0.61910 -0.00552
 Zr809 Zr 0.50341 0.49727 -0.05845
 Zr810 Zr 0.50204 0.49721 0.05575
 O811 O 0.56518 0.49558 0.03211
 O812 O 0.56662 0.49571 -0.03465
 O813 O 0.50113 0.43387 0.03276
 O814 O 0.50441 0.55988 -0.03452
 O815 O 0.50196 0.43436 -0.03488
 O816 O 0.50368 0.56044 0.03246
 H817 H 0.41325 0.49906 0.04722
 H818 H 0.50484 0.58588 -0.05112
 H819 H 0.59115 0.49502 0.04881
 H820 H 0.50162 0.40875 -0.05185
 H821 H 0.46836 0.63296 0.01529
 H822 H 0.54218 0.63127 0.01530
 H823 H 0.63927 0.53108 -0.01715
 H824 H 0.63770 0.45782 -0.01554
 H825 H 0.53356 0.36176 0.01517
 H826 H 0.42408 0.36313 -0.00519
 H827 H 0.36647 0.46651 0.00565
 H828 H 0.36865 0.53500 -0.01883
 C829 C 0.31763 1.10031 0.08870
 C830 C 0.32542 1.09784 0.13190
 C831 C 0.33030 1.14784 0.13354
 C832 C 0.32172 1.15094 0.09088
 C833 C 0.37971 1.14416 0.12668
 C834 C 0.37519 1.09415 0.12498
 C835 C 0.36741 1.09698 0.08208
 C836 C 0.37160 1.14714 0.08396
 H837 H 0.29208 1.08226 0.07295
 H838 H 0.30649 1.07764 0.15207
 H839 H 0.29964 1.17479 0.07696
 H840 H 0.40547 1.16209 0.14230
 H841 H 0.39714 1.07049 0.13931
 H842 H 0.39047 1.16772 0.06400
 C843 C 0.81767 0.60058 0.58885
 C844 C 0.82574 0.59824 0.63202
 C845 C 0.83086 0.64822 0.63351
 C846 C 0.82198 0.65120 0.59089
 C847 C 0.88020 0.64431 0.62641
 C848 C 0.87544 0.59431 0.62487
 C849 C 0.86739 0.59701 0.58199
 C850 C 0.87179 0.64718 0.58373
 H851 H 0.79193 0.58258 0.57329
 H852 H 0.80687 0.57819 0.65235
 H853 H 0.79991 0.67510 0.57702
 H854 H 0.90614 0.66219 0.64186
 H855 H 0.89738 0.57061 0.63917
 H856 H 0.89060 0.66761 0.56363
 C857 C 0.62242 0.91083 0.12686
 C858 C 0.61666 0.86092 0.12796
 C859 C 0.66605 0.85584 0.13409
 C860 C 0.67219 0.90573 0.13304
 C861 C 0.67392 0.85343 0.09133
 C862 C 0.62408 0.85863 0.08515
 C863 C 0.62945 0.90874 0.08389
 C864 C 0.67923 0.90398 0.08971
 H865 H 0.60136 0.93475 0.14179
 H866 H 0.59072 0.84324 0.14365
 H867 H 0.69201 0.92496 0.15322
 H868 H 0.69514 0.82930 0.07686
 H869 H 0.60433 0.83899 0.06519
 H870 H 0.70494 0.92181 0.07389
 C871 C 1.12286 0.41168 0.62697
 C872 C 1.11721 0.36177 0.62825
 C873 C 1.16663 0.35683 0.63427
 C874 C 1.17266 0.40672 0.63303
 C875 C 1.17436 0.35422 0.59150
 C876 C 1.12449 0.35928 0.58543
 C877 C 1.12975 0.40939 0.58399
 C878 C 1.17956 0.40477 0.58969
 H879 H 1.10180 0.43563 0.64185
 H880 H 1.09137 0.34411 0.64407
 H881 H 1.19252 0.42608 0.65309
 H882 H 1.19559 0.33006 0.57707
 H883 H 1.10471 0.33951 0.56559
 H884 H 1.20516 0.42258 0.57373
 C885 C 0.62357 1.14338 -0.08677
 C886 C 0.67361 1.14894 -0.09124
 C887 C 0.66798 1.14493 -0.13415
 C888 C 0.61838 1.13949 -0.12974
 C889 C 0.67468 1.09515 -0.13156
 C890 C 0.67950 1.09855 -0.08810
 C891 C 0.62955 1.09340 -0.08401
 C892 C 0.62467 1.08969 -0.12708
 H893 H 0.60256 1.16347 -0.06808
 H894 H 0.69375 1.17381 -0.07665
 H895 H 0.59307 1.15636 -0.14684
 H896 H 0.69578 1.07546 -0.15046
 H897 H 0.70459 1.08155 -0.07089
 H898 H 0.60465 1.06499 -0.14202
 C899 C 1.12309 0.64340 0.41280
 C900 C 1.17310 0.64906 0.40826
 C901 C 1.16741 0.64498 0.36535
 C902 C 1.11782 0.63945 0.36983
 C903 C 1.17422 0.59522 0.36800
 C904 C 1.17911 0.59869 0.41145
 C905 C 1.12918 0.59345 0.41562
 C906 C 1.12422 0.58965 0.37256
 H907 H 1.10207 0.66348 0.43149
 H908 H 1.19321 0.67399 0.42280
 H909 H 1.09245 0.65623 0.35276
 H910 H 1.19532 0.57554 0.34909
 H911 H 1.20427 0.58178 0.42865
 H912 H 1.10422 0.56489 0.35767
 C913 C 0.31819 0.90237 -0.08839
 C914 C 0.32554 0.90475 -0.13167
 C915 C 0.33159 0.85484 -0.13315
 C916 C 0.32344 0.85182 -0.09041
 C917 C 0.38096 0.85962 -0.12665
 C918 C 0.37527 0.90954 -0.12512
 C919 C 0.36794 0.90682 -0.08216
 C920 C 0.37326 0.85671 -0.08387
 H921 H 0.29234 0.91998 -0.07256
 H922 H 0.30595 0.92444 -0.15178
 H923 H 0.30206 0.82759 -0.07623
 H924 H 0.40702 0.84214 -0.14236
 H925 H 0.39653 0.93358 -0.13972
 H926 H 0.39278 0.83664 -0.06398
 C927 C 0.87367 0.35583 0.41668
 C928 C 0.82386 0.35068 0.41018
 C929 C 0.83197 0.35350 0.36742
 C930 C 0.88132 0.35853 0.37388
 C931 C 0.82573 0.40340 0.36872
 C932 C 0.81841 0.40122 0.41201
 C933 C 0.86814 0.40592 0.41820
 C934 C 0.87544 0.40843 0.37522
 H935 H 0.89329 0.33593 0.43663
 H936 H 0.80260 0.32643 0.42447
 H937 H 0.90745 0.34107 0.35824
 H938 H 0.80604 0.42291 0.34855
 H939 H 0.79249 0.41881 0.42777
 H940 H 0.89657 0.43247 0.36051
 C941 C 1.09833 0.32407 0.09021
 C942 C 1.14895 0.33049 0.09149
 C943 C 1.14676 0.33856 0.13425
 C944 C 1.09675 0.33129 0.13350
 C945 C 1.14045 0.38756 0.12788
 C946 C 1.14254 0.37996 0.08505
 C947 C 1.09226 0.37349 0.08408
 C948 C 1.09041 0.38070 0.12707
 H949 H 1.08094 0.29789 0.07476
 H950 H 1.17357 0.30993 0.07690
 H951 H 1.07798 0.31127 0.15393
 H952 H 1.15771 0.41390 0.14324
 H953 H 1.16177 0.39988 0.06484
 H954 H 1.06600 0.40115 0.14208
 C955 C 0.59934 0.82221 0.59039
 C956 C 0.64985 0.82954 0.59119
 C957 C 0.64798 0.83803 0.63388
 C958 C 0.59814 0.82979 0.63363
 C959 C 0.64073 0.88681 0.62727
 C960 C 0.64250 0.87883 0.58449
 C961 C 0.59235 0.87146 0.58403
 C962 C 0.59086 0.87900 0.62699
 H963 H 0.58224 0.79560 0.57524
 H964 H 0.67471 0.80929 0.57657
 H965 H 0.58003 0.80961 0.65438
 H966 H 0.65772 0.91357 0.64233
 H967 H 0.66112 0.89889 0.56398
 H968 H 0.56624 0.89907 0.64211
 C969 C 1.10465 0.67989 -0.09089
 C970 C 1.15514 0.67342 -0.09348
 C971 C 1.15154 0.66373 -0.13396
 C972 C 1.10384 0.67109 -0.13390
 C973 C 1.14701 0.61675 -0.12756
 C974 C 1.14942 0.62436 -0.08477
 C975 C 1.09893 0.63052 -0.08319
 C976 C 1.09686 0.62209 -0.12626
 H977 H 1.08793 0.70732 -0.07646
 H978 H 1.18047 0.69504 -0.08113
 H979 H 1.08642 0.69078 -0.15547
 H980 H 1.16530 0.59154 -0.14355
 H981 H 1.17003 0.60553 -0.06479
 H982 H 1.07297 0.60126 -0.14141
 C983 C 0.60208 1.17829 0.41165
 C984 C 0.65261 1.17119 0.41001
 C985 C 0.64988 1.16275 0.36731
 C986 C 0.59999 1.17069 0.36844
 C987 C 0.64318 1.11390 0.37410
 C988 C 0.64579 1.12184 0.41688
 C989 C 0.59564 1.12902 0.41824
 C990 C 0.59325 1.12144 0.37528
 H991 H 0.58518 1.20485 0.42709
 H992 H 0.67759 1.19160 0.42423
 H993 H 0.58120 1.19071 0.34800
 H994 H 0.65998 1.08720 0.35874
 H995 H 0.66501 1.10189 0.43709
 H996 H 0.56848 1.10116 0.36063
 C997 C 0.90621 0.62492 0.12556
 C998 C 0.89962 0.67410 0.13283
 C999 C 0.84970 0.66639 0.13410
 C1000 C 0.85625 0.61762 0.12688
 C1001 C 0.84681 0.67549 0.09147
 C1002 C 0.89736 0.68234 0.08967
 C1003 C 0.90365 0.63312 0.08264
 C1004 C 0.85345 0.62623 0.08418
 H1005 H 0.93098 0.60431 0.13999
 H1006 H 0.91859 0.69370 0.15335
 H1007 H 0.83949 0.59076 0.14208
 H1008 H 0.82183 0.69623 0.07748
 H1009 H 0.91422 0.70906 0.07439
 H1010 H 0.83400 0.60673 0.06392
 C1011 C 0.35061 1.12538 0.58438
 C1012 C 0.35313 1.11636 0.62703
 C1013 C 0.34830 1.16526 0.63450
 C1014 C 0.34568 1.17479 0.59195
 C1015 C 0.39841 1.17131 0.63333
 C1016 C 0.40328 1.12200 0.62578
 C1017 C 0.40095 1.13067 0.58296
 C1018 C 0.39642 1.17998 0.59025
 H1019 H 0.33061 1.10667 0.56395
 H1020 H 0.33543 1.09001 0.64213
 H1021 H 0.32142 1.19651 0.57812
 H1022 H 0.41799 1.19010 0.65399
 H1023 H 0.42736 1.10042 0.64003
 H1024 H 0.41421 1.20619 0.57507
 C1025 C 0.87635 0.39868 -0.11720
 C1026 C 0.89209 0.36403 -0.14516
 C1027 C 0.85136 0.33686 -0.13543
 C1028 C 0.83583 0.37130 -0.10727
 C1029 C 0.87720 0.31309 -0.10410
 C1030 C 0.91835 0.34111 -0.11350
 C1031 C 0.90275 0.37578 -0.08524
 C1032 C 0.86198 0.34838 -0.07546
 H1033 H 0.87486 0.43396 -0.12426
 H1034 H 0.90448 0.37114 -0.17386
 H1035 H 0.80193 0.38415 -0.10493
 H1036 H 0.87706 0.27735 -0.09903
 H1037 H 0.95226 0.32834 -0.11594
 H1038 H 0.84978 0.34151 -0.04666
 C1039 C 0.37848 0.89682 0.38205
 C1040 C 0.39358 0.86062 0.35535
 C1041 C 0.35137 0.83562 0.36471
 C1042 C 0.33647 0.87161 0.39161
 C1043 C 0.37508 0.81176 0.39720
 C1044 C 0.41775 0.83765 0.38820
 C1045 C 0.40272 0.87386 0.41522
 C1046 C 0.36046 0.84861 0.42456
 H1047 H 0.37888 0.93187 0.37408
 H1048 H 0.40719 0.86619 0.32681
 H1049 H 0.30311 0.88597 0.39277
 H1050 H 0.37315 0.77625 0.40308
 H1051 H 0.45115 0.82338 0.38695
 H1052 H 0.34701 0.84322 0.45318
 C1053 C 1.09207 1.13808 0.38870
 C1054 C 1.14262 1.13954 0.38871
 C1055 C 1.14142 1.14252 0.34591
 C1056 C 1.09113 1.14130 0.34544
 C1057 C 1.14340 1.09257 0.34211
 C1058 C 1.14436 1.08934 0.38538
 C1059 C 1.09401 1.08802 0.38529
 C1060 C 1.09262 1.09085 0.34237
 H1061 H 1.07021 1.15641 0.40801
 H1062 H 1.16324 1.15986 0.40744
 H1063 H 1.06980 1.16356 0.32893
 H1064 H 1.16533 1.07451 0.32269
 H1065 H 1.16589 1.06718 0.40181
 H1066 H 1.07190 1.07042 0.32380
 C1067 C 0.57629 0.62371 -0.13829
 C1068 C 0.61134 0.65643 -0.12445
 C1069 C 0.64158 0.64172 -0.15617
 C1070 C 0.60691 0.60935 -0.17071
 C1071 C 0.66226 0.60624 -0.13162
 C1072 C 0.63193 0.62086 -0.09948
 C1073 C 0.59699 0.58825 -0.11357
 C1074 C 0.62723 0.57343 -0.14540
 H1075 H 0.54061 0.63004 -0.14086
 H1076 H 0.60549 0.69081 -0.11608
 H1077 H 0.59701 0.60533 -0.20052
 H1078 H 0.69794 0.59992 -0.12901
 H1079 H 0.64287 0.62588 -0.07004
 H1080 H 0.63307 0.53902 -0.15370
 C1081 C 0.88401 1.07408 0.64355
 C1082 C 0.90088 1.11115 0.66928
 C1083 C 0.86400 1.14090 0.65429
 C1084 C 0.84680 1.10425 0.62928
 C1085 C 0.89378 1.15820 0.62319
 C1086 C 0.93105 1.12809 0.63745
 C1087 C 0.91387 1.09138 0.61233
 C1088 C 0.87667 1.12143 0.59776
 H1089 H 0.88075 1.03938 0.65193
 H1090 H 0.91042 1.10745 0.69923
 H1091 H 0.81182 1.09523 0.62598
 H1092 H 0.89702 1.19299 0.61496
 H1093 H 0.96586 1.13749 0.64071
 H1094 H 0.86597 1.12609 0.56819
 C1095 C 0.38073 0.57486 0.14033
 C1096 C 0.39795 0.61012 0.16768
 C1097 C 0.36245 0.64164 0.15295
 C1098 C 0.34490 0.60676 0.12631
 C1099 C 0.39365 0.65945 0.12310
 C1100 C 0.42956 0.62757 0.13712
 C1101 C 0.41200 0.59265 0.11038
 C1102 C 0.37623 0.62443 0.09603
 H1103 H 0.37616 0.53990 0.14736
 H1104 H 0.40644 0.60474 0.19767
 H1105 H 0.30976 0.59898 0.12199
 H1106 H 0.39819 0.69448 0.11619
 H1107 H 0.46454 0.63568 0.14141
 H1108 H 0.36674 0.63068 0.06637
 C1109 C 1.09541 0.90227 0.65557
 C1110 C 1.09632 0.85173 0.65493
 C1111 C 1.14438 0.85261 0.65251
 C1112 C 1.14608 0.90049 0.65434
 C1113 C 1.14478 0.85168 0.61141
 C1114 C 1.09425 0.85200 0.61163
 C1115 C 1.09472 0.90240 0.61239
 C1116 C 1.14531 0.90196 0.61107
 H1117 H 1.07537 0.92281 0.67464
 H1118 H 1.07790 0.82945 0.67383
 H1119 H 1.16899 0.91874 0.67275
 H1120 H 1.16609 0.82986 0.59447
 H1121 H 1.07265 0.83093 0.59435
 H1122 H 1.16664 0.92289 0.59333
 C1123 C 0.59049 0.35193 0.11165
 C1124 C 0.64105 0.35232 0.10987
 C1125 C 0.64216 0.35245 0.15276
 C1126 C 0.59187 0.35180 0.15504
 C1127 C 0.64217 0.40257 0.15389
 C1128 C 0.64083 0.40266 0.11057
 C1129 C 0.59046 0.40210 0.11247
 C1130 C 0.59142 0.40243 0.15547
 H1131 H 0.56846 0.33152 0.09419
 H1132 H 0.66168 0.33157 0.09142
 H1133 H 0.57234 0.33007 0.17356
 H1134 H 0.66426 0.42284 0.17141
 H1135 H 0.66063 0.42432 0.09218
 H1136 H 0.57069 0.42328 0.17373
 C1137 C 0.87586 0.92453 0.35766
 C1138 C 0.89290 0.88819 0.33122
 C1139 C 0.85657 0.85775 0.34605
 C1140 C 0.83919 0.89369 0.37181
 C1141 C 0.88693 0.84015 0.37667
 C1142 C 0.92364 0.87095 0.36253
 C1143 C 0.90621 0.90694 0.38840
 C1144 C 0.86965 0.87623 0.40286
 H1145 H 0.87198 0.95927 0.34976
 H1146 H 0.90207 0.89261 0.30126
 H1147 H 0.80413 0.90231 0.37553
 H1148 H 0.89077 0.80523 0.38433
 H1149 H 0.95870 0.86233 0.35883
 H1150 H 0.85953 0.87098 0.43250
 C1151 C 0.40597 0.36011 -0.11121
 C1152 C 0.35544 0.36180 -0.11089
 C1153 C 0.35610 0.35910 -0.15370
 C1154 C 0.40638 0.35718 -0.15447
 C1155 C 0.35723 0.40908 -0.15741
 C1156 C 0.35683 0.41204 -0.11411
 C1157 C 0.40717 0.41019 -0.11455
 C1158 C 0.40803 0.40762 -0.15748
 H1159 H 0.42679 0.34032 -0.09208
 H1160 H 0.33369 0.34268 -0.09206
 H1161 H 0.42612 0.33376 -0.17118
 H1162 H 0.33632 0.42861 -0.17664
 H1163 H 0.33690 0.43539 -0.09748
 H1164 H 0.42987 0.42684 -0.17614
 C1165 C 1.08701 0.37769 -0.12720
 C1166 C 1.13718 0.38275 -0.12865
 C1167 C 1.14160 0.33339 -0.13413
 C1168 C 1.09144 0.32795 -0.13274
 C1169 C 1.14433 0.32625 -0.09128
 C1170 C 1.13980 0.37605 -0.08576
 C1171 C 1.08945 0.37135 -0.08417
 C1172 C 1.09354 0.32163 -0.08933
 H1173 H 1.06312 0.39875 -0.14224
 H1174 H 1.15512 0.40809 -0.14479
 H1175 H 1.07169 0.30812 -0.15253
 H1176 H 1.16842 0.30504 -0.07666
 H1177 H 1.15995 0.39580 -0.06619
 H1178 H 1.07544 0.29654 -0.07305
 C1179 C 0.63835 0.87522 0.41426
 C1180 C 0.64339 0.82546 0.40876
 C1181 C 0.64054 0.83248 0.36589
 C1182 C 0.63561 0.88182 0.37136
 C1183 C 0.59041 0.82660 0.36740
 C1184 C 0.59264 0.82037 0.41083
 C1185 C 0.58802 0.87007 0.41598
 C1186 C 0.58547 0.87632 0.37293
 H1187 H 0.65840 0.89517 0.43376
 H1188 H 0.66769 0.80453 0.42341
 H1189 H 0.65325 0.90735 0.35519
 H1190 H 0.57076 0.80656 0.34769
 H1191 H 0.57484 0.79507 0.42711
 H1192 H 0.56136 0.89714 0.35790
 C1193 C 0.85372 0.63115 -0.08327
 C1194 C 0.85035 0.68073 -0.09081
 C1195 C 0.85318 0.67142 -0.13334
 C1196 C 0.85644 0.62232 -0.12587
 C1197 C 0.90340 0.67591 -0.13193
 C1198 C 0.90123 0.68439 -0.08884
 C1199 C 0.90412 0.63491 -0.08160
 C1200 C 0.90668 0.62645 -0.12439
 H1201 H 0.83302 0.61286 -0.06299
 H1202 H 0.82665 0.70317 -0.07717
 H1203 H 0.83811 0.59661 -0.14112
 H1204 H 0.92370 0.69426 -0.15244
 H1205 H 0.91969 0.70989 -0.07346
 H1206 H 0.93017 0.60415 -0.13849
 C1207 C 0.40706 1.12531 0.37564
 C1208 C 0.35686 1.12084 0.37349
 C1209 C 0.35324 1.17008 0.36668
 C1210 C 0.40343 1.17492 0.36876
 C1211 C 0.34972 1.17846 0.40933
 C1212 C 0.35344 1.12877 0.41620
 C1213 C 0.40379 1.13290 0.41853
 C1214 C 0.40052 1.18250 0.41197
 H1215 H 0.43096 1.10350 0.36148
 H1216 H 0.33901 1.09524 0.35768
 H1217 H 0.42392 1.19384 0.34880
 H1218 H 0.32564 1.20039 0.42309
 H1219 H 0.33256 1.10991 0.43593
 H1220 H 0.41849 1.20789 0.42790
 C1221 C 1.09974 0.68180 0.08775
 C1222 C 1.09686 0.67396 0.13093
 C1223 C 1.14690 0.66788 0.13277
 C1224 C 1.15045 0.67655 0.09016
 C1225 C 1.14229 0.61882 0.12591
 C1226 C 1.09221 0.62452 0.12401
 C1227 C 1.09548 0.63236 0.08115
 C1228 C 1.14571 0.62701 0.08324
 H1229 H 1.08219 0.70765 0.07188
 H1230 H 1.07694 0.69323 0.15105
 H1231 H 1.17494 0.69804 0.07642
 H1232 H 1.15971 0.59275 0.14165
 H1233 H 1.06790 0.60316 0.13817
 H1234 H 1.16604 0.60780 0.06335
 C1235 C 0.64585 1.12539 0.58351
 C1236 C 0.65012 1.17497 0.59061
 C1237 C 0.64739 1.16606 0.63325
 C1238 C 0.64324 1.11696 0.62621
 C1239 C 0.59722 1.17149 0.63197
 C1240 C 0.59930 1.17960 0.58880
 C1241 C 0.59551 1.13013 0.58200
 C1242 C 0.59305 1.12203 0.62487
 H1243 H 0.66611 1.10655 0.56332
 H1244 H 0.67410 1.19683 0.57665
 H1245 H 0.66120 1.09100 0.64162
 H1246 H 0.57732 1.19039 0.65238
 H1247 H 0.58121 1.20536 0.57328
 H1248 H 0.56926 1.10030 0.63926
 C1249 C 0.86348 0.34929 0.07566
 C1250 C 0.87842 0.31120 0.10173
 C1251 C 0.85498 0.33343 0.13512
 C1252 C 0.83979 0.37070 0.10948
 C1253 C 0.89722 0.35822 0.14490
 C1254 C 0.92111 0.33683 0.11118
 C1255 C 0.90571 0.37430 0.08549
 C1256 C 0.88181 0.39564 0.11945
 H1257 H 0.84976 0.34529 0.04699
 H1258 H 0.87657 0.27600 0.09472
 H1259 H 0.80637 0.38500 0.10895
 H1260 H 0.91117 0.36246 0.17347
 H1261 H 0.95458 0.32268 0.11174
 H1262 H 0.88234 0.43037 0.12829
 C1263 C 0.35324 0.87729 0.58882
 C1264 C 0.34761 0.82769 0.59478
 C1265 C 0.35265 0.83416 0.63559
 C1266 C 0.35716 0.88156 0.63183
 C1267 C 0.40031 0.82680 0.63400
 C1268 C 0.39798 0.82139 0.59060
 C1269 C 0.40363 0.87126 0.58577
 C1270 C 0.40722 0.87634 0.62906
 H1271 H 0.33210 0.89778 0.57052
 H1272 H 0.32180 0.80707 0.58189
 H1273 H 0.33944 0.90551 0.64964
 H1274 H 0.41831 0.80536 0.65391
 H1275 H 0.41422 0.79520 0.57421
 H1276 H 0.43166 0.89595 0.64475
 C1277 C 0.31961 1.10458 -0.08838
 C1278 C 0.32598 1.15499 -0.09008
 C1279 C 0.33464 1.15235 -0.13276
 C1280 C 0.32742 1.10258 -0.13158
 C1281 C 0.38376 1.14633 -0.12596
 C1282 C 0.37561 1.14884 -0.08319
 C1283 C 0.36915 1.09882 -0.08180
 C1284 C 0.37694 1.09651 -0.12473
 H1285 H 0.29319 1.08740 -0.07291
 H1286 H 0.30505 1.17962 -0.07593
 H1287 H 0.30767 1.08363 -0.15200
 H1288 H 0.41034 1.16340 -0.14136
 H1289 H 0.39529 1.16821 -0.06299
 H1290 H 0.39773 1.07209 -0.13932
 C1291 C 0.87683 0.59616 0.37511
 C1292 C 0.82732 0.60223 0.36819
 C1293 C 0.83454 0.65201 0.36705
 C1294 C 0.88364 0.64598 0.37391
 C1295 C 0.82578 0.65460 0.40971
 C1296 C 0.81942 0.60418 0.41137
 C1297 C 0.86895 0.59842 0.41804
 C1298 C 0.87540 0.64845 0.41667
 H1299 H 0.89765 0.57176 0.36052
 H1300 H 0.80762 0.58329 0.34772
 H1301 H 0.91025 0.66307 0.35857
 H1302 H 0.80482 0.67921 0.42386
 H1303 H 0.79297 0.58698 0.42679
 H1304 H 0.89503 0.66781 0.43691
 C1305 C 0.62055 1.14601 0.08615
 C1306 C 0.61378 1.14308 0.12908
 C1307 C 0.66301 1.14985 0.13471
 C1308 C 0.67025 1.15288 0.09187
 C1309 C 0.67102 1.10016 0.13325
 C1310 C 0.62137 1.09336 0.12756
 C1311 C 0.62779 1.09606 0.08450
 C1312 C 0.67742 1.10259 0.08989
 H1313 H 0.59987 1.16523 0.06648
 H1314 H 0.58741 1.15970 0.14508
 H1315 H 0.69026 1.17792 0.07726
 H1316 H 0.69178 1.08136 0.15313
 H1317 H 0.60151 1.06852 0.14257
 H1318 H 0.70364 1.08586 0.07380
 C1319 C 1.12041 0.64638 0.58615
 C1320 C 1.11373 0.64338 0.62908
 C1321 C 1.16297 0.65008 0.63467
 C1322 C 1.17014 0.65319 0.59182
 C1323 C 1.17092 0.60038 0.63313
 C1324 C 1.12126 0.59365 0.62748
 C1325 C 1.12761 0.59643 0.58442
 C1326 C 1.17725 0.60289 0.58976
 H1327 H 1.09973 0.66566 0.56653
 H1328 H 1.08740 0.65999 0.64516
 H1329 H 1.19016 0.67822 0.57723
 H1330 H 1.19169 0.58151 0.65295
 H1331 H 1.10138 0.56880 0.64248
 H1332 H 1.20342 0.58616 0.57361
 C1333 C 0.62052 0.90955 -0.12721
 C1334 C 0.67000 0.90228 -0.13355
 C1335 C 0.66168 0.85264 -0.13432
 C1336 C 0.61263 0.85988 -0.12802
 C1337 C 0.66976 0.85021 -0.09156
 C1338 C 0.67721 0.90048 -0.09026
 C1339 C 0.62772 0.90748 -0.08421
 C1340 C 0.62023 0.85755 -0.08518
 H1341 H 0.60050 0.93431 -0.14224
 H1342 H 0.69047 0.92058 -0.15397
 H1343 H 0.58585 0.84323 -0.14343
 H1344 H 0.68991 0.82524 -0.07696
 H1345 H 0.70384 0.91725 -0.07477
 H1346 H 0.59986 0.83877 -0.06499
 C1347 C 1.12069 0.35764 0.41521
 C1348 C 1.11302 0.35978 0.37238
 C1349 C 1.16209 0.35274 0.36605
 C1350 C 1.17025 0.35050 0.40881
 C1351 C 1.17019 0.40242 0.36667
 C1352 C 1.12069 0.40949 0.37304
 C1353 C 1.12796 0.40760 0.41604
 C1354 C 1.17747 0.40080 0.40996
 H1355 H 1.10043 0.33884 0.43547
 H1356 H 1.08630 0.34296 0.35704
 H1357 H 1.19053 0.32566 0.42344
 H1358 H 1.19055 0.42074 0.34618
 H1359 H 1.10054 0.43410 0.35797
 H1360 H 1.20403 0.41775 0.42539
 C1361 C 0.37637 0.85236 0.08162
 C1362 C 0.38616 0.85408 0.12416
 C1363 C 0.33732 0.84829 0.13230
 C1364 C 0.32700 0.84646 0.08987
 C1365 C 0.33027 0.89811 0.13197
 C1366 C 0.37951 0.90394 0.12376
 C1367 C 0.37010 0.90243 0.08102
 C1368 C 0.32081 0.89694 0.08900
 H1369 H 0.39514 0.83319 0.06060
 H1370 H 0.41323 0.83658 0.13857
 H1371 H 0.30541 0.82223 0.07602
 H1372 H 0.31143 0.91684 0.15321
 H1373 H 0.40096 0.92794 0.13808
 H1374 H 0.29389 0.91454 0.07451
 C1375 C 0.87677 0.35195 0.58162
 C1376 C 0.88636 0.35365 0.62420
 C1377 C 0.83750 0.34761 0.63218
 C1378 C 0.82739 0.34580 0.58970
 C1379 C 0.83023 0.39741 0.63186
 C1380 C 0.87948 0.40348 0.62383
 C1381 C 0.87028 0.40200 0.58106
 C1382 C 0.82098 0.39626 0.58886
 H1383 H 0.89574 0.33290 0.56066
 H1384 H 0.91344 0.33625 0.63868
 H1385 H 0.80598 0.32149 0.57575
 H1386 H 0.81120 0.41603 0.65305
 H1387 H 0.90075 0.42756 0.63827
 H1388 H 0.79404 0.41376 0.57431
 C1389 C 1.12590 1.12814 0.59731
 C1390 C 1.10753 1.15816 0.62817
 C1391 C 1.14330 1.14104 0.65442
 C1392 C 1.16181 1.11113 0.62398
 C1393 C 1.11285 1.10452 0.66874
 C1394 C 1.07669 1.12130 0.64182
 C1395 C 1.09520 1.09140 0.61126
 C1396 C 1.13099 1.07422 0.63761
 H1397 H 1.13155 1.13837 0.56775
 H1398 H 1.09860 1.19301 0.62442
 H1399 H 1.19704 1.10768 0.61685
 H1400 H 1.10798 1.09526 0.69863
 H1401 H 1.04161 1.12471 0.64920
 H1402 H 1.13988 1.03935 0.64132
 C1403 C 0.62456 0.62652 0.09809
 C1404 C 0.60656 0.65676 0.12891
 C1405 C 0.64234 0.63948 0.15506
 C1406 C 0.66045 0.60930 0.12465
 C1407 C 0.61163 0.60323 0.16957
 C1408 C 0.57546 0.62019 0.14270
 C1409 C 0.59356 0.59000 0.11216
 C1410 C 0.62937 0.57266 0.13844
 H1411 H 0.63028 0.63680 0.06854
 H1412 H 0.59789 0.69167 0.12507
 H1413 H 0.69560 0.60554 0.11737
 H1414 H 0.60683 0.59410 0.19950
 H1415 H 0.54046 0.62394 0.15025
 H1416 H 0.63802 0.53775 0.14225
 C1417 C 1.09838 0.90670 0.34318
 C1418 C 1.14918 0.90614 0.34465
 C1419 C 1.14837 0.85606 0.34680
 C1420 C 1.09809 0.85615 0.34462
 C1421 C 1.14740 0.85686 0.38966
 C1422 C 1.14795 0.90722 0.38802
 C1423 C 1.09759 0.90735 0.38616
 C1424 C 1.09689 0.85718 0.38792
 H1425 H 1.07795 0.92749 0.32458
 H1426 H 1.17156 0.92561 0.32666
 H1427 H 1.07819 0.83428 0.32661
 H1428 H 1.16775 0.83616 0.40842
 H1429 H 1.16802 0.92902 0.40596
 H1430 H 1.07459 0.83743 0.40578
 C1431 C 0.59914 0.40731 -0.15668
 C1432 C 0.64992 0.40629 -0.15492
 C1433 C 0.64864 0.35619 -0.15325
 C1434 C 0.59838 0.35676 -0.15570
 C1435 C 0.64731 0.35650 -0.11037
 C1436 C 0.64831 0.40687 -0.11153
 C1437 C 0.59798 0.40746 -0.11369
 C1438 C 0.59681 0.35729 -0.11240
 H1439 H 0.57906 0.42851 -0.17523
 H1440 H 0.67260 0.42579 -0.17260
 H1441 H 0.57841 0.33531 -0.17403
 H1442 H 0.66730 0.33540 -0.09165
 H1443 H 0.66841 0.42827 -0.09326
 H1444 H 0.57421 0.33752 -0.09485
 C1445 C 0.87478 1.12181 0.40295
 C1446 C 0.89235 1.15440 0.37369
 C1447 C 0.85779 1.13750 0.34632
 C1448 C 0.84012 1.10501 0.37514
 C1449 C 0.89009 1.10312 0.33092
 C1450 C 0.92504 1.11969 0.35901
 C1451 C 0.90736 1.08712 0.38795
 C1452 C 0.87276 1.07022 0.36047
 H1453 H 0.86793 1.13012 0.43275
 H1454 H 0.89962 1.18931 0.37906
 H1455 H 0.80497 1.09975 0.38169
 H1456 H 0.89593 1.09585 0.30077
 H1457 H 0.96019 1.12499 0.35248
 H1458 H 0.86518 1.03548 0.35505
 C1459 C 0.40757 0.58850 -0.15771
 C1460 C 0.35681 0.58917 -0.15534
 C1461 C 0.35767 0.63927 -0.15322
 C1462 C 0.40794 0.63905 -0.15630
 C1463 C 0.35971 0.63826 -0.11039
 C1464 C 0.35909 0.58790 -0.11201
 C1465 C 0.40943 0.58764 -0.11475
 C1466 C 0.41019 0.63783 -0.11303
 H1467 H 0.42751 0.56779 -0.17672
 H1468 H 0.33399 0.56974 -0.17287
 H1469 H 0.42750 0.66095 -0.17465
 H1470 H 0.33985 0.65889 -0.09124
 H1471 H 0.33934 0.56606 -0.09375
 H1472 H 0.43294 0.65752 -0.09563
 C1473 C 0.88046 0.86965 0.59963
 C1474 C 0.89561 0.84007 0.63206
 C1475 C 0.85942 0.86013 0.65624
 C1476 C 0.84419 0.88963 0.62422
 C1477 C 0.89110 0.89548 0.67067
 C1478 C 0.92774 0.87578 0.64570
 C1479 C 0.91240 0.90533 0.61356
 C1480 C 0.87621 0.92536 0.63792
 H1481 H 0.87571 0.85826 0.57029
 H1482 H 0.90273 0.80466 0.62976
 H1483 H 0.80961 0.89463 0.61561
 H1484 H 0.89475 0.90568 0.70042
 H1485 H 0.96235 0.87078 0.65425
 H1486 H 0.86890 0.96071 0.64016
 C1487 C 0.37521 0.37117 0.09692
 C1488 C 0.39147 0.34025 0.12806
 C1489 C 0.35650 0.35957 0.15396
 C1490 C 0.34012 0.39038 0.12324
 C1491 C 0.38900 0.39423 0.16829
 C1492 C 0.42438 0.37524 0.14168
 C1493 C 0.40793 0.40609 0.11085
 C1494 C 0.37296 0.42542 0.13687
 H1495 H 0.36921 0.36112 0.06739
 H1496 H 0.39828 0.30491 0.12456
 H1497 H 0.30524 0.39590 0.11584
 H1498 H 0.39408 0.40332 0.19816
 H1499 H 0.45928 0.36971 0.14902
 H1500 H 0.36599 0.46069 0.14034
   
