data_POSCAR
  _audit_creation_date              2014-09-24
  _audit_creation_method            'ToBaCCo'
  _symmetry_space_group_name_H-M    'P1'
  _symmetry_Int_Tables_number       1
  _symmetry_cell_setting            triclinic
  loop_
  _symmetry_equiv_pos_as_xyz
 x,y,z
_cell_length_a 48.0128
_cell_length_b 47.7326
_cell_length_c 48.7024
_cell_angle_alpha 85.057600
_cell_angle_beta 91.051900
_cell_angle_gamma 88.592900
loop_
  _atom_site_label
  _atom_site_type_symbol
  _atom_site_fract_x
  _atom_site_fract_y
  _atom_site_fract_z
C1 C 0.79600 0.61070 0.99988
 C2 C 0.72489 0.34473 0.51396
 C3 C 0.28600 -0.11052 -0.00661
 C4 C 0.24640 0.11547 0.48986
 C5 C 0.13267 0.49213 0.26162
 C6 C -0.11813 -0.01847 0.25812
 C7 C 0.35612 0.51231 0.76983
 C8 C 0.61556 1.00373 0.74658
 C9 C -0.01693 0.25705 -0.13919
 C10 C 0.51019 0.26604 0.11461
 C11 C 1.01603 0.75837 0.62691
 C12 C 0.52064 0.74679 0.36501
 C13 C 0.42848 -0.01735 0.28161
 H14 H 0.42461 -0.00010 0.29417
 C15 C 0.44813 -0.03847 0.29033
 H16 H 0.45919 -0.03729 0.30976
 C17 C 0.41717 -0.04081 0.24212
 H18 H 0.40471 -0.04210 0.22364
 C19 C 0.43674 -0.06224 0.24994
 H20 H 0.43940 -0.07941 0.23700
 N21 N 0.41332 -0.01897 0.25797
 C22 C 0.38173 0.06155 0.22129
 H23 H 0.36111 0.05494 0.21585
 C24 C 0.39024 0.08836 0.21207
 H25 H 0.37612 0.10183 0.19898
 C26 C 0.42514 0.05143 0.24434
 H27 H 0.43861 0.03696 0.25702
 C28 C 0.43439 0.07837 0.23588
 H29 H 0.45489 0.08438 0.24244
 Zn30 Zn 0.38441 0.00823 0.24905
 N31 N 0.39910 0.04368 0.23710
 C32 C 0.36102 0.03762 0.29102
 N33 N 0.36331 0.01181 0.28134
 C34 C 0.35234 -0.01116 0.29531
 C35 C 0.33791 -0.00850 0.31977
 C36 C 0.34705 0.04117 0.31536
 C37 C 0.37368 -0.00261 0.19439
 C38 C 0.35963 -0.01325 0.17235
 C39 C 0.32121 -0.02424 0.20239
 C40 C 0.33597 -0.01327 0.22386
 N41 N 0.36207 -0.00351 0.21972
 H42 H 0.37039 0.05553 0.28008
 H43 H 0.35491 -0.03160 0.28751
 H44 H 0.32896 -0.02692 0.33035
 H45 H 0.34614 0.06188 0.32282
 H46 H 0.39438 0.00547 0.19159
 H47 H 0.36985 -0.01358 0.15274
 H48 H 0.30076 -0.03265 0.20623
 H49 H 0.32684 -0.01331 0.24396
 C50 C 0.41677 0.09736 0.21962
 C51 C 0.45223 -0.06152 0.27458
 C52 C 0.33331 -0.02491 0.17638
 C53 C 0.33498 0.01803 0.33006
 C54 C 0.08463 1.03356 0.78440
 H55 H 0.08757 1.01380 0.79688
 C56 C 0.07179 1.05643 0.79550
 H57 H 0.06485 1.05425 0.81659
 C58 C 0.09270 1.06136 0.74270
 H59 H 0.10212 1.06362 0.72270
 C60 C 0.07961 1.08472 0.75290
 H61 H 0.07898 1.10478 0.74065
 N62 N 0.09546 1.03659 0.75875
 C63 C 0.11541 0.95180 0.73863
 H64 H 0.13738 0.95478 0.73519
 C65 C 0.10393 0.92591 0.73522
 H66 H 0.11736 0.90900 0.72929
 C67 C 0.07161 0.97045 0.75094
 H68 H 0.05919 0.98806 0.75685
 C69 C 0.05901 0.94482 0.74713
 H70 H 0.03676 0.94296 0.74972
 Zn71 Zn 0.11904 1.00675 0.74924
 N72 N 0.09934 0.97338 0.74646
 C73 C 0.14736 0.97508 0.79336
 N74 N 0.14635 1.00041 0.77818
 C75 C 0.16230 1.02195 0.78535
 C76 C 0.18001 1.01840 0.80871
 C77 C 0.16506 0.97049 0.81634
 C78 C 0.11722 1.02006 0.69233
 C79 C 0.12715 1.02402 0.66554
 C80 C 0.17400 1.01653 0.68397
 C81 C 0.16316 1.01324 0.71055
 N82 N 0.13518 1.01508 0.71421
 H83 H 0.13378 0.95852 0.78840
 H84 H 0.16065 1.04213 0.77340
 H85 H 0.19230 1.03576 0.81448
 H86 H 0.16513 0.95029 0.82833
 H87 H 0.09502 1.02078 0.69573
 H88 H 0.11229 1.02877 0.64872
 H89 H 0.19628 1.01416 0.68160
 H90 H 0.17703 1.00841 0.72815
 C91 C 0.07524 0.92230 0.73871
 C92 C 0.06986 1.08251 0.77991
 C93 C 0.15594 1.02203 0.66088
 C94 C 0.18149 0.99231 0.82443
 C95 C 0.60165 0.51886 0.27735
 H96 H 0.60020 0.49772 0.28687
 C97 C 0.58438 0.54010 0.28622
 H98 H 0.56986 0.53479 0.30248
 C99 C 0.62389 0.55175 0.24647
 H100 H 0.63983 0.55650 0.23156
 C101 C 0.60686 0.57361 0.25457
 H102 H 0.60948 0.59473 0.24513
 N103 N 0.62126 0.52498 0.25808
 C104 C 0.63116 0.45559 0.21358
 H105 H 0.64319 0.46741 0.19840
 C106 C 0.61778 0.43165 0.20619
 H107 H 0.61956 0.42567 0.18533
 C108 C 0.61555 0.44774 0.25934
 H109 H 0.61544 0.45358 0.28027
 C110 C 0.60202 0.42344 0.25287
 H111 H 0.59088 0.41129 0.26873
 Zn112 Zn 0.64762 0.49645 0.24980
 N113 N 0.62932 0.46364 0.23964
 C114 C 0.68779 0.46346 0.28136
 N115 N 0.66977 0.48588 0.28166
 C116 C 0.66656 0.49975 0.30471
 C117 C 0.68072 0.49025 0.32911
 C118 C 0.70276 0.45355 0.30525
 C119 C 0.65903 0.51952 0.19594
 C120 C 0.67536 0.53118 0.17470
 C121 C 0.71533 0.52657 0.20581
 C122 C 0.69837 0.51443 0.22630
 N123 N 0.67074 0.51113 0.22107
 H124 H 0.68988 0.45282 0.26274
 H125 H 0.65246 0.51775 0.30445
 H126 H 0.67707 0.50063 0.34769
 H127 H 0.71623 0.43502 0.30517
 H128 H 0.63687 0.51749 0.19253
 H129 H 0.66581 0.53807 0.15486
 H130 H 0.73715 0.52971 0.21030
 H131 H 0.70720 0.50831 0.24654
 C132 C 0.60275 0.41536 0.22587
 C133 C 0.58708 0.56803 0.27509
 C134 C 0.70375 0.53495 0.17973
 C135 C 0.69872 0.46670 0.32954
 C136 C 0.87508 0.47888 0.75800
 H137 H 0.87537 0.49639 0.77071
 C138 C 0.89084 0.45445 0.76587
 H139 H 0.90345 0.45356 0.78459
 C140 C 0.85893 0.45942 0.71769
 H141 H 0.84669 0.46152 0.69876
 C142 C 0.87408 0.43445 0.72496
 H143 H 0.87269 0.41737 0.71179
 N144 N 0.85960 0.48097 0.73424
 C145 C 0.85392 0.56961 0.70246
 H146 H 0.83167 0.57382 0.70098
 C147 C 0.87234 0.59063 0.69352
 H148 H 0.86413 0.61086 0.68481
 C149 C 0.89164 0.53777 0.71458
 H150 H 0.89927 0.51716 0.72252
 C151 C 0.91068 0.55811 0.70609
 H152 H 0.93274 0.55284 0.70799
 Zn153 Zn 0.83882 0.51475 0.72434
 N154 N 0.86380 0.54369 0.71263
 C155 C 0.82353 0.55037 0.76531
 N156 N 0.81967 0.52457 0.75618
 C157 C 0.80523 0.50467 0.77132
 C158 C 0.79438 0.51028 0.79681
 C159 C 0.81330 0.55674 0.79069
 C160 C 0.81924 0.51903 0.66886
 C161 C 0.80496 0.50966 0.64627
 C162 C 0.77932 0.47852 0.67766
 C163 C 0.79389 0.48863 0.69964
 N164 N 0.81398 0.50797 0.69491
 H165 H 0.83558 0.56576 0.75358
 H166 H 0.80347 0.48386 0.76446
 H167 H 0.78389 0.49391 0.80911
 H168 H 0.81728 0.57712 0.79795
 H169 H 0.83576 0.53377 0.66533
 H170 H 0.81046 0.51756 0.62562
 H171 H 0.76424 0.46225 0.68175
 H172 H 0.79033 0.47965 0.72030
 C173 C 0.90117 0.58483 0.69499
 C174 C 0.89033 0.43165 0.74938
 C175 C 0.78541 0.48844 0.65055
 C176 C 0.79902 0.53637 0.80700
 C177 C 0.26056 0.40923 -0.00522
 H178 H 0.26539 0.40768 0.01665
 C179 C 0.27431 0.42857 -0.02291
 H180 H 0.28906 0.44235 -0.01426
 C181 C 0.23606 0.39241 -0.04285
 H182 H 0.22190 0.37761 -0.05066
 C183 C 0.24971 0.41112 -0.06136
 H184 H 0.24576 0.41035 -0.08323
 N185 N 0.24167 0.39178 -0.01533
 C186 C 0.19176 0.36288 0.05468
 H187 H 0.19081 0.34093 0.05089
 C188 C 0.17748 0.37267 0.07672
 H189 H 0.16606 0.35800 0.09016
 C190 C 0.20799 0.40853 0.04178
 H191 H 0.21935 0.42260 0.02785
 C192 C 0.19411 0.41921 0.06371
 H193 H 0.19518 0.44141 0.06659
 Zn194 Zn 0.22649 0.36398 0.00992
 N195 N 0.20730 0.38059 0.03822
 C196 C 0.25735 0.33159 0.05246
 N197 N 0.25692 0.34136 0.02538
 C198 C 0.28015 0.33982 0.00994
 C199 C 0.30554 0.33006 0.02213
 C200 C 0.28218 0.32137 0.06538
 C201 C 0.17800 0.35822 -0.01984
 C202 C 0.15494 0.34483 -0.02973
 C203 C 0.17621 0.30006 -0.01276
 C204 C 0.19934 0.31435 -0.00374
 N205 N 0.19964 0.34294 -0.00729
 H206 H 0.23888 0.33299 0.06456
 H207 H 0.27943 0.34792 -0.01150
 H208 H 0.32412 0.33088 0.00985
 H209 H 0.28220 0.31448 0.08715
 H210 H 0.17839 0.38095 -0.02144
 H211 H 0.13774 0.35728 -0.03948
 H212 H 0.17571 0.27735 -0.00940
 H213 H 0.21644 0.30278 0.00711
 C214 C 0.17897 0.40107 0.08172
 C215 C 0.26935 0.42942 -0.05150
 C216 C 0.15372 0.31549 -0.02582
 C217 C 0.30698 0.32168 0.05048
 C218 C 0.75503 0.06373 1.04001
 H219 H 0.74438 0.04955 1.02751
 C220 C 0.76453 0.05421 1.06666
 H221 H 0.76111 0.03269 1.07453
 C222 C 0.77233 0.10904 1.04541
 H223 H 0.77560 0.13036 1.03691
 C224 C 0.78176 0.10057 1.07210
 H225 H 0.79233 0.11545 1.08397
 N226 N 0.75864 0.09094 1.03017
 C227 C 0.71238 0.06287 0.97731
 H228 H 0.70363 0.06217 0.99766
 C229 C 0.69879 0.04955 0.95660
 H230 H 0.67984 0.03839 0.96124
 C231 C 0.74507 0.08171 0.94533
 H232 H 0.76199 0.09561 0.94043
 C233 C 0.73250 0.06821 0.92418
 H234 H 0.74000 0.07182 0.90337
 Zn235 Zn 0.74384 0.10711 0.99586
 N236 N 0.73413 0.07988 0.97103
 C237 C 0.79664 0.11967 0.97502
 N238 N 0.77110 0.13098 0.97982
 C239 C 0.76507 0.15874 0.97335
 C240 C 0.78487 0.17613 0.96067
 C241 C 0.81694 0.13621 0.96195
 C242 C 0.71067 0.14481 1.02429
 C243 C 0.68598 0.15790 1.03183
 C244 C 0.66213 0.13831 0.99416
 C245 C 0.68735 0.12584 0.98715
 N246 N 0.71086 0.12848 1.00272
 H247 H 0.80094 0.09754 0.98065
 H248 H 0.74476 0.16736 0.97772
 H249 H 0.77960 0.19819 0.95576
 H250 H 0.83664 0.12644 0.95718
 H251 H 0.72945 0.14716 1.03624
 H252 H 0.68609 0.16993 1.04969
 H253 H 0.64352 0.13543 0.98192
 H254 H 0.68792 0.11372 0.96945
 C255 C 0.70820 0.05321 0.92945
 C256 C 0.77758 0.07298 1.08319
 C257 C 0.66116 0.15416 1.01707
 C258 C 0.81105 0.16481 0.95419
 C259 C 0.26917 0.58888 0.52627
 H260 H 0.25862 0.57858 0.51034
 C261 C 0.27932 0.57287 0.54983
 H262 H 0.27605 0.55043 0.55198
 C263 C 0.28683 0.63036 0.54275
 H264 H 0.29036 0.65267 0.53947
 C265 C 0.29706 0.61519 0.56677
 H266 H 0.30828 0.62601 0.58202
 N267 N 0.27264 0.61719 0.52335
 C268 C 0.25324 0.61513 0.43999
 H269 H 0.27159 0.62656 0.43397
 C270 C 0.23867 0.60123 0.42040
 H271 H 0.24610 0.60188 0.39950
 C272 C 0.21982 0.60220 0.47372
 H273 H 0.21222 0.60343 0.49437
 C274 C 0.20447 0.58834 0.45474
 H275 H 0.18528 0.57841 0.46100
 Zn276 Zn 0.25887 0.63905 0.49138
 N277 N 0.24345 0.61564 0.46598
 C278 C 0.31128 0.64482 0.46802
 N279 N 0.28847 0.65943 0.47561
 C280 C 0.28699 0.68799 0.47232
 C281 C 0.30895 0.70302 0.46044
 C282 C 0.33348 0.65893 0.45563
 C283 C 0.20914 0.66987 0.48052
 C284 C 0.18473 0.68420 0.48682
 C285 C 0.20401 0.68867 0.53232
 C286 C 0.22776 0.67368 0.52536
 N287 N 0.22960 0.66397 0.50002
 H288 H 0.31192 0.62209 0.47113
 H289 H 0.26878 0.69915 0.47893
 H290 H 0.30750 0.72577 0.45835
 H291 H 0.35090 0.64673 0.44877
 H292 H 0.21119 0.66233 0.46033
 H293 H 0.16805 0.68700 0.47150
 H294 H 0.20295 0.69599 0.55272
 H295 H 0.24424 0.66917 0.54053
 C296 C 0.21361 0.58824 0.42758
 C297 C 0.29325 0.58608 0.57055
 C298 C 0.18156 0.69310 0.51333
 C299 C 0.33252 0.68848 0.45162
 C300 C 0.75294 0.92803 0.47867
 H301 H 0.74408 0.93746 0.49600
 C302 C 0.76022 0.94524 0.45531
 H303 H 0.75704 0.96778 0.45509
 C304 C 0.76695 0.88735 0.45745
 H305 H 0.76932 0.86481 0.45812
 C306 C 0.77466 0.90368 0.43386
 H307 H 0.78375 0.89329 0.41714
 N308 N 0.75713 0.89964 0.47962
 C309 C 0.71594 0.89019 0.55537
 H310 H 0.70337 0.87316 0.54939
 C311 C 0.70806 0.90492 0.57768
 H312 H 0.68958 0.89868 0.58877
 C313 C 0.75589 0.91792 0.54894
 H314 H 0.77465 0.92276 0.53770
 C315 C 0.74862 0.93342 0.57095
 H316 H 0.76171 0.95043 0.57611
 Zn317 Zn 0.74977 0.87550 0.51174
 N318 N 0.73952 0.89682 0.54150
 C319 C 0.79814 0.85781 0.54370
 N320 N 0.78222 0.85272 0.52139
 C321 C 0.78931 0.83163 0.50546
 C322 C 0.81364 0.81538 0.51117
 C323 C 0.82271 0.84221 0.55004
 C324 C 0.70019 0.86320 0.48515
 C325 C 0.67997 0.84607 0.47504
 C326 C 0.70115 0.80633 0.50254
 C327 C 0.72088 0.82430 0.51228
 N328 N 0.72044 0.85200 0.50292
 H329 H 0.79207 0.87415 0.55652
 H330 H 0.77597 0.82716 0.48838
 H331 H 0.81918 0.79906 0.49798
 H332 H 0.83519 0.84671 0.56780
 H333 H 0.70036 0.88530 0.47803
 H334 H 0.66470 0.85516 0.46000
 H335 H 0.70214 0.78419 0.50963
 H336 H 0.73699 0.81596 0.52673
 C337 C 0.72438 0.92702 0.58573
 C338 C 0.77179 0.93311 0.43267
 C339 C 0.68067 0.81712 0.48328
 C340 C 0.83091 0.82094 0.53344
 C341 C -0.04588 0.27025 0.41590
 H342 H -0.02569 0.27981 0.41538
 C343 C -0.06601 0.27911 0.43378
 H344 H -0.06102 0.29592 0.44643
 C345 C -0.07709 0.23822 0.39840
 H346 H -0.08174 0.22290 0.38405
 C347 C -0.09759 0.24586 0.41654
 H348 H -0.11730 0.23537 0.41639
 N349 N -0.05169 0.25024 0.39857
 C350 C 0.02949 0.21899 0.37585
 H351 H 0.02756 0.22521 0.35399
 C352 C 0.05320 0.20425 0.38637
 H353 H 0.06962 0.19935 0.37246
 C354 C 0.00997 0.21742 0.42031
 H355 H -0.00728 0.22219 0.43324
 C356 C 0.03356 0.20250 0.43181
 H357 H 0.03436 0.19572 0.45361
 Zn358 Zn -0.02337 0.24174 0.37368
 N359 N 0.00831 0.22491 0.39268
 C360 C 0.00939 0.28887 0.36597
 N361 N -0.01266 0.27625 0.35483
 C362 C -0.02706 0.28894 0.33262
 C363 C -0.01805 0.31434 0.31956
 C364 C 0.01848 0.31458 0.35423
 C365 C -0.04394 0.19016 0.36177
 C366 C -0.05176 0.16844 0.34609
 C367 C -0.03951 0.19706 0.30503
 C368 C -0.03232 0.21849 0.32155
 N369 N -0.03510 0.21489 0.34939
 H370 H 0.01976 0.27917 0.38440
 H371 H -0.04536 0.27923 0.32483
 H372 H -0.02907 0.32329 0.30117
 H373 H 0.03560 0.32427 0.36422
 H374 H -0.04489 0.18730 0.38400
 H375 H -0.05963 0.14944 0.35659
 H376 H -0.03664 0.20021 0.28301
 H377 H -0.02366 0.23753 0.31209
 C378 C 0.05520 0.19518 0.41454
 C379 C -0.09240 0.26687 0.43443
 C380 C -0.04950 0.17157 0.31726
 C381 C 0.00530 0.32745 0.33017
 C382 C 1.04841 0.80643 0.07618
 H383 H 1.02695 0.81375 0.07379
 C384 C 1.06893 0.82027 0.06062
 H385 H 1.06230 0.83699 0.04537
 C386 C 1.08241 0.77597 0.09931
 H387 H 1.08773 0.75922 0.11503
 C388 C 1.10370 0.79007 0.08524
 H389 H 1.12492 0.78372 0.09091
 N390 N 1.05533 0.78420 0.09458
 C391 C 0.97772 0.74042 0.11287
 H392 H 0.98221 0.73463 0.13449
 C393 C 0.95364 0.73096 0.10063
 H394 H 0.93958 0.71789 0.11289
 C395 C 0.99099 0.76379 0.07039
 H396 H 1.00597 0.77566 0.05834
 C397 C 0.96678 0.75523 0.05742
 H398 H 0.96320 0.76088 0.03560
 Zn399 Zn 1.02794 0.76688 0.11765
 N400 N 0.99576 0.75672 0.09780
 C401 C 0.99111 0.79912 0.14827
 N402 N 1.01824 0.79282 0.14334
 C403 C 1.03930 0.80700 0.15449
 C404 C 1.03339 0.82933 0.17041
 C405 C 0.98431 0.82079 0.16462
 C406 C 1.05133 0.71341 0.11884
 C407 C 1.06289 0.68776 0.12989
 C408 C 1.05598 0.70248 0.17560
 C409 C 1.04480 0.72816 0.16360
 N410 N 1.04304 0.73315 0.13567
 H411 H 0.97464 0.78805 0.13885
 H412 H 1.06069 0.80174 0.15003
 H413 H 1.05025 0.84121 0.17829
 H414 H 0.96261 0.82615 0.16772
 H415 H 1.04926 0.71784 0.09673
 H416 H 1.06985 0.67246 0.11615
 H417 H 1.05785 0.69884 0.19782
 H418 H 1.03766 0.74408 0.17654
 C419 C 0.94792 0.73850 0.07262
 C420 C 1.09731 0.81256 0.06524
 C421 C 1.06556 0.68216 0.15857
 C422 C 1.00558 0.83654 0.17534
 C423 C 0.48551 0.29457 0.60451
 H424 H 0.46617 0.30677 0.60280
 C425 C 0.50970 0.30592 0.59334
 H426 H 0.50859 0.32665 0.58239
 C427 C 0.51036 0.25297 0.62153
 H428 H 0.51061 0.23257 0.63304
 C429 C 0.53517 0.26367 0.61096
 H430 H 0.55432 0.25137 0.61467
 N431 N 0.48637 0.26879 0.61872
 C432 C 0.39884 0.24667 0.62465
 H433 H 0.39673 0.24365 0.64678
 C434 C 0.37599 0.24279 0.60739
 H435 H 0.35630 0.23668 0.61629
 C436 C 0.42746 0.25671 0.58607
 H437 H 0.44765 0.26171 0.57784
 C438 C 0.40529 0.25235 0.56806
 H439 H 0.40853 0.25401 0.54604
 Zn440 Zn 0.45435 0.25810 0.63846
 N441 N 0.42388 0.25383 0.61383
 C442 C 0.42126 0.30056 0.66132
 N443 N 0.44688 0.28776 0.66117
 C444 C 0.46911 0.29831 0.67424
 C445 C 0.46610 0.32269 0.68796
 C446 C 0.41726 0.32478 0.67503
 C447 C 0.45216 0.19939 0.65020
 C448 C 0.46082 0.17305 0.66257
 C449 C 0.48924 0.19633 0.69463
 C450 C 0.47994 0.22223 0.68174
 N451 N 0.46215 0.22333 0.65959
 H452 H 0.40401 0.29280 0.65001
 H453 H 0.48955 0.28859 0.67290
 H454 H 0.48411 0.33104 0.69782
 H455 H 0.39687 0.33507 0.67426
 H456 H 0.43851 0.20061 0.63223
 H457 H 0.45361 0.15427 0.65400
 H458 H 0.50395 0.19587 0.71180
 H459 H 0.48786 0.24137 0.68879
 C460 C 0.37921 0.24538 0.57876
 C461 C 0.53517 0.29081 0.59727
 C462 C 0.48015 0.17129 0.68465
 C463 C 0.43994 0.33635 0.68823
 C464 C 0.49677 0.75963 0.92557
 H465 H 0.51724 0.76712 0.93029
 C466 C 0.47359 0.76894 0.93964
 H467 H 0.47667 0.78298 0.95565
 C468 C 0.46797 0.73273 0.89857
 H469 H 0.46553 0.71944 0.88191
 C470 C 0.44430 0.74182 0.91171
 H471 H 0.42415 0.73525 0.90476
 N472 N 0.49363 0.74153 0.90569
 C473 C 0.57622 0.70339 0.89333
 H474 H 0.57551 0.70415 0.87106
 C475 C 0.59982 0.69221 0.90790
 H476 H 0.61704 0.68397 0.89672
 C477 C 0.55430 0.71277 0.93487
 H478 H 0.53649 0.72060 0.94535
 C479 C 0.57744 0.70161 0.95028
 H480 H 0.57728 0.70129 0.97254
 Zn481 Zn 0.52449 0.73071 0.88464
 N482 N 0.55433 0.71398 0.90687
 C483 C 0.56402 0.77025 0.86466
 N484 N 0.53668 0.76346 0.86406
 C485 C 0.51748 0.77999 0.84894
 C486 C 0.52573 0.80393 0.83285
 C487 C 0.57322 0.79358 0.84852
 C488 C 0.50361 0.67902 0.87249
 C489 C 0.49079 0.66000 0.85642
 C490 C 0.49889 0.69151 0.81600
 C491 C 0.51142 0.71002 0.83288
 N492 N 0.51262 0.70394 0.86068
 H493 H 0.57890 0.75750 0.87739
 H494 H 0.49579 0.77434 0.84912
 H495 H 0.51042 0.81668 0.82047
 H496 H 0.59515 0.79840 0.84871
 H497 H 0.50498 0.67468 0.89466
 H498 H 0.48214 0.64117 0.86651
 H499 H 0.49737 0.69710 0.79399
 H500 H 0.51925 0.72967 0.82383
 C501 C 0.60073 0.69142 0.93676
 C502 C 0.44678 0.76018 0.93262
 C503 C 0.48752 0.66654 0.82784
 C504 C 0.55400 0.81052 0.83222
 C505 C 0.52246 -0.20313 0.33952
 C506 C 0.50962 -0.18110 0.32263
 C507 C 0.48589 -0.18636 0.30652
 C508 C 0.47670 -0.21395 0.30611
 C509 C 0.48921 -0.23562 0.32358
 C510 C 0.51058 -0.23002 0.34249
 C511 C 0.47126 -0.16386 0.29186
 C512 C 0.47973 -0.13613 0.29374
 C513 C 0.50421 -0.13104 0.30890
 C514 C 0.51927 -0.15361 0.32287
 C515 C 0.51255 -0.10333 0.31082
 C516 C 0.49614 -0.08077 0.29890
 C517 C 0.47114 -0.08548 0.28474
 C518 C 0.46347 -0.11335 0.28168
 H519 H 0.54095 -0.19870 0.35125
 H520 H 0.45909 -0.21858 0.29318
 H521 H 0.48085 -0.25649 0.32375
 H522 H 0.45264 -0.16783 0.27999
 H523 H 0.53763 -0.14962 0.33511
 H524 H 0.53139 -0.09907 0.32216
 H525 H 0.50286 -0.05957 0.30108
 H526 H 0.44410 -0.11738 0.27113
 C527 C 0.96603 0.29376 0.82041
 C528 C 0.95200 0.31932 0.81145
 C529 C 0.94019 0.33606 0.83106
 C530 C 0.94321 0.32767 0.85911
 C531 C 0.95726 0.30263 0.86781
 C532 C 0.96795 0.28456 0.84878
 C533 C 0.92574 0.36118 0.82247
 C534 C 0.92314 0.37019 0.79445
 C535 C 0.93532 0.35397 0.77467
 C536 C 0.94963 0.32854 0.78327
 C537 C 0.93291 0.36353 0.74666
 C538 C 0.91853 0.38882 0.73840
 C539 C 0.90608 0.40495 0.75797
 C540 C 0.90849 0.39529 0.78601
 H541 H 0.97573 0.28158 0.80531
 H542 H 0.93476 0.34053 0.87442
 H543 H 0.95943 0.29689 0.88977
 H544 H 0.91659 0.37380 0.83765
 H545 H 0.95882 0.31597 0.76809
 H546 H 0.94222 0.35152 0.73114
 H547 H 0.91742 0.39586 0.71667
 H548 H 0.89859 0.40708 0.80137
 C549 C 0.01589 1.21912 0.84436
 C550 C 0.02182 1.19636 0.82907
 C551 C 0.00282 1.18916 0.80861
 C552 C -0.02216 1.20499 0.80416
 C553 C -0.02829 1.22741 0.82014
 C554 C -0.00898 1.23553 0.84000
 C555 C 0.00876 1.16568 0.79381
 C556 C 0.03312 1.14906 0.79998
 C557 C 0.05174 1.15638 0.82092
 C558 C 0.04616 1.18011 0.83497
 C559 C 0.07555 1.13962 0.82793
 C560 C 0.08092 1.11555 0.81454
 C561 C 0.06287 1.10804 0.79362
 C562 C 0.03908 1.12496 0.78608
 H563 H 0.03041 1.22295 0.86080
 H564 H -0.03739 1.19944 0.78900
 H565 H -0.04847 1.23799 0.81741
 H566 H -0.00579 1.16000 0.77804
 H567 H 0.06055 1.18559 0.85098
 H568 H 0.08992 1.14499 0.84397
 H569 H 0.09942 1.10280 0.82035
 H570 H 0.02513 1.11908 0.76991
 C571 C 0.52337 0.69927 0.34300
 C572 C 0.53752 0.67940 0.32845
 C573 C 0.56445 0.68503 0.31860
 C574 C 0.57611 0.71111 0.32226
 C575 C 0.56172 0.73091 0.33658
 C576 C 0.53592 0.72467 0.34883
 C577 C 0.57917 0.66456 0.30519
 C578 C 0.56716 0.63857 0.30144
 C579 C 0.53979 0.63341 0.31045
 C580 C 0.52514 0.65385 0.32384
 C581 C 0.52766 0.60767 0.30634
 C582 C 0.54274 0.58684 0.29413
 C583 C 0.57034 0.59122 0.28589
 C584 C 0.58224 0.61745 0.28927
 H585 H 0.50242 0.69475 0.34954
 H586 H 0.59638 0.71620 0.31411
 H587 H 0.57111 0.75101 0.33876
 H588 H 0.60002 0.66872 0.29798
 H589 H 0.50431 0.64966 0.33113
 H590 H 0.50659 0.60350 0.31286
 H591 H 0.53279 0.56716 0.29127
 H592 H 0.60357 0.62113 0.28334
 C593 C 0.52971 0.29254 0.15518
 C594 C 0.53930 0.31730 0.16555
 C595 C 0.53640 0.34320 0.14921
 C596 C 0.52369 0.34412 0.12314
 C597 C 0.51470 0.31955 0.11281
 C598 C 0.51746 0.29317 0.12846
 C599 C 0.54710 0.36771 0.15871
 C600 C 0.56116 0.36671 0.18421
 C601 C 0.56368 0.34105 0.20096
 C602 C 0.55257 0.31650 0.19160
 C603 C 0.57781 0.34034 0.22651
 C604 C 0.58997 0.36462 0.23498
 C605 C 0.58824 0.39001 0.21804
 C606 C 0.57333 0.39094 0.19287
 H607 H 0.53285 0.27282 0.16766
 H608 H 0.52153 0.36377 0.11028
 H609 H 0.50653 0.32105 0.09186
 H610 H 0.54514 0.38744 0.14590
 H611 H 0.55483 0.29672 0.20428
 H612 H 0.57992 0.32090 0.23971
 H613 H 0.60144 0.36336 0.25443
 H614 H 0.57146 0.41053 0.17986
 C615 C 0.02523 0.78740 0.66993
 C616 C 0.03781 0.81066 0.68076
 C617 C 0.05933 0.82458 0.66606
 C618 C 0.06817 0.81533 0.64134
 C619 C 0.05469 0.79367 0.63005
 C620 C 0.03244 0.77941 0.64354
 C621 C 0.07111 0.84840 0.67554
 C622 C 0.06119 0.85936 0.69919
 C623 C 0.03989 0.84579 0.71440
 C624 C 0.02854 0.82114 0.70532
 C625 C 0.03007 0.85763 0.73799
 C626 C 0.04126 0.88265 0.74611
 C627 C 0.06253 0.89602 0.73087
 C628 C 0.07211 0.88420 0.70733
 H629 H 0.00944 0.77666 0.68185
 H630 H 0.08459 0.82589 0.62986
 H631 H 0.06090 0.78919 0.60963
 H632 H 0.08748 0.85899 0.66395
 H633 H 0.01197 0.81077 0.71674
 H634 H 0.01371 0.84767 0.75001
 H635 H 0.03354 0.89135 0.76441
 H636 H 0.08786 0.89471 0.69486
 C637 C 0.99830 0.70856 0.64233
 C638 C 0.97880 0.69039 0.65437
 C639 C 0.95636 0.70108 0.66884
 C640 C 0.95393 0.73023 0.67068
 C641 C 0.97344 0.74843 0.65811
 C642 C 0.99677 0.73802 0.64441
 C643 C 0.93638 0.68248 0.68017
 C644 C 0.93862 0.65347 0.67666
 C645 C 0.96124 0.64320 0.66188
 C646 C 0.98114 0.66162 0.65105
 C647 C 0.96361 0.61462 0.65781
 C648 C 0.94387 0.59606 0.66840
 C649 C 0.92140 0.60556 0.68352
 C650 C 0.91872 0.63447 0.68742
 H651 H 1.01359 0.69913 0.62978
 H652 H 0.93641 0.73907 0.68101
 H653 H 0.96961 0.77087 0.65813
 H654 H 0.91898 0.69057 0.69127
 H655 H 0.99839 0.65354 0.63968
 H656 H 0.98072 0.60660 0.64628
 H657 H 0.94608 0.57414 0.66448
 H658 H 0.90149 0.64204 0.69907
 C659 C 0.47881 0.23637 0.14882
 C660 C 0.47326 0.21142 0.16486
 C661 C 0.49451 0.19073 0.17046
 C662 C 0.52161 0.19661 0.16199
 C663 C 0.52700 0.22170 0.14613
 C664 C 0.50522 0.24113 0.13705
 C665 C 0.48813 0.16449 0.18398
 C666 C 0.46065 0.15887 0.19193
 C667 C 0.43987 0.18040 0.18779
 C668 C 0.44631 0.20651 0.17442
 C669 C 0.41267 0.17526 0.19634
 C670 C 0.40567 0.14864 0.20768
 C671 C 0.42557 0.12637 0.21040
 C672 C 0.45335 0.13193 0.20316
 H673 H 0.46178 0.25123 0.14517
 H674 H 0.53855 0.18154 0.16707
 H675 H 0.54828 0.22528 0.14010
 H676 H 0.50431 0.14826 0.18759
 H677 H 0.43006 0.22265 0.17055
 H678 H 0.39665 0.19172 0.19378
 H679 H 0.38441 0.14543 0.21402
 H680 H 0.46902 0.11512 0.20512
 C681 C 0.34461 0.50570 -0.17808
 C682 C 0.32654 0.49695 -0.15694
 C683 C 0.29794 0.49419 -0.16285
 C684 C 0.28779 0.50109 -0.18972
 C685 C 0.30608 0.50866 -0.21091
 C686 C 0.33518 0.51068 -0.20583
 C687 C 0.28032 0.48300 -0.14222
 C688 C 0.29131 0.47337 -0.11609
 C689 C 0.31989 0.47672 -0.11006
 C690 C 0.33716 0.48907 -0.13030
 C691 C 0.33106 0.46642 -0.08431
 C692 C 0.31444 0.45173 -0.06511
 C693 C 0.28610 0.44755 -0.07100
 C694 C 0.27452 0.45923 -0.09635
 H695 H 0.36625 0.50674 -0.17251
 H696 H 0.26592 0.49888 -0.19474
 H697 H 0.29741 0.51070 -0.23164
 H698 H 0.25842 0.48038 -0.14694
 H699 H 0.35919 0.49111 -0.12574
 H700 H 0.35295 0.46873 -0.07941
 H701 H 0.32418 0.44268 -0.04606
 H702 H 0.25264 0.45663 -0.10108
 C703 C 0.85097 0.98932 0.30059
 C704 C 0.83124 0.97941 0.31970
 C705 C 0.81532 0.95590 0.31450
 C706 C 0.81836 0.94368 0.28958
 C707 C 0.83870 0.95307 0.27110
 C708 C 0.85680 0.97476 0.27714
 C709 C 0.79751 0.94431 0.33473
 C710 C 0.79640 0.95525 0.36055
 C711 C 0.81163 0.97937 0.36540
 C712 C 0.82843 0.99172 0.34469
 C713 C 0.81098 0.98986 0.39139
 C714 C 0.79689 0.97554 0.41294
 C715 C 0.78273 0.95076 0.40877
 C716 C 0.78161 0.94148 0.38209
 H717 H 0.86232 1.00774 0.30495
 H718 H 0.80589 0.92600 0.28494
 H719 H 0.84150 0.94219 0.25270
 H720 H 0.78575 0.92586 0.33095
 H721 H 0.84060 1.00984 0.34867
 H722 H 0.82249 1.00837 0.39543
 H723 H 0.79834 0.98313 0.43321
 H724 H 0.77026 0.92278 0.37837
 C725 C 0.84957 0.01181 1.22380
 C726 C 0.83719 0.01850 1.19756
 C727 C 0.84258 0.00107 1.17616
 C728 C 0.85970 -0.02287 1.18139
 C729 C 0.87220 -0.02914 1.20726
 C730 C 0.86868 -0.01121 1.22879
 C731 C 0.83070 0.00766 1.14984
 C732 C 0.81383 0.03190 1.14436
 C733 C 0.80832 0.04947 1.16569
 C734 C 0.81977 0.04250 1.19225
 C735 C 0.79186 0.07401 1.15991
 C736 C 0.78152 0.08135 1.13318
 C737 C 0.78709 0.06411 1.11182
 C738 C 0.80292 0.03914 1.11768
 H739 H 0.84480 0.02484 1.24036
 H740 H 0.86336 -0.03695 1.16545
 H741 H 0.88396 -0.04874 1.21009
 H742 H 0.83496 -0.00582 1.13350
 H743 H 0.81560 0.05602 1.20857
 H744 H 0.78737 0.08774 1.17595
 H745 H 0.76917 0.10061 1.12912
 H746 H 0.80756 0.02591 1.10125
 C747 C 0.34467 0.51773 0.71684
 C748 C 0.33287 0.53266 0.69323
 C749 C 0.31754 0.55791 0.69559
 C750 C 0.31375 0.56745 0.72164
 C751 C 0.32556 0.55249 0.74507
 C752 C 0.34181 0.52754 0.74333
 C753 C 0.30650 0.57331 0.67185
 C754 C 0.31059 0.56369 0.64575
 C755 C 0.32550 0.53810 0.64346
 C756 C 0.33653 0.52278 0.66719
 C757 C 0.32929 0.52833 0.61743
 C758 C 0.31861 0.54386 0.59380
 C759 C 0.30411 0.56950 0.59576
 C760 C 0.30011 0.57928 0.62186
 H761 H 0.35623 0.49863 0.71393
 H762 H 0.30194 0.58672 0.72391
 H763 H 0.32270 0.56095 0.76479
 H764 H 0.29492 0.59285 0.67366
 H765 H 0.34818 0.50328 0.66535
 H766 H 0.34064 0.50876 0.61532
 H767 H 0.32211 0.53604 0.57389
 H768 H 0.28864 0.59888 0.62356
 C769 C 0.14127 0.52056 0.30343
 C770 C 0.15780 0.53005 0.32452
 C771 C 0.18622 0.52194 0.32701
 C772 C 0.19728 0.50356 0.30898
 C773 C 0.18049 0.49378 0.28833
 C774 C 0.15239 0.50325 0.28393
 C775 C 0.20290 0.53171 0.34793
 C776 C 0.19128 0.54923 0.36663
 C777 C 0.16260 0.55679 0.36451
 C778 C 0.14609 0.54729 0.34340
 C779 C 0.15087 0.57382 0.38353
 C780 C 0.16745 0.58352 0.40433
 C781 C 0.19606 0.57654 0.40635
 C782 C 0.20786 0.55930 0.38746
 H783 H 0.11945 0.52642 0.30285
 H784 H 0.21877 0.49613 0.31126
 H785 H 0.18961 0.47782 0.27661
 H786 H 0.22480 0.52557 0.34974
 H787 H 0.12415 0.55330 0.34167
 H788 H 0.12893 0.57977 0.38221
 H789 H 0.15804 0.59707 0.41850
 H790 H 0.22989 0.55368 0.38907
 C791 C 0.63079 0.02524 0.79058
 C792 C 0.64749 0.02605 0.81432
 C793 C 0.67194 0.00908 0.81784
 C794 C 0.67822 -0.00975 0.79809
 C795 C 0.66051 -0.01151 0.77510
 C796 C 0.63734 0.00716 0.76993
 C797 C 0.68908 0.01065 0.84143
 C798 C 0.68127 0.02819 0.86197
 C799 C 0.65581 0.04385 0.85891
 C800 C 0.63942 0.04307 0.83496
 C801 C 0.64712 0.06026 0.87979
 C802 C 0.66377 0.06184 0.90328
 C803 C 0.68964 0.04746 0.90616
 C804 C 0.69835 0.03050 0.88550
 H805 H 0.61183 0.03807 0.78886
 H806 H 0.69625 -0.02386 0.80095
 H807 H 0.66476 -0.02794 0.76168
 H808 H 0.70819 -0.00198 0.84396
 H809 H 0.62020 0.05556 0.83250
 H810 H 0.62757 0.07218 0.87780
 H811 H 0.65695 0.07528 0.91882
 H812 H 0.71836 0.01943 0.88767
 C813 C 0.65503 0.99630 0.71096
 C814 C 0.66355 0.98561 0.68623
 C815 C 0.64333 0.97630 0.66783
 C816 C 0.61515 0.97808 0.67411
 C817 C 0.60703 0.98747 0.69905
 C818 C 0.62675 0.99554 0.71860
 C819 C 0.65149 0.96479 0.64365
 C820 C 0.67976 0.96137 0.63796
 C821 C 0.70018 0.97059 0.65615
 C822 C 0.69195 0.98318 0.67994
 C823 C 0.72846 0.96639 0.65054
 C824 C 0.73637 0.95255 0.62756
 C825 C 0.71616 0.94299 0.60948
 C826 C 0.68785 0.94809 0.61466
 H827 H 0.67054 1.00468 0.72414
 H828 H 0.59935 0.97139 0.66008
 H829 H 0.58504 0.98761 0.70354
 H830 H 0.63583 0.95763 0.62971
 H831 H 0.70761 0.99012 0.69399
 H832 H 0.74447 0.97321 0.66425
 H833 H 0.75834 0.94873 0.62439
 H834 H 0.67196 0.94149 0.60068
 C835 C 0.13335 0.46327 0.21940
 C836 C 0.14510 0.45445 0.19538
 C837 C 0.17177 0.46349 0.18757
 C838 C 0.18598 0.48158 0.20362
 C839 C 0.17397 0.49057 0.22729
 C840 C 0.14781 0.48078 0.23653
 C841 C 0.18347 0.45498 0.16339
 C842 C 0.16867 0.43764 0.14684
 C843 C 0.14187 0.42865 0.15457
 C844 C 0.13025 0.43710 0.17881
 C845 C 0.12716 0.41129 0.13795
 C846 C 0.13903 0.40266 0.11401
 C847 C 0.16573 0.41136 0.10626
 C848 C 0.18036 0.42901 0.12272
 H849 H 0.11246 0.45689 0.22419
 H850 H 0.20605 0.48956 0.19740
 H851 H 0.18472 0.50665 0.23727
 H852 H 0.20398 0.46200 0.15739
 H853 H 0.10968 0.43022 0.18475
 H854 H 0.10656 0.40428 0.14352
 H855 H 0.12731 0.38922 0.10149
 H856 H 0.20114 0.43547 0.11711
 C857 C -0.22411 0.32588 0.50855
 C858 C -0.20407 0.31177 0.49387
 C859 C -0.21218 0.29828 0.47044
 C860 C -0.24044 0.29785 0.46298
 C861 C -0.26037 0.31140 0.47805
 C862 C -0.25275 0.32604 0.50099
 C863 C -0.19186 0.28612 0.45447
 C864 C -0.16352 0.28691 0.46197
 C865 C -0.15558 0.29909 0.48626
 C866 C -0.17585 0.31164 0.50192
 C867 C -0.12744 0.29889 0.49430
 C868 C -0.10716 0.28752 0.47801
 C869 C -0.11446 0.27668 0.45293
 C870 C -0.14294 0.27615 0.44532
 H871 H -0.21668 0.33761 0.52504
 H872 H -0.24712 0.28749 0.44514
 H873 H -0.28196 0.31134 0.47120
 H874 H -0.19805 0.27640 0.43606
 H875 H -0.16961 0.32161 0.52018
 H876 H -0.12105 0.30767 0.51315
 H877 H -0.08569 0.28740 0.48514
 H878 H -0.14923 0.26823 0.42604
 C879 C 0.31750 0.84590 0.98351
 C880 C 0.34335 0.83347 0.97787
 C881 C 0.36751 0.84964 0.97745
 C882 C 0.36557 0.87759 0.98369
 C883 C 0.33989 0.88966 0.98976
 C884 C 0.31501 0.87422 0.99024
 C885 C 0.39303 0.83798 0.96979
 C886 C 0.39470 0.81013 0.96271
 C887 C 0.37075 0.79348 0.96437
 C888 C 0.34520 0.80528 0.97178
 C889 C 0.37262 0.76545 0.95803
 C890 C 0.39766 0.75434 0.94899
 C891 C 0.42130 0.77112 0.94566
 C892 C 0.41973 0.79893 0.95324
 H893 H 0.29915 0.83367 0.98084
 H894 H 0.38388 0.89045 0.98325
 H895 H 0.34003 0.91158 0.99316
 H896 H 0.41144 0.85074 0.96879
 H897 H 0.32670 0.79265 0.97239
 H898 H 0.35460 0.75222 0.95966
 H899 H 0.39835 0.73261 0.94423
 H900 H 0.43754 0.81232 0.95069
 C901 C 1.23415 0.87978 0.00170
 C902 C 1.21227 0.86384 0.01292
 C903 C 1.21794 0.83682 0.02617
 C904 C 1.24557 0.82700 0.02951
 C905 C 1.26733 0.84367 0.01960
 C906 C 1.26219 0.86970 0.00381
 C907 C 1.19607 0.82067 0.03712
 C908 C 1.16875 0.83193 0.03640
 C909 C 1.16329 0.85951 0.02431
 C910 C 1.18491 0.87503 0.01200
 C911 C 1.13645 0.87139 0.02537
 C912 C 1.11527 0.85634 0.03871
 C913 C 1.12000 0.82846 0.05034
 C914 C 1.14699 0.81634 0.04841
 H915 H 1.22919 0.90063 -0.00775
 H916 H 1.25047 0.80695 0.04095
 H917 H 1.28822 0.83647 0.02566
 H918 H 1.20048 0.79978 0.04708
 H919 H 1.18059 0.89609 0.00243
 H920 H 1.13200 0.89271 0.01661
 H921 H 1.09540 0.86712 0.04028
 H922 H 1.15145 0.79482 0.05637
 C923 C 0.68061 0.34175 0.54192
 C924 C 0.65722 0.32805 0.55243
 C925 C 0.65469 0.29892 0.55044
 C926 C 0.67638 0.28385 0.53900
 C927 C 0.69961 0.29778 0.52819
 C928 C 0.70143 0.32729 0.52811
 C929 C 0.63037 0.28553 0.55951
 C930 C 0.60852 0.30112 0.57023
 C931 C 0.61152 0.33021 0.57271
 C932 C 0.63588 0.34342 0.56397
 C933 C 0.58992 0.34579 0.58355
 C934 C 0.56531 0.33286 0.59153
 C935 C 0.56166 0.30409 0.58868
 C936 C 0.58357 0.28826 0.57820
 H937 H 0.68185 0.36431 0.54286
 H938 H 0.67515 0.26133 0.53795
 H939 H 0.71573 0.28515 0.51972
 H940 H 0.62824 0.26318 0.55774
 H941 H 0.63796 0.36581 0.56555
 H942 H 0.59203 0.36803 0.58580
 H943 H 0.54920 0.34542 0.60026
 H944 H 0.58103 0.26611 0.57577
 C945 C 0.26802 0.16440 0.49897
 C946 C 0.29133 0.17902 0.50759
 C947 C 0.31831 0.16672 0.50637
 C948 C 0.32167 0.14039 0.49641
 C949 C 0.29847 0.12513 0.49024
 C950 C 0.27093 0.13612 0.49253
 C951 C 0.34142 0.18004 0.51666
 C952 C 0.33777 0.20449 0.53019
 C953 C 0.31088 0.21701 0.53160
 C954 C 0.28795 0.20479 0.51930
 C955 C 0.30722 0.24051 0.54674
 C956 C 0.32967 0.25044 0.56154
 C957 C 0.35626 0.23771 0.56051
 C958 C 0.36036 0.21538 0.54403
 H959 H 0.24802 0.17506 0.49864
 H960 H 0.34222 0.13067 0.49526
 H961 H 0.30215 0.10373 0.48522
 H962 H 0.36202 0.17028 0.51589
 H963 H 0.26728 0.21418 0.52067
 H964 H 0.28679 0.25037 0.54819
 H965 H 0.32621 0.26770 0.57424
 H966 H 0.38079 0.20523 0.54361
 C967 C 0.82394 0.65461 0.01274
 C968 C 0.84770 0.66591 0.02461
 C969 C 0.86843 0.64766 0.03779
 C970 C 0.86557 0.61861 0.03840
 C971 C 0.84255 0.60758 0.02589
 C972 C 0.82126 0.62515 0.01265
 C973 C 0.89186 0.65862 0.05011
 C974 C 0.89536 0.68769 0.04886
 C975 C 0.87519 0.70615 0.03504
 C976 C 0.85125 0.69516 0.02333
 C977 C 0.87948 0.73525 0.03310
 C978 C 0.90343 0.74586 0.04487
 C979 C 0.92309 0.72758 0.05921
 C980 C 0.91893 0.69853 0.06110
 H981 H 0.80790 0.66897 0.00378
 H982 H 0.88132 0.60434 0.04833
 H983 H 0.84134 0.58491 0.02635
 H984 H 0.90753 0.64448 0.06045
 H985 H 0.83562 0.70930 0.01296
 H986 H 0.86438 0.74976 0.02245
 H987 H 0.90637 0.76836 0.04327
 H988 H 0.93430 0.68437 0.07187
 C989 C 0.74421 0.62861 0.99898
 C990 C 0.72174 0.64410 0.98619
 C991 C 0.72615 0.66315 0.96304
 C992 C 0.75335 0.66695 0.95364
 C993 C 0.77576 0.65125 0.96647
 C994 C 0.77180 0.63156 0.98938
 C995 C 0.70318 0.67724 0.94920
 C996 C 0.67593 0.67213 0.95822
 C997 C 0.67180 0.65349 0.98188
 C998 C 0.69469 0.63975 0.99574
 C999 C 0.64476 0.64835 0.99101
 C1000 C 0.62182 0.66106 0.97654
 C1001 C 0.62544 0.67918 0.95266
 C1002 C 0.65266 0.68487 0.94375
 H1003 H 0.73923 0.61314 1.01548
 H1004 H 0.75721 0.68142 0.93581
 H1005 H 0.79628 0.65372 0.95783
 H1006 H 0.70645 0.69159 0.93111
 H1007 H 0.69137 0.62513 1.01364
 H1008 H 0.64131 0.63412 1.00912
 H1009 H 0.60113 0.65612 0.98366
 H1010 H 0.65570 0.69909 0.92553
 C1011 C 0.19674 0.12203 0.46800
 C1012 C 0.17050 0.13524 0.46482
 C1013 C 0.16239 0.15553 0.48263
 C1014 C 0.18013 0.16026 0.50494
 C1015 C 0.20640 0.14653 0.50811
 C1016 C 0.21649 0.12947 0.48793
 C1017 C 0.13679 0.17045 0.47773
 C1018 C 0.11951 0.16511 0.45511
 C1019 C 0.12738 0.14353 0.43838
 C1020 C 0.15260 0.12866 0.44348
 C1021 C 0.11040 0.13765 0.41609
 C1022 C 0.08647 0.15390 0.40934
 C1023 C 0.07892 0.17638 0.42472
 C1024 C 0.09501 0.18137 0.44825
 H1025 H 0.20152 0.10580 0.45450
 H1026 H 0.17377 0.17459 0.51987
 H1027 H 0.21912 0.14978 0.52608
 H1028 H 0.13071 0.18656 0.49100
 H1029 H 0.15878 0.11263 0.43013
 H1030 H 0.11605 0.12093 0.40336
 H1031 H 0.07404 0.14927 0.39159
 H1032 H 0.08923 0.19859 0.46029
 C1033 C 0.57101 0.03490 0.73369
 C1034 C 0.55834 0.06130 0.72564
 C1035 C 0.57499 0.08523 0.72136
 C1036 C 0.60391 0.08242 0.72479
 C1037 C 0.61629 0.05624 0.73280
 C1038 C 0.60014 0.03217 0.73842
 C1039 C 0.56260 0.11159 0.71325
 C1040 C 0.53369 0.11442 0.70915
 C1041 C 0.51689 0.09057 0.71330
 C1042 C 0.52931 0.06414 0.72158
 C1043 C 0.48797 0.09359 0.70881
 C1044 C 0.47591 0.11988 0.69993
 C1045 C 0.49250 0.14366 0.69562
 C1046 C 0.52140 0.14072 0.70049
 H1047 H 0.55812 0.01659 0.73575
 H1048 H 0.61703 0.10045 0.72111
 H1049 H 0.63879 0.05474 0.73484
 H1050 H 0.57549 0.12988 0.70990
 H1051 H 0.51643 0.04583 0.72474
 H1052 H 0.47472 0.07558 0.71191
 H1053 H 0.45357 0.12165 0.69642
 H1054 H 0.53449 0.15879 0.69673
 C1055 C 1.12462 0.53734 0.22945
 C1056 C 1.11010 0.56202 0.21973
 C1057 C 1.08407 0.56861 0.23068
 C1058 C 1.07313 0.55001 0.25136
 C1059 C 1.08790 0.52524 0.26102
 C1060 C 1.11377 0.51774 0.24972
 C1061 C 1.06996 0.59396 0.22123
 C1062 C 1.08178 0.61256 0.20086
 C1063 C 1.10786 0.60549 0.18989
 C1064 C 1.12181 0.58042 0.19944
 C1065 C 1.11973 0.62357 0.16945
 C1066 C 1.10585 0.64845 0.15963
 C1067 C 1.07997 0.65591 0.17020
 C1068 C 1.06806 0.63802 0.19108
 H1069 H 1.14502 0.53425 0.22134
 H1070 H 1.05349 0.55499 0.26066
 H1071 H 1.07956 0.51294 0.27849
 H1072 H 1.04999 0.59922 0.22974
 H1073 H 1.14189 0.57522 0.19103
 H1074 H 1.13971 0.61839 0.16093
 H1075 H 1.11545 0.66207 0.14376
 H1076 H 1.04800 0.64363 0.19919
 C1077 C 0.92614 0.95820 0.24105
 C1078 C 0.94231 0.93431 0.23621
 C1079 C 0.93595 0.90794 0.24974
 C1080 C 0.91530 0.90640 0.26963
 C1081 C 0.89911 0.93018 0.27411
 C1082 C 0.90259 0.95596 0.25807
 C1083 C 0.94952 0.88343 0.24239
 C1084 C 0.96902 0.88496 0.22128
 C1085 C 0.97678 0.91152 0.20903
 C1086 C 0.96353 0.93608 0.21676
 C1087 C 0.99666 0.91294 0.18825
 C1088 C 1.00740 0.88829 0.17847
 C1089 C 0.99832 0.86193 0.18924
 C1090 C 0.97979 0.86033 0.21123
 H1091 H 0.93023 0.97816 0.22967
 H1092 H 0.91100 0.88656 0.28111
 H1093 H 0.88354 0.92777 0.28976
 H1094 H 0.94392 0.86311 0.25213
 H1095 H 0.96871 0.95636 0.20662
 H1096 H 1.00306 0.93309 0.17882
 H1097 H 1.02164 0.88985 0.16145
 H1098 H 0.97292 0.83995 0.21967
 C1099 C 0.38972 0.47592 0.75032
 C1100 C 0.39651 0.44875 0.74307
 C1101 C 0.37815 0.42660 0.74953
 C1102 C 0.35373 0.43176 0.76351
 C1103 C 0.34700 0.45872 0.77052
 C1104 C 0.36472 0.48160 0.76415
 C1105 C 0.38402 0.39975 0.74127
 C1106 C 0.40795 0.39475 0.72628
 C1107 C 0.42679 0.41664 0.72028
 C1108 C 0.42100 0.44353 0.72879
 C1109 C 0.45077 0.41138 0.70533
 C1110 C 0.45554 0.38496 0.69567
 C1111 C 0.43640 0.36338 0.70078
 C1112 C 0.41291 0.36832 0.71657
 H1113 H 0.40338 0.49297 0.74414
 H1114 H 0.33939 0.41498 0.76856
 H1115 H 0.32743 0.46115 0.78058
 H1116 H 0.36962 0.38291 0.74594
 H1117 H 0.43524 0.46044 0.72386
 H1118 H 0.46551 0.42785 0.70059
 H1119 H 0.47370 0.38169 0.68336
 H1120 H 0.39824 0.35168 0.72090
 C1121 C 0.38620 0.55751 0.76950
 C1122 C 0.40839 0.57249 0.77959
 C1123 C 0.42827 0.55871 0.79802
 C1124 C 0.42631 0.52980 0.80499
 C1125 C 0.40404 0.51505 0.79500
 C1126 C 0.38258 0.52868 0.77800
 C1127 C 0.44934 0.57417 0.80962
 C1128 C 0.45041 0.60340 0.80325
 C1129 C 0.43102 0.61697 0.78400
 C1130 C 0.41036 0.60141 0.77210
 C1131 C 0.43196 0.64609 0.77767
 C1132 C 0.45110 0.66192 0.79117
 C1133 C 0.46990 0.64893 0.81111
 C1134 C 0.46987 0.61945 0.81652
 H1135 H 0.37187 0.56914 0.75539
 H1136 H 0.44163 0.51867 0.81875
 H1137 H 0.40305 0.49286 0.80163
 H1138 H 0.46431 0.56364 0.82421
 H1139 H 0.39519 0.61201 0.75775
 H1140 H 0.41726 0.65679 0.76293
 H1141 H 0.45030 0.68456 0.78683
 H1142 H 0.48448 0.60910 0.83157
 C1143 C -0.09846 0.03264 0.25500
 C1144 C -0.08564 0.05436 0.26797
 C1145 C -0.07252 0.04845 0.29410
 C1146 C -0.07204 0.02100 0.30665
 C1147 C -0.08594 -0.00007 0.29433
 C1148 C -0.10054 0.00545 0.26884
 C1149 C -0.06081 0.07017 0.30771
 C1150 C -0.06311 0.09805 0.29612
 C1151 C -0.07615 0.10414 0.26997
 C1152 C -0.08676 0.08217 0.25575
 C1153 C -0.07910 0.13220 0.25893
 C1154 C -0.07009 0.15406 0.27403
 C1155 C -0.05747 0.14829 0.30031
 C1156 C -0.05344 0.12003 0.31080
 H1157 H -0.10723 0.03757 0.23458
 H1158 H -0.06186 0.01602 0.32657
 H1159 H -0.08635 -0.02071 0.30541
 H1160 H -0.05091 0.06551 0.32785
 H1161 H -0.09696 0.08688 0.23577
 H1162 H -0.08911 0.13731 0.23894
 H1163 H -0.07378 0.17552 0.26542
 H1164 H -0.04313 0.11503 0.33066
 C1165 C 0.08918 0.46029 0.27134
 C1166 C 0.07750 0.43546 0.28348
 C1167 C 0.09466 0.41562 0.29947
 C1168 C 0.12274 0.42090 0.30350
 C1169 C 0.13396 0.44560 0.29193
 C1170 C 0.11756 0.46648 0.27622
 C1171 C 0.08378 0.39038 0.31074
 C1172 C 0.05561 0.38480 0.30694
 C1173 C 0.03795 0.40474 0.29169
 C1174 C 0.04908 0.42984 0.27964
 C1175 C 0.00951 0.39916 0.28895
 C1176 C -0.00125 0.37423 0.30141
 C1177 C 0.01632 0.35405 0.31639
 C1178 C 0.04491 0.35953 0.31848
 H1179 H 0.07636 0.47367 0.25694
 H1180 H 0.13628 0.40563 0.31530
 H1181 H 0.15606 0.44756 0.29483
 H1182 H 0.09726 0.37510 0.32267
 H1183 H 0.03565 0.44503 0.26759
 H1184 H -0.00450 0.41425 0.27752
 H1185 H -0.02342 0.37105 0.29962
 H1186 H 0.05915 0.34408 0.32904
 C1187 C 0.60412 0.95165 0.75553
 C1188 C 0.59068 0.92939 0.76982
 C1189 C 0.56995 0.93494 0.78892
 C1190 C 0.56321 0.96290 0.79342
 C1191 C 0.57710 0.98507 0.77936
 C1192 C 0.59721 0.97998 0.75943
 C1193 C 0.55719 0.91243 0.80391
 C1194 C 0.56554 0.88453 0.80045
 C1195 C 0.58643 0.87920 0.78130
 C1196 C 0.59856 0.90160 0.76589
 C1197 C 0.59546 0.85152 0.77833
 C1198 C 0.58448 0.82927 0.79472
 C1199 C 0.56393 0.83426 0.81394
 C1200 C 0.55409 0.86187 0.81642
 H1201 H 0.62092 0.94664 0.74211
 H1202 H 0.54780 0.96761 0.80845
 H1203 H 0.57245 1.00624 0.78454
 H1204 H 0.54139 0.91663 0.81877
 H1205 H 0.61466 0.89743 0.75133
 H1206 H 0.61144 0.84713 0.76375
 H1207 H 0.59215 0.80806 0.79255
 H1208 H 0.53837 0.86572 0.83145
 C1209 C 0.77980 0.60112 0.04911
 C1210 C 0.76837 0.58466 0.07092
 C1211 C 0.76234 0.55632 0.06786
 C1212 C 0.76949 0.54460 0.04341
 C1213 C 0.78140 0.56113 0.02173
 C1214 C 0.78563 0.59007 0.02373
 C1215 C 0.74899 0.54040 0.08915
 C1216 C 0.74192 0.55259 0.11345
 C1217 C 0.74926 0.58065 0.11683
 C1218 C 0.76230 0.59650 0.09551
 C1219 C 0.74298 0.59264 0.14132
 C1220 C 0.72889 0.57725 0.16209
 C1221 C 0.72059 0.54985 0.15852
 C1222 C 0.72730 0.53742 0.13431
 H1223 H 0.78318 0.62319 0.05138
 H1224 H 0.76566 0.52268 0.04095
 H1225 H 0.78680 0.55100 0.00353
 H1226 H 0.74379 0.51877 0.08666
 H1227 H 0.76733 0.61821 0.09789
 H1228 H 0.74864 0.61403 0.14426
 H1229 H 0.72376 0.58698 0.18071
 H1230 H 0.72093 0.51616 0.13172
 C1231 C 0.22401 1.07494 0.51952
 C1232 C 0.21763 1.06265 0.54602
 C1233 C 0.23490 1.06753 0.56882
 C1234 C 0.25879 1.08319 0.56474
 C1235 C 0.26410 1.09654 0.53895
 C1236 C 0.24616 1.09395 0.51584
 C1237 C 0.22723 1.05830 0.59565
 C1238 C 0.20193 1.04492 0.60025
 C1239 C 0.18508 1.03879 0.57756
 C1240 C 0.19320 1.04734 0.55051
 C1241 C 0.15989 1.02516 0.58242
 C1242 C 0.15094 1.01885 0.60940
 C1243 C 0.16683 1.02622 0.63221
 C1244 C 0.19274 1.03871 0.62728
 H1245 H 0.21005 1.07208 0.50233
 H1246 H 0.27241 1.08685 0.58200
 H1247 H 0.28148 1.11041 0.53834
 H1248 H 0.24029 1.06283 0.61306
 H1249 H 0.17984 1.04338 0.53315
 H1250 H 0.14682 1.01987 0.56534
 H1251 H 0.13136 1.00835 0.61231
 H1252 H 0.20528 1.04487 0.64435
 C1253 C 0.26173 0.92869 0.95913
 C1254 C 0.25159 0.93848 0.93257
 C1255 C 0.25543 0.92163 0.91044
 C1256 C 0.26944 0.89573 0.91496
 C1257 C 0.27938 0.88621 0.94118
 C1258 C 0.27660 0.90253 0.96398
 C1259 C 0.24419 0.93026 0.88427
 C1260 C 0.22875 0.95552 0.87984
 C1261 C 0.22544 0.97303 0.90159
 C1262 C 0.23693 0.96442 0.92787
 C1263 C 0.20997 0.99841 0.89675
 C1264 C 0.19687 1.00561 0.87106
 C1265 C 0.19899 0.98752 0.84987
 C1266 C 0.21565 0.96291 0.85421
 H1267 H 0.25661 0.94094 0.97609
 H1268 H 0.27210 0.88232 0.89828
 H1269 H 0.28861 0.86541 0.94318
 H1270 H 0.24675 0.91688 0.86752
 H1271 H 0.23397 0.97757 0.94472
 H1272 H 0.20731 1.01224 0.91307
 H1273 H 0.18399 1.02462 0.86816
 H1274 H 0.21757 0.94900 0.83784
 C1275 C 0.73111 0.38108 0.47258
 C1276 C 0.72144 0.39699 0.44851
 C1277 C 0.69274 0.39762 0.44154
 C1278 C 0.67442 0.38183 0.45806
 C1279 C 0.68431 0.36504 0.48108
 C1280 C 0.71276 0.36471 0.48942
 C1281 C 0.68279 0.41311 0.41755
 C1282 C 0.70134 0.42702 0.39964
 C1283 C 0.73022 0.42599 0.40602
 C1284 C 0.74006 0.41144 0.43077
 C1285 C 0.74871 0.43896 0.38714
 C1286 C 0.73863 0.45236 0.36206
 C1287 C 0.70994 0.45359 0.35599
 C1288 C 0.69140 0.44119 0.37495
 H1289 H 0.75315 0.38064 0.47788
 H1290 H 0.65245 0.38157 0.45255
 H1291 H 0.66920 0.35183 0.49147
 H1292 H 0.66070 0.41356 0.41236
 H1293 H 0.76218 0.41066 0.43578
 H1294 H 0.77093 0.43827 0.39153
 H1295 H 0.75312 0.46181 0.34744
 H1296 H 0.66926 0.44185 0.36998
 C1297 C 0.73647 0.39091 0.53660
 C1298 C 0.74603 0.40463 0.55923
 C1299 C 0.75651 0.38864 0.58311
 C1300 C 0.75734 0.35929 0.58400
 C1301 C 0.74777 0.34581 0.56153
 C1302 C 0.73751 0.36118 0.53718
 C1303 C 0.76570 0.40219 0.60588
 C1304 C 0.76465 0.43161 0.60510
 C1305 C 0.75434 0.44774 0.58121
 C1306 C 0.74497 0.43415 0.55845
 C1307 C 0.75378 0.47722 0.58046
 C1308 C 0.76357 0.49056 0.60309
 C1309 C 0.77371 0.47464 0.62695
 C1310 C 0.77406 0.44514 0.62780
 H1311 H 0.72756 0.40371 0.51911
 H1312 H 0.76513 0.34669 0.60223
 H1313 H 0.74823 0.32302 0.56310
 H1314 H 0.77367 0.38983 0.62422
 H1315 H 0.73697 0.44651 0.54014
 H1316 H 0.74599 0.48994 0.56232
 H1317 H 0.76317 0.51332 0.60202
 H1318 H 0.78239 0.43270 0.64592
 C1319 C 0.28746 -0.09740 0.04378
 C1320 C 0.29389 -0.07961 0.06429
 C1321 C 0.30375 -0.05250 0.05692
 C1322 C 0.30609 -0.04338 0.02897
 C1323 C 0.29944 -0.06122 0.00857
 C1324 C 0.28982 -0.08874 0.01536
 C1325 C 0.31204 -0.03546 0.07763
 C1326 C 0.31063 -0.04542 0.10560
 C1327 C 0.29976 -0.07226 0.11283
 C1328 C 0.29142 -0.08911 0.09217
 C1329 C 0.29810 -0.08222 0.14063
 C1330 C 0.30808 -0.06625 0.16118
 C1331 C 0.31989 -0.03997 0.15439
 C1332 C 0.32063 -0.02942 0.12647
 H1333 H 0.28147 -0.11845 0.05051
 H1334 H 0.31395 -0.02273 0.02285
 H1335 H 0.30351 -0.05384 -0.01255
 H1336 H 0.32021 -0.01482 0.07199
 H1337 H 0.28361 -0.10992 0.09781
 H1338 H 0.28974 -0.10271 0.14647
 H1339 H 0.30756 -0.07503 0.18242
 H1340 H 0.32944 -0.00906 0.12100
 C1341 C 0.26246 0.07485 0.45997
 C1342 C 0.27153 0.06666 0.43424
 C1343 C 0.26920 0.08608 0.41058
 C1344 C 0.25856 0.11318 0.41274
 C1345 C 0.25116 0.12155 0.43819
 C1346 C 0.25250 0.10271 0.46227
 C1347 C 0.27879 0.07881 0.38517
 C1348 C 0.29220 0.05284 0.38304
 C1349 C 0.29497 0.03320 0.40639
 C1350 C 0.28407 0.03998 0.43181
 C1351 C 0.30938 0.00757 0.40395
 C1352 C 0.32181 0.00213 0.37900
 C1353 C 0.31970 0.02203 0.35591
 C1354 C 0.30398 0.04692 0.35803
 H1355 H 0.26472 0.06021 0.47816
 H1356 H 0.25704 0.12838 0.39488
 H1357 H 0.24442 0.14325 0.43928
 H1358 H 0.27698 0.09396 0.36724
 H1359 H 0.28630 0.02500 0.44981
 H1360 H 0.31180 -0.00786 0.42154
 H1361 H 0.33384 -0.01723 0.37809
 H1362 H 0.30147 0.06217 0.34028
 C1363 C 0.78510 0.58296 0.95798
 C1364 C 0.79184 0.57345 0.93229
 C1365 C 0.81920 0.57649 0.92252
 C1366 C 0.83937 0.58834 0.93853
 C1367 C 0.83248 0.59820 0.96363
 C1368 C 0.80521 0.59581 0.97415
 C1369 C 0.82590 0.56864 0.89639
 C1370 C 0.80549 0.55807 0.87956
 C1371 C 0.77818 0.55423 0.88932
 C1372 C 0.77152 0.56187 0.91574
 C1373 C 0.75803 0.54327 0.87220
 C1374 C 0.76477 0.53688 0.84551
 C1375 C 0.79165 0.54164 0.83551
 C1376 C 0.81197 0.55181 0.85285
 H1377 H 0.76385 0.58146 0.96498
 H1378 H 0.86038 0.59101 0.93115
 H1379 H 0.84879 0.60879 0.97379
 H1380 H 0.84687 0.57144 0.88886
 H1381 H 0.75048 0.55938 0.92314
 H1382 H 0.73701 0.53999 0.87931
 H1383 H 0.74886 0.52887 0.83244
 H1384 H 0.83292 0.55498 0.84541
 C1385 C 0.04493 0.74359 0.58527
 C1386 C 0.06944 0.73139 0.57554
 C1387 C 0.08755 0.71508 0.59419
 C1388 C 0.08149 0.71176 0.62214
 C1389 C 0.05825 0.72529 0.63186
 C1390 C 0.03923 0.74109 0.61376
 C1391 C 0.11219 0.70330 0.58494
 C1392 C 0.11994 0.70884 0.55755
 C1393 C 0.10244 0.72567 0.53884
 C1394 C 0.07692 0.73636 0.54779
 C1395 C 0.11110 0.73188 0.51168
 C1396 C 0.13695 0.72175 0.50334
 C1397 C 0.15440 0.70484 0.52190
 C1398 C 0.14538 0.69822 0.54889
 H1399 H 0.03156 0.75647 0.57090
 H1400 H 0.09539 0.69971 0.63672
 H1401 H 0.05500 0.72367 0.65389
 H1402 H 0.12591 0.69072 0.59935
 H1403 H 0.06341 0.74924 0.53346
 H1404 H 0.09809 0.74490 0.49702
 H1405 H 0.14336 0.72739 0.48245
 H1406 H 0.15808 0.68458 0.56330
 C1407 C 0.53610 0.23127 1.08529
 C1408 C 0.55950 0.22210 1.07128
 C1409 C 0.58261 0.23967 1.06781
 C1410 C 0.58171 0.26621 1.07774
 C1411 C 0.55856 0.27513 1.09180
 C1412 C 0.53511 0.25788 1.09625
 C1413 C 0.60663 0.23020 1.05514
 C1414 C 0.60798 0.20316 1.04607
 C1415 C 0.58463 0.18573 1.04881
 C1416 C 0.56048 0.19534 1.06133
 C1417 C 0.58609 0.15874 1.03950
 C1418 C 0.61072 0.14884 1.02837
 C1419 C 0.63433 0.16570 1.02641
 C1420 C 0.63262 0.19305 1.03490
 H1421 H 0.51879 0.21728 1.08853
 H1422 H 0.59929 0.27995 1.07523
 H1423 H 0.56003 0.29548 1.09962
 H1424 H 0.62449 0.24364 1.05291
 H1425 H 0.54272 0.18180 1.06384
 H1426 H 0.56840 0.14509 1.04134
 H1427 H 0.61162 0.12760 1.02213
 H1428 H 0.65061 0.20633 1.03315
 C1429 C 0.93431 0.24339 0.87746
 C1430 C 0.91610 0.22730 0.89393
 C1431 C 0.92676 0.20669 0.91410
 C1432 C 0.95572 0.20219 0.91683
 C1433 C 0.97383 0.21833 0.90005
 C1434 C 0.96359 0.24038 0.88104
 C1435 C 0.90822 0.19055 0.93057
 C1436 C 0.87921 0.19469 0.92667
 C1437 C 0.86883 0.21520 0.90611
 C1438 C 0.88729 0.23140 0.89000
 C1439 C 0.84008 0.21912 0.90171
 C1440 C 0.82157 0.20279 0.91741
 C1441 C 0.83134 0.18240 0.93816
 C1442 C 0.86036 0.17853 0.94271
 H1443 H 0.92524 0.25789 0.86124
 H1444 H 0.96436 0.18586 0.93160
 H1445 H 0.99594 0.21339 0.90182
 H1446 H 0.91632 0.17465 0.94611
 H1447 H 0.87919 0.24715 0.87429
 H1448 H 0.83187 0.23461 0.88585
 H1449 H 0.79950 0.20581 0.91283
 H1450 H 0.86828 0.16308 0.95873
 C1451 C 0.46934 0.74621 0.38154
 C1452 C 0.44799 0.73355 0.39700
 C1453 C 0.45382 0.70894 0.41458
 C1454 C 0.48099 0.69757 0.41659
 C1455 C 0.50199 0.70993 0.40066
 C1456 C 0.49640 0.73377 0.38192
 C1457 C 0.43241 0.69608 0.42983
 C1458 C 0.40507 0.70715 0.42714
 C1459 C 0.39922 0.73173 0.40948
 C1460 C 0.42078 0.74502 0.39484
 C1461 C 0.37177 0.74234 0.40635
 C1462 C 0.35021 0.72842 0.42018
 C1463 C 0.35570 0.70389 0.43781
 C1464 C 0.38340 0.69368 0.44147
 H1465 H 0.46461 0.76592 0.36955
 H1466 H 0.48597 0.67895 0.43030
 H1467 H 0.52281 0.70062 0.40264
 H1468 H 0.43692 0.67718 0.44334
 H1469 H 0.41625 0.76388 0.38126
 H1470 H 0.36689 0.76107 0.39276
 H1471 H 0.32911 0.73658 0.41650
 H1472 H 0.38815 0.67515 0.45536
 C1473 C 0.56543 0.74764 0.39630
 C1474 C 0.58180 0.76098 0.41526
 C1475 C 0.57118 0.78521 0.42666
 C1476 C 0.54399 0.79486 0.42005
 C1477 C 0.52803 0.78173 0.40102
 C1478 C 0.53901 0.75905 0.38736
 C1479 C 0.58801 0.79972 0.44414
 C1480 C 0.61557 0.79061 0.45004
 C1481 C 0.62600 0.76580 0.43953
 C1482 C 0.60894 0.75095 0.42243
 C1483 C 0.65362 0.75681 0.44558
 C1484 C 0.67110 0.77293 0.46082
 C1485 C 0.66122 0.79824 0.47036
 C1486 C 0.63317 0.80653 0.46550
 H1487 H 0.57358 0.72862 0.38853
 H1488 H 0.53524 0.81297 0.42913
 H1489 H 0.50721 0.79007 0.39601
 H1490 H 0.57993 0.81860 0.45244
 H1491 H 0.61711 0.73223 0.41391
 H1492 H 0.66196 0.73780 0.43780
 H1493 H 0.69269 0.76620 0.46414
 H1494 H 0.62527 0.82581 0.47313
 C1495 C 0.01688 0.26676 -0.09815
 C1496 C 0.04285 0.27599 -0.08900
 C1497 C 0.06128 0.28890 -0.10828
 C1498 C 0.05395 0.29185 -0.13622
 C1499 C 0.02892 0.28154 -0.14523
 C1500 C 0.01004 0.26834 -0.12661
 C1501 C 0.08686 0.29869 -0.09945
 C1502 C 0.09482 0.29509 -0.07161
 C1503 C 0.07705 0.28130 -0.05225
 C1504 C 0.05094 0.27221 -0.06099
 C1505 C 0.08576 0.27704 -0.02447
 C1506 C 0.11145 0.28699 -0.01597
 C1507 C 0.12855 0.30162 -0.03505
 C1508 C 0.12026 0.30535 -0.06286
 H1509 H 0.00240 0.25849 -0.08300
 H1510 H 0.06782 0.30173 -0.15124
 H1511 H 0.02429 0.28357 -0.16716
 H1512 H 0.10068 0.30899 -0.11432
 H1513 H 0.03713 0.26197 -0.04612
 H1514 H 0.07257 0.26636 -0.00931
 H1515 H 0.11754 0.28419 0.00563
 H1516 H 0.13353 0.31663 -0.07758
 C1517 C 0.46061 0.28789 0.10729
 C1518 C 0.43488 0.29195 0.09340
 C1519 C 0.43099 0.28154 0.06745
 C1520 C 0.45324 0.26770 0.05571
 C1521 C 0.47877 0.26321 0.06998
 C1522 C 0.48282 0.27219 0.09673
 C1523 C 0.40495 0.28513 0.05376
 C1524 C 0.38272 0.29879 0.06599
 C1525 C 0.38680 0.30917 0.09207
 C1526 C 0.41285 0.30584 0.10550
 C1527 C 0.36476 0.32277 0.10437
 C1528 C 0.33887 0.32629 0.09096
 C1529 C 0.33435 0.31617 0.06499
 C1530 C 0.35649 0.30234 0.05263
 H1531 H 0.46303 0.29625 0.12718
 H1532 H 0.45086 0.26006 0.03550
 H1533 H 0.49490 0.25273 0.05942
 H1534 H 0.40195 0.27716 0.03375
 H1535 H 0.41587 0.31379 0.12552
 H1536 H 0.36761 0.33095 0.12429
 H1537 H 0.32252 0.33764 0.10071
 H1538 H 0.35330 0.29430 0.03270
 C1539 C 0.97658 0.76058 0.59027
 C1540 C 0.95398 0.77514 0.57628
 C1541 C 0.95257 0.80483 0.57482
 C1542 C 0.97383 0.81942 0.58661
 C1543 C 0.99506 0.80490 0.60201
 C1544 C 0.99649 0.77507 0.60511
 C1545 C 0.92910 0.81954 0.56321
 C1546 C 0.90618 0.80493 0.55442
 C1547 C 0.90753 0.77525 0.55521
 C1548 C 0.93176 0.76052 0.56555
 C1549 C 0.88413 0.76088 0.54681
 C1550 C 0.85931 0.77571 0.53898
 C1551 C 0.85760 0.80513 0.53927
 C1552 C 0.88144 0.81961 0.54620
 H1553 H 0.97729 0.73779 0.59176
 H1554 H 0.97308 0.84221 0.58552
 H1555 H 1.00930 0.81776 0.61236
 H1556 H 0.92797 0.84232 0.56261
 H1557 H 0.93263 0.73772 0.56673
 H1558 H 0.88472 0.73814 0.54716
 H1559 H 0.84118 0.76411 0.53362
 H1560 H 0.88047 0.84236 0.54592
   
