data_POSCAR
  _audit_creation_date              2014-09-24
  _audit_creation_method            'ToBaCCo'
  _symmetry_space_group_name_H-M    'P1'
  _symmetry_Int_Tables_number       1
  _symmetry_cell_setting            triclinic
  loop_
  _symmetry_equiv_pos_as_xyz
 x,y,z
_cell_length_a 69.5471
_cell_length_b 70.3428
_cell_length_c 70.7146
_cell_angle_alpha 90.199600
_cell_angle_beta 89.914100
_cell_angle_gamma 90.077500
loop_
  _atom_site_label
  _atom_site_type_symbol
  _atom_site_fract_x
  _atom_site_fract_y
  _atom_site_fract_z
O1 O 0.32108 0.34535 0.01980
 O2 O 0.34518 0.32137 -0.01976
 O3 O 0.31947 0.34784 -0.01683
 O4 O 0.34673 0.31876 0.01683
 O5 O 0.32380 0.29707 0.01636
 O6 O 0.29652 0.32623 -0.01756
 O7 O 0.32236 0.29957 -0.02040
 O8 O 0.29798 0.32385 0.01926
 Cu9 Cu 0.33539 0.33549 0.00008
 Cu10 Cu 0.30784 0.30950 -0.00063
 C11 C 0.30541 0.33878 0.02632
 C12 C 0.33796 0.30639 -0.02688
 C13 C 0.30335 0.34205 -0.02308
 C14 C 0.33998 0.30293 0.02236
 O15 O 0.69352 0.67038 0.01920
 O16 O 0.66758 0.69621 -0.01783
 O17 O 0.69382 0.66977 -0.01738
 O18 O 0.66733 0.69682 0.01875
 O19 O 0.68992 0.71885 0.01870
 O20 O 0.71654 0.69162 -0.01765
 O21 O 0.69009 0.71833 -0.01800
 O22 O 0.71636 0.69217 0.01906
 Cu23 Cu 0.67832 0.68112 0.00069
 Cu24 Cu 0.70551 0.70745 0.00050
 C25 C 0.70950 0.67663 0.02528
 C26 C 0.67416 0.71184 -0.02404
 C27 C 0.70987 0.67582 -0.02353
 C28 C 0.67390 0.71259 0.02474
 O29 O 0.68539 0.33500 0.98188
 O30 O 0.66308 0.30586 1.01893
 O31 O 0.68722 0.33417 1.01853
 O32 O 0.66083 0.30715 0.98245
 O33 O 0.68462 0.28655 0.98039
 O34 O 0.71133 0.31396 1.01663
 O35 O 0.68700 0.28538 1.01700
 O36 O 0.70937 0.31461 0.97982
 Cu37 Cu 0.67177 0.32259 1.00067
 Cu38 Cu 0.70052 0.29810 0.99829
 C39 C 0.70124 0.32985 0.97453
 C40 C 0.67103 0.29050 1.02412
 C41 C 0.70387 0.32890 1.02370
 C42 C 0.66803 0.29216 0.97535
 O43 O 0.33382 0.68527 1.01988
 O44 O 0.30541 0.66233 0.98247
 O45 O 0.33339 0.68689 0.98321
 O46 O 0.30628 0.66029 1.01895
 O47 O 0.28484 0.68327 1.02068
 O48 O 0.31228 0.71021 0.98472
 O49 O 0.28405 0.68544 0.98406
 O50 O 0.31259 0.70847 1.02158
 Cu51 Cu 0.32186 0.67142 1.00096
 Cu52 Cu 0.29633 0.69922 1.00291
 C53 C 0.32813 0.70084 1.02710
 C54 C 0.28974 0.66978 0.97704
 C55 C 0.32762 0.70312 0.97788
 C56 C 0.29081 0.66700 1.02584
 O57 O -0.02102 0.33741 0.30901
 O58 O 0.01356 0.31030 0.33742
 O59 O 0.01607 0.33531 0.31048
 O60 O -0.02360 0.31283 0.33633
 O61 O -0.02433 0.28946 0.31553
 O62 O 0.01534 0.31238 0.28913
 O63 O 0.01303 0.28712 0.31634
 O64 O -0.02189 0.31423 0.28795
 Cu65 Cu -0.00368 0.32625 0.32541
 Cu66 Cu -0.00454 0.29844 0.30014
 C67 C -0.02720 0.33060 0.29351
 C68 C 0.01912 0.29401 0.33186
 C69 C 0.02232 0.32795 0.29525
 C70 C -0.03068 0.29719 0.33059
 O71 O 0.01545 0.68291 0.65548
 O72 O -0.02050 0.65498 0.68146
 O73 O -0.02174 0.68160 0.65625
 O74 O 0.01687 0.65595 0.68049
 O75 O 0.01682 0.67736 0.70334
 O76 O -0.02187 0.70334 0.67877
 O77 O -0.02074 0.67653 0.70419
 O78 O 0.01545 0.70452 0.67815
 Cu79 Cu -0.00244 0.66668 0.66619
 Cu80 Cu -0.00258 0.69257 0.69344
 C81 C 0.02148 0.69858 0.66223
 C82 C -0.02685 0.66097 0.69723
 C83 C -0.02835 0.69695 0.66317
 C84 C 0.02345 0.66216 0.69607
 O85 O 1.01633 0.65736 0.31686
 O86 O 0.98024 0.68735 0.34033
 O87 O 0.97904 0.65965 0.31576
 O88 O 1.01733 0.68451 0.34161
 O89 O 1.01976 0.70553 0.31869
 O90 O 0.98127 0.68040 0.29255
 O91 O 0.98251 0.70834 0.31734
 O92 O 1.01873 0.67823 0.29377
 Cu93 Cu 0.99792 0.67012 0.33091
 Cu94 Cu 1.00071 0.69521 0.30323
 C95 C 1.02383 0.66269 0.30137
 C96 C 0.97542 0.70312 0.33305
 C97 C 0.97368 0.66559 0.29968
 C98 C 1.02515 0.69928 0.33469
 O99 O 0.97932 0.30937 0.66590
 O100 O 1.01605 0.33612 0.69205
 O101 O 1.01653 0.31096 0.66518
 O102 O 0.97886 0.33494 0.69274
 O103 O 0.98007 0.31233 0.71423
 O104 O 1.01791 0.28811 0.68637
 O105 O 1.01740 0.31344 0.71347
 O106 O 0.98051 0.28650 0.68712
 Cu107 Cu 0.99750 0.32510 0.67685
 Cu108 Cu 0.99902 0.29778 0.70243
 C109 C 0.97383 0.29322 0.67182
 C110 C 1.02296 0.32947 0.70726
 C111 C 1.02369 0.29540 0.67092
 C112 C 0.97325 0.32800 0.70835
 O113 O 0.30636 -0.01583 0.33525
 O114 O 0.33279 0.01946 0.30727
 O115 O 0.30777 0.02100 0.33451
 O116 O 0.33188 -0.01726 0.30832
 O117 O 0.30875 -0.01722 0.28701
 O118 O 0.28426 0.02117 0.31362
 O119 O 0.30952 0.01965 0.28611
 O120 O 0.28298 -0.01587 0.31422
 Cu121 Cu 0.32200 0.00181 0.32345
 Cu122 Cu 0.29399 0.00192 0.29814
 C123 C 0.29008 -0.02180 0.32966
 C124 C 0.32583 0.02546 0.29181
 C125 C 0.29187 0.02760 0.32869
 C126 C 0.32470 -0.02361 0.29305
 O127 O 0.68700 -0.01976 0.66112
 O128 O 0.65760 0.01699 0.68411
 O129 O 0.68512 0.01693 0.65939
 O130 O 0.65900 -0.01992 0.68565
 O131 O 0.68005 -0.01793 0.70886
 O132 O 0.70646 0.01906 0.68234
 O133 O 0.67876 0.01915 0.70722
 O134 O 0.70828 -0.01774 0.68413
 Cu135 Cu 0.67003 -0.00170 0.67030
 Cu136 Cu 0.69548 0.00078 0.69801
 C137 C 0.70282 -0.02482 0.66848
 C138 C 0.66317 0.02446 0.69954
 C139 C 0.70029 0.02425 0.66625
 C140 C 0.66491 -0.02517 0.70179
 O141 O 0.30638 1.01580 0.66374
 O142 O 0.33362 0.98179 0.69250
 O143 O 0.30886 0.97904 0.66514
 O144 O 0.33168 1.01845 0.69074
 O145 O 0.30849 1.01801 0.71204
 O146 O 0.28515 0.97861 0.68588
 O147 O 0.31013 0.98120 0.71348
 O148 O 0.28293 1.01560 0.68475
 Cu149 Cu 0.32245 0.99883 0.67592
 Cu150 Cu 0.29427 0.99834 0.70112
 C151 C 0.28994 1.02144 0.66921
 C152 C 0.32666 0.97579 0.70800
 C153 C 0.29308 0.97212 0.67097
 C154 C 0.32427 1.02478 0.70591
 O155 O 0.68587 1.01649 0.34283
 O156 O 0.65598 0.98108 0.31833
 O157 O 0.68331 0.97979 0.34310
 O158 O 0.65806 1.01802 0.31824
 O159 O 0.67921 1.01659 0.29502
 O160 O 0.70483 0.97832 0.32019
 O161 O 0.67731 0.97949 0.29527
 O162 O 0.70721 1.01513 0.31980
 Cu163 Cu 0.66865 0.99905 0.33289
 Cu164 Cu 0.69425 0.99730 0.30520
 C165 C 0.70183 1.02169 0.33573
 C166 C 0.66157 0.97410 0.30267
 C167 C 0.69844 0.97257 0.33603
 C168 C 0.66418 1.02380 0.30234
 C169 C 0.87612 0.80414 0.49900
 C170 C 0.87098 0.81375 0.48246
 C171 C 0.85674 0.82784 0.48332
 C172 C 0.84688 0.83179 0.50035
 C173 C 0.85196 0.82143 0.51667
 C174 C 0.86694 0.80809 0.51621
 C175 C 0.83169 0.84689 0.50116
 C176 C 0.82760 0.85652 0.51825
 C177 C 0.81343 0.87066 0.51912
 C178 C 0.80385 0.87592 0.50254
 C179 C 0.80794 0.86696 0.48527
 C180 C 0.82136 0.85209 0.48480
 H181 H 0.88703 0.79317 0.49842
 H182 H 0.85379 0.83588 0.47066
 H183 H 0.84454 0.82380 0.52991
 H184 H 0.83563 0.85347 0.53096
 H185 H 0.79281 0.88676 0.50312
 H186 H 0.82383 0.84485 0.47151
 C187 C 0.12998 0.20526 0.50256
 C188 C 0.13411 0.19643 0.48525
 C189 C 0.14737 0.18140 0.48475
 C190 C 0.15755 0.17592 0.50114
 C191 C 0.15338 0.18545 0.51831
 C192 C 0.13934 0.19976 0.51918
 C193 C 0.17267 0.16066 0.50026
 C194 C 0.17803 0.15046 0.51663
 C195 C 0.19291 0.13698 0.51606
 C196 C 0.20167 0.13270 0.49872
 C197 C 0.19629 0.14212 0.48214
 C198 C 0.18219 0.15635 0.48309
 H199 H 0.11905 0.21621 0.50315
 H200 H 0.14979 0.17427 0.47141
 H201 H 0.16121 0.18223 0.53108
 H202 H 0.17093 0.15303 0.52999
 H203 H 0.21246 0.12161 0.49808
 H204 H 0.17912 0.16422 0.47036
 C205 C 0.13669 0.79021 0.49725
 C206 C 0.14056 0.79919 0.51453
 C207 C 0.15341 0.81458 0.51500
 C208 C 0.16343 0.82033 0.49858
 C209 C 0.15951 0.81070 0.48143
 C210 C 0.14586 0.79600 0.48060
 C211 C 0.17805 0.83607 0.49943
 C212 C 0.18290 0.84656 0.48310
 C213 C 0.19727 0.86060 0.48361
 C214 C 0.20601 0.86510 0.50089
 C215 C 0.20110 0.85536 0.51745
 C216 C 0.18753 0.84059 0.51653
 H217 H 0.12603 0.77897 0.49670
 H218 H 0.15561 0.82181 0.52832
 H219 H 0.16722 0.81419 0.46862
 H220 H 0.17579 0.84380 0.46980
 H221 H 0.21639 0.87658 0.50151
 H222 H 0.18482 0.83250 0.52922
 C223 C 0.86900 0.20206 0.49942
 C224 C 0.86574 0.19194 0.51617
 C225 C 0.85307 0.17639 0.51595
 C226 C 0.84296 0.17131 0.49940
 C227 C 0.84617 0.18207 0.48287
 C228 C 0.85950 0.19708 0.48265
 C229 C 0.82942 0.15469 0.49929
 C230 C 0.82566 0.14460 0.48239
 C231 C 0.81291 0.12914 0.48210
 C232 C 0.80454 0.12305 0.49905
 C233 C 0.80835 0.13246 0.51613
 C234 C 0.82030 0.14856 0.51607
 H235 H 0.87909 0.21379 0.49942
 H236 H 0.85160 0.16806 0.52869
 H237 H 0.83822 0.17906 0.47008
 H238 H 0.83282 0.14842 0.46936
 H239 H 0.79453 0.11123 0.49890
 H240 H 0.82252 0.15611 0.52923
 C241 C 0.49693 0.87332 0.80400
 C242 C 0.48000 0.86908 0.81389
 C243 C 0.48043 0.85533 0.82822
 C244 C 0.49746 0.84527 0.83234
 C245 C 0.51422 0.84959 0.82186
 C246 C 0.51413 0.86380 0.80797
 C247 C 0.49778 0.83041 0.84751
 C248 C 0.51498 0.82610 0.85713
 C249 C 0.51555 0.81193 0.87103
 C250 C 0.49852 0.80248 0.87598
 C251 C 0.48111 0.80674 0.86699
 C252 C 0.48091 0.82041 0.85256
 H253 H 0.49671 0.88412 0.79311
 H254 H 0.46748 0.85288 0.83633
 H255 H 0.52737 0.84175 0.82412
 H256 H 0.52802 0.83395 0.85418
 H257 H 0.49883 0.79173 0.88691
 H258 H 0.46759 0.82286 0.84510
 C259 C 0.49885 0.12736 0.20023
 C260 C 0.48232 0.13087 0.18950
 C261 C 0.48338 0.14341 0.17414
 C262 C 0.50064 0.15302 0.16978
 C263 C 0.51693 0.14957 0.18114
 C264 C 0.51627 0.13644 0.19603
 C265 C 0.50176 0.16624 0.15324
 C266 C 0.51940 0.16929 0.14381
 C267 C 0.52070 0.18177 0.12845
 C268 C 0.50401 0.19059 0.12178
 C269 C 0.48620 0.18749 0.13053
 C270 C 0.48526 0.17576 0.14654
 H271 H 0.49818 0.11737 0.21183
 H272 H 0.47078 0.14515 0.16538
 H273 H 0.53022 0.15716 0.17867
 H274 H 0.53223 0.16179 0.14809
 H275 H 0.50496 0.20042 0.11005
 H276 H 0.47156 0.17404 0.15358
 C277 C 0.49496 0.13792 0.78861
 C278 C 0.51253 0.14650 0.79318
 C279 C 0.51301 0.16073 0.80712
 C280 C 0.49628 0.16586 0.81722
 C281 C 0.47886 0.15649 0.81273
 C282 C 0.47800 0.14303 0.79805
 C283 C 0.49694 0.18122 0.83199
 C284 C 0.48037 0.19198 0.83626
 C285 C 0.48078 0.20639 0.84999
 C286 C 0.49819 0.21081 0.85891
 C287 C 0.51502 0.20074 0.85465
 C288 C 0.51417 0.18559 0.84168
 H289 H 0.49451 0.12684 0.77794
 H290 H 0.52648 0.16798 0.80965
 H291 H 0.46580 0.15975 0.82036
 H292 H 0.46706 0.18957 0.82873
 H293 H 0.49858 0.22184 0.86964
 H294 H 0.52710 0.17748 0.83908
 C295 C 0.49476 0.86371 0.20734
 C296 C 0.51245 0.85586 0.20201
 C297 C 0.51323 0.84351 0.18641
 C298 C 0.49676 0.83976 0.17537
 C299 C 0.47921 0.84839 0.18075
 C300 C 0.47802 0.85986 0.19701
 C301 C 0.49792 0.82689 0.15843
 C302 C 0.48154 0.81692 0.15200
 C303 C 0.48239 0.80526 0.13588
 C304 C 0.50004 0.80267 0.12666
 C305 C 0.51667 0.81194 0.13299
 C306 C 0.51542 0.82435 0.14855
 H307 H 0.49409 0.87343 0.21925
 H308 H 0.52679 0.83673 0.18316
 H309 H 0.46634 0.84623 0.17248
 H310 H 0.46798 0.81818 0.15938
 H311 H 0.50091 0.79290 0.11481
 H312 H 0.52817 0.83215 0.15262
 C313 C 0.80042 0.50290 0.87630
 C314 C 0.80393 0.48534 0.86754
 C315 C 0.81669 0.48447 0.85217
 C316 C 0.82678 0.50076 0.84609
 C317 C 0.82325 0.51820 0.85546
 C318 C 0.80984 0.51942 0.87028
 C319 C 0.84098 0.49955 0.83015
 C320 C 0.84496 0.51559 0.81887
 C321 C 0.85867 0.51479 0.80431
 C322 C 0.86794 0.49754 0.80044
 C323 C 0.86401 0.48125 0.81112
 C324 C 0.85079 0.48242 0.82611
 H325 H 0.78989 0.50376 0.88758
 H326 H 0.81880 0.47096 0.84515
 H327 H 0.83113 0.53087 0.85161
 H328 H 0.83728 0.52876 0.82110
 H329 H 0.87838 0.49681 0.78907
 H330 H 0.84862 0.46998 0.83481
 C331 C 0.20987 0.49854 0.14040
 C332 C 0.20549 0.48132 0.14932
 C333 C 0.19115 0.48094 0.16327
 C334 C 0.18041 0.49735 0.16777
 C335 C 0.18473 0.51440 0.15808
 C336 C 0.19982 0.51520 0.14489
 C337 C 0.16513 0.49674 0.18277
 C338 C 0.16014 0.51330 0.19297
 C339 C 0.14596 0.51287 0.20709
 C340 C 0.13733 0.49551 0.21176
 C341 C 0.14231 0.47874 0.20223
 C342 C 0.15569 0.47954 0.18737
 H343 H 0.22084 0.49890 0.12951
 H344 H 0.18880 0.46778 0.17079
 H345 H 0.17662 0.52721 0.16085
 H346 H 0.16745 0.52660 0.19037
 H347 H 0.12628 0.49510 0.22257
 H348 H 0.15882 0.46661 0.17967
 C349 C 0.80027 0.50103 0.12382
 C350 C 0.80817 0.51820 0.13021
 C351 C 0.82249 0.51787 0.14417
 C352 C 0.82806 0.50066 0.15284
 C353 C 0.81928 0.48362 0.14654
 C354 C 0.80596 0.48365 0.13162
 C355 C 0.84292 0.50051 0.16830
 C356 C 0.85349 0.48387 0.17235
 C357 C 0.86706 0.48349 0.18701
 C358 C 0.87088 0.50018 0.19719
 C359 C 0.86101 0.51705 0.19324
 C360 C 0.84679 0.51700 0.17917
 H361 H 0.78959 0.50119 0.11269
 H362 H 0.82901 0.53119 0.14826
 H363 H 0.82279 0.47016 0.15295
 H364 H 0.85162 0.47111 0.16400
 H365 H 0.88161 0.50005 0.20828
 H366 H 0.83862 0.52988 0.17713
 C367 C 0.19954 0.50404 0.87004
 C368 C 0.18925 0.52019 0.86451
 C369 C 0.17655 0.51891 0.84917
 C370 C 0.17464 0.50189 0.83873
 C371 C 0.18543 0.48591 0.84442
 C372 C 0.19763 0.48682 0.86021
 C373 C 0.16155 0.50091 0.82195
 C374 C 0.15306 0.48356 0.81636
 C375 C 0.14112 0.48256 0.80040
 C376 C 0.13681 0.49923 0.79050
 C377 C 0.14462 0.51675 0.79603
 C378 C 0.15735 0.51739 0.81139
 H379 H 0.20919 0.50492 0.88202
 H380 H 0.16804 0.53125 0.84568
 H381 H 0.18482 0.47279 0.83643
 H382 H 0.15567 0.47072 0.82430
 H383 H 0.12677 0.49863 0.77881
 H384 H 0.16406 0.53083 0.81487
 C385 C 0.26828 0.35301 0.06309
 C386 C 0.27703 0.36906 0.07111
 C387 C 0.29522 0.37479 0.06490
 C388 C 0.30455 0.36475 0.05053
 C389 C 0.29578 0.34879 0.04213
 C390 C 0.27762 0.34289 0.04870
 C391 C 0.26702 0.38047 0.08485
 C392 C 0.25896 0.39091 0.09581
 C393 C 0.24985 0.40411 0.10788
 C394 C 0.24231 0.41619 0.11744
 C395 C 0.23354 0.43150 0.12782
 C396 C 0.24429 0.44783 0.13192
 C397 C 0.23533 0.46380 0.13969
 C398 C 0.21547 0.46366 0.14342
 C399 C 0.20492 0.44691 0.14003
 C400 C 0.21391 0.43094 0.13219
 H401 H 0.25413 0.34853 0.06773
 H402 H 0.30207 0.38725 0.07095
 H403 H 0.31853 0.36964 0.04585
 H404 H 0.27050 0.33066 0.04252
 H405 H 0.25948 0.44843 0.12852
 H406 H 0.24384 0.47643 0.14238
 H407 H 0.18957 0.44647 0.14259
 H408 H 0.20543 0.41843 0.12893
 C409 C 0.72303 0.63689 0.05859
 C410 C 0.74220 0.64130 0.06267
 C411 C 0.75038 0.65798 0.05547
 C412 C 0.73954 0.66994 0.04383
 C413 C 0.72043 0.66525 0.03917
 C414 C 0.71222 0.64875 0.04695
 C415 C 0.75356 0.62796 0.07324
 C416 C 0.76240 0.61593 0.08163
 C417 C 0.77188 0.60094 0.09098
 C418 C 0.77914 0.58743 0.09860
 C419 C 0.78672 0.57056 0.10728
 C420 C 0.80654 0.56813 0.10978
 C421 C 0.81363 0.55119 0.11743
 C422 C 0.80094 0.53647 0.12255
 C423 C 0.78106 0.53919 0.12020
 C424 C 0.77403 0.55609 0.11262
 H425 H 0.71656 0.62399 0.06405
 H426 H 0.76523 0.66150 0.05848
 H427 H 0.74629 0.68252 0.03801
 H428 H 0.69755 0.64473 0.04368
 H429 H 0.81650 0.57921 0.10560
 H430 H 0.82902 0.54943 0.11896
 H431 H 0.77093 0.52825 0.12429
 H432 H 0.75867 0.55780 0.11076
 C433 C 0.71066 0.37090 0.94127
 C434 C 0.72899 0.36643 0.93442
 C435 C 0.73791 0.34954 0.94000
 C436 C 0.72869 0.33734 0.95270
 C437 C 0.71046 0.34197 0.96004
 C438 C 0.70143 0.35876 0.95397
 C439 C 0.73912 0.37990 0.92283
 C440 C 0.74759 0.39179 0.91384
 C441 C 0.75748 0.40636 0.90423
 C442 C 0.76591 0.41936 0.89687
 C443 C 0.77592 0.43548 0.88918
 C444 C 0.77721 0.43822 0.86961
 C445 C 0.78648 0.45435 0.86245
 C446 C 0.79445 0.46794 0.87482
 C447 C 0.79324 0.46490 0.89443
 C448 C 0.78403 0.44880 0.90153
 H449 H 0.70367 0.38400 0.93712
 H450 H 0.75216 0.34601 0.93488
 H451 H 0.73602 0.32452 0.95710
 H452 H 0.68739 0.36272 0.95932
 H453 H 0.77091 0.42801 0.85992
 H454 H 0.78707 0.45641 0.84729
 H455 H 0.79951 0.47496 0.90429
 H456 H 0.78314 0.44681 0.91670
 C457 C 0.24722 0.65541 0.94666
 C458 C 0.25395 0.63844 0.93867
 C459 C 0.27273 0.63239 0.94233
 C460 C 0.28458 0.64293 0.95434
 C461 C 0.27780 0.65972 0.96289
 C462 C 0.25909 0.66605 0.95866
 C463 C 0.24143 0.62642 0.92775
 C464 C 0.23156 0.61537 0.91906
 C465 C 0.22088 0.60138 0.90936
 C466 C 0.21263 0.58857 0.90145
 C467 C 0.20398 0.57235 0.89241
 C468 C 0.20144 0.57202 0.87278
 C469 C 0.19568 0.55523 0.86376
 C470 C 0.19257 0.53857 0.87428
 C471 C 0.19433 0.53929 0.89408
 C472 C 0.20003 0.55608 0.90306
 H473 H 0.23267 0.66017 0.94397
 H474 H 0.27806 0.61925 0.93626
 H475 H 0.29890 0.63769 0.95726
 H476 H 0.25345 0.67889 0.96506
 H477 H 0.20463 0.58449 0.86439
 H478 H 0.19461 0.55502 0.84848
 H479 H 0.19181 0.52673 0.90254
 H480 H 0.20203 0.55617 0.91826
 C481 C 0.04928 0.25339 0.35090
 C482 C 0.05596 0.26122 0.36790
 C483 C 0.05116 0.27992 0.37273
 C484 C 0.03949 0.29069 0.36081
 C485 C 0.03242 0.28289 0.34384
 C486 C 0.03759 0.26417 0.33891
 C487 C 0.06723 0.25007 0.38083
 C488 C 0.07644 0.24135 0.39233
 C489 C 0.08700 0.23198 0.40656
 C490 C 0.09583 0.22479 0.41933
 C491 C 0.10617 0.21732 0.43528
 C492 C 0.11395 0.22996 0.44853
 C493 C 0.12319 0.22309 0.46460
 C494 C 0.12480 0.20342 0.46772
 C495 C 0.11727 0.19075 0.45417
 C496 C 0.10794 0.19768 0.43805
 H497 H 0.05288 0.23891 0.34704
 H498 H 0.05624 0.28612 0.38585
 H499 H 0.03580 0.30504 0.36504
 H500 H 0.03235 0.25774 0.32597
 H501 H 0.11269 0.24517 0.44652
 H502 H 0.12912 0.23319 0.47462
 H503 H 0.11818 0.17554 0.45627
 H504 H 0.10190 0.18776 0.42792
 C505 C 0.05326 0.73946 0.64633
 C506 C 0.06000 0.73255 0.62896
 C507 C 0.05469 0.71436 0.62284
 C508 C 0.04245 0.70320 0.63384
 C509 C 0.03532 0.71008 0.65119
 C510 C 0.04100 0.72827 0.65742
 C511 C 0.07185 0.74415 0.61692
 C512 C 0.08152 0.75319 0.60602
 C513 C 0.09256 0.76288 0.59235
 C514 C 0.10176 0.77027 0.57993
 C515 C 0.11246 0.77792 0.56428
 C516 C 0.12090 0.76540 0.55132
 C517 C 0.13026 0.77240 0.53534
 C518 C 0.13131 0.79208 0.53205
 C519 C 0.12316 0.80464 0.54535
 C520 C 0.11371 0.79758 0.56137
 H521 H 0.05726 0.75354 0.65118
 H522 H 0.05981 0.70889 0.60940
 H523 H 0.03838 0.68927 0.62864
 H524 H 0.03573 0.73398 0.67068
 H525 H 0.12001 0.75017 0.55343
 H526 H 0.13665 0.76241 0.52548
 H527 H 0.12366 0.81985 0.54309
 H528 H 0.10713 0.80739 0.57127
 C529 C 0.94713 0.74677 0.34789
 C530 C 0.93914 0.74064 0.36500
 C531 C 0.94206 0.72195 0.37102
 C532 C 0.95336 0.70956 0.36029
 C533 C 0.96194 0.71571 0.34335
 C534 C 0.95843 0.73436 0.33708
 C535 C 0.92901 0.75367 0.37714
 C536 C 0.92099 0.76404 0.38821
 C537 C 0.91212 0.77544 0.40214
 C538 C 0.90493 0.78443 0.41483
 C539 C 0.89677 0.79414 0.43087
 C540 C 0.90823 0.79769 0.44675
 C541 C 0.89999 0.80485 0.46331
 C542 C 0.88013 0.80851 0.46423
 C543 C 0.86886 0.80568 0.44795
 C544 C 0.87713 0.79845 0.43138
 H545 H 0.94502 0.76125 0.34315
 H546 H 0.93598 0.71707 0.38426
 H547 H 0.95574 0.69530 0.36551
 H548 H 0.96487 0.73953 0.32413
 H549 H 0.92343 0.79436 0.44652
 H550 H 0.90905 0.80712 0.47556
 H551 H 0.85350 0.80821 0.44832
 H552 H 0.86811 0.79562 0.41922
 C553 C 0.94050 0.27879 0.63203
 C554 C 0.93690 0.25972 0.63634
 C555 C 0.94441 0.25188 0.65293
 C556 C 0.95591 0.26295 0.66491
 C557 C 0.96009 0.28198 0.66035
 C558 C 0.95200 0.28985 0.64393
 C559 C 0.92651 0.24811 0.62303
 C560 C 0.91826 0.23890 0.61113
 C561 C 0.90908 0.22878 0.59643
 C562 C 0.90158 0.22074 0.58329
 C563 C 0.89298 0.21193 0.56697
 C564 C 0.90356 0.21040 0.55018
 C565 C 0.89487 0.20338 0.53378
 C566 C 0.87544 0.19784 0.53394
 C567 C 0.86506 0.19890 0.55101
 C568 C 0.87377 0.20597 0.56741
 H569 H 0.93480 0.28499 0.61921
 H570 H 0.94176 0.23710 0.65636
 H571 H 0.96196 0.25647 0.67742
 H572 H 0.95490 0.30444 0.64001
 H573 H 0.91843 0.21498 0.54968
 H574 H 0.90330 0.20248 0.52092
 H575 H 0.85002 0.19490 0.55150
 H576 H 0.86542 0.20720 0.58030
 C577 C 0.34288 0.05506 0.25027
 C578 C 0.36055 0.06175 0.25705
 C579 C 0.36630 0.05743 0.27548
 C580 C 0.35472 0.04608 0.28697
 C581 C 0.33717 0.03885 0.28016
 C582 C 0.33121 0.04371 0.26178
 C583 C 0.37347 0.07205 0.24494
 C584 C 0.38518 0.08020 0.23535
 C585 C 0.39985 0.08920 0.22489
 C586 C 0.41313 0.09647 0.21668
 C587 C 0.42982 0.10467 0.20786
 C588 C 0.44664 0.09389 0.20632
 C589 C 0.46357 0.10223 0.19971
 C590 C 0.46391 0.12152 0.19458
 C591 C 0.44678 0.13210 0.19550
 C592 C 0.42983 0.12372 0.20218
 H593 H 0.33833 0.05826 0.23599
 H594 H 0.37998 0.06250 0.28085
 H595 H 0.35972 0.04265 0.30104
 H596 H 0.31779 0.03833 0.25613
 H597 H 0.44679 0.07914 0.21070
 H598 H 0.47650 0.09369 0.19890
 H599 H 0.44668 0.14702 0.19179
 H600 H 0.41691 0.13223 0.20344
 C601 C 0.62279 0.05939 0.70858
 C602 C 0.62819 0.06720 0.72599
 C603 C 0.64522 0.06127 0.73468
 C604 C 0.65674 0.04746 0.72603
 C605 C 0.65131 0.03938 0.70860
 C606 C 0.63426 0.04559 0.69992
 C607 C 0.61573 0.08066 0.73519
 C608 C 0.60465 0.09147 0.74268
 C609 C 0.59091 0.10348 0.75120
 C610 C 0.57853 0.11309 0.75832
 C611 C 0.56296 0.12364 0.76664
 C612 C 0.56323 0.12824 0.78592
 C613 C 0.54708 0.13646 0.79442
 C614 C 0.53043 0.14005 0.78374
 C615 C 0.53058 0.13605 0.76424
 C616 C 0.54674 0.12788 0.75577
 H617 H 0.60960 0.06382 0.70177
 H618 H 0.64947 0.06717 0.74822
 H619 H 0.66979 0.04299 0.73306
 H620 H 0.62967 0.03970 0.68649
 H621 H 0.57567 0.12489 0.79449
 H622 H 0.54729 0.13922 0.80949
 H623 H 0.51805 0.13888 0.75563
 H624 H 0.54637 0.12434 0.74085
 C625 C 0.34337 0.94638 0.74976
 C626 C 0.36150 0.94043 0.74349
 C627 C 0.36781 0.94533 0.72535
 C628 C 0.35626 0.95644 0.71365
 C629 C 0.33819 0.96285 0.71993
 C630 C 0.33175 0.95750 0.73804
 C631 C 0.37415 0.93007 0.75580
 C632 C 0.38550 0.92179 0.76564
 C633 C 0.39964 0.91252 0.77652
 C634 C 0.41243 0.90495 0.78516
 C635 C 0.42852 0.89631 0.79457
 C636 C 0.44515 0.90704 0.79781
 C637 C 0.46168 0.89834 0.80486
 C638 C 0.46181 0.87875 0.80873
 C639 C 0.44479 0.86821 0.80619
 C640 C 0.42826 0.87695 0.79907
 H641 H 0.33837 0.94272 0.76380
 H642 H 0.38183 0.94083 0.72037
 H643 H 0.36165 0.96028 0.69980
 H644 H 0.31792 0.96224 0.74330
 H645 H 0.44553 0.92204 0.79436
 H646 H 0.47451 0.90685 0.80691
 H647 H 0.44454 0.85307 0.80890
 H648 H 0.41549 0.86848 0.79651
 C649 C 0.64368 0.93842 0.26636
 C650 C 0.62646 0.93241 0.27469
 C651 C 0.62086 0.93985 0.29222
 C652 C 0.63233 0.95334 0.30135
 C653 C 0.64961 0.95960 0.29305
 C654 C 0.65522 0.95192 0.27549
 C655 C 0.61406 0.91921 0.26502
 C656 C 0.60311 0.90860 0.25706
 C657 C 0.58962 0.89680 0.24787
 C658 C 0.57749 0.88738 0.24009
 C659 C 0.56228 0.87708 0.23084
 C660 C 0.54614 0.87136 0.24121
 C661 C 0.53022 0.86360 0.23194
 C662 C 0.53023 0.86153 0.21215
 C663 C 0.54685 0.86655 0.20194
 C664 C 0.56275 0.87433 0.21124
 H665 H 0.64810 0.93281 0.25275
 H666 H 0.60750 0.93536 0.29875
 H667 H 0.62761 0.95894 0.31486
 H668 H 0.66844 0.95643 0.26874
 H669 H 0.54561 0.87347 0.25639
 H670 H 0.51771 0.85966 0.24019
 H671 H 0.54719 0.86532 0.18667
 H672 H 0.57512 0.87884 0.20306
 C673 C 0.37471 0.29568 0.93506
 C674 C 0.36816 0.27820 0.92812
 C675 C 0.35137 0.27011 0.93551
 C676 C 0.34129 0.27939 0.94998
 C677 C 0.34799 0.29683 0.95727
 C678 C 0.36472 0.30494 0.94951
 C679 C 0.37947 0.26822 0.91427
 C680 C 0.38986 0.26014 0.90323
 C681 C 0.40304 0.25100 0.89109
 C682 C 0.41514 0.24341 0.88150
 C683 C 0.43052 0.23458 0.87111
 C684 C 0.42988 0.21511 0.86699
 C685 C 0.44598 0.20607 0.85925
 C686 C 0.46294 0.21640 0.85570
 C687 C 0.46314 0.23610 0.85916
 C688 C 0.44703 0.24511 0.86684
 H689 H 0.38775 0.30202 0.92950
 H690 H 0.34625 0.25652 0.93031
 H691 H 0.32845 0.27279 0.95566
 H692 H 0.37024 0.31836 0.95475
 H693 H 0.41723 0.20680 0.87040
 H694 H 0.44550 0.19086 0.85690
 H695 H 0.47593 0.24443 0.85635
 H696 H 0.44769 0.26017 0.87004
 C697 C 0.63365 0.72608 0.94332
 C698 C 0.63852 0.74491 0.93915
 C699 C 0.65576 0.75257 0.94599
 C700 C 0.66783 0.74158 0.95740
 C701 C 0.66269 0.72284 0.96218
 C702 C 0.64563 0.71512 0.95473
 C703 C 0.62507 0.75653 0.92894
 C704 C 0.61302 0.76576 0.92090
 C705 C 0.59808 0.77592 0.91201
 C706 C 0.58469 0.78399 0.90481
 C707 C 0.56802 0.79281 0.89660
 C708 C 0.56757 0.79709 0.87729
 C709 C 0.55067 0.80396 0.86908
 C710 C 0.53399 0.80652 0.88008
 C711 C 0.53479 0.80274 0.89958
 C712 C 0.55168 0.79592 0.90777
 H713 H 0.62032 0.72002 0.93814
 H714 H 0.65963 0.76716 0.94291
 H715 H 0.68084 0.74795 0.96296
 H716 H 0.64126 0.70074 0.95810
 H717 H 0.58010 0.79463 0.86850
 H718 H 0.55043 0.80657 0.85399
 H719 H 0.52225 0.80481 0.90845
 H720 H 0.55187 0.79264 0.92272
 C721 C 0.34680 0.73775 0.06173
 C722 C 0.36398 0.72931 0.06763
 C723 C 0.36895 0.71122 0.06098
 C724 C 0.35704 0.70176 0.04814
 C725 C 0.33997 0.71030 0.04174
 C726 C 0.33483 0.72829 0.04889
 C727 C 0.37725 0.73967 0.07937
 C728 C 0.38899 0.74832 0.08849
 C729 C 0.40344 0.75840 0.09826
 C730 C 0.41635 0.76698 0.10578
 C731 C 0.43238 0.77716 0.11370
 C732 C 0.43559 0.77744 0.13325
 C733 C 0.45175 0.78676 0.14060
 C734 C 0.46488 0.79581 0.12843
 C735 C 0.46136 0.79563 0.10885
 C736 C 0.44524 0.78637 0.10157
 H737 H 0.34288 0.75180 0.06671
 H738 H 0.38227 0.70461 0.06537
 H739 H 0.36140 0.68792 0.04294
 H740 H 0.32179 0.73525 0.04424
 H741 H 0.42576 0.77027 0.14275
 H742 H 0.45420 0.78654 0.15571
 H743 H 0.47107 0.80272 0.09918
 H744 H 0.44288 0.78625 0.08642
 C745 C 0.63359 0.27202 0.05826
 C746 C 0.64011 0.25350 0.06142
 C747 C 0.65748 0.24746 0.05341
 C748 C 0.66801 0.25975 0.04180
 C749 C 0.66118 0.27818 0.03801
 C750 C 0.64403 0.28428 0.04665
 C751 C 0.62811 0.24047 0.07171
 C752 C 0.61706 0.23009 0.07979
 C753 C 0.60305 0.21869 0.08866
 C754 C 0.59020 0.20972 0.09580
 C755 C 0.57389 0.20010 0.10385
 C756 C 0.55846 0.19503 0.09220
 C757 C 0.54140 0.18821 0.10013
 C758 C 0.53957 0.18642 0.11985
 C759 C 0.55547 0.19071 0.13140
 C760 C 0.57251 0.19759 0.12343
 H761 H 0.62013 0.27681 0.06435
 H762 H 0.66261 0.23311 0.05569
 H763 H 0.68114 0.25463 0.03532
 H764 H 0.63839 0.29838 0.04406
 H765 H 0.55935 0.19699 0.07703
 H766 H 0.52946 0.18481 0.09090
 H767 H 0.55439 0.18965 0.14664
 H768 H 0.58432 0.20164 0.13258
 C769 C 0.24919 0.05167 0.65005
 C770 C 0.25715 0.05808 0.63303
 C771 C 0.27597 0.05301 0.62818
 C772 C 0.28673 0.04137 0.64012
 C773 C 0.27880 0.03460 0.65714
 C774 C 0.25995 0.04001 0.66206
 C775 C 0.24604 0.06942 0.62013
 C776 C 0.23737 0.07870 0.60866
 C777 C 0.22806 0.08936 0.59448
 C778 C 0.22094 0.09829 0.58176
 C779 C 0.21356 0.10874 0.56588
 C780 C 0.22647 0.11614 0.55263
 C781 C 0.21968 0.12550 0.53662
 C782 C 0.19982 0.12759 0.53355
 C783 C 0.18688 0.12043 0.54710
 C784 C 0.19374 0.11099 0.56316
 H785 H 0.23462 0.05549 0.65393
 H786 H 0.28228 0.05787 0.61504
 H787 H 0.30117 0.03750 0.63589
 H788 H 0.25343 0.03502 0.67504
 H789 H 0.24183 0.11451 0.55458
 H790 H 0.23000 0.13113 0.52659
 H791 H 0.17152 0.12172 0.54505
 H792 H 0.18360 0.10524 0.57330
 C793 C 0.74429 0.05104 0.34951
 C794 C 0.73855 0.05748 0.36738
 C795 C 0.72031 0.05282 0.37428
 C796 C 0.70797 0.04139 0.36361
 C797 C 0.71372 0.03434 0.34579
 C798 C 0.73195 0.03961 0.33873
 C799 C 0.75158 0.06804 0.37923
 C800 C 0.76201 0.07646 0.38997
 C801 C 0.77355 0.08586 0.40348
 C802 C 0.78272 0.09353 0.41578
 C803 C 0.79271 0.10230 0.43133
 C804 C 0.79819 0.09122 0.44681
 C805 C 0.80558 0.09987 0.46305
 C806 C 0.80756 0.11975 0.46404
 C807 C 0.80282 0.13071 0.44810
 C808 C 0.79536 0.12202 0.43187
 H809 H 0.75841 0.05456 0.34405
 H810 H 0.71574 0.05772 0.38812
 H811 H 0.69408 0.03779 0.36956
 H812 H 0.73692 0.03455 0.32509
 H813 H 0.79615 0.07595 0.44656
 H814 H 0.80933 0.09107 0.47503
 H815 H 0.80401 0.14606 0.44854
 H816 H 0.79103 0.13074 0.42001
 C817 C 0.74639 0.94627 0.65382
 C818 C 0.73998 0.93830 0.63680
 C819 C 0.72108 0.94139 0.63083
 C820 C 0.70878 0.95287 0.64149
 C821 C 0.71524 0.96145 0.65833
 C822 C 0.73407 0.95775 0.66458
 C823 C 0.75297 0.92808 0.62464
 C824 C 0.76334 0.92003 0.61355
 C825 C 0.77475 0.91117 0.59959
 C826 C 0.78377 0.90403 0.58686
 C827 C 0.79353 0.89597 0.57079
 C828 C 0.79726 0.90737 0.55503
 C829 C 0.80449 0.89927 0.53843
 C830 C 0.80807 0.87963 0.53738
 C831 C 0.80505 0.86839 0.55355
 C832 C 0.79774 0.87653 0.57014
 H833 H 0.76103 0.94404 0.65852
 H834 H 0.71599 0.93533 0.61764
 H835 H 0.69437 0.95540 0.63630
 H836 H 0.73948 0.96418 0.67745
 H837 H 0.79400 0.92243 0.55536
 H838 H 0.80691 0.90829 0.52627
 H839 H 0.80751 0.85320 0.55307
 H840 H 0.79478 0.86755 0.58223
 C841 C 0.27693 0.94555 0.37011
 C842 C 0.25808 0.94043 0.36546
 C843 C 0.24985 0.94708 0.34868
 C844 C 0.26038 0.95907 0.33674
 C845 C 0.27924 0.96458 0.34152
 C846 C 0.28744 0.95753 0.35826
 C847 C 0.24719 0.92889 0.37840
 C848 C 0.23880 0.91948 0.38999
 C849 C 0.22991 0.90874 0.40438
 C850 C 0.22320 0.89978 0.41731
 C851 C 0.21637 0.88934 0.43344
 C852 C 0.19667 0.88640 0.43643
 C853 C 0.19033 0.87687 0.45266
 C854 C 0.20366 0.87031 0.46610
 C855 C 0.22340 0.87317 0.46280
 C856 C 0.22968 0.88261 0.44661
 H857 H 0.28343 0.94050 0.38307
 H858 H 0.23525 0.94322 0.34497
 H859 H 0.25365 0.96429 0.32398
 H860 H 0.30191 0.96146 0.36235
 H861 H 0.18624 0.89163 0.42636
 H862 H 0.17505 0.87499 0.45491
 H863 H 0.23401 0.86801 0.47273
 H864 H 0.24495 0.88480 0.44444
 C865 C 0.05651 0.34618 0.74624
 C866 C 0.06289 0.36353 0.73887
 C867 C 0.05677 0.36934 0.72098
 C868 C 0.04408 0.35806 0.71057
 C869 C 0.03729 0.34076 0.71794
 C870 C 0.04380 0.33481 0.73581
 C871 C 0.07507 0.37594 0.74975
 C872 C 0.08491 0.38722 0.75818
 C873 C 0.09599 0.40141 0.76716
 C874 C 0.10508 0.41429 0.77399
 C875 C 0.11545 0.43051 0.78106
 C876 C 0.12414 0.44292 0.76821
 C877 C 0.13283 0.45963 0.77460
 C878 C 0.13293 0.46418 0.79397
 C879 C 0.12462 0.45140 0.80689
 C880 C 0.11585 0.43467 0.80044
 H881 H 0.06113 0.34158 0.76011
 H882 H 0.06160 0.38276 0.71516
 H883 H 0.03939 0.36304 0.69686
 H884 H 0.03880 0.32158 0.74187
 H885 H 0.12388 0.43986 0.75318
 H886 H 0.13934 0.46909 0.76437
 H887 H 0.12436 0.45464 0.82187
 H888 H 0.10904 0.42521 0.81049
 C889 C 0.05829 0.62210 0.29200
 C890 C 0.06630 0.62742 0.27465
 C891 C 0.06061 0.64440 0.26608
 C892 C 0.04684 0.65599 0.27479
 C893 C 0.03859 0.65067 0.29218
 C894 C 0.04454 0.63363 0.30072
 C895 C 0.07980 0.61499 0.26544
 C896 C 0.09067 0.60399 0.25794
 C897 C 0.10277 0.59038 0.24937
 C898 C 0.11245 0.57813 0.24220
 C899 C 0.12309 0.56276 0.23381
 C900 C 0.12751 0.56298 0.21450
 C901 C 0.13577 0.54701 0.20593
 C902 C 0.13956 0.53059 0.21659
 C903 C 0.13576 0.53079 0.23613
 C904 C 0.12756 0.54678 0.24467
 H905 H 0.06254 0.60894 0.29872
 H906 H 0.06667 0.64860 0.25260
 H907 H 0.04257 0.66902 0.26786
 H908 H 0.03850 0.62913 0.31410
 H909 H 0.12398 0.57524 0.20595
 H910 H 0.13837 0.54717 0.19083
 H911 H 0.13876 0.51843 0.24472
 H912 H 0.12415 0.54644 0.25962
 C913 C 0.94349 0.34769 0.25166
 C914 C 0.93769 0.36568 0.25800
 C915 C 0.94255 0.37173 0.27624
 C916 C 0.95352 0.36008 0.28797
 C917 C 0.95982 0.34217 0.28161
 C918 C 0.95446 0.33597 0.26341
 C919 C 0.92758 0.37843 0.24564
 C920 C 0.91952 0.38983 0.23575
 C921 C 0.91048 0.40397 0.22481
 C922 C 0.90306 0.41671 0.21612
 C923 C 0.89450 0.43267 0.20664
 C924 C 0.87508 0.43227 0.20148
 C925 C 0.86632 0.44861 0.19427
 C926 C 0.87689 0.46556 0.19227
 C927 C 0.89657 0.46558 0.19680
 C928 C 0.90530 0.44924 0.20396
 H929 H 0.93985 0.34289 0.23754
 H930 H 0.93817 0.38563 0.28128
 H931 H 0.95737 0.36528 0.30189
 H932 H 0.95911 0.32228 0.25808
 H933 H 0.86656 0.41955 0.20361
 H934 H 0.85110 0.44824 0.19106
 H935 H 0.90512 0.47836 0.19519
 H936 H 0.92034 0.44972 0.20792
 C937 C 0.93821 0.62157 0.70953
 C938 C 0.93182 0.62729 0.72742
 C939 C 0.93862 0.64428 0.73534
 C940 C 0.95193 0.65541 0.72546
 C941 C 0.95863 0.64962 0.70755
 C942 C 0.95150 0.63263 0.69965
 C943 C 0.91901 0.61518 0.73789
 C944 C 0.90876 0.60437 0.74643
 C945 C 0.89744 0.59097 0.75621
 C946 C 0.88845 0.57887 0.76441
 C947 C 0.87867 0.56369 0.77402
 C948 C 0.87490 0.56500 0.79343
 C949 C 0.86755 0.54932 0.80317
 C950 C 0.86402 0.53210 0.79360
 C951 C 0.86714 0.53117 0.77396
 C952 C 0.87444 0.54687 0.76426
 H953 H 0.93310 0.60840 0.70331
 H954 H 0.93383 0.64878 0.74924
 H955 H 0.95714 0.66841 0.73192
 H956 H 0.95633 0.62778 0.68589
 H957 H 0.87826 0.57792 0.80115
 H958 H 0.86547 0.55037 0.81832
 H959 H 0.86432 0.51817 0.76620
 H960 H 0.87734 0.54569 0.74924
 C961 C 0.74995 0.65844 0.94580
 C962 C 0.74278 0.64069 0.94019
 C963 C 0.72433 0.63514 0.94580
 C964 C 0.71325 0.64698 0.95735
 C965 C 0.72046 0.66467 0.96359
 C966 C 0.73887 0.67039 0.95736
 C967 C 0.75455 0.62761 0.92956
 C968 C 0.76393 0.61589 0.92114
 C969 C 0.77430 0.60134 0.91183
 C970 C 0.78254 0.58825 0.90432
 C971 C 0.79156 0.57183 0.89590
 C972 C 0.79479 0.57093 0.87636
 C973 C 0.80158 0.55412 0.86807
 C974 C 0.80507 0.53797 0.87924
 C975 C 0.80248 0.53927 0.89893
 C976 C 0.79576 0.55607 0.90718
 H977 H 0.76424 0.66288 0.94157
 H978 H 0.71864 0.62142 0.94156
 H979 H 0.69918 0.64202 0.96170
 H980 H 0.74496 0.68387 0.96177
 H981 H 0.79149 0.58300 0.86747
 H982 H 0.80328 0.55347 0.85286
 H983 H 0.80527 0.52714 0.90791
 H984 H 0.79331 0.55659 0.92231
 C985 C 0.29055 0.38192 0.94482
 C986 C 0.27273 0.37587 0.93793
 C987 C 0.26507 0.35848 0.94389
 C988 C 0.27519 0.34720 0.95676
 C989 C 0.29314 0.35321 0.96389
 C990 C 0.30069 0.37073 0.95767
 C991 C 0.26220 0.38787 0.92518
 C992 C 0.25370 0.39853 0.91483
 C993 C 0.24411 0.41174 0.90321
 C994 C 0.23620 0.42367 0.89383
 C995 C 0.22709 0.43872 0.88343
 C996 C 0.20814 0.43677 0.87703
 C997 C 0.19876 0.45221 0.86869
 C998 C 0.20822 0.46980 0.86681
 C999 C 0.22748 0.47138 0.87264
 C1000 C 0.23682 0.45595 0.88091
 H1001 H 0.29659 0.39539 0.94035
 H1002 H 0.25124 0.35369 0.93868
 H1003 H 0.26886 0.33384 0.96114
 H1004 H 0.31443 0.37591 0.96274
 H1005 H 0.20043 0.42353 0.87900
 H1006 H 0.18388 0.45066 0.86446
 H1007 H 0.23519 0.48467 0.87114
 H1008 H 0.25149 0.45762 0.88580
 C1009 C 0.25181 0.65130 0.05869
 C1010 C 0.25851 0.63327 0.06379
 C1011 C 0.27611 0.62679 0.05674
 C1012 C 0.28689 0.63806 0.04445
 C1013 C 0.28024 0.65614 0.03891
 C1014 C 0.26260 0.66269 0.04637
 C1015 C 0.24741 0.62100 0.07589
 C1016 C 0.23896 0.60978 0.08575
 C1017 C 0.23014 0.59567 0.09698
 C1018 C 0.22363 0.58285 0.10631
 C1019 C 0.21720 0.56671 0.11710
 C1020 C 0.23091 0.55452 0.12490
 C1021 C 0.22515 0.53802 0.13422
 C1022 C 0.20555 0.53340 0.13589
 C1023 C 0.19177 0.54595 0.12847
 C1024 C 0.19759 0.56250 0.11904
 H1025 H 0.23819 0.65647 0.06407
 H1026 H 0.28145 0.61287 0.06060
 H1027 H 0.30035 0.63243 0.03915
 H1028 H 0.25697 0.67649 0.04250
 H1029 H 0.24611 0.55761 0.12349
 H1030 H 0.23607 0.52877 0.14004
 H1031 H 0.17658 0.54268 0.12946
 H1032 H 0.18685 0.57179 0.11297
 C1033 C 0.71620 0.36820 0.05698
 C1034 C 0.73507 0.36354 0.06190
 C1035 C 0.74337 0.34687 0.05474
 C1036 C 0.73295 0.33510 0.04243
 C1037 C 0.71407 0.33993 0.03698
 C1038 C 0.70578 0.35654 0.04468
 C1039 C 0.74607 0.37657 0.07336
 C1040 C 0.75485 0.38826 0.08241
 C1041 C 0.76469 0.40281 0.09229
 C1042 C 0.77276 0.41589 0.10001
 C1043 C 0.78203 0.43228 0.10825
 C1044 C 0.78365 0.43433 0.12790
 C1045 C 0.79173 0.45090 0.13563
 C1046 C 0.79815 0.46562 0.12375
 C1047 C 0.79675 0.46322 0.10404
 C1048 C 0.78875 0.44670 0.09638
 H1049 H 0.70964 0.38109 0.06238
 H1050 H 0.75801 0.34315 0.05840
 H1051 H 0.73986 0.32245 0.03689
 H1052 H 0.69130 0.36080 0.04098
 H1053 H 0.77841 0.42329 0.13724
 H1054 H 0.79251 0.45241 0.15085
 H1055 H 0.80185 0.47416 0.09453
 H1056 H 0.78759 0.44528 0.08116
 C1057 C 0.93742 0.73520 0.64930
 C1058 C 0.93097 0.72827 0.63185
 C1059 C 0.93725 0.71054 0.62535
 C1060 C 0.95032 0.69998 0.63594
 C1061 C 0.95742 0.70702 0.65328
 C1062 C 0.95049 0.72463 0.66001
 C1063 C 0.91923 0.73982 0.61976
 C1064 C 0.91023 0.74928 0.60870
 C1065 C 0.90078 0.76010 0.59479
 C1066 C 0.89372 0.76913 0.58214
 C1067 C 0.88661 0.77967 0.56622
 C1068 C 0.86684 0.78166 0.56303
 C1069 C 0.86031 0.79113 0.54687
 C1070 C 0.87351 0.79855 0.53372
 C1071 C 0.89331 0.79669 0.53725
 C1072 C 0.89978 0.78731 0.55336
 H1073 H 0.93272 0.74897 0.65441
 H1074 H 0.93242 0.70509 0.61181
 H1075 H 0.95515 0.68648 0.63026
 H1076 H 0.95552 0.73053 0.67328
 H1077 H 0.85653 0.77570 0.57285
 H1078 H 0.84498 0.79225 0.54443
 H1079 H 0.90380 0.80253 0.52754
 H1080 H 0.91511 0.78585 0.55570
 C1081 C 0.93394 0.26107 0.34749
 C1082 C 0.92771 0.26952 0.36436
 C1083 C 0.93456 0.28751 0.36946
 C1084 C 0.94794 0.29684 0.35805
 C1085 C 0.95480 0.28831 0.34126
 C1086 C 0.94733 0.27041 0.33596
 C1087 C 0.91530 0.25942 0.37720
 C1088 C 0.90556 0.25125 0.38873
 C1089 C 0.89494 0.24199 0.40303
 C1090 C 0.88660 0.23428 0.41586
 C1091 C 0.87760 0.22527 0.43185
 C1092 C 0.87382 0.23587 0.44823
 C1093 C 0.86718 0.22684 0.46456
 C1094 C 0.86427 0.20704 0.46475
 C1095 C 0.86740 0.19661 0.44801
 C1096 C 0.87408 0.20567 0.43168
 H1097 H 0.92877 0.24711 0.34344
 H1098 H 0.92988 0.29416 0.38252
 H1099 H 0.95319 0.31060 0.36266
 H1100 H 0.95216 0.26336 0.32316
 H1101 H 0.87653 0.25104 0.44853
 H1102 H 0.86466 0.23528 0.47716
 H1103 H 0.86550 0.18133 0.44778
 H1104 H 0.87709 0.19730 0.41914
 C1105 C 0.05757 0.28485 0.63144
 C1106 C 0.06497 0.26726 0.63696
 C1107 C 0.05909 0.25920 0.65410
 C1108 C 0.04566 0.26861 0.66556
 C1109 C 0.03783 0.28621 0.65996
 C1110 C 0.04416 0.29426 0.64280
 C1111 C 0.07788 0.25727 0.62447
 C1112 C 0.08820 0.24931 0.61324
 C1113 C 0.09963 0.24043 0.59925
 C1114 C 0.10874 0.23324 0.58659
 C1115 C 0.11873 0.22509 0.57065
 C1116 C 0.12274 0.20560 0.56999
 C1117 C 0.13035 0.19744 0.55351
 C1118 C 0.13386 0.20870 0.53746
 C1119 C 0.13051 0.22839 0.53855
 C1120 C 0.12298 0.23651 0.55502
 H1121 H 0.06198 0.29120 0.61818
 H1122 H 0.06468 0.24554 0.65848
 H1123 H 0.04123 0.26192 0.67864
 H1124 H 0.03860 0.30777 0.63794
 H1125 H 0.11940 0.19660 0.58196
 H1126 H 0.13263 0.18222 0.55301
 H1127 H 0.13329 0.23744 0.52649
 H1128 H 0.11991 0.25160 0.55535
 C1129 C 0.06237 0.73498 0.34857
 C1130 C 0.06793 0.72799 0.36624
 C1131 C 0.05959 0.71132 0.37317
 C1132 C 0.04561 0.70175 0.36266
 C1133 C 0.03965 0.70872 0.34493
 C1134 C 0.04837 0.72542 0.33795
 C1135 C 0.08157 0.73812 0.37781
 C1136 C 0.09250 0.74619 0.38836
 C1137 C 0.10462 0.75515 0.40170
 C1138 C 0.11427 0.76240 0.41391
 C1139 C 0.12480 0.77059 0.42946
 C1140 C 0.12978 0.75913 0.44482
 C1141 C 0.13757 0.76729 0.46115
 C1142 C 0.14044 0.78705 0.46234
 C1143 C 0.13628 0.79836 0.44649
 C1144 C 0.12842 0.79017 0.43017
 H1145 H 0.06870 0.74793 0.34310
 H1146 H 0.06374 0.70580 0.38686
 H1147 H 0.03937 0.68896 0.36858
 H1148 H 0.04424 0.73125 0.32439
 H1149 H 0.12701 0.74398 0.44446
 H1150 H 0.14083 0.75822 0.47306
 H1151 H 0.13819 0.81363 0.44709
 H1152 H 0.12449 0.79919 0.41840
 C1153 C 0.62622 0.93911 0.71451
 C1154 C 0.63105 0.93462 0.73316
 C1155 C 0.64743 0.94275 0.74140
 C1156 C 0.65876 0.95555 0.73109
 C1157 C 0.65376 0.96042 0.71245
 C1158 C 0.63746 0.95189 0.70422
 C1159 C 0.61849 0.92250 0.74399
 C1160 C 0.60724 0.91279 0.75266
 C1161 C 0.59325 0.90200 0.76239
 C1162 C 0.58063 0.89338 0.77035
 C1163 C 0.56476 0.88389 0.77947
 C1164 C 0.56549 0.87956 0.79877
 C1165 C 0.54924 0.87221 0.80792
 C1166 C 0.53204 0.86926 0.79787
 C1167 C 0.53170 0.87299 0.77835
 C1168 C 0.54794 0.88027 0.76923
 H1169 H 0.61354 0.93297 0.70801
 H1170 H 0.65126 0.93945 0.75586
 H1171 H 0.67120 0.96188 0.73783
 H1172 H 0.63321 0.95528 0.68990
 H1173 H 0.57841 0.88239 0.80686
 H1174 H 0.54987 0.86963 0.82299
 H1175 H 0.51873 0.87063 0.77020
 H1176 H 0.54719 0.88357 0.75430
 C1177 C 0.36349 0.94149 0.27872
 C1178 C 0.35799 0.93676 0.26027
 C1179 C 0.34095 0.94422 0.25282
 C1180 C 0.32969 0.95669 0.26366
 C1181 C 0.33544 0.96190 0.28205
 C1182 C 0.35234 0.95394 0.28952
 C1183 C 0.37050 0.92501 0.24895
 C1184 C 0.38190 0.91550 0.24021
 C1185 C 0.39622 0.90473 0.23090
 C1186 C 0.40920 0.89582 0.22383
 C1187 C 0.42553 0.88552 0.21656
 C1188 C 0.42991 0.88553 0.19721
 C1189 C 0.44675 0.87674 0.19065
 C1190 C 0.45942 0.86800 0.20343
 C1191 C 0.45460 0.86767 0.22275
 C1192 C 0.43781 0.87637 0.22924
 H1193 H 0.37665 0.93583 0.28463
 H1194 H 0.33657 0.94070 0.23853
 H1195 H 0.31680 0.96262 0.25749
 H1196 H 0.35718 0.95761 0.30362
 H1197 H 0.42057 0.89267 0.18727
 H1198 H 0.45017 0.87733 0.17572
 H1199 H 0.46396 0.86082 0.23288
 H1200 H 0.43459 0.87628 0.24424
 C1201 C 0.62628 0.06059 0.29089
 C1202 C 0.63130 0.06565 0.27242
 C1203 C 0.64759 0.05760 0.26394
 C1204 C 0.65862 0.04428 0.27380
 C1205 C 0.65339 0.03879 0.29223
 C1206 C 0.63722 0.04728 0.30074
 C1207 C 0.61896 0.07819 0.26194
 C1208 C 0.60789 0.08816 0.25341
 C1209 C 0.59412 0.09912 0.24370
 C1210 C 0.58172 0.10781 0.23557
 C1211 C 0.56618 0.11726 0.22602
 C1212 C 0.56724 0.12071 0.20656
 C1213 C 0.55124 0.12778 0.19692
 C1214 C 0.53394 0.13137 0.20664
 C1215 C 0.53327 0.12856 0.22631
 C1216 C 0.54928 0.12153 0.23592
 H1217 H 0.61365 0.06667 0.29756
 H1218 H 0.65155 0.06135 0.24961
 H1219 H 0.67097 0.03799 0.26686
 H1220 H 0.63282 0.04342 0.31491
 H1221 H 0.58020 0.11732 0.19873
 H1222 H 0.55212 0.12961 0.18175
 H1223 H 0.52022 0.13142 0.23420
 H1224 H 0.54829 0.11888 0.25097
 C1225 C 0.36199 0.06108 0.71957
 C1226 C 0.35679 0.06538 0.73820
 C1227 C 0.34017 0.05726 0.74599
 C1228 C 0.32909 0.04452 0.73529
 C1229 C 0.33461 0.03969 0.71672
 C1230 C 0.35103 0.04835 0.70890
 C1231 C 0.36931 0.07725 0.74938
 C1232 C 0.38081 0.08683 0.75790
 C1233 C 0.39535 0.09763 0.76682
 C1234 C 0.40857 0.10654 0.77344
 C1235 C 0.42523 0.11677 0.78003
 C1236 C 0.42904 0.11884 0.79939
 C1237 C 0.44604 0.12773 0.80540
 C1238 C 0.45944 0.13447 0.79207
 C1239 C 0.45524 0.13265 0.77270
 C1240 C 0.43830 0.12386 0.76675
 H1241 H 0.37483 0.06725 0.71339
 H1242 H 0.33604 0.06044 0.76044
 H1243 H 0.31657 0.03804 0.74172
 H1244 H 0.35567 0.04500 0.69465
 H1245 H 0.41907 0.11331 0.80979
 H1246 H 0.44896 0.12885 0.82039
 H1247 H 0.46514 0.13797 0.76213
 H1248 H 0.43552 0.12234 0.75175
 C1249 C 0.63323 0.72783 0.05707
 C1250 C 0.63854 0.74650 0.06154
 C1251 C 0.65600 0.75379 0.05481
 C1252 C 0.66788 0.74257 0.04331
 C1253 C 0.66238 0.72394 0.03833
 C1254 C 0.64504 0.71663 0.04557
 C1255 C 0.62544 0.75830 0.07215
 C1256 C 0.61371 0.76768 0.08061
 C1257 C 0.59914 0.77800 0.09006
 C1258 C 0.58603 0.78616 0.09776
 C1259 C 0.56957 0.79501 0.10650
 C1260 C 0.56875 0.79746 0.12615
 C1261 C 0.55180 0.80390 0.13474
 C1262 C 0.53542 0.80781 0.12376
 C1263 C 0.53666 0.80606 0.10398
 C1264 C 0.55361 0.79968 0.09543
 H1265 H 0.61974 0.72204 0.06216
 H1266 H 0.66022 0.76825 0.05812
 H1267 H 0.68111 0.74864 0.03792
 H1268 H 0.64036 0.70236 0.04204
 H1269 H 0.58097 0.79378 0.13488
 H1270 H 0.55121 0.80494 0.15001
 H1271 H 0.52435 0.80917 0.09515
 H1272 H 0.55405 0.79782 0.08022
 C1273 C 0.35568 0.26194 0.05351
 C1274 C 0.37339 0.26862 0.06020
 C1275 C 0.37990 0.28666 0.05489
 C1276 C 0.36891 0.29789 0.04278
 C1277 C 0.35121 0.29123 0.03576
 C1278 C 0.34463 0.27318 0.04139
 C1279 C 0.38544 0.25674 0.07171
 C1280 C 0.39620 0.24700 0.08085
 C1281 C 0.40958 0.23584 0.09087
 C1282 C 0.42169 0.22651 0.09871
 C1283 C 0.43696 0.21562 0.10709
 C1284 C 0.45001 0.20618 0.09530
 C1285 C 0.46575 0.19672 0.10302
 C1286 C 0.46871 0.19657 0.12269
 C1287 C 0.45526 0.20566 0.13452
 C1288 C 0.43949 0.21521 0.12674
 H1289 H 0.35055 0.24795 0.05745
 H1290 H 0.39362 0.29194 0.05991
 H1291 H 0.37439 0.31172 0.03876
 H1292 H 0.33107 0.26764 0.03623
 H1293 H 0.44820 0.20640 0.08008
 H1294 H 0.47572 0.18960 0.09359
 H1295 H 0.45727 0.20588 0.14970
 H1296 H 0.42952 0.22256 0.13599
 C1297 C 0.62744 0.27720 0.94291
 C1298 C 0.63382 0.25950 0.93643
 C1299 C 0.65178 0.25264 0.94218
 C1300 C 0.66318 0.26338 0.95459
 C1301 C 0.65668 0.28108 0.96141
 C1302 C 0.63874 0.28791 0.95529
 C1303 C 0.62148 0.24843 0.92428
 C1304 C 0.61023 0.24000 0.91435
 C1305 C 0.59606 0.23117 0.90302
 C1306 C 0.58319 0.22463 0.89360
 C1307 C 0.56698 0.21816 0.88266
 C1308 C 0.56264 0.19876 0.88098
 C1309 C 0.54596 0.19292 0.87145
 C1310 C 0.53340 0.20646 0.86368
 C1311 C 0.53817 0.22585 0.86509
 C1312 C 0.55480 0.23163 0.87450
 H1313 H 0.61357 0.28266 0.93857
 H1314 H 0.65686 0.23893 0.93726
 H1315 H 0.67690 0.25772 0.95906
 H1316 H 0.63330 0.30146 0.96023
 H1317 H 0.57192 0.18820 0.88733
 H1318 H 0.54258 0.17791 0.87068
 H1319 H 0.52892 0.23658 0.85899
 H1320 H 0.55799 0.24667 0.87571
 C1321 C 0.34614 0.74297 0.94652
 C1322 C 0.36263 0.73458 0.93875
 C1323 C 0.36720 0.71578 0.94325
 C1324 C 0.35559 0.70549 0.95569
 C1325 C 0.33917 0.71385 0.96386
 C1326 C 0.33444 0.73266 0.95898
 C1327 C 0.37549 0.74532 0.92687
 C1328 C 0.38701 0.75383 0.91732
 C1329 C 0.40129 0.76327 0.90664
 C1330 C 0.41412 0.77093 0.89803
 C1331 C 0.43018 0.77963 0.88846
 C1332 C 0.44675 0.76892 0.88489
 C1333 C 0.46309 0.77758 0.87727
 C1334 C 0.46311 0.79713 0.87311
 C1335 C 0.44618 0.80766 0.87611
 C1336 C 0.42983 0.79896 0.88380
 H1337 H 0.34250 0.75754 0.94319
 H1338 H 0.37994 0.70914 0.93738
 H1339 H 0.35965 0.69104 0.95909
 H1340 H 0.32192 0.73951 0.96504
 H1341 H 0.44719 0.75395 0.88843
 H1342 H 0.47582 0.76906 0.87488
 H1343 H 0.44583 0.82276 0.87322
 H1344 H 0.41712 0.80741 0.88658
 C1345 C 0.71136 0.93751 0.37440
 C1346 C 0.72959 0.93150 0.36855
 C1347 C 0.73727 0.93816 0.35149
 C1348 C 0.72691 0.95113 0.34054
 C1349 C 0.70881 0.95768 0.34663
 C1350 C 0.70103 0.95049 0.36354
 C1351 C 0.74088 0.91981 0.38093
 C1352 C 0.75012 0.91082 0.39218
 C1353 C 0.76069 0.90134 0.40628
 C1354 C 0.76953 0.89422 0.41906
 C1355 C 0.77987 0.88700 0.43510
 C1356 C 0.78175 0.86742 0.43811
 C1357 C 0.79108 0.86076 0.45433
 C1358 C 0.79849 0.87366 0.46773
 C1359 C 0.79672 0.89328 0.46440
 C1360 C 0.78748 0.89987 0.44822
 H1361 H 0.70533 0.93254 0.38763
 H1362 H 0.75144 0.93370 0.34690
 H1363 H 0.73329 0.95642 0.32760
 H1364 H 0.68712 0.95518 0.36860
 H1365 H 0.77582 0.85734 0.42807
 H1366 H 0.79213 0.84559 0.45661
 H1367 H 0.80256 0.90354 0.47431
 H1368 H 0.78611 0.91505 0.44603
 C1369 C 0.28427 0.93509 0.63298
 C1370 C 0.26555 0.92917 0.63718
 C1371 C 0.25605 0.93667 0.65301
 C1372 C 0.26514 0.95032 0.66439
 C1373 C 0.28380 0.95669 0.65996
 C1374 C 0.29334 0.94872 0.64426
 C1375 C 0.25589 0.91633 0.62443
 C1376 C 0.24829 0.90612 0.61291
 C1377 C 0.23992 0.89487 0.59854
 C1378 C 0.23315 0.88594 0.58557
 C1379 C 0.22550 0.87618 0.56929
 C1380 C 0.20609 0.87091 0.56864
 C1381 C 0.19829 0.86335 0.55199
 C1382 C 0.20982 0.86112 0.53576
 C1383 C 0.22946 0.86582 0.53679
 C1384 C 0.23722 0.87331 0.55344
 H1385 H 0.29174 0.92945 0.62073
 H1386 H 0.24150 0.93226 0.65633
 H1387 H 0.25741 0.95620 0.67635
 H1388 H 0.30772 0.95326 0.64047
 H1389 H 0.19685 0.87318 0.58079
 H1390 H 0.18309 0.86003 0.55154
 H1391 H 0.23873 0.86403 0.52459
 H1392 H 0.25225 0.87736 0.55377
 C1393 C 0.28169 0.06372 0.36724
 C1394 C 0.26299 0.06944 0.36280
 C1395 C 0.25393 0.06206 0.34668
 C1396 C 0.26345 0.04875 0.33524
 C1397 C 0.28211 0.04261 0.33988
 C1398 C 0.29118 0.05043 0.35590
 C1399 C 0.25293 0.08202 0.37551
 C1400 C 0.24499 0.09206 0.38697
 C1401 C 0.23623 0.10316 0.40125
 C1402 C 0.22917 0.11200 0.41415
 C1403 C 0.22122 0.12169 0.43034
 C1404 C 0.20162 0.12616 0.43109
 C1405 C 0.19362 0.13363 0.44771
 C1406 C 0.20513 0.13655 0.46382
 C1407 C 0.22494 0.13267 0.46266
 C1408 C 0.23290 0.12528 0.44605
 H1409 H 0.28882 0.06927 0.37971
 H1410 H 0.23941 0.06632 0.34316
 H1411 H 0.25606 0.04298 0.32303
 H1412 H 0.30555 0.04606 0.35986
 H1413 H 0.19241 0.12333 0.41906
 H1414 H 0.17830 0.13631 0.44825
 H1415 H 0.23419 0.13500 0.47476
 H1416 H 0.24808 0.12185 0.44565
 C1417 C 0.71410 0.05769 0.62662
 C1418 C 0.73210 0.06419 0.63264
 C1419 C 0.73941 0.05826 0.65009
 C1420 C 0.72888 0.04559 0.66132
 C1421 C 0.71096 0.03864 0.65514
 C1422 C 0.70360 0.04502 0.63776
 C1423 C 0.74342 0.07592 0.62022
 C1424 C 0.75265 0.08508 0.60904
 C1425 C 0.76318 0.09495 0.59509
 C1426 C 0.77195 0.10255 0.58247
 C1427 C 0.78214 0.11049 0.56662
 C1428 C 0.78243 0.13015 0.56346
 C1429 C 0.79131 0.13746 0.54724
 C1430 C 0.79986 0.12514 0.53396
 C1431 C 0.79983 0.10548 0.53750
 C1432 C 0.79103 0.09824 0.55369
 H1433 H 0.70834 0.06211 0.61310
 H1434 H 0.75338 0.06313 0.65484
 H1435 H 0.73495 0.04094 0.67461
 H1436 H 0.68984 0.04000 0.63260
 H1437 H 0.77550 0.13976 0.57334
 H1438 H 0.79101 0.15264 0.54479
 H1439 H 0.80654 0.09568 0.52767
 H1440 H 0.79089 0.08301 0.55598
 C1441 C 0.93668 0.62803 0.28722
 C1442 C 0.93228 0.63267 0.26851
 C1443 C 0.94081 0.64864 0.26017
 C1444 C 0.95396 0.65970 0.27042
 C1445 C 0.95879 0.65485 0.28912
 C1446 C 0.94981 0.63901 0.29746
 C1447 C 0.91989 0.62031 0.25771
 C1448 C 0.90999 0.60920 0.24905
 C1449 C 0.89903 0.59537 0.23932
 C1450 C 0.89029 0.58289 0.23132
 C1451 C 0.88072 0.56721 0.22213
 C1452 C 0.87640 0.56794 0.20280
 C1453 C 0.86911 0.55185 0.19354
 C1454 C 0.86620 0.53480 0.20349
 C1455 C 0.86987 0.53445 0.22305
 C1456 C 0.87709 0.55053 0.23227
 H1457 H 0.93023 0.61567 0.29381
 H1458 H 0.93758 0.65232 0.24566
 H1459 H 0.96063 0.67178 0.26359
 H1460 H 0.95316 0.63488 0.31182
 H1461 H 0.87925 0.58074 0.19478
 H1462 H 0.86659 0.55248 0.17845
 H1463 H 0.86754 0.52159 0.23112
 H1464 H 0.88038 0.54978 0.24722
 C1465 C 0.93908 0.36670 0.72441
 C1466 C 0.93551 0.36148 0.74316
 C1467 C 0.94331 0.34460 0.75022
 C1468 C 0.95505 0.33324 0.73870
 C1469 C 0.95921 0.33873 0.72001
 C1470 C 0.95083 0.35544 0.71292
 C1471 C 0.92486 0.37422 0.75526
 C1472 C 0.91641 0.38572 0.76484
 C1473 C 0.90703 0.40011 0.77536
 C1474 C 0.89946 0.41312 0.78366
 C1475 C 0.89094 0.42948 0.79267
 C1476 C 0.87152 0.42943 0.79796
 C1477 C 0.86290 0.44609 0.80479
 C1478 C 0.87360 0.46302 0.80623
 C1479 C 0.89326 0.46273 0.80155
 C1480 C 0.90184 0.44608 0.79481
 H1481 H 0.93317 0.37976 0.71879
 H1482 H 0.94070 0.34044 0.76474
 H1483 H 0.96133 0.32050 0.74460
 H1484 H 0.95370 0.36008 0.69860
 H1485 H 0.86291 0.41669 0.79627
 H1486 H 0.84771 0.44595 0.80815
 H1487 H 0.90191 0.47549 0.80275
 H1488 H 0.91687 0.44632 0.79075
 C1489 C 0.06045 0.62426 0.70678
 C1490 C 0.06673 0.62973 0.72477
 C1491 C 0.05929 0.64619 0.73323
 C1492 C 0.04542 0.65700 0.72379
 C1493 C 0.03878 0.65139 0.70582
 C1494 C 0.04660 0.63499 0.69736
 C1495 C 0.08005 0.61779 0.73478
 C1496 C 0.09072 0.60706 0.74286
 C1497 C 0.10257 0.59367 0.75201
 C1498 C 0.11205 0.58158 0.75961
 C1499 C 0.12247 0.56637 0.76848
 C1500 C 0.12548 0.56651 0.78805
 C1501 C 0.13352 0.55066 0.79693
 C1502 C 0.13854 0.53444 0.78633
 C1503 C 0.13616 0.53474 0.76658
 C1504 C 0.12816 0.55060 0.75774
 H1505 H 0.06605 0.61151 0.70013
 H1506 H 0.06399 0.65050 0.74720
 H1507 H 0.03968 0.66954 0.73069
 H1508 H 0.04185 0.63029 0.68353
 H1509 H 0.12100 0.57858 0.79652
 H1510 H 0.13497 0.55076 0.81218
 H1511 H 0.14010 0.52255 0.75804
 H1512 H 0.12586 0.55032 0.74259
 C1513 C 0.05509 0.34330 0.25506
 C1514 C 0.06337 0.35975 0.26276
 C1515 C 0.05908 0.36507 0.28136
 C1516 C 0.04620 0.35435 0.29209
 C1517 C 0.03737 0.33808 0.28437
 C1518 C 0.04219 0.33247 0.26583
 C1519 C 0.07543 0.37198 0.25152
 C1520 C 0.08516 0.38322 0.24292
 C1521 C 0.09617 0.39745 0.23390
 C1522 C 0.10524 0.41040 0.22719
 C1523 C 0.11568 0.42675 0.22050
 C1524 C 0.12322 0.43958 0.23370
 C1525 C 0.13214 0.45626 0.22766
 C1526 C 0.13368 0.46042 0.20828
 C1527 C 0.12652 0.44724 0.19502
 C1528 C 0.11748 0.43051 0.20112
 H1529 H 0.05826 0.33909 0.24064
 H1530 H 0.06538 0.37778 0.28746
 H1531 H 0.04285 0.35905 0.30632
 H1532 H 0.03558 0.32006 0.25947
 H1533 H 0.12191 0.43684 0.24872
 H1534 H 0.13779 0.46600 0.23818
 H1535 H 0.12741 0.45013 0.18002
 H1536 H 0.11161 0.42071 0.19078
   
