data_POSCAR
  _audit_creation_date              2014-09-24
  _audit_creation_method            'ToBaCCo'
  _symmetry_space_group_name_H-M    'P1'
  _symmetry_Int_Tables_number       1
  _symmetry_cell_setting            triclinic
  loop_
  _symmetry_equiv_pos_as_xyz
 x,y,z
_cell_length_a 86.0620
_cell_length_b 85.7289
_cell_length_c 86.3661
_cell_angle_alpha 89.954900
_cell_angle_beta 89.918000
_cell_angle_gamma 89.922700
loop_
  _atom_site_label
  _atom_site_type_symbol
  _atom_site_fract_x
  _atom_site_fract_y
  _atom_site_fract_z
N1 N 0.36839 0.32482 0.33452
 N2 N 0.36824 0.33590 0.32401
 C3 C 0.37975 0.33325 0.31376
 C4 C 0.38756 0.31976 0.31807
 C5 C 0.37995 0.31476 0.33133
 H6 H 0.38205 0.34046 0.30375
 H7 H 0.38245 0.30446 0.33810
 Cu8 Cu 0.35273 0.35242 0.32440
 Cu9 Cu 0.35325 0.32392 0.35119
 Cu10 Cu 0.32470 0.35239 0.35174
 N11 N 0.33626 0.36798 0.32464
 N12 N 0.32535 0.36792 0.33529
 C13 C 0.31529 0.37960 0.33243
 C14 C 0.32017 0.38749 0.31926
 C15 C 0.33354 0.37973 0.31466
 H16 H 0.30511 0.38201 0.33935
 H17 H 0.34058 0.38220 0.30459
 N18 N 0.32605 0.33568 0.36740
 N19 N 0.33697 0.32489 0.36718
 C20 C 0.33463 0.31498 0.37904
 C21 C 0.32157 0.31970 0.38716
 C22 C 0.31644 0.33290 0.37942
 H23 H 0.34171 0.30482 0.38135
 H24 H 0.30638 0.33989 0.38222
 H25 H 0.33569 0.33521 0.33914
 H26 H 0.34815 0.34756 0.35189
 N27 N 0.36976 0.82660 -0.16438
 N28 N 0.36874 0.83670 -0.17579
 C29 C 0.37971 0.83342 -0.18642
 C30 C 0.38805 0.82041 -0.18152
 C31 C 0.38134 0.81650 -0.16740
 H32 H 0.38119 0.83980 -0.19711
 H33 H 0.38457 0.80706 -0.15976
 Cu34 Cu 0.35244 0.85242 -0.17581
 Cu35 Cu 0.35590 0.82716 -0.14650
 Cu36 Cu 0.32411 0.85207 -0.14920
 N37 N 0.33605 0.86804 -0.17608
 N38 N 0.32474 0.86751 -0.16585
 C39 C 0.31448 0.87894 -0.16894
 C40 C 0.31959 0.88721 -0.18183
 C41 C 0.33343 0.87991 -0.18596
 H42 H 0.30413 0.88105 -0.16217
 H43 H 0.34092 0.88278 -0.19558
 N44 N 0.32603 0.83580 -0.13312
 N45 N 0.33828 0.82661 -0.13189
 C46 C 0.33617 0.81688 -0.11982
 C47 C 0.32192 0.82009 -0.11303
 C48 C 0.31584 0.83218 -0.12183
 H49 H 0.34436 0.80796 -0.11641
 H50 H 0.30471 0.83780 -0.12030
 H51 H 0.33759 0.83496 -0.15949
 H52 H 0.34776 0.85021 -0.14790
 N53 N 0.86684 0.32415 -0.16571
 N54 N 0.86646 0.33469 -0.17675
 C55 C 0.87803 0.33180 -0.18686
 C56 C 0.88615 0.31875 -0.18189
 C57 C 0.87865 0.31421 -0.16840
 H58 H 0.88021 0.33856 -0.19720
 H59 H 0.88150 0.30440 -0.16106
 Cu60 Cu 0.85056 0.35082 -0.17699
 Cu61 Cu 0.85185 0.32400 -0.14878
 Cu62 Cu 0.82337 0.35272 -0.14919
 N63 N 0.83471 0.36699 -0.17710
 N64 N 0.82402 0.36758 -0.16626
 C65 C 0.81429 0.37951 -0.16922
 C66 C 0.81911 0.38689 -0.18273
 C67 C 0.83217 0.37855 -0.18734
 H68 H 0.80439 0.38242 -0.16206
 H69 H 0.83927 0.38057 -0.19747
 N70 N 0.82476 0.33663 -0.13290
 N71 N 0.83566 0.32580 -0.13268
 C72 C 0.83319 0.31630 -0.12051
 C73 C 0.82005 0.32132 -0.11266
 C74 C 0.81505 0.33428 -0.12087
 H75 H 0.84013 0.30614 -0.11787
 H76 H 0.80491 0.34131 -0.11846
 H77 H 0.83396 0.33460 -0.16081
 H78 H 0.84680 0.34764 -0.14922
 N79 N 0.86751 0.82394 0.33434
 N80 N 0.86659 0.83392 0.32284
 C81 C 0.87827 0.83117 0.31283
 C82 C 0.88699 0.81872 0.31829
 C83 C 0.87977 0.81445 0.33201
 H84 H 0.88004 0.83752 0.30216
 H85 H 0.88309 0.80506 0.33969
 Cu86 Cu 0.84991 0.84916 0.32138
 Cu87 Cu 0.85247 0.82370 0.35114
 Cu88 Cu 0.82415 0.85236 0.35074
 N89 N 0.83493 0.86613 0.32244
 N90 N 0.82481 0.86728 0.33376
 C91 C 0.81551 0.87964 0.33115
 C92 C 0.82002 0.88672 0.31737
 C93 C 0.83249 0.87777 0.31226
 H94 H 0.80608 0.88304 0.33869
 H95 H 0.83915 0.87932 0.30177
 N96 N 0.82539 0.83623 0.36697
 N97 N 0.83623 0.82534 0.36714
 C98 C 0.83369 0.81576 0.37924
 C99 C 0.82056 0.82079 0.38709
 C100 C 0.81565 0.83385 0.37896
 H101 H 0.84059 0.80556 0.38182
 H102 H 0.80557 0.84095 0.38141
 H103 H 0.83421 0.83378 0.33933
 H104 H 0.84773 0.84740 0.34950
 N105 N 0.63233 0.67532 0.33491
 N106 N 0.63248 0.66425 0.32439
 C107 C 0.62059 0.66656 0.31453
 C108 C 0.61254 0.67981 0.31907
 C109 C 0.62038 0.68505 0.33209
 H110 H 0.61821 0.65934 0.30456
 H111 H 0.61776 0.69529 0.33891
 Cu112 Cu 0.64872 0.64842 0.32418
 Cu113 Cu 0.64780 0.67646 0.35134
 Cu114 Cu 0.67632 0.64793 0.35155
 N115 N 0.66481 0.63242 0.32444
 N116 N 0.67561 0.63239 0.33517
 C117 C 0.68553 0.62055 0.33251
 C118 C 0.68074 0.61267 0.31934
 C119 C 0.66752 0.62058 0.31455
 H120 H 0.69570 0.61816 0.33946
 H121 H 0.66046 0.61803 0.30453
 N122 N 0.67517 0.66462 0.36719
 N123 N 0.66443 0.67560 0.36704
 C124 C 0.66723 0.68565 0.37871
 C125 C 0.68039 0.68077 0.38662
 C126 C 0.68504 0.66736 0.37895
 H127 H 0.66032 0.69590 0.38110
 H128 H 0.69513 0.66031 0.38148
 H129 H 0.66548 0.66559 0.33931
 H130 H 0.65285 0.65298 0.35165
 N131 N 0.63361 0.17575 -0.16474
 N132 N 0.63480 0.16570 -0.17615
 C133 C 0.62309 0.16812 -0.18620
 C134 C 0.61406 0.18043 -0.18087
 C135 C 0.62116 0.18495 -0.16718
 H136 H 0.62141 0.16148 -0.19670
 H137 H 0.61776 0.19443 -0.15967
 Cu138 Cu 0.65193 0.15084 -0.17735
 Cu139 Cu 0.64849 0.17645 -0.14782
 Cu140 Cu 0.67656 0.14761 -0.14715
 N141 N 0.66665 0.13364 -0.17563
 N142 N 0.67613 0.13239 -0.16380
 C143 C 0.68537 0.11989 -0.16585
 C144 C 0.68157 0.11283 -0.17982
 C145 C 0.66952 0.12194 -0.18563
 H146 H 0.69446 0.11654 -0.15790
 H147 H 0.66340 0.12041 -0.19644
 N148 N 0.67519 0.16408 -0.13135
 N149 N 0.66457 0.17517 -0.13165
 C150 C 0.66725 0.18515 -0.11991
 C151 C 0.68025 0.18013 -0.11181
 C152 C 0.68489 0.16668 -0.11943
 H153 H 0.66046 0.19551 -0.11768
 H154 H 0.69494 0.15959 -0.11684
 H155 H 0.66714 0.16623 -0.15905
 H156 H 0.65312 0.15274 -0.14927
 N157 N 0.13177 0.67565 -0.16459
 N158 N 0.13299 0.66549 -0.17590
 C159 C 0.12121 0.66767 -0.18592
 C160 C 0.11214 0.67998 -0.18068
 C161 C 0.11925 0.68473 -0.16707
 H162 H 0.11969 0.66109 -0.19648
 H163 H 0.11575 0.69422 -0.15962
 Cu164 Cu 0.15050 0.65122 -0.17722
 Cu165 Cu 0.14683 0.67668 -0.14783
 Cu166 Cu 0.17570 0.64846 -0.14755
 N167 N 0.16508 0.63398 -0.17555
 N168 N 0.17517 0.63313 -0.16418
 C169 C 0.18451 0.62074 -0.16649
 C170 C 0.17999 0.61334 -0.18003
 C171 C 0.16756 0.62209 -0.18541
 H172 H 0.19403 0.61752 -0.15897
 H173 H 0.16108 0.62028 -0.19597
 N174 N 0.17417 0.66500 -0.13175
 N175 N 0.16314 0.67571 -0.13184
 C176 C 0.16555 0.68565 -0.12003
 C177 C 0.17879 0.68108 -0.11211
 C178 C 0.18389 0.66788 -0.11988
 H179 H 0.15846 0.69579 -0.11770
 H180 H 0.19411 0.66104 -0.11730
 H181 H 0.16553 0.66682 -0.15901
 H182 H 0.15202 0.65302 -0.14907
 N183 N 0.13275 0.17569 0.33689
 N184 N 0.13395 0.16594 0.32523
 C185 C 0.12235 0.16877 0.31515
 C186 C 0.11342 0.18102 0.32075
 C187 C 0.12042 0.18507 0.33462
 H188 H 0.12069 0.16249 0.30444
 H189 H 0.11707 0.19440 0.34234
 Cu190 Cu 0.15086 0.15083 0.32393
 Cu191 Cu 0.14768 0.17611 0.35372
 Cu192 Cu 0.17670 0.14826 0.35330
 N193 N 0.16667 0.13454 0.32471
 N194 N 0.17660 0.13356 0.33620
 C195 C 0.18619 0.12140 0.33375
 C196 C 0.18208 0.11426 0.31995
 C197 C 0.16961 0.12298 0.31455
 H198 H 0.19555 0.11814 0.34141
 H199 H 0.16316 0.12111 0.30399
 N200 N 0.17489 0.16417 0.36962
 N201 N 0.16381 0.17480 0.36978
 C202 C 0.16622 0.18455 0.38175
 C203 C 0.17952 0.17991 0.38951
 C204 C 0.18464 0.16687 0.38150
 H205 H 0.15918 0.19469 0.38421
 H206 H 0.19495 0.16009 0.38386
 H207 H 0.16628 0.16649 0.34181
 H208 H 0.15311 0.15248 0.35202
 N209 N 0.63287 0.32455 0.66506
 N210 N 0.63342 0.33474 0.67639
 C211 C 0.62169 0.33187 0.68632
 C212 C 0.61337 0.31913 0.68099
 C213 C 0.62084 0.31482 0.66742
 H214 H 0.61958 0.33839 0.69682
 H215 H 0.61784 0.30526 0.65984
 Cu216 Cu 0.64964 0.35050 0.67750
 Cu217 Cu 0.64804 0.32438 0.64836
 Cu218 Cu 0.67604 0.35330 0.64870
 N219 N 0.66511 0.36704 0.67697
 N220 N 0.67531 0.36811 0.66570
 C221 C 0.68469 0.38036 0.66835
 C222 C 0.68015 0.38742 0.68206
 C223 C 0.66765 0.37862 0.68718
 H224 H 0.69414 0.38380 0.66085
 H225 H 0.66106 0.38032 0.69771
 N226 N 0.67492 0.33722 0.63250
 N227 N 0.66435 0.32610 0.63242
 C228 C 0.66721 0.31644 0.62044
 C229 C 0.68026 0.32169 0.61260
 C230 C 0.68477 0.33494 0.62059
 H231 H 0.66047 0.30616 0.61785
 H232 H 0.69480 0.34212 0.61826
 H233 H 0.66603 0.33491 0.66035
 H234 H 0.65261 0.34813 0.64950
 N235 N 0.63248 0.82414 1.16543
 N236 N 0.63299 0.83449 1.17663
 C237 C 0.62113 0.83188 1.18647
 C238 C 0.61276 0.81913 1.18124
 C239 C 0.62035 0.81453 1.16783
 H240 H 0.61895 0.83858 1.19684
 H241 H 0.61736 0.80487 1.16038
 Cu242 Cu 0.64928 0.85018 1.17774
 Cu243 Cu 0.64770 0.82379 1.14878
 Cu244 Cu 0.67579 0.85260 1.14899
 N245 N 0.66463 0.86682 1.17692
 N246 N 0.67500 0.86762 1.16579
 C247 C 0.68445 0.87982 1.16840
 C248 C 0.67976 0.88715 1.18192
 C249 C 0.66709 0.87856 1.18697
 H250 H 0.69411 0.88298 1.16104
 H251 H 0.66034 0.88047 1.19736
 N252 N 0.67471 0.83637 1.13295
 N253 N 0.66406 0.82533 1.13287
 C254 C 0.66686 0.81565 1.12090
 C255 C 0.67996 0.82080 1.11305
 C256 C 0.68455 0.83402 1.12105
 H257 H 0.66002 0.80542 1.11830
 H258 H 0.69460 0.84117 1.11868
 H259 H 0.66557 0.83445 1.16067
 H260 H 0.65223 0.84766 1.14971
 N261 N 0.13257 0.32395 1.16392
 N262 N 0.13341 0.33357 1.17571
 C263 C 0.12171 0.33049 1.18561
 C264 C 0.11307 0.31817 1.17979
 C265 C 0.12036 0.31436 1.16596
 H266 H 0.11982 0.33665 1.19636
 H267 H 0.11730 0.30503 1.15813
 Cu268 Cu 0.15017 0.34864 1.17766
 Cu269 Cu 0.14782 0.32415 1.14726
 Cu270 Cu 0.17558 0.35328 1.14823
 N271 N 0.16441 0.36622 1.17678
 N272 N 0.17439 0.36791 1.16539
 C273 C 0.18330 0.38049 1.16816
 C274 C 0.17865 0.38712 1.18205
 C275 C 0.16657 0.37773 1.18715
 H276 H 0.19265 0.38432 1.16071
 H277 H 0.16012 0.37888 1.19783
 N278 N 0.17482 0.33733 1.13184
 N279 N 0.16423 0.32624 1.13144
 C280 C 0.16724 0.31676 1.11937
 C281 C 0.18043 0.32209 1.11181
 C282 C 0.18486 0.33520 1.12006
 H283 H 0.16052 0.30653 1.11652
 H284 H 0.19499 0.34233 1.11801
 H285 H 0.16616 0.33422 1.15917
 H286 H 0.15223 0.34793 1.14958
 N287 N 0.13183 0.82556 0.66472
 N288 N 0.13357 0.83455 0.67690
 C289 C 0.12253 0.83111 0.68738
 C290 C 0.11330 0.81931 0.68147
 C291 C 0.11958 0.81607 0.66702
 H292 H 0.12140 0.83666 0.69855
 H293 H 0.11551 0.80758 0.65872
 Cu294 Cu 0.14996 0.85004 0.67777
 Cu295 Cu 0.14521 0.82758 0.64656
 Cu296 Cu 0.17961 0.84791 0.65290
 N297 N 0.16588 0.86602 0.67723
 N298 N 0.17760 0.86510 0.66753
 C299 C 0.18748 0.87693 0.67028
 C300 C 0.18158 0.88583 0.68235
 C301 C 0.16780 0.87852 0.68641
 H302 H 0.19827 0.87868 0.66409
 H303 H 0.15997 0.88171 0.69566
 N304 N 0.17653 0.83376 0.63521
 N305 N 0.16337 0.82634 0.63257
 C306 C 0.16504 0.81747 0.61981
 C307 C 0.17998 0.81942 0.61405
 C308 C 0.18688 0.82987 0.62416
 H309 H 0.15610 0.80990 0.61528
 H310 H 0.19869 0.83412 0.62377
 H311 H 0.16345 0.83150 0.66103
 H312 H 0.15643 0.84902 0.65029
 N313 N 0.36858 0.67491 0.66416
 N314 N 0.36834 0.66416 0.67501
 C315 C 0.38015 0.66674 0.68489
 C316 C 0.38821 0.67985 0.68001
 C317 C 0.38047 0.68471 0.66680
 H318 H 0.38256 0.65971 0.69498
 H319 H 0.38300 0.69487 0.65984
 Cu320 Cu 0.35225 0.64826 0.67520
 Cu321 Cu 0.35303 0.67598 0.64783
 Cu322 Cu 0.32403 0.64780 0.64845
 N323 N 0.33610 0.63243 0.67554
 N324 N 0.32507 0.63233 0.66503
 C325 C 0.31518 0.62056 0.66810
 C326 C 0.32031 0.61277 0.68122
 C327 C 0.33364 0.62068 0.68558
 H328 H 0.30497 0.61794 0.66131
 H329 H 0.34084 0.61827 0.69553
 N330 N 0.32511 0.66447 0.63266
 N331 N 0.33621 0.67507 0.63239
 C332 C 0.33358 0.68496 0.62057
 C333 C 0.32014 0.68046 0.61299
 C334 C 0.31510 0.66739 0.62102
 H335 H 0.34074 0.69496 0.61794
 H336 H 0.30483 0.66057 0.61868
 H337 H 0.33547 0.66535 0.66013
 H338 H 0.34764 0.65246 0.64763
 N339 N 0.36732 0.17491 1.16428
 N340 N 0.36603 0.16524 1.17601
 C341 C 0.37769 0.16790 1.18604
 C342 C 0.38679 0.17996 1.18034
 C343 C 0.37979 0.18409 1.16647
 H344 H 0.37926 0.16164 1.19678
 H345 H 0.38327 0.19329 1.15866
 Cu346 Cu 0.34887 0.15057 1.17760
 Cu347 Cu 0.35239 0.17536 1.14741
 Cu348 Cu 0.32365 0.14724 1.14788
 N349 N 0.33385 0.13366 1.17647
 N350 N 0.32403 0.13243 1.16492
 C351 C 0.31472 0.12007 1.16739
 C352 C 0.31891 0.11313 1.18126
 C353 C 0.33115 0.12210 1.18667
 H354 H 0.30550 0.11651 1.15968
 H355 H 0.33740 0.12057 1.19741
 N356 N 0.32520 0.16324 1.13160
 N357 N 0.33618 0.17395 1.13139
 C358 C 0.33368 0.18363 1.11935
 C359 C 0.32043 0.17882 1.11161
 C360 C 0.31542 0.16581 1.11970
 H361 H 0.34078 0.19364 1.11665
 H362 H 0.30505 0.15908 1.11749
 H363 H 0.33372 0.16596 1.15915
 H364 H 0.34722 0.15188 1.14947
 N365 N 0.86705 0.67547 1.16478
 N366 N 0.86593 0.66554 1.17631
 C367 C 0.87754 0.66823 1.18640
 C368 C 0.88642 0.68058 1.18093
 C369 C 0.87934 0.68484 1.16714
 H370 H 0.87928 0.66176 1.19699
 H371 H 0.88266 0.69425 1.15950
 Cu372 Cu 0.84907 0.65044 1.17755
 Cu373 Cu 0.85223 0.67589 1.14784
 Cu374 Cu 0.82388 0.64742 1.14774
 N375 N 0.83413 0.63345 1.17612
 N376 N 0.82426 0.63240 1.16459
 C377 C 0.81492 0.62004 1.16692
 C378 C 0.81917 0.61285 1.18065
 C379 C 0.83146 0.62171 1.18614
 H380 H 0.80561 0.61668 1.15923
 H381 H 0.83778 0.61999 1.19681
 N382 N 0.82535 0.66363 1.13166
 N383 N 0.83621 0.67446 1.13168
 C384 C 0.83370 0.68429 1.11979
 C385 C 0.82056 0.67950 1.11188
 C386 C 0.81562 0.66630 1.11975
 H387 H 0.84060 0.69454 1.11745
 H388 H 0.80547 0.65936 1.11723
 H389 H 0.83380 0.66593 1.15934
 H390 H 0.84750 0.65224 1.14941
 N391 N 0.86698 0.17567 0.66487
 N392 N 0.86563 0.16575 0.67639
 C393 C 0.87724 0.16824 0.68654
 C394 C 0.88636 0.18043 0.68111
 C395 C 0.87943 0.18481 0.66730
 H396 H 0.87880 0.16174 0.69714
 H397 H 0.88291 0.19421 0.65971
 Cu398 Cu 0.84852 0.15094 0.67751
 Cu399 Cu 0.85214 0.17650 0.64796
 Cu400 Cu 0.82349 0.14836 0.64749
 N401 N 0.83346 0.13410 0.67586
 N402 N 0.82375 0.13313 0.66418
 C403 C 0.81437 0.12076 0.66632
 C404 C 0.81838 0.11351 0.68011
 C405 C 0.83060 0.12234 0.68581
 H406 H 0.80507 0.11756 0.65856
 H407 H 0.83686 0.12050 0.69649
 N408 N 0.82511 0.16478 0.63162
 N409 N 0.83607 0.17550 0.63182
 C410 C 0.83372 0.18550 0.62004
 C411 C 0.82059 0.18091 0.61196
 C412 C 0.81549 0.16767 0.61966
 H413 H 0.84078 0.19567 0.61784
 H414 H 0.80530 0.16083 0.61701
 H415 H 0.83342 0.16675 0.65938
 H416 H 0.84704 0.15294 0.64944
 N417 N 0.32497 0.36784 0.66469
 N418 N 0.33544 0.36732 0.67571
 C419 C 0.33270 0.37899 0.68581
 C420 C 0.31975 0.38727 0.68084
 C421 C 0.31521 0.37980 0.66736
 H422 H 0.33950 0.38113 0.69609
 H423 H 0.30530 0.38254 0.66018
 Cu424 Cu 0.35143 0.35119 0.67574
 Cu425 Cu 0.32423 0.35262 0.64801
 Cu426 Cu 0.35265 0.32396 0.64782
 N427 N 0.36755 0.33521 0.67539
 N428 N 0.36798 0.32465 0.66438
 C429 C 0.37995 0.31488 0.66695
 C430 C 0.38751 0.31953 0.68035
 C431 C 0.37929 0.33252 0.68535
 H432 H 0.38275 0.30499 0.65971
 H433 H 0.38142 0.33928 0.69568
 N434 N 0.33613 0.32523 0.63207
 N435 N 0.32537 0.33620 0.63211
 C436 C 0.31552 0.33367 0.62028
 C437 C 0.32026 0.32044 0.61236
 C438 C 0.33339 0.31542 0.62021
 H439 H 0.30539 0.34072 0.61789
 H440 H 0.34030 0.30521 0.61766
 H441 H 0.33480 0.33455 0.65996
 H442 H 0.34762 0.34742 0.64812
 N443 N 0.32468 0.86778 0.16423
 N444 N 0.33440 0.86623 0.17584
 C445 C 0.33188 0.87777 0.18610
 C446 C 0.31985 0.88704 0.18069
 C447 C 0.31559 0.88031 0.16674
 H448 H 0.33802 0.87900 0.19693
 H449 H 0.30640 0.88407 0.15907
 Cu450 Cu 0.34879 0.84879 0.17706
 Cu451 Cu 0.32397 0.85292 0.14724
 Cu452 Cu 0.35189 0.82381 0.14706
 N453 N 0.36574 0.83388 0.17555
 N454 N 0.36686 0.82405 0.16395
 C455 C 0.37923 0.81470 0.16624
 C456 C 0.38630 0.81893 0.18003
 C457 C 0.37739 0.83119 0.18558
 H458 H 0.38272 0.80544 0.15849
 H459 H 0.37900 0.83743 0.19632
 N460 N 0.33569 0.82563 0.13103
 N461 N 0.32512 0.83678 0.13107
 C462 C 0.31540 0.83459 0.11908
 C463 C 0.32001 0.82138 0.11106
 C464 C 0.33295 0.81603 0.11900
 H465 H 0.30539 0.84180 0.11669
 H466 H 0.33973 0.80574 0.11641
 H467 H 0.33338 0.83384 0.15857
 H468 H 0.34740 0.84743 0.14897
 N469 N 0.82494 0.36682 0.16422
 N470 N 0.83477 0.36553 0.17577
 C471 C 0.83209 0.37711 0.18596
 C472 C 0.81984 0.38610 0.18056
 C473 C 0.81561 0.37917 0.16670
 H474 H 0.83833 0.37860 0.19670
 H475 H 0.80633 0.38272 0.15904
 Cu476 Cu 0.84962 0.34846 0.17698
 Cu477 Cu 0.82459 0.35211 0.14711
 Cu478 Cu 0.85342 0.32396 0.14674
 N479 N 0.86687 0.33382 0.17547
 N480 N 0.86825 0.32425 0.16369
 C481 C 0.88066 0.31497 0.16595
 C482 C 0.88752 0.31892 0.17993
 C483 C 0.87841 0.33100 0.18561
 H484 H 0.88414 0.30576 0.15814
 H485 H 0.87985 0.33713 0.19644
 N486 N 0.83734 0.32549 0.13060
 N487 N 0.82628 0.33615 0.13081
 C488 C 0.81655 0.33358 0.11890
 C489 C 0.82166 0.32062 0.11077
 C490 C 0.83493 0.31586 0.11852
 H491 H 0.80627 0.34043 0.11656
 H492 H 0.84199 0.30576 0.11595
 H493 H 0.83451 0.33345 0.15829
 H494 H 0.84807 0.34761 0.14884
 N495 N 0.82394 0.86697 0.66374
 N496 N 0.83347 0.86549 0.67552
 C497 C 0.83061 0.87699 0.68575
 C498 C 0.81856 0.88616 0.68014
 C499 C 0.81466 0.87938 0.66610
 H500 H 0.83676 0.87842 0.69655
 H501 H 0.80553 0.88296 0.65830
 Cu502 Cu 0.84834 0.84837 0.67686
 Cu503 Cu 0.82377 0.85237 0.64655
 Cu504 Cu 0.85246 0.82422 0.64630
 N505 N 0.86557 0.83366 0.67531
 N506 N 0.86717 0.82436 0.66334
 C507 C 0.87961 0.81511 0.66553
 C508 C 0.88627 0.81876 0.67968
 C509 C 0.87700 0.83065 0.68553
 H510 H 0.88330 0.80617 0.65752
 H511 H 0.87824 0.83649 0.69654
 N512 N 0.83655 0.82579 0.63006
 N513 N 0.82554 0.83649 0.63019
 C514 C 0.81589 0.83397 0.61821
 C515 C 0.82102 0.82099 0.61011
 C516 C 0.83420 0.81617 0.61797
 H517 H 0.80565 0.84085 0.61581
 H518 H 0.84120 0.80601 0.61548
 H519 H 0.83340 0.83366 0.65785
 H520 H 0.84720 0.84791 0.64877
 N521 N 0.67631 0.63396 0.66396
 N522 N 0.66560 0.63414 0.67481
 C523 C 0.66826 0.62233 0.68474
 C524 C 0.68140 0.61432 0.67992
 C525 C 0.68619 0.62209 0.66666
 H526 H 0.66127 0.61989 0.69486
 H527 H 0.69616 0.61941 0.65952
 Cu528 Cu 0.64947 0.65004 0.67524
 Cu529 Cu 0.67671 0.64915 0.64718
 Cu530 Cu 0.64742 0.67689 0.64693
 N531 N 0.63294 0.66555 0.67471
 N532 N 0.63229 0.67604 0.66365
 C533 C 0.62016 0.68559 0.66621
 C534 C 0.61269 0.68086 0.67963
 C535 C 0.62116 0.66806 0.68471
 H536 H 0.61729 0.69550 0.65903
 H537 H 0.61901 0.66116 0.69497
 N538 N 0.66376 0.67591 0.63100
 N539 N 0.67503 0.66546 0.63116
 C540 C 0.68471 0.66831 0.61922
 C541 C 0.67929 0.68119 0.61113
 C542 C 0.66595 0.68564 0.61897
 H543 H 0.69507 0.66161 0.61675
 H544 H 0.65861 0.69553 0.61639
 H545 H 0.66549 0.66671 0.65894
 H546 H 0.65298 0.65325 0.64738
 N547 N 0.67662 0.13337 0.16383
 N548 N 0.66536 0.13310 0.17412
 C549 C 0.66791 0.12134 0.18414
 C550 C 0.68154 0.11378 0.17994
 C551 C 0.68673 0.12180 0.16697
 H552 H 0.66050 0.11863 0.19389
 H553 H 0.69708 0.11946 0.16026
 Cu554 Cu 0.64906 0.14880 0.17387
 Cu555 Cu 0.67720 0.14849 0.14691
 Cu556 Cu 0.64493 0.17267 0.14352
 N557 N 0.63266 0.16443 0.17338
 N558 N 0.63125 0.17388 0.16148
 C559 C 0.61939 0.18379 0.16408
 C560 C 0.61300 0.18045 0.17846
 C561 C 0.62177 0.16805 0.18400
 H562 H 0.61593 0.19288 0.15612
 H563 H 0.62043 0.16214 0.19498
 N564 N 0.66257 0.17321 0.12897
 N565 N 0.67504 0.16439 0.13049
 C566 C 0.68532 0.16822 0.11934
 C567 C 0.67906 0.18010 0.11038
 C568 C 0.66459 0.18290 0.11687
 H569 H 0.69665 0.16293 0.11805
 H570 H 0.65624 0.19162 0.11333
 H571 H 0.66366 0.16586 0.15685
 H572 H 0.65372 0.14990 0.14599
 N573 N 0.17675 0.63335 0.16323
 N574 N 0.16652 0.63419 0.17450
 C575 C 0.16914 0.62245 0.18455
 C576 C 0.18175 0.61380 0.17932
 C577 C 0.18625 0.62113 0.16573
 H578 H 0.16242 0.62043 0.19492
 H579 H 0.19588 0.61802 0.15831
 Cu580 Cu 0.15099 0.65073 0.17523
 Cu581 Cu 0.17722 0.64826 0.14631
 Cu582 Cu 0.14906 0.67708 0.14625
 N583 N 0.13477 0.66660 0.17441
 N584 N 0.13413 0.67687 0.16314
 C585 C 0.12203 0.68652 0.16555
 C586 C 0.11458 0.68207 0.17908
 C587 C 0.12303 0.66935 0.18437
 H588 H 0.11906 0.69620 0.15810
 H589 H 0.12083 0.66258 0.19470
 N590 N 0.16515 0.67539 0.13013
 N591 N 0.17584 0.66436 0.13014
 C592 C 0.18550 0.66666 0.11810
 C593 C 0.18074 0.67983 0.11010
 C594 C 0.16775 0.68502 0.11807
 H595 H 0.19561 0.65959 0.11570
 H596 H 0.16087 0.69525 0.11550
 H597 H 0.16708 0.66657 0.15808
 H598 H 0.15368 0.65335 0.14725
 N599 N 0.17567 0.13300 0.66367
 N600 N 0.16487 0.13323 0.67444
 C601 C 0.16747 0.12146 0.68446
 C602 C 0.18067 0.11343 0.67975
 C603 C 0.18550 0.12113 0.66647
 H604 H 0.16037 0.11905 0.69451
 H605 H 0.19564 0.11861 0.65952
 Cu606 Cu 0.14899 0.14943 0.67469
 Cu607 Cu 0.17653 0.14834 0.64707
 Cu608 Cu 0.14787 0.17672 0.64667
 N609 N 0.13285 0.16536 0.67416
 N610 N 0.13250 0.17597 0.66319
 C611 C 0.12053 0.18575 0.66579
 C612 C 0.11292 0.18104 0.67915
 C613 C 0.12110 0.16802 0.68413
 H614 H 0.11786 0.19576 0.65866
 H615 H 0.11875 0.16105 0.69429
 N616 N 0.16445 0.17554 0.63097
 N617 N 0.17544 0.16481 0.63118
 C618 C 0.18530 0.16743 0.61935
 C619 C 0.18030 0.18046 0.61125
 C620 C 0.16702 0.18526 0.61899
 H621 H 0.19549 0.16046 0.61694
 H622 H 0.15996 0.19534 0.61636
 H623 H 0.16552 0.16616 0.65887
 H624 H 0.15293 0.15313 0.64697
 N625 N 0.32370 0.63248 0.33727
 N626 N 0.33414 0.63243 0.32616
 C627 C 0.33098 0.62067 0.31632
 C628 C 0.31781 0.61292 0.32151
 C629 C 0.31356 0.62080 0.33488
 H630 H 0.33767 0.61807 0.30604
 H631 H 0.30361 0.61849 0.34217
 Cu632 Cu 0.35041 0.64821 0.32545
 Cu633 Cu 0.32365 0.64800 0.35375
 Cu634 Cu 0.35265 0.67606 0.35273
 N635 N 0.36678 0.66388 0.32503
 N636 N 0.36751 0.67477 0.33570
 C637 C 0.37945 0.68436 0.33250
 C638 C 0.38665 0.67927 0.31906
 C639 C 0.37827 0.66620 0.31467
 H640 H 0.38256 0.69439 0.33942
 H641 H 0.38015 0.65914 0.30447
 N642 N 0.33653 0.67535 0.36898
 N643 N 0.32552 0.66465 0.36938
 C644 C 0.31595 0.66769 0.38136
 C645 C 0.32112 0.68096 0.38890
 C646 C 0.33424 0.68545 0.38071
 H647 H 0.30578 0.66089 0.38421
 H648 H 0.34130 0.69564 0.38281
 H649 H 0.33445 0.66557 0.34126
 H650 H 0.34723 0.65269 0.35314
 N651 N 0.32545 0.13210 0.83693
 N652 N 0.33652 0.13189 0.82645
 C653 C 0.33368 0.12027 0.81635
 C654 C 0.32011 0.11275 0.82073
 C655 C 0.31525 0.12062 0.83389
 H656 H 0.34077 0.11775 0.80632
 H657 H 0.30495 0.11833 0.84068
 Cu658 Cu 0.35323 0.14719 0.82652
 Cu659 Cu 0.32469 0.14770 0.85325
 Cu660 Cu 0.35328 0.17605 0.85315
 N661 N 0.36874 0.16370 0.82632
 N662 N 0.36870 0.17488 0.83672
 C663 C 0.38032 0.18489 0.83361
 C664 C 0.38810 0.17979 0.82050
 C665 C 0.38039 0.16628 0.81620
 H666 H 0.38264 0.19534 0.84018
 H667 H 0.38296 0.15896 0.80635
 N668 N 0.33665 0.17519 0.86882
 N669 N 0.32577 0.16437 0.86885
 C670 C 0.31582 0.16722 0.88056
 C671 C 0.32062 0.18050 0.88830
 C672 C 0.33390 0.18521 0.88052
 H673 H 0.30556 0.16039 0.88296
 H674 H 0.34097 0.19529 0.88305
 H675 H 0.33622 0.16497 0.84065
 H676 H 0.34837 0.15267 0.85382
 N677 N 0.82381 0.63354 0.83629
 N678 N 0.83374 0.63449 0.82477
 C679 C 0.83077 0.62300 0.81459
 C680 C 0.81824 0.61438 0.81995
 C681 C 0.81415 0.62148 0.83379
 H682 H 0.83721 0.62115 0.80399
 H683 H 0.80472 0.61830 0.84143
 Cu684 Cu 0.84944 0.65080 0.82384
 Cu685 Cu 0.82380 0.64821 0.85344
 Cu686 Cu 0.85259 0.67631 0.85334
 N687 N 0.86603 0.66618 0.82468
 N688 N 0.86729 0.67606 0.83623
 C689 C 0.87950 0.68551 0.83364
 C690 C 0.88635 0.68132 0.81971
 C691 C 0.87745 0.66897 0.81438
 H692 H 0.88303 0.69481 0.84130
 H693 H 0.87896 0.66271 0.80364
 N694 N 0.83671 0.67485 0.86970
 N695 N 0.82574 0.66414 0.86976
 C696 C 0.81614 0.66678 0.88182
 C697 C 0.82126 0.67986 0.88973
 C698 C 0.83438 0.68460 0.88170
 H699 H 0.80594 0.65992 0.88439
 H700 H 0.84133 0.69482 0.88401
 H701 H 0.83387 0.66639 0.84172
 H702 H 0.84725 0.65256 0.85191
 N703 N 0.82371 0.13316 0.33604
 N704 N 0.83352 0.13416 0.32443
 C705 C 0.83070 0.12248 0.31441
 C706 C 0.81838 0.11369 0.31999
 C707 C 0.81427 0.12088 0.33378
 H708 H 0.83704 0.12068 0.30376
 H709 H 0.80496 0.11762 0.34153
 Cu710 Cu 0.84880 0.15081 0.32311
 Cu711 Cu 0.82350 0.14817 0.35286
 Cu712 Cu 0.85189 0.17671 0.35242
 N713 N 0.86550 0.16605 0.32402
 N714 N 0.86666 0.17615 0.33538
 C715 C 0.87897 0.18547 0.33276
 C716 C 0.88600 0.18092 0.31903
 C717 C 0.87709 0.16852 0.31385
 H718 H 0.88244 0.19491 0.34028
 H719 H 0.87874 0.16195 0.30330
 N720 N 0.83586 0.17534 0.36869
 N721 N 0.82512 0.16439 0.36888
 C722 C 0.81549 0.16696 0.38091
 C723 C 0.82032 0.18023 0.38868
 C724 C 0.83333 0.18518 0.38058
 H725 H 0.80537 0.15998 0.38346
 H726 H 0.84024 0.19541 0.38294
 H727 H 0.83342 0.16662 0.34104
 H728 H 0.84706 0.15308 0.35122
 N729 N 0.67523 0.36613 0.33425
 N730 N 0.66517 0.36479 0.32291
 C731 C 0.66759 0.37633 0.31261
 C732 C 0.67989 0.38537 0.31771
 C733 C 0.68444 0.37850 0.33151
 H734 H 0.66105 0.37783 0.30204
 H735 H 0.69379 0.38215 0.33901
 Cu736 Cu 0.65007 0.34793 0.32223
 Cu737 Cu 0.67594 0.35154 0.35147
 Cu738 Cu 0.64728 0.32337 0.35261
 N739 N 0.63323 0.33291 0.32408
 N740 N 0.63215 0.32341 0.33597
 C741 C 0.61984 0.31398 0.33401
 C742 C 0.61272 0.31773 0.32011
 C743 C 0.62158 0.32986 0.31415
 H744 H 0.61657 0.30484 0.34198
 H745 H 0.61987 0.33587 0.30329
 N746 N 0.66360 0.32504 0.36842
 N747 N 0.67463 0.33569 0.36795
 C748 C 0.68453 0.33321 0.37976
 C749 C 0.67956 0.32031 0.38808
 C750 C 0.66620 0.31550 0.38053
 H751 H 0.69482 0.34008 0.38188
 H752 H 0.65917 0.30545 0.38327
 H753 H 0.66580 0.33293 0.34047
 H754 H 0.65247 0.34705 0.35033
 N755 N 0.67612 0.86613 0.83526
 N756 N 0.66612 0.86494 0.82385
 C757 C 0.66879 0.87645 0.81357
 C758 C 0.68120 0.88532 0.81875
 C759 C 0.68555 0.87836 0.83258
 H760 H 0.66232 0.87805 0.80297
 H761 H 0.69489 0.88187 0.84015
 Cu762 Cu 0.65082 0.84823 0.82301
 Cu763 Cu 0.67629 0.85163 0.85257
 Cu764 Cu 0.64708 0.82402 0.85360
 N765 N 0.63357 0.83362 0.82478
 N766 N 0.63220 0.82423 0.83672
 C767 C 0.61981 0.81493 0.83464
 C768 C 0.61293 0.81864 0.82061
 C769 C 0.62201 0.83063 0.81470
 H770 H 0.61637 0.80584 0.84260
 H771 H 0.62054 0.83657 0.80376
 N772 N 0.66324 0.82556 0.86963
 N773 N 0.67450 0.83597 0.86917
 C774 C 0.68425 0.83337 0.88109
 C775 C 0.67892 0.82065 0.88946
 C776 C 0.66553 0.81607 0.88184
 H777 H 0.69466 0.84003 0.88327
 H778 H 0.65831 0.80614 0.88458
 H779 H 0.66578 0.83295 0.84167
 H780 H 0.65258 0.84742 0.85118
 N781 N 0.17524 0.36670 0.83565
 N782 N 0.16442 0.36647 0.82494
 C783 C 0.16703 0.37821 0.81488
 C784 C 0.18026 0.38617 0.81950
 C785 C 0.18512 0.37849 0.83275
 H786 H 0.16002 0.38056 0.80477
 H787 H 0.19516 0.38115 0.83976
 Cu788 Cu 0.14847 0.35036 0.82490
 Cu789 Cu 0.17604 0.35156 0.85242
 Cu790 Cu 0.14742 0.32321 0.85299
 N791 N 0.13231 0.33446 0.82547
 N792 N 0.13211 0.32384 0.83644
 C793 C 0.12028 0.31395 0.83392
 C794 C 0.11254 0.31855 0.82063
 C795 C 0.12053 0.33166 0.81558
 H796 H 0.11778 0.30390 0.84107
 H797 H 0.11807 0.33856 0.80540
 N798 N 0.16391 0.32453 0.86873
 N799 N 0.17487 0.33526 0.86846
 C800 C 0.18475 0.33267 0.88027
 C801 C 0.17979 0.31965 0.88842
 C802 C 0.16650 0.31486 0.88073
 H803 H 0.19496 0.33959 0.88257
 H804 H 0.15942 0.30482 0.88343
 H805 H 0.16510 0.33374 0.84071
 H806 H 0.15245 0.34679 0.85261
 N807 N 0.17522 0.86635 0.33525
 N808 N 0.16529 0.86493 0.32381
 C809 C 0.16777 0.87643 0.31349
 C810 C 0.17999 0.88555 0.31868
 C811 C 0.18442 0.87875 0.33256
 H812 H 0.16135 0.87785 0.30284
 H813 H 0.19369 0.88246 0.34013
 Cu814 Cu 0.15039 0.84791 0.32294
 Cu815 Cu 0.17570 0.85178 0.35251
 Cu816 Cu 0.14722 0.82337 0.35333
 N817 N 0.13358 0.83284 0.32455
 N818 N 0.13241 0.82331 0.33639
 C819 C 0.12019 0.81380 0.33422
 C820 C 0.11324 0.81754 0.32022
 C821 C 0.12209 0.82975 0.31444
 H822 H 0.11687 0.80462 0.34213
 H823 H 0.12048 0.83581 0.30359
 N824 N 0.16328 0.82527 0.36940
 N825 N 0.17425 0.83598 0.36903
 C826 C 0.18407 0.83354 0.38092
 C827 C 0.17908 0.82061 0.38918
 C828 C 0.16581 0.81574 0.38154
 H829 H 0.19432 0.84044 0.38316
 H830 H 0.15888 0.80559 0.38419
 H831 H 0.16573 0.83286 0.34151
 H832 H 0.15214 0.84688 0.35110
 C833 C 0.25918 0.96650 0.23991
 C834 C 0.24930 0.95854 0.25003
 C835 C 0.23911 0.96646 0.25989
 C836 C 0.23885 0.98297 0.25983
 C837 C 0.24886 0.99125 0.24966
 C838 C 0.25897 0.98299 0.23957
 C839 C 0.26833 0.99142 0.22917
 C840 C 0.26809 1.00765 0.22895
 C841 C 0.25853 1.01609 0.23916
 C842 C 0.24870 1.00783 0.24951
 C843 C 0.22898 0.99141 0.26975
 C844 C 0.22876 1.00765 0.26954
 C845 C 0.23861 1.01610 0.25962
 C846 C 0.23846 1.03260 0.25931
 C847 C 0.24817 1.04053 0.24899
 C848 C 0.25825 1.03259 0.23905
 H849 H 0.27583 0.98556 0.22096
 H850 H 0.27538 1.01349 0.22055
 H851 H 0.22132 0.98556 0.27780
 H852 H 0.22069 1.01350 0.27721
 H853 H 0.24950 0.94588 0.25019
 H854 H 0.24817 1.05319 0.24899
 C855 C 0.26136 0.46693 0.74243
 C856 C 0.25171 0.45902 0.75281
 C857 C 0.24153 0.46699 0.76265
 C858 C 0.24119 0.48349 0.76244
 C859 C 0.25100 0.49173 0.75204
 C860 C 0.26110 0.48343 0.74197
 C861 C 0.27082 0.49185 0.73190
 C862 C 0.27049 0.50808 0.73153
 C863 C 0.26072 0.51656 0.74150
 C864 C 0.25080 0.50831 0.75180
 C865 C 0.23164 0.49197 0.77262
 C866 C 0.23142 0.50819 0.77236
 C867 C 0.24074 0.51660 0.76192
 C868 C 0.24058 0.53310 0.76157
 C869 C 0.25041 0.54103 0.75135
 C870 C 0.26046 0.53307 0.74137
 H871 H 0.27888 0.48600 0.72425
 H872 H 0.27803 0.51388 0.72332
 H873 H 0.22434 0.48614 0.78103
 H874 H 0.22394 0.51406 0.78058
 H875 H 0.25179 0.44636 0.75292
 H876 H 0.25029 0.55368 0.75121
 C877 C 0.76069 -0.03291 0.25966
 C878 C 0.75040 -0.04081 0.24995
 C879 C 0.74054 -0.03283 0.23981
 C880 C 0.74086 -0.01634 0.23933
 C881 C 0.75107 -0.00811 0.24929
 C882 C 0.76107 -0.01641 0.25945
 C883 C 0.77108 -0.00801 0.26920
 C884 C 0.77136 0.00820 0.26893
 C885 C 0.76149 0.01668 0.25907
 C886 C 0.75134 0.00846 0.24903
 C887 C 0.73155 -0.00789 0.22891
 C888 C 0.73194 0.00834 0.22855
 C889 C 0.74156 0.01677 0.23867
 C890 C 0.74197 0.03328 0.23847
 C891 C 0.75205 0.04116 0.24842
 C892 C 0.76167 0.03317 0.25876
 H893 H 0.77879 -0.01389 0.27718
 H894 H 0.77952 0.01402 0.27649
 H895 H 0.72396 -0.01375 0.22081
 H896 H 0.72469 0.01420 0.22013
 H897 H 0.75013 -0.05347 0.25020
 H898 H 0.75212 0.05382 0.24841
 C899 C 0.74188 0.53378 0.73786
 C900 C 0.75191 0.54182 0.74773
 C901 C 0.76146 0.53400 0.75827
 C902 C 0.76126 0.51751 0.75883
 C903 C 0.75117 0.50914 0.74885
 C904 C 0.74147 0.51728 0.73829
 C905 C 0.73193 0.50872 0.72821
 C906 C 0.73151 0.49251 0.72881
 C907 C 0.74071 0.48421 0.73943
 C908 C 0.75087 0.49258 0.74935
 C909 C 0.77108 0.50916 0.76886
 C910 C 0.77077 0.49294 0.76936
 C911 C 0.76080 0.48442 0.75967
 C912 C 0.76042 0.46794 0.76006
 C913 C 0.75016 0.45990 0.75043
 C914 C 0.74035 0.46774 0.74015
 H915 H 0.72480 0.51444 0.71961
 H916 H 0.72401 0.48654 0.72071
 H917 H 0.77921 0.51508 0.77636
 H918 H 0.77843 0.48716 0.77746
 H919 H 0.75195 0.55448 0.74753
 H920 H 0.74989 0.44725 0.75085
 C921 C 0.25799 0.46712 0.26161
 C922 C 0.24772 0.45918 0.25189
 C923 C 0.23755 0.46713 0.24205
 C924 C 0.23754 0.48363 0.24185
 C925 C 0.24787 0.49190 0.25167
 C926 C 0.25811 0.48363 0.26161
 C927 C 0.26804 0.49208 0.27140
 C928 C 0.26817 0.50831 0.27125
 C929 C 0.25814 0.51676 0.26152
 C930 C 0.24799 0.50848 0.25151
 C931 C 0.22765 0.49207 0.23198
 C932 C 0.22778 0.50830 0.23181
 C933 C 0.23798 0.51674 0.24133
 C934 C 0.23832 0.53324 0.24112
 C935 C 0.24830 0.54119 0.25113
 C936 C 0.25812 0.53327 0.26135
 H937 H 0.27582 0.48624 0.27935
 H938 H 0.27629 0.51415 0.27881
 H939 H 0.21971 0.48621 0.22422
 H940 H 0.21971 0.51414 0.22416
 H941 H 0.24772 0.44652 0.25190
 H942 H 0.24844 0.55385 0.25096
 C943 C 0.76151 0.96693 0.74150
 C944 C 0.75152 0.95891 0.75149
 C945 C 0.74096 0.96674 0.76104
 C946 C 0.74036 0.98324 0.76073
 C947 C 0.75059 0.99161 0.75085
 C948 C 0.76128 0.98344 0.74127
 C949 C 0.77171 0.99200 0.73206
 C950 C 0.77131 1.00823 0.73180
 C951 C 0.76048 1.01656 0.74076
 C952 C 0.75023 1.00819 0.75063
 C953 C 0.73002 0.99160 0.77023
 C954 C 0.72957 1.00783 0.76992
 C955 C 0.73969 1.01637 0.76037
 C956 C 0.73949 1.03289 0.76016
 C957 C 0.74944 1.04091 0.75013
 C958 C 0.75987 1.03306 0.74045
 H959 H 0.78044 0.98623 0.72509
 H960 H 0.77972 1.01418 0.72460
 H961 H 0.72219 0.98569 0.77808
 H962 H 0.72115 1.01359 0.77726
 H963 H 0.75166 0.94625 0.75154
 H964 H 0.74915 1.05356 0.74995
 C965 C 0.75800 0.53224 0.23775
 C966 C 0.74788 0.54021 0.24765
 C967 C 0.73817 0.53229 0.25797
 C968 C 0.73833 0.51579 0.25833
 C969 C 0.74839 0.50750 0.24821
 C970 C 0.75825 0.51574 0.23786
 C971 C 0.76779 0.50726 0.22766
 C972 C 0.76793 0.49103 0.22784
 C973 C 0.75855 0.48262 0.23824
 C974 C 0.74850 0.49093 0.24836
 C975 C 0.72851 0.50738 0.26830
 C976 C 0.72874 0.49116 0.26857
 C977 C 0.73852 0.48269 0.25860
 C978 C 0.73871 0.46619 0.25866
 C979 C 0.74875 0.45821 0.24871
 C980 C 0.75865 0.46612 0.23855
 H981 H 0.77512 0.51309 0.21929
 H982 H 0.77538 0.48514 0.21960
 H983 H 0.72047 0.51324 0.27598
 H984 H 0.72112 0.48534 0.27669
 H985 H 0.74787 0.55287 0.24761
 H986 H 0.74886 0.44555 0.24886
 C987 C 0.23822 0.03368 0.74211
 C988 C 0.24780 0.04159 0.75253
 C989 C 0.25784 0.03362 0.76251
 C990 C 0.25810 0.01711 0.76239
 C991 C 0.24842 0.00888 0.75191
 C992 C 0.23848 0.01718 0.74170
 C993 C 0.22889 0.00875 0.73155
 C994 C 0.22926 -0.00747 0.73119
 C995 C 0.23890 -0.01595 0.74128
 C996 C 0.24863 -0.00771 0.75171
 C997 C 0.26750 0.00862 0.77271
 C998 C 0.26773 -0.00761 0.77249
 C999 C 0.25854 -0.01600 0.76196
 C1000 C 0.25872 -0.03250 0.76162
 C1001 C 0.24908 -0.04041 0.75129
 C1002 C 0.23922 -0.03246 0.74115
 H1003 H 0.22095 0.01460 0.72377
 H1004 H 0.22186 -0.01328 0.72290
 H1005 H 0.27465 0.01444 0.78121
 H1006 H 0.27509 -0.01351 0.78078
 H1007 H 0.24777 0.05425 0.75256
 H1008 H 0.24927 -0.05307 0.75113
 C1009 C 0.26283 0.24274 0.96772
 C1010 C 0.25273 0.25276 0.95985
 C1011 C 0.24230 0.26241 0.96774
 C1012 C 0.24198 0.26225 0.98412
 C1013 C 0.25225 0.25226 0.99233
 C1014 C 0.26279 0.24253 0.98411
 C1015 C 0.27324 0.23319 0.99251
 C1016 C 0.27296 0.23290 1.00862
 C1017 C 0.26227 0.24201 1.01699
 C1018 C 0.25205 0.25206 1.00879
 C1019 C 0.23187 0.27198 0.99251
 C1020 C 0.23160 0.27171 1.00862
 C1021 C 0.24167 0.26195 1.01701
 C1022 C 0.24154 0.26168 1.03340
 C1023 C 0.25145 0.25145 1.04127
 C1024 C 0.26174 0.24163 1.03337
 H1025 H 0.28188 0.22611 0.98671
 H1026 H 0.28138 0.22559 1.01444
 H1027 H 0.22408 0.27998 0.98671
 H1028 H 0.22335 0.27924 1.01441
 H1029 H 0.25267 0.25272 0.94728
 H1030 H 0.25118 0.25118 1.05382
 C1031 C 0.23977 0.76033 0.53371
 C1032 C 0.24944 0.74986 0.54153
 C1033 C 0.25942 0.73975 0.53359
 C1034 C 0.25970 0.73995 0.51720
 C1035 C 0.25008 0.75061 0.50905
 C1036 C 0.24010 0.76088 0.51732
 C1037 C 0.23101 0.77162 0.50901
 C1038 C 0.23137 0.77203 0.49290
 C1039 C 0.24080 0.76168 0.48443
 C1040 C 0.25044 0.75103 0.49259
 C1041 C 0.26911 0.72957 0.50874
 C1042 C 0.26948 0.72999 0.49263
 C1043 C 0.26042 0.74077 0.48432
 C1044 C 0.26079 0.74133 0.46794
 C1045 C 0.25112 0.75179 0.46011
 C1046 C 0.24107 0.76185 0.46803
 H1047 H 0.22360 0.77992 0.51490
 H1048 H 0.22426 0.78067 0.48715
 H1049 H 0.27620 0.72091 0.51448
 H1050 H 0.27686 0.72165 0.48676
 H1051 H 0.24926 0.74963 0.55409
 H1052 H 0.25132 0.75201 0.44755
 C1053 C 0.24040 0.74106 -0.03396
 C1054 C 0.25074 0.75081 -0.04188
 C1055 C 0.26096 0.76067 -0.03402
 C1056 C 0.26093 0.76091 -0.01764
 C1057 C 0.25058 0.75105 -0.00939
 C1058 C 0.24027 0.74109 -0.01756
 C1059 C 0.23029 0.73129 -0.00911
 C1060 C 0.23023 0.73142 0.00700
 C1061 C 0.24037 0.74111 0.01534
 C1062 C 0.25054 0.75116 0.00708
 C1063 C 0.27083 0.77087 -0.00930
 C1064 C 0.27082 0.77093 0.00681
 C1065 C 0.26069 0.76128 0.01525
 C1066 C 0.26057 0.76129 0.03164
 C1067 C 0.25055 0.75124 0.03957
 C1068 C 0.24052 0.74118 0.03172
 H1069 H 0.22244 0.72335 -0.01486
 H1070 H 0.22207 0.72384 0.01284
 H1071 H 0.27869 0.77876 -0.01514
 H1072 H 0.27891 0.77862 0.01258
 H1073 H 0.25080 0.75074 -0.05444
 H1074 H 0.25057 0.75123 0.05213
 C1075 C 0.26263 0.25906 0.53265
 C1076 C 0.25297 0.24859 0.54050
 C1077 C 0.24287 0.23864 0.53259
 C1078 C 0.24267 0.23879 0.51620
 C1079 C 0.25244 0.24930 0.50802
 C1080 C 0.26244 0.25950 0.51626
 C1081 C 0.27214 0.26965 0.50789
 C1082 C 0.27187 0.26999 0.49178
 C1083 C 0.26216 0.25993 0.48337
 C1084 C 0.25228 0.24954 0.49155
 C1085 C 0.23327 0.22844 0.50777
 C1086 C 0.23307 0.22872 0.49166
 C1087 C 0.24228 0.23933 0.48331
 C1088 C 0.24205 0.23978 0.46693
 C1089 C 0.25188 0.25007 0.45907
 C1090 C 0.26195 0.26005 0.46697
 H1091 H 0.28012 0.27741 0.51371
 H1092 H 0.27937 0.27827 0.48601
 H1093 H 0.22609 0.21987 0.51355
 H1094 H 0.22572 0.22036 0.48582
 H1095 H 0.25297 0.24853 0.55307
 H1096 H 0.25171 0.25028 0.44650
 C1097 C 0.73902 0.75961 1.03371
 C1098 C 0.74863 0.74912 1.04156
 C1099 C 0.75868 0.73906 1.03365
 C1100 C 0.75894 0.73918 1.01726
 C1101 C 0.74929 0.74979 1.00908
 C1102 C 0.73930 0.76007 1.01732
 C1103 C 0.72971 0.77031 1.00894
 C1104 C 0.73007 0.77067 0.99284
 C1105 C 0.73975 0.76051 0.98442
 C1106 C 0.74953 0.75003 0.99261
 C1107 C 0.76828 0.72872 1.00885
 C1108 C 0.76856 0.72899 0.99274
 C1109 C 0.75949 0.73972 0.98438
 C1110 C 0.75980 0.74017 0.96799
 C1111 C 0.75010 0.75057 0.96013
 C1112 C 0.74003 0.76063 0.96802
 H1113 H 0.72176 0.77814 1.01476
 H1114 H 0.72266 0.77904 0.98707
 H1115 H 0.77536 0.72006 1.01463
 H1116 H 0.77585 0.72055 0.98691
 H1117 H 0.74860 0.74907 1.05412
 H1118 H 0.75030 0.75077 0.94756
 C1119 C 0.76204 0.24267 0.46763
 C1120 C 0.75243 0.25312 0.45970
 C1121 C 0.74196 0.26283 0.46749
 C1122 C 0.74130 0.26246 0.48387
 C1123 C 0.75116 0.25212 0.49215
 C1124 C 0.76151 0.24212 0.48402
 C1125 C 0.77118 0.23203 0.49248
 C1126 C 0.77057 0.23155 0.50857
 C1127 C 0.76054 0.24144 0.51689
 C1128 C 0.75068 0.25178 0.50861
 C1129 C 0.73121 0.27228 0.49220
 C1130 C 0.73060 0.27180 0.50830
 C1131 C 0.74033 0.26176 0.51676
 C1132 C 0.73985 0.26123 0.53314
 C1133 C 0.74953 0.25086 0.54107
 C1134 C 0.75993 0.24111 0.53326
 H1135 H 0.77938 0.22439 0.48676
 H1136 H 0.77805 0.22330 0.51442
 H1137 H 0.72370 0.28052 0.48636
 H1138 H 0.72237 0.27940 0.51404
 H1139 H 0.75271 0.25328 0.44713
 H1140 H 0.74929 0.25069 0.55364
 C1141 C 0.75819 0.26338 -0.03327
 C1142 C 0.74809 0.25343 -0.04118
 C1143 C 0.73848 0.24292 -0.03334
 C1144 C 0.73870 0.24246 -0.01695
 C1145 C 0.74876 0.25261 -0.00871
 C1146 C 0.75852 0.26313 -0.01689
 C1147 C 0.76803 0.27337 -0.00846
 C1148 C 0.76834 0.27299 0.00765
 C1149 C 0.75910 0.26241 0.01599
 C1150 C 0.74899 0.25231 0.00775
 C1151 C 0.72896 0.23236 -0.00858
 C1152 C 0.72926 0.23199 0.00752
 C1153 C 0.73906 0.24195 0.01594
 C1154 C 0.73934 0.24177 0.03233
 C1155 C 0.74952 0.25164 0.04023
 C1156 C 0.75938 0.26190 0.03238
 H1157 H 0.77524 0.28192 -0.01423
 H1158 H 0.77581 0.28124 0.01349
 H1159 H 0.72090 0.22467 -0.01439
 H1160 H 0.72170 0.22376 0.01330
 H1161 H 0.74806 0.25354 -0.05375
 H1162 H 0.74974 0.25136 0.05279
 C1163 C 0.75797 0.76313 0.46622
 C1164 C 0.74789 0.75316 0.45831
 C1165 C 0.73823 0.74268 0.46615
 C1166 C 0.73847 0.74220 0.48254
 C1167 C 0.74846 0.75241 0.49079
 C1168 C 0.75817 0.76298 0.48261
 C1169 C 0.76751 0.77338 0.49104
 C1170 C 0.76776 0.77306 0.50715
 C1171 C 0.75867 0.76234 0.51549
 C1172 C 0.74868 0.75212 0.50726
 C1173 C 0.72882 0.73200 0.49092
 C1174 C 0.72917 0.73159 0.50703
 C1175 C 0.73887 0.74166 0.51545
 C1176 C 0.73918 0.74146 0.53185
 C1177 C 0.74928 0.75143 0.53974
 C1178 C 0.75901 0.76181 0.53187
 H1179 H 0.77460 0.78203 0.48527
 H1180 H 0.77506 0.78146 0.51299
 H1181 H 0.72084 0.72424 0.48510
 H1182 H 0.72172 0.72326 0.51280
 H1183 H 0.74791 0.75321 0.44575
 H1184 H 0.74953 0.75116 0.55230
 C1185 C 1.03298 0.23885 0.26000
 C1186 C 1.04095 0.24876 0.24989
 C1187 C 1.03312 0.25913 0.24013
 C1188 C 1.01669 0.25974 0.24046
 C1189 C 1.00838 0.24953 0.25042
 C1190 C 1.01654 0.23905 0.26023
 C1191 C 1.00804 0.22896 0.26987
 C1192 C 0.99188 0.22941 0.27020
 C1193 C 0.98355 0.23969 0.26061
 C1194 C 0.99186 0.24988 0.25064
 C1195 C 1.00838 0.27053 0.23142
 C1196 C 0.99222 0.27093 0.23170
 C1197 C 0.98371 0.26052 0.24099
 C1198 C 0.96727 0.26073 0.24123
 C1199 C 0.95928 0.25076 0.25129
 C1200 C 0.96712 0.24026 0.26091
 H1201 H 1.01379 0.22057 0.27727
 H1202 H 0.98601 0.22163 0.27813
 H1203 H 1.01430 0.27892 0.22415
 H1204 H 0.98647 0.27965 0.22469
 H1205 H 1.05356 0.24849 0.24969
 H1206 H 0.94668 0.25090 0.25135
 C1207 C 0.46733 0.25710 0.73738
 C1208 C 0.45936 0.24696 0.74726
 C1209 C 0.46722 0.23680 0.75721
 C1210 C 0.48366 0.23652 0.75719
 C1211 C 0.49196 0.24681 0.74731
 C1212 C 0.48378 0.25708 0.73729
 C1213 C 0.49225 0.26671 0.72719
 C1214 C 0.50842 0.26662 0.72719
 C1215 C 0.51678 0.25688 0.73731
 C1216 C 0.50848 0.24670 0.74730
 C1217 C 0.49201 0.22593 0.76643
 C1218 C 0.50819 0.22581 0.76642
 C1219 C 0.51667 0.23629 0.75718
 C1220 C 0.53312 0.23635 0.75720
 C1221 C 0.54108 0.24646 0.74726
 C1222 C 0.53322 0.25673 0.73741
 H1223 H 0.48646 0.27431 0.71902
 H1224 H 0.51429 0.27415 0.71902
 H1225 H 0.48612 0.21745 0.77362
 H1226 H 0.51397 0.21726 0.77361
 H1227 H 0.44676 0.24725 0.74746
 H1228 H 0.55368 0.24662 0.74747
 C1229 C -0.03289 0.25747 0.76164
 C1230 C -0.04068 0.24685 0.75216
 C1231 C -0.03268 0.23683 0.74217
 C1232 C -0.01623 0.23714 0.74185
 C1233 C -0.00811 0.24782 0.75144
 C1234 C -0.01646 0.25803 0.76138
 C1235 C -0.00816 0.26832 0.77094
 C1236 C 0.00799 0.26881 0.77059
 C1237 C 0.01652 0.25875 0.76095
 C1238 C 0.00840 0.24823 0.75119
 C1239 C -0.00769 0.22680 0.73251
 C1240 C 0.00847 0.22725 0.73220
 C1241 C 0.01674 0.23804 0.74124
 C1242 C 0.03316 0.23869 0.74089
 C1243 C 0.04098 0.24909 0.75060
 C1244 C 0.03297 0.25902 0.76067
 H1245 H -0.01406 0.27608 0.77889
 H1246 H 0.01370 0.27721 0.77798
 H1247 H -0.01340 0.21810 0.72548
 H1248 H 0.01442 0.21890 0.72491
 H1249 H -0.05329 0.24671 0.75222
 H1250 H 0.05358 0.24942 0.75035
 C1251 C 0.53333 0.23854 0.24043
 C1252 C 0.54103 0.24892 0.25024
 C1253 C 0.53292 0.25877 0.26030
 C1254 C 0.51648 0.25854 0.26041
 C1255 C 0.50846 0.24806 0.25054
 C1256 C 0.51690 0.23787 0.24065
 C1257 C 0.50870 0.22708 0.23156
 C1258 C 0.49253 0.22665 0.23172
 C1259 C 0.48392 0.23707 0.24092
 C1260 C 0.49195 0.24773 0.25059
 C1261 C 0.50788 0.26861 0.26998
 C1262 C 0.49173 0.26824 0.27008
 C1263 C 0.48352 0.25801 0.26038
 C1264 C 0.46709 0.25758 0.26038
 C1265 C 0.45937 0.24699 0.25082
 C1266 C 0.46747 0.23686 0.24102
 H1267 H 0.51472 0.21870 0.22435
 H1268 H 0.48686 0.21794 0.22466
 H1269 H 0.51354 0.27694 0.27749
 H1270 H 0.48575 0.27604 0.27793
 H1271 H 0.55363 0.24930 0.25008
 H1272 H 0.44676 0.24692 0.25070
 C1273 C 0.96668 0.76147 0.74100
 C1274 C 0.95874 0.75203 0.75156
 C1275 C 0.96660 0.74184 0.76148
 C1276 C 0.98303 0.74126 0.76116
 C1277 C 0.99130 0.75080 0.75053
 C1278 C 0.98310 0.76094 0.74040
 C1279 C 0.99156 0.77043 0.73015
 C1280 C 1.00770 0.76978 0.72960
 C1281 C 1.01608 0.75991 0.73957
 C1282 C 1.00780 0.75026 0.75010
 C1283 C 0.99141 0.73172 0.77144
 C1284 C 1.00757 0.73118 0.77099
 C1285 C 1.01599 0.74017 0.76027
 C1286 C 1.03241 0.73965 0.75969
 C1287 C 1.04037 0.74915 0.74919
 C1288 C 1.03251 0.75932 0.73925
 H1289 H 0.98579 0.77854 0.72247
 H1290 H 1.01353 0.77712 0.72123
 H1291 H 0.98558 0.72470 0.78007
 H1292 H 1.01339 0.72373 0.77927
 H1293 H 0.94613 0.75227 0.75173
 H1294 H 1.05297 0.74875 0.74890
 C1295 C 0.46647 0.75836 0.23819
 C1296 C 0.45846 0.74849 0.24831
 C1297 C 0.46626 0.73879 0.25874
 C1298 C 0.48270 0.73897 0.25923
 C1299 C 0.49105 0.74873 0.24886
 C1300 C 0.48292 0.75843 0.23827
 C1301 C 0.49145 0.76767 0.22784
 C1302 C 0.50761 0.76770 0.22804
 C1303 C 0.51591 0.75854 0.23871
 C1304 C 0.50756 0.74880 0.24910
 C1305 C 0.49099 0.72992 0.26999
 C1306 C 0.50716 0.73003 0.27027
 C1307 C 0.51569 0.73915 0.25974
 C1308 C 0.53214 0.73914 0.25975
 C1309 C 0.54015 0.74884 0.24947
 C1310 C 0.53235 0.75858 0.23907
 H1311 H 0.48571 0.77487 0.21928
 H1312 H 0.51353 0.77490 0.21961
 H1313 H 0.48505 0.72273 0.27843
 H1314 H 0.51289 0.72296 0.27893
 H1315 H 0.44585 0.74841 0.24811
 H1316 H 0.55276 0.74885 0.24958
 C1317 C -0.03237 0.73719 0.24138
 C1318 C -0.04031 0.74723 0.25141
 C1319 C -0.03243 0.75768 0.26101
 C1320 C -0.01600 0.75811 0.26074
 C1321 C -0.00773 0.74791 0.25071
 C1322 C -0.01593 0.73735 0.24106
 C1323 C -0.00747 0.72699 0.23166
 C1324 C 0.00870 0.72737 0.23128
 C1325 C 0.01705 0.73806 0.24035
 C1326 C 0.00878 0.74820 0.25043
 C1327 C -0.00761 0.76824 0.27039
 C1328 C 0.00854 0.76857 0.27006
 C1329 C 0.01698 0.75856 0.26028
 C1330 C 0.03342 0.75873 0.25996
 C1331 C 0.04135 0.74892 0.24972
 C1332 C 0.03347 0.73865 0.23993
 H1333 H -0.01326 0.71836 0.22461
 H1334 H 0.01459 0.71903 0.22392
 H1335 H -0.01345 0.77599 0.27839
 H1336 H 0.01433 0.77682 0.27755
 H1337 H -0.05292 0.74721 0.25146
 H1338 H 0.05396 0.74920 0.24944
 C1339 C 0.46706 0.75808 0.76162
 C1340 C 0.45928 0.74746 0.75215
 C1341 C 0.46730 0.73746 0.74218
 C1342 C 0.48374 0.73767 0.74196
 C1343 C 0.49185 0.74838 0.75152
 C1344 C 0.48350 0.75868 0.76135
 C1345 C 0.49179 0.76911 0.77077
 C1346 C 0.50796 0.76951 0.77050
 C1347 C 0.51649 0.75929 0.76101
 C1348 C 0.50836 0.74872 0.75131
 C1349 C 0.49226 0.72722 0.73273
 C1350 C 0.50842 0.72761 0.73246
 C1351 C 0.51670 0.73844 0.74144
 C1352 C 0.53312 0.73903 0.74111
 C1353 C 0.54094 0.74945 0.75078
 C1354 C 0.53295 0.75947 0.76078
 H1355 H 0.48585 0.77705 0.77851
 H1356 H 0.51369 0.77798 0.77779
 H1357 H 0.48653 0.71848 0.72575
 H1358 H 0.51434 0.71918 0.72525
 H1359 H 0.44667 0.74733 0.75217
 H1360 H 0.55354 0.74971 0.75056
 C1361 C 0.42475 0.29654 0.29433
 C1362 C 0.41955 0.31112 0.28899
 C1363 C 0.40758 0.31879 0.29682
 C1364 C 0.40068 0.31201 0.30994
 C1365 C 0.40632 0.29748 0.31496
 N1366 N 0.41792 0.29021 0.30709
 C1367 C 0.43664 0.28725 0.28601
 N1368 N 0.43717 0.27158 0.28858
 C1369 C 0.44717 0.26203 0.28094
 C1370 C 0.45740 0.26815 0.26990
 C1371 C 0.45735 0.28427 0.26721
 C1372 C 0.44710 0.29389 0.27534
 H1373 H 0.40364 0.32992 0.29240
 H1374 H 0.40141 0.29168 0.32493
 H1375 H 0.44694 0.24962 0.28328
 H1376 H 0.46507 0.28932 0.25867
 H1377 H 0.42424 0.31642 0.27864
 H1378 H 0.44742 0.30631 0.27321
 C1379 C 0.42407 0.79671 0.79504
 C1380 C 0.41780 0.81038 0.78864
 C1381 C 0.40603 0.81832 0.79647
 C1382 C 0.40028 0.81271 0.81069
 C1383 C 0.40697 0.79895 0.81667
 N1384 N 0.41839 0.79140 0.80877
 C1385 C 0.43610 0.78744 0.78693
 N1386 N 0.43715 0.77188 0.78997
 C1387 C 0.44740 0.76244 0.78248
 C1388 C 0.45738 0.76860 0.77120
 C1389 C 0.45678 0.78461 0.76808
 C1390 C 0.44624 0.79410 0.77599
 H1391 H 0.40143 0.82876 0.79117
 H1392 H 0.40305 0.79393 0.82746
 H1393 H 0.44753 0.75008 0.78507
 H1394 H 0.46423 0.78968 0.75931
 H1395 H 0.42156 0.81474 0.77750
 H1396 H 0.44606 0.80646 0.77350
 C1397 C -0.07570 0.29599 0.79547
 C1398 C -0.08075 0.31065 0.79018
 C1399 C -0.09303 0.31814 0.79768
 C1400 C -0.10040 0.31112 0.81042
 C1401 C -0.09488 0.29655 0.81544
 N1402 N -0.08296 0.28945 0.80789
 C1403 C -0.06355 0.28685 0.78736
 N1404 N -0.06299 0.27116 0.78980
 C1405 C -0.05287 0.26171 0.78220
 C1406 C -0.04253 0.26795 0.77132
 C1407 C -0.04259 0.28410 0.76880
 C1408 C -0.05296 0.29362 0.77690
 H1409 H -0.09678 0.32936 0.79335
 H1410 H -0.10018 0.29060 0.82513
 H1411 H -0.05313 0.24927 0.78439
 H1412 H -0.03480 0.28926 0.76037
 H1413 H -0.07571 0.31616 0.78011
 H1414 H -0.05265 0.30605 0.77486
 C1415 C -0.07491 0.79603 0.29553
 C1416 C -0.07999 0.81069 0.29029
 C1417 C -0.09220 0.81820 0.29788
 C1418 C -0.09949 0.81118 0.31065
 C1419 C -0.09392 0.79662 0.31566
 N1420 N -0.08206 0.78949 0.30801
 C1421 C -0.06283 0.78689 0.28727
 N1422 N -0.06227 0.77118 0.28957
 C1423 C -0.05224 0.76178 0.28179
 C1424 C -0.04199 0.76810 0.27085
 C1425 C -0.04205 0.78426 0.26848
 C1426 C -0.05232 0.79373 0.27677
 H1427 H -0.09598 0.82943 0.29358
 H1428 H -0.09918 0.79067 0.32538
 H1429 H -0.05248 0.74932 0.28387
 H1430 H -0.03434 0.78949 0.26002
 H1431 H -0.07503 0.81620 0.28017
 H1432 H -0.05200 0.80618 0.27484
 C1433 C 0.57450 0.70197 0.29566
 C1434 C 0.57890 0.68673 0.29151
 C1435 C 0.59112 0.67943 0.29928
 C1436 C 0.59909 0.68721 0.31116
 C1437 C 0.59418 0.70233 0.31510
 N1438 N 0.58230 0.70923 0.30730
 C1439 C 0.56244 0.71086 0.28710
 N1440 N 0.56244 0.72670 0.28827
 C1441 C 0.55242 0.73585 0.28019
 C1442 C 0.54159 0.72912 0.27012
 C1443 C 0.54108 0.71283 0.26894
 C1444 C 0.55138 0.70364 0.27750
 H1445 H 0.59436 0.66774 0.29586
 H1446 H 0.59994 0.70886 0.32412
 H1447 H 0.55315 0.74841 0.28130
 H1448 H 0.53293 0.70727 0.26115
 H1449 H 0.57339 0.68059 0.28207
 H1450 H 0.55063 0.69111 0.27647
 C1451 C 0.57563 0.20237 0.79602
 C1452 C 0.57987 0.20732 0.81093
 C1453 C 0.59218 0.20000 0.81858
 C1454 C 0.60039 0.18776 0.81146
 C1455 C 0.59558 0.18299 0.79667
 N1456 N 0.58364 0.19038 0.78942
 C1457 C 0.56352 0.21042 0.78672
 N1458 N 0.56376 0.20861 0.77105
 C1459 C 0.55375 0.21623 0.76153
 C1460 C 0.54263 0.22646 0.76766
 C1461 C 0.54185 0.22829 0.78377
 C1462 C 0.55217 0.22020 0.79336
 H1463 H 0.59535 0.20414 0.82996
 H1464 H 0.60144 0.17362 0.79066
 H1465 H 0.55470 0.21461 0.74913
 H1466 H 0.53349 0.23623 0.78887
 H1467 H 0.57419 0.21705 0.81654
 H1468 H 0.55125 0.22176 0.80574
 C1469 C 1.07423 0.70209 0.79575
 C1470 C 1.07932 0.68729 0.79092
 C1471 C 1.09145 0.67994 0.79879
 C1472 C 1.09860 0.68724 0.81146
 C1473 C 1.09296 0.70190 0.81609
 N1474 N 1.08123 0.70888 0.80815
 C1475 C 1.06235 0.71109 0.78709
 N1476 N 1.06228 0.72692 0.78849
 C1477 C 1.05244 0.73615 0.78029
 C1478 C 1.04187 0.72951 0.76990
 C1479 C 1.04142 0.71325 0.76847
 C1480 C 1.05155 0.70398 0.77713
 H1481 H 1.09533 0.66863 0.79478
 H1482 H 1.09809 0.70806 0.82571
 H1483 H 1.05307 0.74869 0.78163
 H1484 H 1.03343 0.70780 0.76045
 H1485 H 1.07446 0.68161 0.78087
 H1486 H 1.05091 0.69145 0.77592
 C1487 C 1.07542 0.20407 0.29809
 C1488 C 1.07956 0.20844 0.31321
 C1489 C 1.09173 0.20076 0.32069
 C1490 C 1.09994 0.18876 0.31319
 C1491 C 1.09532 0.18464 0.29815
 N1492 N 1.08347 0.19234 0.29110
 C1493 C 1.06335 0.21240 0.28902
 N1494 N 1.06329 0.21057 0.27336
 C1495 C 1.05326 0.21834 0.26399
 C1496 C 1.04247 0.22882 0.27030
 C1497 C 1.04202 0.23071 0.28641
 C1498 C 1.05231 0.22242 0.29583
 H1499 H 1.09479 0.20443 0.33226
 H1500 H 1.10124 0.17554 0.29182
 H1501 H 1.05394 0.21665 0.25159
 H1502 H 1.03392 0.23885 0.29163
 H1503 H 1.07388 0.21796 0.31916
 H1504 H 1.05159 0.22401 0.30822
 C1505 C 0.57556 0.29578 0.70355
 C1506 C 0.58028 0.31055 0.70879
 C1507 C 0.59240 0.31827 0.70127
 C1508 C 0.59995 0.31136 0.68858
 C1509 C 0.59473 0.29669 0.68359
 N1510 N 0.58297 0.28936 0.69115
 C1511 C 0.56358 0.28644 0.71169
 N1512 N 0.56350 0.27070 0.70954
 C1513 C 0.55352 0.26113 0.71716
 C1514 C 0.54280 0.26729 0.72774
 C1515 C 0.54238 0.28347 0.72995
 C1516 C 0.55264 0.29311 0.72185
 H1517 H 0.59592 0.32958 0.70554
 H1518 H 0.60018 0.29081 0.67393
 H1519 H 0.55415 0.24867 0.71521
 H1520 H 0.53430 0.28858 0.73814
 H1521 H 0.57510 0.31597 0.71884
 H1522 H 0.55196 0.30557 0.72365
 C1523 C 0.57460 0.79652 0.20392
 C1524 C 0.57924 0.81144 0.20875
 C1525 C 0.59146 0.81893 0.20117
 C1526 C 0.59917 0.81164 0.18879
 C1527 C 0.59397 0.79685 0.18412
 N1528 N 0.58212 0.78974 0.19178
 C1529 C 0.56264 0.78740 0.21231
 N1530 N 0.56282 0.77157 0.21092
 C1531 C 0.55289 0.76223 0.21890
 C1532 C 0.54195 0.76876 0.22904
 C1533 C 0.54128 0.78502 0.23046
 C1534 C 0.55149 0.79440 0.22202
 H1535 H 0.59494 0.83035 0.20517
 H1536 H 0.59951 0.79072 0.17469
 H1537 H 0.55373 0.74970 0.21758
 H1538 H 0.53303 0.79041 0.23829
 H1539 H 0.57395 0.81715 0.21860
 H1540 H 0.55063 0.80692 0.22320
 C1541 C 1.07536 0.29436 0.20218
 C1542 C 1.07946 0.29033 0.18693
 C1543 C 1.09155 0.29827 0.17953
 C1544 C 1.09966 0.31018 0.18722
 C1545 C 1.09503 0.31396 0.20236
 N1546 N 1.08330 0.30602 0.20934
 C1547 C 1.06345 0.28575 0.21121
 N1548 N 1.06359 0.28722 0.22692
 C1549 C 1.05365 0.27930 0.23625
 C1550 C 1.04272 0.26909 0.22987
 C1551 C 1.04206 0.26753 0.21374
 C1552 C 1.05232 0.27593 0.20434
 H1553 H 1.09462 0.29488 0.16787
 H1554 H 1.10088 0.32297 0.20886
 H1555 H 1.05447 0.28074 0.24868
 H1556 H 1.03381 0.25962 0.20848
 H1557 H 1.07383 0.28090 0.18085
 H1558 H 1.05146 0.27463 0.19193
 C1559 C 1.07514 0.79686 0.70421
 C1560 C 1.08046 0.81134 0.70963
 C1561 C 1.09275 0.81873 0.70209
 C1562 C 1.09980 0.81182 0.68913
 C1563 C 1.09400 0.79745 0.68393
 N1564 N 1.08211 0.79038 0.69158
 C1565 C 1.06301 0.78786 0.71248
 N1566 N 1.06268 0.77208 0.71068
 C1567 C 1.05260 0.76285 0.71859
 C1568 C 1.04210 0.76944 0.72914
 C1569 C 1.04194 0.78566 0.73097
 C1570 C 1.05224 0.79494 0.72255
 H1571 H 1.09678 0.82979 0.70655
 H1572 H 1.09913 0.79160 0.67409
 H1573 H 1.05304 0.75034 0.71694
 H1574 H 1.03404 0.79109 0.73913
 H1575 H 1.07565 0.81673 0.71988
 H1576 H 1.05177 0.80745 0.72403
 C1577 C 0.42560 0.70289 0.70336
 C1578 C 0.42137 0.70772 0.68839
 C1579 C 0.40937 0.70006 0.68066
 C1580 C 0.40151 0.68760 0.68775
 C1581 C 0.40625 0.68302 0.70262
 N1582 N 0.41789 0.69072 0.70995
 C1583 C 0.43742 0.71118 0.71269
 N1584 N 0.43721 0.70927 0.72835
 C1585 C 0.44704 0.71706 0.73789
 C1586 C 0.45790 0.72753 0.73176
 C1587 C 0.45861 0.72949 0.71567
 C1588 C 0.44849 0.72125 0.70608
 H1589 H 0.40619 0.70406 0.66922
 H1590 H 0.40053 0.67359 0.70866
 H1591 H 0.44616 0.71532 0.75028
 H1592 H 0.46677 0.73763 0.71059
 H1593 H 0.42681 0.71757 0.68278
 H1594 H 0.44935 0.72293 0.69370
 C1595 C 0.42523 0.20221 0.20287
 C1596 C 0.42084 0.20702 0.18794
 C1597 C 0.40852 0.19960 0.18049
 C1598 C 0.40044 0.18742 0.18782
 C1599 C 0.40537 0.18282 0.20264
 N1600 N 0.41734 0.19029 0.20969
 C1601 C 0.43735 0.21037 0.21198
 N1602 N 0.43738 0.20848 0.22764
 C1603 C 0.44737 0.21626 0.23703
 C1604 C 0.45813 0.22675 0.23073
 C1605 C 0.45864 0.22863 0.21463
 C1606 C 0.44838 0.22038 0.20519
 H1607 H 0.40524 0.20363 0.16909
 H1608 H 0.39960 0.17352 0.20882
 H1609 H 0.44665 0.21458 0.24943
 H1610 H 0.46672 0.23678 0.20942
 H1611 H 0.42641 0.21670 0.18217
 H1612 H 0.44908 0.22203 0.19280
 C1613 C -0.07512 0.70285 0.20344
 C1614 C -0.07943 0.70754 0.18845
 C1615 C -0.09178 0.70012 0.18103
 C1616 C -0.09997 0.68808 0.18845
 C1617 C -0.09516 0.68363 0.20335
 N1618 N -0.08315 0.69108 0.21036
 C1619 C -0.06291 0.71097 0.21248
 N1620 N -0.06280 0.70909 0.22814
 C1621 C -0.05269 0.71677 0.23747
 C1622 C -0.04189 0.72719 0.23113
 C1623 C -0.04146 0.72909 0.21502
 C1624 C -0.05183 0.72090 0.20563
 H1625 H -0.09497 0.70403 0.16957
 H1626 H -0.10105 0.67447 0.20962
 H1627 H -0.05334 0.71507 0.24988
 H1628 H -0.03335 0.73718 0.20978
 H1629 H -0.07376 0.71710 0.18258
 H1630 H -0.05115 0.72252 0.19324
 C1631 C -0.07526 0.20245 0.70399
 C1632 C -0.07913 0.20685 0.68880
 C1633 C -0.09143 0.19947 0.68126
 C1634 C -0.10003 0.18777 0.68876
 C1635 C -0.09565 0.18359 0.70386
 N1636 N -0.08366 0.19098 0.71099
 C1637 C -0.06308 0.21054 0.71312
 N1638 N -0.06316 0.20879 0.72880
 C1639 C -0.05309 0.21647 0.73819
 C1640 C -0.04214 0.22676 0.73189
 C1641 C -0.04154 0.22854 0.71578
 C1642 C -0.05185 0.22034 0.70634
 H1643 H -0.09426 0.20315 0.66962
 H1644 H -0.10188 0.17470 0.71020
 H1645 H -0.05390 0.21486 0.75060
 H1646 H -0.03332 0.23654 0.71056
 H1647 H -0.07316 0.21615 0.68282
 H1648 H -0.05101 0.22187 0.69395
 C1649 C 0.29688 0.42500 0.29597
 C1650 C 0.31181 0.42047 0.29112
 C1651 C 0.31949 0.40842 0.29884
 C1652 C 0.31240 0.40078 0.31138
 C1653 C 0.29756 0.40581 0.31598
 N1654 N 0.29028 0.41750 0.30821
 C1655 C 0.28758 0.43690 0.28763
 N1656 N 0.27190 0.43705 0.28980
 C1657 C 0.26236 0.44698 0.28206
 C1658 C 0.26850 0.45756 0.27132
 C1659 C 0.28461 0.45789 0.26905
 C1660 C 0.29422 0.44771 0.27728
 H1661 H 0.33090 0.40503 0.29480
 H1662 H 0.29153 0.40029 0.32550
 H1663 H 0.24995 0.44642 0.28406
 H1664 H 0.28969 0.46586 0.26072
 H1665 H 0.31740 0.42572 0.28119
 H1666 H 0.30662 0.44835 0.27544
 C1667 C 0.29673 -0.07562 0.79557
 C1668 C 0.31115 -0.08085 0.79001
 C1669 C 0.31884 -0.09296 0.79762
 C1670 C 0.31222 -0.10010 0.81076
 C1671 C 0.29779 -0.09433 0.81599
 N1672 N 0.29052 -0.08257 0.80831
 C1673 C 0.28759 -0.06345 0.78748
 N1674 N 0.27188 -0.06326 0.78942
 C1675 C 0.26255 -0.05301 0.78182
 C1676 C 0.26897 -0.04213 0.77153
 C1677 C 0.28512 -0.04181 0.76959
 C1678 C 0.29450 -0.05236 0.77762
 H1679 H 0.32984 -0.09679 0.79294
 H1680 H 0.29203 -0.09925 0.82597
 H1681 H 0.25010 -0.05360 0.78351
 H1682 H 0.29039 -0.03364 0.76159
 H1683 H 0.31630 -0.07606 0.77962
 H1684 H 0.30695 -0.05184 0.77602
 C1685 C 0.79767 0.42480 0.79457
 C1686 C 0.81120 0.41819 0.78831
 C1687 C 0.81838 0.40576 0.79588
 C1688 C 0.81216 0.39973 0.80974
 C1689 C 0.79862 0.40684 0.81565
 N1690 N 0.79181 0.41887 0.80797
 C1691 C 0.78889 0.43718 0.78645
 N1692 N 0.77336 0.43845 0.78919
 C1693 C 0.76422 0.44874 0.78144
 C1694 C 0.77066 0.45848 0.77011
 C1695 C 0.78669 0.45780 0.76739
 C1696 C 0.79588 0.44724 0.77561
 H1697 H 0.82866 0.40083 0.79061
 H1698 H 0.79323 0.40282 0.82622
 H1699 H 0.75186 0.44901 0.78378
 H1700 H 0.79197 0.46516 0.75866
 H1701 H 0.81599 0.42214 0.77741
 H1702 H 0.80824 0.44691 0.77335
 C1703 C 0.79838 -0.07553 0.29453
 C1704 C 0.81190 -0.08215 0.28824
 C1705 C 0.81919 -0.09448 0.29590
 C1706 C 0.81312 -0.10036 0.30989
 C1707 C 0.79969 -0.09313 0.31590
 N1708 N 0.79272 -0.08125 0.30810
 C1709 C 0.78941 -0.06340 0.28622
 N1710 N 0.77382 -0.06241 0.28879
 C1711 C 0.76457 -0.05232 0.28090
 C1712 C 0.77095 -0.04248 0.26961
 C1713 C 0.78701 -0.04294 0.26701
 C1714 C 0.79631 -0.05329 0.27538
 H1715 H 0.82946 -0.09942 0.29062
 H1716 H 0.79442 -0.09703 0.32658
 H1717 H 0.75220 -0.05222 0.28316
 H1718 H 0.79225 -0.03551 0.25831
 H1719 H 0.81656 -0.07831 0.27725
 H1720 H 0.80871 -0.05340 0.27327
 C1721 C 0.29790 0.57533 0.70549
 C1722 C 0.31306 0.57976 0.70960
 C1723 C 0.32042 0.59175 0.70151
 C1724 C 0.31281 0.59948 0.68935
 C1725 C 0.29774 0.59458 0.68548
 N1726 N 0.29077 0.58291 0.69358
 C1727 C 0.28897 0.56339 0.71421
 N1728 N 0.27324 0.56311 0.71256
 C1729 C 0.26403 0.55315 0.72065
 C1730 C 0.27060 0.54265 0.73124
 C1731 C 0.28677 0.54246 0.73298
 C1732 C 0.29603 0.55267 0.72439
 H1733 H 0.33205 0.59502 0.70495
 H1734 H 0.29130 0.60018 0.67629
 H1735 H 0.25157 0.55360 0.71903
 H1736 H 0.29218 0.53457 0.74117
 H1737 H 0.31914 0.57445 0.71919
 H1738 H 0.30848 0.55212 0.72585
 C1739 C 0.29630 1.07514 0.20437
 C1740 C 0.31087 1.08029 0.20961
 C1741 C 0.31836 1.09248 0.20192
 C1742 C 0.31142 1.09964 0.18904
 C1743 C 0.29695 1.09400 0.18405
 N1744 N 0.28984 1.08219 0.19179
 C1745 C 0.28721 1.06309 0.21269
 N1746 N 0.27152 1.06278 0.21067
 C1747 C 0.26217 1.05272 0.21847
 C1748 C 0.26855 1.04216 0.22910
 C1749 C 0.28468 1.04196 0.23116
 C1750 C 0.29408 1.05231 0.22290
 H1751 H 0.32951 1.09634 0.20619
 H1752 H 0.29107 1.09915 0.17425
 H1753 H 0.24973 1.05320 0.21666
 H1754 H 0.28994 1.03402 0.23941
 H1755 H 0.31628 1.07541 0.21980
 H1756 H 0.30651 1.05184 0.22461
 C1757 C 0.79644 0.57459 0.20324
 C1758 C 0.81091 0.57978 0.20870
 C1759 C 0.81844 0.59205 0.20119
 C1760 C 0.81165 0.59926 0.18826
 C1761 C 0.79730 0.59354 0.18301
 N1762 N 0.79013 0.58166 0.19061
 C1763 C 0.78723 0.56255 0.21146
 N1764 N 0.77154 0.56235 0.20940
 C1765 C 0.76211 0.55236 0.21719
 C1766 C 0.76838 0.54176 0.22784
 C1767 C 0.78451 0.54145 0.22995
 C1768 C 0.79400 0.55172 0.22169
 H1769 H 0.82950 0.59596 0.20567
 H1770 H 0.79154 0.59869 0.17314
 H1771 H 0.74968 0.55292 0.21534
 H1772 H 0.78969 0.53347 0.23819
 H1773 H 0.81620 0.57486 0.21895
 H1774 H 0.80643 0.55117 0.22343
 C1775 C 0.79510 1.07545 0.70257
 C1776 C 0.79105 1.07951 0.68733
 C1777 C 0.79884 1.09169 0.67991
 C1778 C 0.81063 1.09995 0.68757
 C1779 C 0.81450 1.09533 0.70268
 N1780 N 0.80669 1.08350 0.70970
 C1781 C 0.78656 1.06348 0.71162
 N1782 N 0.78792 1.06368 0.72733
 C1783 C 0.77996 1.05372 0.73665
 C1784 C 0.76985 1.04271 0.73024
 C1785 C 0.76842 1.04200 0.71410
 C1786 C 0.77684 1.05226 0.70473
 H1787 H 0.79541 1.09472 0.66825
 H1788 H 0.82347 1.10127 0.70913
 H1789 H 0.78130 1.05460 0.74908
 H1790 H 0.76057 1.03370 0.70881
 H1791 H 0.78168 1.07379 0.68127
 H1792 H 0.77562 1.05136 0.69231
 C1793 C 0.70379 0.57471 0.29647
 C1794 C 0.70891 0.57958 0.31113
 C1795 C 0.70127 0.59178 0.31866
 C1796 C 0.68856 0.59927 0.31167
 C1797 C 0.68369 0.59392 0.29710
 N1798 N 0.69136 0.58205 0.28997
 C1799 C 0.71207 0.56267 0.28730
 N1800 N 0.70968 0.56224 0.27171
 C1801 C 0.71741 0.55221 0.26227
 C1802 C 0.72838 0.54185 0.26841
 C1803 C 0.73086 0.54179 0.28443
 C1804 C 0.72262 0.55205 0.29395
 H1805 H 0.70547 0.59538 0.32990
 H1806 H 0.67401 0.59928 0.29118
 H1807 H 0.71526 0.55255 0.24993
 H1808 H 0.73936 0.53398 0.28951
 H1809 H 0.71898 0.57447 0.31663
 H1810 H 0.72461 0.55160 0.30629
 C1811 C 0.70426 1.07513 0.79820
 C1812 C 0.70893 1.07975 0.81307
 C1813 C 0.70124 1.09200 0.82047
 C1814 C 0.68887 1.09986 0.81316
 C1815 C 0.68437 1.09458 0.79839
 N1816 N 0.69215 1.08269 0.79140
 C1817 C 0.71273 1.06312 0.78913
 N1818 N 0.71091 1.06300 0.77346
 C1819 C 0.71883 1.05303 0.76411
 C1820 C 0.72942 1.04238 0.77044
 C1821 C 0.73132 1.04200 0.78654
 C1822 C 0.72290 1.05224 0.79595
 H1823 H 0.70527 1.09537 0.83183
 H1824 H 0.67494 1.10000 0.79214
 H1825 H 0.71713 1.05366 0.75171
 H1826 H 0.73954 1.03400 0.79177
 H1827 H 0.71872 1.07441 0.81885
 H1828 H 0.72450 1.05159 0.80834
 C1829 C 0.20265 0.57533 0.79689
 C1830 C 0.18779 0.58006 0.79208
 C1831 C 0.18028 0.59223 0.79979
 C1832 C 0.18749 0.59979 0.81227
 C1833 C 0.20225 0.59454 0.81686
 N1834 N 0.20938 0.58274 0.80909
 C1835 C 0.21176 0.56335 0.78843
 N1836 N 0.22751 0.56334 0.78999
 C1837 C 0.23683 0.55340 0.78198
 C1838 C 0.23037 0.54267 0.77161
 C1839 C 0.21419 0.54216 0.77002
 C1840 C 0.20482 0.55237 0.77851
 H1841 H 0.16891 0.59580 0.79580
 H1842 H 0.20835 0.60003 0.82632
 H1843 H 0.24930 0.55409 0.78345
 H1844 H 0.20886 0.53406 0.76201
 H1845 H 0.18214 0.57489 0.78217
 H1846 H 0.19236 0.55163 0.77718
 C1847 C 0.20457 1.07570 0.29750
 C1848 C 0.20978 1.08064 0.31210
 C1849 C 0.20232 1.09303 0.31951
 C1850 C 0.18970 1.10064 0.31246
 C1851 C 0.18474 1.09518 0.29795
 N1852 N 0.19225 1.08315 0.29093
 C1853 C 0.21267 1.06343 0.28844
 N1854 N 0.21029 1.06292 0.27286
 C1855 C 0.21787 1.05272 0.26350
 C1856 C 0.22866 1.04221 0.26972
 C1857 C 0.23111 1.04220 0.28575
 C1858 C 0.22303 1.05268 0.29519
 H1859 H 0.20666 1.09673 0.33065
 H1860 H 0.17508 1.10056 0.29200
 H1861 H 0.21579 1.05307 0.25114
 H1862 H 0.23951 1.03432 0.29088
 H1863 H 0.21977 1.07544 0.31764
 H1864 H 0.22506 1.05234 0.30753
 C1865 C 0.70232 0.42550 0.70530
 C1866 C 0.68769 0.42035 0.71039
 C1867 C 0.68034 0.40812 0.70266
 C1868 C 0.68747 0.40095 0.68988
 C1869 C 0.70196 0.40666 0.68499
 N1870 N 0.70895 0.41848 0.69279
 C1871 C 0.71139 0.43743 0.71375
 N1872 N 0.72711 0.43754 0.71193
 C1873 C 0.73646 0.44747 0.71983
 C1874 C 0.73005 0.45811 0.73034
 C1875 C 0.71389 0.45853 0.73223
 C1876 C 0.70448 0.44829 0.72387
 H1877 H 0.66915 0.40422 0.70684
 H1878 H 0.70798 0.40155 0.67524
 H1879 H 0.74891 0.44687 0.71813
 H1880 H 0.70862 0.46659 0.74034
 H1881 H 0.68214 0.42525 0.72051
 H1882 H 0.69203 0.44890 0.72541
 C1883 C 0.70227 -0.07488 0.20505
 C1884 C 0.68783 -0.08022 0.21046
 C1885 C 0.68036 -0.09240 0.20277
 C1886 C 0.68720 -0.09935 0.18971
 C1887 C 0.70153 -0.09348 0.18454
 N1888 N 0.70863 -0.08170 0.19230
 C1889 C 0.71141 -0.06294 0.21341
 N1890 N 0.72710 -0.06272 0.21136
 C1891 C 0.73650 -0.05281 0.21923
 C1892 C 0.73018 -0.04232 0.22995
 C1893 C 0.71404 -0.04200 0.23204
 C1894 C 0.70458 -0.05221 0.22371
 H1895 H 0.66934 -0.09645 0.20724
 H1896 H 0.70734 -0.09842 0.17459
 H1897 H 0.74893 -0.05333 0.21737
 H1898 H 0.70884 -0.03407 0.24032
 H1899 H 0.68252 -0.07551 0.22080
 H1900 H 0.69215 -0.05169 0.22542
 C1901 C 0.20029 0.42491 0.20630
 C1902 C 0.18580 0.41930 0.21134
 C1903 C 0.17861 0.40720 0.20328
 C1904 C 0.18576 0.40058 0.19022
 C1905 C 0.20012 0.40669 0.18543
 N1906 N 0.20695 0.41840 0.19354
 C1907 C 0.20913 0.43686 0.21501
 N1908 N 0.22479 0.43766 0.21284
 C1909 C 0.23393 0.44764 0.22095
 C1910 C 0.22738 0.45758 0.23203
 C1911 C 0.21127 0.45727 0.23429
 C1912 C 0.20207 0.44702 0.22572
 H1913 H 0.16753 0.40295 0.20744
 H1914 H 0.20617 0.40195 0.17552
 H1915 H 0.24636 0.44758 0.21899
 H1916 H 0.20589 0.46476 0.24286
 H1917 H 0.18024 0.42375 0.22166
 H1918 H 0.18966 0.44708 0.22760
 C1919 C 0.20312 -0.07555 0.70532
 C1920 C 0.18806 -0.08016 0.70959
 C1921 C 0.18097 -0.09252 0.70190
 C1922 C 0.18880 -0.10049 0.69002
 C1923 C 0.20379 -0.09542 0.68599
 N1924 N 0.21048 -0.08335 0.69370
 C1925 C 0.21172 -0.06326 0.71377
 N1926 N 0.22749 -0.06295 0.71253
 C1927 C 0.23639 -0.05274 0.72061
 C1928 C 0.22945 -0.04207 0.73078
 C1929 C 0.21323 -0.04190 0.73206
 C1930 C 0.20430 -0.05230 0.72343
 H1931 H 0.16942 -0.09590 0.70548
 H1932 H 0.21037 -0.10116 0.67697
 H1933 H 0.24890 -0.05322 0.71941
 H1934 H 0.20754 -0.03392 0.73997
 H1935 H 0.18188 -0.07473 0.71905
 H1936 H 0.19181 -0.05176 0.72449
 C1937 C 0.29943 0.29590 0.42487
 C1938 C 0.31449 0.29151 0.42030
 C1939 C 0.32181 0.29947 0.40823
 C1940 C 0.31421 0.31175 0.40058
 C1941 C 0.29927 0.31592 0.40565
 N1942 N 0.29235 0.30794 0.41738
 C1943 C 0.29050 0.28724 0.43680
 N1944 N 0.27477 0.28903 0.43716
 C1945 C 0.26556 0.28095 0.44710
 C1946 C 0.27210 0.27025 0.45748
 C1947 C 0.28827 0.26838 0.45761
 C1948 C 0.29753 0.27695 0.44740
 H1949 H 0.33335 0.29583 0.40484
 H1950 H 0.29287 0.32524 0.40013
 H1951 H 0.25309 0.28263 0.44668
 H1952 H 0.29366 0.26010 0.46541
 H1953 H 0.32050 0.28178 0.42553
 H1954 H 0.30998 0.27536 0.44786
 C1955 C 0.29947 0.79601 -0.07562
 C1956 C 0.31415 0.79098 -0.08074
 C1957 C 0.32160 0.79898 -0.09272
 C1958 C 0.31451 0.81196 -0.09972
 C1959 C 0.29998 0.81678 -0.09401
 N1960 N 0.29292 0.80874 -0.08242
 C1961 C 0.29030 0.78734 -0.06389
 N1962 N 0.27464 0.78959 -0.06348
 C1963 C 0.26519 0.78159 -0.05370
 C1964 C 0.27142 0.77052 -0.04352
 C1965 C 0.28753 0.76815 -0.04344
 C1966 C 0.29704 0.77663 -0.05351
 H1967 H 0.33276 0.79473 -0.09665
 H1968 H 0.29406 0.82678 -0.09884
 H1969 H 0.25278 0.78367 -0.05405
 H1970 H 0.29267 0.75960 -0.03576
 H1971 H 0.31968 0.78070 -0.07602
 H1972 H 0.30945 0.77470 -0.05311
 C1973 C 0.79684 0.29830 -0.07510
 C1974 C 0.81193 0.29364 -0.07933
 C1975 C 0.81962 0.30138 -0.09131
 C1976 C 0.81236 0.31370 -0.09924
 C1977 C 0.79739 0.31815 -0.09448
 N1978 N 0.79010 0.31039 -0.08282
 C1979 C 0.78755 0.28987 -0.06328
 N1980 N 0.77183 0.29178 -0.06330
 C1981 C 0.76234 0.28393 -0.05343
 C1982 C 0.76857 0.27335 -0.04274
 C1983 C 0.78472 0.27136 -0.04225
 C1984 C 0.79427 0.27969 -0.05238
 H1985 H 0.83117 0.29752 -0.09444
 H1986 H 0.79125 0.32752 -0.10020
 H1987 H 0.74990 0.28569 -0.05414
 H1988 H 0.78989 0.26314 -0.03423
 H1989 H 0.81767 0.28386 -0.07389
 H1990 H 0.80669 0.27802 -0.05162
 C1991 C 0.79707 0.79769 0.42445
 C1992 C 0.81224 0.79312 0.42043
 C1993 C 0.82002 0.80087 0.40850
 C1994 C 0.81279 0.81312 0.40045
 C1995 C 0.79774 0.81750 0.40502
 N1996 N 0.79036 0.80972 0.41660
 C1997 C 0.78766 0.78930 0.43621
 N1998 N 0.77194 0.79111 0.43593
 C1999 C 0.76233 0.78335 0.44578
 C2000 C 0.76846 0.77301 0.45675
 C2001 C 0.78462 0.77112 0.45750
 C2002 C 0.79428 0.77933 0.44736
 H2003 H 0.83163 0.79707 0.40549
 H2004 H 0.79160 0.82680 0.39919
 H2005 H 0.74990 0.78502 0.44484
 H2006 H 0.78971 0.76308 0.46574
 H2007 H 0.81797 0.78340 0.42599
 H2008 H 0.80669 0.77774 0.44830
 C2009 C 0.70449 0.29909 0.57538
 C2010 C 0.70913 0.31403 0.58020
 C2011 C 0.70103 0.32151 0.59209
 C2012 C 0.68839 0.31418 0.59935
 C2013 C 0.68404 0.29931 0.59408
 N2014 N 0.69213 0.29225 0.58251
 C2015 C 0.71312 0.29008 0.56347
 N2016 N 0.71093 0.27436 0.56282
 C2017 C 0.71885 0.26507 0.55279
 C2018 C 0.72978 0.27153 0.54262
 C2019 C 0.73207 0.28770 0.54281
 C2020 C 0.72368 0.29704 0.55310
 H2021 H 0.70487 0.33295 0.59565
 H2022 H 0.67445 0.29310 0.59930
 H2023 H 0.71687 0.25260 0.55299
 H2024 H 0.74056 0.29302 0.53520
 H2025 H 0.71913 0.31982 0.57529
 H2026 H 0.72559 0.30949 0.55288
 C2027 C 0.70406 0.79792 1.07591
 C2028 C 0.70914 0.81259 1.08105
 C2029 C 0.70109 0.82018 1.09290
 C2030 C 0.68804 0.81322 1.09981
 C2031 C 0.68324 0.79863 1.09419
 N2032 N 0.69130 0.79144 1.08267
 C2033 C 0.71264 0.78878 1.06407
 N2034 N 0.71030 0.77308 1.06345
 C2035 C 0.71815 0.76369 1.05346
 C2036 C 0.72915 0.77003 1.04327
 C2037 C 0.73161 0.78617 1.04346
 C2038 C 0.72330 0.79562 1.05373
 H2039 H 0.70530 0.83141 1.09673
 H2040 H 0.67329 0.79272 1.09908
 H2041 H 0.71605 0.75125 1.05368
 H2042 H 0.74016 0.79140 1.03584
 H2043 H 0.71946 0.81805 1.07643
 H2044 H 0.72531 0.80805 1.05351
 C2045 C 0.20535 0.29958 1.07499
 C2046 C 0.20948 0.31478 1.07948
 C2047 C 0.20117 0.32224 1.09124
 C2048 C 0.18877 0.31465 1.09866
 C2049 C 0.18488 0.29956 1.09368
 N2050 N 0.19320 0.29251 1.08226
 C2051 C 0.21426 0.29052 1.06332
 N2052 N 0.21250 0.27473 1.06303
 C2053 C 0.22067 0.26542 1.05323
 C2054 C 0.23142 0.27192 1.04290
 C2055 C 0.23329 0.28815 1.04273
 C2056 C 0.22466 0.29751 1.05281
 H2057 H 0.20462 0.33388 1.09458
 H2058 H 0.17551 0.29314 1.09904
 H2059 H 0.21898 0.25291 1.05369
 H2060 H 0.24161 0.29352 1.03497
 H2061 H 0.21927 0.32079 1.07440
 H2062 H 0.22623 0.31000 1.05230
 C2063 C 0.20217 0.79573 0.57620
 C2064 C 0.18720 0.79117 0.58089
 C2065 C 0.17985 0.79903 0.59303
 C2066 C 0.18731 0.81143 0.60061
 C2067 C 0.20217 0.81575 0.59539
 N2068 N 0.20912 0.80785 0.58362
 C2069 C 0.21115 0.78717 0.56421
 N2070 N 0.22690 0.78871 0.56407
 C2071 C 0.23614 0.78075 0.55404
 C2072 C 0.22960 0.77045 0.54330
 C2073 C 0.21340 0.76887 0.54291
 C2074 C 0.20411 0.77728 0.55326
 H2075 H 0.16849 0.79510 0.59668
 H2076 H 0.20840 0.82527 0.60071
 H2077 H 0.24861 0.78221 0.55466
 H2078 H 0.20800 0.76090 0.53482
 H2079 H 0.18137 0.78132 0.57571
 H2080 H 0.19165 0.77594 0.55265
 C2081 C 0.29720 0.70416 0.57565
 C2082 C 0.31237 0.70848 0.57982
 C2083 C 0.31991 0.70060 0.59180
 C2084 C 0.31243 0.68846 0.59979
 C2085 C 0.29731 0.68442 0.59518
 N2086 N 0.29019 0.69231 0.58350
 C2087 C 0.28813 0.71270 0.56372
 N2088 N 0.27237 0.71123 0.56380
 C2089 C 0.26308 0.71923 0.55385
 C2090 C 0.26958 0.72953 0.54304
 C2091 C 0.28577 0.73105 0.54248
 C2092 C 0.29511 0.72254 0.55266
 H2093 H 0.33156 0.70417 0.59484
 H2094 H 0.29098 0.67523 0.60098
 H2095 H 0.25060 0.71782 0.55461
 H2096 H 0.29113 0.73903 0.53434
 H2097 H 0.31829 0.71811 0.57432
 H2098 H 0.30757 0.72380 0.55182
 C2099 C 0.29671 0.20246 1.07478
 C2100 C 0.29270 0.18699 1.07843
 C2101 C 0.30063 0.17917 1.09021
 C2102 C 0.31253 0.18666 1.09846
 C2103 C 0.31632 0.20203 1.09429
 N2104 N 0.30837 0.20942 1.08285
 C2105 C 0.28814 0.21187 1.06314
 N2106 N 0.28960 0.22769 1.06363
 C2107 C 0.28172 0.23731 1.05391
 C2108 C 0.27159 0.23111 1.04284
 C2109 C 0.27003 0.21488 1.04187
 C2110 C 0.27837 0.20520 1.05190
 H2111 H 0.29732 0.16731 1.09293
 H2112 H 0.32528 0.20838 1.10035
 H2113 H 0.28314 0.24981 1.05500
 H2114 H 0.26217 0.20974 1.03352
 H2115 H 0.28328 0.18103 1.07268
 H2116 H 0.27706 0.19273 1.05078
 C2117 C 0.79715 0.70362 1.07518
 C2118 C 0.81223 0.70815 1.07943
 C2119 C 0.81998 0.70008 1.09115
 C2120 C 0.81277 0.68756 1.09879
 C2121 C 0.79775 0.68330 1.09407
 N2122 N 0.79042 0.69138 1.08266
 C2123 C 0.78788 0.71227 1.06353
 N2124 N 0.77214 0.71062 1.06371
 C2125 C 0.76269 0.71861 1.05392
 C2126 C 0.76900 0.72903 1.04312
 C2127 C 0.78517 0.73078 1.04249
 C2128 C 0.79467 0.72232 1.05255
 H2129 H 0.83154 0.70383 1.09431
 H2130 H 0.79162 0.67383 1.09962
 H2131 H 0.75023 0.71705 1.05476
 H2132 H 0.79039 0.73887 1.03438
 H2133 H 0.81793 0.71807 1.07420
 H2134 H 0.80711 0.72374 1.05167
 C2135 C 0.79789 0.20536 0.57498
 C2136 C 0.81242 0.21051 0.58029
 C2137 C 0.81994 0.20236 0.59210
 C2138 C 0.81307 0.18912 0.59878
 C2139 C 0.79862 0.18423 0.59298
 N2140 N 0.79148 0.19242 0.58152
 C2141 C 0.78880 0.21411 0.56327
 N2142 N 0.77314 0.21194 0.56274
 C2143 C 0.76382 0.22003 0.55290
 C2144 C 0.77020 0.23111 0.54281
 C2145 C 0.78631 0.23341 0.54291
 C2146 C 0.79568 0.22484 0.55300
 H2147 H 0.83104 0.20666 0.59608
 H2148 H 0.79279 0.17413 0.59769
 H2149 H 0.75140 0.21804 0.55314
 H2150 H 0.79156 0.24200 0.53534
 H2151 H 0.81780 0.22098 0.57584
 H2152 H 0.80809 0.22670 0.55270
 C2153 C 0.70394 0.70414 0.42373
 C2154 C 0.70894 0.68928 0.41900
 C2155 C 0.70110 0.68157 0.40713
 C2156 C 0.68833 0.68859 0.39978
 C2157 C 0.68361 0.70339 0.40496
 N2158 N 0.69147 0.71069 0.41651
 C2159 C 0.71228 0.71336 0.43566
 N2160 N 0.71000 0.72908 0.43608
 C2161 C 0.71769 0.73852 0.44611
 C2162 C 0.72846 0.73223 0.45655
 C2163 C 0.73085 0.71606 0.45659
 C2164 C 0.72269 0.70656 0.44628
 H2165 H 0.70523 0.67019 0.40364
 H2166 H 0.67388 0.70935 0.39969
 H2167 H 0.71566 0.75098 0.44572
 H2168 H 0.73922 0.71086 0.46440
 H2169 H 0.71903 0.68372 0.42400
 H2170 H 0.72466 0.69412 0.44669
 C2171 C 0.70400 0.20388 -0.07510
 C2172 C 0.70908 0.18903 -0.07979
 C2173 C 0.70115 0.18117 -0.09150
 C2174 C 0.68822 0.18803 -0.09873
 C2175 C 0.68343 0.20282 -0.09357
 N2176 N 0.69137 0.21027 -0.08217
 C2177 C 0.71245 0.21327 -0.06341
 N2178 N 0.71022 0.22900 -0.06322
 C2179 C 0.71798 0.23857 -0.05338
 C2180 C 0.72877 0.23239 -0.04289
 C2181 C 0.73114 0.21623 -0.04266
 C2182 C 0.72291 0.20660 -0.05277
 H2183 H 0.70536 0.16981 -0.09498
 H2184 H 0.67358 0.20866 -0.09873
 H2185 H 0.71596 0.25102 -0.05392
 H2186 H 0.73954 0.21111 -0.03482
 H2187 H 0.71931 0.18362 -0.07490
 H2188 H 0.72482 0.19416 -0.05219
 C2189 C 0.20189 0.70559 -0.07547
 C2190 C 0.18687 0.71015 -0.07998
 C2191 C 0.17922 0.70196 -0.09166
 C2192 C 0.18645 0.68927 -0.09901
 C2193 C 0.20137 0.68495 -0.09401
 N2194 N 0.20861 0.69315 -0.08265
 C2195 C 0.21111 0.71435 -0.06384
 N2196 N 0.22681 0.71228 -0.06361
 C2197 C 0.23624 0.72027 -0.05382
 C2198 C 0.22998 0.73115 -0.04345
 C2199 C 0.21385 0.73336 -0.04324
 C2200 C 0.20435 0.72490 -0.05331
 H2201 H 0.16772 0.70575 -0.09500
 H2202 H 0.20750 0.67530 -0.09928
 H2203 H 0.24866 0.71833 -0.05433
 H2204 H 0.20865 0.74180 -0.03546
 H2205 H 0.18115 0.72019 -0.07498
 H2206 H 0.19194 0.72672 -0.05276
 C2207 C 0.20317 0.20433 0.42583
 C2208 C 0.18788 0.20856 0.42194
 C2209 C 0.18005 0.20038 0.41036
 C2210 C 0.18736 0.18804 0.40252
 C2211 C 0.20257 0.18406 0.40691
 N2212 N 0.20997 0.19223 0.41817
 C2213 C 0.21255 0.21309 0.43730
 N2214 N 0.22830 0.21156 0.43685
 C2215 C 0.23785 0.21957 0.44649
 C2216 C 0.23163 0.22989 0.45744
 C2217 C 0.21546 0.23155 0.45834
 C2218 C 0.20586 0.22309 0.44839
 H2219 H 0.16833 0.20390 0.40748
 H2220 H 0.20878 0.17472 0.40122
 H2221 H 0.25030 0.21807 0.44546
 H2222 H 0.21032 0.23954 0.46659
 H2223 H 0.18207 0.21832 0.42735
 H2224 H 0.19343 0.22445 0.44947
 C2225 C 0.29626 0.42480 0.70398
 C2226 C 0.29123 0.41998 0.68929
 C2227 C 0.29905 0.40797 0.68167
 C2228 C 0.31187 0.40060 0.68860
 C2229 C 0.31667 0.40593 0.70321
 N2230 N 0.30880 0.41761 0.71044
 C2231 C 0.28773 0.43664 0.71320
 N2232 N 0.28991 0.43694 0.72882
 C2233 C 0.28205 0.44688 0.73824
 C2234 C 0.27117 0.45732 0.73204
 C2235 C 0.26884 0.45745 0.71600
 C2236 C 0.27720 0.44726 0.70651
 H2237 H 0.29483 0.40438 0.67045
 H2238 H 0.32645 0.40067 0.70907
 H2239 H 0.28406 0.44646 0.75061
 H2240 H 0.26039 0.46528 0.71087
 H2241 H 0.28106 0.42494 0.68384
 H2242 H 0.27533 0.44779 0.69415
 C2243 C 0.29733 0.92468 0.20444
 C2244 C 0.31197 0.91950 0.20949
 C2245 C 0.31944 0.90742 0.20159
 C2246 C 0.31242 0.90045 0.18867
 C2247 C 0.29791 0.90615 0.18386
 N2248 N 0.29080 0.91782 0.19182
 C2249 C 0.28821 0.93652 0.21303
 N2250 N 0.27249 0.93671 0.21118
 C2251 C 0.26312 0.94656 0.21923
 C2252 C 0.26949 0.95699 0.22994
 C2253 C 0.28564 0.95732 0.23185
 C2254 C 0.29507 0.94719 0.22333
 H2255 H 0.33063 0.90349 0.20574
 H2256 H 0.29195 0.90111 0.17406
 H2257 H 0.25068 0.94604 0.21750
 H2258 H 0.29089 0.96522 0.24010
 H2259 H 0.31744 0.92425 0.21971
 H2260 H 0.30752 0.94775 0.22489
 C2261 C 0.79696 0.42388 0.20375
 C2262 C 0.81169 0.41897 0.20883
 C2263 C 0.81927 0.40683 0.20112
 C2264 C 0.81227 0.39953 0.18838
 C2265 C 0.79765 0.40494 0.18355
 N2266 N 0.79044 0.41668 0.19132
 C2267 C 0.78777 0.43583 0.21212
 N2268 N 0.77205 0.43588 0.21031
 C2269 C 0.76263 0.44584 0.21818
 C2270 C 0.76897 0.45655 0.22864
 C2271 C 0.78512 0.45700 0.23049
 C2272 C 0.79459 0.44676 0.22217
 H2273 H 0.83053 0.40312 0.20529
 H2274 H 0.79171 0.39963 0.17388
 H2275 H 0.75018 0.44518 0.21653
 H2276 H 0.79034 0.46509 0.23859
 H2277 H 0.81715 0.42399 0.21892
 H2278 H 0.80703 0.44742 0.22370
 C2279 C 0.79588 0.92434 0.70308
 C2280 C 0.79148 0.92032 0.68794
 C2281 C 0.79903 0.90807 0.68037
 C2282 C 0.81094 0.89970 0.68779
 C2283 C 0.81509 0.90423 0.70285
 N2284 N 0.80751 0.91613 0.71000
 C2285 C 0.78766 0.93645 0.71226
 N2286 N 0.78937 0.93628 0.72794
 C2287 C 0.78171 0.94635 0.73739
 C2288 C 0.77150 0.95742 0.73115
 C2289 C 0.76976 0.95812 0.71504
 C2290 C 0.77791 0.94777 0.70553
 H2291 H 0.79532 0.90507 0.66880
 H2292 H 0.82413 0.89818 0.70914
 H2293 H 0.78328 0.94546 0.74979
 H2294 H 0.76182 0.96645 0.70988
 H2295 H 0.78203 0.92613 0.68205
 H2296 H 0.77643 0.94867 0.69314
 C2297 C 0.70405 0.57620 0.70280
 C2298 C 0.68909 0.58077 0.70752
 C2299 C 0.68163 0.59303 0.69992
 C2300 C 0.68900 0.60087 0.68767
 C2301 C 0.70387 0.59582 0.68320
 N2302 N 0.71092 0.58388 0.69081
 C2303 C 0.71312 0.56411 0.71113
 N2304 N 0.72886 0.56402 0.70944
 C2305 C 0.73815 0.55397 0.71733
 C2306 C 0.73168 0.54325 0.72774
 C2307 C 0.71550 0.54285 0.72946
 C2308 C 0.70616 0.55312 0.72107
 H2309 H 0.67014 0.59638 0.70377
 H2310 H 0.71009 0.60148 0.67388
 H2311 H 0.75062 0.55458 0.71574
 H2312 H 0.71015 0.53478 0.73752
 H2313 H 0.68331 0.57540 0.71727
 H2314 H 0.69371 0.55244 0.72249
 C2315 C 0.70435 0.07621 0.20365
 C2316 C 0.68931 0.08072 0.20816
 C2317 C 0.68181 0.09280 0.20030
 C2318 C 0.68920 0.10052 0.18799
 C2319 C 0.70420 0.09559 0.18380
 N2320 N 0.71129 0.08383 0.19166
 C2321 C 0.71336 0.06412 0.21207
 N2322 N 0.72909 0.06387 0.21031
 C2323 C 0.73833 0.05369 0.21811
 C2324 C 0.73181 0.04294 0.22846
 C2325 C 0.71564 0.04272 0.23029
 C2326 C 0.70636 0.05318 0.22204
 H2327 H 0.67026 0.09610 0.20402
 H2328 H 0.71047 0.10117 0.17447
 H2329 H 0.75080 0.05422 0.21651
 H2330 H 0.71026 0.03467 0.23835
 H2331 H 0.68345 0.07541 0.21790
 H2332 H 0.69391 0.05264 0.22357
 C2333 C 0.20418 0.57553 0.20224
 C2334 C 0.20875 0.57964 0.18715
 C2335 C 0.20125 0.59191 0.17957
 C2336 C 0.18924 0.60019 0.18692
 C2337 C 0.18484 0.59551 0.20188
 N2338 N 0.19238 0.58360 0.20906
 C2339 C 0.21239 0.56351 0.21150
 N2340 N 0.21042 0.56362 0.22715
 C2341 C 0.21809 0.55367 0.23670
 C2342 C 0.22858 0.54279 0.23061
 C2343 C 0.23064 0.54216 0.21453
 C2344 C 0.22246 0.55238 0.20490
 H2345 H 0.20507 0.59497 0.16803
 H2346 H 0.17568 0.60146 0.20808
 H2347 H 0.21627 0.55447 0.24908
 H2348 H 0.23877 0.53395 0.20948
 H2349 H 0.21828 0.57389 0.18133
 H2350 H 0.22416 0.55153 0.19254
 C2351 C 0.20407 0.07614 0.70336
 C2352 C 0.20924 0.08089 0.68866
 C2353 C 0.20144 0.09282 0.68088
 C2354 C 0.18856 0.10021 0.68766
 C2355 C 0.18369 0.09504 0.70233
 N2356 N 0.19150 0.08340 0.70970
 C2357 C 0.21238 0.06420 0.71265
 N2358 N 0.20999 0.06387 0.72824
 C2359 C 0.21765 0.05382 0.73773
 C2360 C 0.22851 0.04330 0.73162
 C2361 C 0.23101 0.04318 0.71559
 C2362 C 0.22286 0.05347 0.70604
 H2363 H 0.20569 0.09631 0.66960
 H2364 H 0.17388 0.10035 0.70811
 H2365 H 0.21551 0.05425 0.75008
 H2366 H 0.23944 0.03529 0.71054
 H2367 H 0.21944 0.07589 0.68330
 H2368 H 0.22486 0.05296 0.69370
 C2369 C 0.29362 0.57543 0.29913
 C2370 C 0.28925 0.57999 0.31416
 C2371 C 0.29727 0.59203 0.32153
 C2372 C 0.30961 0.59966 0.31404
 C2373 C 0.31372 0.59460 0.29912
 N2374 N 0.30570 0.58292 0.29215
 C2375 C 0.28496 0.56352 0.29014
 N2376 N 0.28683 0.56324 0.27448
 C2377 C 0.27882 0.55331 0.26520
 C2378 C 0.26810 0.54285 0.27160
 C2379 C 0.26612 0.54265 0.28770
 C2380 C 0.27461 0.55286 0.29704
 H2381 H 0.29366 0.59538 0.33306
 H2382 H 0.32308 0.60009 0.29280
 H2383 H 0.28057 0.55379 0.25280
 H2384 H 0.25782 0.53479 0.29299
 H2385 H 0.27953 0.57473 0.32010
 H2386 H 0.27295 0.55233 0.30943
 C2387 C 0.29643 0.07575 0.79708
 C2388 C 0.31153 0.07996 0.79247
 C2389 C 0.31930 0.09186 0.80030
 C2390 C 0.31214 0.09970 0.81267
 C2391 C 0.29709 0.09505 0.81697
 N2392 N 0.28973 0.08347 0.80914
 C2393 C 0.28715 0.06386 0.78872
 N2394 N 0.27142 0.06392 0.79058
 C2395 C 0.26194 0.05398 0.78282
 C2396 C 0.26820 0.04315 0.77239
 C2397 C 0.28436 0.04259 0.77047
 C2398 C 0.29389 0.05281 0.77870
 H2399 H 0.33088 0.09494 0.79652
 H2400 H 0.29099 0.10074 0.82634
 H2401 H 0.24950 0.05475 0.78451
 H2402 H 0.28955 0.03445 0.76238
 H2403 H 0.31723 0.07454 0.78271
 H2404 H 0.30631 0.05199 0.77711
 C2405 C 0.79527 0.57657 0.79694
 C2406 C 0.79004 0.58143 0.81157
 C2407 C 0.79768 0.59356 0.81917
 C2408 C 0.81048 0.60098 0.81227
 C2409 C 0.81544 0.59562 0.79771
 N2410 N 0.80777 0.58384 0.79051
 C2411 C 0.78707 0.56454 0.78772
 N2412 N 0.78954 0.56417 0.77215
 C2413 C 0.78194 0.55413 0.76266
 C2414 C 0.77105 0.54367 0.76875
 C2415 C 0.76847 0.54356 0.78477
 C2416 C 0.77656 0.55386 0.79433
 H2417 H 0.79332 0.59723 0.83033
 H2418 H 0.82523 0.60087 0.79186
 H2419 H 0.78415 0.55454 0.75032
 H2420 H 0.76002 0.53569 0.78979
 H2421 H 0.77991 0.57638 0.81700
 H2422 H 0.77447 0.55341 0.80666
 C2423 C 0.79577 0.07543 0.29739
 C2424 C 0.79029 0.08060 0.31183
 C2425 C 0.79781 0.09287 0.31931
 C2426 C 0.81076 0.10011 0.31250
 C2427 C 0.81601 0.09440 0.29817
 N2428 N 0.80842 0.08251 0.29106
 C2429 C 0.78759 0.06339 0.28820
 N2430 N 0.79008 0.06298 0.27263
 C2431 C 0.78240 0.05300 0.26315
 C2432 C 0.77140 0.04267 0.26925
 C2433 C 0.76884 0.04256 0.28526
 C2434 C 0.77701 0.05280 0.29482
 H2435 H 0.79322 0.09681 0.33029
 H2436 H 0.82594 0.09948 0.29242
 H2437 H 0.78460 0.05338 0.25081
 H2438 H 0.76031 0.03477 0.29030
 H2439 H 0.78001 0.07570 0.31714
 H2440 H 0.77491 0.05239 0.30716
 C2441 C 0.70148 0.42377 0.29431
 C2442 C 0.68683 0.41851 0.28941
 C2443 C 0.67969 0.40616 0.29717
 C2444 C 0.68705 0.39896 0.30980
 C2445 C 0.70157 0.40472 0.31446
 N2446 N 0.70835 0.41668 0.30664
 C2447 C 0.71031 0.43590 0.28581
 N2448 N 0.72600 0.43650 0.28775
 C2449 C 0.73516 0.44652 0.27969
 C2450 C 0.72859 0.45669 0.26882
 C2451 C 0.71244 0.45663 0.26684
 C2452 C 0.70323 0.44638 0.27542
 H2453 H 0.66848 0.40220 0.29314
 H2454 H 0.70778 0.39952 0.32404
 H2455 H 0.74760 0.44631 0.28149
 H2456 H 0.70704 0.46431 0.25845
 H2457 H 0.68107 0.42344 0.27943
 H2458 H 0.69079 0.44667 0.27378
 C2459 C 0.70331 0.92365 0.79559
 C2460 C 0.68884 0.91824 0.79033
 C2461 C 0.68154 0.90592 0.79800
 C2462 C 0.68856 0.89887 0.81091
 C2463 C 0.70292 0.90477 0.81592
 N2464 N 0.70985 0.91671 0.80819
 C2465 C 0.71224 0.93587 0.78728
 N2466 N 0.72786 0.93671 0.78967
 C2467 C 0.73709 0.94691 0.78189
 C2468 C 0.73068 0.95705 0.77089
 C2469 C 0.71460 0.95670 0.76842
 C2470 C 0.70531 0.94625 0.77669
 H2471 H 0.67047 0.90188 0.79369
 H2472 H 0.70886 0.89973 0.82575
 H2473 H 0.74948 0.94685 0.78402
 H2474 H 0.70931 0.96430 0.75990
 H2475 H 0.68335 0.92302 0.78014
 H2476 H 0.69292 0.94632 0.77466
 C2477 C 0.20319 0.42415 0.79665
 C2478 C 0.18823 0.41970 0.79188
 C2479 C 0.18068 0.40745 0.79942
 C2480 C 0.18794 0.39954 0.81168
 C2481 C 0.20284 0.40443 0.81614
 N2482 N 0.20998 0.41633 0.80857
 C2483 C 0.21234 0.43632 0.78854
 N2484 N 0.22803 0.43647 0.79055
 C2485 C 0.23745 0.44662 0.78296
 C2486 C 0.23116 0.45743 0.77254
 C2487 C 0.21502 0.45782 0.77051
 C2488 C 0.20554 0.44740 0.77859
 H2489 H 0.16921 0.40414 0.79552
 H2490 H 0.20903 0.39867 0.82540
 H2491 H 0.24989 0.44600 0.78475
 H2492 H 0.20982 0.46595 0.76242
 H2493 H 0.18249 0.42521 0.78219
 H2494 H 0.19312 0.44804 0.77690
 C2495 C 0.20169 0.92382 0.29514
 C2496 C 0.18717 0.91839 0.29007
 C2497 C 0.17998 0.90610 0.29788
 C2498 C 0.18717 0.89911 0.31072
 C2499 C 0.20157 0.90504 0.31555
 N2500 N 0.20839 0.91694 0.30768
 C2501 C 0.21057 0.93592 0.28665
 N2502 N 0.22624 0.93653 0.28869
 C2503 C 0.23544 0.94661 0.28074
 C2504 C 0.22892 0.95688 0.26992
 C2505 C 0.21279 0.95676 0.26780
 C2506 C 0.20354 0.94641 0.27623
 H2507 H 0.16885 0.90202 0.29373
 H2508 H 0.20764 0.90004 0.32531
 H2509 H 0.24788 0.94638 0.28259
 H2510 H 0.20744 0.96447 0.25941
 H2511 H 0.18156 0.92315 0.27992
 H2512 H 0.19111 0.94663 0.27447
 C2513 C 0.42512 0.29615 0.70329
 C2514 C 0.42056 0.31109 0.70825
 C2515 C 0.40847 0.31882 0.70064
 C2516 C 0.40083 0.31175 0.68813
 C2517 C 0.40586 0.29689 0.68345
 N2518 N 0.41759 0.28957 0.69108
 C2519 C 0.43706 0.28680 0.71152
 N2520 N 0.43721 0.27105 0.70938
 C2521 C 0.44720 0.26148 0.71702
 C2522 C 0.45785 0.26766 0.72761
 C2523 C 0.45819 0.28384 0.72982
 C2524 C 0.44792 0.29347 0.72171
 H2525 H 0.40507 0.33026 0.70471
 H2526 H 0.40031 0.29087 0.67397
 H2527 H 0.44661 0.24902 0.71511
 H2528 H 0.46619 0.28896 0.73805
 H2529 H 0.42581 0.31665 0.71817
 H2530 H 0.44855 0.30592 0.72353
 C2531 C 0.42436 0.79633 0.20287
 C2532 C 0.41954 0.81119 0.20779
 C2533 C 0.40733 0.81867 0.20018
 C2534 C 0.39982 0.81143 0.18768
 C2535 C 0.40514 0.79668 0.18298
 N2536 N 0.41698 0.78958 0.19067
 C2537 C 0.43638 0.78722 0.21123
 N2538 N 0.43644 0.77142 0.20965
 C2539 C 0.44638 0.76208 0.21762
 C2540 C 0.45705 0.76858 0.22800
 C2541 C 0.45754 0.78483 0.22958
 C2542 C 0.44734 0.79422 0.22112
 H2543 H 0.40371 0.83005 0.20421
 H2544 H 0.39969 0.79057 0.17350
 H2545 H 0.44570 0.74956 0.21615
 H2546 H 0.46559 0.79020 0.23759
 H2547 H 0.42470 0.81686 0.21770
 H2548 H 0.44803 0.80673 0.22246
 C2549 C 0.92533 0.29581 0.20285
 C2550 C 0.92106 0.29119 0.18785
 C2551 C 0.90896 0.29890 0.18027
 C2552 C 0.90098 0.31119 0.18755
 C2553 C 0.90578 0.31559 0.20246
 N2554 N 0.91754 0.30784 0.20963
 C2555 C 0.93723 0.28738 0.21204
 N2556 N 0.93706 0.28907 0.22772
 C2557 C 0.94694 0.28118 0.23716
 C2558 C 0.95781 0.27077 0.23090
 C2559 C 0.95848 0.26902 0.21478
 C2560 C 0.94832 0.27740 0.20529
 H2561 H 0.90574 0.29498 0.16883
 H2562 H 0.90008 0.32496 0.20861
 H2563 H 0.94609 0.28276 0.24956
 H2564 H 0.96667 0.26095 0.20960
 H2565 H 0.92653 0.28142 0.18211
 H2566 H 0.94920 0.27592 0.19290
 C2567 C 0.92419 0.79565 0.70245
 C2568 C 0.91914 0.79032 0.68792
 C2569 C 0.90699 0.79801 0.68040
 C2570 C 0.89973 0.81097 0.68725
 C2571 C 0.90526 0.81603 0.70169
 N2572 N 0.91706 0.80830 0.70883
 C2573 C 0.93624 0.78739 0.71161
 N2574 N 0.93683 0.79001 0.72715
 C2575 C 0.94690 0.78237 0.73659
 C2576 C 0.95716 0.77126 0.73050
 C2577 C 0.95705 0.76854 0.71451
 C2578 C 0.94673 0.77667 0.70499
 H2579 H 0.90315 0.79351 0.66937
 H2580 H 0.90015 0.82596 0.70748
 H2581 H 0.94665 0.78470 0.74891
 H2582 H 0.96475 0.75990 0.70948
 H2583 H 0.92406 0.78005 0.68256
 H2584 H 0.94702 0.77446 0.69268
 C2585 C 0.57463 0.29441 0.29811
 C2586 C 0.57932 0.28975 0.31299
 C2587 C 0.59154 0.29751 0.32026
 C2588 C 0.59920 0.30988 0.31281
 C2589 C 0.59398 0.31431 0.29804
 N2590 N 0.58212 0.30652 0.29117
 C2591 C 0.56268 0.28589 0.28913
 N2592 N 0.56244 0.28780 0.27348
 C2593 C 0.55259 0.27977 0.26417
 C2594 C 0.54222 0.26896 0.27055
 C2595 C 0.54192 0.26700 0.28665
 C2596 C 0.55201 0.27555 0.29601
 H2597 H 0.59508 0.29358 0.33162
 H2598 H 0.59943 0.32374 0.29177
 H2599 H 0.55311 0.28155 0.25177
 H2600 H 0.53408 0.25866 0.29191
 H2601 H 0.57408 0.27993 0.31884
 H2602 H 0.55144 0.27391 0.30841
 C2603 C 0.57508 0.79509 0.79832
 C2604 C 0.57931 0.79090 0.81347
 C2605 C 0.59142 0.79876 0.82082
 C2606 C 0.59948 0.81076 0.81318
 C2607 C 0.59473 0.81473 0.79813
 N2608 N 0.58295 0.80686 0.79119
 C2609 C 0.56311 0.78652 0.78937
 N2610 N 0.56302 0.78814 0.77368
 C2611 C 0.55308 0.78013 0.76444
 C2612 C 0.54241 0.76966 0.77092
 C2613 C 0.54201 0.76796 0.78705
 C2614 C 0.55222 0.77647 0.79634
 H2615 H 0.59456 0.79520 0.83241
 H2616 H 0.60050 0.82386 0.79170
 H2617 H 0.55373 0.78166 0.75201
 H2618 H 0.53401 0.75983 0.79240
 H2619 H 0.57377 0.78138 0.81954
 H2620 H 0.55154 0.77502 0.80875
 C2621 C 0.07485 0.29493 0.79823
 C2622 C 0.07918 0.29063 0.81333
 C2623 C 0.09126 0.29850 0.82069
 C2624 C 0.09918 0.31064 0.81313
 C2625 C 0.09437 0.31470 0.79813
 N2626 N 0.08262 0.30680 0.79115
 C2627 C 0.06291 0.28632 0.78927
 N2628 N 0.06272 0.28804 0.77359
 C2629 C 0.05284 0.27994 0.76435
 C2630 C 0.04239 0.26924 0.77082
 C2631 C 0.04208 0.26746 0.78694
 C2632 C 0.05218 0.27609 0.79623
 H2633 H 0.09445 0.29491 0.83226
 H2634 H 0.10013 0.32388 0.79175
 H2635 H 0.05337 0.28159 0.75194
 H2636 H 0.03421 0.25920 0.79228
 H2637 H 0.07373 0.28103 0.81934
 H2638 H 0.05154 0.27458 0.80863
 C2639 C 0.07546 0.79405 0.29783
 C2640 C 0.08001 0.78947 0.31277
 C2641 C 0.09213 0.79728 0.32015
 C2642 C 0.09985 0.80964 0.31274
 C2643 C 0.09480 0.81399 0.29789
 N2644 N 0.08302 0.80614 0.29091
 C2645 C 0.06352 0.78553 0.28882
 N2646 N 0.06325 0.78749 0.27317
 C2647 C 0.05334 0.77953 0.26386
 C2648 C 0.04292 0.76875 0.27022
 C2649 C 0.04270 0.76669 0.28631
 C2650 C 0.05284 0.77518 0.29568
 H2651 H 0.09553 0.79341 0.33157
 H2652 H 0.10030 0.82340 0.29164
 H2653 H 0.05383 0.78136 0.25147
 H2654 H 0.03486 0.75833 0.29156
 H2655 H 0.07473 0.77968 0.31863
 H2656 H 0.05227 0.77350 0.30807
 C2657 C 0.57495 0.70384 0.70270
 C2658 C 0.57895 0.70823 0.68753
 C2659 C 0.59103 0.70054 0.67992
 C2660 C 0.59927 0.68852 0.68733
 C2661 C 0.59471 0.68429 0.70237
 N2662 N 0.58294 0.69200 0.70958
 C2663 C 0.56314 0.71235 0.71194
 N2664 N 0.56355 0.71093 0.72764
 C2665 C 0.55373 0.71890 0.73708
 C2666 C 0.54268 0.72909 0.73080
 C2667 C 0.54178 0.73059 0.71468
 C2668 C 0.55188 0.72213 0.70518
 H2669 H 0.59398 0.70419 0.66830
 H2670 H 0.60065 0.67513 0.70862
 H2671 H 0.55471 0.71749 0.74950
 H2672 H 0.53342 0.73846 0.70948
 H2673 H 0.57328 0.71782 0.68169
 H2674 H 0.55082 0.72336 0.69278
 C2675 C 0.57606 0.20439 0.20201
 C2676 C 0.58017 0.20890 0.18690
 C2677 C 0.59209 0.20103 0.17918
 C2678 C 0.60004 0.18870 0.18641
 C2679 C 0.59555 0.18458 0.20152
 N2680 N 0.58394 0.19244 0.20880
 C2681 C 0.56409 0.21272 0.21122
 N2682 N 0.56428 0.21103 0.22691
 C2683 C 0.55419 0.21867 0.23634
 C2684 C 0.54305 0.22878 0.23008
 C2685 C 0.54236 0.23054 0.21397
 C2686 C 0.55276 0.22244 0.20448
 H2687 H 0.59511 0.20476 0.16759
 H2688 H 0.60129 0.17524 0.20767
 H2689 H 0.55505 0.21711 0.24875
 H2690 H 0.53397 0.23839 0.20880
 H2691 H 0.57463 0.21863 0.18116
 H2692 H 0.55187 0.22387 0.19208
 C2693 C 0.07606 0.70444 0.20151
 C2694 C 0.08019 0.70890 0.18639
 C2695 C 0.09258 0.70145 0.17897
 C2696 C 0.10093 0.68960 0.18653
 C2697 C 0.09626 0.68534 0.20152
 N2698 N 0.08424 0.69283 0.20853
 C2699 C 0.06393 0.71263 0.21063
 N2700 N 0.06410 0.71090 0.22630
 C2701 C 0.05407 0.71858 0.23575
 C2702 C 0.04303 0.72881 0.22952
 C2703 C 0.04231 0.73057 0.21340
 C2704 C 0.05265 0.72241 0.20389
 H2705 H 0.09566 0.70516 0.16740
 H2706 H 0.10229 0.67634 0.20789
 H2707 H 0.05495 0.71700 0.24815
 H2708 H 0.03398 0.73849 0.20825
 H2709 H 0.07435 0.71830 0.18042
 H2710 H 0.05180 0.72390 0.19149
 C2711 C 0.07522 0.20400 0.70230
 C2712 C 0.07931 0.20857 0.68721
 C2713 C 0.09143 0.20093 0.67958
 C2714 C 0.09957 0.18878 0.68689
 C2715 C 0.09497 0.18445 0.70190
 N2716 N 0.08320 0.19213 0.70912
 C2717 C 0.06333 0.21236 0.71156
 N2718 N 0.06371 0.21081 0.72725
 C2719 C 0.05383 0.21864 0.73674
 C2720 C 0.04275 0.22883 0.73052
 C2721 C 0.04185 0.23044 0.71441
 C2722 C 0.05201 0.22212 0.70486
 H2723 H 0.09447 0.20469 0.66801
 H2724 H 0.10087 0.17524 0.70809
 H2725 H 0.05481 0.21714 0.74915
 H2726 H 0.03347 0.23832 0.70927
 H2727 H 0.07367 0.21822 0.68145
 H2728 H 0.05095 0.22342 0.69246
 C2729 C 0.42405 0.70140 0.29463
 C2730 C 0.41966 0.68613 0.29064
 C2731 C 0.40763 0.67883 0.29874
 C2732 C 0.39988 0.68664 0.31078
 C2733 C 0.40477 0.70180 0.31452
 N2734 N 0.41643 0.70869 0.30641
 C2735 C 0.43592 0.71032 0.28586
 N2736 N 0.43587 0.72616 0.28711
 C2737 C 0.44581 0.73536 0.27900
 C2738 C 0.45664 0.72869 0.26885
 C2739 C 0.45717 0.71241 0.26752
 C2740 C 0.44692 0.70316 0.27610
 H2741 H 0.40437 0.66711 0.29546
 H2742 H 0.39914 0.70838 0.32361
 H2743 H 0.44508 0.74791 0.28025
 H2744 H 0.46532 0.70692 0.25967
 H2745 H 0.42505 0.67996 0.28114
 H2746 H 0.44768 0.69063 0.27498
 C2747 C 0.42520 0.20278 0.79646
 C2748 C 0.42120 0.20757 0.81150
 C2749 C 0.40928 0.19993 0.81942
 C2750 C 0.40123 0.18756 0.81244
 C2751 C 0.40571 0.18303 0.79746
 N2752 N 0.41730 0.19071 0.78995
 C2753 C 0.43702 0.21102 0.78700
 N2754 N 0.43661 0.20923 0.77133
 C2755 C 0.44650 0.21688 0.76170
 C2756 C 0.45765 0.22708 0.76773
 C2757 C 0.45854 0.22894 0.78382
 C2758 C 0.44835 0.22084 0.79351
 H2759 H 0.40634 0.20383 0.83096
 H2760 H 0.39985 0.17365 0.79152
 H2761 H 0.44543 0.21527 0.74931
 H2762 H 0.46693 0.23687 0.78883
 H2763 H 0.42680 0.21736 0.81704
 H2764 H 0.44942 0.22235 0.80588
 C2765 C 0.92407 0.70398 0.79637
 C2766 C 0.91904 0.68928 0.79127
 C2767 C 0.90691 0.68178 0.79902
 C2768 C 0.89972 0.68884 0.81183
 C2769 C 0.90524 0.70346 0.81666
 N2770 N 0.91697 0.71059 0.80885
 C2771 C 0.93609 0.71306 0.78801
 N2772 N 0.93627 0.72884 0.78977
 C2773 C 0.94633 0.73815 0.78191
 C2774 C 0.95701 0.73163 0.77151
 C2775 C 0.95733 0.71540 0.76972
 C2776 C 0.94699 0.70604 0.77804
 H2777 H 0.90311 0.67053 0.79483
 H2778 H 0.90002 0.70946 0.82637
 H2779 H 0.94575 0.75066 0.78350
 H2780 H 0.96536 0.71002 0.76166
 H2781 H 0.92397 0.68375 0.78115
 H2782 H 0.94756 0.69354 0.77655
 C2783 C 0.92435 0.20270 0.29583
 C2784 C 0.91897 0.18813 0.29070
 C2785 C 0.90664 0.18092 0.29840
 C2786 C 0.89958 0.18813 0.31120
 C2787 C 0.90546 0.20258 0.31609
 N2788 N 0.91740 0.20942 0.30833
 C2789 C 0.93653 0.21158 0.28746
 N2790 N 0.93737 0.22727 0.28977
 C2791 C 0.94748 0.23650 0.28189
 C2792 C 0.95751 0.23000 0.27085
 C2793 C 0.95717 0.21385 0.26848
 C2794 C 0.94682 0.20456 0.27686
 H2795 H 0.90260 0.16977 0.29416
 H2796 H 0.90039 0.20867 0.32581
 H2797 H 0.94744 0.24895 0.28396
 H2798 H 0.96471 0.20850 0.25994
 H2799 H 0.92377 0.18248 0.28058
 H2800 H 0.94691 0.19212 0.27490
 C2801 C 0.29704 0.29765 0.57478
 C2802 C 0.29181 0.31232 0.57983
 C2803 C 0.29955 0.31987 0.59186
 C2804 C 0.31245 0.31288 0.59900
 C2805 C 0.31745 0.29832 0.59344
 N2806 N 0.30966 0.29116 0.58176
 C2807 C 0.28871 0.28846 0.56287
 N2808 N 0.29108 0.27275 0.56240
 C2809 C 0.28334 0.26329 0.55245
 C2810 C 0.27239 0.26954 0.54219
 C2811 C 0.26993 0.28569 0.54218
 C2812 C 0.27816 0.29523 0.55238
 H2813 H 0.29520 0.33107 0.59566
 H2814 H 0.32730 0.29240 0.59849
 H2815 H 0.28547 0.25085 0.55280
 H2816 H 0.26143 0.29086 0.53447
 H2817 H 0.28159 0.31779 0.57500
 H2818 H 0.27617 0.30767 0.55201
 C2819 C 0.29623 0.79909 0.07350
 C2820 C 0.29188 0.81423 0.07801
 C2821 C 0.29983 0.82161 0.09002
 C2822 C 0.31209 0.81400 0.09766
 C2823 C 0.31625 0.79900 0.09260
 N2824 N 0.30827 0.79202 0.08095
 C2825 C 0.28756 0.79007 0.06168
 N2826 N 0.28925 0.77427 0.06149
 C2827 C 0.28120 0.76498 0.05162
 C2828 C 0.27065 0.77152 0.04112
 C2829 C 0.26886 0.78776 0.04084
 C2830 C 0.27739 0.79710 0.05099
 H2831 H 0.29620 0.83320 0.09339
 H2832 H 0.32557 0.79260 0.09809
 H2833 H 0.28279 0.75246 0.05220
 H2834 H 0.26068 0.79315 0.03295
 H2835 H 0.28217 0.82024 0.07278
 H2836 H 0.27588 0.80960 0.05041
 C2837 C 0.79820 0.29692 0.07387
 C2838 C 0.81333 0.29237 0.07800
 C2839 C 0.82110 0.30030 0.08978
 C2840 C 0.81388 0.31272 0.09758
 C2841 C 0.79883 0.31704 0.09294
 N2842 N 0.79148 0.30908 0.08149
 C2843 C 0.78886 0.28836 0.06222
 N2844 N 0.77312 0.29003 0.06253
 C2845 C 0.76359 0.28212 0.05278
 C2846 C 0.76981 0.27176 0.04187
 C2847 C 0.78598 0.27000 0.04108
 C2848 C 0.79556 0.27837 0.05113
 H2849 H 0.83268 0.29652 0.09285
 H2850 H 0.79270 0.32646 0.09858
 H2851 H 0.75114 0.28371 0.05371
 H2852 H 0.79113 0.26198 0.03285
 H2853 H 0.81903 0.28252 0.07263
 H2854 H 0.80800 0.27694 0.05014
 C2855 C 0.79773 0.79723 0.57315
 C2856 C 0.81304 0.79303 0.57701
 C2857 C 0.82075 0.80099 0.58882
 C2858 C 0.81331 0.81311 0.59688
 C2859 C 0.79812 0.81712 0.59247
 N2860 N 0.79082 0.80913 0.58101
 C2861 C 0.78842 0.78857 0.56155
 N2862 N 0.77265 0.78998 0.56205
 C2863 C 0.76314 0.78196 0.55237
 C2864 C 0.76940 0.77174 0.54135
 C2865 C 0.78558 0.77022 0.54040
 C2866 C 0.79515 0.77870 0.55037
 H2867 H 0.83247 0.79749 0.59170
 H2868 H 0.79183 0.82630 0.59833
 H2869 H 0.75068 0.78335 0.55345
 H2870 H 0.79076 0.76230 0.53210
 H2871 H 0.81893 0.78342 0.57143
 H2872 H 0.80759 0.77744 0.54925
 C2873 C 0.29854 0.70549 0.42596
 C2874 C 0.31376 0.70961 0.42165
 C2875 C 0.32121 0.70146 0.40976
 C2876 C 0.31362 0.68922 0.40207
 C2877 C 0.29850 0.68537 0.40686
 N2878 N 0.29145 0.69354 0.41839
 C2879 C 0.28951 0.71425 0.43776
 N2880 N 0.27375 0.71278 0.43779
 C2881 C 0.26447 0.72086 0.44768
 C2882 C 0.27098 0.73121 0.45840
 C2883 C 0.28717 0.73277 0.45885
 C2884 C 0.29650 0.72423 0.44865
 H2885 H 0.33287 0.70488 0.40654
 H2886 H 0.29207 0.67615 0.40126
 H2887 H 0.25200 0.71944 0.44699
 H2888 H 0.29254 0.74080 0.46691
 H2889 H 0.31977 0.71926 0.42697
 H2890 H 0.30897 0.72555 0.44936
 C2891 C 0.29734 0.20407 0.92550
 C2892 C 0.29296 0.18879 0.92157
 C2893 C 0.30068 0.18103 0.90961
 C2894 C 0.31275 0.18840 0.90146
 C2895 C 0.31685 0.20362 0.90583
 N2896 N 0.30910 0.21096 0.91746
 C2897 C 0.28905 0.21336 0.93742
 N2898 N 0.29062 0.22917 0.93716
 C2899 C 0.28289 0.23867 0.94713
 C2900 C 0.27277 0.23235 0.95819
 C2901 C 0.27116 0.21611 0.95895
 C2902 C 0.27937 0.20656 0.94870
 H2903 H 0.29707 0.16931 0.90672
 H2904 H 0.32594 0.20988 0.89984
 H2905 H 0.28436 0.25118 0.94620
 H2906 H 0.26331 0.21086 0.96728
 H2907 H 0.28341 0.18293 0.92726
 H2908 H 0.27800 0.19407 0.94966
 C2909 C 0.79807 0.70424 0.92648
 C2910 C 0.81339 0.70830 0.92249
 C2911 C 0.82105 0.70012 0.91076
 C2912 C 0.81356 0.68796 0.90288
 C2913 C 0.79835 0.68413 0.90738
 N2914 N 0.79110 0.69231 0.91877
 C2915 C 0.78886 0.71306 0.93811
 N2916 N 0.77309 0.71171 0.93783
 C2917 C 0.76369 0.71983 0.94759
 C2918 C 0.77008 0.73007 0.95848
 C2919 C 0.78627 0.73151 0.95922
 C2920 C 0.79572 0.72295 0.94916
 H2921 H 0.83280 0.70350 0.90781
 H2922 H 0.79201 0.67492 0.90164
 H2923 H 0.75122 0.71850 0.94668
 H2924 H 0.79156 0.73944 0.96742
 H2925 H 0.81933 0.71793 0.92792
 H2926 H 0.80817 0.72418 0.95010
 C2927 C 0.79682 0.20376 0.42580
 C2928 C 0.79195 0.18880 0.42127
 C2929 C 0.79981 0.18103 0.40943
 C2930 C 0.81247 0.18807 0.40191
 C2931 C 0.81708 0.20295 0.40691
 N2932 N 0.80920 0.21031 0.41845
 C2933 C 0.78838 0.21308 0.43762
 N2934 N 0.79064 0.22881 0.43792
 C2935 C 0.78284 0.23835 0.44781
 C2936 C 0.77194 0.23216 0.45818
 C2937 C 0.76957 0.21600 0.45833
 C2938 C 0.77787 0.20640 0.44821
 H2939 H 0.79577 0.16958 0.40608
 H2940 H 0.82670 0.20894 0.40150
 H2941 H 0.78490 0.25080 0.44736
 H2942 H 0.76111 0.21087 0.46610
 H2943 H 0.78192 0.18322 0.42638
 H2944 H 0.77594 0.19396 0.44874
 C2945 C 0.70317 0.29713 0.42531
 C2946 C 0.68851 0.29182 0.42054
 C2947 C 0.68070 0.29956 0.40865
 C2948 C 0.68742 0.31254 0.40133
 C2949 C 0.70203 0.31757 0.40656
 N2950 N 0.70944 0.30980 0.41814
 C2951 C 0.71250 0.28884 0.43717
 N2952 N 0.72817 0.29111 0.43740
 C2953 C 0.73768 0.28340 0.44736
 C2954 C 0.73152 0.27261 0.45789
 C2955 C 0.71542 0.27024 0.45810
 C2956 C 0.70585 0.27844 0.44790
 H2957 H 0.66950 0.29515 0.40510
 H2958 H 0.70777 0.32747 0.40134
 H2959 H 0.75008 0.28545 0.44685
 H2960 H 0.71032 0.26185 0.46599
 H2961 H 0.68322 0.28153 0.42549
 H2962 H 0.69345 0.27653 0.44847
 C2963 C 0.70195 0.79660 0.92648
 C2964 C 0.68668 0.79249 0.92247
 C2965 C 0.67906 0.80058 0.91069
 C2966 C 0.68657 0.81271 0.90272
 C2967 C 0.70175 0.81662 0.90725
 N2968 N 0.70895 0.80853 0.91873
 C2969 C 0.71111 0.78783 0.93817
 N2970 N 0.72686 0.78942 0.93811
 C2971 C 0.73622 0.78130 0.94790
 C2972 C 0.72981 0.77076 0.95853
 C2973 C 0.71364 0.76905 0.95901
 C2974 C 0.70423 0.77766 0.94899
 H2975 H 0.66736 0.79714 0.90773
 H2976 H 0.70809 0.82582 0.90149
 H2977 H 0.74869 0.78285 0.94718
 H2978 H 0.70834 0.76087 0.96698
 H2979 H 0.68070 0.78286 0.92791
 H2980 H 0.69179 0.77625 0.94980
 C2981 C 0.20313 0.29663 0.92589
 C2982 C 0.18866 0.29108 0.92082
 C2983 C 0.18093 0.29875 0.90884
 C2984 C 0.18754 0.31192 0.90175
 C2985 C 0.20193 0.31722 0.90732
 N2986 N 0.20927 0.30950 0.91896
 C2987 C 0.21250 0.28835 0.93773
 N2988 N 0.22811 0.29093 0.93811
 C2989 C 0.23770 0.28322 0.94798
 C2990 C 0.23169 0.27211 0.95826
 C2991 C 0.21564 0.26944 0.95836
 C2992 C 0.20597 0.27763 0.94823
 H2993 H 0.16990 0.29413 0.90502
 H2994 H 0.20756 0.32729 0.90231
 H2995 H 0.25006 0.28552 0.94760
 H2996 H 0.21066 0.26082 0.96608
 H2997 H 0.18349 0.28064 0.92560
 H2998 H 0.19361 0.27548 0.94867
 C2999 C 0.20259 0.79701 0.42617
 C3000 C 0.18723 0.79290 0.42245
 C3001 C 0.17948 0.80082 0.41064
 C3002 C 0.18692 0.81278 0.40238
 C3003 C 0.20220 0.81665 0.40655
 N3004 N 0.20954 0.80873 0.41807
 C3005 C 0.21186 0.78848 0.43794
 N3006 N 0.22761 0.79001 0.43766
 C3007 C 0.23707 0.78213 0.44754
 C3008 C 0.23076 0.77191 0.45854
 C3009 C 0.21459 0.77029 0.45927
 C3010 C 0.20508 0.77865 0.44913
 H3011 H 0.16770 0.79741 0.40793
 H3012 H 0.20851 0.82567 0.40049
 H3013 H 0.24953 0.78359 0.44660
 H3014 H 0.20935 0.76233 0.46750
 H3015 H 0.18129 0.78342 0.42818
 H3016 H 0.19265 0.77729 0.45011
 C3017 C 0.70161 0.70532 0.57371
 C3018 C 0.68646 0.70955 0.57814
 C3019 C 0.67906 0.70145 0.59007
 C3020 C 0.68668 0.68919 0.59775
 C3021 C 0.70170 0.68515 0.59278
 N3022 N 0.70869 0.69327 0.58118
 C3023 C 0.71059 0.71411 0.56190
 N3024 N 0.72633 0.71243 0.56166
 C3025 C 0.73557 0.72059 0.55180
 C3026 C 0.72904 0.73126 0.54136
 C3027 C 0.71286 0.73304 0.54116
 C3028 C 0.70357 0.72439 0.55127
 H3029 H 0.66747 0.70501 0.59337
 H3030 H 0.70810 0.67584 0.59830
 H3031 H 0.74804 0.71900 0.55231
 H3032 H 0.70747 0.74132 0.53335
 H3033 H 0.68043 0.71926 0.57290
 H3034 H 0.69112 0.72589 0.55072
 C3035 C 0.70162 0.20538 0.07382
 C3036 C 0.68676 0.20998 0.07880
 C3037 C 0.67930 0.20157 0.09049
 C3038 C 0.68657 0.18863 0.09737
 C3039 C 0.70134 0.18431 0.09190
 N3040 N 0.70839 0.19272 0.08055
 C3041 C 0.71063 0.21436 0.06219
 N3042 N 0.72634 0.21243 0.06175
 C3043 C 0.73561 0.22065 0.05196
 C3044 C 0.72913 0.23161 0.04180
 C3045 C 0.71298 0.23367 0.04180
 C3046 C 0.70367 0.22498 0.05186
 H3047 H 0.66798 0.20549 0.09429
 H3048 H 0.70744 0.17441 0.09670
 H3049 H 0.74805 0.21883 0.05229
 H3050 H 0.70765 0.24216 0.03418
 H3051 H 0.68105 0.22020 0.07419
 H3052 H 0.69123 0.22666 0.05149
 C3053 C 0.20484 0.70280 0.07314
 C3054 C 0.20918 0.68760 0.07744
 C3055 C 0.20107 0.67997 0.08921
 C3056 C 0.18870 0.68741 0.09684
 C3057 C 0.18455 0.70249 0.09199
 N3058 N 0.19268 0.70971 0.08055
 C3059 C 0.21363 0.71201 0.06153
 N3060 N 0.21188 0.72780 0.06152
 C3061 C 0.21996 0.73724 0.05178
 C3062 C 0.23058 0.73085 0.04124
 C3063 C 0.23248 0.71463 0.04084
 C3064 C 0.22393 0.70515 0.05084
 H3065 H 0.20469 0.66833 0.09242
 H3066 H 0.17515 0.70876 0.09748
 H3067 H 0.21829 0.74974 0.05243
 H3068 H 0.24073 0.70936 0.03292
 H3069 H 0.21900 0.68172 0.07225
 H3070 H 0.22548 0.69266 0.05013
 C3071 C 0.20368 0.20373 0.57395
 C3072 C 0.18870 0.20859 0.57834
 C3073 C 0.18095 0.20080 0.59024
 C3074 C 0.18801 0.18820 0.59790
 C3075 C 0.20284 0.18350 0.59292
 N3076 N 0.21021 0.19135 0.58138
 C3077 C 0.21311 0.21223 0.56231
 N3078 N 0.22882 0.21031 0.56252
 C3079 C 0.23845 0.21818 0.55280
 C3080 C 0.23236 0.22877 0.54203
 C3081 C 0.21621 0.23079 0.54137
 C3082 C 0.20653 0.22247 0.55138
 H3083 H 0.16951 0.20484 0.59354
 H3084 H 0.20881 0.17387 0.59837
 H3085 H 0.25088 0.21641 0.55366
 H3086 H 0.21115 0.23902 0.53329
 H3087 H 0.18314 0.21859 0.57309
 H3088 H 0.19411 0.22414 0.55052
   
