data_POSCAR
  _audit_creation_date              2014-09-24
  _audit_creation_method            'ToBaCCo'
  _symmetry_space_group_name_H-M    'P1'
  _symmetry_Int_Tables_number       1
  _symmetry_cell_setting            triclinic
  loop_
  _symmetry_equiv_pos_as_xyz
 x,y,z
_cell_length_a 62.5423
_cell_length_b 58.7339
_cell_length_c 59.0776
_cell_angle_alpha 90.182400
_cell_angle_beta 90.209100
_cell_angle_gamma 89.828500
loop_
  _atom_site_label
  _atom_site_type_symbol
  _atom_site_fract_x
  _atom_site_fract_y
  _atom_site_fract_z
C1 C 0.35875 0.29742 0.01852
 C2 C 0.36899 0.29138 -0.00152
 C3 C 0.36569 0.30328 -0.02194
 C4 C 0.35140 0.32232 -0.02179
 C5 C 0.34007 0.32787 -0.00163
 C6 C 0.34356 0.31510 0.01840
 C7 C 0.33188 0.32036 0.03799
 C8 C 0.31803 0.33878 0.03847
 C9 C 0.31532 0.35262 0.01936
 C10 C 0.32595 0.34691 -0.00109
 C11 C 0.34950 0.33722 -0.04034
 C12 C 0.33563 0.35585 -0.03982
 C13 C 0.32307 0.36064 -0.02066
 C14 C 0.30919 0.37993 -0.01967
 C15 C 0.29937 0.38533 0.00105
 C16 C 0.30224 0.37210 0.02031
 H17 H 0.33340 0.31030 0.05322
 H18 H 0.30963 0.34220 0.05411
 H19 H 0.35937 0.33531 -0.05519
 H20 H 0.33555 0.36699 -0.05435
 H21 H 0.37975 0.27688 -0.00101
 H22 H 0.28851 0.39974 0.00221
 C23 C 0.71352 0.64326 0.01549
 C24 C 0.72024 0.63391 -0.00506
 C25 C 0.70993 0.63894 -0.02552
 C26 C 0.69207 0.65392 -0.02549
 C27 C 0.68523 0.66389 -0.00479
 C28 C 0.69610 0.65865 0.01573
 C29 C 0.68961 0.66931 0.03588
 C30 C 0.67216 0.68397 0.03618
 C31 C 0.66054 0.68863 0.01634
 C32 C 0.66749 0.67915 -0.00455
 C33 C 0.68096 0.65932 -0.04548
 C34 C 0.66330 0.67384 -0.04519
 C35 C 0.65660 0.68462 -0.02509
 C36 C 0.63858 0.69960 -0.02451
 C37 C 0.63183 0.70801 -0.00338
 C38 C 0.64234 0.70284 0.01681
 H39 H 0.69803 0.66653 0.05166
 H40 H 0.66800 0.69177 0.05218
 H41 H 0.68567 0.65220 -0.06162
 H42 H 0.65475 0.67609 -0.06095
 H43 H 0.73356 0.62202 -0.00505
 H44 H 0.61833 0.71961 -0.00249
 C45 C 0.61924 0.31783 1.02590
 C46 C 0.61495 0.30459 1.00667
 C47 C 0.62431 0.30923 0.98581
 C48 C 0.63909 0.32725 0.98406
 C49 C 0.64377 0.34085 1.00339
 C50 C 0.63368 0.33628 1.02436
 C51 C 0.63774 0.35071 1.04288
 C52 C 0.65206 0.36876 1.04112
 C53 C 0.66319 0.37293 1.02088
 C54 C 0.65835 0.35925 1.00159
 C55 C 0.64946 0.33183 0.96354
 C56 C 0.66347 0.34998 0.96170
 C57 C 0.66788 0.36402 0.98040
 C58 C 0.68174 0.38268 0.97841
 C59 C 0.68638 0.39604 0.99727
 C60 C 0.67793 0.39129 1.01878
 H61 H 0.62960 0.34841 1.05883
 H62 H 0.65384 0.37978 1.05569
 H63 H 0.64688 0.32141 0.94865
 H64 H 0.67081 0.35291 0.94541
 H65 H 0.60375 0.29057 1.00786
 H66 H 0.69800 0.40956 0.99524
 C67 C 0.37295 0.68711 0.98444
 C68 C 0.38123 0.69096 1.00610
 C69 C 0.36916 0.68658 1.02564
 C70 C 0.34882 0.67594 1.02329
 C71 C 0.34085 0.67058 1.00137
 C72 C 0.35277 0.67666 0.98191
 C73 C 0.34426 0.67214 0.96034
 C74 C 0.32443 0.66186 0.95784
 C75 C 0.31254 0.65513 0.97679
 C76 C 0.32076 0.65945 0.99883
 C77 C 0.33661 0.66970 1.04223
 C78 C 0.31687 0.65904 1.03976
 C79 C 0.30883 0.65301 1.01828
 C80 C 0.28863 0.64206 1.01553
 C81 C 0.28073 0.63875 0.99345
 C82 C 0.29238 0.64469 0.97425
 H83 H 0.35289 0.67650 0.94512
 H84 H 0.31849 0.65934 0.94080
 H85 H 0.34224 0.67281 1.05928
 H86 H 0.30787 0.65598 1.05502
 H87 H 0.39647 0.69964 1.00762
 H88 H 0.26570 0.62989 0.99092
 C89 C 0.01710 0.28460 0.35175
 C90 C -0.00187 0.27626 0.36091
 C91 C -0.02204 0.28483 0.35472
 C92 C -0.02308 0.30219 0.33793
 C93 C -0.00387 0.31112 0.32863
 C94 C 0.01627 0.30227 0.33558
 C95 C 0.03497 0.31055 0.32543
 C96 C 0.03404 0.32719 0.30875
 C97 C 0.01436 0.33624 0.30152
 C98 C -0.00483 0.32819 0.31152
 C99 C -0.04269 0.30927 0.32854
 C100 C -0.04363 0.32594 0.31193
 C101 C -0.02500 0.33635 0.30371
 C102 C -0.02588 0.35304 0.28629
 C103 C -0.00665 0.36031 0.27653
 C104 C 0.01327 0.35236 0.28382
 H105 H 0.05055 0.30386 0.32992
 H106 H 0.04893 0.33252 0.30120
 H107 H -0.05760 0.30135 0.33318
 H108 H -0.05920 0.32980 0.30493
 H109 H -0.00068 0.26331 0.37393
 H110 H -0.00701 0.37328 0.26349
 C111 C 0.01696 0.63838 0.70881
 C112 C -0.00152 0.62612 0.71356
 C113 C -0.02095 0.63003 0.70211
 C114 C -0.02143 0.64668 0.68463
 C115 C -0.00292 0.65993 0.68027
 C116 C 0.01630 0.65579 0.69247
 C117 C 0.03435 0.66920 0.68812
 C118 C 0.03387 0.68584 0.67150
 C119 C 0.01530 0.68970 0.65862
 C120 C -0.00341 0.67697 0.66322
 C121 C -0.03916 0.64915 0.67010
 C122 C -0.03965 0.66582 0.65345
 C123 C -0.02240 0.68081 0.65044
 C124 C -0.02285 0.69821 0.63369
 C125 C -0.00388 0.71019 0.62932
 C126 C 0.01498 0.70606 0.64126
 H127 H 0.04907 0.66700 0.69757
 H128 H 0.04825 0.69568 0.66886
 H129 H -0.05264 0.63772 0.67089
 H130 H -0.05349 0.66627 0.64245
 H131 H -0.00071 0.61363 0.72702
 H132 H -0.00377 0.72367 0.61681
 C133 C 1.02146 0.64432 0.29196
 C134 C 1.00280 0.63556 0.28227
 C135 C 0.98258 0.64329 0.28878
 C136 C 0.98083 0.66019 0.30582
 C137 C 0.99967 0.66924 0.31588
 C138 C 1.02004 0.66153 0.30863
 C139 C 1.03844 0.67197 0.31740
 C140 C 1.03695 0.68917 0.33353
 C141 C 1.01704 0.69609 0.34231
 C142 C 0.99815 0.68653 0.33272
 C143 C 0.96087 0.66888 0.31245
 C144 C 0.95935 0.68574 0.32894
 C145 C 0.97774 0.69467 0.33940
 C146 C 0.97628 0.71215 0.35577
 C147 C 0.99491 0.72146 0.36500
 C148 C 1.01536 0.71353 0.35906
 H149 H 1.05421 0.66738 0.31142
 H150 H 1.05168 0.69737 0.33848
 H151 H 0.94618 0.66300 0.30471
 H152 H 0.94356 0.69203 0.33307
 H153 H 1.00405 0.62241 0.26939
 H154 H 0.99324 0.73428 0.37815
 C155 C 0.98928 0.27883 0.64815
 C156 C 1.00881 0.27104 0.63969
 C157 C 1.02829 0.27978 0.64737
 C158 C 1.02835 0.29725 0.66392
 C159 C 1.00865 0.30555 0.67261
 C160 C 0.98904 0.29611 0.66487
 C161 C 0.96981 0.30349 0.67470
 C162 C 0.96977 0.31984 0.69177
 C163 C 0.98891 0.32976 0.69945
 C164 C 1.00858 0.32269 0.68971
 C165 C 1.04755 0.30581 0.67283
 C166 C 1.04749 0.32266 0.68942
 C167 C 1.02823 0.33202 0.69763
 C168 C 1.02805 0.34903 0.71490
 C169 C 1.00837 0.35506 0.72469
 C170 C 0.98899 0.34585 0.71727
 H171 H 0.95461 0.29630 0.66966
 H172 H 0.95451 0.32436 0.69912
 H173 H 1.06287 0.29920 0.66743
 H174 H 1.06282 0.32761 0.69629
 H175 H 1.00885 0.25770 0.62692
 H176 H 1.00783 0.36811 0.73772
 C177 C 0.30029 -0.02202 0.36767
 C178 C 0.29275 0.00033 0.37100
 C179 C 0.30238 0.01919 0.36106
 C180 C 0.32000 0.01597 0.34658
 C181 C 0.32830 -0.00630 0.34302
 C182 C 0.31862 -0.02537 0.35369
 C183 C 0.32866 -0.04678 0.35148
 C184 C 0.34632 -0.04985 0.33754
 C185 C 0.35542 -0.03148 0.32591
 C186 C 0.34680 -0.00934 0.32937
 C187 C 0.32943 0.03445 0.33545
 C188 C 0.34742 0.03144 0.32205
 C189 C 0.35678 0.00982 0.31938
 C190 C 0.37575 0.00682 0.30678
 C191 C 0.38424 -0.01501 0.30389
 C192 C 0.37399 -0.03436 0.31242
 H193 H 0.32352 -0.06139 0.36103
 H194 H 0.35335 -0.06669 0.33673
 H195 H 0.32297 0.05150 0.33700
 H196 H 0.35393 0.04632 0.31389
 H197 H 0.27876 0.00331 0.38141
 H198 H 0.39843 -0.01700 0.29354
 C199 C 0.63528 -0.01693 0.70695
 C200 C 0.63009 0.00484 0.71541
 C201 C 0.64111 0.02437 0.70902
 C202 C 0.65820 0.02271 0.69370
 C203 C 0.66377 0.00119 0.68448
 C204 C 0.65221 -0.01870 0.69081
 C205 C 0.65718 -0.03934 0.67977
 C206 C 0.67434 -0.04099 0.66488
 C207 C 0.68651 -0.02179 0.65926
 C208 C 0.68091 -0.00038 0.66876
 C209 C 0.67003 0.04205 0.68765
 C210 C 0.68698 0.04042 0.67259
 C211 C 0.69257 0.01946 0.66276
 C212 C 0.70987 0.01768 0.64749
 C213 C 0.71552 -0.00366 0.63886
 C214 C 0.70422 -0.02335 0.64449
 H215 H 0.64772 -0.05448 0.68217
 H216 H 0.67781 -0.05753 0.65766
 H217 H 0.66641 0.05865 0.69469
 H218 H 0.69576 0.05580 0.66890
 H219 H 0.61778 0.00676 0.72816
 H220 H 0.72889 -0.00496 0.62727
 C221 C 0.30047 1.01755 0.62871
 C222 C 0.28969 0.99668 0.62644
 C223 C 0.29335 0.97845 0.64096
 C224 C 0.30849 0.98046 0.65849
 C225 C 0.31981 1.00120 0.66131
 C226 C 0.31592 1.01985 0.64641
 C227 C 0.32876 1.03939 0.64870
 C228 C 0.34372 1.04137 0.66614
 C229 C 0.34697 1.02363 0.68168
 C230 C 0.33539 1.00305 0.67880
 C231 C 0.31254 0.96225 0.67327
 C232 C 0.32787 0.96404 0.69024
 C233 C 0.33967 0.98414 0.69312
 C234 C 0.35551 0.98590 0.71013
 C235 C 0.36598 1.00660 0.71339
 C236 C 0.36210 1.02545 0.69949
 H237 H 0.32783 1.05321 0.63672
 H238 H 0.35310 1.05679 0.66696
 H239 H 0.30391 0.94636 0.67178
 H240 H 0.33028 0.94953 0.70121
 H241 H 0.27747 0.99466 0.61350
 H242 H 0.37781 1.00789 0.72682
 C243 C 0.69173 1.02405 0.36877
 C244 C 0.69894 1.00275 0.37649
 C245 C 0.69283 0.98237 0.36628
 C246 C 0.67843 0.98267 0.34793
 C247 C 0.67023 1.00377 0.34003
 C248 C 0.67697 1.02457 0.35030
 C249 C 0.66793 1.04503 0.34245
 C250 C 0.65402 1.04534 0.32404
 C251 C 0.64702 1.02505 0.31367
 C252 C 0.65530 1.00402 0.32177
 C253 C 0.67245 0.96243 0.33696
 C254 C 0.65809 0.96271 0.31901
 C255 C 0.64892 0.98320 0.31147
 C256 C 0.63398 0.98341 0.29344
 C257 C 0.62693 1.00428 0.28490
 C258 C 0.63291 1.02513 0.29471
 H259 H 0.67133 1.06116 0.35048
 H260 H 0.64900 1.06185 0.31804
 H261 H 0.67896 0.94613 0.34204
 H262 H 0.65450 0.94663 0.31087
 H263 H 0.71066 1.00187 0.39007
 H264 H 0.61532 1.00421 0.27119
 O265 O 0.82538 0.85412 0.52561
 O266 O 0.85139 0.83122 0.47493
 O267 O 0.82189 0.86029 0.48176
 O268 O 0.85534 0.82367 0.51704
 O269 O 0.83025 0.79726 0.51730
 O270 O 0.79772 0.83311 0.47886
 O271 O 0.82811 0.80301 0.47386
 O272 O 0.79990 0.82834 0.52277
 Cu273 Cu 0.84077 0.84521 0.50045
 Cu274 Cu 0.81142 0.81275 0.49821
 C275 C 0.80796 0.84563 0.53252
 C276 C 0.84452 0.81297 0.46599
 C277 C 0.80454 0.85273 0.47351
 C278 C 0.84890 0.80401 0.52255
 O279 O 0.18914 0.15269 0.51217
 O280 O 0.15501 0.18503 0.47300
 O281 O 0.18420 0.15441 0.46894
 O282 O 0.15869 0.18309 0.51695
 O283 O 0.18188 0.21124 0.51488
 O284 O 0.20957 0.18046 0.46858
 O285 O 0.17950 0.21192 0.47101
 O286 O 0.21259 0.18073 0.51278
 Cu287 Cu 0.16930 0.16616 0.49306
 Cu288 Cu 0.19836 0.19882 0.49170
 C289 C 0.20670 0.16107 0.51905
 C290 C 0.16149 0.20386 0.46508
 C291 C 0.20140 0.16222 0.46076
 C292 C 0.16548 0.20227 0.52379
 O293 O 0.14509 0.82130 0.52992
 O294 O 0.17339 0.85889 0.49121
 O295 O 0.14153 0.83024 0.48698
 O296 O 0.17620 0.84944 0.53341
 O297 O 0.19969 0.82261 0.52498
 O298 O 0.16375 0.80193 0.47972
 O299 O 0.19565 0.83111 0.48209
 O300 O 0.16803 0.79360 0.52278
 Cu301 Cu 0.15665 0.84268 0.51096
 Cu302 Cu 0.18403 0.80947 0.50149
 C303 C 0.15182 0.80121 0.53333
 C304 C 0.18965 0.85174 0.48052
 C305 C 0.14640 0.81252 0.47575
 C306 C 0.19401 0.83962 0.53692
 O307 O 0.85411 0.17503 0.52699
 O308 O 0.82102 0.14095 0.48849
 O309 O 0.85412 0.16812 0.48326
 O310 O 0.82261 0.14737 0.53113
 O311 O 0.79941 0.17534 0.52617
 O312 O 0.83282 0.19789 0.47971
 O313 O 0.79966 0.17039 0.48258
 O314 O 0.83172 0.20392 0.52347
 Cu315 Cu 0.84036 0.15510 0.50761
 Cu316 Cu 0.81376 0.18988 0.50250
 C317 C 0.84842 0.19515 0.53218
 C318 C 0.80437 0.14956 0.47957
 C319 C 0.84928 0.18673 0.47361
 C320 C 0.80530 0.15733 0.53643
 O321 O 0.47100 0.85421 0.82584
 O322 O 0.51253 0.82617 0.85990
 O323 O 0.51180 0.85920 0.82898
 O324 O 0.47164 0.82317 0.85607
 O325 O 0.47706 0.79642 0.83032
 O326 O 0.51673 0.83351 0.80211
 O327 O 0.51826 0.80103 0.83268
 O328 O 0.47537 0.82839 0.79902
 Cu329 Cu 0.49166 0.84334 0.84542
 Cu330 Cu 0.49738 0.81229 0.81331
 C331 C 0.46596 0.84605 0.80663
 C332 C 0.52191 0.80844 0.85252
 C333 C 0.52045 0.85303 0.81054
 C334 C 0.46760 0.80361 0.84801
 O335 O 0.50953 0.18264 0.13941
 O336 O 0.47972 0.13903 0.17030
 O337 O 0.47026 0.17074 0.14223
 O338 O 0.52003 0.14920 0.16675
 O339 O 0.51599 0.17147 0.19658
 O340 O 0.46748 0.19583 0.17000
 O341 O 0.47534 0.16300 0.19876
 O342 O 0.50802 0.20559 0.16910
 Cu343 Cu 0.49548 0.15799 0.15185
 Cu344 Cu 0.49143 0.18637 0.18656
 C345 C 0.51356 0.20161 0.14884
 C346 C 0.47206 0.14370 0.18966
 C347 C 0.46057 0.18725 0.15156
 C348 C 0.52621 0.15598 0.18610
 O349 O 0.52794 0.16038 0.81165
 O350 O 0.48511 0.18233 0.84743
 O351 O 0.48757 0.15226 0.81386
 O352 O 0.52529 0.18925 0.84370
 O353 O 0.51906 0.21664 0.81901
 O354 O 0.47990 0.17970 0.78965
 O355 O 0.47830 0.20984 0.82305
 O356 O 0.52093 0.18663 0.78596
 Cu357 Cu 0.50676 0.16819 0.83162
 Cu358 Cu 0.49874 0.20090 0.80187
 C359 C 0.53183 0.16963 0.79275
 C360 C 0.47522 0.20044 0.84210
 C361 C 0.47783 0.15930 0.79634
 C362 C 0.52870 0.20924 0.83652
 O363 O 0.47558 0.80390 0.15858
 O364 O 0.51547 0.84426 0.18041
 O365 O 0.51542 0.81316 0.14949
 O366 O 0.47619 0.83468 0.19078
 O367 O 0.48749 0.80917 0.21554
 O368 O 0.52657 0.78762 0.17423
 O369 O 0.52642 0.81888 0.20545
 O370 O 0.48711 0.77785 0.18263
 Cu371 Cu 0.49438 0.82647 0.16736
 Cu372 Cu 0.50776 0.79569 0.19700
 C373 C 0.47501 0.78380 0.16633
 C374 C 0.52771 0.83856 0.19665
 C375 C 0.52783 0.79684 0.15488
 C376 C 0.47579 0.82611 0.21048
 O377 O 0.85864 0.50494 0.82260
 O378 O 0.82358 0.46615 0.85300
 O379 O 0.85332 0.46202 0.82322
 O380 O 0.82875 0.51035 0.85311
 O381 O 0.80368 0.51277 0.82684
 O382 O 0.83007 0.46607 0.79529
 O383 O 0.79950 0.46869 0.82571
 O384 O 0.83404 0.50985 0.79611
 Cu385 Cu 0.84334 0.48572 0.84089
 Cu386 Cu 0.81429 0.48972 0.80833
 C387 C 0.85270 0.51343 0.80389
 C388 C 0.80572 0.46048 0.84450
 C389 C 0.84640 0.45628 0.80380
 C390 C 0.81186 0.51957 0.84537
 O391 O 0.17219 0.47552 0.14705
 O392 O 0.14536 0.52373 0.17383
 O393 O 0.17598 0.51944 0.14485
 O394 O 0.14259 0.47957 0.17732
 O395 O 0.16660 0.47942 0.20477
 O396 O 0.20003 0.51927 0.17227
 O397 O 0.16893 0.52362 0.20174
 O398 O 0.19672 0.47530 0.17401
 Cu399 Cu 0.15660 0.49957 0.15809
 Cu400 Cu 0.18546 0.49936 0.19101
 C401 C 0.18916 0.46734 0.15560
 C402 C 0.15239 0.53196 0.19226
 C403 C 0.19379 0.52606 0.15294
 C404 C 0.14889 0.47268 0.19661
 O405 O 0.84426 0.47914 0.17563
 O406 O 0.81467 0.52859 0.15496
 O407 O 0.84616 0.52298 0.18257
 O408 O 0.81055 0.48558 0.14981
 O409 O 0.79000 0.48101 0.17980
 O410 O 0.82392 0.52140 0.21142
 O411 O 0.79148 0.52510 0.18282
 O412 O 0.82386 0.47732 0.20593
 Cu413 Cu 0.83120 0.50412 0.16293
 Cu414 Cu 0.80519 0.50098 0.19801
 C415 C 0.83962 0.47003 0.19441
 C416 C 0.79767 0.53489 0.16477
 C417 C 0.84097 0.52886 0.20252
 C418 C 0.79405 0.47723 0.15910
 O419 O 0.19114 0.53002 0.83841
 O420 O 0.15814 0.48214 0.81988
 O421 O 0.19266 0.48693 0.84471
 O422 O 0.15834 0.52585 0.81249
 O423 O 0.17952 0.52210 0.78293
 O424 O 0.21211 0.48010 0.81427
 O425 O 0.17758 0.47812 0.78904
 O426 O 0.21323 0.52405 0.80988
 Cu427 Cu 0.17289 0.50652 0.83178
 Cu428 Cu 0.19762 0.50062 0.79593
 C429 C 0.20812 0.53482 0.82781
 C430 C 0.16179 0.47221 0.80117
 C431 C 0.20837 0.47714 0.83515
 C432 C 0.16324 0.53098 0.79231
 C433 C 0.29191 0.39882 0.07742
 C434 C 0.26936 0.39729 0.07927
 C435 C 0.25815 0.38584 0.06167
 C436 C 0.26910 0.37700 0.04292
 C437 C 0.29121 0.37940 0.04117
 C438 C 0.30259 0.39004 0.05859
 C439 C 0.23602 0.38374 0.06254
 C440 C 0.22443 0.39394 0.07977
 C441 C 0.23461 0.40680 0.09692
 C442 C 0.25748 0.40752 0.09734
 C443 C 0.26765 0.41894 0.11547
 C444 C 0.25595 0.43081 0.13162
 C445 C 0.23372 0.43192 0.13031
 C446 C 0.22266 0.41955 0.11325
 C447 C 0.20010 0.42149 0.11253
 C448 C 0.18929 0.43615 0.12712
 C449 C 0.20041 0.44910 0.14319
 C450 C 0.22255 0.44622 0.14534
 H451 H 0.30175 0.40728 0.08983
 H452 H 0.26037 0.36873 0.02930
 H453 H 0.31976 0.39202 0.05731
 H454 H 0.22745 0.37455 0.04941
 H455 H 0.20740 0.39154 0.07900
 H456 H 0.28475 0.41928 0.11759
 H457 H 0.26449 0.43986 0.14487
 H458 H 0.19031 0.41277 0.10027
 H459 H 0.17212 0.43791 0.12531
 H460 H 0.23128 0.45625 0.15772
 C461 C 0.75840 0.63103 0.05671
 C462 C 0.74820 0.61799 0.07368
 C463 C 0.72578 0.61483 0.07175
 C464 C 0.71441 0.62376 0.05320
 C465 C 0.72498 0.63599 0.03631
 C466 C 0.74695 0.63971 0.03834
 C467 C 0.71488 0.60224 0.08800
 C468 C 0.72580 0.59181 0.10569
 C469 C 0.74824 0.59347 0.10784
 C470 C 0.75955 0.60729 0.09191
 C471 C 0.78193 0.60934 0.09430
 C472 C 0.79311 0.59704 0.11046
 C473 C 0.78252 0.58246 0.12515
 C474 C 0.75989 0.58105 0.12477
 C475 C 0.75009 0.56648 0.14079
 C476 C 0.76237 0.55262 0.15509
 C477 C 0.78470 0.55289 0.15393
 C478 C 0.79462 0.56854 0.13959
 H479 H 0.77529 0.63449 0.05674
 H480 H 0.69739 0.62066 0.05148
 H481 H 0.75537 0.64909 0.02538
 H482 H 0.69772 0.60001 0.08675
 H483 H 0.71615 0.58207 0.11716
 H484 H 0.79151 0.61995 0.08356
 H485 H 0.81039 0.59853 0.11106
 H486 H 0.73301 0.56480 0.14225
 H487 H 0.75435 0.54071 0.16613
 H488 H 0.81194 0.56910 0.13888
 C489 C 0.69484 0.40875 0.92191
 C490 C 0.71670 0.40282 0.91931
 C491 C 0.72610 0.38857 0.93599
 C492 C 0.71420 0.38118 0.95459
 C493 C 0.69299 0.38804 0.95723
 C494 C 0.68325 0.40151 0.94071
 C495 C 0.74754 0.38234 0.93449
 C496 C 0.76042 0.39128 0.91771
 C497 C 0.75226 0.40680 0.90165
 C498 C 0.72979 0.41145 0.90150
 C499 C 0.72133 0.42498 0.88388
 C500 C 0.73456 0.43519 0.86806
 C501 C 0.75670 0.43269 0.86941
 C502 C 0.76589 0.41826 0.88606
 C503 C 0.78846 0.41696 0.88727
 C504 C 0.80121 0.43009 0.87318
 C505 C 0.79203 0.44466 0.85716
 C506 C 0.76976 0.44533 0.85482
 H507 H 0.68645 0.41971 0.91027
 H508 H 0.72164 0.37077 0.96757
 H509 H 0.66680 0.40697 0.94274
 H510 H 0.75463 0.37095 0.94685
 H511 H 0.77682 0.38565 0.91783
 H512 H 0.70445 0.42808 0.88186
 H513 H 0.72740 0.44585 0.85512
 H514 H 0.79685 0.40684 0.89963
 H515 H 0.81842 0.42923 0.87521
 H516 H 0.76255 0.45674 0.84254
 C517 C 0.25208 0.63849 0.92697
 C518 C 0.26123 0.62114 0.91334
 C519 C 0.28232 0.61391 0.91868
 C520 C 0.29290 0.62248 0.93793
 C521 C 0.28296 0.63857 0.95194
 C522 C 0.26275 0.64686 0.94600
 C523 C 0.29243 0.59754 0.90532
 C524 C 0.28177 0.58728 0.88734
 C525 C 0.26026 0.59266 0.88225
 C526 C 0.24990 0.61008 0.89530
 C527 C 0.22819 0.61497 0.89074
 C528 C 0.21656 0.60230 0.87519
 C529 C 0.22615 0.58466 0.86310
 C530 C 0.24835 0.58027 0.86551
 C531 C 0.25736 0.56293 0.85169
 C532 C 0.24443 0.54920 0.83793
 C533 C 0.22227 0.55235 0.83752
 C534 C 0.21337 0.57068 0.84938
 H535 H 0.23654 0.64573 0.92372
 H536 H 0.30854 0.61595 0.94258
 H537 H 0.25491 0.65943 0.95659
 H538 H 0.30865 0.59219 0.90913
 H539 H 0.29062 0.57440 0.87832
 H540 H 0.21930 0.62789 0.89963
 H541 H 0.19968 0.60599 0.87305
 H542 H 0.27421 0.55915 0.85154
 H543 H 0.25165 0.53520 0.82869
 H544 H 0.19621 0.57342 0.84874
 C545 C 0.05704 0.23891 0.36690
 C546 C 0.07155 0.25054 0.38127
 C547 C 0.06937 0.27453 0.38316
 C548 C 0.05220 0.28590 0.37256
 C549 C 0.03726 0.27376 0.35962
 C550 C 0.04015 0.25036 0.35645
 C551 C 0.08391 0.28693 0.39617
 C552 C 0.10034 0.27606 0.40786
 C553 C 0.10255 0.25212 0.40752
 C554 C 0.08775 0.23914 0.39420
 C555 C 0.08896 0.21514 0.39509
 C556 C 0.10376 0.20415 0.40877
 C557 C 0.11833 0.21650 0.42173
 C558 C 0.11850 0.24062 0.42079
 C559 C 0.13449 0.25213 0.43345
 C560 C 0.14885 0.24016 0.44725
 C561 C 0.14765 0.21645 0.44905
 C562 C 0.13256 0.20473 0.43595
 H563 H 0.05811 0.22093 0.36348
 H564 H 0.04997 0.30405 0.37506
 H565 H 0.02883 0.24077 0.34632
 H566 H 0.08244 0.30528 0.39754
 H567 H 0.11058 0.28693 0.41779
 H568 H 0.07809 0.20420 0.38604
 H569 H 0.10367 0.18570 0.40933
 H570 H 0.13640 0.27034 0.43304
 H571 H 0.16055 0.24958 0.45704
 H572 H 0.13184 0.18630 0.43688
 C573 C 0.05096 0.75564 0.62852
 C574 C 0.06775 0.74526 0.61610
 C575 C 0.06752 0.72120 0.61385
 C576 C 0.05087 0.70837 0.62322
 C577 C 0.03408 0.71914 0.63459
 C578 C 0.03436 0.74272 0.63743
 C579 C 0.08345 0.71012 0.60156
 C580 C 0.09903 0.72242 0.59029
 C581 C 0.09939 0.74645 0.59101
 C582 C 0.08407 0.75798 0.60497
 C583 C 0.08525 0.78190 0.60686
 C584 C 0.09964 0.79434 0.59419
 C585 C 0.11354 0.78351 0.57925
 C586 C 0.11413 0.75941 0.57780
 C587 C 0.12895 0.74947 0.56252
 C588 C 0.14176 0.76299 0.54865
 C589 C 0.14021 0.78673 0.54952
 C590 C 0.12648 0.79683 0.56530
 H591 H 0.04964 0.77375 0.63099
 H592 H 0.05042 0.69005 0.62084
 H593 H 0.02133 0.75124 0.64609
 H594 H 0.08352 0.69172 0.60008
 H595 H 0.11049 0.71250 0.58090
 H596 H 0.07508 0.79171 0.61788
 H597 H 0.09953 0.81274 0.59573
 H598 H 0.13066 0.73135 0.56037
 H599 H 0.15237 0.75479 0.53665
 H600 H 0.12545 0.81524 0.56638
 C601 C 0.92413 0.71539 0.38780
 C602 C 0.91912 0.73892 0.38671
 C603 C 0.93268 0.75303 0.37364
 C604 C 0.95057 0.74389 0.36258
 C605 C 0.95562 0.72079 0.36454
 C606 C 0.94221 0.70659 0.37700
 C607 C 0.92879 0.77634 0.37227
 C608 C 0.91259 0.78637 0.38482
 C609 C 0.89946 0.77334 0.39918
 C610 C 0.90187 0.74910 0.39903
 C611 C 0.88722 0.73596 0.41154
 C612 C 0.87186 0.74616 0.42518
 C613 C 0.87069 0.76979 0.42721
 C614 C 0.88431 0.78377 0.41407
 C615 C 0.88300 0.80762 0.41734
 C616 C 0.86944 0.81697 0.43357
 C617 C 0.85642 0.80304 0.44682
 C618 C 0.85659 0.77950 0.44304
 H619 H 0.91500 0.70349 0.39763
 H620 H 0.96112 0.75490 0.35307
 H621 H 0.94614 0.68873 0.37899
 H622 H 0.93881 0.78710 0.36188
 H623 H 0.91077 0.80449 0.38284
 H624 H 0.88721 0.71763 0.41118
 H625 H 0.86124 0.73538 0.43485
 H626 H 0.89296 0.81952 0.40846
 H627 H 0.86953 0.83524 0.43616
 H628 H 0.84670 0.76859 0.45342
 C629 C 0.95039 0.23259 0.63217
 C630 C 0.93595 0.24395 0.61747
 C631 C 0.93816 0.26788 0.61515
 C632 C 0.95499 0.27947 0.62602
 C633 C 0.96971 0.26760 0.63945
 C634 C 0.96703 0.24425 0.64276
 C635 C 0.92397 0.28001 0.60148
 C636 C 0.90792 0.26893 0.58947
 C637 C 0.90561 0.24502 0.59033
 C638 C 0.91985 0.23234 0.60460
 C639 C 0.91809 0.20838 0.60488
 C640 C 0.90347 0.19709 0.59126
 C641 C 0.88971 0.20912 0.57707
 C642 C 0.89005 0.23326 0.57679
 C643 C 0.87500 0.24447 0.56264
 C644 C 0.86107 0.23214 0.54867
 C645 C 0.86172 0.20833 0.54825
 C646 C 0.87582 0.19697 0.56282
 H647 H 0.94953 0.21465 0.63568
 H648 H 0.95713 0.29759 0.62342
 H649 H 0.97824 0.23488 0.65324
 H650 H 0.92546 0.29831 0.59979
 H651 H 0.89794 0.27961 0.57906
 H652 H 0.92825 0.19760 0.61498
 H653 H 0.90310 0.17864 0.59166
 H654 H 0.87359 0.26273 0.56185
 H655 H 0.85014 0.24132 0.53772
 H656 H 0.87615 0.17851 0.56295
 C657 C 0.40702 0.06089 0.29639
 C658 C 0.40886 0.06102 0.27246
 C659 C 0.39955 0.04268 0.26029
 C660 C 0.38847 0.02547 0.27163
 C661 C 0.38668 0.02580 0.29519
 C662 C 0.39619 0.04344 0.30751
 C663 C 0.40142 0.04144 0.23684
 C664 C 0.41283 0.05770 0.22506
 C665 C 0.42265 0.07619 0.23629
 C666 C 0.41993 0.07838 0.26026
 C667 C 0.42812 0.09795 0.27114
 C668 C 0.43913 0.11450 0.25920
 C669 C 0.44282 0.11204 0.23607
 C670 C 0.43489 0.09274 0.22429
 C671 C 0.43991 0.09061 0.20103
 C672 C 0.45190 0.10714 0.18998
 C673 C 0.45927 0.12640 0.20160
 C674 C 0.45461 0.12877 0.22467
 H675 H 0.41418 0.07368 0.30707
 H676 H 0.38132 0.01158 0.26214
 H677 H 0.39532 0.04361 0.32582
 H678 H 0.39414 0.02756 0.22747
 H679 H 0.41328 0.05549 0.20697
 H680 H 0.42594 0.10126 0.28892
 H681 H 0.44504 0.12928 0.26827
 H682 H 0.43526 0.07617 0.19090
 H683 H 0.45540 0.10479 0.17218
 H684 H 0.46049 0.14348 0.23390
 C685 C 0.63009 0.06882 0.75351
 C686 C 0.61649 0.08433 0.74198
 C687 C 0.61282 0.08058 0.71854
 C688 C 0.62195 0.06170 0.70750
 C689 C 0.63445 0.04610 0.71956
 C690 C 0.63873 0.04996 0.74244
 C691 C 0.59937 0.09514 0.70645
 C692 C 0.58834 0.11255 0.71733
 C693 C 0.59044 0.11621 0.74087
 C694 C 0.60553 0.10257 0.75316
 C695 C 0.60862 0.10710 0.77642
 C696 C 0.59595 0.12271 0.78781
 C697 C 0.57992 0.13465 0.77651
 C698 C 0.57738 0.13237 0.75275
 C699 C 0.56113 0.14559 0.74222
 C700 C 0.54709 0.15898 0.75505
 C701 C 0.54884 0.15961 0.77864
 C702 C 0.56581 0.14815 0.78913
 H703 H 0.63373 0.07015 0.77128
 H704 H 0.61854 0.05849 0.68976
 H705 H 0.64832 0.03790 0.75194
 H706 H 0.59679 0.09258 0.68847
 H707 H 0.57791 0.12263 0.70680
 H708 H 0.62049 0.09855 0.78654
 H709 H 0.59834 0.12495 0.80588
 H710 H 0.55828 0.14533 0.72423
 H711 H 0.53413 0.16784 0.74660
 H712 H 0.56746 0.14895 0.80740
 C713 C 0.37166 0.95130 0.76118
 C714 C 0.38319 0.93293 0.75139
 C715 C 0.38325 0.93119 0.72743
 C716 C 0.37303 0.94777 0.71406
 C717 C 0.36271 0.96637 0.72413
 C718 C 0.36179 0.96777 0.74771
 C719 C 0.39415 0.91339 0.71686
 C720 C 0.40585 0.89772 0.72942
 C721 C 0.40725 0.89929 0.75324
 C722 C 0.39530 0.91686 0.76445
 C723 C 0.39641 0.91824 0.78829
 C724 C 0.40959 0.90389 0.80069
 C725 C 0.42204 0.88740 0.78999
 C726 C 0.42070 0.88435 0.76621
 C727 C 0.43341 0.86685 0.75647
 C728 C 0.44750 0.85388 0.76967
 C729 C 0.44943 0.85786 0.79296
 C730 C 0.43624 0.87430 0.80304
 H731 H 0.37040 0.95390 0.77916
 H732 H 0.37397 0.94683 0.69575
 H733 H 0.35390 0.98210 0.75575
 H734 H 0.39402 0.91181 0.69857
 H735 H 0.41402 0.88479 0.71980
 H736 H 0.38759 0.93057 0.79802
 H737 H 0.41031 0.90603 0.81892
 H738 H 0.43319 0.86296 0.73865
 H739 H 0.45740 0.84117 0.76146
 H740 H 0.43734 0.87730 0.82113
 C741 C 0.60256 0.92839 0.28971
 C742 C 0.60105 0.92464 0.26606
 C743 C 0.61117 0.94052 0.25160
 C744 C 0.62283 0.95885 0.26065
 C745 C 0.62401 0.96236 0.28408
 C746 C 0.61359 0.94710 0.29845
 C747 C 0.60915 0.93839 0.22819
 C748 C 0.59647 0.92146 0.21871
 C749 C 0.58574 0.90549 0.23236
 C750 C 0.58915 0.90626 0.25631
 C751 C 0.58065 0.88858 0.26965
 C752 C 0.56831 0.87139 0.26012
 C753 C 0.56340 0.87146 0.23708
 C754 C 0.57182 0.88865 0.22287
 C755 C 0.56532 0.88873 0.19988
 C756 C 0.55117 0.87239 0.19149
 C757 C 0.54332 0.85520 0.20552
 C758 C 0.54972 0.85466 0.22825
 H759 H 0.59456 0.91779 0.30187
 H760 H 0.63050 0.97086 0.24941
 H761 H 0.61359 0.94997 0.31658
 H762 H 0.61705 0.95031 0.21703
 H763 H 0.59576 0.92103 0.20049
 H764 H 0.58367 0.88727 0.28757
 H765 H 0.56213 0.85817 0.27104
 H766 H 0.57024 0.90166 0.18813
 H767 H 0.54631 0.87324 0.17389
 H768 H 0.54337 0.84164 0.23931
 C769 C 0.37811 0.28273 0.91926
 C770 C 0.39908 0.27397 0.92201
 C771 C 0.40882 0.27643 0.94356
 C772 C 0.39823 0.28767 0.96115
 C773 C 0.37709 0.29552 0.95869
 C774 C 0.36723 0.29296 0.93739
 C775 C 0.42895 0.26714 0.94778
 C776 C 0.43921 0.25419 0.93149
 C777 C 0.43002 0.25075 0.90993
 C778 C 0.41046 0.26215 0.90452
 C779 C 0.40325 0.26160 0.88183
 C780 C 0.41470 0.25002 0.86512
 C781 C 0.43299 0.23743 0.87062
 C782 C 0.44026 0.23686 0.89336
 C783 C 0.45730 0.22201 0.89882
 C784 C 0.46768 0.20955 0.88210
 C785 C 0.46172 0.21161 0.85934
 C786 C 0.44418 0.22543 0.85363
 H787 H 0.36927 0.28073 0.90368
 H788 H 0.40651 0.28995 0.97716
 H789 H 0.35063 0.29769 0.93497
 H790 H 0.43662 0.26932 0.96414
 H791 H 0.45479 0.24768 0.93601
 H792 H 0.38921 0.27079 0.87635
 H793 H 0.40893 0.25055 0.84780
 H794 H 0.46267 0.21929 0.91597
 H795 H 0.48103 0.19881 0.88699
 H796 H 0.43920 0.22672 0.83608
 C797 C 0.62587 0.72727 0.91992
 C798 C 0.60353 0.73088 0.92184
 C799 C 0.59318 0.72179 0.94106
 C800 C 0.60469 0.70951 0.95730
 C801 C 0.62705 0.70724 0.95613
 C802 C 0.63743 0.71601 0.93696
 C803 C 0.57147 0.72576 0.94462
 C804 C 0.56003 0.74000 0.93038
 C805 C 0.56973 0.75014 0.91144
 C806 C 0.59127 0.74408 0.90606
 C807 C 0.59963 0.75130 0.88510
 C808 C 0.58745 0.76446 0.87021
 C809 C 0.56703 0.77206 0.87622
 C810 C 0.55831 0.76570 0.89738
 C811 C 0.53870 0.77569 0.90400
 C812 C 0.52765 0.79032 0.88960
 C813 C 0.53548 0.79514 0.86802
 C814 C 0.55523 0.78604 0.86133
 H815 H 0.63504 0.73432 0.90621
 H816 H 0.59619 0.70243 0.97162
 H817 H 0.65470 0.71567 0.93580
 H818 H 0.56339 0.71846 0.95909
 H819 H 0.54332 0.74228 0.93425
 H820 H 0.61533 0.74631 0.87943
 H821 H 0.59430 0.76921 0.85408
 H822 H 0.53178 0.77299 0.92047
 H823 H 0.51248 0.79734 0.89510
 H824 H 0.56149 0.79011 0.84474
 C825 C 0.37423 0.72181 0.07784
 C826 C 0.39587 0.71818 0.08399
 C827 C 0.40742 0.70124 0.07201
 C828 C 0.39834 0.69046 0.05303
 C829 C 0.37717 0.69502 0.04642
 C830 C 0.36507 0.71033 0.05946
 C831 C 0.42815 0.69552 0.07866
 C832 C 0.43793 0.70656 0.09674
 C833 C 0.42769 0.72466 0.10821
 C834 C 0.40656 0.73103 0.10125
 C835 C 0.39740 0.75089 0.11070
 C836 C 0.40875 0.76449 0.12580
 C837 C 0.42921 0.75827 0.13300
 C838 C 0.43845 0.73757 0.12535
 C839 C 0.45835 0.73099 0.13483
 C840 C 0.46946 0.74545 0.14952
 C841 C 0.46122 0.76691 0.15502
 C842 C 0.44082 0.77300 0.14723
 H843 H 0.36397 0.73343 0.08691
 H844 H 0.40776 0.67836 0.04335
 H845 H 0.34878 0.71450 0.05465
 H846 H 0.43700 0.68241 0.06970
 H847 H 0.45413 0.70144 0.10047
 H848 H 0.38189 0.75717 0.10565
 H849 H 0.40148 0.78017 0.13178
 H850 H 0.46576 0.71481 0.13114
 H851 H 0.48511 0.74034 0.15561
 H852 H 0.43421 0.78946 0.15185
 C853 C 0.60835 0.29275 0.08354
 C854 C 0.58595 0.28924 0.08250
 C855 C 0.57471 0.29818 0.06360
 C856 C 0.58561 0.30967 0.04644
 C857 C 0.60789 0.31148 0.04693
 C858 C 0.61914 0.30343 0.06579
 C859 C 0.55282 0.29455 0.06119
 C860 C 0.54207 0.28047 0.07604
 C861 C 0.55280 0.26990 0.09425
 C862 C 0.57455 0.27590 0.09869
 C863 C 0.58415 0.26802 0.11887
 C864 C 0.57331 0.25353 0.13345
 C865 C 0.55292 0.24557 0.12799
 C866 C 0.54250 0.25342 0.10809
 C867 C 0.52266 0.24350 0.10214
 C868 C 0.51356 0.22667 0.11552
 C869 C 0.52358 0.21958 0.13544
 C870 C 0.54308 0.22928 0.14190
 H871 H 0.61814 0.28612 0.09705
 H872 H 0.57691 0.31577 0.03172
 H873 H 0.63644 0.30433 0.06625
 H874 H 0.54407 0.30186 0.04709
 H875 H 0.52519 0.27831 0.07298
 H876 H 0.60000 0.27308 0.12402
 H877 H 0.58131 0.24783 0.14874
 H878 H 0.51426 0.24762 0.08672
 H879 H 0.49853 0.21912 0.11029
 H880 H 0.55097 0.22343 0.15720
 C881 C 0.28205 0.04483 0.57542
 C882 C 0.27498 0.06641 0.58290
 C883 C 0.27995 0.07293 0.60542
 C884 C 0.28942 0.05723 0.62049
 C885 C 0.29470 0.03503 0.61326
 C886 C 0.29154 0.02953 0.59032
 C887 C 0.27475 0.09482 0.61293
 C888 C 0.26448 0.11026 0.59868
 C889 C 0.25808 0.10403 0.57655
 C890 C 0.26285 0.08147 0.56885
 C891 C 0.25433 0.07419 0.54788
 C892 C 0.24162 0.08841 0.53483
 C893 C 0.23746 0.11068 0.54167
 C894 C 0.24620 0.11918 0.56221
 C895 C 0.24263 0.14248 0.56740
 C896 C 0.23021 0.15631 0.55317
 C897 C 0.22063 0.14721 0.53373
 C898 C 0.22443 0.12446 0.52803
 H899 H 0.28052 0.03923 0.55810
 H900 H 0.29126 0.06186 0.63817
 H901 H 0.29624 0.01297 0.58383
 H902 H 0.27860 0.10007 0.63008
 H903 H 0.26080 0.12669 0.60588
 H904 H 0.25631 0.05711 0.54153
 H905 H 0.23498 0.08186 0.51913
 H906 H 0.24952 0.15058 0.58210
 H907 H 0.22769 0.17402 0.55762
 H908 H 0.21744 0.11757 0.51263
 C909 C 0.72091 0.07902 0.37774
 C910 C 0.72473 0.07859 0.40138
 C911 C 0.71577 0.06043 0.41385
 C912 C 0.70342 0.04376 0.40309
 C913 C 0.70051 0.04363 0.37948
 C914 C 0.70931 0.06165 0.36699
 C915 C 0.71978 0.05840 0.43698
 C916 C 0.73378 0.07309 0.44780
 C917 C 0.74382 0.09091 0.43599
 C918 C 0.73796 0.09482 0.41292
 C919 C 0.74547 0.11478 0.40234
 C920 C 0.75887 0.12995 0.41373
 C921 C 0.76621 0.12520 0.43559
 C922 C 0.75927 0.10518 0.44669
 C923 C 0.76866 0.09973 0.46780
 C924 C 0.78364 0.11405 0.47782
 C925 C 0.78948 0.13446 0.46747
 C926 C 0.78068 0.14011 0.44638
 H927 H 0.72782 0.09175 0.36692
 H928 H 0.69655 0.03023 0.41317
 H929 H 0.70852 0.06163 0.34868
 H930 H 0.71260 0.04480 0.44668
 H931 H 0.73605 0.07042 0.46570
 H932 H 0.74070 0.11945 0.38542
 H933 H 0.76402 0.14522 0.40510
 H934 H 0.76529 0.08412 0.47663
 H935 H 0.79043 0.10936 0.49406
 H936 H 0.78552 0.15575 0.43816
 C937 C 0.70931 0.92482 0.60666
 C938 C 0.73080 0.91806 0.61059
 C939 C 0.74248 0.92995 0.62750
 C940 C 0.73302 0.94787 0.63961
 C941 C 0.71214 0.95492 0.63478
 C942 C 0.70027 0.94316 0.61843
 C943 C 0.76385 0.92456 0.63165
 C944 C 0.77447 0.90878 0.61825
 C945 C 0.76395 0.89744 0.60032
 C946 C 0.74144 0.90090 0.59750
 C947 C 0.73048 0.88738 0.58146
 C948 C 0.74137 0.87227 0.56744
 C949 C 0.76360 0.87050 0.56840
 C950 C 0.77525 0.88302 0.58489
 C951 C 0.79785 0.88161 0.58437
 C952 C 0.80832 0.86886 0.56781
 C953 C 0.79672 0.85667 0.55154
 C954 C 0.77434 0.85700 0.55233
 H955 H 0.69943 0.91711 0.59380
 H956 H 0.74230 0.95723 0.65208
 H957 H 0.68424 0.94874 0.61416
 H958 H 0.77270 0.93323 0.64491
 H959 H 0.79099 0.90571 0.62247
 H960 H 0.71336 0.88800 0.57942
 H961 H 0.73233 0.86248 0.55513
 H962 H 0.80797 0.89108 0.59577
 H963 H 0.82564 0.86891 0.56744
 H964 H 0.76528 0.84788 0.53953
 C965 C 0.27172 0.92302 0.37865
 C966 C 0.26449 0.92618 0.40112
 C967 C 0.26949 0.94706 0.41195
 C968 C 0.28202 0.96337 0.40110
 C969 C 0.28925 0.96015 0.37881
 C970 C 0.28358 0.93985 0.36764
 C971 C 0.26179 0.95179 0.43356
 C972 C 0.24840 0.93664 0.44441
 C973 C 0.24275 0.91570 0.43431
 C974 C 0.25199 0.90974 0.41300
 C975 C 0.24883 0.88744 0.40465
 C976 C 0.23670 0.87166 0.41656
 C977 C 0.22640 0.87781 0.43661
 C978 C 0.22867 0.90023 0.44526
 C979 C 0.21639 0.90648 0.46434
 C980 C 0.20338 0.89074 0.47509
 C981 C 0.20230 0.86820 0.46745
 C982 C 0.21377 0.86178 0.44811
 H983 H 0.26763 0.90817 0.36879
 H984 H 0.28629 0.97875 0.41025
 H985 H 0.28758 0.93728 0.34999
 H986 H 0.26581 0.96762 0.44203
 H987 H 0.24333 0.94147 0.46117
 H988 H 0.25624 0.88142 0.38930
 H989 H 0.23508 0.85457 0.40980
 H990 H 0.21606 0.92357 0.47103
 H991 H 0.19447 0.89615 0.48986
 H992 H 0.21262 0.84444 0.44186
 C993 C 0.07861 0.38297 0.71462
 C994 C 0.08183 0.38757 0.73795
 C995 C 0.06695 0.37824 0.75337
 C996 C 0.04971 0.36509 0.74564
 C997 C 0.04660 0.36071 0.72247
 C998 C 0.06130 0.36991 0.70711
 C999 C 0.06910 0.38226 0.77650
 C1000 C 0.08526 0.39608 0.78479
 C1001 C 0.10011 0.40651 0.77019
 C1002 C 0.09885 0.40154 0.74646
 C1003 C 0.11458 0.41081 0.73210
 C1004 C 0.13039 0.42520 0.74039
 C1005 C 0.13113 0.43118 0.76324
 C1006 C 0.11607 0.42187 0.77852
 C1007 C 0.11725 0.42889 0.80144
 C1008 C 0.13239 0.44472 0.80865
 C1009 C 0.14705 0.45405 0.79346
 C1010 C 0.14658 0.44687 0.77081
 H1011 H 0.08877 0.38976 0.70163
 H1012 H 0.03870 0.35798 0.75787
 H1013 H 0.05892 0.36787 0.68904
 H1014 H 0.05794 0.37487 0.78839
 H1015 H 0.08566 0.39816 0.80289
 H1016 H 0.11518 0.40722 0.71423
 H1017 H 0.14198 0.43207 0.72865
 H1018 H 0.10638 0.42304 0.81423
 H1019 H 0.13239 0.44990 0.82627
 H1020 H 0.15777 0.45411 0.75885
 C1021 C 0.07296 0.61059 0.28965
 C1022 C 0.07843 0.61201 0.26642
 C1023 C 0.06550 0.62599 0.25235
 C1024 C 0.04764 0.63739 0.26114
 C1025 C 0.04205 0.63498 0.28386
 C1026 C 0.05495 0.62183 0.29812
 C1027 C 0.06998 0.62798 0.22938
 C1028 C 0.08612 0.61516 0.21957
 C1029 C 0.09851 0.59977 0.23246
 C1030 C 0.09554 0.59923 0.25646
 C1031 C 0.10946 0.58556 0.26954
 C1032 C 0.12464 0.57154 0.25942
 C1033 C 0.12630 0.57026 0.23592
 C1034 C 0.11342 0.58452 0.22208
 C1035 C 0.11513 0.58200 0.19833
 C1036 C 0.12839 0.56547 0.18889
 C1037 C 0.14069 0.55114 0.20263
 C1038 C 0.14014 0.55409 0.22614
 H1039 H 0.08169 0.60022 0.30153
 H1040 H 0.03753 0.64755 0.25012
 H1041 H 0.05064 0.61967 0.31573
 H1042 H 0.06049 0.63911 0.21869
 H1043 H 0.08845 0.61772 0.20172
 H1044 H 0.10900 0.58524 0.28776
 H1045 H 0.13467 0.56098 0.27013
 H1046 H 0.10572 0.59173 0.18650
 H1047 H 0.12865 0.56356 0.17064
 H1048 H 0.14951 0.54288 0.23688
 C1049 C 0.92177 0.38406 0.28507
 C1050 C 0.91865 0.38769 0.26156
 C1051 C 0.93389 0.37806 0.24661
 C1052 C 0.95166 0.36611 0.25494
 C1053 C 0.95488 0.36307 0.27827
 C1054 C 0.93956 0.37204 0.29319
 C1055 C 0.93163 0.38068 0.22332
 C1056 C 0.91505 0.39351 0.21436
 C1057 C 0.89997 0.40448 0.22843
 C1058 C 0.90140 0.40101 0.25239
 C1059 C 0.88582 0.41135 0.26634
 C1060 C 0.87005 0.42546 0.25739
 C1061 C 0.86911 0.42994 0.23424
 C1062 C 0.88383 0.41924 0.21936
 C1063 C 0.88220 0.42443 0.19602
 C1064 C 0.86735 0.44024 0.18810
 C1065 C 0.85336 0.45133 0.20294
 C1066 C 0.85391 0.44562 0.22596
 H1067 H 0.91110 0.39075 0.29772
 H1068 H 0.96311 0.35899 0.24308
 H1069 H 0.94185 0.37074 0.31133
 H1070 H 0.94306 0.37301 0.21181
 H1071 H 0.91471 0.39462 0.19620
 H1072 H 0.88548 0.40909 0.28441
 H1073 H 0.85871 0.43336 0.26885
 H1074 H 0.89249 0.41711 0.18338
 H1075 H 0.86715 0.44414 0.17018
 H1076 H 0.84315 0.45414 0.23762
 C1077 C 0.92397 0.61613 0.72229
 C1078 C 0.92636 0.59317 0.72904
 C1079 C 0.94645 0.58260 0.72537
 C1080 C 0.96313 0.59448 0.71512
 C1081 C 0.96092 0.61750 0.70917
 C1082 C 0.94103 0.62811 0.71283
 C1083 C 0.95012 0.56035 0.73252
 C1084 C 0.93477 0.54880 0.74473
 C1085 C 0.91484 0.55890 0.74969
 C1086 C 0.90992 0.58065 0.74023
 C1087 C 0.88880 0.58899 0.74223
 C1088 C 0.87328 0.57685 0.75393
 C1089 C 0.87848 0.55660 0.76501
 C1090 C 0.89956 0.54774 0.76354
 C1091 C 0.90480 0.52847 0.77671
 C1092 C 0.88951 0.51797 0.79006
 C1093 C 0.86845 0.52598 0.79048
 C1094 C 0.86289 0.54526 0.77785
 H1095 H 0.90950 0.62568 0.72530
 H1096 H 0.97815 0.58573 0.71206
 H1097 H 0.93892 0.64611 0.70956
 H1098 H 0.96530 0.55202 0.72930
 H1099 H 0.93878 0.53164 0.74964
 H1100 H 0.88365 0.60461 0.73435
 H1101 H 0.85720 0.58372 0.75485
 H1102 H 0.92076 0.52157 0.77768
 H1103 H 0.89412 0.50315 0.79984
 H1104 H 0.84664 0.55171 0.77850
 C1105 C 0.71536 0.59940 0.92388
 C1106 C 0.73746 0.60107 0.91884
 C1107 C 0.74979 0.61673 0.93168
 C1108 C 0.74024 0.63015 0.94856
 C1109 C 0.71855 0.62778 0.95378
 C1110 C 0.70620 0.61234 0.94129
 C1111 C 0.77176 0.61840 0.92821
 C1112 C 0.78211 0.60392 0.91319
 C1113 C 0.77074 0.58746 0.90057
 C1114 C 0.74792 0.58703 0.90234
 C1115 C 0.73641 0.57254 0.88761
 C1116 C 0.74685 0.55807 0.87256
 C1117 C 0.76913 0.55690 0.87207
 C1118 C 0.78143 0.57141 0.88623
 C1119 C 0.80393 0.56857 0.88614
 C1120 C 0.81366 0.55200 0.87265
 C1121 C 0.80146 0.53801 0.85844
 C1122 C 0.77920 0.54082 0.85793
 H1123 H 0.70497 0.58743 0.91550
 H1124 H 0.74994 0.64180 0.95848
 H1125 H 0.68956 0.60971 0.94554
 H1126 H 0.78120 0.63061 0.93771
 H1127 H 0.79911 0.60630 0.91155
 H1128 H 0.71919 0.57228 0.88705
 H1129 H 0.73734 0.54721 0.86163
 H1130 H 0.81442 0.57822 0.89700
 H1131 H 0.83088 0.55001 0.87345
 H1132 H 0.76961 0.52973 0.84728
 C1133 C 0.29289 0.43119 0.94808
 C1134 C 0.28384 0.42163 0.92832
 C1135 C 0.28725 0.39811 0.92423
 C1136 C 0.29707 0.38435 0.94081
 C1137 C 0.30389 0.39379 0.96153
 C1138 C 0.30247 0.41750 0.96438
 C1139 C 0.27996 0.38830 0.90409
 C1140 C 0.26882 0.40119 0.88818
 C1141 C 0.26374 0.42430 0.89225
 C1142 C 0.27104 0.43451 0.91289
 C1143 C 0.26420 0.45683 0.91820
 C1144 C 0.25055 0.46873 0.90401
 C1145 C 0.24368 0.45925 0.88364
 C1146 C 0.25073 0.43727 0.87696
 C1147 C 0.24431 0.42927 0.85529
 C1148 C 0.23080 0.44230 0.84144
 C1149 C 0.22298 0.46330 0.84899
 C1150 C 0.22960 0.47173 0.86998
 H1151 H 0.29270 0.44920 0.95159
 H1152 H 0.29776 0.36608 0.93825
 H1153 H 0.30848 0.42553 0.97967
 H1154 H 0.28268 0.37038 0.90069
 H1155 H 0.26342 0.39222 0.87330
 H1156 H 0.26825 0.46526 0.93384
 H1157 H 0.24525 0.48557 0.90911
 H1158 H 0.24972 0.41325 0.84843
 H1159 H 0.22614 0.43577 0.82498
 H1160 H 0.22403 0.48835 0.87552
 C1161 C 0.24091 0.62468 0.04882
 C1162 C 0.24973 0.60989 0.06524
 C1163 C 0.27233 0.60821 0.06645
 C1164 C 0.28530 0.61957 0.05065
 C1165 C 0.27621 0.63326 0.03360
 C1166 C 0.25386 0.63588 0.03331
 C1167 C 0.28186 0.59466 0.08302
 C1168 C 0.26951 0.58249 0.09830
 C1169 C 0.24694 0.58286 0.09725
 C1170 C 0.23690 0.59649 0.08017
 C1171 C 0.21442 0.59557 0.07795
 C1172 C 0.20215 0.58177 0.09176
 C1173 C 0.21160 0.56868 0.10870
 C1174 C 0.23405 0.56944 0.11216
 C1175 C 0.24258 0.55658 0.13036
 C1176 C 0.22945 0.54297 0.14381
 C1177 C 0.20745 0.54152 0.13954
 C1178 C 0.19863 0.55463 0.12207
 H1179 H 0.22402 0.62803 0.04742
 H1180 H 0.30241 0.61656 0.05084
 H1181 H 0.24624 0.64677 0.02087
 H1182 H 0.29913 0.59333 0.08414
 H1183 H 0.27823 0.57225 0.11030
 H1184 H 0.20574 0.60474 0.06510
 H1185 H 0.18499 0.58130 0.08907
 H1186 H 0.25929 0.55678 0.13480
 H1187 H 0.23665 0.53317 0.15735
 H1188 H 0.18156 0.55396 0.11888
 C1189 C 0.70147 0.44008 0.05008
 C1190 C 0.71108 0.42929 0.06886
 C1191 C 0.70581 0.40623 0.07296
 C1192 C 0.69357 0.39384 0.05712
 C1193 C 0.68593 0.40428 0.03722
 C1194 C 0.68932 0.42777 0.03457
 C1195 C 0.71357 0.39543 0.09236
 C1196 C 0.72678 0.40691 0.10757
 C1197 C 0.73356 0.42943 0.10341
 C1198 C 0.72606 0.44051 0.08335
 C1199 C 0.73473 0.46189 0.07764
 C1200 C 0.75012 0.47221 0.09107
 C1201 C 0.75696 0.46209 0.11111
 C1202 C 0.74832 0.44094 0.11806
 C1203 C 0.75478 0.43236 0.13945
 C1204 C 0.76959 0.44412 0.15291
 C1205 C 0.77878 0.46431 0.14518
 C1206 C 0.77241 0.47318 0.12431
 H1207 H 0.70310 0.45803 0.04682
 H1208 H 0.69154 0.37568 0.05949
 H1209 H 0.68284 0.43667 0.02003
 H1210 H 0.70951 0.37784 0.09575
 H1211 H 0.73233 0.39725 0.12192
 H1212 H 0.73070 0.47068 0.06222
 H1213 H 0.75667 0.48839 0.08573
 H1214 H 0.74825 0.41698 0.14649
 H1215 H 0.77404 0.43731 0.16929
 H1216 H 0.77906 0.48923 0.11867
 C1217 C 0.92142 0.71793 0.62104
 C1218 C 0.92309 0.72460 0.59810
 C1219 C 0.94282 0.72056 0.58704
 C1220 C 0.95995 0.71044 0.59855
 C1221 C 0.95850 0.70478 0.62157
 C1222 C 0.93888 0.70843 0.63256
 C1223 C 0.94571 0.72729 0.56468
 C1224 C 0.93002 0.73956 0.55348
 C1225 C 0.91055 0.74517 0.56413
 C1226 C 0.90635 0.73610 0.58608
 C1227 C 0.88565 0.73898 0.59518
 C1228 C 0.86997 0.75133 0.58370
 C1229 C 0.87458 0.76212 0.56327
 C1230 C 0.89513 0.75953 0.55346
 C1231 C 0.89983 0.77228 0.53386
 C1232 C 0.88465 0.78664 0.52426
 C1233 C 0.86418 0.78850 0.53348
 C1234 C 0.85902 0.77599 0.55282
 H1235 H 0.90723 0.72100 0.63089
 H1236 H 0.97476 0.70732 0.58953
 H1237 H 0.93732 0.70526 0.65053
 H1238 H 0.96058 0.72371 0.55596
 H1239 H 0.93346 0.74411 0.53621
 H1240 H 0.88097 0.73146 0.61102
 H1241 H 0.85429 0.75306 0.59127
 H1242 H 0.91539 0.77230 0.52608
 H1243 H 0.88891 0.79634 0.50936
 H1244 H 0.84324 0.77777 0.56018
 C1245 C 0.92694 0.28091 0.38754
 C1246 C 0.92538 0.25720 0.39167
 C1247 C 0.94147 0.24299 0.38238
 C1248 C 0.95828 0.25221 0.36975
 C1249 C 0.95979 0.27575 0.36586
 C1250 C 0.94385 0.28993 0.37499
 C1251 C 0.94096 0.21956 0.38592
 C1252 C 0.92526 0.20984 0.39922
 C1253 C 0.90923 0.22321 0.40958
 C1254 C 0.90884 0.24718 0.40514
 C1255 C 0.89204 0.26029 0.41444
 C1256 C 0.87670 0.25059 0.42835
 C1257 C 0.87750 0.22751 0.43378
 C1258 C 0.89368 0.21342 0.42440
 C1259 C 0.89397 0.19020 0.43082
 C1260 C 0.87922 0.18162 0.44623
 C1261 C 0.86348 0.19568 0.45569
 C1262 C 0.86246 0.21855 0.44902
 H1263 H 0.91573 0.29308 0.39429
 H1264 H 0.97025 0.24085 0.36266
 H1265 H 0.94492 0.30825 0.37330
 H1266 H 0.95308 0.20859 0.37857
 H1267 H 0.92618 0.19163 0.40097
 H1268 H 0.89023 0.27823 0.41127
 H1269 H 0.86425 0.26142 0.43528
 H1270 H 0.90573 0.17823 0.42481
 H1271 H 0.88039 0.16387 0.45102
 H1272 H 0.85043 0.22966 0.45635
 C1273 C 0.06810 0.23490 0.62969
 C1274 C 0.08170 0.24685 0.61477
 C1275 C 0.07884 0.27077 0.61303
 C1276 C 0.06200 0.28175 0.62449
 C1277 C 0.04800 0.26928 0.63807
 C1278 C 0.05149 0.24596 0.64095
 C1279 C 0.09239 0.28350 0.59934
 C1280 C 0.10837 0.27301 0.58674
 C1281 C 0.11117 0.24913 0.58689
 C1282 C 0.09756 0.23584 0.60111
 C1283 C 0.09957 0.21188 0.60043
 C1284 C 0.11378 0.20121 0.58587
 C1285 C 0.12693 0.21386 0.57174
 C1286 C 0.12645 0.23799 0.57256
 C1287 C 0.14103 0.24985 0.55857
 C1288 C 0.15435 0.23819 0.54347
 C1289 C 0.15358 0.21444 0.54175
 C1290 C 0.14020 0.20238 0.55635
 H1291 H 0.06964 0.21694 0.63292
 H1292 H 0.05928 0.29985 0.62224
 H1293 H 0.04091 0.23613 0.65159
 H1294 H 0.09043 0.30180 0.59811
 H1295 H 0.11779 0.28413 0.57632
 H1296 H 0.08979 0.20069 0.61035
 H1297 H 0.11425 0.18275 0.58547
 H1298 H 0.14244 0.26811 0.55873
 H1299 H 0.16475 0.24789 0.53252
 H1300 H 0.13983 0.18393 0.55545
 C1301 C 0.06625 0.71817 0.39222
 C1302 C 0.06774 0.74191 0.39615
 C1303 C 0.05117 0.75590 0.38742
 C1304 C 0.03429 0.74645 0.37488
 C1305 C 0.03319 0.72290 0.37069
 C1306 C 0.04925 0.70892 0.37989
 C1307 C 0.05137 0.77930 0.39137
 C1308 C 0.06728 0.78918 0.40448
 C1309 C 0.08395 0.77602 0.41399
 C1310 C 0.08469 0.75216 0.40895
 C1311 C 0.10239 0.73940 0.41678
 C1312 C 0.11827 0.74929 0.42999
 C1313 C 0.11706 0.77216 0.43625
 C1314 C 0.09990 0.78590 0.42838
 C1315 C 0.09912 0.80883 0.43586
 C1316 C 0.11449 0.81748 0.45072
 C1317 C 0.13131 0.80377 0.45848
 C1318 C 0.13270 0.78121 0.45082
 H1319 H 0.07757 0.70614 0.39905
 H1320 H 0.02206 0.75762 0.36800
 H1321 H 0.04830 0.69057 0.37826
 H1322 H 0.03887 0.79011 0.38450
 H1323 H 0.06618 0.80736 0.40658
 H1324 H 0.10461 0.72166 0.41275
 H1325 H 0.13147 0.73876 0.43573
 H1326 H 0.08648 0.82040 0.43120
 H1327 H 0.11300 0.83496 0.45641
 H1328 H 0.14553 0.77037 0.45693
 C1329 C 0.62259 0.92661 0.73346
 C1330 C 0.60056 0.92903 0.73843
 C1331 C 0.59042 0.94961 0.73197
 C1332 C 0.60170 0.96644 0.72029
 C1333 C 0.62370 0.96422 0.71578
 C1334 C 0.63396 0.94404 0.72275
 C1335 C 0.56913 0.95365 0.73763
 C1336 C 0.55789 0.93822 0.75065
 C1337 C 0.56732 0.91761 0.75783
 C1338 C 0.58844 0.91221 0.75031
 C1339 C 0.59647 0.89013 0.75457
 C1340 C 0.58440 0.87407 0.76623
 C1341 C 0.56442 0.87975 0.77515
 C1342 C 0.55601 0.90194 0.77177
 C1343 C 0.53681 0.90781 0.78296
 C1344 C 0.52594 0.89193 0.79602
 C1345 C 0.53350 0.86961 0.79804
 C1346 C 0.55278 0.86351 0.78758
 H1347 H 0.63172 0.91197 0.73883
 H1348 H 0.59321 0.98162 0.71489
 H1349 H 0.65111 0.94211 0.72109
 H1350 H 0.56120 0.96924 0.73245
 H1351 H 0.54148 0.94255 0.75423
 H1352 H 0.61178 0.88451 0.74832
 H1353 H 0.59100 0.85717 0.76871
 H1354 H 0.53012 0.92474 0.78249
 H1355 H 0.51117 0.89702 0.80416
 H1356 H 0.55889 0.84633 0.78951
 C1357 C 0.37741 0.91004 0.28259
 C1358 C 0.39972 0.90587 0.28286
 C1359 C 0.41258 0.91995 0.29683
 C1360 C 0.40382 0.93928 0.30731
 C1361 C 0.38191 0.94420 0.30554
 C1362 C 0.36866 0.92877 0.29399
 C1363 C 0.43427 0.91516 0.29963
 C1364 C 0.44369 0.89698 0.28835
 C1365 C 0.43196 0.88366 0.27274
 C1366 C 0.40979 0.88867 0.26938
 C1367 C 0.39887 0.87760 0.25153
 C1368 C 0.40949 0.86284 0.23688
 C1369 C 0.43101 0.85748 0.24028
 C1370 C 0.44212 0.86665 0.25917
 C1371 C 0.46318 0.85881 0.26334
 C1372 C 0.47341 0.84428 0.24811
 C1373 C 0.46314 0.83738 0.22820
 C1374 C 0.44176 0.84353 0.22456
 H1375 H 0.36638 0.89915 0.27362
 H1376 H 0.41414 0.95074 0.31675
 H1377 H 0.35167 0.93208 0.29235
 H1378 H 0.44413 0.92571 0.31052
 H1379 H 0.46063 0.89478 0.29101
 H1380 H 0.38238 0.88124 0.24750
 H1381 H 0.40079 0.85566 0.22267
 H1382 H 0.47211 0.86362 0.27825
 H1383 H 0.48987 0.83940 0.25131
 H1384 H 0.43366 0.83777 0.20933
 C1385 C 0.60176 0.07904 0.28848
 C1386 C 0.60187 0.08221 0.26470
 C1387 C 0.61383 0.06653 0.25152
 C1388 C 0.62454 0.04826 0.26173
 C1389 C 0.62401 0.04509 0.28524
 C1390 C 0.61255 0.06076 0.29848
 C1391 C 0.61471 0.06875 0.22810
 C1392 C 0.60302 0.08548 0.21713
 C1393 C 0.58978 0.10071 0.22923
 C1394 C 0.58988 0.09970 0.25346
 C1395 C 0.57758 0.11582 0.26555
 C1396 C 0.56440 0.13127 0.25444
 C1397 C 0.56289 0.13130 0.23090
 C1398 C 0.57591 0.11643 0.21789
 C1399 C 0.57370 0.11717 0.19403
 C1400 C 0.55829 0.13091 0.18380
 C1401 C 0.54477 0.14467 0.19682
 C1402 C 0.54772 0.14547 0.22033
 H1403 H 0.59293 0.08989 0.29983
 H1404 H 0.63335 0.03628 0.25127
 H1405 H 0.61104 0.05826 0.31657
 H1406 H 0.62421 0.05706 0.21802
 H1407 H 0.60458 0.08578 0.19900
 H1408 H 0.57753 0.11679 0.28375
 H1409 H 0.55478 0.14288 0.26447
 H1410 H 0.58297 0.10673 0.18272
 H1411 H 0.55651 0.13019 0.16556
 H1412 H 0.53732 0.15609 0.23057
 C1413 C 0.37607 0.08506 0.71923
 C1414 C 0.39838 0.08310 0.72317
 C1415 C 0.40853 0.06243 0.71680
 C1416 C 0.39677 0.04471 0.70695
 C1417 C 0.37457 0.04638 0.70449
 C1418 C 0.36435 0.06678 0.71038
 C1419 C 0.43018 0.05902 0.72126
 C1420 C 0.44174 0.07496 0.73351
 C1421 C 0.43216 0.09533 0.74117
 C1422 C 0.41071 0.10031 0.73434
 C1423 C 0.40243 0.12222 0.73900
 C1424 C 0.41441 0.13834 0.75084
 C1425 C 0.43460 0.13286 0.75945
 C1426 C 0.44346 0.11100 0.75524
 C1427 C 0.46295 0.10530 0.76604
 C1428 C 0.47352 0.12096 0.77975
 C1429 C 0.46535 0.14293 0.78284
 C1430 C 0.44591 0.14892 0.77256
 H1431 H 0.36705 0.09992 0.72416
 H1432 H 0.40471 0.02886 0.70255
 H1433 H 0.34712 0.06822 0.70910
 H1434 H 0.43811 0.04345 0.71599
 H1435 H 0.45839 0.07108 0.73636
 H1436 H 0.38687 0.12759 0.73316
 H1437 H 0.40753 0.15503 0.75384
 H1438 H 0.47006 0.08859 0.76486
 H1439 H 0.48847 0.11599 0.78767
 H1440 H 0.43938 0.16583 0.77526
 C1441 C 0.61372 0.70681 0.07307
 C1442 C 0.60899 0.73038 0.07465
 C1443 C 0.61698 0.74480 0.05743
 C1444 C 0.62922 0.73585 0.03965
 C1445 C 0.63307 0.71242 0.03795
 C1446 C 0.62534 0.69802 0.05484
 C1447 C 0.61208 0.76796 0.05755
 C1448 C 0.59839 0.77705 0.07367
 C1449 C 0.58940 0.76333 0.09072
 C1450 C 0.59584 0.73996 0.09205
 C1451 C 0.58887 0.72699 0.11069
 C1452 C 0.57522 0.73616 0.12684
 C1453 C 0.56750 0.75836 0.12478
 C1454 C 0.57427 0.77223 0.10657
 C1455 C 0.56505 0.79420 0.10460
 C1456 C 0.55001 0.80204 0.12021
 C1457 C 0.54381 0.78845 0.13845
 C1458 C 0.55275 0.76666 0.14071
 H1459 H 0.60777 0.69454 0.08499
 H1460 H 0.63495 0.74701 0.02640
 H1461 H 0.62765 0.67978 0.05349
 H1462 H 0.61842 0.77910 0.04463
 H1463 H 0.59541 0.79508 0.07252
 H1464 H 0.59403 0.70972 0.11351
 H1465 H 0.57028 0.72556 0.14085
 H1466 H 0.56860 0.80551 0.09080
 H1467 H 0.54325 0.81889 0.11802
 H1468 H 0.54781 0.75587 0.15459
 C1469 C 0.38501 0.28874 0.07548
 C1470 C 0.38490 0.26475 0.07778
 C1471 C 0.37456 0.25181 0.06062
 C1472 C 0.36511 0.26260 0.04191
 C1473 C 0.36603 0.28625 0.03966
 C1474 C 0.37587 0.29920 0.05662
 C1475 C 0.37434 0.22814 0.06179
 C1476 C 0.38545 0.21682 0.07873
 C1477 C 0.39714 0.22885 0.09538
 C1478 C 0.39568 0.25315 0.09578
 C1479 C 0.40550 0.26502 0.11384
 C1480 C 0.41806 0.25379 0.12971
 C1481 C 0.42153 0.23040 0.12810
 C1482 C 0.41079 0.21746 0.11123
 C1483 C 0.41522 0.19385 0.11004
 C1484 C 0.43060 0.18395 0.12403
 C1485 C 0.44177 0.19703 0.13996
 C1486 C 0.43653 0.22005 0.14259
 H1487 H 0.39285 0.29989 0.08738
 H1488 H 0.35763 0.25256 0.02864
 H1489 H 0.37704 0.31752 0.05490
 H1490 H 0.36604 0.21819 0.04902
 H1491 H 0.38461 0.19852 0.07824
 H1492 H 0.40389 0.28314 0.11614
 H1493 H 0.42581 0.26370 0.14289
 H1494 H 0.40799 0.18271 0.09772
 H1495 H 0.43428 0.16604 0.12182
 H1496 H 0.44522 0.23031 0.15481
 C1497 C 0.61260 0.25832 0.94868
 C1498 C 0.60085 0.26802 0.93051
 C1499 C 0.59809 0.29201 0.93046
 C1500 C 0.60632 0.30540 0.94817
 C1501 C 0.61746 0.29535 0.96613
 C1502 C 0.62062 0.27182 0.96619
 C1503 C 0.58670 0.30251 0.91306
 C1504 C 0.57723 0.28972 0.89598
 C1505 C 0.57874 0.26573 0.89563
 C1506 C 0.59120 0.25475 0.91287
 C1507 C 0.59317 0.23080 0.91222
 C1508 C 0.58235 0.21789 0.89626
 C1509 C 0.56929 0.22821 0.88012
 C1510 C 0.56770 0.25227 0.87905
 C1511 C 0.55456 0.26169 0.86181
 C1512 C 0.54264 0.24774 0.84730
 C1513 C 0.54345 0.22404 0.84943
 C1514 C 0.55732 0.21443 0.86544
 H1515 H 0.61556 0.24033 0.95022
 H1516 H 0.60364 0.32366 0.94833
 H1517 H 0.62912 0.26381 0.98008
 H1518 H 0.58475 0.32086 0.91284
 H1519 H 0.56850 0.29925 0.88344
 H1520 H 0.60274 0.22132 0.92409
 H1521 H 0.58390 0.19950 0.89684
 H1522 H 0.55268 0.27974 0.85935
 H1523 H 0.53214 0.25558 0.83494
 H1524 H 0.55834 0.19606 0.86697
 C1525 C 0.41565 0.69786 0.94039
 C1526 C 0.40800 0.71783 0.92956
 C1527 C 0.38828 0.72707 0.93715
 C1528 C 0.37673 0.71645 0.95446
 C1529 C 0.38466 0.69688 0.96500
 C1530 C 0.40418 0.68771 0.95796
 C1531 C 0.38033 0.74712 0.92775
 C1532 C 0.39196 0.75895 0.91169
 C1533 C 0.41198 0.75093 0.90405
 C1534 C 0.41952 0.72939 0.91210
 C1535 C 0.43828 0.72018 0.90242
 C1536 C 0.44992 0.73214 0.88636
 C1537 C 0.44375 0.75400 0.87979
 C1538 C 0.42475 0.76379 0.88865
 C1539 C 0.41986 0.78653 0.88255
 C1540 C 0.43349 0.79901 0.86872
 C1541 C 0.45210 0.78919 0.85996
 C1542 C 0.45692 0.76648 0.86508
 H1543 H 0.43077 0.69010 0.93621
 H1544 H 0.36175 0.72373 0.96024
 H1545 H 0.41064 0.67275 0.96624
 H1546 H 0.36510 0.75403 0.93322
 H1547 H 0.38461 0.77424 0.90528
 H1548 H 0.44425 0.70351 0.90670
 H1549 H 0.46430 0.72444 0.87952
 H1550 H 0.40621 0.79559 0.88909
 H1551 H 0.42967 0.81665 0.86516
 H1552 H 0.47163 0.75903 0.85876
 C1553 C 0.70189 0.92762 0.39843
 C1554 C 0.72447 0.92547 0.39769
 C1555 C 0.73592 0.94144 0.38447
 C1556 C 0.72518 0.95889 0.37300
 C1557 C 0.70305 0.96135 0.37486
 C1558 C 0.69141 0.94547 0.38731
 C1559 C 0.75813 0.94053 0.38341
 C1560 C 0.76951 0.92512 0.39646
 C1561 C 0.75901 0.90977 0.41097
 C1562 C 0.73616 0.90885 0.41042
 C1563 C 0.72588 0.89155 0.42282
 C1564 C 0.73744 0.87650 0.43631
 C1565 C 0.75957 0.87853 0.43854
 C1566 C 0.77064 0.89536 0.42606
 C1567 C 0.79285 0.89776 0.42992
 C1568 C 0.80355 0.88388 0.44529
 C1569 C 0.79266 0.86697 0.45721
 C1570 C 0.77068 0.86416 0.45358
 H1571 H 0.69196 0.91650 0.40832
 H1572 H 0.73414 0.97138 0.36347
 H1573 H 0.67427 0.94740 0.38911
 H1574 H 0.76689 0.95234 0.37288
 H1575 H 0.78663 0.92551 0.39461
 H1576 H 0.70883 0.88902 0.42224
 H1577 H 0.72887 0.86354 0.44560
 H1578 H 0.80234 0.91073 0.42198
 H1579 H 0.82054 0.88643 0.44783
 H1580 H 0.76210 0.85129 0.46298
 C1581 C 0.24563 0.94025 0.63437
 C1582 C 0.25398 0.92192 0.62143
 C1583 C 0.27638 0.92139 0.61762
 C1584 C 0.28949 0.93909 0.62558
 C1585 C 0.28060 0.95768 0.63701
 C1586 C 0.25877 0.95790 0.64179
 C1587 C 0.28543 0.90383 0.60493
 C1588 C 0.27264 0.88759 0.59447
 C1589 C 0.25014 0.88828 0.59635
 C1590 C 0.24076 0.90499 0.61101
 C1591 C 0.21838 0.90481 0.61400
 C1592 C 0.20539 0.89045 0.60143
 C1593 C 0.21412 0.87555 0.58557
 C1594 C 0.23662 0.87351 0.58335
 C1595 C 0.24449 0.85756 0.56731
 C1596 C 0.23058 0.84555 0.55309
 C1597 C 0.20848 0.84899 0.55440
 C1598 C 0.20035 0.86334 0.57127
 H1599 H 0.22891 0.94212 0.63819
 H1600 H 0.30644 0.93913 0.62175
 H1601 H 0.25173 0.97231 0.65055
 H1602 H 0.30257 0.90308 0.60236
 H1603 H 0.28093 0.87496 0.58457
 H1604 H 0.21023 0.91593 0.62566
 H1605 H 0.18821 0.89157 0.60365
 H1606 H 0.26129 0.85454 0.56469
 H1607 H 0.23724 0.83439 0.54027
 H1608 H 0.18321 0.86577 0.57267
 C1609 C 0.29783 0.07660 0.38978
 C1610 C 0.27576 0.08168 0.38732
 C1611 C 0.26327 0.06671 0.37380
 C1612 C 0.27246 0.04728 0.36390
 C1613 C 0.29401 0.04197 0.36753
 C1614 C 0.30668 0.05695 0.38018
 C1615 C 0.24146 0.07066 0.37094
 C1616 C 0.23133 0.08819 0.38250
 C1617 C 0.24270 0.10264 0.39738
 C1618 C 0.26545 0.10026 0.39873
 C1619 C 0.27699 0.11618 0.41190
 C1620 C 0.26660 0.13273 0.42469
 C1621 C 0.24433 0.13388 0.42521
 C1622 C 0.23203 0.11903 0.41136
 C1623 C 0.20949 0.12037 0.41306
 C1624 C 0.19976 0.13507 0.42847
 C1625 C 0.21198 0.14927 0.44245
 C1626 C 0.23427 0.14917 0.44022
 H1627 H 0.30848 0.08683 0.39990
 H1628 H 0.26261 0.03556 0.35423
 H1629 H 0.32332 0.05290 0.38346
 H1630 H 0.23195 0.05960 0.36019
 H1631 H 0.21442 0.08992 0.37940
 H1632 H 0.29420 0.11627 0.41274
 H1633 H 0.27613 0.14427 0.43490
 H1634 H 0.19887 0.10956 0.40354
 H1635 H 0.18248 0.13491 0.42984
 H1636 H 0.24384 0.15997 0.45116
 C1637 C 0.75760 0.05469 0.63494
 C1638 C 0.74886 0.07178 0.62072
 C1639 C 0.72637 0.07187 0.61738
 C1640 C 0.71355 0.05477 0.62692
 C1641 C 0.72272 0.03748 0.64004
 C1642 C 0.74471 0.03781 0.64423
 C1643 C 0.71686 0.08859 0.60398
 C1644 C 0.72917 0.10484 0.59307
 C1645 C 0.75170 0.10486 0.59487
 C1646 C 0.76169 0.08823 0.60916
 C1647 C 0.78423 0.08801 0.61072
 C1648 C 0.79665 0.10256 0.59790
 C1649 C 0.78722 0.11824 0.58329
 C1650 C 0.76465 0.12030 0.58211
 C1651 C 0.75612 0.13729 0.56759
 C1652 C 0.76942 0.15030 0.55372
 C1653 C 0.79157 0.14687 0.55386
 C1654 C 0.80037 0.13134 0.56925
 H1655 H 0.77435 0.05354 0.63897
 H1656 H 0.69650 0.05443 0.62353
 H1657 H 0.75204 0.02457 0.65441
 H1658 H 0.69967 0.08889 0.60156
 H1659 H 0.72048 0.11680 0.58274
 H1660 H 0.79296 0.07627 0.62123
 H1661 H 0.81391 0.10119 0.59912
 H1662 H 0.73924 0.14068 0.56618
 H1663 H 0.76223 0.16234 0.54209
 H1664 H 0.81756 0.12886 0.56977
 C1665 C 0.94623 0.62484 0.24112
 C1666 C 0.93127 0.61063 0.25214
 C1667 C 0.93248 0.60912 0.27608
 C1668 C 0.94884 0.62028 0.28812
 C1669 C 0.96391 0.63350 0.27672
 C1670 C 0.96229 0.63592 0.25325
 C1671 C 0.91763 0.59612 0.28786
 C1672 C 0.90167 0.58429 0.27646
 C1673 C 0.90019 0.58455 0.25259
 C1674 C 0.91544 0.59769 0.24022
 C1675 C 0.91485 0.59682 0.21633
 C1676 C 0.90009 0.58347 0.20488
 C1677 C 0.88503 0.57078 0.21663
 C1678 C 0.88442 0.57153 0.24062
 C1679 C 0.86809 0.55902 0.25153
 C1680 C 0.85374 0.54565 0.23914
 C1681 C 0.85517 0.54420 0.21554
 C1682 C 0.87069 0.55708 0.20440
 H1683 H 0.94604 0.62780 0.22315
 H1684 H 0.95016 0.61833 0.30632
 H1685 H 0.97378 0.64621 0.24422
 H1686 H 0.91841 0.59498 0.30616
 H1687 H 0.89110 0.57446 0.28691
 H1688 H 0.92606 0.60573 0.20583
 H1689 H 0.90057 0.58301 0.18653
 H1690 H 0.86588 0.55922 0.26960
 H1691 H 0.84173 0.53604 0.24815
 H1692 H 0.87169 0.55639 0.18608
 C1693 C 0.95020 0.35936 0.76425
 C1694 C 0.93469 0.37321 0.75336
 C1695 C 0.93645 0.37603 0.72959
 C1696 C 0.95372 0.36643 0.71767
 C1697 C 0.96931 0.35362 0.72901
 C1698 C 0.96722 0.34992 0.75224
 C1699 C 0.92128 0.38892 0.71791
 C1700 C 0.90470 0.39972 0.72930
 C1701 C 0.90277 0.39840 0.75308
 C1702 C 0.91797 0.38482 0.76530
 C1703 C 0.91646 0.38403 0.78913
 C1704 C 0.90136 0.39680 0.80074
 C1705 C 0.88685 0.41055 0.78917
 C1706 C 0.88674 0.41099 0.76517
 C1707 C 0.87092 0.42456 0.75442
 C1708 C 0.85702 0.43830 0.76702
 C1709 C 0.85835 0.43895 0.79067
 C1710 C 0.87287 0.42447 0.80162
 H1711 H 0.94987 0.35563 0.78207
 H1712 H 0.95542 0.36943 0.69966
 H1713 H 0.97913 0.33998 0.76123
 H1714 H 0.92242 0.39096 0.69972
 H1715 H 0.89399 0.40963 0.71895
 H1716 H 0.92720 0.37424 0.79955
 H1717 H 0.90131 0.39619 0.81909
 H1718 H 0.86906 0.42529 0.73631
 H1719 H 0.84580 0.44918 0.75813
 H1720 H 0.87377 0.42455 0.81996
 C1721 C 0.05473 0.62363 0.75649
 C1722 C 0.07159 0.61226 0.74507
 C1723 C 0.07096 0.61188 0.72105
 C1724 C 0.05367 0.62159 0.70926
 C1725 C 0.03673 0.63171 0.72099
 C1726 C 0.03756 0.63300 0.74458
 C1727 C 0.08718 0.60114 0.70891
 C1728 C 0.10364 0.58979 0.72000
 C1729 C 0.10450 0.58863 0.74386
 C1730 C 0.08852 0.60056 0.75661
 C1731 C 0.08962 0.59979 0.78047
 C1732 C 0.10496 0.58686 0.79153
 C1733 C 0.12000 0.57433 0.77939
 C1734 C 0.12043 0.57540 0.75542
 C1735 C 0.13647 0.56264 0.74411
 C1736 C 0.15072 0.54877 0.75610
 C1737 C 0.14949 0.54710 0.77968
 C1738 C 0.13436 0.56032 0.79121
 H1739 H 0.05390 0.62509 0.77463
 H1740 H 0.05289 0.62042 0.69095
 H1741 H 0.02451 0.64076 0.75386
 H1742 H 0.08691 0.60106 0.69056
 H1743 H 0.11527 0.58170 0.70923
 H1744 H 0.07858 0.60871 0.79127
 H1745 H 0.10482 0.58638 0.80988
 H1746 H 0.13830 0.56264 0.72600
 H1747 H 0.16238 0.53884 0.74678
 H1748 H 0.13348 0.55945 0.80952
 C1749 C 0.04953 0.37040 0.23629
 C1750 C 0.06379 0.38565 0.24715
 C1751 C 0.06286 0.38724 0.27111
 C1752 C 0.04708 0.37542 0.28327
 C1753 C 0.03230 0.36154 0.27197
 C1754 C 0.03402 0.35874 0.24853
 C1755 C 0.07725 0.40113 0.28273
 C1756 C 0.09237 0.41386 0.27114
 C1757 C 0.09336 0.41371 0.24725
 C1758 C 0.07859 0.39963 0.23505
 C1759 C 0.07845 0.40074 0.21117
 C1760 C 0.09206 0.41517 0.19957
 C1761 C 0.10675 0.42871 0.21113
 C1762 C 0.10809 0.42776 0.23509
 C1763 C 0.12410 0.44107 0.24580
 C1764 C 0.13750 0.45524 0.23327
 C1765 C 0.13535 0.45685 0.20972
 C1766 C 0.12003 0.44335 0.19877
 H1767 H 0.04977 0.36719 0.21834
 H1768 H 0.04574 0.37769 0.30144
 H1769 H 0.02282 0.34792 0.23954
 H1770 H 0.07672 0.40234 0.30103
 H1771 H 0.10260 0.42437 0.28147
 H1772 H 0.06742 0.39122 0.20083
 H1773 H 0.09101 0.41576 0.18125
 H1774 H 0.12685 0.44078 0.26380
 H1775 H 0.14937 0.46532 0.24213
 H1776 H 0.11852 0.44414 0.18050
   
