data_POSCAR
  _audit_creation_date              2014-09-24
  _audit_creation_method            'ToBaCCo'
  _symmetry_space_group_name_H-M    'P1'
  _symmetry_Int_Tables_number       1
  _symmetry_cell_setting            triclinic
  loop_
  _symmetry_equiv_pos_as_xyz
 x,y,z
_cell_length_a 61.6054
_cell_length_b 61.5967
_cell_length_c 56.7552
_cell_angle_alpha 90.453400
_cell_angle_beta 89.540000
_cell_angle_gamma 89.809300
loop_
  _atom_site_label
  _atom_site_type_symbol
  _atom_site_fract_x
  _atom_site_fract_y
  _atom_site_fract_z
C1 C 0.38582 0.02189 0.27395
 H2 H 0.38630 0.03123 0.25790
 C3 C 0.39762 0.02873 0.29356
 H4 H 0.40747 0.04323 0.29260
 C5 C 0.37210 -0.00828 0.29506
 H6 H 0.36179 -0.02240 0.29577
 C7 C 0.38360 -0.00201 0.31503
 H8 H 0.38245 -0.01157 0.33093
 N9 N 0.37357 0.00356 0.27498
 C10 C 0.36406 -0.01622 0.20198
 H11 H 0.34652 -0.01704 0.20181
 C12 C 0.37597 -0.02157 0.18174
 H13 H 0.36762 -0.02627 0.16577
 C14 C 0.39643 -0.00905 0.22302
 H15 H 0.40431 -0.00447 0.23923
 C16 C 0.40897 -0.01428 0.20314
 H17 H 0.42650 -0.01330 0.20394
 Zn18 Zn 0.35672 -0.00380 0.24849
 N19 N 0.37439 -0.00984 0.22196
 C20 C 0.34043 0.03195 0.22283
 N21 N 0.33857 0.02021 0.24296
 C22 C 0.32565 0.02694 0.26116
 C23 C 0.31431 0.04651 0.25975
 C24 C 0.32936 0.05165 0.22072
 C25 C 0.35241 -0.04757 0.25709
 C26 C 0.34207 -0.06750 0.25957
 C27 C 0.30746 -0.04915 0.25591
 C28 C 0.31852 -0.02949 0.25355
 N29 N 0.34060 -0.02913 0.25417
 H30 H 0.35126 0.02662 0.20888
 H31 H 0.32491 0.01752 0.27714
 H32 H 0.30466 0.05216 0.27464
 H33 H 0.33152 0.06134 0.20503
 H34 H 0.36995 -0.04678 0.25708
 H35 H 0.35172 -0.08212 0.26155
 H36 H 0.28989 -0.04938 0.25498
 H37 H 0.30951 -0.01469 0.25063
 C38 C 0.39861 -0.02052 0.18233
 C39 C 0.39645 0.01665 0.31427
 C40 C 0.31940 -0.06833 0.25879
 C41 C 0.31649 0.05912 0.23951
 C42 C 0.11321 0.02621 0.72018
 H43 H 0.11227 0.03569 0.73629
 C44 C 0.10096 0.03225 0.70066
 H45 H 0.09032 0.04626 0.70173
 C46 C 0.12834 -0.00360 0.69891
 H47 H 0.13932 -0.01729 0.69812
 C48 C 0.11645 0.00189 0.67903
 H49 H 0.11798 -0.00786 0.66313
 N50 N 0.12631 0.00838 0.71906
 C51 C 0.13616 -0.01105 0.79177
 H52 H 0.15371 -0.01155 0.79185
 C53 C 0.12447 -0.01682 0.81188
 H54 H 0.13301 -0.02150 0.82768
 C55 C 0.10354 -0.00438 0.77103
 H56 H 0.09548 0.00013 0.75495
 C57 C 0.09121 -0.01003 0.79080
 H58 H 0.07365 -0.00943 0.79010
 Zn59 Zn 0.14319 0.00152 0.74560
 N60 N 0.12560 -0.00473 0.77199
 C61 C 0.15884 0.03729 0.77206
 N62 N 0.16092 0.02571 0.75164
 C63 C 0.17408 0.03247 0.73382
 C64 C 0.18558 0.05185 0.73600
 C65 C 0.17005 0.05677 0.77495
 C66 C 0.14818 -0.04219 0.73668
 C67 C 0.15874 -0.06214 0.73469
 C68 C 0.19308 -0.04368 0.73921
 C69 C 0.18183 -0.02398 0.74106
 N70 N 0.15978 -0.02367 0.73986
 H71 H 0.14785 0.03193 0.78573
 H72 H 0.17504 0.02314 0.71761
 H73 H 0.19553 0.05747 0.72147
 H74 H 0.16782 0.06628 0.79094
 H75 H 0.13064 -0.04145 0.73628
 H76 H 0.14935 -0.07686 0.73265
 H77 H 0.21059 -0.04399 0.74075
 H78 H 0.19065 -0.00911 0.74420
 C79 C 0.10181 -0.01626 0.81140
 C80 C 0.10261 0.01991 0.67994
 C81 C 0.18134 -0.06290 0.73622
 C82 C 0.18329 0.06421 0.75663
 C83 C 0.61353 0.52572 0.21936
 H84 H 0.61257 0.53521 0.23546
 C85 C 0.60132 0.53176 0.19980
 H86 H 0.59069 0.54578 0.20085
 C87 C 0.62868 0.49590 0.19814
 H88 H 0.63965 0.48221 0.19737
 C89 C 0.61683 0.50139 0.17823
 H90 H 0.61838 0.49163 0.16233
 N91 N 0.62662 0.50788 0.21827
 C92 C 0.63645 0.48853 0.29100
 H93 H 0.65400 0.48802 0.29107
 C94 C 0.62477 0.48277 0.31113
 H95 H 0.63330 0.47810 0.32692
 C96 C 0.60382 0.49520 0.27027
 H97 H 0.59576 0.49971 0.25419
 C98 C 0.59150 0.48957 0.29006
 H99 H 0.57394 0.49018 0.28936
 Zn100 Zn 0.64348 0.50105 0.24483
 N101 N 0.62589 0.49484 0.27122
 C102 C 0.65914 0.53684 0.27124
 N103 N 0.66123 0.52522 0.25084
 C104 C 0.67441 0.53195 0.23302
 C105 C 0.68591 0.55132 0.23517
 C106 C 0.67036 0.55632 0.27410
 C107 C 0.64844 0.45733 0.23597
 C108 C 0.65899 0.43737 0.23408
 C109 C 0.69333 0.45580 0.23866
 C110 C 0.68210 0.47552 0.24041
 N111 N 0.66005 0.47584 0.23914
 H112 H 0.64813 0.53151 0.28491
 H113 H 0.67537 0.52259 0.21683
 H114 H 0.69587 0.55692 0.22063
 H115 H 0.66812 0.56586 0.29006
 H116 H 0.63090 0.45809 0.23553
 H117 H 0.64957 0.42265 0.23206
 H118 H 0.71083 0.45547 0.24027
 H119 H 0.69093 0.49038 0.24355
 C120 C 0.60211 0.48334 0.31065
 C121 C 0.60300 0.51941 0.17909
 C122 C 0.68158 0.43658 0.23569
 C123 C 0.68361 0.56372 0.25577
 C124 C 0.88751 0.52241 0.77564
 H125 H 0.88816 0.53177 0.75960
 C126 C 0.89927 0.52913 0.79533
 H127 H 0.90926 0.54355 0.79439
 C128 C 0.87337 0.49237 0.79664
 H129 H 0.86290 0.47836 0.79727
 C130 C 0.88481 0.49851 0.81669
 H131 H 0.88342 0.48890 0.83256
 N132 N 0.87506 0.50421 0.77658
 C133 C 0.86551 0.48451 0.70355
 H134 H 0.84796 0.48379 0.70341
 C135 C 0.87736 0.47906 0.68331
 H136 H 0.86896 0.47440 0.66736
 C137 C 0.89794 0.49151 0.72454
 H138 H 0.90587 0.49607 0.74074
 C139 C 0.91043 0.48619 0.70465
 H140 H 0.92797 0.48708 0.70541
 Zn141 Zn 0.85824 0.49703 0.75002
 N142 N 0.87589 0.49085 0.72351
 C143 C 0.84222 0.53285 0.72427
 N144 N 0.84028 0.52118 0.74444
 C145 C 0.82736 0.52801 0.76259
 C146 C 0.81606 0.54759 0.76107
 C147 C 0.83119 0.55256 0.72204
 C148 C 0.85352 0.45328 0.75856
 C149 C 0.84297 0.43346 0.76099
 C150 C 0.80857 0.45211 0.75729
 C151 C 0.81979 0.47167 0.75496
 N152 N 0.84187 0.47184 0.75562
 H153 H 0.85304 0.52744 0.71035
 H154 H 0.82655 0.51863 0.77860
 H155 H 0.80638 0.55330 0.77591
 H156 H 0.83338 0.56218 0.70631
 H157 H 0.87106 0.45390 0.75858
 H158 H 0.85239 0.41871 0.76297
 H159 H 0.79101 0.45193 0.75633
 H160 H 0.81091 0.48655 0.75203
 C161 C 0.90000 0.47999 0.68386
 C162 C 0.89786 0.51704 0.81605
 C163 C 0.82033 0.43286 0.76018
 C164 C 0.81829 0.56011 0.74077
 C165 C 0.22203 0.41562 0.97977
 H166 H 0.23652 0.41735 0.96908
 C167 C 0.20336 0.42761 0.97452
 H168 H 0.20345 0.43875 0.95986
 C169 C 0.20386 0.39871 1.01172
 H170 H 0.20383 0.38714 1.02588
 C171 C 0.18498 0.41028 1.00709
 H172 H 0.17065 0.40780 1.01793
 N173 N 0.22203 0.40178 0.99838
 C174 C 0.28865 0.39281 1.02112
 H175 H 0.28827 0.37541 1.02350
 C176 C 0.30778 0.40420 1.02506
 H177 H 0.32225 0.39557 1.03046
 C178 C 0.27052 0.42520 1.01010
 H179 H 0.25600 0.43326 1.00415
 C180 C 0.28940 0.43723 1.01377
 H181 H 0.28948 0.45452 1.01039
 Zn182 Zn 0.24710 0.38536 1.00535
 N183 N 0.27073 0.40330 1.01313
 C184 C 0.27412 0.37129 0.96771
 N185 N 0.25446 0.36852 0.97842
 C186 C 0.23932 0.35495 0.96919
 C187 C 0.24378 0.34339 0.94842
 C188 C 0.27922 0.36005 0.94695
 C189 C 0.23851 0.37886 1.05259
 C190 C 0.23363 0.36764 1.07317
 C191 C 0.23528 0.33402 1.05093
 C192 C 0.24011 0.34590 1.03067
 N193 N 0.24138 0.36794 1.03186
 H194 H 0.28573 0.38259 0.97485
 H195 H 0.22366 0.35341 0.97776
 H196 H 0.23155 0.33281 0.94099
 H197 H 0.29477 0.36258 0.93836
 H198 H 0.23981 0.39637 1.05301
 H199 H 0.23139 0.37648 1.08959
 H200 H 0.23437 0.31647 1.04999
 H201 H 0.24281 0.33753 1.01411
 C202 C 0.30826 0.42651 1.02088
 C203 C 0.18474 0.42491 0.98845
 C204 C 0.23191 0.34506 1.07230
 C205 C 0.26388 0.34606 0.93718
 C206 C 0.77711 0.08490 0.97648
 H207 H 0.76295 0.08264 0.96560
 C208 C 0.79623 0.07335 0.97144
 H209 H 0.79678 0.06202 0.95674
 C210 C 0.79397 0.10266 1.00871
 H211 H 0.79334 0.11440 1.02289
 C212 C 0.81328 0.09157 1.00430
 H213 H 0.82721 0.09462 1.01540
 N214 N 0.77624 0.09893 0.99514
 C215 C 0.70889 0.10642 1.01744
 H216 H 0.70891 0.12382 1.02020
 C217 C 0.68992 0.09466 1.02111
 H218 H 0.67521 0.10300 1.02669
 C219 C 0.72782 0.07441 1.00582
 H220 H 0.74259 0.06664 0.99976
 C221 C 0.70911 0.06201 1.00921
 H222 H 0.70942 0.04473 1.00552
 Zn223 Zn 0.75059 0.11476 1.00214
 N224 N 0.72715 0.09629 1.00931
 C225 C 0.72409 0.12839 0.96461
 N226 N 0.74345 0.13158 0.97551
 C227 C 0.75845 0.14553 0.96665
 C228 C 0.75414 0.15704 0.94607
 C229 C 0.71914 0.13955 0.94404
 C230 C 0.75782 0.12097 1.04959
 C231 C 0.76264 0.13193 1.07044
 C232 C 0.76173 0.16576 1.04913
 C233 C 0.75693 0.15412 1.02857
 N234 N 0.75539 0.13210 1.02916
 H235 H 0.71260 0.11679 0.97144
 H236 H 0.77390 0.14741 0.97534
 H237 H 0.76626 0.16791 0.93892
 H238 H 0.70383 0.13667 0.93530
 H239 H 0.75638 0.10347 1.04952
 H240 H 0.76468 0.12291 1.08659
 H241 H 0.76303 0.18329 1.04864
 H242 H 0.75465 0.16265 1.01222
 C243 C 0.68993 0.07236 1.01652
 C244 C 0.81442 0.07670 0.98564
 C245 C 0.76479 0.15449 1.07017
 C246 C 0.73434 0.15391 0.93464
 C247 C 0.27648 0.58553 0.47553
 H248 H 0.26225 0.58337 0.46472
 C249 C 0.29552 0.57391 0.47034
 H250 H 0.29599 0.56261 0.45562
 C251 C 0.29360 0.60311 0.50772
 H252 H 0.29310 0.61480 0.52195
 C253 C 0.31283 0.59193 0.50315
 H254 H 0.32685 0.59482 0.51413
 N255 N 0.27577 0.59951 0.49425
 C256 C 0.20853 0.60710 0.51689
 H257 H 0.20856 0.62450 0.51964
 C258 C 0.18957 0.59535 0.52063
 H259 H 0.17488 0.60368 0.52625
 C260 C 0.22744 0.57509 0.50523
 H261 H 0.24219 0.56731 0.49914
 C262 C 0.20873 0.56269 0.50870
 H263 H 0.20904 0.54540 0.50502
 Zn264 Zn 0.25021 0.61540 0.50145
 N265 N 0.22677 0.59697 0.50870
 C266 C 0.22359 0.62918 0.46407
 N267 N 0.24301 0.63229 0.47491
 C268 C 0.25802 0.64622 0.46601
 C269 C 0.25368 0.65777 0.44547
 C270 C 0.21862 0.64040 0.44354
 C271 C 0.25773 0.62152 0.54887
 C272 C 0.26263 0.63245 0.56972
 C273 C 0.26159 0.66632 0.54847
 C274 C 0.25671 0.65470 0.52792
 N275 N 0.25519 0.63267 0.52847
 H276 H 0.21210 0.61761 0.47092
 H277 H 0.27351 0.64803 0.47465
 H278 H 0.26581 0.66861 0.43830
 H279 H 0.20327 0.63758 0.43486
 H280 H 0.25630 0.60402 0.54877
 H281 H 0.26475 0.62341 0.58584
 H282 H 0.26286 0.68384 0.54801
 H283 H 0.25434 0.66326 0.51160
 C284 C 0.18958 0.57304 0.51606
 C285 C 0.31378 0.57712 0.48444
 C286 C 0.26475 0.65501 0.56948
 C287 C 0.23383 0.65473 0.43411
 C288 C 0.72208 0.91497 0.47850
 H289 H 0.73660 0.91671 0.46784
 C290 C 0.70341 0.92691 0.47317
 H291 H 0.70352 0.93803 0.45848
 C292 C 0.70388 0.89809 0.51044
 H293 H 0.70384 0.88655 0.52463
 C294 C 0.68499 0.90962 0.50573
 H295 H 0.67064 0.90714 0.51655
 N296 N 0.72207 0.90117 0.49714
 C297 C 0.78869 0.89245 0.51997
 H298 H 0.78838 0.87504 0.52234
 C299 C 0.80776 0.90392 0.52399
 H300 H 0.82224 0.89535 0.52944
 C301 C 0.77044 0.92477 0.50896
 H302 H 0.75589 0.93278 0.50300
 C303 C 0.78925 0.93689 0.51272
 H304 H 0.78925 0.95418 0.50939
 Zn305 Zn 0.74717 0.88483 0.50422
 N306 N 0.77074 0.90287 0.51196
 C307 C 0.77424 0.87073 0.46663
 N308 N 0.75460 0.86791 0.47738
 C309 C 0.73951 0.85424 0.46821
 C310 C 0.74399 0.84265 0.44747
 C311 C 0.77936 0.85947 0.44589
 C312 C 0.73853 0.87853 0.55147
 C313 C 0.73375 0.86741 0.57213
 C314 C 0.73562 0.83367 0.55013
 C315 C 0.74035 0.84546 0.52978
 N316 N 0.74148 0.86751 0.53082
 H317 H 0.78580 0.88211 0.47372
 H318 H 0.72387 0.85266 0.47681
 H319 H 0.73180 0.83201 0.44008
 H320 H 0.79488 0.86206 0.43727
 H321 H 0.73972 0.89605 0.55177
 H322 H 0.73145 0.87633 0.58850
 H323 H 0.73484 0.81611 0.54931
 H324 H 0.74312 0.83702 0.51327
 C325 C 0.80814 0.92624 0.51988
 C326 C 0.68477 0.92422 0.48706
 C327 C 0.73219 0.84481 0.57143
 C328 C 0.76406 0.84540 0.43618
 C329 C 0.01472 0.27803 0.41253
 H330 H 0.02890 0.26766 0.41328
 C331 C 0.01384 0.29717 0.42599
 H332 H 0.02736 0.30153 0.43714
 C333 C -0.01992 0.28548 0.39657
 H334 H -0.03289 0.28117 0.38475
 C335 C -0.02145 0.30473 0.40971
 H336 H -0.03563 0.31503 0.40804
 N337 N -0.00207 0.27249 0.39825
 C338 C 0.00227 0.20208 0.38706
 H339 H 0.00151 0.20155 0.36803
 C340 C 0.00339 0.18277 0.39975
 H341 H 0.00348 0.16736 0.39040
 C342 C 0.00280 0.22281 0.42242
 H343 H 0.00231 0.23842 0.43122
 C344 C 0.00392 0.20383 0.43583
 H345 H 0.00440 0.20498 0.45488
 Zn346 Zn 0.00050 0.24686 0.37930
 N347 N 0.00222 0.22161 0.39845
 C348 C 0.04245 0.23443 0.36270
 N349 N 0.02627 0.24939 0.36056
 C350 C 0.02869 0.26684 0.34617
 C351 C 0.04784 0.26957 0.33303
 C352 C 0.06180 0.23654 0.34990
 C353 C -0.04367 0.23979 0.37156
 C354 C -0.06296 0.23764 0.35899
 C355 C -0.04273 0.24297 0.32289
 C356 C -0.02374 0.24501 0.33617
 N357 N -0.02460 0.24372 0.36011
 H358 H 0.04060 0.22098 0.37462
 H359 H 0.01579 0.27874 0.34507
 H360 H 0.04964 0.28355 0.32173
 H361 H 0.07457 0.22458 0.35188
 H362 H -0.04389 0.23859 0.39057
 H363 H -0.07807 0.23486 0.36836
 H364 H -0.04197 0.24434 0.30388
 H365 H -0.00842 0.24775 0.32732
 C366 C 0.00429 0.18360 0.42438
 C367 C -0.00441 0.31068 0.42454
 C368 C -0.06256 0.23938 0.33443
 C369 C 0.06458 0.25427 0.33494
 C370 C 0.01338 0.72246 0.08967
 H371 H 0.02775 0.73250 0.08916
 C372 C 0.01245 0.70352 0.07592
 H373 H 0.02612 0.69898 0.06480
 C374 C -0.02176 0.71572 0.10522
 H375 H -0.03492 0.72024 0.11694
 C376 C -0.02335 0.69666 0.09177
 H377 H -0.03777 0.68673 0.09312
 N378 N -0.00364 0.72829 0.10385
 C379 C 0.00168 0.79869 0.11464
 H380 H 0.00075 0.79949 0.13367
 C381 C 0.00336 0.81781 0.10164
 H382 H 0.00372 0.83336 0.11069
 C383 C 0.00209 0.77754 0.07957
 H384 H 0.00133 0.76186 0.07099
 C385 C 0.00377 0.79630 0.06589
 H386 H 0.00441 0.79495 0.04685
 Zn387 Zn -0.00106 0.75387 0.12285
 N388 N 0.00132 0.77903 0.10354
 C389 C 0.04079 0.76546 0.13976
 N390 N 0.02439 0.75077 0.14164
 C391 C 0.02629 0.73318 0.15589
 C392 C 0.04511 0.73002 0.16919
 C393 C 0.05981 0.76291 0.15273
 C394 C -0.04537 0.76162 0.13084
 C395 C -0.06478 0.76390 0.14357
 C396 C -0.04483 0.75826 0.17951
 C397 C -0.02575 0.75610 0.16605
 N398 N -0.02640 0.75745 0.14212
 H399 H 0.03934 0.77903 0.12796
 H400 H 0.01323 0.72150 0.15679
 H401 H 0.04648 0.71594 0.18041
 H402 H 0.07276 0.77466 0.15098
 H403 H -0.04543 0.76286 0.11184
 H404 H -0.07977 0.76684 0.13423
 H405 H -0.04411 0.75680 0.19851
 H406 H -0.01051 0.75317 0.17477
 C407 C 0.00449 0.81664 0.07703
 C408 C -0.00610 0.69048 0.07697
 C409 C -0.06460 0.76205 0.16816
 C410 C 0.06205 0.74504 0.16758
 C411 C 0.51428 0.22193 0.58848
 H412 H 0.52867 0.23194 0.58791
 C413 C 0.51325 0.20300 0.57472
 H414 H 0.52688 0.19845 0.56353
 C415 C 0.47919 0.21524 0.60419
 H416 H 0.46609 0.21978 0.61598
 C417 C 0.47751 0.19621 0.59072
 H418 H 0.46307 0.18629 0.59214
 N419 N 0.49733 0.22778 0.60275
 C420 C 0.50292 0.29816 0.61369
 H421 H 0.50208 0.29891 0.63272
 C422 C 0.50455 0.31731 0.60073
 H423 H 0.50497 0.33283 0.60983
 C424 C 0.50310 0.27709 0.57856
 H425 H 0.50226 0.26143 0.56993
 C426 C 0.50473 0.29588 0.56492
 H427 H 0.50525 0.29458 0.54588
 Zn428 Zn 0.50006 0.25332 0.62179
 N429 N 0.50246 0.27852 0.60253
 C430 C 0.54196 0.26475 0.63872
 N431 N 0.52552 0.25010 0.64052
 C432 C 0.52734 0.23247 0.65474
 C433 C 0.54610 0.22926 0.66811
 C434 C 0.56093 0.26214 0.65176
 C435 C 0.45576 0.26116 0.63001
 C436 C 0.43645 0.26354 0.64289
 C437 C 0.45659 0.25798 0.67868
 C438 C 0.47558 0.25570 0.66511
 N439 N 0.47479 0.25697 0.64117
 H440 H 0.54056 0.27835 0.62695
 H441 H 0.51425 0.22084 0.65558
 H442 H 0.54740 0.21517 0.67932
 H443 H 0.57391 0.27387 0.65010
 H444 H 0.45558 0.26235 0.61100
 H445 H 0.42136 0.26650 0.63376
 H446 H 0.45731 0.25661 0.69767
 H447 H 0.49086 0.25278 0.67374
 C448 C 0.50553 0.31619 0.57611
 C449 C 0.49469 0.19000 0.57584
 C450 C 0.43680 0.26179 0.66745
 C451 C 0.56307 0.24425 0.66661
 C452 C 0.51511 0.77858 0.91110
 H453 H 0.52931 0.76823 0.91183
 C454 C 0.51417 0.79768 0.92461
 H455 H 0.52768 0.80204 0.93578
 C456 C 0.48045 0.78597 0.89513
 H457 H 0.46750 0.78166 0.88330
 C458 C 0.47887 0.80519 0.90833
 H459 H 0.46466 0.81545 0.90669
 N460 N 0.49834 0.77302 0.89680
 C461 C 0.50276 0.70263 0.88564
 H462 H 0.50202 0.70207 0.86661
 C463 C 0.50389 0.68333 0.89837
 H464 H 0.50401 0.66789 0.88910
 C465 C 0.50322 0.72339 0.92098
 H466 H 0.50270 0.73900 0.92976
 C467 C 0.50434 0.70443 0.93441
 H468 H 0.50479 0.70554 0.95345
 Zn469 Zn 0.50095 0.74740 0.87784
 N470 N 0.50267 0.72217 0.89701
 C471 C 0.54294 0.73501 0.86135
 N472 N 0.52674 0.74995 0.85914
 C473 C 0.52918 0.76739 0.84475
 C474 C 0.54838 0.77015 0.83169
 C475 C 0.56232 0.73715 0.84863
 C476 C 0.45681 0.74025 0.87012
 C477 C 0.43751 0.73810 0.85758
 C478 C 0.45768 0.74355 0.82146
 C479 C 0.47668 0.74559 0.83471
 N480 N 0.47586 0.74424 0.85866
 H481 H 0.54107 0.72157 0.87327
 H482 H 0.51627 0.77928 0.84360
 H483 H 0.55020 0.78413 0.82039
 H484 H 0.57511 0.72521 0.85068
 H485 H 0.45662 0.73901 0.88913
 H486 H 0.42241 0.73527 0.86697
 H487 H 0.45840 0.74498 0.80246
 H488 H 0.49199 0.74839 0.82585
 C489 C 0.50475 0.68421 0.92298
 C490 C 0.49588 0.81114 0.92319
 C491 C 0.43787 0.73990 0.83303
 C492 C 0.56513 0.75488 0.83368
 C493 C -0.22751 0.63722 0.97600
 H494 H -0.21830 0.63777 0.99213
 C495 C -0.22059 0.64905 0.95643
 H496 H -0.20616 0.65899 0.95751
 C497 C -0.25743 0.62331 0.95463
 H498 H -0.27148 0.61291 0.95381
 C499 C -0.25107 0.63482 0.93471
 H500 H -0.26051 0.63360 0.91872
 N501 N -0.24576 0.62486 0.97482
 C502 C -0.26609 0.61529 1.04763
 H503 H -0.26688 0.59775 1.04778
 C504 C -0.27154 0.62717 1.06786
 H505 H -0.27627 0.61874 1.08378
 C506 C -0.25885 0.64769 1.02666
 H507 H -0.25418 0.65559 1.01049
 C508 C -0.26416 0.66021 1.04652
 H509 H -0.26316 0.67775 1.04569
 Zn510 Zn -0.25325 0.60800 1.00125
 N511 N -0.25960 0.62564 1.02771
 C512 C -0.21770 0.59181 1.02732
 N513 N -0.22922 0.58997 1.00704
 C514 C -0.22228 0.57708 0.98891
 C515 C -0.20275 0.56572 0.99056
 C516 C -0.19805 0.58073 1.02969
 C517 C -0.29692 0.60336 0.99219
 C518 C -0.31671 0.59282 0.98948
 C519 C -0.29812 0.55840 0.99336
 C520 C -0.27859 0.56961 0.99595
 N521 N -0.27840 0.59170 0.99533
 H522 H -0.22319 0.60262 1.04123
 H523 H -0.23154 0.57635 0.97280
 H524 H -0.19695 0.55607 0.97574
 H525 H -0.18854 0.58286 1.04551
 H526 H -0.29630 0.62091 0.99221
 H527 H -0.33144 0.60224 0.98734
 H528 H -0.29831 0.54084 0.99429
 H529 H -0.26375 0.56072 0.99905
 C530 C -0.27047 0.64983 1.06732
 C531 C -0.23251 0.64778 0.93562
 C532 C -0.31732 0.57017 0.99024
 C533 C -0.19039 0.56786 1.01098
 C534 C -0.22420 0.36227 0.53098
 H535 H -0.21478 0.36118 0.51484
 C536 C -0.21836 0.35076 0.54982
 H537 H -0.20427 0.34021 0.54891
 C538 C -0.25438 0.37839 0.55139
 H539 H -0.26793 0.38951 0.55219
 C540 C -0.24865 0.36591 0.57248
 H541 H -0.25863 0.36751 0.58823
 N542 N -0.24299 0.37622 0.53207
 C543 C -0.26202 0.38585 0.45922
 H544 H -0.26249 0.40341 0.45905
 C545 C -0.26774 0.37410 0.43913
 H546 H -0.27234 0.38259 0.42327
 C547 C -0.25552 0.35330 0.48015
 H548 H -0.25108 0.34530 0.49628
 C549 C -0.26111 0.34090 0.46040
 H550 H -0.26055 0.32334 0.46119
 Zn551 Zn -0.24964 0.39304 0.50542
 N552 N -0.25582 0.37536 0.47908
 C553 C -0.21366 0.40836 0.47907
 N554 N -0.22533 0.41061 0.49942
 C555 C -0.21857 0.42384 0.51719
 C556 C -0.19913 0.43522 0.51504
 C557 C -0.19411 0.41946 0.47621
 C558 C -0.29338 0.39829 0.51403
 C559 C -0.31328 0.40895 0.51581
 C560 C -0.29464 0.44318 0.51114
 C561 C -0.27498 0.43183 0.50951
 N562 N -0.27479 0.40978 0.51088
 H563 H -0.21901 0.39732 0.46545
 H564 H -0.22797 0.42494 0.53334
 H565 H -0.19352 0.44523 0.52953
 H566 H -0.18454 0.41710 0.46029
 H567 H -0.29271 0.38075 0.51457
 H568 H -0.32803 0.39957 0.51783
 H569 H -0.29480 0.46070 0.50947
 H570 H -0.26006 0.44056 0.50641
 C571 C -0.26723 0.35144 0.43972
 C572 C -0.23138 0.35262 0.57174
 C573 C -0.31395 0.43156 0.51410
 C574 C -0.18668 0.43276 0.49449
 C575 C 0.27583 -0.13709 0.03034
 H576 H 0.28526 -0.13818 0.01420
 C577 C 0.28165 -0.14861 0.04918
 H578 H 0.29573 -0.15917 0.04827
 C579 C 0.24565 -0.12096 0.05073
 H580 H 0.23209 -0.10983 0.05152
 C581 C 0.25135 -0.13345 0.07181
 H582 H 0.24136 -0.13184 0.08756
 N583 N 0.25704 -0.12313 0.03141
 C584 C 0.23798 -0.11356 -0.04144
 H585 H 0.23749 -0.09600 -0.04162
 C586 C 0.23228 -0.12533 -0.06153
 H587 H 0.22767 -0.11686 -0.07739
 C588 C 0.24454 -0.14609 -0.02050
 H589 H 0.24898 -0.15408 -0.00435
 C590 C 0.23897 -0.15851 -0.04024
 H591 H 0.23955 -0.17607 -0.03944
 Zn592 Zn 0.25037 -0.10633 0.00474
 N593 N 0.24420 -0.12403 -0.02158
 C594 C 0.28632 -0.09100 -0.02163
 N595 N 0.27467 -0.08873 -0.00128
 C596 C 0.28143 -0.07549 0.01647
 C597 C 0.30087 -0.06411 0.01430
 C598 C 0.30587 -0.07991 -0.02452
 C599 C 0.20664 -0.10115 0.01336
 C600 C 0.18671 -0.09053 0.01521
 C601 C 0.20529 -0.05625 0.01060
 C602 C 0.22496 -0.06757 0.00890
 N603 N 0.22520 -0.08962 0.01021
 H604 H 0.28097 -0.10205 -0.03524
 H605 H 0.27204 -0.07438 0.03263
 H606 H 0.30649 -0.05409 0.02877
 H607 H 0.31543 -0.08228 -0.04045
 H608 H 0.20733 -0.11869 0.01387
 H609 H 0.17198 -0.09994 0.01725
 H610 H 0.20509 -0.03873 0.00899
 H611 H 0.23987 -0.05881 0.00580
 C612 C 0.23283 -0.14799 -0.06092
 C613 C 0.26861 -0.14675 0.07108
 C614 C 0.18600 -0.06792 0.01357
 C615 C 0.31331 -0.06659 -0.00626
 C616 C 0.27262 1.13664 0.47621
 H617 H 0.28190 1.13722 0.49231
 C618 C 0.27947 1.14843 0.45659
 H619 H 0.29390 1.15839 0.45759
 C620 C 0.24264 1.12267 0.45500
 H621 H 0.22859 1.11226 0.45425
 C622 C 0.24892 1.13415 0.43502
 H623 H 0.23942 1.13289 0.41908
 N624 N 0.25437 1.12427 0.47513
 C625 C 0.23431 1.11480 0.54804
 H626 H 0.23356 1.09726 0.54824
 C627 C 0.22883 1.12672 0.56823
 H628 H 0.22411 1.11837 0.58420
 C629 C 0.24143 1.14718 0.52698
 H630 H 0.24605 1.15506 0.51077
 C631 C 0.23608 1.15972 0.54680
 H632 H 0.23700 1.17726 0.54598
 Zn633 Zn 0.24697 1.10745 0.50162
 N634 N 0.24074 1.12513 0.52808
 C635 C 0.28262 1.09125 0.52751
 N636 N 0.27099 1.08938 0.50731
 C637 C 0.27780 1.07645 0.48916
 C638 C 0.29733 1.06508 0.49069
 C639 C 0.30229 1.08016 0.52975
 C640 C 0.20327 1.10294 0.49278
 C641 C 0.18343 1.09248 0.49018
 C642 C 0.20190 1.05799 0.49401
 C643 C 0.22149 1.06913 0.49650
 N644 N 0.22175 1.09121 0.49584
 H645 H 0.27722 1.10209 0.54142
 H646 H 0.26845 1.07570 0.47312
 H647 H 0.30304 1.05541 0.47585
 H648 H 0.31190 1.08232 0.54549
 H649 H 0.20397 1.12049 0.49277
 H650 H 0.16873 1.10196 0.48810
 H651 H 0.20164 1.04043 0.49496
 H652 H 0.23630 1.06018 0.49953
 C653 C 0.22980 1.14937 0.56760
 C654 C 0.26748 1.14712 0.43583
 C655 C 0.18273 1.06984 0.49097
 C656 C 0.30983 1.06726 0.51101
 C657 C 0.16496 0.47210 0.26986
 H658 H 0.16659 0.48645 0.28081
 C659 C 0.17682 0.45332 0.27502
 H660 H 0.18775 0.45318 0.28987
 C661 C 0.14842 0.45439 0.23740
 H662 H 0.13703 0.45457 0.22308
 C663 C 0.15987 0.43540 0.24192
 H664 H 0.15747 0.42122 0.23084
 N665 N 0.15134 0.47237 0.25108
 C666 C 0.14249 0.53934 0.22933
 H667 H 0.12510 0.53898 0.22683
 C668 C 0.15390 0.55851 0.22565
 H669 H 0.14531 0.57302 0.22032
 C670 C 0.17481 0.52108 0.24032
 H671 H 0.18284 0.50650 0.24615
 C672 C 0.18687 0.54000 0.23690
 H673 H 0.20414 0.54003 0.24033
 Zn674 Zn 0.13495 0.49756 0.24440
 N675 N 0.15293 0.52133 0.23715
 C676 C 0.12063 0.52405 0.28238
 N677 N 0.11794 0.50453 0.27133
 C678 C 0.10433 0.48926 0.28025
 C679 C 0.09267 0.49342 0.30103
 C680 C 0.10929 0.52886 0.30316
 C681 C 0.12873 0.48966 0.19695
 C682 C 0.11764 0.48513 0.17620
 C683 C 0.08387 0.48647 0.19825
 C684 C 0.09566 0.49096 0.21867
 N685 N 0.11769 0.49223 0.21765
 H686 H 0.13195 0.53577 0.27548
 H687 H 0.10284 0.47371 0.27142
 H688 H 0.08207 0.48109 0.30821
 H689 H 0.11177 0.54429 0.31200
 H690 H 0.14624 0.49096 0.19668
 H691 H 0.12667 0.48314 0.15984
 H692 H 0.06631 0.48556 0.19918
 H693 H 0.08720 0.49340 0.23522
 C694 C 0.17619 0.55894 0.22990
 C695 C 0.17424 0.43487 0.26079
 C696 C 0.09502 0.48343 0.17685
 C697 C 0.09528 0.51337 0.31261
 C698 C -0.16369 1.02610 0.27394
 H699 H -0.16579 1.01173 0.28455
 C700 C -0.17548 1.04499 0.27932
 H701 H -0.18684 1.04521 0.29398
 C702 C -0.14612 1.04370 0.24206
 H703 H -0.13438 1.04343 0.22787
 C704 C -0.15746 1.06279 0.24683
 H705 H -0.15464 1.07696 0.23604
 N706 N -0.14965 1.02569 0.25527
 C707 C -0.14178 0.95870 0.23189
 H708 H -0.12437 0.95877 0.22925
 C709 C -0.15349 0.93975 0.22794
 H710 H -0.14511 0.92510 0.22227
 C711 C -0.17387 0.97749 0.24351
 H712 H -0.18170 0.99220 0.24967
 C713 C -0.18623 0.95880 0.23983
 H714 H -0.20353 0.95906 0.24341
 Zn715 Zn -0.13364 1.00029 0.24779
 N716 N -0.15197 0.97687 0.24018
 C717 C -0.11995 0.97336 0.28495
 N718 N -0.11681 0.99286 0.27430
 C719 C -0.10297 1.00784 0.28341
 C720 C -0.09156 1.00339 0.30400
 C721 C -0.10888 0.96827 0.30553
 C722 C -0.12748 1.00836 0.20051
 C723 C -0.11654 1.01345 0.17972
 C724 C -0.08268 1.01220 0.20097
 C725 C -0.09431 1.00714 0.22146
 N726 N -0.11634 1.00562 0.22087
 H727 H -0.13147 0.96190 0.27793
 H728 H -0.10114 1.02340 0.27491
 H729 H -0.08080 1.01550 0.31137
 H730 H -0.11175 0.95287 0.31409
 H731 H -0.14498 1.00692 0.20058
 H732 H -0.12563 1.01569 0.16364
 H733 H -0.06515 1.01343 0.20152
 H734 H -0.08578 1.00460 0.23776
 C735 C -0.17582 0.93969 0.23239
 C736 C -0.17235 1.06342 0.26547
 C737 C -0.09397 1.01555 0.17997
 C738 C -0.09466 0.98346 0.31520
 C739 C 0.33551 0.52623 -0.22616
 H740 H 0.33333 0.51193 -0.21548
 C741 C 0.32385 0.54523 -0.22087
 H742 H 0.31250 0.54559 -0.20620
 C743 C 0.35316 0.54357 -0.25816
 H744 H 0.36488 0.54317 -0.27237
 C745 C 0.34195 0.56276 -0.25349
 H746 H 0.34485 0.57686 -0.26436
 N747 N 0.34953 0.52565 -0.24485
 C748 C 0.35778 0.45755 -0.26854
 H749 H 0.37514 0.45777 -0.27158
 C750 C 0.34656 0.43938 -0.27230
 H751 H 0.35484 0.42482 -0.27841
 C752 C 0.32601 0.47740 -0.25677
 H753 H 0.31818 0.49205 -0.25046
 C754 C 0.31297 0.45761 -0.26051
 H755 H 0.29574 0.45791 -0.25644
 Zn756 Zn 0.36541 0.50013 -0.25223
 N757 N 0.34700 0.47676 -0.25980
 C758 C 0.37907 0.47314 -0.21513
 N759 N 0.38219 0.49267 -0.22571
 C760 C 0.39604 0.50763 -0.21656
 C761 C 0.40747 0.50312 -0.19600
 C762 C 0.39017 0.46799 -0.19458
 C763 C 0.37169 0.50796 -0.29955
 C764 C 0.38269 0.51301 -0.32032
 C765 C 0.41647 0.51185 -0.29895
 C766 C 0.40479 0.50683 -0.27848
 N767 N 0.38277 0.50529 -0.27914
 H768 H 0.36757 0.46168 -0.22221
 H769 H 0.39786 0.52320 -0.22502
 H770 H 0.41824 0.51521 -0.18861
 H771 H 0.38733 0.45255 -0.18608
 H772 H 0.35419 0.50652 -0.29954
 H773 H 0.37370 0.51523 -0.33646
 H774 H 0.43399 0.51312 -0.29840
 H775 H 0.41329 0.50435 -0.26214
 C776 C 0.32298 0.43927 -0.26748
 C777 C 0.32708 0.56357 -0.23483
 C778 C 0.40524 0.51515 -0.31997
 C779 C 0.40440 0.48315 -0.18488
 C780 C 0.66720 -0.02793 -0.22916
 H781 H 0.66893 -0.01360 -0.21819
 C782 C 0.67847 -0.04599 -0.22430
 H783 H 0.68940 -0.04627 -0.20946
 C784 C 0.64972 -0.04473 -0.26200
 H785 H 0.63821 -0.04454 -0.27620
 C786 C 0.66178 -0.06483 -0.25739
 H787 H 0.65923 -0.07886 -0.26869
 N788 N 0.65269 -0.02752 -0.24893
 C789 C 0.64381 0.03952 -0.27036
 H790 H 0.62642 0.03915 -0.27290
 C791 C 0.65520 0.05871 -0.27397
 H792 H 0.64655 0.07319 -0.27930
 C793 C 0.67612 0.02127 -0.25934
 H794 H 0.68413 0.00668 -0.25351
 C795 C 0.68818 0.04020 -0.26268
 H796 H 0.70545 0.04018 -0.25919
 Zn797 Zn 0.63628 -0.00228 -0.25538
 N798 N 0.65425 0.02151 -0.26256
 C799 C 0.62207 0.02410 -0.21727
 N800 N 0.61937 0.00460 -0.22835
 C801 C 0.60578 -0.01070 -0.21944
 C802 C 0.59412 -0.00656 -0.19866
 C803 C 0.61073 0.02888 -0.19648
 C804 C 0.62986 -0.00988 -0.30286
 C805 C 0.61870 -0.01448 -0.32355
 C806 C 0.58505 -0.01341 -0.30133
 C807 C 0.59688 -0.00885 -0.28097
 N808 N 0.61891 -0.00744 -0.28209
 H809 H 0.63337 0.03583 -0.22416
 H810 H 0.60428 -0.02623 -0.22831
 H811 H 0.58351 -0.01890 -0.19151
 H812 H 0.61319 0.04431 -0.18763
 H813 H 0.64736 -0.00849 -0.30322
 H814 H 0.62757 -0.01642 -0.34000
 H815 H 0.56752 -0.01449 -0.30042
 H816 H 0.58848 -0.00652 -0.26436
 C817 C 0.67749 0.05917 -0.26966
 C818 C 0.67562 -0.06547 -0.23936
 C819 C 0.59613 -0.01638 -0.32275
 C820 C 0.59671 0.01338 -0.18706
 C821 C 0.02928 0.26589 0.83876
 H822 H 0.01892 0.28007 0.83798
 C823 C 0.04842 0.26498 0.82530
 H824 H 0.05278 0.27848 0.81412
 C825 C 0.03670 0.23125 0.85477
 H826 H 0.03238 0.21829 0.86659
 C827 C 0.05595 0.22969 0.84162
 H828 H 0.06623 0.21549 0.84330
 N829 N 0.02372 0.24911 0.85305
 C830 C -0.04670 0.25345 0.86403
 H831 H -0.04730 0.25273 0.88306
 C832 C -0.06597 0.25452 0.85125
 H833 H -0.08143 0.25462 0.86049
 C834 C -0.02587 0.25390 0.82874
 H835 H -0.01024 0.25340 0.82000
 C836 C -0.04480 0.25497 0.81526
 H837 H -0.04366 0.25540 0.79622
 Zn838 Zn -0.00195 0.25169 0.87194
 N839 N -0.02714 0.25338 0.85271
 C840 C -0.01444 0.29364 0.88850
 N841 N 0.00053 0.27747 0.89068
 C842 C 0.01794 0.27988 0.90512
 C843 C 0.02062 0.29903 0.91828
 C844 C -0.01237 0.31297 0.90132
 C845 C -0.00902 0.20751 0.87969
 C846 C -0.01121 0.18823 0.89227
 C847 C -0.00598 0.20848 0.92837
 C848 C -0.00391 0.22746 0.91508
 N849 N -0.00513 0.22659 0.89113
 H850 H -0.02785 0.29178 0.87654
 H851 H 0.02984 0.26699 0.90624
 H852 H 0.03455 0.30083 0.92964
 H853 H -0.02434 0.32575 0.89932
 H854 H -0.01017 0.20728 0.86067
 H855 H -0.01396 0.17310 0.88290
 H856 H -0.00467 0.20925 0.94738
 H857 H -0.00119 0.24280 0.92393
 C858 C -0.06505 0.25535 0.82664
 C859 C 0.06190 0.24671 0.82676
 C860 C -0.00954 0.18865 0.91683
 C861 C 0.00531 0.31576 0.91635
 C862 C 0.47140 0.26341 0.16128
 H863 H 0.48145 0.27777 0.16189
 C864 C 0.45242 0.26245 0.17497
 H865 H 0.44787 0.27609 0.18613
 C866 C 0.46466 0.22834 0.14557
 H867 H 0.46920 0.21521 0.13380
 C868 C 0.44557 0.22672 0.15895
 H869 H 0.43562 0.21231 0.15750
 N870 N 0.47725 0.24644 0.14705
 C871 C 0.54767 0.25185 0.13642
 H872 H 0.54849 0.25101 0.11739
 C873 C 0.56677 0.25347 0.14946
 H874 H 0.58232 0.25386 0.14043
 C875 C 0.52647 0.25209 0.17146
 H876 H 0.51078 0.25127 0.18002
 C877 C 0.54521 0.25370 0.18518
 H878 H 0.54384 0.25423 0.20422
 Zn879 Zn 0.50287 0.24910 0.12813
 N880 N 0.52799 0.25143 0.14749
 C881 C 0.51446 0.29099 0.11128
 N882 N 0.49979 0.27458 0.10940
 C883 C 0.48222 0.27646 0.09511
 C884 C 0.47909 0.29524 0.08175
 C885 C 0.51194 0.30999 0.09825
 C886 C 0.51060 0.20478 0.11988
 C887 C 0.51301 0.18548 0.10697
 C888 C 0.50770 0.20570 0.07119
 C889 C 0.50539 0.22468 0.08479
 N890 N 0.50653 0.22384 0.10873
 H891 H 0.52801 0.28955 0.12311
 H892 H 0.47056 0.26339 0.09420
 H893 H 0.46506 0.29659 0.07048
 H894 H 0.52370 0.32294 0.09998
 H895 H 0.51169 0.20456 0.13889
 H896 H 0.51588 0.17037 0.11609
 H897 H 0.50643 0.20647 0.05219
 H898 H 0.50256 0.23998 0.07617
 C899 C 0.56556 0.25447 0.17408
 C900 C 0.43936 0.24392 0.17380
 C901 C 0.51140 0.18588 0.08240
 C902 C 0.49412 0.31218 0.08333
 C903 C -0.02888 0.76447 0.66214
 H904 H -0.01875 0.77879 0.66273
 C905 C -0.04703 0.76359 0.67530
 H906 H -0.05153 0.77721 0.68653
 C907 C -0.03484 0.72920 0.64573
 H908 H -0.03042 0.71607 0.63392
 C909 C -0.05498 0.72752 0.65993
 H910 H -0.06488 0.71306 0.65839
 N911 N -0.02275 0.74651 0.64708
 C912 C 0.04762 0.75196 0.63624
 H913 H 0.04842 0.75108 0.61721
 C914 C 0.06673 0.75361 0.64925
 H915 H 0.08227 0.75399 0.64020
 C916 C 0.02646 0.75226 0.67131
 H917 H 0.01077 0.75147 0.67988
 C918 C 0.04521 0.75391 0.68500
 H919 H 0.04386 0.75449 0.70403
 Zn920 Zn 0.00280 0.74920 0.62804
 N921 N 0.02795 0.75155 0.64734
 C922 C 0.01431 0.79112 0.61126
 N923 N -0.00036 0.77471 0.60938
 C924 C -0.01796 0.77662 0.59514
 C925 C -0.02112 0.79544 0.58185
 C926 C 0.01176 0.81015 0.59830
 C927 C 0.01065 0.70491 0.61973
 C928 C 0.01304 0.68561 0.60681
 C929 C 0.00744 0.70580 0.57107
 C930 C 0.00516 0.72478 0.58467
 N931 N 0.00645 0.72395 0.60861
 H932 H 0.02790 0.78966 0.62305
 H933 H -0.02962 0.76356 0.59423
 H934 H -0.03519 0.79682 0.57062
 H935 H 0.02352 0.82310 0.60004
 H936 H 0.01186 0.70469 0.63873
 H937 H 0.01601 0.67051 0.61592
 H938 H 0.00605 0.70655 0.55208
 H939 H 0.00222 0.74007 0.57607
 C940 C 0.06555 0.75466 0.67387
 C941 C -0.06089 0.74404 0.67415
 C942 C 0.01127 0.68599 0.58226
 C943 C -0.00610 0.81239 0.58344
 C944 C 0.52932 0.76535 0.33731
 H945 H 0.51895 0.77953 0.33652
 C946 C 0.54847 0.76445 0.32386
 H947 H 0.55282 0.77795 0.31268
 C948 C 0.53675 0.73073 0.35335
 H949 H 0.53244 0.71778 0.36519
 C950 C 0.55601 0.72918 0.34021
 H951 H 0.56630 0.71499 0.34191
 N952 N 0.52377 0.74858 0.35162
 C953 C 0.45334 0.75292 0.36273
 H954 H 0.45279 0.75217 0.38176
 C955 C 0.43405 0.75405 0.35001
 H956 H 0.41861 0.75416 0.35928
 C957 C 0.47410 0.75345 0.32738
 H958 H 0.48972 0.75295 0.31860
 C959 C 0.45514 0.75458 0.31397
 H960 H 0.45625 0.75506 0.29492
 Zn961 Zn 0.49811 0.75117 0.37055
 N962 N 0.47289 0.75287 0.35136
 C963 C 0.48564 0.79314 0.38707
 N964 N 0.50061 0.77697 0.38925
 C965 C 0.51803 0.77941 0.40367
 C966 C 0.52072 0.79857 0.41681
 C967 C 0.48771 0.81249 0.39987
 C968 C 0.49106 0.70699 0.37835
 C969 C 0.48890 0.68772 0.39096
 C970 C 0.49417 0.70802 0.42703
 C971 C 0.49622 0.72698 0.41372
 N972 N 0.49496 0.72609 0.38977
 H973 H 0.47222 0.79126 0.37513
 H974 H 0.52995 0.76652 0.40480
 H975 H 0.53467 0.80039 0.42814
 H976 H 0.47574 0.82525 0.39786
 H977 H 0.48988 0.70674 0.35934
 H978 H 0.48614 0.67258 0.38162
 H979 H 0.49550 0.70881 0.44604
 H980 H 0.49893 0.74233 0.42254
 C981 C 0.43492 0.75496 0.32540
 C982 C 0.56197 0.74619 0.32534
 C983 C 0.49060 0.68816 0.41552
 C984 C 0.50541 0.81529 0.41486
 B985 B -0.01297 0.01328 1.01434
 B986 B -0.02522 0.00807 0.98887
 B987 B -0.00524 0.02624 0.99007
 B988 B 0.01360 0.01770 1.00933
 B989 B 0.00471 -0.00667 1.01995
 B990 B -0.01970 -0.01243 1.00727
 B991 B 0.01087 -0.01095 0.97255
 B992 B 0.02310 -0.00572 0.99801
 B993 B 0.00312 -0.02390 0.99685
 B994 B -0.01572 -0.01537 0.97755
 B995 B -0.00682 0.00902 0.96692
 B996 B 0.01758 0.01479 0.97962
 B997 B 0.48722 0.51297 0.51348
 B998 B 0.47506 0.50772 0.48797
 B999 B 0.49501 0.52591 0.48921
 B1000 B 0.51380 0.51741 0.50856
 B1001 B 0.50490 0.49305 0.51919
 B1002 B 0.48053 0.48725 0.50642
 B1003 B 0.51122 0.48870 0.47183
 B1004 B 0.52335 0.49399 0.49732
 B1005 B 0.50340 0.47579 0.49611
 B1006 B 0.48462 0.48427 0.47672
 B1007 B 0.49353 0.50865 0.46609
 B1008 B 0.51788 0.51446 0.47887
 B1009 B 0.51248 0.99158 0.51302
 B1010 B 0.52491 0.99672 0.48751
 B1011 B 0.50482 0.97868 0.48860
 B1012 B 0.48592 0.98732 0.50822
 B1013 B 0.49489 1.01164 0.51919
 B1014 B 0.51942 1.01725 0.50634
 B1015 B 0.48903 1.01597 0.47192
 B1016 B 0.47663 1.01081 0.49743
 B1017 B 0.49672 1.02886 0.49636
 B1018 B 0.51562 1.02023 0.47670
 B1019 B 0.50664 0.99589 0.46574
 B1020 B 0.48213 0.99028 0.47861
 B1021 B 0.01224 0.49204 1.01456
 B1022 B 0.02474 0.49714 0.98909
 B1023 B 0.00467 0.47908 0.99014
 B1024 B -0.01430 0.48774 1.00967
 B1025 B -0.00540 0.51209 1.02061
 B1026 B 0.01916 0.51771 1.00784
 B1027 B -0.01110 0.51632 0.97331
 B1028 B -0.02358 0.51119 0.99878
 B1029 B -0.00352 0.52927 0.99775
 B1030 B 0.01547 0.52061 0.97819
 B1031 B 0.00655 0.49625 0.96724
 B1032 B -0.01800 0.49063 0.98003
 B1033 B 0.01480 0.51067 0.48064
 B1034 B 0.02752 0.50577 0.50584
 B1035 B 0.00753 0.52406 0.50509
 B1036 B -0.01168 0.51536 0.48626
 B1037 B -0.00301 0.49074 0.47546
 B1038 B 0.02165 0.48501 0.48760
 B1039 B -0.00824 0.48726 0.52299
 B1040 B -0.02097 0.49216 0.49782
 B1041 B -0.00097 0.47388 0.49856
 B1042 B 0.01824 0.48258 0.51740
 B1043 B 0.00955 0.50718 0.52821
 B1044 B -0.01509 0.51292 0.51606
 B1045 B 0.51510 0.01081 -0.01970
 B1046 B 0.52766 0.00577 0.00557
 B1047 B 0.50775 0.02415 0.00476
 B1048 B 0.48860 0.01559 -0.01424
 B1049 B 0.49723 -0.00903 -0.02508
 B1050 B 0.52180 -0.01490 -0.01280
 B1051 B 0.49172 -0.01265 0.02240
 B1052 B 0.47916 -0.00761 -0.00284
 B1053 B 0.49907 -0.02597 -0.00203
 B1054 B 0.51821 -0.01742 0.01697
 B1055 B 0.50956 0.00718 0.02782
 B1056 B 0.48502 0.01306 0.01552
 B1057 B 0.48371 0.48586 -0.01795
 B1058 B 0.47122 0.49128 0.00757
 B1059 B 0.49126 0.47303 0.00642
 B1060 B 0.51026 0.48138 -0.01306
 B1061 B 0.50140 0.50572 -0.02382
 B1062 B 0.47684 0.51165 -0.01102
 B1063 B 0.50708 0.51029 0.02350
 B1064 B 0.51956 0.50484 -0.00199
 B1065 B 0.49953 0.52308 -0.00083
 B1066 B 0.48054 0.51476 0.01865
 B1067 B 0.48941 0.49043 0.02943
 B1068 B 0.51395 0.48450 0.01662
 B1069 B -0.01649 0.98634 0.48277
 B1070 B -0.02911 0.99174 0.50823
 B1071 B -0.00904 0.97351 0.50717
 B1072 B 0.01004 0.98189 0.48781
 B1073 B 0.00120 1.00623 0.47701
 B1074 B -0.02342 1.01212 0.48967
 B1075 B 0.00666 1.01079 0.52437
 B1076 B 0.01926 1.00536 0.49894
 B1077 B -0.00080 1.02358 0.50000
 B1078 B -0.01987 1.01523 0.51937
 B1079 B -0.01102 0.99090 0.53019
 B1080 B 0.01359 0.98501 0.51751
 B1081 B 0.76206 0.23614 0.23701
 B1082 B 0.75684 0.22403 0.26256
 B1083 B 0.77504 0.24396 0.26123
 B1084 B 0.76654 0.26273 0.24187
 B1085 B 0.74215 0.25384 0.23132
 B1086 B 0.73634 0.22949 0.24414
 B1087 B 0.73790 0.26024 0.27868
 B1088 B 0.74314 0.27232 0.25314
 B1089 B 0.72493 0.25239 0.25444
 B1090 B 0.73343 0.23363 0.27384
 B1091 B 0.75784 0.24253 0.28440
 B1092 B 0.76364 0.26686 0.27156
 B1093 B 0.74163 0.76241 0.73625
 B1094 B 0.74679 0.77522 0.76154
 B1095 B 0.72886 0.75500 0.76085
 B1096 B 0.73755 0.73589 0.74150
 B1097 B 0.76177 0.74485 0.73027
 B1098 B 0.76728 0.76958 0.74271
 B1099 B 0.76630 0.73966 0.77761
 B1100 B 0.76112 0.72688 0.75233
 B1101 B 0.77906 0.74709 0.75300
 B1102 B 0.77038 0.76621 0.77239
 B1103 B 0.74614 0.75724 0.78361
 B1104 B 0.74062 0.73252 0.77116
 B1105 B 0.26176 0.26557 0.76944
 B1106 B 0.25670 0.27817 0.74420
 B1107 B 0.27497 0.25815 0.74493
 B1108 B 0.26637 0.23905 0.76396
 B1109 B 0.24184 0.24782 0.77491
 B1110 B 0.23607 0.27243 0.76265
 B1111 B 0.23802 0.24234 0.72745
 B1112 B 0.24308 0.22974 0.75266
 B1113 B 0.22483 0.24976 0.75194
 B1114 B 0.23342 0.26886 0.73290
 B1115 B 0.25793 0.26007 0.72195
 B1116 B 0.26372 0.23549 0.73421
 B1117 B 0.23649 0.73438 0.26723
 B1118 B 0.24170 0.72179 0.24171
 B1119 B 0.22349 0.74188 0.24295
 B1120 B 0.23201 0.76093 0.26227
 B1121 B 0.25641 0.75206 0.27285
 B1122 B 0.26222 0.72745 0.26010
 B1123 B 0.26065 0.75759 0.22547
 B1124 B 0.25541 0.77016 0.25096
 B1125 B 0.27361 0.75010 0.24972
 B1126 B 0.26512 0.73105 0.23039
 B1127 B 0.24072 0.73992 0.21979
 B1128 B 0.23492 0.76452 0.23256
 B1129 B 0.26218 0.73670 0.73630
 B1130 B 0.25703 0.72456 0.76185
 B1131 B 0.27522 0.74451 0.76049
 B1132 B 0.26665 0.76328 0.74117
 B1133 B 0.24224 0.75439 0.73067
 B1134 B 0.23649 0.73002 0.74349
 B1135 B 0.23810 0.76074 0.77805
 B1136 B 0.24327 0.77286 0.75251
 B1137 B 0.22508 0.75291 0.75383
 B1138 B 0.23363 0.73413 0.77320
 B1139 B 0.25806 0.74304 0.78370
 B1140 B 0.26382 0.76739 0.77087
 B1141 B 0.24063 0.26168 0.23649
 B1142 B 0.24587 0.27443 0.26178
 B1143 B 0.22793 0.25424 0.26111
 B1144 B 0.23654 0.23515 0.24169
 B1145 B 0.26074 0.24411 0.23041
 B1146 B 0.26631 0.26882 0.24287
 B1147 B 0.26540 0.23883 0.27772
 B1148 B 0.26014 0.22610 0.25243
 B1149 B 0.27810 0.24629 0.25307
 B1150 B 0.26949 0.26539 0.27254
 B1151 B 0.24527 0.25642 0.28382
 B1152 B 0.23970 0.23173 0.27133
 B1153 B 0.76190 0.76512 0.26830
 B1154 B 0.75687 0.77772 0.24306
 B1155 B 0.77514 0.75771 0.24380
 B1156 B 0.76653 0.73860 0.26282
 B1157 B 0.74199 0.74736 0.27373
 B1158 B 0.73622 0.77197 0.26148
 B1159 B 0.73822 0.74188 0.22627
 B1160 B 0.74326 0.72929 0.25148
 B1161 B 0.72499 0.74930 0.25074
 B1162 B 0.73360 0.76840 0.23172
 B1163 B 0.75813 0.75963 0.22080
 B1164 B 0.76391 0.73504 0.23306
 B1165 B 0.73683 0.23356 0.76773
 B1166 B 0.74219 0.22101 0.74222
 B1167 B 0.72388 0.24101 0.74341
 B1168 B 0.73225 0.26008 0.76278
 B1169 B 0.75666 0.25133 0.77345
 B1170 B 0.76262 0.22676 0.76069
 B1171 B 0.76101 0.25691 0.72608
 B1172 B 0.75563 0.26944 0.75157
 B1173 B 0.77393 0.24946 0.75037
 B1174 B 0.76559 0.23039 0.73099
 B1175 B 0.74119 0.23916 0.72031
 B1176 B 0.73523 0.26371 0.73309
 C1177 C 0.43159 1.02852 0.37385
 C1178 C 0.41950 1.03973 0.39441
 C1179 C 0.43127 1.04069 0.41468
 C1180 C 0.45390 1.03037 0.41226
 C1181 C 0.46477 1.04199 0.39148
 C1182 C 0.45300 1.04103 0.37121
 C1183 C 0.43811 1.00622 0.38324
 C1184 C 0.44979 1.00718 0.40335
 C1185 C 0.41902 1.02641 0.35218
 C1186 C 0.40873 1.02276 0.33466
 C1187 C 0.46656 1.02991 0.43393
 C1188 C 0.47684 1.02608 0.45133
 H1189 H 0.40323 1.04640 0.39313
 H1190 H 0.42511 1.04821 0.43076
 H1191 H 0.48023 1.05033 0.39260
 H1192 H 0.45837 1.04853 0.35495
 H1193 H 0.43390 0.99092 0.37481
 H1194 H 0.45557 0.99269 0.41214
 C1195 C -0.06795 0.52859 0.87477
 C1196 C -0.08013 0.53997 0.89517
 C1197 C -0.06850 0.54099 0.91553
 C1198 C -0.04591 0.53054 0.91337
 C1199 C -0.03484 0.54200 0.89260
 C1200 C -0.04646 0.54097 0.87224
 C1201 C -0.06161 0.50631 0.88436
 C1202 C -0.05007 0.50732 0.90457
 C1203 C -0.08038 0.52642 0.85301
 C1204 C -0.09058 0.52273 0.83543
 C1205 C -0.03340 0.53014 0.93514
 C1206 C -0.02322 0.52636 0.95262
 H1207 H -0.09636 0.54671 0.89371
 H1208 H -0.07474 0.54862 0.93152
 H1209 H -0.01935 0.55026 0.89380
 H1210 H -0.04094 0.54836 0.85597
 H1211 H -0.06584 0.49099 0.87600
 H1212 H -0.04443 0.49285 0.91350
 C1213 C 0.06723 -0.02493 0.87252
 C1214 C 0.07986 -0.03511 0.89293
 C1215 C 0.06843 -0.03559 0.91362
 C1216 C 0.04555 -0.02586 0.91176
 C1217 C 0.03464 -0.03848 0.89168
 C1218 C 0.04608 -0.03800 0.87099
 C1219 C 0.06034 -0.00243 0.88156
 C1220 C 0.04899 -0.00291 0.90211
 C1221 C 0.07946 -0.02350 0.85038
 C1222 C 0.08958 -0.02079 0.83242
 C1223 C 0.03323 -0.02499 0.93387
 C1224 C 0.02312 -0.02102 0.95159
 H1225 H 0.09627 -0.04145 0.89124
 H1226 H 0.07500 -0.04237 0.92967
 H1227 H 0.01940 -0.04710 0.89358
 H1228 H 0.04063 -0.04620 0.85512
 H1229 H 0.06406 0.01262 0.87258
 H1230 H 0.04299 0.01176 0.91073
 C1231 C 0.56758 0.47469 0.37181
 C1232 C 0.56060 0.49718 0.38079
 C1233 C 0.54928 0.49670 0.40136
 C1234 C 0.54595 0.47377 0.41108
 C1235 C 0.56887 0.46414 0.41294
 C1236 C 0.58028 0.46462 0.39223
 C1237 C 0.54648 0.46153 0.37034
 C1238 C 0.53507 0.46105 0.39105
 C1239 C 0.57979 0.47612 0.34966
 C1240 C 0.58988 0.47882 0.33168
 C1241 C 0.53364 0.47464 0.43320
 C1242 C 0.52352 0.47862 0.45092
 H1243 H 0.56425 0.51223 0.37176
 H1244 H 0.54323 0.51137 0.40994
 H1245 H 0.57549 0.45743 0.42900
 H1246 H 0.59671 0.45834 0.39055
 H1247 H 0.54105 0.45326 0.35450
 H1248 H 0.51987 0.45237 0.39299
 C1249 C 0.56609 0.52766 0.12023
 C1250 C 0.57591 0.54084 0.09990
 C1251 C 0.56365 0.54048 0.07996
 C1252 C 0.54285 0.52701 0.08244
 C1253 C 0.53087 0.53658 0.10397
 C1254 C 0.54313 0.53693 0.12389
 C1255 C 0.56273 0.50484 0.11001
 C1256 C 0.55056 0.50449 0.09022
 C1257 C 0.57923 0.52696 0.14158
 C1258 C 0.59006 0.52440 0.15891
 C1259 C 0.52973 0.52525 0.06117
 C1260 C 0.51927 0.52069 0.04406
 H1261 H 0.59107 0.54970 0.10108
 H1262 H 0.56826 0.54905 0.06405
 H1263 H 0.51432 0.54265 0.10358
 H1264 H 0.53708 0.54330 0.14059
 H1265 H 0.56938 0.49017 0.11765
 H1266 H 0.54680 0.48951 0.08092
 C1267 C 0.06560 1.02815 0.62115
 C1268 C 0.06198 1.00530 0.61111
 C1269 C 0.04979 1.00496 0.59133
 C1270 C 0.04232 1.02750 0.58339
 C1271 C 0.06326 1.04074 0.58078
 C1272 C 0.07555 1.04108 0.60070
 C1273 C 0.04273 1.03769 0.62476
 C1274 C 0.03046 1.03734 0.60485
 C1275 C 0.07877 1.02745 0.64248
 C1276 C 0.08962 1.02489 0.65978
 C1277 C 0.02920 1.02574 0.56212
 C1278 C 0.01877 1.02119 0.54498
 H1279 H 0.06848 0.99061 0.61886
 H1280 H 0.04586 0.98996 0.58215
 H1281 H 0.06795 1.04915 0.56480
 H1282 H 0.09080 1.04979 0.60181
 H1283 H 0.03677 1.04423 0.64142
 H1284 H 0.01397 1.04359 0.60442
 C1285 C -0.06484 0.47255 0.62272
 C1286 C -0.06006 0.49527 0.61326
 C1287 C -0.04850 0.49514 0.59282
 C1288 C -0.04277 0.47230 0.58371
 C1289 C -0.06460 0.46049 0.58186
 C1290 C -0.07624 0.46062 0.60243
 C1291 C -0.04255 0.46151 0.62473
 C1292 C -0.03091 0.46138 0.60417
 C1293 C -0.07731 0.47357 0.64477
 C1294 C -0.08760 0.47590 0.66274
 C1295 C -0.03028 0.47347 0.56175
 C1296 C -0.02020 0.47747 0.54410
 H1297 H -0.06533 0.51022 0.62187
 H1298 H -0.04388 0.51000 0.58393
 H1299 H -0.07033 0.45263 0.56590
 H1300 H -0.09198 0.45289 0.60410
 H1301 H -0.03649 0.45435 0.64082
 H1302 H -0.01488 0.45411 0.60261
 C1303 C 0.43415 -0.02771 0.12143
 C1304 C 0.45653 -0.03853 0.12371
 C1305 C 0.46837 -0.03857 0.10329
 C1306 C 0.45661 -0.02780 0.08268
 C1307 C 0.45057 -0.00500 0.09168
 C1308 C 0.43880 -0.00495 0.11199
 C1309 C 0.42307 -0.03978 0.10102
 C1310 C 0.43492 -0.03982 0.08058
 C1311 C 0.42148 -0.02678 0.14335
 C1312 C 0.41108 -0.02453 0.16125
 C1313 C 0.46932 -0.02654 0.06088
 C1314 C 0.47958 -0.02248 0.04336
 H1315 H 0.46249 -0.04561 0.13989
 H1316 H 0.48448 -0.04569 0.10193
 H1317 H 0.45513 0.00989 0.08282
 H1318 H 0.43330 0.00995 0.12051
 H1319 H 0.40739 -0.04765 0.10251
 H1320 H 0.42942 -0.04775 0.06456
 C1321 C 0.36821 0.45486 0.01982
 C1322 C 0.37171 0.47586 0.03400
 C1323 C 0.39232 0.48376 0.03220
 C1324 C 0.40728 0.46982 0.01640
 C1325 C 0.39559 0.46819 -0.00730
 C1326 C 0.37504 0.46032 -0.00551
 C1327 C 0.38564 0.43905 0.02856
 C1328 C 0.40619 0.44693 0.02676
 C1329 C 0.34627 0.44598 0.02135
 C1330 C 0.32864 0.43767 0.02168
 C1331 C 0.42941 0.47799 0.01416
 C1332 C 0.44775 0.48416 0.01167
 H1333 H 0.35915 0.48381 0.04450
 H1334 H 0.39745 0.49848 0.04116
 H1335 H 0.40281 0.47286 -0.02402
 H1336 H 0.36463 0.45824 -0.02070
 H1337 H 0.38214 0.42309 0.03559
 H1338 H 0.42032 0.43773 0.03225
 C1339 C -0.13205 0.95491 0.51943
 C1340 C -0.12503 0.96048 0.49419
 C1341 C -0.10451 0.96845 0.49264
 C1342 C -0.09303 0.97007 0.51647
 C1343 C -0.09410 0.94714 0.52674
 C1344 C -0.11463 0.93916 0.52830
 C1345 C -0.12878 0.97589 0.53372
 C1346 C -0.10819 0.98389 0.53216
 C1347 C -0.15396 0.94592 0.52072
 C1348 C -0.17155 0.93751 0.52086
 C1349 C -0.07092 0.97834 0.51448
 C1350 C -0.05258 0.98458 0.51216
 H1351 H -0.13530 0.95839 0.47889
 H1352 H -0.09717 0.97321 0.47601
 H1353 H -0.07998 0.93799 0.53234
 H1354 H -0.11811 0.92316 0.53524
 H1355 H -0.14146 0.98374 0.54412
 H1356 H -0.10321 0.99861 0.54122
 C1357 C -0.12757 0.04726 0.98021
 C1358 C -0.12013 0.04157 1.00516
 C1359 C -0.09979 0.03299 1.00590
 C1360 C -0.08885 0.03094 0.98162
 C1361 C -0.08961 0.05387 0.97128
 C1362 C -0.10998 0.06246 0.97053
 C1363 C -0.12507 0.02614 0.96589
 C1364 C -0.10464 0.01752 0.96664
 C1365 C -0.14929 0.05690 0.98014
 C1366 C -0.16668 0.06576 0.98184
 C1367 C -0.06689 0.02206 0.98294
 C1368 C -0.04864 0.01545 0.98500
 H1369 H -0.13001 0.04401 1.02089
 H1370 H -0.09223 0.02808 1.02224
 H1371 H -0.07541 0.06255 0.96502
 H1372 H -0.11325 0.07852 0.96363
 H1373 H -0.13814 0.01865 0.95605
 H1374 H -0.10017 0.00263 0.95743
 C1375 C 0.37278 0.54697 0.47887
 C1376 C 0.38015 0.54133 0.50386
 C1377 C 0.40048 0.53273 0.50469
 C1378 C 0.41147 0.53060 0.48045
 C1379 C 0.41076 0.55350 0.47004
 C1380 C 0.39041 0.56212 0.46921
 C1381 C 0.37528 0.52580 0.46463
 C1382 C 0.39570 0.51717 0.46546
 C1383 C 0.35106 0.55663 0.47871
 C1384 C 0.33368 0.56549 0.48033
 C1385 C 0.43341 0.52170 0.48186
 C1386 C 0.45165 0.51508 0.48400
 H1387 H 0.37024 0.54383 0.51956
 H1388 H 0.40798 0.52785 0.52107
 H1389 H 0.42499 0.56215 0.46378
 H1390 H 0.38718 0.57816 0.46224
 H1391 H 0.36223 0.51830 0.45477
 H1392 H 0.40017 0.50225 0.45632
 C1393 C 0.13017 0.54352 0.51560
 C1394 C 0.12332 0.53771 0.49039
 C1395 C 0.10290 0.52948 0.48901
 C1396 C 0.09135 0.52786 0.51297
 C1397 C 0.09210 0.55087 0.52346
 C1398 C 0.11252 0.55911 0.52484
 C1399 C 0.12709 0.52258 0.52972
 C1400 C 0.10661 0.51433 0.52833
 C1401 C 0.15196 0.55279 0.51675
 C1402 C 0.16943 0.56145 0.51690
 C1403 C 0.06933 0.51934 0.51122
 C1404 C 0.05103 0.51297 0.50922
 H1405 H 0.13363 0.53983 0.47497
 H1406 H 0.09569 0.52453 0.47242
 H1407 H 0.07785 0.55988 0.52933
 H1408 H 0.11578 0.57519 0.53190
 H1409 H 0.13982 0.51494 0.53987
 H1410 H 0.10177 0.49959 0.53730
 C1411 C 0.63045 0.04300 0.01582
 C1412 C 0.62367 0.03719 -0.00941
 C1413 C 0.60321 0.02905 -0.01086
 C1414 C 0.59156 0.02754 0.01305
 C1415 C 0.59238 0.05056 0.02349
 C1416 C 0.61284 0.05870 0.02495
 C1417 C 0.62720 0.02211 0.02997
 C1418 C 0.60669 0.01395 0.02851
 C1419 C 0.65228 0.05218 0.01706
 C1420 C 0.66977 0.06079 0.01728
 C1421 C 0.56950 0.01913 0.01121
 C1422 C 0.55117 0.01285 0.00911
 H1423 H 0.63405 0.03923 -0.02478
 H1424 H 0.59604 0.02411 -0.02747
 H1425 H 0.57815 0.05965 0.02929
 H1426 H 0.61615 0.07478 0.03200
 H1427 H 0.63986 0.01442 0.04020
 H1428 H 0.60174 -0.00074 0.03749
 C1429 C 0.62659 0.95550 0.48024
 C1430 C 0.62514 0.97653 0.46597
 C1431 C 0.60491 0.98564 0.46622
 C1432 C 0.58826 0.97277 0.48072
 C1433 C 0.59824 0.97072 0.50526
 C1434 C 0.61838 0.96165 0.50501
 C1435 C 0.60901 0.94063 0.47004
 C1436 C 0.58884 0.94972 0.47029
 C1437 C 0.64808 0.94536 0.48067
 C1438 C 0.66521 0.93616 0.48267
 C1439 C 0.56648 0.98216 0.48157
 C1440 C 0.54830 0.98911 0.48346
 H1441 H 0.63874 0.98359 0.45652
 H1442 H 0.60114 1.00053 0.45699
 H1443 H 0.59021 0.97601 0.52143
 H1444 H 0.62761 0.95914 0.52099
 H1445 H 0.61215 0.92442 0.46314
 H1446 H 0.57467 0.94131 0.46361
 C1447 C 0.12653 0.45615 0.98179
 C1448 C 0.12499 0.47715 0.96750
 C1449 C 0.10473 0.48621 0.96779
 C1450 C 0.08815 0.47332 0.98235
 C1451 C 0.09819 0.47133 1.00687
 C1452 C 0.11836 0.46231 1.00658
 C1453 C 0.10896 0.44122 0.97166
 C1454 C 0.08876 0.45026 0.97196
 C1455 C 0.14803 0.44605 0.98217
 C1456 C 0.16517 0.43686 0.98412
 C1457 C 0.06635 0.48266 0.98324
 C1458 C 0.04815 0.48957 0.98511
 H1459 H 0.13855 0.48423 0.95799
 H1460 H 0.10091 0.50108 0.95854
 H1461 H 0.09019 0.47662 1.02305
 H1462 H 0.12764 0.45984 1.02253
 H1463 H 0.11211 0.42501 0.96478
 H1464 H 0.07460 0.44181 0.96533
 C1465 C -0.00620 0.37014 0.45848
 C1466 C -0.02895 0.37827 0.46565
 C1467 C -0.02904 0.39853 0.47562
 C1468 C -0.00638 0.40868 0.47745
 C1469 C 0.00280 0.40797 0.45222
 C1470 C 0.00290 0.38779 0.44230
 C1471 C 0.00730 0.37182 0.48107
 C1472 C 0.00721 0.39206 0.49103
 C1473 C -0.00585 0.34849 0.44726
 C1474 C -0.00526 0.33108 0.43726
 C1475 C -0.00601 0.43079 0.48746
 C1476 C -0.00461 0.44948 0.49383
 H1477 H -0.04367 0.36892 0.46318
 H1478 H -0.04382 0.40651 0.48169
 H1479 H 0.00872 0.42214 0.44293
 H1480 H 0.00889 0.38472 0.42453
 H1481 H 0.01610 0.35828 0.48861
 H1482 H 0.01591 0.39585 0.50709
 C1483 C 0.49391 -0.12953 -0.04261
 C1484 C 0.47111 -0.12137 -0.03569
 C1485 C 0.47097 -0.10115 -0.02562
 C1486 C 0.49365 -0.09108 -0.02346
 C1487 C 0.50308 -0.09171 -0.04858
 C1488 C 0.50323 -0.11184 -0.05860
 C1489 C 0.50718 -0.12799 -0.01985
 C1490 C 0.50704 -0.10778 -0.00980
 C1491 C 0.49432 -0.15114 -0.05393
 C1492 C 0.49496 -0.16850 -0.06401
 C1493 C 0.49397 -0.06901 -0.01335
 C1494 C 0.49537 -0.05034 -0.00689
 H1495 H 0.45639 -0.13067 -0.03839
 H1496 H 0.45615 -0.09315 -0.01970
 H1497 H 0.50914 -0.07752 -0.05773
 H1498 H 0.50940 -0.11486 -0.07631
 H1499 H 0.51586 -0.14158 -0.01227
 H1500 H 0.51559 -0.10408 0.00639
 C1501 C 0.00756 -0.12579 1.04047
 C1502 C 0.03038 -0.11848 1.03281
 C1503 C 0.03069 -0.09876 1.02197
 C1504 C 0.00815 -0.08827 1.01984
 C1505 C -0.00089 -0.08751 1.04512
 C1506 C -0.00120 -0.10714 1.05591
 C1507 C -0.00604 -0.12499 1.01791
 C1508 C -0.00574 -0.10528 1.00708
 C1509 C 0.00693 -0.14683 1.05264
 C1510 C 0.00597 -0.16367 1.06341
 C1511 C 0.00798 -0.06665 1.00893
 C1512 C 0.00669 -0.04821 1.00197
 H1513 H 0.04499 -0.12799 1.03560
 H1514 H 0.04554 -0.09140 1.01547
 H1515 H -0.00656 -0.07276 1.05383
 H1516 H -0.00712 -0.10918 1.07383
 H1517 H -0.01506 -0.13872 1.01102
 H1518 H -0.01448 -0.10215 0.99092
 C1519 C 0.50828 0.37386 0.53967
 C1520 C 0.49445 0.37469 0.51728
 C1521 C 0.49464 0.39442 0.50649
 C1522 C 0.50865 0.41142 0.51911
 C1523 C 0.53121 0.40092 0.52095
 C1524 C 0.53102 0.38118 0.53176
 C1525 C 0.49967 0.39248 0.55526
 C1526 C 0.49987 0.41214 0.54450
 C1527 C 0.50777 0.35279 0.55180
 C1528 C 0.50691 0.33592 0.56254
 C1529 C 0.50836 0.43304 0.50823
 C1530 C 0.50701 0.45148 0.50127
 H1531 H 0.48536 0.36097 0.51047
 H1532 H 0.48573 0.39757 0.49044
 H1533 H 0.54599 0.40829 0.51429
 H1534 H 0.54566 0.37166 0.53436
 H1535 H 0.49393 0.39042 0.57324
 H1536 H 0.49428 0.42687 0.55330
 C1537 C 0.49232 1.13147 0.54005
 C1538 C 0.50318 1.11357 0.55447
 C1539 C 0.50292 1.09372 0.54380
 C1540 C 0.49183 1.09355 0.51967
 C1541 C 0.50377 1.11093 0.50534
 C1542 C 0.50403 1.13086 0.51605
 C1543 C 0.46936 1.12297 0.53506
 C1544 C 0.46911 1.10304 0.52435
 C1545 C 0.49284 1.15278 0.55204
 C1546 C 0.49360 1.16990 0.56259
 C1547 C 0.49201 1.07174 0.50885
 C1548 C 0.49326 1.05321 0.50182
 H1549 H 0.51045 1.11625 0.57161
 H1550 H 0.50998 1.07943 0.55184
 H1551 H 0.51130 1.10787 0.48827
 H1552 H 0.51179 1.14485 0.50813
 H1553 H 0.45461 1.13185 0.53950
 H1554 H 0.45416 1.09487 0.51961
 C1555 C -0.00823 0.63193 1.04123
 C1556 C 0.00246 0.61403 1.05580
 C1557 C 0.00228 0.59416 1.04515
 C1558 C -0.00858 0.59398 1.02090
 C1559 C 0.00352 0.61132 1.00667
 C1560 C 0.00370 0.63126 1.01736
 C1561 C -0.03115 0.62345 1.03600
 C1562 C -0.03134 0.60350 1.02532
 C1563 C -0.00779 0.65324 1.05320
 C1564 C -0.00710 0.67037 1.06373
 C1565 C -0.00832 0.57216 1.01011
 C1566 C -0.00702 0.55362 1.00313
 H1567 H 0.00958 0.61671 1.07301
 H1568 H 0.00924 0.57987 1.05329
 H1569 H 0.01120 0.60823 0.98969
 H1570 H 0.01155 0.64523 1.00951
 H1571 H -0.04593 0.63235 1.04026
 H1572 H -0.04625 0.59535 1.02042
 C1573 C 0.50606 0.62585 -0.04196
 C1574 C 0.49055 0.62427 -0.02072
 C1575 C 0.49029 0.60426 -0.01056
 C1576 C 0.50556 0.58776 -0.02262
 C1577 C 0.52800 0.59855 -0.02244
 C1578 C 0.52827 0.61858 -0.03261
 C1579 C 0.49906 0.60756 -0.05871
 C1580 C 0.49879 0.58762 -0.04859
 C1581 C 0.50606 0.64721 -0.05344
 C1582 C 0.50562 0.66430 -0.06376
 C1583 C 0.50483 0.56589 -0.01240
 C1584 C 0.50321 0.54736 -0.00585
 H1585 H 0.48070 0.63770 -0.01419
 H1586 H 0.48022 0.60057 0.00467
 H1587 H 0.54236 0.59116 -0.01492
 H1588 H 0.54288 0.62833 -0.03381
 H1589 H 0.49469 0.61005 -0.07700
 H1590 H 0.49420 0.57307 -0.05823
 C1591 C 0.00560 1.12634 0.45880
 C1592 C -0.00975 1.12482 0.48018
 C1593 C -0.00998 1.10482 0.49037
 C1594 C 0.00516 1.08827 0.47819
 C1595 C 0.02762 1.09900 0.47815
 C1596 C 0.02786 1.11902 0.46795
 C1597 C -0.00158 1.10805 0.44214
 C1598 C -0.00182 1.08813 0.45229
 C1599 C 0.00556 1.14769 0.44729
 C1600 C 0.00510 1.16476 0.43692
 C1601 C 0.00445 1.06641 0.48843
 C1602 C 0.00286 1.04787 0.49499
 H1603 H -0.01952 1.13828 0.48679
 H1604 H -0.01994 1.10117 0.50569
 H1605 H 0.04203 1.09159 0.48554
 H1606 H 0.04248 1.12873 0.46660
 H1607 H -0.00609 1.11054 0.42389
 H1608 H -0.00652 1.07358 0.44271
 C1609 C 0.77936 0.68290 0.87604
 C1610 C 0.79152 0.70451 0.87865
 C1611 C 0.79241 0.71622 0.85833
 C1612 C 0.78105 0.70509 0.83753
 C1613 C 0.75789 0.70066 0.84633
 C1614 C 0.75701 0.68904 0.86649
 C1615 C 0.79085 0.67090 0.85560
 C1616 C 0.79173 0.68261 0.83528
 C1617 C 0.77731 0.67038 0.89775
 C1618 C 0.77366 0.66009 0.91527
 C1619 C 0.78049 0.71765 0.81581
 C1620 C 0.77655 0.72778 0.79833
 H1621 H 0.79886 0.71006 0.89493
 H1622 H 0.80051 0.73180 0.85718
 H1623 H 0.74336 0.70618 0.83743
 H1624 H 0.74174 0.68463 0.87485
 H1625 H 0.79775 0.65473 0.85699
 H1626 H 0.79942 0.67650 0.81926
 C1627 C 0.27901 0.18215 0.37613
 C1628 C 0.29164 0.20353 0.37845
 C1629 C 0.29240 0.21520 0.35811
 C1630 C 0.28046 0.20428 0.33757
 C1631 C 0.25737 0.20032 0.34686
 C1632 C 0.25662 0.18873 0.36705
 C1633 C 0.28990 0.16992 0.35547
 C1634 C 0.29065 0.18160 0.33513
 C1635 C 0.27710 0.16967 0.39787
 C1636 C 0.27355 0.15940 0.41544
 C1637 C 0.27976 0.21681 0.31583
 C1638 C 0.27572 0.22692 0.29837
 H1639 H 0.29938 0.20894 0.39457
 H1640 H 0.30078 0.23062 0.35677
 H1641 H 0.24279 0.20613 0.33827
 H1642 H 0.24142 0.18463 0.37573
 H1643 H 0.29652 0.15362 0.35674
 H1644 H 0.29794 0.17533 0.31896
 C1645 C 0.72411 0.31675 0.37865
 C1646 C 0.71061 0.29586 0.38006
 C1647 C 0.71010 0.28442 0.35937
 C1648 C 0.72312 0.29507 0.33942
 C1649 C 0.74603 0.29806 0.34932
 C1650 C 0.74655 0.30941 0.36987
 C1651 C 0.71438 0.32957 0.35812
 C1652 C 0.71387 0.31814 0.33743
 C1653 C 0.72556 0.32900 0.40078
 C1654 C 0.72826 0.33914 0.41873
 C1655 C 0.72395 0.28273 0.31732
 C1656 C 0.72788 0.27258 0.29960
 H1657 H 0.70215 0.29059 0.39585
 H1658 H 0.70119 0.26935 0.35740
 H1659 H 0.76066 0.29176 0.34087
 H1660 H 0.76158 0.31284 0.37901
 H1661 H 0.70834 0.34610 0.35972
 H1662 H 0.70737 0.32483 0.32131
 C1663 C 0.22426 0.81727 0.87802
 C1664 C 0.21103 0.79621 0.87953
 C1665 C 0.21055 0.78476 0.85885
 C1666 C 0.22332 0.79556 0.83881
 C1667 C 0.24625 0.79884 0.84855
 C1668 C 0.24673 0.81021 0.86909
 C1669 C 0.21425 0.82996 0.85756
 C1670 C 0.21376 0.81851 0.83688
 C1671 C 0.22568 0.82954 0.90015
 C1672 C 0.22836 0.83969 0.91809
 C1673 C 0.22417 0.78321 0.81671
 C1674 C 0.22810 0.77307 0.79900
 H1675 H 0.20274 0.79084 0.89538
 H1676 H 0.20183 0.76957 0.85694
 H1677 H 0.26091 0.79274 0.84000
 H1678 H 0.26178 0.81384 0.87813
 H1679 H 0.20801 0.84641 0.85919
 H1680 H 0.20709 0.82511 0.82080
 C1681 C 0.27701 0.81676 0.12865
 C1682 C 0.28639 0.79386 0.12482
 C1683 C 0.28626 0.78153 0.14469
 C1684 C 0.27678 0.79339 0.16635
 C1685 C 0.25417 0.80099 0.15881
 C1686 C 0.25429 0.81323 0.13906
 C1687 C 0.29028 0.82660 0.14890
 C1688 C 0.29015 0.81426 0.16879
 C1689 C 0.27607 0.82999 0.10736
 C1690 C 0.27333 0.84090 0.09012
 C1691 C 0.27526 0.78021 0.18761
 C1692 C 0.27088 0.76974 0.20478
 H1693 H 0.29266 0.78790 0.10804
 H1694 H 0.29243 0.76501 0.14498
 H1695 H 0.23928 0.79711 0.16823
 H1696 H 0.23952 0.81982 0.13158
 H1697 H 0.29904 0.84181 0.14769
 H1698 H 0.29882 0.81887 0.18463
 C1699 C 0.77716 0.31618 0.62932
 C1700 C 0.78669 0.29334 0.62550
 C1701 C 0.78663 0.28101 0.64538
 C1702 C 0.77705 0.29281 0.66702
 C1703 C 0.75439 0.30027 0.65944
 C1704 C 0.75446 0.31250 0.63970
 C1705 C 0.79035 0.32610 0.64958
 C1706 C 0.79028 0.31377 0.66948
 C1707 C 0.77616 0.32940 0.60803
 C1708 C 0.77338 0.34029 0.59079
 C1709 C 0.77559 0.27963 0.68828
 C1710 C 0.77123 0.26913 0.70543
 H1711 H 0.79302 0.28742 0.60873
 H1712 H 0.79291 0.26453 0.64567
 H1713 H 0.73952 0.29629 0.66885
 H1714 H 0.73965 0.31900 0.63219
 H1715 H 0.79901 0.34138 0.64838
 H1716 H 0.79890 0.31844 0.68533
 C1717 C 0.22255 0.18491 0.62847
 C1718 C 0.21180 0.20732 0.62621
 C1719 C 0.21181 0.21915 0.64664
 C1720 C 0.22256 0.20734 0.66723
 C1721 C 0.24533 0.20123 0.65820
 C1722 C 0.24533 0.18948 0.63790
 C1723 C 0.21046 0.17385 0.64889
 C1724 C 0.21047 0.18569 0.66933
 C1725 C 0.22345 0.17225 0.60656
 C1726 C 0.22572 0.16184 0.58866
 C1727 C 0.22389 0.22004 0.68903
 C1728 C 0.22805 0.23026 0.70653
 H1729 H 0.20473 0.21332 0.61004
 H1730 H 0.20474 0.23528 0.64801
 H1731 H 0.26024 0.20575 0.66706
 H1732 H 0.26021 0.18394 0.62936
 H1733 H 0.20254 0.15819 0.64739
 H1734 H 0.20253 0.18021 0.68535
 C1735 C 0.72269 0.68460 0.12718
 C1736 C 0.71180 0.70697 0.12502
 C1737 C 0.71184 0.71876 0.14548
 C1738 C 0.72275 0.70697 0.16598
 C1739 C 0.74551 0.70100 0.15682
 C1740 C 0.74548 0.68928 0.13649
 C1741 C 0.71075 0.67344 0.14763
 C1742 C 0.71079 0.68524 0.16810
 C1743 C 0.72355 0.67199 0.10523
 C1744 C 0.72580 0.66161 0.08731
 C1745 C 0.72411 0.71962 0.18781
 C1746 C 0.72827 0.72982 0.20533
 H1747 H 0.70463 0.71296 0.10891
 H1748 H 0.70469 0.73485 0.14692
 H1749 H 0.76044 0.70558 0.16560
 H1750 H 0.76035 0.68384 0.12786
 H1751 H 0.70290 0.65775 0.14614
 H1752 H 0.70295 0.67969 0.18415
 C1753 C 0.20479 0.61882 0.23064
 C1754 C 0.22561 0.62216 0.21611
 C1755 C 0.23361 0.64275 0.21766
 C1756 C 0.21995 0.65785 0.23357
 C1757 C 0.21859 0.64629 0.25738
 C1758 C 0.21061 0.62576 0.25584
 C1759 C 0.18894 0.63627 0.22205
 C1760 C 0.19692 0.65680 0.22359
 C1761 C 0.19580 0.59690 0.22934
 C1762 C 0.18742 0.57928 0.22911
 C1763 C 0.22824 0.67997 0.23554
 C1764 C 0.23450 0.69831 0.23782
 H1765 H 0.23337 0.60952 0.20557
 H1766 H 0.24824 0.64777 0.20844
 H1767 H 0.22351 0.65357 0.27397
 H1768 H 0.20869 0.61543 0.27112
 H1769 H 0.17287 0.63280 0.21529
 H1770 H 0.18771 0.67094 0.21816
 C1771 C 0.70553 0.11795 0.73116
 C1772 C 0.72636 0.12130 0.71664
 C1773 C 0.73434 0.14190 0.71817
 C1774 C 0.72066 0.15700 0.73406
 C1775 C 0.71929 0.14546 0.75787
 C1776 C 0.71133 0.12492 0.75635
 C1777 C 0.68967 0.13538 0.72253
 C1778 C 0.69763 0.15592 0.72405
 C1779 C 0.69655 0.09603 0.72988
 C1780 C 0.68812 0.07844 0.72967
 C1781 C 0.72890 0.17914 0.73600
 C1782 C 0.73510 0.19750 0.73829
 H1783 H 0.73414 0.10866 0.70612
 H1784 H 0.74897 0.14693 0.70895
 H1785 H 0.72419 0.15277 0.77446
 H1786 H 0.70941 0.11461 0.77165
 H1787 H 0.67361 0.13189 0.71577
 H1788 H 0.68841 0.17004 0.71860
 C1789 C 0.79684 0.12205 0.27139
 C1790 C 0.79112 0.12945 0.24644
 C1791 C 0.78231 0.14969 0.24570
 C1792 C 0.78007 0.16057 0.26998
 C1793 C 0.80297 0.16007 0.28040
 C1794 C 0.81179 0.13980 0.28114
 C1795 C 0.77565 0.12427 0.28565
 C1796 C 0.76679 0.14460 0.28490
 C1797 C 0.80673 0.10044 0.27145
 C1798 C 0.81579 0.08316 0.26972
 C1799 C 0.77095 0.18243 0.26865
 C1800 C 0.76423 0.20063 0.26654
 H1801 H 0.79372 0.11962 0.23069
 H1802 H 0.77735 0.15721 0.22935
 H1803 H 0.81146 0.17437 0.28671
 H1804 H 0.82787 0.13671 0.28809
 H1805 H 0.76829 0.11110 0.29544
 H1806 H 0.75183 0.14888 0.29406
 C1807 C 0.29665 0.62242 0.77086
 C1808 C 0.29095 0.62978 0.74588
 C1809 C 0.28225 0.65006 0.74508
 C1810 C 0.28010 0.66103 0.76932
 C1811 C 0.30301 0.66044 0.77971
 C1812 C 0.31172 0.64012 0.78051
 C1813 C 0.27549 0.62481 0.78513
 C1814 C 0.26676 0.64519 0.78432
 C1815 C 0.30641 0.60075 0.77099
 C1816 C 0.31536 0.58341 0.76934
 C1817 C 0.27110 0.68294 0.76793
 C1818 C 0.26442 0.70116 0.76580
 H1819 H 0.29348 0.61988 0.73017
 H1820 H 0.27732 0.65756 0.72870
 H1821 H 0.31159 0.67471 0.78595
 H1822 H 0.32779 0.63696 0.78746
 H1823 H 0.26807 0.61172 0.79499
 H1824 H 0.25183 0.64958 0.79349
 C1825 C 0.29440 0.38076 0.73357
 C1826 C 0.28878 0.37401 0.75886
 C1827 C 0.28057 0.35359 0.76041
 C1828 C 0.27879 0.34194 0.73652
 C1829 C 0.30172 0.34266 0.72583
 C1830 C 0.30994 0.36308 0.72428
 C1831 C 0.27337 0.37761 0.71965
 C1832 C 0.26514 0.35714 0.72120
 C1833 C 0.30364 0.40256 0.73224
 C1834 C 0.31223 0.42007 0.73196
 C1835 C 0.27029 0.31993 0.73845
 C1836 C 0.26391 0.30164 0.74062
 H1837 H 0.29101 0.38438 0.77421
 H1838 H 0.27575 0.34644 0.77707
 H1839 H 0.31069 0.32839 0.71995
 H1840 H 0.32597 0.36632 0.71707
 H1841 H 0.26565 0.39031 0.70950
 H1842 H 0.25035 0.35225 0.71238
 C1843 C 0.79470 0.88028 0.23276
 C1844 C 0.78899 0.87347 0.25801
 C1845 C 0.78074 0.85305 0.25946
 C1846 C 0.77901 0.84148 0.23552
 C1847 C 0.80197 0.84219 0.22492
 C1848 C 0.81022 0.86260 0.22346
 C1849 C 0.77370 0.87721 0.21876
 C1850 C 0.76542 0.85675 0.22021
 C1851 C 0.80399 0.90206 0.23156
 C1852 C 0.81264 0.91953 0.23144
 C1853 C 0.77047 0.81948 0.23737
 C1854 C 0.76408 0.80119 0.23950
 H1855 H 0.79119 0.88379 0.27340
 H1856 H 0.77586 0.84587 0.27608
 H1857 H 0.81093 0.82791 0.21901
 H1858 H 0.82628 0.86583 0.21631
 H1859 H 0.76603 0.88995 0.20862
 H1860 H 0.75065 0.85191 0.21132
 C1861 C 0.70588 0.87716 0.76754
 C1862 C 0.71207 0.86872 0.74287
 C1863 C 0.72101 0.84851 0.74284
 C1864 C 0.72291 0.83870 0.76749
 C1865 C 0.69983 0.83951 0.77782
 C1866 C 0.69087 0.85975 0.77785
 C1867 C 0.72685 0.87568 0.78191
 C1868 C 0.73583 0.85539 0.78188
 C1869 C 0.69588 0.89871 0.76689
 C1870 C 0.68677 0.91588 0.76474
 C1871 C 0.73219 0.81686 0.76689
 C1872 C 0.73910 0.79864 0.76524
 H1873 H 0.70967 0.87784 0.72680
 H1874 H 0.72630 0.84033 0.72677
 H1875 H 0.69131 0.82544 0.78459
 H1876 H 0.67466 0.86303 0.78465
 H1877 H 0.73396 0.88931 0.79126
 H1878 H 0.75066 0.85160 0.79121
 C1879 C 0.20499 0.37638 0.26783
 C1880 C 0.21118 0.36794 0.24315
 C1881 C 0.22012 0.34774 0.24313
 C1882 C 0.22200 0.33792 0.26777
 C1883 C 0.19892 0.33873 0.27809
 C1884 C 0.18996 0.35897 0.27812
 C1885 C 0.22594 0.37489 0.28221
 C1886 C 0.23492 0.35460 0.28218
 C1887 C 0.19501 0.39794 0.26720
 C1888 C 0.18597 0.41516 0.26514
 C1889 C 0.23128 0.31607 0.26718
 C1890 C 0.23820 0.29786 0.26554
 H1891 H 0.20880 0.37707 0.22709
 H1892 H 0.22541 0.33955 0.22706
 H1893 H 0.19039 0.32467 0.28486
 H1894 H 0.17375 0.36226 0.28491
 H1895 H 0.23306 0.38852 0.29157
 H1896 H 0.24975 0.35081 0.29152
 C1897 C 0.12127 0.24478 0.79264
 C1898 C 0.13899 0.25387 0.80872
 C1899 C 0.15913 0.25373 0.79870
 C1900 C 0.15973 0.24451 0.77349
 C1901 C 0.14309 0.25809 0.75996
 C1902 C 0.12288 0.25824 0.77001
 C1903 C 0.12934 0.22200 0.78548
 C1904 C 0.14956 0.22186 0.77542
 C1905 C 0.09966 0.24518 0.80394
 C1906 C 0.08228 0.24581 0.81400
 C1907 C 0.18179 0.24482 0.76337
 C1908 C 0.20046 0.24617 0.75688
 H1909 H 0.13600 0.25990 0.82649
 H1910 H 0.17334 0.25964 0.80792
 H1911 H 0.14683 0.26677 0.74386
 H1912 H 0.10933 0.26705 0.76252
 H1913 H 0.11997 0.20730 0.78803
 H1914 H 0.15748 0.20705 0.76934
 C1915 C 0.62138 0.74429 0.29130
 C1916 C 0.63907 0.75345 0.30739
 C1917 C 0.65922 0.75331 0.29740
 C1918 C 0.65987 0.74403 0.27222
 C1919 C 0.64322 0.75756 0.25862
 C1920 C 0.62300 0.75769 0.26864
 C1921 C 0.62949 0.72151 0.28422
 C1922 C 0.64973 0.72137 0.27419
 C1923 C 0.59975 0.74468 0.30258
 C1924 C 0.58236 0.74531 0.31261
 C1925 C 0.68195 0.74434 0.26213
 C1926 C 0.70062 0.74571 0.25566
 H1927 H 0.63604 0.75952 0.32513
 H1928 H 0.67341 0.75927 0.30662
 H1929 H 0.64697 0.76620 0.24250
 H1930 H 0.60945 0.76646 0.26110
 H1931 H 0.62015 0.70679 0.28680
 H1932 H 0.65768 0.70656 0.26818
 C1933 C 0.62310 0.25724 0.21072
 C1934 C 0.63056 0.28004 0.21827
 C1935 C 0.65027 0.28024 0.22913
 C1936 C 0.66060 0.25764 0.23139
 C1937 C 0.66132 0.24849 0.20615
 C1938 C 0.64170 0.24828 0.19534
 C1939 C 0.62377 0.24372 0.23335
 C1940 C 0.64347 0.24393 0.24420
 C1941 C 0.60207 0.25672 0.19852
 C1942 C 0.58523 0.25585 0.18773
 C1943 C 0.68220 0.25737 0.24233
 C1944 C 0.70063 0.25601 0.24930
 H1945 H 0.62116 0.29470 0.21540
 H1946 H 0.65773 0.29507 0.23557
 H1947 H 0.67603 0.24267 0.19749
 H1948 H 0.63964 0.24230 0.17745
 H1949 H 0.60997 0.23483 0.24027
 H1950 H 0.64652 0.23523 0.26041
 C1951 C 0.12315 0.75757 0.71039
 C1952 C 0.14172 0.74861 0.69498
 C1953 C 0.16137 0.74886 0.70574
 C1954 C 0.16069 0.75805 0.73097
 C1955 C 0.14360 0.74434 0.74385
 C1956 C 0.12388 0.74409 0.73304
 C1957 C 0.13059 0.78039 0.71787
 C1958 C 0.15033 0.78064 0.72868
 C1959 C 0.10209 0.75700 0.69825
 C1960 C 0.08524 0.75609 0.68748
 C1961 C 0.18231 0.75783 0.74184
 C1962 C 0.20076 0.75650 0.74877
 H1963 H 0.13963 0.74259 0.67711
 H1964 H 0.17607 0.74305 0.69705
 H1965 H 0.14670 0.73567 0.76007
 H1966 H 0.11011 0.73520 0.74002
 H1967 H 0.12117 0.79504 0.71499
 H1968 H 0.15778 0.79548 0.73507
 C1969 C 0.88164 0.74231 0.70922
 C1970 C 0.87331 0.71944 0.71494
 C1971 C 0.85338 0.71932 0.72566
 C1972 C 0.84372 0.74208 0.72963
 C1973 C 0.84381 0.75252 0.70516
 C1974 C 0.86366 0.75265 0.69447
 C1975 C 0.88093 0.75466 0.73285
 C1976 C 0.86101 0.75454 0.74357
 C1977 C 0.90294 0.74267 0.69721
 C1978 C 0.92006 0.74325 0.68665
 C1979 C 0.82193 0.74239 0.74047
 C1980 C 0.80341 0.74368 0.74751
 H1981 H 0.88229 0.70465 0.71097
 H1982 H 0.84533 0.70444 0.73089
 H1983 H 0.82947 0.75926 0.69690
 H1984 H 0.86628 0.75948 0.67710
 H1985 H 0.89487 0.76273 0.74051
 H1986 H 0.85790 0.76250 0.76041
 C1987 C 0.38074 0.24175 0.20940
 C1988 C 0.37218 0.21882 0.21443
 C1989 C 0.35223 0.21863 0.22510
 C1990 C 0.34278 0.24138 0.22971
 C1991 C 0.34301 0.25243 0.20554
 C1992 C 0.36288 0.25262 0.19492
 C1993 C 0.38010 0.25352 0.23337
 C1994 C 0.36015 0.25333 0.24404
 C1995 C 0.40207 0.24221 0.19746
 C1996 C 0.41922 0.24290 0.18697
 C1997 C 0.32096 0.24162 0.24050
 C1998 C 0.30243 0.24289 0.24753
 H1999 H 0.38103 0.20405 0.21006
 H2000 H 0.34402 0.20371 0.22987
 H2001 H 0.32875 0.25950 0.19746
 H2002 H 0.36561 0.25985 0.17776
 H2003 H 0.39409 0.26127 0.24130
 H2004 H 0.35708 0.26090 0.26109
 C2005 C 0.37652 0.75639 0.29042
 C2006 C 0.37488 0.74096 0.26911
 C2007 C 0.35485 0.74075 0.25900
 C2008 C 0.33839 0.75599 0.27117
 C2009 C 0.34919 0.77843 0.27106
 C2010 C 0.36925 0.77864 0.28118
 C2011 C 0.35827 0.74933 0.30718
 C2012 C 0.33831 0.74912 0.29711
 C2013 C 0.39791 0.75633 0.30185
 C2014 C 0.41501 0.75586 0.31215
 C2015 C 0.31649 0.75531 0.26102
 C2016 C 0.29793 0.75374 0.25456
 H2017 H 0.38829 0.73112 0.26250
 H2018 H 0.35112 0.73074 0.24374
 H2019 H 0.34180 0.79282 0.26363
 H2020 H 0.37900 0.79324 0.28242
 H2021 H 0.36079 0.74489 0.32544
 H2022 H 0.32377 0.74450 0.30677
 C2023 C 0.87666 0.25642 0.79146
 C2024 C 0.87515 0.24085 0.77026
 C2025 C 0.85515 0.24050 0.76007
 C2026 C 0.83860 0.25575 0.77206
 C2027 C 0.84932 0.27823 0.77184
 C2028 C 0.86933 0.27858 0.78203
 C2029 C 0.85837 0.24939 0.80821
 C2030 C 0.83845 0.24905 0.79806
 C2031 C 0.89801 0.25650 0.80297
 C2032 C 0.91507 0.25613 0.81333
 C2033 C 0.81674 0.25492 0.76183
 C2034 C 0.79821 0.25323 0.75531
 H2035 H 0.88861 0.23102 0.76377
 H2036 H 0.85152 0.23038 0.74487
 H2037 H 0.84190 0.29255 0.76426
 H2038 H 0.87903 0.29322 0.78320
 H2039 H 0.86085 0.24508 0.82651
 H2040 H 0.82390 0.24443 0.80769
 C2041 C 0.56414 0.97648 0.61467
 C2042 C 0.54166 0.96579 0.61545
 C2043 C 0.53143 0.96561 0.59422
 C2044 C 0.54473 0.97612 0.57439
 C2045 C 0.56652 0.96396 0.57400
 C2046 C 0.57675 0.96415 0.59525
 C2047 C 0.56023 0.99916 0.60467
 C2048 C 0.55006 0.99897 0.58356
 C2049 C 0.57515 0.97754 0.63741
 C2050 C 0.58448 0.97980 0.65582
 C2051 C 0.53362 0.97727 0.55177
 C2052 C 0.52427 0.98141 0.53385
 H2053 H 0.53448 0.95891 0.63123
 H2054 H 0.51548 0.95855 0.59177
 H2055 H 0.57322 0.95585 0.55852
 H2056 H 0.59228 0.95620 0.59798
 H2057 H 0.56504 1.01412 0.61340
 H2058 H 0.54618 1.01380 0.57421
 C2059 C 0.06399 0.47692 1.11621
 C2060 C 0.04153 0.46621 1.11702
 C2061 C 0.03125 0.46606 1.09581
 C2062 C 0.04450 0.47662 1.07598
 C2063 C 0.06629 0.46449 1.07551
 C2064 C 0.07658 0.46464 1.09673
 C2065 C 0.06003 0.49962 1.10627
 C2066 C 0.04982 0.49946 1.08519
 C2067 C 0.07506 0.47793 1.13892
 C2068 C 0.08444 0.48015 1.15731
 C2069 C 0.03335 0.47780 1.05338
 C2070 C 0.02400 0.48192 1.03545
 H2071 H 0.03438 0.45928 1.13280
 H2072 H 0.01530 0.45899 1.09339
 H2073 H 0.07298 0.45642 1.05999
 H2074 H 0.09211 0.45671 1.09940
 H2075 H 0.06485 0.51456 1.11503
 H2076 H 0.04591 0.51431 1.07589
 C2077 C -0.06350 0.02495 1.11798
 C2078 C -0.05699 0.00275 1.10781
 C2079 C -0.04721 0.00384 1.08637
 C2080 C -0.04482 0.02704 1.07705
 C2081 C -0.03263 0.03940 1.09643
 C2082 C -0.04249 0.03830 1.11802
 C2083 C -0.07776 0.03536 1.09902
 C2084 C -0.06791 0.03646 1.07743
 C2085 C -0.07411 0.02291 1.14102
 C2086 C -0.08317 0.01987 1.15957
 C2087 C -0.03408 0.02680 1.05399
 C2088 C -0.02485 0.02319 1.03562
 H2089 H -0.05981 -0.01255 1.11669
 H2090 H -0.04166 -0.01056 1.07688
 H2091 H -0.01770 0.04830 1.09345
 H2092 H -0.03598 0.04625 1.13357
 H2093 H -0.09408 0.04142 1.10228
 H2094 H -0.07575 0.04348 1.06220
 C2095 C 0.43640 0.52476 0.61694
 C2096 C 0.44290 0.50255 0.60680
 C2097 C 0.45273 0.50362 0.58538
 C2098 C 0.45516 0.52681 0.57605
 C2099 C 0.46733 0.53916 0.59546
 C2100 C 0.45743 0.53809 0.61702
 C2101 C 0.42219 0.53519 0.59793
 C2102 C 0.43209 0.53626 0.57636
 C2103 C 0.42575 0.52276 0.63996
 C2104 C 0.41667 0.51976 0.65851
 C2105 C 0.46597 0.52654 0.55303
 C2106 C 0.47525 0.52291 0.53470
 H2107 H 0.44003 0.48726 0.61568
 H2108 H 0.45827 0.48920 0.57592
 H2109 H 0.48229 0.54804 0.59251
 H2110 H 0.46391 0.54603 0.63258
 H2111 H 0.40587 0.54128 0.60115
 H2112 H 0.42430 0.54328 0.56111
 C2113 C 0.43377 0.47401 -0.12109
 C2114 C 0.41885 0.46526 -0.10153
 C2115 C 0.42855 0.46423 -0.08003
 C2116 C 0.45218 0.47204 -0.08030
 C2117 C 0.45126 0.49501 -0.09054
 C2118 C 0.44162 0.49604 -0.11190
 C2119 C 0.45392 0.45924 -0.12082
 C2120 C 0.46363 0.45821 -0.09932
 C2121 C 0.42341 0.47594 -0.14413
 C2122 C 0.41486 0.47879 -0.16287
 C2123 C 0.46282 0.47232 -0.05734
 C2124 C 0.47197 0.47592 -0.03909
 H2125 H 0.40219 0.46023 -0.10435
 H2126 H 0.42025 0.45830 -0.06443
 H2127 H 0.45766 0.50931 -0.08171
 H2128 H 0.43976 0.51118 -0.12137
 H2129 H 0.45995 0.45034 -0.13611
 H2130 H 0.47797 0.44841 -0.09616
 C2131 C -0.06566 0.97445 0.37920
 C2132 C -0.04545 0.95977 0.37964
 C2133 C -0.03591 0.95875 0.40123
 C2134 C -0.04757 0.97250 0.42017
 C2135 C -0.07116 0.96459 0.42020
 C2136 C -0.08070 0.96561 0.39861
 C2137 C -0.05798 0.99650 0.38850
 C2138 C -0.04850 0.99548 0.40996
 C2139 C -0.07584 0.97636 0.35607
 C2140 C -0.08428 0.97918 0.33727
 C2141 C -0.03711 0.97279 0.44322
 C2142 C -0.02810 0.97640 0.46155
 H2143 H -0.03925 0.95091 0.36439
 H2144 H -0.02155 0.94901 0.40451
 H2145 H -0.07956 0.95860 0.43572
 H2146 H -0.09731 0.96051 0.39562
 H2147 H -0.05982 1.01164 0.37905
 H2148 H -0.04224 1.00979 0.41887
 C2149 C 0.06517 0.52197 0.37676
 C2150 C 0.04432 0.53574 0.37713
 C2151 C 0.03442 0.53673 0.39872
 C2152 C 0.04639 0.52387 0.41772
 C2153 C 0.06960 0.53284 0.41770
 C2154 C 0.07950 0.53185 0.39611
 C2155 C 0.05835 0.49977 0.38618
 C2156 C 0.04851 0.50076 0.40764
 C2157 C 0.07575 0.52013 0.35362
 C2158 C 0.08452 0.51744 0.33477
 C2159 C 0.03560 0.52361 0.44077
 C2160 C 0.02643 0.52018 0.45915
 H2161 H 0.03796 0.54402 0.36184
 H2162 H 0.01959 0.54587 0.40195
 H2163 H 0.07749 0.53948 0.43318
 H2164 H 0.09591 0.53763 0.39309
 H2165 H 0.06102 0.48455 0.37680
 H2166 H 0.04277 0.48635 0.41663
 C2167 C 0.56627 0.02204 -0.12311
 C2168 C 0.54541 0.03580 -0.12294
 C2169 C 0.53536 0.03682 -0.10144
 C2170 C 0.54719 0.02399 -0.08231
 C2171 C 0.57040 0.03297 -0.08214
 C2172 C 0.58045 0.03195 -0.10365
 C2173 C 0.55939 -0.00015 -0.11371
 C2174 C 0.54940 0.00087 -0.09234
 C2175 C 0.57700 0.02017 -0.14616
 C2176 C 0.58588 0.01746 -0.16495
 C2177 C 0.53622 0.02376 -0.05936
 C2178 C 0.52691 0.02033 -0.04106
 H2179 H 0.53916 0.04406 -0.13830
 H2180 H 0.52050 0.04596 -0.09835
 H2181 H 0.57817 0.03964 -0.06660
 H2182 H 0.59688 0.03773 -0.10653
 H2183 H 0.56213 -0.01539 -0.12304
 H2184 H 0.54359 -0.01353 -0.08337
 C2185 C 0.62250 0.54215 -0.01034
 C2186 C 0.61963 0.52146 -0.02524
 C2187 C 0.59905 0.51336 -0.02446
 C2188 C 0.58349 0.52680 -0.00886
 C2189 C 0.58471 0.54995 -0.01851
 C2190 C 0.60523 0.55803 -0.01929
 C2191 C 0.61491 0.53603 0.01455
 C2192 C 0.59439 0.52795 0.01533
 C2193 C 0.64442 0.55116 -0.01090
 C2194 C 0.66211 0.55937 -0.01073
 C2195 C 0.56138 0.51839 -0.00768
 C2196 C 0.54304 0.51204 -0.00583
 H2197 H 0.63257 0.51386 -0.03547
 H2198 H 0.59434 0.49882 -0.03402
 H2199 H 0.57069 0.55917 -0.02427
 H2200 H 0.60882 0.57419 -0.02572
 H2201 H 0.62480 0.53783 0.03019
 H2202 H 0.58668 0.52281 0.03162
 C2203 C 0.12239 1.04217 0.49061
 C2204 C 0.11486 1.03597 0.51550
 C2205 C 0.09428 1.02803 0.51631
 C2206 C 0.08328 1.02709 0.49217
 C2207 C 0.09869 1.01363 0.47642
 C2208 C 0.11932 1.02158 0.47560
 C2209 C 0.10521 1.05822 0.48184
 C2210 C 0.08463 1.05029 0.48266
 C2211 C 0.14438 1.05102 0.49000
 C2212 C 0.16211 1.05913 0.49010
 C2213 C 0.06112 1.01883 0.49338
 C2214 C 0.04275 1.01255 0.49521
 H2215 H 0.12482 1.03762 0.53110
 H2216 H 0.08660 1.02286 0.53261
 H2217 H 0.09384 0.99917 0.46679
 H2218 H 0.13217 1.01394 0.46526
 H2219 H 0.10889 1.07439 0.47550
 H2220 H 0.07065 1.05964 0.47702
 C2221 C 0.12653 -0.04117 1.01049
 C2222 C 0.12205 -0.02064 1.02526
 C2223 C 0.10133 -0.01305 1.02327
 C2224 C 0.08722 -0.02679 1.00673
 C2225 C 0.08853 -0.04995 1.01636
 C2226 C 0.10921 -0.05751 1.01834
 C2227 C 0.12039 -0.03513 0.98522
 C2228 C 0.09970 -0.02756 0.98324
 C2229 C 0.14862 -0.04971 1.01236
 C2230 C 0.16642 -0.05774 1.01326
 C2231 C 0.06497 -0.01891 1.00438
 C2232 C 0.04657 -0.01286 1.00193
 H2233 H 0.13407 -0.01276 1.03626
 H2234 H 0.09555 0.00134 1.03258
 H2235 H 0.07446 -0.05954 1.02124
 H2236 H 0.11287 -0.07361 1.02492
 H2237 H 0.13134 -0.03662 0.97020
 H2238 H 0.09292 -0.02255 0.96654
 C2239 C 0.62665 0.45841 0.51058
 C2240 C 0.62218 0.47909 0.52510
 C2241 C 0.60149 0.48672 0.52294
 C2242 C 0.58741 0.47287 0.50648
 C2243 C 0.58860 0.44981 0.51636
 C2244 C 0.60925 0.44219 0.51852
 C2245 C 0.62063 0.46424 0.48521
 C2246 C 0.59998 0.47185 0.48305
 C2247 C 0.64871 0.44983 0.51263
 C2248 C 0.66648 0.44176 0.51366
 C2249 C 0.56519 0.48079 0.50395
 C2250 C 0.54682 0.48686 0.50137
 H2251 H 0.63418 0.48703 0.53608
 H2252 H 0.59573 0.50121 0.53208
 H2253 H 0.57448 0.44030 0.52128
 H2254 H 0.61283 0.42615 0.52528
 H2255 H 0.63163 0.46259 0.47025
 H2256 H 0.59327 0.47674 0.46627
 C2257 C -0.12507 0.45762 0.49246
 C2258 C -0.11731 0.46457 0.51700
 C2259 C -0.09648 0.47185 0.51722
 C2260 C -0.08547 0.47145 0.49287
 C2261 C -0.10045 0.48476 0.47699
 C2262 C -0.12133 0.47747 0.47677
 C2263 C -0.10842 0.44066 0.48388
 C2264 C -0.08758 0.44794 0.48411
 C2265 C -0.14738 0.44955 0.49248
 C2266 C -0.16548 0.44228 0.49308
 C2267 C -0.06306 0.47910 0.49343
 C2268 C -0.04455 0.48507 0.49473
 H2269 H -0.12731 0.46388 0.53282
 H2270 H -0.08862 0.47742 0.53321
 H2271 H -0.09514 0.49865 0.46682
 H2272 H -0.13393 0.48510 0.46642
 H2273 H -0.11264 0.42437 0.47812
 H2274 H -0.07392 0.43791 0.47853
 C2275 C 0.37496 -0.04183 -0.00836
 C2276 C 0.39156 -0.05884 -0.01693
 C2277 C 0.41242 -0.05161 -0.01672
 C2278 C 0.41460 -0.02810 -0.00798
 C2279 C 0.40360 -0.02766 0.01637
 C2280 C 0.38275 -0.03488 0.01618
 C2281 C 0.37875 -0.02200 -0.02406
 C2282 C 0.39964 -0.01476 -0.02386
 C2283 C 0.35263 -0.04985 -0.00831
 C2284 C 0.33452 -0.05709 -0.00769
 C2285 C 0.43703 -0.02051 -0.00742
 C2286 C 0.45556 -0.01460 -0.00607
 H2287 H 0.38731 -0.07511 -0.02268
 H2288 H 0.42605 -0.06167 -0.02230
 H2289 H 0.41148 -0.02210 0.03236
 H2290 H 0.37276 -0.03554 0.03200
 H2291 H 0.36616 -0.01434 -0.03441
 H2292 H 0.40498 -0.00089 -0.03404
 C2293 C 0.37210 1.04377 0.50953
 C2294 C 0.37703 1.02368 0.52442
 C2295 C 0.39808 1.01689 0.52268
 C2296 C 0.41203 1.03089 0.50625
 C2297 C 0.40958 1.05415 0.51577
 C2298 C 0.38856 1.06093 0.51751
 C2299 C 0.37910 1.03754 0.48435
 C2300 C 0.40010 1.03077 0.48263
 C2301 C 0.34959 1.05130 0.51105
 C2302 C 0.33128 1.05816 0.51150
 C2303 C 0.43458 1.02372 0.50409
 C2304 C 0.45312 1.01797 0.50163
 H2305 H 0.36508 1.01553 0.53534
 H2306 H 0.40419 1.00291 0.53212
 H2307 H 0.42314 1.06437 0.52075
 H2308 H 0.38410 1.07698 0.52398
 H2309 H 0.36847 1.03835 0.46921
 H2310 H 0.40748 1.02575 0.46601
 C2311 C -0.12815 0.54428 1.01003
 C2312 C -0.12338 0.52415 1.02492
 C2313 C -0.10234 0.51732 1.02338
 C2314 C -0.08822 0.53133 1.00712
 C2315 C -0.09071 0.55457 1.01667
 C2316 C -0.11172 0.56139 1.01821
 C2317 C -0.12095 0.53808 0.98490
 C2318 C -0.09995 0.53127 0.98337
 C2319 C -0.15065 0.55184 1.01134
 C2320 C -0.16895 0.55873 1.01163
 C2321 C -0.06567 0.52412 1.00516
 C2322 C -0.04712 0.51835 1.00285
 H2323 H -0.13544 0.51600 1.03570
 H2324 H -0.09634 0.50331 1.03285
 H2325 H -0.07717 0.56476 1.02181
 H2326 H -0.11621 0.57744 1.02467
 H2327 H -0.13144 0.53893 0.96965
 H2328 H -0.09243 0.52626 0.96682
 C2329 C 0.01364 0.62729 0.54672
 C2330 C 0.00620 0.60913 0.56323
 C2331 C 0.00609 0.58913 0.55291
 C2332 C 0.01343 0.58905 0.52699
 C2333 C 0.03591 0.59977 0.52712
 C2334 C 0.03602 0.61987 0.53749
 C2335 C -0.00140 0.62561 0.52532
 C2336 C -0.00151 0.60553 0.51497
 C2337 C 0.01342 0.64876 0.55841
 C2338 C 0.01268 0.66594 0.56888
 C2339 C 0.01283 0.56708 0.51658
 C2340 C 0.01126 0.54846 0.50996
 H2341 H 0.00143 0.61175 0.58149
 H2342 H 0.00123 0.57465 0.56237
 H2343 H 0.05042 0.59228 0.51966
 H2344 H 0.05064 0.62957 0.53892
 H2345 H -0.01106 0.63903 0.51883
 H2346 H -0.01125 0.60178 0.49961
 C2347 C 0.51387 0.12723 0.04677
 C2348 C 0.50624 0.10906 0.06315
 C2349 C 0.50615 0.08908 0.05276
 C2350 C 0.51371 0.08905 0.02692
 C2351 C 0.53622 0.09969 0.02730
 C2352 C 0.53631 0.11977 0.03773
 C2353 C 0.49901 0.12566 0.02522
 C2354 C 0.49892 0.10560 0.01480
 C2355 C 0.51362 0.14868 0.05852
 C2356 C 0.51285 0.16584 0.06901
 C2357 C 0.51312 0.06711 0.01644
 C2358 C 0.51154 0.04851 0.00974
 H2359 H 0.50134 0.11165 0.08138
 H2360 H 0.50117 0.07460 0.06214
 H2361 H 0.55076 0.09218 0.01996
 H2362 H 0.55094 0.12942 0.03933
 H2363 H 0.48944 0.13913 0.01867
 H2364 H 0.48929 0.10193 -0.00066
 C2365 C -0.01158 0.12976 0.95085
 C2366 C -0.00404 0.11179 0.93378
 C2367 C -0.00386 0.09166 0.94346
 C2368 C -0.01122 0.09130 0.96936
 C2369 C -0.03375 0.10207 0.96955
 C2370 C -0.03394 0.12229 0.95982
 C2371 C 0.00345 0.12779 0.97220
 C2372 C 0.00364 0.10759 0.98192
 C2373 C -0.01145 0.15134 0.93983
 C2374 C -0.01080 0.16860 0.92982
 C2375 C -0.01055 0.06924 0.97911
 C2376 C -0.00895 0.05060 0.98534
 H2377 H 0.00072 0.11462 0.91560
 H2378 H 0.00107 0.07729 0.93355
 H2379 H -0.04823 0.09453 0.97675
 H2380 H -0.04859 0.13205 0.95868
 H2381 H 0.01304 0.14111 0.97913
 H2382 H 0.01338 0.10363 0.99716
 C2383 C 0.48862 0.62933 0.44968
 C2384 C 0.50369 0.62741 0.47100
 C2385 C 0.50389 0.60724 0.48078
 C2386 C 0.48900 0.59092 0.46830
 C2387 C 0.49631 0.59121 0.44239
 C2388 C 0.49611 0.61131 0.43264
 C2389 C 0.46627 0.62190 0.45872
 C2390 C 0.46648 0.60170 0.46851
 C2391 C 0.48873 0.65089 0.43860
 C2392 C 0.48936 0.66813 0.42855
 C2393 C 0.48969 0.56888 0.47812
 C2394 C 0.49130 0.55026 0.48441
 H2395 H 0.51330 0.64074 0.47786
 H2396 H 0.51367 0.60332 0.49601
 H2397 H 0.50122 0.57682 0.43251
 H2398 H 0.50084 0.61410 0.41445
 H2399 H 0.45162 0.63165 0.45759
 H2400 H 0.45201 0.59418 0.47578
 C2401 C 0.50983 0.87472 0.44848
 C2402 C 0.50279 0.89265 0.43153
 C2403 C 0.50296 0.91289 0.44129
 C2404 C 0.51014 0.91340 0.46712
 C2405 C 0.53244 0.90216 0.46707
 C2406 C 0.53228 0.88181 0.45727
 C2407 C 0.49469 0.87727 0.46997
 C2408 C 0.49485 0.89757 0.47975
 C2409 C 0.50921 0.85298 0.43743
 C2410 C 0.50788 0.83558 0.42754
 C2411 C 0.50978 0.93558 0.47700
 C2412 C 0.50837 0.95428 0.48344
 H2413 H 0.49811 0.88970 0.41338
 H2414 H 0.49841 0.92724 0.43146
 H2415 H 0.54702 0.90948 0.47418
 H2416 H 0.54674 0.87174 0.45597
 H2417 H 0.48477 0.86424 0.47694
 H2418 H 0.48508 0.90191 0.49509
 C2419 C 0.00973 0.37514 0.95004
 C2420 C 0.00263 0.39307 0.93313
 C2421 C 0.00279 0.41331 0.94290
 C2422 C 0.01004 0.41380 0.96872
 C2423 C 0.03236 0.40259 0.96859
 C2424 C 0.03219 0.38225 0.95877
 C2425 C -0.00536 0.37765 0.97158
 C2426 C -0.00520 0.39795 0.98138
 C2427 C 0.00911 0.35342 0.93897
 C2428 C 0.00778 0.33602 0.92905
 C2429 C 0.00968 0.43597 0.97861
 C2430 C 0.00825 0.45468 0.98504
 H2431 H -0.00210 0.39014 0.91500
 H2432 H -0.00179 0.42766 0.93311
 H2433 H 0.04694 0.40992 0.97566
 H2434 H 0.04666 0.37219 0.95742
 H2435 H -0.01525 0.36461 0.97857
 H2436 H -0.01494 0.40226 0.99675
 C2437 C 0.48825 0.37038 0.04837
 C2438 C 0.50085 0.37152 0.02494
 C2439 C 0.50014 0.39146 0.01462
 C2440 C 0.48689 0.40834 0.02871
 C2441 C 0.49702 0.40849 0.05334
 C2442 C 0.49773 0.38863 0.06362
 C2443 C 0.46516 0.37804 0.04249
 C2444 C 0.46444 0.39800 0.03215
 C2445 C 0.48945 0.34907 0.05997
 C2446 C 0.49121 0.33204 0.07027
 C2447 C 0.48670 0.43017 0.01830
 C2448 C 0.48780 0.44871 0.01157
 H2449 H 0.50950 0.35785 0.01710
 H2450 H 0.50817 0.39483 -0.00204
 H2451 H 0.50311 0.42301 0.06200
 H2452 H 0.50442 0.38618 0.08105
 H2453 H 0.45066 0.36861 0.04605
 H2454 H 0.44936 0.40563 0.02687
 C2455 C -0.01202 0.87071 0.54874
 C2456 C 0.00072 0.87200 0.52541
 C2457 C 0.00001 0.89197 0.51518
 C2458 C -0.01339 0.90875 0.52926
 C2459 C -0.00342 0.90884 0.55396
 C2460 C -0.00271 0.88894 0.56415
 C2461 C -0.03511 0.87832 0.54271
 C2462 C -0.03582 0.89832 0.53247
 C2463 C -0.01081 0.84936 0.56024
 C2464 C -0.00904 0.83228 0.57046
 C2465 C -0.01359 0.93062 0.51893
 C2466 C -0.01249 0.94918 0.51227
 H2467 H 0.00948 0.85839 0.51757
 H2468 H 0.00814 0.89544 0.49860
 H2469 H 0.00256 0.92334 0.56274
 H2470 H 0.00387 0.88643 0.58162
 H2471 H -0.04959 0.86881 0.54612
 H2472 H -0.05090 0.90591 0.52710
 C2473 C 0.22478 0.31295 0.13478
 C2474 C 0.24751 0.30918 0.14472
 C2475 C 0.24745 0.29901 0.16582
 C2476 C 0.22466 0.29354 0.17506
 C2477 C 0.21418 0.28017 0.15528
 C2478 C 0.21424 0.29041 0.13404
 C2479 C 0.21243 0.32549 0.15424
 C2480 C 0.21237 0.31525 0.17549
 C2481 C 0.22574 0.32398 0.11206
 C2482 C 0.22800 0.33335 0.09368
 C2483 C 0.22596 0.28247 0.19768
 C2484 C 0.23026 0.27321 0.21563
 H2485 H 0.26241 0.31409 0.13593
 H2486 H 0.26232 0.29523 0.17511
 H2487 H 0.20723 0.26417 0.15775
 H2488 H 0.20735 0.28318 0.11829
 H2489 H 0.20438 0.34097 0.15154
 H2490 H 0.20425 0.32191 0.19100
 C2491 C 0.72545 0.81307 0.63418
 C2492 C 0.74824 0.80918 0.64390
 C2493 C 0.74829 0.79916 0.66509
 C2494 C 0.72554 0.79394 0.67462
 C2495 C 0.71477 0.78051 0.65506
 C2496 C 0.71472 0.79060 0.63374
 C2497 C 0.71337 0.82583 0.65367
 C2498 C 0.71342 0.81574 0.67500
 C2499 C 0.72628 0.82394 0.61137
 C2500 C 0.72842 0.83320 0.59290
 C2501 C 0.72695 0.78301 0.69732
 C2502 C 0.73128 0.77387 0.71532
 H2503 H 0.76310 0.81391 0.63492
 H2504 H 0.76322 0.79532 0.67425
 H2505 H 0.70772 0.76458 0.65774
 H2506 H 0.70764 0.78332 0.61812
 H2507 H 0.70541 0.84135 0.65092
 H2508 H 0.70550 0.82257 0.69054
 C2509 C 0.27408 0.68601 0.63272
 C2510 C 0.28452 0.67180 0.65171
 C2511 C 0.28552 0.68166 0.67330
 C2512 C 0.27600 0.70470 0.67366
 C2513 C 0.25283 0.70221 0.66428
 C2514 C 0.25183 0.69242 0.64283
 C2515 C 0.28733 0.70709 0.63271
 C2516 C 0.28834 0.71695 0.65430
 C2517 C 0.27215 0.67540 0.60966
 C2518 C 0.26924 0.66638 0.59107
 C2519 C 0.27568 0.71547 0.69670
 C2520 C 0.27205 0.72473 0.71504
 H2521 H 0.29066 0.65550 0.64846
 H2522 H 0.29254 0.67385 0.68855
 H2523 H 0.23839 0.70768 0.67373
 H2524 H 0.23657 0.68952 0.63392
 H2525 H 0.29528 0.71362 0.61718
 H2526 H 0.29716 0.73193 0.65730
 C2527 C 0.77403 0.18549 0.13343
 C2528 C 0.75177 0.19175 0.14361
 C2529 C 0.75276 0.20152 0.16507
 C2530 C 0.77593 0.20415 0.17439
 C2531 C 0.78815 0.21648 0.15502
 C2532 C 0.78716 0.20664 0.13342
 C2533 C 0.78460 0.17132 0.15238
 C2534 C 0.78559 0.18116 0.17398
 C2535 C 0.77212 0.17490 0.11036
 C2536 C 0.76923 0.16587 0.09177
 C2537 C 0.77560 0.21490 0.19744
 C2538 C 0.77195 0.22416 0.21578
 H2539 H 0.73650 0.18877 0.13473
 H2540 H 0.73831 0.20690 0.17457
 H2541 H 0.79689 0.23152 0.15801
 H2542 H 0.79503 0.21325 0.11788
 H2543 H 0.79083 0.15506 0.14910
 H2544 H 0.79269 0.17338 0.18920
 C2545 C 0.72540 0.18350 0.87092
 C2546 C 0.71098 0.20390 0.87084
 C2547 C 0.70989 0.21365 0.84936
 C2548 C 0.72332 0.20198 0.83016
 C2549 C 0.71510 0.17849 0.82998
 C2550 C 0.71619 0.16875 0.85146
 C2551 C 0.74746 0.19097 0.86146
 C2552 C 0.74638 0.20066 0.84011
 C2553 C 0.72735 0.17310 0.89393
 C2554 C 0.73015 0.16448 0.91265
 C2555 C 0.72352 0.21266 0.80722
 C2556 C 0.72703 0.22182 0.78895
 H2557 H 0.70234 0.21008 0.88624
 H2558 H 0.70031 0.22817 0.84633
 H2559 H 0.70887 0.17031 0.81444
 H2560 H 0.71091 0.15218 0.85433
 H2561 H 0.76266 0.18885 0.87074
 H2562 H 0.76069 0.20682 0.83112
 C2563 C 0.22491 0.68438 0.37044
 C2564 C 0.21055 0.70483 0.37037
 C2565 C 0.20950 0.71459 0.34889
 C2566 C 0.22290 0.70289 0.32970
 C2567 C 0.21462 0.67943 0.32949
 C2568 C 0.21567 0.66967 0.35097
 C2569 C 0.24700 0.69180 0.36100
 C2570 C 0.24595 0.70150 0.33966
 C2571 C 0.22683 0.67396 0.39344
 C2572 C 0.22962 0.66533 0.41215
 C2573 C 0.22314 0.71357 0.30676
 C2574 C 0.22668 0.72271 0.28848
 H2575 H 0.20192 0.71102 0.38577
 H2576 H 0.19996 0.72913 0.34587
 H2577 H 0.20837 0.67127 0.31395
 H2578 H 0.21034 0.65311 0.35383
 H2579 H 0.26219 0.68963 0.37028
 H2580 H 0.26028 0.70762 0.33067
 C2581 C 0.77323 0.81550 0.37204
 C2582 C 0.78715 0.79476 0.37163
 C2583 C 0.78821 0.78489 0.35003
 C2584 C 0.77525 0.79679 0.33106
 C2585 C 0.78403 0.82007 0.33110
 C2586 C 0.78298 0.82994 0.35270
 C2587 C 0.75108 0.80852 0.36263
 C2588 C 0.75213 0.79872 0.34116
 C2589 C 0.77128 0.82603 0.39519
 C2590 C 0.76842 0.83474 0.41403
 C2591 C 0.77502 0.78601 0.30801
 C2592 C 0.77154 0.77682 0.28966
 H2593 H 0.79550 0.78844 0.38691
 H2594 H 0.79747 0.77013 0.34677
 H2595 H 0.79061 0.82803 0.31562
 H2596 H 0.78863 0.84639 0.35574
 H2597 H 0.73584 0.81105 0.37202
 H2598 H 0.73776 0.79287 0.33218
 C2599 C 0.27307 0.31610 0.87308
 C2600 C 0.28704 0.29539 0.87271
 C2601 C 0.28811 0.28548 0.85113
 C2602 C 0.27512 0.29732 0.83214
 C2603 C 0.28386 0.32062 0.83212
 C2604 C 0.28279 0.33052 0.85371
 C2605 C 0.25093 0.30906 0.86369
 C2606 C 0.25200 0.29922 0.84224
 C2607 C 0.27111 0.32667 0.89620
 C2608 C 0.26824 0.33540 0.91504
 C2609 C 0.27490 0.28650 0.80911
 C2610 C 0.27142 0.27729 0.79077
 H2611 H 0.29540 0.28912 0.88800
 H2612 H 0.29740 0.27074 0.84790
 H2613 H 0.29041 0.32856 0.81663
 H2614 H 0.28841 0.34699 0.85671
 H2615 H 0.23569 0.31158 0.87308
 H2616 H 0.23764 0.29333 0.83327
 C2617 C 0.79247 0.37258 0.76021
 C2618 C 0.77187 0.36949 0.77520
 C2619 C 0.76388 0.34888 0.77429
 C2620 C 0.77732 0.33349 0.75850
 C2621 C 0.80051 0.33476 0.76802
 C2622 C 0.80848 0.35533 0.76892
 C2623 C 0.78627 0.36514 0.73529
 C2624 C 0.77829 0.34457 0.73440
 C2625 C 0.80138 0.39455 0.76092
 C2626 C 0.80954 0.41227 0.76091
 C2627 C 0.76902 0.31134 0.75721
 C2628 C 0.76276 0.29296 0.75534
 H2629 H 0.76425 0.38233 0.78558
 H2630 H 0.74941 0.34403 0.78390
 H2631 H 0.80983 0.32075 0.77361
 H2632 H 0.82466 0.35895 0.77528
 H2633 H 0.78794 0.37515 0.71973
 H2634 H 0.77311 0.33695 0.71807
 C2635 C 0.29257 0.87322 0.25906
 C2636 C 0.27206 0.87022 0.27421
 C2637 C 0.26403 0.84962 0.27344
 C2638 C 0.27733 0.83416 0.25760
 C2639 C 0.30059 0.83541 0.26694
 C2640 C 0.30861 0.85596 0.26771
 C2641 C 0.28619 0.86572 0.23422
 C2642 C 0.27818 0.84517 0.23345
 C2643 C 0.30152 0.89518 0.25963
 C2644 C 0.30971 0.91289 0.25950
 C2645 C 0.26898 0.81202 0.25644
 C2646 C 0.26265 0.79366 0.25466
 H2647 H 0.26453 0.88310 0.28461
 H2648 H 0.24960 0.84482 0.28318
 H2649 H 0.30992 0.82140 0.27251
 H2650 H 0.32483 0.85957 0.27394
 H2651 H 0.28779 0.87568 0.21861
 H2652 H 0.27288 0.83751 0.21719
 C2653 C 0.20827 0.87637 0.73945
 C2654 C 0.22881 0.87173 0.72476
 C2655 C 0.23628 0.85097 0.72686
 C2656 C 0.22242 0.83701 0.74345
 C2657 C 0.19930 0.83840 0.73375
 C2658 C 0.19185 0.85911 0.73164
 C2659 C 0.21422 0.87031 0.76477
 C2660 C 0.22167 0.84959 0.76687
 C2661 C 0.19988 0.89851 0.73746
 C2662 C 0.19200 0.91637 0.73649
 C2663 C 0.23019 0.81473 0.74593
 C2664 C 0.23617 0.79632 0.74848
 H2665 H 0.23678 0.88365 0.71371
 H2666 H 0.25065 0.84508 0.71762
 H2667 H 0.18965 0.82436 0.72892
 H2668 H 0.17579 0.86283 0.72501
 H2669 H 0.21276 0.88133 0.77973
 H2670 H 0.22661 0.84285 0.78362
 C2671 C 0.70838 0.37584 0.23940
 C2672 C 0.71424 0.36991 0.26479
 C2673 C 0.72163 0.34919 0.26706
 C2674 C 0.72243 0.33647 0.24373
 C2675 C 0.73637 0.35030 0.22710
 C2676 C 0.72896 0.37106 0.22482
 C2677 C 0.69195 0.35857 0.23166
 C2678 C 0.69934 0.33786 0.23394
 C2679 C 0.70005 0.39798 0.23723
 C2680 C 0.69220 0.41584 0.23612
 C2681 C 0.73013 0.31420 0.24639
 C2682 C 0.73608 0.29579 0.24904
 H2683 H 0.71276 0.38102 0.27967
 H2684 H 0.72650 0.34253 0.28388
 H2685 H 0.75076 0.34433 0.21794
 H2686 H 0.73698 0.38290 0.21371
 H2687 H 0.67592 0.36229 0.22494
 H2688 H 0.68967 0.32381 0.22917
 C2689 C 0.70863 0.62526 0.25759
 C2690 C 0.71543 0.63294 0.23296
 C2691 C 0.72274 0.65376 0.23262
 C2692 C 0.72251 0.66484 0.25693
 C2693 C 0.73590 0.64988 0.27276
 C2694 C 0.72858 0.62902 0.27311
 C2695 C 0.69175 0.64196 0.26623
 C2696 C 0.69906 0.66279 0.26588
 C2697 C 0.70052 0.60297 0.25769
 C2698 C 0.69321 0.58488 0.25715
 C2699 C 0.73019 0.68724 0.25621
 C2700 C 0.73617 0.70573 0.25477
 H2701 H 0.71462 0.62290 0.21719
 H2702 H 0.72821 0.66157 0.21655
 H2703 H 0.74986 0.65520 0.28279
 H2704 H 0.73627 0.61643 0.28344
 H2705 H 0.67550 0.63779 0.27215
 H2706 H 0.68909 0.67648 0.27149
 C2707 C 0.20835 0.12573 0.75859
 C2708 C 0.21515 0.13346 0.73399
 C2709 C 0.22248 0.15428 0.73369
 C2710 C 0.22228 0.16530 0.75803
 C2711 C 0.23566 0.15029 0.77381
 C2712 C 0.22832 0.12943 0.77411
 C2713 C 0.19149 0.14244 0.76729
 C2714 C 0.19883 0.16326 0.76699
 C2715 C 0.20022 0.10345 0.75864
 C2716 C 0.19289 0.08537 0.75806
 C2717 C 0.22998 0.18769 0.75737
 C2718 C 0.23598 0.20618 0.75595
 H2719 H 0.21433 0.12346 0.71818
 H2720 H 0.22796 0.16211 0.71765
 H2721 H 0.24963 0.15557 0.78386
 H2722 H 0.23599 0.11681 0.78441
 H2723 H 0.17524 0.13827 0.77320
 H2724 H 0.18887 0.17695 0.77264
 C2725 C 0.29310 0.12146 0.24106
 C2726 C 0.28687 0.12856 0.26620
 C2727 C 0.28013 0.14958 0.26783
 C2728 C 0.28028 0.16143 0.24416
 C2729 C 0.26627 0.14743 0.22778
 C2730 C 0.27303 0.12637 0.22614
 C2731 C 0.31029 0.13787 0.23302
 C2732 C 0.30354 0.15891 0.23465
 C2733 C 0.30059 0.09892 0.23960
 C2734 C 0.30742 0.08060 0.23914
 C2735 C 0.27313 0.18401 0.24619
 C2736 C 0.26737 0.20256 0.24849
 H2737 H 0.28765 0.11799 0.28139
 H2738 H 0.27511 0.15703 0.28441
 H2739 H 0.25231 0.15353 0.21830
 H2740 H 0.26487 0.11439 0.21527
 H2741 H 0.32634 0.13336 0.22657
 H2742 H 0.31379 0.17244 0.22962
 C2743 C 0.79461 0.62235 0.74178
 C2744 C 0.77448 0.62700 0.72685
 C2745 C 0.76759 0.64804 0.72829
 C2746 C 0.78154 0.66226 0.74450
 C2747 C 0.80480 0.65981 0.73497
 C2748 C 0.81168 0.63880 0.73353
 C2749 C 0.78838 0.62962 0.76686
 C2750 C 0.78150 0.65061 0.76830
 C2751 C 0.80224 0.59985 0.74053
 C2752 C 0.80915 0.58156 0.74023
 C2753 C 0.77426 0.68481 0.74633
 C2754 C 0.76840 0.70335 0.74850
 H2755 H 0.76638 0.61488 0.71612
 H2756 H 0.75357 0.65396 0.71879
 H2757 H 0.81495 0.67336 0.72978
 H2758 H 0.82774 0.63434 0.72710
 H2759 H 0.78926 0.61919 0.78216
 H2760 H 0.77647 0.65818 0.78481
 C2761 C 0.87841 0.76402 0.20221
 C2762 C 0.86031 0.75662 0.18561
 C2763 C 0.84028 0.75645 0.19587
 C2764 C 0.84013 0.76368 0.22182
 C2765 C 0.85081 0.78618 0.22183
 C2766 C 0.87094 0.78636 0.21152
 C2767 C 0.87669 0.74888 0.22353
 C2768 C 0.85658 0.74871 0.23382
 C2769 C 0.89991 0.76387 0.19059
 C2770 C 0.91712 0.76319 0.18017
 C2771 C 0.81814 0.76302 0.23218
 C2772 C 0.79952 0.76142 0.23880
 H2773 H 0.86299 0.75194 0.16733
 H2774 H 0.82584 0.75161 0.18634
 H2775 H 0.84329 0.80065 0.22933
 H2776 H 0.88063 0.80099 0.21020
 H2777 H 0.89010 0.73921 0.23002
 H2778 H 0.85281 0.73890 0.24911
 C2779 C 0.37810 0.26418 0.70296
 C2780 C 0.37065 0.28659 0.71209
 C2781 C 0.35056 0.28648 0.72249
 C2782 C 0.33989 0.26399 0.72273
 C2783 C 0.35639 0.24911 0.73481
 C2784 C 0.37646 0.24922 0.72443
 C2785 C 0.35994 0.25664 0.68651
 C2786 C 0.33995 0.25654 0.69685
 C2787 C 0.39956 0.26395 0.69126
 C2788 C 0.41674 0.26321 0.68080
 C2789 C 0.31793 0.26339 0.73318
 C2790 C 0.29933 0.26184 0.73988
 H2791 H 0.38032 0.30122 0.71059
 H2792 H 0.34306 0.30101 0.72989
 H2793 H 0.35268 0.23943 0.75021
 H2794 H 0.38990 0.23961 0.73096
 H2795 H 0.36256 0.25181 0.66826
 H2796 H 0.32547 0.25162 0.68743
 C2797 C 0.37888 0.73800 0.79924
 C2798 C 0.37680 0.75317 0.77802
 C2799 C 0.35656 0.75340 0.76840
 C2800 C 0.34035 0.73843 0.78093
 C2801 C 0.34080 0.74563 0.80688
 C2802 C 0.36097 0.74540 0.81646
 C2803 C 0.37140 0.71569 0.79014
 C2804 C 0.35114 0.71592 0.78051
 C2805 C 0.40051 0.73808 0.81015
 C2806 C 0.41779 0.73869 0.82009
 C2807 C 0.31824 0.73915 0.77129
 C2808 C 0.29958 0.74078 0.76515
 H2809 H 0.39008 0.76282 0.77110
 H2810 H 0.35253 0.76324 0.75326
 H2811 H 0.32647 0.75047 0.81690
 H2812 H 0.36387 0.75005 0.83465
 H2813 H 0.38118 0.70103 0.79111
 H2814 H 0.34359 0.70148 0.77323
 C2815 C 0.87855 0.23744 0.30044
 C2816 C 0.87649 0.25279 0.27936
 C2817 C 0.85630 0.25301 0.26965
 C2818 C 0.84009 0.23787 0.28194
 C2819 C 0.84041 0.24485 0.30796
 C2820 C 0.86054 0.24463 0.31764
 C2821 C 0.87121 0.21518 0.29108
 C2822 C 0.85098 0.21540 0.28136
 C2823 C 0.90013 0.23754 0.31145
 C2824 C 0.91739 0.23815 0.32146
 C2825 C 0.81803 0.23859 0.27220
 C2826 C 0.79939 0.24023 0.26597
 H2827 H 0.88976 0.26255 0.27260
 H2828 H 0.85229 0.26297 0.25458
 H2829 H 0.82602 0.24955 0.31796
 H2830 H 0.86334 0.24914 0.33590
 H2831 H 0.88104 0.20055 0.29196
 H2832 H 0.84352 0.20099 0.27390
 C2833 C 0.12399 0.25888 0.30136
 C2834 C 0.12655 0.24389 0.27974
 C2835 C 0.14685 0.24413 0.26996
 C2836 C 0.16267 0.25933 0.28272
 C2837 C 0.16216 0.25196 0.30849
 C2838 C 0.14192 0.25172 0.31825
 C2839 C 0.13108 0.28140 0.29275
 C2840 C 0.15142 0.28163 0.28295
 C2841 C 0.10226 0.25818 0.31239
 C2842 C 0.08486 0.25680 0.32228
 C2843 C 0.18484 0.25906 0.27283
 C2844 C 0.20353 0.25771 0.26637
 H2845 H 0.11352 0.23401 0.27269
 H2846 H 0.15119 0.23446 0.25454
 H2847 H 0.17651 0.24735 0.31828
 H2848 H 0.13897 0.24691 0.33635
 H2849 H 0.12100 0.29584 0.29417
 H2850 H 0.15874 0.29627 0.27597
 C2851 C 0.62471 0.75957 0.80047
 C2852 C 0.64253 0.75227 0.81742
 C2853 C 0.66282 0.75252 0.80781
 C2854 C 0.66349 0.76005 0.78209
 C2855 C 0.65229 0.78238 0.78241
 C2856 C 0.63190 0.78212 0.79207
 C2857 C 0.62736 0.74471 0.77876
 C2858 C 0.64772 0.74496 0.76912
 C2859 C 0.60292 0.75885 0.81135
 C2860 C 0.58546 0.75745 0.82113
 C2861 C 0.68572 0.75979 0.77235
 C2862 C 0.70445 0.75846 0.76600
 H2863 H 0.63947 0.74734 0.83547
 H2864 H 0.67711 0.74781 0.81765
 H2865 H 0.65968 0.79704 0.77559
 H2866 H 0.62184 0.79658 0.79353
 H2867 H 0.61436 0.73490 0.77154
 H2868 H 0.65213 0.73538 0.75366
 C2869 C 0.62122 0.23814 0.70160
 C2870 C 0.62878 0.21502 0.70756
 C2871 C 0.64873 0.21425 0.71789
 C2872 C 0.65917 0.23666 0.72125
 C2873 C 0.64235 0.25002 0.73530
 C2874 C 0.62243 0.25080 0.72499
 C2875 C 0.63952 0.24749 0.68631
 C2876 C 0.65937 0.24672 0.69659
 C2877 C 0.59993 0.23942 0.68999
 C2878 C 0.58291 0.24125 0.67968
 C2879 C 0.68100 0.23641 0.73166
 C2880 C 0.69955 0.23750 0.73836
 H2881 H 0.61927 0.20057 0.70404
 H2882 H 0.65628 0.19914 0.72323
 H2883 H 0.64576 0.25809 0.75194
 H2884 H 0.60880 0.25954 0.73280
 H2885 H 0.63710 0.25415 0.66886
 H2886 H 0.67391 0.25271 0.68791
 C2887 C 0.12048 0.73902 0.20204
 C2888 C 0.12190 0.75178 0.22535
 C2889 C 0.14192 0.75103 0.23546
 C2890 C 0.15861 0.73760 0.22130
 C2891 C 0.15859 0.74756 0.19659
 C2892 C 0.13865 0.74830 0.18652
 C2893 C 0.12808 0.71593 0.20804
 C2894 C 0.14812 0.71518 0.21816
 C2895 C 0.09908 0.74027 0.19065
 C2896 C 0.08197 0.74207 0.18050
 C2897 C 0.18053 0.73737 0.23149
 C2898 C 0.19912 0.73844 0.23803
 H2899 H 0.10835 0.76056 0.23327
 H2900 H 0.14549 0.75917 0.25202
 H2901 H 0.17306 0.75351 0.18773
 H2902 H 0.13607 0.75488 0.16906
 H2903 H 0.11853 0.70146 0.20470
 H2904 H 0.15572 0.70009 0.22349
   
