data_POSCAR
  _audit_creation_date              2014-09-24
  _audit_creation_method            'ToBaCCo'
  _symmetry_space_group_name_H-M    'P1'
  _symmetry_Int_Tables_number       1
  _symmetry_cell_setting            triclinic
  loop_
  _symmetry_equiv_pos_as_xyz
 x,y,z
_cell_length_a 41.6470
_cell_length_b 41.5922
_cell_length_c 41.6740
_cell_angle_alpha 90.026200
_cell_angle_beta 90.017100
_cell_angle_gamma 89.918300
loop_
  _atom_site_label
  _atom_site_type_symbol
  _atom_site_fract_x
  _atom_site_fract_y
  _atom_site_fract_z
C1 C 0.24959 0.99701 0.01250
 C2 C 0.24863 0.99768 -0.02013
 C3 C 0.24492 0.96837 -0.04043
 C4 C 0.25176 1.02843 -0.03794
 C5 C 0.25276 1.02667 0.03182
 C6 C 0.24734 0.96714 0.03148
 C7 C 0.26624 0.94230 -0.03821
 C8 C 0.26462 0.91679 -0.06006
 C9 C 0.24277 0.91749 -0.08600
 C10 C 0.22149 0.94386 -0.08812
 C11 C 0.22236 0.96862 -0.06547
 C12 C 0.27793 1.03281 -0.05863
 C13 C 0.27946 1.05980 -0.07850
 C14 C 0.25502 1.08308 -0.07768
 C15 C 0.22917 1.07907 -0.05646
 C16 C 0.22723 1.05161 -0.03724
 C17 C 0.22531 1.04421 0.04045
 C18 C 0.22778 1.07059 0.06103
 C19 C 0.25750 1.07877 0.07457
 C20 C 0.28491 1.06087 0.06643
 C21 C 0.28261 1.03518 0.04487
 C22 C 0.21795 0.95825 0.04530
 C23 C 0.21680 0.93380 0.06835
 C24 C 0.24497 0.91755 0.07731
 C25 C 0.27421 0.92597 0.06294
 C26 C 0.27550 0.95118 0.04090
 H27 H 0.28528 0.94222 -0.02070
 H28 H 0.28181 0.89740 -0.05744
 H29 H 0.20403 0.94563 -0.10731
 H30 H 0.20591 0.98865 -0.06810
 H31 H 0.29675 1.01486 -0.05998
 H32 H 0.29956 1.06230 -0.09478
 H33 H 0.20595 1.04787 -0.02289
 H34 H 0.20186 1.03702 0.03184
 H35 H 0.20625 1.08370 0.06753
 H36 H 0.30802 1.06672 0.07683
 H37 H 0.30390 1.02140 0.03903
 H38 H 0.19617 0.97113 0.03918
 H39 H 0.19405 0.92773 0.07935
 H40 H 0.29628 0.91408 0.06996
 H41 H 0.29862 0.95882 0.03179
 H42 H 0.20968 1.09633 -0.05595
 C43 C 0.74792 0.49585 0.48192
 C44 C 0.74913 0.49690 0.51447
 C45 C 0.74720 0.46787 0.53482
 C46 C 0.75276 0.52745 0.53212
 C47 C 0.75042 0.52535 0.46202
 C48 C 0.74424 0.46539 0.46379
 C49 C 0.71862 0.46079 0.55115
 C50 C 0.71805 0.43675 0.57463
 C51 C 0.74594 0.41910 0.58162
 C52 C 0.77435 0.42581 0.56484
 C53 C 0.77517 0.45058 0.54224
 C54 C 0.72556 0.54556 0.54036
 C55 C 0.72859 0.57288 0.55956
 C56 C 0.75862 0.58148 0.57210
 C57 C 0.78579 0.56309 0.56427
 C58 C 0.78291 0.53640 0.54408
 C59 C 0.77567 0.52820 0.43993
 C60 C 0.77654 0.55393 0.41840
 C61 C 0.75239 0.57751 0.41892
 C62 C 0.72738 0.57495 0.44133
 C63 C 0.72604 0.54870 0.46222
 C64 C 0.76869 0.44211 0.46356
 C65 C 0.76705 0.41585 0.44266
 C66 C 0.74163 0.41322 0.42070
 C67 C 0.71709 0.43638 0.42104
 C68 C 0.71828 0.46209 0.44256
 H69 H 0.69707 0.47461 0.54646
 H70 H 0.69592 0.43201 0.58741
 H71 H 0.79628 0.41288 0.57030
 H72 H 0.79788 0.45697 0.53137
 H73 H 0.70191 0.53807 0.53263
 H74 H 0.70725 0.58637 0.56594
 H75 H 0.80399 0.52216 0.53855
 H76 H 0.79434 0.51007 0.43891
 H77 H 0.79603 0.55535 0.40126
 H78 H 0.70811 0.59245 0.44171
 H79 H 0.70533 0.54602 0.47759
 H80 H 0.78990 0.44508 0.47814
 H81 H 0.78658 0.39862 0.44238
 H82 H 0.69726 0.43487 0.40430
 H83 H 0.69953 0.48015 0.44185
 H84 H 0.80910 0.56923 0.57400
 C85 C 0.74979 1.01243 0.99757
 C86 C 0.75080 0.97971 0.99763
 C87 C 0.75345 0.96018 0.96783
 C88 C 0.74880 0.96070 1.02782
 C89 C 0.75111 1.03154 1.02769
 C90 C 0.74728 1.03209 0.96779
 C91 C 0.73096 0.96243 0.94278
 C92 C 0.73253 0.94118 0.91669
 C93 C 0.75596 0.91679 0.91583
 C94 C 0.77851 0.91486 0.94075
 C95 C 0.77739 0.93643 0.96630
 C96 C 0.77127 0.96409 1.05278
 C97 C 0.76974 0.94406 1.07979
 C98 C 0.74635 0.91979 1.08170
 C99 C 0.72387 0.91668 1.05681
 C100 C 0.72499 0.93702 1.03030
 C101 C 0.77469 1.05545 1.03046
 C102 C 0.77428 1.07689 1.05610
 C103 C 0.75054 1.07460 1.07983
 C104 C 0.72759 1.04991 1.07788
 C105 C 0.72756 1.02880 1.05167
 C106 C 0.76953 1.02968 0.94257
 C107 C 0.76868 1.05170 0.91708
 C108 C 0.74647 1.07739 0.91710
 C109 C 0.72393 1.07913 0.94217
 C110 C 0.72411 1.05660 0.96683
 H111 H 0.71176 0.97998 0.94381
 H112 H 0.71470 0.94300 0.89786
 H113 H 0.79695 0.89647 0.94060
 H114 H 0.79486 0.93410 0.98543
 H115 H 0.79031 0.98169 1.05106
 H116 H 0.78757 0.94669 1.09852
 H117 H 0.70751 0.93389 1.01129
 H118 H 0.79293 1.05809 1.01211
 H119 H 0.79236 1.09556 1.05718
 H120 H 0.70889 1.04787 1.09581
 H121 H 0.70868 1.01105 1.04961
 H122 H 0.78818 1.01153 0.94310
 H123 H 0.78650 1.04947 0.89828
 H124 H 0.70608 1.09809 0.94303
 H125 H 0.70669 1.05900 0.98600
 H126 H 0.70550 0.89830 1.05771
 C127 C 0.24789 0.51349 0.49717
 C128 C 0.24910 0.48079 0.49762
 C129 C 0.25162 0.46084 0.46804
 C130 C 0.24742 0.46221 0.52804
 C131 C 0.24927 0.53307 0.52703
 C132 C 0.24558 0.53256 0.46708
 C133 C 0.22909 0.46285 0.44300
 C134 C 0.23022 0.44094 0.41743
 C135 C 0.25325 0.41617 0.41707
 C136 C 0.27594 0.41455 0.44188
 C137 C 0.27527 0.43676 0.46690
 C138 C 0.22373 0.43846 0.53101
 C139 C 0.22297 0.41846 0.55777
 C140 C 0.24566 0.42202 0.58239
 C141 C 0.26892 0.44636 0.57998
 C142 C 0.27012 0.46602 0.55272
 C143 C 0.22627 0.53014 0.55155
 C144 C 0.22695 0.55098 0.57799
 C145 C 0.24998 0.57561 0.57968
 C146 C 0.27303 0.57822 0.55530
 C147 C 0.27280 0.55706 0.52941
 C148 C 0.26884 0.53055 0.44273
 C149 C 0.26821 0.55222 0.41696
 C150 C 0.24489 0.57670 0.41576
 C151 C 0.22130 0.57809 0.43971
 C152 C 0.22152 0.55613 0.46491
 H153 H 0.21008 0.48062 0.44373
 H154 H 0.21231 0.44255 0.39865
 H155 H 0.29411 0.39590 0.44209
 H156 H 0.29280 0.43462 0.48600
 H157 H 0.20610 0.43502 0.51220
 H158 H 0.20471 0.39998 0.55909
 H159 H 0.28907 0.48369 0.55058
 H160 H 0.20743 0.51231 0.54985
 H161 H 0.20873 0.54872 0.59637
 H162 H 0.29114 0.59687 0.55610
 H163 H 0.29066 0.55985 0.51072
 H164 H 0.28808 0.51308 0.44426
 H165 H 0.28678 0.55081 0.39883
 H166 H 0.20290 0.59651 0.43922
 H167 H 0.20343 0.55822 0.48348
 H168 H 0.28689 0.44931 0.59853
 C169 C 0.99818 0.25108 0.02083
 C170 C 0.99826 0.25140 -0.01189
 C171 C 0.96832 0.24897 -0.03136
 C172 C 1.02827 0.25412 -0.03123
 C173 C 1.02822 0.24972 0.04027
 C174 C 0.96798 0.25149 0.04001
 C175 C 0.96755 0.22659 -0.05654
 C176 C 0.94247 0.22657 -0.07859
 C177 C 0.91680 0.24841 -0.07565
 C178 C 0.91666 0.26978 -0.04933
 C179 C 0.94257 0.27056 -0.02783
 C180 C 1.05383 0.23223 -0.02824
 C181 C 1.07995 0.23356 -0.04944
 C182 C 1.08025 0.25583 -0.07499
 C183 C 1.05464 0.27781 -0.07754
 C184 C 1.02934 0.27719 -0.05575
 C185 C 1.05316 0.27218 0.03683
 C186 C 1.07997 0.27110 0.05719
 C187 C 1.08162 0.24845 0.08235
 C188 C 1.05643 0.22614 0.08558
 C189 C 1.03041 0.22657 0.06464
 C190 C 0.96482 0.27451 0.06445
 C191 C 0.93911 0.27334 0.08580
 C192 C 0.91562 0.24937 0.08294
 C193 C 0.91800 0.22691 0.05781
 C194 C 0.94429 0.22764 0.03678
 H195 H 0.98712 0.20971 -0.05980
 H196 H 0.94344 0.20936 -0.09808
 H197 H 0.89742 0.28704 -0.04622
 H198 H 0.94294 0.28862 -0.00913
 H199 H 1.05321 0.21361 -0.01010
 H200 H 1.09909 0.21613 -0.04665
 H201 H 1.00986 0.29425 -0.05865
 H202 H 1.05167 0.29087 0.01881
 H203 H 1.09871 0.28883 0.05397
 H204 H 1.05670 0.20807 0.10429
 H205 H 1.01148 0.20903 0.06788
 H206 H 0.98287 0.29299 0.06754
 H207 H 0.93776 0.29108 0.10479
 H208 H 0.90030 0.20804 0.05528
 H209 H 0.94661 0.20911 0.01867
 H210 H 1.05395 0.29562 -0.09648
 C211 C 0.49754 0.75009 0.51779
 C212 C 0.49759 0.74973 0.48510
 C213 C 0.46765 0.74777 0.46576
 C214 C 0.52767 0.75150 0.46583
 C215 C 0.52775 0.74943 0.53685
 C216 C 0.46742 0.75097 0.53713
 C217 C 0.46581 0.72437 0.44155
 C218 C 0.44067 0.72464 0.41954
 C219 C 0.41647 0.74801 0.42154
 C220 C 0.41734 0.77062 0.44662
 C221 C 0.44306 0.77081 0.46833
 C222 C 0.55236 0.72860 0.46881
 C223 C 0.57856 0.72903 0.44766
 C224 C 0.57988 0.75174 0.42270
 C225 C 0.55544 0.77483 0.42017
 C226 C 0.52979 0.77484 0.44161
 C227 C 0.55180 0.77286 0.53324
 C228 C 0.57870 0.77279 0.55348
 C229 C 0.58136 0.74994 0.57818
 C230 C 0.55741 0.72649 0.58151
 C231 C 0.53104 0.72613 0.56097
 C232 C 0.46467 0.77407 0.56155
 C233 C 0.43891 0.77344 0.58287
 C234 C 0.41495 0.74992 0.58008
 C235 C 0.41693 0.72739 0.55497
 C236 C 0.44324 0.72761 0.53392
 H237 H 0.48455 0.70645 0.43903
 H238 H 0.44039 0.70677 0.40062
 H239 H 0.39900 0.78900 0.44849
 H240 H 0.44436 0.78956 0.48632
 H241 H 0.55090 0.70989 0.48680
 H242 H 0.59703 0.71083 0.44995
 H243 H 0.51099 0.79264 0.43876
 H244 H 0.54940 0.79155 0.51533
 H245 H 0.59673 0.79130 0.55063
 H246 H 0.55896 0.70846 0.60020
 H247 H 0.51275 0.70794 0.56428
 H248 H 0.48304 0.79224 0.56461
 H249 H 0.43791 0.79125 0.60181
 H250 H 0.39889 0.70884 0.55246
 H251 H 0.44518 0.70902 0.51583
 H252 H 0.55597 0.79277 0.40134
 C253 C 0.01317 0.75032 0.00075
 C254 C -0.01954 0.75142 0.00020
 C255 C -0.03816 0.75006 -0.03036
 C256 C -0.03941 0.75347 0.02995
 C257 C 0.03220 0.74842 0.03091
 C258 C 0.03305 0.75131 -0.02892
 C259 C -0.03347 0.77214 -0.05547
 C260 C -0.05294 0.77109 -0.08294
 C261 C -0.07835 0.74880 -0.08520
 C262 C -0.08275 0.72681 -0.05987
 C263 C -0.06278 0.72729 -0.03309
 C264 C -0.06465 0.77584 0.03090
 C265 C -0.08634 0.77620 0.05633
 C266 C -0.08299 0.75467 0.08218
 C267 C -0.05689 0.73299 0.08187
 C268 C -0.03580 0.73189 0.05567
 C269 C 0.05568 0.72428 0.03345
 C270 C 0.07811 0.72484 0.05821
 C271 C 0.07723 0.74922 0.08141
 C272 C 0.05276 0.77253 0.08001
 C273 C 0.03065 0.77243 0.05460
 C274 C 0.02971 0.72861 -0.05367
 C275 C 0.05119 0.72847 -0.07956
 C276 C 0.07728 0.75006 -0.08036
 C277 C 0.08019 0.77283 -0.05553
 C278 C 0.05816 0.77366 -0.03049
 H279 H -0.01515 0.79048 -0.05361
 H280 H -0.04881 0.78856 -0.10174
 H281 H -0.10171 0.70903 -0.06055
 H282 H -0.06694 0.71009 -0.01403
 H283 H -0.06808 0.79268 0.01136
 H284 H -0.10576 0.79353 0.05559
 H285 H -0.01725 0.71365 0.05516
 H286 H 0.05743 0.70564 0.01536
 H287 H 0.09649 0.70641 0.05895
 H288 H 0.05172 0.79166 0.09762
 H289 H 0.01324 0.79170 0.05275
 H290 H 0.01105 0.71055 -0.05259
 H291 H 0.04813 0.71049 -0.09811
 H292 H 0.09956 0.79018 -0.05528
 H293 H 0.06128 0.79134 -0.01164
 H294 H -0.05353 0.71585 0.10114
 C295 C 0.48136 0.25061 0.50426
 C296 C 0.51407 0.25072 0.50427
 C297 C 0.53309 0.24754 0.47430
 C298 C 0.53376 0.25344 0.53399
 C299 C 0.46203 0.24995 0.53430
 C300 C 0.46225 0.25142 0.47398
 C301 C 0.55615 0.22299 0.47247
 C302 C 0.57709 0.22123 0.44651
 C303 C 0.57513 0.24375 0.42156
 C304 C 0.55135 0.26775 0.42271
 C305 C 0.53075 0.26994 0.44918
 C306 C 0.53159 0.23100 0.55909
 C307 C 0.55388 0.23162 0.58434
 C308 C 0.57914 0.25408 0.58434
 C309 C 0.58072 0.27687 0.55961
 C310 C 0.55818 0.27668 0.53490
 C311 C 0.46533 0.27335 0.55843
 C312 C 0.44429 0.27371 0.58471
 C313 C 0.41911 0.25129 0.58667
 C314 C 0.41622 0.22774 0.56274
 C315 C 0.43754 0.22696 0.53702
 C316 C 0.43854 0.27517 0.47053
 C317 C 0.41825 0.27533 0.44393
 C318 C 0.42144 0.25196 0.41984
 C319 C 0.44566 0.22856 0.42272
 C320 C 0.46559 0.22796 0.44986
 H321 H 0.55844 0.20556 0.49166
 H322 H 0.59507 0.20239 0.44611
 H323 H 0.54960 0.28557 0.40385
 H324 H 0.51361 0.28950 0.45046
 H325 H 0.51350 0.21235 0.55854
 H326 H 0.55221 0.21367 0.60308
 H327 H 0.56045 0.29411 0.51572
 H328 H 0.48349 0.29185 0.55649
 H329 H 0.44684 0.29228 0.60274
 H330 H 0.39720 0.21003 0.56376
 H331 H 0.43444 0.20877 0.51867
 H332 H 0.43538 0.29340 0.48885
 H333 H 0.39987 0.29371 0.44230
 H334 H 0.44834 0.21004 0.40464
 H335 H 0.48312 0.20887 0.45233
 H336 H 0.59969 0.29464 0.55914
 C337 C 1.00181 -0.01447 0.25169
 C338 C 1.00199 0.01828 0.25112
 C339 C 0.97176 0.03735 0.24960
 C340 C 1.03208 0.03771 0.25202
 C341 C 1.03138 -0.03432 0.24884
 C342 C 0.97174 -0.03352 0.25496
 C343 C 0.96850 0.06042 0.22526
 C344 C 0.94193 0.08077 0.22445
 C345 C 0.91776 0.07825 0.24775
 C346 C 0.92047 0.05464 0.27173
 C347 C 0.94757 0.03466 0.27297
 C348 C 1.05720 0.03350 0.22987
 C349 C 1.08396 0.05398 0.23035
 C350 C 1.08548 0.07997 0.25211
 C351 C 1.06016 0.08391 0.27416
 C352 C 1.03412 0.06294 0.27428
 C353 C 1.05716 -0.03152 0.27037
 C354 C 1.08271 -0.05347 0.26915
 C355 C 1.08215 -0.07945 0.24735
 C356 C 1.05641 -0.08167 0.22560
 C357 C 1.03168 -0.05919 0.22611
 C358 C 0.97011 -0.05675 0.27934
 C359 C 0.94474 -0.07850 0.28050
 C360 C 0.92011 -0.07718 0.25761
 C361 C 0.92089 -0.05311 0.23393
 C362 C 0.94682 -0.03172 0.23228
 H363 H 0.98693 0.06303 0.20711
 H364 H 0.94038 0.09867 0.20564
 H365 H 0.90230 0.05251 0.29019
 H366 H 0.94995 0.01762 0.29246
 H367 H 1.05585 0.01483 0.21181
 H368 H 1.10277 0.05016 0.21283
 H369 H 1.01505 0.06681 0.29154
 H370 H 1.05710 -0.01302 0.28865
 H371 H 1.10203 -0.05091 0.28635
 H372 H 1.05513 -0.10089 0.20810
 H373 H 1.01200 -0.06187 0.20930
 H374 H 0.98918 -0.05871 0.29692
 H375 H 0.94459 -0.09666 0.29912
 H376 H 0.90226 -0.05179 0.21585
 H377 H 0.94796 -0.01456 0.21279
 H378 H 1.06027 0.10328 0.29155
 C379 C 0.50365 0.52131 0.75149
 C380 C 0.50292 0.48861 0.75195
 C381 C 0.47262 0.47018 0.75546
 C382 C 0.53224 0.46834 0.74958
 C383 C 0.53417 0.53984 0.75215
 C384 C 0.47388 0.54116 0.75033
 C385 C 0.47050 0.44760 0.78037
 C386 C 0.44454 0.42666 0.78215
 C387 C 0.41990 0.42811 0.75928
 C388 C 0.42122 0.45158 0.73503
 C389 C 0.44768 0.47222 0.73285
 C390 C 0.55724 0.47036 0.77213
 C391 C 0.58217 0.44771 0.77181
 C392 C 0.58191 0.42225 0.74957
 C393 C 0.55725 0.42073 0.72672
 C394 C 0.53285 0.44365 0.72660
 C395 C 0.55807 0.53608 0.72862
 C396 C 0.58491 0.55643 0.72834
 C397 C 0.58771 0.58129 0.75107
 C398 C 0.56407 0.58449 0.77484
 C399 C 0.53774 0.56393 0.77545
 C400 C 0.47117 0.56482 0.72647
 C401 C 0.44495 0.58565 0.72591
 C402 C 0.42055 0.58305 0.74896
 C403 C 0.42280 0.55900 0.77256
 C404 C 0.44955 0.53855 0.77357
 H405 H 0.48954 0.44557 0.79797
 H406 H 0.44399 0.40896 0.80121
 H407 H 0.40257 0.45296 0.71697
 H408 H 0.44918 0.48901 0.71306
 H409 H 0.55685 0.48867 0.79060
 H410 H 0.60088 0.44930 0.78979
 H411 H 0.51369 0.44152 0.70913
 H412 H 0.55550 0.51813 0.70998
 H413 H 0.60270 0.55363 0.70960
 H414 H 0.56570 0.60326 0.79279
 H415 H 0.51958 0.56732 0.79376
 H416 H 0.48971 0.56744 0.70843
 H417 H 0.44378 0.60388 0.70739
 H418 H 0.40446 0.55677 0.79083
 H419 H 0.45152 0.52113 0.79277
 H420 H 0.55662 0.40157 0.70912
 C421 C 1.02010 1.00412 0.75016
 C422 C 0.98743 1.00477 0.74880
 C423 C 0.96779 0.97501 0.74960
 C424 C 0.96831 1.03496 0.74633
 C425 C 1.03986 1.03374 0.75315
 C426 C 1.03878 0.97359 0.74793
 C427 C 0.97020 0.95129 0.72570
 C428 C 0.94873 0.92542 0.72534
 C429 C 0.92401 0.92355 0.74824
 C430 C 0.92196 0.94709 0.77224
 C431 C 0.94375 0.97240 0.77303
 C432 C 0.94432 1.03662 0.72273
 C433 C 0.92220 1.06171 0.72248
 C434 C 0.92388 1.08651 0.74538
 C435 C 0.94913 1.08585 0.76801
 C436 C 0.97069 1.05992 0.76892
 C437 C 1.06335 1.03494 0.77728
 C438 C 1.08494 1.06045 0.77883
 C439 C 1.08324 1.08563 0.75654
 C440 C 1.05916 1.08506 0.73288
 C441 C 1.03794 1.05902 0.73085
 C442 C 1.03395 0.94769 0.76904
 C443 C 1.05319 0.92007 0.76690
 C444 C 1.07853 0.91839 0.74448
 C445 C 1.08314 0.94454 0.72353
 C446 C 1.06340 0.97153 0.72509
 H447 H 0.98807 0.95328 0.70694
 H448 H 0.95062 0.90763 0.70646
 H449 H 0.90328 0.94607 0.79030
 H450 H 0.94135 0.99059 0.79151
 H451 H 0.94196 1.01768 0.70504
 H452 H 0.90359 1.06140 0.70432
 H453 H 0.98846 1.05885 0.78785
 H454 H 1.06544 1.01561 0.79458
 H455 H 1.10313 1.06037 0.79741
 H456 H 1.05758 1.10408 0.71521
 H457 H 1.02064 1.05821 0.71148
 H458 H 1.01566 0.94901 0.78745
 H459 H 1.04893 0.90064 0.78365
 H460 H 1.10209 0.94435 0.70573
 H461 H 1.06766 0.99120 0.70861
 H462 H 0.95129 1.10442 0.78610
 C463 C 0.51717 0.50113 0.24704
 C464 C 0.48457 0.50170 0.24679
 C465 C 0.46513 0.47204 0.24865
 C466 C 0.46588 0.53182 0.24469
 C467 C 0.53696 0.53078 0.24549
 C468 C 0.53543 0.47060 0.24935
 C469 C 0.45813 0.45455 0.22074
 C470 C 0.43730 0.42830 0.22193
 C471 C 0.42187 0.42022 0.25073
 C472 C 0.42835 0.43811 0.27855
 C473 C 0.45012 0.46367 0.27758
 C474 C 0.45134 0.54041 0.21556
 C475 C 0.42909 0.56561 0.21450
 C476 C 0.42167 0.58291 0.24245
 C477 C 0.43680 0.57479 0.27141
 C478 C 0.45808 0.54886 0.27267
 C479 C 0.53707 0.55305 0.27082
 C480 C 0.55881 0.57865 0.27097
 C481 C 0.58178 0.58161 0.24650
 C482 C 0.58180 0.55926 0.22124
 C483 C 0.55946 0.53422 0.22065
 C484 C 0.55539 0.46533 0.27594
 C485 C 0.57596 0.43881 0.27676
 C486 C 0.57658 0.41686 0.25116
 C487 C 0.55606 0.42167 0.22488
 C488 C 0.53616 0.44873 0.22368
 H489 H 0.46807 0.46176 0.19786
 H490 H 0.43210 0.41521 0.20007
 H491 H 0.41652 0.43234 0.30096
 H492 H 0.45461 0.47748 0.29915
 H493 H 0.45632 0.52683 0.19395
 H494 H 0.41746 0.57142 0.19198
 H495 H 0.46749 0.54136 0.29569
 H496 H 0.52154 0.54982 0.29130
 H497 H 0.55874 0.59519 0.29105
 H498 H 0.59930 0.56099 0.20210
 H499 H 0.56032 0.51688 0.20126
 H500 H 0.55566 0.48230 0.29567
 H501 H 0.59167 0.43564 0.29723
 H502 H 0.55668 0.40544 0.20456
 H503 H 0.52247 0.45329 0.20213
 H504 H 0.43084 0.58742 0.29335
 O505 O 0.26014 0.16555 0.19902
 O506 O 0.29345 0.15560 0.24531
 O507 O 0.17443 0.20094 0.25062
 O508 O 0.16021 0.24395 0.27852
 O509 O 0.21030 0.25117 0.16303
 O510 O 0.25562 0.28511 0.15411
 O511 O 0.25648 0.29082 0.32920
 O512 O 0.21921 0.24573 0.33667
 O513 O 0.33921 0.24847 0.28975
 O514 O 0.34831 0.21254 0.24211
 O515 O 0.29870 0.33073 0.25073
 O516 O 0.25330 0.34041 0.21158
 O517 O 0.25323 0.32992 0.29124
 O518 O 0.21887 0.33990 0.24542
 O519 O 0.33799 0.29295 0.24605
 O520 O 0.34918 0.24868 0.21051
 O521 O 0.30063 0.24927 0.32833
 O522 O 0.26104 0.21238 0.33967
 O523 O 0.25461 0.20472 0.16125
 O524 O 0.29068 0.24913 0.15304
 O525 O 0.17250 0.24443 0.20187
 O526 O 0.16460 0.28302 0.24672
 O527 O 0.21289 0.16290 0.24248
 O528 O 0.25673 0.15335 0.27866
 Zr529 Zr 0.25586 0.18976 0.24327
 O530 O 0.28535 0.21729 0.27383
 Zr531 Zr 0.19846 0.24503 0.24519
 O532 O 0.22541 0.27518 0.27557
 Zr533 Zr 0.25410 0.24751 0.18817
 O534 O 0.28390 0.27732 0.21614
 Zr535 Zr 0.25721 0.24743 0.30303
 O536 O 0.22743 0.21663 0.27554
 Zr537 Zr 0.31308 0.24906 0.24624
 O538 O 0.28608 0.21903 0.21526
 Zr539 Zr 0.25547 0.30464 0.24769
 O540 O 0.22535 0.27734 0.21711
 O541 O 0.22516 0.21637 0.21430
 O542 O 0.28648 0.27843 0.27700
 C543 C 0.25829 0.17527 0.16980
 C544 C 0.18368 0.17163 0.24741
 C545 C 0.18108 0.24837 0.17252
 C546 C 0.25453 0.32040 0.32047
 C547 C 0.33003 0.24914 0.31920
 C548 C 0.32828 0.32212 0.24885
 H549 H 0.29893 0.20277 0.28683
 H550 H 0.29684 0.29110 0.20183
 H551 H 0.21161 0.20251 0.20053
 H552 H 0.21063 0.28770 0.28933
 H553 H 0.20535 0.22737 0.33055
 H554 H 0.16861 0.25250 0.29900
 H555 H 0.34217 0.26328 0.19315
 H556 H 0.30734 0.23354 0.15982
 H557 H 0.26708 0.19194 0.32924
 H558 H 0.24011 0.15904 0.29469
 H559 H 0.27280 0.33853 0.19815
 H560 H 0.24199 0.30261 0.16274
 H561 H 0.31045 0.16337 0.23065
 H562 H 0.34562 0.19763 0.26040
 H563 H 0.16971 0.29767 0.22871
 H564 H 0.20178 0.33337 0.26054
 O565 O 0.75034 0.83636 0.21072
 O566 O 0.71456 0.84426 0.25555
 O567 O 0.83368 0.79708 0.25625
 O568 O 0.84630 0.75475 0.28639
 O569 O 0.79493 0.75488 0.17040
 O570 O 0.75142 0.71771 0.16107
 O571 O 0.74965 0.70612 0.33612
 O572 O 0.78764 0.74814 0.34522
 O573 O 0.66818 0.75130 0.29858
 O574 O 0.65728 0.78644 0.25315
 O575 O 0.70715 0.66873 0.25210
 O576 O 0.75312 0.65942 0.21714
 O577 O 0.75115 0.66829 0.29671
 O578 O 0.78723 0.65957 0.25047
 O579 O 0.66832 0.70706 0.25566
 O580 O 0.65831 0.75335 0.21843
 O581 O 0.70670 0.74834 0.33715
 O582 O 0.75014 0.78578 0.34758
 O583 O 0.74784 0.79801 0.17182
 O584 O 0.71498 0.75229 0.16145
 O585 O 0.83380 0.75200 0.20874
 O586 O 0.84163 0.71472 0.25342
 O587 O 0.79485 0.83568 0.25495
 O588 O 0.75078 0.84362 0.29139
 Zr589 Zr 0.75170 0.80960 0.25370
 O590 O 0.72191 0.78142 0.28326
 Zr591 Zr 0.80843 0.75334 0.25256
 O592 O 0.78115 0.72283 0.28234
 Zr593 Zr 0.75165 0.75414 0.19647
 O594 O 0.72205 0.72345 0.22349
 Zr595 Zr 0.74998 0.75006 0.31120
 O596 O 0.78023 0.78100 0.28435
 Zr597 Zr 0.69360 0.75084 0.25495
 O598 O 0.72053 0.78193 0.22506
 Zr599 Zr 0.75051 0.69469 0.25367
 O600 O 0.78045 0.72273 0.22365
 O601 O 0.78156 0.78359 0.22335
 O602 O 0.72013 0.72013 0.28434
 C603 C 0.74819 0.82740 0.18126
 C604 C 0.82429 0.82658 0.25636
 C605 C 0.82440 0.75307 0.17938
 C606 C 0.75055 0.67686 0.32631
 C607 C 0.67730 0.74967 0.32799
 C608 C 0.67766 0.67771 0.25352
 H609 H 0.70851 0.79579 0.29658
 H610 H 0.70888 0.71040 0.20870
 H611 H 0.79509 0.79773 0.20989
 H612 H 0.79570 0.70956 0.29562
 H613 H 0.80345 0.76476 0.33895
 H614 H 0.83916 0.74259 0.30548
 H615 H 0.66161 0.73495 0.20375
 H616 H 0.69710 0.76564 0.16971
 H617 H 0.73381 0.80215 0.34213
 H618 H 0.76589 0.83571 0.30796
 H619 H 0.73762 0.66550 0.20021
 H620 H 0.76751 0.70151 0.16780
 H621 H 0.69802 0.83728 0.23998
 H622 H 0.66296 0.80337 0.26881
 H623 H 0.83516 0.69955 0.23630
 H624 H 0.80282 0.66374 0.26790
 O625 O 0.75378 0.16634 0.79525
 O626 O 0.71812 0.15697 0.75163
 O627 O 0.83539 0.20911 0.75352
 O628 O 0.84645 0.25110 0.72223
 O629 O 0.79302 0.25136 0.83749
 O630 O 0.74777 0.28367 0.84716
 O631 O 0.75114 0.29586 0.67021
 O632 O 0.78664 0.25434 0.66053
 O633 O 0.66769 0.24934 0.70824
 O634 O 0.65668 0.21580 0.75224
 O635 O 0.70538 0.33364 0.75447
 O636 O 0.75007 0.34489 0.78789
 O637 O 0.74615 0.33403 0.70901
 O638 O 0.78596 0.34283 0.75546
 O639 O 0.66734 0.29473 0.75012
 O640 O 0.65906 0.24727 0.78896
 O641 O 0.70629 0.25425 0.66997
 O642 O 0.75175 0.21546 0.66060
 O643 O 0.74820 0.20401 0.83457
 O644 O 0.71221 0.24932 0.84390
 O645 O 0.83242 0.25165 0.79962
 O646 O 0.83917 0.29159 0.75534
 O647 O 0.79790 0.16958 0.74896
 O648 O 0.75192 0.15975 0.71483
 Zr649 Zr 0.75335 0.19351 0.75275
 O650 O 0.72248 0.22083 0.72347
 Zr651 Zr 0.80797 0.25141 0.75534
 O652 O 0.78028 0.28066 0.72460
 Zr653 Zr 0.75040 0.24865 0.81048
 O654 O 0.72080 0.27913 0.78302
 Zr655 Zr 0.75004 0.25248 0.69563
 O656 O 0.78139 0.22295 0.72282
 Zr657 Zr 0.69326 0.25101 0.75156
 O658 O 0.72080 0.22008 0.78116
 Zr659 Zr 0.74876 0.30827 0.75268
 O660 O 0.77856 0.28110 0.78378
 O661 O 0.78166 0.22021 0.78390
 O662 O 0.71927 0.28190 0.72204
 C663 C 0.75037 0.17476 0.82469
 C664 C 0.82708 0.17960 0.75033
 C665 C 0.82260 0.25201 0.82886
 C666 C 0.74833 0.32511 0.67952
 C667 C 0.67684 0.25183 0.67897
 C668 C 0.67618 0.32428 0.75228
 H669 H 0.70945 0.20613 0.71017
 H670 H 0.70729 0.29209 0.79763
 H671 H 0.79555 0.20645 0.79743
 H672 H 0.79460 0.29416 0.71136
 H673 H 0.80424 0.24030 0.66824
 H674 H 0.83906 0.26260 0.70282
 H675 H 0.65992 0.26728 0.80178
 H676 H 0.69628 0.23336 0.83637
 H677 H 0.73239 0.20191 0.66289
 H678 H 0.76657 0.16788 0.69800
 H679 H 0.73640 0.33778 0.80593
 H680 H 0.76121 0.30193 0.84004
 H681 H 0.70108 0.16357 0.76683
 H682 H 0.66493 0.19691 0.74040
 H683 H 0.83292 0.30532 0.77372
 H684 H 0.79843 0.34190 0.73528
 O685 O 0.24007 0.83058 0.79127
 O686 O 0.27665 0.83956 0.74727
 O687 O 0.15887 0.78829 0.74919
 O688 O 0.14872 0.74660 0.71632
 O689 O 0.20025 0.74868 0.83257
 O690 O 0.24479 0.71277 0.84209
 O691 O 0.24634 0.69967 0.66714
 O692 O 0.20714 0.73991 0.65736
 O693 O 0.32629 0.74778 0.70386
 O694 O 0.33669 0.78270 0.74847
 O695 O 0.29008 0.66382 0.75056
 O696 O 0.24499 0.65358 0.78620
 O697 O 0.24617 0.66179 0.70651
 O698 O 0.21014 0.65280 0.75322
 O699 O 0.32741 0.70347 0.74646
 O700 O 0.33590 0.75058 0.78427
 O701 O 0.28778 0.74289 0.66549
 O702 O 0.24239 0.77952 0.65543
 O703 O 0.24635 0.79304 0.83055
 O704 O 0.28034 0.74797 0.84102
 O705 O 0.16133 0.74314 0.79458
 O706 O 0.15418 0.70600 0.75009
 O707 O 0.19675 0.82738 0.74399
 O708 O 0.24229 0.83774 0.71105
 Zr709 Zr 0.24097 0.80346 0.74846
 O710 O 0.27164 0.77606 0.71909
 Zr711 Zr 0.18617 0.74555 0.75064
 O712 O 0.21430 0.71570 0.72080
 Zr713 Zr 0.24336 0.74873 0.80628
 O714 O 0.27368 0.71854 0.77928
 Zr715 Zr 0.24444 0.74368 0.69160
 O716 O 0.21320 0.77376 0.71834
 Zr717 Zr 0.30100 0.74657 0.74752
 O718 O 0.27328 0.77720 0.77720
 Zr719 Zr 0.24599 0.68865 0.74944
 O720 O 0.21545 0.71611 0.77955
 O721 O 0.21226 0.77694 0.77930
 O722 O 0.27534 0.71488 0.71851
 C723 C 0.24363 0.82221 0.82078
 C724 C 0.16751 0.81774 0.74554
 C725 C 0.17085 0.74543 0.82381
 C726 C 0.24662 0.67041 0.67691
 C727 C 0.31716 0.74544 0.67451
 C728 C 0.31918 0.67380 0.74853
 H729 H 0.28449 0.79074 0.70560
 H730 H 0.28740 0.70598 0.79403
 H731 H 0.19826 0.79081 0.79263
 H732 H 0.20017 0.70189 0.70765
 H733 H 0.19032 0.75550 0.66377
 H734 H 0.15553 0.73311 0.69799
 H735 H 0.33435 0.73130 0.79807
 H736 H 0.29775 0.76176 0.83260
 H737 H 0.26012 0.79490 0.65901
 H738 H 0.22898 0.82893 0.69344
 H739 H 0.26019 0.66047 0.80309
 H740 H 0.22935 0.69594 0.83547
 H741 H 0.29313 0.83334 0.76324
 H742 H 0.32916 0.80049 0.73463
 H743 H 0.16148 0.69089 0.76694
 H744 H 0.19486 0.65584 0.73529
 O745 O 0.24934 0.34103 0.71262
 O746 O 0.21301 0.34952 0.75723
 O747 O 0.33259 0.30366 0.76100
 O748 O 0.34541 0.26121 0.79109
 O749 O 0.29521 0.25631 0.67500
 O750 O 0.25042 0.22145 0.66575
 O751 O 0.25018 0.21317 0.84085
 O752 O 0.28701 0.25743 0.84898
 O753 O 0.16748 0.25736 0.80206
 O754 O 0.15702 0.29246 0.75637
 O755 O 0.20682 0.17475 0.76031
 O756 O 0.25274 0.16551 0.72193
 O757 O 0.25238 0.17487 0.80196
 O758 O 0.28628 0.16473 0.75618
 O759 O 0.16777 0.21297 0.75786
 O760 O 0.15785 0.25918 0.72199
 O761 O 0.20584 0.25371 0.84075
 O762 O 0.24331 0.29220 0.85107
 O763 O 0.24888 0.30180 0.67451
 O764 O 0.21523 0.25661 0.66501
 O765 O 0.33380 0.25971 0.71354
 O766 O 0.34154 0.22169 0.75831
 O767 O 0.29380 0.34195 0.75647
 O768 O 0.24827 0.35131 0.79237
 Zr769 Zr 0.25080 0.31552 0.75634
 O770 O 0.22131 0.28765 0.78653
 Zr771 Zr 0.30783 0.25982 0.75699
 O772 O 0.28067 0.22940 0.78691
 Zr773 Zr 0.25157 0.25859 0.70039
 O774 O 0.22178 0.22855 0.72786
 Zr775 Zr 0.24914 0.25675 0.81513
 O776 O 0.27921 0.28791 0.78809
 Zr777 Zr 0.19311 0.25664 0.75851
 O778 O 0.22011 0.28701 0.72803
 Zr779 Zr 0.25027 0.20058 0.75871
 O780 O 0.28043 0.22818 0.72855
 O781 O 0.28100 0.28901 0.72675
 O782 O 0.21953 0.22643 0.78859
 C783 C 0.24825 0.33138 0.68333
 C784 C 0.32316 0.33304 0.75938
 C785 C 0.32467 0.25726 0.68418
 C786 C 0.25180 0.18380 0.83141
 C787 C 0.17651 0.25530 0.83146
 C788 C 0.17727 0.18363 0.75906
 H789 H 0.20816 0.30209 0.80009
 H790 H 0.20869 0.21514 0.71330
 H791 H 0.29459 0.30282 0.71300
 H792 H 0.29542 0.21651 0.80036
 H793 H 0.30063 0.27619 0.84371
 H794 H 0.33708 0.25141 0.81102
 H795 H 0.16245 0.24197 0.70626
 H796 H 0.19772 0.27088 0.67248
 H797 H 0.25481 0.31147 0.84344
 H798 H 0.26691 0.34813 0.80677
 H799 H 0.23377 0.16825 0.70789
 H800 H 0.26490 0.20431 0.67368
 H801 H 0.19693 0.34225 0.74130
 H802 H 0.16245 0.30919 0.77233
 H803 H 0.33587 0.20677 0.74068
 H804 H 0.30363 0.17102 0.77112
 O805 O 0.76181 0.66948 0.69484
 O806 O 0.79514 0.65909 0.74002
 O807 O 0.67617 0.70457 0.74607
 O808 O 0.66244 0.74657 0.77551
 O809 O 0.71137 0.75425 0.65929
 O810 O 0.75590 0.78932 0.65039
 O811 O 0.76049 0.79348 0.82562
 O812 O 0.72242 0.75041 0.83366
 O813 O 0.84124 0.75450 0.78509
 O814 O 0.85064 0.71707 0.73822
 O815 O 0.80019 0.83460 0.74595
 O816 O 0.75410 0.84478 0.70890
 O817 O 0.75564 0.83295 0.78818
 O818 O 0.72006 0.84316 0.74272
 O819 O 0.83959 0.79703 0.74083
 O820 O 0.85024 0.75222 0.70528
 O821 O 0.80324 0.74891 0.82386
 O822 O 0.76057 0.71394 0.83451
 O823 O 0.75621 0.70873 0.65717
 O824 O 0.79167 0.75370 0.64883
 O825 O 0.67388 0.74886 0.69861
 O826 O 0.66648 0.78680 0.74372
 O827 O 0.71492 0.66655 0.73920
 O828 O 0.75953 0.65748 0.77477
 Zr829 Zr 0.75779 0.69354 0.73906
 O830 O 0.78766 0.72089 0.76926
 Zr831 Zr 0.70022 0.74869 0.74165
 O832 O 0.72745 0.77844 0.77213
 Zr833 Zr 0.75536 0.75146 0.68420
 O834 O 0.78522 0.78134 0.71206
 Zr835 Zr 0.75955 0.75043 0.79903
 O836 O 0.72941 0.72009 0.77157
 Zr837 Zr 0.81487 0.75315 0.74173
 O838 O 0.78768 0.72307 0.71096
 Zr839 Zr 0.75707 0.80827 0.74419
 O840 O 0.72685 0.78113 0.71355
 O841 O 0.72675 0.72016 0.71047
 O842 O 0.78844 0.78197 0.77308
 C843 C 0.75998 0.67928 0.66567
 C844 C 0.68562 0.67525 0.74357
 C845 C 0.68220 0.75213 0.66912
 C846 C 0.75794 0.82313 0.81727
 C847 C 0.83244 0.75147 0.81450
 C848 C 0.82978 0.82613 0.74359
 H849 H 0.80149 0.70620 0.78176
 H850 H 0.79789 0.79525 0.69763
 H851 H 0.71314 0.70630 0.69676
 H852 H 0.71291 0.79086 0.78623
 H853 H 0.70667 0.73394 0.82684
 H854 H 0.67002 0.75735 0.79525
 H855 H 0.84351 0.76756 0.68844
 H856 H 0.80842 0.73806 0.65524
 H857 H 0.77316 0.69574 0.82589
 H858 H 0.74354 0.66353 0.79130
 H859 H 0.77225 0.84191 0.69387
 H860 H 0.74191 0.80644 0.65917
 H861 H 0.81282 0.66803 0.72692
 H862 H 0.84871 0.70284 0.75713
 H863 H 0.67166 0.80173 0.72597
 H864 H 0.70373 0.83696 0.75879
 O865 O 0.25080 0.66567 0.29181
 O866 O 0.21504 0.65672 0.24841
 O867 O 0.33312 0.70685 0.24874
 O868 O 0.34503 0.74867 0.21785
 O869 O 0.29216 0.75022 0.33321
 O870 O 0.24741 0.78330 0.34303
 O871 O 0.24915 0.79440 0.16602
 O872 O 0.28503 0.75286 0.15659
 O873 O 0.16613 0.75207 0.20476
 O874 O 0.15504 0.71622 0.24853
 O875 O 0.20529 0.83358 0.25110
 O876 O 0.25070 0.84434 0.28332
 O877 O 0.24522 0.83288 0.20465
 O878 O 0.28616 0.84130 0.25050
 O879 O 0.16676 0.79515 0.24678
 O880 O 0.15762 0.74801 0.28530
 O881 O 0.20468 0.75165 0.16610
 O882 O 0.25003 0.71409 0.15673
 O883 O 0.24720 0.70367 0.33101
 O884 O 0.21133 0.74913 0.34011
 O885 O 0.33132 0.75021 0.29513
 O886 O 0.33842 0.78934 0.25039
 O887 O 0.29504 0.66776 0.24531
 O888 O 0.24876 0.65859 0.21143
 Zr889 Zr 0.25097 0.69256 0.24913
 O890 O 0.22041 0.72025 0.21985
 Zr891 Zr 0.30658 0.74967 0.25099
 O892 O 0.27915 0.77918 0.22029
 Zr893 Zr 0.24938 0.74805 0.30653
 O894 O 0.22009 0.77890 0.27916
 Zr895 Zr 0.24841 0.75117 0.19169
 O896 O 0.27937 0.72134 0.21888
 Zr897 Zr 0.19193 0.75114 0.24795
 O898 O 0.21910 0.71988 0.27757
 Zr899 Zr 0.24826 0.80745 0.24847
 O900 O 0.27783 0.77995 0.27949
 O901 O 0.28001 0.71898 0.27989
 O902 O 0.21832 0.78131 0.21810
 C903 C 0.24837 0.67431 0.32129
 C904 C 0.32436 0.67740 0.24596
 C905 C 0.32170 0.75082 0.32444
 C906 C 0.24682 0.82373 0.17520
 C907 C 0.17522 0.75208 0.17537
 C908 C 0.17598 0.82454 0.24897
 H909 H 0.20705 0.70577 0.20665
 H910 H 0.20693 0.79211 0.29387
 H911 H 0.29384 0.70510 0.29338
 H912 H 0.29353 0.79240 0.20684
 H913 H 0.30247 0.73855 0.16418
 H914 H 0.33777 0.76014 0.19838
 H915 H 0.15944 0.76762 0.29862
 H916 H 0.19526 0.73326 0.33271
 H917 H 0.23161 0.69954 0.16025
 H918 H 0.26394 0.66600 0.19473
 H919 H 0.23750 0.83740 0.30177
 H920 H 0.26134 0.80120 0.33591
 H921 H 0.19765 0.66438 0.26270
 H922 H 0.16198 0.69825 0.23462
 H923 H 0.33242 0.80344 0.26858
 H924 H 0.29788 0.84054 0.22986
 O925 O 0.74277 0.32645 0.29542
 O926 O 0.77906 0.33577 0.25101
 O927 O 0.66015 0.28825 0.24741
 O928 O 0.64848 0.24604 0.21655
 O929 O 0.69843 0.24192 0.33305
 O930 O 0.74354 0.20713 0.34244
 O931 O 0.74608 0.19905 0.16758
 O932 O 0.70724 0.24109 0.15881
 O933 O 0.82641 0.24449 0.20635
 O934 O 0.83643 0.27861 0.25299
 O935 O 0.78783 0.16027 0.25006
 O936 O 0.74088 0.15109 0.28611
 O937 O 0.74416 0.16029 0.20603
 O938 O 0.70834 0.15012 0.25088
 O939 O 0.82606 0.19919 0.24768
 O940 O 0.83581 0.24424 0.28639
 O941 O 0.78825 0.24197 0.16739
 O942 O 0.74469 0.27864 0.15698
 O943 O 0.74417 0.28756 0.33385
 O944 O 0.77858 0.24269 0.34304
 O945 O 0.65985 0.24455 0.29438
 O946 O 0.65294 0.20583 0.25023
 O947 O 0.69881 0.32673 0.25103
 O948 O 0.74304 0.33611 0.21517
 Zr949 Zr 0.74215 0.30093 0.25176
 O950 O 0.77232 0.27364 0.22179
 Zr951 Zr 0.68579 0.24465 0.25101
 O952 O 0.71359 0.21468 0.22103
 Zr953 Zr 0.74211 0.24423 0.30779
 O954 O 0.77228 0.21436 0.28034
 Zr955 Zr 0.74474 0.24265 0.19303
 O956 O 0.71410 0.27305 0.22013
 Zr957 Zr 0.80061 0.24272 0.24974
 O958 O 0.77321 0.27290 0.28014
 Zr959 Zr 0.74421 0.18609 0.24939
 O960 O 0.71370 0.21345 0.27955
 O961 O 0.71228 0.27416 0.28124
 O962 O 0.77458 0.21245 0.21955
 C963 C 0.74389 0.31709 0.32479
 C964 C 0.66944 0.31770 0.24878
 C965 C 0.66900 0.24266 0.32376
 C966 C 0.74542 0.16956 0.17670
 C967 C 0.81756 0.24342 0.17683
 C968 C 0.81717 0.16969 0.24866
 H969 H 0.78565 0.28839 0.20887
 H970 H 0.78550 0.20104 0.29488
 H971 H 0.69851 0.28791 0.29490
 H972 H 0.69932 0.20154 0.20735
 H973 H 0.69125 0.25748 0.16536
 H974 H 0.65558 0.23323 0.19786
 H975 H 0.83236 0.22561 0.30071
 H976 H 0.79625 0.25638 0.33501
 H977 H 0.75957 0.29587 0.16370
 H978 H 0.72807 0.32864 0.19829
 H979 H 0.75869 0.15481 0.30137
 H980 H 0.72851 0.19028 0.33499
 H981 H 0.79532 0.32875 0.26688
 H982 H 0.83093 0.29570 0.23743
 H983 H 0.65920 0.19103 0.26776
 H984 H 0.69164 0.15594 0.23504
 N985 N 0.27540 0.10010 0.12650
 C986 C 0.25932 0.10467 0.09853
 N987 N 0.24343 0.13280 0.09386
 N988 N 0.24374 0.15562 0.11631
 C989 C 0.25946 0.15087 0.14445
 N990 N 0.27528 0.12270 0.14917
 N991 N 0.77748 0.60399 0.62305
 C992 C 0.76094 0.60799 0.59527
 N993 N 0.74478 0.63593 0.59037
 N994 N 0.74521 0.65909 0.61246
 C995 C 0.76134 0.65486 0.64044
 N996 N 0.77748 0.62692 0.64534
 N997 N 0.73518 0.86610 0.10323
 C998 C 0.74621 0.89636 0.10833
 N999 N 0.75746 0.90416 0.13795
 N1000 N 0.75755 0.88246 0.16154
 C1001 C 0.74671 0.85212 0.15621
 N1002 N 0.73561 0.84437 0.12662
 N1003 N 0.23575 0.36836 0.60445
 C1004 C 0.24589 0.39898 0.60927
 N1005 N 0.25651 0.40753 0.63891
 N1006 N 0.25680 0.38621 0.66282
 C1007 C 0.24683 0.35553 0.65779
 N1008 N 0.23639 0.34701 0.62817
 N1009 N 0.76549 0.09829 0.86656
 C1010 C 0.74724 0.10152 0.89343
 N1011 N 0.73012 0.12915 0.89733
 N1012 N 0.73136 0.15257 0.87560
 C1013 C 0.74938 0.14912 0.84877
 N1014 N 0.76628 0.12149 0.84451
 N1015 N 0.25742 0.59568 0.36101
 C1016 C 0.24584 0.60190 0.39084
 N1017 N 0.23522 0.63206 0.39760
 N1018 N 0.23618 0.65514 0.37550
 C1019 C 0.24748 0.64886 0.34564
 N1020 N 0.25803 0.61870 0.33876
 N1021 N 0.26119 0.86718 0.89479
 C1022 C 0.24280 0.89406 0.89134
 N1023 N 0.22485 0.89697 0.86416
 N1024 N 0.22549 0.87437 0.84149
 C1025 C 0.24374 0.84760 0.84524
 N1026 N 0.26139 0.84430 0.87240
 N1027 N 0.75399 0.35818 0.40243
 C1028 C 0.74182 0.38781 0.39603
 N1029 N 0.73066 0.39406 0.36605
 N1030 N 0.73169 0.37160 0.34331
 C1031 C 0.74365 0.34194 0.34975
 N1032 N 0.75461 0.33555 0.37977
 N1033 N 0.13407 0.26629 0.09968
 C1034 C 0.10718 0.24834 0.10448
 N1035 N 0.10521 0.23045 0.13170
 N1036 N 0.12873 0.23068 0.15328
 C1037 C 0.15553 0.24841 0.14835
 N1038 N 0.15793 0.26609 0.12106
 N1039 N 0.60322 0.74039 0.63196
 C1040 C 0.60797 0.75106 0.60156
 N1041 N 0.63742 0.76250 0.59339
 N1042 N 0.66125 0.76288 0.61480
 C1043 C 0.65633 0.75222 0.64523
 N1044 N 0.62686 0.74110 0.65339
 N1045 N 0.12852 0.76526 0.89829
 C1046 C 0.10058 0.74864 0.89529
 N1047 N 0.09612 0.73050 0.86848
 N1048 N 0.11844 0.72943 0.84558
 C1049 C 0.14637 0.74589 0.84895
 N1050 N 0.15104 0.76374 0.87573
 N1051 N 0.59195 0.25367 0.36565
 C1052 C 0.59913 0.24299 0.39560
 N1053 N 0.62924 0.23193 0.40157
 N1054 N 0.65141 0.23173 0.37861
 C1055 C 0.64422 0.24223 0.34867
 N1056 N 0.61407 0.25312 0.34253
 N1057 N 0.86608 0.77092 0.10388
 C1058 C 0.89413 0.75443 0.10707
 N1059 N 0.89907 0.73742 0.13452
 N1060 N 0.87707 0.73718 0.15778
 C1061 C 0.84899 0.75343 0.15421
 N1062 N 0.84388 0.77022 0.12682
 N1063 N 0.36429 0.24311 0.60669
 C1064 C 0.39480 0.25306 0.61243
 N1065 N 0.40222 0.26456 0.64204
 N1066 N 0.37998 0.26575 0.66505
 C1067 C 0.34945 0.25586 0.65916
 N1068 N 0.34202 0.24464 0.62953
 N1069 N 0.86512 0.26643 0.90506
 C1070 C 0.89266 0.24933 0.90072
 N1071 N 0.89675 0.23344 0.87249
 N1072 N 0.87459 0.23474 0.84955
 C1073 C 0.84710 0.25158 0.85405
 N1074 N 0.84259 0.26724 0.88230
 N1075 N 0.36127 0.75947 0.40307
 C1076 C 0.39159 0.74945 0.39639
 N1077 N 0.39881 0.74048 0.36590
 N1078 N 0.37664 0.74141 0.34293
 C1079 C 0.34627 0.75107 0.34964
 N1080 N 0.33894 0.76004 0.38013
 N1081 N 0.10898 0.13001 0.26864
 C1082 C 0.11095 0.10227 0.25146
 N1083 N 0.13764 0.09720 0.23328
 N1084 N 0.16123 0.11889 0.23243
 C1085 C 0.15881 0.14672 0.24935
 N1086 N 0.13224 0.15187 0.26740
 N1087 N 0.60883 0.63550 0.76038
 C1088 C 0.61383 0.60523 0.74923
 N1089 N 0.64287 0.59789 0.73622
 N1090 N 0.66602 0.62000 0.73466
 C1091 C 0.66081 0.65031 0.74573
 N1092 N 0.63178 0.65762 0.75852
 N1093 N 0.87259 0.10709 0.72876
 C1094 C 0.90003 0.11051 0.74616
 N1095 N 0.90328 0.13714 0.76483
 N1096 N 0.88022 0.15938 0.76581
 C1097 C 0.85275 0.15557 0.74868
 N1098 N 0.84931 0.12900 0.73020
 N1099 N 0.40164 0.63631 0.25763
 C1100 C 0.39686 0.60807 0.24204
 N1101 N 0.36815 0.60275 0.22752
 N1102 N 0.34494 0.62481 0.22876
 C1103 C 0.34981 0.65312 0.24422
 N1104 N 0.37863 0.65857 0.25842
 N1105 N 0.12708 0.89351 0.72588
 C1106 C 0.09973 0.89198 0.74360
 N1107 N 0.09418 0.86490 0.76109
 N1108 N 0.11517 0.84062 0.76095
 C1109 C 0.14270 0.84268 0.74362
 N1110 N 0.14824 0.86955 0.72613
 N1111 N 0.59332 0.36158 0.23740
 C1112 C 0.60025 0.39051 0.25091
 N1113 N 0.62993 0.39523 0.26347
 N1114 N 0.65192 0.37202 0.26246
 C1115 C 0.64499 0.34307 0.24915
 N1116 N 0.61522 0.33815 0.23679
 N1117 N 0.90149 0.86776 0.26803
 C1118 C 0.89480 0.89802 0.25769
 N1119 N 0.86469 0.90471 0.24710
 N1120 N 0.84212 0.88202 0.24707
 C1121 C 0.84892 0.85173 0.25725
 N1122 N 0.87905 0.84499 0.26763
 N1123 N 0.40028 0.37391 0.77148
 C1124 C 0.39418 0.40381 0.75988
 N1125 N 0.36439 0.41046 0.74838
 N1126 N 0.34155 0.38805 0.74868
 C1127 C 0.34781 0.35810 0.76012
 N1128 N 0.37759 0.35142 0.77144
 N1129 N 0.13220 0.23832 0.90605
 C1130 C 0.10485 0.25575 0.90184
 N1131 N 0.10148 0.27284 0.87421
 N1132 N 0.12416 0.27238 0.85174
 C1133 C 0.15147 0.25521 0.85615
 N1134 N 0.15521 0.23832 0.88379
 N1135 N 0.59941 0.76085 0.36786
 C1136 C 0.60556 0.75078 0.39825
 N1137 N 0.63552 0.73999 0.40544
 N1138 N 0.65850 0.73967 0.38313
 C1139 C 0.65221 0.74973 0.35274
 N1140 N 0.62222 0.76019 0.34552
 N1141 N 0.90561 0.76709 0.86200
 C1142 C 0.90021 0.74890 0.88863
 N1143 N 0.87284 0.73120 0.88992
 N1144 N 0.85161 0.73198 0.86612
 C1145 C 0.85702 0.75007 0.83965
 N1146 N 0.88453 0.76749 0.83784
 N1147 N 0.40645 0.24024 0.36344
 C1148 C 0.39817 0.25131 0.39303
 N1149 N 0.36767 0.26176 0.39786
 N1150 N 0.34621 0.26102 0.37424
 C1151 C 0.35443 0.25017 0.34467
 N1152 N 0.38500 0.23986 0.33961
 N1153 N 0.09662 0.76172 0.13597
 C1154 C 0.10278 0.75079 0.10590
 N1155 N 0.13304 0.74089 0.09867
 N1156 N 0.15627 0.74180 0.12062
 C1157 C 0.15001 0.75233 0.15077
 N1158 N 0.11977 0.76225 0.15807
 N1159 N 0.59854 0.24178 0.63901
 C1160 C 0.60458 0.25321 0.60910
 N1161 N 0.63466 0.26386 0.60222
 N1162 N 0.65779 0.26311 0.62430
 C1163 C 0.65165 0.25195 0.65425
 N1164 N 0.62159 0.24136 0.66120
 N1165 N 0.89549 0.25695 0.13781
 C1166 C 0.88983 0.24729 0.10720
 N1167 N 0.86020 0.23596 0.09957
 N1168 N 0.83707 0.23474 0.12168
 C1169 C 0.84286 0.24439 0.15230
 N1170 N 0.87253 0.25538 0.15996
 N1171 N 0.35955 0.73661 0.59715
 C1172 C 0.38912 0.74836 0.60440
 N1173 N 0.39476 0.75884 0.63475
 N1174 N 0.37188 0.75763 0.65700
 C1175 C 0.34228 0.74619 0.64973
 N1176 N 0.33648 0.73573 0.61937
 N1177 N 0.26735 0.10572 0.86942
 C1178 C 0.25530 0.11005 0.89937
 N1179 N 0.24239 0.13906 0.90712
 N1180 N 0.24171 0.16289 0.88572
 C1181 C 0.25347 0.15834 0.85567
 N1182 N 0.26628 0.12935 0.84794
 N1183 N 0.76358 0.59845 0.36493
 C1184 C 0.75243 0.60373 0.39509
 N1185 N 0.74063 0.63327 0.40257
 N1186 N 0.74026 0.65671 0.38076
 C1187 C 0.75119 0.65129 0.35054
 N1188 N 0.76281 0.62174 0.34302
 N1189 N 0.73782 0.09181 0.13508
 C1190 C 0.74902 0.09908 0.10536
 N1191 N 0.75878 0.12962 0.09929
 N1192 N 0.75736 0.15208 0.12198
 C1193 C 0.74643 0.14478 0.15173
 N1194 N 0.73675 0.11423 0.15794
 N1195 N 0.23870 0.59244 0.63549
 C1196 C 0.24919 0.59985 0.60552
 N1197 N 0.25888 0.63038 0.59941
 N1198 N 0.25798 0.65272 0.62223
 C1199 C 0.24770 0.64534 0.65219
 N1200 N 0.23815 0.61476 0.65850
 N1201 N 0.76778 0.86246 0.89570
 C1202 C 0.75641 0.89255 0.88992
 N1203 N 0.74549 0.89968 0.86004
 N1204 N 0.74618 0.87762 0.83683
 C1205 C 0.75744 0.84752 0.84273
 N1206 N 0.76813 0.84032 0.87262
 N1207 N 0.24263 0.39792 0.36167
 C1208 C 0.25319 0.39125 0.39178
 N1209 N 0.26388 0.36107 0.39832
 N1210 N 0.26400 0.33841 0.37573
 C1211 C 0.25372 0.34517 0.34559
 N1212 N 0.24309 0.37534 0.33896
 N1213 N 0.26048 0.86473 0.09836
 C1214 C 0.24442 0.89282 0.10250
 N1215 N 0.22921 0.89828 0.13083
 N1216 N 0.23017 0.87646 0.15424
 C1217 C 0.24609 0.84827 0.14997
 N1218 N 0.26101 0.84272 0.12154
 N1219 N 0.76188 0.36635 0.60276
 C1220 C 0.74593 0.39450 0.60703
 N1221 N 0.73091 0.39994 0.63548
 N1222 N 0.73195 0.37805 0.65884
 C1223 C 0.74773 0.34981 0.65442
 N1224 N 0.76249 0.34430 0.62590
 N1225 N 0.10036 0.14165 0.74717
 C1226 C 0.10748 0.11147 0.75739
 N1227 N 0.13761 0.10528 0.76828
 N1228 N 0.15983 0.12825 0.76878
 C1229 C 0.15266 0.15844 0.75875
 N1230 N 0.12250 0.16476 0.74802
 N1231 N 0.60008 0.63598 0.26141
 C1232 C 0.60663 0.60686 0.24815
 N1233 N 0.63674 0.60109 0.23700
 N1234 N 0.65945 0.62353 0.23908
 C1235 C 0.65283 0.65270 0.25211
 N1236 N 0.62269 0.65858 0.26311
 N1237 N 0.10190 0.86880 0.23107
 C1238 C 0.10604 0.89665 0.24770
 N1239 N 0.13347 0.90039 0.26501
 N1240 N 0.15585 0.87746 0.26532
 C1241 C 0.15137 0.84963 0.24890
 N1242 N 0.12398 0.84566 0.23183
 N1243 N 0.59940 0.36646 0.74031
 C1244 C 0.60645 0.39664 0.75066
 N1245 N 0.63640 0.40269 0.76197
 N1246 N 0.65852 0.37954 0.76254
 C1247 C 0.65142 0.34938 0.75223
 N1248 N 0.62142 0.34321 0.74120
 N1249 N 0.89583 0.13179 0.23656
 C1250 C 0.89101 0.10153 0.24774
 N1251 N 0.86146 0.09354 0.25905
 N1252 N 0.83764 0.11504 0.25899
 C1253 C 0.84267 0.14536 0.24797
 N1254 N 0.87220 0.15332 0.23686
 N1255 N 0.39844 0.63658 0.73751
 C1256 C 0.39376 0.60636 0.74887
 N1257 N 0.36421 0.59826 0.76006
 N1258 N 0.34025 0.61958 0.75970
 C1259 C 0.34510 0.64986 0.74847
 N1260 N 0.37465 0.65796 0.73749
 N1261 N 0.90669 0.86857 0.73462
 C1262 C 0.89954 0.89806 0.74664
 N1263 N 0.86926 0.90380 0.75731
 N1264 N 0.84693 0.88098 0.75602
 C1265 C 0.85415 0.85144 0.74428
 N1266 N 0.88444 0.84560 0.73365
 N1267 N 0.40356 0.36621 0.23546
 C1268 C 0.39795 0.39423 0.25122
 N1269 N 0.36937 0.39838 0.26635
 N1270 N 0.34709 0.37544 0.26552
 C1271 C 0.35277 0.34736 0.24989
 N1272 N 0.38148 0.34306 0.23506
   
