data_POSCAR
  _audit_creation_date              2014-09-24
  _audit_creation_method            'ToBaCCo'
  _symmetry_space_group_name_H-M    'P1'
  _symmetry_Int_Tables_number       1
  _symmetry_cell_setting            triclinic
  loop_
  _symmetry_equiv_pos_as_xyz
 x,y,z
_cell_length_a 43.7789
_cell_length_b 43.7726
_cell_length_c 43.8341
_cell_angle_alpha 90.008900
_cell_angle_beta 90.036000
_cell_angle_gamma 89.993200
loop_
  _atom_site_label
  _atom_site_type_symbol
  _atom_site_fract_x
  _atom_site_fract_y
  _atom_site_fract_z
C1 C 0.26483 1.06456 0.02658
 C2 C 0.26700 1.07978 -0.00152
 C3 C 0.26560 1.06440 -0.02961
 C4 C 0.26422 1.03192 -0.02953
 C5 C 0.26216 1.01583 -0.00145
 C6 C 0.26283 1.03210 0.02666
 C7 C 0.26437 1.01525 0.05398
 C8 C 0.26276 0.98360 0.05399
 C9 C 0.26052 0.96713 0.02663
 C10 C 0.26093 0.98322 -0.00144
 C11 C 0.26805 1.01495 -0.05652
 C12 C 0.26681 0.98326 -0.05647
 C13 C 0.26159 0.96677 -0.02945
 C14 C 0.26018 0.93419 -0.02927
 C15 C 0.25985 0.91903 -0.00098
 C16 C 0.25972 0.93488 0.02667
 H17 H 0.26799 1.02617 0.07578
 H18 H 0.26431 0.97215 0.07580
 H19 H 0.27338 1.02591 -0.07796
 H20 H 0.27132 0.97190 -0.07788
 H21 H 0.26681 1.10456 -0.00152
 H22 H 0.25819 0.89431 -0.00025
 C23 C 0.75474 0.43324 0.52671
 C24 C 0.75486 0.41774 0.49880
 C25 C 0.75498 0.43349 0.47102
 C26 C 0.75534 0.46583 0.47097
 C27 C 0.75549 0.48189 0.49910
 C28 C 0.75543 0.46556 0.52706
 C29 C 0.75704 0.48193 0.55461
 C30 C 0.75796 0.51368 0.55478
 C31 C 0.75722 0.53038 0.52741
 C32 C 0.75628 0.51436 0.49928
 C33 C 0.75652 0.48252 0.44359
 C34 C 0.75711 0.51431 0.44376
 C35 C 0.75667 0.53071 0.47133
 C36 C 0.75759 0.56304 0.47174
 C37 C 0.75869 0.57845 0.49967
 C38 C 0.75833 0.56269 0.52739
 H39 H 0.75811 0.47037 0.57639
 H40 H 0.75968 0.52495 0.57667
 H41 H 0.75741 0.47119 0.42168
 H42 H 0.75842 0.52586 0.42199
 H43 H 0.75436 0.39296 0.49870
 H44 H 0.75925 0.60323 0.49984
 C45 C 0.73944 0.97094 1.06328
 C46 C 0.73724 0.99862 1.07896
 C47 C 0.73675 1.02687 1.06370
 C48 C 0.73662 1.02691 1.03118
 C49 C 0.73951 0.99894 1.01495
 C50 C 0.74086 0.97088 1.03109
 C51 C 0.74231 0.94340 1.01461
 C52 C 0.74277 0.94338 0.98293
 C53 C 0.74178 0.97086 0.96637
 C54 C 0.73993 0.99893 0.98243
 C55 C 0.73071 1.05366 1.01441
 C56 C 0.73100 1.05363 0.98273
 C57 C 0.73732 1.02687 0.96610
 C58 C 0.73817 1.02680 0.93357
 C59 C 0.73924 0.99851 0.91836
 C60 C 0.74128 0.97086 0.93416
 H61 H 0.74251 0.92149 1.02602
 H62 H 0.74329 0.92145 0.97158
 H63 H 0.72459 1.07482 1.02556
 H64 H 0.72502 1.07477 0.97147
 H65 H 0.73765 0.99797 1.10369
 H66 H 0.74019 0.99783 0.89365
 C67 C 0.24320 0.52738 0.56334
 C68 C 0.24242 0.49948 0.57884
 C69 C 0.24273 0.47163 0.56319
 C70 C 0.24350 0.47149 0.53090
 C71 C 0.24408 0.49962 0.51481
 C72 C 0.24369 0.52766 0.53106
 C73 C 0.24284 0.55521 0.51463
 C74 C 0.24307 0.55531 0.48291
 C75 C 0.24430 0.52786 0.46630
 C76 C 0.24448 0.49972 0.48237
 C77 C 0.24275 0.44404 0.51427
 C78 C 0.24328 0.44414 0.48253
 C79 C 0.24450 0.47169 0.46609
 C80 C 0.24475 0.47201 0.43378
 C81 C 0.24438 0.49997 0.41830
 C82 C 0.24437 0.52779 0.43401
 H83 H 0.24146 0.57705 0.52610
 H84 H 0.24187 0.57723 0.47159
 H85 H 0.24133 0.42214 0.52561
 H86 H 0.24222 0.42230 0.47102
 H87 H 0.24212 0.49943 0.60359
 H88 H 0.24463 0.50009 0.39355
 C89 C 0.93323 0.24411 0.02801
 C90 C 0.91733 0.24457 0.00042
 C91 C 0.93237 0.24714 -0.02776
 C92 C 0.96495 0.24847 -0.02804
 C93 C 0.98146 0.24748 -0.00006
 C94 C 0.96546 0.24514 0.02798
 C95 C 0.98207 0.24353 0.05530
 C96 C 1.01377 0.24432 0.05527
 C97 C 1.03038 0.24809 0.02803
 C98 C 1.01407 0.24841 -0.00009
 C99 C 0.98164 0.24902 -0.05543
 C100 C 1.01327 0.25074 -0.05548
 C101 C 1.03019 0.24937 -0.02823
 C102 C 1.06267 0.25023 -0.02824
 C103 C 1.07811 0.25069 -0.00022
 C104 C 1.06287 0.24961 0.02790
 H105 H 0.97072 0.24118 0.07709
 H106 H 1.02495 0.24126 0.07701
 H107 H 0.97068 0.24773 -0.07744
 H108 H 1.02410 0.25332 -0.07744
 H109 H 0.89255 0.24426 0.00114
 H110 H 1.10288 0.25172 -0.00032
 C111 C 0.56375 0.74808 0.47342
 C112 C 0.57943 0.74665 0.50116
 C113 C 0.56401 0.74771 0.52907
 C114 C 0.53173 0.74946 0.52944
 C115 C 0.51542 0.75046 0.50147
 C116 C 0.53148 0.74994 0.47335
 C117 C 0.51485 0.75083 0.44594
 C118 C 0.48314 0.75270 0.44607
 C119 C 0.46671 0.75295 0.47362
 C120 C 0.48298 0.75188 0.50160
 C121 C 0.51531 0.74978 0.55699
 C122 C 0.48357 0.75150 0.55712
 C123 C 0.46690 0.75230 0.52970
 C124 C 0.43460 0.75397 0.52960
 C125 C 0.41894 0.75556 0.50181
 C126 C 0.43444 0.75469 0.47393
 H127 H 0.52615 0.75004 0.42402
 H128 H 0.47169 0.75400 0.42424
 H129 H 0.52682 0.74860 0.57880
 H130 H 0.47226 0.75228 0.57904
 H131 H 0.60419 0.74550 0.50103
 H132 H 0.39418 0.75664 0.50186
 C133 C 0.02736 0.74821 0.06646
 C134 C -0.00015 0.74554 0.08239
 C135 C -0.02845 0.74327 0.06729
 C136 C -0.02861 0.74190 0.03478
 C137 C -0.00090 0.74561 0.01834
 C138 C 0.02709 0.74910 0.03426
 C139 C 0.05413 0.75359 0.01759
 C140 C 0.05399 0.75306 -0.01408
 C141 C 0.02681 0.74810 -0.03038
 C142 C -0.00104 0.74515 -0.01415
 C143 C -0.05515 0.73436 0.01827
 C144 C -0.05532 0.73404 -0.01344
 C145 C -0.02891 0.74109 -0.03029
 C146 C -0.02902 0.74158 -0.06281
 C147 C -0.00087 0.74327 -0.07816
 C148 C 0.02677 0.74625 -0.06252
 H149 H 0.07575 0.75760 0.02885
 H150 H 0.07552 0.75666 -0.02565
 H151 H -0.07599 0.72764 0.02966
 H152 H -0.07627 0.72716 -0.02455
 H153 H 0.00065 0.74642 0.10710
 H154 H -0.00026 0.74350 -0.10289
 C155 C 0.52596 0.25237 0.56525
 C156 C 0.49812 0.25426 0.58077
 C157 C 0.47024 0.25443 0.56511
 C158 C 0.47009 0.25372 0.53281
 C159 C 0.49815 0.25178 0.51675
 C160 C 0.52617 0.25095 0.53301
 C161 C 0.55369 0.24929 0.51659
 C162 C 0.55373 0.24809 0.48490
 C163 C 0.52630 0.24931 0.46828
 C164 C 0.49821 0.25101 0.48433
 C165 C 0.44270 0.25574 0.51615
 C166 C 0.44277 0.25502 0.48441
 C167 C 0.47021 0.25220 0.46802
 C168 C 0.47052 0.25129 0.43573
 C169 C 0.49842 0.24951 0.42029
 C170 C 0.52618 0.24866 0.43602
 H171 H 0.57558 0.24900 0.52803
 H172 H 0.57561 0.24627 0.47360
 H173 H 0.42091 0.25834 0.52746
 H174 H 0.42102 0.25702 0.47286
 H175 H 0.49814 0.25493 0.60551
 H176 H 0.49853 0.24893 0.39554
 C177 C 0.93660 -0.02698 0.23938
 C178 C 0.92135 0.00126 0.23938
 C179 C 0.93708 0.02897 0.24056
 C180 C 0.96932 0.02906 0.24150
 C181 C 0.98545 0.00097 0.24059
 C182 C 0.96915 -0.02705 0.23867
 C183 C 0.98580 -0.05396 0.23313
 C184 C 1.01751 -0.05393 0.23281
 C185 C 1.03428 -0.02704 0.23820
 C186 C 1.01799 0.00097 0.24046
 C187 C 0.98583 0.05657 0.24206
 C188 C 1.01756 0.05657 0.24205
 C189 C 1.03411 0.02906 0.24142
 C190 C 1.06636 0.02901 0.24043
 C191 C 1.08211 0.00130 0.23869
 C192 C 1.06684 -0.02697 0.23847
 H193 H 0.97451 -0.07526 0.22777
 H194 H 1.02866 -0.07522 0.22713
 H195 H 0.97440 0.07848 0.24196
 H196 H 1.02895 0.07850 0.24190
 H197 H 0.89659 0.00195 0.24019
 H198 H 1.10687 0.00195 0.23921
 C199 C 0.43576 0.47432 0.75028
 C200 C 0.42065 0.50243 0.75156
 C201 C 0.43674 0.53002 0.75230
 C202 C 0.46907 0.52964 0.75228
 C203 C 0.48475 0.50132 0.75044
 C204 C 0.46804 0.47358 0.74913
 C205 C 0.48401 0.44589 0.74610
 C206 C 0.51576 0.44532 0.74549
 C207 C 0.53284 0.47240 0.74797
 C208 C 0.51720 0.50072 0.74994
 C209 C 0.48613 0.55674 0.75467
 C210 C 0.51791 0.55615 0.75432
 C211 C 0.53392 0.52845 0.75143
 C212 C 0.56624 0.52765 0.75061
 C213 C 0.58132 0.49950 0.74908
 C214 C 0.56516 0.47195 0.74797
 H215 H 0.47213 0.42434 0.74386
 H216 H 0.52675 0.42335 0.74280
 H217 H 0.47508 0.57870 0.75718
 H218 H 0.52977 0.57770 0.75659
 H219 H 0.39587 0.50283 0.75198
 H220 H 0.60610 0.49902 0.74878
 C221 C 1.02813 0.93622 0.75687
 C222 C 0.99991 0.92145 0.76067
 C223 C 0.97237 0.93750 0.76110
 C224 C 0.97267 0.96971 0.75958
 C225 C 1.00075 0.98545 0.75600
 C226 C 1.02860 0.96875 0.75457
 C227 C 1.05610 0.98524 0.75277
 C228 C 1.05628 1.01687 0.75059
 C229 C 1.02916 1.03399 0.75261
 C230 C 1.00096 1.01804 0.75449
 C231 C 0.94566 0.98659 0.76296
 C232 C 0.94584 1.01823 0.76124
 C233 C 0.97294 1.03450 0.75532
 C234 C 0.97307 1.06690 0.75244
 C235 C 1.00129 1.08207 0.75084
 C236 C 1.02934 1.06651 0.75161
 H237 H 1.07809 0.97414 0.75350
 H238 H 1.07822 1.02757 0.74713
 H239 H 0.92408 0.97551 0.76769
 H240 H 0.92443 1.02970 0.76551
 H241 H 0.99906 0.89667 0.76133
 H242 H 1.00145 1.10680 0.74925
 C243 C 0.47393 0.56693 0.25477
 C244 C 0.50188 0.58236 0.25583
 C245 C 0.52966 0.56655 0.25585
 C246 C 0.52966 0.53422 0.25518
 C247 C 0.50147 0.51823 0.25434
 C248 C 0.47351 0.53461 0.25439
 C249 C 0.44588 0.51826 0.25502
 C250 C 0.44565 0.48651 0.25485
 C251 C 0.47303 0.46978 0.25394
 C252 C 0.50123 0.48576 0.25401
 C253 C 0.55703 0.51744 0.25627
 C254 C 0.55679 0.48566 0.25579
 C255 C 0.52918 0.46935 0.25431
 C256 C 0.52871 0.43702 0.25410
 C257 C 0.50072 0.42162 0.25419
 C258 C 0.47299 0.43746 0.25392
 H259 H 0.42408 0.52983 0.25616
 H260 H 0.42368 0.47524 0.25584
 H261 H 0.57896 0.52869 0.25792
 H262 H 0.57856 0.47404 0.25708
 H263 H 0.50202 0.60715 0.25609
 H264 H 0.50051 0.39684 0.25395
 O265 O 0.25299 0.17296 0.20277
 O266 O 0.28936 0.16701 0.24554
 O267 O 0.17326 0.20815 0.24661
 O268 O 0.16165 0.24750 0.27765
 O269 O 0.20963 0.25307 0.16687
 O270 O 0.25218 0.28692 0.15894
 O271 O 0.25185 0.29356 0.32549
 O272 O 0.21625 0.25258 0.33286
 O273 O 0.33033 0.25189 0.28868
 O274 O 0.33686 0.21553 0.24194
 O275 O 0.29390 0.33046 0.24832
 O276 O 0.25005 0.33975 0.21283
 O277 O 0.25195 0.33029 0.28875
 O278 O 0.21806 0.34011 0.24556
 O279 O 0.33059 0.29362 0.24803
 O280 O 0.34241 0.25330 0.21544
 O281 O 0.29369 0.25288 0.32548
 O282 O 0.25241 0.21790 0.33503
 O283 O 0.25284 0.21026 0.16652
 O284 O 0.28589 0.25294 0.15828
 O285 O 0.17263 0.25168 0.20336
 O286 O 0.16500 0.28644 0.24593
 O287 O 0.21049 0.17167 0.24511
 O288 O 0.25003 0.16370 0.27968
 Zr289 Zr 0.25121 0.19693 0.24457
 O290 O 0.27918 0.22304 0.27374
 Zr291 Zr 0.19699 0.25015 0.24483
 O292 O 0.22293 0.27869 0.27380
 Zr293 Zr 0.25087 0.25125 0.19143
 O294 O 0.27927 0.27941 0.21799
 Zr295 Zr 0.25239 0.25221 0.30085
 O296 O 0.22400 0.22336 0.27429
 Zr297 Zr 0.30609 0.25248 0.24724
 O298 O 0.28046 0.22410 0.21776
 Zr299 Zr 0.25235 0.30605 0.24741
 O300 O 0.22359 0.28021 0.21829
 O301 O 0.22274 0.22242 0.21635
 O302 O 0.28098 0.28097 0.27600
 C303 C 0.25382 0.18221 0.17497
 C304 C 0.18247 0.18022 0.24635
 C305 C 0.18164 0.25313 0.17552
 C306 C 0.25171 0.32152 0.31665
 C307 C 0.32161 0.25242 0.31660
 C308 C 0.32184 0.32155 0.24850
 H309 H 0.29190 0.20916 0.28616
 H310 H 0.29202 0.29211 0.20438
 H311 H 0.20982 0.20940 0.20314
 H312 H 0.20905 0.29106 0.28659
 H313 H 0.20139 0.23687 0.32617
 H314 H 0.16774 0.26030 0.29523
 H315 H 0.33517 0.26468 0.19735
 H316 H 0.30205 0.23872 0.16523
 H317 H 0.26705 0.20183 0.32896
 H318 H 0.23666 0.17187 0.29595
 H319 H 0.26729 0.33631 0.19866
 H320 H 0.23780 0.30280 0.16619
 H321 H 0.28257 0.14628 0.23934
 H322 H 0.33675 0.20359 0.26110
 H323 H 0.17163 0.30155 0.23049
 H324 H 0.20235 0.33487 0.26089
 O325 O 0.74982 0.83129 0.21007
 O326 O 0.71368 0.83740 0.25273
 O327 O 0.82968 0.79587 0.25329
 O328 O 0.84112 0.75673 0.28473
 O329 O 0.79330 0.75116 0.17370
 O330 O 0.75051 0.71744 0.16587
 O331 O 0.75120 0.71119 0.33247
 O332 O 0.78685 0.75194 0.33977
 O333 O 0.67256 0.75219 0.29602
 O334 O 0.66616 0.78910 0.24926
 O335 O 0.70871 0.67391 0.25522
 O336 O 0.75230 0.66423 0.22021
 O337 O 0.75064 0.67409 0.29609
 O338 O 0.78476 0.66433 0.25250
 O339 O 0.67209 0.71082 0.25485
 O340 O 0.66024 0.75122 0.22270
 O341 O 0.70961 0.75147 0.33246
 O342 O 0.75073 0.78665 0.34192
 O343 O 0.74997 0.79433 0.17346
 O344 O 0.71680 0.75154 0.16525
 O345 O 0.82999 0.75220 0.21055
 O346 O 0.83773 0.71769 0.25302
 O347 O 0.79254 0.83245 0.25196
 O348 O 0.75312 0.84053 0.28682
 Zr349 Zr 0.75172 0.80733 0.25167
 O350 O 0.72371 0.78136 0.28081
 Zr351 Zr 0.80577 0.75401 0.25188
 O352 O 0.77989 0.72555 0.28084
 Zr353 Zr 0.75193 0.75314 0.19833
 O354 O 0.72351 0.72503 0.22504
 Zr355 Zr 0.75066 0.75228 0.30778
 O356 O 0.77904 0.78100 0.28130
 Zr357 Zr 0.69669 0.75192 0.25439
 O358 O 0.72239 0.78023 0.22484
 Zr359 Zr 0.75033 0.69822 0.25452
 O360 O 0.77905 0.72404 0.22531
 O361 O 0.78010 0.78182 0.22338
 O362 O 0.72189 0.72347 0.28311
 C363 C 0.74898 0.82232 0.18221
 C364 C 0.82054 0.82382 0.25293
 C365 C 0.82125 0.75077 0.18266
 C366 C 0.75109 0.68318 0.32392
 C367 C 0.68162 0.75167 0.32388
 C368 C 0.68077 0.68287 0.25524
 H369 H 0.71103 0.79525 0.29326
 H370 H 0.71070 0.71238 0.21143
 H371 H 0.79301 0.79477 0.21011
 H372 H 0.79378 0.71319 0.29364
 H373 H 0.80170 0.76765 0.33311
 H374 H 0.83513 0.74381 0.30225
 H375 H 0.66760 0.74030 0.20438
 H376 H 0.70077 0.76591 0.17217
 H377 H 0.73598 0.80266 0.33593
 H378 H 0.76675 0.83244 0.30294
 H379 H 0.73562 0.66826 0.20552
 H380 H 0.76482 0.70152 0.17317
 H381 H 0.72053 0.85814 0.24664
 H382 H 0.66581 0.80054 0.26873
 H383 H 0.83090 0.70242 0.23781
 H384 H 0.80008 0.66910 0.26839
 O385 O 0.74895 0.16940 0.79121
 O386 O 0.71531 0.16100 0.74841
 O387 O 0.82844 0.20755 0.74860
 O388 O 0.84065 0.24773 0.72046
 O389 O 0.78966 0.24959 0.82943
 O390 O 0.74727 0.28175 0.83796
 O391 O 0.74840 0.29025 0.67008
 O392 O 0.78342 0.25054 0.66183
 O393 O 0.67003 0.24952 0.70723
 O394 O 0.66061 0.21521 0.74606
 O395 O 0.70681 0.32760 0.74769
 O396 O 0.74889 0.33848 0.78129
 O397 O 0.74821 0.32735 0.70646
 O398 O 0.78358 0.33596 0.75141
 O399 O 0.66993 0.29095 0.74790
 O400 O 0.66192 0.24633 0.78387
 O401 O 0.70666 0.24991 0.67039
 O402 O 0.74922 0.21402 0.66168
 O403 O 0.74744 0.20580 0.82832
 O404 O 0.71278 0.24869 0.83585
 O405 O 0.82722 0.24995 0.79353
 O406 O 0.83403 0.28619 0.75015
 O407 O 0.79254 0.16980 0.74956
 O408 O 0.75229 0.16312 0.71279
 Zr409 Zr 0.75083 0.19398 0.75006
 O410 O 0.72178 0.22007 0.72199
 Zr411 Zr 0.80365 0.24855 0.75143
 O412 O 0.77756 0.27617 0.72182
 Zr413 Zr 0.74908 0.24744 0.80406
 O414 O 0.72124 0.27634 0.77759
 Zr415 Zr 0.74824 0.24934 0.69484
 O416 O 0.77771 0.22146 0.72121
 Zr417 Zr 0.69452 0.24947 0.74830
 O418 O 0.72042 0.22017 0.77681
 Zr419 Zr 0.74809 0.30326 0.74821
 O420 O 0.77620 0.27754 0.77808
 O421 O 0.77830 0.21966 0.77909
 O422 O 0.71956 0.27807 0.71964
 C423 C 0.74732 0.17791 0.81916
 C424 C 0.82028 0.17938 0.74839
 C425 C 0.81774 0.25059 0.82127
 C426 C 0.74841 0.31824 0.67860
 C427 C 0.67871 0.24982 0.67933
 C428 C 0.67887 0.31890 0.74764
 H429 H 0.70882 0.20617 0.70979
 H430 H 0.70858 0.28903 0.79129
 H431 H 0.79135 0.20670 0.79223
 H432 H 0.79138 0.28855 0.70896
 H433 H 0.79949 0.23626 0.66887
 H434 H 0.83328 0.25683 0.70117
 H435 H 0.66422 0.26450 0.79708
 H436 H 0.69784 0.23303 0.82931
 H437 H 0.73239 0.19962 0.66604
 H438 H 0.76818 0.17053 0.69854
 H439 H 0.73481 0.33252 0.79788
 H440 H 0.76019 0.29876 0.83056
 H441 H 0.72396 0.14058 0.75322
 H442 H 0.67017 0.19636 0.75404
 H443 H 0.82851 0.29977 0.76735
 H444 H 0.79712 0.33329 0.73355
 O445 O 0.24715 0.82748 0.79289
 O446 O 0.28330 0.83369 0.75005
 O447 O 0.16809 0.79017 0.74869
 O448 O 0.15675 0.75032 0.71884
 O449 O 0.20503 0.74744 0.82953
 O450 O 0.24802 0.71376 0.83751
 O451 O 0.24779 0.70588 0.67110
 O452 O 0.21135 0.74632 0.66357
 O453 O 0.32573 0.74890 0.70717
 O454 O 0.33196 0.78552 0.75370
 O455 O 0.29016 0.67013 0.74909
 O456 O 0.24682 0.66019 0.78379
 O457 O 0.24862 0.66944 0.70811
 O458 O 0.21441 0.65973 0.75159
 O459 O 0.32668 0.70713 0.74871
 O460 O 0.33793 0.74824 0.78067
 O461 O 0.28872 0.74738 0.67073
 O462 O 0.24720 0.78124 0.66081
 O463 O 0.24785 0.79042 0.82938
 O464 O 0.28140 0.74828 0.83794
 O465 O 0.16830 0.74770 0.79271
 O466 O 0.16124 0.71193 0.75061
 O467 O 0.20427 0.82767 0.75037
 O468 O 0.24398 0.83601 0.71580
 Zr469 Zr 0.24566 0.80314 0.75123
 O470 O 0.27404 0.77712 0.72230
 Zr471 Zr 0.19250 0.74886 0.75132
 O472 O 0.21870 0.72057 0.72256
 Zr473 Zr 0.24629 0.74924 0.80482
 O474 O 0.27507 0.72129 0.77843
 Zr475 Zr 0.24766 0.74737 0.69543
 O476 O 0.21890 0.77599 0.72171
 Zr477 Zr 0.30160 0.74817 0.74882
 O478 O 0.27546 0.77649 0.77810
 Zr479 Zr 0.24848 0.69398 0.74928
 O480 O 0.21945 0.71956 0.77827
 O481 O 0.21769 0.77738 0.77959
 O482 O 0.27674 0.71913 0.72038
 C483 C 0.24831 0.81842 0.82076
 C484 C 0.17647 0.81830 0.74887
 C485 C 0.17708 0.74692 0.82062
 C486 C 0.24818 0.67799 0.68016
 C487 C 0.31669 0.74833 0.67930
 C488 C 0.31803 0.67912 0.74893
 H489 H 0.28650 0.79110 0.70973
 H490 H 0.28798 0.70889 0.79218
 H491 H 0.20458 0.79038 0.79263
 H492 H 0.20499 0.70790 0.70986
 H493 H 0.19638 0.76199 0.67011
 H494 H 0.16321 0.73797 0.70108
 H495 H 0.33086 0.73692 0.79886
 H496 H 0.29740 0.76257 0.83079
 H497 H 0.26093 0.79800 0.66715
 H498 H 0.23042 0.82766 0.69975
 H499 H 0.26308 0.66482 0.79877
 H500 H 0.23342 0.69792 0.83063
 H501 H 0.27615 0.85435 0.75604
 H502 H 0.33123 0.79757 0.73463
 H503 H 0.16788 0.69734 0.76654
 H504 H 0.19908 0.66414 0.73561
 O505 O 0.24751 0.33145 0.71007
 O506 O 0.21104 0.33671 0.75265
 O507 O 0.32747 0.29649 0.75339
 O508 O 0.33960 0.25685 0.78381
 O509 O 0.29155 0.25247 0.67293
 O510 O 0.24934 0.21797 0.66490
 O511 O 0.25038 0.21027 0.83141
 O512 O 0.28528 0.25145 0.83906
 O513 O 0.17095 0.25080 0.79537
 O514 O 0.16413 0.28795 0.74892
 O515 O 0.20786 0.17318 0.75405
 O516 O 0.25138 0.16420 0.71881
 O517 O 0.25024 0.17344 0.79476
 O518 O 0.28407 0.16446 0.75083
 O519 O 0.17090 0.20976 0.75394
 O520 O 0.15861 0.25021 0.72208
 O521 O 0.20805 0.24991 0.83175
 O522 O 0.24880 0.28560 0.84151
 O523 O 0.24783 0.29480 0.67315
 O524 O 0.21503 0.25165 0.66465
 O525 O 0.32830 0.25367 0.70971
 O526 O 0.33640 0.21834 0.75168
 O527 O 0.28998 0.33271 0.75227
 O528 O 0.25033 0.34002 0.78692
 Zr529 Zr 0.24945 0.30712 0.75147
 O530 O 0.22179 0.28058 0.78042
 Zr531 Zr 0.30410 0.25436 0.75112
 O532 O 0.27857 0.22538 0.77985
 Zr533 Zr 0.25022 0.25342 0.69766
 O534 O 0.22215 0.22474 0.72415
 Zr535 Zr 0.24908 0.25153 0.80707
 O536 O 0.27710 0.28079 0.78081
 Zr537 Zr 0.19508 0.25108 0.75375
 O538 O 0.22040 0.27994 0.72442
 Zr539 Zr 0.24926 0.19793 0.75337
 O540 O 0.27768 0.22433 0.72433
 O541 O 0.27809 0.28219 0.72296
 O542 O 0.22059 0.22262 0.78221
 C543 C 0.24676 0.32272 0.68212
 C544 C 0.31806 0.32434 0.75340
 C545 C 0.31952 0.25261 0.68181
 C546 C 0.25078 0.18233 0.82266
 C547 C 0.18005 0.25005 0.82320
 C548 C 0.17984 0.18189 0.75414
 H549 H 0.20896 0.29421 0.79300
 H550 H 0.20945 0.21207 0.71045
 H551 H 0.29087 0.29549 0.70991
 H552 H 0.29265 0.21308 0.79250
 H553 H 0.30002 0.26727 0.83239
 H554 H 0.33364 0.24393 0.80133
 H555 H 0.16609 0.23957 0.70365
 H556 H 0.19892 0.26590 0.67163
 H557 H 0.23355 0.30128 0.83591
 H558 H 0.26382 0.33185 0.80310
 H559 H 0.23476 0.16835 0.70408
 H560 H 0.26391 0.20222 0.67206
 H561 H 0.21766 0.35757 0.74674
 H562 H 0.16373 0.29929 0.76845
 H563 H 0.32988 0.20338 0.73603
 H564 H 0.29955 0.16944 0.76651
 O565 O 0.75501 0.67053 0.70546
 O566 O 0.79128 0.66481 0.74834
 O567 O 0.67501 0.70543 0.74898
 O568 O 0.66256 0.74509 0.77896
 O569 O 0.71203 0.75012 0.66888
 O570 O 0.75433 0.78444 0.66148
 O571 O 0.75246 0.79130 0.82797
 O572 O 0.71684 0.75030 0.83507
 O573 O 0.83131 0.74943 0.79204
 O574 O 0.83866 0.71378 0.74505
 O575 O 0.79482 0.82835 0.75164
 O576 O 0.75163 0.83739 0.71531
 O577 O 0.75233 0.82795 0.79115
 O578 O 0.71892 0.83739 0.74739
 O579 O 0.83176 0.79177 0.75195
 O580 O 0.84424 0.75183 0.71902
 O581 O 0.79434 0.75043 0.82850
 O582 O 0.75291 0.71558 0.83758
 O583 O 0.75534 0.70778 0.66915
 O584 O 0.78840 0.75059 0.66128
 O585 O 0.67466 0.74842 0.70498
 O586 O 0.66644 0.78375 0.74732
 O587 O 0.71237 0.66910 0.74771
 O588 O 0.75188 0.66137 0.78235
 Zr589 Zr 0.75299 0.69456 0.74720
 O590 O 0.78051 0.72085 0.77659
 Zr591 Zr 0.69851 0.74751 0.74679
 O592 O 0.72397 0.77618 0.77602
 Zr593 Zr 0.75296 0.74878 0.69397
 O594 O 0.78090 0.77718 0.72079
 Zr595 Zr 0.75330 0.74991 0.80342
 O596 O 0.72534 0.72090 0.77659
 Zr597 Zr 0.80755 0.75044 0.75037
 O598 O 0.78240 0.72183 0.72067
 Zr599 Zr 0.75349 0.80367 0.74989
 O600 O 0.72521 0.77764 0.72046
 O601 O 0.72468 0.71984 0.71867
 O602 O 0.78196 0.77879 0.77883
 C603 C 0.75607 0.67974 0.67765
 C604 C 0.68432 0.67754 0.74900
 C605 C 0.68394 0.74981 0.67723
 C606 C 0.75206 0.81924 0.81905
 C607 C 0.82233 0.74974 0.81987
 C608 C 0.82281 0.81964 0.75246
 H609 H 0.79313 0.70698 0.78912
 H610 H 0.79375 0.78997 0.70737
 H611 H 0.71193 0.70666 0.70546
 H612 H 0.70988 0.78849 0.78865
 H613 H 0.70201 0.73466 0.82819
 H614 H 0.66856 0.75760 0.79677
 H615 H 0.83708 0.76311 0.70083
 H616 H 0.80453 0.73646 0.66847
 H617 H 0.76778 0.69962 0.83177
 H618 H 0.73828 0.66941 0.79849
 H619 H 0.76909 0.83403 0.70139
 H620 H 0.73982 0.80024 0.66861
 H621 H 0.78461 0.64405 0.74213
 H622 H 0.83803 0.70138 0.76391
 H623 H 0.67294 0.79856 0.73155
 H624 H 0.70309 0.83214 0.76260
 O625 O 0.24988 0.67201 0.29218
 O626 O 0.21620 0.66376 0.24929
 O627 O 0.32976 0.70930 0.24997
 O628 O 0.34222 0.74902 0.22113
 O629 O 0.29117 0.75202 0.33017
 O630 O 0.24898 0.78459 0.33845
 O631 O 0.25057 0.79239 0.17054
 O632 O 0.28535 0.75236 0.16256
 O633 O 0.17182 0.75225 0.20768
 O634 O 0.16201 0.71834 0.24673
 O635 O 0.20913 0.83033 0.24773
 O636 O 0.25115 0.84102 0.28157
 O637 O 0.25072 0.82963 0.20678
 O638 O 0.28594 0.83812 0.25185
 O639 O 0.17195 0.79399 0.24793
 O640 O 0.16348 0.74974 0.28431
 O641 O 0.20853 0.75222 0.17091
 O642 O 0.25083 0.71613 0.16241
 O643 O 0.24869 0.70856 0.32915
 O644 O 0.21422 0.75173 0.33641
 O645 O 0.32877 0.75197 0.29429
 O646 O 0.33605 0.78784 0.25081
 O647 O 0.29351 0.67189 0.25091
 O648 O 0.25344 0.66535 0.21384
 Zr649 Zr 0.25202 0.69641 0.25094
 O650 O 0.22328 0.72261 0.22268
 Zr651 Zr 0.30529 0.75052 0.25217
 O652 O 0.27952 0.77826 0.22241
 Zr653 Zr 0.25059 0.75011 0.30473
 O654 O 0.22305 0.77913 0.27804
 Zr655 Zr 0.25005 0.75155 0.19546
 O656 O 0.27920 0.72351 0.22201
 Zr657 Zr 0.19620 0.75233 0.24880
 O658 O 0.22177 0.72295 0.27752
 Zr659 Zr 0.25020 0.80569 0.24862
 O660 O 0.27803 0.77985 0.27865
 O661 O 0.27961 0.72201 0.27991
 O662 O 0.22155 0.78061 0.22008
 C663 C 0.24842 0.68063 0.32009
 C664 C 0.32134 0.68121 0.24999
 C665 C 0.31927 0.75278 0.32201
 C666 C 0.25087 0.82042 0.17896
 C667 C 0.18057 0.75230 0.17979
 C668 C 0.18112 0.82186 0.24748
 H669 H 0.21025 0.70875 0.21051
 H670 H 0.21044 0.79198 0.29163
 H671 H 0.29251 0.70903 0.29318
 H672 H 0.29347 0.79048 0.20955
 H673 H 0.30126 0.73795 0.16969
 H674 H 0.33509 0.75855 0.20195
 H675 H 0.16585 0.76803 0.29736
 H676 H 0.19919 0.73615 0.32988
 H677 H 0.23407 0.70170 0.16697
 H678 H 0.26951 0.67253 0.19967
 H679 H 0.23689 0.83529 0.29809
 H680 H 0.26205 0.80147 0.33099
 H681 H 0.22464 0.64329 0.25424
 H682 H 0.17138 0.69948 0.25493
 H683 H 0.33055 0.80161 0.26787
 H684 H 0.29956 0.83523 0.23408
 O685 O 0.74840 0.32591 0.29244
 O686 O 0.78465 0.33158 0.24950
 O687 O 0.66870 0.29004 0.24883
 O688 O 0.65673 0.25059 0.21848
 O689 O 0.70521 0.24623 0.32909
 O690 O 0.74791 0.21211 0.33686
 O691 O 0.74646 0.20460 0.17043
 O692 O 0.71085 0.24580 0.16315
 O693 O 0.82547 0.24591 0.20629
 O694 O 0.83239 0.28288 0.25261
 O695 O 0.78893 0.16811 0.24772
 O696 O 0.74574 0.15873 0.28311
 O697 O 0.74698 0.16810 0.20740
 O698 O 0.71304 0.15877 0.25114
 O699 O 0.82596 0.20461 0.24753
 O700 O 0.83788 0.24549 0.27980
 O701 O 0.78829 0.24490 0.17000
 O702 O 0.74746 0.27996 0.16027
 O703 O 0.74856 0.28881 0.32891
 O704 O 0.78167 0.24625 0.33726
 O705 O 0.66838 0.24721 0.29239
 O706 O 0.66051 0.21196 0.25019
 O707 O 0.70552 0.32692 0.25023
 O708 O 0.74514 0.33471 0.21544
 Zr709 Zr 0.74648 0.30170 0.25076
 O710 O 0.77432 0.27532 0.22162
 Zr711 Zr 0.69246 0.24830 0.25095
 O712 O 0.71808 0.21963 0.22207
 Zr713 Zr 0.74646 0.24768 0.30427
 O714 O 0.77473 0.21936 0.27770
 Zr715 Zr 0.74732 0.24604 0.19484
 O716 O 0.71915 0.27507 0.22130
 Zr717 Zr 0.80149 0.24594 0.24803
 O718 O 0.77593 0.27456 0.27749
 Zr719 Zr 0.74757 0.19254 0.24862
 O720 O 0.71905 0.21851 0.27774
 O721 O 0.71821 0.27630 0.27919
 O722 O 0.77603 0.21735 0.21967
 C723 C 0.74937 0.31681 0.32031
 C724 C 0.67757 0.31803 0.24903
 C725 C 0.67723 0.24610 0.32026
 C726 C 0.74645 0.17671 0.17946
 C727 C 0.81632 0.24517 0.17847
 C728 C 0.81693 0.17674 0.24732
 H729 H 0.78698 0.28907 0.20901
 H730 H 0.78753 0.20672 0.29132
 H731 H 0.70534 0.28942 0.29234
 H732 H 0.70409 0.20720 0.20943
 H733 H 0.69627 0.26181 0.16974
 H734 H 0.66287 0.23805 0.20074
 H735 H 0.83079 0.23404 0.29790
 H736 H 0.79784 0.26030 0.33004
 H737 H 0.76172 0.29633 0.16647
 H738 H 0.73158 0.32650 0.19933
 H739 H 0.76248 0.16283 0.29771
 H740 H 0.73323 0.19638 0.32991
 H741 H 0.77789 0.35233 0.25561
 H742 H 0.83214 0.29457 0.23330
 H743 H 0.66704 0.19709 0.26591
 H744 H 0.69765 0.16344 0.23528
 C745 C 0.25960 0.12121 0.10493
 C746 C 0.28164 0.12669 0.08254
 C747 C 0.28352 0.10781 0.05694
 C748 C 0.26361 0.08269 0.05340
 C749 C 0.24122 0.07767 0.07602
 C750 C 0.23937 0.09669 0.10163
 C751 C 0.25720 0.14164 0.13055
 C752 C 0.25553 0.15966 0.15128
 H753 H 0.29729 0.14574 0.08475
 H754 H 0.30102 0.11253 0.04012
 H755 H 0.22445 0.05967 0.07343
 H756 H 0.22184 0.09258 0.11857
 C757 C 0.75884 0.61840 0.60780
 C758 C 0.73361 0.59979 0.60141
 C759 C 0.73360 0.58119 0.57547
 C760 C 0.75890 0.58098 0.55580
 C761 C 0.78417 0.59958 0.56238
 C762 C 0.78416 0.61815 0.58831
 C763 C 0.75811 0.63904 0.63332
 C764 C 0.75733 0.65716 0.65401
 H765 H 0.71378 0.60004 0.61619
 H766 H 0.71375 0.56729 0.57046
 H767 H 0.80375 0.59987 0.54728
 H768 H 0.80368 0.63266 0.59290
 C769 C 0.74368 0.89115 0.11981
 C770 C 0.76883 0.89923 0.10180
 C771 C 0.76732 0.92491 0.08284
 C772 C 0.74057 0.94259 0.08169
 C773 C 0.71539 0.93427 0.09965
 C774 C 0.71692 0.90863 0.11856
 C775 C 0.74574 0.86598 0.14083
 C776 C 0.74728 0.84561 0.15927
 H777 H 0.78974 0.88603 0.10280
 H778 H 0.78709 0.93129 0.06944
 H779 H 0.69471 0.94786 0.09924
 H780 H 0.69742 0.90272 0.13259
 C781 C 0.24325 0.39183 0.61988
 C782 C 0.26813 0.39793 0.60075
 C783 C 0.26776 0.42360 0.58174
 C784 C 0.24242 0.44328 0.58162
 C785 C 0.21747 0.43692 0.60069
 C786 C 0.21786 0.41128 0.61967
 C787 C 0.24436 0.36662 0.64094
 C788 C 0.24536 0.34617 0.65933
 H789 H 0.28801 0.38319 0.60094
 H790 H 0.28738 0.42844 0.56750
 H791 H 0.19788 0.45204 0.60109
 H792 H 0.19859 0.40691 0.63455
 C793 C 0.74206 0.10662 0.87872
 C794 C 0.72326 0.08219 0.87036
 C795 C 0.72186 0.05600 0.88851
 C796 C 0.73896 0.05387 0.91574
 C797 C 0.75818 0.07857 0.92362
 C798 C 0.75957 0.10474 0.90535
 C799 C 0.74413 0.13293 0.85911
 C800 C 0.74566 0.15408 0.84156
 H801 H 0.70976 0.08330 0.84966
 H802 H 0.70671 0.03771 0.88157
 H803 H 0.77292 0.07729 0.94344
 H804 H 0.77465 0.12329 0.91174
 C805 C 0.24518 0.60952 0.38000
 C806 C 0.21993 0.58989 0.37913
 C807 C 0.21961 0.56338 0.39690
 C808 C 0.24450 0.55631 0.41582
 C809 C 0.26981 0.57602 0.41660
 C810 C 0.27011 0.60255 0.39881
 C811 C 0.24617 0.63575 0.36022
 C812 C 0.24709 0.65687 0.34259
 H813 H 0.20066 0.59489 0.36444
 H814 H 0.20001 0.54830 0.39589
 H815 H 0.28934 0.57070 0.43081
 H816 H 0.28991 0.61739 0.39940
 C817 C 0.25410 0.87863 0.89153
 C818 C 0.23656 0.90527 0.89368
 C819 C 0.23862 0.92381 0.91965
 C820 C 0.25855 0.91616 0.94383
 C821 C 0.27564 0.88891 0.94144
 C822 C 0.27356 0.87052 0.91549
 C823 C 0.25158 0.85881 0.86541
 C824 C 0.24991 0.84105 0.84442
 H825 H 0.22099 0.91149 0.87550
 H826 H 0.22391 0.94364 0.92118
 H827 H 0.29130 0.88215 0.95934
 H828 H 0.28712 0.84985 0.91417
 C829 C 0.75331 0.37796 0.39038
 C830 C 0.77862 0.37721 0.40993
 C831 C 0.77931 0.39566 0.43595
 C832 C 0.75474 0.41516 0.44260
 C833 C 0.72944 0.41593 0.42290
 C834 C 0.72876 0.39744 0.39686
 C835 C 0.75194 0.35750 0.36469
 C836 C 0.75081 0.33946 0.34393
 H837 H 0.79761 0.36204 0.40529
 H838 H 0.79888 0.39460 0.45104
 H839 H 0.71012 0.43055 0.42794
 H840 H 0.70894 0.39799 0.38206
 C841 C 0.11993 0.25226 0.10596
 C842 C 0.12619 0.23212 0.08205
 C843 C 0.10712 0.23107 0.05660
 C844 C 0.08103 0.24992 0.05467
 C845 C 0.07509 0.27035 0.07886
 C846 C 0.09435 0.27139 0.10437
 C847 C 0.14053 0.25355 0.13151
 C848 C 0.15882 0.25377 0.15206
 H849 H 0.14600 0.21729 0.08299
 H850 H 0.11249 0.21501 0.03857
 H851 H 0.05615 0.28623 0.07760
 H852 H 0.08956 0.28740 0.12260
 C853 C 0.62173 0.74861 0.60805
 C854 C 0.60314 0.77384 0.60158
 C855 C 0.58376 0.77334 0.57620
 C856 C 0.58272 0.74751 0.55721
 C857 C 0.60125 0.72223 0.56392
 C858 C 0.62060 0.72275 0.58927
 C859 C 0.64292 0.74957 0.63312
 C860 C 0.66133 0.74996 0.65357
 H861 H 0.60401 0.79404 0.61584
 H862 H 0.56996 0.79321 0.57105
 H863 H 0.60095 0.70227 0.54931
 H864 H 0.63502 0.70318 0.59397
 C865 C 0.10726 0.74735 0.88191
 C866 C 0.10276 0.72370 0.90294
 C867 C 0.07678 0.72360 0.92148
 C868 C 0.05518 0.74723 0.91919
 C869 C 0.05991 0.77096 0.89820
 C870 C 0.08587 0.77104 0.87970
 C871 C 0.13291 0.74670 0.86145
 C872 C 0.15360 0.74652 0.84336
 H873 H 0.11904 0.70514 0.90464
 H874 H 0.07324 0.70493 0.93730
 H875 H 0.04336 0.78922 0.89601
 H876 H 0.08904 0.78933 0.86334
 C877 C 0.60718 0.24558 0.38130
 C878 C 0.58711 0.22067 0.38171
 C879 C 0.56089 0.22156 0.39985
 C880 C 0.55460 0.24733 0.41782
 C881 C 0.57480 0.27224 0.41740
 C882 C 0.60103 0.27133 0.39925
 C883 C 0.63297 0.24544 0.36100
 C884 C 0.65375 0.24555 0.34300
 H885 H 0.59150 0.20078 0.36767
 H886 H 0.54539 0.20228 0.39976
 H887 H 0.57003 0.29242 0.43088
 H888 H 0.61623 0.29086 0.39883
 C889 C 0.89198 0.74578 0.12249
 C890 C 0.91699 0.72786 0.13104
 C891 C 0.94307 0.72682 0.11274
 C892 C 0.94453 0.74343 0.08518
 C893 C 0.91919 0.76169 0.07703
 C894 C 0.89313 0.76271 0.09547
 C895 C 0.86585 0.74766 0.14232
 C896 C 0.84487 0.74911 0.16006
 H897 H 0.91643 0.71479 0.15203
 H898 H 0.96185 0.71236 0.11987
 H899 H 0.91989 0.77604 0.05692
 H900 H 0.87410 0.77712 0.08891
 C901 C 0.38958 0.25402 0.62062
 C902 C 0.39552 0.22953 0.60093
 C903 C 0.42157 0.22986 0.58246
 C904 C 0.44181 0.25475 0.58343
 C905 C 0.43568 0.27926 0.60315
 C906 C 0.40965 0.27892 0.62159
 C907 C 0.36383 0.25306 0.64102
 C908 C 0.34306 0.25260 0.65906
 H909 H 0.38031 0.21003 0.60021
 H910 H 0.42620 0.21056 0.56770
 H911 H 0.45118 0.29851 0.60437
 H912 H 0.40540 0.29787 0.63692
 C913 C 0.87674 0.25065 0.89315
 C914 C 0.87163 0.22849 0.91552
 C915 C 0.88991 0.22752 0.94161
 C916 C 0.91412 0.24841 0.94557
 C917 C 0.91841 0.27126 0.92327
 C918 C 0.90000 0.27220 0.89715
 C919 C 0.85732 0.25152 0.86666
 C920 C 0.83994 0.25146 0.84532
 H921 H 0.85347 0.21189 0.91282
 H922 H 0.88567 0.20977 0.95830
 H923 H 0.93560 0.28880 0.92632
 H924 H 0.90373 0.28988 0.88027
 C925 C 0.37930 0.75504 0.39305
 C926 C 0.39693 0.72934 0.40029
 C927 C 0.41513 0.72929 0.42651
 C928 C 0.41597 0.75503 0.44562
 C929 C 0.39824 0.78072 0.43830
 C930 C 0.38004 0.78074 0.41208
 C931 C 0.35922 0.75448 0.36706
 C932 C 0.34153 0.75383 0.34599
 H933 H 0.39628 0.70922 0.38591
 H934 H 0.42838 0.70915 0.43208
 H935 H 0.39845 0.80065 0.45295
 H936 H 0.36627 0.80064 0.40685
 C937 C 0.12170 0.10976 0.24402
 C938 C 0.12121 0.09169 0.21765
 C939 C 0.10286 0.06561 0.21640
 C940 C 0.08469 0.05744 0.24145
 C941 C 0.08518 0.07563 0.26785
 C942 C 0.10358 0.10174 0.26910
 C943 C 0.14197 0.13559 0.24562
 C944 C 0.15990 0.15648 0.24634
 H945 H 0.13532 0.09754 0.19821
 H946 H 0.10292 0.05167 0.19597
 H947 H 0.07158 0.06939 0.28752
 H948 H 0.10400 0.11541 0.28970
 C949 C 0.62314 0.60739 0.75118
 C950 C 0.60294 0.60233 0.72690
 C951 C 0.58409 0.57654 0.72685
 C952 C 0.58518 0.55568 0.75118
 C953 C 0.60544 0.56088 0.77546
 C954 C 0.62427 0.58666 0.77549
 C955 C 0.64376 0.63299 0.75054
 C956 C 0.66182 0.65377 0.74992
 H957 H 0.60208 0.61807 0.70785
 H958 H 0.56887 0.57263 0.70775
 H959 H 0.60673 0.54489 0.79427
 H960 H 0.63998 0.59023 0.79426
 C961 C 0.89284 0.12115 0.74876
 C962 C 0.91735 0.12976 0.76732
 C963 C 0.94377 0.11194 0.76839
 C964 C 0.94606 0.08478 0.75121
 C965 C 0.92142 0.07677 0.73198
 C966 C 0.89497 0.09473 0.73094
 C967 C 0.86599 0.14010 0.74780
 C968 C 0.84444 0.15726 0.74772
 H969 H 0.91603 0.15030 0.78107
 H970 H 0.96206 0.11895 0.78351
 H971 H 0.92285 0.05693 0.71728
 H972 H 0.87633 0.08813 0.71607
 C973 C 0.39271 0.62158 0.25198
 C974 C 0.41169 0.62225 0.27771
 C975 C 0.43807 0.60431 0.27865
 C976 C 0.44563 0.58543 0.25392
 C977 C 0.42659 0.58488 0.22811
 C978 C 0.40018 0.60285 0.22718
 C979 C 0.36644 0.64129 0.25065
 C980 C 0.34525 0.65884 0.25002
 H981 H 0.40625 0.63687 0.29690
 H982 H 0.45263 0.60513 0.29863
 H983 H 0.43231 0.57067 0.20871
 H984 H 0.38582 0.60239 0.20706
 C985 C 0.10586 0.87884 0.75098
 C986 C 0.10157 0.90200 0.72940
 C987 C 0.07602 0.92114 0.73126
 C988 C 0.05458 0.91766 0.75505
 C989 C 0.05890 0.89368 0.77610
 C990 C 0.08441 0.87467 0.77421
 C991 C 0.13170 0.85862 0.74915
 C992 C 0.15263 0.84075 0.74855
 H993 H 0.11775 0.90503 0.71096
 H994 H 0.07261 0.93813 0.71362
 H995 H 0.04287 0.89008 0.79458
 H996 H 0.08738 0.85664 0.79089
 C997 C 0.60829 0.38008 0.25137
 C998 C 0.60211 0.40002 0.22715
 C999 C 0.57645 0.41904 0.22822
 C1000 C 0.55688 0.41832 0.25359
 C1001 C 0.56327 0.39839 0.27784
 C1002 C 0.58891 0.37942 0.27676
 C1003 C 0.63364 0.35924 0.24980
 C1004 C 0.65415 0.34090 0.24907
 H1005 H 0.61683 0.40053 0.20730
 H1006 H 0.57157 0.43399 0.20915
 H1007 H 0.54826 0.39738 0.29745
 H1008 H 0.59337 0.36394 0.29552
 C1009 C 0.88099 0.89415 0.24713
 C1010 C 0.87288 0.91766 0.22714
 C1011 C 0.89141 0.94343 0.22431
 C1012 C 0.91874 0.94605 0.24119
 C1013 C 0.92652 0.92218 0.26144
 C1014 C 0.90784 0.89640 0.26426
 C1015 C 0.86104 0.86826 0.25033
 C1016 C 0.84317 0.84743 0.25210
 H1017 H 0.85208 0.91616 0.21380
 H1018 H 0.88462 0.96104 0.20832
 H1019 H 0.94649 0.92390 0.27594
 H1020 H 0.91410 0.87848 0.28013
 C1021 C 0.37895 0.39463 0.75197
 C1022 C 0.39961 0.40001 0.77578
 C1023 C 0.41847 0.42578 0.77506
 C1024 C 0.41689 0.44627 0.75045
 C1025 C 0.39617 0.44074 0.72665
 C1026 C 0.37735 0.41498 0.72738
 C1027 C 0.35848 0.36898 0.75315
 C1028 C 0.34050 0.34816 0.75362
 H1029 H 0.40085 0.38452 0.79501
 H1030 H 0.43406 0.42997 0.79380
 H1031 H 0.39452 0.45645 0.70763
 H1032 H 0.36131 0.41112 0.70894
 C1033 C 0.11895 0.24997 0.89320
 C1034 C 0.09526 0.22867 0.89579
 C1035 C 0.07632 0.22884 0.92152
 C1036 C 0.08062 0.25059 0.94489
 C1037 C 0.10493 0.27155 0.94207
 C1038 C 0.12372 0.27136 0.91638
 C1039 C 0.13932 0.24943 0.86748
 C1040 C 0.15740 0.24952 0.84677
 H1041 H 0.09174 0.21164 0.87820
 H1042 H 0.05892 0.21137 0.92357
 H1043 H 0.10907 0.28855 0.95956
 H1044 H 0.14214 0.28780 0.91472
 C1045 C 0.61991 0.74923 0.39338
 C1046 C 0.61876 0.72312 0.41180
 C1047 C 0.60001 0.72258 0.43758
 C1048 C 0.58211 0.74809 0.44507
 C1049 C 0.58321 0.77418 0.42646
 C1050 C 0.60198 0.77471 0.40066
 C1051 C 0.64069 0.75033 0.36800
 C1052 C 0.65892 0.75106 0.34741
 H1053 H 0.63272 0.70338 0.40651
 H1054 H 0.59964 0.70240 0.45188
 H1055 H 0.56986 0.79421 0.43220
 H1056 H 0.60291 0.79512 0.38672
 C1057 C 0.89190 0.74488 0.88138
 C1058 C 0.91646 0.72611 0.87345
 C1059 C 0.94224 0.72459 0.89212
 C1060 C 0.94387 0.74163 0.91942
 C1061 C 0.91884 0.76047 0.92714
 C1062 C 0.89306 0.76199 0.90830
 C1063 C 0.86622 0.74724 0.86103
 C1064 C 0.84562 0.74870 0.84283
 H1065 H 0.91582 0.71281 0.85260
 H1066 H 0.96072 0.70959 0.88540
 H1067 H 0.91968 0.77506 0.94708
 H1068 H 0.87433 0.77695 0.91443
 C1069 C 0.39088 0.25305 0.37879
 C1070 C 0.39561 0.22855 0.39881
 C1071 C 0.42127 0.22818 0.41786
 C1072 C 0.44231 0.25239 0.41710
 C1073 C 0.43734 0.27695 0.39712
 C1074 C 0.41171 0.27730 0.37812
 C1075 C 0.36558 0.25271 0.35781
 C1076 C 0.34509 0.25253 0.33943
 H1077 H 0.37977 0.20955 0.39933
 H1078 H 0.42501 0.20887 0.43285
 H1079 H 0.45349 0.29567 0.39608
 H1080 H 0.40839 0.29626 0.36256
 C1081 C 0.10947 0.75206 0.11980
 C1082 C 0.08785 0.77558 0.12183
 C1083 C 0.06123 0.77447 0.10425
 C1084 C 0.05604 0.74987 0.08437
 C1085 C 0.07778 0.72635 0.08237
 C1086 C 0.10441 0.72749 0.09998
 C1087 C 0.13577 0.75229 0.13951
 C1088 C 0.15690 0.75236 0.15716
 H1089 H 0.09139 0.79454 0.13733
 H1090 H 0.04459 0.79269 0.10619
 H1091 H 0.07395 0.70705 0.06739
 H1092 H 0.12081 0.70900 0.09848
 C1093 C 0.60761 0.25140 0.61934
 C1094 C 0.59907 0.22534 0.60285
 C1095 C 0.57252 0.22563 0.58508
 C1096 C 0.55437 0.25205 0.58359
 C1097 C 0.56297 0.27807 0.60020
 C1098 C 0.58951 0.27776 0.61794
 C1099 C 0.63388 0.25067 0.63909
 C1100 C 0.65500 0.25021 0.65674
 H1101 H 0.61272 0.20472 0.60403
 H1102 H 0.56599 0.20528 0.57262
 H1103 H 0.54910 0.29854 0.59942
 H1104 H 0.59573 0.29793 0.63085
 C1105 C 0.87772 0.24451 0.10852
 C1106 C 0.88077 0.27100 0.09088
 C1107 C 0.89929 0.27088 0.06494
 C1108 C 0.91503 0.24429 0.05645
 C1109 C 0.91215 0.21780 0.07427
 C1110 C 0.89356 0.21793 0.10026
 C1111 C 0.85708 0.24438 0.13410
 C1112 C 0.83895 0.24464 0.15480
 H1113 H 0.86847 0.29161 0.09692
 H1114 H 0.90115 0.29141 0.05128
 H1115 H 0.92396 0.19705 0.06781
 H1116 H 0.89118 0.19725 0.11361
 C1117 C 0.37831 0.75158 0.60964
 C1118 C 0.39674 0.72647 0.60231
 C1119 C 0.41554 0.72741 0.57653
 C1120 C 0.41617 0.75355 0.55795
 C1121 C 0.39774 0.77868 0.56547
 C1122 C 0.37897 0.77772 0.59124
 C1123 C 0.35758 0.75010 0.63509
 C1124 C 0.33939 0.74913 0.65572
 H1125 H 0.39621 0.70602 0.61623
 H1126 H 0.42928 0.70765 0.57078
 H1127 H 0.39774 0.79890 0.55121
 H1128 H 0.36464 0.79719 0.59655
 C1129 C 0.25832 0.12078 0.89201
 C1130 C 0.23980 0.09490 0.89477
 C1131 C 0.24254 0.07586 0.92028
 C1132 C 0.26408 0.08230 0.94341
 C1133 C 0.28247 0.10859 0.94023
 C1134 C 0.27972 0.12747 0.91472
 C1135 C 0.25489 0.14130 0.86658
 C1136 C 0.25263 0.15950 0.84606
 H1137 H 0.22283 0.08975 0.87751
 H1138 H 0.22692 0.05680 0.92246
 H1139 H 0.29945 0.11434 0.95729
 H1140 H 0.29413 0.14751 0.91286
 C1141 C 0.75470 0.62073 0.39279
 C1142 C 0.73016 0.60123 0.39918
 C1143 C 0.73133 0.58186 0.42454
 C1144 C 0.75712 0.58178 0.44361
 C1145 C 0.78172 0.60122 0.43697
 C1146 C 0.78054 0.62054 0.41163
 C1147 C 0.75300 0.64195 0.36778
 C1148 C 0.75192 0.66042 0.34742
 H1149 H 0.70997 0.60136 0.38488
 H1150 H 0.71196 0.56733 0.42963
 H1151 H 0.80165 0.60164 0.45162
 H1152 H 0.79957 0.63567 0.40701
 C1153 C 0.74136 0.10616 0.11912
 C1154 C 0.72190 0.08210 0.12696
 C1155 C 0.72013 0.05617 0.10852
 C1156 C 0.73756 0.05391 0.08154
 C1157 C 0.75730 0.07831 0.07406
 C1158 C 0.75906 0.10425 0.09265
 C1159 C 0.74374 0.13215 0.13906
 C1160 C 0.74525 0.15306 0.15688
 H1161 H 0.70818 0.08330 0.14750
 H1162 H 0.70453 0.03813 0.11509
 H1163 H 0.77224 0.07691 0.05443
 H1164 H 0.77459 0.12255 0.08664
 C1165 C 0.24549 0.60780 0.61916
 C1166 C 0.27016 0.60101 0.59998
 C1167 C 0.26929 0.57502 0.58143
 C1168 C 0.24367 0.55570 0.58183
 C1169 C 0.21900 0.56265 0.60105
 C1170 C 0.21989 0.58862 0.61956
 C1171 C 0.24688 0.63351 0.63956
 C1172 C 0.24769 0.65432 0.65756
 H1173 H 0.29019 0.61554 0.59970
 H1174 H 0.28867 0.56973 0.56702
 H1175 H 0.19919 0.54785 0.60180
 H1176 H 0.20079 0.59353 0.63448
 C1177 C 0.74694 0.88973 0.87957
 C1178 C 0.77178 0.89848 0.89773
 C1179 C 0.76990 0.92476 0.91582
 C1180 C 0.74309 0.94240 0.91595
 C1181 C 0.71828 0.93352 0.89771
 C1182 C 0.72018 0.90727 0.87967
 C1183 C 0.74926 0.86377 0.85954
 C1184 C 0.75078 0.84286 0.84170
 H1185 H 0.79270 0.88525 0.89760
 H1186 H 0.78936 0.93153 0.92950
 H1187 H 0.69755 0.94702 0.89739
 H1188 H 0.70093 0.90087 0.86550
 C1189 C 0.24799 0.39156 0.37790
 C1190 C 0.22252 0.41091 0.37687
 C1191 C 0.22133 0.43688 0.39539
 C1192 C 0.24554 0.44368 0.41526
 C1193 C 0.27102 0.42420 0.41629
 C1194 C 0.27221 0.39820 0.39772
 C1195 C 0.24973 0.36584 0.35748
 C1196 C 0.25084 0.34507 0.33942
 H1197 H 0.20377 0.40613 0.36145
 H1198 H 0.20162 0.45179 0.39413
 H1199 H 0.29008 0.42935 0.43119
 H1200 H 0.29214 0.38356 0.39851
 C1201 C 0.25528 0.88042 0.10798
 C1202 C 0.28065 0.87840 0.08863
 C1203 C 0.28220 0.89638 0.06233
 C1204 C 0.25843 0.91669 0.05519
 C1205 C 0.23302 0.91867 0.07466
 C1206 C 0.23149 0.90064 0.10098
 C1207 C 0.25321 0.86056 0.13409
 C1208 C 0.25189 0.84289 0.15514
 H1209 H 0.29907 0.86266 0.09368
 H1210 H 0.30185 0.89442 0.04746
 H1211 H 0.21432 0.93395 0.06927
 H1212 H 0.21162 0.90218 0.11563
 C1213 C 0.75160 0.37837 0.60772
 C1214 C 0.77697 0.37693 0.58831
 C1215 C 0.77806 0.39499 0.56205
 C1216 C 0.75384 0.41478 0.55502
 C1217 C 0.72841 0.41613 0.57451
 C1218 C 0.72733 0.39803 0.60080
 C1219 C 0.75002 0.35848 0.63382
 C1220 C 0.74906 0.34077 0.65486
 H1221 H 0.79575 0.36160 0.59331
 H1222 H 0.79774 0.39353 0.54715
 H1223 H 0.70937 0.43102 0.56920
 H1224 H 0.70747 0.39910 0.61549
 C1225 C 0.10914 0.12140 0.75292
 C1226 C 0.08592 0.12713 0.73177
 C1227 C 0.05975 0.10893 0.73128
 C1228 C 0.05646 0.08422 0.75168
 C1229 C 0.07984 0.07903 0.77326
 C1230 C 0.10603 0.09738 0.77373
 C1231 C 0.13536 0.14123 0.75387
 C1232 C 0.15635 0.15906 0.75419
 H1233 H 0.08796 0.14586 0.71573
 H1234 H 0.04233 0.11377 0.71438
 H1235 H 0.07749 0.06132 0.79035
 H1236 H 0.12360 0.09311 0.79062
 C1237 C 0.61060 0.62172 0.25664
 C1238 C 0.60428 0.60297 0.23152
 C1239 C 0.57812 0.58462 0.23138
 C1240 C 0.55815 0.58479 0.25645
 C1241 C 0.56464 0.60356 0.28159
 C1242 C 0.59078 0.62188 0.28171
 C1243 C 0.63638 0.64212 0.25610
 C1244 C 0.65718 0.66015 0.25569
 H1245 H 0.61929 0.60290 0.21188
 H1246 H 0.57321 0.57056 0.21164
 H1247 H 0.54933 0.60414 0.30099
 H1248 H 0.59530 0.63650 0.30114
 C1249 C 0.12162 0.89321 0.24285
 C1250 C 0.12962 0.91719 0.22338
 C1251 C 0.11151 0.94341 0.22184
 C1252 C 0.08468 0.94598 0.23949
 C1253 C 0.07718 0.92175 0.25941
 C1254 C 0.09542 0.89555 0.26092
 C1255 C 0.14115 0.86686 0.24493
 C1256 C 0.15868 0.84567 0.24630
 H1257 H 0.14999 0.91570 0.20943
 H1258 H 0.11813 0.96136 0.20617
 H1259 H 0.05770 0.92342 0.27454
 H1260 H 0.08933 0.87734 0.27651
 C1261 C 0.61863 0.38984 0.74645
 C1262 C 0.61998 0.41038 0.72199
 C1263 C 0.60228 0.43696 0.72234
 C1264 C 0.58296 0.44317 0.74711
 C1265 C 0.58161 0.42248 0.77157
 C1266 C 0.59933 0.39589 0.77120
 C1267 C 0.63848 0.36363 0.74689
 C1268 C 0.65622 0.34257 0.74724
 H1269 H 0.63505 0.40608 0.70287
 H1270 H 0.60375 0.45279 0.70341
 H1271 H 0.56709 0.42714 0.79103
 H1272 H 0.59836 0.38033 0.79040
 C1273 C 0.87968 0.10813 0.24354
 C1274 C 0.89823 0.10097 0.26858
 C1275 C 0.91760 0.07557 0.26742
 C1276 C 0.91861 0.05728 0.24112
 C1277 C 0.90017 0.06473 0.21601
 C1278 C 0.88085 0.09010 0.21719
 C1279 C 0.85832 0.13302 0.24524
 C1280 C 0.83974 0.15329 0.24636
 H1281 H 0.89732 0.11466 0.28916
 H1282 H 0.93136 0.06983 0.28714
 H1283 H 0.90047 0.05064 0.19569
 H1284 H 0.86645 0.09533 0.19777
 C1285 C 0.38067 0.61029 0.75157
 C1286 C 0.40093 0.60478 0.72747
 C1287 C 0.41985 0.57902 0.72803
 C1288 C 0.41871 0.55865 0.75277
 C1289 C 0.39859 0.56448 0.77699
 C1290 C 0.37972 0.59022 0.77642
 C1291 C 0.35962 0.63551 0.75023
 C1292 C 0.34110 0.65587 0.74943
 H1293 H 0.40166 0.62003 0.70802
 H1294 H 0.43491 0.57459 0.70894
 H1295 H 0.39722 0.54886 0.79610
 H1296 H 0.36399 0.59416 0.79508
 C1297 C 0.89181 0.88180 0.75862
 C1298 C 0.91186 0.87988 0.78346
 C1299 C 0.93771 0.89858 0.78470
 C1300 C 0.94367 0.91948 0.76116
 C1301 C 0.92332 0.92151 0.73643
 C1302 C 0.89747 0.90280 0.73522
 C1303 C 0.86653 0.86093 0.75633
 C1304 C 0.84609 0.84258 0.75443
 H1305 H 0.90782 0.86353 0.80157
 H1306 H 0.95331 0.89650 0.80378
 H1307 H 0.92784 0.93713 0.71781
 H1308 H 0.88227 0.90427 0.71576
 C1309 C 0.39197 0.38255 0.25192
 C1310 C 0.39889 0.40166 0.22724
 C1311 C 0.42509 0.41992 0.22801
 C1312 C 0.44449 0.41927 0.25353
 C1313 C 0.43740 0.40015 0.27822
 C1314 C 0.41122 0.38192 0.27744
 C1315 C 0.36617 0.36227 0.25049
 C1316 C 0.34537 0.34428 0.24947
 H1317 H 0.38431 0.40208 0.20727
 H1318 H 0.43048 0.43427 0.20862
 H1319 H 0.45227 0.39922 0.29796
 H1320 H 0.40622 0.36702 0.29652
   
