data_POSCAR
  _audit_creation_date              2014-09-24
  _audit_creation_method            'ToBaCCo'
  _symmetry_space_group_name_H-M    'P1'
  _symmetry_Int_Tables_number       1
  _symmetry_cell_setting            triclinic
  loop_
  _symmetry_equiv_pos_as_xyz
 x,y,z
_cell_length_a 45.6202
_cell_length_b 45.6526
_cell_length_c 45.6290
_cell_angle_alpha 89.996700
_cell_angle_beta 90.025100
_cell_angle_gamma 90.040800
loop_
  _atom_site_label
  _atom_site_type_symbol
  _atom_site_fract_x
  _atom_site_fract_y
  _atom_site_fract_z
C1 C 0.23187 1.08765 -0.01467
 C2 C 0.23197 1.08784 0.01537
 C3 C 0.24445 1.06157 0.02427
 N4 N 0.25146 1.04514 0.00063
 C5 C 0.24387 1.06112 -0.02312
 C6 C 0.25020 1.05336 0.05369
 C7 C 0.25603 1.02373 0.06117
 C8 C 0.26964 1.01442 0.08677
 C9 C 0.26924 0.98432 0.08647
 C10 C 0.25590 0.97605 0.06049
 N11 N 0.24810 1.00012 0.04506
 C12 C 0.24926 0.94694 0.05257
 C13 C 0.24368 0.93865 0.02336
 C14 C 0.23177 0.91210 0.01480
 C15 C 0.23211 0.91190 -0.01524
 C16 C 0.24466 0.93819 -0.02403
 N17 N 0.25147 0.95464 -0.00033
 C18 C 0.25065 0.94641 -0.05340
 C19 C 0.25652 0.97605 -0.06084
 C20 C 0.27031 0.98539 -0.08633
 C21 C 0.26991 1.01549 -0.08603
 C22 C 0.25638 1.02374 -0.06016
 N23 N 0.24847 0.99966 -0.04479
 C24 C 0.24969 1.05285 -0.05229
 H25 H 0.22382 1.10499 -0.02869
 H26 H 0.22364 1.10531 0.02906
 H27 H 0.23540 0.99946 -0.02607
 H28 H 0.27886 1.02788 0.10399
 H29 H 0.27778 0.97013 0.10345
 H30 H 0.22360 0.89474 0.02875
 H31 H 0.22390 0.89442 -0.02900
 H32 H 0.27856 1.02969 -0.10294
 H33 H 0.23517 1.00029 0.02623
 H34 H 0.27965 0.97195 -0.10347
 C35 C 0.76526 0.48458 0.58955
 C36 C 0.76563 0.51463 0.58969
 C37 C 0.75698 0.52353 0.56196
 N38 N 0.75129 0.49999 0.54493
 C39 C 0.75643 0.47615 0.56172
 C40 C 0.75267 0.55293 0.55333
 C41 C 0.74733 0.56134 0.52400
 C42 C 0.73666 0.58847 0.51546
 C43 C 0.73626 0.58861 0.48533
 C44 C 0.74674 0.56158 0.47628
 N45 N 0.75349 0.54511 0.49999
 C46 C 0.75147 0.55350 0.44674
 C47 C 0.75621 0.52428 0.43777
 C48 C 0.76488 0.51583 0.40992
 C49 C 0.76517 0.48579 0.40978
 C50 C 0.75661 0.47690 0.43754
 N51 N 0.75107 0.50046 0.45459
 C52 C 0.75227 0.44752 0.44619
 C53 C 0.74701 0.43912 0.47554
 C54 C 0.73628 0.41201 0.48411
 C55 C 0.73603 0.41187 0.51424
 C56 C 0.74665 0.43888 0.52326
 N57 N 0.75334 0.45534 0.49952
 C58 C 0.75157 0.44694 0.55277
 H59 H 0.77076 0.47056 0.60786
 H60 H 0.77146 0.52833 0.60815
 H61 H 0.76473 0.47507 0.49968
 H62 H 0.72998 0.60639 0.52949
 H63 H 0.72924 0.60667 0.47166
 H64 H 0.77034 0.52985 0.39158
 H65 H 0.77087 0.47207 0.39130
 H66 H 0.72902 0.39383 0.52794
 H67 H 0.76480 0.52536 0.49978
 H68 H 0.72949 0.39411 0.47012
 C69 C 0.76910 1.01497 1.08722
 C70 C 0.76877 0.98498 1.08720
 C71 C 0.75478 0.97642 1.06161
 N72 N 0.74684 1.00023 1.04578
 C73 C 0.75525 1.02385 1.06166
 C74 C 0.74886 0.94704 1.05346
 C75 C 0.74332 0.93952 1.02380
 C76 C 0.72969 0.91399 1.01434
 C77 C 0.73096 0.91399 0.98426
 C78 C 0.74480 0.93976 0.97612
 N79 N 0.75205 0.95534 1.00030
 C80 C 0.75192 0.94748 0.94703
 C81 C 0.75772 0.97662 0.93865
 C82 C 0.76805 0.98534 0.91146
 C83 C 0.76781 1.01541 0.91146
 C84 C 0.75738 1.02393 0.93868
 N85 N 0.75126 1.00022 0.95526
 C86 C 0.75124 1.05297 0.94711
 C87 C 0.74458 1.06068 0.97632
 C88 C 0.73101 1.08649 0.98470
 C89 C 0.73033 1.08655 1.01480
 C90 C 0.74395 1.06095 1.02403
 N91 N 0.75219 1.04509 1.00038
 C92 C 0.74984 1.05336 1.05360
 H93 H 0.77886 1.02866 1.10395
 H94 H 0.77823 0.97106 1.10391
 H95 H 0.76519 1.02634 1.00075
 H96 H 0.71999 0.89697 1.02771
 H97 H 0.72261 0.89699 0.96998
 H98 H 0.77465 0.97150 0.89337
 H99 H 0.77420 1.02937 0.89339
 H100 H 0.72098 1.10361 1.02835
 H101 H 0.76514 0.97404 1.00086
 H102 H 0.72249 1.10353 0.97057
 C103 C 0.23455 0.41007 0.48489
 C104 C 0.23422 0.41005 0.51495
 C105 C 0.24286 0.43782 0.52373
 N106 N 0.24850 0.45474 0.50010
 C107 C 0.24334 0.43785 0.47633
 C108 C 0.24721 0.44656 0.55310
 C109 C 0.25254 0.47592 0.56140
 C110 C 0.26324 0.48458 0.58850
 C111 C 0.26360 0.51469 0.58851
 C112 C 0.25306 0.52362 0.56143
 N113 N 0.24632 0.49984 0.54505
 C114 C 0.24827 0.55310 0.55322
 C115 C 0.24352 0.56193 0.52395
 C116 C 0.23482 0.58973 0.51538
 C117 C 0.23452 0.58974 0.48531
 C118 C 0.24308 0.56197 0.47654
 N119 N 0.24865 0.54503 0.50018
 C120 C 0.24742 0.55322 0.44718
 C121 C 0.25266 0.52385 0.43889
 C122 C 0.26334 0.51517 0.41180
 C123 C 0.26360 0.48505 0.41179
 C124 C 0.25303 0.47615 0.43886
 N125 N 0.24636 0.49993 0.45523
 C126 C 0.24816 0.44667 0.44706
 H127 H 0.22905 0.39170 0.47094
 H128 H 0.22844 0.39165 0.52874
 H129 H 0.23501 0.49985 0.47497
 H130 H 0.26996 0.47065 0.60648
 H131 H 0.27063 0.52845 0.60651
 H132 H 0.22936 0.60811 0.52931
 H133 H 0.22880 0.60815 0.47151
 H134 H 0.27060 0.47129 0.39379
 H135 H 0.23497 0.49995 0.52529
 H136 H 0.27010 0.52909 0.39382
 C137 C 1.08633 0.22871 -0.01442
 C138 C 1.08636 0.22935 0.01559
 C139 C 1.06126 0.24426 0.02398
 N140 N 1.04568 0.25244 0.00010
 C141 C 1.06126 0.24333 -0.02342
 C142 C 1.05335 0.25092 0.05325
 C143 C 1.02383 0.25735 0.06056
 C144 C 1.01455 0.27158 0.08582
 C145 C 0.98442 0.27093 0.08565
 C146 C 0.97615 0.25685 0.06007
 N147 N 1.00022 0.24891 0.04474
 C148 C 0.94710 0.24962 0.05240
 C149 C 0.93903 0.24319 0.02332
 C150 C 0.91276 0.23059 0.01487
 C151 C 0.91269 0.23044 -0.01519
 C152 C 0.93875 0.24343 -0.02403
 N153 N 0.95499 0.25089 -0.00041
 C154 C 0.94683 0.24972 -0.05333
 C155 C 0.97638 0.25615 -0.06057
 C156 C 0.98538 0.27164 -0.08515
 C157 C 1.01548 0.27156 -0.08501
 C158 C 1.02412 0.25605 -0.06033
 N159 N 1.00016 0.24723 -0.04520
 C160 C 1.05349 0.24923 -0.05288
 H161 H 1.10276 0.21840 -0.02806
 H162 H 1.10279 0.21958 0.02963
 H163 H 1.00012 0.23332 -0.02707
 H164 H 1.02805 0.28121 0.10278
 H165 H 0.97021 0.27972 0.10249
 H166 H 0.89548 0.22237 0.02889
 H167 H 0.89538 0.22178 -0.02891
 H168 H 1.02942 0.28186 -0.10119
 H169 H 1.00051 0.23552 0.02623
 H170 H 0.97168 0.28206 -0.10147
 C171 C 0.48574 0.73551 0.58994
 C172 C 0.51580 0.73586 0.58981
 C173 C 0.52425 0.74472 0.56201
 N174 N 0.50040 0.74990 0.54522
 C175 C 0.47683 0.74421 0.56223
 C176 C 0.55348 0.74960 0.55310
 C177 C 0.56157 0.75457 0.52360
 C178 C 0.58860 0.76520 0.51463
 C179 C 0.58847 0.76505 0.48450
 C180 C 0.56134 0.75436 0.47587
 N181 N 0.54510 0.74796 0.49983
 C182 C 0.55293 0.74922 0.44649
 C183 C 0.52353 0.74482 0.43782
 C184 C 0.51466 0.73630 0.41004
 C185 C 0.48459 0.73649 0.41018
 C186 C 0.47611 0.74509 0.43804
 N187 N 0.49994 0.75026 0.45487
 C188 C 0.44686 0.74973 0.44701
 C189 C 0.43876 0.75444 0.47654
 C190 C 0.41170 0.76489 0.48559
 C191 C 0.41184 0.76451 0.51572
 C192 C 0.43900 0.75387 0.52427
 N193 N 0.45525 0.74772 0.50026
 C194 C 0.44743 0.74856 0.55361
 H195 H 0.47202 0.72968 0.60839
 H196 H 0.52983 0.73033 0.60813
 H197 H 0.47503 0.73644 0.50005
 H198 H 0.60666 0.77217 0.52836
 H199 H 0.60638 0.77189 0.47054
 H200 H 0.52840 0.73066 0.39156
 H201 H 0.47058 0.73102 0.39182
 H202 H 0.39391 0.77117 0.52973
 H203 H 0.52536 0.73659 0.49994
 H204 H 0.39362 0.77189 0.47191
 C205 C 0.08746 0.73227 0.01565
 C206 C 0.08794 0.73209 -0.01438
 C207 C 0.06171 0.74445 -0.02366
 N208 N 0.04500 0.75155 -0.00026
 C209 C 0.06077 0.74417 0.02371
 C210 C 0.05380 0.74999 -0.05320
 C211 C 0.02435 0.75639 -0.06107
 C212 C 0.01566 0.76966 -0.08701
 C213 C -0.01444 0.76960 -0.08725
 C214 C -0.02351 0.75700 -0.06107
 N215 N 0.00034 0.74910 -0.04523
 C216 C -0.05283 0.74963 -0.05385
 C217 C -0.06136 0.74259 -0.02485
 C218 C -0.08839 0.73130 -0.01664
 C219 C -0.08874 0.73075 0.01337
 C220 C -0.06231 0.74258 0.02268
 N221 N -0.04553 0.74956 -0.00074
 C222 C -0.05443 0.74810 0.05227
 C223 C -0.02503 0.75457 0.06021
 C224 C -0.01644 0.76833 0.08599
 C225 C 0.01367 0.76882 0.08611
 C226 C 0.02266 0.75579 0.06024
 N227 N -0.00099 0.74734 0.04444
 C228 C 0.05207 0.74998 0.05274
 H229 H 0.10468 0.72437 0.02993
 H230 H 0.10558 0.72369 -0.02779
 H231 H -0.00060 0.73446 0.02560
 H232 H 0.02953 0.77811 -0.10428
 H233 H -0.02788 0.77740 -0.10513
 H234 H -0.10628 0.72449 -0.03061
 H235 H -0.10662 0.72278 0.02674
 H236 H 0.02739 0.77771 0.10331
 H237 H 0.00021 0.73612 -0.02646
 H238 H -0.03039 0.77708 0.10304
 C239 C 0.48535 0.26385 0.41019
 C240 C 0.51542 0.26350 0.41030
 C241 C 0.52390 0.25478 0.43814
 N242 N 0.50007 0.24968 0.45497
 C243 C 0.47648 0.25529 0.43796
 C244 C 0.55314 0.24996 0.44706
 C245 C 0.56126 0.24512 0.47658
 C246 C 0.58829 0.23451 0.48558
 C247 C 0.58820 0.23482 0.51571
 C248 C 0.56111 0.24556 0.52430
 N249 N 0.54484 0.25186 0.50032
 C250 C 0.55276 0.25087 0.55366
 C251 C 0.52339 0.25534 0.56232
 C252 C 0.51458 0.26402 0.59006
 C253 C 0.48451 0.26384 0.58995
 C254 C 0.47597 0.25508 0.56214
 N255 N 0.49976 0.24981 0.54532
 C256 C 0.44670 0.25038 0.55323
 C257 C 0.43855 0.24550 0.52373
 C258 C 0.41147 0.23499 0.51476
 C259 C 0.41155 0.23521 0.48463
 C260 C 0.43871 0.24582 0.47601
 N261 N 0.45501 0.25210 0.49997
 C262 C 0.44708 0.25101 0.44664
 H263 H 0.47161 0.26960 0.39173
 H264 H 0.52942 0.26895 0.39195
 H265 H 0.47480 0.26340 0.50009
 H266 H 0.60631 0.22747 0.47186
 H267 H 0.60612 0.22804 0.52969
 H268 H 0.52836 0.26975 0.60850
 H269 H 0.47054 0.26941 0.60828
 H270 H 0.39359 0.22848 0.47067
 H271 H 0.52512 0.26324 0.50016
 H272 H 0.39341 0.22806 0.52849
 C273 C 1.08916 -0.01434 0.26882
 C274 C 1.08914 0.01565 0.26850
 C275 C 1.06187 0.02428 0.25814
 N276 N 1.04556 0.00038 0.25149
 C277 C 1.06224 -0.02327 0.25785
 C278 C 1.05344 0.05354 0.25195
 C279 C 1.02415 0.06133 0.24493
 C280 C 1.01513 0.08843 0.23436
 C281 C 0.98502 0.08825 0.23416
 C282 C 0.97633 0.06127 0.24498
 N283 N 1.00026 0.04500 0.25144
 C284 C 0.94697 0.05325 0.25086
 C285 C 0.93832 0.02417 0.25672
 C286 C 0.91078 0.01576 0.26640
 C287 C 0.91085 -0.01428 0.26740
 C288 C 0.93842 -0.02312 0.25827
 N289 N 0.95516 0.00037 0.25172
 C290 C 0.94708 -0.05239 0.25374
 C291 C 0.97639 -0.06036 0.24789
 C292 C 0.98482 -0.08654 0.23511
 C293 C 1.01491 -0.08657 0.23454
 C294 C 1.02413 -0.06061 0.24751
 N295 N 1.00042 -0.04458 0.25531
 C296 C 1.05383 -0.05277 0.25268
 H297 H 1.10712 -0.02796 0.27617
 H298 H 1.10741 0.02934 0.27486
 H299 H 1.00059 -0.02550 0.26780
 H300 H 1.02860 0.10696 0.22831
 H301 H 0.97113 0.10631 0.22759
 H302 H 0.89248 0.02978 0.27195
 H303 H 0.89260 -0.02802 0.27382
 H304 H 1.02843 -0.10382 0.22553
 H305 H 1.00029 0.02556 0.26329
 H306 H 0.97073 -0.10376 0.22687
 C307 C 0.48542 0.58970 0.73795
 C308 C 0.51550 0.58965 0.73819
 C309 C 0.52404 0.56185 0.74689
 N310 N 0.50025 0.54498 0.75209
 C311 C 0.47662 0.56194 0.74656
 C312 C 0.55333 0.55297 0.75154
 C313 C 0.56151 0.52348 0.75632
 C314 C 0.58864 0.51454 0.76672
 C315 C 0.58860 0.48442 0.76636
 C316 C 0.56144 0.47578 0.75579
 N317 N 0.54508 0.49971 0.74966
 C318 C 0.55311 0.44641 0.75048
 C319 C 0.52369 0.43767 0.74629
 C320 C 0.51483 0.40993 0.73768
 C321 C 0.48476 0.40997 0.73811
 C322 C 0.47627 0.43776 0.74691
 N323 N 0.50010 0.45462 0.75200
 C324 C 0.44701 0.44662 0.75176
 C325 C 0.43886 0.47611 0.75664
 C326 C 0.41180 0.48503 0.76721
 C327 C 0.41184 0.51514 0.76690
 C328 C 0.43893 0.52381 0.75620
 N329 N 0.45526 0.49989 0.74994
 C330 C 0.44723 0.55319 0.75091
 H331 H 0.47164 0.60811 0.73221
 H332 H 0.52945 0.60801 0.73266
 H333 H 0.47500 0.49979 0.73858
 H334 H 0.60670 0.52828 0.77366
 H335 H 0.60661 0.47049 0.77298
 H336 H 0.52858 0.39152 0.73184
 H337 H 0.47076 0.39162 0.73263
 H338 H 0.39387 0.52907 0.77364
 H339 H 0.52526 0.49983 0.73841
 H340 H 0.39379 0.47127 0.77421
 C341 C 1.01674 1.08962 0.73276
 C342 C 0.98669 1.08979 0.73250
 C343 C 0.97778 1.06211 0.74118
 N344 N 1.00136 1.04503 0.74656
 C345 C 1.02530 1.06166 0.74121
 C346 C 0.94843 1.05377 0.74637
 C347 C 0.94004 1.02466 0.75271
 C348 C 0.91313 1.01648 0.76426
 C349 C 0.91289 0.98638 0.76535
 C350 C 0.93963 0.97704 0.75439
 N351 N 0.95607 1.00048 0.74677
 C352 C 0.94738 0.94753 0.74944
 C353 C 0.97648 0.93868 0.74396
 C354 C 0.98445 0.91173 0.73261
 C355 C 1.01447 0.91134 0.73193
 C356 C 1.02389 0.93788 0.74348
 N357 N 1.00055 0.95468 0.75060
 C358 C 1.05357 0.94598 0.74815
 C359 C 1.06168 0.97550 0.75391
 C360 C 1.08799 0.98421 0.76643
 C361 C 1.08834 1.01426 0.76616
 C362 C 1.06185 1.02337 0.75424
 N363 N 1.04575 0.99951 0.74681
 C364 C 1.05441 1.05285 0.74752
 H365 H 1.03051 1.10833 0.72812
 H366 H 0.97299 1.10841 0.72725
 H367 H 1.02667 0.99950 0.73431
 H368 H 0.89539 1.03071 0.77098
 H369 H 0.89491 0.97291 0.77298
 H370 H 0.97011 0.89432 0.72524
 H371 H 1.02777 0.89357 0.72366
 H372 H 1.10649 1.02761 0.77348
 H373 H 0.97556 0.99985 0.73498
 H374 H 1.10542 0.97037 0.77459
 C375 C 0.40731 0.48536 0.24935
 C376 C 0.40737 0.51530 0.24740
 C377 C 0.43651 0.52396 0.24672
 N378 N 0.45414 0.50023 0.24791
 C379 C 0.43640 0.47657 0.24946
 C380 C 0.44605 0.55345 0.24587
 C381 C 0.47579 0.56250 0.24649
 C382 C 0.48469 0.59127 0.25062
 C383 C 0.51475 0.59122 0.25098
 C384 C 0.52362 0.56243 0.24702
 N385 N 0.49969 0.54511 0.24379
 C386 C 0.55334 0.55331 0.24692
 C387 C 0.56276 0.52379 0.24733
 C388 C 0.59185 0.51502 0.24790
 C389 C 0.59177 0.48504 0.24918
 C390 C 0.56264 0.47636 0.24911
 N391 N 0.54501 0.50010 0.24802
 C392 C 0.55307 0.44687 0.24924
 C393 C 0.52332 0.43788 0.24872
 C394 C 0.51432 0.40919 0.24427
 C395 C 0.48426 0.40923 0.24457
 C396 C 0.47549 0.43795 0.24916
 N397 N 0.49947 0.45523 0.25215
 C398 C 0.44580 0.44705 0.25009
 H399 H 0.38796 0.47166 0.25037
 H400 H 0.38809 0.52908 0.24677
 H401 H 0.49956 0.47707 0.25831
 H402 H 0.47096 0.61035 0.25369
 H403 H 0.52849 0.61026 0.25435
 H404 H 0.61119 0.52875 0.24755
 H405 H 0.61104 0.47125 0.24995
 H406 H 0.47044 0.39024 0.24122
 H407 H 0.49968 0.52316 0.23812
 H408 H 0.52799 0.39015 0.24067
 O409 O 0.24981 0.17344 0.20998
 O410 O 0.28158 0.16515 0.25083
 O411 O 0.17324 0.20929 0.25171
 O412 O 0.16249 0.24739 0.28020
 O413 O 0.20895 0.24995 0.17398
 O414 O 0.24975 0.28170 0.16557
 O415 O 0.25046 0.29021 0.32600
 O416 O 0.21624 0.25194 0.33401
 O417 O 0.32514 0.25059 0.29068
 O418 O 0.33431 0.21749 0.24905
 O419 O 0.28984 0.32532 0.25086
 O420 O 0.24811 0.33439 0.21789
 O421 O 0.25048 0.32531 0.29058
 O422 O 0.21678 0.33397 0.24865
 O423 O 0.32511 0.29010 0.25100
 O424 O 0.33384 0.24800 0.21760
 O425 O 0.28997 0.25112 0.32604
 O426 O 0.24969 0.21738 0.33516
 O427 O 0.25002 0.20851 0.17445
 O428 O 0.28238 0.24936 0.16610
 O429 O 0.17359 0.24980 0.20921
 O430 O 0.16700 0.28430 0.24993
 O431 O 0.20841 0.17387 0.25115
 O432 O 0.24925 0.16569 0.28343
 Zr433 Zr 0.24818 0.19721 0.24950
 O434 O 0.27575 0.22235 0.27662
 Zr435 Zr 0.19685 0.24879 0.24909
 O436 O 0.22203 0.27600 0.27668
 Zr437 Zr 0.24850 0.24834 0.19768
 O438 O 0.27577 0.27590 0.22273
 Zr439 Zr 0.25029 0.25057 0.30259
 O440 O 0.22235 0.22300 0.27777
 Zr441 Zr 0.30168 0.25039 0.25095
 O442 O 0.27672 0.22252 0.22348
 Zr443 Zr 0.25015 0.30184 0.25088
 O444 O 0.22261 0.27684 0.22305
 O445 O 0.22108 0.22137 0.22204
 O446 O 0.27772 0.27797 0.27839
 C447 C 0.25058 0.18176 0.18311
 C448 C 0.18164 0.18245 0.25219
 C449 C 0.18212 0.25052 0.18241
 C450 C 0.25054 0.31697 0.31742
 C451 C 0.31675 0.25094 0.31751
 C452 C 0.31665 0.31688 0.25094
 H453 H 0.28794 0.20908 0.28860
 H454 H 0.28783 0.28796 0.20938
 H455 H 0.20852 0.20874 0.20964
 H456 H 0.20889 0.28800 0.28902
 H457 H 0.20126 0.23754 0.32770
 H458 H 0.16892 0.25880 0.29747
 H459 H 0.33000 0.26397 0.20347
 H460 H 0.29768 0.23563 0.17301
 H461 H 0.26484 0.20271 0.33024
 H462 H 0.23563 0.17268 0.29879
 H463 H 0.26338 0.32990 0.20319
 H464 H 0.23656 0.29743 0.17254
 H465 H 0.29734 0.17213 0.23765
 H466 H 0.32989 0.20286 0.26442
 H467 H 0.17299 0.29801 0.23422
 H468 H 0.20281 0.33019 0.26479
 O469 O 0.74981 0.82624 0.20890
 O470 O 0.71812 0.83489 0.24967
 O471 O 0.82636 0.79049 0.25096
 O472 O 0.83716 0.75246 0.27945
 O473 O 0.79042 0.74948 0.17337
 O474 O 0.74957 0.71770 0.16523
 O475 O 0.74913 0.71032 0.32576
 O476 O 0.78337 0.74853 0.33347
 O477 O 0.67443 0.74971 0.29020
 O478 O 0.66524 0.78261 0.24840
 O479 O 0.70952 0.67471 0.25075
 O480 O 0.75116 0.66526 0.21802
 O481 O 0.74890 0.67495 0.29059
 O482 O 0.78261 0.66596 0.24866
 O483 O 0.67432 0.71000 0.25065
 O484 O 0.66562 0.75196 0.21710
 O485 O 0.70966 0.74940 0.32553
 O486 O 0.75008 0.78324 0.33429
 O487 O 0.74942 0.79094 0.17360
 O488 O 0.71698 0.75008 0.16558
 O489 O 0.82585 0.74979 0.20855
 O490 O 0.83238 0.71542 0.24950
 O491 O 0.79127 0.82597 0.25017
 O492 O 0.75042 0.83448 0.28229
 Zr493 Zr 0.75143 0.80273 0.24858
 O494 O 0.72385 0.77784 0.27590
 Zr495 Zr 0.80266 0.75104 0.24846
 O496 O 0.77747 0.72409 0.27629
 Zr497 Zr 0.75093 0.75127 0.19711
 O498 O 0.72365 0.72393 0.22238
 Zr499 Zr 0.74930 0.74976 0.30204
 O500 O 0.77726 0.77707 0.27699
 Zr501 Zr 0.69782 0.74966 0.25045
 O502 O 0.72280 0.77730 0.22276
 Zr503 Zr 0.74925 0.69812 0.25069
 O504 O 0.77679 0.72287 0.22264
 O505 O 0.77845 0.77835 0.22127
 O506 O 0.72177 0.72223 0.27806
 C507 C 0.74895 0.81775 0.18209
 C508 C 0.81802 0.81734 0.25133
 C509 C 0.81726 0.74894 0.18176
 C510 C 0.74895 0.68350 0.31738
 C511 C 0.68287 0.74952 0.31702
 C512 C 0.68273 0.68320 0.25071
 H513 H 0.71170 0.79121 0.28780
 H514 H 0.71156 0.71180 0.20911
 H515 H 0.79101 0.79089 0.20879
 H516 H 0.79060 0.71215 0.28870
 H517 H 0.79841 0.76279 0.32701
 H518 H 0.83067 0.74133 0.29688
 H519 H 0.66944 0.73593 0.20303
 H520 H 0.70174 0.76393 0.17237
 H521 H 0.73474 0.79774 0.32946
 H522 H 0.76399 0.82755 0.29773
 H523 H 0.73609 0.66984 0.20313
 H524 H 0.76281 0.70202 0.17227
 H525 H 0.70230 0.82781 0.23661
 H526 H 0.66972 0.79732 0.26367
 H527 H 0.82639 0.70169 0.23380
 H528 H 0.79653 0.66976 0.26484
 O529 O 0.75033 0.17433 0.79085
 O530 O 0.71828 0.16568 0.75026
 O531 O 0.82672 0.20969 0.74824
 O532 O 0.83745 0.24759 0.71946
 O533 O 0.79154 0.25104 0.82587
 O534 O 0.75089 0.28301 0.83417
 O535 O 0.74935 0.28996 0.67367
 O536 O 0.78342 0.25159 0.66588
 O537 O 0.67473 0.25083 0.70975
 O538 O 0.66566 0.21813 0.75170
 O539 O 0.71041 0.32588 0.74874
 O540 O 0.75233 0.33523 0.78132
 O541 O 0.74955 0.32541 0.70875
 O542 O 0.78353 0.33442 0.75044
 O543 O 0.67506 0.29070 0.74913
 O544 O 0.66641 0.24886 0.78293
 O545 O 0.70974 0.25096 0.67423
 O546 O 0.74988 0.21705 0.66526
 O547 O 0.75035 0.20974 0.82603
 O548 O 0.71815 0.25070 0.83414
 O549 O 0.82671 0.25050 0.79046
 O550 O 0.83315 0.28472 0.74944
 O551 O 0.79149 0.17430 0.74936
 O552 O 0.75039 0.16586 0.71746
 Zr553 Zr 0.75177 0.19770 0.75108
 O554 O 0.72412 0.22263 0.72385
 Zr555 Zr 0.80323 0.24924 0.75072
 O556 O 0.77797 0.27622 0.72300
 Zr557 Zr 0.75186 0.24933 0.80239
 O558 O 0.72451 0.27669 0.77723
 Zr559 Zr 0.74953 0.25056 0.69748
 O560 O 0.77752 0.22320 0.72242
 Zr561 Zr 0.69839 0.25095 0.74937
 O562 O 0.72343 0.22331 0.77698
 Zr563 Zr 0.75004 0.30234 0.74869
 O564 O 0.77767 0.27756 0.77662
 O565 O 0.77908 0.22209 0.77814
 O566 O 0.72228 0.27824 0.72155
 C567 C 0.74971 0.18291 0.81764
 C568 C 0.81827 0.18285 0.74803
 C569 C 0.81833 0.25144 0.81729
 C570 C 0.74936 0.31680 0.68198
 C571 C 0.68300 0.25092 0.68288
 C572 C 0.68357 0.31748 0.74892
 H573 H 0.71184 0.20926 0.71206
 H574 H 0.71256 0.28888 0.79052
 H575 H 0.79167 0.20955 0.79058
 H576 H 0.79107 0.28808 0.71048
 H577 H 0.79839 0.23724 0.67226
 H578 H 0.83094 0.25881 0.70211
 H579 H 0.67035 0.26497 0.79688
 H580 H 0.70278 0.23692 0.82745
 H581 H 0.73466 0.20250 0.67034
 H582 H 0.76392 0.17270 0.70193
 H583 H 0.73723 0.33081 0.79623
 H584 H 0.76415 0.29861 0.82700
 H585 H 0.70261 0.17282 0.76345
 H586 H 0.67001 0.20332 0.73650
 H587 H 0.82728 0.29854 0.76508
 H588 H 0.79738 0.33049 0.73425
 O589 O 0.25090 0.82615 0.79047
 O590 O 0.28279 0.83428 0.74969
 O591 O 0.17420 0.79064 0.74860
 O592 O 0.16327 0.75255 0.72009
 O593 O 0.20958 0.74986 0.82642
 O594 O 0.25019 0.71791 0.83491
 O595 O 0.25103 0.70935 0.67449
 O596 O 0.21700 0.74773 0.66642
 O597 O 0.32589 0.74867 0.70991
 O598 O 0.33523 0.78170 0.75155
 O599 O 0.29015 0.67405 0.74974
 O600 O 0.24831 0.66520 0.78262
 O601 O 0.25083 0.67424 0.70992
 O602 O 0.21703 0.66574 0.75178
 O603 O 0.32561 0.70913 0.74963
 O604 O 0.33455 0.75123 0.78302
 O605 O 0.29073 0.74830 0.67450
 O606 O 0.25066 0.78215 0.66531
 O607 O 0.25089 0.79109 0.82601
 O608 O 0.28301 0.75012 0.83444
 O609 O 0.17425 0.75015 0.79112
 O610 O 0.16750 0.71565 0.75044
 O611 O 0.20956 0.82591 0.74922
 O612 O 0.25050 0.83387 0.71701
 Zr613 Zr 0.24920 0.80238 0.75096
 O614 O 0.27665 0.77710 0.72390
 Zr615 Zr 0.19757 0.75102 0.75129
 O616 O 0.22263 0.72368 0.72376
 Zr617 Zr 0.24917 0.75127 0.80279
 O618 O 0.27632 0.72357 0.77781
 Zr619 Zr 0.25104 0.74899 0.69789
 O620 O 0.22325 0.77670 0.72265
 Zr621 Zr 0.30241 0.74895 0.74961
 O622 O 0.27757 0.77694 0.77703
 Zr623 Zr 0.25059 0.69773 0.74962
 O624 O 0.22315 0.72286 0.77738
 O625 O 0.22193 0.77835 0.77836
 O626 O 0.27831 0.72147 0.72214
 C627 C 0.25159 0.81784 0.81734
 C628 C 0.18274 0.81744 0.74813
 C629 C 0.18275 0.74943 0.81793
 C630 C 0.25096 0.68259 0.68307
 C631 C 0.31751 0.74838 0.68306
 C632 C 0.31701 0.68237 0.74971
 H633 H 0.28892 0.79032 0.71193
 H634 H 0.28830 0.71147 0.79118
 H635 H 0.20943 0.79103 0.79074
 H636 H 0.20944 0.71173 0.71140
 H637 H 0.20211 0.76221 0.67270
 H638 H 0.16963 0.74105 0.70287
 H639 H 0.33060 0.73528 0.79715
 H640 H 0.29840 0.76377 0.82755
 H641 H 0.26584 0.79680 0.67027
 H642 H 0.23682 0.82696 0.70164
 H643 H 0.26357 0.66965 0.79736
 H644 H 0.23689 0.70225 0.82793
 H645 H 0.29848 0.82724 0.76292
 H646 H 0.33088 0.79637 0.73621
 H647 H 0.17343 0.70191 0.76614
 H648 H 0.20309 0.66959 0.73562
 O649 O 0.24861 0.32576 0.71009
 O650 O 0.21679 0.33392 0.75089
 O651 O 0.32540 0.29046 0.75190
 O652 O 0.33641 0.25243 0.78040
 O653 O 0.28985 0.24951 0.67417
 O654 O 0.24930 0.21747 0.66581
 O655 O 0.24860 0.20913 0.82626
 O656 O 0.28257 0.24755 0.83430
 O657 O 0.17368 0.24826 0.79080
 O658 O 0.16422 0.28108 0.74923
 O659 O 0.20953 0.17363 0.75104
 O660 O 0.25138 0.16483 0.71822
 O661 O 0.24883 0.17397 0.79089
 O662 O 0.28265 0.16549 0.74906
 O663 O 0.17402 0.20861 0.75114
 O664 O 0.16511 0.25076 0.71762
 O665 O 0.20885 0.24806 0.82619
 O666 O 0.24901 0.28200 0.83528
 O667 O 0.24856 0.29064 0.67462
 O668 O 0.21643 0.24957 0.66632
 O669 O 0.32525 0.24989 0.70939
 O670 O 0.33207 0.21546 0.75022
 O671 O 0.29001 0.32566 0.75130
 O672 O 0.24909 0.33357 0.78357
 Zr673 Zr 0.25037 0.30205 0.74964
 O674 O 0.22294 0.27676 0.77675
 Zr675 Zr 0.30202 0.25080 0.74931
 O676 O 0.27700 0.22348 0.77694
 Zr677 Zr 0.25034 0.25086 0.69790
 O678 O 0.22326 0.22313 0.72295
 Zr679 Zr 0.24856 0.24874 0.80279
 O680 O 0.27635 0.27644 0.77796
 Zr681 Zr 0.19717 0.24850 0.75111
 O682 O 0.22197 0.27653 0.72365
 Zr683 Zr 0.24905 0.19740 0.75116
 O684 O 0.27642 0.22255 0.72330
 O685 O 0.27761 0.27803 0.72223
 O686 O 0.22131 0.22112 0.77861
 C687 C 0.24787 0.31740 0.68324
 C688 C 0.31684 0.31725 0.75235
 C689 C 0.31670 0.24912 0.68259
 C690 C 0.24868 0.18236 0.81773
 C691 C 0.18206 0.24807 0.81764
 C692 C 0.18266 0.18188 0.75105
 H693 H 0.21066 0.28997 0.78870
 H694 H 0.21129 0.21098 0.70960
 H695 H 0.29008 0.29072 0.70982
 H696 H 0.29021 0.21158 0.78932
 H697 H 0.29752 0.26197 0.82796
 H698 H 0.33003 0.24106 0.79772
 H699 H 0.16892 0.23464 0.70364
 H700 H 0.20108 0.26329 0.67316
 H701 H 0.23375 0.29655 0.83036
 H702 H 0.26282 0.32671 0.79891
 H703 H 0.23612 0.16922 0.70346
 H704 H 0.26261 0.20184 0.67279
 H705 H 0.20107 0.32683 0.73771
 H706 H 0.16875 0.29595 0.76433
 H707 H 0.32618 0.20172 0.73449
 H708 H 0.29658 0.16940 0.76521
 O709 O 0.75165 0.67424 0.70958
 O710 O 0.78356 0.66580 0.75027
 O711 O 0.67491 0.70913 0.75177
 O712 O 0.66387 0.74698 0.78046
 O713 O 0.71026 0.75065 0.67423
 O714 O 0.75074 0.78283 0.66607
 O715 O 0.75181 0.78999 0.82660
 O716 O 0.71788 0.75151 0.83440
 O717 O 0.82666 0.75123 0.79074
 O718 O 0.83607 0.71871 0.74891
 O719 O 0.79061 0.82610 0.75159
 O720 O 0.74874 0.83512 0.71890
 O721 O 0.75144 0.82539 0.79147
 O722 O 0.71746 0.83411 0.74970
 O723 O 0.82617 0.79117 0.75141
 O724 O 0.83508 0.74930 0.71754
 O725 O 0.79158 0.75113 0.82619
 O726 O 0.75142 0.71702 0.83503
 O727 O 0.75159 0.70960 0.67433
 O728 O 0.78367 0.75076 0.66632
 O729 O 0.67493 0.74997 0.70948
 O730 O 0.66817 0.78416 0.75058
 O731 O 0.71034 0.67398 0.75086
 O732 O 0.75135 0.66588 0.78299
 Zr733 Zr 0.74995 0.69764 0.74930
 O734 O 0.77741 0.72277 0.77656
 Zr735 Zr 0.69823 0.74883 0.74938
 O736 O 0.72328 0.77598 0.77719
 Zr737 Zr 0.74982 0.74920 0.69791
 O738 O 0.77690 0.77678 0.72313
 Zr739 Zr 0.75181 0.75056 0.80283
 O740 O 0.72399 0.72302 0.77783
 Zr741 Zr 0.80308 0.75124 0.75109
 O742 O 0.77826 0.72338 0.72345
 Zr743 Zr 0.75113 0.80227 0.75156
 O744 O 0.72375 0.77730 0.72354
 O745 O 0.72262 0.72182 0.72209
 O746 O 0.77896 0.77839 0.77880
 C747 C 0.75232 0.68278 0.68277
 C748 C 0.68350 0.68235 0.75203
 C749 C 0.68343 0.75093 0.68268
 C750 C 0.75169 0.81682 0.81825
 C751 C 0.81835 0.75122 0.81759
 C752 C 0.81749 0.81789 0.75155
 H753 H 0.78973 0.70948 0.78839
 H754 H 0.78883 0.78906 0.70987
 H755 H 0.71014 0.70920 0.70961
 H756 H 0.71008 0.78777 0.78968
 H757 H 0.70291 0.73716 0.82797
 H758 H 0.67030 0.75814 0.79788
 H759 H 0.83123 0.76552 0.70370
 H760 H 0.79904 0.73702 0.67305
 H761 H 0.76681 0.70261 0.83008
 H762 H 0.73767 0.67262 0.79842
 H763 H 0.76392 0.83080 0.70404
 H764 H 0.73741 0.79839 0.67318
 H765 H 0.79925 0.67301 0.73713
 H766 H 0.83160 0.70374 0.76392
 H767 H 0.67398 0.79797 0.73489
 H768 H 0.70363 0.83013 0.76591
 O769 O 0.24880 0.67424 0.29035
 O770 O 0.21696 0.66587 0.24961
 O771 O 0.32527 0.71021 0.24837
 O772 O 0.33604 0.74840 0.22006
 O773 O 0.28967 0.75072 0.32630
 O774 O 0.24897 0.78250 0.33473
 O775 O 0.24786 0.79094 0.17427
 O776 O 0.28196 0.75276 0.16614
 O777 O 0.17320 0.75126 0.20984
 O778 O 0.16411 0.71824 0.25144
 O779 O 0.20869 0.82607 0.24952
 O780 O 0.25045 0.83527 0.28228
 O781 O 0.24796 0.82607 0.20966
 O782 O 0.28181 0.83474 0.25155
 O783 O 0.17340 0.79083 0.24949
 O784 O 0.16480 0.74865 0.28299
 O785 O 0.20828 0.75181 0.17438
 O786 O 0.24865 0.71805 0.16525
 O787 O 0.24859 0.70932 0.32586
 O788 O 0.21626 0.75017 0.33425
 O789 O 0.32498 0.75063 0.29102
 O790 O 0.33144 0.78527 0.25023
 O791 O 0.29011 0.67474 0.24902
 O792 O 0.24914 0.66650 0.21688
 Zr793 Zr 0.25032 0.69800 0.25082
 O794 O 0.22267 0.72309 0.22377
 Zr795 Zr 0.30166 0.74966 0.25114
 O796 O 0.27641 0.77679 0.22355
 Zr797 Zr 0.25011 0.74914 0.30263
 O798 O 0.22280 0.77668 0.27762
 Zr799 Zr 0.24806 0.75132 0.19772
 O800 O 0.27609 0.72384 0.22250
 Zr801 Zr 0.19680 0.75113 0.24948
 O802 O 0.22184 0.72328 0.27689
 Zr803 Zr 0.24836 0.80263 0.24939
 O804 O 0.27594 0.77768 0.27721
 O805 O 0.27748 0.72220 0.27822
 O806 O 0.22070 0.77872 0.22197
 C807 C 0.24805 0.68256 0.31721
 C808 C 0.31688 0.68336 0.24788
 C809 C 0.31649 0.75128 0.31784
 C810 C 0.24783 0.81770 0.18282
 C811 C 0.18151 0.75159 0.18298
 C812 C 0.18188 0.81761 0.24954
 H813 H 0.21044 0.70980 0.21183
 H814 H 0.21078 0.78873 0.29099
 H815 H 0.29006 0.70958 0.29058
 H816 H 0.28952 0.78879 0.21116
 H817 H 0.29704 0.73850 0.17248
 H818 H 0.32950 0.75960 0.20270
 H819 H 0.16858 0.76474 0.29701
 H820 H 0.20098 0.73637 0.32741
 H821 H 0.23332 0.70350 0.17006
 H822 H 0.26272 0.67351 0.20148
 H823 H 0.23537 0.83064 0.29715
 H824 H 0.26218 0.79823 0.32774
 H825 H 0.20120 0.67284 0.26278
 H826 H 0.16859 0.70351 0.23620
 H827 H 0.32557 0.79887 0.26607
 H828 H 0.29568 0.83101 0.23533
 O829 O 0.75046 0.32586 0.29020
 O830 O 0.78207 0.33452 0.24935
 O831 O 0.67383 0.29002 0.24838
 O832 O 0.66302 0.25198 0.21981
 O833 O 0.70985 0.24915 0.32590
 O834 O 0.75065 0.21737 0.33400
 O835 O 0.75105 0.20980 0.17350
 O836 O 0.71682 0.24795 0.16571
 O837 O 0.82578 0.24940 0.20901
 O838 O 0.83497 0.28229 0.25076
 O839 O 0.79064 0.17436 0.24846
 O840 O 0.74902 0.16491 0.28131
 O841 O 0.75121 0.17450 0.20872
 O842 O 0.71756 0.16552 0.25067
 O843 O 0.82585 0.20969 0.24848
 O844 O 0.83455 0.25168 0.28211
 O845 O 0.79054 0.24899 0.17368
 O846 O 0.75007 0.28274 0.16487
 O847 O 0.75087 0.29060 0.32555
 O848 O 0.78329 0.24977 0.33359
 O849 O 0.67438 0.24935 0.29075
 O850 O 0.66778 0.21494 0.24981
 O851 O 0.70894 0.32554 0.24908
 O852 O 0.74970 0.33402 0.21679
 Zr853 Zr 0.74877 0.30233 0.25055
 O854 O 0.77633 0.27743 0.22326
 Zr855 Zr 0.69752 0.25058 0.25079
 O856 O 0.72270 0.22364 0.22297
 Zr857 Zr 0.74931 0.25091 0.30209
 O858 O 0.77655 0.22357 0.27685
 Zr859 Zr 0.75087 0.24929 0.19716
 O860 O 0.72291 0.27660 0.22219
 Zr861 Zr 0.80237 0.24932 0.24874
 O862 O 0.77741 0.27697 0.27639
 Zr863 Zr 0.75091 0.19772 0.24858
 O864 O 0.72340 0.22246 0.27662
 O865 O 0.72178 0.27793 0.27793
 O866 O 0.77839 0.22183 0.22117
 C867 C 0.75135 0.31740 0.31702
 C868 C 0.68218 0.31688 0.24803
 C869 C 0.68299 0.24858 0.31754
 C870 C 0.75120 0.18299 0.18191
 C871 C 0.81735 0.24919 0.18219
 C872 C 0.81743 0.18288 0.24843
 H873 H 0.78848 0.29081 0.21134
 H874 H 0.78866 0.21147 0.29011
 H875 H 0.70924 0.29047 0.29041
 H876 H 0.70955 0.21167 0.21057
 H877 H 0.70175 0.26216 0.17217
 H878 H 0.66948 0.24082 0.20240
 H879 H 0.83082 0.23555 0.29611
 H880 H 0.79853 0.26363 0.32677
 H881 H 0.76539 0.29728 0.16970
 H882 H 0.73606 0.32706 0.20140
 H883 H 0.76416 0.16948 0.29614
 H884 H 0.73740 0.20167 0.32699
 H885 H 0.79790 0.32751 0.26243
 H886 H 0.83046 0.29702 0.23552
 H887 H 0.67377 0.20124 0.26552
 H888 H 0.70359 0.16932 0.23452
 C889 C 0.25154 0.11845 0.12008
 C890 C 0.23733 0.09175 0.12501
 C891 C 0.23693 0.07027 0.10320
 C892 C 0.25072 0.07514 0.07594
 C893 C 0.26508 0.10216 0.07140
 C894 C 0.26544 0.12359 0.09327
 C895 C 0.25155 0.14071 0.14240
 C896 C 0.25130 0.15943 0.16103
 H897 H 0.22635 0.08762 0.14566
 H898 H 0.22514 0.05009 0.10738
 H899 H 0.27664 0.10651 0.05112
 H900 H 0.27664 0.14414 0.08928
 C901 C 0.75319 0.61961 0.61963
 C902 C 0.77450 0.61973 0.59755
 C903 C 0.77432 0.59803 0.57594
 C904 C 0.75282 0.57601 0.57626
 C905 C 0.73142 0.57606 0.59837
 C906 C 0.73164 0.59776 0.61998
 C907 C 0.75328 0.64196 0.64186
 C908 C 0.75306 0.66062 0.66053
 H909 H 0.79124 0.63658 0.59706
 H910 H 0.79096 0.59829 0.55901
 H911 H 0.71460 0.55930 0.59883
 H912 H 0.71500 0.59751 0.63692
 C913 C 0.74790 0.88089 0.11888
 C914 C 0.76150 0.87567 0.09193
 C915 C 0.76180 0.89739 0.07034
 C916 C 0.74846 0.92484 0.07533
 C917 C 0.73481 0.92971 0.10267
 C918 C 0.73455 0.90793 0.12419
 C919 C 0.74793 0.85861 0.14118
 C920 C 0.74821 0.83994 0.15987
 H921 H 0.77210 0.85487 0.08767
 H922 H 0.77320 0.89296 0.05001
 H923 H 0.72371 0.95018 0.10720
 H924 H 0.72386 0.91217 0.14496
 C925 C 0.24692 0.38054 0.62006
 C926 C 0.26843 0.38016 0.59819
 C927 C 0.26858 0.40168 0.57640
 C928 C 0.24715 0.42374 0.57629
 C929 C 0.22569 0.42410 0.59833
 C930 C 0.22557 0.40257 0.62012
 C931 C 0.24685 0.35835 0.64245
 C932 C 0.24710 0.33968 0.66112
 H933 H 0.28508 0.36325 0.59798
 H934 H 0.28537 0.40119 0.55963
 H935 H 0.20902 0.44099 0.59854
 H936 H 0.20885 0.40308 0.63697
 C937 C 0.74930 0.11996 0.88106
 C938 C 0.73002 0.09613 0.87932
 C939 C 0.73058 0.07435 0.90084
 C940 C 0.75050 0.07616 0.92426
 C941 C 0.76966 0.10018 0.92599
 C942 C 0.76907 0.12196 0.90446
 C943 C 0.74904 0.14218 0.85869
 C944 C 0.74913 0.16078 0.83994
 H945 H 0.71463 0.09438 0.86132
 H946 H 0.71551 0.05606 0.89929
 H947 H 0.78514 0.10193 0.94391
 H948 H 0.78409 0.14030 0.90600
 C949 C 0.24725 0.61930 0.38027
 C950 C 0.22586 0.59728 0.38018
 C951 C 0.22595 0.57572 0.40194
 C952 C 0.24743 0.57604 0.42399
 C953 C 0.26891 0.59809 0.42390
 C954 C 0.26879 0.61964 0.40215
 C955 C 0.24718 0.64154 0.35793
 C956 C 0.24738 0.66025 0.33930
 H957 H 0.20913 0.59681 0.36333
 H958 H 0.20925 0.55885 0.40171
 H959 H 0.28571 0.59855 0.44068
 H960 H 0.28547 0.63654 0.40238
 C961 C 0.25245 0.88125 0.88028
 C962 C 0.26617 0.87617 0.90720
 C963 C 0.26567 0.89762 0.92905
 C964 C 0.25135 0.92463 0.92436
 C965 C 0.23776 0.92945 0.89699
 C966 C 0.23830 0.90794 0.87520
 C967 C 0.25254 0.85894 0.85801
 C968 C 0.25232 0.84019 0.83941
 H969 H 0.27732 0.85562 0.91131
 H970 H 0.27708 0.89331 0.94942
 H971 H 0.22601 0.94961 0.89268
 H972 H 0.22745 0.91203 0.85448
 C973 C 0.75240 0.38073 0.38000
 C974 C 0.73090 0.40261 0.37966
 C975 C 0.73081 0.42435 0.40122
 C976 C 0.75229 0.42442 0.42328
 C977 C 0.77374 0.40239 0.42358
 C978 C 0.77380 0.38064 0.40201
 C979 C 0.75238 0.35834 0.35782
 C980 C 0.75210 0.33962 0.33920
 H981 H 0.71421 0.40283 0.36277
 H982 H 0.71403 0.44111 0.40078
 H983 H 0.79044 0.40214 0.44047
 H984 H 0.79050 0.36378 0.40249
 C985 C 0.11889 0.25158 0.11928
 C986 C 0.09155 0.23891 0.12490
 C987 C 0.06991 0.23872 0.10321
 C988 C 0.07524 0.25123 0.07542
 C989 C 0.10297 0.26393 0.07016
 C990 C 0.12454 0.26409 0.09191
 C991 C 0.14122 0.25148 0.14154
 C992 C 0.15993 0.25120 0.16019
 H993 H 0.08702 0.22896 0.14598
 H994 H 0.04925 0.22801 0.10795
 H995 H 0.10779 0.27440 0.04941
 H996 H 0.14562 0.27406 0.08738
 C997 C 0.62045 0.75131 0.61922
 C998 C 0.62093 0.72979 0.59735
 C999 C 0.59919 0.72929 0.57576
 C1000 C 0.57674 0.75031 0.57588
 C1001 C 0.57644 0.77195 0.59776
 C1002 C 0.59818 0.77242 0.61935
 C1003 C 0.64264 0.75155 0.64164
 C1004 C 0.66125 0.75146 0.66041
 H1005 H 0.63805 0.71335 0.59706
 H1006 H 0.59971 0.71245 0.55904
 H1007 H 0.55933 0.78839 0.59809
 H1008 H 0.59761 0.78916 0.63617
 C1009 C 0.11952 0.74912 0.88104
 C1010 C 0.09272 0.73503 0.87619
 C1011 C 0.07102 0.73536 0.89781
 C1012 C 0.07578 0.74978 0.92475
 C1013 C 0.10290 0.76402 0.92921
 C1014 C 0.12453 0.76364 0.90754
 C1015 C 0.14181 0.74889 0.85876
 C1016 C 0.16052 0.74896 0.84012
 H1017 H 0.08864 0.72367 0.85575
 H1018 H 0.05073 0.72371 0.89371
 H1019 H 0.10715 0.77605 0.94923
 H1020 H 0.14512 0.77484 0.91142
 C1021 C 0.62012 0.24811 0.38103
 C1022 C 0.62060 0.26972 0.40282
 C1023 C 0.59883 0.27027 0.42437
 C1024 C 0.57639 0.24921 0.42429
 C1025 C 0.57609 0.22750 0.40248
 C1026 C 0.59785 0.22698 0.38093
 C1027 C 0.64231 0.24786 0.35863
 C1028 C 0.66089 0.24797 0.33985
 H1029 H 0.63771 0.28618 0.40308
 H1030 H 0.59936 0.28716 0.44103
 H1031 H 0.55898 0.21104 0.40219
 H1032 H 0.59728 0.21018 0.36417
 C1033 C 0.88012 0.74782 0.11830
 C1034 C 0.90681 0.73354 0.12304
 C1035 C 0.92839 0.73364 0.10130
 C1036 C 0.92360 0.74799 0.07433
 C1037 C 0.89660 0.76243 0.06998
 C1038 C 0.87509 0.76229 0.09176
 C1039 C 0.85798 0.74789 0.14073
 C1040 C 0.83939 0.74819 0.15949
 H1041 H 0.91092 0.72223 0.14351
 H1042 H 0.94862 0.72190 0.10535
 H1043 H 0.89238 0.77448 0.04997
 H1044 H 0.85459 0.77365 0.08797
 C1045 C 0.37970 0.24881 0.61923
 C1046 C 0.40188 0.22762 0.61937
 C1047 C 0.42366 0.22806 0.59783
 C1048 C 0.42346 0.24975 0.57600
 C1049 C 0.40111 0.27088 0.57589
 C1050 C 0.37933 0.27041 0.59743
 C1051 C 0.35746 0.24858 0.64158
 C1052 C 0.33885 0.24865 0.66032
 H1053 H 0.40236 0.21082 0.63614
 H1054 H 0.44069 0.21155 0.59815
 H1055 H 0.40067 0.28775 0.55921
 H1056 H 0.36228 0.28691 0.59714
 C1057 C 0.88169 0.25203 0.88029
 C1058 C 0.90879 0.23885 0.87480
 C1059 C 0.93030 0.23818 0.89660
 C1060 C 0.92503 0.25061 0.92443
 C1061 C 0.89763 0.26406 0.92949
 C1062 C 0.87619 0.26470 0.90762
 C1063 C 0.85938 0.25221 0.85802
 C1064 C 0.84063 0.25207 0.83941
 H1065 H 0.91322 0.22885 0.85372
 H1066 H 0.95081 0.22719 0.89194
 H1067 H 0.89298 0.27474 0.95016
 H1068 H 0.85533 0.27514 0.91204
 C1069 C 0.37967 0.75153 0.38111
 C1070 C 0.37935 0.72985 0.40282
 C1071 C 0.40119 0.72930 0.42431
 C1072 C 0.42356 0.75043 0.42426
 C1073 C 0.42371 0.77222 0.40252
 C1074 C 0.40187 0.77274 0.38102
 C1075 C 0.35737 0.75183 0.35879
 C1076 C 0.33870 0.75178 0.34008
 H1077 H 0.36229 0.71333 0.40307
 H1078 H 0.40078 0.71235 0.44092
 H1079 H 0.44076 0.78875 0.40225
 H1080 H 0.40232 0.78960 0.36433
 C1081 C 0.11838 0.11938 0.25302
 C1082 C 0.10545 0.11096 0.22650
 C1083 C 0.08391 0.08919 0.22612
 C1084 C 0.07505 0.07559 0.25232
 C1085 C 0.08816 0.08418 0.27888
 C1086 C 0.10971 0.10596 0.27920
 C1087 C 0.14066 0.14168 0.25325
 C1088 C 0.15936 0.16033 0.25304
 H1089 H 0.11207 0.12116 0.20611
 H1090 H 0.07434 0.08273 0.20537
 H1091 H 0.08156 0.07413 0.29936
 H1092 H 0.11959 0.11233 0.29984
 C1093 C 0.62046 0.61895 0.75296
 C1094 C 0.59832 0.61909 0.77421
 C1095 C 0.57649 0.59758 0.77382
 C1096 C 0.57659 0.57576 0.75211
 C1097 C 0.59890 0.57566 0.73092
 C1098 C 0.62073 0.59716 0.73135
 C1099 C 0.64272 0.64131 0.75309
 C1100 C 0.66136 0.66005 0.75284
 H1101 H 0.59790 0.63585 0.79102
 H1102 H 0.55949 0.59790 0.79038
 H1103 H 0.59928 0.55899 0.71403
 H1104 H 0.63773 0.59687 0.71479
 C1105 C 0.88172 0.12001 0.74643
 C1106 C 0.90399 0.12060 0.76756
 C1107 C 0.92574 0.09905 0.76755
 C1108 C 0.92542 0.07676 0.74635
 C1109 C 0.90300 0.07621 0.72527
 C1110 C 0.88125 0.09776 0.72531
 C1111 C 0.85928 0.14214 0.74661
 C1112 C 0.84052 0.16072 0.74705
 H1113 H 0.90451 0.13767 0.78404
 H1114 H 0.94279 0.09967 0.78407
 H1115 H 0.90244 0.05911 0.70882
 H1116 H 0.86408 0.09708 0.70891
 C1117 C 0.38014 0.62036 0.24619
 C1118 C 0.38671 0.60514 0.27203
 C1119 C 0.40824 0.58338 0.27196
 C1120 C 0.42328 0.57663 0.24601
 C1121 C 0.41676 0.59201 0.22020
 C1122 C 0.39523 0.61379 0.22029
 C1123 C 0.35787 0.64266 0.24634
 C1124 C 0.33917 0.66128 0.24681
 H1125 H 0.37519 0.61009 0.29219
 H1126 H 0.41315 0.57172 0.29205
 H1127 H 0.42830 0.58705 0.20006
 H1128 H 0.39034 0.62546 0.20021
 C1129 C 0.11947 0.88046 0.74704
 C1130 C 0.12380 0.90683 0.73206
 C1131 C 0.10211 0.92845 0.73243
 C1132 C 0.07562 0.92402 0.74778
 C1133 C 0.07168 0.89731 0.76286
 C1134 C 0.09340 0.87577 0.76245
 C1135 C 0.14187 0.85829 0.74693
 C1136 C 0.16057 0.83966 0.74722
 H1137 H 0.14390 0.91067 0.72002
 H1138 H 0.10580 0.94843 0.72015
 H1139 H 0.05203 0.89335 0.77559
 H1140 H 0.08994 0.85551 0.77433
 C1141 C 0.61883 0.37981 0.24755
 C1142 C 0.61272 0.39593 0.22215
 C1143 C 0.59125 0.41777 0.22265
 C1144 C 0.57581 0.42366 0.24859
 C1145 C 0.58189 0.40737 0.27394
 C1146 C 0.60334 0.38554 0.27342
 C1147 C 0.64112 0.35755 0.24720
 C1148 C 0.65985 0.33895 0.24731
 H1149 H 0.62457 0.39167 0.20203
 H1150 H 0.58668 0.43013 0.20292
 H1151 H 0.57007 0.41166 0.29407
 H1152 H 0.60790 0.37318 0.29317
 C1153 C 0.88117 0.88049 0.25307
 C1154 C 0.88004 0.90331 0.23260
 C1155 C 0.90152 0.92514 0.23276
 C1156 C 0.92428 0.92439 0.25348
 C1157 C 0.92541 0.90136 0.27385
 C1158 C 0.90392 0.87952 0.27366
 C1159 C 0.85900 0.85808 0.25283
 C1160 C 0.84032 0.83942 0.25235
 H1161 H 0.86258 0.90421 0.21652
 H1162 H 0.90045 0.94263 0.21675
 H1163 H 0.94286 0.90044 0.28993
 H1164 H 0.90502 0.86192 0.28955
 C1165 C 0.37990 0.38063 0.75332
 C1166 C 0.37951 0.40248 0.73178
 C1167 C 0.40132 0.42400 0.73131
 C1168 C 0.42375 0.42383 0.75239
 C1169 C 0.42399 0.40195 0.77403
 C1170 C 0.40216 0.38043 0.77447
 C1171 C 0.35765 0.35827 0.75347
 C1172 C 0.33901 0.33953 0.75322
 H1173 H 0.36241 0.40282 0.71530
 H1174 H 0.40084 0.44071 0.71446
 H1175 H 0.44108 0.40159 0.79051
 H1176 H 0.40268 0.36362 0.79122
 C1177 C 0.11888 0.24836 0.88088
 C1178 C 0.12492 0.26074 0.90824
 C1179 C 0.10343 0.26109 0.93006
 C1180 C 0.07539 0.24898 0.92493
 C1181 C 0.06965 0.23670 0.89710
 C1182 C 0.09122 0.23638 0.87534
 C1183 C 0.14109 0.24809 0.85847
 C1184 C 0.15977 0.24800 0.83980
 H1185 H 0.14621 0.27029 0.91269
 H1186 H 0.10856 0.27158 0.95072
 H1187 H 0.04868 0.22661 0.89237
 H1188 H 0.08634 0.22665 0.85424
 C1189 C 0.61966 0.74943 0.38019
 C1190 C 0.61985 0.72800 0.40215
 C1191 C 0.59814 0.72796 0.42377
 C1192 C 0.57603 0.74935 0.42357
 C1193 C 0.57601 0.77086 0.40157
 C1194 C 0.59772 0.77087 0.37996
 C1195 C 0.64196 0.74943 0.35790
 C1196 C 0.66063 0.74945 0.33922
 H1197 H 0.63673 0.71133 0.40254
 H1198 H 0.59845 0.71123 0.44060
 H1199 H 0.55919 0.78759 0.40120
 H1200 H 0.59740 0.78757 0.36309
 C1201 C 0.88201 0.75072 0.88043
 C1202 C 0.89121 0.72409 0.89254
 C1203 C 0.91289 0.72370 0.91420
 C1204 C 0.92566 0.75000 0.92399
 C1205 C 0.91632 0.77666 0.91168
 C1206 C 0.89463 0.77699 0.89001
 C1207 C 0.85955 0.75106 0.85826
 C1208 C 0.84072 0.75121 0.83970
 H1209 H 0.88160 0.70363 0.88527
 H1210 H 0.91982 0.70289 0.92327
 H1211 H 0.92558 0.79723 0.91911
 H1212 H 0.88762 0.79773 0.88084
 C1213 C 0.38016 0.25109 0.38049
 C1214 C 0.40204 0.22960 0.38018
 C1215 C 0.42383 0.22953 0.40172
 C1216 C 0.42394 0.25102 0.42374
 C1217 C 0.40191 0.27248 0.42401
 C1218 C 0.38012 0.27251 0.40246
 C1219 C 0.35777 0.25113 0.35829
 C1220 C 0.33903 0.25109 0.33967
 H1221 H 0.40225 0.21290 0.36330
 H1222 H 0.44060 0.21275 0.40130
 H1223 H 0.40169 0.28919 0.44086
 H1224 H 0.36328 0.28922 0.40291
 C1225 C 0.11801 0.75147 0.12000
 C1226 C 0.09422 0.73218 0.12218
 C1227 C 0.07269 0.73177 0.10036
 C1228 C 0.07477 0.75065 0.07614
 C1229 C 0.09860 0.77006 0.07416
 C1230 C 0.12012 0.77044 0.09598
 C1231 C 0.14037 0.75162 0.14228
 C1232 C 0.15915 0.75166 0.16088
 H1233 H 0.09238 0.71740 0.14066
 H1234 H 0.05450 0.71662 0.10221
 H1235 H 0.10049 0.78488 0.05571
 H1236 H 0.13842 0.78546 0.09409
 C1237 C 0.61955 0.25090 0.61993
 C1238 C 0.59757 0.22947 0.62026
 C1239 C 0.57584 0.22941 0.59866
 C1240 C 0.57589 0.25082 0.57656
 C1241 C 0.59803 0.27219 0.57626
 C1242 C 0.61977 0.27223 0.59787
 C1243 C 0.64190 0.25095 0.64218
 C1244 C 0.66064 0.25096 0.66080
 H1245 H 0.59724 0.21285 0.63720
 H1246 H 0.55898 0.21269 0.59911
 H1247 H 0.59837 0.28885 0.55936
 H1248 H 0.63669 0.28888 0.59740
 C1249 C 0.88070 0.24944 0.11913
 C1250 C 0.90525 0.23124 0.12182
 C1251 C 0.92691 0.23134 0.10014
 C1252 C 0.92418 0.24965 0.07555
 C1253 C 0.89956 0.26796 0.07305
 C1254 C 0.87792 0.26782 0.09472
 C1255 C 0.85836 0.24927 0.14139
 C1256 C 0.83962 0.24920 0.16002
 H1257 H 0.90762 0.21694 0.14063
 H1258 H 0.94572 0.21706 0.10241
 H1259 H 0.89718 0.28235 0.05432
 H1260 H 0.85905 0.28203 0.09246
 C1261 C 0.38078 0.74828 0.61998
 C1262 C 0.38058 0.72695 0.59791
 C1263 C 0.40226 0.72706 0.57627
 C1264 C 0.42435 0.74850 0.57655
 C1265 C 0.42438 0.76990 0.59865
 C1266 C 0.40270 0.76976 0.62029
 C1267 C 0.35847 0.74819 0.64225
 C1268 C 0.33978 0.74821 0.66091
 H1269 H 0.36369 0.71026 0.59746
 H1270 H 0.40194 0.71042 0.55936
 H1271 H 0.44119 0.78667 0.59909
 H1272 H 0.40302 0.78639 0.63723
 C1273 C 0.24915 0.11908 0.88083
 C1274 C 0.23030 0.09495 0.87872
 C1275 C 0.23052 0.07335 0.90046
 C1276 C 0.24959 0.07572 0.92452
 C1277 C 0.26854 0.09991 0.92644
 C1278 C 0.26829 0.12150 0.90471
 C1279 C 0.24888 0.14137 0.85853
 C1280 C 0.24873 0.16008 0.83989
 H1281 H 0.21542 0.09286 0.86033
 H1282 H 0.21574 0.05486 0.89864
 H1283 H 0.28351 0.10201 0.94476
 H1284 H 0.28300 0.14005 0.90653
 C1285 C 0.74952 0.62051 0.38076
 C1286 C 0.72833 0.59830 0.38071
 C1287 C 0.72889 0.57652 0.40225
 C1288 C 0.75070 0.57676 0.42399
 C1289 C 0.77181 0.59915 0.42401
 C1290 C 0.77122 0.62092 0.40248
 C1291 C 0.74913 0.64276 0.35842
 C1292 C 0.74896 0.66137 0.33968
 H1293 H 0.71144 0.59779 0.36402
 H1294 H 0.71238 0.55946 0.40200
 H1295 H 0.78877 0.59962 0.44063
 H1296 H 0.78771 0.63801 0.40271
 C1297 C 0.75080 0.11964 0.11888
 C1298 C 0.76414 0.12461 0.09175
 C1299 C 0.76381 0.10284 0.07021
 C1300 C 0.75012 0.07558 0.07544
 C1301 C 0.73675 0.07097 0.10296
 C1302 C 0.73710 0.09280 0.12443
 C1303 C 0.75108 0.14208 0.14104
 C1304 C 0.75121 0.16080 0.15967
 H1305 H 0.77493 0.14528 0.08728
 H1306 H 0.77497 0.10707 0.04969
 H1307 H 0.72532 0.05070 0.10767
 H1308 H 0.72655 0.08879 0.14531
 C1309 C 0.25023 0.61920 0.62011
 C1310 C 0.22855 0.59747 0.62056
 C1311 C 0.22794 0.57591 0.59881
 C1312 C 0.24902 0.57592 0.57641
 C1313 C 0.27080 0.59768 0.57612
 C1314 C 0.27138 0.61924 0.59787
 C1315 C 0.25065 0.64154 0.64235
 C1316 C 0.25087 0.66028 0.66095
 H1317 H 0.21208 0.59725 0.63766
 H1318 H 0.21100 0.55929 0.59933
 H1319 H 0.28729 0.59791 0.55905
 H1320 H 0.28825 0.63594 0.59732
 C1321 C 0.75172 0.88015 0.88130
 C1322 C 0.73222 0.90373 0.87915
 C1323 C 0.73223 0.92565 0.90054
 C1324 C 0.75184 0.92423 0.92425
 C1325 C 0.77124 0.90045 0.92638
 C1326 C 0.77120 0.87853 0.90497
 C1327 C 0.75177 0.85769 0.85916
 C1328 C 0.75176 0.83897 0.84053
 H1329 H 0.71702 0.90517 0.86095
 H1330 H 0.71696 0.94371 0.89868
 H1331 H 0.78646 0.89899 0.94454
 H1332 H 0.78636 0.86037 0.90686
 C1333 C 0.25000 0.38045 0.38029
 C1334 C 0.27114 0.38044 0.40256
 C1335 C 0.27061 0.40205 0.42426
 C1336 C 0.24889 0.42383 0.42390
 C1337 C 0.22782 0.42382 0.40146
 C1338 C 0.22838 0.40221 0.37976
 C1339 C 0.25036 0.35805 0.35811
 C1340 C 0.25052 0.33928 0.33953
 H1341 H 0.28796 0.36371 0.40316
 H1342 H 0.28709 0.40182 0.44136
 H1343 H 0.21093 0.44047 0.40088
 H1344 H 0.21192 0.40242 0.36263
 C1345 C 0.24831 0.88084 0.11958
 C1346 C 0.26758 0.87840 0.09584
 C1347 C 0.26795 0.89992 0.07405
 C1348 C 0.24897 0.92408 0.07578
 C1349 C 0.22974 0.92647 0.09970
 C1350 C 0.22941 0.90493 0.12149
 C1351 C 0.24797 0.85864 0.14197
 C1352 C 0.24782 0.83997 0.16066
 H1353 H 0.28233 0.85988 0.09418
 H1354 H 0.28304 0.89781 0.05585
 H1355 H 0.21494 0.94493 0.10137
 H1356 H 0.21442 0.90704 0.13978
 C1357 C 0.74978 0.37980 0.61863
 C1358 C 0.77137 0.37941 0.59682
 C1359 C 0.77192 0.40124 0.57534
 C1360 C 0.75088 0.42367 0.57551
 C1361 C 0.72919 0.42389 0.59734
 C1362 C 0.72867 0.40206 0.61882
 C1363 C 0.74946 0.35751 0.64092
 C1364 C 0.74933 0.33889 0.65965
 H1365 H 0.78781 0.36230 0.59647
 H1366 H 0.78879 0.40077 0.55864
 H1367 H 0.71273 0.44098 0.59770
 H1368 H 0.71187 0.40256 0.63559
 C1369 C 0.11988 0.11824 0.74966
 C1370 C 0.11106 0.10451 0.77564
 C1371 C 0.08946 0.08278 0.77498
 C1372 C 0.07652 0.07443 0.74825
 C1373 C 0.08542 0.08843 0.72227
 C1374 C 0.10702 0.11016 0.72299
 C1375 C 0.14204 0.14068 0.75034
 C1376 C 0.16059 0.15950 0.75076
 H1377 H 0.12078 0.11070 0.79641
 H1378 H 0.08260 0.07268 0.79535
 H1379 H 0.07575 0.08239 0.70143
 H1380 H 0.11366 0.12067 0.70277
 C1381 C 0.61943 0.62012 0.24938
 C1382 C 0.60453 0.61412 0.22321
 C1383 C 0.58297 0.59237 0.22242
 C1384 C 0.57619 0.57643 0.24781
 C1385 C 0.59105 0.58257 0.27405
 C1386 C 0.61263 0.60432 0.27481
 C1387 C 0.64175 0.64239 0.25008
 C1388 C 0.66046 0.66103 0.25048
 H1389 H 0.60962 0.62623 0.20343
 H1390 H 0.57160 0.58787 0.20207
 H1391 H 0.58594 0.57047 0.29382
 H1392 H 0.62401 0.60880 0.29517
 C1393 C 0.11889 0.88091 0.25053
 C1394 C 0.12336 0.90725 0.23554
 C1395 C 0.10196 0.92913 0.23620
 C1396 C 0.07565 0.92505 0.25195
 C1397 C 0.07143 0.89826 0.26682
 C1398 C 0.09289 0.87645 0.26613
 C1399 C 0.14107 0.85853 0.25005
 C1400 C 0.15969 0.83982 0.24975
 H1401 H 0.14336 0.91086 0.22325
 H1402 H 0.10572 0.94902 0.22381
 H1403 H 0.05176 0.89446 0.27957
 H1404 H 0.08926 0.85616 0.27790
 C1405 C 0.62023 0.38051 0.74957
 C1406 C 0.62013 0.40266 0.72833
 C1407 C 0.59828 0.42413 0.72865
 C1408 C 0.57632 0.42360 0.75020
 C1409 C 0.57659 0.40141 0.77151
 C1410 C 0.59843 0.37995 0.77117
 C1411 C 0.64266 0.35834 0.74922
 C1412 C 0.66138 0.33972 0.74902
 H1413 H 0.63690 0.40331 0.71154
 H1414 H 0.59839 0.44111 0.71207
 H1415 H 0.55989 0.40078 0.78837
 H1416 H 0.59833 0.36293 0.78772
 C1417 C 0.88076 0.11993 0.24910
 C1418 C 0.88028 0.09731 0.22838
 C1419 C 0.90188 0.07561 0.22890
 C1420 C 0.92411 0.07636 0.25019
 C1421 C 0.92454 0.09913 0.27086
 C1422 C 0.90294 0.12083 0.27031
 C1423 C 0.85842 0.14214 0.24870
 C1424 C 0.83969 0.16074 0.24850
 H1425 H 0.86322 0.09643 0.21188
 H1426 H 0.90132 0.05823 0.21275
 H1427 H 0.94153 0.09999 0.28742
 H1428 H 0.90350 0.13824 0.28643
 C1429 C 0.38016 0.61915 0.75035
 C1430 C 0.40207 0.61966 0.77186
 C1431 C 0.42388 0.59817 0.77211
 C1432 C 0.42401 0.57600 0.75077
 C1433 C 0.40194 0.57551 0.72931
 C1434 C 0.38012 0.59701 0.72910
 C1435 C 0.35780 0.64138 0.75005
 C1436 C 0.33914 0.66007 0.74986
 H1437 H 0.40228 0.63667 0.78842
 H1438 H 0.44067 0.59877 0.78889
 H1439 H 0.40173 0.55855 0.71272
 H1440 H 0.36328 0.59640 0.71237
 C1441 C 0.88031 0.88149 0.75112
 C1442 C 0.87886 0.90434 0.73068
 C1443 C 0.90062 0.92592 0.73019
 C1444 C 0.92403 0.92483 0.75016
 C1445 C 0.92532 0.90192 0.77067
 C1446 C 0.90356 0.88035 0.77113
 C1447 C 0.85809 0.85910 0.75139
 C1448 C 0.83953 0.84029 0.75152
 H1449 H 0.86098 0.90541 0.71508
 H1450 H 0.89935 0.94337 0.71416
 H1451 H 0.94319 0.90078 0.78626
 H1452 H 0.90489 0.86277 0.78702
 C1453 C 0.37979 0.38013 0.25056
 C1454 C 0.39560 0.38635 0.27613
 C1455 C 0.41714 0.40815 0.27596
 C1456 C 0.42295 0.42391 0.25021
 C1457 C 0.40717 0.41753 0.22458
 C1458 C 0.38564 0.39573 0.22478
 C1459 C 0.35754 0.35779 0.25076
 C1460 C 0.33887 0.33910 0.25088
 H1461 H 0.39127 0.37439 0.29617
 H1462 H 0.42924 0.41283 0.29585
 H1463 H 0.41155 0.42947 0.20454
 H1464 H 0.37355 0.39106 0.20487
   
