data_POSCAR
  _audit_creation_date              2014-09-24
  _audit_creation_method            'ToBaCCo'
  _symmetry_space_group_name_H-M    'P1'
  _symmetry_Int_Tables_number       1
  _symmetry_cell_setting            triclinic
  loop_
  _symmetry_equiv_pos_as_xyz
 x,y,z
_cell_length_a 80.9140
_cell_length_b 79.7396
_cell_length_c 81.4292
_cell_angle_alpha 89.998600
_cell_angle_beta 89.995800
_cell_angle_gamma 90.014600
loop_
  _atom_site_label
  _atom_site_type_symbol
  _atom_site_fract_x
  _atom_site_fract_y
  _atom_site_fract_z
C1 C 0.35766 0.33614 0.33709
 C2 C 0.35014 0.35046 0.33038
 C3 C 0.33598 0.35746 0.33763
 C4 C 0.32939 0.34999 0.35182
 C5 C 0.33673 0.33567 0.35872
 C6 C 0.35089 0.32886 0.35129
 H7 H 0.35524 0.35608 0.31938
 H8 H 0.31841 0.35526 0.35742
 H9 H 0.35657 0.31777 0.35649
 C10 C 0.35839 0.83552 -0.16354
 C11 C 0.35083 0.84988 -0.17041
 C12 C 0.33643 0.85709 -0.16357
 C13 C 0.32966 0.84954 -0.14942
 C14 C 0.33688 0.83530 -0.14233
 C15 C 0.35117 0.82846 -0.14938
 H16 H 0.35531 0.85456 -0.18203
 H17 H 0.31889 0.85483 -0.14353
 H18 H 0.35699 0.81801 -0.14319
 C19 C 0.85771 0.33559 -0.16259
 C20 C 0.85067 0.32853 -0.14846
 C21 C 0.83645 0.33547 -0.14138
 C22 C 0.82926 0.34973 -0.14855
 C23 C 0.83602 0.35718 -0.16281
 C24 C 0.85039 0.34986 -0.16961
 H25 H 0.85646 0.31773 -0.14278
 H26 H 0.81853 0.35510 -0.14266
 H27 H 0.85545 0.35450 -0.18103
 C28 C 0.85775 0.83530 0.33658
 C29 C 0.85074 0.82836 0.35077
 C30 C 0.83661 0.83544 0.35790
 C31 C 0.82950 0.84973 0.35071
 C32 C 0.83622 0.85706 0.33637
 C33 C 0.85050 0.84959 0.32952
 H34 H 0.85649 0.81754 0.35645
 H35 H 0.81807 0.85439 0.35585
 H36 H 0.85634 0.85496 0.31881
 C37 C 0.64159 0.66426 0.33725
 C38 C 0.64859 0.67130 0.35146
 C39 C 0.66277 0.66428 0.35865
 C40 C 0.66990 0.64997 0.35151
 C41 C 0.66309 0.64274 0.33731
 C42 C 0.64890 0.64995 0.33030
 H43 H 0.64282 0.68212 0.35709
 H44 H 0.68089 0.64454 0.35693
 H45 H 0.64390 0.64476 0.31905
 C46 C 0.64243 0.16459 -0.16266
 C47 C 0.64965 0.15036 -0.16986
 C48 C 0.66407 0.14296 -0.16324
 C49 C 0.67095 0.15027 -0.14899
 C50 C 0.66391 0.16452 -0.14167
 C51 C 0.64963 0.17156 -0.14855
 H52 H 0.64447 0.14581 -0.18125
 H53 H 0.68143 0.14454 -0.14296
 H54 H 0.64418 0.18259 -0.14301
 C55 C 0.14196 0.66424 -0.16353
 C56 C 0.14903 0.67131 -0.14943
 C57 C 0.16327 0.66437 -0.14238
 C58 C 0.17044 0.65011 -0.14957
 C59 C 0.16365 0.64265 -0.16381
 C60 C 0.14927 0.64996 -0.17057
 H61 H 0.14326 0.68210 -0.14374
 H62 H 0.18120 0.64474 -0.14371
 H63 H 0.14418 0.64532 -0.18198
 C64 C 0.14225 0.16416 0.33734
 C65 C 0.14949 0.14992 0.33017
 C66 C 0.16374 0.14263 0.33696
 C67 C 0.17070 0.14971 0.35117
 C68 C 0.16365 0.16395 0.35852
 C69 C 0.14939 0.17104 0.35154
 H70 H 0.14410 0.14458 0.31917
 H71 H 0.18198 0.14448 0.35617
 H72 H 0.14368 0.18181 0.35733
 C73 C 0.64220 0.33540 0.66315
 C74 C 0.64912 0.32830 0.64893
 C75 C 0.66332 0.33522 0.64169
 C76 C 0.67055 0.34951 0.64877
 C77 C 0.66381 0.35681 0.66298
 C78 C 0.64961 0.34969 0.67005
 H79 H 0.64327 0.31750 0.64333
 H80 H 0.68155 0.35488 0.64331
 H81 H 0.64466 0.35492 0.68130
 C82 C 0.64204 0.83539 1.16329
 C83 C 0.64951 0.82853 1.14915
 C84 C 0.66378 0.83566 1.14231
 C85 C 0.67072 0.84994 1.14959
 C86 C 0.66375 0.85723 1.16376
 C87 C 0.64936 0.84978 1.17038
 H88 H 0.64415 0.81778 1.14307
 H89 H 0.68119 0.85571 1.14358
 H90 H 0.64471 0.85429 1.18199
 C91 C 0.14230 0.33522 1.16334
 C92 C 0.14970 0.32832 1.14912
 C93 C 0.16396 0.33542 1.14216
 C94 C 0.17095 0.34971 1.14940
 C95 C 0.16394 0.35687 1.16349
 C96 C 0.14967 0.34964 1.17030
 H97 H 0.14431 0.31755 1.14311
 H98 H 0.18174 0.35544 1.14388
 H99 H 0.14505 0.35478 1.18170
 C100 C 0.14130 0.83548 0.66315
 C101 C 0.14865 0.82863 0.64896
 C102 C 0.16289 0.83569 0.64201
 C103 C 0.16995 0.84992 0.64927
 C104 C 0.16310 0.85723 0.66350
 C105 C 0.14870 0.84986 0.67018
 H106 H 0.14294 0.81818 0.64267
 H107 H 0.18146 0.85456 0.64425
 H108 H 0.14327 0.85529 0.68103
 C109 C 0.35836 0.66489 0.66313
 C110 C 0.35147 0.67197 0.64890
 C111 C 0.33726 0.66503 0.64167
 C112 C 0.32999 0.65078 0.64880
 C113 C 0.33671 0.64352 0.66303
 C114 C 0.35093 0.65063 0.67006
 H115 H 0.35708 0.68301 0.64353
 H116 H 0.31874 0.64568 0.64361
 H117 H 0.35639 0.64489 0.68083
 C118 C 0.35748 0.16391 1.16282
 C119 C 0.35018 0.14960 1.16980
 C120 C 0.33585 0.14225 1.16295
 C121 C 0.32911 0.14970 1.14869
 C122 C 0.33628 0.16400 1.14156
 C123 C 0.35047 0.17097 1.14869
 H124 H 0.35523 0.14495 1.18123
 H125 H 0.31841 0.14431 1.14276
 H126 H 0.35624 0.18180 1.14305
 C127 C 0.85708 0.66408 1.16344
 C128 C 0.85006 0.67122 1.14929
 C129 C 0.83581 0.66430 1.14214
 C130 C 0.82865 0.64999 1.14925
 C131 C 0.83546 0.64268 1.16340
 C132 C 0.84971 0.64978 1.17037
 H133 H 0.85537 0.68255 1.14417
 H134 H 0.81787 0.64436 1.14360
 H135 H 0.85499 0.64425 1.18133
 C136 C 0.85882 0.16486 0.66310
 C137 C 0.85138 0.15048 0.67007
 C138 C 0.83702 0.14311 0.66328
 C139 C 0.83026 0.15045 0.64901
 C140 C 0.83738 0.16469 0.64183
 C141 C 0.85157 0.17174 0.64887
 H142 H 0.85674 0.14503 0.68094
 H143 H 0.81879 0.14582 0.64392
 H144 H 0.85733 0.18220 0.64263
 C145 C 0.33653 0.35710 0.66272
 C146 C 0.32999 0.34963 0.64851
 C147 C 0.33738 0.33532 0.64162
 C148 C 0.35153 0.32854 0.64908
 C149 C 0.35826 0.33583 0.66330
 C150 C 0.35070 0.35014 0.66999
 H151 H 0.31902 0.35487 0.64289
 H152 H 0.35724 0.31745 0.64390
 H153 H 0.35576 0.35578 0.68100
 C154 C 0.33632 0.85698 0.16218
 C155 C 0.32969 0.84961 0.14796
 C156 C 0.33702 0.83535 0.14093
 C157 C 0.35122 0.82850 0.14826
 C158 C 0.35803 0.83568 0.16249
 C159 C 0.35052 0.84995 0.16932
 H160 H 0.31869 0.85491 0.14244
 H161 H 0.35689 0.81745 0.14297
 H162 H 0.35565 0.85550 0.18034
 C163 C 0.83629 0.35671 0.16376
 C164 C 0.82955 0.34953 0.14951
 C165 C 0.83682 0.33534 0.14226
 C166 C 0.85106 0.32838 0.14941
 C167 C 0.85798 0.33539 0.16367
 C168 C 0.85055 0.34959 0.17071
 H169 H 0.81827 0.35463 0.14437
 H170 H 0.85668 0.31739 0.14396
 H171 H 0.85603 0.35528 0.18149
 C172 C 0.83636 0.85759 0.66240
 C173 C 0.85051 0.85054 0.66960
 C174 C 0.85800 0.83623 0.66282
 C175 C 0.85121 0.82904 0.64859
 C176 C 0.83706 0.83591 0.64120
 C177 C 0.82975 0.85021 0.64817
 H178 H 0.85563 0.85610 0.68062
 H179 H 0.85686 0.81795 0.64335
 H180 H 0.81879 0.85553 0.64260
 C181 C 0.66394 0.64316 0.66352
 C182 C 0.67094 0.65024 0.64933
 C183 C 0.66395 0.66453 0.64200
 C184 C 0.64971 0.67166 0.64899
 C185 C 0.64254 0.66478 0.66317
 C186 C 0.64971 0.65050 0.67032
 H187 H 0.68220 0.64498 0.64432
 H188 H 0.64404 0.68245 0.64320
 H189 H 0.64429 0.64517 0.68131
 C190 C 0.66322 0.14288 0.16339
 C191 C 0.67006 0.15012 0.14921
 C192 C 0.66289 0.16439 0.14202
 C193 C 0.64864 0.17134 0.14913
 C194 C 0.64161 0.16429 0.16332
 C195 C 0.64897 0.15003 0.17033
 H196 H 0.68110 0.14474 0.14385
 H197 H 0.64283 0.18211 0.14345
 H198 H 0.64393 0.14484 0.18156
 C199 C 0.16353 0.64295 0.16251
 C200 C 0.14929 0.65014 0.16943
 C201 C 0.14194 0.66438 0.16237
 C202 C 0.14896 0.67136 0.14815
 C203 C 0.16320 0.66437 0.14105
 C204 C 0.17036 0.65013 0.14829
 H205 H 0.14426 0.64499 0.18069
 H206 H 0.14316 0.68212 0.14243
 H207 H 0.18139 0.64472 0.14293
 C208 C 0.16332 0.14294 0.66362
 C209 C 0.17034 0.14999 0.64943
 C210 C 0.16338 0.16428 0.64208
 C211 C 0.14917 0.17147 0.64906
 C212 C 0.14198 0.16462 0.66326
 C213 C 0.14912 0.15032 0.67042
 H214 H 0.18159 0.14469 0.64442
 H215 H 0.14353 0.18227 0.64327
 H216 H 0.14369 0.14502 0.68141
 C217 C 0.33613 0.64359 0.33714
 C218 C 0.32942 0.65087 0.35137
 C219 C 0.33667 0.66514 0.35847
 C220 C 0.35087 0.67206 0.35122
 C221 C 0.35776 0.66499 0.33698
 C222 C 0.35033 0.65072 0.33006
 H223 H 0.31843 0.64550 0.35684
 H224 H 0.35673 0.68285 0.35684
 H225 H 0.35526 0.64550 0.31880
 C226 C 0.33627 0.14259 0.83715
 C227 C 0.35048 0.14968 0.83007
 C228 C 0.35790 0.16398 0.83693
 C229 C 0.35100 0.17113 0.85113
 C230 C 0.33679 0.16422 0.85840
 C231 C 0.32955 0.14992 0.85134
 H232 H 0.35568 0.14415 0.81907
 H233 H 0.35660 0.18220 0.85645
 H234 H 0.31854 0.14458 0.85682
 C235 C 0.83627 0.64286 0.83739
 C236 C 0.82949 0.65015 0.85158
 C237 C 0.83667 0.66446 0.85867
 C238 C 0.85087 0.67141 0.85145
 C239 C 0.85783 0.66432 0.83726
 C240 C 0.85047 0.65001 0.83034
 H241 H 0.81849 0.64477 0.85703
 H242 H 0.85669 0.68223 0.85706
 H243 H 0.85545 0.64478 0.81911
 C244 C 0.83664 0.14277 0.33729
 C245 C 0.83007 0.15013 0.35154
 C246 C 0.83743 0.16440 0.35854
 C247 C 0.85159 0.17126 0.35115
 C248 C 0.85835 0.16408 0.33690
 C249 C 0.85082 0.14981 0.33009
 H250 H 0.81909 0.14483 0.35711
 H251 H 0.85728 0.18232 0.35642
 H252 H 0.85591 0.14425 0.31906
 C253 C 0.66285 0.35656 0.33748
 C254 C 0.64863 0.34937 0.33053
 C255 C 0.64131 0.33508 0.33753
 C256 C 0.64834 0.32805 0.35172
 C257 C 0.66257 0.33505 0.35885
 C258 C 0.66970 0.34934 0.35166
 H259 H 0.64359 0.35455 0.31930
 H260 H 0.64257 0.31725 0.35740
 H261 H 0.68072 0.35475 0.35703
 C262 C 0.66393 0.85780 0.83712
 C263 C 0.64970 0.85061 0.83017
 C264 C 0.64237 0.83634 0.83718
 C265 C 0.64939 0.82931 0.85138
 C266 C 0.66363 0.83629 0.85850
 C267 C 0.67078 0.85058 0.85131
 H268 H 0.64467 0.85578 0.81893
 H269 H 0.64361 0.81852 0.85705
 H270 H 0.68180 0.85599 0.85668
 C271 C 0.16360 0.35757 0.83690
 C272 C 0.14930 0.35031 0.83020
 C273 C 0.14206 0.33609 0.83743
 C274 C 0.14927 0.32920 0.85160
 C275 C 0.16358 0.33628 0.85849
 C276 C 0.17061 0.35050 0.85108
 H277 H 0.14412 0.35536 0.81897
 H278 H 0.14382 0.31818 0.85720
 H279 H 0.18143 0.35625 0.85653
 C280 C 0.16332 0.85666 0.33693
 C281 C 0.14914 0.84945 0.32991
 C282 C 0.14175 0.83521 0.33692
 C283 C 0.14867 0.82823 0.35120
 C284 C 0.16285 0.83525 0.35840
 C285 C 0.17005 0.84949 0.35120
 H286 H 0.14419 0.85459 0.31862
 H287 H 0.14284 0.81747 0.35688
 H288 H 0.18104 0.85492 0.35664
 O289 O 0.22882 0.98326 0.25169
 O290 O 0.25137 1.01596 0.22895
 O291 O 0.25128 0.98328 0.22883
 O292 O 0.22893 1.01595 0.25181
 O293 O 0.24843 1.01584 0.27072
 O294 O 0.27079 0.98316 0.24774
 O295 O 0.27088 1.01585 0.24786
 O296 O 0.24833 0.98314 0.27061
 Cu297 Cu 0.23814 0.99962 0.23843
 Cu298 Cu 0.26156 0.99948 0.26113
 C299 C 0.23474 0.97755 0.26502
 C300 C 0.26496 1.02155 0.23453
 C301 C 0.26484 0.97759 0.23438
 C302 C 0.23488 1.02154 0.26517
 O303 O 0.24791 0.51657 0.76965
 O304 O 0.27040 0.48389 0.74686
 O305 O 0.27040 0.51657 0.74685
 O306 O 0.24786 0.48390 0.76962
 O307 O 0.22841 0.48391 0.75065
 O308 O 0.25096 0.51660 0.72786
 O309 O 0.25096 0.48390 0.72787
 O310 O 0.22845 0.51660 0.75068
 Cu311 Cu 0.26109 0.50023 0.76014
 Cu312 Cu 0.23775 0.50026 0.73736
 C313 C 0.23435 0.52223 0.76405
 C314 C 0.26451 0.47825 0.73349
 C315 C 0.26452 0.52223 0.73349
 C316 C 0.23430 0.47827 0.76401
 O317 O 0.75092 -0.01640 0.27173
 O318 O 0.72836 0.01635 0.24904
 O319 O 0.72827 -0.01634 0.24906
 O320 O 0.75095 0.01629 0.27177
 O321 O 0.77032 0.01628 0.25271
 O322 O 0.74765 -0.01636 0.23000
 O323 O 0.74774 0.01632 0.23000
 O324 O 0.77028 -0.01640 0.25267
 Cu325 Cu 0.73768 -0.00002 0.26231
 Cu326 Cu 0.76094 -0.00004 0.23944
 C327 C 0.76444 -0.02206 0.26605
 C328 C 0.73422 0.02199 0.23565
 C329 C 0.73411 -0.02199 0.23567
 C330 C 0.76450 0.02192 0.26611
 O331 O 0.74870 0.48348 0.72919
 O332 O 0.77119 0.51614 0.75206
 O333 O 0.77119 0.48345 0.75201
 O334 O 0.74871 0.51618 0.72923
 O335 O 0.72923 0.51614 0.74817
 O336 O 0.75171 0.48342 0.77095
 O337 O 0.75170 0.51611 0.77100
 O338 O 0.72922 0.48345 0.74813
 Cu339 Cu 0.76190 0.49981 0.73872
 Cu340 Cu 0.73851 0.49977 0.76146
 C341 C 0.73514 0.47782 0.73477
 C342 C 0.76527 0.52177 0.76543
 C343 C 0.76527 0.47779 0.76536
 C344 C 0.73515 0.52181 0.73483
 O345 O 0.25092 0.48413 0.27163
 O346 O 0.22850 0.51673 0.24861
 O347 O 0.22846 0.48403 0.24877
 O348 O 0.25098 0.51683 0.27144
 O349 O 0.27048 0.51669 0.25251
 O350 O 0.24797 0.48392 0.22985
 O351 O 0.24800 0.51660 0.22968
 O352 O 0.27041 0.48401 0.25270
 Cu353 Cu 0.23776 0.50044 0.26201
 Cu354 Cu 0.26117 0.50029 0.23929
 C355 C 0.26448 0.47844 0.26608
 C356 C 0.23444 0.52229 0.23523
 C357 C 0.23439 0.47831 0.23545
 C358 C 0.26456 0.52242 0.26583
 O359 O 0.74821 1.01694 0.77001
 O360 O 0.77071 0.98426 0.74719
 O361 O 0.77073 1.01694 0.74723
 O362 O 0.74826 0.98427 0.77004
 O363 O 0.72877 0.98424 0.75110
 O364 O 0.75126 1.01697 0.72827
 O365 O 0.75123 0.98427 0.72824
 O366 O 0.72873 1.01693 0.75107
 Cu367 Cu 0.76143 1.00061 0.76051
 Cu368 Cu 0.73805 1.00060 0.73777
 C369 C 0.73464 1.02258 0.76443
 C370 C 0.76480 0.97862 0.73383
 C371 C 0.76483 1.02260 0.73387
 C372 C 0.73469 0.97861 0.76446
 O373 O 0.75055 0.51588 0.22925
 O374 O 0.72797 0.48322 0.25202
 O375 O 0.72800 0.51591 0.25201
 O376 O 0.75050 0.48319 0.22923
 O377 O 0.76993 0.48319 0.24822
 O378 O 0.74744 0.51589 0.27099
 O379 O 0.74741 0.48321 0.27101
 O380 O 0.76999 0.51586 0.24824
 Cu381 Cu 0.73731 0.49955 0.23873
 Cu382 Cu 0.76064 0.49953 0.26152
 C383 C 0.76412 0.52151 0.23487
 C384 C 0.73385 0.47757 0.26539
 C385 C 0.73390 0.52155 0.26538
 C386 C 0.76405 0.47755 0.23485
 O387 O 0.27096 0.01603 0.75182
 O388 O 0.24845 -0.01663 0.72895
 O389 O 0.24840 0.01607 0.72906
 O390 O 0.27102 -0.01666 0.75170
 O391 O 0.25161 -0.01676 0.77071
 O392 O 0.22899 0.01596 0.74808
 O393 O 0.22904 -0.01672 0.74797
 O394 O 0.25154 0.01592 0.77082
 Cu395 Cu 0.26165 -0.00029 0.73847
 Cu396 Cu 0.23835 -0.00042 0.76130
 C397 C 0.26508 0.02161 0.76521
 C398 C 0.23492 -0.02232 0.73457
 C399 C 0.23485 0.02167 0.73472
 C400 C 0.26516 -0.02236 0.76506
 O401 O 0.22890 0.25131 1.01597
 O402 O 0.25195 0.22874 0.98384
 O403 O 0.25194 0.22859 1.01586
 O404 O 0.22887 0.25144 0.98395
 O405 O 0.24787 0.27128 0.98402
 O406 O 0.27093 0.24844 1.01593
 O407 O 0.27093 0.24859 0.98392
 O408 O 0.24790 0.27116 1.01603
 Cu409 Cu 0.23851 0.23803 0.99989
 Cu410 Cu 0.26131 0.26186 0.99998
 C411 C 0.23450 0.26507 1.02157
 C412 C 0.26536 0.23483 0.97832
 C413 C 0.26535 0.23464 1.02142
 C414 C 0.23445 0.26524 0.97846
 O415 O 0.24780 0.77183 0.48424
 O416 O 0.27111 0.74933 0.51623
 O417 O 0.27105 0.74932 0.48421
 O418 O 0.24792 0.77189 0.51627
 O419 O 0.22908 0.75189 0.51635
 O420 O 0.25221 0.72932 0.48428
 O421 O 0.25228 0.72934 0.51630
 O422 O 0.22897 0.75183 0.48433
 Cu423 Cu 0.26136 0.76260 0.50023
 Cu424 Cu 0.23874 0.73859 0.50032
 C425 C 0.23443 0.76564 0.47875
 C426 C 0.26565 0.73551 0.52180
 C427 C 0.26556 0.73549 0.47870
 C428 C 0.23457 0.76572 0.52186
 O429 O 0.27130 0.75090 -0.01667
 O430 O 0.24811 0.72829 0.01534
 O431 O 0.24810 0.72834 -0.01668
 O432 O 0.27132 0.75085 0.01536
 O433 O 0.25247 0.77082 0.01539
 O434 O 0.22925 0.74831 -0.01664
 O435 O 0.22926 0.74826 0.01537
 O436 O 0.25244 0.77087 -0.01662
 Cu437 Cu 0.26160 0.73759 -0.00067
 Cu438 Cu 0.23896 0.76156 -0.00062
 C439 C 0.26581 0.76473 -0.02218
 C440 C 0.23475 0.73444 0.02089
 C441 C 0.23473 0.73450 -0.02221
 C442 C 0.26584 0.76466 0.02092
 O443 O 0.27193 0.25025 0.48423
 O444 O 0.24886 0.22757 0.51629
 O445 O 0.24884 0.22756 0.48426
 O446 O 0.27201 0.25020 0.51625
 O447 O 0.25308 0.27009 0.51630
 O448 O 0.22992 0.24746 0.48429
 O449 O 0.22994 0.24747 0.51631
 O450 O 0.25300 0.27014 0.48429
 Cu451 Cu 0.26231 0.23690 0.50025
 Cu452 Cu 0.23959 0.26078 0.50030
 C453 C 0.26638 0.26405 0.47871
 C454 C 0.23548 0.23368 0.52185
 C455 C 0.23545 0.23367 0.47874
 C456 C 0.26648 0.26399 0.52181
 O457 O 0.72917 0.75199 1.01618
 O458 O 0.75226 0.72929 0.98420
 O459 O 0.75228 0.72936 1.01621
 O460 O 0.72924 0.75203 0.98416
 O461 O 0.74822 0.77189 0.98417
 O462 O 0.77126 0.74922 1.01621
 O463 O 0.77124 0.74915 0.98419
 O464 O 0.74815 0.77185 1.01619
 Cu465 Cu 0.73884 0.73868 1.00018
 Cu466 Cu 0.76162 0.76252 1.00019
 C467 C 0.73474 0.76577 1.02173
 C468 C 0.76567 0.73536 0.97866
 C469 C 0.76568 0.73544 1.02176
 C470 C 0.73482 0.76582 0.97862
 O471 O 0.75261 0.22860 0.48404
 O472 O 0.72930 0.25101 0.51608
 O473 O 0.72929 0.25103 0.48407
 O474 O 0.75254 0.22851 0.51605
 O475 O 0.77132 0.24855 0.51611
 O476 O 0.74807 0.27108 0.48410
 O477 O 0.74808 0.27106 0.51612
 O478 O 0.77139 0.24864 0.48409
 Cu479 Cu 0.73905 0.23778 0.50005
 Cu480 Cu 0.76160 0.26184 0.50011
 C481 C 0.76596 0.23482 0.47852
 C482 C 0.73473 0.26484 0.52164
 C483 C 0.73473 0.26488 0.47856
 C484 C 0.76587 0.23470 0.52162
 O485 O 0.77091 0.25144 -0.01548
 O486 O 0.74775 0.22877 0.01650
 O487 O 0.74778 0.22882 -0.01552
 O488 O 0.77088 0.25141 0.01654
 O489 O 0.75197 0.27132 0.01654
 O490 O 0.72886 0.24872 -0.01553
 O491 O 0.72883 0.24868 0.01650
 O492 O 0.75200 0.27135 -0.01548
 Cu493 Cu 0.76122 0.23812 0.00051
 Cu494 Cu 0.73852 0.26202 0.00051
 C495 C 0.76539 0.26524 -0.02102
 C496 C 0.73436 0.23488 0.02203
 C497 C 0.73440 0.23493 -0.02108
 C498 C 0.76535 0.26520 0.02209
 O499 O 0.72922 0.74834 0.48402
 O500 O 0.75254 0.77100 0.51588
 O501 O 0.75231 0.77103 0.48387
 O502 O 0.72948 0.74828 0.51604
 O503 O 0.74845 0.72842 0.51587
 O504 O 0.77127 0.75117 0.48371
 O505 O 0.77150 0.75114 0.51573
 O506 O 0.74819 0.72848 0.48385
 Cu507 Cu 0.73899 0.76165 0.49997
 Cu508 Cu 0.76175 0.73781 0.49977
 C509 C 0.73474 0.73456 0.47842
 C510 C 0.76598 0.76491 0.52132
 C511 C 0.76567 0.76496 0.47822
 C512 C 0.73509 0.73449 0.52152
 O513 O 1.01660 0.27105 0.24778
 O514 O 0.98431 0.24850 0.27077
 O515 O 1.01652 0.24851 0.27086
 O516 O 0.98438 0.27104 0.24769
 O517 O 0.98443 0.25105 0.22897
 O518 O 1.01658 0.22852 0.25214
 O519 O 0.98437 0.22851 0.25204
 O520 O 1.01665 0.25106 0.22906
 Cu521 Cu 1.00045 0.26177 0.26115
 Cu522 Cu 1.00051 0.23779 0.23867
 C523 C 1.02221 0.26488 0.23451
 C524 C 0.97875 0.23467 0.26530
 C525 C 1.02211 0.23469 0.26544
 C526 C 0.97884 0.26487 0.23440
 O527 O 0.51623 0.27152 0.74860
 O528 O 0.48400 0.24883 0.77156
 O529 O 0.51623 0.24888 0.77159
 O530 O 0.48401 0.27147 0.74858
 O531 O 0.48404 0.25157 0.72978
 O532 O 0.51628 0.22897 0.75279
 O533 O 0.48405 0.22893 0.75275
 O534 O 0.51626 0.25161 0.72980
 Cu535 Cu 0.50011 0.26217 0.76197
 Cu536 Cu 0.50016 0.23827 0.73940
 C537 C 0.52182 0.26541 0.73530
 C538 C 0.47845 0.23502 0.76605
 C539 C 0.52183 0.23509 0.76610
 C540 C 0.47845 0.26536 0.73527
 O541 O 0.01610 0.25181 0.77118
 O542 O -0.01601 0.22928 0.74795
 O543 O 0.01620 0.22934 0.74804
 O544 O -0.01612 0.25177 0.77107
 O545 O -0.01609 0.27181 0.75240
 O546 O 0.01623 0.24937 0.72937
 O547 O -0.01598 0.24932 0.72928
 O548 O 0.01614 0.27185 0.75251
 Cu549 Cu 0.00004 0.23854 0.76143
 Cu550 Cu 0.00008 0.26260 0.73902
 C551 C 0.02168 0.26565 0.76579
 C552 C -0.02154 0.23547 0.73466
 C553 C 0.02180 0.23554 0.73479
 C554 C -0.02169 0.26560 0.76565
 O555 O 0.48325 0.27097 0.25219
 O556 O 0.51547 0.24824 0.22933
 O557 O 0.48325 0.24828 0.22926
 O558 O 0.51546 0.27090 0.25229
 O559 O 0.51536 0.25102 0.27112
 O560 O 0.48317 0.22839 0.24809
 O561 O 0.51539 0.22836 0.24816
 O562 O 0.48314 0.25109 0.27102
 Cu563 Cu 0.49936 0.26159 0.23888
 Cu564 Cu 0.49925 0.23772 0.26148
 C565 C 0.47762 0.26490 0.26549
 C566 C 0.52101 0.23444 0.23486
 C567 C 0.47764 0.23449 0.23476
 C568 C 0.52098 0.26480 0.26562
 O569 O 1.01582 0.77090 0.74742
 O570 O 0.98366 0.74828 0.77051
 O571 O 1.01587 0.74828 0.77041
 O572 O 0.98361 0.77095 0.74755
 O573 O 0.98351 0.75105 0.72874
 O574 O 1.01580 0.72837 0.75161
 O575 O 0.98357 0.72838 0.75170
 O576 O 1.01573 0.75100 0.72861
 Cu577 Cu 0.99975 0.76159 0.76086
 Cu578 Cu 0.99964 0.73770 0.73828
 C579 C 1.02133 0.76479 0.73409
 C580 C 0.97805 0.73449 0.76503
 C581 C 1.02142 0.73448 0.76490
 C582 C 0.97798 0.76486 0.73426
 O583 O 0.51617 0.77105 0.24724
 O584 O 0.48388 0.74854 0.27024
 O585 O 0.51609 0.74848 0.27029
 O586 O 0.48396 0.77110 0.24720
 O587 O 0.48393 0.75114 0.22845
 O588 O 0.51608 0.72851 0.25155
 O589 O 0.48385 0.72857 0.25151
 O590 O 0.51616 0.75108 0.22850
 Cu591 Cu 0.50003 0.76179 0.26062
 Cu592 Cu 0.50001 0.73783 0.23812
 C593 C 0.52175 0.76489 0.23396
 C594 C 0.47828 0.73474 0.26479
 C595 C 0.52164 0.73465 0.26485
 C596 C 0.47838 0.76497 0.23391
 O597 O 0.01593 0.75109 0.27028
 O598 O -0.01636 0.72856 0.24730
 O599 O 0.01586 0.72850 0.24726
 O600 O -0.01628 0.75111 0.27036
 O601 O -0.01630 0.77107 0.25162
 O602 O 0.01585 0.74846 0.22851
 O603 O -0.01638 0.74852 0.22855
 O604 O 0.01592 0.77106 0.25154
 Cu605 Cu -0.00021 0.73782 0.26068
 Cu606 Cu -0.00023 0.76178 0.23817
 C607 C 0.02150 0.76491 0.26482
 C608 C -0.02196 0.73472 0.23403
 C609 C 0.02142 0.73465 0.23396
 C610 C -0.02185 0.76493 0.26492
 O611 O 0.48435 0.77218 0.75179
 O612 O 0.51661 0.74959 0.72881
 O613 O 0.48439 0.74959 0.72876
 O614 O 0.51657 0.77221 0.75182
 O615 O 0.51655 0.75226 0.77059
 O616 O 0.48438 0.72966 0.74753
 O617 O 0.51658 0.72965 0.74758
 O618 O 0.48434 0.75224 0.77055
 Cu619 Cu 0.50048 0.76289 0.73841
 Cu620 Cu 0.50046 0.73896 0.76094
 C621 C 0.47877 0.76605 0.76507
 C622 C 0.52217 0.73578 0.73429
 C623 C 0.47882 0.73578 0.73423
 C624 C 0.52212 0.76608 0.76513
 C625 C 0.39982 0.31351 0.31381
 C626 C 0.39929 0.31506 0.33093
 C627 C 0.38564 0.32253 0.33852
 C628 C 0.37234 0.32854 0.32906
 C629 C 0.37305 0.32700 0.31186
 C630 C 0.38670 0.31953 0.30431
 C631 C 0.41368 0.30552 0.30599
 C632 C 0.42516 0.29873 0.29928
 C633 C 0.43868 0.29051 0.29110
 C634 C 0.44507 0.27550 0.29735
 C635 C 0.45786 0.26724 0.28912
 C636 C 0.46442 0.27389 0.27450
 C637 C 0.45801 0.28907 0.26840
 C638 C 0.44522 0.29731 0.27666
 H639 H 0.40940 0.31047 0.33840
 H640 H 0.38554 0.32371 0.35176
 H641 H 0.36291 0.33128 0.30427
 H642 H 0.38695 0.31832 0.29105
 H643 H 0.44007 0.27012 0.30852
 H644 H 0.46251 0.25558 0.29414
 H645 H 0.46278 0.29453 0.25718
 H646 H 0.44035 0.30890 0.27170
 C647 C 0.40062 0.81348 0.81396
 C648 C 0.38999 0.80369 0.82347
 C649 C 0.37619 0.81092 0.83098
 C650 C 0.37265 0.82820 0.82911
 C651 C 0.38369 0.83790 0.81951
 C652 C 0.39749 0.83059 0.81205
 C653 C 0.41457 0.80586 0.80592
 C654 C 0.42610 0.79931 0.79910
 C655 C 0.43970 0.79128 0.79086
 C656 C 0.44621 0.77630 0.79703
 C657 C 0.45905 0.76817 0.78875
 C658 C 0.46554 0.77493 0.77414
 C659 C 0.45901 0.79009 0.76812
 C660 C 0.44617 0.79819 0.77643
 H661 H 0.39223 0.79037 0.82491
 H662 H 0.36798 0.80261 0.83759
 H663 H 0.38214 0.85129 0.81812
 H664 H 0.40573 0.83833 0.80480
 H665 H 0.44127 0.77082 0.80818
 H666 H 0.46379 0.75653 0.79372
 H667 H 0.46372 0.79563 0.75691
 H668 H 0.44119 0.80977 0.77153
 C669 C -0.09991 0.31291 0.81455
 C670 C -0.11262 0.30286 0.82080
 C671 C -0.12634 0.31022 0.82832
 C672 C -0.12755 0.32777 0.82969
 C673 C -0.11467 0.33777 0.82343
 C674 C -0.10095 0.33038 0.81592
 C675 C -0.08597 0.30527 0.80653
 C676 C -0.07443 0.29871 0.79971
 C677 C -0.06083 0.29070 0.79146
 C678 C -0.05435 0.27568 0.79757
 C679 C -0.04149 0.26759 0.78928
 C680 C -0.03495 0.27443 0.77473
 C681 C -0.04145 0.28963 0.76877
 C682 C -0.05431 0.29770 0.77709
 H683 H -0.11198 0.28933 0.81975
 H684 H -0.13615 0.30219 0.83281
 H685 H -0.11517 0.35130 0.82446
 H686 H -0.09117 0.33827 0.81113
 H687 H -0.05933 0.27014 0.80867
 H688 H -0.03677 0.25592 0.79419
 H689 H -0.03671 0.29523 0.75761
 H690 H -0.05926 0.30931 0.77224
 C691 C -0.09981 0.81251 0.31396
 C692 C -0.11268 0.80251 0.31995
 C693 C -0.12641 0.80992 0.32742
 C694 C -0.12746 0.82746 0.32898
 C695 C -0.11440 0.83741 0.32301
 C696 C -0.10067 0.82997 0.31555
 C697 C -0.08589 0.80483 0.30594
 C698 C -0.07437 0.79825 0.29912
 C699 C -0.06081 0.79020 0.29084
 C700 C -0.05431 0.77520 0.29697
 C701 C -0.04151 0.76706 0.28865
 C702 C -0.03504 0.77383 0.27404
 C703 C -0.04154 0.78902 0.26806
 C704 C -0.05435 0.79713 0.27641
 H705 H -0.11217 0.78899 0.31873
 H706 H -0.13635 0.80195 0.33171
 H707 H -0.11476 0.85093 0.32423
 H708 H -0.09076 0.83782 0.31097
 H709 H -0.05924 0.76971 0.30812
 H710 H -0.03678 0.75539 0.29358
 H711 H -0.03685 0.79456 0.25685
 H712 H -0.05931 0.80873 0.27154
 C713 C 0.59940 0.68699 0.31413
 C714 C 0.61204 0.69703 0.32053
 C715 C 0.62570 0.68964 0.32814
 C716 C 0.62690 0.67209 0.32945
 C717 C 0.61409 0.66210 0.32304
 C718 C 0.60043 0.66952 0.31543
 C719 C 0.58553 0.69466 0.30601
 C720 C 0.57405 0.70125 0.29913
 C721 C 0.56053 0.70933 0.29081
 C722 C 0.55404 0.72434 0.29694
 C723 C 0.54127 0.73250 0.28859
 C724 C 0.53481 0.72574 0.27397
 C725 C 0.54131 0.71055 0.26800
 C726 C 0.55409 0.70241 0.27637
 H727 H 0.61140 0.71056 0.31952
 H728 H 0.63546 0.69766 0.33274
 H729 H 0.61458 0.64857 0.32403
 H730 H 0.59070 0.66164 0.31053
 H731 H 0.55896 0.72982 0.30809
 H732 H 0.53655 0.74417 0.29352
 H733 H 0.53663 0.70501 0.25678
 H734 H 0.55904 0.69081 0.27151
 C735 C 0.60000 0.18751 0.81482
 C736 C 0.60093 0.17005 0.81622
 C737 C 0.61467 0.16258 0.82364
 C738 C 0.62766 0.17251 0.82977
 C739 C 0.62656 0.19006 0.82838
 C740 C 0.61282 0.19750 0.82095
 C741 C 0.58606 0.19522 0.80686
 C742 C 0.57452 0.20182 0.80008
 C743 C 0.56092 0.20986 0.79185
 C744 C 0.55445 0.20296 0.77742
 C745 C 0.54160 0.21106 0.76912
 C746 C 0.53506 0.22621 0.77516
 C747 C 0.54155 0.23295 0.78978
 C748 C 0.55440 0.22483 0.79805
 H749 H 0.59107 0.16220 0.81152
 H750 H 0.61510 0.14905 0.82468
 H751 H 0.63646 0.19803 0.83276
 H752 H 0.61225 0.21103 0.81987
 H753 H 0.55943 0.19139 0.77251
 H754 H 0.53689 0.20553 0.75791
 H755 H 0.53680 0.24459 0.79475
 H756 H 0.55934 0.23030 0.80920
 C757 C 1.09956 0.68689 0.81363
 C758 C 1.10059 0.66943 0.81502
 C759 C 1.11432 0.66204 0.82254
 C760 C 1.12720 0.67205 0.82877
 C761 C 1.12600 0.68960 0.82738
 C762 C 1.11227 0.69695 0.81986
 C763 C 1.08562 0.69453 0.80561
 C764 C 1.07409 0.70110 0.79881
 C765 C 1.06049 0.70916 0.79058
 C766 C 1.05401 0.70228 0.77615
 C767 C 1.04116 0.71041 0.76787
 C768 C 1.03465 0.72556 0.77393
 C769 C 1.04116 0.73228 0.78854
 C770 C 1.05400 0.72413 0.79680
 H771 H 1.09080 0.66153 0.81026
 H772 H 1.11481 0.64851 0.82359
 H773 H 1.13582 0.69762 0.83184
 H774 H 1.11164 0.71048 0.81879
 H775 H 1.05897 0.69071 0.77122
 H776 H 1.03644 0.70490 0.75665
 H777 H 1.03643 0.74392 0.79354
 H778 H 1.05895 0.72958 0.80795
 C779 C 1.09987 0.18707 0.31475
 C780 C 1.11259 0.19705 0.32107
 C781 C 1.12630 0.18961 0.32854
 C782 C 1.12747 0.17205 0.32978
 C783 C 1.11455 0.16212 0.32350
 C784 C 1.10084 0.16959 0.31603
 C785 C 1.08599 0.19478 0.30670
 C786 C 1.07451 0.20139 0.29983
 C787 C 1.06099 0.20944 0.29149
 C788 C 1.05448 0.22446 0.29759
 C789 C 1.04171 0.23260 0.28921
 C790 C 1.03528 0.22580 0.27460
 C791 C 1.04179 0.21061 0.26865
 C792 C 1.05457 0.20250 0.27705
 H793 H 1.11199 0.21059 0.32008
 H794 H 1.13614 0.19758 0.33306
 H795 H 1.11501 0.14858 0.32445
 H796 H 1.09105 0.16175 0.31120
 H797 H 1.05938 0.22996 0.30874
 H798 H 1.03698 0.24427 0.29412
 H799 H 1.03713 0.20505 0.25744
 H800 H 1.05954 0.19089 0.27221
 C801 C 0.59990 0.31292 0.68634
 C802 C 0.60103 0.33039 0.68503
 C803 C 0.61474 0.33772 0.67741
 C804 C 0.62749 0.32766 0.67100
 C805 C 0.62618 0.31012 0.67232
 C806 C 0.61248 0.30282 0.67995
 C807 C 0.58596 0.30533 0.69443
 C808 C 0.57443 0.29878 0.70127
 C809 C 0.56085 0.29073 0.70952
 C810 C 0.55440 0.29761 0.72397
 C811 C 0.54157 0.28948 0.73228
 C812 C 0.53503 0.27433 0.72624
 C813 C 0.54150 0.26761 0.71160
 C814 C 0.55433 0.27576 0.70332
 H815 H 0.59135 0.33833 0.68992
 H816 H 0.61530 0.35125 0.67641
 H817 H 0.63590 0.30204 0.66773
 H818 H 0.61176 0.28929 0.68096
 H819 H 0.55938 0.30918 0.72889
 H820 H 0.53687 0.29499 0.74351
 H821 H 0.53676 0.25597 0.70662
 H822 H 0.55925 0.27031 0.69216
 C823 C 0.59985 0.81270 0.18528
 C824 C 0.60275 0.82985 0.18726
 C825 C 0.61653 0.83736 0.17995
 C826 C 0.62780 0.82784 0.17045
 C827 C 0.62449 0.81051 0.16849
 C828 C 0.61070 0.80308 0.17585
 C829 C 0.58594 0.80489 0.19320
 C830 C 0.57442 0.79823 0.19997
 C831 C 0.56085 0.79014 0.20820
 C832 C 0.55432 0.79708 0.22259
 C833 C 0.54148 0.78896 0.23089
 C834 C 0.53500 0.77377 0.22490
 C835 C 0.54154 0.76698 0.21032
 C836 C 0.55438 0.77513 0.20205
 H837 H 0.59434 0.83745 0.19445
 H838 H 0.61790 0.85077 0.18139
 H839 H 0.63286 0.80233 0.16196
 H840 H 0.60865 0.78974 0.17437
 H841 H 0.55925 0.80869 0.22747
 H842 H 0.53673 0.79452 0.24207
 H843 H 0.53684 0.75531 0.20538
 H844 H 0.55937 0.76964 0.19093
 C845 C 1.10021 0.31266 0.18564
 C846 C 1.10321 0.32978 0.18765
 C847 C 1.11696 0.33725 0.18025
 C848 C 1.12809 0.32771 0.17060
 C849 C 1.12468 0.31041 0.16862
 C850 C 1.11093 0.30302 0.17608
 C851 C 1.08632 0.30489 0.19364
 C852 C 1.07482 0.29824 0.20045
 C853 C 1.06126 0.29016 0.20871
 C854 C 1.05475 0.29710 0.22311
 C855 C 1.04192 0.28898 0.23143
 C856 C 1.03545 0.27377 0.22544
 C857 C 1.04198 0.26698 0.21087
 C858 C 1.05481 0.27513 0.20258
 H859 H 1.09490 0.33740 0.19494
 H860 H 1.11839 0.35065 0.18172
 H861 H 1.13295 0.30220 0.16199
 H862 H 1.10880 0.28969 0.17457
 H863 H 1.05967 0.30871 0.22798
 H864 H 1.03717 0.29453 0.24260
 H865 H 1.03729 0.25530 0.20594
 H866 H 1.05979 0.26964 0.19146
 C867 C 1.09908 0.81282 0.68509
 C868 C 1.10188 0.82999 0.68695
 C869 C 1.11564 0.83753 0.67964
 C870 C 1.12700 0.82800 0.67026
 C871 C 1.12377 0.81064 0.66839
 C872 C 1.11000 0.80319 0.67575
 C873 C 1.08521 0.80498 0.69305
 C874 C 1.07373 0.79830 0.69986
 C875 C 1.06021 0.79018 0.70815
 C876 C 1.05378 0.79706 0.72261
 C877 C 1.04101 0.78890 0.73097
 C878 C 1.03450 0.77372 0.72497
 C879 C 1.04095 0.76700 0.71033
 C880 C 1.05372 0.77518 0.70199
 H881 H 1.09340 0.83761 0.69405
 H882 H 1.11688 0.85096 0.68097
 H883 H 1.13222 0.80247 0.66193
 H884 H 1.10802 0.78983 0.67435
 H885 H 1.05874 0.80865 0.72750
 H886 H 1.03633 0.79441 0.74221
 H887 H 1.03622 0.75534 0.70537
 H888 H 1.05863 0.76974 0.69082
 C889 C 0.40073 0.68763 0.68593
 C890 C 0.38769 0.68165 0.69557
 C891 C 0.37397 0.67418 0.68816
 C892 C 0.37309 0.67259 0.67097
 C893 C 0.38630 0.67859 0.66138
 C894 C 0.40003 0.68606 0.66882
 C895 C 0.41470 0.69557 0.69363
 C896 C 0.42624 0.70229 0.70028
 C897 C 0.43983 0.71040 0.70846
 C898 C 0.44634 0.70351 0.72288
 C899 C 0.45915 0.71167 0.73118
 C900 C 0.46562 0.72685 0.72515
 C901 C 0.45910 0.73358 0.71054
 C902 C 0.44628 0.72540 0.70227
 H903 H 0.38808 0.68287 0.70882
 H904 H 0.36390 0.66990 0.69586
 H905 H 0.38607 0.67737 0.64813
 H906 H 0.41007 0.69063 0.66124
 H907 H 0.44141 0.69192 0.72780
 H908 H 0.46389 0.70615 0.74238
 H909 H 0.46380 0.74525 0.70558
 H910 H 0.44131 0.73085 0.69113
 C911 C 0.39972 0.18673 0.18580
 C912 C 0.38699 0.19673 0.17955
 C913 C 0.37331 0.18932 0.17200
 C914 C 0.37217 0.17177 0.17060
 C915 C 0.38507 0.16181 0.17687
 C916 C 0.39875 0.16926 0.18442
 C917 C 0.41362 0.19443 0.19384
 C918 C 0.42512 0.20104 0.20067
 C919 C 0.43867 0.20913 0.20893
 C920 C 0.44518 0.22411 0.20274
 C921 C 0.45799 0.23229 0.21104
 C922 C 0.46444 0.22557 0.22567
 C923 C 0.45792 0.21041 0.23171
 C924 C 0.44512 0.20226 0.22339
 H925 H 0.38758 0.21027 0.18062
 H926 H 0.36348 0.19731 0.16750
 H927 H 0.38463 0.14828 0.17582
 H928 H 0.40855 0.16140 0.18921
 H929 H 0.44026 0.22955 0.19157
 H930 H 0.46272 0.24393 0.20606
 H931 H 0.46261 0.20491 0.24294
 H932 H 0.44015 0.19069 0.22830
 C933 C -0.10048 0.68689 0.18607
 C934 C -0.10130 0.68539 0.16896
 C935 C -0.11506 0.67792 0.16158
 C936 C -0.12819 0.67183 0.17123
 C937 C -0.12721 0.67337 0.18842
 C938 C -0.11345 0.68085 0.19577
 C939 C -0.08646 0.69479 0.19371
 C940 C -0.07486 0.70147 0.20032
 C941 C -0.06119 0.70952 0.20844
 C942 C -0.05471 0.72450 0.20223
 C943 C -0.04181 0.73262 0.21044
 C944 C -0.03524 0.72584 0.22500
 C945 C -0.04173 0.71068 0.23104
 C946 C -0.05463 0.70259 0.22281
 H947 H -0.09131 0.69001 0.16133
 H948 H -0.11538 0.67676 0.14833
 H949 H -0.13721 0.66905 0.19618
 H950 H -0.11298 0.68202 0.20902
 H951 H -0.05972 0.72999 0.19112
 H952 H -0.03710 0.74427 0.20546
 H953 H -0.03696 0.70513 0.24222
 H954 H -0.05958 0.69101 0.22774
 C955 C -0.09909 0.18750 0.68531
 C956 C -0.10190 0.17032 0.68714
 C957 C -0.11562 0.16280 0.67975
 C958 C -0.12692 0.17234 0.67031
 C959 C -0.12368 0.18969 0.66848
 C960 C -0.10995 0.19713 0.67592
 C961 C -0.08525 0.19532 0.69335
 C962 C -0.07381 0.20200 0.70021
 C963 C -0.06033 0.21012 0.70856
 C964 C -0.05388 0.20317 0.72297
 C965 C -0.04114 0.21132 0.73139
 C966 C -0.03469 0.22656 0.72549
 C967 C -0.04116 0.23337 0.71090
 C968 C -0.05390 0.22519 0.70251
 H969 H -0.09346 0.16270 0.69428
 H970 H -0.11687 0.14937 0.68106
 H971 H -0.13209 0.19787 0.66197
 H972 H -0.10796 0.21050 0.67454
 H973 H -0.05879 0.19151 0.72778
 H974 H -0.03644 0.20574 0.74258
 H975 H -0.03648 0.24508 0.70603
 H976 H -0.05883 0.23070 0.69137
 C977 C 0.31244 0.40002 0.31520
 C978 C 0.30289 0.38684 0.32140
 C979 C 0.31053 0.37306 0.32883
 C980 C 0.32785 0.37230 0.33013
 C981 C 0.33734 0.38568 0.32395
 C982 C 0.32967 0.39945 0.31654
 C983 C 0.30455 0.41397 0.30718
 C984 C 0.29784 0.42552 0.30033
 C985 C 0.28973 0.43914 0.29201
 C986 C 0.27495 0.44569 0.29822
 C987 C 0.26680 0.45860 0.28988
 C988 C 0.27333 0.46511 0.27518
 C989 C 0.28827 0.45852 0.26911
 C990 C 0.29640 0.44562 0.27748
 H991 H 0.28954 0.38712 0.32036
 H992 H 0.30290 0.36286 0.33325
 H993 H 0.35069 0.38554 0.32495
 H994 H 0.33718 0.40960 0.31179
 H995 H 0.26967 0.44075 0.30944
 H996 H 0.25533 0.46338 0.29487
 H997 H 0.29363 0.46325 0.25783
 H998 H 0.30782 0.44062 0.27255
 C999 C 0.31350 -0.10079 0.81379
 C1000 C 0.30412 -0.11191 0.82321
 C1001 C 0.31163 -0.12568 0.83076
 C1002 C 0.32879 -0.12870 0.82902
 C1003 C 0.33805 -0.11717 0.81951
 C1004 C 0.33046 -0.10341 0.81201
 C1005 C 0.30562 -0.08686 0.80573
 C1006 C 0.29888 -0.07532 0.79890
 C1007 C 0.29068 -0.06171 0.79065
 C1008 C 0.27591 -0.05524 0.79697
 C1009 C 0.26768 -0.04233 0.78873
 C1010 C 0.27411 -0.03572 0.77403
 C1011 C 0.28904 -0.04222 0.76785
 C1012 C 0.29725 -0.05514 0.77612
 H1013 H 0.29092 -0.11008 0.82454
 H1014 H 0.30366 -0.13429 0.83728
 H1015 H 0.35130 -0.11830 0.81823
 H1016 H 0.33787 -0.09478 0.80484
 H1017 H 0.27070 -0.06025 0.80820
 H1018 H 0.25622 -0.03761 0.79381
 H1019 H 0.29432 -0.03743 0.75657
 H1020 H 0.30866 -0.06008 0.77111
 C1021 C 0.81326 0.39930 0.81437
 C1022 C 0.80388 0.38836 0.82398
 C1023 C 0.81133 0.37460 0.83159
 C1024 C 0.82844 0.37139 0.82972
 C1025 C 0.83772 0.38274 0.82001
 C1026 C 0.83018 0.39650 0.81245
 C1027 C 0.80544 0.41324 0.80626
 C1028 C 0.79875 0.42478 0.79939
 C1029 C 0.79060 0.43840 0.79110
 C1030 C 0.77583 0.44492 0.79735
 C1031 C 0.76766 0.45784 0.78907
 C1032 C 0.77416 0.46441 0.77438
 C1033 C 0.78909 0.45787 0.76827
 C1034 C 0.79724 0.44494 0.77658
 H1035 H 0.79071 0.39034 0.82542
 H1036 H 0.80334 0.36613 0.83825
 H1037 H 0.85094 0.38148 0.81861
 H1038 H 0.83760 0.40499 0.80513
 H1039 H 0.77057 0.43993 0.80857
 H1040 H 0.75619 0.46259 0.79410
 H1041 H 0.79443 0.46264 0.75700
 H1042 H 0.80866 0.43997 0.77162
 C1043 C 0.81319 -0.10074 0.31398
 C1044 C 0.81138 -0.10356 0.33081
 C1045 C 0.81901 -0.11735 0.33822
 C1046 C 0.82867 -0.12872 0.32892
 C1047 C 0.83040 -0.12551 0.31190
 C1048 C 0.82273 -0.11171 0.30457
 C1049 C 0.80505 -0.08676 0.30627
 C1050 C 0.79820 -0.07517 0.29963
 C1051 C 0.78996 -0.06151 0.29149
 C1052 C 0.77523 -0.05503 0.29788
 C1053 C 0.76699 -0.04207 0.28970
 C1054 C 0.77338 -0.03545 0.27499
 C1055 C 0.78828 -0.04196 0.26875
 C1056 C 0.79649 -0.05491 0.27695
 H1057 H 0.80411 -0.09505 0.33824
 H1058 H 0.81770 -0.11862 0.35137
 H1059 H 0.83701 -0.13399 0.30389
 H1060 H 0.82408 -0.10973 0.29147
 H1061 H 0.77006 -0.06007 0.30911
 H1062 H 0.75555 -0.03735 0.29483
 H1063 H 0.79353 -0.03715 0.25746
 H1064 H 0.80788 -0.05985 0.27189
 C1065 C 0.31309 0.60104 0.68558
 C1066 C 0.31461 0.60185 0.66847
 C1067 C 0.32234 0.61563 0.66111
 C1068 C 0.32865 0.62877 0.67079
 C1069 C 0.32708 0.62781 0.68797
 C1070 C 0.31935 0.61404 0.69530
 C1071 C 0.30498 0.58700 0.69321
 C1072 C 0.29815 0.57538 0.69982
 C1073 C 0.28997 0.56168 0.70796
 C1074 C 0.27521 0.55521 0.70163
 C1075 C 0.26699 0.54225 0.70983
 C1076 C 0.27345 0.53561 0.72451
 C1077 C 0.28838 0.54211 0.73068
 C1078 C 0.29656 0.55506 0.72245
 H1079 H 0.30982 0.59184 0.66083
 H1080 H 0.32352 0.61593 0.64787
 H1081 H 0.33160 0.63783 0.69574
 H1082 H 0.31818 0.61357 0.70855
 H1083 H 0.26998 0.56026 0.69042
 H1084 H 0.25553 0.53753 0.70475
 H1085 H 0.29368 0.53728 0.74194
 H1086 H 0.30797 0.56000 0.72748
 C1087 C 0.31309 1.10005 0.18566
 C1088 C 0.30372 1.11099 0.17605
 C1089 C 0.31117 1.12478 0.16847
 C1090 C 0.32828 1.12801 0.17038
 C1091 C 0.33754 1.11667 0.18010
 C1092 C 0.33000 1.10288 0.18762
 C1093 C 0.30525 1.08610 0.19373
 C1094 C 0.29855 1.07455 0.20058
 C1095 C 0.29038 1.06092 0.20885
 C1096 C 0.27558 1.05446 0.20260
 C1097 C 0.26738 1.04154 0.21086
 C1098 C 0.27387 1.03492 0.22553
 C1099 C 0.28884 1.04141 0.23164
 C1100 C 0.29702 1.05433 0.22334
 H1101 H 0.29055 1.10900 0.17458
 H1102 H 0.30318 1.13324 0.16180
 H1103 H 0.35076 1.11795 0.18154
 H1104 H 0.33741 1.09440 0.19496
 H1105 H 0.27032 1.05949 0.19140
 H1106 H 0.25589 1.03683 0.20583
 H1107 H 0.29417 1.03660 0.24289
 H1108 H 0.30846 1.05927 0.22830
 C1109 C 0.81227 0.60009 0.18617
 C1110 C 0.82950 0.60077 0.18478
 C1111 C 0.83707 0.61456 0.17729
 C1112 C 0.82748 0.62785 0.17109
 C1113 C 0.81017 0.62699 0.17249
 C1114 C 0.80263 0.61320 0.17998
 C1115 C 0.80446 0.58608 0.19417
 C1116 C 0.79776 0.57450 0.20097
 C1117 C 0.78959 0.56085 0.20921
 C1118 C 0.79619 0.55429 0.22373
 C1119 C 0.78799 0.54137 0.23201
 C1120 C 0.77305 0.53486 0.22586
 C1121 C 0.76660 0.54145 0.21117
 C1122 C 0.77482 0.55437 0.20291
 H1123 H 0.83708 0.59066 0.18952
 H1124 H 0.85041 0.61477 0.17622
 H1125 H 0.80246 0.63713 0.16805
 H1126 H 0.78929 0.61283 0.18106
 H1127 H 0.80760 0.55924 0.22872
 H1128 H 0.79329 0.53659 0.24329
 H1129 H 0.75513 0.53672 0.20611
 H1130 H 0.76959 0.55938 0.19169
 C1131 C 0.81367 1.10110 0.68572
 C1132 C 0.82307 1.11216 0.69517
 C1133 C 0.83083 1.12591 0.68784
 C1134 C 0.82935 1.12896 0.67076
 C1135 C 0.81981 1.11752 0.66143
 C1136 C 0.81209 1.10378 0.66884
 C1137 C 0.80547 1.08715 0.69343
 C1138 C 0.79858 1.07560 0.70009
 C1139 C 0.79033 1.06197 0.70827
 C1140 C 0.79693 1.05534 0.72277
 C1141 C 0.78871 1.04243 0.73103
 C1142 C 0.77376 1.03597 0.72488
 C1143 C 0.76729 1.04261 0.71021
 C1144 C 0.77554 1.05554 0.70198
 H1145 H 0.82423 1.11030 0.70830
 H1146 H 0.83729 1.13448 0.69587
 H1147 H 0.81868 1.11870 0.64824
 H1148 H 0.80492 1.09520 0.66138
 H1149 H 0.80836 1.06025 0.72777
 H1150 H 0.79402 1.03760 0.74228
 H1151 H 0.75581 1.03793 0.70516
 H1152 H 0.77031 1.06060 0.69077
 C1153 C 0.68612 0.60023 0.31425
 C1154 C 0.66889 0.60098 0.31564
 C1155 C 0.66138 0.61475 0.32322
 C1156 C 0.67103 0.62795 0.32952
 C1157 C 0.68834 0.62703 0.32813
 C1158 C 0.69582 0.61326 0.32054
 C1159 C 0.69387 0.58624 0.30618
 C1160 C 0.70051 0.57465 0.29934
 C1161 C 0.70861 0.56098 0.29107
 C1162 C 0.70198 0.55447 0.27654
 C1163 C 0.71011 0.54152 0.26824
 C1164 C 0.72502 0.53493 0.27439
 C1165 C 0.73150 0.54148 0.28909
 C1166 C 0.72335 0.55442 0.29736
 H1167 H 0.66127 0.59095 0.31082
 H1168 H 0.64804 0.61502 0.32426
 H1169 H 0.69609 0.63710 0.33263
 H1170 H 0.70916 0.61284 0.31947
 H1171 H 0.69059 0.55948 0.27155
 H1172 H 0.70480 0.53677 0.25696
 H1173 H 0.74295 0.53669 0.29415
 H1174 H 0.72860 0.55940 0.30859
 C1175 C 0.68663 1.10092 0.81361
 C1176 C 0.69606 1.11177 0.82326
 C1177 C 0.68867 1.12551 0.83096
 C1178 C 0.67156 1.12878 0.82916
 C1179 C 0.66223 1.11753 0.81939
 C1180 C 0.66971 1.10379 0.81173
 C1181 C 0.69440 1.08700 0.80544
 C1182 C 0.70108 1.07547 0.79853
 C1183 C 0.70924 1.06187 0.79022
 C1184 C 0.72402 1.05537 0.79647
 C1185 C 0.73222 1.04247 0.78817
 C1186 C 0.72574 1.03592 0.77346
 C1187 C 0.71080 1.04246 0.76735
 C1188 C 0.70262 1.05536 0.77568
 H1189 H 0.70923 1.10974 0.82467
 H1190 H 0.69669 1.13390 0.83768
 H1191 H 0.64901 1.11885 0.81801
 H1192 H 0.66225 1.09537 0.80437
 H1193 H 0.72926 1.06034 0.80770
 H1194 H 0.74369 1.03773 0.79320
 H1195 H 0.70548 1.03771 0.75607
 H1196 H 0.69120 1.06032 0.77072
 C1197 C 0.18637 0.60057 0.81327
 C1198 C 0.19577 0.61151 0.82286
 C1199 C 0.18834 0.62526 0.83051
 C1200 C 0.17121 0.62845 0.82870
 C1201 C 0.16192 0.61710 0.81902
 C1202 C 0.16944 0.60335 0.81142
 C1203 C 0.19418 0.58666 0.80512
 C1204 C 0.20087 0.57514 0.79821
 C1205 C 0.20901 0.56154 0.78987
 C1206 C 0.22376 0.55499 0.79613
 C1207 C 0.23194 0.54209 0.78781
 C1208 C 0.22547 0.53558 0.77309
 C1209 C 0.21055 0.54217 0.76697
 C1210 C 0.20239 0.55507 0.77532
 H1211 H 0.20895 0.60955 0.82424
 H1212 H 0.19634 0.63372 0.83715
 H1213 H 0.14868 0.61834 0.81767
 H1214 H 0.16200 0.59486 0.80412
 H1215 H 0.22901 0.55993 0.80737
 H1216 H 0.24340 0.53731 0.79285
 H1217 H 0.20523 0.53744 0.75568
 H1218 H 0.19099 0.56007 0.77035
 C1219 C 0.18687 1.10024 0.31378
 C1220 C 0.18067 1.11341 0.30424
 C1221 C 0.17309 1.12715 0.31177
 C1222 C 0.17161 1.12791 0.32897
 C1223 C 0.17786 1.11459 0.33846
 C1224 C 0.18544 1.10085 0.33090
 C1225 C 0.19485 1.08624 0.30596
 C1226 C 0.20159 1.07464 0.29922
 C1227 C 0.20969 1.06096 0.29096
 C1228 C 0.20302 1.05446 0.27645
 C1229 C 0.21113 1.04151 0.26813
 C1230 C 0.22604 1.03491 0.27423
 C1231 C 0.23257 1.04144 0.28892
 C1232 C 0.22443 1.05439 0.29722
 H1233 H 0.18178 1.11310 0.29099
 H1234 H 0.16863 1.13731 0.30414
 H1235 H 0.17675 1.11474 0.35171
 H1236 H 0.19018 1.09071 0.33840
 H1237 H 0.19163 1.05948 0.27148
 H1238 H 0.20577 1.03677 0.25686
 H1239 H 0.24402 1.03665 0.29395
 H1240 H 0.22972 1.05936 0.30844
 C1241 C 0.68713 0.39927 0.68587
 C1242 C 0.66990 0.39860 0.68454
 C1243 C 0.66230 0.38485 0.67701
 C1244 C 0.67186 0.37158 0.67071
 C1245 C 0.68918 0.37243 0.67204
 C1246 C 0.69675 0.38618 0.67958
 C1247 C 0.69497 0.41324 0.69391
 C1248 C 0.70166 0.42480 0.70074
 C1249 C 0.70980 0.43845 0.70901
 C1250 C 0.70315 0.44499 0.72353
 C1251 C 0.71131 0.45792 0.73184
 C1252 C 0.72625 0.46446 0.72573
 C1253 C 0.73275 0.45789 0.71105
 C1254 C 0.72458 0.44497 0.70276
 H1255 H 0.66234 0.40867 0.68936
 H1256 H 0.64895 0.38463 0.67601
 H1257 H 0.69687 0.36231 0.66754
 H1258 H 0.71009 0.38654 0.68061
 H1259 H 0.69173 0.44002 0.72849
 H1260 H 0.70597 0.46269 0.74310
 H1261 H 0.74423 0.46264 0.70602
 H1262 H 0.72985 0.43997 0.69155
 C1263 C 0.68609 -0.10055 0.18682
 C1264 C 0.66915 -0.10342 0.18856
 C1265 C 0.66175 -0.11723 0.18094
 C1266 C 0.67117 -0.12854 0.17134
 C1267 C 0.68830 -0.12527 0.16967
 C1268 C 0.69562 -0.11147 0.17734
 C1269 C 0.69380 -0.08656 0.19495
 C1270 C 0.70045 -0.07499 0.20180
 C1271 C 0.70861 -0.06134 0.21005
 C1272 C 0.70206 -0.05483 0.22462
 C1273 C 0.71026 -0.04190 0.23289
 C1274 C 0.72515 -0.03534 0.22668
 C1275 C 0.73155 -0.04187 0.21194
 C1276 C 0.72333 -0.05479 0.20370
 H1277 H 0.66163 -0.09495 0.19579
 H1278 H 0.64851 -0.11855 0.18220
 H1279 H 0.69638 -0.13372 0.16308
 H1280 H 0.70879 -0.10945 0.17604
 H1281 H 0.69068 -0.05982 0.22965
 H1282 H 0.70500 -0.03716 0.24420
 H1283 H 0.74298 -0.03711 0.20683
 H1284 H 0.72852 -0.05977 0.19244
 C1285 C 0.18673 0.39942 0.18674
 C1286 C 0.16951 0.39865 0.18521
 C1287 C 0.16208 0.38486 0.17757
 C1288 C 0.17179 0.37166 0.17138
 C1289 C 0.18909 0.37260 0.17294
 C1290 C 0.19649 0.38638 0.18057
 C1291 C 0.19441 0.41345 0.19482
 C1292 C 0.20102 0.42507 0.20165
 C1293 C 0.20911 0.43878 0.20987
 C1294 C 0.20245 0.44537 0.22436
 C1295 C 0.21058 0.45835 0.23262
 C1296 C 0.22551 0.46490 0.22648
 C1297 C 0.23202 0.45828 0.21182
 C1298 C 0.22387 0.44530 0.20359
 H1299 H 0.16184 0.40869 0.18993
 H1300 H 0.14875 0.38458 0.17640
 H1301 H 0.19688 0.36253 0.16850
 H1302 H 0.20982 0.38682 0.18176
 H1303 H 0.19105 0.44039 0.22935
 H1304 H 0.20524 0.46316 0.24387
 H1305 H 0.24348 0.46303 0.20676
 H1306 H 0.22914 0.44027 0.19240
 C1307 C 0.18627 -0.10077 0.68615
 C1308 C 0.17682 -0.11186 0.69552
 C1309 C 0.16912 -0.12560 0.68812
 C1310 C 0.17071 -0.12862 0.67106
 C1311 C 0.18032 -0.11716 0.66180
 C1312 C 0.18797 -0.10342 0.66929
 C1313 C 0.19440 -0.08682 0.69393
 C1314 C 0.20125 -0.07528 0.70065
 C1315 C 0.20946 -0.06165 0.70888
 C1316 C 0.20289 -0.05513 0.72343
 C1317 C 0.21108 -0.04222 0.73172
 C1318 C 0.22600 -0.03567 0.72555
 C1319 C 0.23243 -0.04222 0.71083
 C1320 C 0.22421 -0.05513 0.70256
 H1321 H 0.17556 -0.11001 0.70865
 H1322 H 0.16261 -0.13419 0.69610
 H1323 H 0.18154 -0.11832 0.64862
 H1324 H 0.19518 -0.09483 0.66188
 H1325 H 0.19149 -0.06010 0.72844
 H1326 H 0.20580 -0.03746 0.74301
 H1327 H 0.24388 -0.03746 0.70575
 H1328 H 0.22942 -0.06012 0.69132
 C1329 C 0.31480 0.31223 0.40099
 C1330 C 0.31614 0.32971 0.40023
 C1331 C 0.32338 0.33735 0.38654
 C1332 C 0.32937 0.32758 0.37344
 C1333 C 0.32805 0.31001 0.37438
 C1334 C 0.32080 0.30240 0.38807
 C1335 C 0.30697 0.30435 0.41487
 C1336 C 0.30027 0.29764 0.42634
 C1337 C 0.29209 0.28951 0.43986
 C1338 C 0.27762 0.29638 0.44643
 C1339 C 0.26935 0.28821 0.45920
 C1340 C 0.27544 0.27301 0.46557
 C1341 C 0.29010 0.26628 0.45898
 C1342 C 0.29835 0.27449 0.44621
 H1343 H 0.31154 0.33743 0.41017
 H1344 H 0.32440 0.35089 0.38625
 H1345 H 0.33232 0.30217 0.36440
 H1346 H 0.31975 0.28887 0.38850
 H1347 H 0.27266 0.30799 0.44159
 H1348 H 0.25810 0.29372 0.46399
 H1349 H 0.29511 0.25461 0.46359
 H1350 H 0.30953 0.26904 0.44119
 C1351 C 0.31462 0.81239 -0.09995
 C1352 C 0.31618 0.82985 -0.10080
 C1353 C 0.32353 0.83733 -0.11451
 C1354 C 0.32941 0.82742 -0.12756
 C1355 C 0.32789 0.80987 -0.12653
 C1356 C 0.32053 0.80242 -0.11282
 C1357 C 0.30670 0.80467 -0.08605
 C1358 C 0.29993 0.79806 -0.07456
 C1359 C 0.29169 0.79001 -0.06102
 C1360 C 0.27723 0.79695 -0.05451
 C1361 C 0.26889 0.78884 -0.04173
 C1362 C 0.27493 0.77363 -0.03532
 C1363 C 0.28959 0.76685 -0.04184
 C1364 C 0.29789 0.77500 -0.05461
 H1365 H 0.31166 0.83767 -0.09089
 H1366 H 0.32472 0.85085 -0.11486
 H1367 H 0.33212 0.80193 -0.13646
 H1368 H 0.31934 0.78890 -0.11232
 H1369 H 0.27231 0.80856 -0.05940
 H1370 H 0.25765 0.79439 -0.03700
 H1371 H 0.29456 0.75518 -0.03719
 H1372 H 0.30907 0.76950 -0.05959
 C1373 C 0.81413 0.31274 -0.09893
 C1374 C 0.81570 0.33020 -0.09985
 C1375 C 0.82306 0.33762 -0.11358
 C1376 C 0.82895 0.32765 -0.12659
 C1377 C 0.82742 0.31011 -0.12549
 C1378 C 0.82005 0.30272 -0.11175
 C1379 C 0.80621 0.30509 -0.08500
 C1380 C 0.79945 0.29852 -0.07347
 C1381 C 0.79123 0.29050 -0.05991
 C1382 C 0.77674 0.29741 -0.05343
 C1383 C 0.76842 0.28931 -0.04063
 C1384 C 0.77450 0.27415 -0.03416
 C1385 C 0.78919 0.26740 -0.04065
 C1386 C 0.79748 0.27553 -0.05344
 H1387 H 0.81118 0.33807 -0.08997
 H1388 H 0.82426 0.35114 -0.11398
 H1389 H 0.83165 0.30212 -0.13539
 H1390 H 0.81885 0.28920 -0.11119
 H1391 H 0.77178 0.30898 -0.05836
 H1392 H 0.75715 0.29484 -0.03593
 H1393 H 0.79419 0.25576 -0.03596
 H1394 H 0.80867 0.27005 -0.05839
 C1395 C 0.81399 0.81271 0.40020
 C1396 C 0.81537 0.83018 0.39918
 C1397 C 0.82280 0.83759 0.38548
 C1398 C 0.82895 0.82760 0.37261
 C1399 C 0.82756 0.81005 0.37379
 C1400 C 0.82012 0.80268 0.38749
 C1401 C 0.80607 0.80504 0.41412
 C1402 C 0.79934 0.79844 0.42565
 C1403 C 0.79120 0.79036 0.43922
 C1404 C 0.77672 0.79721 0.44579
 C1405 C 0.76849 0.78906 0.45861
 C1406 C 0.77466 0.77391 0.46502
 C1407 C 0.78933 0.76721 0.45844
 C1408 C 0.79752 0.77539 0.44562
 H1409 H 0.81067 0.83806 0.40896
 H1410 H 0.82386 0.85112 0.38500
 H1411 H 0.83196 0.80204 0.36398
 H1412 H 0.81905 0.78915 0.38811
 H1413 H 0.77170 0.80878 0.44091
 H1414 H 0.75724 0.79454 0.46340
 H1415 H 0.79440 0.75558 0.46309
 H1416 H 0.80871 0.76997 0.44060
 C1417 C 0.68563 0.31229 0.59935
 C1418 C 0.67945 0.30232 0.61208
 C1419 C 0.67207 0.30977 0.62578
 C1420 C 0.67080 0.32733 0.62693
 C1421 C 0.67695 0.33725 0.61401
 C1422 C 0.68432 0.32976 0.60031
 C1423 C 0.69359 0.30457 0.58547
 C1424 C 0.70040 0.29798 0.57399
 C1425 C 0.70869 0.28997 0.56047
 C1426 C 0.70256 0.27492 0.55405
 C1427 C 0.71092 0.26683 0.54128
 C1428 C 0.72556 0.27368 0.53478
 C1429 C 0.73153 0.28891 0.54122
 C1430 C 0.72314 0.29697 0.55399
 H1431 H 0.68046 0.28878 0.61149
 H1432 H 0.66766 0.30180 0.63562
 H1433 H 0.67597 0.35078 0.61445
 H1434 H 0.68905 0.33760 0.59051
 H1435 H 0.69140 0.26937 0.55900
 H1436 H 0.70600 0.25513 0.53661
 H1437 H 0.74275 0.29452 0.53651
 H1438 H 0.72801 0.30860 0.55889
 C1439 C 0.68653 0.81341 1.09985
 C1440 C 0.66933 0.81521 1.10052
 C1441 C 0.66189 0.82252 1.11428
 C1442 C 0.67159 0.82810 1.12755
 C1443 C 0.68886 0.82629 1.12671
 C1444 C 0.69627 0.81899 1.11295
 C1445 C 0.69422 0.80564 1.08585
 C1446 C 0.70086 0.79903 1.07429
 C1447 C 0.70900 0.79102 1.06068
 C1448 C 0.70268 0.77611 1.05416
 C1449 C 0.71093 0.76798 1.04135
 C1450 C 0.72566 0.77469 1.03488
 C1451 C 0.73181 0.78980 1.04140
 C1452 C 0.72353 0.79789 1.05422
 H1453 H 0.66168 0.81096 1.09043
 H1454 H 0.64859 0.82393 1.11449
 H1455 H 0.69663 0.83029 1.13681
 H1456 H 0.70958 0.81759 1.11259
 H1457 H 0.69146 0.77067 1.05910
 H1458 H 0.70587 0.75638 1.03662
 H1459 H 0.74311 0.79529 1.03671
 H1460 H 0.72855 0.80942 1.05919
 C1461 C 0.18655 0.31288 1.09977
 C1462 C 0.19635 0.31859 1.11278
 C1463 C 0.18900 0.32600 1.12651
 C1464 C 0.17173 0.32779 1.12742
 C1465 C 0.16198 0.32207 1.11425
 C1466 C 0.16936 0.31466 1.10051
 C1467 C 0.19419 0.30501 1.08579
 C1468 C 0.20078 0.29835 1.07423
 C1469 C 0.20889 0.29031 1.06061
 C1470 C 0.22340 0.29717 1.05410
 C1471 C 0.23163 0.28907 1.04126
 C1472 C 0.22546 0.27396 1.03477
 C1473 C 0.21076 0.26725 1.04128
 C1474 C 0.20255 0.27538 1.05413
 H1475 H 0.20966 0.31722 1.11236
 H1476 H 0.19681 0.33009 1.13654
 H1477 H 0.14867 0.32346 1.11450
 H1478 H 0.16167 0.31031 1.09049
 H1479 H 0.22843 0.30870 1.05905
 H1480 H 0.24291 0.29457 1.03653
 H1481 H 0.20568 0.25564 1.03657
 H1482 H 0.19134 0.26994 1.05910
 C1483 C 0.18574 0.81312 0.59976
 C1484 C 0.18435 0.83058 0.60082
 C1485 C 0.17685 0.83795 0.61451
 C1486 C 0.17063 0.82792 0.62732
 C1487 C 0.17203 0.81037 0.62609
 C1488 C 0.17954 0.80304 0.61240
 C1489 C 0.19374 0.80550 0.58585
 C1490 C 0.20053 0.79895 0.57434
 C1491 C 0.20876 0.79093 0.56078
 C1492 C 0.22321 0.79789 0.55426
 C1493 C 0.23153 0.78980 0.54146
 C1494 C 0.22548 0.77460 0.53503
 C1495 C 0.21083 0.76781 0.54156
 C1496 C 0.20255 0.77592 0.55436
 H1497 H 0.18910 0.83850 0.59109
 H1498 H 0.17579 0.85148 0.61503
 H1499 H 0.16757 0.80233 0.63585
 H1500 H 0.18061 0.78951 0.61174
 H1501 H 0.22814 0.80949 0.55916
 H1502 H 0.24276 0.79536 0.53671
 H1503 H 0.20585 0.75614 0.53690
 H1504 H 0.19138 0.77041 0.55935
 C1505 C 0.31478 0.68797 0.59942
 C1506 C 0.31609 0.67050 0.60039
 C1507 C 0.32350 0.66302 0.61407
 C1508 C 0.32971 0.67295 0.62696
 C1509 C 0.32841 0.69051 0.62581
 C1510 C 0.32100 0.69795 0.61213
 C1511 C 0.30680 0.69569 0.58555
 C1512 C 0.29999 0.70229 0.57409
 C1513 C 0.29169 0.71032 0.56058
 C1514 C 0.27721 0.70335 0.55413
 C1515 C 0.26882 0.71144 0.54137
 C1516 C 0.27482 0.72664 0.53492
 C1517 C 0.28950 0.73346 0.54138
 C1518 C 0.29786 0.72534 0.55414
 H1519 H 0.31133 0.66266 0.59061
 H1520 H 0.32448 0.64948 0.61452
 H1521 H 0.33284 0.69848 0.63564
 H1522 H 0.31998 0.71149 0.61154
 H1523 H 0.27232 0.69174 0.55905
 H1524 H 0.25757 0.70586 0.53668
 H1525 H 0.29444 0.74513 0.53670
 H1526 H 0.30904 0.73086 0.55907
 C1527 C 0.31398 0.18679 1.09916
 C1528 C 0.31559 0.16934 1.10002
 C1529 C 0.32295 0.16189 1.11374
 C1530 C 0.32879 0.17184 1.12679
 C1531 C 0.32721 0.18938 1.12574
 C1532 C 0.31985 0.19679 1.11202
 C1533 C 0.30606 0.19448 1.08524
 C1534 C 0.29932 0.20108 1.07374
 C1535 C 0.29112 0.20916 1.06020
 C1536 C 0.27660 0.20232 1.05371
 C1537 C 0.26830 0.21049 1.04095
 C1538 C 0.27444 0.22565 1.03453
 C1539 C 0.28915 0.23233 1.04102
 C1540 C 0.29742 0.22413 1.05378
 H1541 H 0.31110 0.16149 1.09012
 H1542 H 0.32418 0.14838 1.11410
 H1543 H 0.33140 0.19735 1.13568
 H1544 H 0.31861 0.21031 1.11151
 H1545 H 0.27160 0.19075 1.05862
 H1546 H 0.25701 0.20502 1.03623
 H1547 H 0.29420 0.24397 1.03636
 H1548 H 0.30864 0.22955 1.05873
 C1549 C 0.81355 0.68746 1.09989
 C1550 C 0.80364 0.68134 1.11263
 C1551 C 0.81088 0.67378 1.12633
 C1552 C 0.82816 0.67222 1.12748
 C1553 C 0.83803 0.67840 1.11460
 C1554 C 0.83076 0.68596 1.10088
 C1555 C 0.80600 0.69540 1.08590
 C1556 C 0.79944 0.70209 1.07434
 C1557 C 0.79133 0.71014 1.06074
 C1558 C 0.77683 0.70327 1.05422
 C1559 C 0.76858 0.71139 1.04140
 C1560 C 0.77474 0.72652 1.03493
 C1561 C 0.78943 0.73323 1.04145
 C1562 C 0.79766 0.72509 1.05428
 H1563 H 0.79031 0.68250 1.11201
 H1564 H 0.80296 0.66938 1.13615
 H1565 H 0.85136 0.67722 1.11505
 H1566 H 0.83855 0.69064 1.09108
 H1567 H 0.77181 0.69172 1.05915
 H1568 H 0.75731 0.70589 1.03666
 H1569 H 0.79449 0.74485 1.03676
 H1570 H 0.80886 0.73053 1.05926
 C1571 C 0.81475 0.18733 0.59950
 C1572 C 0.81614 0.16987 0.60053
 C1573 C 0.82359 0.16248 0.61424
 C1574 C 0.82973 0.17249 0.62710
 C1575 C 0.82833 0.19004 0.62590
 C1576 C 0.82088 0.19739 0.61219
 C1577 C 0.80679 0.19497 0.58558
 C1578 C 0.80001 0.20152 0.57407
 C1579 C 0.79177 0.20953 0.56051
 C1580 C 0.77734 0.20253 0.55397
 C1581 C 0.76901 0.21061 0.54118
 C1582 C 0.77501 0.22583 0.53477
 C1583 C 0.78963 0.23267 0.54132
 C1584 C 0.79794 0.22457 0.55411
 H1585 H 0.81145 0.16197 0.59076
 H1586 H 0.82465 0.14895 0.61474
 H1587 H 0.83273 0.19806 0.63569
 H1588 H 0.81980 0.21092 0.61155
 H1589 H 0.77245 0.19091 0.55886
 H1590 H 0.75779 0.20501 0.53643
 H1591 H 0.79457 0.24437 0.53667
 H1592 H 0.80909 0.23011 0.55910
 C1593 C 0.68538 0.68703 0.40093
 C1594 C 0.68397 0.66956 0.39995
 C1595 C 0.67650 0.66214 0.38627
 C1596 C 0.67035 0.67212 0.37339
 C1597 C 0.67173 0.68967 0.37456
 C1598 C 0.67921 0.69705 0.38823
 C1599 C 0.69343 0.69469 0.41479
 C1600 C 0.70029 0.70126 0.42624
 C1601 C 0.70862 0.70929 0.43973
 C1602 C 0.72319 0.70241 0.44607
 C1603 C 0.73161 0.71052 0.45880
 C1604 C 0.72555 0.72565 0.46534
 C1605 C 0.71079 0.73237 0.45899
 C1606 C 0.70240 0.72424 0.44627
 H1607 H 0.68869 0.66168 0.40972
 H1608 H 0.67543 0.64861 0.38581
 H1609 H 0.66733 0.69767 0.36474
 H1610 H 0.68030 0.71058 0.38884
 H1611 H 0.72813 0.69085 0.44108
 H1612 H 0.74293 0.70502 0.46340
 H1613 H 0.70579 0.74400 0.46375
 H1614 H 0.69114 0.72969 0.44143
 C1615 C 0.68641 0.18712 -0.09925
 C1616 C 0.69624 0.18128 -0.11217
 C1617 C 0.68892 0.17386 -0.12591
 C1618 C 0.67164 0.17219 -0.12692
 C1619 C 0.66186 0.17805 -0.11383
 C1620 C 0.66921 0.18547 -0.10009
 C1621 C 0.69403 0.19499 -0.08526
 C1622 C 0.70062 0.20165 -0.07369
 C1623 C 0.70873 0.20969 -0.06008
 C1624 C 0.72320 0.20279 -0.05354
 C1625 C 0.73145 0.21089 -0.04071
 C1626 C 0.72534 0.22604 -0.03426
 C1627 C 0.71067 0.23278 -0.04080
 C1628 C 0.70244 0.22465 -0.05363
 H1629 H 0.70956 0.18255 -0.11168
 H1630 H 0.69677 0.16967 -0.13588
 H1631 H 0.64854 0.17677 -0.11417
 H1632 H 0.66149 0.18994 -0.09014
 H1633 H 0.72819 0.19123 -0.05846
 H1634 H 0.74271 0.20536 -0.03596
 H1635 H 0.70564 0.24442 -0.03612
 H1636 H 0.69126 0.23012 -0.05863
 C1637 C 0.18572 0.68712 -0.10002
 C1638 C 0.17975 0.69713 -0.11282
 C1639 C 0.17234 0.68974 -0.12653
 C1640 C 0.17081 0.67220 -0.12762
 C1641 C 0.17674 0.66223 -0.11463
 C1642 C 0.18415 0.66966 -0.10092
 C1643 C 0.19369 0.69478 -0.08612
 C1644 C 0.20050 0.70135 -0.07462
 C1645 C 0.20877 0.70935 -0.06108
 C1646 C 0.20258 0.72435 -0.05461
 C1647 C 0.21092 0.73244 -0.04183
 C1648 C 0.22559 0.72564 -0.03536
 C1649 C 0.23161 0.71046 -0.04184
 C1650 C 0.22325 0.70239 -0.05462
 H1651 H 0.18096 0.71066 -0.11228
 H1652 H 0.16808 0.69772 -0.13642
 H1653 H 0.17554 0.64872 -0.11502
 H1654 H 0.18870 0.66180 -0.09106
 H1655 H 0.19140 0.72986 -0.05955
 H1656 H 0.20595 0.74410 -0.03713
 H1657 H 0.24286 0.70490 -0.03715
 H1658 H 0.22816 0.69080 -0.05957
 C1659 C 0.18654 0.18635 0.40083
 C1660 C 0.18019 0.19648 0.38830
 C1661 C 0.17267 0.18921 0.37460
 C1662 C 0.17139 0.17166 0.37324
 C1663 C 0.17775 0.16157 0.38593
 C1664 C 0.18527 0.16889 0.39964
 C1665 C 0.19455 0.19392 0.41476
 C1666 C 0.20135 0.20044 0.42628
 C1667 C 0.20959 0.20845 0.43984
 C1668 C 0.20334 0.22340 0.44634
 C1669 C 0.21163 0.23152 0.45913
 C1670 C 0.22634 0.22478 0.46559
 C1671 C 0.23243 0.20963 0.45908
 C1672 C 0.22410 0.20154 0.44629
 H1673 H 0.18117 0.21001 0.38907
 H1674 H 0.16812 0.19730 0.36493
 H1675 H 0.17679 0.14804 0.38532
 H1676 H 0.19013 0.16093 0.40928
 H1677 H 0.19212 0.22887 0.44142
 H1678 H 0.20662 0.24315 0.46385
 H1679 H 0.24371 0.20411 0.46377
 H1680 H 0.22907 0.18999 0.44133
 C1681 C 0.31282 0.39967 0.68497
 C1682 C 0.30332 0.38643 0.67879
 C1683 C 0.31102 0.37266 0.67144
 C1684 C 0.32835 0.37193 0.67019
 C1685 C 0.33779 0.38535 0.67636
 C1686 C 0.33006 0.39912 0.68370
 C1687 C 0.30486 0.41364 0.69288
 C1688 C 0.29810 0.42521 0.69964
 C1689 C 0.28992 0.43885 0.70786
 C1690 C 0.27514 0.44533 0.70157
 C1691 C 0.26694 0.45826 0.70982
 C1692 C 0.27341 0.46488 0.72449
 C1693 C 0.28836 0.45837 0.73063
 C1694 C 0.29653 0.44544 0.72236
 H1695 H 0.28997 0.38670 0.67977
 H1696 H 0.30343 0.36242 0.66702
 H1697 H 0.35114 0.38523 0.67541
 H1698 H 0.33753 0.40931 0.68844
 H1699 H 0.26990 0.44030 0.69036
 H1700 H 0.25547 0.46298 0.70476
 H1701 H 0.29367 0.46318 0.74189
 H1702 H 0.30795 0.44050 0.72735
 C1703 C 0.31281 0.89936 0.18498
 C1704 C 0.33004 0.89881 0.18357
 C1705 C 0.33770 0.88511 0.17604
 C1706 C 0.32820 0.87175 0.16981
 C1707 C 0.31088 0.87248 0.17119
 C1708 C 0.30325 0.88619 0.17873
 C1709 C 0.30492 0.91325 0.19309
 C1710 C 0.29822 0.92476 0.20000
 C1711 C 0.29008 0.93833 0.20838
 C1712 C 0.29676 0.94479 0.22292
 C1713 C 0.28863 0.95767 0.23132
 C1714 C 0.27369 0.96425 0.22527
 C1715 C 0.26715 0.95776 0.21057
 C1716 C 0.27530 0.94489 0.20219
 H1717 H 0.33755 0.90895 0.18835
 H1718 H 0.35104 0.88499 0.17499
 H1719 H 0.30325 0.86230 0.16673
 H1720 H 0.28991 0.88646 0.17982
 H1721 H 0.30819 0.93979 0.22783
 H1722 H 0.29399 0.96237 0.24260
 H1723 H 0.25567 0.96255 0.20558
 H1724 H 0.27001 0.93996 0.19096
 C1725 C 0.81266 0.39899 0.18662
 C1726 C 0.81414 0.39829 0.16950
 C1727 C 0.82187 0.38458 0.16204
 C1728 C 0.82824 0.37139 0.17163
 C1729 C 0.82672 0.37225 0.18882
 C1730 C 0.81898 0.38596 0.19625
 C1731 C 0.80454 0.41297 0.19435
 C1732 C 0.79770 0.42454 0.20102
 C1733 C 0.78950 0.43818 0.20922
 C1734 C 0.77474 0.44467 0.20291
 C1735 C 0.76652 0.45759 0.21115
 C1736 C 0.77296 0.46418 0.22586
 C1737 C 0.78789 0.45766 0.23202
 C1738 C 0.79608 0.44475 0.22376
 H1739 H 0.80931 0.40833 0.16193
 H1740 H 0.82302 0.38436 0.14879
 H1741 H 0.83127 0.36219 0.19652
 H1742 H 0.81785 0.38634 0.20950
 H1743 H 0.76953 0.43966 0.19168
 H1744 H 0.75506 0.46233 0.20608
 H1745 H 0.79318 0.46245 0.24330
 H1746 H 0.80748 0.43979 0.22877
 C1747 C 0.81289 0.90013 0.68496
 C1748 C 0.80332 0.88697 0.67872
 C1749 C 0.81094 0.87321 0.67126
 C1750 C 0.82826 0.87242 0.66996
 C1751 C 0.83777 0.88576 0.67618
 C1752 C 0.83012 0.89952 0.68363
 C1753 C 0.80500 0.91408 0.69297
 C1754 C 0.79829 0.92564 0.69980
 C1755 C 0.79014 0.93927 0.70808
 C1756 C 0.77537 0.94578 0.70183
 C1757 C 0.76719 0.95869 0.71011
 C1758 C 0.77369 0.96526 0.72480
 C1759 C 0.78863 0.95873 0.73091
 C1760 C 0.79679 0.94581 0.72259
 H1761 H 0.78997 0.88728 0.67975
 H1762 H 0.80329 0.86303 0.66681
 H1763 H 0.85112 0.88560 0.67519
 H1764 H 0.83764 0.90965 0.68841
 H1765 H 0.77010 0.94078 0.69061
 H1766 H 0.75571 0.96344 0.70509
 H1767 H 0.79396 0.96350 0.74217
 H1768 H 0.80821 0.94084 0.72755
 C1769 C 0.68696 0.60066 0.68661
 C1770 C 0.68077 0.61381 0.69618
 C1771 C 0.67321 0.62758 0.68869
 C1772 C 0.67175 0.62839 0.67148
 C1773 C 0.67797 0.61509 0.66196
 C1774 C 0.68552 0.60131 0.66949
 C1775 C 0.69494 0.58663 0.69439
 C1776 C 0.70170 0.57501 0.70108
 C1777 C 0.70984 0.56132 0.70926
 C1778 C 0.70321 0.55472 0.72376
 C1779 C 0.71135 0.54175 0.73200
 C1780 C 0.72627 0.53521 0.72584
 C1781 C 0.73276 0.54183 0.71117
 C1782 C 0.72458 0.55480 0.70295
 H1783 H 0.68188 0.61347 0.70944
 H1784 H 0.66878 0.63774 0.69633
 H1785 H 0.67687 0.61527 0.64871
 H1786 H 0.69025 0.59118 0.66197
 H1787 H 0.69181 0.55969 0.72877
 H1788 H 0.70602 0.53694 0.74326
 H1789 H 0.74421 0.53708 0.70610
 H1790 H 0.72984 0.55984 0.69175
 C1791 C 0.68632 0.10052 0.18664
 C1792 C 0.66910 0.10119 0.18517
 C1793 C 0.66157 0.11490 0.17752
 C1794 C 0.67119 0.12813 0.17124
 C1795 C 0.68850 0.12729 0.17271
 C1796 C 0.69599 0.11357 0.18037
 C1797 C 0.69409 0.08657 0.19478
 C1798 C 0.70074 0.07502 0.20166
 C1799 C 0.70887 0.06138 0.20996
 C1800 C 0.70229 0.05491 0.22453
 C1801 C 0.71044 0.04199 0.23284
 C1802 C 0.72532 0.03537 0.22665
 C1803 C 0.73176 0.04187 0.21191
 C1804 C 0.72358 0.05479 0.20364
 H1805 H 0.66149 0.09113 0.18997
 H1806 H 0.64823 0.11511 0.17641
 H1807 H 0.69623 0.13739 0.16822
 H1808 H 0.70933 0.11321 0.18150
 H1809 H 0.69092 0.05995 0.22954
 H1810 H 0.70516 0.03727 0.24415
 H1811 H 0.74318 0.03706 0.20682
 H1812 H 0.72880 0.05973 0.19237
 C1813 C 0.18665 0.60064 0.18583
 C1814 C 0.19632 0.61368 0.17951
 C1815 C 0.18882 0.62738 0.17184
 C1816 C 0.17151 0.62823 0.17039
 C1817 C 0.16189 0.61502 0.17673
 C1818 C 0.16943 0.60132 0.18440
 C1819 C 0.19443 0.58671 0.19398
 C1820 C 0.20108 0.57518 0.20090
 C1821 C 0.20919 0.56157 0.20926
 C1822 C 0.22395 0.55499 0.20305
 C1823 C 0.23210 0.54210 0.21141
 C1824 C 0.22558 0.53562 0.22612
 C1825 C 0.21064 0.54223 0.23219
 C1826 C 0.20252 0.55512 0.22381
 H1827 H 0.20966 0.61331 0.18062
 H1828 H 0.19654 0.63746 0.16731
 H1829 H 0.14855 0.61524 0.17565
 H1830 H 0.16182 0.59128 0.18924
 H1831 H 0.22923 0.55991 0.19181
 H1832 H 0.24356 0.53730 0.20641
 H1833 H 0.20529 0.53753 0.24348
 H1834 H 0.19111 0.56014 0.22874
 C1835 C 0.18632 0.10044 0.68672
 C1836 C 0.18015 0.11360 0.69629
 C1837 C 0.17259 0.12737 0.68879
 C1838 C 0.17110 0.12816 0.67159
 C1839 C 0.17729 0.11484 0.66208
 C1840 C 0.18485 0.10106 0.66961
 C1841 C 0.19434 0.08643 0.69450
 C1842 C 0.20114 0.07482 0.70116
 C1843 C 0.20934 0.06114 0.70930
 C1844 C 0.20279 0.05452 0.72382
 C1845 C 0.21099 0.04156 0.73202
 C1846 C 0.22590 0.03506 0.72579
 C1847 C 0.23232 0.04171 0.71110
 C1848 C 0.22408 0.05467 0.70293
 H1849 H 0.18129 0.11327 0.70954
 H1850 H 0.16818 0.13754 0.69644
 H1851 H 0.17617 0.11501 0.64883
 H1852 H 0.18956 0.09093 0.66209
 H1853 H 0.19140 0.05946 0.72888
 H1854 H 0.20573 0.03673 0.74329
 H1855 H 0.24376 0.03699 0.70598
 H1856 H 0.22928 0.05973 0.69171
 C1857 C 0.31274 0.60115 0.31430
 C1858 C 0.32998 0.60182 0.31558
 C1859 C 0.33760 0.61557 0.32308
 C1860 C 0.32806 0.62884 0.32940
 C1861 C 0.31074 0.62800 0.32811
 C1862 C 0.30314 0.61425 0.32060
 C1863 C 0.30487 0.58717 0.30632
 C1864 C 0.29814 0.57558 0.29954
 C1865 C 0.28997 0.56191 0.29134
 C1866 C 0.29661 0.55526 0.27687
 C1867 C 0.28843 0.54230 0.26864
 C1868 C 0.27347 0.53583 0.27478
 C1869 C 0.26697 0.54251 0.28942
 C1870 C 0.27518 0.55547 0.29762
 H1871 H 0.33752 0.59173 0.31075
 H1872 H 0.35095 0.61578 0.32405
 H1873 H 0.30307 0.63812 0.33263
 H1874 H 0.28980 0.61390 0.31961
 H1875 H 0.30804 0.56018 0.27188
 H1876 H 0.29376 0.53745 0.25741
 H1877 H 0.25549 0.53782 0.29447
 H1878 H 0.26992 0.56055 0.30881
 C1879 C 0.31300 0.10008 0.81431
 C1880 C 0.33022 0.10071 0.81577
 C1881 C 0.33781 0.11446 0.82330
 C1882 C 0.32824 0.12778 0.82948
 C1883 C 0.31093 0.12697 0.82805
 C1884 C 0.30338 0.11322 0.82050
 C1885 C 0.30518 0.08613 0.80623
 C1886 C 0.29851 0.07457 0.79936
 C1887 C 0.29039 0.06095 0.79104
 C1888 C 0.29700 0.05450 0.77648
 C1889 C 0.28886 0.04158 0.76813
 C1890 C 0.27396 0.03496 0.77427
 C1891 C 0.26749 0.04144 0.78900
 C1892 C 0.27566 0.05435 0.79732
 H1893 H 0.33779 0.09059 0.81103
 H1894 H 0.35114 0.11463 0.82440
 H1895 H 0.30324 0.13713 0.83247
 H1896 H 0.29004 0.11289 0.81938
 H1897 H 0.30839 0.05953 0.77150
 H1898 H 0.29417 0.03689 0.75683
 H1899 H 0.25605 0.03663 0.79406
 H1900 H 0.27042 0.05927 0.80858
 C1901 C 0.81310 0.60036 0.81443
 C1902 C 0.83033 0.60107 0.81581
 C1903 C 0.83788 0.61483 0.82337
 C1904 C 0.82827 0.62807 0.82965
 C1905 C 0.81096 0.62718 0.82827
 C1906 C 0.80344 0.61342 0.82071
 C1907 C 0.80531 0.58638 0.80636
 C1908 C 0.79865 0.57481 0.79951
 C1909 C 0.79055 0.56115 0.79121
 C1910 C 0.79720 0.55464 0.77669
 C1911 C 0.78907 0.54171 0.76837
 C1912 C 0.77414 0.53513 0.77447
 C1913 C 0.76763 0.54167 0.78916
 C1914 C 0.77578 0.55461 0.79746
 H1915 H 0.83792 0.59101 0.81100
 H1916 H 0.85122 0.61507 0.82440
 H1917 H 0.80324 0.63728 0.83277
 H1918 H 0.79010 0.61303 0.81964
 H1919 H 0.80862 0.55964 0.77174
 H1920 H 0.79442 0.53696 0.75710
 H1921 H 0.75616 0.53690 0.79419
 H1922 H 0.77051 0.55958 0.80868
 C1923 C 0.81301 0.10032 0.31473
 C1924 C 0.83025 0.10088 0.31603
 C1925 C 0.83795 0.11462 0.32346
 C1926 C 0.82849 0.12799 0.32971
 C1927 C 0.81116 0.12725 0.32843
 C1928 C 0.80349 0.11351 0.32098
 C1929 C 0.80506 0.08638 0.30675
 C1930 C 0.79829 0.07484 0.29996
 C1931 C 0.79007 0.06122 0.29173
 C1932 C 0.79661 0.05467 0.27717
 C1933 C 0.78838 0.04177 0.26890
 C1934 C 0.77346 0.03526 0.27509
 C1935 C 0.76706 0.04184 0.28982
 C1936 C 0.77531 0.05474 0.29806
 H1937 H 0.83773 0.09073 0.31124
 H1938 H 0.85130 0.11475 0.32444
 H1939 H 0.80356 0.13745 0.33290
 H1940 H 0.79014 0.11324 0.31998
 H1941 H 0.80802 0.05962 0.27215
 H1942 H 0.79365 0.03700 0.25761
 H1943 H 0.75560 0.03711 0.29491
 H1944 H 0.77012 0.05974 0.30931
 C1945 C 0.68591 0.39900 0.31431
 C1946 C 0.66869 0.39829 0.31575
 C1947 C 0.66117 0.38454 0.32336
 C1948 C 0.67081 0.37132 0.32964
 C1949 C 0.68811 0.37220 0.32819
 C1950 C 0.69560 0.38595 0.32057
 C1951 C 0.69367 0.41298 0.30622
 C1952 C 0.70034 0.42455 0.29937
 C1953 C 0.70847 0.43820 0.29110
 C1954 C 0.70186 0.44472 0.27656
 C1955 C 0.71002 0.45765 0.26826
 C1956 C 0.72494 0.46421 0.27441
 C1957 C 0.73141 0.45766 0.28912
 C1958 C 0.72322 0.44474 0.29739
 H1959 H 0.66107 0.40834 0.31096
 H1960 H 0.64783 0.38430 0.32446
 H1961 H 0.69585 0.36212 0.33267
 H1962 H 0.70894 0.38634 0.31945
 H1963 H 0.69046 0.43973 0.27157
 H1964 H 0.70472 0.46240 0.25698
 H1965 H 0.74286 0.46243 0.29418
 H1966 H 0.72846 0.43976 0.30862
 C1967 C 0.68696 0.90017 0.81380
 C1968 C 0.66974 0.89947 0.81528
 C1969 C 0.66224 0.88576 0.82297
 C1970 C 0.67188 0.87256 0.82927
 C1971 C 0.68919 0.87344 0.82779
 C1972 C 0.69666 0.88715 0.82011
 C1973 C 0.69470 0.91411 0.80562
 C1974 C 0.70134 0.92565 0.79869
 C1975 C 0.70944 0.93926 0.79033
 C1976 C 0.70278 0.94572 0.77579
 C1977 C 0.71091 0.95864 0.76742
 C1978 C 0.72583 0.96525 0.77352
 C1979 C 0.73234 0.95876 0.78823
 C1980 C 0.72419 0.94585 0.79656
 H1981 H 0.66212 0.90950 0.81047
 H1982 H 0.64890 0.88552 0.82408
 H1983 H 0.69693 0.86337 0.83230
 H1984 H 0.71000 0.88754 0.81897
 H1985 H 0.69138 0.94070 0.77084
 H1986 H 0.70557 0.96335 0.75614
 H1987 H 0.74379 0.96356 0.79325
 H1988 H 0.72946 0.94092 0.80780
 C1989 C 0.18642 0.39986 0.81324
 C1990 C 0.16920 0.39910 0.81473
 C1991 C 0.16175 0.38539 0.82249
 C1992 C 0.17146 0.37227 0.82887
 C1993 C 0.18876 0.37321 0.82735
 C1994 C 0.19617 0.38691 0.81958
 C1995 C 0.19412 0.41381 0.80504
 C1996 C 0.20076 0.42535 0.79812
 C1997 C 0.20889 0.43897 0.78981
 C1998 C 0.20228 0.44546 0.77525
 C1999 C 0.21046 0.45836 0.76692
 C2000 C 0.22538 0.46492 0.77305
 C2001 C 0.23185 0.45840 0.78777
 C2002 C 0.22365 0.44551 0.79607
 H2003 H 0.16154 0.40907 0.80987
 H2004 H 0.14842 0.38512 0.82363
 H2005 H 0.19655 0.36320 0.83192
 H2006 H 0.20950 0.38734 0.81844
 H2007 H 0.19088 0.44046 0.77028
 H2008 H 0.20515 0.46309 0.75563
 H2009 H 0.24330 0.46317 0.79281
 H2010 H 0.22889 0.44055 0.80731
 C2011 C 0.18660 0.89901 0.31382
 C2012 C 0.16937 0.89831 0.31512
 C2013 C 0.16178 0.88459 0.32270
 C2014 C 0.17135 0.87138 0.32910
 C2015 C 0.18867 0.87225 0.32779
 C2016 C 0.19623 0.88597 0.32019
 C2017 C 0.19444 0.91297 0.30576
 C2018 C 0.20115 0.92453 0.29893
 C2019 C 0.20932 0.93816 0.29067
 C2020 C 0.20268 0.94477 0.27619
 C2021 C 0.21086 0.95770 0.26790
 C2022 C 0.22583 0.96418 0.27402
 C2023 C 0.23233 0.95754 0.28867
 C2024 C 0.22412 0.94461 0.29692
 H2025 H 0.16180 0.90835 0.31024
 H2026 H 0.14843 0.88436 0.32369
 H2027 H 0.19637 0.86218 0.33236
 H2028 H 0.20957 0.88635 0.31919
 H2029 H 0.19124 0.93985 0.27123
 H2030 H 0.20552 0.96252 0.25666
 H2031 H 0.24382 0.96224 0.29370
 H2032 H 0.22938 0.93957 0.30812
 C2033 C 0.40047 0.31341 0.68668
 C2034 C 0.39996 0.31491 0.66956
 C2035 C 0.38628 0.32229 0.66194
 C2036 C 0.37294 0.32827 0.67136
 C2037 C 0.37363 0.32677 0.68856
 C2038 C 0.38730 0.31938 0.69616
 C2039 C 0.41437 0.30552 0.69455
 C2040 C 0.42588 0.29882 0.70129
 C2041 C 0.43944 0.29071 0.70951
 C2042 C 0.44593 0.27574 0.70330
 C2043 C 0.45875 0.26757 0.71158
 C2044 C 0.46524 0.27428 0.72621
 C2045 C 0.45872 0.28943 0.73226
 C2046 C 0.44590 0.29757 0.72396
 H2047 H 0.41010 0.31035 0.66211
 H2048 H 0.38619 0.32345 0.64869
 H2049 H 0.36346 0.33102 0.69614
 H2050 H 0.38754 0.31821 0.70941
 H2051 H 0.44100 0.27031 0.69213
 H2052 H 0.46348 0.25593 0.70659
 H2053 H 0.46343 0.29493 0.74349
 H2054 H 0.44094 0.30914 0.72890
 C2055 C 0.40034 0.81307 0.18551
 C2056 C 0.38721 0.81898 0.19509
 C2057 C 0.37351 0.82642 0.18761
 C2058 C 0.37274 0.82804 0.17042
 C2059 C 0.38603 0.82213 0.16090
 C2060 C 0.39974 0.81469 0.16841
 C2061 C 0.41428 0.80516 0.19328
 C2062 C 0.42581 0.79845 0.19996
 C2063 C 0.43939 0.79034 0.20815
 C2064 C 0.44592 0.79723 0.22255
 C2065 C 0.45874 0.78909 0.23085
 C2066 C 0.46519 0.77389 0.22483
 C2067 C 0.45865 0.76715 0.21023
 C2068 C 0.44583 0.77533 0.20197
 H2069 H 0.38752 0.81772 0.20834
 H2070 H 0.36337 0.83062 0.19526
 H2071 H 0.38588 0.82338 0.14766
 H2072 H 0.40985 0.81018 0.16088
 H2073 H 0.44100 0.80884 0.22746
 H2074 H 0.46348 0.79461 0.24204
 H2075 H 0.46334 0.75548 0.20528
 H2076 H 0.44085 0.76986 0.19083
 C2077 C 0.90050 0.31268 0.18622
 C2078 C 0.89974 0.31433 0.16913
 C2079 C 0.88596 0.32178 0.16176
 C2080 C 0.87276 0.32769 0.17142
 C2081 C 0.87369 0.32601 0.18860
 C2082 C 0.88747 0.31856 0.19593
 C2083 C 0.91453 0.30479 0.19385
 C2084 C 0.92612 0.29813 0.20047
 C2085 C 0.93976 0.29009 0.20862
 C2086 C 0.94624 0.27508 0.20246
 C2087 C 0.95909 0.26696 0.21073
 C2088 C 0.96563 0.27375 0.22530
 C2089 C 0.95915 0.28895 0.23129
 C2090 C 0.94630 0.29704 0.22300
 H2091 H 0.90977 0.30984 0.16150
 H2092 H 0.88568 0.32307 0.14852
 H2093 H 0.86364 0.33021 0.19636
 H2094 H 0.88790 0.31728 0.20917
 H2095 H 0.94124 0.26958 0.19135
 H2096 H 0.96380 0.25529 0.20580
 H2097 H 0.96390 0.29451 0.24247
 H2098 H 0.94135 0.30864 0.22789
 C2099 C 0.90013 0.81344 0.68600
 C2100 C 0.89960 0.81506 0.66889
 C2101 C 0.88595 0.82257 0.66134
 C2102 C 0.87266 0.82856 0.67082
 C2103 C 0.87337 0.82695 0.68801
 C2104 C 0.88701 0.81943 0.69553
 C2105 C 0.91400 0.80543 0.69380
 C2106 C 0.92548 0.79863 0.70049
 C2107 C 0.93901 0.79042 0.70866
 C2108 C 0.94539 0.77541 0.70242
 C2109 C 0.95820 0.76716 0.71065
 C2110 C 0.96477 0.77383 0.72526
 C2111 C 0.95836 0.78901 0.73134
 C2112 C 0.94556 0.79724 0.72309
 H2113 H 0.90970 0.81049 0.66140
 H2114 H 0.88585 0.82381 0.64809
 H2115 H 0.86324 0.83121 0.69562
 H2116 H 0.88727 0.81818 0.70878
 H2117 H 0.94039 0.77002 0.69127
 H2118 H 0.96285 0.75550 0.70564
 H2119 H 0.96314 0.79448 0.74255
 H2120 H 0.94069 0.80884 0.72805
 C2121 C 0.59897 0.31238 0.31461
 C2122 C 0.60005 0.32985 0.31589
 C2123 C 0.61375 0.33726 0.32343
 C2124 C 0.62657 0.32726 0.32980
 C2125 C 0.62533 0.30971 0.32852
 C2126 C 0.61162 0.30234 0.32098
 C2127 C 0.58506 0.30473 0.30656
 C2128 C 0.57354 0.29814 0.29973
 C2129 C 0.55997 0.29009 0.29146
 C2130 C 0.55356 0.29697 0.27700
 C2131 C 0.54074 0.28885 0.26866
 C2132 C 0.53418 0.27370 0.27470
 C2133 C 0.54061 0.26698 0.28935
 C2134 C 0.55343 0.27513 0.29766
 H2135 H 0.59031 0.33775 0.31101
 H2136 H 0.61428 0.35079 0.32439
 H2137 H 0.63509 0.30168 0.33309
 H2138 H 0.61095 0.28880 0.31999
 H2139 H 0.55856 0.30853 0.27208
 H2140 H 0.53607 0.29435 0.25743
 H2141 H 0.53585 0.25535 0.29433
 H2142 H 0.55833 0.26968 0.30883
 C2143 C 0.60004 0.81366 0.81424
 C2144 C 0.60112 0.83113 0.81551
 C2145 C 0.61483 0.83853 0.82307
 C2146 C 0.62763 0.82853 0.82945
 C2147 C 0.62638 0.81097 0.82817
 C2148 C 0.61268 0.80361 0.82061
 C2149 C 0.58613 0.80601 0.80617
 C2150 C 0.57463 0.79943 0.79932
 C2151 C 0.56108 0.79138 0.79103
 C2152 C 0.55464 0.79829 0.77659
 C2153 C 0.54183 0.79016 0.76824
 C2154 C 0.53532 0.77498 0.77423
 C2155 C 0.54177 0.76823 0.78886
 C2156 C 0.55457 0.77638 0.79718
 H2157 H 0.59140 0.83903 0.81063
 H2158 H 0.61535 0.85207 0.82403
 H2159 H 0.63614 0.80294 0.83274
 H2160 H 0.61200 0.79008 0.81962
 H2161 H 0.55961 0.80988 0.77171
 H2162 H 0.53715 0.79569 0.75702
 H2163 H 0.53703 0.75657 0.79380
 H2164 H 0.55949 0.77091 0.80834
 C2165 C 0.09962 0.31317 0.81494
 C2166 C 0.10062 0.33065 0.81621
 C2167 C 0.11435 0.33812 0.82364
 C2168 C 0.12727 0.32818 0.82990
 C2169 C 0.12609 0.31062 0.82865
 C2170 C 0.11235 0.30319 0.82121
 C2171 C 0.08570 0.30547 0.80693
 C2172 C 0.07419 0.29888 0.80010
 C2173 C 0.06063 0.29084 0.79180
 C2174 C 0.05416 0.29783 0.77740
 C2175 C 0.04136 0.28974 0.76902
 C2176 C 0.03486 0.27452 0.77494
 C2177 C 0.04134 0.26769 0.78952
 C2178 C 0.05414 0.27581 0.79788
 H2179 H 0.09082 0.33850 0.81140
 H2180 H 0.11483 0.35166 0.82458
 H2181 H 0.13593 0.30265 0.83312
 H2182 H 0.11174 0.28965 0.82022
 H2183 H 0.05912 0.30945 0.77258
 H2184 H 0.03666 0.29533 0.75784
 H2185 H 0.03662 0.25600 0.79440
 H2186 H 0.05908 0.27028 0.80900
 C2187 C 0.09951 0.81248 0.31385
 C2188 C 0.10062 0.82996 0.31503
 C2189 C 0.11430 0.83737 0.32262
 C2190 C 0.12705 0.82738 0.32912
 C2191 C 0.12577 0.80982 0.32793
 C2192 C 0.11209 0.80244 0.32034
 C2193 C 0.08561 0.80481 0.30577
 C2194 C 0.07411 0.79822 0.29892
 C2195 C 0.06055 0.79016 0.29064
 C2196 C 0.05407 0.79709 0.27623
 C2197 C 0.04124 0.78897 0.26790
 C2198 C 0.03473 0.77379 0.27389
 C2199 C 0.04123 0.76702 0.28849
 C2200 C 0.05405 0.77516 0.29679
 H2201 H 0.09093 0.83785 0.31006
 H2202 H 0.11484 0.85091 0.32352
 H2203 H 0.13549 0.80180 0.33260
 H2204 H 0.11140 0.78890 0.31942
 H2205 H 0.05903 0.80869 0.27135
 H2206 H 0.03653 0.79452 0.25670
 H2207 H 0.03650 0.75536 0.29344
 H2208 H 0.05900 0.76967 0.30793
 C2209 C 0.60015 0.68786 0.68560
 C2210 C 0.60107 0.67038 0.68435
 C2211 C 0.61479 0.66285 0.67696
 C2212 C 0.62777 0.67273 0.67071
 C2213 C 0.62666 0.69029 0.67195
 C2214 C 0.61295 0.69779 0.67935
 C2215 C 0.58624 0.69564 0.69354
 C2216 C 0.57473 0.70230 0.70031
 C2217 C 0.56117 0.71041 0.70854
 C2218 C 0.55464 0.70351 0.72294
 C2219 C 0.54183 0.71166 0.73124
 C2220 C 0.53538 0.72686 0.72523
 C2221 C 0.54193 0.73361 0.71064
 C2222 C 0.55474 0.72543 0.70237
 H2223 H 0.59122 0.66258 0.68913
 H2224 H 0.61520 0.64931 0.67601
 H2225 H 0.63655 0.69822 0.66747
 H2226 H 0.61239 0.71133 0.68032
 H2227 H 0.55955 0.69189 0.72784
 H2228 H 0.53707 0.70613 0.74243
 H2229 H 0.53725 0.74529 0.70569
 H2230 H 0.55973 0.73090 0.69124
 C2231 C 0.59919 0.18684 0.18619
 C2232 C 0.60031 0.16938 0.18493
 C2233 C 0.61405 0.16201 0.17740
 C2234 C 0.62685 0.17205 0.17104
 C2235 C 0.62555 0.18960 0.17231
 C2236 C 0.61181 0.19693 0.17984
 C2237 C 0.58523 0.19446 0.19420
 C2238 C 0.57368 0.20103 0.20100
 C2239 C 0.56008 0.20909 0.20920
 C2240 C 0.55359 0.20222 0.22364
 C2241 C 0.54074 0.21036 0.23191
 C2242 C 0.53423 0.22551 0.22583
 C2243 C 0.54075 0.23222 0.21121
 C2244 C 0.55359 0.22405 0.20297
 H2245 H 0.59059 0.16145 0.18979
 H2246 H 0.61461 0.14848 0.17645
 H2247 H 0.63530 0.19766 0.16775
 H2248 H 0.61110 0.21046 0.18081
 H2249 H 0.55854 0.19065 0.22858
 H2250 H 0.53601 0.20487 0.24313
 H2251 H 0.53603 0.24385 0.20621
 H2252 H 0.55855 0.22949 0.19182
 C2253 C 0.09953 0.68707 0.18514
 C2254 C 0.10064 0.66960 0.18396
 C2255 C 0.11438 0.66219 0.17648
 C2256 C 0.12718 0.67219 0.17007
 C2257 C 0.12589 0.68975 0.17126
 C2258 C 0.11216 0.69712 0.17875
 C2259 C 0.08558 0.69473 0.19313
 C2260 C 0.07404 0.70132 0.19992
 C2261 C 0.06045 0.70937 0.20815
 C2262 C 0.05394 0.70244 0.22256
 C2263 C 0.04111 0.71055 0.23087
 C2264 C 0.03462 0.72574 0.22487
 C2265 C 0.04114 0.73252 0.21028
 C2266 C 0.05397 0.72438 0.20200
 H2267 H 0.09092 0.66170 0.18886
 H2268 H 0.11493 0.64865 0.17558
 H2269 H 0.13565 0.69778 0.16666
 H2270 H 0.11146 0.71066 0.17966
 H2271 H 0.05888 0.69084 0.22744
 H2272 H 0.03638 0.70501 0.24206
 H2273 H 0.03644 0.74418 0.20534
 H2274 H 0.05894 0.72986 0.19087
 C2275 C 0.09967 0.18778 0.68575
 C2276 C 0.10056 0.17030 0.68449
 C2277 C 0.11425 0.16274 0.67706
 C2278 C 0.12723 0.17260 0.67080
 C2279 C 0.12615 0.19016 0.67203
 C2280 C 0.11247 0.19769 0.67947
 C2281 C 0.08580 0.19557 0.69376
 C2282 C 0.07432 0.20222 0.70059
 C2283 C 0.06079 0.21030 0.70888
 C2284 C 0.05427 0.20333 0.72326
 C2285 C 0.04147 0.21145 0.73162
 C2286 C 0.03502 0.22668 0.72569
 C2287 C 0.04155 0.23350 0.71113
 C2288 C 0.05436 0.22536 0.70280
 H2289 H 0.09071 0.16251 0.68930
 H2290 H 0.11463 0.14920 0.67611
 H2291 H 0.13605 0.19808 0.66754
 H2292 H 0.11193 0.21123 0.68045
 H2293 H 0.05918 0.19169 0.72809
 H2294 H 0.03672 0.20586 0.74278
 H2295 H 0.03687 0.24520 0.70623
 H2296 H 0.05933 0.23088 0.69169
 C2297 C 0.40008 0.68746 0.31380
 C2298 C 0.38752 0.69757 0.32023
 C2299 C 0.37381 0.69027 0.32785
 C2300 C 0.37248 0.67272 0.32913
 C2301 C 0.38521 0.66266 0.32269
 C2302 C 0.39892 0.66999 0.31507
 C2303 C 0.41402 0.69505 0.30572
 C2304 C 0.42556 0.70158 0.29887
 C2305 C 0.43915 0.70959 0.29060
 C2306 C 0.44569 0.72457 0.29675
 C2307 C 0.45855 0.73267 0.28846
 C2308 C 0.46503 0.72588 0.27386
 C2309 C 0.45848 0.71072 0.26787
 C2310 C 0.44562 0.70264 0.27619
 H2311 H 0.38826 0.71110 0.31925
 H2312 H 0.36411 0.69835 0.33247
 H2313 H 0.38462 0.64913 0.32365
 H2314 H 0.40859 0.66205 0.31016
 H2315 H 0.44076 0.73007 0.30789
 H2316 H 0.46330 0.74432 0.29341
 H2317 H 0.46318 0.70516 0.25667
 H2318 H 0.44063 0.69106 0.27131
 C2319 C 0.40025 0.18675 0.81410
 C2320 C 0.38719 0.18080 0.80446
 C2321 C 0.37347 0.17331 0.81188
 C2322 C 0.37262 0.17168 0.82906
 C2323 C 0.38585 0.17765 0.83865
 C2324 C 0.39957 0.18513 0.83120
 C2325 C 0.41421 0.19471 0.80640
 C2326 C 0.42576 0.20145 0.79977
 C2327 C 0.43936 0.20958 0.79164
 C2328 C 0.44592 0.20273 0.77723
 C2329 C 0.45877 0.21090 0.76899
 C2330 C 0.46522 0.22607 0.77507
 C2331 C 0.45865 0.23277 0.78967
 C2332 C 0.44580 0.22457 0.79788
 H2333 H 0.38755 0.18205 0.79122
 H2334 H 0.36339 0.16906 0.80418
 H2335 H 0.38564 0.17640 0.85189
 H2336 H 0.40963 0.18968 0.83877
 H2337 H 0.44101 0.19115 0.77227
 H2338 H 0.46354 0.20541 0.75779
 H2339 H 0.46333 0.24443 0.79467
 H2340 H 0.44079 0.23000 0.80902
 C2341 C 0.90011 0.68691 0.81413
 C2342 C 0.88749 0.69699 0.82049
 C2343 C 0.87379 0.68965 0.82809
 C2344 C 0.87254 0.67210 0.82943
 C2345 C 0.88533 0.66207 0.82304
 C2346 C 0.89903 0.66945 0.81545
 C2347 C 0.91403 0.69454 0.80605
 C2348 C 0.92554 0.70112 0.79920
 C2349 C 0.93910 0.70918 0.79092
 C2350 C 0.94563 0.72415 0.79710
 C2351 C 0.95844 0.73230 0.78878
 C2352 C 0.96486 0.72558 0.77413
 C2353 C 0.95831 0.71042 0.76811
 C2354 C 0.94551 0.70230 0.77646
 H2355 H 0.88817 0.71052 0.81948
 H2356 H 0.86405 0.69769 0.83267
 H2357 H 0.88480 0.64854 0.82405
 H2358 H 0.90874 0.66153 0.81058
 H2359 H 0.94074 0.72960 0.80828
 H2360 H 0.96320 0.74394 0.79375
 H2361 H 0.96297 0.70492 0.75687
 H2362 H 0.94051 0.69073 0.77155
 C2363 C 0.90061 0.18667 0.31372
 C2364 C 0.88745 0.18076 0.30419
 C2365 C 0.87376 0.17333 0.31171
 C2366 C 0.87304 0.17171 0.32891
 C2367 C 0.88637 0.17764 0.33838
 C2368 C 0.90006 0.18506 0.33082
 C2369 C 0.91454 0.19457 0.30591
 C2370 C 0.92606 0.20127 0.29920
 C2371 C 0.93965 0.20937 0.29101
 C2372 C 0.94619 0.20246 0.27661
 C2373 C 0.95904 0.21059 0.26833
 C2374 C 0.96551 0.22578 0.27435
 C2375 C 0.95895 0.23254 0.28893
 C2376 C 0.94611 0.22438 0.29719
 H2377 H 0.88771 0.18201 0.29094
 H2378 H 0.86360 0.16913 0.30410
 H2379 H 0.88626 0.17640 0.35163
 H2380 H 0.91019 0.18957 0.33832
 H2381 H 0.94127 0.19086 0.27171
 H2382 H 0.96379 0.20505 0.25715
 H2383 H 0.96365 0.24421 0.29389
 H2384 H 0.94111 0.22985 0.30831
 C2385 C 0.31539 0.31193 0.59936
 C2386 C 0.32143 0.30208 0.61226
 C2387 C 0.32872 0.30968 0.62593
 C2388 C 0.33005 0.32725 0.62689
 C2389 C 0.32405 0.33703 0.61380
 C2390 C 0.31677 0.32940 0.60013
 C2391 C 0.30747 0.30408 0.58553
 C2392 C 0.30069 0.29741 0.57408
 C2393 C 0.29242 0.28932 0.56059
 C2394 C 0.29864 0.27432 0.55415
 C2395 C 0.29031 0.26616 0.54141
 C2396 C 0.27561 0.27290 0.53494
 C2397 C 0.26955 0.28807 0.54139
 C2398 C 0.27790 0.29621 0.55413
 H2399 H 0.32035 0.28855 0.61183
 H2400 H 0.33301 0.30182 0.63591
 H2401 H 0.32508 0.35056 0.61409
 H2402 H 0.31215 0.33714 0.59020
 H2403 H 0.30985 0.26886 0.55908
 H2404 H 0.29531 0.25451 0.53672
 H2405 H 0.25827 0.29359 0.53669
 H2406 H 0.27296 0.30780 0.55905
 C2407 C 0.31483 0.81225 0.09862
 C2408 C 0.32093 0.80232 0.11143
 C2409 C 0.32827 0.80982 0.12512
 C2410 C 0.32961 0.82738 0.12618
 C2411 C 0.32354 0.83725 0.11319
 C2412 C 0.31620 0.82972 0.09950
 C2413 C 0.30688 0.80449 0.08475
 C2414 C 0.30009 0.79788 0.07328
 C2415 C 0.29181 0.78984 0.05976
 C2416 C 0.29799 0.77484 0.05331
 C2417 C 0.28965 0.76672 0.04054
 C2418 C 0.27498 0.77352 0.03406
 C2419 C 0.26896 0.78871 0.04053
 C2420 C 0.27733 0.79680 0.05330
 H2421 H 0.31986 0.78879 0.11090
 H2422 H 0.33261 0.80189 0.13502
 H2423 H 0.32457 0.85079 0.11357
 H2424 H 0.31154 0.83753 0.08964
 H2425 H 0.30917 0.76933 0.05825
 H2426 H 0.29461 0.75506 0.03585
 H2427 H 0.25771 0.79428 0.03583
 H2428 H 0.27242 0.80840 0.05822
 C2429 C 0.81426 0.31264 0.09993
 C2430 C 0.82053 0.30258 0.11256
 C2431 C 0.82798 0.30995 0.12627
 C2432 C 0.82924 0.32751 0.12752
 C2433 C 0.82298 0.33751 0.11471
 C2434 C 0.81554 0.33010 0.10101
 C2435 C 0.80627 0.30499 0.08603
 C2436 C 0.79946 0.29843 0.07453
 C2437 C 0.79121 0.29041 0.06099
 C2438 C 0.79745 0.27545 0.05450
 C2439 C 0.78915 0.26733 0.04172
 C2440 C 0.77445 0.27409 0.03525
 C2441 C 0.76837 0.28924 0.04174
 C2442 C 0.77671 0.29733 0.05453
 H2443 H 0.81953 0.28905 0.11189
 H2444 H 0.83245 0.30192 0.13602
 H2445 H 0.82394 0.35104 0.11525
 H2446 H 0.81074 0.33800 0.09129
 H2447 H 0.80865 0.26997 0.05943
 H2448 H 0.79415 0.25570 0.03700
 H2449 H 0.75710 0.29477 0.03705
 H2450 H 0.77175 0.30890 0.05948
 C2451 C 0.81496 0.81273 0.59888
 C2452 C 0.82098 0.80283 0.61175
 C2453 C 0.82829 0.81035 0.62544
 C2454 C 0.82967 0.82791 0.62646
 C2455 C 0.82368 0.83776 0.61341
 C2456 C 0.81638 0.83021 0.59971
 C2457 C 0.80704 0.80495 0.58502
 C2458 C 0.80026 0.79831 0.57355
 C2459 C 0.79199 0.79024 0.56005
 C2460 C 0.79822 0.77527 0.55357
 C2461 C 0.78987 0.76712 0.54083
 C2462 C 0.77514 0.77384 0.53442
 C2463 C 0.76907 0.78899 0.54091
 C2464 C 0.77745 0.79712 0.55364
 H2465 H 0.81987 0.78930 0.61126
 H2466 H 0.83256 0.80245 0.63538
 H2467 H 0.82474 0.85129 0.61375
 H2468 H 0.81177 0.83799 0.58982
 H2469 H 0.80945 0.76982 0.55847
 H2470 H 0.79487 0.75547 0.53612
 H2471 H 0.75777 0.79450 0.53625
 H2472 H 0.77250 0.80869 0.55859
 C2473 C 0.31441 0.68797 0.40088
 C2474 C 0.31572 0.67050 0.39988
 C2475 C 0.32307 0.66305 0.38616
 C2476 C 0.32922 0.67300 0.37326
 C2477 C 0.32795 0.69056 0.37445
 C2478 C 0.32059 0.69798 0.38817
 C2479 C 0.30646 0.69566 0.41479
 C2480 C 0.29968 0.70224 0.42628
 C2481 C 0.29144 0.71027 0.43982
 C2482 C 0.27697 0.70331 0.44633
 C2483 C 0.26864 0.71141 0.45912
 C2484 C 0.27467 0.72661 0.46555
 C2485 C 0.28932 0.73341 0.45903
 C2486 C 0.29763 0.72529 0.44624
 H2487 H 0.31099 0.66264 0.40967
 H2488 H 0.32405 0.64952 0.38569
 H2489 H 0.33236 0.69854 0.36463
 H2490 H 0.31958 0.71151 0.38879
 H2491 H 0.27206 0.69171 0.44143
 H2492 H 0.25740 0.70584 0.46385
 H2493 H 0.29429 0.74508 0.46369
 H2494 H 0.30880 0.73080 0.44127
 C2495 C 0.31434 0.18722 0.90063
 C2496 C 0.32045 0.19717 0.88784
 C2497 C 0.32788 0.18971 0.87418
 C2498 C 0.32928 0.17215 0.87312
 C2499 C 0.32320 0.16225 0.88609
 C2500 C 0.31577 0.16975 0.89975
 C2501 C 0.30634 0.19495 0.91448
 C2502 C 0.29951 0.20155 0.92594
 C2503 C 0.29124 0.20960 0.93945
 C2504 C 0.29750 0.22454 0.94596
 C2505 C 0.28919 0.23267 0.95873
 C2506 C 0.27446 0.22595 0.96515
 C2507 C 0.26834 0.21083 0.95863
 C2508 C 0.27669 0.20273 0.94585
 H2509 H 0.31933 0.21070 0.88836
 H2510 H 0.33222 0.19765 0.86430
 H2511 H 0.32427 0.14872 0.88571
 H2512 H 0.31110 0.16193 0.90959
 H2513 H 0.30875 0.22999 0.94107
 H2514 H 0.29423 0.24429 0.96347
 H2515 H 0.25704 0.20533 0.96328
 H2516 H 0.27171 0.19118 0.94088
 C2517 C 0.81433 0.68743 0.90097
 C2518 C 0.81563 0.66995 0.90003
 C2519 C 0.82300 0.66246 0.88633
 C2520 C 0.82915 0.67237 0.87340
 C2521 C 0.82786 0.68993 0.87453
 C2522 C 0.82049 0.69739 0.88822
 C2523 C 0.80641 0.69517 0.91486
 C2524 C 0.79966 0.70182 0.92634
 C2525 C 0.79145 0.70992 0.93986
 C2526 C 0.77694 0.70306 0.94636
 C2527 C 0.76863 0.71123 0.95911
 C2528 C 0.77475 0.72640 0.96553
 C2529 C 0.78946 0.73310 0.95903
 C2530 C 0.79774 0.72490 0.94627
 H2531 H 0.81092 0.66213 0.90984
 H2532 H 0.82399 0.64892 0.88591
 H2533 H 0.83227 0.69788 0.86468
 H2534 H 0.81948 0.71093 0.88880
 H2535 H 0.77195 0.69148 0.94146
 H2536 H 0.75735 0.70575 0.96384
 H2537 H 0.79450 0.74474 0.96369
 H2538 H 0.80895 0.73033 0.94131
 C2539 C 0.81527 0.18746 0.40088
 C2540 C 0.81669 0.16999 0.40001
 C2541 C 0.82403 0.16248 0.38632
 C2542 C 0.83006 0.17236 0.37331
 C2543 C 0.82870 0.18992 0.37438
 C2544 C 0.82134 0.19740 0.38807
 C2545 C 0.80728 0.19519 0.41474
 C2546 C 0.80043 0.20178 0.42620
 C2547 C 0.79209 0.20977 0.43970
 C2548 C 0.77762 0.20275 0.44613
 C2549 C 0.76920 0.21079 0.45889
 C2550 C 0.77516 0.22600 0.46538
 C2551 C 0.78982 0.23286 0.45894
 C2552 C 0.79821 0.22479 0.44618
 H2553 H 0.81204 0.16218 0.40987
 H2554 H 0.82508 0.14895 0.38594
 H2555 H 0.83300 0.19785 0.36447
 H2556 H 0.82024 0.21094 0.38859
 H2557 H 0.77276 0.19114 0.44119
 H2558 H 0.75796 0.20518 0.46357
 H2559 H 0.79473 0.24454 0.46365
 H2560 H 0.80939 0.23035 0.44127
 C2561 C 0.68530 0.31232 0.40107
 C2562 C 0.67905 0.30229 0.38841
 C2563 C 0.67154 0.30967 0.37475
 C2564 C 0.67018 0.32722 0.37357
 C2565 C 0.67641 0.33720 0.38641
 C2566 C 0.68391 0.32979 0.40007
 C2567 C 0.69338 0.30467 0.41491
 C2568 C 0.70026 0.29810 0.42635
 C2569 C 0.70860 0.29008 0.43983
 C2570 C 0.70248 0.27504 0.44626
 C2571 C 0.71087 0.26692 0.45899
 C2572 C 0.72554 0.27375 0.46544
 C2573 C 0.73151 0.28897 0.45900
 C2574 C 0.72309 0.29706 0.44627
 H2575 H 0.68012 0.28876 0.38902
 H2576 H 0.66708 0.30166 0.36497
 H2577 H 0.67537 0.35073 0.38594
 H2578 H 0.68869 0.33767 0.40981
 H2579 H 0.69129 0.26951 0.44135
 H2580 H 0.70595 0.25523 0.46367
 H2581 H 0.74276 0.29456 0.46368
 H2582 H 0.72795 0.30869 0.44135
 C2583 C 0.68615 0.81353 0.90081
 C2584 C 0.67993 0.80351 0.88813
 C2585 C 0.67251 0.81091 0.87443
 C2586 C 0.67121 0.82846 0.87323
 C2587 C 0.67742 0.83843 0.88609
 C2588 C 0.68484 0.83100 0.89979
 C2589 C 0.69409 0.80585 0.91472
 C2590 C 0.70086 0.79925 0.92621
 C2591 C 0.70906 0.79118 0.93976
 C2592 C 0.70277 0.77621 0.94620
 C2593 C 0.71104 0.76805 0.95898
 C2594 C 0.72575 0.77475 0.96547
 C2595 C 0.73187 0.78990 0.95902
 C2596 C 0.72358 0.79804 0.94624
 H2597 H 0.68094 0.78997 0.88877
 H2598 H 0.66806 0.80290 0.86464
 H2599 H 0.67643 0.85197 0.88561
 H2600 H 0.68959 0.83887 0.90955
 H2601 H 0.69156 0.77078 0.94125
 H2602 H 0.70600 0.75641 0.96366
 H2603 H 0.74316 0.79539 0.96373
 H2604 H 0.72857 0.80961 0.94132
 C2605 C 0.18630 0.31362 0.90075
 C2606 C 0.16909 0.31522 0.89998
 C2607 C 0.16167 0.32268 0.88629
 C2608 C 0.17139 0.32862 0.87319
 C2609 C 0.18869 0.32701 0.87413
 C2610 C 0.19607 0.31955 0.88782
 C2611 C 0.19397 0.30568 0.91466
 C2612 C 0.20060 0.29895 0.92616
 C2613 C 0.20874 0.29080 0.93970
 C2614 C 0.20242 0.27583 0.94608
 C2615 C 0.21066 0.26759 0.95884
 C2616 C 0.22538 0.27424 0.96536
 C2617 C 0.23154 0.28941 0.95896
 C2618 C 0.22327 0.29761 0.94621
 H2619 H 0.16141 0.31069 0.90993
 H2620 H 0.14835 0.32391 0.88600
 H2621 H 0.19649 0.33124 0.86415
 H2622 H 0.20940 0.31831 0.88826
 H2623 H 0.19119 0.27043 0.94111
 H2624 H 0.20560 0.25595 0.96348
 H2625 H 0.24284 0.29486 0.96370
 H2626 H 0.22829 0.30918 0.94133
 C2627 C 0.18524 0.81272 0.40090
 C2628 C 0.17907 0.80263 0.38825
 C2629 C 0.17166 0.80994 0.37450
 C2630 C 0.17033 0.82749 0.37322
 C2631 C 0.17647 0.83753 0.38606
 C2632 C 0.18387 0.83018 0.39981
 C2633 C 0.19323 0.80513 0.41482
 C2634 C 0.20006 0.79863 0.42634
 C2635 C 0.20836 0.79068 0.43989
 C2636 C 0.20219 0.77570 0.44642
 C2637 C 0.21056 0.76765 0.45920
 C2638 C 0.22524 0.77448 0.46561
 C2639 C 0.23124 0.78964 0.45908
 C2640 C 0.22285 0.79767 0.44630
 H2641 H 0.18012 0.78910 0.38894
 H2642 H 0.16726 0.80189 0.36473
 H2643 H 0.17545 0.85106 0.38551
 H2644 H 0.18859 0.83811 0.40954
 H2645 H 0.19100 0.77017 0.44152
 H2646 H 0.20561 0.75599 0.46394
 H2647 H 0.24251 0.79523 0.46374
 H2648 H 0.22775 0.80925 0.44132
 C2649 C 0.68682 0.68693 0.59968
 C2650 C 0.68055 0.69706 0.61225
 C2651 C 0.67305 0.68978 0.62597
 C2652 C 0.67172 0.67223 0.62730
 C2653 C 0.67803 0.66215 0.61457
 C2654 C 0.68552 0.66947 0.60085
 C2655 C 0.69476 0.69451 0.58572
 C2656 C 0.70148 0.70107 0.57417
 C2657 C 0.70960 0.70912 0.56057
 C2658 C 0.70326 0.72407 0.55415
 C2659 C 0.71144 0.73224 0.54131
 C2660 C 0.72611 0.72555 0.53473
 C2661 C 0.73229 0.71041 0.54115
 C2662 C 0.72408 0.70227 0.55399
 H2663 H 0.68155 0.71059 0.61150
 H2664 H 0.66854 0.69787 0.63566
 H2665 H 0.67703 0.64862 0.61517
 H2666 H 0.69032 0.66151 0.59118
 H2667 H 0.69207 0.72950 0.55917
 H2668 H 0.70636 0.74386 0.53665
 H2669 H 0.74355 0.70493 0.53637
 H2670 H 0.72911 0.69071 0.55889
 C2671 C 0.68544 0.18719 0.09973
 C2672 C 0.68415 0.16972 0.10075
 C2673 C 0.67672 0.16227 0.11444
 C2674 C 0.67048 0.17224 0.12729
 C2675 C 0.67175 0.18979 0.12609
 C2676 C 0.67919 0.19720 0.11240
 C2677 C 0.69342 0.19488 0.08584
 C2678 C 0.70021 0.20148 0.07436
 C2679 C 0.70846 0.20955 0.06084
 C2680 C 0.72297 0.20265 0.05437
 C2681 C 0.73131 0.21078 0.04161
 C2682 C 0.72524 0.22595 0.03516
 C2683 C 0.71054 0.23269 0.04164
 C2684 C 0.70223 0.22453 0.05440
 H2685 H 0.68894 0.16185 0.09100
 H2686 H 0.67575 0.14874 0.11493
 H2687 H 0.66728 0.19779 0.13587
 H2688 H 0.68019 0.21074 0.11176
 H2689 H 0.72792 0.19107 0.05929
 H2690 H 0.74259 0.20527 0.03690
 H2691 H 0.70554 0.24434 0.03696
 H2692 H 0.69102 0.22999 0.05934
 C2693 C 0.18576 0.68700 0.09868
 C2694 C 0.17952 0.69706 0.11131
 C2695 C 0.17208 0.68971 0.12503
 C2696 C 0.17078 0.67216 0.12629
 C2697 C 0.17700 0.66214 0.11347
 C2698 C 0.18444 0.66953 0.09976
 C2699 C 0.19375 0.69463 0.08477
 C2700 C 0.20056 0.70118 0.07327
 C2701 C 0.20882 0.70920 0.05973
 C2702 C 0.20262 0.72420 0.05329
 C2703 C 0.21094 0.73233 0.04051
 C2704 C 0.22561 0.72554 0.03403
 C2705 C 0.23165 0.71036 0.04048
 C2706 C 0.22330 0.70226 0.05326
 H2707 H 0.18054 0.71059 0.11063
 H2708 H 0.16762 0.69775 0.13479
 H2709 H 0.17601 0.64861 0.11400
 H2710 H 0.18921 0.66162 0.09003
 H2711 H 0.19143 0.72970 0.05823
 H2712 H 0.20597 0.74399 0.03583
 H2713 H 0.24291 0.70481 0.03577
 H2714 H 0.22822 0.69067 0.05818
 C2715 C 0.18647 0.18651 0.59978
 C2716 C 0.18019 0.19669 0.61230
 C2717 C 0.17259 0.18947 0.62600
 C2718 C 0.17119 0.17193 0.62737
 C2719 C 0.17749 0.16180 0.61467
 C2720 C 0.18508 0.16905 0.60097
 C2721 C 0.19455 0.19401 0.58586
 C2722 C 0.20138 0.20050 0.57434
 C2723 C 0.20964 0.20848 0.56077
 C2724 C 0.20337 0.22342 0.55425
 C2725 C 0.21167 0.23152 0.54145
 C2726 C 0.22638 0.22479 0.53501
 C2727 C 0.23249 0.20966 0.54154
 C2728 C 0.22416 0.20158 0.55434
 H2729 H 0.18127 0.21021 0.61154
 H2730 H 0.16809 0.19760 0.63567
 H2731 H 0.17642 0.14828 0.61529
 H2732 H 0.18988 0.16106 0.59133
 H2733 H 0.19215 0.22888 0.55915
 H2734 H 0.20664 0.24314 0.53671
 H2735 H 0.24378 0.20415 0.53687
 H2736 H 0.22913 0.19004 0.55933
   
