data_POSCAR
  _audit_creation_date              2014-09-24
  _audit_creation_method            'ToBaCCo'
  _symmetry_space_group_name_H-M    'P1'
  _symmetry_Int_Tables_number       1
  _symmetry_cell_setting            triclinic
  loop_
  _symmetry_equiv_pos_as_xyz
 x,y,z
_cell_length_a 69.4979
_cell_length_b 69.4943
_cell_length_c 69.5730
_cell_angle_alpha 89.960100
_cell_angle_beta 89.973200
_cell_angle_gamma 90.010900
loop_
  _atom_site_label
  _atom_site_type_symbol
  _atom_site_fract_x
  _atom_site_fract_y
  _atom_site_fract_z
C1 C 0.19235 0.21920 0.21355
 C2 C 0.20308 0.22458 0.19735
 C3 C 0.21908 0.21395 0.19201
 C4 C 0.22453 0.19781 0.20281
 C5 C 0.21392 0.19249 0.21883
 C6 C 0.19773 0.20324 0.22423
 C7 C 0.17617 0.22683 0.22208
 N8 N 0.17176 0.21587 0.23756
 C9 C 0.18475 0.20143 0.23908
 C10 C 0.22249 0.17635 0.22650
 N11 N 0.23794 0.17189 0.21550
 C12 C 0.23939 0.18482 0.20100
 C13 C 0.22668 0.22245 0.17581
 N14 N 0.21565 0.23788 0.17133
 C15 C 0.20120 0.23938 0.18431
 H16 H 0.16821 0.23938 0.21741
 H17 H 0.18473 0.19047 0.25015
 H18 H 0.21788 0.16844 0.23910
 H19 H 0.25042 0.18475 0.19000
 H20 H 0.23925 0.21781 0.16787
 H21 H 0.19020 0.25041 0.18424
 C22 C 0.69220 0.71894 0.71364
 C23 C 0.70292 0.72434 0.69743
 C24 C 0.71892 0.71371 0.69208
 C25 C 0.72439 0.69757 0.70287
 C26 C 0.71379 0.69224 0.71889
 C27 C 0.69760 0.70299 0.72431
 C28 C 0.67603 0.72656 0.72219
 N29 N 0.67163 0.71559 0.73767
 C30 C 0.68464 0.70116 0.73917
 C31 C 0.72237 0.67610 0.72654
 N32 N 0.73780 0.67164 0.71552
 C33 C 0.73924 0.68458 0.70103
 C34 C 0.72651 0.72223 0.67587
 N35 N 0.71547 0.73765 0.67141
 C36 C 0.70103 0.73914 0.68440
 H37 H 0.66806 0.73911 0.71753
 H38 H 0.68463 0.69019 0.75023
 H39 H 0.71776 0.66818 0.73914
 H40 H 0.75026 0.68452 0.69002
 H41 H 0.73908 0.71759 0.66793
 H42 H 0.69002 0.75017 0.68434
 C43 C 0.30689 0.78099 0.71420
 C44 C 0.29616 0.77563 0.69800
 C45 C 0.28021 0.78632 0.69262
 C46 C 0.27481 0.80250 0.70337
 C47 C 0.28542 0.80781 0.71938
 C48 C 0.30155 0.79698 0.72482
 C49 C 0.32302 0.77331 0.72275
 N50 N 0.32747 0.78429 0.73820
 C51 C 0.31453 0.79878 0.73967
 C52 C 0.27692 0.82401 0.72699
 N53 N 0.26152 0.82851 0.71595
 C54 C 0.26002 0.81556 0.70148
 C55 C 0.27261 0.77783 0.67643
 N56 N 0.28359 0.76235 0.67200
 C57 C 0.29800 0.76080 0.68500
 H58 H 0.33095 0.76073 0.71812
 H59 H 0.31459 0.80977 0.75070
 H60 H 0.28157 0.83191 0.73957
 H61 H 0.24902 0.81565 0.69046
 H62 H 0.26008 0.78252 0.66847
 H63 H 0.30896 0.74973 0.68497
 C64 C 0.80797 0.28071 0.21394
 C65 C 0.79730 0.27530 0.19771
 C66 C 0.78131 0.28591 0.19230
 C67 C 0.77580 0.30206 0.20305
 C68 C 0.78635 0.30741 0.21908
 C69 C 0.80252 0.29668 0.22456
 C70 C 0.82412 0.27310 0.22253
 N71 N 0.82845 0.28410 0.23800
 C72 C 0.81544 0.29854 0.23945
 C73 C 0.77773 0.32356 0.22667
 N74 N 0.76233 0.32799 0.21561
 C75 C 0.76095 0.31504 0.20115
 C76 C 0.77378 0.27738 0.17610
 N77 N 0.78484 0.26196 0.17169
 C78 C 0.79924 0.26048 0.18472
 H79 H 0.83210 0.26054 0.21790
 H80 H 0.81540 0.30953 0.25048
 H81 H 0.78229 0.33149 0.23926
 H82 H 0.74996 0.31508 0.19011
 H83 H 0.76123 0.28201 0.16812
 H84 H 0.81025 0.24946 0.18471
 C85 C 0.80804 0.71954 0.28519
 C86 C 0.79729 0.72501 0.30135
 C87 C 0.78129 0.71440 0.30675
 C88 C 0.77585 0.69819 0.29607
 C89 C 0.78647 0.69278 0.28009
 C90 C 0.80266 0.70352 0.27462
 C91 C 0.82422 0.72714 0.27662
 N92 N 0.82864 0.71607 0.26122
 C93 C 0.81565 0.70161 0.25978
 C94 C 0.77791 0.67659 0.27255
 N95 N 0.76246 0.67218 0.28358
 C96 C 0.76100 0.68520 0.29798
 C97 C 0.77369 0.72298 0.32290
 N98 N 0.78472 0.73843 0.32728
 C99 C 0.79917 0.73988 0.31429
 H100 H 0.83218 0.73972 0.28121
 H101 H 0.81566 0.69057 0.24880
 H102 H 0.78253 0.66861 0.26001
 H103 H 0.74998 0.68519 0.30898
 H104 H 0.76113 0.71837 0.33087
 H105 H 0.81018 0.75091 0.31430
 C106 C 0.30773 0.21923 -0.21437
 C107 C 0.29687 0.22474 -0.19830
 C108 C 0.28085 0.21412 -0.19297
 C109 C 0.27550 0.19787 -0.20364
 C110 C 0.28623 0.19242 -0.21952
 C111 C 0.30244 0.20316 -0.22492
 C112 C 0.32396 0.22682 -0.22286
 N113 N 0.32849 0.21571 -0.23819
 C114 C 0.31553 0.20122 -0.23967
 C115 C 0.27775 0.17619 -0.22708
 N116 N 0.26224 0.17181 -0.21612
 C117 C 0.26065 0.18487 -0.20177
 C118 C 0.27314 0.22275 -0.17690
 N119 N 0.28412 0.23823 -0.17250
 C120 C 0.29864 0.23965 -0.18540
 H121 H 0.33186 0.23943 -0.21825
 H122 H 0.31564 0.19015 -0.25062
 H123 H 0.28248 0.16818 -0.23957
 H124 H 0.24955 0.18490 -0.19083
 H125 H 0.26053 0.21814 -0.16899
 H126 H 0.30964 0.25068 -0.18535
 C127 C 0.69255 0.28056 -0.21435
 C128 C 0.70338 0.27509 -0.19824
 C129 C 0.71939 0.28571 -0.19294
 C130 C 0.72477 0.30193 -0.20367
 C131 C 0.71407 0.30734 -0.21959
 C132 C 0.69786 0.29659 -0.22496
 C133 C 0.67634 0.27294 -0.22282
 N134 N 0.67184 0.28401 -0.23821
 C135 C 0.68481 0.29848 -0.23973
 C136 C 0.72258 0.32355 -0.22721
 N137 N 0.73807 0.32795 -0.21626
 C138 C 0.73962 0.31493 -0.20185
 C139 C 0.72708 0.27713 -0.17683
 N140 N 0.71609 0.26166 -0.17237
 C141 C 0.70158 0.26021 -0.18528
 H142 H 0.66843 0.26034 -0.21816
 H143 H 0.68473 0.30952 -0.25073
 H144 H 0.71787 0.33152 -0.23974
 H145 H 0.75070 0.31493 -0.19089
 H146 H 0.73968 0.28175 -0.16894
 H147 H 0.69058 0.24917 -0.18520
 C148 C 0.19246 0.78098 0.28545
 C149 C 0.20315 0.77553 0.30165
 C150 C 0.21913 0.78616 0.30707
 C151 C 0.22460 0.80235 0.29635
 C152 C 0.21403 0.80774 0.28033
 C153 C 0.19786 0.79699 0.27485
 C154 C 0.17631 0.77338 0.27686
 N155 N 0.17192 0.78441 0.26142
 C156 C 0.18492 0.79887 0.25999
 C157 C 0.22261 0.82393 0.27276
 N158 N 0.23802 0.82834 0.28383
 C159 C 0.23945 0.81534 0.29827
 C160 C 0.22667 0.77759 0.32325
 N161 N 0.21564 0.76215 0.32765
 C162 C 0.20123 0.76068 0.31463
 H163 H 0.16834 0.76080 0.28146
 H164 H 0.18491 0.80988 0.24897
 H165 H 0.21801 0.83189 0.26018
 H166 H 0.25043 0.81536 0.30931
 H167 H 0.23922 0.78222 0.33124
 H168 H 0.19022 0.74965 0.31463
 C169 C 0.46922 0.44248 0.46453
 C170 C 0.47467 0.45323 0.44835
 C171 C 0.46405 0.46922 0.44297
 C172 C 0.44786 0.47466 0.45370
 C173 C 0.44248 0.46404 0.46969
 C174 C 0.45322 0.44785 0.47513
 C175 C 0.47682 0.42630 0.47308
 N176 N 0.46579 0.42187 0.48851
 C177 C 0.45134 0.43486 0.48997
 C178 C 0.42629 0.47259 0.47727
 N179 N 0.42186 0.48803 0.46624
 C180 C 0.43486 0.48950 0.45181
 C181 C 0.47261 0.47682 0.42679
 N182 N 0.48805 0.46580 0.42237
 C183 C 0.48952 0.45135 0.43537
 H184 H 0.48939 0.41835 0.46847
 H185 H 0.44033 0.43482 0.50099
 H186 H 0.41832 0.46796 0.48983
 H187 H 0.43483 0.50052 0.44080
 H188 H 0.46798 0.48938 0.41883
 H189 H 0.50054 0.44035 0.43534
 C190 C -0.03062 -0.05778 0.96430
 C191 C -0.02509 -0.04696 0.94820
 C192 C -0.03566 -0.03092 0.94286
 C193 C -0.05188 -0.02551 0.95356
 C194 C -0.05735 -0.03620 0.96947
 C195 C -0.04665 -0.05244 0.97488
 C196 C -0.02307 -0.07402 0.97280
 N197 N -0.03417 -0.07850 0.98816
 C198 C -0.04861 -0.06550 0.98965
 C199 C -0.07355 -0.02767 0.97705
 N200 N -0.07789 -0.01216 0.96607
 C201 C -0.06484 -0.01063 0.95169
 C202 C -0.02702 -0.02325 0.92677
 N203 N -0.01158 -0.03427 0.92235
 C204 C -0.01019 -0.04879 0.93526
 H205 H -0.01048 -0.08196 0.96817
 H206 H -0.05967 -0.06555 1.00062
 H207 H -0.08156 -0.03236 0.98956
 H208 H -0.06479 0.00045 0.94073
 H209 H -0.03160 -0.01063 0.91885
 H210 H 0.00081 -0.05982 0.93522
 C211 C 1.03051 0.55753 0.96455
 C212 C 1.02503 0.54670 0.94845
 C213 C 1.03567 0.53071 0.94311
 C214 C 1.05191 0.52534 0.95380
 C215 C 1.05732 0.53604 0.96971
 C216 C 1.04656 0.55223 0.97512
 C217 C 1.02289 0.57372 0.97305
 N218 N 1.03397 0.57822 0.98841
 C219 C 1.04846 0.56528 0.98989
 C220 C 1.07355 0.52755 0.97728
 N221 N 1.07795 0.51207 0.96631
 C222 C 1.06491 0.51051 0.95193
 C223 C 1.02707 0.52302 0.92702
 N224 N 1.01159 0.53400 0.92260
 C225 C 1.01014 0.54849 0.93552
 H226 H 1.01027 0.58161 0.96843
 H227 H 1.05952 0.56536 1.00086
 H228 H 1.08154 0.53225 0.98979
 H229 H 1.06491 0.49945 0.94097
 H230 H 1.03170 0.51044 0.91910
 H231 H 0.99909 0.55947 0.93548
 C232 C 0.53097 0.05705 0.46470
 C233 C 0.52548 0.04631 0.44855
 C234 C 0.53611 0.03035 0.44311
 C235 C 0.55235 0.02493 0.45376
 C236 C 0.55778 0.03554 0.46972
 C237 C 0.54702 0.05170 0.47522
 C238 C 0.52337 0.07320 0.47329
 N239 N 0.53445 0.07764 0.48866
 C240 C 0.54893 0.06468 0.49005
 C241 C 0.57402 0.02702 0.47724
 N242 N 0.57842 0.01161 0.46617
 C243 C 0.56537 0.01011 0.45180
 C244 C 0.52750 0.02275 0.42698
 N245 N 0.51202 0.03375 0.42264
 C246 C 0.51057 0.04817 0.43564
 H247 H 0.51076 0.08114 0.46874
 H248 H 0.55999 0.06472 0.50101
 H249 H 0.58202 0.03166 0.48976
 H250 H 0.56536 -0.00089 0.44078
 H251 H 0.53213 0.01021 0.41899
 H252 H 0.49953 0.05916 0.43566
 C253 C -0.03067 0.05797 0.53645
 C254 C -0.02524 0.04724 0.55263
 C255 C -0.03585 0.03123 0.55801
 C256 C -0.05202 0.02576 0.54726
 C257 C -0.05738 0.03637 0.53126
 C258 C -0.04664 0.05257 0.52582
 C259 C -0.02307 0.07415 0.52789
 N260 N -0.03407 0.07856 0.51244
 C261 C -0.04850 0.06555 0.51097
 C262 C -0.07352 0.02779 0.52365
 N263 N -0.07796 0.01234 0.53467
 C264 C -0.06499 0.01089 0.54912
 C265 C -0.02731 0.02363 0.57418
 N266 N -0.01188 0.03468 0.57861
 C267 C -0.01041 0.04913 0.56562
 H268 H -0.01051 0.08213 0.53251
 H269 H -0.05949 0.06556 0.49994
 H270 H -0.08146 0.03239 0.51107
 H271 H -0.06503 -0.00014 0.56012
 H272 H -0.03193 0.01105 0.58213
 H273 H 0.00061 0.06014 0.56565
 C274 C 0.46925 0.55786 0.03580
 C275 C 0.47462 0.54710 0.05199
 C276 C 0.46397 0.53111 0.05733
 C277 C 0.44782 0.52568 0.04655
 C278 C 0.44251 0.53630 0.03055
 C279 C 0.45329 0.55249 0.02514
 C280 C 0.47690 0.57404 0.02728
 N281 N 0.46592 0.57847 0.01182
 C282 C 0.45147 0.56549 0.01029
 C283 C 0.42636 0.52776 0.02290
 N284 N 0.42188 0.51231 0.03391
 C285 C 0.43481 0.51084 0.04838
 C286 C 0.47246 0.52350 0.07352
 N287 N 0.48789 0.53451 0.07800
 C288 C 0.48942 0.54896 0.06502
 H289 H 0.48946 0.58199 0.03195
 H290 H 0.44048 0.56551 -0.00075
 H291 H 0.41845 0.53239 0.01032
 H292 H 0.43473 0.49981 0.05938
 H293 H 0.46780 0.51092 0.08146
 H294 H 0.50046 0.55996 0.06509
 C295 C 0.53097 -0.05768 0.03637
 C296 C 0.52562 -0.04699 0.05259
 C297 C 0.53630 -0.03103 0.05797
 C298 C 0.55246 -0.02559 0.04719
 C299 C 0.55775 -0.03616 0.03116
 C300 C 0.54695 -0.05230 0.02571
 C301 C 0.52330 -0.07381 0.02780
 N302 N 0.53426 -0.07820 0.01231
 C303 C 0.54873 -0.06524 0.01083
 C304 C 0.57392 -0.02761 0.02352
 N305 N 0.57843 -0.01222 0.03456
 C306 C 0.56549 -0.01078 0.04906
 C307 C 0.52781 -0.02347 0.07419
 N308 N 0.51235 -0.03447 0.07863
 C309 C 0.51081 -0.04887 0.06562
 H310 H 0.51073 -0.08176 0.03244
 H311 H 0.55970 -0.06525 -0.00023
 H312 H 0.58182 -0.03220 0.01092
 H313 H 0.56559 0.00021 0.06008
 H314 H 0.53249 -0.01094 0.08216
 H315 H 0.49974 -0.05985 0.06565
 C316 C 1.03090 0.44287 0.53603
 C317 C 1.02557 0.45349 0.55231
 C318 C 1.03623 0.46944 0.55773
 C319 C 1.05236 0.47496 0.54693
 C320 C 1.05764 0.46445 0.53084
 C321 C 1.04684 0.44832 0.52536
 C322 C 1.02324 0.42676 0.52742
 N323 N 1.03416 0.42244 0.51189
 C324 C 1.04861 0.43544 0.51042
 C325 C 1.07377 0.47306 0.52318
 N326 N 1.07826 0.48842 0.53428
 C327 C 1.06537 0.48979 0.54882
 C328 C 1.02777 0.47693 0.57398
 N329 N 1.01233 0.46588 0.57842
 C330 C 1.01079 0.45153 0.56535
 H331 H 1.01069 0.41877 0.53206
 H332 H 1.05956 0.43548 0.49934
 H333 H 1.08164 0.46852 0.51053
 H334 H 1.06546 0.50074 0.55990
 H335 H 1.03244 0.48945 0.58198
 H336 H 0.99974 0.44054 0.56537
 C337 C 0.40450 0.00865 0.22479
 H338 H 0.40526 0.02170 0.23324
 C339 C 0.41712 0.00593 0.20940
 H340 H 0.42760 0.01693 0.20590
 C341 C 0.39011 -0.02178 0.21916
 H342 H 0.37979 -0.03268 0.22318
 C343 C 0.40246 -0.02508 0.20366
 H344 H 0.40148 -0.03842 0.19568
 N345 N 0.39119 -0.00502 0.22923
 C346 C 0.34551 0.02566 0.25942
 H347 H 0.34465 0.01722 0.27246
 C348 C 0.33299 0.04113 0.25663
 H349 H 0.32249 0.04469 0.26757
 C350 C 0.36003 0.03119 0.22905
 H351 H 0.37036 0.02710 0.21820
 C352 C 0.34778 0.04677 0.22568
 H353 H 0.34885 0.05474 0.21234
 Zn354 Zn 0.37493 -0.00033 0.25056
 N355 N 0.35883 0.02113 0.24581
 C356 C 0.38989 0.02108 0.28208
 N357 N 0.39099 0.00430 0.27204
 C358 C 0.40420 -0.00942 0.27660
 C359 C 0.41671 -0.00672 0.29207
 C360 C 0.40213 0.02435 0.29766
 C361 C 0.34549 -0.02620 0.24141
 C362 C 0.33290 -0.04163 0.24405
 C363 C 0.34734 -0.04738 0.27512
 C364 C 0.35968 -0.03184 0.27190
 N365 N 0.35869 -0.02174 0.25515
 H366 H 0.37964 0.03201 0.27798
 H367 H 0.40498 -0.02247 0.26817
 H368 H 0.42712 -0.01774 0.29565
 H369 H 0.40114 0.03771 0.30562
 H370 H 0.34481 -0.01773 0.22837
 H371 H 0.32250 -0.04515 0.23299
 H372 H 0.34825 -0.05539 0.28845
 H373 H 0.36992 -0.02780 0.28285
 C374 C 0.33418 0.05180 0.23962
 C375 C 0.41604 -0.01107 0.19872
 C376 C 0.33388 -0.05234 0.26104
 C377 C 0.41562 0.01031 0.30272
 C378 C 0.09612 -0.00860 0.72454
 H379 H 0.09536 -0.02166 0.73297
 C380 C 0.08352 -0.00585 0.70915
 H381 H 0.07304 -0.01685 0.70565
 C382 C 0.11051 0.02185 0.71893
 H383 H 0.12082 0.03275 0.72295
 C384 C 0.09816 0.02518 0.70343
 H385 H 0.09915 0.03854 0.69546
 N386 N 0.10942 0.00507 0.72898
 C387 C 0.15507 -0.02565 0.75919
 H388 H 0.15591 -0.01722 0.77223
 C389 C 0.16757 -0.04113 0.75643
 H390 H 0.17805 -0.04471 0.76738
 C391 C 0.14059 -0.03116 0.72882
 H392 H 0.13027 -0.02706 0.71796
 C393 C 0.15282 -0.04675 0.72548
 H394 H 0.15176 -0.05472 0.71215
 Zn395 Zn 0.12566 0.00034 0.75032
 N396 N 0.14177 -0.02111 0.74557
 C397 C 0.11066 -0.02113 0.78181
 N398 N 0.10956 -0.00434 0.77179
 C399 C 0.09634 0.00937 0.77635
 C400 C 0.08382 0.00663 0.79182
 C401 C 0.09840 -0.02445 0.79739
 C402 C 0.15509 0.02626 0.74120
 C403 C 0.16767 0.04170 0.74387
 C404 C 0.15318 0.04734 0.77494
 C405 C 0.14086 0.03179 0.77170
 N406 N 0.14188 0.02175 0.75493
 H407 H 0.12090 -0.03206 0.77770
 H408 H 0.09557 0.02244 0.76793
 H409 H 0.07340 0.01765 0.79541
 H410 H 0.09938 -0.03782 0.80533
 H411 H 0.15580 0.01783 0.72815
 H412 H 0.17807 0.04525 0.73282
 H413 H 0.15224 0.05531 0.78829
 H414 H 0.13062 0.02772 0.78264
 C415 C 0.16639 -0.05180 0.73943
 C416 C 0.08459 0.01117 0.69848
 C417 C 0.16665 0.05236 0.76087
 C418 C 0.08490 -0.01041 0.80245
 C419 C 0.59550 0.49108 0.22420
 H420 H 0.59473 0.47801 0.23263
 C421 C 0.58292 0.49382 0.20879
 H422 H 0.57246 0.48282 0.20526
 C423 C 0.60987 0.52154 0.21863
 H424 H 0.62017 0.53244 0.22268
 C425 C 0.59756 0.52486 0.20312
 H426 H 0.59855 0.53823 0.19515
 N427 N 0.60878 0.50475 0.22867
 C428 C 0.65441 0.47408 0.25896
 H429 H 0.65522 0.48252 0.27199
 C430 C 0.66696 0.45863 0.25621
 H431 H 0.67743 0.45508 0.26717
 C432 C 0.63997 0.46853 0.22857
 H433 H 0.62967 0.47261 0.21770
 C434 C 0.65225 0.45297 0.22525
 H435 H 0.65123 0.44500 0.21191
 Zn436 Zn 0.62499 0.50004 0.25003
 N437 N 0.64112 0.47859 0.24532
 C438 C 0.60997 0.47859 0.28153
 N439 N 0.60888 0.49538 0.27149
 C440 C 0.59566 0.50909 0.27604
 C441 C 0.58314 0.50637 0.29151
 C442 C 0.59771 0.47529 0.29711
 C443 C 0.65443 0.52593 0.24092
 C444 C 0.66702 0.54137 0.24357
 C445 C 0.65251 0.54706 0.27463
 C446 C 0.64018 0.53152 0.27139
 N447 N 0.64121 0.52145 0.25464
 H448 H 0.62022 0.46766 0.27743
 H449 H 0.59489 0.52215 0.26761
 H450 H 0.57272 0.51739 0.29509
 H451 H 0.59869 0.46192 0.30507
 H452 H 0.65515 0.51748 0.22788
 H453 H 0.67744 0.54490 0.23253
 H454 H 0.65157 0.55505 0.28796
 H455 H 0.62992 0.52746 0.28233
 C456 C 0.66582 0.44796 0.23921
 C457 C 0.58401 0.51085 0.19813
 C458 C 0.66600 0.55205 0.26057
 C459 C 0.58421 0.48933 0.30216
 C460 C 0.90442 0.50845 0.72469
 H461 H 0.90515 0.52148 0.73315
 C462 C 0.91706 0.50577 0.70931
 H463 H 0.92753 0.51679 0.70584
 C464 C 0.89007 0.47800 0.71899
 H465 H 0.87976 0.46709 0.72297
 C466 C 0.90245 0.47475 0.70350
 H467 H 0.90150 0.46142 0.69549
 N468 N 0.89112 0.49475 0.72908
 C469 C 0.84533 0.52533 0.75922
 H470 H 0.84446 0.51686 0.77225
 C471 C 0.83281 0.54080 0.75643
 H472 H 0.82228 0.54433 0.76736
 C473 C 0.85992 0.53094 0.72889
 H474 H 0.87027 0.52688 0.71806
 C475 C 0.84766 0.54651 0.72553
 H476 H 0.84876 0.55452 0.71221
 Zn477 Zn 0.87481 0.49939 0.75039
 N478 N 0.85869 0.52084 0.74563
 C479 C 0.88967 0.52081 0.78195
 N480 N 0.89082 0.50404 0.77190
 C481 C 0.90405 0.49034 0.77648
 C482 C 0.91652 0.49305 0.79198
 C483 C 0.90188 0.52409 0.79755
 C484 C 0.84542 0.47349 0.74116
 C485 C 0.83284 0.45804 0.74378
 C486 C 0.84724 0.45230 0.77487
 C487 C 0.85957 0.46786 0.77168
 N488 N 0.85859 0.47796 0.75493
 H489 H 0.87943 0.53172 0.77782
 H490 H 0.90486 0.47728 0.76805
 H491 H 0.92694 0.48204 0.79558
 H492 H 0.90086 0.53745 0.80551
 H493 H 0.84475 0.48196 0.72813
 H494 H 0.82246 0.45452 0.73271
 H495 H 0.84814 0.44429 0.78821
 H496 H 0.86978 0.47190 0.78265
 C497 C 0.83403 0.55150 0.73945
 C498 C 0.91602 0.48878 0.69860
 C499 C 0.83380 0.44733 0.76077
 C500 C 0.91538 0.51007 0.80263
 C501 C 0.22357 0.40484 0.00860
 H502 H 0.23206 0.40553 0.02161
 C503 C 0.20812 0.41741 0.00600
 H504 H 0.20461 0.42780 0.01706
 C505 C 0.21791 0.39065 -0.02189
 H506 H 0.22194 0.38043 -0.03285
 C507 C 0.20235 0.40297 -0.02506
 H508 H 0.19432 0.40206 -0.03838
 N509 N 0.22802 0.39165 -0.00516
 C510 C 0.25851 0.34587 0.02509
 H511 H 0.27154 0.34513 0.01661
 C512 C 0.25584 0.33324 0.04049
 H513 H 0.26685 0.32277 0.04395
 C514 C 0.22808 0.36022 0.03083
 H515 H 0.21716 0.37053 0.02685
 C516 C 0.22483 0.34785 0.04634
 H517 H 0.21151 0.34882 0.05437
 Zn518 Zn 0.24945 0.37545 -0.00063
 N519 N 0.24482 0.35916 0.02071
 C520 C 0.28100 0.39037 0.02079
 N521 N 0.27091 0.39157 0.00406
 C522 C 0.27540 0.40491 -0.00956
 C523 C 0.29087 0.41743 -0.00682
 C524 C 0.29658 0.40263 0.02411
 C525 C 0.24037 0.34616 -0.02666
 C526 C 0.24308 0.33366 -0.04213
 C527 C 0.27413 0.34828 -0.04777
 C528 C 0.27085 0.36052 -0.03219
 N529 N 0.25408 0.35940 -0.02213
 H530 H 0.27694 0.38003 0.03165
 H531 H 0.26693 0.40576 -0.02257
 H532 H 0.29441 0.42794 -0.01777
 H533 H 0.30459 0.40156 0.03742
 H534 H 0.22732 0.34537 -0.01822
 H535 H 0.23207 0.32322 -0.04569
 H536 H 0.28750 0.34928 -0.05574
 H537 H 0.28177 0.37078 -0.02810
 C538 C 0.23886 0.33429 0.05123
 C539 C 0.19739 0.41643 -0.01097
 C540 C 0.26011 0.33476 -0.05279
 C541 C 0.30158 0.41624 0.01015
 C542 C 0.72492 0.09520 -0.00907
 H543 H 0.73335 0.09439 -0.02212
 C544 C 0.70945 0.08268 -0.00629
 H545 H 0.70588 0.07220 -0.01725
 C546 C 0.71939 0.10966 0.02131
 H547 H 0.72348 0.11997 0.03217
 C548 C 0.70382 0.09740 0.02466
 H549 H 0.69584 0.09844 0.03801
 N550 N 0.72945 0.10850 0.00455
 C551 C 0.75989 0.15398 -0.02626
 H552 H 0.77296 0.15477 -0.01786
 C553 C 0.75715 0.16649 -0.04174
 H554 H 0.76816 0.17692 -0.04535
 C555 C 0.72940 0.13963 -0.03169
 H556 H 0.71849 0.12937 -0.02756
 C557 C 0.72608 0.15188 -0.04727
 H558 H 0.71271 0.15087 -0.05519
 Zn559 Zn 0.75089 0.12464 -0.00022
 N560 N 0.74619 0.14074 -0.02168
 C561 C 0.78235 0.10948 -0.02162
 N562 N 0.77230 0.10845 -0.00485
 C563 C 0.77680 0.09523 0.00888
 C564 C 0.79224 0.08266 0.00619
 C565 C 0.79790 0.09716 -0.02488
 C566 C 0.74191 0.15415 0.02559
 C567 C 0.74463 0.16673 0.04099
 C568 C 0.77567 0.15213 0.04667
 C569 C 0.77237 0.13980 0.03116
 N570 N 0.75559 0.14088 0.02112
 H571 H 0.77828 0.11973 -0.03256
 H572 H 0.76837 0.09451 0.02193
 H573 H 0.79579 0.07224 0.01723
 H574 H 0.80587 0.09810 -0.03824
 H575 H 0.72884 0.15490 0.01717
 H576 H 0.73362 0.17719 0.04452
 H577 H 0.78903 0.15115 0.05463
 H578 H 0.78328 0.12951 0.02712
 C579 C 0.74010 0.16539 -0.05235
 C580 C 0.69878 0.08383 0.01071
 C581 C 0.76165 0.16567 0.05165
 C582 C 0.80290 0.08368 -0.01082
 C583 C 0.22362 0.59570 0.49107
 H584 H 0.23208 0.59491 0.47804
 C585 C 0.20817 0.58313 0.49381
 H586 H 0.20465 0.57265 0.48283
 C587 C 0.21800 0.61011 0.52146
 H588 H 0.22204 0.62041 0.53233
 C589 C 0.20245 0.59780 0.52477
 H590 H 0.19445 0.59881 0.53810
 N591 N 0.22809 0.60899 0.50471
 C592 C 0.25855 0.65454 0.47404
 H593 H 0.27159 0.65534 0.48248
 C594 C 0.25584 0.66707 0.45857
 H595 H 0.26685 0.67752 0.45501
 C596 C 0.22810 0.64015 0.46849
 H597 H 0.21719 0.62987 0.47258
 C598 C 0.22482 0.65241 0.45291
 H599 H 0.21148 0.65140 0.44493
 Zn600 Zn 0.24951 0.62516 0.50001
 N601 N 0.24486 0.64128 0.47856
 C602 C 0.28104 0.61007 0.47865
 N603 N 0.27096 0.60900 0.49540
 C604 C 0.27545 0.59577 0.50912
 C605 C 0.29091 0.58322 0.50645
 C606 C 0.29661 0.59778 0.47541
 C607 C 0.24045 0.65463 0.52584
 C608 C 0.24315 0.66721 0.54125
 C609 C 0.27419 0.65263 0.54696
 C610 C 0.27092 0.64031 0.53144
 N611 N 0.25416 0.64137 0.52138
 H612 H 0.27699 0.62033 0.46772
 H613 H 0.26699 0.59502 0.52216
 H614 H 0.29445 0.57280 0.51748
 H615 H 0.30461 0.59875 0.46207
 H616 H 0.22740 0.65538 0.51740
 H617 H 0.23212 0.67765 0.54477
 H618 H 0.28754 0.65167 0.55494
 H619 H 0.28185 0.63004 0.52741
 C620 C 0.23884 0.66595 0.44789
 C621 C 0.19747 0.58424 0.51079
 C622 C 0.26015 0.66616 0.55193
 C623 C 0.30161 0.58428 0.48946
 C624 C 0.72405 0.90453 0.50862
 H625 H 0.73246 0.90523 0.52168
 C626 C 0.70859 0.91709 0.50594
 H627 H 0.70502 0.92747 0.51698
 C628 C 0.71856 0.89034 0.47811
 H629 H 0.72265 0.88012 0.46717
 C630 C 0.70300 0.90264 0.47485
 H631 H 0.69504 0.90172 0.46149
 N632 N 0.72858 0.89134 0.49489
 C633 C 0.75891 0.84559 0.52534
 H634 H 0.77200 0.84486 0.51694
 C635 C 0.75615 0.83297 0.54072
 H636 H 0.76715 0.82251 0.54426
 C637 C 0.72843 0.85992 0.53086
 H638 H 0.71753 0.87021 0.52681
 C639 C 0.72509 0.84755 0.54635
 H640 H 0.71171 0.84851 0.55429
 Zn641 Zn 0.74999 0.87515 0.49954
 N642 N 0.74524 0.85887 0.52085
 C643 C 0.78142 0.89011 0.52113
 N644 N 0.77141 0.89129 0.50435
 C645 C 0.77596 0.90462 0.49075
 C646 C 0.79141 0.91716 0.49357
 C647 C 0.79697 0.90238 0.52452
 C648 C 0.74106 0.84587 0.47346
 C649 C 0.74384 0.83340 0.45797
 C650 C 0.77491 0.84803 0.45249
 C651 C 0.77156 0.86025 0.46808
 N652 N 0.75474 0.85910 0.47806
 H653 H 0.77731 0.87977 0.53197
 H654 H 0.76757 0.90546 0.47769
 H655 H 0.79500 0.92766 0.48262
 H656 H 0.80491 0.90132 0.53788
 H657 H 0.72797 0.84506 0.48184
 H658 H 0.73284 0.82297 0.45434
 H659 H 0.78830 0.84905 0.44458
 H660 H 0.78246 0.87050 0.47223
 C661 C 0.73910 0.83401 0.55135
 C662 C 0.69795 0.91609 0.48892
 C663 C 0.76090 0.83453 0.44738
 C664 C 0.80203 0.91598 0.51059
 C665 C 0.00874 0.22468 0.40419
 H666 H 0.02177 0.23316 0.40491
 C667 C 0.00608 0.20926 0.41681
 H668 H 0.01711 0.20579 0.42724
 C669 C -0.02172 0.21897 0.38992
 H670 H -0.03265 0.22297 0.37965
 C671 C -0.02496 0.20344 0.40227
 H672 H -0.03829 0.19542 0.40134
 N673 N -0.00498 0.22909 0.39095
 C674 C 0.02552 0.25944 0.34523
 H675 H 0.01705 0.27248 0.34442
 C676 C 0.04096 0.25671 0.33268
 H677 H 0.04448 0.26769 0.32219
 C678 C 0.03114 0.22904 0.35969
 H679 H 0.02710 0.21815 0.37001
 C680 C 0.04670 0.22573 0.34740
 H681 H 0.05470 0.21239 0.34843
 Zn682 Zn -0.00037 0.25048 0.37470
 N683 N 0.02105 0.24579 0.35854
 C684 C 0.02103 0.28206 0.38961
 N685 N 0.00428 0.27197 0.39076
 C686 C -0.00940 0.27647 0.40401
 C687 C -0.00669 0.29195 0.41652
 C688 C 0.02432 0.29765 0.40185
 C689 C -0.02631 0.24130 0.34538
 C690 C -0.04177 0.24396 0.33284
 C691 C -0.04748 0.27504 0.34732
 C692 C -0.03192 0.27181 0.35960
 N693 N -0.02183 0.25505 0.35857
 H694 H 0.03194 0.27800 0.37933
 H695 H -0.02244 0.26801 0.40483
 H696 H -0.01769 0.29549 0.42697
 H697 H 0.03767 0.30565 0.40082
 H698 H -0.01785 0.22826 0.34466
 H699 H -0.04530 0.23290 0.32245
 H700 H -0.05548 0.28839 0.34825
 H701 H -0.02786 0.28276 0.36982
 C702 C 0.05167 0.23971 0.33382
 C703 C -0.01091 0.19853 0.41579
 C704 C -0.05247 0.26096 0.33386
 C705 C 0.01031 0.30265 0.41538
 C706 C -0.00920 0.72385 0.09507
 H707 H -0.02228 0.73227 0.09431
 C708 C -0.00647 0.70838 0.08256
 H709 H -0.01750 0.70479 0.07216
 C710 C 0.02130 0.71839 0.10935
 H711 H 0.03222 0.72250 0.11959
 C712 C 0.02461 0.70281 0.09710
 H713 H 0.03798 0.69486 0.09808
 N714 N 0.00450 0.72841 0.10827
 C715 C -0.02607 0.75890 0.15380
 H716 H -0.01764 0.77197 0.15452
 C717 C -0.04150 0.75619 0.16639
 H718 H -0.04504 0.76722 0.17680
 C719 C -0.03163 0.72840 0.13955
 H720 H -0.02757 0.71747 0.12931
 C721 C -0.04716 0.72511 0.15188
 H722 H -0.05513 0.71174 0.15095
 Zn723 Zn -0.00018 0.74986 0.12438
 N724 N -0.02158 0.74519 0.14058
 C725 C -0.02169 0.78131 0.10930
 N726 N -0.00490 0.77127 0.10819
 C727 C 0.00877 0.77578 0.09492
 C728 C 0.00603 0.79123 0.08237
 C729 C -0.02501 0.79686 0.09701
 C730 C 0.02580 0.74093 0.15375
 C731 C 0.04126 0.74369 0.16626
 C732 C 0.04688 0.77472 0.15159
 C733 C 0.03131 0.77138 0.13934
 N734 N 0.02127 0.75459 0.14048
 H735 H -0.03258 0.77723 0.11959
 H736 H 0.02183 0.76735 0.09415
 H737 H 0.01703 0.79479 0.07192
 H738 H -0.03837 0.80483 0.09801
 H739 H 0.01737 0.72786 0.15456
 H740 H 0.04482 0.73269 0.17672
 H741 H 0.05484 0.78808 0.15057
 H742 H 0.02722 0.78228 0.12905
 C743 C -0.05216 0.73916 0.16537
 C744 C 0.01057 0.69775 0.08363
 C745 C 0.05191 0.76072 0.16513
 C746 C -0.01100 0.80189 0.08347
 C747 C 0.49128 0.22380 0.59641
 H748 H 0.47821 0.23223 0.59564
 C749 C 0.49401 0.20836 0.58387
 H750 H 0.48300 0.20479 0.57345
 C751 C 0.52176 0.21828 0.61073
 H752 H 0.53267 0.22237 0.62099
 C753 C 0.52506 0.20273 0.59846
 H754 H 0.53843 0.19476 0.59944
 N755 N 0.50497 0.22832 0.60964
 C756 C 0.47431 0.25874 0.65515
 H757 H 0.48273 0.27182 0.65590
 C758 C 0.45884 0.25601 0.66769
 H759 H 0.45527 0.26703 0.67810
 C760 C 0.46880 0.22825 0.64086
 H761 H 0.47290 0.21734 0.63061
 C762 C 0.45324 0.22495 0.65314
 H763 H 0.44528 0.21158 0.65217
 Zn764 Zn 0.50026 0.24976 0.62577
 N765 N 0.47884 0.24505 0.64193
 C766 C 0.47876 0.28120 0.61068
 N767 N 0.49555 0.27117 0.60960
 C768 C 0.50924 0.27570 0.59634
 C769 C 0.50649 0.29114 0.58378
 C770 C 0.47543 0.29674 0.59837
 C771 C 0.52622 0.24079 0.65515
 C772 C 0.54167 0.24354 0.66768
 C773 C 0.54728 0.27460 0.65305
 C774 C 0.53172 0.27127 0.64079
 N775 N 0.52169 0.25448 0.64190
 H776 H 0.46785 0.27711 0.62095
 H777 H 0.52232 0.26729 0.59559
 H778 H 0.51750 0.29471 0.57334
 H779 H 0.46206 0.30469 0.59935
 H780 H 0.51780 0.22772 0.65594
 H781 H 0.54525 0.23254 0.67812
 H782 H 0.55524 0.28797 0.65205
 H783 H 0.52763 0.28218 0.63051
 C784 C 0.44819 0.23898 0.66663
 C785 C 0.51104 0.19770 0.58495
 C786 C 0.55232 0.26058 0.66657
 C787 C 0.48945 0.30177 0.58485
 C788 C 0.50882 0.72392 0.90454
 H789 H 0.52186 0.73239 0.90526
 C790 C 0.50615 0.70847 0.91711
 H791 H 0.51719 0.70496 0.92753
 C792 C 0.47833 0.71829 0.89029
 H793 H 0.46739 0.72234 0.88005
 C794 C 0.47508 0.70274 0.90261
 H795 H 0.46173 0.69474 0.90167
 N796 N 0.49509 0.72839 0.89132
 C797 C 0.52555 0.75887 0.84567
 H798 H 0.51709 0.77192 0.84491
 C799 C 0.54097 0.75617 0.83308
 H800 H 0.54448 0.76718 0.82262
 C801 C 0.53118 0.72841 0.86002
 H802 H 0.52715 0.71750 0.87031
 C803 C 0.54671 0.72513 0.84769
 H804 H 0.55470 0.71179 0.84867
 Zn805 Zn 0.49970 0.74982 0.87514
 N806 N 0.52109 0.74517 0.85894
 C807 C 0.52114 0.78136 0.89011
 N808 N 0.50438 0.77126 0.89126
 C809 C 0.49072 0.77574 0.90454
 C810 C 0.49345 0.79119 0.91707
 C811 C 0.52444 0.79692 0.90238
 C812 C 0.47370 0.74077 0.84583
 C813 C 0.45823 0.74348 0.83331
 C814 C 0.45257 0.77452 0.84790
 C815 C 0.46815 0.77123 0.86015
 N816 N 0.47822 0.75447 0.85905
 H817 H 0.53203 0.77731 0.87981
 H818 H 0.47768 0.76727 0.90535
 H819 H 0.48246 0.79471 0.92755
 H820 H 0.53778 0.80492 0.90135
 H821 H 0.48215 0.72772 0.84505
 H822 H 0.45467 0.73246 0.82289
 H823 H 0.44459 0.78787 0.84889
 H824 H 0.47223 0.78215 0.87040
 C825 C 0.55167 0.73916 0.83415
 C826 C 0.48914 0.69777 0.91610
 C827 C 0.44755 0.76049 0.83440
 C828 C 0.51045 0.80189 0.91594
 C829 C 0.12693 0.22480 0.27349
 N830 N 0.12225 0.21146 0.28694
 N831 N 0.10747 0.21441 0.29879
 C832 C 0.09692 0.23077 0.29754
 N833 N 0.10159 0.24411 0.28409
 N834 N 0.11638 0.24117 0.27224
 C835 C 0.14284 0.22163 0.26073
 C836 C 0.15621 0.21896 0.25002
 C837 C 0.08100 0.23393 0.31029
 C838 C 0.06763 0.23658 0.32101
 C839 C 0.62684 0.72443 0.77366
 N840 N 0.62220 0.71107 0.78710
 N841 N 0.60743 0.71397 0.79898
 C842 C 0.59686 0.73033 0.79777
 N843 N 0.60150 0.74370 0.78434
 N844 N 0.61627 0.74079 0.77246
 C845 C 0.64274 0.72131 0.76088
 C846 C 0.65610 0.71867 0.75014
 C847 C 0.58096 0.73345 0.81056
 C848 C 0.56761 0.73606 0.82131
 C849 C 0.37228 0.77535 0.77412
 N850 N 0.38141 0.79045 0.78242
 N851 N 0.39620 0.78752 0.79426
 C852 C 0.40229 0.76940 0.79816
 N853 N 0.39315 0.75429 0.78987
 N854 N 0.37837 0.75722 0.77803
 C855 C 0.35637 0.77851 0.76137
 C856 C 0.34300 0.78117 0.75066
 C857 C 0.41820 0.76624 0.81091
 C858 C 0.43158 0.76361 0.82162
 C859 C -0.12765 0.27551 0.27339
 N860 N -0.11863 0.29065 0.28175
 N861 N -0.10387 0.28778 0.29363
 C862 C -0.09768 0.26968 0.29751
 N863 N -0.10670 0.25454 0.28915
 N864 N -0.12146 0.25741 0.27727
 C865 C -0.14353 0.27860 0.26059
 C866 C -0.15688 0.28121 0.24983
 C867 C -0.08179 0.26660 0.31030
 C868 C -0.06842 0.26402 0.32104
 C869 C -0.12736 0.72459 0.22589
 N870 N -0.11830 0.70944 0.21759
 N871 N -0.10353 0.71229 0.20571
 C872 C -0.09736 0.73039 0.20177
 N873 N -0.10642 0.74555 0.21006
 N874 N -0.12120 0.74269 0.22195
 C875 C -0.14327 0.72152 0.23868
 C876 C -0.15665 0.71892 0.24942
 C877 C -0.08146 0.73346 0.18897
 C878 C -0.06810 0.73605 0.17821
 C879 C 0.37270 0.22428 0.72674
 N880 N 0.37887 0.24239 0.72287
 N881 N 0.39371 0.24527 0.71107
 C882 C 0.40283 0.23014 0.70280
 N883 N 0.39666 0.21203 0.70668
 N884 N 0.38182 0.20914 0.71847
 C885 C 0.35671 0.22117 0.73943
 C886 C 0.34327 0.21856 0.75009
 C887 C 0.41879 0.23325 0.69009
 C888 C 0.43220 0.23586 0.67940
 C889 C 0.62771 0.27538 0.72671
 N890 N 0.62280 0.28890 0.71353
 N891 N 0.60798 0.28600 0.70173
 C892 C 0.59763 0.26949 0.70275
 N893 N 0.60253 0.25596 0.71593
 N894 N 0.61735 0.25887 0.72773
 C895 C 0.64367 0.27850 0.73940
 C896 C 0.65709 0.28111 0.75007
 C897 C 0.58168 0.26636 0.69003
 C898 C 0.56829 0.26373 0.67934
 C899 C 0.12716 0.77558 0.22543
 N900 N 0.12226 0.78911 0.21225
 N901 N 0.10749 0.78620 0.20040
 C902 C 0.09716 0.76966 0.20137
 N903 N 0.10206 0.75613 0.21455
 N904 N 0.11683 0.75905 0.22640
 C905 C 0.14306 0.77873 0.23820
 C906 C 0.15641 0.78136 0.24893
 C907 C 0.08125 0.76652 0.18861
 C908 C 0.06788 0.76387 0.17791
 C909 C 0.27390 0.12709 0.22451
 N910 N 0.27017 0.11411 0.23860
 N911 N 0.28202 0.09933 0.24157
 C912 C 0.29796 0.09708 0.23055
 N913 N 0.30169 0.11005 0.21646
 N914 N 0.28984 0.12483 0.21348
 C915 C 0.26114 0.14300 0.22130
 C916 C 0.25041 0.15636 0.21861
 C917 C 0.31070 0.08116 0.23374
 C918 C 0.32141 0.06778 0.23643
 C919 C 0.77375 0.62681 0.72446
 N920 N 0.79303 0.62967 0.72554
 N921 N 0.80487 0.61488 0.72849
 C922 C 0.79780 0.59679 0.73044
 N923 N 0.77852 0.59394 0.72936
 N924 N 0.76668 0.60873 0.72642
 C925 C 0.76100 0.64273 0.72128
 C926 C 0.75027 0.65610 0.71862
 C927 C 0.81055 0.58087 0.73361
 C928 C 0.82126 0.56748 0.73627
 C929 C 0.77334 0.37200 0.77511
 N930 N 0.76630 0.39012 0.77338
 N931 N 0.77817 0.40492 0.77054
 C932 C 0.79743 0.40204 0.76934
 N933 N 0.80447 0.38392 0.77107
 N934 N 0.79260 0.36912 0.77391
 C935 C 0.76057 0.35607 0.77821
 C936 C 0.74985 0.34268 0.78084
 C937 C 0.81022 0.41797 0.76631
 C938 C 0.82096 0.43136 0.76378
 C939 C 0.27335 -0.12763 0.27536
 N940 N 0.29262 -0.13052 0.27419
 N941 N 0.30450 -0.11572 0.27137
 C942 C 0.29748 -0.09760 0.26964
 N943 N 0.27821 -0.09471 0.27081
 N944 N 0.26633 -0.10950 0.27363
 C945 C 0.26057 -0.14355 0.27841
 C946 C 0.24982 -0.15694 0.28099
 C947 C 0.31027 -0.08168 0.26661
 C948 C 0.32103 -0.06830 0.26407
 C949 C 0.22643 -0.12733 0.72459
 N950 N 0.23300 -0.11101 0.73303
 N951 N 0.22121 -0.09617 0.73594
 C952 C 0.20250 -0.09720 0.73051
 N953 N 0.19593 -0.11352 0.72207
 N954 N 0.20772 -0.12836 0.71916
 C955 C 0.23912 -0.14331 0.72146
 C956 C 0.24979 -0.15673 0.71883
 C957 C 0.18981 -0.08123 0.73364
 C958 C 0.17914 -0.06781 0.73628
 C959 C 0.72628 0.37276 0.22439
 N960 N 0.73276 0.38915 0.23276
 N961 N 0.72088 0.40392 0.23566
 C962 C 0.70216 0.40274 0.23030
 N963 N 0.69568 0.38635 0.22193
 N964 N 0.70756 0.37159 0.21902
 C965 C 0.73907 0.35686 0.22127
 C966 C 0.74982 0.34351 0.21865
 C967 C 0.68937 0.41864 0.23343
 C968 C 0.67863 0.43200 0.23606
 C969 C 0.72647 0.62732 0.27496
 N970 N 0.71908 0.62387 0.25726
 N971 N 0.70721 0.60908 0.25443
 C972 C 0.70237 0.59730 0.26922
 N973 N 0.70976 0.60076 0.28692
 N974 N 0.72163 0.61555 0.28975
 C975 C 0.73926 0.64325 0.27801
 C976 C 0.74999 0.65663 0.28058
 C977 C 0.68959 0.58138 0.26617
 C978 C 0.67884 0.56801 0.26361
 C979 C 0.22701 0.12772 0.77533
 N980 N 0.20788 0.13070 0.77294
 N981 N 0.19603 0.11589 0.77009
 C982 C 0.20296 0.09766 0.76954
 N983 N 0.22210 0.09468 0.77193
 N984 N 0.23395 0.10949 0.77478
 C985 C 0.23976 0.14366 0.77841
 C986 C 0.25047 0.15706 0.78101
 C987 C 0.19020 0.08172 0.76649
 C988 C 0.17947 0.06833 0.76393
 C989 C 0.22440 0.27377 0.12644
 N990 N 0.21714 0.26953 0.10885
 N991 N 0.21999 0.28140 0.09407
 C992 C 0.23019 0.29787 0.09642
 N993 N 0.23746 0.30211 0.11401
 N994 N 0.23461 0.29024 0.12879
 C995 C 0.22130 0.26101 0.14236
 C996 C 0.21869 0.25031 0.15575
 C997 C 0.23324 0.31066 0.08051
 C998 C 0.23580 0.32143 0.06716
 C999 C 0.72425 0.77355 0.62652
 N1000 N 0.71441 0.79036 0.62525
 N1001 N 0.71732 0.80222 0.61047
 C1002 C 0.73015 0.79762 0.59651
 N1003 N 0.73999 0.78081 0.59778
 N1004 N 0.73708 0.76895 0.61257
 C1005 C 0.72113 0.76079 0.64245
 C1006 C 0.71851 0.75009 0.65584
 C1007 C 0.73330 0.81040 0.58062
 C1008 C 0.73594 0.82115 0.56727
 C1009 C 0.77590 0.77439 0.37206
 N1010 N 0.78528 0.77159 0.38893
 N1011 N 0.78234 0.78342 0.40372
 C1012 C 0.76993 0.79839 0.40208
 N1013 N 0.76056 0.80119 0.38521
 N1014 N 0.76350 0.78936 0.37043
 C1015 C 0.77904 0.76164 0.35616
 C1016 C 0.78167 0.75091 0.34280
 C1017 C 0.76675 0.81111 0.41800
 C1018 C 0.76408 0.82179 0.43139
 C1019 C 0.27509 0.27430 -0.12785
 N1020 N 0.26271 0.28929 -0.12958
 N1021 N 0.25975 0.30118 -0.11484
 C1022 C 0.26907 0.29843 -0.09794
 N1023 N 0.28145 0.28344 -0.09622
 N1024 N 0.28441 0.27155 -0.11095
 C1025 C 0.27828 0.26150 -0.14371
 C1026 C 0.28098 0.25074 -0.15703
 C1027 C 0.26590 0.31122 -0.08208
 C1028 C 0.26324 0.32196 -0.06874
 C1029 C 0.72511 0.22567 -0.12762
 N1030 N 0.73917 0.22942 -0.11464
 N1031 N 0.74213 0.21757 -0.09987
 C1032 C 0.73112 0.20162 -0.09762
 N1033 N 0.71706 0.19786 -0.11060
 N1034 N 0.71409 0.20971 -0.12538
 C1035 C 0.72190 0.23844 -0.14351
 C1036 C 0.71921 0.24918 -0.15686
 C1037 C 0.73429 0.18887 -0.08171
 C1038 C 0.73695 0.17816 -0.06833
 C1039 C 0.22429 0.72621 0.37252
 N1040 N 0.23701 0.73086 0.38654
 N1041 N 0.23987 0.71902 0.40134
 C1042 C 0.23008 0.70217 0.40257
 N1043 N 0.21736 0.69752 0.38854
 N1044 N 0.21450 0.70936 0.37374
 C1045 C 0.22121 0.73896 0.35658
 C1046 C 0.21863 0.74968 0.34320
 C1047 C 0.23315 0.68943 0.41851
 C1048 C 0.23574 0.67872 0.43190
 C1049 C 0.27478 0.72650 0.62714
 N1050 N 0.28401 0.72944 0.61021
 N1051 N 0.28112 0.71760 0.59543
 C1052 C 0.26892 0.70247 0.59713
 N1053 N 0.25968 0.69953 0.61406
 N1054 N 0.26257 0.71137 0.62884
 C1055 C 0.27790 0.73924 0.64306
 C1056 C 0.28052 0.74993 0.65644
 C1057 C 0.26583 0.68971 0.58123
 C1058 C 0.26324 0.67898 0.56787
 C1059 C 0.77622 0.22604 0.12685
 N1060 N 0.76401 0.21090 0.12854
 N1061 N 0.76116 0.19905 0.11376
 C1062 C 0.77043 0.20198 0.09685
 N1063 N 0.78263 0.21711 0.09516
 N1064 N 0.78549 0.22897 0.10994
 C1065 C 0.77928 0.23880 0.14277
 C1066 C 0.78185 0.24951 0.15614
 C1067 C 0.76735 0.18922 0.08094
 C1068 C 0.76476 0.17849 0.06758
 C1069 C 0.47461 0.37702 0.52446
 N1070 N 0.46790 0.35926 0.51996
 N1071 N 0.47082 0.34447 0.53181
 C1072 C 0.48053 0.34700 0.54853
 N1073 N 0.48723 0.36477 0.55303
 N1074 N 0.48431 0.37955 0.54117
 C1075 C 0.47147 0.39294 0.51169
 C1076 C 0.46884 0.40632 0.50097
 C1077 C 0.48366 0.33109 0.56129
 C1078 C 0.48630 0.31772 0.57203
 C1079 C -0.02569 0.87733 0.02329
 N1080 N -0.01514 0.86197 0.01749
 N1081 N -0.01226 0.84714 0.02930
 C1082 C -0.01985 0.84722 0.04726
 N1083 N -0.03041 0.86258 0.05306
 N1084 N -0.03328 0.87741 0.04125
 C1085 C -0.02877 0.89330 0.01058
 C1086 C -0.03135 0.90673 -0.00010
 C1087 C -0.01674 0.83127 0.05999
 C1088 C -0.01413 0.81787 0.07069
 C1089 C 0.02534 0.62233 0.02353
 N1090 N 0.01781 0.63902 0.01678
 N1091 N 0.01491 0.65384 0.02858
 C1092 C 0.01945 0.65241 0.04748
 N1093 N 0.02699 0.63572 0.05423
 N1094 N 0.02989 0.62090 0.04243
 C1095 C 0.02845 0.60637 0.01083
 C1096 C 0.03108 0.59296 0.00015
 C1097 C 0.01632 0.66836 0.06019
 C1098 C 0.01369 0.68176 0.07087
 C1099 C 0.52574 0.12245 0.52462
 N1100 N 0.51829 0.13920 0.51792
 N1101 N 0.51541 0.15398 0.52977
 C1102 C 0.51989 0.15246 0.54869
 N1103 N 0.52733 0.13571 0.55539
 N1104 N 0.53022 0.12093 0.54354
 C1105 C 0.52882 0.10653 0.51186
 C1106 C 0.53142 0.09317 0.50114
 C1107 C 0.51678 0.16836 0.56145
 C1108 C 0.51417 0.18173 0.57217
 C1109 C -0.02534 0.12339 0.47643
 N1110 N -0.03864 0.13760 0.47498
 N1111 N -0.03579 0.15237 0.46307
 C1112 C -0.01957 0.15337 0.45227
 N1113 N -0.00628 0.13915 0.45373
 N1114 N -0.00912 0.12439 0.46563
 C1115 C -0.02842 0.10748 0.48923
 C1116 C -0.03102 0.09411 0.49996
 C1117 C -0.01652 0.16925 0.43945
 C1118 C -0.01397 0.18260 0.42867
 C1119 C 0.47459 0.62252 0.97657
 N1120 N 0.46230 0.63768 0.97652
 N1121 N 0.46517 0.65246 0.96465
 C1122 C 0.48042 0.65254 0.95248
 N1123 N 0.49271 0.63738 0.95253
 N1124 N 0.48984 0.62260 0.96440
 C1125 C 0.47148 0.60659 0.98933
 C1126 C 0.46884 0.59320 1.00004
 C1127 C 0.48350 0.66845 0.93969
 C1128 C 0.48607 0.68182 0.92894
 C1129 C 0.52530 0.87708 0.97630
 N1130 N 0.53706 0.87424 0.96100
 N1131 N 0.53413 0.85948 0.94914
 C1132 C 0.51935 0.84711 0.95222
 N1133 N 0.50758 0.84995 0.96751
 N1134 N 0.51051 0.86471 0.97938
 C1135 C 0.52847 0.89296 0.98909
 C1136 C 0.53114 0.90630 0.99983
 C1137 C 0.51621 0.83121 0.93945
 C1138 C 0.51358 0.81785 0.92873
 C1139 C 0.02518 0.37782 0.47577
 N1140 N 0.03820 0.37361 0.46186
 N1141 N 0.03526 0.35887 0.44998
 C1142 C 0.01921 0.34788 0.45165
 N1143 N 0.00619 0.35208 0.46555
 N1144 N 0.00913 0.36683 0.47743
 C1145 C 0.02836 0.39367 0.48858
 C1146 C 0.03104 0.40698 0.49936
 C1147 C 0.01607 0.33199 0.43888
 C1148 C 0.01344 0.31862 0.42816
 C1149 C 0.37697 0.52394 0.47497
 N1150 N 0.35892 0.51863 0.46979
 N1151 N 0.34412 0.53048 0.47265
 C1152 C 0.34691 0.54799 0.48077
 N1153 N 0.36496 0.55330 0.48595
 N1154 N 0.37977 0.54145 0.48309
 C1155 C 0.39291 0.51119 0.47188
 C1156 C 0.40630 0.50048 0.46927
 C1157 C 0.33098 0.56075 0.48383
 C1158 C 0.31759 0.57148 0.48640
 C1159 C 0.87812 0.02317 -0.02535
 N1160 N 0.88097 0.04069 -0.01727
 N1161 N 0.86619 0.05258 -0.01441
 C1162 C 0.84812 0.04729 -0.01954
 N1163 N 0.84527 0.02976 -0.02762
 N1164 N 0.86005 0.01788 -0.03048
 C1165 C 0.89403 0.01038 -0.02845
 C1166 C 0.90740 -0.00036 -0.03106
 C1167 C 0.83222 0.06009 -0.01647
 C1168 C 0.81886 0.07084 -0.01390
 C1169 C 0.62335 0.02366 0.02569
 N1170 N 0.62102 0.04004 0.01534
 N1171 N 0.63584 0.05186 0.01240
 C1172 C 0.65343 0.04764 0.01971
 N1173 N 0.65576 0.03126 0.03006
 N1174 N 0.64094 0.01944 0.03300
 C1175 C 0.60739 0.01093 0.02884
 C1176 C 0.59400 0.00023 0.03149
 C1177 C 0.66939 0.06036 0.01654
 C1178 C 0.68279 0.07105 0.01388
 C1179 C 0.12223 0.52378 0.52561
 N1180 N 0.13993 0.51669 0.52146
 N1181 N 0.15471 0.52857 0.51855
 C1182 C 0.15223 0.54789 0.51970
 N1183 N 0.13453 0.55498 0.52385
 N1184 N 0.11975 0.54310 0.52676
 C1185 C 0.10632 0.51099 0.52874
 C1186 C 0.09296 0.50024 0.53137
 C1187 C 0.16814 0.56067 0.51655
 C1188 C 0.18151 0.57141 0.51392
 C1189 C 0.12203 0.47684 -0.02517
 N1190 N 0.13974 0.48395 -0.02111
 N1191 N 0.15455 0.47209 -0.01830
 C1192 C 0.15209 0.45276 -0.01947
 N1193 N 0.13438 0.44565 -0.02354
 N1194 N 0.11957 0.45751 -0.02635
 C1195 C 0.10610 0.48960 -0.02823
 C1196 C 0.09270 0.50031 -0.03082
 C1197 C 0.16803 0.44000 -0.01647
 C1198 C 0.18142 0.42926 -0.01396
 C1199 C 0.62254 0.97639 0.47455
 N1200 N 0.64024 0.98352 0.47865
 N1201 N 0.65506 0.97168 0.48146
 C1202 C 0.65263 0.95236 0.48026
 N1203 N 0.63493 0.94523 0.47616
 N1204 N 0.62011 0.95707 0.47335
 C1205 C 0.60659 0.98914 0.47152
 C1206 C 0.59318 0.99984 0.46897
 C1207 C 0.66857 0.93961 0.48330
 C1208 C 0.68197 0.92889 0.48585
 C1209 C 0.87728 0.97631 0.52575
 N1210 N 0.86131 0.97741 0.53691
 N1211 N 0.84653 0.96555 0.53394
 C1212 C 0.84728 0.95223 0.51972
 N1213 N 0.86325 0.95113 0.50855
 N1214 N 0.87803 0.96299 0.51153
 C1215 C 0.89317 0.98909 0.52893
 C1216 C 0.90652 0.99984 0.53159
 C1217 C 0.83137 0.93948 0.51650
 C1218 C 0.81800 0.92877 0.51380
 C1219 C 0.37700 0.47642 0.02501
 N1220 N 0.37124 0.46412 0.03902
 N1221 N 0.35643 0.45230 0.03610
 C1222 C 0.34692 0.45242 0.01907
 N1223 N 0.35268 0.46473 0.00506
 N1224 N 0.36749 0.47655 0.00799
 C1225 C 0.39294 0.48916 0.02816
 C1226 C 0.40632 0.49986 0.03082
 C1227 C 0.33098 0.43970 0.01592
 C1228 C 0.31758 0.42901 0.01329
 C1229 C 0.52397 0.47458 0.37751
 N1230 N 0.53413 0.45974 0.36995
 N1231 N 0.54596 0.46265 0.35515
 C1232 C 0.54800 0.48047 0.34747
 N1233 N 0.53784 0.49531 0.35504
 N1234 N 0.52600 0.49241 0.36984
 C1235 C 0.51123 0.47145 0.39344
 C1236 C 0.50051 0.46883 0.40682
 C1237 C 0.56073 0.48360 0.33153
 C1238 C 0.57143 0.48621 0.31814
 C1239 C 0.02450 -0.02534 0.87765
 N1240 N 0.02716 -0.00736 0.87053
 N1241 N 0.03903 -0.00442 0.85577
 C1242 C 0.04861 -0.01937 0.84769
 N1243 N 0.04596 -0.03735 0.85481
 N1244 N 0.03408 -0.04029 0.86957
 C1245 C 0.01170 -0.02851 0.89353
 C1246 C 0.00094 -0.03117 0.90686
 C1247 C 0.06138 -0.01621 0.83178
 C1248 C 0.07211 -0.01356 0.81842
 C1249 C 0.02408 0.02591 0.62340
 N1250 N 0.03448 0.04070 0.63073
 N1251 N 0.04636 0.03781 0.64549
 C1252 C 0.04819 0.02005 0.65336
 N1253 N 0.03779 0.00526 0.64603
 N1254 N 0.02591 0.00815 0.63127
 C1255 C 0.01130 0.02902 0.60751
 C1256 C 0.00058 0.03163 0.59414
 C1257 C 0.06099 0.01693 0.66924
 C1258 C 0.07175 0.01431 0.68257
 C1259 C 0.52370 0.52568 0.12290
 N1260 N 0.53425 0.54041 0.13014
 N1261 N 0.54608 0.53750 0.14493
 C1262 C 0.54771 0.51977 0.15293
 N1263 N 0.53717 0.50504 0.14569
 N1264 N 0.52534 0.50795 0.13090
 C1265 C 0.51098 0.52881 0.10696
 C1266 C 0.50031 0.53144 0.09357
 C1267 C 0.56047 0.51663 0.16884
 C1268 C 0.57119 0.51399 0.18220
 C1269 C 0.47649 -0.02572 0.12353
 N1270 N 0.47177 -0.04046 0.13543
 N1271 N 0.45992 -0.03758 0.15021
 C1272 C 0.45243 -0.01987 0.15355
 N1273 N 0.45715 -0.00513 0.14166
 N1274 N 0.46901 -0.00801 0.12687
 C1275 C 0.48923 -0.02883 0.10760
 C1276 C 0.49993 -0.03144 0.09421
 C1277 C 0.43965 -0.01678 0.16945
 C1278 C 0.42889 -0.01418 0.18280
 C1279 C 0.97651 0.47443 0.62339
 N1280 N 0.97047 0.49243 0.62791
 N1281 N 0.95862 0.49524 0.64270
 C1282 C 0.95244 0.48015 0.65343
 N1283 N 0.95848 0.46215 0.64891
 N1284 N 0.97034 0.45934 0.63411
 C1285 C 0.98924 0.47140 0.60743
 C1286 C 0.99992 0.46885 0.59402
 C1287 C 0.93965 0.48318 0.66933
 C1288 C 0.92889 0.48573 0.68268
 C1289 C 0.97558 0.52498 0.87791
 N1290 N 0.97919 0.51075 0.86507
 N1291 N 0.96735 0.50780 0.85030
 C1292 C 0.95154 0.51899 0.84793
 N1293 N 0.94793 0.53322 0.86076
 N1294 N 0.95977 0.53617 0.87553
 C1295 C 0.98835 0.52818 0.89379
 C1296 C 0.99909 0.53087 0.90712
 C1297 C 0.93881 0.51583 0.83200
 C1298 C 0.92813 0.51320 0.81862
 C1299 C 0.47598 0.02498 0.37792
 N1300 N 0.48251 0.01674 0.36149
 N1301 N 0.47064 0.01386 0.34673
 C1302 C 0.45189 0.01911 0.34795
 N1303 N 0.44536 0.02734 0.36437
 N1304 N 0.45723 0.03023 0.37914
 C1305 C 0.48876 0.02809 0.39380
 C1306 C 0.49951 0.03071 0.40714
 C1307 C 0.43912 0.01601 0.33205
 C1308 C 0.42840 0.01341 0.31868
   
