data_POSCAR
  _audit_creation_date              2014-09-24
  _audit_creation_method            'ToBaCCo'
  _symmetry_space_group_name_H-M    'P1'
  _symmetry_Int_Tables_number       1
  _symmetry_cell_setting            triclinic
  loop_
  _symmetry_equiv_pos_as_xyz
 x,y,z
_cell_length_a 57.3250
_cell_length_b 59.4457
_cell_length_c 59.4130
_cell_angle_alpha 89.130600
_cell_angle_beta 89.372500
_cell_angle_gamma 89.915100
loop_
  _atom_site_label
  _atom_site_type_symbol
  _atom_site_fract_x
  _atom_site_fract_y
  _atom_site_fract_z
C1 C 0.37838 -0.00307 0.25357
 C2 C 0.11972 0.00613 0.75232
 C3 C 0.61809 0.50925 0.24966
 C4 C 0.87424 0.48647 0.74927
 C5 C 0.24857 0.35854 1.00198
 C6 C 0.74369 0.13575 1.00674
 C7 C 0.25652 0.64089 0.50549
 C8 C 0.75470 0.86411 0.49705
 C9 C -0.00359 0.25039 0.38380
 C10 C -0.00374 0.74361 0.12457
 C11 C 0.49550 0.26416 0.61517
 C12 C 0.50635 0.73995 0.88889
 C13 C -0.25363 0.63328 0.99917
 C14 C -0.24344 0.36323 0.50729
 C15 C 0.24373 -0.13953 -0.00408
 C16 C 0.25223 1.13838 0.50301
 C17 C 0.12311 0.49993 0.24935
 C18 C -0.12828 1.00735 0.25556
 C19 C 0.37806 0.50718 -0.25041
 C20 C 0.61781 -0.01784 -0.25148
 C21 C -0.00866 0.24776 0.88171
 C22 C 0.49746 0.23673 0.11858
 C23 C 0.00929 0.74626 0.62715
 C24 C 0.49131 0.76775 0.38159
 Zr25 Zr 0.01032 -0.01888 1.03509
 O26 O 0.03319 -0.00537 1.05911
 O27 O 0.00461 -0.05121 1.04792
 O28 O -0.00643 -0.01635 1.06700
 O29 O 0.05443 -0.03106 0.99683
 O30 O -0.04004 0.00261 1.05895
 O31 O 0.04342 -0.03499 1.03375
 O32 O -0.02128 -0.06615 1.02346
 O33 O -0.02514 -0.02389 1.02858
 O34 O 0.00870 -0.03741 1.00550
 O35 O -0.00428 0.01350 1.03223
 O36 O 0.02854 0.00032 1.01044
 Zr37 Zr -0.02471 0.00915 0.96937
 Zr38 Zr -0.03922 0.00829 1.02396
 Zr39 Zr 0.02497 -0.01781 0.98068
 Zr40 Zr -0.02646 -0.04131 0.99841
 O41 O 0.05551 -0.00098 0.96928
 O42 O -0.05976 -0.05023 1.01162
 O43 O -0.00995 -0.02333 0.97201
 O44 O -0.04247 -0.00993 0.99426
 O45 O -0.02317 0.02804 0.99887
 O46 O 0.01066 0.01409 0.97629
 C47 C -0.00845 -0.06716 1.04108
 C48 C 0.05807 -0.03741 1.01727
 C49 C -0.02592 -0.00702 1.07279
 O50 O -0.07133 -0.00742 1.03229
 O51 O -0.06615 0.02640 1.00827
 O52 O -0.05760 0.02580 0.97065
 C53 C -0.07064 0.03130 0.98760
 O54 O 0.03642 0.03826 1.03201
 Zr55 Zr 0.01211 0.03166 1.00618
 O56 O -0.01965 0.04183 0.95706
 O57 O -0.04428 0.03911 1.04072
 O58 O -0.00096 0.05939 1.02452
 O59 O 0.04431 0.04247 0.99183
 O60 O 0.00441 0.05740 0.98283
 C61 C -0.00795 0.05828 0.96490
 O62 O -0.04809 -0.00417 0.94570
 O63 O 0.03186 -0.04978 0.96684
 O64 O -0.00842 0.00526 0.93726
 O65 O 0.02387 -0.01571 0.94551
 O66 O -0.01368 -0.07040 0.98209
 O67 O -0.04786 -0.04896 0.97056
 C68 C 0.01020 -0.00567 0.93159
 H69 H 0.01646 -0.05226 1.00673
 H70 H -0.05904 -0.01209 0.99028
 H71 H 0.01905 0.02240 0.96413
 H72 H -0.00277 0.02181 1.04645
 H73 H -0.06118 -0.06681 1.01080
 H74 H -0.08017 0.00324 1.04181
 H75 H -0.06000 0.03851 1.04782
 H76 H 0.00833 0.07278 1.01997
 H77 H -0.02371 -0.08320 0.98688
 H78 H 0.04742 -0.04887 0.95946
 H79 H 0.06446 -0.01178 0.96000
 H80 H 0.04501 0.05905 0.99319
 H81 H -0.05524 -0.06385 0.97308
 H82 H -0.05099 0.00783 0.93429
 H83 H 0.03623 -0.01746 1.07040
 H84 H 0.04083 0.05436 1.03143
 Zr85 Zr 0.53808 0.50383 0.53960
 O86 O 0.55974 0.51479 0.56586
 O87 O 0.53507 0.46957 0.54697
 O88 O 0.52082 0.50079 0.57154
 O89 O 0.58288 0.50110 0.50019
 O90 O 0.48458 0.51525 0.56468
 O91 O 0.57265 0.49062 0.53604
 O92 O 0.51142 0.45672 0.51938
 O93 O 0.50336 0.49680 0.53123
 O94 O 0.53857 0.49064 0.50711
 O95 O 0.51994 0.53458 0.54171
 O96 O 0.55443 0.52848 0.51892
 Zr97 Zr 0.50097 0.53919 0.47834
 Zr98 Zr 0.48582 0.52768 0.53155
 Zr99 Zr 0.55296 0.51557 0.48630
 Zr100 Zr 0.50419 0.48471 0.49847
 O101 O 0.58222 0.53649 0.47992
 O102 O 0.47175 0.47083 0.50905
 O103 O 0.51900 0.50833 0.47587
 O104 O 0.48496 0.51459 0.49909
 O105 O 0.50013 0.55276 0.51071
 O106 O 0.53548 0.54623 0.48697
 C107 C 0.52364 0.45399 0.53726
 C108 C 0.58727 0.49162 0.51925
 C109 C 0.49971 0.50586 0.57760
 O110 O 0.45521 0.50817 0.53593
 O111 O 0.45726 0.54560 0.51828
 O112 O 0.46662 0.55208 0.48134
 C113 C 0.45265 0.55335 0.49846
 O114 O 0.55807 0.56226 0.54684
 Zr115 Zr 0.53475 0.55831 0.51961
 O116 O 0.50259 0.57395 0.47237
 O117 O 0.47753 0.55436 0.55343
 O118 O 0.51896 0.58100 0.54242
 O119 O 0.56565 0.57442 0.50786
 O120 O 0.52437 0.58698 0.50130
 C121 C 0.51207 0.58984 0.48353
 O122 O 0.47912 0.52850 0.45205
 O123 O 0.56263 0.48777 0.46637
 O124 O 0.51737 0.54122 0.44611
 O125 O 0.55283 0.52482 0.45219
 O126 O 0.52017 0.46001 0.47800
 O127 O 0.48436 0.47985 0.46892
 C128 C 0.53777 0.53463 0.43952
 H129 H 0.54764 0.47652 0.50594
 H130 H 0.46879 0.51159 0.49428
 H131 H 0.54301 0.55728 0.47661
 H132 H 0.52027 0.54049 0.55719
 H133 H 0.47205 0.45460 0.50549
 H134 H 0.44513 0.51616 0.54688
 H135 H 0.46182 0.55115 0.55983
 H136 H 0.52707 0.59564 0.54069
 H137 H 0.51141 0.44579 0.48035
 H138 H 0.57823 0.49119 0.45982
 H139 H 0.59233 0.52860 0.46893
 H140 H 0.56469 0.59041 0.51228
 H141 H 0.47828 0.46427 0.46887
 H142 H 0.47522 0.54198 0.44276
 H143 H 0.56360 0.50130 0.57513
 H144 H 0.56120 0.57845 0.54899
 Zr145 Zr 0.49462 1.03064 0.52391
 O146 O 0.47065 1.01660 0.54756
 O147 O 0.49939 1.06273 0.53662
 O148 O 0.50947 1.02705 0.55649
 O149 O 0.45344 1.04467 0.48389
 O150 O 0.54361 1.00848 0.54961
 O151 O 0.46091 1.04533 0.52151
 O152 O 0.52678 1.07840 0.51310
 O153 O 0.53041 1.03601 0.51862
 O154 O 0.49796 1.04997 0.49426
 O155 O 0.50950 0.99843 0.52176
 O156 O 0.47804 1.01221 0.49854
 Zr157 Zr 0.53365 1.00432 0.45963
 Zr158 Zr 0.54488 1.00400 0.51467
 Zr159 Zr 0.48342 1.03106 0.46875
 Zr160 Zr 0.53351 1.05416 0.48838
 O161 O 0.45326 1.01464 0.45700
 O162 O 0.56596 1.06285 0.50266
 O163 O 0.51882 1.03679 0.46139
 O164 O 0.54985 1.02290 0.48498
 O165 O 0.53032 0.98491 0.48925
 O166 O 0.49794 0.99914 0.46530
 C167 C 0.51291 1.07885 0.53026
 C168 C 0.44769 1.04908 0.50436
 C169 C 0.52855 1.01743 0.56296
 O170 O 0.57639 1.01966 0.52392
 O171 O 0.57251 0.98602 0.50005
 O172 O 0.56641 0.98776 0.46214
 C173 C 0.57819 0.98160 0.47959
 O174 O 0.46799 0.97469 0.51966
 Zr175 Zr 0.49469 0.98098 0.49529
 O176 O 0.53024 0.97153 0.44781
 O177 O 0.54906 0.97275 0.53173
 O178 O 0.50565 0.95304 0.51514
 O179 O 0.46418 0.96965 0.47908
 O180 O 0.50533 0.95541 0.47353
 C181 C 0.51899 0.95468 0.45625
 O182 O 0.55813 1.01849 0.43658
 O183 O 0.47797 1.06325 0.45402
 O184 O 0.51891 1.00825 0.42710
 O185 O 0.48598 1.02903 0.43347
 O186 O 0.52150 1.08358 0.47148
 O187 O 0.55663 1.06264 0.46136
 C188 C 0.50036 1.01869 0.42046
 H189 H 0.49003 1.06474 0.49521
 H190 H 0.56663 1.02517 0.48156
 H191 H 0.49041 0.99083 0.45304
 H192 H 0.50712 0.98974 0.53595
 H193 H 0.56736 1.07946 0.50184
 H194 H 0.58478 1.00874 0.53368
 H195 H 0.56435 0.97317 0.53934
 H196 H 0.49645 0.93983 0.51049
 H197 H 0.53115 1.09634 0.47653
 H198 H 0.46270 1.06273 0.44638
 H199 H 0.44478 1.02568 0.44745
 H200 H 0.46366 0.95306 0.48095
 H201 H 0.56358 1.07760 0.46398
 H202 H 0.56182 1.00676 0.42539
 H203 H 0.46697 1.02844 0.55866
 H204 H 0.46334 0.95866 0.51923
 Zr205 Zr -0.01784 0.51294 1.03165
 O206 O -0.04014 0.49971 1.05718
 O207 O -0.01191 0.54543 1.04258
 O208 O -0.00039 0.51223 1.06308
 O209 O -0.06094 0.52646 0.99339
 O210 O 0.03456 0.49582 1.05439
 O211 O -0.05140 0.52845 1.03051
 O212 O 0.01497 0.55944 1.01748
 O213 O 0.01748 0.51797 1.02362
 O214 O -0.01627 0.53083 1.00102
 O215 O -0.00277 0.48071 1.03053
 O216 O -0.03602 0.49308 1.00856
 Zr217 Zr 0.01719 0.48346 0.96682
 Zr218 Zr 0.03206 0.48600 1.02079
 Zr219 Zr -0.03256 0.51052 0.97770
 Zr220 Zr 0.01880 0.53470 0.99264
 O221 O -0.06393 0.49379 0.96980
 O222 O 0.05258 0.54383 1.00344
 O223 O 0.00225 0.51593 0.96773
 O224 O 0.03510 0.50330 0.98993
 O225 O 0.01589 0.46548 0.99743
 O226 O -0.01808 0.47854 0.97507
 C227 C 0.00233 0.56063 1.03548
 C228 C -0.06520 0.53233 1.01379
 C229 C 0.02050 0.50577 1.06800
 O230 O 0.06497 0.50113 1.02577
 O231 O 0.05819 0.46622 1.00604
 O232 O 0.04938 0.46557 0.96863
 C233 C 0.06215 0.46014 0.98570
 O234 O -0.04348 0.45603 1.03274
 Zr235 Zr -0.01923 0.46172 1.00595
 O236 O 0.01189 0.45069 0.95631
 O237 O 0.03666 0.45672 1.04097
 O238 O -0.00572 0.43481 1.02570
 O239 O -0.05122 0.44976 0.99314
 O240 O -0.01121 0.43526 0.98396
 C241 C 0.00077 0.43420 0.96554
 O242 O 0.04096 0.49600 0.94221
 O243 O -0.03839 0.54149 0.96064
 O244 O 0.00102 0.48661 0.93482
 O245 O -0.03281 0.50531 0.94285
 O246 O 0.00552 0.56386 0.97620
 O247 O 0.03900 0.54186 0.96320
 C248 C -0.01876 0.49541 0.92914
 H249 H -0.02387 0.54576 1.00175
 H250 H 0.05162 0.50521 0.98525
 H251 H -0.02656 0.46971 0.96379
 H252 H -0.00396 0.47305 1.04541
 H253 H 0.05399 0.56037 1.00163
 H254 H 0.07375 0.49108 1.03611
 H255 H 0.05246 0.45767 1.04748
 H256 H -0.01490 0.42119 1.02226
 H257 H 0.01575 0.57660 0.98015
 H258 H -0.05409 0.54059 0.95389
 H259 H -0.07293 0.50414 0.95994
 H260 H -0.05168 0.43328 0.99590
 H261 H 0.04631 0.55685 0.96451
 H262 H 0.04383 0.48368 0.93145
 H263 H -0.04313 0.51202 1.06794
 H264 H -0.04741 0.43983 1.03366
 Zr265 Zr -0.00772 0.47891 0.47595
 O266 O -0.02889 0.49041 0.44914
 O267 O -0.00502 0.44476 0.46906
 O268 O 0.00969 0.47720 0.44420
 O269 O -0.05274 0.47316 0.51501
 O270 O 0.04410 0.49532 0.45021
 O271 O -0.04234 0.46628 0.47861
 O272 O 0.01951 0.43097 0.49596
 O273 O 0.02731 0.47254 0.48378
 O274 O -0.00771 0.46405 0.50811
 O275 O 0.00891 0.51039 0.47447
 O276 O -0.02516 0.50173 0.49722
 Zr277 Zr 0.02780 0.51273 0.53763
 Zr278 Zr 0.04339 0.50418 0.48421
 Zr279 Zr -0.02307 0.48722 0.52955
 Zr280 Zr 0.02705 0.45885 0.51633
 O281 O -0.05281 0.50691 0.53728
 O282 O 0.05950 0.44656 0.50423
 O283 O 0.01139 0.48092 0.53939
 O284 O 0.04483 0.48964 0.51644
 O285 O 0.02790 0.52770 0.50552
 O286 O -0.00711 0.51862 0.52951
 C287 C 0.00612 0.42871 0.47888
 C288 C -0.05709 0.46580 0.49525
 C289 C 0.02953 0.48531 0.43747
 O290 O 0.07414 0.48530 0.47848
 O291 O 0.07197 0.52130 0.49787
 O292 O 0.06034 0.52910 0.53380
 C293 C 0.07497 0.53030 0.51718
 O294 O -0.03065 0.53643 0.46999
 Zr295 Zr -0.00701 0.53229 0.49706
 O296 O 0.02341 0.54700 0.54532
 O297 O 0.05100 0.53288 0.46395
 O298 O 0.00741 0.55686 0.47471
 O299 O -0.03856 0.54656 0.50922
 O300 O 0.00209 0.56034 0.51586
 C301 C 0.01343 0.56301 0.53413
 O302 O 0.05155 0.50224 0.56276
 O303 O -0.03194 0.45778 0.54823
 O304 O 0.01237 0.51080 0.57023
 O305 O -0.02247 0.49344 0.56415
 O306 O 0.01254 0.43334 0.53751
 O307 O 0.04832 0.45318 0.54495
 C308 C -0.00732 0.50246 0.57697
 H309 H -0.01657 0.44979 0.50912
 H310 H 0.06115 0.48713 0.52116
 H311 H -0.01510 0.52865 0.54031
 H312 H 0.00813 0.51714 0.45916
 H313 H 0.05986 0.43013 0.50730
 H314 H 0.08386 0.49415 0.46768
 H315 H 0.06663 0.53044 0.45711
 H316 H -0.00155 0.57097 0.47672
 H317 H 0.02153 0.41934 0.53493
 H318 H -0.04765 0.46032 0.55485
 H319 H -0.06249 0.49794 0.54801
 H320 H -0.03840 0.56276 0.50504
 H321 H 0.05501 0.43783 0.54438
 H322 H 0.05457 0.51544 0.57233
 H323 H -0.03261 0.47714 0.43989
 H324 H -0.03467 0.55255 0.46815
 Zr325 Zr 0.48505 -0.03235 -0.02909
 O326 O 0.46655 -0.02238 -0.05825
 O327 O 0.48600 -0.06729 -0.03217
 O328 O 0.50438 -0.03812 -0.05924
 O329 O 0.43725 -0.03188 0.00695
 O330 O 0.54027 -0.02373 -0.05153
 O331 O 0.44966 -0.04293 -0.02780
 O332 O 0.50739 -0.07928 -0.00208
 O333 O 0.51872 -0.04008 -0.01773
 O334 O 0.48156 -0.04356 0.00438
 O335 O 0.50426 -0.00236 -0.03255
 O336 O 0.46792 -0.00619 -0.01179
 Zr337 Zr 0.51842 0.00574 0.03131
 Zr338 Zr 0.53722 -0.00975 -0.01944
 Zr339 Zr 0.46642 -0.01724 0.02192
 Zr340 Zr 0.51499 -0.04998 0.01595
 O341 O 0.43763 0.00490 0.02471
 O342 O 0.54736 -0.06551 0.00820
 O343 O 0.49941 -0.02454 0.03515
 O344 O 0.53506 -0.02065 0.01414
 O345 O 0.52223 0.01715 -0.00205
 O346 O 0.48478 0.01285 0.01981
 C347 C 0.49547 -0.08272 -0.01993
 C348 C 0.43401 -0.04139 -0.01208
 C349 C 0.52583 -0.03364 -0.06447
 O350 O 0.56697 -0.03086 -0.02042
 O351 O 0.56605 0.00648 -0.00542
 O352 O 0.55275 0.01886 0.02858
 C353 C 0.56871 0.01684 0.01322
 O354 O 0.46828 0.02593 -0.04342
 Zr355 Zr 0.48849 0.02298 -0.01373
 O356 O 0.51567 0.04075 0.03509
 O357 O 0.54835 0.01575 -0.04233
 O358 O 0.50730 0.04427 -0.03640
 O359 O 0.45673 0.03990 -0.00655
 O360 O 0.49667 0.05240 0.00346
 C361 C 0.50662 0.05605 0.02232
 O362 O 0.53916 -0.00314 0.05938
 O363 O 0.45408 -0.04365 0.04319
 O364 O 0.50040 0.00828 0.06264
 O365 O 0.46485 -0.00711 0.05558
 O366 O 0.49685 -0.07225 0.03818
 O367 O 0.53312 -0.05373 0.04681
 C368 C 0.47964 0.00208 0.06872
 H369 H 0.47175 -0.05716 0.00620
 H370 H 0.55068 -0.02378 0.02042
 H371 H 0.47660 0.02436 0.02883
 H372 H 0.50534 0.00265 -0.04850
 H373 H 0.54626 -0.08149 0.01309
 H374 H 0.57810 -0.02404 -0.03143
 H375 H 0.56421 0.01150 -0.04756
 H376 H 0.49942 0.05911 -0.03660
 H377 H 0.50501 -0.08696 0.03785
 H378 H 0.43821 -0.03936 0.04835
 H379 H 0.42654 -0.00216 0.03559
 H380 H 0.45820 0.05551 -0.01247
 H381 H 0.53867 -0.06944 0.04848
 H382 H 0.54235 0.01089 0.06765
 H383 H 0.46267 -0.03626 -0.06649
 H384 H 0.46627 0.04203 -0.04747
 Zr385 Zr 0.51993 0.50209 -0.03268
 O386 O 0.54149 0.49221 -0.05996
 O387 O 0.51420 0.53627 -0.04009
 O388 O 0.50192 0.50326 -0.06377
 O389 O 0.56693 0.50718 0.00325
 O390 O 0.46719 0.48626 -0.05524
 O391 O 0.55323 0.51754 -0.03135
 O392 O 0.49035 0.54754 -0.01139
 O393 O 0.48527 0.50740 -0.02240
 O394 O 0.52108 0.51568 -0.00044
 O395 O 0.50390 0.47025 -0.03326
 O396 O 0.53875 0.47858 -0.01286
 Zr397 Zr 0.48775 0.46554 0.03095
 Zr398 Zr 0.46979 0.47561 -0.02149
 Zr399 Zr 0.53810 0.49189 0.01961
 Zr400 Zr 0.48678 0.51972 0.01028
 O401 O 0.56799 0.47187 0.02564
 O402 O 0.45288 0.53164 0.00248
 O403 O 0.50409 0.49729 0.03187
 O404 O 0.46950 0.48898 0.01092
 O405 O 0.48636 0.45158 -0.00118
 O406 O 0.52237 0.46022 0.02072
 C407 C 0.50172 0.55100 -0.02983
 C408 C 0.56901 0.51732 -0.01597
 C409 C 0.48136 0.49628 -0.06900
 O410 O 0.43865 0.49430 -0.02568
 O411 O 0.44167 0.45875 -0.00584
 O412 O 0.45385 0.45133 0.03002
 C413 C 0.43856 0.45093 0.01425
 O414 O 0.54396 0.44476 -0.03987
 Zr415 Zr 0.52099 0.44762 -0.01173
 O416 O 0.49076 0.43092 0.03689
 O417 O 0.46189 0.44726 -0.04109
 O418 O 0.50660 0.42387 -0.03395
 O419 O 0.55283 0.43316 -0.00077
 O420 O 0.51198 0.41843 0.00686
 C421 C 0.49990 0.41526 0.02499
 O422 O 0.46642 0.47510 0.05855
 O423 O 0.54823 0.52083 0.03741
 O424 O 0.50525 0.46551 0.06231
 O425 O 0.53823 0.48574 0.05442
 O426 O 0.50223 0.54576 0.02904
 O427 O 0.46870 0.52340 0.04143
 C428 C 0.52413 0.47560 0.06816
 H429 H 0.52921 0.53034 -0.00004
 H430 H 0.45347 0.49147 0.01673
 H431 H 0.53066 0.44978 0.03105
 H432 H 0.50411 0.46403 -0.04862
 H433 H 0.45223 0.54780 0.00632
 H434 H 0.42852 0.48558 -0.03577
 H435 H 0.44603 0.44975 -0.04710
 H436 H 0.51580 0.40980 -0.03250
 H437 H 0.49222 0.55928 0.02738
 H438 H 0.56402 0.51786 0.04343
 H439 H 0.57805 0.48054 0.03581
 H440 H 0.55259 0.41705 -0.00482
 H441 H 0.46172 0.53862 0.04212
 H442 H 0.46361 0.46144 0.06801
 H443 H 0.54416 0.50578 -0.06957
 H444 H 0.54878 0.42886 -0.04153
 Zr445 Zr 0.02365 1.01235 0.46742
 O446 O 0.04385 0.99964 0.44043
 O447 O 0.02130 1.04657 0.45910
 O448 O 0.00506 1.01507 0.43667
 O449 O 0.07068 1.01636 0.50337
 O450 O -0.03076 1.00095 0.44612
 O451 O 0.05800 1.02573 0.46815
 O452 O -0.00085 1.06091 0.48763
 O453 O -0.01044 1.02045 0.47764
 O454 O 0.02599 1.02677 0.49922
 O455 O 0.00517 0.98172 0.46781
 O456 O 0.04063 0.98803 0.48783
 Zr457 Zr -0.01079 0.98043 0.53233
 Zr458 Zr -0.02827 0.98982 0.47966
 Zr459 Zr 0.04130 1.00245 0.51981
 Zr460 Zr -0.00780 1.03376 0.50980
 O461 O 0.07057 0.98122 0.52449
 O462 O -0.04041 1.04780 0.50055
 O463 O 0.00801 1.01090 0.53226
 O464 O -0.02750 1.00428 0.51156
 O465 O -0.01352 0.96538 0.50079
 O466 O 0.02310 0.97219 0.52179
 C467 C 0.01089 1.06283 0.46911
 C468 C 0.07351 1.02557 0.48381
 C469 C -0.01626 1.00997 0.43200
 O470 O -0.05885 1.00956 0.47667
 O471 O -0.05607 0.97247 0.49521
 O472 O -0.04529 0.96756 0.53187
 C473 C -0.05972 0.96547 0.51551
 O474 O 0.04196 0.95218 0.46148
 Zr475 Zr 0.02040 0.95843 0.49004
 O476 O -0.00946 0.94621 0.54032
 O477 O -0.03801 0.96266 0.45915
 O478 O 0.00250 0.93523 0.46970
 O479 O 0.05165 0.94226 0.50020
 O480 O 0.01053 0.93075 0.51096
 C481 C -0.00088 0.92934 0.52978
 O482 O -0.03117 0.99306 0.55927
 O483 O 0.05243 1.03063 0.53821
 O484 O 0.00730 0.97917 0.56337
 O485 O 0.04286 0.99417 0.55410
 O486 O 0.00915 1.05911 0.52829
 O487 O -0.02613 1.03985 0.54040
 C488 C 0.02830 0.98517 0.56814
 H489 H 0.03522 1.04081 0.49937
 H490 H -0.04340 1.00768 0.51724
 H491 H 0.03096 0.96140 0.53206
 H492 H 0.00468 0.97525 0.45256
 H493 H -0.03974 1.06414 0.50353
 H494 H -0.06947 1.00139 0.46660
 H495 H -0.05397 0.96591 0.45371
 H496 H 0.01002 0.92034 0.47184
 H497 H 0.00018 1.07324 0.52618
 H498 H 0.06828 1.02711 0.54377
 H499 H 0.08136 0.98920 0.53454
 H500 H 0.05000 0.92603 0.49699
 H501 H -0.03254 1.05532 0.54008
 H502 H -0.03494 0.98014 0.56943
 H503 H 0.04759 1.01260 0.43033
 H504 H 0.04422 0.93576 0.45992
 Zr505 Zr 0.72829 0.27588 0.22140
 O506 O 0.74399 0.29602 0.19576
 O507 O 0.69332 0.27525 0.21163
 O508 O 0.72720 0.25985 0.18967
 O509 O 0.72212 0.31849 0.25981
 O510 O 0.74193 0.22499 0.19758
 O511 O 0.71662 0.30986 0.22299
 O512 O 0.67640 0.25171 0.23768
 O513 O 0.71913 0.24241 0.22905
 O514 O 0.71059 0.27602 0.25241
 O515 O 0.75988 0.25775 0.22238
 O516 O 0.75147 0.29057 0.24436
 Zr517 Zr 0.75629 0.23792 0.28568
 Zr518 Zr 0.75062 0.22479 0.23172
 Zr519 Zr 0.73386 0.28882 0.27545
 Zr520 Zr 0.70266 0.24275 0.26048
 O521 O 0.75563 0.31565 0.28508
 O522 O 0.68884 0.21239 0.24795
 O523 O 0.72454 0.25592 0.28502
 O524 O 0.73314 0.22351 0.26279
 O525 O 0.77427 0.23751 0.25483
 O526 O 0.76520 0.27132 0.27800
 C527 C 0.67571 0.26463 0.22013
 C528 C 0.71556 0.32351 0.23972
 C529 C 0.73306 0.23969 0.18405
 O530 O 0.73014 0.19606 0.22518
 O531 O 0.76577 0.19590 0.24641
 O532 O 0.77126 0.20534 0.28309
 C533 C 0.77305 0.19167 0.26644
 O534 O 0.79046 0.29352 0.21981
 Zr535 Zr 0.78193 0.27097 0.24675
 O536 O 0.79098 0.23914 0.29592
 O537 O 0.78085 0.21655 0.21281
 O538 O 0.80806 0.25536 0.22681
 O539 O 0.79732 0.30046 0.25964
 O540 O 0.80876 0.26042 0.26847
 C541 C 0.80898 0.24835 0.28664
 O542 O 0.74172 0.21559 0.31008
 O543 O 0.70264 0.29951 0.29146
 O544 O 0.75362 0.25276 0.31798
 O545 O 0.73608 0.28653 0.31051
 O546 O 0.67545 0.25811 0.27925
 O547 O 0.69335 0.22247 0.28895
 C548 C 0.74416 0.27149 0.32408
 H549 H 0.69626 0.28532 0.25226
 H550 H 0.72917 0.20787 0.26731
 H551 H 0.77512 0.27811 0.28962
 H552 H 0.76786 0.25823 0.20752
 H553 H 0.67166 0.21304 0.24987
 H554 H 0.73934 0.18651 0.21481
 H555 H 0.77779 0.20185 0.20578
 H556 H 0.82312 0.26267 0.23018
 H557 H 0.66071 0.25038 0.27552
 H558 H 0.70595 0.31411 0.29861
 H559 H 0.74611 0.32535 0.29502
 H560 H 0.81440 0.29928 0.25714
 H561 H 0.67714 0.21705 0.28733
 H562 H 0.75439 0.21148 0.32063
 H563 H 0.73141 0.30072 0.18534
 H564 H 0.80752 0.29614 0.21943
 Zr565 Zr 0.76130 0.71347 0.70691
 O566 O 0.74841 0.69600 0.67888
 O567 O 0.79701 0.71407 0.70009
 O568 O 0.76716 0.73170 0.67638
 O569 O 0.75743 0.66684 0.74244
 O570 O 0.75549 0.76720 0.68533
 O571 O 0.77118 0.67890 0.70812
 O572 O 0.81232 0.73336 0.72938
 O573 O 0.77181 0.74526 0.71789
 O574 O 0.77430 0.70896 0.73942
 O575 O 0.73146 0.73411 0.70541
 O576 O 0.73379 0.69869 0.72572
 Zr577 Zr 0.72684 0.74756 0.76977
 Zr578 Zr 0.74177 0.76522 0.71815
 Zr579 Zr 0.74657 0.69613 0.75858
 Zr580 Zr 0.78353 0.74060 0.75071
 O581 O 0.72186 0.67002 0.76346
 O582 O 0.80108 0.77130 0.74354
 O583 O 0.75699 0.72711 0.77156
 O584 O 0.75444 0.76206 0.75094
 O585 O 0.71390 0.75231 0.73723
 O586 O 0.71662 0.71591 0.75857
 C587 C 0.81401 0.72330 0.71037
 C588 C 0.76741 0.66349 0.72335
 C589 C 0.76406 0.75275 0.67158
 O590 O 0.76534 0.79257 0.71643
 O591 O 0.72617 0.79368 0.73286
 O592 O 0.71453 0.78121 0.76773
 C593 C 0.71593 0.79644 0.75201
 O594 O 0.69929 0.70120 0.69653
 Zr595 Zr 0.70496 0.72051 0.72579
 O596 O 0.69071 0.74800 0.77550
 O597 O 0.71570 0.77784 0.69639
 O598 O 0.68353 0.73999 0.70407
 O599 O 0.68537 0.69138 0.73456
 O600 O 0.67586 0.73122 0.74450
 C601 C 0.67367 0.74122 0.76342
 O602 O 0.73908 0.76646 0.79714
 O603 O 0.77425 0.68218 0.77753
 O604 O 0.72320 0.72979 0.80102
 O605 O 0.73715 0.69490 0.79267
 O606 O 0.80707 0.72087 0.77000
 O607 O 0.78967 0.75617 0.78205
 C608 C 0.72837 0.70922 0.80637
 H609 H 0.78794 0.69873 0.73996
 H610 H 0.75877 0.77686 0.75707
 H611 H 0.70440 0.70888 0.76823
 H612 H 0.72572 0.73562 0.68980
 H613 H 0.81771 0.76912 0.74744
 H614 H 0.75870 0.80376 0.70574
 H615 H 0.72109 0.79279 0.69087
 H616 H 0.66762 0.73349 0.70482
 H617 H 0.82265 0.72799 0.76854
 H618 H 0.76898 0.66719 0.78305
 H619 H 0.72899 0.65869 0.77369
 H620 H 0.66906 0.69411 0.72986
 H621 H 0.80639 0.76012 0.78312
 H622 H 0.72523 0.77062 0.80634
 H623 H 0.76212 0.69146 0.66967
 H624 H 0.68232 0.70004 0.69381
 Zr625 Zr 0.23169 0.23734 0.77777
 O626 O 0.24845 0.21624 0.80166
 O627 O 0.19717 0.23684 0.78918
 O628 O 0.23036 0.25121 0.81035
 O629 O 0.22658 0.19649 0.73736
 O630 O 0.24402 0.28692 0.80450
 O631 O 0.22124 0.20321 0.77474
 O632 O 0.17819 0.26028 0.76467
 O633 O 0.22076 0.27070 0.77238
 O634 O 0.21365 0.23802 0.74740
 O635 O 0.26226 0.25693 0.77717
 O636 O 0.25546 0.22487 0.75361
 Zr637 Zr 0.25733 0.27990 0.71528
 Zr638 Zr 0.25127 0.28991 0.76998
 Zr639 Zr 0.23748 0.22745 0.72315
 Zr640 Zr 0.20399 0.27127 0.74142
 O641 O 0.26056 0.20200 0.71208
 O642 O 0.18870 0.30039 0.75555
 O643 O 0.22650 0.26042 0.71566
 O644 O 0.23352 0.29203 0.73944
 O645 O 0.27531 0.27943 0.74570
 O646 O 0.26795 0.24658 0.72087
 C647 C 0.17891 0.24714 0.78209
 C648 C 0.22051 0.19028 0.75746
 C649 C 0.23644 0.27078 0.81723
 O650 O 0.22909 0.31693 0.77877
 O651 O 0.26541 0.32009 0.75665
 O652 O 0.27132 0.31272 0.71943
 C653 C 0.27288 0.32552 0.73679
 O654 O 0.29373 0.22117 0.77619
 Zr655 Zr 0.28481 0.24606 0.75170
 O656 O 0.29200 0.28057 0.70404
 O657 O 0.28125 0.29871 0.78835
 O658 O 0.30998 0.25993 0.77339
 O659 O 0.30277 0.21962 0.73529
 O660 O 0.31111 0.26157 0.73197
 C661 C 0.31060 0.27367 0.71385
 O662 O 0.24150 0.30292 0.69260
 O663 O 0.20691 0.21662 0.70682
 O664 O 0.25553 0.26675 0.68229
 O665 O 0.24029 0.23161 0.68822
 O666 O 0.17742 0.25556 0.72273
 O667 O 0.19372 0.29229 0.71401
 C668 C 0.24757 0.24776 0.67541
 H669 H 0.19973 0.22819 0.74757
 H670 H 0.22886 0.30771 0.73586
 H671 H 0.27832 0.24106 0.70871
 H672 H 0.27042 0.25583 0.79175
 H673 H 0.17157 0.29911 0.75387
 H674 H 0.23785 0.32632 0.78942
 H675 H 0.27747 0.31277 0.79639
 H676 H 0.32535 0.25340 0.76930
 H677 H 0.16236 0.26251 0.72716
 H678 H 0.21087 0.20251 0.69895
 H679 H 0.25160 0.19244 0.70176
 H680 H 0.31964 0.22184 0.73790
 H681 H 0.17724 0.29688 0.71615
 H682 H 0.25391 0.30823 0.68205
 H683 H 0.23623 0.21053 0.81223
 H684 H 0.31076 0.21839 0.77564
 Zr685 Zr 0.26230 0.76997 0.28065
 O686 O 0.24595 0.78706 0.30756
 O687 O 0.29758 0.77395 0.28758
 O688 O 0.26826 0.75334 0.31190
 O689 O 0.25794 0.81534 0.24352
 O690 O 0.25858 0.71690 0.30470
 O691 O 0.26978 0.80493 0.27875
 O692 O 0.31640 0.75652 0.25866
 O693 O 0.27655 0.73886 0.27141
 O694 O 0.27650 0.77455 0.24837
 O695 O 0.23430 0.74705 0.28188
 O696 O 0.23448 0.78188 0.26071
 Zr697 Zr 0.23549 0.73138 0.21828
 Zr698 Zr 0.24833 0.71648 0.27090
 Zr699 Zr 0.24899 0.78482 0.22825
 Zr700 Zr 0.28956 0.74353 0.23868
 O701 O 0.22225 0.80890 0.22323
 O702 O 0.30985 0.71563 0.24948
 O703 O 0.26332 0.75450 0.21660
 O704 O 0.26283 0.71954 0.23851
 O705 O 0.22074 0.72642 0.25031
 O706 O 0.22130 0.76229 0.22797
 C707 C 0.31609 0.76798 0.27686
 C708 C 0.26668 0.81966 0.26283
 C709 C 0.26499 0.73263 0.31794
 O710 O 0.27433 0.69145 0.27449
 O711 O 0.23536 0.68666 0.25672
 O712 O 0.22549 0.69718 0.22097
 C713 C 0.22640 0.68270 0.23737
 O714 O 0.19798 0.77692 0.28854
 Zr715 Zr 0.20780 0.75751 0.26021
 O716 O 0.20049 0.72752 0.21077
 O717 O 0.22225 0.70207 0.29208
 O718 O 0.18717 0.73651 0.28161
 O719 O 0.18582 0.78441 0.24995
 O720 O 0.18124 0.74355 0.24025
 C721 C 0.18182 0.73304 0.22142
 O722 O 0.25194 0.71308 0.19227
 O723 O 0.27574 0.80019 0.20861
 O724 O 0.23107 0.74777 0.18664
 O725 O 0.24006 0.78430 0.19421
 O726 O 0.31204 0.76330 0.21786
 O727 O 0.29876 0.72618 0.20885
 C728 C 0.23333 0.76872 0.18100
 H729 H 0.28907 0.78592 0.24737
 H730 H 0.26881 0.70492 0.23313
 H731 H 0.20894 0.76792 0.21784
 H732 H 0.22766 0.74569 0.29729
 H733 H 0.32637 0.71915 0.24583
 H734 H 0.26793 0.67997 0.28511
 H735 H 0.22855 0.68766 0.29805
 H736 H 0.17068 0.74114 0.27974
 H737 H 0.32806 0.75723 0.21951
 H738 H 0.26931 0.81454 0.20264
 H739 H 0.22853 0.82040 0.21254
 H740 H 0.16957 0.78008 0.25387
 H741 H 0.31553 0.72218 0.20923
 H742 H 0.23936 0.70720 0.18265
 H743 H 0.25854 0.79311 0.31706
 H744 H 0.18084 0.77619 0.29069
 Zr745 Zr 0.25099 0.78967 0.71077
 O746 O 0.26568 0.81144 0.68594
 O747 O 0.21572 0.79008 0.70270
 O748 O 0.24624 0.77641 0.67819
 O749 O 0.25132 0.83024 0.75204
 O750 O 0.25840 0.74005 0.68274
 O751 O 0.23990 0.82329 0.71610
 O752 O 0.19905 0.76638 0.72883
 O753 O 0.24045 0.75639 0.71705
 O754 O 0.23593 0.78868 0.74299
 O755 O 0.28129 0.76990 0.70760
 O756 O 0.27703 0.80156 0.73237
 Zr757 Zr 0.28240 0.74572 0.76946
 Zr758 Zr 0.27082 0.73700 0.71564
 Zr759 Zr 0.26211 0.79861 0.76466
 Zr760 Zr 0.22667 0.75547 0.74960
 O761 O 0.28636 0.82332 0.77445
 O762 O 0.20996 0.72640 0.73730
 O763 O 0.25182 0.76553 0.77273
 O764 O 0.25607 0.73456 0.74793
 O765 O 0.29754 0.74656 0.73723
 O766 O 0.29237 0.77919 0.76323
 C767 C 0.19829 0.77939 0.71132
 C768 C 0.24203 0.83623 0.73325
 C769 C 0.24948 0.75623 0.67108
 O770 O 0.24802 0.70997 0.70889
 O771 O 0.28456 0.70617 0.72695
 O772 O 0.29368 0.71196 0.76367
 C773 C 0.29237 0.69941 0.74609
 O774 O 0.31377 0.80348 0.70410
 Zr775 Zr 0.30625 0.78019 0.73070
 O776 O 0.31814 0.74519 0.77680
 O777 O 0.29864 0.72860 0.69364
 O778 O 0.32964 0.76412 0.70818
 O779 O 0.32412 0.80842 0.74344
 O780 O 0.33435 0.76813 0.74980
 C781 C 0.33561 0.75520 0.76727
 O782 O 0.26926 0.72258 0.79390
 O783 O 0.23305 0.80973 0.78382
 O784 O 0.28312 0.75813 0.80279
 O785 O 0.26731 0.79332 0.79917
 O786 O 0.20208 0.77145 0.77100
 O787 O 0.21883 0.73451 0.77797
 C788 C 0.27530 0.77675 0.81092
 H789 H 0.22205 0.79850 0.74446
 H790 H 0.25137 0.71894 0.75178
 H791 H 0.30361 0.78476 0.77438
 H792 H 0.28786 0.77098 0.69214
 H793 H 0.19309 0.72778 0.74086
 H794 H 0.25546 0.70089 0.69693
 H795 H 0.29392 0.71474 0.68584
 H796 H 0.34538 0.77048 0.71057
 H797 H 0.18659 0.76485 0.76793
 H798 H 0.23791 0.82355 0.79162
 H799 H 0.27838 0.83264 0.78588
 H800 H 0.34081 0.80694 0.73917
 H801 H 0.20212 0.73032 0.77777
 H802 H 0.28271 0.71721 0.80290
 H803 H 0.25258 0.81739 0.67684
 H804 H 0.33089 0.80501 0.70225
 Zr805 Zr 0.26095 0.22585 0.21998
 O806 O 0.24820 0.20741 0.19253
 O807 O 0.29685 0.22452 0.21442
 O808 O 0.26762 0.24306 0.18889
 O809 O 0.25925 0.18101 0.25825
 O810 O 0.25621 0.27898 0.19654
 O811 O 0.27095 0.19147 0.22280
 O812 O 0.31184 0.24564 0.24260
 O813 O 0.27159 0.25804 0.22962
 O814 O 0.27337 0.22287 0.25287
 O815 O 0.23121 0.24648 0.21726
 O816 O 0.23309 0.21188 0.23903
 Zr817 Zr 0.22618 0.26296 0.28081
 Zr818 Zr 0.24155 0.27803 0.22877
 Zr819 Zr 0.24550 0.21068 0.27210
 Zr820 Zr 0.28282 0.25487 0.26274
 O821 O 0.22088 0.18437 0.27589
 O822 O 0.30065 0.28491 0.25351
 O823 O 0.25601 0.24224 0.28384
 O824 O 0.25398 0.27650 0.26168
 O825 O 0.21345 0.26622 0.24806
 O826 O 0.21573 0.23085 0.27089
 C827 C 0.31385 0.23353 0.22486
 C828 C 0.26912 0.17692 0.23917
 C829 C 0.26493 0.26406 0.18351
 O830 O 0.26464 0.30574 0.22642
 O831 O 0.22502 0.30664 0.24181
 O832 O 0.21533 0.29713 0.27798
 C833 C 0.21595 0.31115 0.26113
 O834 O 0.19882 0.21305 0.20982
 Zr835 Zr 0.20436 0.23398 0.23794
 O836 O 0.19012 0.26506 0.28560
 O837 O 0.21611 0.28942 0.20568
 O838 O 0.18351 0.25234 0.21478
 O839 O 0.18402 0.20576 0.24815
 O840 O 0.17516 0.24646 0.25569
 C841 C 0.17308 0.25811 0.27369
 O842 O 0.23876 0.28202 0.30792
 O843 O 0.27198 0.19818 0.29348
 O844 O 0.22103 0.24628 0.31228
 O845 O 0.23400 0.21059 0.30562
 O846 O 0.30599 0.23647 0.28367
 O847 O 0.28870 0.27228 0.29314
 C848 C 0.22511 0.22572 0.31834
 H849 H 0.28700 0.21275 0.25438
 H850 H 0.25835 0.29157 0.26712
 H851 H 0.20310 0.22447 0.28052
 H852 H 0.22577 0.24734 0.20151
 H853 H 0.31723 0.28287 0.25760
 H854 H 0.25801 0.31645 0.21525
 H855 H 0.22136 0.30430 0.19986
 H856 H 0.16749 0.24615 0.21581
 H857 H 0.32157 0.24358 0.28213
 H858 H 0.26664 0.18335 0.29936
 H859 H 0.22735 0.17356 0.28706
 H860 H 0.16783 0.20859 0.24317
 H861 H 0.30525 0.27694 0.29373
 H862 H 0.22497 0.28696 0.31681
 H863 H 0.26199 0.20241 0.18370
 H864 H 0.18188 0.21183 0.20701
 Zr865 Zr 0.72800 0.74073 0.27523
 O866 O 0.74462 0.72102 0.30035
 O867 O 0.69351 0.74068 0.28633
 O868 O 0.72598 0.75653 0.30701
 O869 O 0.72515 0.69674 0.23770
 O870 O 0.73689 0.79248 0.29836
 O871 O 0.71701 0.70682 0.27389
 O872 O 0.67437 0.76195 0.26005
 O873 O 0.71636 0.77329 0.26729
 O874 O 0.71065 0.73889 0.24454
 O875 O 0.75814 0.76076 0.27401
 O876 O 0.75252 0.72703 0.25250
 Zr877 Zr 0.75396 0.77943 0.21035
 Zr878 Zr 0.74649 0.79278 0.26425
 Zr879 Zr 0.73526 0.72709 0.22156
 Zr880 Zr 0.70030 0.77138 0.23607
 O881 O 0.75910 0.70139 0.21275
 O882 O 0.68421 0.80134 0.24740
 O883 O 0.72362 0.75922 0.21151
 O884 O 0.72943 0.79261 0.23328
 O885 O 0.77123 0.78130 0.24114
 O886 O 0.76524 0.74679 0.21863
 C887 C 0.67522 0.75031 0.27852
 C888 C 0.71751 0.69249 0.25777
 C889 C 0.72996 0.77713 0.31238
 O890 O 0.72429 0.82073 0.26949
 O891 O 0.76228 0.82119 0.24946
 O892 O 0.76672 0.81312 0.21223
 C893 C 0.76925 0.82611 0.22934
 O894 O 0.79054 0.72584 0.27602
 Zr895 Zr 0.78140 0.74871 0.24971
 O896 O 0.78882 0.78017 0.19980
 O897 O 0.77502 0.80308 0.28394
 O898 O 0.80563 0.76508 0.27063
 O899 O 0.80033 0.72146 0.23580
 O900 O 0.80764 0.76317 0.22920
 C901 C 0.80724 0.77394 0.21028
 O902 O 0.73772 0.80009 0.18579
 O903 O 0.70525 0.71457 0.20550
 O904 O 0.75400 0.76365 0.17839
 O905 O 0.73936 0.72871 0.18651
 O906 O 0.67422 0.75367 0.21855
 O907 O 0.69020 0.78990 0.20689
 C908 C 0.74694 0.74390 0.17266
 H909 H 0.69683 0.72893 0.24512
 H910 H 0.72461 0.80796 0.22859
 H911 H 0.77607 0.74060 0.20719
 H912 H 0.76585 0.76091 0.28883
 H913 H 0.66715 0.79956 0.24560
 H914 H 0.73255 0.83087 0.27981
 H915 H 0.77076 0.81778 0.29050
 H916 H 0.82128 0.75876 0.26730
 H917 H 0.65901 0.76071 0.22229
 H918 H 0.70970 0.70004 0.19869
 H919 H 0.75060 0.69089 0.20299
 H920 H 0.81709 0.72429 0.23851
 H921 H 0.67356 0.79421 0.20830
 H922 H 0.75013 0.80500 0.17505
 H923 H 0.73231 0.71588 0.31109
 H924 H 0.80770 0.72395 0.27627
 Zr925 Zr 0.75763 0.25572 0.77705
 O926 O 0.74186 0.27763 0.80051
 O927 O 0.79219 0.25473 0.78775
 O928 O 0.75797 0.24159 0.81000
 O929 O 0.76532 0.29696 0.73560
 O930 O 0.74186 0.20691 0.80531
 O931 O 0.77066 0.28890 0.77286
 O932 O 0.81030 0.23160 0.76264
 O933 O 0.76668 0.22190 0.77239
 O934 O 0.77582 0.25438 0.74642
 O935 O 0.72585 0.23802 0.77715
 O936 O 0.73486 0.26965 0.75283
 Zr937 Zr 0.73046 0.21509 0.71573
 Zr938 Zr 0.73494 0.20459 0.77075
 Zr939 Zr 0.75303 0.26651 0.72222
 Zr940 Zr 0.78371 0.22074 0.74120
 O941 O 0.73149 0.29313 0.71071
 O942 O 0.79742 0.19147 0.75705
 O943 O 0.76226 0.23302 0.71538
 O944 O 0.75308 0.20169 0.74015
 O945 O 0.71179 0.21624 0.74618
 O946 O 0.72170 0.24892 0.72066
 C947 C 0.81022 0.24479 0.77959
 C948 C 0.77209 0.30219 0.75547
 C949 C 0.75055 0.22242 0.81759
 O950 O 0.75517 0.17623 0.78008
 O951 O 0.71923 0.17553 0.75789
 O952 O 0.71643 0.18219 0.72012
 C953 C 0.71342 0.16969 0.73792
 O954 O 0.69549 0.27407 0.77640
 Zr955 Zr 0.70428 0.25010 0.75150
 O956 O 0.69603 0.21650 0.70454
 O957 O 0.70433 0.19728 0.78969
 O958 O 0.67791 0.23556 0.77236
 O959 O 0.68903 0.27891 0.73611
 O960 O 0.67768 0.23868 0.73028
 C961 C 0.67793 0.22644 0.71260
 O962 O 0.74569 0.19200 0.69307
 O963 O 0.78436 0.27600 0.70542
 O964 O 0.73309 0.22841 0.68248
 O965 O 0.75052 0.26251 0.68739
 O966 O 0.81091 0.23447 0.72080
 O967 O 0.79292 0.19844 0.71490
 C968 C 0.74230 0.24691 0.67502
 H969 H 0.79022 0.26353 0.74592
 H970 H 0.75702 0.18581 0.73702
 H971 H 0.71196 0.25528 0.70846
 H972 H 0.71759 0.23945 0.79178
 H973 H 0.81460 0.19191 0.75508
 H974 H 0.74560 0.16727 0.79092
 H975 H 0.70707 0.18279 0.79771
 H976 H 0.66289 0.24267 0.76820
 H977 H 0.82560 0.22679 0.72507
 H978 H 0.78119 0.29028 0.69717
 H979 H 0.74104 0.30219 0.69994
 H980 H 0.67193 0.27794 0.73862
 H981 H 0.80895 0.19273 0.71733
 H982 H 0.73329 0.18736 0.68257
 H983 H 0.75431 0.28268 0.81073
 H984 H 0.67840 0.27654 0.77657
 C985 C 0.40586 0.98297 0.31158
 C986 C 0.42454 0.99814 0.31293
 C987 C 0.42643 1.01516 0.29609
 C988 C 0.41175 1.01485 0.27700
 C989 C 0.39463 0.99793 0.27455
 C990 C 0.39095 0.98338 0.29332
 C991 C 0.44276 1.03239 0.29872
 C992 C 0.45668 1.03324 0.31792
 C993 C 0.45576 1.01610 0.33470
 C994 C 0.44048 0.99757 0.33125
 C995 C 0.44186 0.97874 0.34593
 C996 C 0.45635 0.97868 0.36446
 C997 C 0.46953 0.99758 0.36953
 C998 C 0.46949 1.01666 0.35482
 C999 C 0.48221 1.03581 0.36156
 C1000 C 0.49352 1.03616 0.38243
 C1001 C 0.49339 1.01718 0.39669
 C1002 C 0.48191 0.99778 0.38982
 H1003 H 0.40161 0.97124 0.32505
 H1004 H 0.41363 1.02775 0.26402
 H1005 H 0.37624 0.97206 0.29441
 H1006 H 0.44441 1.04563 0.28607
 H1007 H 0.46862 1.04719 0.31889
 H1008 H 0.43228 0.96345 0.34307
 H1009 H 0.45664 0.96389 0.37538
 H1010 H 0.48251 1.05119 0.35170
 H1011 H 0.50173 1.05155 0.38779
 H1012 H 0.48115 0.98332 0.40118
 C1013 C -0.11622 0.48502 0.81307
 C1014 C -0.09202 0.48812 0.81593
 C1015 C -0.07803 0.49073 0.79625
 C1016 C -0.08824 0.49068 0.77463
 C1017 C -0.11234 0.48657 0.77200
 C1018 C -0.12597 0.48455 0.79179
 C1019 C -0.05393 0.49351 0.79831
 C1020 C -0.04336 0.49338 0.81938
 C1021 C -0.05660 0.49106 0.83947
 C1022 C -0.08143 0.48894 0.83766
 C1023 C -0.09496 0.48811 0.85765
 C1024 C -0.08481 0.48920 0.87861
 C1025 C -0.06073 0.49077 0.88073
 C1026 C -0.04607 0.49131 0.86138
 C1027 C -0.02159 0.49201 0.86499
 C1028 C -0.01240 0.49281 0.88687
 C1029 C -0.02729 0.49327 0.90572
 C1030 C -0.05139 0.49194 0.90235
 H1031 H -0.12831 0.48266 0.82687
 H1032 H -0.07729 0.49463 0.76025
 H1033 H -0.14469 0.48239 0.79071
 H1034 H -0.04302 0.49558 0.78341
 H1035 H -0.02471 0.49562 0.81943
 H1036 H -0.11369 0.48712 0.85784
 H1037 H -0.09605 0.48879 0.89342
 H1038 H -0.00912 0.49181 0.85129
 H1039 H 0.00632 0.49356 0.88900
 H1040 H -0.06312 0.49169 0.91681
 C1041 C 0.07703 0.02873 0.79792
 C1042 C 0.07582 0.01099 0.81407
 C1043 C 0.09037 -0.00791 0.81042
 C1044 C 0.10542 -0.00880 0.79167
 C1045 C 0.10529 0.00804 0.77469
 C1046 C 0.09142 0.02722 0.77873
 C1047 C 0.08978 -0.02618 0.82538
 C1048 C 0.07446 -0.02658 0.84355
 C1049 C 0.05938 -0.00835 0.84794
 C1050 C 0.06077 0.01118 0.83361
 C1051 C 0.04752 0.03028 0.83968
 C1052 C 0.03384 0.03042 0.85928
 C1053 C 0.03194 0.01127 0.87311
 C1054 C 0.04384 -0.00869 0.86695
 C1055 C 0.03996 -0.02823 0.88030
 C1056 C 0.02728 -0.02727 0.90035
 C1057 C 0.01757 -0.00703 0.90770
 C1058 C 0.01897 0.01205 0.89351
 H1059 H 0.06650 0.04370 0.79924
 H1060 H 0.11692 -0.02312 0.79054
 H1061 H 0.09117 0.04090 0.76649
 H1062 H 0.10109 -0.04058 0.82283
 H1063 H 0.07549 -0.04123 0.85439
 H1064 H 0.04808 0.04576 0.83002
 H1065 H 0.02469 0.04574 0.86368
 H1066 H 0.04670 -0.04452 0.87585
 H1067 H 0.02591 -0.04236 0.91075
 H1068 H 0.01133 0.02777 0.89898
 C1069 C 0.56573 0.51637 0.29195
 C1070 C 0.57740 0.52115 0.31224
 C1071 C 0.60204 0.52208 0.31136
 C1072 C 0.61424 0.51718 0.29156
 C1073 C 0.60275 0.51242 0.27131
 C1074 C 0.57815 0.51245 0.27184
 C1075 C 0.61467 0.52797 0.33025
 C1076 C 0.60340 0.53326 0.35016
 C1077 C 0.57888 0.53219 0.35224
 C1078 C 0.56567 0.52518 0.33329
 C1079 C 0.54146 0.52159 0.33638
 C1080 C 0.53073 0.52408 0.35742
 C1081 C 0.54342 0.53126 0.37594
 C1082 C 0.56741 0.53658 0.37317
 C1083 C 0.57918 0.54565 0.39172
 C1084 C 0.56855 0.54646 0.41280
 C1085 C 0.54570 0.53883 0.41614
 C1086 C 0.53269 0.53230 0.39746
 H1087 H 0.54696 0.51626 0.29094
 H1088 H 0.63316 0.51738 0.29172
 H1089 H 0.56817 0.50972 0.25684
 H1090 H 0.63357 0.52863 0.32961
 H1091 H 0.61459 0.53712 0.36402
 H1092 H 0.53055 0.51572 0.32304
 H1093 H 0.51234 0.52017 0.35925
 H1094 H 0.59675 0.55202 0.39057
 H1095 H 0.57865 0.55226 0.42690
 H1096 H 0.51484 0.52668 0.39990
 C1097 C 0.59370 0.52476 0.19071
 C1098 C 0.57931 0.50631 0.18574
 C1099 C 0.57734 0.48885 0.20209
 C1100 C 0.58888 0.49046 0.22291
 C1101 C 0.60328 0.50905 0.22778
 C1102 C 0.60546 0.52596 0.21097
 C1103 C 0.56441 0.46961 0.19728
 C1104 C 0.55407 0.46703 0.17631
 C1105 C 0.55570 0.48396 0.15942
 C1106 C 0.56773 0.50431 0.16466
 C1107 C 0.56790 0.52206 0.14863
 C1108 C 0.55851 0.51949 0.12752
 C1109 C 0.54824 0.49930 0.12152
 C1110 C 0.54603 0.48133 0.13736
 C1111 C 0.53469 0.46149 0.13009
 C1112 C 0.52675 0.45956 0.10785
 C1113 C 0.53013 0.47718 0.09227
 C1114 C 0.54040 0.49709 0.09948
 H1115 H 0.59724 0.53825 0.17889
 H1116 H 0.58726 0.47686 0.23518
 H1117 H 0.61683 0.54024 0.21265
 H1118 H 0.56275 0.45612 0.20967
 H1119 H 0.54482 0.45152 0.17381
 H1120 H 0.57506 0.53841 0.15187
 H1121 H 0.55958 0.53347 0.11561
 H1122 H 0.53209 0.44707 0.14103
 H1123 H 0.51867 0.44404 0.10267
 H1124 H 0.54256 0.51106 0.08767
 C1125 C 0.06530 1.00095 0.71335
 C1126 C 0.07577 0.99592 0.69234
 C1127 C 0.10035 0.99379 0.69163
 C1128 C 0.11369 0.99793 0.71068
 C1129 C 0.10340 1.00347 0.73156
 C1130 C 0.07879 1.00427 0.73257
 C1131 C 0.11171 0.98750 0.67188
 C1132 C 0.09921 0.98307 0.65266
 C1133 C 0.07470 0.98540 0.65221
 C1134 C 0.06282 0.99271 0.67210
 C1135 C 0.03869 0.99739 0.67076
 C1136 C 0.02672 0.99554 0.65055
 C1137 C 0.03806 0.98810 0.63111
 C1138 C 0.06195 0.98187 0.63205
 C1139 C 0.07231 0.97275 0.61254
 C1140 C 0.06042 0.97256 0.59231
 C1141 C 0.03766 0.98090 0.59082
 C1142 C 0.02604 0.98766 0.61047
 H1143 H 0.04664 1.00172 0.71564
 H1144 H 0.13254 0.99670 0.70938
 H1145 H 0.06946 1.00705 0.74812
 H1146 H 0.13055 0.98589 0.67127
 H1147 H 0.10949 0.97881 0.63806
 H1148 H 0.02875 1.00358 0.68488
 H1149 H 0.00844 1.00018 0.65011
 H1150 H 0.08970 0.96584 0.61224
 H1151 H 0.06944 0.96657 0.57742
 H1152 H 0.00827 0.99383 0.60945
 C1153 C -0.10880 0.50177 0.68818
 C1154 C -0.08537 0.49511 0.68619
 C1155 C -0.07607 0.48133 0.70358
 C1156 C -0.08926 0.47695 0.72355
 C1157 C -0.11125 0.48725 0.72687
 C1158 C -0.12131 0.49782 0.70784
 C1159 C -0.05368 0.47231 0.70082
 C1160 C -0.04047 0.47683 0.68130
 C1161 C -0.04887 0.49123 0.66400
 C1162 C -0.07139 0.50113 0.66704
 C1163 C -0.07916 0.51726 0.65112
 C1164 C -0.06653 0.52198 0.63169
 C1165 C -0.04552 0.51109 0.62742
 C1166 C -0.03589 0.49601 0.64363
 C1167 C -0.01415 0.48586 0.63820
 C1168 C -0.00350 0.48946 0.61702
 C1169 C -0.01406 0.50340 0.60089
 C1170 C -0.03459 0.51467 0.60648
 H1171 H -0.11815 0.50995 0.67470
 H1172 H -0.08218 0.46601 0.73651
 H1173 H -0.13904 0.50405 0.70819
 H1174 H -0.04631 0.46158 0.71383
 H1175 H -0.02348 0.46908 0.68040
 H1176 H -0.09494 0.52688 0.65336
 H1177 H -0.07356 0.53403 0.61966
 H1178 H -0.00552 0.47431 0.64952
 H1179 H 0.01223 0.48027 0.61277
 H1180 H -0.04287 0.52529 0.59386
 C1181 C 0.38605 -0.00388 0.18945
 C1182 C 0.41020 -0.00119 0.18554
 C1183 C 0.42499 -0.00163 0.20452
 C1184 C 0.41549 -0.00319 0.22664
 C1185 C 0.39109 -0.00385 0.23027
 C1186 C 0.37688 -0.00510 0.21113
 C1187 C 0.44915 -0.00039 0.20124
 C1188 C 0.45891 0.00138 0.17963
 C1189 C 0.44482 0.00242 0.16025
 C1190 C 0.42002 0.00157 0.16339
 C1191 C 0.40571 0.00388 0.14430
 C1192 C 0.41510 0.00562 0.12281
 C1193 C 0.43912 0.00537 0.11929
 C1194 C 0.45450 0.00419 0.13781
 C1195 C 0.47881 0.00448 0.13284
 C1196 C 0.48719 0.00494 0.11048
 C1197 C 0.47167 0.00509 0.09240
 C1198 C 0.44769 0.00592 0.09711
 H1199 H 0.37355 -0.00516 0.17615
 H1200 H 0.42723 -0.00376 0.24072
 H1201 H 0.35810 -0.00631 0.21303
 H1202 H 0.46070 -0.00083 0.21556
 H1203 H 0.47767 0.00212 0.17864
 H1204 H 0.38698 0.00468 0.14529
 H1205 H 0.40331 0.00698 0.10869
 H1206 H 0.49178 0.00384 0.14582
 H1207 H 0.50582 0.00427 0.10736
 H1208 H 0.43545 0.00639 0.08331
 C1209 C 0.31480 0.36220 0.01034
 C1210 C 0.31899 0.38487 0.01552
 C1211 C 0.29950 0.39960 0.01645
 C1212 C 0.27668 0.39155 0.01281
 C1213 C 0.27287 0.36905 0.00673
 C1214 C 0.29239 0.35459 0.00613
 C1215 C 0.30296 0.42237 0.02071
 C1216 C 0.32537 0.43107 0.02277
 C1217 C 0.34533 0.41714 0.02131
 C1218 C 0.34196 0.39348 0.01906
 C1219 C 0.36167 0.37921 0.02036
 C1220 C 0.38408 0.38783 0.02197
 C1221 C 0.38786 0.41096 0.02196
 C1222 C 0.36856 0.42601 0.02181
 C1223 C 0.37341 0.44935 0.02097
 C1224 C 0.39632 0.45721 0.01956
 C1225 C 0.41513 0.44223 0.01947
 C1226 C 0.41091 0.41914 0.02123
 H1227 H 0.32852 0.34994 0.00862
 H1228 H 0.26211 0.40295 0.01474
 H1229 H 0.29026 0.33705 0.00194
 H1230 H 0.28822 0.43375 0.02182
 H1231 H 0.32648 0.44885 0.02581
 H1232 H 0.36037 0.36114 0.02040
 H1233 H 0.39868 0.37622 0.02254
 H1234 H 0.35991 0.46196 0.02024
 H1235 H 0.39938 0.47514 0.01784
 H1236 H 0.42552 0.40754 0.02068
 C1237 C -0.17928 0.87346 0.49338
 C1238 C -0.17583 0.89500 0.50233
 C1239 C -0.19572 0.90676 0.51035
 C1240 C -0.21835 0.89771 0.50786
 C1241 C -0.22157 0.87656 0.49789
 C1242 C -0.20148 0.86445 0.49156
 C1243 C -0.19278 0.92723 0.52122
 C1244 C -0.17059 0.93618 0.52440
 C1245 C -0.15035 0.92537 0.51607
 C1246 C -0.15320 0.90485 0.50413
 C1247 C -0.13343 0.89510 0.49375
 C1248 C -0.11155 0.90474 0.49524
 C1249 C -0.10829 0.92428 0.50739
 C1250 C -0.12742 0.93470 0.51849
 C1251 C -0.12266 0.95414 0.53125
 C1252 C -0.10017 0.96345 0.53165
 C1253 C -0.08192 0.95365 0.51945
 C1254 C -0.08599 0.93388 0.50776
 H1255 H -0.16512 0.86261 0.48845
 H1256 H -0.23326 0.90679 0.51442
 H1257 H -0.20295 0.84750 0.48531
 H1258 H -0.20781 0.93633 0.52758
 H1259 H -0.16988 0.95203 0.53292
 H1260 H -0.13439 0.88038 0.48345
 H1261 H -0.09701 0.89685 0.48659
 H1262 H -0.13595 0.96263 0.54089
 H1263 H -0.09728 0.97888 0.54068
 H1264 H -0.07179 0.92636 0.49825
 C1265 C -0.19047 0.12349 1.01388
 C1266 C -0.18632 0.10446 1.00063
 C1267 C -0.20489 0.09665 0.98730
 C1268 C -0.22746 0.10642 0.98922
 C1269 C -0.23202 0.12392 1.00456
 C1270 C -0.21248 0.13306 1.01547
 C1271 C -0.20061 0.07933 0.97209
 C1272 C -0.17843 0.06961 0.97001
 C1273 C -0.15972 0.07626 0.98375
 C1274 C -0.16409 0.09352 0.99979
 C1275 C -0.14639 0.09882 1.01516
 C1276 C -0.12495 0.08814 1.01464
 C1277 C -0.12003 0.07186 0.99870
 C1278 C -0.13701 0.06586 0.98266
 C1279 C -0.13040 0.04960 0.96648
 C1280 C -0.10834 0.03912 0.96710
 C1281 C -0.09238 0.04438 0.98392
 C1282 C -0.09827 0.06110 0.99929
 H1283 H -0.17680 0.13203 1.02264
 H1284 H -0.24141 0.10048 0.97870
 H1285 H -0.21375 0.14822 1.02524
 H1286 H -0.21453 0.07329 0.96157
 H1287 H -0.17660 0.05635 0.95794
 H1288 H -0.14889 0.11059 1.02859
 H1289 H -0.11210 0.09258 1.02707
 H1290 H -0.14194 0.04458 0.95327
 H1291 H -0.10415 0.02625 0.95500
 H1292 H -0.08588 0.06546 1.01220
 C1293 C 0.31926 0.62671 0.52574
 C1294 C 0.32806 0.61254 0.50887
 C1295 C 0.31386 0.60881 0.48996
 C1296 C 0.29085 0.61746 0.48923
 C1297 C 0.28161 0.63062 0.50688
 C1298 C 0.29691 0.63570 0.52460
 C1299 C 0.32286 0.59669 0.47184
 C1300 C 0.34571 0.58848 0.47203
 C1301 C 0.36022 0.59123 0.49089
 C1302 C 0.35077 0.60261 0.50997
 C1303 C 0.36399 0.60314 0.52986
 C1304 C 0.38602 0.59361 0.53092
 C1305 C 0.39605 0.58352 0.51216
 C1306 C 0.38361 0.58250 0.49168
 C1307 C 0.39528 0.57290 0.47295
 C1308 C 0.41793 0.56407 0.47487
 C1309 C 0.42953 0.56423 0.49552
 C1310 C 0.41847 0.57421 0.51398
 H1311 H 0.32963 0.63201 0.53972
 H1312 H 0.28010 0.61411 0.47477
 H1313 H 0.29227 0.64709 0.53786
 H1314 H 0.31224 0.59378 0.45718
 H1315 H 0.35133 0.57936 0.45739
 H1316 H 0.35740 0.61009 0.54532
 H1317 H 0.39536 0.59421 0.54668
 H1318 H 0.38745 0.57220 0.45656
 H1319 H 0.42615 0.55660 0.46028
 H1320 H 0.42743 0.57481 0.52995
 C1321 C 0.22140 0.58436 0.50829
 C1322 C 0.19820 0.59215 0.51133
 C1323 C 0.19487 0.61556 0.51362
 C1324 C 0.21362 0.63042 0.51097
 C1325 C 0.23676 0.62280 0.50762
 C1326 C 0.24032 0.59936 0.50689
 C1327 C 0.17281 0.62422 0.51849
 C1328 C 0.15379 0.61008 0.52143
 C1329 C 0.15588 0.58666 0.51853
 C1330 C 0.17820 0.57766 0.51234
 C1331 C 0.17951 0.55480 0.50637
 C1332 C 0.15964 0.54132 0.50612
 C1333 C 0.13796 0.54970 0.51300
 C1334 C 0.13606 0.57217 0.52043
 C1335 C 0.11429 0.57925 0.52940
 C1336 C 0.09485 0.56512 0.52931
 C1337 C 0.09636 0.54370 0.52003
 C1338 C 0.11804 0.53590 0.51221
 H1339 H 0.22552 0.56667 0.50765
 H1340 H 0.21022 0.64835 0.51163
 H1341 H 0.25757 0.59229 0.50520
 H1342 H 0.17023 0.64219 0.52027
 H1343 H 0.13731 0.61816 0.52484
 H1344 H 0.19555 0.54717 0.50066
 H1345 H 0.16130 0.52409 0.50059
 H1346 H 0.11183 0.59551 0.53685
 H1347 H 0.07832 0.57131 0.53575
 H1348 H 0.11937 0.51908 0.50548
 C1349 C 0.67967 0.11981 0.01756
 C1350 C 0.67937 0.09617 0.01865
 C1351 C 0.70075 0.08462 0.01511
 C1352 C 0.72194 0.09665 0.01223
 C1353 C 0.72192 0.12037 0.01081
 C1354 C 0.70026 0.13144 0.01349
 C1355 C 0.70064 0.06115 0.01400
 C1356 C 0.67971 0.04914 0.01507
 C1357 C 0.65809 0.06011 0.01856
 C1358 C 0.65826 0.08377 0.02212
 C1359 C 0.63737 0.09430 0.02918
 C1360 C 0.61655 0.08246 0.03091
 C1361 C 0.61552 0.05989 0.02503
 C1362 C 0.63625 0.04835 0.01866
 C1363 C 0.63402 0.02585 0.01156
 C1364 C 0.61213 0.01561 0.01034
 C1365 C 0.59183 0.02709 0.01682
 C1366 C 0.59371 0.04904 0.02474
 H1367 H 0.66403 0.12985 0.01867
 H1368 H 0.73808 0.08737 0.01087
 H1369 H 0.69927 0.14962 0.01219
 H1370 H 0.71680 0.05200 0.01146
 H1371 H 0.68103 0.03112 0.01368
 H1372 H 0.63670 0.11169 0.03403
 H1373 H 0.60092 0.09131 0.03622
 H1374 H 0.64874 0.01614 0.00575
 H1375 H 0.61101 -0.00135 0.00401
 H1376 H 0.57800 0.05814 0.02938
 C1377 C 0.69059 0.88112 0.50605
 C1378 C 0.68869 0.90215 0.49494
 C1379 C 0.70884 0.91083 0.48388
 C1380 C 0.73048 0.89949 0.48561
 C1381 C 0.73240 0.87895 0.49773
 C1382 C 0.71172 0.86970 0.50694
 C1383 C 0.70706 0.93044 0.47073
 C1384 C 0.68568 0.94141 0.46809
 C1385 C 0.66530 0.93370 0.47937
 C1386 C 0.66719 0.91431 0.49380
 C1387 C 0.64773 0.90799 0.50719
 C1388 C 0.62691 0.91976 0.50614
 C1389 C 0.62438 0.93803 0.49143
 C1390 C 0.64325 0.94505 0.47738
 C1391 C 0.63908 0.96316 0.46205
 C1392 C 0.61749 0.97440 0.46172
 C1393 C 0.59963 0.96808 0.47675
 C1394 C 0.60311 0.94964 0.49121
 H1395 H 0.67576 0.87239 0.51324
 H1396 H 0.74562 0.90631 0.47689
 H1397 H 0.71161 0.85306 0.51459
 H1398 H 0.72229 0.93720 0.46205
 H1399 H 0.68577 0.95638 0.45763
 H1400 H 0.64832 0.89449 0.51947
 H1401 H 0.61258 0.91449 0.51706
 H1402 H 0.65214 0.96897 0.45015
 H1403 H 0.61508 0.98860 0.45034
 H1404 H 0.58918 0.94453 0.50270
 C1405 C 0.20909 0.40756 0.98197
 C1406 C 0.18693 0.40184 0.99114
 C1407 C 0.18561 0.38223 1.00494
 C1408 C 0.20569 0.36951 1.00980
 C1409 C 0.22778 0.37529 1.00074
 C1410 C 0.22883 0.39429 0.98629
 C1411 C 0.16409 0.37491 1.01337
 C1412 C 0.14368 0.38633 1.00815
 C1413 C 0.14392 0.40604 0.99458
 C1414 C 0.16598 0.41441 0.98661
 C1415 C 0.16634 0.43524 0.97482
 C1416 C 0.14596 0.44754 0.97111
 C1417 C 0.12427 0.43936 0.97834
 C1418 C 0.12288 0.41811 0.98949
 C1419 C 0.10039 0.40996 0.99542
 C1420 C 0.08055 0.42323 0.99234
 C1421 C 0.08220 0.44482 0.98284
 C1422 C 0.10402 0.45264 0.97526
 H1423 H 0.21155 0.42159 0.97050
 H1424 H 0.20360 0.35422 1.01975
 H1425 H 0.24499 0.39855 0.97767
 H1426 H 0.16294 0.35994 1.02398
 H1427 H 0.12796 0.37956 1.01563
 H1428 H 0.18232 0.44293 0.96892
 H1429 H 0.14724 0.46374 0.96256
 H1430 H 0.09751 0.39351 1.00276
 H1431 H 0.06383 0.41695 0.99834
 H1432 H 0.10541 0.46947 0.96810
 C1433 C 0.02311 0.29038 0.42656
 C1434 C 0.00458 0.30531 0.43137
 C1435 C -0.01758 0.30051 0.42225
 C1436 C -0.02053 0.28230 0.40800
 C1437 C -0.00137 0.26928 0.40110
 C1438 C 0.02004 0.27259 0.41192
 C1439 C -0.03664 0.31431 0.42679
 C1440 C -0.03371 0.33417 0.43822
 C1441 C -0.01153 0.34078 0.44572
 C1442 C 0.00744 0.32531 0.44402
 C1443 C 0.02870 0.33070 0.45445
 C1444 C 0.03182 0.35131 0.46469
 C1445 C 0.01425 0.36754 0.46417
 C1446 C -0.00765 0.36253 0.45456
 C1447 C -0.02439 0.37991 0.45297
 C1448 C -0.01959 0.40127 0.46075
 C1449 C 0.00188 0.40600 0.47059
 C1450 C 0.01864 0.38901 0.47263
 H1451 H 0.04042 0.29244 0.43308
 H1452 H -0.03786 0.27876 0.40195
 H1453 H 0.03481 0.26184 0.40817
 H1454 H -0.05382 0.31022 0.42060
 H1455 H -0.04924 0.34403 0.44099
 H1456 H 0.04330 0.31929 0.45506
 H1457 H 0.04849 0.35490 0.47230
 H1458 H -0.04102 0.37786 0.44497
 H1459 H -0.03289 0.41415 0.45914
 H1460 H 0.03536 0.39272 0.48009
 C1461 C 0.52240 -0.22141 -0.06262
 C1462 C 0.50240 -0.20774 -0.06021
 C1463 C 0.48235 -0.21334 -0.07266
 C1464 C 0.48291 -0.23114 -0.08773
 C1465 C 0.50387 -0.24258 -0.09231
 C1466 C 0.52301 -0.23852 -0.07832
 C1467 C 0.46212 -0.20043 -0.07092
 C1468 C 0.46232 -0.18038 -0.05936
 C1469 C 0.48272 -0.17292 -0.04876
 C1470 C 0.50215 -0.18785 -0.04716
 C1471 C 0.52101 -0.18185 -0.03342
 C1472 C 0.52201 -0.16082 -0.02369
 C1473 C 0.50469 -0.14488 -0.02793
 C1474 C 0.48466 -0.15075 -0.04036
 C1475 C 0.46822 -0.13370 -0.04538
 C1476 C 0.47185 -0.11170 -0.03868
 C1477 C 0.49168 -0.10609 -0.02647
 C1478 C 0.50773 -0.12284 -0.02060
 H1479 H 0.53833 -0.21853 -0.05366
 H1480 H 0.46704 -0.23526 -0.09641
 H1481 H 0.53906 -0.24793 -0.08047
 H1482 H 0.44641 -0.20514 -0.07968
 H1483 H 0.44624 -0.17094 -0.05913
 H1484 H 0.53536 -0.19307 -0.02994
 H1485 H 0.53707 -0.15662 -0.01371
 H1486 H 0.45299 -0.13656 -0.05541
 H1487 H 0.45908 -0.09899 -0.04317
 H1488 H 0.52317 -0.11849 -0.01121
 C1489 C -0.01939 -0.21201 1.07994
 C1490 C -0.00735 -0.19273 1.08711
 C1491 C 0.00666 -0.19479 1.10651
 C1492 C 0.00884 -0.21541 1.11780
 C1493 C -0.00280 -0.23464 1.11029
 C1494 C -0.01735 -0.23237 1.09150
 C1495 C 0.01799 -0.17612 1.11503
 C1496 C 0.01518 -0.15512 1.10511
 C1497 C 0.00109 -0.15208 1.08598
 C1498 C -0.00948 -0.17135 1.07622
 C1499 C -0.02162 -0.16865 1.05582
 C1500 C -0.02400 -0.14773 1.04562
 C1501 C -0.01470 -0.12869 1.05547
 C1502 C -0.00236 -0.13046 1.07597
 C1503 C 0.00591 -0.11043 1.08564
 C1504 C 0.00330 -0.08982 1.07461
 C1505 C -0.00788 -0.08846 1.05382
 C1506 C -0.01734 -0.10788 1.04462
 H1507 H -0.03131 -0.21179 1.06607
 H1508 H 0.01879 -0.21600 1.13317
 H1509 H -0.02767 -0.24645 1.08598
 H1510 H 0.02892 -0.17768 1.12976
 H1511 H 0.02473 -0.14166 1.11266
 H1512 H -0.02901 -0.18251 1.04688
 H1513 H -0.03326 -0.14644 1.02983
 H1514 H 0.01435 -0.11000 1.10173
 H1515 H 0.01031 -0.07492 1.08233
 H1516 H -0.02624 -0.10697 1.02862
 C1517 C 0.49049 0.31126 0.57063
 C1518 C 0.50475 0.32838 0.57932
 C1519 C 0.51513 0.32450 0.60053
 C1520 C 0.51209 0.30401 0.61192
 C1521 C 0.49941 0.28645 0.60233
 C1522 C 0.48773 0.29086 0.58207
 C1523 C 0.52840 0.34113 0.61049
 C1524 C 0.53133 0.36187 0.60003
 C1525 C 0.52118 0.36672 0.57897
 C1526 C 0.50839 0.34943 0.56807
 C1527 C 0.49975 0.35368 0.54627
 C1528 C 0.50216 0.37459 0.53601
 C1529 C 0.51324 0.39201 0.54701
 C1530 C 0.52321 0.38836 0.56850
 C1531 C 0.53426 0.40674 0.57883
 C1532 C 0.53481 0.42784 0.56844
 C1533 C 0.52442 0.43135 0.54748
 C1534 C 0.51405 0.41326 0.53668
 H1535 H 0.48077 0.31320 0.55532
 H1536 H 0.51953 0.30193 0.62850
 H1537 H 0.47645 0.27834 0.57490
 H1538 H 0.53650 0.33814 0.62668
 H1539 H 0.54188 0.37367 0.60894
 H1540 H 0.49116 0.34111 0.53649
 H1541 H 0.49494 0.37723 0.51938
 H1542 H 0.54216 0.40567 0.59515
 H1543 H 0.54300 0.44156 0.57717
 H1544 H 0.50612 0.41574 0.52034
 C1545 C 0.51234 1.22337 0.56790
 C1546 C 0.50398 1.20262 0.57669
 C1547 C 0.49207 1.20277 0.59768
 C1548 C 0.48860 1.22282 0.60906
 C1549 C 0.49663 1.24340 0.60010
 C1550 C 0.50895 1.24326 0.57952
 C1551 C 0.48407 1.18286 0.60759
 C1552 C 0.48806 1.16249 0.59737
 C1553 C 0.50017 1.16128 0.57661
 C1554 C 0.50764 1.18173 0.56575
 C1555 C 0.51833 1.18061 0.54428
 C1556 C 0.52196 1.16023 0.53388
 C1557 C 0.51529 1.14019 0.54448
 C1558 C 0.50463 1.14031 0.56613
 C1559 C 0.49884 1.11937 0.57634
 C1560 C 0.50215 1.09940 0.56488
 C1561 C 0.51169 1.09962 0.54313
 C1562 C 0.51880 1.11998 0.53325
 H1563 H 0.52238 1.22480 0.55253
 H1564 H 0.48013 1.22241 0.62547
 H1565 H 0.51701 1.25833 0.57266
 H1566 H 0.47477 1.18300 0.62359
 H1567 H 0.48105 1.14800 0.60613
 H1568 H 0.52372 1.19526 0.53473
 H1569 H 0.53001 1.16017 0.51728
 H1570 H 0.49171 1.11769 0.59311
 H1571 H 0.49701 1.08373 0.57305
 H1572 H 0.52634 1.12022 0.51642
 C1573 C 0.01363 0.70277 1.07740
 C1574 C 0.00890 0.68165 1.08768
 C1575 C 0.00012 0.68138 1.11006
 C1576 C -0.00406 0.70140 1.12128
 C1577 C -0.00033 0.72231 1.11061
 C1578 C 0.00941 0.72264 1.08878
 C1579 C -0.00452 0.66115 1.12125
 C1580 C -0.00201 0.64099 1.11024
 C1581 C 0.00529 0.64038 1.08749
 C1582 C 0.01213 0.66089 1.07644
 C1583 C 0.02164 0.65993 1.05445
 C1584 C 0.02288 0.63984 1.04303
 C1585 C 0.01436 0.62009 1.05289
 C1586 C 0.00562 0.61998 1.07532
 C1587 C -0.00345 0.59960 1.08430
 C1588 C -0.00414 0.58041 1.07137
 C1589 C 0.00420 0.58080 1.04916
 C1590 C 0.01392 0.60053 1.04015
 H1591 H 0.02054 0.70466 1.06057
 H1592 H -0.01045 0.70085 1.13853
 H1593 H 0.01441 0.73820 1.08043
 H1594 H -0.01062 0.66091 1.13860
 H1595 H -0.00587 0.62614 1.12016
 H1596 H 0.02830 0.67445 1.04546
 H1597 H 0.02994 0.63992 1.02602
 H1598 H -0.01091 0.59799 1.10095
 H1599 H -0.01149 0.56521 1.07882
 H1600 H 0.02041 0.60091 1.02293
 C1601 C 0.53611 0.68467 -0.09173
 C1602 C 0.51827 0.67468 -0.07838
 C1603 C 0.49839 0.68792 -0.07331
 C1604 C 0.49575 0.70930 -0.08288
 C1605 C 0.51203 0.71776 -0.09864
 C1606 C 0.53309 0.70589 -0.10150
 C1607 C 0.48073 0.67953 -0.05937
 C1608 C 0.48142 0.65752 -0.05163
 C1609 C 0.49979 0.64296 -0.05786
 C1610 C 0.51912 0.65194 -0.07044
 C1611 C 0.53825 0.63771 -0.07521
 C1612 C 0.53825 0.61531 -0.06840
 C1613 C 0.51905 0.60609 -0.05710
 C1614 C 0.49943 0.61971 -0.05188
 C1615 C 0.47995 0.60934 -0.04129
 C1616 C 0.48062 0.58683 -0.03490
 C1617 C 0.50045 0.57382 -0.03920
 C1618 C 0.51941 0.58330 -0.05080
 H1619 H 0.55244 0.67646 -0.09536
 H1620 H 0.48003 0.71888 -0.07937
 H1621 H 0.54739 0.71262 -0.11146
 H1622 H 0.46587 0.68990 -0.05486
 H1623 H 0.46715 0.65245 -0.04079
 H1624 H 0.55359 0.64331 -0.08426
 H1625 H 0.55333 0.60499 -0.07235
 H1626 H 0.46384 0.61799 -0.03779
 H1627 H 0.46555 0.57959 -0.02636
 H1628 H 0.53474 0.57315 -0.05424
 C1629 C -0.01854 1.20418 0.42721
 C1630 C 0.00002 1.18870 0.42493
 C1631 C 0.01850 1.19438 0.40989
 C1632 C 0.01806 1.21457 0.39753
 C1633 C -0.00156 1.22878 0.39827
 C1634 C -0.01914 1.22384 0.41427
 C1635 C 0.03716 1.17965 0.40682
 C1636 C 0.03704 1.15857 0.41706
 C1637 C 0.01842 1.15166 0.43124
 C1638 C 0.00049 1.16753 0.43650
 C1639 C -0.01644 1.16164 0.45296
 C1640 C -0.01674 1.14043 0.46290
 C1641 C -0.00062 1.12416 0.45644
 C1642 C 0.01713 1.12941 0.44042
 C1643 C 0.03231 1.11191 0.43365
 C1644 C 0.03010 1.09029 0.44278
 C1645 C 0.01286 1.08547 0.45898
 C1646 C -0.00239 1.10251 0.46577
 H1647 H -0.03335 1.20131 0.43817
 H1648 H 0.03305 1.21885 0.38713
 H1649 H -0.03394 1.23502 0.41619
 H1650 H 0.05163 1.18415 0.39576
 H1651 H 0.05201 1.14810 0.41372
 H1652 H -0.02960 1.17316 0.45882
 H1653 H -0.03012 1.13657 0.47541
 H1654 H 0.04564 1.11418 0.42090
 H1655 H 0.04206 1.07735 0.43719
 H1656 H -0.01601 1.09886 0.47810
 C1657 C 0.73511 0.68240 0.95588
 C1658 C 0.73559 0.67096 0.93516
 C1659 C 0.73900 0.64737 0.93603
 C1660 C 0.74329 0.63622 0.95649
 C1661 C 0.74316 0.64759 0.97714
 C1662 C 0.73835 0.67089 0.97644
 C1663 C 0.73802 0.63482 0.91648
 C1664 C 0.73331 0.64506 0.89595
 C1665 C 0.73016 0.66856 0.89399
 C1666 C 0.73245 0.68189 0.91367
 C1667 C 0.73243 0.70556 0.91097
 C1668 C 0.73070 0.71579 0.88971
 C1669 C 0.72770 0.70292 0.87045
 C1670 C 0.72612 0.67917 0.87266
 C1671 C 0.72074 0.66684 0.85330
 C1672 C 0.71992 0.67726 0.83225
 C1673 C 0.72422 0.70036 0.82956
 C1674 C 0.72699 0.71340 0.84889
 H1675 H 0.73137 0.70016 0.95678
 H1676 H 0.74644 0.61822 0.95650
 H1677 H 0.73660 0.68050 0.99161
 H1678 H 0.74073 0.61676 0.91706
 H1679 H 0.73335 0.63414 0.88163
 H1680 H 0.73492 0.71662 0.92496
 H1681 H 0.73174 0.73396 0.88834
 H1682 H 0.71708 0.64906 0.85387
 H1683 H 0.71667 0.66690 0.81777
 H1684 H 0.72978 0.73137 0.84709
 C1685 C 0.24599 0.19059 0.46276
 C1686 C 0.23782 0.18087 0.44278
 C1687 C 0.23391 0.15736 0.44306
 C1688 C 0.23936 0.14421 0.46203
 C1689 C 0.24763 0.15384 0.48198
 C1690 C 0.25057 0.17743 0.48189
 C1691 C 0.22460 0.14693 0.42437
 C1692 C 0.21915 0.15930 0.40520
 C1693 C 0.22350 0.18265 0.40368
 C1694 C 0.23355 0.19355 0.42254
 C1695 C 0.23996 0.21643 0.42016
 C1696 C 0.23754 0.22799 0.39977
 C1697 C 0.22787 0.21752 0.38122
 C1698 C 0.21955 0.19510 0.38333
 C1699 C 0.20835 0.18574 0.36459
 C1700 C 0.20850 0.19689 0.34387
 C1701 C 0.21915 0.21792 0.34125
 C1702 C 0.22762 0.22882 0.36019
 H1703 H 0.24851 0.20844 0.46436
 H1704 H 0.23704 0.12613 0.46137
 H1705 H 0.25639 0.18626 0.49651
 H1706 H 0.22149 0.12894 0.42454
 H1707 H 0.21252 0.14975 0.39142
 H1708 H 0.24806 0.22562 0.43345
 H1709 H 0.24371 0.24519 0.39841
 H1710 H 0.19982 0.16960 0.36521
 H1711 H 0.20127 0.18850 0.32945
 H1712 H 0.23566 0.24524 0.35822
 C1713 C 0.77624 0.32287 0.46076
 C1714 C 0.75691 0.32158 0.44632
 C1715 C 0.73652 0.33368 0.45251
 C1716 C 0.73599 0.34710 0.47190
 C1717 C 0.75581 0.34917 0.48550
 C1718 C 0.77554 0.33613 0.47986
 C1719 C 0.71668 0.33238 0.43926
 C1720 C 0.71673 0.31991 0.41967
 C1721 C 0.73685 0.30820 0.41231
 C1722 C 0.75721 0.30885 0.42598
 C1723 C 0.77734 0.29716 0.41860
 C1724 C 0.77792 0.28599 0.39822
 C1725 C 0.75853 0.28581 0.38432
 C1726 C 0.73751 0.29646 0.39138
 C1727 C 0.71826 0.29555 0.37674
 C1728 C 0.72040 0.28612 0.35551
 C1729 C 0.74152 0.27678 0.34816
 C1730 C 0.76033 0.27586 0.36294
 H1731 H 0.79226 0.31385 0.45792
 H1732 H 0.71996 0.35563 0.47634
 H1733 H 0.79090 0.33653 0.49031
 H1734 H 0.70091 0.34135 0.44395
 H1735 H 0.70067 0.32014 0.41049
 H1736 H 0.79330 0.29668 0.42795
 H1737 H 0.79397 0.27776 0.39308
 H1738 H 0.70143 0.30255 0.38079
 H1739 H 0.70556 0.28680 0.34437
 H1740 H 0.77676 0.26875 0.35726
 C1741 C 0.22604 0.83743 0.93764
 C1742 C 0.24572 0.82473 0.93104
 C1743 C 0.26495 0.82407 0.94574
 C1744 C 0.26387 0.83509 0.96657
 C1745 C 0.24393 0.84746 0.97329
 C1746 C 0.22526 0.84855 0.95807
 C1747 C 0.28531 0.81276 0.93940
 C1748 C 0.28728 0.80269 0.91843
 C1749 C 0.26863 0.80305 0.90309
 C1750 C 0.24719 0.81345 0.90997
 C1751 C 0.22785 0.81230 0.89555
 C1752 C 0.22983 0.80319 0.87435
 C1753 C 0.25102 0.79464 0.86667
 C1754 C 0.27066 0.79378 0.88095
 C1755 C 0.29157 0.78436 0.87203
 C1756 C 0.29302 0.77739 0.84955
 C1757 C 0.27375 0.77964 0.83547
 C1758 C 0.25270 0.78758 0.84438
 H1759 H 0.21110 0.83986 0.92705
 H1760 H 0.27878 0.83424 0.97763
 H1761 H 0.20976 0.85830 0.96130
 H1762 H 0.30012 0.81210 0.95059
 H1763 H 0.30371 0.79466 0.91472
 H1764 H 0.21074 0.81827 0.90015
 H1765 H 0.21463 0.80327 0.86363
 H1766 H 0.30729 0.78286 0.88172
 H1767 H 0.30949 0.77132 0.84288
 H1768 H 0.23767 0.78910 0.83350
 C1769 C 0.24236 0.80665 0.03479
 C1770 C 0.23580 0.81563 0.05584
 C1771 C 0.23069 0.83889 0.05652
 C1772 C 0.23394 0.85263 0.03748
 C1773 C 0.24095 0.84390 0.01650
 C1774 C 0.24453 0.82043 0.01551
 C1775 C 0.22254 0.84857 0.07627
 C1776 C 0.21931 0.83566 0.09560
 C1777 C 0.22499 0.81255 0.09617
 C1778 C 0.23418 0.80249 0.07624
 C1779 C 0.24251 0.78013 0.07774
 C1780 C 0.24267 0.76834 0.09822
 C1781 C 0.23351 0.77793 0.11774
 C1782 C 0.22327 0.79966 0.11655
 C1783 C 0.21225 0.80796 0.13610
 C1784 C 0.21431 0.79671 0.15660
 C1785 C 0.22689 0.77660 0.15831
 C1786 C 0.23539 0.76652 0.13867
 H1787 H 0.24536 0.78891 0.03257
 H1788 H 0.23112 0.87059 0.03903
 H1789 H 0.24906 0.81224 0.00002
 H1790 H 0.21857 0.86640 0.07683
 H1791 H 0.21351 0.84466 0.11024
 H1792 H 0.25028 0.77173 0.06355
 H1793 H 0.25029 0.75165 0.09884
 H1794 H 0.20217 0.82328 0.13617
 H1795 H 0.20680 0.80429 0.17150
 H1796 H 0.24472 0.75068 0.13988
 C1797 C 0.78340 0.32656 0.55517
 C1798 C 0.76483 0.31189 0.56109
 C1799 C 0.74443 0.31305 0.54792
 C1800 C 0.74262 0.32889 0.53025
 C1801 C 0.76020 0.34506 0.52604
 C1802 C 0.78116 0.34261 0.53797
 C1803 C 0.72563 0.29887 0.55287
 C1804 C 0.72594 0.28455 0.57158
 C1805 C 0.74532 0.28367 0.58602
 C1806 C 0.76553 0.29672 0.58002
 C1807 C 0.78551 0.29473 0.59357
 C1808 C 0.78514 0.28220 0.61339
 C1809 C 0.76494 0.27112 0.62052
 C1810 C 0.74493 0.27092 0.60672
 C1811 C 0.72504 0.25899 0.61495
 C1812 C 0.72461 0.24942 0.63668
 C1813 C 0.74395 0.25137 0.65062
 C1814 C 0.76434 0.26128 0.64205
 H1815 H 0.79985 0.32647 0.56371
 H1816 H 0.72683 0.32953 0.52036
 H1817 H 0.79623 0.35289 0.53409
 H1818 H 0.71012 0.29939 0.54258
 H1819 H 0.71051 0.27456 0.57445
 H1820 H 0.80174 0.30303 0.58961
 H1821 H 0.80064 0.28188 0.62369
 H1822 H 0.70919 0.25765 0.60551
 H1823 H 0.70866 0.24181 0.64308
 H1824 H 0.77945 0.26255 0.65281
 C1825 C 0.27803 0.17874 0.54682
 C1826 C 0.25887 0.18384 0.56097
 C1827 C 0.23714 0.17387 0.55592
 C1828 C 0.23515 0.15857 0.53820
 C1829 C 0.25438 0.15331 0.52425
 C1830 C 0.27571 0.16414 0.52883
 C1831 C 0.21730 0.17940 0.56845
 C1832 C 0.21845 0.19469 0.58582
 C1833 C 0.23978 0.20467 0.59191
 C1834 C 0.26046 0.19864 0.57972
 C1835 C 0.28209 0.20697 0.58718
 C1836 C 0.28356 0.22022 0.60621
 C1837 C 0.26356 0.22632 0.61820
 C1838 C 0.24129 0.21950 0.61060
 C1839 C 0.22145 0.22722 0.62257
 C1840 C 0.22380 0.23867 0.64270
 C1841 C 0.24585 0.24337 0.65125
 C1842 C 0.26570 0.23814 0.63847
 H1843 H 0.29490 0.18641 0.54863
 H1844 H 0.21828 0.15128 0.53525
 H1845 H 0.29077 0.16185 0.51794
 H1846 H 0.20058 0.17191 0.56470
 H1847 H 0.20233 0.19767 0.59477
 H1848 H 0.29845 0.20266 0.57927
 H1849 H 0.30063 0.22545 0.61181
 H1850 H 0.20387 0.22416 0.61720
 H1851 H 0.20826 0.24269 0.65241
 H1852 H 0.28282 0.24164 0.64518
 C1853 C 0.72356 0.65498 0.05672
 C1854 C 0.73813 0.67355 0.06087
 C1855 C 0.75651 0.67796 0.04535
 C1856 C 0.75895 0.66503 0.02569
 C1857 C 0.74329 0.64742 0.02089
 C1858 C 0.72623 0.64219 0.03743
 C1859 C 0.77244 0.69511 0.04968
 C1860 C 0.77075 0.70770 0.06929
 C1861 C 0.75254 0.70407 0.08515
 C1862 C 0.73548 0.68727 0.08034
 C1863 C 0.71609 0.68483 0.09500
 C1864 C 0.71427 0.69700 0.11460
 C1865 C 0.73156 0.71219 0.12045
 C1866 C 0.75077 0.71643 0.10576
 C1867 C 0.76757 0.73236 0.11282
 C1868 C 0.76581 0.74256 0.13401
 C1869 C 0.74728 0.73724 0.14869
 C1870 C 0.72990 0.72263 0.14137
 H1871 H 0.71030 0.64930 0.06846
 H1872 H 0.77303 0.66877 0.01389
 H1873 H 0.71482 0.62786 0.03606
 H1874 H 0.78661 0.69864 0.03794
 H1875 H 0.78389 0.72040 0.07147
 H1876 H 0.70173 0.67375 0.09168
 H1877 H 0.69926 0.69416 0.12555
 H1878 H 0.78268 0.73667 0.10272
 H1879 H 0.77954 0.75372 0.13934
 H1880 H 0.71532 0.71862 0.15252
 C1881 C 0.17736 0.53909 0.25499
 C1882 C 0.16938 0.55995 0.24607
 C1883 C 0.14650 0.56057 0.23742
 C1884 C 0.13200 0.54158 0.23896
 C1885 C 0.14007 0.52058 0.24731
 C1886 C 0.16305 0.51991 0.25552
 C1887 C 0.13795 0.58025 0.22742
 C1888 C 0.15171 0.59939 0.22545
 C1889 C 0.17445 0.59996 0.23427
 C1890 C 0.18310 0.58022 0.24557
 C1891 C 0.20471 0.58172 0.25666
 C1892 C 0.21721 0.60182 0.25700
 C1893 C 0.20934 0.62097 0.24545
 C1894 C 0.18836 0.62000 0.23309
 C1895 C 0.18213 0.63923 0.22009
 C1896 C 0.19527 0.65900 0.22068
 C1897 C 0.21495 0.66051 0.23435
 C1898 C 0.22211 0.64124 0.24644
 H1899 H 0.19475 0.53697 0.26140
 H1900 H 0.11401 0.54331 0.23378
 H1901 H 0.17009 0.50462 0.26281
 H1902 H 0.12040 0.58083 0.22081
 H1903 H 0.14359 0.61389 0.21775
 H1904 H 0.21195 0.56781 0.26611
 H1905 H 0.23332 0.60234 0.26637
 H1906 H 0.16728 0.63947 0.20913
 H1907 H 0.18940 0.67351 0.21103
 H1908 H 0.23755 0.64206 0.25677
 C1909 C 0.63968 0.03995 0.77040
 C1910 C 0.65280 0.04885 0.75216
 C1911 C 0.65434 0.03584 0.73245
 C1912 C 0.64414 0.01413 0.73182
 C1913 C 0.63124 0.00510 0.75034
 C1914 C 0.62901 0.01898 0.76938
 C1915 C 0.66561 0.04483 0.71335
 C1916 C 0.67489 0.06658 0.71328
 C1917 C 0.67406 0.08005 0.73269
 C1918 C 0.66367 0.07057 0.75270
 C1919 C 0.66481 0.08292 0.77277
 C1920 C 0.67481 0.10412 0.77320
 C1921 C 0.68392 0.11415 0.75368
 C1922 C 0.68356 0.10249 0.73303
 C1923 C 0.69253 0.11400 0.71369
 C1924 C 0.70178 0.13586 0.71507
 C1925 C 0.70266 0.14693 0.73574
 C1926 C 0.69353 0.13584 0.75490
 H1927 H 0.63631 0.04926 0.78551
 H1928 H 0.64566 0.00443 0.71657
 H1929 H 0.61845 0.01441 0.78382
 H1930 H 0.66689 0.03511 0.69810
 H1931 H 0.68313 0.07226 0.69782
 H1932 H 0.65867 0.07638 0.78877
 H1933 H 0.67532 0.11284 0.78909
 H1934 H 0.69238 0.10666 0.69721
 H1935 H 0.70859 0.14396 0.69993
 H1936 H 0.69373 0.14419 0.77100
 C1937 C 0.81630 0.04611 0.25804
 C1938 C 0.82630 0.06758 0.26159
 C1939 C 0.85071 0.06849 0.26444
 C1940 C 0.86447 0.04918 0.26181
 C1941 C 0.85468 0.02784 0.25764
 C1942 C 0.83017 0.02661 0.25658
 C1943 C 0.86146 0.08871 0.26988
 C1944 C 0.84848 0.10821 0.27271
 C1945 C 0.82419 0.10854 0.26919
 C1946 C 0.81305 0.08811 0.26261
 C1947 C 0.78940 0.08917 0.25630
 C1948 C 0.77720 0.10948 0.25603
 C1949 C 0.78764 0.12935 0.26314
 C1950 C 0.81093 0.12893 0.27088
 C1951 C 0.82003 0.14904 0.27985
 C1952 C 0.80711 0.16904 0.27953
 C1953 C 0.78492 0.16978 0.27004
 C1954 C 0.77510 0.14978 0.26218
 H1955 H 0.79768 0.04379 0.25706
 H1956 H 0.88326 0.05070 0.26310
 H1957 H 0.82138 0.01073 0.25475
 H1958 H 0.88019 0.08945 0.27215
 H1959 H 0.85821 0.12312 0.27660
 H1960 H 0.78019 0.07465 0.25036
 H1961 H 0.75934 0.10962 0.25024
 H1962 H 0.83702 0.14981 0.28739
 H1963 H 0.81494 0.18424 0.28583
 H1964 H 0.75773 0.15020 0.25515
 C1965 C 0.37459 0.57104 0.75970
 C1966 C 0.35211 0.57744 0.75262
 C1967 C 0.33832 0.56077 0.74227
 C1968 C 0.34625 0.53817 0.74085
 C1969 C 0.36796 0.53162 0.74981
 C1970 C 0.38233 0.54890 0.75795
 C1971 C 0.31674 0.56685 0.73333
 C1972 C 0.30867 0.58899 0.73426
 C1973 C 0.32161 0.60608 0.74477
 C1974 C 0.34328 0.59996 0.75486
 C1975 C 0.35520 0.61644 0.76724
 C1976 C 0.34681 0.63836 0.76895
 C1977 C 0.32642 0.64505 0.75812
 C1978 C 0.31359 0.62904 0.74573
 C1979 C 0.29354 0.63687 0.73436
 C1980 C 0.28680 0.65947 0.73508
 C1981 C 0.29939 0.67524 0.74741
 C1982 C 0.31903 0.66777 0.75928
 H1983 H 0.38693 0.58289 0.76618
 H1984 H 0.33557 0.52589 0.73253
 H1985 H 0.39988 0.54518 0.76346
 H1986 H 0.30599 0.55436 0.72535
 H1987 H 0.29181 0.59208 0.72699
 H1988 H 0.37092 0.61274 0.77635
 H1989 H 0.35664 0.65032 0.77865
 H1990 H 0.28302 0.62613 0.72415
 H1991 H 0.27156 0.66470 0.72572
 H1992 H 0.32911 0.67983 0.76863
 C1993 C 0.32324 0.46813 0.75676
 C1994 C 0.33118 0.44756 0.74749
 C1995 C 0.35419 0.44722 0.73868
 C1996 C 0.36869 0.46617 0.74017
 C1997 C 0.36051 0.48702 0.74832
 C1998 C 0.33759 0.48737 0.75715
 C1999 C 0.36282 0.42790 0.72843
 C2000 C 0.34902 0.40887 0.72631
 C2001 C 0.32612 0.40798 0.73519
 C2002 C 0.31736 0.42732 0.74676
 C2003 C 0.29549 0.42543 0.75781
 C2004 C 0.28284 0.40536 0.75786
 C2005 C 0.29084 0.38664 0.74605
 C2006 C 0.31211 0.38801 0.73374
 C2007 C 0.31848 0.36925 0.72050
 C2008 C 0.30505 0.34955 0.72067
 C2009 C 0.28500 0.34763 0.73422
 C2010 C 0.27784 0.36643 0.74668
 H2011 H 0.30586 0.46998 0.76359
 H2012 H 0.38666 0.46470 0.73451
 H2013 H 0.33067 0.50237 0.76480
 H2014 H 0.38048 0.42754 0.72170
 H2015 H 0.35720 0.39467 0.71836
 H2016 H 0.28809 0.43900 0.76738
 H2017 H 0.26650 0.40455 0.76718
 H2018 H 0.33366 0.36935 0.70963
 H2019 H 0.31092 0.33541 0.71079
 H2020 H 0.26212 0.36528 0.75695
 C2021 C 0.85617 0.94441 0.26620
 C2022 C 0.83964 0.93966 0.24956
 C2023 C 0.83453 0.95693 0.23369
 C2024 C 0.84444 0.97868 0.23582
 C2025 C 0.85957 0.98382 0.25374
 C2026 C 0.86599 0.96565 0.26800
 C2027 C 0.81979 0.95219 0.21574
 C2028 C 0.81005 0.93078 0.21327
 C2029 C 0.81407 0.91328 0.22915
 C2030 C 0.82865 0.91811 0.24791
 C2031 C 0.83132 0.90146 0.26488
 C2032 C 0.82074 0.88065 0.26345
 C2033 C 0.80706 0.87536 0.24508
 C2034 C 0.80363 0.89128 0.22741
 C2035 C 0.78982 0.88434 0.20900
 C2036 C 0.77928 0.86287 0.20881
 C2037 C 0.78201 0.84784 0.22701
 C2038 C 0.79635 0.85420 0.24476
 H2039 H 0.86273 0.93179 0.27769
 H2040 H 0.84051 0.99165 0.22340
 H2041 H 0.87935 0.96721 0.28055
 H2042 H 0.81585 0.96516 0.20332
 H2043 H 0.79892 0.92854 0.19898
 H2044 H 0.84090 0.90421 0.28008
 H2045 H 0.82317 0.86857 0.27709
 H2046 H 0.78680 0.89516 0.19460
 H2047 H 0.76838 0.85835 0.19482
 H2048 H 0.79898 0.84255 0.25874
 C2049 C 0.67267 0.94261 0.74612
 C2050 C 0.66271 0.92103 0.74999
 C2051 C 0.63841 0.92010 0.75419
 C2052 C 0.62470 0.93962 0.75287
 C2053 C 0.63450 0.96119 0.74894
 C2054 C 0.65891 0.96225 0.74596
 C2055 C 0.62772 0.89966 0.75971
 C2056 C 0.64065 0.87996 0.76145
 C2057 C 0.66482 0.87971 0.75678
 C2058 C 0.67586 0.90039 0.74998
 C2059 C 0.69933 0.89951 0.74257
 C2060 C 0.71145 0.87917 0.74155
 C2061 C 0.70115 0.85903 0.74893
 C2062 C 0.67804 0.85921 0.75764
 C2063 C 0.66910 0.83879 0.76684
 C2064 C 0.68198 0.81882 0.76595
 C2065 C 0.70402 0.81833 0.75564
 C2066 C 0.71367 0.83862 0.74742
 H2067 H 0.69120 0.94488 0.74379
 H2068 H 0.60597 0.93805 0.75506
 H2069 H 0.66769 0.97814 0.74341
 H2070 H 0.60908 0.89888 0.76295
 H2071 H 0.63094 0.86490 0.76551
 H2072 H 0.70847 0.91425 0.73642
 H2073 H 0.72918 0.87924 0.73501
 H2074 H 0.65227 0.83776 0.77507
 H2075 H 0.67423 0.80346 0.77259
 H2076 H 0.73094 0.83848 0.73979
 C2077 C 0.15685 0.44756 0.22729
 C2078 C 0.16171 0.43483 0.24696
 C2079 C 0.15537 0.44439 0.26781
 C2080 C 0.14439 0.46569 0.26859
 C2081 C 0.13765 0.47746 0.24874
 C2082 C 0.14529 0.46820 0.22823
 C2083 C 0.15971 0.43249 0.28781
 C2084 C 0.16951 0.41100 0.28755
 C2085 C 0.17587 0.40057 0.26717
 C2086 C 0.17251 0.41301 0.24657
 C2087 C 0.18004 0.40322 0.22624
 C2088 C 0.19008 0.38201 0.22586
 C2089 C 0.19281 0.36938 0.24560
 C2090 C 0.18565 0.37823 0.26658
 C2091 C 0.18839 0.36413 0.28591
 C2092 C 0.19803 0.34243 0.28431
 C2093 C 0.20545 0.33404 0.26347
 C2094 C 0.20266 0.34780 0.24425
 H2095 H 0.16133 0.44195 0.21066
 H2096 H 0.14086 0.47286 0.28491
 H2097 H 0.14243 0.47650 0.21234
 H2098 H 0.15506 0.43970 0.30390
 H2099 H 0.17210 0.40300 0.30372
 H2100 H 0.17866 0.41158 0.21012
 H2101 H 0.19561 0.37531 0.20978
 H2102 H 0.18299 0.36927 0.30249
 H2103 H 0.19976 0.33223 0.29946
 H2104 H 0.20798 0.34162 0.22790
 C2105 C 0.03061 0.23710 0.82938
 C2106 C 0.05296 0.24189 0.83794
 C2107 C 0.05466 0.24662 0.86110
 C2108 C 0.03467 0.24891 0.87431
 C2109 C 0.01230 0.24594 0.86539
 C2110 C 0.01071 0.23843 0.84312
 C2111 C 0.07630 0.24917 0.87112
 C2112 C 0.09657 0.24699 0.85857
 C2113 C 0.09585 0.24315 0.83523
 C2114 C 0.07372 0.24173 0.82453
 C2115 C 0.07306 0.24140 0.80080
 C2116 C 0.09346 0.24270 0.78796
 C2117 C 0.11519 0.24304 0.79832
 C2118 C 0.11663 0.24198 0.82211
 C2119 C 0.13888 0.23981 0.83187
 C2120 C 0.15893 0.24072 0.81861
 C2121 C 0.15746 0.24402 0.79534
 C2122 C 0.13557 0.24470 0.78514
 H2123 H 0.02817 0.23140 0.81241
 H2124 H 0.03651 0.25305 0.89190
 H2125 H -0.00578 0.23328 0.83624
 H2126 H 0.07760 0.25279 0.88890
 H2127 H 0.11261 0.24970 0.86744
 H2128 H 0.05689 0.24146 0.79169
 H2129 H 0.09222 0.24332 0.76977
 H2130 H 0.14134 0.23699 0.84967
 H2131 H 0.17572 0.23941 0.82670
 H2132 H 0.13443 0.24643 0.76699
 C2133 C 0.52835 0.74665 0.33123
 C2134 C 0.55125 0.75095 0.33869
 C2135 C 0.55398 0.75768 0.36122
 C2136 C 0.53461 0.76283 0.37445
 C2137 C 0.51186 0.76132 0.36604
 C2138 C 0.50902 0.75108 0.34506
 C2139 C 0.57604 0.75981 0.37043
 C2140 C 0.59574 0.75588 0.35752
 C2141 C 0.59406 0.75051 0.33455
 C2142 C 0.57149 0.74876 0.32475
 C2143 C 0.56994 0.74639 0.30121
 C2144 C 0.58985 0.74634 0.28762
 C2145 C 0.61198 0.74746 0.29710
 C2146 C 0.61433 0.74826 0.32080
 C2147 C 0.63696 0.74708 0.32986
 C2148 C 0.65647 0.74722 0.31590
 C2149 C 0.65411 0.74844 0.29251
 C2150 C 0.63186 0.74811 0.28308
 H2151 H 0.52497 0.73937 0.31507
 H2152 H 0.53736 0.76856 0.39143
 H2153 H 0.49187 0.74676 0.33909
 H2154 H 0.57813 0.76481 0.38777
 H2155 H 0.61212 0.75862 0.36575
 H2156 H 0.55343 0.74591 0.29270
 H2157 H 0.58790 0.74547 0.26953
 H2158 H 0.64021 0.74576 0.34767
 H2159 H 0.67356 0.74697 0.32353
 H2160 H 0.63006 0.74832 0.26493
 C2161 C 0.53629 0.23231 0.17047
 C2162 C 0.55123 0.25106 0.16816
 C2163 C 0.54753 0.26624 0.14996
 C2164 C 0.52953 0.26260 0.13477
 C2165 C 0.51628 0.24268 0.13588
 C2166 C 0.51923 0.22830 0.15466
 C2167 C 0.56240 0.28455 0.14649
 C2168 C 0.58233 0.28675 0.15928
 C2169 C 0.58748 0.27112 0.17662
 C2170 C 0.57053 0.25442 0.18250
 C2171 C 0.57376 0.24127 0.20216
 C2172 C 0.59424 0.24249 0.21415
 C2173 C 0.61231 0.25642 0.20666
 C2174 C 0.60919 0.27121 0.18800
 C2175 C 0.62843 0.28439 0.18065
 C2176 C 0.64998 0.28244 0.19116
 C2177 C 0.65289 0.26753 0.20939
 C2178 C 0.63378 0.25502 0.21736
 H2179 H 0.53813 0.21971 0.18356
 H2180 H 0.52641 0.27528 0.12194
 H2181 H 0.50864 0.21330 0.15665
 H2182 H 0.55930 0.29660 0.13296
 H2183 H 0.59339 0.30095 0.15529
 H2184 H 0.56068 0.22988 0.20877
 H2185 H 0.59633 0.23168 0.22885
 H2186 H 0.62771 0.29556 0.16622
 H2187 H 0.66446 0.29241 0.18476
 H2188 H 0.63574 0.24346 0.23151
 C2189 C 0.04831 0.77088 0.67350
 C2190 C 0.07082 0.76802 0.66398
 C2191 C 0.07240 0.76018 0.64167
 C2192 C 0.05257 0.75286 0.63066
 C2193 C 0.03039 0.75384 0.64089
 C2194 C 0.02842 0.76453 0.66180
 C2195 C 0.09380 0.75943 0.63042
 C2196 C 0.11394 0.76608 0.64100
 C2197 C 0.11351 0.77269 0.66371
 C2198 C 0.09175 0.77279 0.67567
 C2199 C 0.09184 0.77617 0.69914
 C2200 C 0.11265 0.77862 0.71063
 C2201 C 0.13392 0.77908 0.69900
 C2202 C 0.13443 0.77762 0.67521
 C2203 C 0.15601 0.78063 0.66389
 C2204 C 0.17655 0.78241 0.67587
 C2205 C 0.17618 0.78125 0.69939
 C2206 C 0.15482 0.78032 0.71096
 H2207 H 0.04559 0.77873 0.68957
 H2208 H 0.05441 0.74624 0.61384
 H2209 H 0.01156 0.76820 0.66920
 H2210 H 0.09501 0.75359 0.61324
 H2211 H 0.12986 0.76444 0.63135
 H2212 H 0.07612 0.77548 0.70927
 H2213 H 0.11210 0.78002 0.72880
 H2214 H 0.15757 0.78168 0.64580
 H2215 H 0.19292 0.78365 0.66663
 H2216 H 0.15452 0.78016 0.72922
 C2217 C 0.96607 0.72815 0.67440
 C2218 C 0.94423 0.73250 0.66439
 C2219 C 0.94416 0.73955 0.64155
 C2220 C 0.96503 0.74425 0.63015
 C2221 C 0.98669 0.74203 0.64084
 C2222 C 0.98686 0.73220 0.66254
 C2223 C 0.92325 0.74195 0.63006
 C2224 C 0.90221 0.73746 0.64078
 C2225 C 0.90125 0.73112 0.66376
 C2226 C 0.92251 0.72963 0.67603
 C2227 C 0.92128 0.72636 0.69960
 C2228 C 0.89991 0.72468 0.71081
 C2229 C 0.87909 0.72511 0.69887
 C2230 C 0.87958 0.72729 0.67507
 C2231 C 0.85830 0.72555 0.66347
 C2232 C 0.83729 0.72352 0.67515
 C2233 C 0.83672 0.72319 0.69870
 C2234 C 0.85769 0.72364 0.71054
 H2235 H 0.96758 0.72084 0.69105
 H2236 H 0.96434 0.74958 0.61266
 H2237 H 1.00313 0.72764 0.67046
 H2238 H 0.92315 0.74734 0.61254
 H2239 H 0.88684 0.74023 0.63083
 H2240 H 0.93660 0.72618 0.70997
 H2241 H 0.89970 0.72292 0.72900
 H2242 H 0.85731 0.72537 0.64537
 H2243 H 0.82130 0.72287 0.66561
 H2244 H 0.85732 0.72281 0.72879
 C2245 C 0.44941 0.25953 0.15731
 C2246 C 0.43592 0.24039 0.16291
 C2247 C 0.44201 0.21975 0.15275
 C2248 C 0.46145 0.21833 0.13832
 C2249 C 0.47469 0.23754 0.13267
 C2250 C 0.46840 0.25802 0.14272
 C2251 C 0.42872 0.20053 0.15710
 C2252 C 0.40875 0.20159 0.17042
 C2253 C 0.40168 0.22190 0.18045
 C2254 C 0.41633 0.24119 0.17785
 C2255 C 0.41101 0.26057 0.19038
 C2256 C 0.39102 0.26170 0.20364
 C2257 C 0.37533 0.24384 0.20448
 C2258 C 0.38040 0.22364 0.19294
 C2259 C 0.36339 0.20643 0.19346
 C2260 C 0.34210 0.20952 0.20443
 C2261 C 0.33724 0.22959 0.21555
 C2262 C 0.35415 0.24643 0.21613
 H2263 H 0.44555 0.27605 0.16355
 H2264 H 0.46633 0.20199 0.13207
 H2265 H 0.47851 0.27309 0.13925
 H2266 H 0.43350 0.18458 0.14972
 H2267 H 0.39945 0.18600 0.17293
 H2268 H 0.42217 0.27512 0.19057
 H2269 H 0.38745 0.27701 0.21276
 H2270 H 0.36547 0.19084 0.18466
 H2271 H 0.32917 0.19627 0.20388
 H2272 H 0.35027 0.26209 0.22453
 C2273 C 0.42669 0.78071 0.37352
 C2274 C 0.42543 0.78704 0.35065
 C2275 C 0.44638 0.78822 0.33785
 C2276 C 0.46782 0.78364 0.34802
 C2277 C 0.46855 0.77462 0.37002
 C2278 C 0.44778 0.77447 0.38288
 C2279 C 0.44564 0.79274 0.31474
 C2280 C 0.42438 0.79318 0.30370
 C2281 C 0.40323 0.79051 0.31581
 C2282 C 0.40382 0.79029 0.33975
 C2283 C 0.38272 0.79226 0.35197
 C2284 C 0.36151 0.79096 0.34121
 C2285 C 0.36079 0.78694 0.31820
 C2286 C 0.38156 0.78709 0.30500
 C2287 C 0.37999 0.78179 0.28195
 C2288 C 0.35871 0.77566 0.27274
 C2289 C 0.33843 0.77519 0.28609
 C2290 C 0.33949 0.78162 0.30858
 H2291 H 0.41149 0.77889 0.38424
 H2292 H 0.48373 0.78629 0.33839
 H2293 H 0.44775 0.76898 0.40033
 H2294 H 0.46160 0.79427 0.30488
 H2295 H 0.42492 0.79564 0.28567
 H2296 H 0.38218 0.79474 0.36992
 H2297 H 0.34560 0.79171 0.35122
 H2298 H 0.39509 0.78098 0.27100
 H2299 H 0.35818 0.77104 0.25519
 H2300 H 0.32386 0.78130 0.31904
 C2301 C 0.92503 0.24590 0.87536
 C2302 C 0.92146 0.25597 0.85410
 C2303 C 0.94119 0.26363 0.84164
 C2304 C 0.96352 0.26211 0.85088
 C2305 C 0.96712 0.25013 0.87112
 C2306 C 0.94735 0.24300 0.88358
 C2307 C 0.93854 0.27200 0.81975
 C2308 C 0.91703 0.27083 0.80927
 C2309 C 0.89719 0.26257 0.82097
 C2310 C 0.89904 0.25742 0.84435
 C2311 C 0.87851 0.25359 0.85713
 C2312 C 0.85699 0.25247 0.84684
 C2313 C 0.85545 0.25412 0.82351
 C2314 C 0.87555 0.25904 0.81016
 C2315 C 0.87350 0.25876 0.78648
 C2316 C 0.85227 0.25372 0.77660
 C2317 C 0.83253 0.24951 0.79000
 C2318 C 0.83403 0.25018 0.81337
 H2319 H 0.91101 0.23899 0.88554
 H2320 H 0.97813 0.26965 0.84190
 H2321 H 0.94906 0.23494 0.89993
 H2322 H 0.95344 0.27829 0.81021
 H2323 H 0.91624 0.27691 0.79209
 H2324 H 0.87855 0.25182 0.87522
 H2325 H 0.84160 0.24925 0.85716
 H2326 H 0.88821 0.26132 0.77527
 H2327 H 0.85120 0.25329 0.75841
 H2328 H 0.81866 0.24666 0.82365
 C2329 C 0.59622 0.96757 0.68859
 C2330 C 0.58206 0.98609 0.68257
 C2331 C 0.57930 1.00335 0.69854
 C2332 C 0.59008 1.00160 0.71984
 C2333 C 0.60414 0.98287 0.72582
 C2334 C 0.60701 0.96613 0.70940
 C2335 C 0.56622 1.02247 0.69292
 C2336 C 0.55628 1.02504 0.67166
 C2337 C 0.55870 1.00833 0.65511
 C2338 C 0.57130 0.98827 0.66097
 C2339 C 0.57288 0.97099 0.64497
 C2340 C 0.56394 0.97366 0.62358
 C2341 C 0.55269 0.99345 0.61717
 C2342 C 0.54928 1.01096 0.63281
 C2343 C 0.53696 1.03037 0.62514
 C2344 C 0.52928 1.03238 0.60274
 C2345 C 0.53384 1.01528 0.58732
 C2346 C 0.54511 0.99574 0.59493
 H2347 H 0.60013 0.95405 0.67732
 H2348 H 0.58793 1.01512 0.73174
 H2349 H 0.61817 0.95172 0.71186
 H2350 H 0.56395 1.03581 0.70498
 H2351 H 0.54680 1.04043 0.66862
 H2352 H 0.58093 0.95496 0.64837
 H2353 H 0.56607 0.96004 0.61178
 H2354 H 0.53333 1.04439 0.63591
 H2355 H 0.52052 1.04764 0.59728
 H2356 H 0.54831 0.98219 0.58324
 C2357 C 0.06729 0.49572 1.21174
 C2358 C 0.07563 0.50273 1.19027
 C2359 C 0.09933 0.50914 1.18859
 C2360 C 0.11400 0.50757 1.20728
 C2361 C 0.10589 0.50049 1.22882
 C2362 C 0.08197 0.49483 1.23049
 C2363 C 0.10852 0.51716 1.16822
 C2364 C 0.09469 0.51910 1.14933
 C2365 C 0.07100 0.51262 1.14984
 C2366 C 0.06142 0.50372 1.17047
 C2367 C 0.03828 0.49550 1.17034
 C2368 C 0.02518 0.49548 1.15068
 C2369 C 0.03425 0.50428 1.13049
 C2370 C 0.05696 0.51379 1.13007
 C2371 C 0.06492 0.52375 1.10963
 C2372 C 0.05203 0.52213 1.09004
 C2373 C 0.03051 0.51111 1.09005
 C2374 C 0.02115 0.50295 1.11049
 H2375 H 0.04930 0.49126 1.21475
 H2376 H 0.13212 0.51233 1.20499
 H2377 H 0.07393 0.48978 1.24618
 H2378 H 0.12670 0.52206 1.16684
 H2379 H 0.10347 0.52504 1.13428
 H2380 H 0.03006 0.48814 1.18508
 H2381 H 0.00781 0.48831 1.15127
 H2382 H 0.08118 0.53271 1.10807
 H2383 H 0.05931 0.52896 1.07447
 H2384 H 0.00440 0.49450 1.11059
 C2385 C -0.10610 0.02766 1.19681
 C2386 C -0.08860 0.01192 1.19130
 C2387 C -0.08377 -0.00530 1.20731
 C2388 C -0.09571 -0.00603 1.22830
 C2389 C -0.11302 0.01002 1.23379
 C2390 C -0.11808 0.02654 1.21723
 C2391 C -0.06755 -0.02204 1.20197
 C2392 C -0.05656 -0.02241 1.18087
 C2393 C -0.06096 -0.00567 1.16430
 C2394 C -0.07661 0.01222 1.17001
 C2395 C -0.07990 0.02989 1.15421
 C2396 C -0.06983 0.02934 1.13297
 C2397 C -0.05575 0.01141 1.12658
 C2398 C -0.05054 -0.00617 1.14214
 C2399 C -0.03551 -0.02358 1.13453
 C2400 C -0.02680 -0.02368 1.11228
 C2401 C -0.03295 -0.00661 1.09693
 C2402 C -0.04707 0.01103 1.10446
 H2403 H -0.11189 0.04058 1.18527
 H2404 H -0.09204 -0.01955 1.24020
 H2405 H -0.13207 0.03853 1.21924
 H2406 H -0.06367 -0.03532 1.21407
 H2407 H -0.04463 -0.03612 1.17801
 H2408 H -0.09013 0.04465 1.15772
 H2409 H -0.07332 0.04310 1.12129
 H2410 H -0.03049 -0.03753 1.14521
 H2411 H -0.01584 -0.03750 1.10691
 H2412 H -0.05159 0.02460 1.09288
 C2413 C 0.39424 0.50178 0.68703
 C2414 C 0.41875 0.50354 0.68615
 C2415 C 0.43021 0.51013 0.70600
 C2416 C 0.41750 0.51245 0.72647
 C2417 C 0.39345 0.50722 0.72776
 C2418 C 0.38202 0.50392 0.70719
 C2419 C 0.45421 0.51437 0.70515
 C2420 C 0.46701 0.51208 0.68513
 C2421 C 0.45640 0.50481 0.66513
 C2422 C 0.43198 0.49981 0.66597
 C2423 C 0.42150 0.49078 0.64673
 C2424 C 0.43383 0.48841 0.62675
 C2425 C 0.45715 0.49473 0.62507
 C2426 C 0.46912 0.50255 0.64421
 C2427 C 0.49303 0.50833 0.64120
 C2428 C 0.50387 0.50772 0.61981
 C2429 C 0.49129 0.50123 0.60091
 C2430 C 0.46825 0.49396 0.60395
 H2431 H 0.38384 0.49917 0.67230
 H2432 H 0.42642 0.51854 0.74110
 H2433 H 0.36321 0.50231 0.70675
 H2434 H 0.46321 0.51962 0.72013
 H2435 H 0.48537 0.51583 0.68590
 H2436 H 0.40369 0.48502 0.64662
 H2437 H 0.42482 0.48187 0.61229
 H2438 H 0.50352 0.51424 0.65483
 H2439 H 0.52166 0.51363 0.61785
 H2440 H 0.45842 0.48879 0.58940
 C2441 C 0.38565 0.50742 -0.18639
 C2442 C 0.40898 0.50096 -0.18276
 C2443 C 0.42248 0.49465 -0.20180
 C2444 C 0.41252 0.49459 -0.22356
 C2445 C 0.38982 0.50311 -0.22715
 C2446 C 0.37647 0.50840 -0.20788
 C2447 C 0.44597 0.48898 -0.19900
 C2448 C 0.45654 0.49036 -0.17798
 C2449 C 0.44374 0.49661 -0.15857
 C2450 C 0.41931 0.50094 -0.16092
 C2451 C 0.40587 0.50489 -0.14130
 C2452 C 0.41591 0.50523 -0.12022
 C2453 C 0.43979 0.50206 -0.11770
 C2454 C 0.45427 0.49813 -0.13675
 C2455 C 0.47861 0.49597 -0.13298
 C2456 C 0.48775 0.49661 -0.11112
 C2457 C 0.47296 0.49921 -0.09240
 C2458 C 0.44908 0.50235 -0.09598
 H2459 H 0.37412 0.51288 -0.17313
 H2460 H 0.42265 0.48804 -0.23743
 H2461 H 0.35871 0.51434 -0.20948
 H2462 H 0.45650 0.48402 -0.21336
 H2463 H 0.47476 0.48594 -0.17732
 H2464 H 0.38725 0.50716 -0.14145
 H2465 H 0.40475 0.50805 -0.10567
 H2466 H 0.49097 0.49377 -0.14658
 H2467 H 0.50630 0.49417 -0.10879
 H2468 H 0.43752 0.50468 -0.08162
 C2469 C -0.11680 1.00865 0.31903
 C2470 C -0.09259 1.01230 0.32093
 C2471 C -0.07911 1.01324 0.30079
 C2472 C -0.08995 1.01175 0.27953
 C2473 C -0.11427 1.00830 0.27792
 C2474 C -0.12722 1.00684 0.29818
 C2475 C -0.05488 1.01557 0.30209
 C2476 C -0.04374 1.01641 0.32288
 C2477 C -0.05650 1.01574 0.34337
 C2478 C -0.08142 1.01457 0.34223
 C2479 C -0.09450 1.01599 0.36242
 C2480 C -0.08377 1.01686 0.38312
 C2481 C -0.05958 1.01637 0.38470
 C2482 C -0.04540 1.01615 0.36501
 C2483 C -0.02083 1.01581 0.36804
 C2484 C -0.01108 1.01482 0.38970
 C2485 C -0.02545 1.01418 0.40895
 C2486 C -0.04965 1.01564 0.40613
 H2487 H -0.12829 1.00658 0.33336
 H2488 H -0.07933 1.01349 0.26447
 H2489 H -0.14591 1.00413 0.29777
 H2490 H -0.04432 1.01633 0.28685
 H2491 H -0.02500 1.01790 0.32237
 H2492 H -0.11326 1.01678 0.36289
 H2493 H -0.09464 1.01756 0.39815
 H2494 H -0.00874 1.01561 0.35404
 H2495 H 0.00769 1.01370 0.39135
 H2496 H -0.06105 1.01556 0.42083
 C2497 C 0.09778 0.52210 0.30601
 C2498 C 0.08634 0.50315 0.31551
 C2499 C 0.08525 0.48358 0.30233
 C2500 C 0.09652 0.48287 0.28110
 C2501 C 0.10911 0.50153 0.27215
 C2502 C 0.10886 0.52126 0.28508
 C2503 C 0.07316 0.46472 0.31054
 C2504 C 0.06232 0.46478 0.33168
 C2505 C 0.06359 0.48364 0.34579
 C2506 C 0.07609 0.50304 0.33762
 C2507 C 0.07864 0.52147 0.35208
 C2508 C 0.06946 0.52108 0.37370
 C2509 C 0.05711 0.50250 0.38186
 C2510 C 0.05343 0.48364 0.36805
 C2511 C 0.03991 0.46564 0.37735
 C2512 C 0.03136 0.46621 0.39964
 C2513 C 0.03625 0.48454 0.41332
 C2514 C 0.04876 0.50272 0.40408
 H2515 H 0.09848 0.53810 0.31422
 H2516 H 0.09587 0.46748 0.27157
 H2517 H 0.11740 0.53652 0.27953
 H2518 H 0.07211 0.44967 0.30053
 H2519 H 0.05355 0.44949 0.33678
 H2520 H 0.08831 0.53638 0.34753
 H2521 H 0.07227 0.53553 0.38427
 H2522 H 0.03567 0.45093 0.36785
 H2523 H 0.02151 0.45205 0.40636
 H2524 H 0.05215 0.51725 0.41437
 C2525 C 0.56311 -0.02323 -0.21147
 C2526 C 0.57343 -0.02842 -0.19043
 C2527 C 0.59798 -0.03080 -0.19015
 C2528 C 0.61142 -0.02683 -0.20961
 C2529 C 0.60128 -0.02117 -0.23051
 C2530 C 0.57672 -0.01998 -0.23109
 C2531 C 0.60927 -0.03700 -0.17038
 C2532 C 0.59680 -0.04081 -0.15061
 C2533 C 0.57235 -0.03803 -0.14960
 C2534 C 0.56047 -0.03127 -0.16970
 C2535 C 0.53629 -0.02676 -0.16811
 C2536 C 0.52434 -0.02803 -0.14754
 C2537 C 0.53574 -0.03453 -0.12780
 C2538 C 0.55968 -0.04059 -0.12880
 C2539 C 0.57016 -0.04840 -0.10870
 C2540 C 0.55828 -0.04759 -0.08817
 C2541 C 0.53535 -0.03961 -0.08687
 C2542 C 0.52370 -0.03409 -0.10688
 H2543 H 0.54447 -0.02202 -0.21341
 H2544 H 0.63026 -0.02805 -0.20855
 H2545 H 0.56763 -0.01663 -0.24659
 H2546 H 0.62809 -0.03890 -0.17014
 H2547 H 0.60712 -0.04506 -0.13612
 H2548 H 0.52627 -0.02125 -0.18242
 H2549 H 0.50600 -0.02356 -0.14703
 H2550 H 0.58770 -0.05487 -0.10810
 H2551 H 0.56744 -0.05244 -0.07299
 H2552 H 0.50588 -0.02801 -0.10602
 C2553 C 0.71276 0.57603 -0.00360
 C2554 C 0.68949 0.58321 -0.00705
 C2555 C 0.68548 0.60661 -0.00916
 C2556 C 0.70367 0.62199 -0.00600
 C2557 C 0.72688 0.61491 -0.00219
 C2558 C 0.73107 0.59152 -0.00174
 C2559 C 0.66334 0.61464 -0.01465
 C2560 C 0.64505 0.59991 -0.01842
 C2561 C 0.64788 0.57644 -0.01576
 C2562 C 0.67017 0.56803 -0.00891
 C2563 C 0.67211 0.54496 -0.00325
 C2564 C 0.65290 0.53066 -0.00399
 C2565 C 0.63130 0.53847 -0.01150
 C2566 C 0.62881 0.56121 -0.01857
 C2567 C 0.60721 0.56780 -0.02802
 C2568 C 0.58837 0.55289 -0.02861
 C2569 C 0.59028 0.53109 -0.01959
 C2570 C 0.61198 0.52382 -0.01148
 H2571 H 0.71750 0.55847 -0.00325
 H2572 H 0.69988 0.63986 -0.00700
 H2573 H 0.74845 0.58475 -0.00038
 H2574 H 0.66017 0.63257 -0.01635
 H2575 H 0.62848 0.60750 -0.02238
 H2576 H 0.68808 0.53770 0.00299
 H2577 H 0.65500 0.51326 0.00135
 H2578 H 0.60438 0.58435 -0.03514
 H2579 H 0.57185 0.55885 -0.03510
 H2580 H 0.61369 0.50683 -0.00477
 C2581 C 0.21532 1.08325 0.50819
 C2582 C 0.19290 1.09053 0.50152
 C2583 C 0.18984 1.11380 0.49721
 C2584 C 0.20830 1.12896 0.50022
 C2585 C 0.23117 1.12157 0.50537
 C2586 C 0.23399 1.09832 0.50971
 C2587 C 0.16857 1.12181 0.48910
 C2588 C 0.15046 1.10712 0.48442
 C2589 C 0.15252 1.08378 0.48862
 C2590 C 0.17365 1.07552 0.49843
 C2591 C 0.17459 1.05268 0.50527
 C2592 C 0.15558 1.03846 0.50273
 C2593 C 0.13522 1.04607 0.49241
 C2594 C 0.13375 1.06856 0.48431
 C2595 C 0.11340 1.07488 0.47239
 C2596 C 0.09457 1.06007 0.47047
 C2597 C 0.09532 1.03860 0.48045
 C2598 C 0.11599 1.03150 0.49082
 H2599 H 0.21937 1.06576 0.51119
 H2600 H 0.20519 1.14671 0.49698
 H2601 H 0.25070 1.09112 0.51373
 H2602 H 0.16608 1.13963 0.48578
 H2603 H 0.13464 1.11469 0.47822
 H2604 H 0.18950 1.04551 0.51362
 H2605 H 0.15685 1.02126 0.50893
 H2606 H 0.11148 1.09122 0.46449
 H2607 H 0.07882 1.06595 0.46235
 H2608 H 0.11680 1.01480 0.49840
 C2609 C 0.20492 -0.08538 0.99712
 C2610 C 0.18263 -0.09413 1.00285
 C2611 C 0.18070 -0.11769 1.00584
 C2612 C 0.19995 -0.13175 1.00193
 C2613 C 0.22239 -0.12304 0.99687
 C2614 C 0.22437 -0.09948 0.99453
 C2615 C 0.15964 -0.12720 1.01312
 C2616 C 0.14043 -0.11377 1.01793
 C2617 C 0.14118 -0.09022 1.01464
 C2618 C 0.16231 -0.08037 1.00598
 C2619 C 0.16212 -0.05730 0.99997
 C2620 C 0.14195 -0.04441 1.00200
 C2621 C 0.12148 -0.05365 1.01106
 C2622 C 0.12110 -0.07639 1.01856
 C2623 C 0.10045 -0.08436 1.02937
 C2624 C 0.08043 -0.07089 1.03068
 C2625 C 0.08033 -0.04924 1.02118
 C2626 C 0.10109 -0.04049 1.01195
 H2627 H 0.20812 -0.06757 0.99544
 H2628 H 0.19768 -0.14980 1.00367
 H2629 H 0.24091 -0.09151 0.99095
 H2630 H 0.15807 -0.14525 1.01548
 H2631 H 0.12480 -0.12246 1.02331
 H2632 H 0.17706 -0.04896 0.99253
 H2633 H 0.14238 -0.02699 0.99634
 H2634 H 0.09922 -0.10096 1.03684
 H2635 H 0.06457 -0.07791 1.03797
 H2636 H 0.10112 -0.02360 1.00478
 C2637 C 0.70218 0.38974 0.53676
 C2638 C 0.69466 0.40599 0.52091
 C2639 C 0.70816 0.40867 0.50091
 C2640 C 0.72722 0.39430 0.49640
 C2641 C 0.73408 0.37739 0.51188
 C2642 C 0.72169 0.37628 0.53259
 C2643 C 0.70276 0.42593 0.48567
 C2644 C 0.68460 0.44085 0.49005
 C2645 C 0.67038 0.43858 0.50955
 C2646 C 0.67475 0.42017 0.52462
 C2647 C 0.65866 0.41613 0.54245
 C2648 C 0.63902 0.42968 0.54547
 C2649 C 0.63507 0.44836 0.53149
 C2650 C 0.65129 0.45356 0.51393
 C2651 C 0.64774 0.47359 0.50141
 C2652 C 0.62780 0.48661 0.50465
 C2653 C 0.61047 0.48029 0.52042
 C2654 C 0.61468 0.46153 0.53447
 H2655 H 0.69402 0.38782 0.55312
 H2656 H 0.73719 0.39656 0.48091
 H2657 H 0.72722 0.36553 0.54632
 H2658 H 0.71292 0.42815 0.47030
 H2659 H 0.68149 0.45355 0.47728
 H2660 H 0.66022 0.40187 0.55377
 H2661 H 0.62680 0.42548 0.55893
 H2662 H 0.66011 0.47969 0.48896
 H2663 H 0.62556 0.50140 0.49401
 H2664 H 0.60166 0.45656 0.54694
 C2665 C -0.19847 0.40739 0.52579
 C2666 C -0.18340 0.40986 0.50684
 C2667 C -0.18982 0.39880 0.48691
 C2668 C -0.20982 0.38516 0.48649
 C2669 C -0.22315 0.38066 0.50619
 C2670 C -0.21793 0.39326 0.52533
 C2671 C -0.17593 0.40092 0.46755
 C2672 C -0.15506 0.41277 0.46778
 C2673 C -0.14726 0.42329 0.48745
 C2674 C -0.16211 0.42252 0.50706
 C2675 C -0.15496 0.43412 0.52634
 C2676 C -0.13380 0.44536 0.52683
 C2677 C -0.11867 0.44534 0.50831
 C2678 C -0.12506 0.43444 0.48827
 C2679 C -0.10862 0.43474 0.47018
 C2680 C -0.08681 0.44516 0.47219
 C2681 C -0.08061 0.45572 0.49217
 C2682 C -0.09692 0.45592 0.51001
 H2683 H -0.19545 0.41561 0.54150
 H2684 H -0.21449 0.37774 0.47066
 H2685 H -0.22846 0.39133 0.54048
 H2686 H -0.18095 0.39279 0.45212
 H2687 H -0.14536 0.41334 0.45216
 H2688 H -0.16533 0.43483 0.54153
 H2689 H -0.12903 0.45385 0.54214
 H2690 H -0.11182 0.42665 0.45442
 H2691 H -0.07463 0.44461 0.45814
 H2692 H -0.09256 0.46402 0.52564
 C2693 C 0.30185 -0.11527 0.01865
 C2694 C 0.31126 -0.10346 -0.00008
 C2695 C 0.29888 -0.10417 -0.02051
 C2696 C 0.27696 -0.11494 -0.02137
 C2697 C 0.26735 -0.12647 -0.00239
 C2698 C 0.28071 -0.12660 0.01743
 C2699 C 0.30868 -0.09444 -0.03999
 C2700 C 0.33074 -0.08452 -0.03967
 C2701 C 0.34345 -0.08297 -0.01951
 C2702 C 0.33290 -0.09161 0.00077
 C2703 C 0.34399 -0.08767 0.02142
 C2704 C 0.36520 -0.07667 0.02223
 C2705 C 0.37650 -0.06949 0.00254
 C2706 C 0.36610 -0.07270 -0.01870
 C2707 C 0.37910 -0.06580 -0.03809
 C2708 C 0.40124 -0.05586 -0.03621
 C2709 C 0.41086 -0.05211 -0.01501
 C2710 C 0.39828 -0.05908 0.00420
 H2711 H 0.31093 -0.11695 0.03437
 H2712 H 0.26748 -0.11472 -0.03706
 H2713 H 0.27550 -0.13568 0.03245
 H2714 H 0.29941 -0.09492 -0.05578
 H2715 H 0.33716 -0.07756 -0.05541
 H2716 H 0.33629 -0.09224 0.03747
 H2717 H 0.37297 -0.07394 0.03852
 H2718 H 0.37283 -0.06831 -0.05491
 H2719 H 0.41071 -0.05087 -0.05135
 H2720 H 0.40571 -0.05680 0.02072
 C2721 C 0.30994 1.11496 0.47699
 C2722 C 0.32103 1.10467 0.49560
 C2723 C 0.30914 1.10503 0.51658
 C2724 C 0.28678 1.11481 0.51841
 C2725 C 0.27581 1.12532 0.49977
 C2726 C 0.28813 1.12510 0.47908
 C2727 C 0.31984 1.09605 0.53573
 C2728 C 0.34232 1.08715 0.53462
 C2729 C 0.35492 1.08637 0.51408
 C2730 C 0.34372 1.09462 0.49413
 C2731 C 0.35548 1.09239 0.47329
 C2732 C 0.37763 1.08318 0.47194
 C2733 C 0.38914 1.07588 0.49123
 C2734 C 0.37819 1.07740 0.51265
 C2735 C 0.39119 1.07000 0.53160
 C2736 C 0.41380 1.06113 0.52913
 C2737 C 0.42418 1.05927 0.50776
 C2738 C 0.41164 1.06690 0.48898
 H2739 H 0.31798 1.11628 0.46057
 H2740 H 0.27805 1.11487 0.53469
 H2741 H 0.28160 1.13318 0.46408
 H2742 H 0.31086 1.09622 0.55188
 H2743 H 0.34929 1.08069 0.55020
 H2744 H 0.34788 1.09720 0.45744
 H2745 H 0.38588 1.08180 0.45550
 H2746 H 0.38447 1.07098 0.54856
 H2747 H 0.42305 1.05550 0.54398
 H2748 H 0.41941 1.06589 0.47230
 C2749 C -0.18884 0.61979 0.98447
 C2750 C -0.18235 0.60411 1.00135
 C2751 C -0.19867 0.59966 1.01889
 C2752 C -0.22129 0.60925 1.01824
 C2753 C -0.22841 0.62320 1.00005
 C2754 C -0.21110 0.62917 0.98398
 C2755 C -0.19229 0.58558 1.03688
 C2756 C -0.17019 0.57564 1.03768
 C2757 C -0.15366 0.57886 1.02010
 C2758 C -0.16011 0.59303 1.00143
 C2759 C -0.14448 0.59508 0.98300
 C2760 C -0.12323 0.58399 0.98278
 C2761 C -0.11644 0.57051 1.00092
 C2762 C -0.13117 0.56796 1.02010
 C2763 C -0.12266 0.55447 1.03822
 C2764 C -0.10092 0.54344 1.03678
 C2765 C -0.08717 0.54529 1.01720
 C2766 C -0.09499 0.55922 0.99959
 H2767 H -0.17692 0.62570 0.97156
 H2768 H -0.23364 0.60549 1.03172
 H2769 H -0.21421 0.64148 0.97082
 H2770 H -0.20454 0.58218 1.05053
 H2771 H -0.16676 0.56493 1.05207
 H2772 H -0.14845 0.60456 0.96795
 H2773 H -0.11203 0.58586 0.96804
 H2774 H -0.13240 0.55213 1.05370
 H2775 H -0.09520 0.53293 1.05072
 H2776 H -0.08429 0.56121 0.98452
 C2777 C 0.02982 0.68523 0.61921
 C2778 C 0.01887 0.67902 0.59905
 C2779 C 0.00521 0.69553 0.58783
 C2780 C 0.00243 0.71704 0.59674
 C2781 C 0.01403 0.72331 0.61634
 C2782 C 0.02714 0.70676 0.62776
 C2783 C -0.00599 0.69049 0.56789
 C2784 C -0.00371 0.66945 0.55850
 C2785 C 0.00975 0.65238 0.56890
 C2786 C 0.02069 0.65700 0.58983
 C2787 C 0.03260 0.63933 0.60103
 C2788 C 0.03358 0.61784 0.59223
 C2789 C 0.02337 0.61321 0.57165
 C2790 C 0.01194 0.63059 0.55938
 C2791 C 0.00316 0.62543 0.53797
 C2792 C 0.00423 0.60369 0.52988
 C2793 C 0.01425 0.58622 0.54263
 C2794 C 0.02431 0.59120 0.56334
 H2795 H 0.04053 0.67389 0.62892
 H2796 H -0.00900 0.72895 0.58835
 H2797 H 0.03521 0.71032 0.64370
 H2798 H -0.01666 0.70300 0.55938
 H2799 H -0.01339 0.66695 0.54333
 H2800 H 0.04093 0.64134 0.61702
 H2801 H 0.04248 0.60469 0.60165
 H2802 H -0.00447 0.63780 0.52685
 H2803 H -0.00313 0.60063 0.51350
 H2804 H 0.03255 0.57794 0.57315
 C2805 C 0.52720 0.18130 0.10056
 C2806 C 0.51026 0.17182 0.08655
 C2807 C 0.48991 0.18456 0.08204
 C2808 C 0.48597 0.20501 0.09279
 C2809 C 0.50217 0.21362 0.10800
 C2810 C 0.52339 0.20191 0.11070
 C2811 C 0.47361 0.17690 0.06676
 C2812 C 0.47721 0.15689 0.05558
 C2813 C 0.49698 0.14336 0.05991
 C2814 C 0.51316 0.15041 0.07645
 C2815 C 0.53116 0.13551 0.08299
 C2816 C 0.53342 0.11446 0.07346
 C2817 C 0.51841 0.10779 0.05655
 C2818 C 0.50055 0.12250 0.04892
 C2819 C 0.48697 0.11572 0.03056
 C2820 C 0.48976 0.09450 0.02146
 C2821 C 0.50613 0.07934 0.03029
 C2822 C 0.52083 0.08627 0.04748
 H2823 H 0.54401 0.17363 0.10328
 H2824 H 0.47015 0.21443 0.08936
 H2825 H 0.53762 0.20868 0.12022
 H2826 H 0.45797 0.18656 0.06327
 H2827 H 0.46360 0.15199 0.04430
 H2828 H 0.54316 0.13923 0.09626
 H2829 H 0.54709 0.10329 0.07938
 H2830 H 0.47418 0.12648 0.02271
 H2831 H 0.47844 0.08975 0.00785
 H2832 H 0.53397 0.07483 0.05399
 C2833 C 0.00717 0.20317 0.92671
 C2834 C -0.00211 0.18336 0.91742
 C2835 C -0.01281 0.18513 0.89612
 C2836 C -0.01478 0.20589 0.88519
 C2837 C -0.00697 0.22567 0.89521
 C2838 C 0.00500 0.22384 0.91565
 C2839 C -0.02152 0.16620 0.88564
 C2840 C -0.02034 0.14534 0.89607
 C2841 C -0.01047 0.14263 0.91760
 C2842 C -0.00099 0.16192 0.92838
 C2843 C 0.00903 0.15918 0.94983
 C2844 C 0.00976 0.13838 0.96048
 C2845 C 0.00038 0.11956 0.95033
 C2846 C -0.00990 0.12129 0.92878
 C2847 C -0.01941 0.10156 0.91949
 C2848 C -0.01873 0.08117 0.93121
 C2849 C -0.00854 0.07973 0.95245
 C2850 C 0.00106 0.09898 0.96185
 H2851 H 0.01650 0.20339 0.94232
 H2852 H -0.02261 0.20674 0.86866
 H2853 H 0.01311 0.23831 0.92310
 H2854 H -0.02948 0.16755 0.86920
 H2855 H -0.02748 0.13169 0.88669
 H2856 H 0.01636 0.17283 0.95910
 H2857 H 0.01758 0.13706 0.97699
 H2858 H -0.02766 0.10116 0.90333
 H2859 H -0.02622 0.06647 0.92352
 H2860 H 0.00892 0.09806 0.97837
 C2861 C 0.47251 0.70831 0.39969
 C2862 C 0.48555 0.70432 0.41938
 C2863 C 0.50017 0.72177 0.42692
 C2864 C 0.50138 0.74230 0.41525
 C2865 C 0.48780 0.74642 0.39610
 C2866 C 0.47391 0.72880 0.38819
 C2867 C 0.51411 0.71852 0.44572
 C2868 C 0.51486 0.69781 0.45661
 C2869 C 0.50149 0.67953 0.44909
 C2870 C 0.48558 0.68321 0.43105
 C2871 C 0.47048 0.66560 0.42509
 C2872 C 0.47224 0.64448 0.43506
 C2873 C 0.48910 0.64010 0.45122
 C2874 C 0.50376 0.65758 0.45877
 C2875 C 0.52073 0.65212 0.47507
 C2876 C 0.52314 0.63022 0.48321
 C2877 C 0.50885 0.61304 0.47537
 C2878 C 0.49164 0.61815 0.45960
 H2879 H 0.46183 0.69568 0.39209
 H2880 H 0.51354 0.75489 0.42086
 H2881 H 0.46445 0.73064 0.37260
 H2882 H 0.52499 0.73199 0.45180
 H2883 H 0.52613 0.69675 0.47096
 H2884 H 0.45696 0.66760 0.41277
 H2885 H 0.46060 0.63129 0.42966
 H2886 H 0.53292 0.66414 0.48147
 H2887 H 0.53664 0.62670 0.49539
 H2888 H 0.48032 0.60496 0.45363
 C2889 C 0.49382 0.81207 0.42808
 C2890 C 0.50651 0.82963 0.41736
 C2891 C 0.51319 0.82697 0.39458
 C2892 C 0.50846 0.80697 0.38360
 C2893 C 0.49727 0.78894 0.39483
 C2894 C 0.48897 0.79230 0.41686
 C2895 C 0.52418 0.84441 0.38269
 C2896 C 0.52773 0.86501 0.39267
 C2897 C 0.52089 0.86866 0.41521
 C2898 C 0.51159 0.85020 0.42813
 C2899 C 0.50764 0.85288 0.45138
 C2900 C 0.51032 0.87358 0.46128
 C2901 C 0.51679 0.89230 0.44834
 C2902 C 0.52264 0.89018 0.42523
 C2903 C 0.52891 0.90994 0.41295
 C2904 C 0.52843 0.93091 0.42313
 C2905 C 0.52175 0.93273 0.44571
 C2906 C 0.51671 0.91330 0.45836
 H2907 H 0.48649 0.81346 0.44479
 H2908 H 0.51331 0.80548 0.36599
 H2909 H 0.47841 0.77975 0.42549
 H2910 H 0.52958 0.84231 0.36530
 H2911 H 0.53613 0.87770 0.38232
 H2912 H 0.50263 0.83915 0.46247
 H2913 H 0.50654 0.87507 0.47912
 H2914 H 0.53330 0.90994 0.39528
 H2915 H 0.53249 0.94580 0.41310
 H2916 H 0.51202 0.91458 0.47603
 C2917 C -0.01758 0.29053 0.92893
 C2918 C -0.00665 0.30999 0.91985
 C2919 C 0.00312 0.30875 0.89793
 C2920 C 0.00255 0.28873 0.88611
 C2921 C -0.00689 0.26906 0.89583
 C2922 C -0.01792 0.27059 0.91699
 C2923 C 0.01329 0.32752 0.88764
 C2924 C 0.01367 0.34787 0.89849
 C2925 C 0.00387 0.35019 0.92023
 C2926 C -0.00573 0.33078 0.93141
 C2927 C -0.01391 0.33276 0.95378
 C2928 C -0.01370 0.35322 0.96458
 C2929 C -0.00547 0.37246 0.95350
 C2930 C 0.00345 0.37130 0.93119
 C2931 C 0.01121 0.39145 0.92063
 C2932 C 0.01038 0.41170 0.93189
 C2933 C 0.00168 0.41265 0.95393
 C2934 C -0.00622 0.39297 0.96467
 H2935 H -0.02660 0.29022 0.94493
 H2936 H 0.00931 0.28862 0.86901
 H2937 H -0.02705 0.25633 0.92437
 H2938 H 0.02097 0.32651 0.87092
 H2939 H 0.02210 0.36139 0.88934
 H2940 H -0.02035 0.31869 0.96364
 H2941 H -0.02024 0.35400 0.98174
 H2942 H 0.01764 0.39240 0.90356
 H2943 H 0.01636 0.42676 0.92309
 H2944 H -0.01297 0.39357 0.98178
 C2945 C 0.51861 0.27385 0.06908
 C2946 C 0.49955 0.28857 0.06571
 C2947 C 0.47823 0.28334 0.07686
 C2948 C 0.47683 0.26524 0.09207
 C2949 C 0.49701 0.25335 0.09836
 C2950 C 0.51723 0.25647 0.08504
 C2951 C 0.45873 0.29705 0.07394
 C2952 C 0.46079 0.31753 0.06271
 C2953 C 0.48242 0.32468 0.05366
 C2954 C 0.50134 0.30906 0.05305
 C2955 C 0.52169 0.31501 0.04078
 C2956 C 0.52431 0.33639 0.03136
 C2957 C 0.50720 0.35275 0.03459
 C2958 C 0.48598 0.34713 0.04579
 C2959 C 0.46982 0.36457 0.05012
 C2960 C 0.47467 0.38664 0.04363
 C2961 C 0.49547 0.39197 0.03226
 C2962 C 0.51149 0.37492 0.02737
 H2963 H 0.53528 0.27615 0.06082
 H2964 H 0.46013 0.26148 0.09988
 H2965 H 0.53267 0.24644 0.08824
 H2966 H 0.44209 0.29262 0.08163
 H2967 H 0.44517 0.32760 0.06153
 H2968 H 0.53597 0.30349 0.03822
 H2969 H 0.54038 0.34045 0.02240
 H2970 H 0.45377 0.36188 0.05939
 H2971 H 0.46197 0.39961 0.04740
 H2972 H 0.52770 0.37906 0.01868
 C2973 C 0.01704 0.78577 0.57525
 C2974 C 0.00528 0.80548 0.58219
 C2975 C -0.00618 0.80481 0.60343
 C2976 C -0.00508 0.78561 0.61724
 C2977 C 0.00630 0.76596 0.61016
 C2978 C 0.01773 0.76657 0.58907
 C2979 C -0.01831 0.82348 0.61118
 C2980 C -0.01928 0.84307 0.59840
 C2981 C -0.00778 0.84493 0.57732
 C2982 C 0.00497 0.82594 0.56917
 C2983 C 0.01756 0.82832 0.54869
 C2984 C 0.01826 0.84870 0.53693
 C2985 C 0.00600 0.86733 0.54472
 C2986 C -0.00785 0.86550 0.56459
 C2987 C -0.02100 0.88451 0.57108
 C2988 C -0.01904 0.90482 0.55936
 C2989 C -0.00416 0.90700 0.54059
 C2990 C 0.00782 0.88797 0.53294
 H2991 H 0.02613 0.78462 0.55936
 H2992 H -0.01291 0.78608 0.63392
 H2993 H 0.02787 0.75238 0.58333
 H2994 H -0.02707 0.82300 0.62745
 H2995 H -0.02863 0.85675 0.60602
 H2996 H 0.02768 0.81490 0.54153
 H2997 H 0.02868 0.84990 0.52162
 H2998 H -0.03304 0.88436 0.58511
 H2999 H -0.02914 0.91900 0.56530
 H3000 H 0.01904 0.88931 0.51817
 C3001 C 0.24982 0.30413 0.03918
 C3002 C 0.25097 0.31328 0.06094
 C3003 C 0.24928 0.33695 0.06280
 C3004 C 0.24531 0.35055 0.04380
 C3005 C 0.24569 0.34164 0.02200
 C3006 C 0.24805 0.31810 0.02007
 C3007 C 0.25281 0.34715 0.08344
 C3008 C 0.25929 0.33444 0.10209
 C3009 C 0.26103 0.31080 0.10110
 C3010 C 0.25498 0.29993 0.08076
 C3011 C 0.25253 0.27626 0.08121
 C3012 C 0.25550 0.26380 0.10112
 C3013 C 0.26269 0.27425 0.12079
 C3014 C 0.26717 0.29770 0.12037
 C3015 C 0.27735 0.30729 0.13943
 C3016 C 0.27943 0.29492 0.15929
 C3017 C 0.27127 0.27274 0.16089
 C3018 C 0.26433 0.26190 0.14123
 H3019 H 0.25221 0.28639 0.03634
 H3020 H 0.24417 0.36864 0.04571
 H3021 H 0.24999 0.31021 0.00393
 H3022 H 0.25144 0.36525 0.08501
 H3023 H 0.26177 0.34348 0.11750
 H3024 H 0.24688 0.26714 0.06668
 H3025 H 0.25219 0.24586 0.10109
 H3026 H 0.28347 0.32446 0.13949
 H3027 H 0.28575 0.30336 0.17408
 H3028 H 0.25847 0.24458 0.14219
 C3029 C 0.75663 0.85005 0.55984
 C3030 C 0.76370 0.82741 0.56108
 C3031 C 0.76553 0.81531 0.54079
 C3032 C 0.76269 0.82651 0.51977
 C3033 C 0.75583 0.84936 0.51877
 C3034 C 0.75290 0.86063 0.53931
 C3035 C 0.77015 0.79218 0.54182
 C3036 C 0.77198 0.78083 0.56256
 C3037 C 0.77082 0.79253 0.58308
 C3038 C 0.76834 0.81643 0.58203
 C3039 C 0.77101 0.82880 0.60189
 C3040 C 0.77352 0.81813 0.62253
 C3041 C 0.77302 0.79477 0.62426
 C3042 C 0.77200 0.78144 0.60470
 C3043 C 0.77113 0.75773 0.60786
 C3044 C 0.76988 0.74801 0.62959
 C3045 C 0.76983 0.76160 0.64869
 C3046 C 0.77256 0.78485 0.64572
 H3047 H 0.75319 0.85997 0.57456
 H3048 H 0.76636 0.81749 0.50447
 H3049 H 0.74802 0.87823 0.53951
 H3050 H 0.77162 0.78263 0.52647
 H3051 H 0.77496 0.76293 0.56205
 H3052 H 0.77173 0.84693 0.60193
 H3053 H 0.77503 0.82835 0.63741
 H3054 H 0.77013 0.74642 0.59388
 H3055 H 0.76782 0.72996 0.63140
 H3056 H 0.77303 0.79558 0.66032
 C3057 C 0.24298 0.65836 0.56619
 C3058 C 0.24137 0.68196 0.56516
 C3059 C 0.24671 0.69299 0.54449
 C3060 C 0.25092 0.68037 0.52487
 C3061 C 0.25211 0.65659 0.52595
 C3062 C 0.24864 0.64615 0.54724
 C3063 C 0.24829 0.71651 0.54381
 C3064 C 0.24597 0.72899 0.56349
 C3065 C 0.24030 0.71847 0.58431
 C3066 C 0.23596 0.69483 0.58451
 C3067 C 0.22627 0.68467 0.60403
 C3068 C 0.22367 0.69658 0.62370
 C3069 C 0.23119 0.71879 0.62475
 C3070 C 0.23918 0.73039 0.60510
 C3071 C 0.24713 0.75283 0.60758
 C3072 C 0.24889 0.76240 0.62901
 C3073 C 0.24228 0.75001 0.64826
 C3074 C 0.23214 0.72886 0.64577
 H3075 H 0.24111 0.64891 0.58175
 H3076 H 0.25355 0.68934 0.50914
 H3077 H 0.25027 0.62807 0.54919
 H3078 H 0.25234 0.72526 0.52812
 H3079 H 0.24818 0.74697 0.56188
 H3080 H 0.22028 0.66747 0.60444
 H3081 H 0.21682 0.68792 0.63854
 H3082 H 0.25363 0.76270 0.59349
 H3083 H 0.25684 0.77881 0.63063
 H3084 H 0.22672 0.71936 0.66068
 C3085 C 0.74388 0.14740 0.06969
 C3086 C 0.73766 0.17021 0.07152
 C3087 C 0.73615 0.18333 0.05148
 C3088 C 0.73834 0.17302 0.03016
 C3089 C 0.74333 0.14979 0.02865
 C3090 C 0.74653 0.13756 0.04889
 C3091 C 0.73241 0.20655 0.05306
 C3092 C 0.73070 0.21691 0.07404
 C3093 C 0.73129 0.20419 0.09434
 C3094 C 0.73346 0.18030 0.09279
 C3095 C 0.73072 0.16701 0.11250
 C3096 C 0.72813 0.17668 0.13334
 C3097 C 0.72839 0.19994 0.13549
 C3098 C 0.72968 0.21423 0.11619
 C3099 C 0.73000 0.23780 0.11986
 C3100 C 0.73008 0.24648 0.14182
 C3101 C 0.72967 0.23194 0.16064
 C3102 C 0.72794 0.20878 0.15712
 H3103 H 0.74734 0.13671 0.08408
 H3104 H 0.73565 0.18303 0.01506
 H3105 H 0.75073 0.11979 0.04851
 H3106 H 0.73131 0.21689 0.03793
 H3107 H 0.72824 0.23490 0.07390
 H3108 H 0.72990 0.14890 0.11230
 H3109 H 0.72645 0.16574 0.14805
 H3110 H 0.73113 0.24984 0.10613
 H3111 H 0.73139 0.26448 0.14405
 H3112 H 0.72708 0.19731 0.17148
 C3113 C 0.72295 0.15120 0.94687
 C3114 C 0.73682 0.16976 0.94051
 C3115 C 0.75381 0.17712 0.95588
 C3116 C 0.75534 0.16701 0.97760
 C3117 C 0.74049 0.14906 0.98421
 C3118 C 0.72507 0.14096 0.96781
 C3119 C 0.76953 0.19394 0.94907
 C3120 C 0.76917 0.20298 0.92717
 C3121 C 0.75236 0.19616 0.91143
 C3122 C 0.73518 0.18018 0.91878
 C3123 C 0.71672 0.17504 0.90423
 C3124 C 0.71628 0.18327 0.88238
 C3125 C 0.73398 0.19722 0.87419
 C3126 C 0.75203 0.20446 0.88855
 C3127 C 0.76910 0.21920 0.87906
 C3128 C 0.76847 0.22572 0.85619
 C3129 C 0.75101 0.21757 0.84214
 C3130 C 0.73364 0.20373 0.85149
 H3131 H 0.71115 0.14319 0.93550
 H3132 H 0.76858 0.17263 0.98911
 H3133 H 0.71479 0.12592 0.97050
 H3134 H 0.78269 0.19974 0.96058
 H3135 H 0.78221 0.21547 0.92308
 H3136 H 0.70201 0.16484 0.90935
 H3137 H 0.70202 0.17838 0.87166
 H3138 H 0.78339 0.22555 0.88874
 H3139 H 0.78205 0.23656 0.84935
 H3140 H 0.71974 0.19775 0.84089
 C3141 C 0.23663 0.65707 0.44516
 C3142 C 0.25218 0.67427 0.43847
 C3143 C 0.27001 0.68009 0.45360
 C3144 C 0.27114 0.66965 0.47514
 C3145 C 0.25459 0.65328 0.48220
 C3146 C 0.23791 0.64686 0.46621
 C3147 C 0.28678 0.69597 0.44690
 C3148 C 0.28642 0.70586 0.42540
 C3149 C 0.26882 0.70064 0.40984
 C3150 C 0.25102 0.68510 0.41688
 C3151 C 0.23244 0.68087 0.40214
 C3152 C 0.23215 0.68988 0.38062
 C3153 C 0.24997 0.70394 0.37297
 C3154 C 0.26831 0.71017 0.38743
 C3155 C 0.28531 0.72541 0.37856
 C3156 C 0.28424 0.73340 0.35615
 C3157 C 0.26651 0.72612 0.34198
 C3158 C 0.24934 0.71173 0.35071
 H3159 H 0.22364 0.65032 0.43421
 H3160 H 0.28506 0.67411 0.48643
 H3161 H 0.22576 0.63328 0.46916
 H3162 H 0.30059 0.70054 0.45827
 H3163 H 0.30019 0.71764 0.42144
 H3164 H 0.21754 0.67075 0.40674
 H3165 H 0.21774 0.68569 0.36977
 H3166 H 0.29969 0.73126 0.38842
 H3167 H 0.29760 0.74475 0.34974
 H3168 H 0.23519 0.70652 0.33998
 C3169 C 0.75649 0.85693 0.43322
 C3170 C 0.74401 0.83702 0.42956
 C3171 C 0.73686 0.82401 0.44855
 C3172 C 0.74013 0.83225 0.47057
 C3173 C 0.75270 0.85233 0.47403
 C3174 C 0.76050 0.86438 0.45476
 C3175 C 0.72656 0.80298 0.44525
 C3176 C 0.72408 0.79442 0.42356
 C3177 C 0.73033 0.80733 0.40424
 C3178 C 0.73890 0.82958 0.40750
 C3179 C 0.74156 0.84408 0.38866
 C3180 C 0.73811 0.83654 0.36711
 C3181 C 0.73235 0.81419 0.36340
 C3182 C 0.72820 0.79912 0.38173
 C3183 C 0.72294 0.77646 0.37653
 C3184 C 0.72274 0.76915 0.35408
 C3185 C 0.72737 0.78427 0.33621
 C3186 C 0.73134 0.80690 0.34123
 H3187 H 0.76394 0.86698 0.41971
 H3188 H 0.73257 0.82318 0.48478
 H3189 H 0.76950 0.88028 0.45617
 H3190 H 0.72102 0.79274 0.45958
 H3191 H 0.71649 0.77790 0.42231
 H3192 H 0.74569 0.86168 0.39010
 H3193 H 0.74065 0.84825 0.35312
 H3194 H 0.71991 0.76388 0.38950
 H3195 H 0.71956 0.75156 0.35078
 H3196 H 0.73470 0.81901 0.32776
 C3197 C 0.26633 0.34442 0.94105
 C3198 C 0.25061 0.32726 0.93542
 C3199 C 0.23228 0.32217 0.95079
 C3200 C 0.23141 0.33247 0.97198
 C3201 C 0.24903 0.34750 0.97854
 C3202 C 0.26534 0.35443 0.96193
 C3203 C 0.21498 0.30690 0.94484
 C3204 C 0.21543 0.29676 0.92383
 C3205 C 0.23374 0.30096 0.90821
 C3206 C 0.25208 0.31575 0.91462
 C3207 C 0.27166 0.31834 0.90024
 C3208 C 0.27241 0.30858 0.87934
 C3209 C 0.25385 0.29570 0.87200
 C3210 C 0.23442 0.29112 0.88633
 C3211 C 0.21638 0.27741 0.87776
 C3212 C 0.21730 0.26968 0.85556
 C3213 C 0.23609 0.27546 0.84144
 C3214 C 0.25455 0.28782 0.85003
 H3215 H 0.27919 0.35107 0.92938
 H3216 H 0.21731 0.32843 0.98365
 H3217 H 0.27752 0.36794 0.96478
 H3218 H 0.20079 0.30295 0.95644
 H3219 H 0.20132 0.28540 0.92043
 H3220 H 0.28698 0.32762 0.90483
 H3221 H 0.28759 0.31148 0.86863
 H3222 H 0.20106 0.27299 0.88750
 H3223 H 0.20288 0.26006 0.84917
 H3224 H 0.26936 0.29193 0.83920
 C3225 C 0.82758 0.44281 0.73086
 C3226 C 0.83193 0.42389 0.74501
 C3227 C 0.85058 0.42561 0.76028
 C3228 C 0.86427 0.44521 0.76095
 C3229 C 0.85895 0.46468 0.74796
 C3230 C 0.84088 0.46255 0.73223
 C3231 C 0.85563 0.40773 0.77493
 C3232 C 0.84223 0.38828 0.77524
 C3233 C 0.82341 0.38557 0.76041
 C3234 C 0.81866 0.40334 0.74450
 C3235 C 0.80115 0.39974 0.72840
 C3236 C 0.78887 0.37955 0.72773
 C3237 C 0.79287 0.36234 0.74349
 C3238 C 0.80969 0.36535 0.76049
 C3239 C 0.81199 0.34794 0.77691
 C3240 C 0.79911 0.32801 0.77569
 C3241 C 0.78353 0.32453 0.75808
 C3242 C 0.78029 0.34200 0.74218
 H3243 H 0.81377 0.44306 0.71871
 H3244 H 0.87924 0.44503 0.77189
 H3245 H 0.83666 0.47629 0.72091
 H3246 H 0.87001 0.40888 0.78655
 H3247 H 0.84755 0.37532 0.78697
 H3248 H 0.79692 0.41205 0.71560
 H3249 H 0.77597 0.37744 0.71473
 H3250 H 0.82350 0.34922 0.79104
 H3251 H 0.80194 0.31497 0.78830
 H3252 H 0.76804 0.33973 0.72863
 C3253 C 0.36707 0.93316 0.25752
 C3254 C 0.34262 0.93115 0.25936
 C3255 C 0.32912 0.95093 0.25620
 C3256 C 0.34003 0.97221 0.25388
 C3257 C 0.36458 0.97423 0.25430
 C3258 C 0.37765 0.95409 0.25462
 C3259 C 0.30483 0.94926 0.25542
 C3260 C 0.29372 0.92843 0.25745
 C3261 C 0.30646 0.90840 0.26136
 C3262 C 0.33121 0.91004 0.26351
 C3263 C 0.34373 0.89069 0.27038
 C3264 C 0.33269 0.87012 0.27387
 C3265 C 0.30888 0.86775 0.26999
 C3266 C 0.29539 0.88677 0.26342
 C3267 C 0.27162 0.88309 0.25831
 C3268 C 0.26202 0.86142 0.25911
 C3269 C 0.27542 0.84284 0.26584
 C3270 C 0.29870 0.84624 0.27182
 H3271 H 0.37852 0.91875 0.25778
 H3272 H 0.32924 0.98696 0.25147
 H3273 H 0.39652 0.95472 0.25360
 H3274 H 0.29426 0.96422 0.25296
 H3275 H 0.27494 0.92863 0.25666
 H3276 H 0.36214 0.89112 0.27388
 H3277 H 0.34307 0.85575 0.27913
 H3278 H 0.26034 0.89643 0.25249
 H3279 H 0.24414 0.85906 0.25392
 H3280 H 0.30937 0.83181 0.27635
 C3281 C 0.13492 0.94336 0.74671
 C3282 C 0.15940 0.94288 0.74440
 C3283 C 0.17169 0.96317 0.74797
 C3284 C 0.15949 0.98364 0.75128
 C3285 C 0.13483 0.98416 0.75229
 C3286 C 0.12310 0.96337 0.75064
 C3287 C 0.19608 0.96283 0.74796
 C3288 C 0.20842 0.94279 0.74492
 C3289 C 0.19683 0.92236 0.74058
 C3290 C 0.17197 0.92278 0.73907
 C3291 C 0.16048 0.90332 0.73157
 C3292 C 0.17267 0.88371 0.72686
 C3293 C 0.19667 0.88237 0.73013
 C3294 C 0.20914 0.90154 0.73735
 C3295 C 0.23321 0.89875 0.74185
 C3296 C 0.24410 0.87773 0.73974
 C3297 C 0.23169 0.85905 0.73222
 C3298 C 0.20810 0.86165 0.72695
 H3299 H 0.12437 0.92840 0.74593
 H3300 H 0.16937 0.99902 0.75263
 H3301 H 0.10423 0.96276 0.75178
 H3302 H 0.20577 0.97818 0.75066
 H3303 H 0.22718 0.94395 0.74522
 H3304 H 0.14199 0.90297 0.72846
 H3305 H 0.16305 0.86923 0.72111
 H3306 H 0.24377 0.91221 0.74816
 H3307 H 0.26224 0.87593 0.74440
 H3308 H 0.19823 0.84707 0.72180
 C3309 C 0.64042 0.45091 0.27082
 C3310 C 0.65368 0.44297 0.25249
 C3311 C 0.65449 0.45640 0.23265
 C3312 C 0.64388 0.47792 0.23218
 C3313 C 0.63136 0.48624 0.25102
 C3314 C 0.62936 0.47169 0.26996
 C3315 C 0.66546 0.44800 0.21337
 C3316 C 0.67521 0.42640 0.21331
 C3317 C 0.67532 0.41270 0.23296
 C3318 C 0.66535 0.42171 0.25310
 C3319 C 0.66777 0.40946 0.27346
 C3320 C 0.67834 0.38856 0.27404
 C3321 C 0.68679 0.37884 0.25440
 C3322 C 0.68538 0.39049 0.23347
 C3323 C 0.69382 0.37915 0.21411
 C3324 C 0.70343 0.35735 0.21576
 C3325 C 0.70523 0.34637 0.23674
 C3326 C 0.69672 0.35738 0.25585
 H3327 H 0.63722 0.44093 0.28583
 H3328 H 0.64492 0.48811 0.21692
 H3329 H 0.61874 0.47561 0.28445
 H3330 H 0.66611 0.45804 0.19799
 H3331 H 0.68312 0.42106 0.19774
 H3332 H 0.66230 0.41592 0.28952
 H3333 H 0.67980 0.37984 0.29012
 H3334 H 0.69285 0.38656 0.19747
 H3335 H 0.70966 0.34920 0.20066
 H3336 H 0.69748 0.34905 0.27219
 C3337 C 0.67347 0.54785 0.24690
 C3338 C 0.66383 0.56933 0.25131
 C3339 C 0.63951 0.57055 0.25528
 C3340 C 0.62548 0.55149 0.25317
 C3341 C 0.63499 0.52994 0.24916
 C3342 C 0.65940 0.52852 0.24633
 C3343 C 0.62918 0.59077 0.26163
 C3344 C 0.64256 0.60987 0.26464
 C3345 C 0.66679 0.60980 0.26026
 C3346 C 0.67738 0.58956 0.25227
 C3347 C 0.70078 0.59055 0.24465
 C3348 C 0.71322 0.61071 0.24448
 C3349 C 0.70335 0.63031 0.25318
 C3350 C 0.68045 0.62973 0.26237
 C3351 C 0.67206 0.64923 0.27321
 C3352 C 0.68506 0.66907 0.27302
 C3353 C 0.70661 0.67025 0.26181
 C3354 C 0.71595 0.65067 0.25232
 H3355 H 0.69200 0.54536 0.24478
 H3356 H 0.60676 0.55327 0.25535
 H3357 H 0.66800 0.51260 0.24382
 H3358 H 0.61052 0.59176 0.26468
 H3359 H 0.63321 0.62486 0.26934
 H3360 H 0.70951 0.57619 0.23753
 H3361 H 0.73080 0.61092 0.23758
 H3362 H 0.65556 0.64960 0.28209
 H3363 H 0.67762 0.68392 0.28068
 H3364 H 0.73286 0.65138 0.24398
 C3365 C 0.14522 0.06262 0.72881
 C3366 C 0.15909 0.07036 0.74650
 C3367 C 0.15977 0.05713 0.76649
 C3368 C 0.14827 0.03601 0.76773
 C3369 C 0.13462 0.02815 0.74973
 C3370 C 0.13305 0.04244 0.73057
 C3371 C 0.17137 0.06543 0.78523
 C3372 C 0.18158 0.08682 0.78471
 C3373 C 0.18162 0.10039 0.76496
 C3374 C 0.17131 0.09134 0.74523
 C3375 C 0.17383 0.10336 0.72469
 C3376 C 0.18473 0.12414 0.72361
 C3377 C 0.19327 0.13406 0.74294
 C3378 C 0.19181 0.12254 0.76399
 C3379 C 0.20012 0.13402 0.78309
 C3380 C 0.20942 0.15590 0.78118
 C3381 C 0.21116 0.16692 0.76016
 C3382 C 0.20312 0.15564 0.74117
 H3383 H 0.14228 0.07247 0.71372
 H3384 H 0.14922 0.02599 0.78309
 H3385 H 0.12184 0.03887 0.71665
 H3386 H 0.17202 0.05555 0.80069
 H3387 H 0.18988 0.09212 0.79994
 H3388 H 0.16812 0.09679 0.70887
 H3389 H 0.18620 0.13270 0.70741
 H3390 H 0.19910 0.12673 0.79980
 H3391 H 0.21530 0.16419 0.79619
 H3392 H 0.20394 0.16394 0.72480
 C3393 C 0.33179 0.04092 0.27207
 C3394 C 0.33390 0.05828 0.25547
 C3395 C 0.35166 0.05576 0.23900
 C3396 C 0.36617 0.03672 0.23906
 C3397 C 0.36282 0.01855 0.25442
 C3398 C 0.34612 0.02168 0.27163
 C3399 C 0.35502 0.07224 0.22232
 C3400 C 0.34085 0.09113 0.22122
 C3401 C 0.32268 0.09457 0.23700
 C3402 C 0.31939 0.07810 0.25469
 C3403 C 0.30189 0.08215 0.27103
 C3404 C 0.28843 0.10167 0.27044
 C3405 C 0.29138 0.11781 0.25330
 C3406 C 0.30812 0.11427 0.23600
 C3407 C 0.30964 0.13075 0.21850
 C3408 C 0.29619 0.15042 0.21899
 C3409 C 0.28062 0.15448 0.23681
 C3410 C 0.27796 0.13771 0.25365
 H3411 H 0.31913 0.04159 0.28557
 H3412 H 0.38023 0.03639 0.22679
 H3413 H 0.34385 0.00891 0.28465
 H3414 H 0.36875 0.07044 0.20977
 H3415 H 0.34492 0.10298 0.20788
 H3416 H 0.29838 0.07063 0.28482
 H3417 H 0.27553 0.10419 0.28365
 H3418 H 0.32115 0.12910 0.20418
 H3419 H 0.29858 0.16284 0.20564
 H3420 H 0.26581 0.14036 0.26747
 C3421 C 0.86456 0.55002 0.74449
 C3422 C 0.84039 0.55233 0.74108
 C3423 C 0.82620 0.53315 0.74523
 C3424 C 0.83638 0.51192 0.75008
 C3425 C 0.86084 0.50933 0.75015
 C3426 C 0.87443 0.52909 0.74892
 C3427 C 0.80199 0.53521 0.74389
 C3428 C 0.79161 0.55577 0.73835
 C3429 C 0.80512 0.57514 0.73329
 C3430 C 0.82995 0.57312 0.73396
 C3431 C 0.84362 0.59173 0.72687
 C3432 C 0.83350 0.61210 0.72070
 C3433 C 0.80939 0.61494 0.72152
 C3434 C 0.79476 0.59649 0.72764
 C3435 C 0.77043 0.60054 0.72873
 C3436 C 0.76138 0.62218 0.72536
 C3437 C 0.77605 0.64037 0.72007
 C3438 C 0.79995 0.63647 0.71731
 H3439 H 0.87644 0.56404 0.74362
 H3440 H 0.82517 0.49756 0.75304
 H3441 H 0.89326 0.52809 0.74994
 H3442 H 0.79090 0.52073 0.74708
 H3443 H 0.77285 0.55578 0.73761
 H3444 H 0.86235 0.59099 0.72548
 H3445 H 0.84477 0.62598 0.71571
 H3446 H 0.75801 0.58768 0.73340
 H3447 H 0.74287 0.62496 0.72800
 H3448 H 0.81144 0.65062 0.71384
 C3449 C 0.93010 0.73812 0.13235
 C3450 C 0.92524 0.75502 0.14810
 C3451 C 0.94422 0.76573 0.15851
 C3452 C 0.96708 0.76108 0.15165
 C3453 C 0.97187 0.74462 0.13547
 C3454 C 0.95289 0.73317 0.12608
 C3455 C 0.94023 0.78132 0.17543
 C3456 C 0.91772 0.78559 0.18306
 C3457 C 0.89835 0.77518 0.17314
 C3458 C 0.90214 0.76123 0.15415
 C3459 C 0.88276 0.75421 0.14163
 C3460 C 0.86023 0.75875 0.14883
 C3461 C 0.85631 0.76954 0.16916
 C3462 C 0.87528 0.77799 0.18165
 C3463 C 0.87053 0.78734 0.20296
 C3464 C 0.84800 0.78703 0.21191
 C3465 C 0.82965 0.77833 0.19950
 C3466 C 0.83360 0.77061 0.17778
 H3467 H 0.91661 0.72832 0.12466
 H3468 H 0.98126 0.77083 0.15844
 H3469 H 0.95527 0.72110 0.11282
 H3470 H 0.95468 0.78985 0.18326
 H3471 H 0.91592 0.79767 0.19633
 H3472 H 0.88455 0.74550 0.12591
 H3473 H 0.84576 0.75272 0.13899
 H3474 H 0.88404 0.79341 0.21379
 H3475 H 0.84499 0.79288 0.22889
 H3476 H 0.81927 0.76349 0.16847
 C3477 C 0.42886 0.26484 0.62113
 C3478 C 0.42514 0.27627 0.64142
 C3479 C 0.44486 0.28311 0.65372
 C3480 C 0.46742 0.27962 0.64510
 C3481 C 0.47102 0.26698 0.62555
 C3482 C 0.45126 0.26035 0.61341
 C3483 C 0.44190 0.29297 0.67472
 C3484 C 0.41985 0.29437 0.68457
 C3485 C 0.39987 0.28709 0.67307
 C3486 C 0.40243 0.28009 0.65036
 C3487 C 0.38225 0.27691 0.63741
 C3488 C 0.36023 0.27799 0.64714
 C3489 C 0.35768 0.28141 0.67016
 C3490 C 0.37743 0.28614 0.68351
 C3491 C 0.37412 0.28802 0.70703
 C3492 C 0.35222 0.28442 0.71682
 C3493 C 0.33301 0.27961 0.70344
 C3494 C 0.33561 0.27898 0.68009
 H3495 H 0.41481 0.25835 0.61122
 H3496 H 0.48225 0.28636 0.65390
 H3497 H 0.45294 0.25186 0.59750
 H3498 H 0.45685 0.29864 0.68409
 H3499 H 0.41884 0.30163 0.70108
 H3500 H 0.38299 0.27383 0.61958
 H3501 H 0.34515 0.27497 0.63675
 H3502 H 0.38833 0.29085 0.71837
 H3503 H 0.35036 0.28501 0.73497
 H3504 H 0.32069 0.27500 0.66979
 C3505 C 0.45252 0.71641 0.85797
 C3506 C 0.44445 0.73557 0.84614
 C3507 C 0.45752 0.75566 0.84764
 C3508 C 0.47666 0.75679 0.86194
 C3509 C 0.48397 0.73796 0.87467
 C3510 C 0.47210 0.71749 0.87155
 C3511 C 0.45159 0.77450 0.83471
 C3512 C 0.43308 0.77373 0.81995
 C3513 C 0.41920 0.75424 0.81824
 C3514 C 0.42423 0.73529 0.83242
 C3515 C 0.40845 0.71706 0.83305
 C3516 C 0.38843 0.71732 0.82013
 C3517 C 0.38389 0.73527 0.80546
 C3518 C 0.39976 0.75350 0.80359
 C3519 C 0.39546 0.77033 0.78711
 C3520 C 0.37516 0.77008 0.77456
 C3521 C 0.35852 0.75312 0.77799
 C3522 C 0.36327 0.73538 0.79300
 H3523 H 0.44470 0.70004 0.85626
 H3524 H 0.48626 0.77244 0.86309
 H3525 H 0.47804 0.70184 0.87892
 H3526 H 0.46152 0.78994 0.83583
 H3527 H 0.42941 0.78910 0.81079
 H3528 H 0.41050 0.70280 0.84428
 H3529 H 0.37638 0.70332 0.82164
 H3530 H 0.40751 0.78384 0.78345
 H3531 H 0.37213 0.78378 0.76272
 H3532 H 0.35073 0.72187 0.79529
 C3533 C 0.94819 0.27331 0.34556
 C3534 C 0.93298 0.25484 0.34337
 C3535 C 0.93843 0.23466 0.35517
 C3536 C 0.95876 0.23297 0.36788
 C3537 C 0.97339 0.25168 0.37065
 C3538 C 0.96800 0.27163 0.35876
 C3539 C 0.92355 0.21619 0.35426
 C3540 C 0.90269 0.21764 0.34279
 C3541 C 0.89630 0.23751 0.33111
 C3542 C 0.91239 0.25584 0.33019
 C3543 C 0.90752 0.27440 0.31589
 C3544 C 0.88702 0.27555 0.30382
 C3545 C 0.87030 0.25868 0.30609
 C3546 C 0.87449 0.23956 0.32002
 C3547 C 0.85632 0.22364 0.32289
 C3548 C 0.83510 0.22656 0.31205
 C3549 C 0.83145 0.24515 0.29781
 C3550 C 0.84918 0.26106 0.29476
 H3551 H 0.94504 0.28949 0.33778
 H3552 H 0.96309 0.21680 0.37529
 H3553 H 0.97927 0.28618 0.35983
 H3554 H 0.92782 0.20057 0.36296
 H3555 H 0.89217 0.20263 0.34286
 H3556 H 0.91953 0.28812 0.31320
 H3557 H 0.88399 0.29008 0.29298
 H3558 H 0.85763 0.20922 0.33400
 H3559 H 0.82148 0.21418 0.31486
 H3560 H 0.84625 0.27575 0.28410
 C3561 C 0.03394 0.23505 0.33236
 C3562 C 0.04888 0.25379 0.32956
 C3563 C 0.04536 0.27234 0.34390
 C3564 C 0.02819 0.27163 0.36076
 C3565 C 0.01509 0.25199 0.36496
 C3566 C 0.01726 0.23437 0.34953
 C3567 C 0.05941 0.29137 0.34176
 C3568 C 0.07852 0.29148 0.32730
 C3569 C 0.08399 0.27256 0.31420
 C3570 C 0.06782 0.25432 0.31383
 C3571 C 0.07162 0.23693 0.29830
 C3572 C 0.09190 0.23609 0.28541
 C3573 C 0.10928 0.25218 0.28796
 C3574 C 0.10546 0.27089 0.30208
 C3575 C 0.12401 0.28624 0.30485
 C3576 C 0.14572 0.28241 0.29496
 C3577 C 0.14948 0.26351 0.28167
 C3578 C 0.13096 0.24897 0.27743
 H3579 H 0.03518 0.22029 0.32212
 H3580 H 0.02533 0.28653 0.37064
 H3581 H 0.00631 0.21959 0.35125
 H3582 H 0.05625 0.30596 0.35211
 H3583 H 0.08878 0.30665 0.32682
 H3584 H 0.05930 0.22355 0.29583
 H3585 H 0.09449 0.22207 0.27419
 H3586 H 0.12279 0.30063 0.31561
 H3587 H 0.15981 0.29402 0.29819
 H3588 H 0.13387 0.23427 0.26717
 C3589 C 0.55567 0.77153 0.85649
 C3590 C 0.56169 0.75588 0.83977
 C3591 C 0.54735 0.73672 0.83760
 C3592 C 0.52974 0.73215 0.85339
 C3593 C 0.52555 0.74650 0.87160
 C3594 C 0.53772 0.76706 0.87187
 C3595 C 0.55099 0.72186 0.82004
 C3596 C 0.56934 0.72505 0.80502
 C3597 C 0.58534 0.74283 0.80761
 C3598 C 0.58161 0.75837 0.82543
 C3599 C 0.59875 0.77484 0.82939
 C3600 C 0.61945 0.77535 0.81713
 C3601 C 0.62345 0.76007 0.79999
 C3602 C 0.60590 0.74453 0.79406
 C3603 C 0.61012 0.73069 0.77531
 C3604 C 0.63185 0.73048 0.76471
 C3605 C 0.64990 0.74413 0.77233
 C3606 C 0.64532 0.75957 0.78934
 H3607 H 0.56423 0.78758 0.85786
 H3608 H 0.51954 0.71689 0.85195
 H3609 H 0.53355 0.78005 0.88376
 H3610 H 0.53977 0.70736 0.81812
 H3611 H 0.57132 0.71237 0.79238
 H3612 H 0.59738 0.78669 0.84288
 H3613 H 0.63268 0.78751 0.82148
 H3614 H 0.59712 0.71969 0.76856
 H3615 H 0.63475 0.71886 0.75109
 H3616 H 0.65903 0.77071 0.79484
 C3617 C 0.53089 0.24477 0.66732
 C3618 C 0.55402 0.24610 0.65883
 C3619 C 0.55724 0.25300 0.63614
 C3620 C 0.53835 0.26002 0.62331
 C3621 C 0.51539 0.25933 0.63187
 C3622 C 0.51190 0.25068 0.65383
 C3623 C 0.57927 0.25260 0.62608
 C3624 C 0.59839 0.24509 0.63801
 C3625 C 0.59629 0.23868 0.66088
 C3626 C 0.57402 0.24033 0.67180
 C3627 C 0.57273 0.23722 0.69538
 C3628 C 0.59270 0.23316 0.70790
 C3629 C 0.61438 0.23078 0.69727
 C3630 C 0.61615 0.23210 0.67349
 C3631 C 0.63789 0.22715 0.66327
 C3632 C 0.65765 0.22377 0.67623
 C3633 C 0.65632 0.22522 0.69968
 C3634 C 0.63451 0.22785 0.71020
 H3635 H 0.52690 0.23811 0.68390
 H3636 H 0.54145 0.26547 0.60605
 H3637 H 0.49456 0.24772 0.66053
 H3638 H 0.58175 0.25789 0.60866
 H3639 H 0.61489 0.24567 0.62915
 H3640 H 0.55666 0.23920 0.70475
 H3641 H 0.59118 0.23196 0.72608
 H3642 H 0.64017 0.22585 0.64529
 H3643 H 0.67426 0.22121 0.66776
 H3644 H 0.63333 0.22826 0.72842
 C3645 C 0.03309 0.73475 0.17830
 C3646 C 0.05596 0.73618 0.16927
 C3647 C 0.05856 0.73951 0.14576
 C3648 C 0.03920 0.74323 0.13237
 C3649 C 0.01647 0.74222 0.14134
 C3650 C 0.01368 0.73709 0.16442
 C3651 C 0.08046 0.73881 0.13549
 C3652 C 0.10003 0.73430 0.14808
 C3653 C 0.09845 0.73149 0.17165
 C3654 C 0.07634 0.73387 0.18259
 C3655 C 0.07555 0.73497 0.20632
 C3656 C 0.09594 0.73433 0.21883
 C3657 C 0.11752 0.73108 0.20824
 C3658 C 0.11869 0.72799 0.18468
 C3659 C 0.14021 0.72185 0.17490
 C3660 C 0.16039 0.72203 0.18744
 C3661 C 0.15975 0.72828 0.21010
 C3662 C 0.13812 0.73168 0.22077
 H3663 H 0.02974 0.73065 0.19579
 H3664 H 0.04171 0.74627 0.11446
 H3665 H -0.00336 0.73426 0.17187
 H3666 H 0.08246 0.74142 0.11746
 H3667 H 0.11644 0.73442 0.13902
 H3668 H 0.05951 0.73781 0.21551
 H3669 H 0.09482 0.73645 0.23689
 H3670 H 0.14194 0.71691 0.15755
 H3671 H 0.17671 0.71831 0.17891
 H3672 H 0.13736 0.73557 0.23853
   
