data_POSCAR
  _audit_creation_date              2014-09-24
  _audit_creation_method            'ToBaCCo'
  _symmetry_space_group_name_H-M    'P1'
  _symmetry_Int_Tables_number       1
  _symmetry_cell_setting            triclinic
  loop_
  _symmetry_equiv_pos_as_xyz
 x,y,z
_cell_length_a 64.5366
_cell_length_b 64.4601
_cell_length_c 64.5049
_cell_angle_alpha 90.018800
_cell_angle_beta 89.991400
_cell_angle_gamma 90.067800
loop_
  _atom_site_label
  _atom_site_type_symbol
  _atom_site_fract_x
  _atom_site_fract_y
  _atom_site_fract_z
C1 C 0.29854 0.43726 0.92212
 C2 C 0.29793 0.42258 0.93816
 C3 C 0.31278 0.42302 0.95356
 C4 C 0.32853 0.43801 0.95309
 C5 C 0.32921 0.45236 0.93728
 C6 C 0.31407 0.45202 0.92166
 C7 C 0.28685 0.43982 0.90448
 N8 N 0.29492 0.45576 0.89321
 C9 C 0.31163 0.46325 0.90370
 C10 C 0.34696 0.46387 0.93991
 N11 N 0.35739 0.45686 0.95697
 C12 C 0.34590 0.44097 0.96505
 C13 C 0.30945 0.40606 0.96604
 N14 N 0.29305 0.39510 0.95851
 C15 C 0.28589 0.40525 0.94145
 H16 H 0.27352 0.43057 0.90021
 H17 H 0.32183 0.47547 0.89837
 H18 H 0.35200 0.47590 0.92941
 H19 H 0.34976 0.43164 0.97839
 H20 H 0.31877 0.40185 0.97931
 H21 H 0.27358 0.39991 0.93139
 C22 C 0.43725 0.82906 0.45135
 C23 C 0.42285 0.81275 0.45212
 C24 C 0.42367 0.79705 0.43757
 C25 C 0.43874 0.79753 0.42193
 C26 C 0.45279 0.81369 0.42105
 C27 C 0.45208 0.82952 0.43598
 C28 C 0.43953 0.84686 0.46288
 N29 N 0.45553 0.85834 0.45502
 C30 C 0.46315 0.84758 0.43842
 C31 C 0.46428 0.81109 0.40326
 N32 N 0.45754 0.79375 0.39324
 C33 C 0.44196 0.78535 0.40473
 C34 C 0.40694 0.78430 0.44099
 N35 N 0.39575 0.79192 0.45717
 C36 C 0.40553 0.80932 0.46410
 H37 H 0.42987 0.85087 0.47594
 H38 H 0.47557 0.85240 0.42827
 H39 H 0.47595 0.82172 0.39756
 H40 H 0.43318 0.77161 0.40078
 H41 H 0.40301 0.77077 0.43188
 H42 H 0.39992 0.81950 0.47620
 C43 C 0.93605 0.92010 0.79926
 C44 C 0.92048 0.93526 0.79929
 C45 C 0.91997 0.95008 0.81476
 C46 C 0.93513 0.95001 0.83035
 C47 C 0.95044 0.93513 0.83026
 C48 C 0.95087 0.92001 0.81461
 C49 C 0.93941 0.90293 0.78708
 N50 N 0.95599 0.89211 0.79461
 C51 C 0.96304 0.90279 0.81152
 C52 C 0.96227 0.93816 0.84772
 N53 N 0.95462 0.95462 0.85867
 C54 C 0.93790 0.96185 0.84786
 C55 C 0.90245 0.96183 0.81169
 N56 N 0.89227 0.95457 0.79468
 C57 C 0.90333 0.93831 0.78702
 H58 H 0.92975 0.89860 0.77411
 H59 H 0.97573 0.89839 0.82150
 H60 H 0.97526 0.92853 0.85199
 H61 H 0.92791 0.97454 0.85227
 H62 H 0.89716 0.97422 0.82168
 H63 H 0.89921 0.92911 0.77361
 C64 C 0.43620 -0.07914 0.29783
 C65 C 0.42038 -0.06424 0.29820
 C66 C 0.41983 -0.04954 0.31378
 C67 C 0.43522 -0.04943 0.32914
 C68 C 0.45088 -0.06402 0.32865
 C69 C 0.45130 -0.07904 0.31291
 C70 C 0.43950 -0.09632 0.28564
 N71 N 0.45628 -0.10699 0.29295
 C72 C 0.46356 -0.09616 0.30966
 C73 C 0.46294 -0.06093 0.34595
 N74 N 0.45498 -0.04484 0.35706
 C75 C 0.43798 -0.03776 0.34679
 C76 C 0.40212 -0.03802 0.31098
 N77 N 0.39187 -0.04531 0.29403
 C78 C 0.40305 -0.06137 0.28615
 H79 H 0.42960 -0.10082 0.27292
 H80 H 0.47640 -0.10046 0.31949
 H81 H 0.47644 -0.06994 0.35010
 H82 H 0.42782 -0.02551 0.35207
 H83 H 0.39679 -0.02573 0.32108
 H84 H 0.39892 -0.07051 0.27270
 C85 C 0.79674 0.31299 0.32700
 C86 C 0.79744 0.32880 0.31210
 C87 C 0.81360 0.32964 0.29808
 C88 C 0.82920 0.31452 0.29862
 C89 C 0.82847 0.29888 0.31326
 C90 C 0.81217 0.29819 0.32766
 C91 C 0.78400 0.30964 0.34375
 N92 N 0.79140 0.29326 0.35482
 C93 C 0.80862 0.28613 0.34491
 C94 C 0.84603 0.28707 0.31078
 N95 N 0.85750 0.29513 0.29498
 C96 C 0.84724 0.31201 0.28755
 C97 C 0.81117 0.34752 0.28668
 N98 N 0.79391 0.35760 0.29343
 C99 C 0.78543 0.34610 0.30896
 H100 H 0.77068 0.31895 0.34779
 H101 H 0.81864 0.27387 0.35042
 H102 H 0.85005 0.27359 0.31989
 H103 H 0.85270 0.32219 0.27539
 H104 H 0.82179 0.35317 0.27499
 H105 H 0.77169 0.35008 0.31769
 C106 C -0.18586 0.82931 0.79797
 C107 C -0.17058 0.81386 0.79811
 C108 C -0.17128 0.79824 0.81276
 C109 C -0.18723 0.79792 0.82755
 C110 C -0.20220 0.81314 0.82741
 C111 C -0.20153 0.82894 0.81247
 C112 C -0.18843 0.84697 0.78632
 N113 N -0.20536 0.85760 0.79333
 C114 C -0.21336 0.84638 0.80944
 C115 C -0.21468 0.80990 0.84437
 N116 N -0.20770 0.79303 0.85513
 C117 C -0.19085 0.78565 0.84460
 C118 C -0.15391 0.78621 0.81001
 N119 N -0.14255 0.79416 0.79408
 C120 C -0.15275 0.81112 0.78675
 H121 H -0.17811 0.85166 0.77400
 H122 H -0.22661 0.85044 0.81881
 H123 H -0.22753 0.81976 0.84856
 H124 H -0.18109 0.77285 0.84917
 H125 H -0.14983 0.77277 0.81917
 H126 H -0.14727 0.82131 0.77460
 C127 C 0.95219 0.32913 0.43664
 C128 C 0.95286 0.31324 0.42179
 C129 C 0.93868 0.29721 0.42261
 C130 C 0.92349 0.29693 0.43814
 C131 C 0.92267 0.31269 0.45262
 C132 C 0.93723 0.32888 0.45190
 C133 C 0.96340 0.34710 0.43906
 N134 N 0.95577 0.35801 0.45555
 C135 C 0.93961 0.34672 0.46335
 C136 C 0.90521 0.30943 0.46446
 N137 N 0.89536 0.29209 0.45749
 C138 C 0.90663 0.28433 0.44143
 C139 C 0.94187 0.28497 0.40547
 N140 N 0.95758 0.29321 0.39405
 C141 C 0.96443 0.31050 0.40406
 H142 H 0.97594 0.35173 0.42898
 H143 H 0.92987 0.35092 0.47630
 H144 H 0.89956 0.31967 0.47648
 H145 H 0.90268 0.27079 0.43234
 H146 H 0.93297 0.27131 0.40147
 H147 H 0.97621 0.32103 0.39839
 C148 C 0.45210 0.43694 0.82902
 C149 C 0.45274 0.42229 0.81294
 C150 C 0.43828 0.42308 0.79718
 C151 C 0.42284 0.43835 0.79738
 C152 C 0.42209 0.45264 0.81331
 C153 C 0.43692 0.45197 0.82921
 C154 C 0.46354 0.43933 0.84684
 N155 N 0.45582 0.45557 0.85806
 C156 C 0.43939 0.46325 0.84712
 C157 C 0.40446 0.46430 0.81052
 N158 N 0.39442 0.45743 0.79326
 C159 C 0.40574 0.44159 0.78511
 C160 C 0.44154 0.40612 0.78468
 N161 N 0.45755 0.39484 0.79251
 C162 C 0.46452 0.40477 0.80980
 H163 H 0.47636 0.42947 0.85110
 H164 H 0.42943 0.47591 0.85167
 H165 H 0.39888 0.47617 0.82097
 H166 H 0.40170 0.43265 0.77151
 H167 H 0.43246 0.40214 0.77117
 H168 H 0.47650 0.39916 0.82008
 C169 C 0.79763 0.92188 0.93670
 C170 C 0.79782 0.93683 0.92090
 C171 C 0.81330 0.95164 0.92032
 C172 C 0.82876 0.95178 0.93562
 C173 C 0.82850 0.93713 0.95116
 C174 C 0.81285 0.92202 0.95167
 C175 C 0.78554 0.90464 0.94014
 N176 N 0.79303 0.89401 0.95687
 C177 C 0.80978 0.90489 0.96398
 C178 C 0.84591 0.94018 0.96302
 N179 N 0.85702 0.95645 0.95517
 C180 C 0.84635 0.96354 0.93830
 C181 C 0.81046 0.96310 0.90256
 N182 N 0.79358 0.95567 0.89229
 C183 C 0.78577 0.93958 0.90353
 H184 H 0.77279 0.90003 0.93032
 H185 H 0.81967 0.90068 0.97680
 H186 H 0.85007 0.93062 0.97611
 H187 H 0.85093 0.97605 0.92815
 H188 H 0.82054 0.97538 0.89716
 H189 H 0.77243 0.93030 0.89938
 C190 C 0.29730 0.82861 0.31178
 C191 C 0.29677 0.81295 0.32686
 C192 C 0.31212 0.79805 0.32737
 C193 C 0.32816 0.79852 0.31270
 C194 C 0.32867 0.81397 0.29787
 C195 C 0.31311 0.82915 0.29745
 C196 C 0.28533 0.84595 0.30864
 N197 N 0.29341 0.85728 0.29264
 C198 C 0.31048 0.84679 0.28577
 C199 C 0.34659 0.81138 0.28662
 N200 N 0.35699 0.79464 0.29415
 C201 C 0.34572 0.78672 0.31015
 C202 C 0.30872 0.78605 0.34468
 N203 N 0.29164 0.79327 0.35476
 C204 C 0.28422 0.80969 0.34377
 H205 H 0.27201 0.84992 0.31794
 H206 H 0.32093 0.85164 0.27362
 H207 H 0.35192 0.82147 0.27433
 H208 H 0.34991 0.77341 0.31943
 H209 H 0.31869 0.77369 0.35005
 H210 H 0.27094 0.81904 0.34792
 C211 C 0.79808 0.42336 0.43837
 C212 C 0.79841 0.43812 0.42239
 C213 C 0.81390 0.45292 0.42178
 C214 C 0.82926 0.45323 0.43717
 C215 C 0.82886 0.43881 0.45292
 C216 C 0.81316 0.42376 0.45355
 C217 C 0.78609 0.40603 0.44182
 N218 N 0.79349 0.39585 0.45876
 C219 C 0.81001 0.40679 0.46605
 C220 C 0.84634 0.44183 0.46469
 N221 N 0.85765 0.45782 0.45656
 C222 C 0.84699 0.46482 0.43964
 C223 C 0.81115 0.46425 0.40393
 N224 N 0.79429 0.45680 0.39366
 C225 C 0.78643 0.44078 0.40496
 H226 H 0.77360 0.40073 0.43196
 H227 H 0.81950 0.40256 0.47920
 H228 H 0.85045 0.43238 0.47788
 H229 H 0.85175 0.47704 0.42922
 H230 H 0.82125 0.47652 0.39853
 H231 H 0.77306 0.43152 0.40085
 C232 C 0.93673 0.82815 -0.04862
 C233 C 0.92215 0.81199 -0.04832
 C234 C 0.92282 0.79669 -0.06329
 C235 C 0.93798 0.79737 -0.07885
 C236 C 0.95223 0.81329 -0.07924
 C237 C 0.95164 0.82881 -0.06399
 C238 C 0.93913 0.84569 -0.03671
 N239 N 0.95512 0.85709 -0.04446
 C240 C 0.96280 0.84680 -0.06121
 C241 C 0.96400 0.81078 -0.09684
 N242 N 0.95725 0.79368 -0.10743
 C243 C 0.94125 0.78547 -0.09620
 C244 C 0.90598 0.78399 -0.06019
 N245 N 0.89488 0.79127 -0.04379
 C246 C 0.90481 0.80841 -0.03643
 H247 H 0.92976 0.84978 -0.02343
 H248 H 0.97512 0.85225 -0.07119
 H249 H 0.97612 0.82132 -0.10160
 H250 H 0.93201 0.77210 -0.10026
 H251 H 0.90195 0.77071 -0.06962
 H252 H 0.89931 0.81830 -0.02405
 C253 C 0.29746 0.32778 0.81201
 C254 C 0.29667 0.31189 0.82687
 C255 C 0.31062 0.29569 0.82590
 C256 C 0.32571 0.29523 0.81027
 C257 C 0.32660 0.31094 0.79575
 C258 C 0.31227 0.32727 0.79654
 C259 C 0.28658 0.34598 0.80973
 N260 N 0.29430 0.35654 0.79316
 C261 C 0.31008 0.34512 0.78507
 C262 C 0.34407 0.30764 0.78395
 N263 N 0.35388 0.29032 0.79098
 C264 C 0.34253 0.28259 0.80702
 C265 C 0.30738 0.28346 0.84304
 N266 N 0.29185 0.29185 0.85459
 C267 C 0.28519 0.30926 0.84467
 H268 H 0.27437 0.35134 0.81988
 H269 H 0.31942 0.34936 0.77180
 H270 H 0.34982 0.31791 0.77200
 H271 H 0.34647 0.26914 0.81621
 H272 H 0.31610 0.26968 0.84693
 H273 H 0.27359 0.31989 0.85044
 C274 C 0.17410 0.56143 0.54619
 C275 C 0.18892 0.57734 0.54686
 C276 C 0.20427 0.57706 0.56179
 C277 C 0.20495 0.56094 0.57637
 C278 C 0.19043 0.54520 0.57562
 C279 C 0.17493 0.54542 0.56039
 C280 C 0.15639 0.55870 0.53463
 N281 N 0.14637 0.54140 0.54146
 C282 C 0.15777 0.53319 0.55719
 C283 C 0.19354 0.53285 0.59271
 N284 N 0.20947 0.54079 0.60405
 C285 C 0.21658 0.55795 0.59400
 C286 C 0.21566 0.59495 0.55949
 N287 N 0.20762 0.60620 0.54354
 C288 C 0.19117 0.59545 0.53581
 H289 H 0.15073 0.56924 0.52288
 H290 H 0.15375 0.51955 0.56610
 H291 H 0.18431 0.51945 0.59681
 H292 H 0.22848 0.56834 0.59967
 H293 H 0.22881 0.59937 0.56891
 H294 H 0.18104 0.60065 0.52351
 C295 C 0.57751 0.68802 0.04651
 C296 C 0.56171 0.67306 0.04597
 C297 C 0.54561 0.67404 0.06004
 C298 C 0.54516 0.68983 0.07499
 C299 C 0.56079 0.70446 0.07564
 C300 C 0.57702 0.70363 0.06120
 C301 C 0.59566 0.69025 0.03555
 N302 N 0.60621 0.70691 0.04310
 C303 C 0.59483 0.71513 0.05886
 C304 C 0.55759 0.71639 0.09305
 N305 N 0.54040 0.70934 0.10307
 C306 C 0.53266 0.69316 0.09192
 C307 C 0.53351 0.65673 0.05705
 N308 N 0.54189 0.64510 0.04157
 C309 C 0.55916 0.65511 0.03469
 H310 H 0.60102 0.67998 0.02341
 H311 H 0.59911 0.72847 0.06809
 H312 H 0.56786 0.72844 0.09861
 H313 H 0.51929 0.68391 0.09605
 H314 H 0.51984 0.65278 0.06592
 H315 H 0.56979 0.64931 0.02309
 C316 C 0.68698 0.20251 0.67163
 C317 C 0.67126 0.20185 0.68664
 C318 C 0.67183 0.18706 0.70214
 C319 C 0.68809 0.17264 0.70282
 C320 C 0.70365 0.17343 0.68815
 C321 C 0.70310 0.18846 0.67248
 C322 C 0.68955 0.21398 0.65381
 N323 N 0.70684 0.20721 0.64378
 C324 C 0.71522 0.19162 0.65525
 C325 C 0.71629 0.15661 0.69137
 N326 N 0.70872 0.14534 0.70753
 C327 C 0.69149 0.15521 0.71468
 C328 C 0.65413 0.18941 0.71380
 N329 N 0.64275 0.20528 0.70579
 C330 C 0.65318 0.21288 0.68909
 H331 H 0.67899 0.22569 0.64813
 H332 H 0.72893 0.18285 0.65126
 H333 H 0.72966 0.15264 0.68208
 H334 H 0.68136 0.14954 0.72678
 H335 H 0.64996 0.18015 0.72714
 H336 H 0.64781 0.22513 0.67898
 C337 C 1.07519 0.06110 0.20436
 C338 C 1.05941 0.07605 0.20451
 C339 C 1.04417 0.07560 0.18950
 C340 C 1.04452 0.06029 0.17405
 C341 C 1.06009 0.04568 0.17381
 C342 C 1.07556 0.04605 0.18911
 C343 C 1.09273 0.05861 0.21618
 N344 N 1.10391 0.04246 0.20847
 C345 C 1.09342 0.03474 0.19185
 C346 C 1.05750 0.03397 0.15617
 N347 N 1.04069 0.04109 0.14540
 C348 C 1.03274 0.05726 0.15657
 C349 C 1.03203 0.09289 0.19233
 N350 N 1.03962 0.10404 0.20858
 C351 C 1.05638 0.09369 0.21613
 H352 H 1.09704 0.06814 0.22930
 H353 H 1.09872 0.02235 0.18185
 H354 H 1.06780 0.02164 0.15150
 H355 H 1.01975 0.06688 0.15229
 H356 H 1.01896 0.09720 0.18277
 H357 H 1.06645 0.09909 0.22841
 C358 C 0.06128 0.17360 1.04657
 C359 C 0.07729 0.18834 1.04690
 C360 C 0.07764 0.20345 1.06210
 C361 C 0.06196 0.20409 1.07715
 C362 C 0.04618 0.18969 1.07674
 C363 C 0.04582 0.17432 1.06135
 C364 C 0.05807 0.15599 1.03492
 N365 N 0.04100 0.14594 1.04224
 C366 C 0.03339 0.15723 1.05837
 C367 C 0.03417 0.19297 1.09402
 N368 N 0.04219 0.20910 1.10521
 C369 C 0.05926 0.21595 1.09467
 C370 C 0.09563 0.21463 1.05952
 N371 N 0.10623 0.20678 1.04304
 C372 C 0.09500 0.19066 1.03527
 H373 H 0.06818 0.15042 1.02276
 H374 H 0.02008 0.15317 1.06772
 H375 H 0.02093 0.18358 1.09812
 H376 H 0.06970 0.22814 1.09945
 H377 H 0.10090 0.22706 1.06949
 H378 H 0.09936 0.18110 1.02220
 C379 C 0.17393 0.70364 0.68828
 C380 C 0.18885 0.70304 0.67246
 C381 C 0.20438 0.68832 0.67297
 C382 C 0.20519 0.67389 0.68922
 C383 C 0.19060 0.67459 0.70486
 C384 C 0.17489 0.68959 0.70442
 C385 C 0.15607 0.71501 0.69088
 N386 N 0.14610 0.70821 0.70821
 C387 C 0.15767 0.69267 0.71657
 C388 C 0.19390 0.65766 0.71739
 N389 N 0.21002 0.64647 0.70965
 C390 C 0.21706 0.65646 0.69244
 C391 C 0.21588 0.69062 0.65517
 N392 N 0.20773 0.70639 0.64376
 C393 C 0.19111 0.71399 0.65430
 H394 H 0.15031 0.72665 0.68027
 H395 H 0.15375 0.68385 0.73028
 H396 H 0.18467 0.65355 0.73077
 H397 H 0.22907 0.65086 0.68216
 H398 H 0.22918 0.68135 0.65092
 H399 H 0.18090 0.72616 0.64892
 C400 C 1.18945 0.17427 0.20404
 C401 C 1.17403 0.18958 0.20409
 C402 C 1.17306 0.20387 0.18816
 C403 C 1.18766 0.20316 0.17204
 C404 C 1.20281 0.18810 0.17201
 C405 C 1.20367 0.17347 0.18807
 C406 C 1.19279 0.15721 0.21637
 N407 N 1.20860 0.14587 0.20823
 C408 C 1.21538 0.15586 0.19091
 C409 C 1.21394 0.19035 0.15400
 N410 N 1.20607 0.20655 0.14283
 C411 C 1.18985 0.21434 0.15401
 C412 C 1.15541 0.21546 0.19116
 N413 N 1.14557 0.20854 0.20851
 C414 C 1.15703 0.19275 0.21652
 H415 H 1.18385 0.15317 0.22997
 H416 H 1.22714 0.15021 0.18038
 H417 H 1.22667 0.18045 0.14959
 H418 H 1.17981 0.22695 0.14952
 H419 H 1.14963 0.22726 0.18074
 H420 H 1.15313 0.18375 0.23012
 C421 C 0.67351 1.04651 0.56006
 C422 C 0.68896 1.04638 0.57535
 C423 C 0.70325 1.06231 0.57629
 C424 C 0.70244 1.07852 0.56179
 C425 C 0.68725 1.07864 0.54676
 C426 C 0.67259 1.06257 0.54593
 C427 C 0.65647 1.03414 0.55676
 N428 N 0.64503 1.04233 0.54105
 C429 C 0.65493 1.05973 0.53431
 C430 C 0.68951 1.09669 0.53565
 N431 N 0.70582 1.10778 0.54342
 C432 C 0.71368 1.09651 0.55956
 C433 C 0.71504 1.05916 0.59380
 N434 N 0.70823 1.04171 0.60358
 C435 C 0.69232 1.03378 0.59220
 H436 H 0.65253 1.02045 0.56563
 H437 H 0.64920 1.07028 0.52261
 H438 H 0.67953 1.10119 0.52299
 H439 H 0.72643 1.10089 0.56949
 H440 H 0.72692 1.06954 0.59953
 H441 H 0.68337 1.02012 0.59604
 C442 C 0.56058 0.54490 0.17481
 C443 C 0.57581 0.54547 0.19031
 C444 C 0.57542 0.56091 0.20515
 C445 C 0.55983 0.57605 0.20469
 C446 C 0.54484 0.57549 0.18942
 C447 C 0.54523 0.55980 0.17434
 C448 C 0.55811 0.53269 0.15749
 N449 N 0.54171 0.53989 0.14633
 C450 C 0.53378 0.55651 0.15666
 C451 C 0.53276 0.59290 0.19180
 N452 N 0.54011 0.60419 0.20808
 C453 C 0.55671 0.59386 0.21601
 C454 C 0.59288 0.55861 0.21716
 N455 N 0.60403 0.54222 0.20991
 C456 C 0.59358 0.53412 0.19345
 H457 H 0.56791 0.51977 0.15324
 H458 H 0.52123 0.56623 0.15129
 H459 H 0.51982 0.59712 0.18204
 H460 H 0.56653 0.59931 0.22847
 H461 H 0.59721 0.56851 0.22999
 H462 H 0.59890 0.52154 0.18372
 C463 C 0.67412 0.69017 0.20382
 C464 C 0.68986 0.67521 0.20430
 C465 C 0.70436 0.67442 0.18858
 C466 C 0.70344 0.68873 0.17223
 C467 C 0.68787 0.70343 0.17171
 C468 C 0.67303 0.70410 0.18760
 C469 C 0.65692 0.69323 0.21602
 N470 N 0.64525 0.70864 0.20758
 C471 C 0.65512 0.71540 0.19019
 C472 C 0.69000 0.71425 0.15345
 N473 N 0.70657 0.70660 0.14287
 C474 C 0.71482 0.69093 0.15434
 C475 C 0.71627 0.65702 0.19186
 N476 N 0.70932 0.64715 0.20918
 C477 C 0.69324 0.65839 0.21693
 H478 H 0.65307 0.68446 0.22978
 H479 H 0.64925 0.72692 0.17951
 H480 H 0.67975 0.72637 0.14805
 H481 H 0.72811 0.68166 0.15007
 H482 H 0.72822 0.65136 0.18155
 H483 H 0.68408 0.65437 0.23038
 C484 C 0.17273 0.06127 1.04581
 C485 C 0.18752 0.07722 1.04656
 C486 C 0.20293 0.07685 1.06142
 C487 C 0.20373 0.06057 1.07584
 C488 C 0.18927 0.04480 1.07498
 C489 C 0.17370 0.04512 1.05984
 C490 C 0.15493 0.05859 1.03436
 N491 N 0.14500 0.04122 1.04113
 C492 C 0.15654 0.03288 1.05668
 C493 C 0.19246 0.03230 1.09195
 N494 N 0.20840 0.04018 1.10332
 C495 C 0.21543 0.05746 1.09341
 C496 C 0.21426 0.09479 1.05927
 N497 N 0.20613 0.10616 1.04345
 C498 C 0.18968 0.09545 1.03567
 H499 H 0.14913 0.06922 1.02276
 H500 H 0.15260 0.01917 1.06552
 H501 H 0.18328 0.01884 1.09595
 H502 H 0.22729 0.06785 1.09915
 H503 H 0.22744 0.09917 1.06866
 H504 H 0.17953 0.10075 1.02344
 C505 C 0.57861 0.20258 0.56351
 C506 C 0.56289 0.20306 0.57852
 C507 C 0.54673 0.18903 0.57752
 C508 C 0.54615 0.17418 0.56165
 C509 C 0.56170 0.17357 0.54697
 C510 C 0.57800 0.18798 0.54783
 C511 C 0.59672 0.21361 0.56124
 N512 N 0.60715 0.20618 0.54447
 C513 C 0.59572 0.19044 0.53623
 C514 C 0.55829 0.15628 0.53489
 N515 N 0.54104 0.14631 0.54190
 C516 C 0.53348 0.15738 0.55820
 C517 C 0.53467 0.19200 0.59482
 N518 N 0.54312 0.20745 0.60646
 C519 C 0.56040 0.21432 0.59648
 H520 H 0.60214 0.22571 0.57152
 H521 H 0.59988 0.18131 0.52279
 H522 H 0.56844 0.15077 0.52273
 H523 H 0.52010 0.15330 0.56744
 H524 H 0.52095 0.18318 0.59874
 H525 H 0.57103 0.22595 0.60228
 C526 C 0.07626 0.56062 0.70533
 C527 C 0.06071 0.57581 0.70503
 C528 C 0.04572 0.57544 0.68975
 C529 C 0.04607 0.55992 0.67451
 C530 C 0.06138 0.54496 0.67481
 C531 C 0.07661 0.54533 0.69033
 C532 C 0.09370 0.55815 0.71731
 N533 N 0.10482 0.54182 0.70989
 C534 C 0.09435 0.53391 0.69335
 C535 C 0.05888 0.53298 0.65734
 N536 N 0.04250 0.54035 0.64627
 C537 C 0.03461 0.55686 0.65679
 C538 C 0.03371 0.59287 0.69228
 N539 N 0.04111 0.60400 0.70864
 C540 C 0.05766 0.59354 0.71650
 H541 H 0.09806 0.56791 0.73024
 H542 H 0.09966 0.52142 0.68349
 H543 H 0.06864 0.52008 0.65293
 H544 H 0.02210 0.56669 0.65153
 H545 H 0.02079 0.59722 0.68254
 H546 H 0.06750 0.59886 0.72899
 C547 C 0.67469 0.54508 0.06037
 C548 C 0.68971 0.54562 0.07607
 C549 C 0.70366 0.56185 0.07702
 C550 C 0.70296 0.57768 0.06212
 C551 C 0.68821 0.57710 0.04659
 C552 C 0.67388 0.56074 0.04579
 C553 C 0.65784 0.53244 0.05708
 N554 N 0.64658 0.54012 0.04097
 C555 C 0.65646 0.55742 0.03393
 C556 C 0.69041 0.59494 0.03512
 N557 N 0.70614 0.60643 0.04326
 C558 C 0.71381 0.59592 0.05987
 C559 C 0.71505 0.55935 0.09488
 N560 N 0.70835 0.54199 0.10487
 C561 C 0.69287 0.53350 0.09330
 H562 H 0.65382 0.51902 0.06630
 H563 H 0.65079 0.56767 0.02194
 H564 H 0.68112 0.59916 0.02182
 H565 H 0.72597 0.60135 0.07006
 H566 H 0.72661 0.57007 0.10064
 H567 H 0.68411 0.51973 0.09724
 C568 C 0.06194 0.70438 0.57655
 C569 C 0.07805 0.70353 0.56198
 C570 C 0.07787 0.68850 0.54669
 C571 C 0.06163 0.67403 0.54581
 C572 C 0.04570 0.67499 0.56007
 C573 C 0.04583 0.69029 0.57551
 C574 C 0.05906 0.71600 0.59423
 N575 N 0.04159 0.70929 0.60400
 C576 C 0.03341 0.69360 0.59249
 C577 C 0.03326 0.65796 0.55686
 N578 N 0.04132 0.64645 0.54112
 C579 C 0.05866 0.65633 0.53422
 C580 C 0.09592 0.69061 0.53556
 N581 N 0.10716 0.70654 0.54369
 C582 C 0.09627 0.71444 0.55995
 H583 H 0.06961 0.72768 0.60006
 H584 H 0.01968 0.68476 0.59633
 H585 H 0.01971 0.65402 0.56591
 H586 H 0.06916 0.65049 0.52253
 H587 H 0.10044 0.68110 0.52251
 H588 H 0.10142 0.72679 0.57007
 C589 C 0.56091 1.04660 0.67269
 C590 C 0.57647 1.04659 0.68788
 C591 C 0.57717 1.06221 0.70252
 C592 C 0.56223 1.07800 0.70227
 C593 C 0.54692 1.07795 0.68739
 C594 C 0.54628 1.06214 0.67243
 C595 C 0.55758 1.03448 0.65546
 N596 N 0.54124 1.04224 0.64445
 C597 C 0.53427 1.05921 0.65507
 C598 C 0.53547 1.09572 0.69008
 N599 N 0.54336 1.10681 0.70634
 C600 C 0.55984 1.09579 0.71378
 C601 C 0.59482 1.05926 0.71411
 N602 N 0.60491 1.04218 0.70691
 C603 C 0.59363 1.03434 0.69087
 H604 H 0.56713 1.02141 0.65123
 H605 H 0.52191 1.06948 0.65042
 H606 H 0.52262 1.10012 0.68031
 H607 H 0.56994 1.10024 0.72637
 H608 H 0.60033 1.06947 0.72623
 H609 H 0.59769 1.02091 0.68168
 C610 C 0.45324 0.32698 0.93847
 C611 C 0.45411 0.31081 0.92393
 C612 C 0.43994 0.29477 0.92490
 C613 C 0.42458 0.29474 0.94027
 C614 C 0.42361 0.31076 0.95446
 C615 C 0.43814 0.32696 0.95359
 C616 C 0.46431 0.34508 0.94061
 N617 N 0.45643 0.35629 0.95679
 C618 C 0.44027 0.34505 0.96467
 C619 C 0.40599 0.30778 0.96613
 N620 N 0.39617 0.29034 0.95936
 C621 C 0.40762 0.28225 0.94359
 C622 C 0.44325 0.28231 0.90792
 N623 N 0.45900 0.29044 0.89646
 C624 C 0.46577 0.30787 0.90630
 H625 H 0.47695 0.34956 0.93061
 H626 H 0.43030 0.34949 0.97736
 H627 H 0.40022 0.31829 0.97786
 H628 H 0.40373 0.26858 0.93468
 H629 H 0.43435 0.26863 0.90401
 H630 H 0.47749 0.31840 0.90051
 C631 C 0.95110 0.43655 0.32991
 C632 C 0.95081 0.42103 0.31465
 C633 C 0.93579 0.42129 0.29939
 C634 C 0.92078 0.43702 0.29920
 C635 C 0.92115 0.45232 0.31419
 C636 C 0.93643 0.45206 0.32965
 C637 C 0.96299 0.43942 0.34735
 N638 N 0.95593 0.45635 0.35800
 C639 C 0.93960 0.46409 0.34696
 C640 C 0.90403 0.46461 0.31114
 N641 N 0.89306 0.45709 0.29475
 C642 C 0.90334 0.44020 0.28735
 C643 C 0.93859 0.40386 0.28743
 N644 N 0.95491 0.39288 0.29506
 C645 C 0.96242 0.40338 0.31178
 H646 H 0.97541 0.42922 0.35199
 H647 H 0.93013 0.47725 0.35109
 H648 H 0.89978 0.47783 0.32054
 H649 H 0.89809 0.43024 0.27490
 H650 H 0.92924 0.39954 0.27420
 H651 H 0.97493 0.39826 0.32168
 C652 C 0.29828 0.93713 0.42049
 C653 C 0.29796 0.92236 0.43648
 C654 C 0.31278 0.92307 0.45191
 C655 C 0.32820 0.93840 0.45151
 C656 C 0.32853 0.95284 0.43579
 C657 C 0.31339 0.95225 0.42019
 C658 C 0.28656 0.93957 0.40286
 N659 N 0.29409 0.95591 0.39162
 C660 C 0.31063 0.96363 0.40240
 C661 C 0.34606 0.96470 0.43845
 N662 N 0.35669 0.95781 0.45543
 C663 C 0.34552 0.94167 0.46346
 C664 C 0.30965 0.90615 0.46449
 N665 N 0.29336 0.89497 0.45703
 C666 C 0.28612 0.90491 0.43987
 H667 H 0.27365 0.92973 0.39873
 H668 H 0.32059 0.97625 0.39771
 H669 H 0.35076 0.97698 0.42806
 H670 H 0.34969 0.93222 0.47663
 H671 H 0.31892 0.90218 0.47787
 H672 H 0.27381 0.89941 0.42991
 O673 O 0.19570 0.52740 0.74947
 O674 O 0.20250 0.52418 0.78487
 O675 O 0.24980 0.55591 0.72438
 O676 O 0.28366 0.54994 0.72320
 O677 O 0.22362 0.50171 0.69522
 O678 O 0.22523 0.46553 0.70250
 O679 O 0.30506 0.49904 0.77674
 O680 O 0.29952 0.53421 0.77464
 O681 O 0.25299 0.47292 0.80395
 O682 O 0.21540 0.47455 0.79736
 O683 O 0.27773 0.44631 0.75151
 O684 O 0.27592 0.45358 0.71410
 O685 O 0.30482 0.47403 0.75189
 O686 O 0.29719 0.47660 0.71366
 O687 O 0.25249 0.44569 0.77603
 O688 O 0.21442 0.45361 0.77427
 O689 O 0.27753 0.49823 0.80433
 O690 O 0.27333 0.53686 0.79647
 O691 O 0.19508 0.50192 0.72499
 O692 O 0.20291 0.46509 0.72619
 O693 O 0.24875 0.52646 0.69484
 O694 O 0.28611 0.52303 0.70292
 O695 O 0.22446 0.55549 0.74890
 O696 O 0.22955 0.54727 0.78616
 Zr697 Zr 0.22578 0.52551 0.76175
 O698 O 0.24387 0.50682 0.78146
 Zr699 Zr 0.26178 0.52554 0.72482
 O700 O 0.28180 0.50752 0.74329
 Zr701 Zr 0.22520 0.48914 0.72524
 O702 O 0.24384 0.46910 0.74305
 Zr703 Zr 0.27531 0.51209 0.77487
 O704 O 0.25727 0.53239 0.75646
 Zr705 Zr 0.23904 0.47535 0.77462
 O706 O 0.21879 0.49395 0.75680
 Zr707 Zr 0.27532 0.47595 0.73813
 O708 O 0.25666 0.49401 0.71802
 O709 O 0.23052 0.52046 0.73028
 O710 O 0.27049 0.48055 0.76968
 C711 C 0.18654 0.51677 0.73528
 C712 C 0.23509 0.56458 0.73469
 C713 C 0.23411 0.51605 0.68616
 C714 C 0.31359 0.48410 0.76670
 C715 C 0.26776 0.48301 0.81273
 C716 C 0.26763 0.43735 0.76615
 H717 H 0.24047 0.50998 0.79605
 H718 H 0.24052 0.45455 0.73953
 H719 H 0.22164 0.52938 0.72152
 H720 H 0.29637 0.51107 0.74016
 H721 H 0.29438 0.54627 0.76668
 H722 H 0.29543 0.54606 0.73221
 H723 H 0.21664 0.44415 0.76241
 H724 H 0.19591 0.46615 0.73980
 H725 H 0.26328 0.53303 0.80740
 H726 H 0.21846 0.55787 0.78509
 H727 H 0.26323 0.44506 0.71532
 H728 H 0.23919 0.46570 0.69613
 H729 H 0.19677 0.50994 0.78457
 H730 H 0.21681 0.48711 0.80606
 H731 H 0.28353 0.51027 0.69477
 H732 H 0.30689 0.48819 0.71630
 O733 O 0.24829 0.05516 0.22256
 O734 O 0.28356 0.04837 0.22491
 O735 O 0.22253 0.00092 0.19443
 O736 O 0.22200 -0.03318 0.20028
 O737 O 0.19443 0.02703 0.24863
 O738 O 0.20218 0.02512 0.28484
 O739 O 0.27598 -0.05442 0.25042
 O740 O 0.27309 -0.04880 0.21511
 O741 O 0.30379 -0.00197 0.27560
 O742 O 0.29684 0.03539 0.27453
 O743 O 0.25130 -0.02698 0.30351
 O744 O 0.21399 -0.02544 0.29671
 O745 O 0.25142 -0.05435 0.27566
 O746 O 0.21319 -0.04670 0.27376
 O747 O 0.27628 -0.00215 0.30342
 O748 O 0.27402 0.03620 0.29571
 O749 O 0.30316 -0.02738 0.25119
 O750 O 0.29529 -0.02264 0.21249
 O751 O 0.22385 0.05531 0.24806
 O752 O 0.22589 0.04764 0.28488
 O753 O 0.19372 0.00182 0.22397
 O754 O 0.20166 -0.03553 0.22738
 O755 O 0.24752 0.02585 0.19405
 O756 O 0.28484 0.02122 0.20212
 Zr757 Zr 0.26055 0.02493 0.22401
 O758 O 0.28052 0.00679 0.24240
 Zr759 Zr 0.22364 -0.01125 0.22463
 O760 O 0.24234 -0.03127 0.24239
 Zr761 Zr 0.22456 0.02529 0.26092
 O762 O 0.24273 0.00673 0.28069
 Zr763 Zr 0.27381 -0.02470 0.23733
 O764 O 0.25514 -0.00663 0.21732
 Zr765 Zr 0.27420 0.01160 0.27394
 O766 O 0.25603 0.03182 0.25563
 Zr767 Zr 0.23766 -0.02479 0.27399
 O768 O 0.21726 -0.00619 0.25622
 O769 O 0.22920 0.02005 0.22955
 O770 O 0.26911 -0.01988 0.26890
 C771 C 0.23403 0.06410 0.23330
 C772 C 0.23297 0.01531 0.18536
 C773 C 0.18524 0.01661 0.23433
 C774 C 0.26616 -0.06305 0.26546
 C775 C 0.31206 -0.01726 0.26587
 C776 C 0.26630 -0.01706 0.31209
 H777 H 0.29507 0.01018 0.23904
 H778 H 0.23944 0.01007 0.29528
 H779 H 0.22037 0.02894 0.22071
 H780 H 0.23916 -0.04587 0.23892
 H781 H 0.26527 -0.04341 0.20305
 H782 H 0.23075 -0.04510 0.20429
 H783 H 0.26255 0.03367 0.30557
 H784 H 0.23949 0.05464 0.28361
 H785 H 0.30656 -0.01304 0.21652
 H786 H 0.28357 0.03218 0.19140
 H787 H 0.21504 -0.01250 0.30488
 H788 H 0.19550 0.01129 0.28444
 H789 H 0.28357 0.05404 0.23917
 H790 H 0.30508 0.03432 0.26165
 H791 H 0.19377 -0.03300 0.24030
 H792 H 0.21558 -0.05634 0.26207
 O793 O 0.55452 0.72287 0.24740
 O794 O 0.54834 0.72586 0.28290
 O795 O 0.50016 0.69508 0.22257
 O796 O 0.46606 0.70104 0.22291
 O797 O 0.52577 0.74918 0.19362
 O798 O 0.52478 0.78532 0.20141
 O799 O 0.44603 0.75228 0.27680
 O800 O 0.45098 0.71670 0.27360
 O801 O 0.49879 0.77690 0.30351
 O802 O 0.53594 0.77568 0.29595
 O803 O 0.47337 0.80464 0.25092
 O804 O 0.47439 0.79738 0.21361
 O805 O 0.44566 0.77684 0.25153
 O806 O 0.45294 0.77471 0.21337
 O807 O 0.49836 0.80463 0.27568
 O808 O 0.53658 0.79666 0.27296
 O809 O 0.47350 0.75235 0.30352
 O810 O 0.47715 0.71385 0.29568
 O811 O 0.55494 0.74850 0.22309
 O812 O 0.54742 0.78531 0.22467
 O813 O 0.50088 0.72417 0.19384
 O814 O 0.46371 0.72808 0.20205
 O815 O 0.52524 0.69475 0.24734
 O816 O 0.52115 0.70307 0.28465
 Zr817 Zr 0.52464 0.72483 0.26020
 O818 O 0.50695 0.74352 0.28028
 Zr819 Zr 0.48812 0.72534 0.22383
 O820 O 0.46847 0.74342 0.24263
 Zr821 Zr 0.52491 0.76147 0.22388
 O822 O 0.50671 0.78150 0.24217
 Zr823 Zr 0.47539 0.73860 0.27405
 O824 O 0.49303 0.71824 0.25534
 Zr825 Zr 0.51188 0.77501 0.27366
 O826 O 0.53171 0.75639 0.25535
 Zr827 Zr 0.47511 0.77495 0.23756
 O828 O 0.49333 0.75685 0.21709
 O829 O 0.51949 0.73015 0.22886
 O830 O 0.48034 0.77014 0.26903
 C831 C 0.56356 0.73357 0.23319
 C832 C 0.51462 0.68604 0.23287
 C833 C 0.51529 0.73463 0.18485
 C834 C 0.43727 0.76706 0.26675
 C835 C 0.48377 0.76707 0.31218
 C836 C 0.48348 0.81333 0.26572
 H837 H 0.51053 0.74024 0.29480
 H838 H 0.51010 0.79605 0.23871
 H839 H 0.52821 0.72124 0.21993
 H840 H 0.45382 0.74003 0.23969
 H841 H 0.45616 0.70450 0.26584
 H842 H 0.45403 0.70546 0.23129
 H843 H 0.53397 0.80645 0.26146
 H844 H 0.55444 0.78425 0.23827
 H845 H 0.48773 0.71733 0.30621
 H846 H 0.53210 0.69235 0.28334
 H847 H 0.48723 0.80571 0.21461
 H848 H 0.51081 0.78520 0.19507
 H849 H 0.55429 0.74001 0.28247
 H850 H 0.53505 0.76275 0.30416
 H851 H 0.46629 0.74091 0.19401
 H852 H 0.44342 0.76292 0.21580
 O853 O 0.00156 0.69494 0.72325
 O854 O -0.03469 0.70258 0.72513
 O855 O 0.02633 0.74926 0.69433
 O856 O 0.02720 0.78328 0.70040
 O857 O 0.05556 0.72312 0.74828
 O858 O 0.04829 0.72503 0.78463
 O859 O -0.02611 0.80430 0.75177
 O860 O -0.02267 0.79853 0.71565
 O861 O -0.05330 0.75208 0.77698
 O862 O -0.04638 0.71437 0.77510
 O863 O -0.00064 0.77675 0.80408
 O864 O 0.03673 0.77515 0.79658
 O865 O -0.00105 0.80427 0.77648
 O866 O 0.03700 0.79669 0.77391
 O867 O -0.02555 0.75186 0.80423
 O868 O -0.02376 0.71387 0.79658
 O869 O -0.05363 0.77677 0.75185
 O870 O -0.04683 0.77434 0.71444
 O871 O 0.02616 0.69443 0.74850
 O872 O 0.02482 0.70236 0.78505
 O873 O 0.05582 0.74826 0.72355
 O874 O 0.04791 0.78551 0.72714
 O875 O 0.00174 0.72394 0.69463
 O876 O -0.03481 0.72604 0.70238
 Zr877 Zr -0.01083 0.72507 0.72468
 O878 O -0.03060 0.74323 0.74318
 Zr879 Zr 0.02586 0.76126 0.72468
 O880 O 0.00746 0.78128 0.74285
 Zr881 Zr 0.02560 0.72464 0.76101
 O882 O 0.00765 0.74315 0.78102
 Zr883 Zr -0.02409 0.77476 0.73820
 O884 O -0.00579 0.75664 0.71784
 Zr885 Zr -0.02389 0.73830 0.77464
 O886 O -0.00595 0.71797 0.75617
 Zr887 Zr 0.01260 0.77470 0.77436
 O888 O 0.03270 0.75615 0.75617
 O889 O 0.02058 0.72989 0.72967
 O890 O -0.01894 0.76983 0.76969
 C891 C 0.01581 0.68582 0.73378
 C892 C 0.01600 0.73456 0.68560
 C893 C 0.06453 0.73357 0.73386
 C894 C -0.01603 0.81294 0.76663
 C895 C -0.06208 0.76687 0.76695
 C896 C -0.01549 0.76676 0.81283
 H897 H -0.04516 0.73977 0.73995
 H898 H 0.01111 0.73979 0.79556
 H899 H 0.02930 0.72100 0.72071
 H900 H 0.01060 0.79589 0.73940
 H901 H -0.01593 0.79247 0.70326
 H902 H 0.01861 0.79525 0.70461
 H903 H -0.01177 0.71598 0.80589
 H904 H 0.01111 0.69551 0.78423
 H905 H -0.05562 0.76192 0.71635
 H906 H -0.03375 0.73969 0.69543
 H907 H 0.03550 0.76242 0.80506
 H908 H 0.05496 0.73886 0.78405
 H909 H -0.03428 0.69609 0.73902
 H910 H -0.05523 0.71598 0.76269
 H911 H 0.05587 0.78305 0.74002
 H912 H 0.03455 0.80623 0.76216
 O913 O 0.02574 0.00119 0.05562
 O914 O 0.02280 -0.03417 0.04884
 O915 O 0.05456 0.02619 0.00132
 O916 O 0.04870 0.02715 -0.03258
 O917 O 0.00047 0.05541 0.02726
 O918 O -0.03576 0.04810 0.02541
 O919 O -0.00248 -0.02691 -0.05364
 O920 O 0.03299 -0.02397 -0.04829
 O921 O -0.02821 -0.05362 -0.00185
 O922 O -0.02678 -0.04675 0.03581
 O923 O -0.05490 -0.00100 -0.02674
 O924 O -0.04749 0.03627 -0.02529
 O925 O -0.02711 -0.00176 -0.05389
 O926 O -0.02438 0.03660 -0.04643
 O927 O -0.05534 -0.02584 -0.00181
 O928 O -0.04781 -0.02373 0.03642
 O929 O -0.00268 -0.05411 -0.02611
 O930 O 0.03560 -0.04615 -0.02227
 O931 O 0.00056 0.02590 0.05582
 O932 O -0.03624 0.02448 0.04791
 O933 O 0.02528 0.05567 0.00222
 O934 O 0.02180 0.04748 -0.03516
 O935 O 0.05406 0.00188 0.02688
 O936 O 0.04596 -0.03548 0.02193
 Zr937 Zr 0.02415 -0.01112 0.02549
 O938 O 0.00557 -0.03096 0.00739
 Zr939 Zr 0.02428 0.02564 -0.01076
 O940 O 0.00634 0.00703 -0.03078
 Zr941 Zr -0.01218 0.02538 0.02568
 O942 O -0.03212 0.00741 0.00705
 Zr943 Zr 0.01091 -0.02451 -0.02408
 O944 O 0.03112 -0.00599 -0.00602
 Zr945 Zr -0.02588 -0.02416 0.01200
 O946 O -0.00741 -0.00617 0.03227
 Zr947 Zr -0.02519 0.01222 -0.02444
 O948 O -0.00722 0.03246 -0.00580
 O949 O 0.01912 0.02033 0.02053
 O950 O -0.02059 -0.01932 -0.01943
 C951 C 0.01520 0.01555 0.06461
 C952 C 0.06318 0.01603 0.01616
 C953 C 0.01491 0.06439 0.01685
 C954 C -0.01730 -0.01689 -0.06238
 C955 C -0.01797 -0.06248 -0.01646
 C956 C -0.06376 -0.01584 -0.01682
 H957 H 0.00871 -0.04554 0.01088
 H958 H -0.04667 0.01092 0.01029
 H959 H 0.02800 0.02912 0.02943
 H960 H 0.00990 0.01006 -0.04538
 H961 H 0.04513 -0.01622 -0.04298
 H962 H 0.04475 0.01827 -0.04444
 H963 H -0.05729 -0.01193 0.03401
 H964 H -0.03523 0.01086 0.05491
 H965 H 0.03222 -0.05653 -0.01150
 H966 H 0.05652 -0.03428 0.03305
 H967 H -0.05580 0.03535 -0.01244
 H968 H -0.03533 0.05461 0.01152
 H969 H 0.00851 -0.03403 0.05439
 H970 H -0.01433 -0.05557 0.03439
 H971 H 0.00909 0.05567 -0.03259
 H972 H -0.01287 0.03381 -0.05616
 O973 O 0.05595 0.52685 0.50151
 O974 O 0.04927 0.52446 0.46621
 O975 O 0.00192 0.55524 0.52710
 O976 O -0.03214 0.54956 0.52755
 O977 O 0.02756 0.50080 0.55532
 O978 O 0.02556 0.46464 0.54753
 O979 O -0.05351 0.49930 0.47331
 O980 O -0.04784 0.53461 0.47627
 O981 O -0.00130 0.47386 0.44589
 O982 O 0.03605 0.47483 0.45291
 O983 O -0.02660 0.44623 0.49819
 O984 O -0.02508 0.45300 0.53553
 O985 O -0.05373 0.47426 0.49809
 O986 O -0.04611 0.47611 0.53631
 O987 O -0.00170 0.44613 0.47333
 O988 O 0.03665 0.45365 0.47577
 O989 O -0.02613 0.49879 0.44609
 O990 O -0.02166 0.53733 0.45428
 O991 O 0.05592 0.50138 0.52600
 O992 O 0.04808 0.46453 0.52383
 O993 O 0.00253 0.52559 0.55595
 O994 O -0.03479 0.52243 0.54778
 O995 O 0.02687 0.55549 0.50217
 O996 O 0.02232 0.54742 0.46484
 Zr997 Zr 0.02580 0.52550 0.48914
 O998 O 0.00766 0.50715 0.46910
 Zr999 Zr -0.01042 0.52506 0.52594
 O1000 O -0.03046 0.50739 0.50713
 Zr1001 Zr 0.02588 0.48858 0.52515
 O1002 O 0.00725 0.46886 0.50693
 Zr1003 Zr -0.02379 0.51238 0.47565
 O1004 O -0.00569 0.53234 0.49442
 Zr1005 Zr 0.01224 0.47557 0.47548
 O1006 O 0.03250 0.49383 0.49369
 Zr1007 Zr -0.02420 0.47574 0.51187
 O1008 O -0.00556 0.49344 0.53234
 O1009 O 0.02083 0.52000 0.52050
 O1010 O -0.01919 0.48076 0.48040
 C1011 C 0.06478 0.51612 0.51584
 C1012 C 0.01637 0.56424 0.51669
 C1013 C 0.01718 0.51512 0.56450
 C1014 C -0.06230 0.48441 0.48323
 C1015 C -0.01621 0.48389 0.43733
 C1016 C -0.01672 0.43756 0.48322
 H1017 H 0.01114 0.51048 0.45456
 H1018 H 0.01047 0.45425 0.51024
 H1019 H 0.02972 0.52881 0.52939
 H1020 H -0.04503 0.51094 0.51024
 H1021 H -0.04251 0.54662 0.48423
 H1022 H -0.04405 0.54564 0.51874
 H1023 H 0.03403 0.44380 0.48723
 H1024 H 0.05515 0.46584 0.51027
 H1025 H -0.01161 0.53356 0.44334
 H1026 H 0.03335 0.55808 0.46614
 H1027 H -0.01224 0.44471 0.53449
 H1028 H 0.01168 0.46499 0.55406
 H1029 H 0.05482 0.51016 0.46621
 H1030 H 0.03504 0.48769 0.44460
 H1031 H -0.03234 0.50953 0.55574
 H1032 H -0.05565 0.48786 0.53390
 O1033 O 0.55464 0.02753 0.50109
 O1034 O 0.54816 0.02500 0.46578
 O1035 O 0.50030 0.05605 0.52611
 O1036 O 0.46617 0.05033 0.52599
 O1037 O 0.52547 0.00184 0.55510
 O1038 O 0.52401 -0.03429 0.54746
 O1039 O 0.44547 -0.00048 0.47221
 O1040 O 0.45104 0.03491 0.47498
 O1041 O 0.49770 -0.02629 0.44572
 O1042 O 0.53533 -0.02458 0.45289
 O1043 O 0.47230 -0.05323 0.49763
 O1044 O 0.47353 -0.04617 0.53507
 O1045 O 0.44507 -0.02526 0.49725
 O1046 O 0.45234 -0.02322 0.53543
 O1047 O 0.49766 -0.05351 0.47324
 O1048 O 0.53578 -0.04578 0.47579
 O1049 O 0.47318 -0.00102 0.44515
 O1050 O 0.47728 0.03748 0.45310
 O1051 O 0.55439 0.00243 0.52596
 O1052 O 0.54671 -0.03446 0.52405
 O1053 O 0.50073 0.02690 0.55505
 O1054 O 0.46350 0.02336 0.54671
 O1055 O 0.52558 0.05616 0.50153
 O1056 O 0.52119 0.04793 0.46416
 Zr1057 Zr 0.52456 0.02612 0.48857
 O1058 O 0.50667 0.00754 0.46850
 Zr1059 Zr 0.48799 0.02588 0.52498
 O1060 O 0.46819 0.00796 0.50614
 Zr1061 Zr 0.52438 -0.01050 0.52493
 O1062 O 0.50602 -0.03044 0.50668
 Zr1063 Zr 0.47514 0.01273 0.47469
 O1064 O 0.49300 0.03292 0.49345
 Zr1065 Zr 0.51129 -0.02396 0.47523
 O1066 O 0.53130 -0.00549 0.49349
 Zr1067 Zr 0.47450 -0.02363 0.51122
 O1068 O 0.49286 -0.00567 0.53172
 O1069 O 0.51931 0.02085 0.51992
 O1070 O 0.47980 -0.01883 0.47978
 C1071 C 0.56336 0.01699 0.51562
 C1072 C 0.51494 0.06496 0.51592
 C1073 C 0.51513 0.01639 0.56397
 C1074 C 0.43661 -0.01527 0.48224
 C1075 C 0.48298 -0.01625 0.43684
 C1076 C 0.48247 -0.06201 0.48291
 H1077 H 0.51027 0.01074 0.45396
 H1078 H 0.50926 -0.04501 0.51013
 H1079 H 0.52812 0.02970 0.52884
 H1080 H 0.45358 0.01148 0.50910
 H1081 H 0.45628 0.04699 0.48288
 H1082 H 0.45420 0.04611 0.51740
 H1083 H 0.53331 -0.05534 0.48752
 H1084 H 0.55391 -0.03324 0.51055
 H1085 H 0.48771 0.03383 0.44248
 H1086 H 0.53219 0.05862 0.46549
 H1087 H 0.48623 -0.05466 0.53399
 H1088 H 0.50998 -0.03416 0.55367
 H1089 H 0.55355 0.01063 0.46573
 H1090 H 0.53378 -0.01224 0.44393
 H1091 H 0.46594 0.01053 0.55478
 H1092 H 0.44295 -0.01136 0.53300
 O1093 O 0.50245 0.55403 0.02734
 O1094 O 0.46606 0.54679 0.02573
 O1095 O 0.52709 0.49965 0.05559
 O1096 O 0.52671 0.46542 0.04959
 O1097 O 0.55607 0.52513 0.00143
 O1098 O 0.54816 0.52393 -0.03474
 O1099 O 0.47327 0.44507 -0.00153
 O1100 O 0.47703 0.45065 0.03459
 O1101 O 0.44621 0.49805 -0.02589
 O1102 O 0.45393 0.53551 -0.02420
 O1103 O 0.49844 0.47266 -0.05382
 O1104 O 0.53606 0.47410 -0.04668
 O1105 O 0.49818 0.44503 -0.02640
 O1106 O 0.53619 0.45226 -0.02433
 O1107 O 0.47367 0.49764 -0.05360
 O1108 O 0.47628 0.53568 -0.04594
 O1109 O 0.44615 0.47273 -0.00142
 O1110 O 0.45310 0.47502 0.03606
 O1111 O 0.52690 0.55441 0.00193
 O1112 O 0.52505 0.54681 -0.03461
 O1113 O 0.55584 0.50030 0.02647
 O1114 O 0.54773 0.46321 0.02268
 O1115 O 0.50217 0.52457 0.05604
 O1116 O 0.46572 0.52337 0.04831
 Zr1117 Zr 0.48963 0.52405 0.02591
 O1118 O 0.46950 0.50617 0.00747
 Zr1119 Zr 0.52584 0.48753 0.02536
 O1120 O 0.50712 0.46777 0.00721
 Zr1121 Zr 0.52581 0.52431 -0.01078
 O1122 O 0.50741 0.50612 -0.03074
 Zr1123 Zr 0.47570 0.47454 0.01217
 O1124 O 0.49432 0.49239 0.03250
 Zr1125 Zr 0.47598 0.51123 -0.02403
 O1126 O 0.49436 0.53124 -0.00560
 Zr1127 Zr 0.51208 0.47450 -0.02429
 O1128 O 0.53254 0.49271 -0.00615
 O1129 O 0.52093 0.51898 0.02058
 O1130 O 0.48063 0.47962 -0.01932
 C1131 C 0.51671 0.56309 0.01673
 C1132 C 0.51671 0.51404 0.06469
 C1133 C 0.56483 0.51468 0.01597
 C1134 C 0.48319 0.43642 -0.01648
 C1135 C 0.43748 0.48305 -0.01608
 C1136 C 0.48352 0.48269 -0.06235
 H1137 H 0.45501 0.50974 0.01085
 H1138 H 0.51077 0.50951 -0.04530
 H1139 H 0.52984 0.52774 0.02950
 H1140 H 0.51015 0.45312 0.01054
 H1141 H 0.48392 0.45659 0.04696
 H1142 H 0.51847 0.45330 0.04506
 H1143 H 0.48803 0.53333 -0.05551
 H1144 H 0.51135 0.55364 -0.03371
 H1145 H 0.44424 0.48736 0.03410
 H1146 H 0.46633 0.50953 0.05493
 H1147 H 0.53455 0.48660 -0.05542
 H1148 H 0.55452 0.50997 -0.03450
 H1149 H 0.46661 0.55351 0.01194
 H1150 H 0.44535 0.53414 -0.01157
 H1151 H 0.55551 0.46559 0.00967
 H1152 H 0.53398 0.44289 -0.01239
 O1153 O 0.80487 0.25173 0.47248
 O1154 O 0.79814 0.21630 0.47514
 O1155 O 0.75092 0.27769 0.44523
 O1156 O 0.71689 0.27814 0.45127
 O1157 O 0.77758 0.30544 0.49913
 O1158 O 0.77602 0.29776 0.53532
 O1159 O 0.69607 0.22357 0.50199
 O1160 O 0.70089 0.22698 0.46652
 O1161 O 0.74817 0.19616 0.52641
 O1162 O 0.78544 0.20288 0.52507
 O1163 O 0.72391 0.24905 0.55459
 O1164 O 0.72510 0.28599 0.54768
 O1165 O 0.69611 0.24857 0.52685
 O1166 O 0.70404 0.28701 0.52459
 O1167 O 0.74818 0.22357 0.55405
 O1168 O 0.78663 0.22596 0.54610
 O1169 O 0.72309 0.19647 0.50173
 O1170 O 0.72698 0.20481 0.46319
 O1171 O 0.80581 0.27565 0.49848
 O1172 O 0.79817 0.27389 0.53532
 O1173 O 0.75204 0.30635 0.47486
 O1174 O 0.71468 0.29833 0.47855
 O1175 O 0.77555 0.25247 0.44453
 O1176 O 0.77079 0.21512 0.45252
 Zr1177 Zr 0.77479 0.23935 0.47446
 O1178 O 0.75685 0.21936 0.49304
 Zr1179 Zr 0.73890 0.27639 0.47550
 O1180 O 0.71896 0.25763 0.49337
 Zr1181 Zr 0.77578 0.27530 0.51144
 O1182 O 0.75723 0.25721 0.53134
 Zr1183 Zr 0.72540 0.22610 0.48825
 O1184 O 0.74326 0.24483 0.46806
 Zr1185 Zr 0.76189 0.22571 0.52455
 O1186 O 0.78203 0.24378 0.50602
 Zr1187 Zr 0.72570 0.26236 0.52490
 O1188 O 0.74431 0.28272 0.50704
 O1189 O 0.77018 0.27073 0.48012
 O1190 O 0.73044 0.23085 0.51978
 C1191 C 0.81418 0.26567 0.48333
 C1192 C 0.76518 0.26722 0.43602
 C1193 C 0.76700 0.31475 0.48504
 C1194 C 0.68751 0.23352 0.51696
 C1195 C 0.73309 0.18767 0.51654
 C1196 C 0.73364 0.23384 0.56297
 H1197 H 0.76018 0.20480 0.48964
 H1198 H 0.76069 0.26051 0.54590
 H1199 H 0.77903 0.27959 0.47126
 H1200 H 0.70435 0.26079 0.49003
 H1201 H 0.70606 0.23486 0.45441
 H1202 H 0.70496 0.26941 0.45532
 H1203 H 0.78397 0.23715 0.55625
 H1204 H 0.80506 0.26024 0.53404
 H1205 H 0.73704 0.19381 0.46674
 H1206 H 0.78171 0.21635 0.44176
 H1207 H 0.73843 0.28549 0.55522
 H1208 H 0.76229 0.30458 0.53500
 H1209 H 0.80402 0.21639 0.48931
 H1210 H 0.78447 0.19487 0.51203
 H1211 H 0.71744 0.30636 0.49134
 H1212 H 0.69398 0.28431 0.51333
 O1213 O 0.77747 0.80469 -0.00225
 O1214 O 0.77494 0.79800 0.03319
 O1215 O 0.80464 0.75036 -0.02806
 O1216 O 0.79843 0.71620 -0.02809
 O1217 O 0.75079 0.77680 -0.05602
 O1218 O 0.71456 0.77552 -0.04806
 O1219 O 0.74826 0.69545 0.02556
 O1220 O 0.78352 0.70078 0.02280
 O1221 O 0.72391 0.74849 0.05370
 O1222 O 0.72536 0.78582 0.04645
 O1223 O 0.69517 0.72401 0.00087
 O1224 O 0.70224 0.72511 -0.03632
 O1225 O 0.72245 0.69616 0.00160
 O1226 O 0.72475 0.70341 -0.03682
 O1227 O 0.69603 0.74817 0.02650
 O1228 O 0.70388 0.78654 0.02387
 O1229 O 0.74777 0.72260 0.05295
 O1230 O 0.78647 0.72680 0.04499
 O1231 O 0.75171 0.80535 -0.02637
 O1232 O 0.71494 0.79805 -0.02451
 O1233 O 0.77520 0.75142 -0.05657
 O1234 O 0.77124 0.71419 -0.04867
 O1235 O 0.80540 0.77521 -0.00302
 O1236 O 0.79749 0.77062 0.03434
 Zr1237 Zr 0.77553 0.77456 0.01017
 O1238 O 0.75698 0.75666 0.03023
 Zr1239 Zr 0.77435 0.73839 -0.02667
 O1240 O 0.75632 0.71861 -0.00792
 Zr1241 Zr 0.73856 0.77540 -0.02576
 O1242 O 0.71859 0.75712 -0.00747
 Zr1243 Zr 0.76158 0.72510 0.02353
 O1244 O 0.78181 0.74293 0.00481
 Zr1245 Zr 0.72551 0.76186 0.02400
 O1246 O 0.74401 0.78185 0.00572
 Zr1247 Zr 0.72482 0.72552 -0.01253
 O1248 O 0.74283 0.74385 -0.03300
 O1249 O 0.76984 0.76976 -0.02117
 O1250 O 0.73008 0.73033 0.01893
 C1251 C 0.76673 0.81388 -0.01634
 C1252 C 0.81387 0.76471 -0.01770
 C1253 C 0.76501 0.76623 -0.06517
 C1254 C 0.73281 0.68720 0.01607
 C1255 C 0.73340 0.73304 0.06196
 C1256 C 0.68697 0.73369 0.01623
 H1257 H 0.76044 0.76003 0.04476
 H1258 H 0.70405 0.76063 -0.01072
 H1259 H 0.77872 0.77856 -0.03007
 H1260 H 0.75956 0.70397 -0.01110
 H1261 H 0.79558 0.70602 0.01489
 H1262 H 0.79405 0.70415 -0.01967
 H1263 H 0.69383 0.78394 0.01258
 H1264 H 0.71603 0.80475 -0.01074
 H1265 H 0.78265 0.73655 0.05619
 H1266 H 0.80828 0.78153 0.03305
 H1267 H 0.69432 0.73821 -0.03541
 H1268 H 0.71486 0.76175 -0.05486
 H1269 H 0.76086 0.80406 0.03298
 H1270 H 0.73824 0.78462 0.05467
 H1271 H 0.75823 0.71676 -0.05637
 H1272 H 0.73613 0.69349 -0.03423
 O1273 O 1.05487 0.22291 0.24843
 O1274 O 1.04850 0.22573 0.28387
 O1275 O 1.00068 0.19523 0.22315
 O1276 O 0.96671 0.20115 0.22283
 O1277 O 1.02677 0.24941 0.19475
 O1278 O 1.02539 0.28551 0.20249
 O1279 O 0.94621 0.25210 0.27738
 O1280 O 0.95114 0.21655 0.27406
 O1281 O 0.99878 0.27663 0.30441
 O1282 O 1.03579 0.27576 0.29715
 O1283 O 0.97307 0.30427 0.25208
 O1284 O 0.97474 0.29764 0.21466
 O1285 O 0.94584 0.27658 0.25205
 O1286 O 0.95358 0.27454 0.21380
 O1287 O 0.99826 0.30455 0.27667
 O1288 O 1.03666 0.29662 0.27401
 O1289 O 0.97355 0.25201 0.30419
 O1290 O 0.97739 0.21347 0.29604
 O1291 O 1.05549 0.24878 0.22437
 O1292 O 1.04776 0.28565 0.22612
 O1293 O 1.00166 0.22465 0.19442
 O1294 O 0.96430 0.22835 0.20257
 O1295 O 1.02559 0.19477 0.24809
 O1296 O 1.02128 0.20299 0.28542
 Zr1297 Zr 1.02492 0.22481 0.26105
 O1298 O 1.00709 0.24342 0.28108
 Zr1299 Zr 0.98867 0.22548 0.22437
 O1300 O 0.96882 0.24332 0.24319
 Zr1301 Zr 1.02542 0.26166 0.22497
 O1302 O 1.00695 0.28157 0.24314
 Zr1303 Zr 0.97558 0.23842 0.27465
 O1304 O 0.99336 0.21821 0.25589
 Zr1305 Zr 1.01196 0.27497 0.27462
 O1306 O 1.03199 0.25643 0.25644
 Zr1307 Zr 0.97540 0.27487 0.23830
 O1308 O 0.99390 0.25702 0.21786
 O1309 O 1.01999 0.23030 0.22970
 O1310 O 0.98048 0.26996 0.26977
 C1311 C 1.06403 0.23374 0.23438
 C1312 C 1.01504 0.18612 0.23353
 C1313 C 1.01629 0.23504 0.18570
 C1314 C 0.93745 0.26686 0.26730
 C1315 C 0.98376 0.26671 0.31298
 C1316 C 0.98309 0.31300 0.26691
 H1317 H 1.01060 0.24008 0.29561
 H1318 H 1.01027 0.29615 0.23979
 H1319 H 1.02879 0.22142 0.22081
 H1320 H 0.95420 0.23989 0.24015
 H1321 H 0.95628 0.20443 0.26618
 H1322 H 0.95485 0.20517 0.23165
 H1323 H 1.03389 0.30667 0.26277
 H1324 H 1.05483 0.28440 0.23967
 H1325 H 0.98771 0.21704 0.30681
 H1326 H 1.03221 0.19225 0.28412
 H1327 H 0.98754 0.30599 0.21583
 H1328 H 1.01139 0.28550 0.19623
 H1329 H 1.05444 0.23989 0.28356
 H1330 H 1.03519 0.26260 0.30500
 H1331 H 0.96704 0.24107 0.19442
 H1332 H 0.94384 0.26294 0.21630
 O1333 O 0.74897 1.05471 0.72185
 O1334 O 0.78440 1.04814 0.72485
 O1335 O 0.72380 1.00064 0.69362
 O1336 O 0.72371 0.96643 0.69941
 O1337 O 0.69482 1.02622 0.74760
 O1338 O 0.70236 1.02478 0.78380
 O1339 O 0.77693 0.94548 0.75041
 O1340 O 0.77428 0.95095 0.71498
 O1341 O 0.80415 0.99792 0.77582
 O1342 O 0.79710 1.03533 0.77453
 O1343 O 0.75160 0.97265 0.80290
 O1344 O 0.71414 0.97436 0.79571
 O1345 O 0.75197 0.94544 0.77525
 O1346 O 0.71380 0.95289 0.77289
 O1347 O 0.77617 0.99791 0.80338
 O1348 O 0.77407 1.03612 0.79544
 O1349 O 0.80396 0.97263 0.75126
 O1350 O 0.79654 0.97710 0.71257
 O1351 O 0.72455 1.05513 0.74737
 O1352 O 0.72580 1.04733 0.78408
 O1353 O 0.69493 1.00146 0.72248
 O1354 O 0.70271 0.96413 0.72630
 O1355 O 0.74864 1.02571 0.69354
 O1356 O 0.78591 1.02102 0.70192
 Zr1357 Zr 0.76145 1.02466 0.72362
 O1358 O 0.78126 1.00664 0.74228
 Zr1359 Zr 0.72475 0.98838 0.72378
 O1360 O 0.74325 0.96843 0.74182
 Zr1361 Zr 0.72497 1.02498 0.76010
 O1362 O 0.74300 1.00649 0.78010
 Zr1363 Zr 0.77474 0.97512 0.73714
 O1364 O 0.75630 0.99309 0.71683
 Zr1365 Zr 0.77454 1.01147 0.77375
 O1366 O 0.75650 1.03158 0.75518
 Zr1367 Zr 0.73814 0.97495 0.77334
 O1368 O 0.71791 0.99345 0.75528
 O1369 O 0.73006 1.01971 0.72881
 O1370 O 0.76963 0.97998 0.76865
 C1371 C 0.73479 1.06379 0.73255
 C1372 C 0.73413 1.01521 0.68473
 C1373 C 0.68605 1.01594 0.73291
 C1374 C 0.76696 0.93683 0.76534
 C1375 C 0.81262 0.98271 0.76610
 C1376 C 0.76629 0.98277 0.81178
 H1377 H 0.79583 1.01009 0.73909
 H1378 H 0.73952 1.00982 0.79465
 H1379 H 0.72128 1.02859 0.71992
 H1380 H 0.74017 0.95381 0.73834
 H1381 H 0.76662 0.95631 0.70282
 H1382 H 0.73205 0.95434 0.70377
 H1383 H 0.76239 1.03370 0.80507
 H1384 H 0.73945 1.05428 0.78313
 H1385 H 0.80752 0.98704 0.71656
 H1386 H 0.78475 1.03205 0.69126
 H1387 H 0.71547 0.98699 0.80432
 H1388 H 0.69598 1.01081 0.78359
 H1389 H 0.78405 1.05394 0.73906
 H1390 H 0.80553 1.03421 0.76178
 H1391 H 0.69467 0.96669 0.73912
 H1392 H 0.71626 0.94337 0.76112
 O1393 O 0.74892 0.55663 0.22407
 O1394 O 0.78413 0.54991 0.22646
 O1395 O 0.72333 0.50240 0.19562
 O1396 O 0.72312 0.46829 0.20122
 O1397 O 0.69488 0.52805 0.24975
 O1398 O 0.70243 0.52624 0.28590
 O1399 O 0.77699 0.44710 0.25173
 O1400 O 0.77435 0.45270 0.21651
 O1401 O 0.80396 0.49928 0.27761
 O1402 O 0.79712 0.53690 0.27616
 O1403 O 0.75186 0.47409 0.30458
 O1404 O 0.71451 0.47555 0.29766
 O1405 O 0.75231 0.44708 0.27687
 O1406 O 0.71398 0.45438 0.27453
 O1407 O 0.77628 0.49948 0.30507
 O1408 O 0.77420 0.53764 0.29723
 O1409 O 0.80434 0.47484 0.25221
 O1410 O 0.79613 0.47900 0.21376
 O1411 O 0.72419 0.55658 0.24929
 O1412 O 0.72608 0.54882 0.28615
 O1413 O 0.69444 0.50284 0.22508
 O1414 O 0.70275 0.46554 0.22830
 O1415 O 0.74814 0.52750 0.19544
 O1416 O 0.78551 0.52288 0.20356
 Zr1417 Zr 0.76118 0.52643 0.22542
 O1418 O 0.78114 0.50840 0.24393
 Zr1419 Zr 0.72449 0.49006 0.22574
 O1420 O 0.74326 0.47010 0.24350
 Zr1421 Zr 0.72497 0.52653 0.26213
 O1422 O 0.74307 0.50799 0.28197
 Zr1423 Zr 0.77473 0.47687 0.23867
 O1424 O 0.75603 0.49486 0.21859
 Zr1425 Zr 0.77454 0.51305 0.27546
 O1426 O 0.75643 0.53322 0.25705
 Zr1427 Zr 0.73829 0.47646 0.27508
 O1428 O 0.71789 0.49501 0.25728
 O1429 O 0.72982 0.52138 0.23078
 O1430 O 0.76976 0.48156 0.27023
 C1431 C 0.73452 0.56547 0.23469
 C1432 C 0.73364 0.51695 0.18668
 C1433 C 0.68580 0.51753 0.23545
 C1434 C 0.76714 0.43845 0.26674
 C1435 C 0.81277 0.48461 0.26741
 C1436 C 0.76652 0.48424 0.31344
 H1437 H 0.79568 0.51193 0.24069
 H1438 H 0.73965 0.51124 0.29654
 H1439 H 0.72095 0.53026 0.22196
 H1440 H 0.74020 0.45549 0.23997
 H1441 H 0.76632 0.45789 0.20451
 H1442 H 0.73185 0.45636 0.20523
 H1443 H 0.76244 0.53529 0.30678
 H1444 H 0.73958 0.55601 0.28485
 H1445 H 0.80690 0.48930 0.21742
 H1446 H 0.78420 0.53386 0.19286
 H1447 H 0.71553 0.48837 0.30602
 H1448 H 0.69603 0.51228 0.28563
 H1449 H 0.78431 0.55528 0.24083
 H1450 H 0.80585 0.53548 0.26364
 H1451 H 0.69473 0.46798 0.24116
 H1452 H 0.71667 0.44465 0.26299
 O1453 O 0.44467 0.25056 0.77682
 O1454 O 0.45232 0.21424 0.77521
 O1455 O 0.49890 0.27535 0.80601
 O1456 O 0.53290 0.27619 0.80002
 O1457 O 0.47295 0.30451 0.75191
 O1458 O 0.47507 0.29717 0.71553
 O1459 O 0.55382 0.22241 0.74853
 O1460 O 0.54825 0.22634 0.78476
 O1461 O 0.50164 0.19528 0.72380
 O1462 O 0.46415 0.20246 0.72519
 O1463 O 0.52641 0.24835 0.69624
 O1464 O 0.52506 0.28566 0.70390
 O1465 O 0.55409 0.24775 0.72405
 O1466 O 0.54658 0.28580 0.72648
 O1467 O 0.50201 0.22292 0.69637
 O1468 O 0.46388 0.22508 0.70368
 O1469 O 0.52659 0.19526 0.74861
 O1470 O 0.52393 0.20213 0.78612
 O1471 O 0.44430 0.27512 0.75152
 O1472 O 0.45238 0.27373 0.71508
 O1473 O 0.49801 0.30483 0.77669
 O1474 O 0.53521 0.29688 0.77326
 O1475 O 0.47356 0.25079 0.80567
 O1476 O 0.47563 0.21421 0.79804
 Zr1477 Zr 0.47478 0.23813 0.77564
 O1478 O 0.49296 0.21826 0.75726
 Zr1479 Zr 0.51098 0.27482 0.77568
 O1480 O 0.53102 0.25635 0.75759
 Zr1481 Zr 0.47453 0.27451 0.73921
 O1482 O 0.49304 0.25644 0.71932
 Zr1483 Zr 0.52445 0.22479 0.76228
 O1484 O 0.50630 0.24316 0.78255
 Zr1485 Zr 0.48814 0.22489 0.72578
 O1486 O 0.46780 0.24294 0.74412
 Zr1487 Zr 0.52453 0.26145 0.72605
 O1488 O 0.50599 0.28162 0.74415
 O1489 O 0.47965 0.26956 0.77059
 O1490 O 0.51961 0.22988 0.73077
 C1491 C 0.43560 0.26478 0.76620
 C1492 C 0.48419 0.26505 0.81471
 C1493 C 0.48335 0.31352 0.76634
 C1494 C 0.56255 0.23254 0.73376
 C1495 C 0.51657 0.18662 0.73371
 C1496 C 0.51665 0.23324 0.68764
 H1497 H 0.48948 0.20370 0.76053
 H1498 H 0.48972 0.25988 0.70477
 H1499 H 0.47073 0.27830 0.77950
 H1500 H 0.54561 0.25946 0.76106
 H1501 H 0.54217 0.23301 0.79718
 H1502 H 0.54488 0.26760 0.79585
 H1503 H 0.46628 0.23684 0.69413
 H1504 H 0.44565 0.25994 0.71576
 H1505 H 0.51166 0.19316 0.78405
 H1506 H 0.48930 0.21518 0.80492
 H1507 H 0.51229 0.28454 0.69549
 H1508 H 0.48879 0.30401 0.71634
 H1509 H 0.44577 0.21469 0.76134
 H1510 H 0.46546 0.19384 0.73780
 H1511 H 0.53282 0.30480 0.76034
 H1512 H 0.55600 0.28343 0.73834
 O1513 O 0.27762 0.80504 0.49845
 O1514 O 0.27621 0.79756 0.53481
 O1515 O 0.30555 0.75116 0.47292
 O1516 O 0.29971 0.71698 0.47258
 O1517 O 0.25132 0.77719 0.44509
 O1518 O 0.21516 0.77531 0.45301
 O1519 O 0.24915 0.69583 0.52679
 O1520 O 0.28516 0.70146 0.52275
 O1521 O 0.22485 0.74831 0.55462
 O1522 O 0.22593 0.78542 0.54774
 O1523 O 0.19679 0.72302 0.50238
 O1524 O 0.20326 0.72506 0.46477
 O1525 O 0.22441 0.69564 0.50174
 O1526 O 0.22602 0.70366 0.46375
 O1527 O 0.19675 0.74819 0.52705
 O1528 O 0.20477 0.78647 0.52487
 O1529 O 0.24916 0.72285 0.55398
 O1530 O 0.28690 0.72591 0.54676
 O1531 O 0.25184 0.80569 0.47442
 O1532 O 0.21520 0.79783 0.47669
 O1533 O 0.27590 0.75195 0.44427
 O1534 O 0.27260 0.71468 0.45221
 O1535 O 0.30623 0.77570 0.49826
 O1536 O 0.29869 0.77398 0.53486
 Zr1537 Zr 0.27621 0.77497 0.51105
 O1538 O 0.25795 0.75682 0.53111
 Zr1539 Zr 0.27539 0.73890 0.47424
 O1540 O 0.25761 0.71882 0.49296
 Zr1541 Zr 0.23918 0.77555 0.47529
 O1542 O 0.21947 0.75694 0.49352
 Zr1543 Zr 0.26275 0.72530 0.52444
 O1544 O 0.28282 0.74340 0.50579
 Zr1545 Zr 0.22638 0.76177 0.52496
 O1546 O 0.24464 0.78212 0.50678
 Zr1547 Zr 0.22606 0.72540 0.48836
 O1548 O 0.24383 0.74406 0.46797
 O1549 O 0.27059 0.77024 0.47972
 O1550 O 0.23122 0.73025 0.51984
 C1551 C 0.26688 0.81421 0.48438
 C1552 C 0.31474 0.76541 0.48344
 C1553 C 0.26553 0.76674 0.43582
 C1554 C 0.23433 0.68710 0.51676
 C1555 C 0.23462 0.73308 0.56294
 C1556 C 0.18817 0.73309 0.51723
 H1557 H 0.26143 0.76023 0.54563
 H1558 H 0.20489 0.76030 0.49032
 H1559 H 0.27942 0.77911 0.47085
 H1560 H 0.26100 0.70422 0.48973
 H1561 H 0.29746 0.70746 0.51578
 H1562 H 0.29563 0.70497 0.48119
 H1563 H 0.19483 0.78399 0.51347
 H1564 H 0.21653 0.80487 0.49026
 H1565 H 0.28441 0.73762 0.55635
 H1566 H 0.30540 0.76021 0.53393
 H1567 H 0.19473 0.73769 0.46634
 H1568 H 0.21545 0.76143 0.44646
 H1569 H 0.26243 0.80429 0.53442
 H1570 H 0.23921 0.78481 0.55536
 H1571 H 0.25963 0.71717 0.44441
 H1572 H 0.23785 0.69415 0.46585
 O1573 O 0.27701 0.30477 0.99878
 O1574 O 0.27507 0.29740 1.03508
 O1575 O 0.30544 0.25052 0.97407
 O1576 O 0.29943 0.21637 0.97380
 O1577 O 0.25152 0.27627 0.94476
 O1578 O 0.21536 0.27492 0.95230
 O1579 O 0.24779 0.19582 1.02723
 O1580 O 0.28397 0.20123 1.02357
 O1581 O 0.22309 0.24820 1.05410
 O1582 O 0.22487 0.28570 1.04695
 O1583 O 0.19604 0.22295 1.00173
 O1584 O 0.20322 0.22480 0.96411
 O1585 O 0.22360 0.19548 1.00165
 O1586 O 0.22582 0.20322 0.96372
 O1587 O 0.19563 0.24838 1.02611
 O1588 O 0.20367 0.28636 1.02414
 O1589 O 0.24784 0.22318 1.05428
 O1590 O 0.28543 0.22570 1.04755
 O1591 O 0.25183 0.30528 0.97410
 O1592 O 0.21517 0.29756 0.97574
 O1593 O 0.27660 0.25152 0.94499
 O1594 O 0.27268 0.21424 0.95278
 O1595 O 0.30568 0.27543 0.99904
 O1596 O 0.29758 0.27387 1.03554
 Zr1597 Zr 0.27544 0.27474 1.01139
 O1598 O 0.25680 0.25675 1.03124
 Zr1599 Zr 0.27521 0.23844 0.97486
 O1600 O 0.25701 0.21852 0.99334
 Zr1601 Zr 0.23906 0.27517 0.97491
 O1602 O 0.21899 0.25675 0.99296
 Zr1603 Zr 0.26164 0.22518 1.02485
 O1604 O 0.28210 0.24313 1.00649
 Zr1605 Zr 0.22536 0.26174 1.02450
 O1606 O 0.24397 0.28191 1.00646
 Zr1607 Zr 0.22556 0.22516 0.98814
 O1608 O 0.24377 0.24360 0.96795
 O1609 O 0.27037 0.26984 0.97999
 O1610 O 0.23020 0.23018 1.01967
 C1611 C 0.26658 0.31387 0.98445
 C1612 C 0.31445 0.26492 0.98454
 C1613 C 0.26618 0.26596 0.93603
 C1614 C 0.23316 0.18704 1.01695
 C1615 C 0.23293 0.23324 1.06283
 C1616 C 0.18719 0.23320 1.01632
 H1617 H 0.26004 0.26023 1.04580
 H1618 H 0.20447 0.26013 0.98949
 H1619 H 0.27937 0.27866 0.97123
 H1620 H 0.26040 0.20389 0.99026
 H1621 H 0.29640 0.20716 1.01677
 H1622 H 0.29501 0.20430 0.98217
 H1623 H 0.19430 0.28419 1.01220
 H1624 H 0.21623 0.30460 0.98934
 H1625 H 0.28324 0.23785 1.05664
 H1626 H 0.30437 0.26013 1.03472
 H1627 H 0.19446 0.23727 0.96568
 H1628 H 0.21551 0.26091 0.94600
 H1629 H 0.26121 0.30395 1.03460
 H1630 H 0.23750 0.28438 1.05552
 H1631 H 0.25989 0.21682 0.94472
 H1632 H 0.23775 0.19386 0.96593
 C1633 C 0.30036 0.38916 0.77362
 C1634 C 0.28737 0.37659 0.78587
 C1635 C 0.26755 0.38407 0.79104
 C1636 C 0.26106 0.40368 0.78449
 C1637 C 0.27412 0.41622 0.77236
 C1638 C 0.29378 0.40866 0.76687
 H1639 H 0.31583 0.38420 0.76956
 H1640 H 0.25692 0.37478 0.80008
 H1641 H 0.24577 0.40901 0.78889
 H1642 H 0.30430 0.41802 0.75772
 C1643 C 0.26905 -0.11398 0.29474
 C1644 C 0.28626 -0.12391 0.28546
 C1645 C 0.29606 -0.11359 0.26876
 C1646 C 0.28933 -0.09410 0.26209
 C1647 C 0.27254 -0.08423 0.27176
 C1648 C 0.26238 -0.09450 0.28803
 H1649 H 0.26063 -0.12083 0.30745
 H1650 H 0.30908 -0.12022 0.26066
 H1651 H 0.29752 -0.08667 0.24946
 H1652 H 0.24935 -0.08737 0.29584
 C1653 C 0.77028 0.88635 0.79531
 C1654 C 0.78745 0.87636 0.78603
 C1655 C 0.79712 0.88651 0.76915
 C1656 C 0.79026 0.90586 0.76226
 C1657 C 0.77346 0.91577 0.77188
 C1658 C 0.76347 0.90570 0.78837
 H1659 H 0.76197 0.87963 0.80816
 H1660 H 0.81014 0.87984 0.76107
 H1661 H 0.79834 0.91317 0.74948
 H1662 H 0.75046 0.91288 0.79617
 C1663 C 0.45438 0.86435 0.26842
 C1664 C 0.46363 0.87431 0.28564
 C1665 C 0.48040 0.86408 0.29537
 C1666 C 0.48704 0.84457 0.28868
 C1667 C 0.47729 0.83459 0.27198
 C1668 C 0.46107 0.84484 0.26178
 H1669 H 0.44177 0.87125 0.25991
 H1670 H 0.48846 0.87071 0.30844
 H1671 H 0.49968 0.83717 0.29687
 H1672 H 0.45326 0.83768 0.24875
 C1673 C -0.04548 0.86374 0.76972
 C1674 C -0.03653 0.87349 0.78722
 C1675 C -0.01988 0.86317 0.79707
 C1676 C -0.01302 0.84381 0.79016
 C1677 C -0.02244 0.83406 0.77314
 C1678 C -0.03858 0.84438 0.76288
 H1679 H -0.05801 0.87069 0.76113
 H1680 H -0.01208 0.86963 0.81037
 H1681 H -0.00049 0.83633 0.79845
 H1682 H -0.04615 0.83738 0.74961
 C1683 C -0.01789 -0.11564 -0.04163
 C1684 C -0.03786 -0.12301 -0.03685
 C1685 C -0.05096 -0.11042 -0.02476
 C1686 C -0.04433 -0.09099 -0.01780
 C1687 C -0.02452 -0.08353 -0.02292
 C1688 C -0.01135 -0.09610 -0.03487
 H1689 H -0.00720 -0.12496 -0.05056
 H1690 H -0.06654 -0.11531 -0.02101
 H1691 H -0.05495 -0.08159 -0.00882
 H1692 H 0.00406 -0.09085 -0.03897
 C1693 C -0.04710 0.38726 0.47930
 C1694 C -0.03723 0.37695 0.46264
 C1695 C -0.01998 0.38691 0.45344
 C1696 C -0.01322 0.40632 0.46031
 C1697 C -0.02333 0.41651 0.47664
 C1698 C -0.04027 0.40668 0.48613
 H1699 H -0.06032 0.38072 0.48717
 H1700 H -0.01145 0.38001 0.44083
 H1701 H -0.00007 0.41342 0.45262
 H1702 H -0.04848 0.41409 0.49875
 C1703 C 0.47959 -0.11261 0.45304
 C1704 C 0.46239 -0.12271 0.46218
 C1705 C 0.45243 -0.11250 0.47886
 C1706 C 0.45912 -0.09306 0.48575
 C1707 C 0.47601 -0.08310 0.47632
 C1708 C 0.48622 -0.09318 0.45997
 H1709 H 0.48820 -0.11943 0.44044
 H1710 H 0.43922 -0.11913 0.48667
 H1711 H 0.45083 -0.08572 0.49838
 H1712 H 0.49932 -0.08599 0.45232
 C1713 C 0.45342 0.38573 -0.01972
 C1714 C 0.46320 0.37542 -0.03644
 C1715 C 0.48012 0.38560 -0.04602
 C1716 C 0.48670 0.40516 -0.03939
 C1717 C 0.47670 0.41530 -0.02295
 C1718 C 0.46005 0.40529 -0.01315
 H1719 H 0.44048 0.37902 -0.01153
 H1720 H 0.48851 0.37877 -0.05875
 H1721 H 0.49960 0.41241 -0.04734
 H1722 H 0.45194 0.41265 -0.00042
 C1723 C 0.79928 0.36339 0.47857
 C1724 C 0.78628 0.37603 0.46644
 C1725 C 0.76639 0.36861 0.46136
 C1726 C 0.75995 0.34887 0.46769
 C1727 C 0.77313 0.33619 0.47949
 C1728 C 0.79275 0.34380 0.48509
 H1729 H 0.81479 0.36827 0.48259
 H1730 H 0.75576 0.37796 0.45241
 H1731 H 0.74468 0.34351 0.46324
 H1732 H 0.80337 0.33435 0.49401
 C1733 C 0.79618 0.86476 -0.01944
 C1734 C 0.78585 0.87530 -0.03567
 C1735 C 0.76818 0.86560 -0.04431
 C1736 C 0.76174 0.84600 -0.03768
 C1737 C 0.77259 0.83538 -0.02211
 C1738 C 0.78968 0.84515 -0.01285
 H1739 H 0.80965 0.87116 -0.01188
 H1740 H 0.75915 0.87281 -0.05639
 H1741 H 0.74836 0.83903 -0.04507
 H1742 H 0.79837 0.83747 -0.00072
 C1743 C 0.78904 0.26638 0.38227
 C1744 C 0.78366 0.28611 0.37462
 C1745 C 0.77123 0.29903 0.38706
 C1746 C 0.76473 0.29261 0.40668
 C1747 C 0.77065 0.27319 0.41453
 C1748 C 0.78273 0.26006 0.40204
 H1749 H 0.79823 0.25581 0.37308
 H1750 H 0.76696 0.31443 0.38201
 H1751 H 0.75558 0.30320 0.41598
 H1752 H 0.78744 0.24492 0.40758
 C1753 C 0.79327 0.76797 -0.11668
 C1754 C 0.78466 0.78568 -0.12631
 C1755 C 0.76827 0.79586 -0.11587
 C1756 C 0.76154 0.78921 -0.09638
 C1757 C 0.77080 0.77213 -0.08663
 C1758 C 0.78649 0.76138 -0.09719
 H1759 H 0.80545 0.75904 -0.12382
 H1760 H 0.76072 0.80933 -0.12225
 H1761 H 0.74932 0.79783 -0.08874
 H1762 H 0.79389 0.74801 -0.09024
 C1763 C 0.27550 0.44987 0.86056
 C1764 C 0.28763 0.46286 0.87325
 C1765 C 0.29277 0.48278 0.86592
 C1766 C 0.28623 0.48940 0.84635
 C1767 C 0.27418 0.47636 0.83372
 C1768 C 0.26878 0.45658 0.84111
 H1769 H 0.27150 0.43432 0.86539
 H1770 H 0.30175 0.49338 0.87532
 H1771 H 0.29055 0.50478 0.84114
 H1772 H 0.25971 0.44605 0.83166
 C1773 C 0.27045 -0.04735 0.36237
 C1774 C 0.28685 -0.03714 0.37277
 C1775 C 0.29570 -0.01962 0.36293
 C1776 C 0.28882 -0.01299 0.34350
 C1777 C 0.27281 -0.02350 0.33319
 C1778 C 0.26360 -0.04065 0.34294
 H1779 H 0.26285 -0.06078 0.36881
 H1780 H 0.30804 -0.01077 0.36994
 H1781 H 0.29625 0.00035 0.33650
 H1782 H 0.25122 -0.04916 0.33543
 C1783 C -0.02090 -0.04721 -0.11267
 C1784 C -0.03806 -0.03795 -0.12267
 C1785 C -0.04759 -0.02093 -0.11263
 C1786 C -0.04062 -0.01391 -0.09335
 C1787 C -0.02386 -0.02354 -0.08341
 C1788 C -0.01398 -0.04014 -0.09339
 H1789 H -0.01265 -0.06012 -0.11934
 H1790 H -0.06061 -0.01287 -0.11929
 H1791 H -0.04862 -0.00104 -0.08612
 H1792 H -0.00098 -0.04794 -0.08620
 C1793 C -0.04636 0.48047 0.38697
 C1794 C -0.03674 0.46364 0.37670
 C1795 C -0.01951 0.45435 0.38657
 C1796 C -0.01268 0.46116 0.40596
 C1797 C -0.02270 0.47753 0.41620
 C1798 C -0.03948 0.48723 0.40637
 H1799 H -0.05950 0.48847 0.38047
 H1800 H -0.01110 0.44168 0.37963
 H1801 H 0.00038 0.45336 0.41304
 H1802 H -0.04758 0.49992 0.41379
 C1803 C 0.47505 -0.04998 0.38943
 C1804 C 0.46261 -0.03732 0.37676
 C1805 C 0.45745 -0.01733 0.38388
 C1806 C 0.46423 -0.01036 0.40326
 C1807 C 0.47654 -0.02311 0.41590
 C1808 C 0.48200 -0.04293 0.40868
 H1809 H 0.47907 -0.06557 0.38477
 H1810 H 0.44822 -0.00698 0.37448
 H1811 H 0.45983 0.00503 0.40835
 H1812 H 0.49125 -0.05326 0.41814
 C1813 C 0.47991 0.45299 -0.11301
 C1814 C 0.46292 0.46255 -0.12302
 C1815 C 0.45340 0.47945 -0.11276
 C1816 C 0.46028 0.48614 -0.09334
 C1817 C 0.47693 0.47629 -0.08344
 C1818 C 0.48674 0.45973 -0.09358
 H1819 H 0.48812 0.44011 -0.11981
 H1820 H 0.44048 0.48770 -0.11939
 H1821 H 0.45233 0.49897 -0.08598
 H1822 H 0.49964 0.45174 -0.08642
 C1823 C 0.45177 0.77373 0.36094
 C1824 C 0.46453 0.78649 0.37321
 C1825 C 0.48401 0.79241 0.36533
 C1826 C 0.49037 0.78601 0.34560
 C1827 C 0.47752 0.77334 0.33338
 C1828 C 0.45822 0.76716 0.34136
 H1829 H 0.43653 0.76913 0.36616
 H1830 H 0.49441 0.80194 0.37439
 H1831 H 0.50538 0.79096 0.33994
 H1832 H 0.44783 0.75758 0.33228
 C1833 C -0.01889 0.79659 0.86345
 C1834 C -0.03551 0.78662 0.87375
 C1835 C -0.04464 0.76932 0.86379
 C1836 C -0.03791 0.76274 0.84430
 C1837 C -0.02175 0.77307 0.83404
 C1838 C -0.01219 0.78994 0.84394
 H1839 H -0.01091 0.80970 0.87011
 H1840 H -0.05725 0.76074 0.87063
 H1841 H -0.04563 0.74963 0.83716
 H1842 H 0.00036 0.79826 0.83650
 C1843 C 0.38423 0.79231 0.26710
 C1844 C 0.37688 0.78719 0.28701
 C1845 C 0.38947 0.77493 0.29992
 C1846 C 0.40886 0.76809 0.29317
 C1847 C 0.41629 0.77351 0.27342
 C1848 C 0.40374 0.78567 0.26045
 H1849 H 0.37491 0.80139 0.25654
 H1850 H 0.38462 0.77092 0.31544
 H1851 H 0.41824 0.75891 0.30363
 H1852 H 0.40897 0.79001 0.24509
 C1853 C -0.11523 0.79191 0.76711
 C1854 C -0.12267 0.78668 0.78695
 C1855 C -0.11011 0.77438 0.79987
 C1856 C -0.09066 0.76764 0.79320
 C1857 C -0.08313 0.77319 0.77352
 C1858 C -0.09566 0.78536 0.76053
 H1859 H -0.12452 0.80102 0.75656
 H1860 H -0.11504 0.77029 0.81535
 H1861 H -0.08129 0.75847 0.80369
 H1862 H -0.09036 0.78979 0.74522
 C1863 C 0.86310 0.27201 0.45156
 C1864 C 0.87551 0.28443 0.46455
 C1865 C 0.86783 0.28979 0.48425
 C1866 C 0.84809 0.28340 0.49055
 C1867 C 0.83563 0.27129 0.47738
 C1868 C 0.84349 0.26545 0.45793
 H1869 H 0.86819 0.26780 0.43616
 H1870 H 0.87702 0.29900 0.49484
 H1871 H 0.84254 0.28806 0.50569
 H1872 H 0.83423 0.25630 0.44731
 C1873 C 0.86763 0.78845 -0.01681
 C1874 C 0.87513 0.78341 -0.03667
 C1875 C 0.86261 0.77116 -0.04972
 C1876 C 0.84303 0.76455 -0.04328
 C1877 C 0.83533 0.77018 -0.02371
 C1878 C 0.84792 0.78204 -0.01046
 H1879 H 0.87690 0.79747 -0.00614
 H1880 H 0.86757 0.76716 -0.06522
 H1881 H 0.83364 0.75559 -0.05395
 H1882 H 0.84249 0.78650 0.00478
 C1883 C -0.11457 -0.04524 -0.02006
 C1884 C -0.12426 -0.03624 -0.03755
 C1885 C -0.11383 -0.01965 -0.04744
 C1886 C -0.09447 -0.01282 -0.04050
 C1887 C -0.08484 -0.02222 -0.02342
 C1888 C -0.09523 -0.03837 -0.01319
 H1889 H -0.12156 -0.05779 -0.01149
 H1890 H -0.12022 -0.01184 -0.06076
 H1891 H -0.08692 -0.00030 -0.04878
 H1892 H -0.08830 -0.04598 0.00008
 C1893 C -0.11290 0.48128 0.45343
 C1894 C -0.12342 0.46486 0.46352
 C1895 C -0.11356 0.45572 0.48085
 C1896 C -0.09399 0.46227 0.48736
 C1897 C -0.08353 0.47825 0.47692
 C1898 C -0.09331 0.48780 0.46001
 H1899 H -0.11943 0.48923 0.44027
 H1900 H -0.12059 0.44328 0.48954
 H1901 H -0.08695 0.45458 0.50052
 H1902 H -0.08573 0.50021 0.45161
 C1903 C 0.38607 -0.01862 0.45232
 C1904 C 0.37555 -0.03500 0.46247
 C1905 C 0.38536 -0.04401 0.47989
 C1906 C 0.40491 -0.03739 0.48641
 C1907 C 0.41539 -0.02148 0.47589
 C1908 C 0.40563 -0.01204 0.45891
 H1909 H 0.37956 -0.01077 0.43908
 H1910 H 0.37831 -0.05638 0.48866
 H1911 H 0.41191 -0.04499 0.49964
 H1912 H 0.41323 0.00034 0.45046
 C1913 C 0.38642 0.45402 -0.01909
 C1914 C 0.37632 0.46379 -0.03593
 C1915 C 0.38658 0.48071 -0.04542
 C1916 C 0.40617 0.48713 -0.03877
 C1917 C 0.41622 0.47697 -0.02238
 C1918 C 0.40601 0.46048 -0.01251
 H1919 H 0.37964 0.44108 -0.01096
 H1920 H 0.37977 0.48922 -0.05809
 H1921 H 0.41354 0.49997 -0.04671
 H1922 H 0.41327 0.45229 0.00022
 C1923 C 0.36206 0.45174 0.77332
 C1924 C 0.37450 0.46454 0.78590
 C1925 C 0.36685 0.48418 0.79160
 C1926 C 0.34717 0.49064 0.78524
 C1927 C 0.33476 0.47773 0.77281
 C1928 C 0.34252 0.45829 0.76678
 H1929 H 0.36712 0.43639 0.76888
 H1930 H 0.37604 0.49462 0.80096
 H1931 H 0.34169 0.50577 0.79004
 H1932 H 0.33328 0.44788 0.75738
 C1933 C 0.35950 -0.05079 0.27404
 C1934 C 0.37215 -0.03795 0.28636
 C1935 C 0.36501 -0.01793 0.29134
 C1936 C 0.34562 -0.01110 0.28452
 C1937 C 0.33300 -0.02402 0.27233
 C1938 C 0.34024 -0.04387 0.26704
 H1939 H 0.36419 -0.06640 0.27014
 H1940 H 0.37440 -0.00745 0.30047
 H1941 H 0.34053 0.00432 0.28878
 H1942 H 0.33078 -0.05432 0.25788
 C1943 C 0.13758 0.54844 0.72892
 C1944 C 0.12491 0.53507 0.71720
 C1945 C 0.13249 0.51520 0.71224
 C1946 C 0.15237 0.50912 0.71834
 C1947 C 0.16505 0.52263 0.72980
 C1948 C 0.15733 0.54226 0.73523
 H1949 H 0.13257 0.56395 0.73282
 H1950 H 0.12313 0.50429 0.70361
 H1951 H 0.15783 0.49383 0.71404
 H1952 H 0.16679 0.55314 0.74386
 C1953 C 0.13142 0.01568 0.21074
 C1954 C 0.12393 0.03555 0.21581
 C1955 C 0.13657 0.04872 0.22779
 C1956 C 0.15621 0.04233 0.23426
 C1957 C 0.16383 0.02269 0.22874
 C1958 C 0.15118 0.00938 0.21700
 H1959 H 0.12207 0.00492 0.20190
 H1960 H 0.13162 0.06422 0.23178
 H1961 H 0.16566 0.05305 0.24309
 H1962 H 0.15657 -0.00590 0.21261
 C1963 C 0.61293 0.70241 0.22738
 C1964 C 0.62516 0.71539 0.21481
 C1965 C 0.61714 0.73482 0.20896
 C1966 C 0.59727 0.74088 0.21514
 C1967 C 0.58502 0.72775 0.22749
 C1968 C 0.59318 0.70854 0.23371
 H1969 H 0.61830 0.68720 0.23195
 H1970 H 0.62618 0.74540 0.19960
 H1971 H 0.59149 0.75585 0.21018
 H1972 H 0.58409 0.69795 0.24307
 C1973 C 0.11380 0.70222 0.72815
 C1974 C 0.12604 0.71508 0.71545
 C1975 C 0.11807 0.73451 0.70952
 C1976 C 0.09823 0.74067 0.71570
 C1977 C 0.08597 0.72767 0.72817
 C1978 C 0.09409 0.70848 0.73451
 H1979 H 0.11912 0.68703 0.73281
 H1980 H 0.12712 0.74500 0.70007
 H1981 H 0.09248 0.75562 0.71067
 H1982 H 0.08499 0.69798 0.74395
 C1983 C 0.63967 0.20037 0.52486
 C1984 C 0.62711 0.21328 0.53716
 C1985 C 0.63452 0.23316 0.54239
 C1986 C 0.65406 0.23981 0.53574
 C1987 C 0.66655 0.22686 0.52350
 C1988 C 0.65908 0.20712 0.51803
 H1989 H 0.63477 0.18486 0.52079
 H1990 H 0.62522 0.24370 0.55151
 H1991 H 0.65934 0.25516 0.54013
 H1992 H 0.66844 0.19664 0.50883
 C1993 C 0.63362 0.70899 0.01623
 C1994 C 0.62625 0.71412 0.03612
 C1995 C 0.63893 0.72620 0.04915
 C1996 C 0.65844 0.73287 0.04253
 C1997 C 0.66588 0.72746 0.02279
 C1998 C 0.65324 0.71548 0.00970
 H1999 H 0.62423 0.70005 0.00561
 H2000 H 0.63404 0.73020 0.06467
 H2001 H 0.66789 0.74189 0.05309
 H2002 H 0.65848 0.71114 -0.00565
 C2003 C 0.11696 0.03984 0.01485
 C2004 C 0.12491 0.03401 0.03431
 C2005 C 0.11259 0.02152 0.04729
 C2006 C 0.09281 0.01529 0.04114
 C2007 C 0.08470 0.02153 0.02192
 C2008 C 0.09705 0.03377 0.00878
 H2009 H 0.12607 0.04913 0.00428
 H2010 H 0.11790 0.01697 0.06251
 H2011 H 0.08364 0.00602 0.05174
 H2012 H 0.09130 0.03873 -0.00619
 C2013 C 0.11850 0.54006 0.51498
 C2014 C 0.12635 0.53415 0.53447
 C2015 C 0.11398 0.52155 0.54729
 C2016 C 0.09426 0.51530 0.54097
 C2017 C 0.08625 0.52164 0.52174
 C2018 C 0.09863 0.53399 0.50875
 H2019 H 0.12764 0.54942 0.50450
 H2020 H 0.11919 0.51692 0.56252
 H2021 H 0.08504 0.50596 0.55146
 H2022 H 0.09295 0.53902 0.49378
 C2023 C 0.61267 0.02241 0.54696
 C2024 C 0.62500 0.03503 0.53410
 C2025 C 0.61708 0.04096 0.51465
 C2026 C 0.59720 0.03488 0.50848
 C2027 C 0.58485 0.02253 0.52150
 C2028 C 0.59293 0.01616 0.54069
 H2029 H 0.61795 0.01776 0.56216
 H2030 H 0.62619 0.05035 0.50416
 H2031 H 0.59148 0.03993 0.49353
 H2032 H 0.58375 0.00680 0.55120
 C2033 C 0.61420 0.52032 0.04715
 C2034 C 0.62660 0.53265 0.03408
 C2035 C 0.61873 0.53822 0.01450
 C2036 C 0.59881 0.53215 0.00843
 C2037 C 0.58638 0.52013 0.02169
 C2038 C 0.59443 0.51406 0.04099
 H2039 H 0.61942 0.51595 0.06245
 H2040 H 0.62789 0.54737 0.00384
 H2041 H 0.59311 0.53695 -0.00661
 H2042 H 0.58519 0.50496 0.05167
 C2043 C 0.01660 0.04336 0.11643
 C2044 C 0.03377 0.03409 0.12642
 C2045 C 0.04384 0.01765 0.11594
 C2046 C 0.03752 0.01137 0.09619
 C2047 C 0.02089 0.02117 0.08618
 C2048 C 0.01035 0.03704 0.09667
 H2049 H 0.00788 0.05576 0.12346
 H2050 H 0.05685 0.00956 0.12260
 H2051 H 0.04598 -0.00100 0.08861
 H2052 H -0.00263 0.04489 0.08949
 C2053 C 0.01583 0.53802 0.61864
 C2054 C 0.03568 0.53304 0.62618
 C2055 C 0.04897 0.52130 0.61346
 C2056 C 0.04272 0.51504 0.59369
 C2057 C 0.02312 0.52052 0.58601
 C2058 C 0.00969 0.53197 0.59874
 H2059 H 0.00498 0.54666 0.62804
 H2060 H 0.06446 0.51738 0.61844
 H2061 H 0.05353 0.50640 0.58418
 H2062 H -0.00559 0.53631 0.59332
 C2063 C 0.51729 0.04492 0.61539
 C2064 C 0.53402 0.03512 0.62562
 C2065 C 0.54340 0.01806 0.61550
 C2066 C 0.53695 0.01173 0.59582
 C2067 C 0.52083 0.02207 0.58553
 C2068 C 0.51088 0.03852 0.59570
 H2069 H 0.50905 0.05777 0.62219
 H2070 H 0.55604 0.00955 0.62235
 H2071 H 0.54491 -0.00112 0.58851
 H2072 H 0.49830 0.04680 0.58830
 C2073 C 0.51510 0.53721 0.11869
 C2074 C 0.53494 0.53233 0.12633
 C2075 C 0.54827 0.52048 0.11375
 C2076 C 0.54209 0.51404 0.09402
 C2077 C 0.52252 0.51946 0.08622
 C2078 C 0.50902 0.53099 0.09883
 H2079 H 0.50421 0.54592 0.12798
 H2080 H 0.56375 0.51661 0.11881
 H2081 H 0.55294 0.50535 0.08461
 H2082 H 0.49377 0.53528 0.09331
 C2083 C 0.20308 0.52136 0.63663
 C2084 C 0.21620 0.53361 0.62420
 C2085 C 0.23570 0.53934 0.63216
 C2086 C 0.24165 0.53345 0.65216
 C2087 C 0.22836 0.52147 0.66460
 C2088 C 0.20912 0.51529 0.65650
 H2089 H 0.18783 0.51687 0.63133
 H2090 H 0.24640 0.54843 0.62299
 H2091 H 0.25666 0.53833 0.65790
 H2092 H 0.19843 0.50620 0.66573
 C2093 C 0.23463 0.03862 0.13140
 C2094 C 0.21515 0.03288 0.12341
 C2095 C 0.20206 0.02052 0.13576
 C2096 C 0.20810 0.01440 0.15562
 C2097 C 0.22730 0.02064 0.16377
 C2098 C 0.24057 0.03269 0.15138
 H2099 H 0.24531 0.04779 0.12228
 H2100 H 0.18683 0.01602 0.13044
 H2101 H 0.19742 0.00526 0.16481
 H2102 H 0.25555 0.03761 0.15716
 C2103 C 0.72656 0.20134 0.61134
 C2104 C 0.71415 0.21425 0.62381
 C2105 C 0.70866 0.23395 0.61621
 C2106 C 0.71513 0.24042 0.59655
 C2107 C 0.72742 0.22743 0.58411
 C2108 C 0.73318 0.20789 0.59180
 H2109 H 0.73080 0.18594 0.61639
 H2110 H 0.69941 0.24444 0.62545
 H2111 H 0.71052 0.25562 0.59111
 H2112 H 0.74243 0.19739 0.58252
 C2113 C 0.70865 0.73332 0.11528
 C2114 C 0.71371 0.71345 0.12276
 C2115 C 0.72570 0.70031 0.11013
 C2116 C 0.73238 0.70683 0.09058
 C2117 C 0.72708 0.72657 0.08306
 C2118 C 0.71515 0.73975 0.09563
 H2119 H 0.69976 0.74402 0.12463
 H2120 H 0.72963 0.68479 0.11509
 H2121 H 0.74135 0.69619 0.08118
 H2122 H 0.71088 0.75510 0.09033
 C2123 C 0.53872 0.73591 0.13091
 C2124 C 0.53307 0.71630 0.12309
 C2125 C 0.52077 0.70327 0.13556
 C2126 C 0.51459 0.70949 0.15534
 C2127 C 0.52072 0.72883 0.16332
 C2128 C 0.53273 0.74204 0.15083
 H2129 H 0.54785 0.74654 0.12170
 H2130 H 0.51634 0.68794 0.13040
 H2131 H 0.50551 0.69884 0.16462
 H2132 H 0.53757 0.75711 0.15649
 C2133 C 0.02157 0.70333 0.63624
 C2134 C 0.03419 0.71624 0.62398
 C2135 C 0.04000 0.73574 0.63191
 C2136 C 0.03382 0.74190 0.65177
 C2137 C 0.02149 0.72881 0.66407
 C2138 C 0.01523 0.70957 0.65596
 H2139 H 0.01702 0.68808 0.63095
 H2140 H 0.04939 0.74627 0.62284
 H2141 H 0.03881 0.75688 0.65752
 H2142 H 0.00591 0.69900 0.66509
 C2143 C 0.53772 0.63202 0.23456
 C2144 C 0.53269 0.62427 0.21477
 C2145 C 0.52081 0.63680 0.20144
 C2146 C 0.51446 0.65659 0.20756
 C2147 C 0.52002 0.66449 0.22708
 C2148 C 0.53160 0.65193 0.24057
 H2149 H 0.54645 0.62277 0.24546
 H2150 H 0.51683 0.63165 0.18599
 H2151 H 0.50573 0.66596 0.19671
 H2152 H 0.53599 0.65751 0.25579
 C2153 C 0.03883 0.63173 0.73526
 C2154 C 0.03380 0.62409 0.71543
 C2155 C 0.02201 0.63674 0.70212
 C2156 C 0.01573 0.65651 0.70833
 C2157 C 0.02124 0.66429 0.72791
 C2158 C 0.03275 0.65163 0.74137
 H2159 H 0.04751 0.62238 0.74612
 H2160 H 0.01806 0.63170 0.68664
 H2161 H 0.00705 0.66596 0.69750
 H2162 H 0.03712 0.65713 0.75662
 C2163 C 0.02117 0.11354 0.04842
 C2164 C 0.03347 0.12596 0.03533
 C2165 C 0.03884 0.11816 0.01566
 C2166 C 0.03258 0.09832 0.00950
 C2167 C 0.02056 0.08587 0.02275
 C2168 C 0.01472 0.09382 0.04216
 H2169 H 0.01694 0.11870 0.06378
 H2170 H 0.04794 0.12734 0.00498
 H2171 H 0.03721 0.09269 -0.00563
 H2172 H 0.00563 0.08456 0.05283
 C2173 C 0.03996 0.61816 0.51504
 C2174 C 0.03407 0.62629 0.53442
 C2175 C 0.02156 0.61403 0.54746
 C2176 C 0.01542 0.59413 0.54146
 C2177 C 0.02179 0.58585 0.52235
 C2178 C 0.03400 0.59815 0.50914
 H2179 H 0.04925 0.62721 0.50441
 H2180 H 0.01694 0.61946 0.56262
 H2181 H 0.00615 0.58502 0.55209
 H2182 H 0.03903 0.59228 0.49423
 C2183 C 0.53907 0.11867 0.51514
 C2184 C 0.53342 0.12644 0.53475
 C2185 C 0.52081 0.11406 0.54758
 C2186 C 0.51436 0.09440 0.54117
 C2187 C 0.52052 0.08645 0.52186
 C2188 C 0.53281 0.09886 0.50883
 H2189 H 0.54842 0.12781 0.50464
 H2190 H 0.51635 0.11917 0.56289
 H2191 H 0.50506 0.08517 0.55168
 H2192 H 0.53769 0.09322 0.49379
 C2193 C 0.54063 0.61688 0.01541
 C2194 C 0.53476 0.62492 0.03484
 C2195 C 0.52226 0.61262 0.04783
 C2196 C 0.51604 0.59279 0.04171
 C2197 C 0.52230 0.58462 0.02252
 C2198 C 0.53458 0.59693 0.00938
 H2199 H 0.54993 0.62597 0.00482
 H2200 H 0.51766 0.61800 0.06302
 H2201 H 0.50674 0.58366 0.05231
 H2202 H 0.53955 0.59114 -0.00557
 C2203 C 0.72993 0.13677 0.54590
 C2204 C 0.71274 0.12683 0.53657
 C2205 C 0.70286 0.13727 0.52001
 C2206 C 0.70963 0.15677 0.51337
 C2207 C 0.72653 0.16656 0.52295
 C2208 C 0.73665 0.15627 0.53921
 H2209 H 0.73843 0.12981 0.55849
 H2210 H 0.68970 0.13076 0.51202
 H2211 H 0.70141 0.16426 0.50081
 H2212 H 0.74975 0.16335 0.54699
 C2213 C 0.73292 0.63396 0.04102
 C2214 C 0.71303 0.62650 0.03602
 C2215 C 0.69993 0.63911 0.02397
 C2216 C 0.70650 0.65863 0.01721
 C2217 C 0.72626 0.66614 0.02247
 C2218 C 0.73940 0.65357 0.03444
 H2219 H 0.74360 0.62462 0.04993
 H2220 H 0.68441 0.63416 0.02007
 H2221 H 0.69590 0.66802 0.00821
 H2222 H 0.75476 0.65887 0.03868
 C2223 C 0.23651 0.61862 0.71139
 C2224 C 0.21693 0.62644 0.71699
 C2225 C 0.20387 0.61395 0.72924
 C2226 C 0.21004 0.59414 0.73540
 C2227 C 0.22935 0.58615 0.72931
 C2228 C 0.24259 0.59867 0.71736
 H2229 H 0.24716 0.62785 0.70230
 H2230 H 0.18857 0.61912 0.73364
 H2231 H 0.19937 0.58485 0.74445
 H2232 H 0.25764 0.59301 0.71254
 C2233 C 0.20277 0.11345 0.22807
 C2234 C 0.21558 0.12581 0.21544
 C2235 C 0.23499 0.11789 0.20941
 C2236 C 0.24116 0.09797 0.21540
 C2237 C 0.22819 0.08561 0.22778
 C2238 C 0.20904 0.09369 0.23424
 H2239 H 0.18759 0.11871 0.23279
 H2240 H 0.24546 0.12701 0.20001
 H2241 H 0.25608 0.09223 0.21028
 H2242 H 0.19856 0.08449 0.24361
 C2243 C 0.71098 1.11756 0.73406
 C2244 C 0.71632 1.12540 0.71440
 C2245 C 0.72862 1.11306 0.70126
 C2246 C 0.73507 1.09334 0.70743
 C2247 C 0.72923 1.08531 0.72681
 C2248 C 0.71726 1.09771 0.74013
 H2249 H 0.70187 1.12669 0.74476
 H2250 H 0.73282 1.11825 0.68590
 H2251 H 0.74413 1.08413 0.69670
 H2252 H 0.71263 1.09202 0.75524
 C2253 C 0.70329 0.61480 0.22909
 C2254 C 0.71627 0.62717 0.21663
 C2255 C 0.73580 0.61930 0.21095
 C2256 C 0.74191 0.59940 0.21704
 C2257 C 0.72875 0.58700 0.22920
 C2258 C 0.70950 0.59504 0.23537
 H2259 H 0.68802 0.62001 0.23355
 H2260 H 0.74639 0.62844 0.20170
 H2261 H 0.75692 0.59369 0.21216
 H2262 H 0.69889 0.58582 0.24456
 C2263 C 0.54633 0.13602 0.73012
 C2264 C 0.53645 0.12576 0.71342
 C2265 C 0.51934 0.13583 0.70413
 C2266 C 0.51277 0.15533 0.71090
 C2267 C 0.52294 0.16548 0.72724
 C2268 C 0.53969 0.15552 0.73685
 H2269 H 0.55937 0.12935 0.73815
 H2270 H 0.51084 0.12901 0.69145
 H2271 H 0.49976 0.16253 0.70312
 H2272 H 0.54793 0.16288 0.74950
 C2273 C 1.03787 0.13195 0.23504
 C2274 C 1.03244 0.12418 0.21537
 C2275 C 1.02046 0.13676 0.20218
 C2276 C 1.01439 0.15662 0.20833
 C2277 C 1.02031 0.16454 0.22773
 C2278 C 1.03201 0.15194 0.24108
 H2279 H 1.04672 0.12267 0.24581
 H2280 H 1.01619 0.13162 0.18682
 H2281 H 1.00554 0.16600 0.19758
 H2282 H 1.03668 0.15755 0.25621
 C2283 C 0.20942 0.63379 0.51677
 C2284 C 0.21475 0.62629 0.53656
 C2285 C 0.22698 0.63892 0.54951
 C2286 C 0.23363 0.65844 0.54289
 C2287 C 0.22802 0.66600 0.52326
 C2288 C 0.21585 0.65346 0.51026
 H2289 H 0.20036 0.62447 0.50618
 H2290 H 0.23115 0.63398 0.56496
 H2291 H 0.24281 0.66781 0.55338
 H2292 H 0.21136 0.65881 0.49499
 C2293 C 0.20825 0.13373 1.01670
 C2294 C 0.21325 0.12630 1.03660
 C2295 C 0.22516 0.13899 1.04977
 C2296 C 0.23188 0.15853 1.04323
 C2297 C 0.22668 0.16599 1.02345
 C2298 C 0.21478 0.15339 1.01026
 H2299 H 0.19942 0.12434 1.00598
 H2300 H 0.22903 0.13408 1.06531
 H2301 H 0.24080 0.16797 1.05389
 H2302 H 0.21059 0.15866 0.99488
 C2303 C 0.20980 0.73318 0.61623
 C2304 C 0.21497 0.71334 0.62371
 C2305 C 0.22716 0.70033 0.61113
 C2306 C 0.23388 0.70692 0.59163
 C2307 C 0.22839 0.72659 0.58406
 C2308 C 0.21632 0.73967 0.59661
 H2309 H 0.20079 0.74381 0.62554
 H2310 H 0.23122 0.68484 0.61609
 H2311 H 0.24300 0.69638 0.58227
 H2312 H 0.21193 0.75498 0.59128
 C2313 C 0.20354 0.23049 1.11372
 C2314 C 0.21289 0.21337 1.12375
 C2315 C 0.22944 0.20342 1.11337
 C2316 C 0.23604 0.21005 1.09384
 C2317 C 0.22644 0.22686 1.08395
 C2318 C 0.21020 0.23706 1.09418
 H2319 H 0.19097 0.23903 1.12067
 H2320 H 0.23745 0.19031 1.11993
 H2321 H 0.24860 0.20176 1.08641
 H2322 H 0.20244 0.25012 1.08702
 C2323 C 0.70246 0.52209 0.13723
 C2324 C 0.71523 0.53486 0.12497
 C2325 C 0.73457 0.54102 0.13300
 C2326 C 0.74071 0.53501 0.15291
 C2327 C 0.72778 0.52247 0.16518
 C2328 C 0.70869 0.51590 0.15700
 H2329 H 0.68734 0.51726 0.13187
 H2330 H 0.74500 0.55053 0.12395
 H2331 H 0.75558 0.54023 0.15871
 H2332 H 0.69826 0.50639 0.16611
 C2333 C 0.70258 1.02122 0.63563
 C2334 C 0.71534 1.03407 0.62343
 C2335 C 0.73484 1.03988 0.63132
 C2336 C 0.74115 1.03348 0.65106
 C2337 C 0.72822 1.02091 0.66329
 C2338 C 0.70898 1.01465 0.65522
 H2339 H 0.68734 1.01665 0.63040
 H2340 H 0.74527 1.04943 0.62231
 H2341 H 0.75612 1.03848 0.65678
 H2342 H 0.69853 1.00515 0.66432
 C2343 C 0.52351 0.20125 0.63890
 C2344 C 0.53592 0.21427 0.62654
 C2345 C 0.54153 0.23387 0.63437
 C2346 C 0.53518 0.24013 0.65413
 C2347 C 0.52287 0.22702 0.66645
 C2348 C 0.51700 0.20758 0.65854
 H2349 H 0.51917 0.18592 0.63368
 H2350 H 0.55079 0.24446 0.62522
 H2351 H 0.53987 0.25526 0.65973
 H2352 H 0.50772 0.19700 0.66772
 C2353 C 1.04509 0.23286 0.13445
 C2354 C 1.03513 0.21627 0.12407
 C2355 C 1.01792 0.20700 0.13404
 C2356 C 1.01157 0.21343 0.15372
 C2357 C 1.02205 0.22940 0.16415
 C2358 C 1.03867 0.23924 0.15414
 H2359 H 1.05807 0.24100 0.12776
 H2360 H 1.00929 0.19448 0.12709
 H2361 H 0.99860 0.20555 0.16091
 H2362 H 1.04705 0.25172 0.16166
 C2363 C 0.61553 0.23232 0.70829
 C2364 C 0.62285 0.21236 0.71326
 C2365 C 0.61026 0.19937 0.72548
 C2366 C 0.59090 0.20610 0.73244
 C2367 C 0.58351 0.22591 0.72720
 C2368 C 0.59605 0.23895 0.71507
 H2369 H 0.62485 0.24292 0.69926
 H2370 H 0.61510 0.18380 0.72936
 H2371 H 0.58151 0.19555 0.74154
 H2372 H 0.59084 0.25435 0.71085
 C2373 C 1.11769 0.23497 0.21033
 C2374 C 1.12558 0.21541 0.21594
 C2375 C 1.11327 0.20239 0.22841
 C2376 C 1.09356 0.20860 0.23480
 C2377 C 1.08550 0.22791 0.22874
 C2378 C 1.09785 0.24110 0.21655
 H2379 H 1.12680 0.24558 0.20107
 H2380 H 1.11852 0.18711 0.23282
 H2381 H 1.08439 0.19797 0.24403
 H2382 H 1.09216 0.25614 0.21173
 C2383 C 0.14009 0.70024 0.52491
 C2384 C 0.12736 0.71340 0.53676
 C2385 C 0.13480 0.73330 0.54187
 C2386 C 0.15450 0.73975 0.53551
 C2387 C 0.16713 0.72657 0.52365
 C2388 C 0.15966 0.70678 0.51834
 H2389 H 0.13519 0.68470 0.52095
 H2390 H 0.12540 0.74403 0.55065
 H2391 H 0.15978 0.75513 0.53975
 H2392 H 0.16912 0.69614 0.50944
 C2393 C 0.13897 0.20051 1.02389
 C2394 C 0.12629 0.21370 1.03578
 C2395 C 0.13372 0.23364 1.04072
 C2396 C 0.15340 0.24005 1.03429
 C2397 C 0.16604 0.22679 1.02252
 C2398 C 0.15853 0.20701 1.01726
 H2399 H 0.13407 0.18494 1.02003
 H2400 H 0.12434 0.24440 1.04949
 H2401 H 0.15870 0.25544 1.03849
 H2402 H 0.16798 0.19632 1.00841
 C2403 C 0.63675 0.54904 0.22895
 C2404 C 0.62413 0.53557 0.21729
 C2405 C 0.63177 0.51570 0.21244
 C2406 C 0.65167 0.50971 0.21856
 C2407 C 0.66431 0.52332 0.22995
 C2408 C 0.65652 0.54295 0.23530
 H2409 H 0.63169 0.56455 0.23277
 H2410 H 0.62245 0.50471 0.20386
 H2411 H 0.65717 0.49442 0.21434
 H2412 H 0.66595 0.55389 0.24388
 C2413 C 0.63251 1.04019 0.73366
 C2414 C 0.62483 1.03472 0.71395
 C2415 C 0.63726 1.02234 0.70100
 C2416 C 0.65686 1.01585 0.70742
 C2417 C 0.66469 1.02173 0.72688
 C2418 C 0.65225 1.03388 0.73999
 H2419 H 0.62331 1.04937 0.74423
 H2420 H 0.63219 1.01806 0.68562
 H2421 H 0.66613 1.00668 0.69684
 H2422 H 0.65780 1.03856 0.75513
 C2423 C 0.86600 0.45970 0.26752
 C2424 C 0.87328 0.46469 0.28749
 C2425 C 0.86060 0.47682 0.30046
 C2426 C 0.84120 0.48361 0.29374
 C2427 C 0.83382 0.47828 0.27396
 C2428 C 0.84646 0.46630 0.26089
 H2429 H 0.87539 0.45071 0.25694
 H2430 H 0.86535 0.48072 0.31605
 H2431 H 0.83175 0.49263 0.30430
 H2432 H 0.84126 0.46203 0.24550
 C2433 C 0.86000 0.94917 0.77453
 C2434 C 0.87261 0.96199 0.78690
 C2435 C 0.86546 0.98201 0.79188
 C2436 C 0.84608 0.98885 0.78499
 C2437 C 0.83351 0.97595 0.77274
 C2438 C 0.84077 0.95610 0.76746
 H2439 H 0.86467 0.93355 0.77064
 H2440 H 0.87481 0.99247 0.80106
 H2441 H 0.84097 1.00428 0.78924
 H2442 H 0.83135 0.94566 0.75826
 C2443 C 0.38179 0.28836 0.76459
 C2444 C 0.37386 0.28282 0.78415
 C2445 C 0.38617 0.27047 0.79726
 C2446 C 0.40594 0.26417 0.79115
 C2447 C 0.41404 0.27020 0.77187
 C2448 C 0.40169 0.28223 0.75857
 H2449 H 0.37269 0.29752 0.75390
 H2450 H 0.38090 0.26613 0.81255
 H2451 H 0.41511 0.25507 0.80186
 H2452 H 0.40744 0.28702 0.74354
 C2453 C 0.88473 0.29277 0.26792
 C2454 C 0.87731 0.28753 0.28777
 C2455 C 0.88972 0.27493 0.30053
 C2456 C 0.90900 0.26788 0.29370
 C2457 C 0.91651 0.27342 0.27401
 C2458 C 0.90414 0.28592 0.26119
 H2459 H 0.87554 0.30210 0.25747
 H2460 H 0.88480 0.27080 0.31601
 H2461 H 0.91825 0.25846 0.30406
 H2462 H 0.90943 0.29038 0.24589
 C2463 C 0.36834 0.78964 0.48408
 C2464 C 0.37600 0.78414 0.46440
 C2465 C 0.36363 0.77151 0.45158
 C2466 C 0.34406 0.76493 0.45806
 C2467 C 0.33619 0.77097 0.47744
 C2468 C 0.34863 0.78325 0.49047
 H2469 H 0.37749 0.79899 0.49457
 H2470 H 0.36870 0.76715 0.43622
 H2471 H 0.33481 0.75564 0.44755
 H2472 H 0.34307 0.78805 0.50557
 C2473 C 0.36393 0.27023 0.95345
 C2474 C 0.37618 0.28294 0.96631
 C2475 C 0.36819 0.28886 0.98574
 C2476 C 0.34830 0.28275 0.99186
 C2477 C 0.33601 0.27034 0.97882
 C2478 C 0.34418 0.26395 0.95967
 H2479 H 0.36925 0.26558 0.93826
 H2480 H 0.37723 0.29831 0.99624
 H2481 H 0.34250 0.28783 1.00678
 H2482 H 0.33505 0.25456 0.94913
 C2483 C 0.77428 0.45114 0.36131
 C2484 C 0.78670 0.46401 0.37384
 C2485 C 0.79187 0.48391 0.36647
 C2486 C 0.78517 0.49058 0.34698
 C2487 C 0.77289 0.47763 0.33447
 C2488 C 0.76738 0.45791 0.34194
 H2489 H 0.77022 0.43562 0.36618
 H2490 H 0.80105 0.49443 0.37575
 H2491 H 0.78958 0.50591 0.34171
 H2492 H 0.75812 0.44746 0.33260
 C2493 C 0.77388 0.94981 0.85978
 C2494 C 0.78605 0.96281 0.87242
 C2495 C 0.79110 0.98275 0.86508
 C2496 C 0.78453 0.98933 0.84550
 C2497 C 0.77252 0.97624 0.83288
 C2498 C 0.76712 0.95648 0.84032
 H2499 H 0.76993 0.93425 0.86462
 H2500 H 0.80010 0.99336 0.87444
 H2501 H 0.78884 1.00470 0.84026
 H2502 H 0.75809 0.94591 0.83088
 C2503 C 0.27165 0.79892 0.38712
 C2504 C 0.28396 0.78602 0.37454
 C2505 C 0.28924 0.76619 0.38201
 C2506 C 0.28296 0.75974 0.40174
 C2507 C 0.27100 0.77284 0.41437
 C2508 C 0.26517 0.79237 0.40671
 H2509 H 0.26748 0.81438 0.38221
 H2510 H 0.29833 0.75563 0.37270
 H2511 H 0.28758 0.74453 0.40715
 H2512 H 0.25613 0.80294 0.41612
 C2513 C 0.26543 0.29042 0.88252
 C2514 C 0.28489 0.28454 0.87460
 C2515 C 0.29769 0.27184 0.88687
 C2516 C 0.29135 0.26542 0.90654
 C2517 C 0.27213 0.27168 0.91460
 C2518 C 0.25917 0.28416 0.90232
 H2519 H 0.25499 0.29988 0.87345
 H2520 H 0.31290 0.26725 0.88160
 H2521 H 0.30182 0.25600 0.91566
 H2522 H 0.24421 0.28915 0.90804
 C2523 C 0.48540 0.28893 0.86850
 C2524 C 0.46593 0.28308 0.87644
 C2525 C 0.45301 0.27051 0.86414
 C2526 C 0.45922 0.26424 0.84438
 C2527 C 0.47843 0.27053 0.83626
 C2528 C 0.49153 0.28283 0.84861
 H2529 H 0.49593 0.29828 0.87760
 H2530 H 0.43779 0.26593 0.86942
 H2531 H 0.44865 0.25494 0.83521
 H2532 H 0.50649 0.28783 0.84286
 C2533 C 0.98415 0.29160 0.36628
 C2534 C 0.96457 0.28590 0.37405
 C2535 C 0.95169 0.27335 0.36166
 C2536 C 0.95812 0.26682 0.34207
 C2537 C 0.97751 0.27283 0.33419
 C2538 C 0.99049 0.28524 0.34655
 H2539 H 0.99464 0.30095 0.37544
 H2540 H 0.93638 0.26891 0.36681
 H2541 H 0.94766 0.25743 0.33288
 H2542 H 1.00559 0.29004 0.34098
 C2543 C 0.45172 0.36256 0.77240
 C2544 C 0.46459 0.37493 0.78497
 C2545 C 0.48418 0.36715 0.79059
 C2546 C 0.49045 0.34736 0.78430
 C2547 C 0.47740 0.33496 0.77202
 C2548 C 0.45808 0.34291 0.76593
 H2549 H 0.43642 0.36771 0.76798
 H2550 H 0.49470 0.37629 0.79991
 H2551 H 0.50550 0.34173 0.78913
 H2552 H 0.44755 0.33369 0.75663
 C2553 C 0.94949 0.36038 0.27521
 C2554 C 0.96231 0.37314 0.28743
 C2555 C 0.98236 0.36606 0.29235
 C2556 C 0.98922 0.34663 0.28557
 C2557 C 0.97631 0.33393 0.27346
 C2558 C 0.95644 0.34110 0.26823
 H2559 H 0.93387 0.36499 0.27136
 H2560 H 0.99284 0.37551 0.30140
 H2561 H 1.00466 0.34158 0.28977
 H2562 H 0.94600 0.33158 0.25914
 C2563 C 0.26633 0.86766 0.45975
 C2564 C 0.28614 0.87523 0.46491
 C2565 C 0.29904 0.86286 0.47741
 C2566 C 0.29250 0.84337 0.48422
 C2567 C 0.27295 0.83560 0.47857
 C2568 C 0.25987 0.84803 0.46639
 H2569 H 0.25579 0.87682 0.45051
 H2570 H 0.31450 0.86785 0.48149
 H2571 H 0.30306 0.83412 0.49341
 H2572 H 0.24466 0.84254 0.46186
 C2573 C 0.26605 0.36768 0.96062
 C2574 C 0.28581 0.37524 0.96605
 C2575 C 0.29867 0.36268 0.97840
 C2576 C 0.29214 0.34305 0.98482
 C2577 C 0.27267 0.33532 0.97888
 C2578 C 0.25962 0.34791 0.96684
 H2579 H 0.25553 0.37698 0.95147
 H2580 H 0.31408 0.36763 0.98269
 H2581 H 0.30267 0.33368 0.99393
 H2582 H 0.24446 0.34244 0.96213
 C2583 C 0.77398 0.38995 0.29910
 C2584 C 0.78669 0.37761 0.28637
 C2585 C 0.79253 0.38537 0.26682
 C2586 C 0.78610 0.40505 0.26034
 C2587 C 0.77347 0.41733 0.27314
 C2588 C 0.76738 0.40948 0.29253
 H2589 H 0.76944 0.38481 0.31438
 H2590 H 0.80202 0.37625 0.25644
 H2591 H 0.79098 0.41061 0.24526
 H2592 H 0.75784 0.41862 0.30288
   
