data_POSCAR
  _audit_creation_date              2014-09-24
  _audit_creation_method            'ToBaCCo'
  _symmetry_space_group_name_H-M    'P1'
  _symmetry_Int_Tables_number       1
  _symmetry_cell_setting            triclinic
  loop_
  _symmetry_equiv_pos_as_xyz
 x,y,z
_cell_length_a 50.9712
_cell_length_b 50.9971
_cell_length_c 50.9535
_cell_angle_alpha 89.966100
_cell_angle_beta 89.944200
_cell_angle_gamma 89.974900
loop_
  _atom_site_label
  _atom_site_type_symbol
  _atom_site_fract_x
  _atom_site_fract_y
  _atom_site_fract_z
C1 C 0.33626 1.37109 0.33675
 C2 C 0.34831 1.38295 0.31497
 C3 C 0.37192 1.37301 0.30445
 C4 C 0.38325 1.35060 0.31631
 C5 C 0.37137 1.33855 0.33802
 C6 C 0.34781 1.34880 0.34826
 C7 C 0.31265 1.38103 0.34700
 C8 C 0.30013 1.36889 0.36851
 C9 C 0.31232 1.34685 0.38013
 C10 C 0.33578 1.33669 0.37001
 C11 C 0.34725 1.31437 0.38128
 C12 C 0.37039 1.30359 0.37075
 C13 C 0.38255 1.31609 0.34942
 H14 H 0.33918 1.40002 0.30614
 H15 H 0.40093 1.34177 0.30868
 H16 H 0.30379 1.39810 0.33788
 H17 H 0.30414 1.33737 0.39722
 H18 H 0.33816 1.30559 0.39837
 H19 H 0.40054 1.30801 0.34141
 C20 C 0.33512 0.86933 0.83635
 C21 C 0.34668 0.88094 0.81416
 C22 C 0.37009 0.87074 0.80348
 C23 C 0.38165 0.84865 0.81520
 C24 C 0.37027 0.83678 0.83724
 C25 C 0.34693 0.84714 0.84788
 C26 C 0.31167 0.87928 0.84690
 C27 C 0.29956 0.86734 0.86873
 C28 C 0.31197 0.84538 0.88035
 C29 C 0.33533 0.83520 0.86996
 C30 C 0.34706 0.81294 0.88115
 C31 C 0.36997 0.80213 0.87031
 C32 C 0.38174 0.81449 0.84857
 H33 H 0.33693 0.89741 0.80499
 H34 H 0.39952 0.84054 0.80695
 H35 H 0.30262 0.89624 0.83775
 H36 H 0.30402 0.83598 0.89759
 H37 H 0.33803 0.80360 0.89801
 H38 H 0.39993 0.80703 0.84051
 C39 C 0.83866 1.37277 0.83872
 C40 C 0.85039 1.38472 0.81684
 C41 C 0.87348 1.37423 0.80550
 C42 C 0.88443 1.35143 0.81667
 C43 C 0.87285 1.33926 0.83849
 C44 C 0.84988 1.34996 0.84957
 C45 C 0.81555 1.38309 0.84964
 C46 C 0.80360 1.37097 0.87143
 C47 C 0.81489 1.34819 0.88200
 C48 C 0.83795 1.33766 0.87132
 C49 C 0.84906 1.31482 0.88184
 C50 C 0.87175 1.30380 0.87076
 C51 C 0.88377 1.31638 0.84925
 H52 H 0.84084 1.40178 0.80870
 H53 H 0.90205 1.34295 0.80823
 H54 H 0.80661 1.40013 0.84064
 H55 H 0.80561 1.33862 0.89861
 H56 H 0.83979 1.30531 0.89849
 H57 H 0.90174 1.30866 0.84096
 C58 C 0.83640 0.87015 0.33584
 C59 C 0.84726 0.88049 0.31274
 C60 C 0.86941 0.86890 0.30091
 C61 C 0.88113 0.84704 0.31338
 C62 C 0.87043 0.83651 0.33647
 C63 C 0.84794 0.84801 0.34770
 C64 C 0.81389 0.88136 0.34704
 C65 C 0.80277 0.87088 0.36999
 C66 C 0.81437 0.84867 0.38166
 C67 C 0.83687 0.83723 0.37069
 C68 C 0.84824 0.81493 0.38213
 C69 C 0.87049 0.80310 0.37077
 C70 C 0.88170 0.81433 0.34825
 H71 H 0.83805 0.89740 0.30366
 H72 H 0.89865 0.83797 0.30567
 H73 H 0.80488 0.89828 0.33779
 H74 H 0.80558 0.83968 0.39879
 H75 H 0.83986 0.80707 0.40001
 H76 H 0.89893 0.80537 0.33954
 C77 C 0.66552 0.63111 0.33465
 C78 C 0.65531 0.62056 0.31140
 C79 C 0.63341 0.63216 0.29887
 C80 C 0.62159 0.65417 0.31072
 C81 C 0.63164 0.66493 0.33398
 C82 C 0.65373 0.65340 0.34595
 C83 C 0.68760 0.61982 0.34663
 C84 C 0.69831 0.63068 0.36955
 C85 C 0.68604 0.65258 0.38107
 C86 C 0.66401 0.66411 0.36929
 C87 C 0.65226 0.68635 0.38039
 C88 C 0.63063 0.69844 0.36818
 C89 C 0.62017 0.68729 0.34525
 H90 H 0.66461 0.60319 0.30364
 H91 H 0.60468 0.66331 0.30158
 H92 H 0.69685 0.60280 0.33782
 H93 H 0.69341 0.66066 0.39927
 H94 H 0.65996 0.69402 0.39863
 H95 H 0.60334 0.69636 0.33592
 C96 C 0.66524 0.12999 0.83699
 C97 C 0.65406 0.11825 0.81474
 C98 C 0.63070 0.12822 0.80380
 C99 C 0.61819 0.14955 0.81591
 C100 C 0.62916 0.16153 0.83809
 C101 C 0.65282 0.15179 0.84862
 C102 C 0.68881 0.12047 0.84758
 C103 C 0.70063 0.13263 0.86942
 C104 C 0.68779 0.15437 0.88096
 C105 C 0.66414 0.16397 0.87067
 C106 C 0.65184 0.18585 0.88198
 C107 C 0.62814 0.19564 0.87166
 C108 C 0.61704 0.18336 0.84965
 H109 H 0.66349 0.10126 0.80617
 H110 H 0.60010 0.15716 0.80767
 H111 H 0.69824 0.10371 0.83843
 H112 H 0.69556 0.16395 0.89816
 H113 H 0.66127 0.19556 0.89832
 H114 H 0.59896 0.19096 0.84140
 C115 C 1.16601 0.63155 0.83473
 C116 C 1.15459 0.62064 0.81220
 C117 C 1.13168 0.63140 0.80138
 C118 C 1.12028 0.65359 0.81322
 C119 C 1.13150 0.66471 0.83575
 C120 C 1.15440 0.65361 0.84662
 C121 C 1.18905 0.62085 0.84523
 C122 C 1.20117 0.63213 0.86750
 C123 C 1.18903 0.65394 0.87945
 C124 C 1.16591 0.66482 0.86912
 C125 C 1.15445 0.68712 0.88058
 C126 C 1.13163 0.69835 0.86974
 C127 C 1.12043 0.68706 0.84728
 H128 H 1.16360 0.60375 0.80293
 H129 H 1.10317 0.66274 0.80459
 H130 H 1.19697 0.60361 0.83584
 H131 H 1.19786 0.66284 0.89664
 H132 H 1.16386 0.69608 0.89737
 H133 H 1.10299 0.69577 0.83873
 C134 C 1.16447 0.12938 0.33740
 C135 C 1.15464 0.11897 0.31388
 C136 C 1.13288 0.13059 0.30112
 C137 C 1.12092 0.15254 0.31289
 C138 C 1.13064 0.16319 0.33632
 C139 C 1.15249 0.15156 0.34864
 C140 C 1.18629 0.11796 0.34973
 C141 C 1.19653 0.12829 0.37324
 C142 C 1.18423 0.15058 0.38431
 C143 C 1.16239 0.16217 0.37217
 C144 C 1.15050 0.18448 0.38308
 C145 C 1.12908 0.19655 0.37067
 C146 C 1.11896 0.18549 0.34747
 H147 H 1.16411 0.10170 0.30609
 H148 H 1.10414 0.16173 0.30355
 H149 H 1.19545 0.10093 0.34082
 H150 H 1.19151 0.15957 0.40204
 H151 H 1.15820 0.19280 0.40108
 H152 H 1.10188 0.19396 0.33813
 C153 C 0.66206 1.37263 0.66155
 C154 C 0.65096 1.38294 0.68455
 C155 C 0.62941 1.37056 0.69663
 C156 C 0.61849 1.34819 0.68490
 C157 C 0.62932 1.33769 0.66186
 C158 C 0.65128 1.34988 0.65020
 C159 C 0.68400 1.38460 0.64999
 C160 C 0.69566 1.37406 0.62710
 C161 C 0.68466 1.35121 0.61609
 C162 C 0.66261 1.33915 0.62737
 C163 C 0.65187 1.31637 0.61630
 C164 C 0.62983 1.30422 0.62759
 C165 C 0.61879 1.31494 0.65056
 H166 H 0.65904 1.40076 0.69278
 H167 H 0.60174 1.33871 0.69399
 H168 H 0.69200 1.40167 0.65960
 H169 H 0.69332 1.34268 0.59860
 H170 H 0.66065 1.30803 0.59880
 H171 H 0.60247 1.30534 0.66019
 C172 C 0.66027 0.87281 1.16247
 C173 C 0.64815 0.88404 1.18449
 C174 C 0.62512 0.87318 1.19530
 C175 C 0.61438 0.85051 1.18342
 C176 C 0.62635 0.83908 1.16140
 C177 C 0.64938 0.85021 1.15091
 C178 C 0.68331 0.88370 1.15198
 C179 C 0.69578 0.87216 1.13028
 C180 C 0.68447 0.84988 1.11852
 C181 C 0.66153 0.83872 1.12885
 C182 C 0.65067 0.81613 1.11753
 C183 C 0.62799 0.80454 1.12826
 C184 C 0.61577 0.81641 1.14992
 H185 H 0.65681 0.90136 1.19330
 H186 H 0.59709 0.84109 1.19120
 H187 H 0.69180 0.90100 1.16096
 H188 H 0.69325 0.84127 1.10120
 H189 H 0.65984 0.80782 1.10025
 H190 H 0.59816 0.80769 1.15810
 C191 C 1.16406 1.37023 1.16388
 C192 C 1.15222 1.38125 1.18615
 C193 C 1.12937 1.37012 1.19698
 C194 C 1.11780 1.34846 1.18454
 C195 C 1.12937 1.33729 1.16217
 C196 C 1.15269 1.34813 1.15189
 C197 C 1.18725 1.38094 1.15367
 C198 C 1.19975 1.36959 1.13163
 C199 C 1.18784 1.34778 1.11956
 C200 C 1.16460 1.33691 1.12959
 C201 C 1.15327 1.31477 1.11785
 C202 C 1.13028 1.30351 1.12831
 C203 C 1.11825 1.31520 1.15017
 H204 H 1.16081 1.39859 1.19486
 H205 H 1.10004 1.33998 1.19263
 H206 H 1.19501 1.39821 1.16312
 H207 H 1.19695 1.33886 1.10250
 H208 H 1.16229 1.30656 1.10045
 H209 H 1.10044 1.30672 1.15818
 C210 C 1.16489 0.86904 0.66516
 C211 C 1.15299 0.88021 0.68733
 C212 C 1.13036 0.86890 0.69842
 C213 C 1.11908 0.84688 0.68638
 C214 C 1.13066 0.83560 0.66408
 C215 C 1.15375 0.84664 0.65350
 C216 C 1.18795 0.87984 0.65475
 C217 C 1.20061 0.86826 0.63292
 C218 C 1.18895 0.84609 0.62123
 C219 C 1.16578 0.83517 0.63140
 C220 C 1.15466 0.81272 0.62004
 C221 C 1.13159 0.80165 0.63032
 C222 C 1.11977 0.81317 0.65250
 H223 H 1.16139 0.89778 0.69578
 H224 H 1.10150 0.83825 0.69471
 H225 H 1.19552 0.89734 0.66392
 H226 H 1.19817 0.83696 0.60435
 H227 H 1.16402 0.80374 0.60315
 H228 H 1.10257 0.80439 0.66133
 C229 C 0.33862 0.62673 0.66117
 C230 C 0.34966 0.61561 0.68378
 C231 C 0.37181 0.62686 0.69568
 C232 C 0.38278 0.64977 0.68475
 C233 C 0.37207 0.66102 0.66202
 C234 C 0.34989 0.64949 0.65019
 C235 C 0.31620 0.61572 0.64963
 C236 C 0.30459 0.62736 0.62751
 C237 C 0.31630 0.64975 0.61632
 C238 C 0.33872 0.66096 0.62763
 C239 C 0.34993 0.68368 0.61693
 C240 C 0.37207 0.69531 0.62848
 C241 C 0.38291 0.68392 0.65123
 H242 H 0.34090 0.59818 0.69228
 H243 H 0.39922 0.65934 0.69413
 H244 H 0.30739 0.59836 0.65821
 H245 H 0.30818 0.65844 0.59872
 H246 H 0.34126 0.69252 0.59961
 H247 H 0.39935 0.69304 0.66105
 C248 C 0.33551 0.12942 1.16394
 C249 C 0.34557 0.11867 1.18719
 C250 C 0.36746 0.13009 1.19986
 C251 C 0.37944 0.15208 1.18815
 C252 C 0.36952 0.16304 1.16492
 C253 C 0.34743 0.15172 1.15280
 C254 C 0.31344 0.11833 1.15184
 C255 C 0.30280 0.12944 1.12899
 C256 C 0.31513 0.15141 1.11765
 C257 C 0.33727 0.16267 1.12949
 C258 C 0.34923 0.18490 1.11854
 C259 C 0.37090 0.19666 1.13079
 C260 C 0.38122 0.18534 1.15380
 H261 H 0.33614 0.10133 1.19485
 H262 H 0.39636 0.16107 1.19740
 H263 H 0.30412 0.10128 1.16051
 H264 H 0.30776 0.15970 1.09953
 H265 H 0.34135 0.19344 1.10071
 H266 H 0.39847 0.19361 1.16299
 C267 C 0.83816 0.62766 1.16172
 C268 C 0.84927 0.61667 1.18435
 C269 C 0.87142 0.62800 1.19613
 C270 C 0.88238 0.65083 1.18504
 C271 C 0.87160 0.66194 1.16225
 C272 C 0.84940 0.65032 1.15054
 C273 C 0.81574 0.61653 1.15033
 C274 C 0.80409 0.62802 1.12807
 C275 C 0.81576 0.65025 1.11671
 C276 C 0.83819 0.66159 1.12789
 C277 C 0.84931 0.68430 1.11705
 C278 C 0.87145 0.69603 1.12850
 C279 C 0.88237 0.68479 1.15130
 H280 H 0.84053 0.59929 1.19298
 H281 H 0.89885 0.66045 1.19433
 H282 H 0.80759 0.59884 1.15880
 H283 H 0.80699 0.65905 1.09943
 H284 H 0.84059 0.69302 1.09971
 H285 H 0.89882 0.69400 1.16103
 C286 C 0.83292 0.13171 0.66579
 C287 C 0.84344 0.12052 0.68867
 C288 C 0.86621 0.13109 0.70056
 C289 C 0.87857 0.15263 0.68841
 C290 C 0.86826 0.16395 0.66555
 C291 C 0.84530 0.15353 0.65426
 C292 C 0.80991 0.12158 0.65453
 C293 C 0.79863 0.13319 0.63210
 C294 C 0.81151 0.15492 0.62059
 C295 C 0.83459 0.16510 0.63156
 C296 C 0.84687 0.18702 0.62030
 C297 C 0.86992 0.19747 0.63134
 C298 C 0.88037 0.18583 0.65404
 H299 H 0.83360 0.10360 0.69674
 H300 H 0.89614 0.16098 0.69704
 H301 H 0.80044 0.10483 0.66364
 H302 H 0.80420 0.16406 0.60295
 H303 H 0.83788 0.19625 0.60343
 H304 H 0.89794 0.19396 0.66284
 C305 C 1.37119 0.33647 0.66343
 C306 C 1.38330 0.34822 0.68520
 C307 C 1.37319 0.37160 0.69627
 C308 C 1.35065 0.38288 0.68489
 C309 C 1.33846 0.37140 0.66306
 C310 C 1.34873 0.34809 0.65234
 C311 C 1.38103 0.31299 0.65288
 C312 C 1.36863 0.30059 0.63152
 C313 C 1.34631 0.31275 0.62038
 C314 C 1.33633 0.33622 0.63069
 C315 C 1.31386 0.34780 0.61979
 C316 C 1.30362 0.37127 0.63016
 C317 C 1.31597 0.38278 0.65194
 H318 H 1.40013 0.33843 0.69353
 H319 H 1.34246 0.40074 0.69307
 H320 H 1.39827 0.30412 0.66167
 H321 H 1.33651 0.30455 0.60350
 H322 H 1.30408 0.33800 0.60372
 H323 H 1.30801 0.40066 0.66026
 C324 C 1.36842 0.83377 1.16524
 C325 C 1.37957 0.84493 1.18782
 C326 C 1.36896 0.86782 1.19893
 C327 C 1.34751 0.88010 1.18659
 C328 C 1.33608 0.86910 1.16415
 C329 C 1.34651 0.84582 1.15346
 C330 C 1.37861 0.81054 1.15451
 C331 C 1.36707 0.79880 1.13229
 C332 C 1.34539 0.81145 1.12042
 C333 C 1.33505 0.83466 1.13094
 C334 C 1.31314 0.84671 1.11940
 C335 C 1.30225 0.86953 1.13027
 C336 C 1.31419 0.88094 1.15239
 H337 H 1.39626 0.83553 1.19708
 H338 H 1.33970 0.89831 1.19421
 H339 H 1.39537 0.80131 1.16385
 H340 H 1.33637 0.80383 1.10285
 H341 H 1.30414 0.83800 1.10221
 H342 H 1.30666 0.89907 1.16047
 C343 C 0.87323 0.33910 1.16161
 C344 C 0.88379 0.35054 1.18431
 C345 C 0.87164 0.37224 1.19614
 C346 C 0.84908 0.38310 1.18446
 C347 C 0.83828 0.37187 1.16180
 C348 C 0.85030 0.34970 1.15039
 C349 C 0.88511 0.31704 1.15022
 C350 C 0.87441 0.30520 1.12751
 C351 C 0.85143 0.31607 1.11660
 C352 C 0.83936 0.33814 1.12780
 C353 C 0.81642 0.34874 1.11681
 C354 C 0.80416 0.37071 1.12829
 C355 C 0.81549 0.38234 1.15051
 H356 H 0.90132 0.34228 1.19310
 H357 H 0.83999 0.40041 1.19275
 H358 H 0.90232 0.30919 1.15973
 H359 H 0.84278 0.30727 1.09926
 H360 H 0.80846 0.34005 1.09916
 H361 H 0.80622 0.39933 1.15934
 C362 C 0.87078 0.83731 0.66402
 C363 C 0.88158 0.84867 0.68663
 C364 C 0.87014 0.87100 0.69803
 C365 C 0.84807 0.88250 0.68600
 C366 C 0.83699 0.87131 0.66344
 C367 C 0.84831 0.84858 0.65246
 C368 C 0.88185 0.81460 0.65306
 C369 C 0.87075 0.80303 0.63055
 C370 C 0.84832 0.81436 0.61927
 C371 C 0.83707 0.83704 0.62999
 C372 C 0.81459 0.84820 0.61871
 C373 C 0.80293 0.87066 0.62980
 C374 C 0.81456 0.88232 0.65189
 H375 H 0.89871 0.83987 0.69568
 H376 H 0.83954 0.90025 0.69394
 H377 H 0.89859 0.80565 0.66257
 H378 H 0.83955 0.80539 0.60209
 H379 H 0.80649 0.83948 0.60113
 H380 H 0.80577 0.89972 0.66041
 C381 C 0.62941 0.66297 0.66298
 C382 C 0.61857 0.65193 0.68577
 C383 C 0.63041 0.63001 0.69776
 C384 C 0.65336 0.61941 0.68680
 C385 C 0.66429 0.63011 0.66392
 C386 C 0.65230 0.65197 0.65194
 C387 C 0.61806 0.68521 0.65137
 C388 C 0.62944 0.69682 0.62910
 C389 C 0.65187 0.68529 0.61779
 C390 C 0.66344 0.66307 0.62916
 C391 C 0.68627 0.65211 0.61836
 C392 C 0.69825 0.63019 0.63015
 C393 C 0.68722 0.61949 0.65304
 H394 H 0.60144 0.66096 0.69451
 H395 H 0.66270 0.60273 0.69613
 H396 H 0.60065 0.69388 0.66000
 H397 H 0.66032 0.69338 0.60005
 H398 H 0.69506 0.66125 0.60131
 H399 H 0.69656 0.60280 0.66237
 C400 C 0.62619 1.16126 1.16051
 C401 C 0.61555 1.14991 1.18326
 C402 C 0.62736 1.12777 1.19480
 C403 C 0.65016 1.11725 1.18344
 C404 C 0.66105 1.12843 1.16076
 C405 C 0.64907 1.15055 1.14926
 C406 C 0.61448 1.18344 1.14920
 C407 C 0.62524 1.19524 1.12647
 C408 C 0.64818 1.18429 1.11553
 C409 C 0.66014 1.16215 1.12672
 C410 C 0.68317 1.15159 1.11586
 C411 C 0.69542 1.12968 1.12746
 C412 C 0.68398 1.11804 1.14965
 H413 H 0.59853 1.15889 1.19225
 H414 H 0.65951 1.10037 1.19239
 H415 H 0.59736 1.19141 1.15878
 H416 H 0.65691 1.19311 1.09821
 H417 H 0.69126 1.16031 1.09825
 H418 H 0.69325 1.10110 1.15858
 C419 C 0.12623 0.66081 1.16132
 C420 C 0.11515 0.64887 1.18356
 C421 C 0.12627 0.62612 1.19468
 C422 C 0.14913 0.61555 1.18297
 C423 C 0.16047 0.62739 1.16083
 C424 C 0.14903 0.65010 1.14998
 C425 C 0.11489 0.68344 1.15043
 C426 C 0.12602 0.69567 1.12808
 C427 C 0.14896 0.68474 1.11715
 C428 C 0.16051 0.66217 1.12788
 C429 C 0.18344 0.65156 1.11688
 C430 C 0.19521 0.62909 1.12786
 C431 C 0.18335 0.61697 1.14958
 H432 H 0.09766 0.65738 1.19225
 H433 H 0.15881 0.59853 1.19102
 H434 H 0.09770 0.69134 1.15996
 H435 H 0.15797 0.69385 1.10014
 H436 H 0.19180 0.66066 1.09958
 H437 H 0.19224 0.59956 1.15798
 C438 C 0.12717 1.16087 0.66165
 C439 C 0.11546 1.14912 0.68365
 C440 C 0.12648 1.12641 0.69525
 C441 C 0.14960 1.11590 0.68425
 C442 C 0.16144 1.12743 0.66222
 C443 C 0.15021 1.15001 0.65089
 C444 C 0.11633 1.18359 0.65045
 C445 C 0.12830 1.19574 0.62878
 C446 C 0.15091 1.18434 0.61773
 C447 C 0.16205 1.16175 0.62879
 C448 C 0.18496 1.15086 0.61816
 C449 C 0.19664 1.12863 0.62969
 C450 C 0.18450 1.11685 0.65147
 H451 H 0.09818 1.15836 0.69167
 H452 H 0.15849 1.09859 0.69288
 H453 H 0.09875 1.19214 0.65885
 H454 H 0.15985 1.19283 0.60041
 H455 H 0.19345 1.15966 0.60077
 H456 H 0.19327 1.09957 0.66028
 C457 C 1.37149 0.66305 0.33690
 C458 C 1.38351 0.65099 0.31524
 C459 C 1.37328 0.62759 0.30443
 C460 C 1.35061 0.61664 0.31590
 C461 C 1.33849 0.62844 0.33765
 C462 C 1.34897 0.65175 0.34818
 C463 C 1.38162 0.68647 0.34719
 C464 C 1.36943 0.69908 0.36872
 C465 C 1.34729 0.68712 0.38017
 C466 C 1.33687 0.66380 0.36994
 C467 C 1.31431 0.65254 0.38097
 C468 C 1.30340 0.62954 0.37026
 C469 C 1.31588 0.61743 0.34887
 H470 H 1.40036 0.66060 0.30674
 H471 H 1.34229 0.59879 0.30787
 H472 H 1.39922 0.69426 0.33833
 H473 H 1.33771 0.69631 0.39682
 H474 H 1.30550 0.66163 0.39803
 H475 H 1.30769 0.59959 0.34069
 C476 C 1.36982 1.16442 0.83600
 C477 C 1.38126 1.15281 0.81379
 C478 C 1.37046 1.13009 0.80265
 C479 C 1.34851 1.11834 0.81464
 C480 C 1.33695 1.12966 0.83691
 C481 C 1.34757 1.15283 0.84761
 C482 C 1.38013 1.18765 0.84646
 C483 C 1.36825 1.19995 0.86835
 C484 C 1.34630 1.18780 0.88002
 C485 C 1.33584 1.16449 0.86978
 C486 C 1.31350 1.15293 0.88107
 C487 C 1.30284 1.12969 0.87053
 C488 C 1.31472 1.11830 0.84843
 H489 H 1.39828 1.16182 0.80472
 H490 H 1.34047 1.10028 0.80690
 H491 H 1.39753 1.19558 0.83735
 H492 H 1.33699 1.19675 0.89695
 H493 H 1.30415 1.16254 0.89754
 H494 H 1.30649 1.10057 0.84006
 C495 C 0.87094 0.66329 0.83822
 C496 C 0.88180 0.65246 0.81535
 C497 C 0.87047 0.63033 0.80350
 C498 C 0.84844 0.61851 0.81532
 C499 C 0.83740 0.62907 0.83823
 C500 C 0.84864 0.65157 0.84970
 C501 C 0.88176 0.68589 0.84957
 C502 C 0.87044 0.69719 0.87203
 C503 C 0.84854 0.68500 0.88371
 C504 C 0.83750 0.66242 0.87257
 C505 C 0.81530 0.65070 0.88384
 C506 C 0.80392 0.62829 0.87259
 C507 C 0.81509 0.61763 0.84964
 H508 H 0.89887 0.66154 0.80644
 H509 H 0.84000 0.60089 0.80703
 H510 H 0.89877 0.69504 0.84062
 H511 H 0.84013 0.69281 0.90159
 H512 H 0.80668 0.65919 0.90135
 H513 H 0.80620 0.60092 0.84008
 C514 C 0.87364 1.16067 0.34004
 C515 C 0.88561 1.14923 0.31805
 C516 C 0.87478 1.12667 0.30606
 C517 C 0.85163 1.11591 0.31676
 C518 C 0.83950 1.12716 0.33877
 C519 C 0.85051 1.14965 0.35043
 C520 C 0.88429 1.18327 0.35160
 C521 C 0.87202 1.19517 0.37321
 C522 C 0.84927 1.18367 0.38387
 C523 C 0.83835 1.16116 0.37247
 C524 C 0.81531 1.15013 0.38269
 C525 C 0.80386 1.12799 0.37082
 C526 C 0.81634 1.11641 0.34913
 H527 H 0.90298 1.15858 0.31034
 H528 H 0.84289 1.09868 0.30785
 H529 H 0.90196 1.19193 0.34349
 H530 H 0.84008 1.19201 0.40111
 H531 H 0.80654 1.15876 0.40001
 H532 H 0.80774 1.09921 0.34007
 C533 C 0.63083 0.33604 0.33539
 C534 C 0.62091 0.34668 0.31200
 C535 C 0.63310 0.36829 0.29979
 C536 C 0.65537 0.37949 0.31198
 C537 C 0.66548 0.36902 0.33533
 C538 C 0.65319 0.34727 0.34712
 C539 C 0.61903 0.31397 0.34692
 C540 C 0.62923 0.30307 0.37022
 C541 C 0.65150 0.31449 0.38173
 C542 C 0.66353 0.33648 0.37041
 C543 C 0.68604 0.34751 0.38177
 C544 C 0.69839 0.36930 0.37011
 C545 C 0.68800 0.37982 0.34687
 H546 H 0.60377 0.33779 0.30307
 H547 H 0.66507 0.39647 0.30387
 H548 H 0.60245 0.30504 0.33718
 H549 H 0.65962 0.30607 0.39951
 H550 H 0.69428 0.33854 0.39917
 H551 H 0.69761 0.39643 0.33768
 C552 C 0.62858 0.83824 0.83790
 C553 C 0.61764 0.84959 0.81533
 C554 C 0.62903 0.87188 0.80382
 C555 C 0.65111 0.88342 0.81576
 C556 C 0.66224 0.87231 0.83834
 C557 C 0.65103 0.84957 0.84941
 C558 C 0.61769 0.81548 0.84889
 C559 C 0.62916 0.80358 0.87093
 C560 C 0.65133 0.81526 0.88257
 C561 C 0.66237 0.83809 0.87189
 C562 C 0.68479 0.84942 0.88316
 C563 C 0.69599 0.87225 0.87231
 C564 C 0.68458 0.88345 0.84986
 H565 H 0.60051 0.84075 0.80635
 H566 H 0.65958 0.90117 0.80776
 H567 H 0.60051 0.80667 0.83996
 H568 H 0.65987 0.80689 0.90013
 H569 H 0.69376 0.83990 0.89988
 H570 H 0.69325 0.90086 0.84123
 C571 C 0.12963 0.33661 0.83729
 C572 C 0.11805 0.34835 0.81521
 C573 C 0.12807 0.37200 0.80493
 C574 C 0.14992 0.38364 0.81697
 C575 C 0.16171 0.37211 0.83896
 C576 C 0.15157 0.34849 0.84916
 C577 C 0.11993 0.31287 0.84731
 C578 C 0.13195 0.30044 0.86889
 C579 C 0.15379 0.31279 0.88075
 C580 C 0.16366 0.33655 0.87095
 C581 C 0.18577 0.34829 0.88242
 C582 C 0.19594 0.37197 0.87242
 C583 C 0.18377 0.38364 0.85063
 H584 H 0.10181 0.33852 0.80576
 H585 H 0.15790 0.40170 0.80903
 H586 H 0.10311 0.30382 0.83793
 H587 H 0.16329 0.30453 0.89778
 H588 H 0.19537 0.33842 0.89858
 H589 H 0.19164 0.40171 0.84261
 C590 C 0.13232 0.83346 0.33385
 C591 C 0.12178 0.84441 0.31084
 C592 C 0.13282 0.86706 0.29940
 C593 C 0.15418 0.87922 0.31223
 C594 C 0.16489 0.86848 0.33516
 C595 C 0.15403 0.84549 0.34596
 C596 C 0.12180 0.81039 0.34466
 C597 C 0.13285 0.79882 0.36725
 C598 C 0.15421 0.81158 0.37951
 C599 C 0.16488 0.83459 0.36893
 C600 C 0.18655 0.84666 0.38085
 C601 C 0.19786 0.86921 0.36987
 C602 C 0.18656 0.88033 0.34727
 H603 H 0.10522 0.83487 0.30148
 H604 H 0.16267 0.89721 0.30497
 H605 H 0.10524 0.80109 0.33507
 H606 H 0.16271 0.80420 0.39745
 H607 H 0.19507 0.83815 0.39840
 H608 H 0.19446 0.89827 0.33909
 O609 O 0.97381 0.90526 0.87071
 O610 O 0.97345 0.87474 0.84008
 C611 C 0.96466 0.89611 0.84943
 C612 C 0.94313 0.91017 0.83583
 C613 C 0.93407 0.90161 0.81125
 H614 H 0.94340 0.88504 0.80174
 O615 O 1.02558 1.09401 0.86859
 O616 O 1.02553 1.12437 0.83777
 C617 C 1.03450 1.10307 0.84715
 C618 C 1.05595 1.08905 0.83339
 C619 C 1.06514 1.09797 0.80899
 H620 H 1.05615 1.11508 0.80024
 O621 O 0.86884 0.97530 0.90705
 O622 O 0.83803 0.97530 0.87670
 C623 C 0.84738 0.96642 0.89802
 C624 C 0.83357 0.94507 0.91210
 C625 C 0.80924 0.93582 0.90311
 H626 H 0.80003 0.94498 0.88627
 O627 O 1.13048 1.02521 0.90519
 O628 O 1.16117 1.02501 0.87466
 C629 C 1.15186 1.03409 0.89595
 C630 C 1.16555 1.05564 0.90981
 C631 C 1.18987 1.06499 0.90079
 H632 H 1.19917 1.05581 0.88401
 O633 O 0.90464 0.87029 0.97605
 O634 O 0.87400 0.83977 0.97628
 C635 C 0.89534 0.84896 0.96720
 C636 C 0.90919 0.83507 0.94572
 C637 C 0.90048 0.81043 0.93702
 H638 H 0.88434 0.80101 0.94709
 O639 O 1.09410 1.13046 0.97375
 O640 O 1.12473 1.16098 0.97366
 C641 C 1.10342 1.15172 0.96469
 C642 C 1.08977 1.16538 0.94297
 C643 C 1.09873 1.18982 0.93405
 H644 H 1.11462 1.19931 0.94440
 O645 O 0.90503 1.02594 0.87044
 O646 O 0.87427 1.02585 0.84004
 C647 C 0.89573 1.03473 0.84905
 C648 C 0.90958 1.05600 0.83489
 C649 C 0.90050 1.06464 0.81037
 H650 H 0.88438 1.05435 0.80122
 O651 O 1.09426 0.97405 0.86974
 O652 O 1.12478 0.97367 0.83903
 C653 C 1.10340 0.96489 0.84845
 C654 C 1.08940 0.94331 0.83495
 C655 C 1.09820 0.93405 0.81054
 H656 H 1.11438 0.94388 0.80094
 O657 O 1.02498 0.86901 0.90638
 O658 O 1.02471 0.83832 0.87591
 C659 C 1.03379 0.84758 0.89719
 C660 C 1.05528 0.83376 0.91109
 C661 C 1.06455 0.80942 0.90209
 H662 H 1.05529 0.80018 0.88534
 O663 O 0.97481 1.13029 0.90477
 O664 O 0.97474 1.16084 0.87412
 C665 C 0.96595 1.15169 0.89562
 C666 C 0.94481 1.16573 0.90980
 C667 C 0.93615 1.19038 0.90109
 H668 H 0.94610 1.19966 0.88479
 O669 O 0.87053 1.09611 0.97547
 O670 O 0.84009 1.12685 0.97535
 C671 C 0.84923 1.10542 0.96649
 C672 C 0.83531 1.09153 0.94508
 C673 C 0.81085 1.10054 0.93618
 H674 H 0.80158 1.11676 0.94623
 O675 O 1.12995 0.90488 0.97480
 O676 O 1.16064 0.87438 0.97481
 C677 C 1.15129 0.89567 0.96579
 C678 C 1.16502 0.90947 0.94416
 C679 C 1.18949 0.90051 0.93522
 H680 H 1.19889 0.88445 0.94541
 O681 O 0.97435 1.09476 0.86850
 O682 O 0.97417 1.12509 0.83764
 C683 C 0.96519 1.10388 0.84718
 C684 C 0.94342 1.08993 0.83389
 C685 C 0.93389 1.09847 0.80942
 H686 H 0.94299 1.11504 0.79970
 O687 O 1.02503 0.90497 0.87043
 O688 O 1.02474 0.87444 0.83980
 C689 C 1.03386 0.89571 0.84904
 C690 C 1.05540 0.90950 0.83519
 C691 C 1.06452 0.90050 0.81077
 H692 H 1.05522 0.88378 0.80153
 O693 O 1.13057 0.97400 0.90519
 O694 O 1.16128 0.97368 0.87468
 C695 C 1.15188 0.96484 0.89603
 C696 C 1.16540 0.94323 0.91005
 C697 C 1.18985 0.93385 0.90130
 H698 H 1.19935 0.94297 0.88459
 O699 O 0.86933 1.02654 0.90666
 O700 O 0.83846 1.02655 0.87637
 C701 C 0.84801 1.03564 0.89753
 C702 C 0.83464 1.05745 0.91136
 C703 C 0.81020 1.06683 0.90267
 H704 H 0.80058 1.05755 0.88614
 O705 O 0.90665 1.13182 0.97520
 O706 O 0.87636 1.16271 0.97512
 C707 C 0.89757 1.15317 0.96610
 C708 C 0.91146 1.16656 0.94432
 C709 C 0.90305 1.19121 0.93528
 H710 H 0.88676 1.20098 0.94485
 O711 O 1.09413 0.86889 0.97520
 O712 O 1.12467 0.83825 0.97516
 C713 C 1.10331 0.84752 0.96626
 C714 C 1.08929 0.83374 0.94487
 C715 C 1.09836 0.80946 0.93552
 H716 H 1.11563 0.80088 0.94433
 O717 O 1.09491 1.02518 0.86890
 O718 O 1.12541 1.02491 0.83819
 C719 C 1.10410 1.03398 0.84744
 C720 C 1.09012 1.05538 0.83354
 C721 C 1.09905 1.06462 0.80911
 H722 H 1.11591 1.05553 0.79986
 O723 O 0.90479 0.97478 0.87105
 O724 O 0.87410 0.97472 0.84058
 C725 C 0.89545 0.96574 0.84981
 C726 C 0.90926 0.94414 0.83608
 C727 C 0.90051 0.93532 0.81149
 H728 H 0.88444 0.94542 0.80201
 O729 O 1.02589 1.13053 0.90385
 O730 O 1.02595 1.16109 0.87322
 C731 C 1.03491 1.15183 0.89456
 C732 C 1.05643 1.16549 0.90853
 C733 C 1.06581 1.18991 0.89975
 H734 H 1.05682 1.19930 0.88292
 O735 O 0.97381 0.86948 0.90676
 O736 O 0.97345 0.83876 0.87633
 C737 C 0.96467 0.84818 0.89769
 C738 C 0.94317 0.83464 0.91182
 C739 C 0.93421 0.80999 0.90343
 H740 H 0.94362 0.80037 0.88696
 O741 O 1.13010 1.09457 0.97393
 O742 O 1.16081 1.12502 0.97381
 C743 C 1.15151 1.10367 0.96496
 C744 C 1.16537 1.08963 0.94361
 C745 C 1.18970 1.09868 0.93433
 H746 H 1.19833 1.11592 0.94315
 O747 O 0.86872 0.90628 0.97626
 O748 O 0.83795 0.87590 0.97644
 C749 C 0.84727 0.89719 0.96744
 C750 C 0.83346 0.91121 0.94606
 C751 C 0.80909 0.90225 0.93680
 H752 H 0.80032 0.88510 0.94570
 Cu753 Cu 0.99946 0.89024 0.89162
 Cu754 Cu 0.99905 0.85349 0.85496
 Cu755 Cu 1.00016 1.10934 0.88947
 Cu756 Cu 1.00008 1.14588 0.85257
 Cu757 Cu 0.89006 1.00064 0.89187
 Cu758 Cu 0.85312 1.00060 0.85538
 Cu759 Cu 1.10952 0.99967 0.89032
 Cu760 Cu 1.14624 0.99929 0.85357
 C761 C 0.93068 0.93154 0.84800
 H762 H 0.93730 0.93802 0.86712
 C763 C 0.91261 0.91382 0.79906
 C764 C 1.06835 1.06753 0.84533
 H765 H 1.06156 1.06078 0.86432
 C766 C 1.08649 1.08565 0.79650
 C767 C 0.84534 0.93285 0.93380
 H768 H 0.86429 0.93963 0.94059
 C769 C 0.79670 0.91464 0.91544
 C770 C 1.15364 1.06790 0.93145
 H771 H 1.13472 1.06105 0.93829
 C772 C 1.20225 1.08628 0.91308
 C773 C 0.93064 0.84692 0.93309
 H774 H 0.93721 0.86609 0.93944
 C775 C 0.91272 0.79787 0.91566
 C776 C 1.06850 1.15347 0.93021
 H777 H 1.06172 1.13445 0.93683
 C778 C 1.08718 1.20207 0.91216
 C779 C 0.93116 1.06862 0.84638
 H780 H 0.93803 1.06222 0.86545
 C781 C 0.91222 1.08618 0.79766
 C782 C 1.06788 0.93102 0.84703
 H783 H 1.06124 0.93782 0.86605
 C784 C 1.08611 0.91238 0.79848
 C785 C 1.06756 0.84555 0.93273
 H786 H 1.06073 0.86446 0.93960
 C787 C 1.08590 0.79696 0.91429
 C788 C 0.93246 1.15407 0.93152
 H789 H 0.93880 1.13488 0.93810
 C790 C 0.91503 1.20313 0.91351
 C791 C 0.84695 1.06988 0.93266
 H792 H 0.86598 1.06305 0.93921
 C793 C 0.79831 1.08856 0.91470
 C794 C 1.15323 0.93096 0.93157
 H795 H 1.13419 0.93775 0.93816
 C796 C 1.20187 0.91228 0.91350
 O797 O 1.02579 0.90550 1.13145
 O798 O 1.02569 0.87518 1.16232
 C799 C 1.03475 0.89637 1.15285
 C800 C 1.05640 0.91023 1.16638
 C801 C 1.06579 0.90137 1.19075
 H802 H 1.05662 0.88468 1.20023
 O803 O 0.97513 1.09534 1.13196
 O804 O 0.97544 1.12589 1.16257
 C805 C 0.96632 1.10460 1.15336
 C806 C 0.94484 1.09077 1.16726
 C807 C 0.93585 1.09972 1.19173
 H808 H 0.94499 1.11675 1.20045
 O809 O 0.86973 1.02724 1.09610
 O810 O 0.83904 1.02750 1.12663
 C811 C 0.84844 1.03639 1.10528
 C812 C 0.83492 1.05798 1.09120
 C813 C 0.81024 1.06702 1.09956
 H814 H 0.80060 1.05770 1.11607
 O815 O 1.13043 0.97461 1.09466
 O816 O 1.16134 0.97464 1.12492
 C817 C 1.15188 0.96568 1.10369
 C818 C 1.16555 0.94417 1.08975
 C819 C 1.19016 0.93533 1.09841
 H820 H 1.19975 0.94548 1.11438
 O821 O 1.09454 0.86886 1.02641
 O822 O 1.12509 0.83824 1.02646
 C823 C 1.10379 0.84756 1.03547
 C824 C 1.08990 0.83396 1.05713
 C825 C 1.09886 0.80969 1.06670
 H826 H 1.11566 0.80031 1.05763
 O827 O 0.90656 1.13216 1.02654
 O828 O 0.87619 1.16297 1.02648
 C829 C 0.89743 1.15355 1.03551
 C830 C 0.91132 1.16715 1.05712
 C831 C 0.90240 1.19151 1.06648
 H832 H 0.88571 1.20092 1.05727
 O833 O 0.90534 0.97580 1.13189
 O834 O 0.87492 0.97583 1.16270
 C835 C 0.89618 0.96678 1.15325
 C836 C 0.91015 0.94512 1.16676
 C837 C 0.90153 0.93584 1.19130
 H838 H 0.88489 0.94499 1.20087
 O839 O 1.09480 1.02584 1.13093
 O840 O 1.12561 1.02572 1.16128
 C841 C 1.10422 1.03472 1.15221
 C842 C 1.09056 1.05623 1.16617
 C843 C 1.09958 1.06488 1.19069
 H844 H 1.11553 1.05445 1.20000
 O845 O 0.97441 0.86973 1.09576
 O846 O 0.97424 0.83926 1.12649
 C847 C 0.96534 0.84848 1.10510
 C848 C 0.94380 0.83478 1.09124
 C849 C 0.93457 0.81039 1.10019
 H850 H 0.94362 0.80147 1.11719
 O851 O 1.02623 1.13091 1.09559
 O852 O 1.02664 1.16167 1.12599
 C853 C 1.03534 1.15226 1.10459
 C854 C 1.05664 1.16589 1.09025
 C855 C 1.06588 1.19040 1.09880
 H856 H 1.05688 1.19979 1.11562
 O857 O 0.86917 0.90649 1.02745
 O858 O 0.83836 0.87614 1.02767
 C859 C 0.84779 0.89744 1.03653
 C860 C 0.83414 0.91149 1.05803
 C861 C 0.80961 0.90281 1.06710
 H862 H 0.80008 0.88665 1.05721
 O863 O 1.12998 1.09462 1.02510
 O864 O 1.16070 1.12506 1.02492
 C865 C 1.15139 1.10378 1.03395
 C866 C 1.16522 1.08989 1.05540
 C867 C 1.18989 1.09856 1.06402
 H868 H 1.19936 1.11455 1.05378
 O869 O 1.02633 1.09546 1.13199
 O870 O 1.02676 1.12601 1.16259
 C871 C 1.03553 1.10463 1.15325
 C872 C 1.05709 1.09053 1.16675
 C873 C 1.06653 1.09906 1.19124
 H874 H 1.05751 1.11576 1.20083
 O875 O 0.97458 0.90632 1.13104
 O876 O 0.97448 0.87598 1.16189
 C877 C 0.96562 0.89731 1.15248
 C878 C 0.94421 0.91133 1.16629
 C879 C 0.93548 0.90254 1.19089
 H880 H 0.94579 0.88658 1.20032
 O881 O 1.13044 1.02578 1.09465
 O882 O 1.16137 1.02579 1.12488
 C883 C 1.15188 1.03473 1.10362
 C884 C 1.16550 1.05616 1.08948
 C885 C 1.19015 1.06517 1.09790
 H886 H 1.19969 1.05589 1.11448
 O887 O 0.86918 0.97605 1.09630
 O888 O 0.83854 0.97617 1.12688
 C889 C 0.84780 0.96715 1.10555
 C890 C 0.83406 0.94562 1.09171
 C891 C 0.80952 0.93662 1.10053
 H892 H 0.80009 0.94604 1.11710
 O893 O 1.09422 1.13074 1.02508
 O894 O 1.12485 1.16127 1.02491
 C895 C 1.10354 1.15205 1.03399
 C896 C 1.08988 1.16582 1.05565
 C897 C 1.09878 1.19036 1.06441
 H898 H 1.11468 1.19986 1.05405
 O899 O 0.90479 0.87024 1.02726
 O900 O 0.87413 0.83975 1.02752
 C901 C 0.89555 0.84894 1.03631
 C902 C 0.90958 0.83510 1.05767
 C903 C 0.90059 0.81077 1.06693
 H904 H 0.88370 0.80161 1.05786
 O905 O 1.09470 0.97466 1.13085
 O906 O 1.12550 0.97456 1.16121
 C907 C 1.10408 0.96565 1.15211
 C908 C 1.09028 0.94412 1.16595
 C909 C 1.09933 0.93506 1.19034
 H910 H 1.11551 0.94509 1.19967
 O911 O 0.90545 1.02694 1.13222
 O912 O 0.87499 1.02714 1.16297
 C913 C 0.89637 1.03594 1.15363
 C914 C 0.91054 1.05727 1.16736
 C915 C 0.90179 1.06655 1.19182
 H916 H 0.88496 1.05753 1.20119
 O917 O 0.97513 1.13137 1.09610
 O918 O 0.97543 1.16210 1.12653
 C919 C 0.96636 1.15283 1.10524
 C920 C 0.94503 1.16678 1.09122
 C921 C 0.93587 1.19114 1.10026
 H922 H 0.94471 1.19971 1.11753
 O923 O 1.02562 0.86965 1.09547
 O924 O 1.02545 0.83922 1.12623
 C925 C 1.03447 0.84832 1.10482
 C926 C 1.05590 0.83434 1.09098
 C927 C 1.06511 0.81008 1.10026
 H928 H 1.05616 0.80161 1.11754
 O929 O 1.13027 0.90497 1.02599
 O930 O 1.16099 0.87451 1.02603
 C931 C 1.15169 0.89587 1.03488
 C932 C 1.16550 0.91000 1.05616
 C933 C 1.19009 0.90137 1.06515
 H934 H 1.19946 0.88466 1.05594
 O935 O 0.87062 1.09625 1.02669
 O936 O 0.84011 1.12692 1.02656
 C937 C 0.84928 1.10556 1.03559
 C938 C 0.83538 1.09175 1.05710
 C939 C 0.81065 1.10042 1.06566
 H940 H 0.80122 1.11637 1.05533
 Cu941 Cu 1.00013 0.89084 1.11034
 Cu942 Cu 0.99992 0.85437 1.14734
 Cu943 Cu 1.00068 1.11019 1.11089
 Cu944 Cu 1.00108 1.14699 1.14750
 Cu945 Cu 0.88991 0.89136 1.00173
 Cu946 Cu 0.85302 0.85483 1.00200
 Cu947 Cu 1.10914 0.88994 1.00063
 Cu948 Cu 1.14593 0.85328 1.00060
 Cu949 Cu 0.89166 1.11105 1.00099
 Cu950 Cu 0.85515 1.14796 1.00087
 Cu951 Cu 1.10900 1.10956 0.99948
 Cu952 Cu 1.14583 1.14617 0.99931
 Cu953 Cu 0.89046 1.00151 1.11107
 Cu954 Cu 0.85380 1.00169 1.14787
 Cu955 Cu 1.10950 1.00023 1.10973
 Cu956 Cu 1.14655 1.00017 1.14613
 C957 C 1.06870 0.93170 1.15423
 H958 H 1.06186 0.93837 1.13524
 C959 C 1.08746 0.91339 1.20272
 C960 C 0.93228 1.06931 1.15542
 H961 H 0.93891 1.06251 1.13640
 C962 C 0.91451 1.08751 1.20433
 C963 C 0.84725 1.07042 1.06988
 H964 H 0.86645 1.06384 1.06357
 C965 C 0.79805 1.08839 1.08712
 C966 C 1.15348 0.93151 1.06850
 H967 H 1.13432 0.93801 1.06198
 C968 C 1.20241 0.91366 1.08647
 C969 C 1.06820 0.84592 1.06922
 H970 H 1.06140 0.86479 1.06219
 C971 C 1.08640 0.79740 1.08801
 C972 C 0.93285 1.15513 1.06944
 H973 H 0.93960 1.13619 1.06257
 C974 C 0.91473 1.20383 1.08779
 C975 C 0.93156 0.93276 1.15447
 H976 H 0.93802 0.93943 1.13535
 C977 C 0.91383 0.91432 1.20334
 C978 C 1.06920 1.06904 1.15447
 H979 H 1.06237 1.06263 1.13539
 C980 C 1.08798 1.08658 1.20322
 C981 C 0.93139 0.84678 1.06976
 H982 H 0.93819 0.86573 1.06297
 C983 C 0.91311 0.79810 1.08793
 C984 C 1.06869 1.15385 1.06858
 H985 H 1.06198 1.13475 1.06214
 C986 C 1.08712 1.20264 1.08624
 C987 C 0.84611 0.93300 1.07035
 H988 H 0.86521 0.93955 1.06370
 C989 C 0.79730 0.91504 1.08860
 C990 C 1.15328 1.06858 1.06812
 H991 H 1.13409 1.06203 1.06177
 C992 C 1.20236 1.08654 1.08553
 O993 O 0.97383 0.40500 0.37009
 O994 O 0.97367 0.37447 0.33945
 C995 C 0.96479 0.39582 0.34877
 C996 C 0.94335 0.40987 0.33507
 C997 C 0.93437 0.40132 0.31046
 H998 H 0.94368 0.38471 0.30101
 O999 O 1.02591 0.59477 0.36854
 O1000 O 1.02587 0.62528 0.33785
 C1001 C 1.03483 0.60394 0.34712
 C1002 C 1.05626 0.58991 0.33333
 C1003 C 1.06562 0.59879 0.30893
 H1004 H 1.05657 0.61563 0.29963
 O1005 O 0.86942 0.47470 0.40637
 O1006 O 0.83863 0.47472 0.37600
 C1007 C 0.84799 0.46580 0.39732
 C1008 C 0.83419 0.44440 0.41139
 C1009 C 0.80970 0.43540 0.40260
 H1010 H 0.80040 0.44479 0.38595
 O1011 O 1.13042 0.52533 0.40460
 O1012 O 1.16107 0.52510 0.37403
 C1013 C 1.15181 0.53416 0.39535
 C1014 C 1.16560 0.55562 0.40923
 C1015 C 1.19003 0.56479 0.40030
 H1016 H 1.19931 0.55559 0.38352
 O1017 O 0.90502 0.36925 0.47546
 O1018 O 0.87444 0.33867 0.47553
 C1019 C 0.89579 0.34791 0.46654
 C1020 C 0.90972 0.33413 0.44506
 C1021 C 0.90114 0.30945 0.43635
 H1022 H 0.88513 0.29992 0.44652
 O1023 O 1.09477 0.62992 0.47406
 O1024 O 1.12543 0.66042 0.47402
 C1025 C 1.10406 0.65123 0.46508
 C1026 C 1.09028 0.66503 0.44351
 C1027 C 1.09927 0.68946 0.43454
 H1028 H 1.11533 0.69885 0.44471
 O1029 O 0.90533 0.52568 0.37000
 O1030 O 0.87466 0.52575 0.33951
 C1031 C 0.89607 0.53463 0.34866
 C1032 C 0.91005 0.55599 0.33472
 C1033 C 0.90102 0.56514 0.31033
 H1034 H 0.88416 0.55597 0.30120
 O1035 O 1.09411 0.47421 0.36914
 O1036 O 1.12460 0.47386 0.33841
 C1037 C 1.10324 0.46508 0.34783
 C1038 C 1.08921 0.44354 0.33429
 C1039 C 1.09789 0.43442 0.30978
 H1040 H 1.11402 0.44431 0.30014
 O1041 O 1.02515 0.36919 0.40592
 O1042 O 1.02508 0.33851 0.37543
 C1043 C 1.03411 0.34785 0.39671
 C1044 C 1.05573 0.33417 0.41053
 C1045 C 1.06478 0.30971 0.40166
 H1046 H 1.05474 0.30023 0.38556
 O1047 O 0.97490 0.63062 0.40482
 O1048 O 0.97474 0.66133 0.37434
 C1049 C 0.96589 0.65200 0.39572
 C1050 C 0.94448 0.66571 0.40986
 C1051 C 0.93532 0.69023 0.40121
 H1052 H 0.94447 0.69962 0.38445
 O1053 O 0.87015 0.59509 0.47506
 O1054 O 0.83951 0.62564 0.47513
 C1055 C 0.84876 0.60430 0.46619
 C1056 C 0.83489 0.59038 0.44480
 C1057 C 0.81031 0.59916 0.43599
 H1058 H 0.80089 0.61534 0.44600
 O1059 O 1.13025 0.40538 0.47459
 O1060 O 1.16087 0.37483 0.47451
 C1061 C 1.15155 0.39615 0.46553
 C1062 C 1.16521 0.40996 0.44386
 C1063 C 1.18970 0.40111 0.43486
 H1064 H 1.19922 0.38507 0.44499
 O1065 O 0.97476 0.59453 0.36913
 O1066 O 0.97457 0.62503 0.33843
 C1067 C 0.96568 0.60370 0.34782
 C1068 C 0.94413 0.58971 0.33425
 C1069 C 0.93484 0.59855 0.30985
 H1070 H 0.94380 0.61559 0.30092
 O1071 O 1.02499 0.40495 0.36982
 O1072 O 1.02488 0.37443 0.33918
 C1073 C 1.03386 0.39575 0.34841
 C1074 C 1.05528 0.40967 0.33454
 C1075 C 1.06426 0.40082 0.31002
 H1076 H 1.05493 0.38415 0.30073
 O1077 O 1.13029 0.47418 0.40478
 O1078 O 1.16095 0.47389 0.37422
 C1079 C 1.15162 0.46509 0.39561
 C1080 C 1.16529 0.44363 0.40968
 C1081 C 1.18980 0.43444 0.40092
 H1082 H 1.19922 0.44361 0.38420
 O1083 O 0.86950 0.52586 0.40609
 O1084 O 0.83867 0.52592 0.37575
 C1085 C 0.84811 0.53487 0.39701
 C1086 C 0.83453 0.55640 0.41101
 C1087 C 0.80995 0.56547 0.40245
 H1088 H 0.80040 0.55613 0.38591
 O1089 O 0.90634 0.63070 0.47481
 O1090 O 0.87584 0.66138 0.47488
 C1091 C 0.89712 0.65203 0.46583
 C1092 C 0.91092 0.66569 0.44418
 C1093 C 0.90212 0.69024 0.43531
 H1094 H 0.88615 0.69978 0.44554
 O1095 O 1.09462 0.36918 0.47479
 O1096 O 1.12510 0.33849 0.47468
 C1097 C 1.10377 0.34782 0.46578
 C1098 C 1.08978 0.33414 0.44428
 C1099 C 1.09861 0.30971 0.43507
 H1100 H 1.11535 0.30036 0.44426
 O1101 O 1.09453 0.52539 0.36866
 O1102 O 1.12501 0.52510 0.33793
 C1103 C 1.10374 0.53421 0.34723
 C1104 C 1.08989 0.55571 0.33337
 C1105 C 1.09895 0.56485 0.30898
 H1106 H 1.11607 0.55580 0.30030
 O1107 O 0.90514 0.47450 0.37017
 O1108 O 0.87450 0.47454 0.33964
 C1109 C 0.89584 0.46554 0.34887
 C1110 C 0.90965 0.44397 0.33513
 C1111 C 0.90099 0.43520 0.31049
 H1112 H 0.88501 0.44540 0.30095
 O1113 O 1.02605 0.63046 0.40464
 O1114 O 1.02604 0.66117 0.37416
 C1115 C 1.03504 0.65180 0.39545
 C1116 C 1.05660 0.66537 0.40939
 C1117 C 1.06596 0.68978 0.40060
 H1118 H 1.05686 0.69923 0.38387
 O1119 O 0.97396 0.36908 0.40604
 O1120 O 0.97383 0.33838 0.37558
 C1121 C 0.96497 0.34772 0.39694
 C1122 C 0.94356 0.33401 0.41105
 C1123 C 0.93468 0.30936 0.40258
 H1124 H 0.94407 0.29987 0.38602
 O1125 O 1.13072 0.59401 0.47398
 O1126 O 1.16148 0.62440 0.47392
 C1127 C 1.15209 0.60315 0.46496
 C1128 C 1.16571 0.58932 0.44331
 C1129 C 1.19015 0.59818 0.43415
 H1130 H 1.19969 0.61426 0.44415
 O1131 O 0.86929 0.40536 0.47554
 O1132 O 0.83853 0.37496 0.47556
 C1133 C 0.84789 0.39627 0.46661
 C1134 C 0.83413 0.41036 0.44519
 C1135 C 0.80968 0.40155 0.43601
 H1136 H 0.80096 0.38440 0.44493
 Cu1137 Cu 0.99948 0.39011 0.39102
 Cu1138 Cu 0.99935 0.35336 0.35435
 Cu1139 Cu 1.00043 0.60955 0.38984
 Cu1140 Cu 1.00028 0.64628 0.35311
 Cu1141 Cu 0.89042 0.50019 0.39120
 Cu1142 Cu 0.85353 0.50023 0.35467
 Cu1143 Cu 1.10929 0.49982 0.38986
 Cu1144 Cu 1.14597 0.49945 0.35305
 C1145 C 0.93094 0.43129 0.34716
 H1146 H 0.93749 0.43774 0.36632
 C1147 C 0.91304 0.41364 0.29814
 C1148 C 1.06833 0.56816 0.34519
 H1149 H 1.06147 0.56141 0.36416
 C1150 C 1.08671 0.58620 0.29642
 C1151 C 0.84607 0.43198 0.43293
 H1152 H 0.86510 0.43862 0.43963
 C1153 C 0.79713 0.41417 0.41487
 C1154 C 1.15370 0.56793 0.43084
 H1155 H 1.13468 0.56125 0.43757
 C1156 C 1.20230 0.58625 0.41238
 C1157 C 0.93104 0.34614 0.43240
 H1158 H 0.93752 0.36533 0.43878
 C1159 C 0.91332 0.29705 0.41487
 C1160 C 1.06883 0.65324 0.43093
 H1161 H 1.06204 0.63423 0.43754
 C1162 C 1.08750 0.70180 0.41280
 C1163 C 0.93182 0.56821 0.34635
 H1164 H 0.93867 0.56151 0.36532
 C1165 C 0.91345 0.58616 0.29759
 C1166 C 1.06778 0.43115 0.34643
 H1167 H 1.06124 0.43782 0.36552
 C1168 C 1.08575 0.41281 0.29766
 C1169 C 1.06824 0.34612 0.43196
 H1170 H 1.06159 0.36515 0.43867
 C1171 C 1.08649 0.29749 0.41358
 C1172 C 0.93221 0.65368 0.43145
 H1173 H 0.93886 0.63458 0.43798
 C1174 C 0.91397 0.70250 0.41357
 C1175 C 0.84674 0.56889 0.43230
 H1176 H 0.86587 0.56226 0.43876
 C1177 C 0.79784 0.58702 0.41456
 C1178 C 1.15325 0.43134 0.43125
 H1179 H 1.13418 0.43803 0.43784
 C1180 C 1.20198 0.41299 0.41313
 O1181 O 1.02543 0.40529 0.63151
 O1182 O 1.02554 0.37475 0.66217
 C1183 C 1.03442 0.39610 0.65286
 C1184 C 1.05585 0.41007 0.66660
 C1185 C 1.06500 0.40116 0.69102
 H1186 H 1.05599 0.38410 0.69988
 O1187 O 0.97491 0.59499 0.63098
 O1188 O 0.97503 0.62547 0.66165
 C1189 C 0.96598 0.60420 0.65235
 C1190 C 0.94444 0.59032 0.66609
 C1191 C 0.93530 0.59915 0.69057
 H1192 H 0.94459 0.61581 0.69992
 O1193 O 0.87015 0.52547 0.59523
 O1194 O 0.83944 0.52576 0.62574
 C1195 C 0.84880 0.53454 0.60435
 C1196 C 0.83512 0.55597 0.59029
 C1197 C 0.81059 0.56497 0.59902
 H1198 H 0.80118 0.55555 0.61562
 O1199 O 1.13058 0.47388 0.59510
 O1200 O 1.16128 0.47390 0.62557
 C1201 C 1.15194 0.46492 0.60428
 C1202 C 1.16567 0.44341 0.59038
 C1203 C 1.18986 0.43398 0.59959
 H1204 H 1.19897 0.44303 0.61653
 O1205 O 1.09447 0.36951 0.52605
 O1206 O 1.12493 0.33879 0.52596
 C1207 C 1.10364 0.34814 0.53500
 C1208 C 1.08973 0.33442 0.55657
 C1209 C 1.09838 0.30979 0.56540
 H1210 H 1.11442 0.30025 0.55529
 O1211 O 0.90624 0.63109 0.52604
 O1212 O 0.87571 0.66175 0.52611
 C1213 C 0.89707 0.65247 0.53499
 C1214 C 0.91106 0.66625 0.55638
 C1215 C 0.90216 0.69065 0.56554
 H1216 H 0.88544 0.69994 0.55626
 O1217 O 0.90581 0.47441 0.63160
 O1218 O 0.87524 0.47470 0.66225
 C1219 C 0.89655 0.46562 0.65302
 C1220 C 0.91040 0.44419 0.66694
 C1221 C 0.90138 0.43517 0.69138
 H1222 H 0.88428 0.44428 0.70005
 O1223 O 1.09475 0.52517 0.63099
 O1224 O 1.12534 0.52523 0.66157
 C1225 C 1.10398 0.53414 0.65231
 C1226 C 1.09006 0.55561 0.66608
 C1227 C 1.09896 0.56468 0.69052
 H1228 H 1.11560 0.55526 0.69982
 O1229 O 0.97424 0.36942 0.59569
 O1230 O 0.97429 0.33875 0.62621
 C1231 C 0.96530 0.34807 0.60491
 C1232 C 0.94380 0.33434 0.59104
 C1233 C 0.93449 0.31010 0.60021
 H1234 H 0.94362 0.30095 0.61709
 O1235 O 1.02624 0.63059 0.59495
 O1236 O 1.02648 0.66127 0.62542
 C1237 C 1.03533 0.65191 0.60406
 C1238 C 1.05680 0.66552 0.58993
 C1239 C 1.06626 0.68985 0.59876
 H1240 H 1.05751 0.69869 0.61596
 O1241 O 0.86922 0.40516 0.52675
 O1242 O 0.83845 0.37478 0.52686
 C1243 C 0.84785 0.39606 0.53578
 C1244 C 0.83421 0.41008 0.55730
 C1245 C 0.80980 0.40130 0.56665
 H1246 H 0.80040 0.38456 0.55754
 O1247 O 1.13064 0.59382 0.52524
 O1248 O 1.16143 0.62418 0.52515
 C1249 C 1.15205 0.60290 0.53414
 C1250 C 1.16579 0.58896 0.55564
 C1251 C 1.19051 0.59749 0.56430
 H1252 H 1.20010 0.61340 0.55404
 O1253 O 1.02607 0.59475 0.63096
 O1254 O 1.02627 0.62525 0.66162
 C1255 C 1.03508 0.60387 0.65232
 C1256 C 1.05642 0.58975 0.66609
 C1257 C 1.06569 0.59864 0.69048
 H1258 H 1.05688 0.61587 0.69914
 O1259 O 0.97431 0.40507 0.63186
 O1260 O 0.97433 0.37456 0.66255
 C1261 C 0.96539 0.39590 0.65327
 C1262 C 0.94398 0.40996 0.66706
 C1263 C 0.93466 0.40118 0.69151
 H1264 H 0.94370 0.38437 0.70086
 O1265 O 1.13064 0.52503 0.59495
 O1266 O 1.16140 0.52511 0.62535
 C1267 C 1.15205 0.53398 0.60400
 C1268 C 1.16580 0.55531 0.58982
 C1269 C 1.19050 0.56417 0.59825
 H1270 H 1.19995 0.55486 0.61487
 O1271 O 0.86981 0.47431 0.59569
 O1272 O 0.83912 0.47461 0.62622
 C1273 C 0.84838 0.46552 0.60493
 C1274 C 0.83445 0.44412 0.59105
 C1275 C 0.81001 0.43510 0.60008
 H1276 H 0.80134 0.44414 0.61722
 O1277 O 1.09496 0.63004 0.52531
 O1278 O 1.12565 0.66051 0.52524
 C1279 C 1.10428 0.65134 0.53424
 C1280 C 1.09049 0.66519 0.55576
 C1281 C 1.09964 0.68951 0.56485
 H1282 H 1.11640 0.69865 0.55545
 O1283 O 0.90514 0.36924 0.52663
 O1284 O 0.87455 0.33868 0.52677
 C1285 C 0.89593 0.34791 0.53564
 C1286 C 0.90994 0.33415 0.55710
 C1287 C 0.90095 0.30984 0.56650
 H1288 H 0.88381 0.30100 0.55766
 O1289 O 1.09477 0.47403 0.63119
 O1290 O 1.12533 0.47404 0.66180
 C1291 C 1.10397 0.46512 0.65257
 C1292 C 1.08996 0.44373 0.66641
 C1293 C 1.09889 0.43449 0.69080
 H1294 H 1.11574 0.44358 0.70001
 O1295 O 0.90592 0.52563 0.63128
 O1296 O 0.87534 0.52591 0.66192
 C1297 C 0.89669 0.53477 0.65256
 C1298 C 0.91056 0.55639 0.66615
 C1299 C 0.90171 0.56551 0.69062
 H1300 H 0.88556 0.55558 0.70017
 O1301 O 0.97511 0.63098 0.59513
 O1302 O 0.97525 0.66164 0.62562
 C1303 C 0.96626 0.65238 0.60431
 C1304 C 0.94489 0.66624 0.59031
 C1305 C 0.93566 0.69062 0.59928
 H1306 H 0.94456 0.69928 0.61646
 O1307 O 1.02543 0.36938 0.59561
 O1308 O 1.02555 0.33866 0.62608
 C1309 C 1.03444 0.34802 0.60473
 C1310 C 1.05590 0.33434 0.59063
 C1311 C 1.06486 0.30972 0.59919
 H1312 H 1.05551 0.30026 0.61579
 O1313 O 1.13081 0.40504 0.52585
 O1314 O 1.16141 0.37447 0.52581
 C1315 C 1.15217 0.39580 0.53478
 C1316 C 1.16593 0.40969 0.55631
 C1317 C 1.19021 0.40060 0.56574
 H1318 H 1.19905 0.38349 0.55684
 O1319 O 0.87047 0.59497 0.52623
 O1320 O 0.83981 0.62549 0.52631
 C1321 C 0.84910 0.60414 0.53521
 C1322 C 0.83526 0.59006 0.55658
 C1323 C 0.81075 0.59887 0.56567
 H1324 H 0.80204 0.61603 0.55676
 Cu1325 Cu 0.99983 0.39035 0.61061
 Cu1326 Cu 0.99995 0.35358 0.64731
 Cu1327 Cu 1.00057 0.60977 0.60995
 Cu1328 Cu 1.00078 0.64648 0.64666
 Cu1329 Cu 0.89023 0.39030 0.50109
 Cu1330 Cu 0.85341 0.35371 0.50118
 Cu1331 Cu 1.10949 0.39034 0.50034
 Cu1332 Cu 1.14615 0.35358 0.50023
 Cu1333 Cu 0.89137 0.60991 0.50055
 Cu1334 Cu 0.85466 0.64665 0.50062
 Cu1335 Cu 1.10970 0.60890 0.49966
 Cu1336 Cu 1.14658 0.64543 0.49958
 Cu1337 Cu 0.89100 0.49990 0.61040
 Cu1338 Cu 0.85422 0.50027 0.64711
 Cu1339 Cu 1.10962 0.49953 0.61000
 Cu1340 Cu 1.14642 0.49959 0.64664
 C1341 C 1.06823 0.43159 0.65464
 H1342 H 1.06147 0.43834 0.63566
 C1343 C 1.08636 0.41346 0.70341
 C1344 C 0.93202 0.56882 0.65414
 H1345 H 0.93869 0.56213 0.63509
 C1346 C 0.91377 0.58712 0.70283
 C1347 C 0.84712 0.56841 0.56883
 H1348 H 0.86619 0.56176 0.56219
 C1349 C 0.79810 0.58620 0.58674
 C1350 C 1.15403 0.43133 0.56855
 H1351 H 1.13518 0.43825 0.56160
 C1352 C 1.20243 0.41283 0.58728
 C1353 C 1.06838 0.34644 0.56921
 H1354 H 1.06184 0.36560 0.56275
 C1355 C 1.08625 0.29743 0.58695
 C1356 C 0.93266 0.65440 0.56867
 H1357 H 0.93942 0.63542 0.56191
 C1358 C 0.91444 0.70315 0.58678
 C1359 C 0.93192 0.43168 0.65514
 H1360 H 0.93875 0.43834 0.63613
 C1361 C 0.91362 0.41387 0.70401
 C1362 C 1.06854 0.56805 0.65422
 H1363 H 1.06177 0.56135 0.63522
 C1364 C 1.08680 0.58599 0.70302
 C1365 C 0.93160 0.34605 0.56928
 H1366 H 0.93843 0.36493 0.56236
 C1367 C 0.91331 0.29756 0.58794
 C1368 C 1.06886 0.65353 0.56822
 H1369 H 1.06192 0.63461 0.56152
 C1370 C 1.08754 0.70215 0.58611
 C1371 C 0.84620 0.43169 0.56944
 H1372 H 0.86519 0.43835 0.56258
 C1373 C 0.79737 0.41387 0.58778
 C1374 C 1.15370 0.56775 0.56841
 H1375 H 1.13448 0.56131 0.56205
 C1376 C 1.20287 0.58542 0.58585
 O1377 O 0.47371 0.90511 0.36993
 O1378 O 0.47354 0.87458 0.33929
 C1379 C 0.46463 0.89590 0.34864
 C1380 C 0.44303 0.90980 0.33506
 C1381 C 0.43397 0.90109 0.31055
 H1382 H 0.44338 0.88456 0.30105
 O1383 O 0.52485 1.09427 0.36826
 O1384 O 0.52471 1.12457 0.33737
 C1385 C 0.53367 1.10328 0.34675
 C1386 C 0.55498 1.08912 0.33293
 C1387 C 0.56400 1.09772 0.30832
 H1388 H 0.55503 1.11475 0.29940
 O1389 O 0.36888 0.97439 0.40676
 O1390 O 0.33805 0.97431 0.37642
 C1391 C 0.34748 0.96542 0.39773
 C1392 C 0.33386 0.94388 0.41168
 C1393 C 0.30937 0.93488 0.40290
 H1394 H 0.29979 0.94499 0.38689
 O1395 O 0.62986 1.02530 0.40418
 O1396 O 0.66051 1.02522 0.37360
 C1397 C 0.65121 1.03423 0.39492
 C1398 C 0.66496 1.05571 0.40881
 C1399 C 0.68958 1.06456 0.40012
 H1400 H 0.69901 1.05512 0.38355
 O1401 O 0.40488 0.86848 0.47521
 O1402 O 0.37438 0.83783 0.47535
 C1403 C 0.39565 0.84715 0.46626
 C1404 C 0.40955 0.83358 0.44461
 C1405 C 0.40088 0.80910 0.43532
 H1406 H 0.38423 0.79958 0.44451
 O1407 O 0.59412 1.13061 0.47326
 O1408 O 0.62474 1.16115 0.47285
 C1409 C 0.60336 1.15185 0.46406
 C1410 C 0.58944 1.16547 0.44246
 C1411 C 0.59855 1.18966 0.43294
 H1412 H 0.61541 1.19889 0.44200
 O1413 O 0.40470 1.02527 0.37022
 O1414 O 0.37399 1.02508 0.33976
 C1415 C 0.39540 1.03405 0.34883
 C1416 C 0.40923 1.05537 0.33474
 C1417 C 0.40032 1.06390 0.31013
 H1418 H 0.38430 1.05355 0.30086
 O1419 O 0.59407 0.97393 0.36856
 O1420 O 0.62453 0.97376 0.33779
 C1421 C 0.60322 0.96487 0.34720
 C1422 C 0.58919 0.94337 0.33362
 C1423 C 0.59797 0.93398 0.30922
 H1424 H 0.61474 0.94303 0.29977
 O1425 O 0.52511 0.86926 0.40552
 O1426 O 0.52502 0.83857 0.37505
 C1427 C 0.53405 0.84791 0.39632
 C1428 C 0.55564 0.83426 0.41017
 C1429 C 0.56476 0.80980 0.40137
 H1430 H 0.55540 0.80035 0.38479
 O1431 O 0.47401 1.13043 0.40438
 O1432 O 0.47380 1.16094 0.37370
 C1433 C 0.46503 1.15176 0.39518
 C1434 C 0.44373 1.16560 0.40931
 C1435 C 0.43467 1.19011 0.40056
 H1436 H 0.44384 1.19939 0.38375
 O1437 O 0.36963 1.09510 0.47464
 O1438 O 0.33903 1.12568 0.47477
 C1439 C 0.34822 1.10432 0.46582
 C1440 C 0.33422 1.09036 0.44451
 C1441 C 0.30994 1.09960 0.43529
 H1442 H 0.30148 1.11694 0.44412
 O1443 O 0.63036 0.90548 0.47415
 O1444 O 0.66107 0.87500 0.47411
 C1445 C 0.65173 0.89630 0.46515
 C1446 C 0.66543 0.91027 0.44363
 C1447 C 0.68990 0.90146 0.43442
 H1448 H 0.69880 0.88444 0.44343
 O1449 O 0.47370 1.09443 0.36862
 O1450 O 0.47343 1.12473 0.33773
 C1451 C 0.46455 1.10348 0.34728
 C1452 C 0.44295 1.08940 0.33391
 C1453 C 0.43364 1.09779 0.30933
 H1454 H 0.44279 1.11434 0.29960
 O1455 O 0.52491 0.90507 0.36945
 O1456 O 0.52472 0.87450 0.33886
 C1457 C 0.53372 0.89584 0.34803
 C1458 C 0.55508 0.90971 0.33401
 C1459 C 0.56410 0.90063 0.30959
 H1460 H 0.55504 0.88349 0.30101
 O1461 O 0.62985 0.97418 0.40460
 O1462 O 0.66047 0.97405 0.37399
 C1463 C 0.65123 0.96524 0.39542
 C1464 C 0.66511 0.94396 0.40951
 C1465 C 0.68954 0.93489 0.40059
 H1466 H 0.69873 0.94410 0.38375
 O1467 O 0.36862 1.02562 0.40607
 O1468 O 0.33780 1.02554 0.37573
 C1469 C 0.34725 1.03462 0.39692
 C1470 C 0.33373 1.05634 0.41076
 C1471 C 0.30946 1.06589 0.40178
 H1472 H 0.30005 1.05678 0.38504
 O1473 O 0.40568 1.13091 0.47436
 O1474 O 0.37520 1.16160 0.47445
 C1475 C 0.39645 1.15224 0.46537
 C1476 C 0.41022 1.16583 0.44365
 C1477 C 0.40145 1.19035 0.43464
 H1478 H 0.38545 1.19996 0.44477
 O1479 O 0.59445 0.86956 0.47430
 O1480 O 0.62501 0.83894 0.47424
 C1481 C 0.60366 0.84822 0.46533
 C1482 C 0.58973 0.83447 0.44387
 C1483 C 0.59859 0.81002 0.43478
 H1484 H 0.61487 0.80059 0.44461
 O1485 O 0.59377 1.02505 0.36845
 O1486 O 0.62424 1.02496 0.33770
 C1487 C 0.60289 1.03389 0.34700
 C1488 C 0.58884 1.05519 0.33312
 C1489 C 0.59758 1.06404 0.30853
 H1490 H 0.61424 1.05464 0.29922
 O1491 O 0.40436 0.97412 0.37033
 O1492 O 0.37365 0.97395 0.33987
 C1493 C 0.39503 0.96504 0.34908
 C1494 C 0.40891 0.94350 0.33534
 C1495 C 0.40007 0.93445 0.31086
 H1496 H 0.38379 0.94428 0.30143
 O1497 O 0.52510 1.13031 0.40404
 O1498 O 0.52502 1.16082 0.37335
 C1499 C 0.53403 1.15162 0.39471
 C1500 C 0.55551 1.16542 0.40858
 C1501 C 0.56484 1.18968 0.39941
 H1502 H 0.55597 1.19840 0.38221
 O1503 O 0.47392 0.86923 0.40594
 O1504 O 0.47384 0.83859 0.37542
 C1505 C 0.46498 0.84786 0.39680
 C1506 C 0.44356 0.83402 0.41077
 C1507 C 0.43479 0.80950 0.40192
 H1508 H 0.44506 0.80011 0.38590
 O1509 O 0.63001 1.09463 0.47329
 O1510 O 0.66075 1.12505 0.47293
 C1511 C 0.65136 1.10371 0.46415
 C1512 C 0.66500 1.08967 0.44264
 C1513 C 0.68961 1.09824 0.43367
 H1514 H 0.69921 1.11431 0.44364
 O1515 O 0.36926 0.90466 0.47543
 O1516 O 0.33853 0.87424 0.47559
 C1517 C 0.34783 0.89556 0.46661
 C1518 C 0.33402 0.90964 0.44526
 C1519 C 0.30956 0.90083 0.43612
 H1520 H 0.30028 0.88401 0.44523
 Cu1521 Cu 0.49943 0.89024 0.39077
 Cu1522 Cu 0.49926 0.85348 0.35409
 Cu1523 Cu 0.49943 1.10931 0.38939
 Cu1524 Cu 0.49924 1.14583 0.35243
 Cu1525 Cu 0.38970 0.99987 0.39141
 Cu1526 Cu 0.35277 0.99970 0.35490
 Cu1527 Cu 0.60883 0.99962 0.38951
 Cu1528 Cu 0.64551 0.99950 0.35268
 C1529 C 0.43049 0.93114 0.34719
 H1530 H 0.43716 0.93774 0.36626
 C1531 C 0.41233 0.91303 0.29846
 C1532 C 0.56732 1.06763 0.34499
 H1533 H 0.56070 1.06112 0.36412
 C1534 C 0.58516 1.08506 0.29582
 C1535 C 0.34593 0.93126 0.43299
 H1536 H 0.36499 0.93788 0.43961
 C1537 C 0.29727 0.91307 0.41473
 C1538 C 0.65291 1.06830 0.43018
 H1539 H 0.63376 1.06184 0.43675
 C1540 C 0.70191 1.08599 0.41218
 C1541 C 0.43097 0.84580 0.43224
 H1542 H 0.43747 0.86487 0.43893
 C1543 C 0.41314 0.79707 0.41375
 C1544 C 0.56771 1.15366 0.43033
 H1545 H 0.56083 1.13481 0.43731
 C1546 C 0.58624 1.20206 0.41167
 C1547 C 0.43066 1.06810 0.34638
 H1548 H 0.43740 1.06181 0.36553
 C1549 C 0.41213 1.08539 0.29744
 C1550 C 0.56753 0.93131 0.34567
 H1551 H 0.56088 0.93819 0.36466
 C1552 C 0.58535 0.91286 0.29687
 C1553 C 0.56814 0.84634 0.43153
 H1554 H 0.56146 0.86538 0.43818
 C1555 C 0.58641 0.79769 0.41329
 C1556 C 0.43148 1.15372 0.43097
 H1557 H 0.43809 1.13464 0.43757
 C1558 C 0.41336 1.20248 0.41285
 C1559 C 0.34575 1.06852 0.43234
 H1560 H 0.36462 1.06151 0.43915
 C1561 C 0.29724 1.08729 0.41410
 C1562 C 0.65338 0.93174 0.43125
 H1563 H 0.63436 0.93841 0.43802
 C1564 C 0.70224 0.91388 0.41303
 O1565 O 0.52574 0.90573 0.63088
 O1566 O 0.52599 0.87541 0.66175
 C1567 C 0.53483 0.89671 0.65226
 C1568 C 0.55632 0.91081 0.66581
 C1569 C 0.56526 0.90240 0.69049
 H1570 H 0.55587 0.88593 0.70011
 O1571 O 0.47528 1.09532 0.63048
 O1572 O 0.47520 1.12577 0.66119
 C1573 C 0.46629 1.10444 0.65186
 C1574 C 0.44482 1.09039 0.66555
 C1575 C 0.43573 1.09899 0.69013
 H1576 H 0.44500 1.11560 0.69960
 O1577 O 0.36984 1.02574 0.59479
 O1578 O 0.33923 1.02596 0.62541
 C1579 C 0.34851 1.03478 0.60401
 C1580 C 0.33478 1.05624 0.59006
 C1581 C 0.31017 1.06513 0.59872
 H1582 H 0.30069 1.05565 0.61525
 O1583 O 0.63088 0.97498 0.59424
 O1584 O 0.66171 0.97497 0.62457
 C1585 C 0.65228 0.96600 0.60332
 C1586 C 0.66590 0.94445 0.58937
 C1587 C 0.69044 0.93537 0.59803
 H1588 H 0.69994 0.94475 0.61457
 O1589 O 0.59448 0.86970 0.52552
 O1590 O 0.62501 0.83904 0.52549
 C1591 C 0.60370 0.84836 0.53450
 C1592 C 0.58984 0.83466 0.55609
 C1593 C 0.59852 0.81005 0.56491
 H1594 H 0.61452 0.80049 0.55474
 O1595 O 0.40594 1.13099 0.52564
 O1596 O 0.37541 1.16163 0.52571
 C1597 C 0.39676 1.15234 0.53462
 C1598 C 0.41061 1.16610 0.55614
 C1599 C 0.40164 1.19055 0.56509
 H1600 H 0.38555 1.19995 0.55495
 O1601 O 0.40577 0.97470 0.63095
 O1602 O 0.37527 0.97494 0.66167
 C1603 C 0.39656 0.96589 0.65239
 C1604 C 0.41042 0.94444 0.66627
 C1605 C 0.40115 0.93512 0.69051
 H1606 H 0.38393 0.94404 0.69913
 O1607 O 0.59512 1.02624 0.63027
 O1608 O 0.62580 1.02620 0.66076
 C1609 C 0.60444 1.03519 0.65157
 C1610 C 0.59069 1.05676 0.66537
 C1611 C 0.59962 1.06564 0.68986
 H1612 H 0.61564 1.05543 0.69928
 O1613 O 0.47452 0.86941 0.59545
 O1614 O 0.47477 0.83887 0.62612
 C1615 C 0.46571 0.84803 0.60476
 C1616 C 0.44429 0.83411 0.59089
 C1617 C 0.43513 0.80974 0.59999
 H1618 H 0.44411 0.80103 0.61713
 O1619 O 0.52619 1.13138 0.59437
 O1620 O 0.52630 1.16206 0.62484
 C1621 C 0.53515 1.15276 0.60345
 C1622 C 0.55652 1.16648 0.58923
 C1623 C 0.56597 1.19080 0.59806
 H1624 H 0.55727 1.19963 0.61530
 O1625 O 0.36940 0.90455 0.52653
 O1626 O 0.33864 0.87416 0.52686
 C1627 C 0.34806 0.89548 0.53567
 C1628 C 0.33451 0.90964 0.55715
 C1629 C 0.31001 0.90108 0.56651
 H1630 H 0.30051 0.88435 0.55750
 O1631 O 0.63019 1.09484 0.52454
 O1632 O 0.66089 1.12530 0.52415
 C1633 C 0.65160 1.10406 0.53332
 C1634 C 0.66542 1.09035 0.55492
 C1635 C 0.68984 1.09942 0.56385
 H1636 H 0.69919 1.11548 0.55362
 O1637 O 0.52647 1.09578 0.63063
 O1638 O 0.52653 1.12624 0.66132
 C1639 C 0.53550 1.10495 0.65196
 C1640 C 0.55707 1.09096 0.66557
 C1641 C 0.56639 1.09968 0.69001
 H1642 H 0.55727 1.11642 0.69942
 O1643 O 0.47454 0.90549 0.63122
 O1644 O 0.47469 0.87512 0.66205
 C1645 C 0.46565 0.89638 0.65266
 C1646 C 0.44413 0.91035 0.66636
 C1647 C 0.43455 0.90127 0.69058
 H1648 H 0.44352 0.88434 0.69981
 O1649 O 0.63089 1.02617 0.59416
 O1650 O 0.66171 1.02623 0.62449
 C1651 C 0.65227 1.03518 0.60322
 C1652 C 0.66581 1.05674 0.58915
 C1653 C 0.69019 1.06620 0.59790
 H1654 H 0.69965 1.05717 0.61467
 O1655 O 0.37001 0.97450 0.59485
 O1656 O 0.33942 0.97478 0.62548
 C1657 C 0.34867 0.96564 0.60419
 C1658 C 0.33485 0.94401 0.59057
 C1659 C 0.31033 0.93526 0.59956
 H1660 H 0.30091 0.94560 0.61552
 O1661 O 0.59448 1.13101 0.52454
 O1662 O 0.62508 1.16157 0.52414
 C1663 C 0.60380 1.15237 0.53333
 C1664 C 0.59011 1.16623 0.55494
 C1665 C 0.59930 1.19052 0.56407
 H1666 H 0.61605 1.19968 0.55468
 O1667 O 0.40545 0.86882 0.52642
 O1668 O 0.37491 0.83821 0.52673
 C1669 C 0.39628 0.84754 0.53554
 C1670 C 0.41030 0.83394 0.55707
 C1671 C 0.40138 0.80965 0.56649
 H1672 H 0.38458 0.80033 0.55739
 O1673 O 0.59495 0.97507 0.63021
 O1674 O 0.62562 0.97500 0.66072
 C1675 C 0.60421 0.96610 0.65154
 C1676 C 0.59027 0.94468 0.66542
 C1677 C 0.59891 0.93599 0.69010
 H1678 H 0.61500 0.94608 0.69955
 O1679 O 0.40615 1.02588 0.63034
 O1680 O 0.37567 1.02608 0.66108
 C1681 C 0.39701 1.03493 0.65170
 C1682 C 0.41097 1.05642 0.66539
 C1683 C 0.40224 1.06525 0.68999
 H1684 H 0.38618 1.05516 0.69952
 O1685 O 0.47504 1.13154 0.59491
 O1686 O 0.47498 1.16222 0.62539
 C1687 C 0.46600 1.15286 0.60411
 C1688 C 0.44438 1.16643 0.59018
 C1689 C 0.43501 1.19085 0.59895
 H1690 H 0.44415 1.20032 0.61564
 O1691 O 0.52566 0.86965 0.59516
 O1692 O 0.52599 0.83912 0.62583
 C1693 C 0.53476 0.84837 0.60438
 C1694 C 0.55616 0.83464 0.59027
 C1695 C 0.56516 0.81006 0.59886
 H1696 H 0.55589 0.80063 0.61554
 O1697 O 0.63043 0.90558 0.52534
 O1698 O 0.66110 0.87507 0.52533
 C1699 C 0.65181 0.89641 0.53425
 C1700 C 0.66562 0.91037 0.55566
 C1701 C 0.69016 0.90158 0.56459
 H1702 H 0.69959 0.88537 0.55466
 O1703 O 0.36994 1.09513 0.52582
 O1704 O 0.33929 1.12566 0.52595
 C1705 C 0.34861 1.10432 0.53485
 C1706 C 0.33489 1.09035 0.55635
 C1707 C 0.31029 1.09900 0.56532
 H1708 H 0.30077 1.11518 0.55543
 Cu1709 Cu 0.50008 0.89062 0.61012
 Cu1710 Cu 0.50039 0.85409 0.64704
 Cu1711 Cu 0.50076 1.11046 0.60955
 Cu1712 Cu 0.50076 1.14714 0.64627
 Cu1713 Cu 0.39032 0.88965 0.50086
 Cu1714 Cu 0.35354 0.85302 0.50116
 Cu1715 Cu 0.60936 0.89063 0.49982
 Cu1716 Cu 0.64612 0.85393 0.49980
 Cu1717 Cu 0.39087 1.10998 0.50010
 Cu1718 Cu 0.35419 1.14674 0.50024
 Cu1719 Cu 0.60912 1.10973 0.49894
 Cu1720 Cu 0.64594 1.14633 0.49847
 Cu1721 Cu 0.39099 1.00018 0.60965
 Cu1722 Cu 0.35433 1.00047 0.64649
 Cu1723 Cu 0.60990 1.00062 0.60917
 Cu1724 Cu 0.64680 1.00058 0.64569
 C1725 C 0.56886 0.93207 0.65352
 H1726 H 0.56233 0.93843 0.63431
 C1727 C 0.58671 0.91462 0.70265
 C1728 C 0.43238 1.06899 0.65342
 H1729 H 0.43897 1.06250 0.63427
 C1730 C 0.41427 1.08679 0.70234
 C1731 C 0.34688 1.06887 0.56875
 H1732 H 0.36603 1.06235 0.56220
 C1733 C 0.29792 1.08666 0.58673
 C1734 C 0.65374 0.93191 0.56807
 H1735 H 0.63464 0.93854 0.56154
 C1736 C 0.70257 0.91377 0.58602
 C1737 C 0.56854 0.84670 0.56877
 H1738 H 0.56198 0.86584 0.56230
 C1739 C 0.58651 0.79775 0.58655
 C1740 C 0.43210 1.15430 0.56869
 H1741 H 0.43888 1.13528 0.56209
 C1742 C 0.41344 1.20289 0.58678
 C1743 C 0.43212 0.93215 0.65454
 H1744 H 0.43913 0.93903 0.63569
 C1745 C 0.41328 0.91367 0.70296
 C1746 C 0.56930 1.06941 0.65349
 H1747 H 0.56254 1.06285 0.63445
 C1748 C 0.58784 1.08738 0.70218
 C1749 C 0.43196 0.84585 0.56921
 H1750 H 0.43870 0.86477 0.56230
 C1751 C 0.41381 0.79724 0.58770
 C1752 C 0.56851 1.15454 0.56745
 H1753 H 0.56156 1.13564 0.56074
 C1754 C 0.58722 1.20312 0.58538
 C1755 C 0.34669 0.93120 0.56925
 H1756 H 0.36576 0.93764 0.56244
 C1757 C 0.29793 0.91352 0.58792
 C1758 C 0.65367 1.06889 0.56758
 H1759 H 0.63468 1.06203 0.56100
 C1760 C 0.70220 1.08774 0.58563
 O1761 O 0.47422 0.40462 0.86946
 O1762 O 0.47428 0.37399 0.83893
 C1763 C 0.46532 0.39535 0.84811
 C1764 C 0.44391 0.40923 0.83420
 C1765 C 0.43472 0.40008 0.80990
 H1766 H 0.44370 0.38287 0.80135
 O1767 O 0.52587 0.59382 0.86924
 O1768 O 0.52586 0.62419 0.83842
 C1769 C 0.53483 0.60292 0.84782
 C1770 C 0.55628 0.58887 0.83411
 C1771 C 0.56552 0.59770 0.80966
 H1772 H 0.55662 0.61484 0.80091
 O1773 O 0.36967 0.47354 0.90558
 O1774 O 0.33892 0.47354 0.87517
 C1775 C 0.34826 0.46463 0.89651
 C1776 C 0.33446 0.44328 0.91063
 C1777 C 0.31011 0.43401 0.90170
 H1778 H 0.30093 0.44303 0.88478
 O1779 O 0.63060 0.52480 0.90569
 O1780 O 0.66136 0.52468 0.87522
 C1781 C 0.65199 0.53372 0.89650
 C1782 C 0.66568 0.55527 0.91037
 C1783 C 0.69008 0.56447 0.90139
 H1784 H 0.69901 0.55540 0.88440
 O1785 O 0.40503 0.36880 0.97531
 O1786 O 0.37446 0.33823 0.97547
 C1787 C 0.39575 0.34749 0.96636
 C1788 C 0.40958 0.33386 0.94468
 C1789 C 0.40070 0.30948 0.93533
 H1790 H 0.38400 0.30006 0.94453
 O1791 O 0.59440 0.63057 0.97424
 O1792 O 0.62496 0.66116 0.97408
 C1793 C 0.60363 0.65186 0.96517
 C1794 C 0.58978 0.66547 0.94356
 C1795 C 0.59849 0.69000 0.93456
 H1796 H 0.61448 0.69960 0.94465
 O1797 O 0.40563 0.52457 0.86943
 O1798 O 0.37503 0.52464 0.83887
 C1799 C 0.39640 0.53354 0.84810
 C1800 C 0.41036 0.55498 0.83428
 C1801 C 0.40137 0.56414 0.80989
 H1802 H 0.38458 0.55493 0.80069
 O1803 O 0.59471 0.47356 0.86992
 O1804 O 0.62533 0.47340 0.83930
 C1805 C 0.60395 0.46452 0.84860
 C1806 C 0.59002 0.44305 0.83488
 C1807 C 0.59875 0.43413 0.81031
 H1808 H 0.61489 0.44413 0.80079
 O1809 O 0.52521 0.36870 0.90569
 O1810 O 0.52525 0.33798 0.87525
 C1811 C 0.53413 0.34729 0.89658
 C1812 C 0.55547 0.33345 0.91062
 C1813 C 0.56469 0.30911 0.90162
 H1814 H 0.55561 0.29995 0.88473
 O1815 O 0.47466 0.62975 0.90510
 O1816 O 0.47458 0.66028 0.87443
 C1817 C 0.46569 0.65106 0.89584
 C1818 C 0.44427 0.66487 0.90982
 C1819 C 0.43551 0.68951 0.90115
 H1820 H 0.44557 0.69897 0.88502
 O1821 O 0.36956 0.59425 0.97441
 O1822 O 0.33898 0.62485 0.97415
 C1823 C 0.34827 0.60348 0.96531
 C1824 C 0.33463 0.58952 0.94377
 C1825 C 0.31025 0.59842 0.93442
 H1826 H 0.30088 0.61521 0.94352
 O1827 O 0.62999 0.40426 0.97483
 O1828 O 0.66058 0.37366 0.97486
 C1829 C 0.65136 0.39503 0.96592
 C1830 C 0.66527 0.40905 0.94457
 C1831 C 0.68985 0.40031 0.93567
 H1832 H 0.69911 0.38360 0.94501
 O1833 O 0.47470 0.59385 0.86915
 O1834 O 0.47462 0.62422 0.83832
 C1835 C 0.46572 0.60292 0.84773
 C1836 C 0.44430 0.58884 0.83403
 C1837 C 0.43506 0.59767 0.80959
 H1838 H 0.44398 0.61475 0.80070
 O1839 O 0.52543 0.40466 0.86976
 O1840 O 0.52549 0.37407 0.83918
 C1841 C 0.53445 0.39539 0.84845
 C1842 C 0.55602 0.40927 0.83475
 C1843 C 0.56505 0.40061 0.81016
 H1844 H 0.55565 0.38407 0.80069
 O1845 O 0.63057 0.47361 0.90585
 O1846 O 0.66134 0.47345 0.87540
 C1847 C 0.65195 0.46457 0.89674
 C1848 C 0.66561 0.44311 0.91080
 C1849 C 0.69017 0.43403 0.90212
 H1850 H 0.69909 0.44308 0.88512
 O1851 O 0.36973 0.52473 0.90541
 O1852 O 0.33898 0.52477 0.87499
 C1853 C 0.34837 0.53375 0.89626
 C1854 C 0.33474 0.55540 0.91009
 C1855 C 0.31034 0.56450 0.90113
 H1856 H 0.30087 0.55440 0.88506
 O1857 O 0.40550 0.63017 0.97440
 O1858 O 0.37507 0.66092 0.97421
 C1859 C 0.39640 0.65154 0.96535
 C1860 C 0.41045 0.66517 0.94385
 C1861 C 0.40194 0.68980 0.93488
 H1862 H 0.38543 0.69936 0.94428
 O1863 O 0.59403 0.36834 0.97504
 O1864 O 0.62445 0.33758 0.97509
 C1865 C 0.60314 0.34692 0.96615
 C1866 C 0.58913 0.33316 0.94474
 C1867 C 0.59801 0.30875 0.93553
 H1868 H 0.61505 0.29984 0.94451
 O1869 O 0.59483 0.52469 0.86960
 O1870 O 0.62544 0.52457 0.83898
 C1871 C 0.60407 0.53354 0.84819
 C1872 C 0.59012 0.55492 0.83429
 C1873 C 0.59901 0.56394 0.80979
 H1874 H 0.61572 0.55458 0.80054
 O1875 O 0.40517 0.47341 0.86912
 O1876 O 0.37456 0.47342 0.83856
 C1877 C 0.39591 0.46445 0.84778
 C1878 C 0.40984 0.44295 0.83402
 C1879 C 0.40090 0.43352 0.80969
 H1880 H 0.38407 0.44257 0.80038
 O1881 O 0.52581 0.63010 0.90477
 O1882 O 0.52578 0.66064 0.87411
 C1883 C 0.53472 0.65145 0.89549
 C1884 C 0.55612 0.66529 0.90944
 C1885 C 0.56514 0.68982 0.90066
 H1886 H 0.55589 0.69914 0.88393
 O1887 O 0.47404 0.36919 0.90592
 O1888 O 0.47407 0.33844 0.87550
 C1889 C 0.46508 0.34782 0.89680
 C1890 C 0.44353 0.33414 0.91074
 C1891 C 0.43450 0.30973 0.90182
 H1892 H 0.44462 0.30031 0.88572
 O1893 O 0.63020 0.59455 0.97427
 O1894 O 0.66091 0.62500 0.97408
 C1895 C 0.65158 0.60366 0.96524
 C1896 C 0.66536 0.58957 0.94386
 C1897 C 0.68969 0.59855 0.93454
 H1898 H 0.69884 0.61548 0.94353
 O1899 O 0.36937 0.40495 0.97531
 O1900 O 0.33861 0.37456 0.97554
 C1901 C 0.34796 0.39582 0.96646
 C1902 C 0.33422 0.40974 0.94494
 C1903 C 0.30981 0.40082 0.93579
 H1904 H 0.30092 0.38382 0.94487
 Cu1905 Cu 0.49973 0.38988 0.89074
 Cu1906 Cu 0.49977 0.35303 0.85416
 Cu1907 Cu 0.50028 0.60883 0.89014
 Cu1908 Cu 0.50019 0.64539 0.85322
 Cu1909 Cu 0.39062 0.49902 0.89042
 Cu1910 Cu 0.35378 0.49911 0.85385
 Cu1911 Cu 0.60962 0.49919 0.89083
 Cu1912 Cu 0.64646 0.49901 0.85417
 C1913 C 0.43157 0.43088 0.84590
 H1914 H 0.43836 0.43779 0.86481
 C1915 C 0.41342 0.41233 0.79728
 C1916 C 0.56852 0.56729 0.84609
 H1917 H 0.56174 0.56064 0.86512
 C1918 C 0.58672 0.58511 0.79716
 C1919 C 0.34620 0.43120 0.93245
 H1920 H 0.36517 0.43798 0.93920
 C1921 C 0.29749 0.41304 0.91430
 C1922 C 0.65367 0.56773 0.93184
 H1923 H 0.63472 0.56094 0.93866
 C1924 C 0.70234 0.58599 0.91356
 C1925 C 0.43107 0.34595 0.93229
 H1926 H 0.43774 0.36494 0.93904
 C1927 C 0.41279 0.29744 0.91368
 C1928 C 0.56848 0.65338 0.93099
 H1929 H 0.56192 0.63429 0.93762
 C1930 C 0.58650 0.70218 0.91285
 C1931 C 0.43203 0.56726 0.84603
 H1932 H 0.43883 0.56056 0.86502
 C1933 C 0.41375 0.58523 0.79725
 C1934 C 0.56855 0.43060 0.84685
 H1935 H 0.56196 0.43714 0.86597
 C1936 C 0.58658 0.41268 0.79794
 C1937 C 0.56761 0.34516 0.93239
 H1938 H 0.56087 0.36413 0.93917
 C1939 C 0.58571 0.29646 0.91409
 C1940 C 0.43173 0.65296 0.93128
 H1941 H 0.43815 0.63378 0.93782
 C1942 C 0.41411 0.70198 0.91336
 C1943 C 0.34663 0.56792 0.93154
 H1944 H 0.36562 0.56122 0.93832
 C1945 C 0.29813 0.58630 0.91289
 C1946 C 0.65349 0.43068 0.93222
 H1947 H 0.63440 0.43735 0.93877
 C1948 C 0.70262 0.41281 0.91469
 O1949 O 0.52548 0.40548 1.13183
 O1950 O 0.52555 0.37511 1.16266
 C1951 C 0.53456 0.39633 1.15317
 C1952 C 0.55628 0.41021 1.16657
 C1953 C 0.56579 0.40145 1.19095
 H1954 H 0.55667 0.38481 1.20055
 O1955 O 0.47468 0.59490 1.13130
 O1956 O 0.47477 0.62544 1.16191
 C1957 C 0.46579 0.60411 1.15270
 C1958 C 0.44433 0.59020 1.16657
 C1959 C 0.43516 0.59921 1.19096
 H1960 H 0.44419 0.61632 1.19965
 O1961 O 0.36929 0.52623 1.09563
 O1962 O 0.33850 0.52635 1.12606
 C1963 C 0.34788 0.53523 1.10472
 C1964 C 0.33417 0.55664 1.09059
 C1965 C 0.30962 0.56581 1.09921
 H1966 H 0.30021 0.55667 1.11596
 O1967 O 0.63077 0.47392 1.09454
 O1968 O 0.66156 0.47400 1.12491
 C1969 C 0.65214 0.46493 1.10370
 C1970 C 0.66573 0.44328 1.08985
 C1971 C 0.69035 0.43425 1.09840
 H1972 H 0.69993 0.44370 1.11485
 O1973 O 0.59404 0.36865 1.02626
 O1974 O 0.62446 0.33788 1.02637
 C1975 C 0.60319 0.34733 1.03535
 C1976 C 0.58924 0.33380 1.05699
 C1977 C 0.59802 0.30939 1.06629
 H1978 H 0.61468 0.29992 1.05706
 O1979 O 0.40556 0.63005 1.02565
 O1980 O 0.37508 0.66074 1.02547
 C1981 C 0.39635 0.65141 1.03455
 C1982 C 0.41008 0.66515 1.05618
 C1983 C 0.40102 0.68954 1.06515
 H1984 H 0.38497 0.69893 1.05494
 O1985 O 0.40511 0.47505 1.13174
 O1986 O 0.37447 0.47508 1.16233
 C1987 C 0.39582 0.46610 1.15309
 C1988 C 0.40972 0.44460 1.16689
 C1989 C 0.40062 0.43526 1.19121
 H1990 H 0.38373 0.44435 1.20042
 O1991 O 0.59487 0.52548 1.13011
 O1992 O 0.62554 0.52553 1.16061
 C1993 C 0.60419 0.53451 1.15137
 C1994 C 0.59047 0.55615 1.16513
 C1995 C 0.59958 0.56513 1.18950
 H1996 H 0.61567 0.55494 1.19884
 O1997 O 0.47412 0.36979 1.09608
 O1998 O 0.47406 0.33926 1.12674
 C1999 C 0.46514 0.34848 1.10536
 C2000 C 0.44370 0.33467 1.09144
 C2001 C 0.43481 0.31014 1.10028
 H2002 H 0.44482 0.30075 1.11646
 O2003 O 0.52560 0.63089 1.09497
 O2004 O 0.52566 0.66165 1.12537
 C2005 C 0.53455 0.65229 1.10403
 C2006 C 0.55596 0.66600 1.08990
 C2007 C 0.56492 0.69061 1.09842
 H2008 H 0.55557 0.70009 1.11501
 O2009 O 0.36947 0.40512 1.02648
 O2010 O 0.33869 0.37475 1.02681
 C2011 C 0.34810 0.39609 1.03559
 C2012 C 0.33446 0.41030 1.05700
 C2013 C 0.30983 0.40185 1.06611
 H2014 H 0.30032 0.38519 1.05697
 O2015 O 0.63040 0.59475 1.02540
 O2016 O 0.66115 0.62516 1.02527
 C2017 C 0.65184 0.60384 1.03423
 C2018 C 0.66569 0.58974 1.05553
 C2019 C 0.69035 0.59828 1.06437
 H2020 H 0.69973 0.61494 1.05506
 O2021 O 0.52589 0.59498 1.13089
 O2022 O 0.52611 0.62553 1.16150
 C2023 C 0.53505 0.60422 1.15213
 C2024 C 0.55676 0.59029 1.16558
 C2025 C 0.56629 0.59910 1.18993
 H2026 H 0.55723 0.61583 1.19941
 O2027 O 0.47423 0.40587 1.13186
 O2028 O 0.47422 0.37550 1.16268
 C2029 C 0.46527 0.39679 1.15329
 C2030 C 0.44378 0.41081 1.16703
 C2031 C 0.43444 0.40182 1.19138
 H2032 H 0.44334 0.38466 1.20014
 O2033 O 0.63075 0.52514 1.09407
 O2034 O 0.66153 0.52519 1.12446
 C2035 C 0.65215 0.53409 1.10315
 C2036 C 0.66584 0.55557 1.08916
 C2037 C 0.69052 0.56434 1.09769
 H2038 H 0.70016 0.55415 1.11362
 O2039 O 0.36975 0.47504 1.09528
 O2040 O 0.33895 0.47512 1.12571
 C2041 C 0.34836 0.46612 1.10442
 C2042 C 0.33465 0.44458 1.09054
 C2043 C 0.31000 0.43593 1.09925
 H2044 H 0.30046 0.44627 1.11514
 O2045 O 0.59445 0.63069 1.02548
 O2046 O 0.62503 0.66127 1.02535
 C2047 C 0.60370 0.65204 1.03438
 C2048 C 0.58981 0.66585 1.05589
 C2049 C 0.59847 0.69048 1.06466
 H2050 H 0.61453 0.69997 1.05452
 O2051 O 0.40529 0.36912 1.02658
 O2052 O 0.37471 0.33854 1.02686
 C2053 C 0.39606 0.34786 1.03573
 C2054 C 0.40996 0.33431 1.05738
 C2055 C 0.40128 0.30982 1.06656
 H2056 H 0.38472 0.30032 1.05722
 O2057 O 0.59474 0.47429 1.13046
 O2058 O 0.62543 0.47437 1.16094
 C2059 C 0.60402 0.46545 1.15183
 C2060 C 0.59019 0.44407 1.16583
 C2061 C 0.59930 0.43516 1.19023
 H2062 H 0.61551 0.44526 1.19945
 O2063 O 0.40534 0.52622 1.13149
 O2064 O 0.37471 0.52633 1.16208
 C2065 C 0.39610 0.53521 1.15283
 C2066 C 0.41013 0.55661 1.16659
 C2067 C 0.40120 0.56594 1.19097
 H2068 H 0.38433 0.55692 1.20026
 O2069 O 0.47441 0.63065 1.09521
 O2070 O 0.47435 0.66139 1.12562
 C2071 C 0.46535 0.65197 1.10436
 C2072 C 0.44371 0.66548 1.09039
 C2073 C 0.43422 0.68984 1.09918
 H2074 H 0.44325 0.69929 1.11594
 O2075 O 0.52526 0.36960 1.09588
 O2076 O 0.52524 0.33907 1.12655
 C2077 C 0.53414 0.34822 1.10511
 C2078 C 0.55542 0.33422 1.09105
 C2079 C 0.56444 0.30977 1.10001
 H2080 H 0.55549 0.30113 1.11722
 O2081 O 0.63010 0.40437 1.02597
 O2082 O 0.66067 0.37376 1.02603
 C2083 C 0.65146 0.39516 1.03488
 C2084 C 0.66535 0.40916 1.05620
 C2085 C 0.68999 0.40047 1.06494
 H2086 H 0.69940 0.38434 1.05487
 O2087 O 0.36934 0.59448 1.02566
 O2088 O 0.33872 0.62505 1.02543
 C2089 C 0.34798 0.60377 1.03455
 C2090 C 0.33421 0.59009 1.05621
 C2091 C 0.30963 0.59891 1.06504
 H2092 H 0.30012 0.61484 1.05475
 Cu2093 Cu 0.49978 0.39075 1.11087
 Cu2094 Cu 0.49975 0.35419 1.14776
 Cu2095 Cu 0.50014 0.60980 1.11005
 Cu2096 Cu 0.50023 0.64658 1.14667
 Cu2097 Cu 0.39037 0.39001 1.00089
 Cu2098 Cu 0.35355 0.35344 1.00121
 Cu2099 Cu 0.60897 0.38945 1.00050
 Cu2100 Cu 0.64559 0.35262 1.00058
 Cu2101 Cu 0.39053 0.60916 1.00002
 Cu2102 Cu 0.35390 0.64597 0.99980
 Cu2103 Cu 0.60929 0.60960 0.99989
 Cu2104 Cu 0.64608 0.64623 0.99969
 Cu2105 Cu 0.39044 0.50066 1.11050
 Cu2106 Cu 0.35357 0.50072 1.14710
 Cu2107 Cu 0.60973 0.49968 1.10922
 Cu2108 Cu 0.64659 0.49979 1.14580
 C2109 C 0.56855 0.43160 1.15426
 H2110 H 0.56166 0.43818 1.13526
 C2111 C 0.58752 0.41355 1.20276
 C2112 C 0.43191 0.56867 1.15475
 H2113 H 0.43867 0.56183 1.13579
 C2114 C 0.41377 0.58698 1.20349
 C2115 C 0.34621 0.56884 1.06899
 H2116 H 0.36532 0.56217 1.06249
 C2117 C 0.29731 0.58711 1.08679
 C2118 C 0.65349 0.43067 1.06865
 H2119 H 0.63433 0.43723 1.06221
 C2120 C 0.70251 0.41268 1.08629
 C2121 C 0.56773 0.34589 1.06931
 H2122 H 0.56109 0.36489 1.06249
 C2123 C 0.58556 0.29705 1.08753
 C2124 C 0.43154 0.65336 1.06881
 H2125 H 0.43842 0.63438 1.06219
 C2126 C 0.41267 0.70185 1.08694
 C2127 C 0.43151 0.43243 1.15514
 H2128 H 0.43839 0.43927 1.13622
 C2129 C 0.41302 0.41413 1.20378
 C2130 C 0.56895 0.56874 1.15342
 H2131 H 0.56204 0.56210 1.13445
 C2132 C 0.58790 0.58689 1.20187
 C2133 C 0.43128 0.34650 1.06987
 H2134 H 0.43782 0.36557 1.06319
 C2135 C 0.41334 0.29772 1.08817
 C2136 C 0.56844 0.65388 1.06852
 H2137 H 0.56190 0.63472 1.06210
 C2138 C 0.58633 0.70288 1.08617
 C2139 C 0.34664 0.43177 1.06929
 H2140 H 0.36582 0.43813 1.06269
 C2141 C 0.29762 0.41428 1.08744
 C2142 C 0.65369 0.56828 1.06796
 H2143 H 0.63449 0.56184 1.06154
 C2144 C 0.70277 0.58595 1.08563
 C2145 C 1.12250 1.12137 1.27709
 C2146 C 1.13326 1.10235 1.26227
 C2147 C 1.12263 1.09336 1.23681
 C2148 C 1.09770 1.09651 1.22884
 H2149 H 1.15169 1.09345 1.26760
 H2150 H 1.13647 1.08316 1.22437
 H2151 H 1.10510 1.13108 1.26977
 H2152 H 1.08386 1.10699 1.24104
 C2153 C 1.12116 0.61983 0.77690
 C2154 C 1.09575 0.62107 0.77008
 C2155 C 1.08472 0.61056 0.74533
 C2156 C 1.09789 0.59539 0.72825
 H2157 H 1.08189 0.63062 0.78302
 H2158 H 1.06443 0.61546 0.74161
 H2159 H 1.13513 0.60978 0.76454
 H2160 H 1.11750 0.58884 0.73285
 C2161 C 0.61870 1.11681 0.77990
 C2162 C 0.63289 1.10533 0.76089
 C2163 C 0.62213 1.09459 0.73614
 C2164 C 0.59735 1.09773 0.72771
 H2165 H 0.65395 1.10383 0.76306
 H2166 H 0.63620 1.08455 0.72383
 H2167 H 0.59776 1.11920 0.77768
 H2168 H 0.58368 1.10942 0.73893
 C2169 C 0.62279 0.62279 1.27502
 C2170 C 0.63370 0.60396 1.26004
 C2171 C 0.62286 0.59464 1.23481
 C2172 C 0.59775 0.59720 1.22726
 H2173 H 0.65242 0.59549 1.26503
 H2174 H 0.63670 0.58467 1.22218
 H2175 H 0.60513 0.63222 1.26794
 H2176 H 0.58389 0.60749 1.23961
 C2177 C 0.87870 0.87964 1.27706
 C2178 C 0.89743 0.86877 1.26194
 C2179 C 0.90646 0.87955 1.23657
 C2180 C 0.90375 0.90461 1.22890
 H2181 H 0.90595 0.85006 1.26689
 H2182 H 0.91631 0.86567 1.22390
 H2183 H 0.86918 0.89727 1.27004
 H2184 H 0.89354 0.91851 1.24127
 C2185 C 0.88574 0.38501 0.78304
 C2186 C 0.87871 0.40761 0.77130
 C2187 C 0.89076 0.41792 0.74695
 C2188 C 0.90378 0.40328 0.72931
 H2189 H 0.86397 0.42020 0.77978
 H2190 H 0.88750 0.43852 0.74313
 H2191 H 0.90224 0.37433 0.77501
 H2192 H 0.90730 0.38271 0.73311
 C2193 C 0.38244 0.88148 0.77936
 C2194 C 0.37812 0.90579 0.77016
 C2195 C 0.38964 0.91654 0.74567
 C2196 C 0.40313 0.90250 0.72787
 H2197 H 0.36583 0.91914 0.78113
 H2198 H 0.38628 0.93721 0.74231
 H2199 H 0.39613 0.86874 0.76942
 H2200 H 0.40728 0.88203 0.73130
 C2201 C 0.38270 0.38550 1.28211
 C2202 C 0.40598 0.37944 1.27110
 C2203 C 0.41650 0.39151 1.24684
 C2204 C 0.40203 0.40428 1.22890
 H2205 H 0.41900 0.36544 1.28013
 H2206 H 0.43722 0.38854 1.24337
 H2207 H 0.37142 0.40132 1.27357
 H2208 H 0.38137 0.40766 1.23233
 C2209 C 0.87713 1.12134 0.72414
 C2210 C 0.86621 1.10268 0.73932
 C2211 C 0.87722 1.09338 0.76453
 C2212 C 0.90231 1.09620 0.77214
 H2213 H 0.84738 1.09437 0.73453
 H2214 H 0.86344 1.08338 0.77719
 H2215 H 0.89511 1.13038 0.73085
 H2216 H 0.91611 1.10654 0.75978
 C2217 C 0.88155 0.61616 0.22074
 C2218 C 0.90618 0.61951 0.22947
 C2219 C 0.91664 0.60869 0.25436
 C2220 C 0.90243 0.59571 0.27240
 H2221 H 0.92002 0.63058 0.21780
 H2222 H 0.93732 0.61197 0.25774
 H2223 H 0.86808 0.60377 0.23141
 H2224 H 0.88201 0.59137 0.26888
 C2225 C 0.37788 1.12063 0.22377
 C2226 C 0.36690 1.10174 0.23861
 C2227 C 0.37749 1.09256 0.26401
 C2228 C 0.40252 1.09527 0.27179
 H2229 H 0.34830 1.09317 0.23340
 H2230 H 0.36354 1.08268 0.27658
 H2231 H 0.39542 1.13010 0.23103
 H2232 H 0.41648 1.10543 0.25944
 C2233 C 0.38194 0.61491 0.72023
 C2234 C 0.40653 0.61837 0.72905
 C2235 C 0.41699 0.60760 0.75396
 C2236 C 0.40274 0.59477 0.77206
 H2237 H 0.42036 0.62950 0.71744
 H2238 H 0.43769 0.61082 0.75734
 H2239 H 0.36852 0.60239 0.73081
 H2240 H 0.38229 0.59054 0.76858
 C2241 C 1.11795 0.87973 0.72242
 C2242 C 1.13170 0.89238 0.74097
 C2243 C 1.12077 0.90319 0.76561
 C2244 C 1.09557 0.90164 0.77314
 H2245 H 1.15267 0.89471 0.73863
 H2246 H 1.13492 0.91240 0.77844
 H2247 H 1.09727 0.87595 0.72508
 H2248 H 1.08146 0.89117 0.76133
 C2249 C 1.11707 0.38079 0.22110
 C2250 C 1.13100 0.39295 0.23986
 C2251 C 1.12021 0.40373 0.26457
 C2252 C 1.09505 0.40220 0.27221
 H2253 H 1.15201 0.39494 0.23759
 H2254 H 1.13445 0.41283 0.27739
 H2255 H 1.09630 0.37739 0.22363
 H2256 H 1.08088 0.39177 0.26043
 C2257 C 0.61434 0.88515 0.21790
 C2258 C 0.59171 0.87806 0.22957
 C2259 C 0.58138 0.88992 0.25400
 C2260 C 0.59598 0.90297 0.27161
 H2261 H 0.57913 0.86339 0.22101
 H2262 H 0.56078 0.88657 0.25785
 H2263 H 0.62508 0.90149 0.22611
 H2264 H 0.61653 0.90658 0.26780
 C2265 C 0.61758 0.38064 0.72127
 C2266 C 0.63131 0.39426 0.73914
 C2267 C 0.62081 0.40432 0.76431
 C2268 C 0.59574 0.40249 0.77225
 H2269 H 0.65196 0.39788 0.73587
 H2270 H 0.63513 0.41342 0.77703
 H2271 H 0.59739 0.37542 0.72502
 H2272 H 0.58144 0.39238 0.76036
 C2273 C 1.27891 1.11744 1.11757
 C2274 C 1.26129 1.13117 1.10361
 C2275 C 1.23637 1.12062 1.09305
 C2276 C 1.22807 1.09573 1.09560
 H2277 H 1.26449 1.15187 1.10026
 H2278 H 1.22400 1.13482 1.08331
 H2279 H 1.27533 1.09712 1.12231
 H2280 H 1.23958 1.08164 1.10644
 C2281 C 1.28037 0.61552 0.61659
 C2282 C 1.26215 0.62962 0.60381
 C2283 C 1.23712 0.61924 0.59335
 C2284 C 1.22865 0.59443 0.59594
 H2285 H 1.26506 0.65047 0.60116
 H2286 H 1.22477 0.63355 0.58373
 H2287 H 1.27721 0.59496 0.62052
 H2288 H 1.24005 0.58031 0.60687
 C2289 C 0.77495 1.12258 0.62229
 C2290 C 0.76049 1.13331 0.60295
 C2291 C 0.73534 1.12256 0.59330
 C2292 C 0.72760 1.09753 0.59598
 H2293 H 0.76582 1.15185 0.59430
 H2294 H 0.72296 1.13639 0.58305
 H2295 H 0.76752 1.10512 0.63182
 H2296 H 0.73977 1.08370 0.60651
 C2297 C 0.77985 0.61728 1.11611
 C2298 C 0.76165 0.60433 1.13010
 C2299 C 0.73668 0.59387 1.11962
 C2300 C 0.72847 0.59615 1.09469
 H2301 H 0.76454 0.60153 1.15095
 H2302 H 0.72418 0.58440 1.13393
 H2303 H 0.77668 0.62146 1.09558
 H2304 H 0.74001 0.60687 1.08051
 C2305 C 1.27557 0.87788 0.87793
 C2306 C 1.26037 0.86679 0.89649
 C2307 C 1.23502 0.87751 0.90571
 C2308 C 1.22737 0.90259 0.90324
 H2309 H 1.26528 0.84799 0.90483
 H2310 H 1.22239 0.86359 0.91556
 H2311 H 1.26861 0.89562 0.86858
 H2312 H 1.23970 0.91654 0.89305
 C2313 C 1.27601 0.37933 0.37750
 C2314 C 1.26046 0.36781 0.39553
 C2315 C 1.23510 0.37839 0.40483
 C2316 C 1.22751 0.40351 0.40280
 H2317 H 1.26513 0.34874 0.40339
 H2318 H 1.22237 0.36434 0.41437
 H2319 H 1.26927 0.39731 0.36845
 H2320 H 1.23987 0.41762 0.39288
 C2321 C 0.77823 0.88274 0.38023
 C2322 C 0.77031 0.88053 0.40529
 C2323 C 0.74536 0.89107 0.41593
 C2324 C 0.72746 0.90446 0.40197
 H2325 H 0.78260 0.87041 0.41931
 H2326 H 0.74193 0.88743 0.43656
 H2327 H 0.76680 0.89391 0.36634
 H2328 H 0.73123 0.90943 0.38173
 C2329 C 0.77861 0.38065 0.88278
 C2330 C 0.77091 0.40581 0.88149
 C2331 C 0.74570 0.41609 0.89173
 C2332 C 0.72812 0.40210 0.90553
 H2333 H 0.78356 0.42012 0.87224
 H2334 H 0.74195 0.43658 0.88773
 H2335 H 0.76667 0.36630 0.89280
 H2336 H 0.73245 0.38214 0.91112
 C2337 C 0.72034 0.88411 1.12016
 C2338 C 0.73884 0.87017 1.10757
 C2339 C 0.76387 0.88076 1.09729
 C2340 C 0.77171 0.90584 1.09901
 H2341 H 0.73611 0.84932 1.10484
 H2342 H 0.77667 0.86645 1.08824
 H2343 H 0.72340 0.90464 1.12434
 H2344 H 0.75985 0.92010 1.10928
 C2345 C 0.71826 0.38484 0.61511
 C2346 C 0.72989 0.40745 0.62227
 C2347 C 0.75436 0.41780 0.61051
 C2348 C 0.77208 0.40322 0.59756
 H2349 H 0.72123 0.42002 0.63691
 H2350 H 0.75815 0.43839 0.61388
 H2351 H 0.72649 0.37415 0.59871
 H2352 H 0.76832 0.38268 0.59394
 C2353 C 0.22445 0.87776 0.62233
 C2354 C 0.23928 0.89666 0.63328
 C2355 C 0.26458 0.90605 0.62261
 C2356 C 0.27238 0.90340 0.59757
 H2357 H 0.23414 0.90512 0.65197
 H2358 H 0.27705 0.91608 0.63651
 H2359 H 0.23166 0.86832 0.60472
 H2360 H 0.26017 0.89307 0.58366
 C2361 C 0.22369 0.37898 1.12119
 C2362 C 0.23874 0.39751 1.13246
 C2363 C 0.26414 0.40675 1.12193
 C2364 C 0.27197 0.40427 1.09689
 H2365 H 0.23370 0.40574 1.15127
 H2366 H 0.27668 0.41651 1.13595
 H2367 H 0.23078 0.36975 1.10343
 H2368 H 0.25973 0.39419 1.08282
 C2369 C 0.72473 1.12247 0.87871
 C2370 C 0.73959 1.13366 0.89746
 C2371 C 0.76499 1.12320 0.90679
 C2372 C 0.77276 1.09813 0.90449
 H2373 H 0.73432 1.15232 0.90587
 H2374 H 0.77751 1.13723 0.91656
 H2375 H 0.73207 1.10490 0.86932
 H2376 H 0.76045 1.08408 0.89446
 C2377 C 0.72222 0.61856 0.38091
 C2378 C 0.73962 0.63208 0.39532
 C2379 C 0.76441 0.62140 0.40606
 C2380 C 0.77224 0.59631 0.40429
 H2381 H 0.73640 0.65273 0.39888
 H2382 H 0.77704 0.63563 0.41543
 H2383 H 0.72599 0.59836 0.37579
 H2384 H 0.76040 0.58209 0.39401
 C2385 C 0.21899 1.11615 0.38415
 C2386 C 0.23036 1.12291 0.40702
 C2387 C 0.25462 1.11085 0.41755
 C2388 C 0.27218 1.09738 0.40321
 H2389 H 0.22170 1.13751 0.41962
 H2390 H 0.25835 1.11434 0.43814
 H2391 H 0.22738 1.10000 0.37323
 H2392 H 0.26849 1.09355 0.38268
 C2393 C 0.22491 0.62263 0.87830
 C2394 C 0.24018 0.60418 0.86711
 C2395 C 0.26531 0.59462 0.87799
 C2396 C 0.27277 0.59681 0.90315
 H2397 H 0.23551 0.59620 0.84811
 H2398 H 0.27799 0.58479 0.86409
 H2399 H 0.23165 0.63166 0.89628
 H2400 H 0.26045 0.60701 0.91710
 C2401 C 1.11818 1.27970 1.11684
 C2402 C 1.13219 1.26117 1.10441
 C2403 C 1.12140 1.23650 1.09354
 C2404 C 1.09658 1.22817 1.09652
 H2405 H 1.15317 1.26358 1.10231
 H2406 H 1.13545 1.22420 1.08347
 H2407 H 1.09738 1.27715 1.12000
 H2408 H 1.08283 1.23942 1.10807
 C2409 C 1.12130 0.77723 0.61831
 C2410 C 1.09604 0.76985 0.61992
 C2411 C 1.08519 0.74503 0.60939
 C2412 C 1.09882 0.72727 0.59550
 H2413 H 1.08205 0.78246 0.62970
 H2414 H 1.06462 0.74167 0.61337
 H2415 H 1.13528 0.76542 0.60766
 H2416 H 1.11891 0.73115 0.59002
 C2417 C 0.61977 1.27967 0.61560
 C2418 C 0.59503 1.27110 0.61875
 C2419 C 0.58443 1.24624 0.60805
 C2420 C 0.59843 1.22824 0.59484
 H2421 H 0.58118 1.28289 0.62967
 H2422 H 0.56378 1.24288 0.61158
 H2423 H 0.63333 1.26891 0.60338
 H2424 H 0.61879 1.23181 0.59017
 C2425 C 0.61633 0.78028 1.11721
 C2426 C 0.63056 0.76204 1.10457
 C2427 C 0.62021 0.73707 1.09391
 C2428 C 0.59537 0.72860 1.09636
 H2429 H 0.65144 0.76490 1.10216
 H2430 H 0.63455 0.72476 1.08427
 H2431 H 0.59569 0.77718 1.12082
 H2432 H 0.58123 0.73996 1.10731
 C2433 C 0.88238 1.27935 0.88244
 C2434 C 0.89677 1.26199 0.86882
 C2435 C 0.90685 1.23681 0.87925
 C2436 C 0.90509 1.22891 0.90435
 H2437 H 0.90080 1.26557 0.84828
 H2438 H 0.91587 1.22408 0.86487
 H2439 H 0.87675 1.27516 0.90245
 H2440 H 0.89523 1.24093 0.91875
 C2441 C 0.88265 0.77913 0.38191
 C2442 C 0.86890 0.76106 0.39526
 C2443 C 0.87965 0.73624 0.40586
 C2444 C 0.90459 0.72806 0.40325
 H2445 H 0.84808 0.76391 0.39825
 H2446 H 0.86554 0.72380 0.41567
 H2447 H 0.90316 0.77600 0.37761
 H2448 H 0.91855 0.73955 0.39220
 C2449 C 0.38248 1.27951 0.38173
 C2450 C 0.36837 1.26070 0.39364
 C2451 C 0.37907 1.23601 0.40455
 C2452 C 0.40406 1.22797 0.40234
 H2453 H 0.34734 1.26294 0.39537
 H2454 H 0.36487 1.22347 0.41412
 H2455 H 0.40333 1.27709 0.37882
 H2456 H 0.41806 1.23943 0.39131
 C2457 C 0.38104 0.77803 0.88228
 C2458 C 0.39533 0.76059 0.86863
 C2459 C 0.40583 0.73564 0.87916
 C2460 C 0.40395 0.72766 0.90422
 H2461 H 0.39898 0.76393 0.84799
 H2462 H 0.41515 0.72304 0.86484
 H2463 H 0.37581 0.77415 0.90245
 H2464 H 0.39370 0.73947 0.91852
 C2465 C 1.11973 0.72271 0.88025
 C2466 C 1.12172 0.73018 0.90544
 C2467 C 1.11071 0.75478 0.91641
 C2468 C 1.09563 0.77186 0.90312
 H2469 H 1.13215 0.71783 0.91919
 H2470 H 1.11534 0.75847 0.93677
 H2471 H 1.10861 0.73435 0.86649
 H2472 H 1.08951 0.76748 0.88333
 C2473 C 1.11763 0.22046 0.38267
 C2474 C 1.10555 0.23913 0.36854
 C2475 C 1.09453 0.26379 0.37926
 C2476 C 1.09705 0.27203 0.40418
 H2477 H 1.10379 0.23682 0.34752
 H2478 H 1.08469 0.27615 0.36510
 H2479 H 1.12043 0.22292 0.40353
 H2480 H 1.10837 0.26072 0.41806
 C2481 C 0.61840 0.72257 0.37894
 C2482 C 0.63182 0.74008 0.39332
 C2483 C 0.62104 0.76484 0.40399
 C2484 C 0.59579 0.77225 0.40278
 H2485 H 0.65247 0.73694 0.39700
 H2486 H 0.63526 0.77771 0.41305
 H2487 H 0.59827 0.72634 0.37354
 H2488 H 0.58152 0.76016 0.39286
 C2489 C 0.61525 0.21951 0.88227
 C2490 C 0.61922 0.22860 0.90670
 C2491 C 0.60791 0.25317 0.91734
 C2492 C 0.59544 0.27141 0.90300
 H2493 H 0.63118 0.21750 0.92024
 H2494 H 0.61073 0.25635 0.93814
 H2495 H 0.60169 0.22942 0.86935
 H2496 H 0.59186 0.26824 0.88236
 C2497 C 0.88162 0.72071 1.11683
 C2498 C 0.90607 0.72976 1.12074
 C2499 C 0.91648 0.75474 1.11008
 C2500 C 0.90213 0.77294 1.09753
 H2501 H 0.91984 0.71827 1.13204
 H2502 H 0.93720 0.75809 1.11316
 H2503 H 0.86837 0.73119 1.10406
 H2504 H 0.88161 0.76955 1.09357
 C2505 C 0.88272 0.22139 0.62075
 C2506 C 0.87966 0.22982 0.59594
 C2507 C 0.89082 0.25440 0.58514
 C2508 C 0.90355 0.27262 0.59925
 H2509 H 0.86845 0.21820 0.58221
 H2510 H 0.88787 0.25751 0.56434
 H2511 H 0.89536 0.23192 0.63407
 H2512 H 0.90750 0.26943 0.61981
 C2513 C 0.38230 0.72002 0.61692
 C2514 C 0.40668 0.72915 0.62103
 C2515 C 0.41711 0.75412 0.61036
 C2516 C 0.40285 0.77214 0.59746
 H2517 H 0.42038 0.71774 0.63250
 H2518 H 0.43778 0.75758 0.61366
 H2519 H 0.36912 0.73045 0.60404
 H2520 H 0.38239 0.76862 0.59328
 C2521 C 0.38233 0.22060 1.11885
 C2522 C 0.39454 0.23913 1.13303
 C2523 C 0.40540 0.26390 1.12241
 C2524 C 0.40297 0.27216 1.09749
 H2525 H 0.39644 0.23663 1.15402
 H2526 H 0.41505 0.27629 1.13665
 H2527 H 0.37931 0.22325 1.09805
 H2528 H 0.39190 0.26077 1.08349
 C2529 C 1.11587 1.11408 0.71775
 C2530 C 1.09295 1.12055 0.72921
 C2531 C 1.08263 1.10841 0.75352
 C2532 C 1.09723 1.09546 0.77123
 H2533 H 1.08007 1.13488 0.72050
 H2534 H 1.06197 1.11151 0.75721
 H2535 H 1.12694 1.09795 0.72600
 H2536 H 1.11783 1.09197 0.76756
 C2537 C 1.11435 0.61542 0.21736
 C2538 C 1.12153 0.59283 0.22906
 C2539 C 1.10968 0.58243 0.25349
 C2540 C 1.09655 0.59693 0.27116
 H2541 H 1.13622 0.58028 0.22045
 H2542 H 1.11312 0.56185 0.25727
 H2543 H 1.09794 0.62611 0.22557
 H2544 H 1.09285 0.61746 0.26738
 C2545 C 0.61741 1.11602 0.21951
 C2546 C 0.59235 1.11799 0.22748
 C2547 C 0.58193 1.10766 0.25261
 C2548 C 0.59598 1.09422 0.27039
 H2549 H 0.57819 1.12784 0.21513
 H2550 H 0.56138 1.11147 0.25625
 H2551 H 0.63149 1.10520 0.23104
 H2552 H 0.61610 1.08899 0.26636
 C2553 C 0.62027 0.61855 0.72251
 C2554 C 0.59491 0.61956 0.72961
 C2555 C 0.58418 0.60911 0.75456
 C2556 C 0.59769 0.59446 0.77182
 H2557 H 0.58083 0.62883 0.71672
 H2558 H 0.56379 0.61361 0.75829
 H2559 H 0.63445 0.60871 0.73479
 H2560 H 0.61745 0.58829 0.76730
 C2561 C 0.88196 0.88187 0.72230
 C2562 C 0.86807 0.89542 0.74015
 C2563 C 0.87853 0.90588 0.76516
 C2564 C 0.90347 0.90366 0.77336
 H2565 H 0.84734 0.89863 0.73701
 H2566 H 0.86423 0.91537 0.77765
 H2567 H 0.90232 0.87724 0.72583
 H2568 H 0.91768 0.89307 0.76174
 C2569 C 0.88325 0.38320 0.22045
 C2570 C 0.86895 0.39563 0.23877
 C2571 C 0.87924 0.40618 0.26381
 C2572 C 0.90401 0.40348 0.27239
 H2573 H 0.84806 0.39799 0.23588
 H2574 H 0.86492 0.41591 0.27607
 H2575 H 0.90391 0.37967 0.22352
 H2576 H 0.91810 0.39238 0.26111
 C2577 C 0.38089 0.87851 0.22323
 C2578 C 0.36736 0.89311 0.24054
 C2579 C 0.37790 0.90375 0.26541
 C2580 C 0.40311 0.90262 0.27292
 H2581 H 0.34678 0.89697 0.23714
 H2582 H 0.36358 0.91274 0.27824
 H2583 H 0.40091 0.87290 0.22732
 H2584 H 0.41751 0.89286 0.26081
 C2585 C 0.38410 0.38389 0.71862
 C2586 C 0.40655 0.37663 0.73048
 C2587 C 0.41706 0.38885 0.75463
 C2588 C 0.40265 0.40234 0.77212
 H2589 H 0.41890 0.36158 0.72221
 H2590 H 0.43763 0.38531 0.75843
 H2591 H 0.37368 0.40066 0.72642
 H2592 H 0.38213 0.40613 0.76831
 C2593 C 1.12210 0.87655 1.27562
 C2594 C 1.13303 0.89551 1.26078
 C2595 C 1.12231 0.90508 1.23559
 C2596 C 1.09718 0.90289 1.22809
 H2597 H 1.15181 0.90381 1.26579
 H2598 H 1.13624 0.91496 1.22299
 H2599 H 1.10455 0.86705 1.26841
 H2600 H 1.08324 0.89270 1.24044
 C2601 C 1.11742 0.38442 0.78082
 C2602 C 1.09334 0.37970 0.77127
 C2603 C 1.08285 0.39099 0.74661
 C2604 C 1.09726 0.40369 0.72854
 H2605 H 1.07997 0.36726 0.78206
 H2606 H 1.06212 0.38798 0.74324
 H2607 H 1.13002 0.39844 0.77114
 H2608 H 1.11785 0.40738 0.73190
 C2609 C 0.61723 0.88267 0.77949
 C2610 C 0.63114 0.89615 0.76161
 C2611 C 0.62074 0.90656 0.73654
 C2612 C 0.59576 0.90457 0.72843
 H2613 H 0.65188 0.89932 0.76474
 H2614 H 0.63510 0.91581 0.72394
 H2615 H 0.59687 0.87803 0.77595
 H2616 H 0.58146 0.89424 0.74018
 C2617 C 0.62246 0.37765 1.27592
 C2618 C 0.63352 0.39621 1.26071
 C2619 C 0.62260 0.40555 1.23551
 C2620 C 0.59741 0.40326 1.22815
 H2621 H 0.65237 0.40447 1.26551
 H2622 H 0.63645 0.41530 1.22272
 H2623 H 0.60461 0.36846 1.26907
 H2624 H 0.58351 0.39319 1.24065
 C2625 C 0.88556 1.11473 1.28344
 C2626 C 0.90828 1.12173 1.27190
 C2627 C 0.91858 1.11000 1.24740
 C2628 C 0.90391 1.09726 1.22964
 H2629 H 0.92096 1.13622 1.28062
 H2630 H 0.93922 1.11319 1.24363
 H2631 H 0.87472 1.09852 1.27509
 H2632 H 0.88331 1.09381 1.23336
 C2633 C 0.88241 0.61987 0.77907
 C2634 C 0.86869 0.60633 0.76112
 C2635 C 0.87935 0.59584 0.73619
 C2636 C 0.90446 0.59759 0.72836
 H2637 H 0.84795 0.60305 0.76416
 H2638 H 0.86511 0.58657 0.72350
 H2639 H 0.90275 0.62466 0.77558
 H2640 H 0.91868 0.60791 0.74017
 C2641 C 0.38269 1.11915 0.77861
 C2642 C 0.36910 1.10541 0.76074
 C2643 C 0.37986 1.09495 0.73585
 C2644 C 0.40492 1.09704 0.72794
 H2645 H 0.34836 1.10207 0.76374
 H2646 H 0.36569 1.08554 0.72320
 H2647 H 0.40303 1.12399 0.77518
 H2648 H 0.41905 1.10754 0.73972
 C2649 C 0.38420 0.61508 1.28218
 C2650 C 0.40696 0.62192 1.27061
 C2651 C 0.41749 0.60978 1.24642
 C2652 C 0.40297 0.59684 1.22868
 H2653 H 0.41957 0.63658 1.27916
 H2654 H 0.43815 0.61295 1.24278
 H2655 H 0.37355 0.59853 1.27425
 H2656 H 0.38235 0.59340 1.23232
 C2657 C 1.12154 1.27624 0.87760
 C2658 C 1.13261 1.26080 0.89596
 C2659 C 1.12191 1.23533 0.90479
 C2660 C 1.09688 1.22759 0.90201
 H2661 H 1.15132 1.26569 0.90450
 H2662 H 1.13578 1.22268 0.91468
 H2663 H 1.10389 1.26933 0.86807
 H2664 H 1.08297 1.23989 0.89175
 C2665 C 1.12214 0.77498 0.37656
 C2666 C 1.13303 0.76004 0.39545
 C2667 C 1.12231 0.73479 0.40481
 C2668 C 1.09721 0.72722 0.40243
 H2669 H 1.15177 0.76503 0.40385
 H2670 H 1.13622 0.72219 0.41470
 H2671 H 1.10462 0.76782 0.36697
 H2672 H 1.08329 0.73955 0.39221
 C2673 C 0.61828 1.27897 0.38243
 C2674 C 0.59409 1.26969 0.37765
 C2675 C 0.58330 1.24509 0.38881
 C2676 C 0.59744 1.22698 0.40171
 H2677 H 0.58083 1.28067 0.36529
 H2678 H 0.56257 1.24186 0.38563
 H2679 H 0.63081 1.26903 0.39633
 H2680 H 0.61801 1.23018 0.40556
 C2681 C 0.61727 0.77918 0.88144
 C2682 C 0.63120 0.76095 0.89439
 C2683 C 0.62065 0.73595 0.90477
 C2684 C 0.59570 0.72778 0.90248
 H2685 H 0.65201 0.76387 0.89730
 H2686 H 0.63490 0.72344 0.91430
 H2687 H 0.59677 0.77597 0.87716
 H2688 H 0.58158 0.73934 0.89172
 C2689 C 0.88520 1.28260 1.11556
 C2690 C 0.90789 1.27104 1.12263
 C2691 C 0.91835 1.24665 1.11083
 C2692 C 0.90393 1.22902 1.09761
 H2693 H 0.92047 1.27970 1.13724
 H2694 H 0.93893 1.24285 1.11434
 H2695 H 0.87444 1.27432 1.09925
 H2696 H 0.88341 1.23279 1.09379
 C2697 C 0.88105 0.77837 0.61906
 C2698 C 0.90611 0.77057 0.62140
 C2699 C 0.91689 0.74569 0.61084
 C2700 C 0.90338 0.72835 0.59630
 H2701 H 0.91996 0.78288 0.63169
 H2702 H 0.93728 0.74198 0.61533
 H2703 H 0.86723 0.76681 0.60797
 H2704 H 0.88351 0.73264 0.59039
 C2705 C 0.37915 1.27662 0.62230
 C2706 C 0.36787 1.26127 0.60401
 C2707 C 0.37862 1.23597 0.59473
 C2708 C 0.40375 1.22837 0.59706
 H2709 H 0.34894 1.26606 0.59591
 H2710 H 0.36469 1.22331 0.58500
 H2711 H 0.39710 1.26983 0.63136
 H2712 H 0.41774 1.24069 0.60715
 C2713 C 0.37774 0.77495 1.12295
 C2714 C 0.36689 0.76002 1.10407
 C2715 C 0.37772 0.73480 1.09475
 C2716 C 0.40283 0.72723 1.09727
 H2717 H 0.34819 0.76505 1.09558
 H2718 H 0.36389 0.72220 1.08478
 H2719 H 0.39532 0.76782 1.13248
 H2720 H 0.41668 0.73956 1.10756
 C2721 C 0.88215 0.72153 0.88286
 C2722 C 0.86833 0.73905 0.89690
 C2723 C 0.87867 0.76408 0.90738
 C2724 C 0.90370 0.77211 0.90562
 H2725 H 0.84768 0.73569 0.90042
 H2726 H 0.86428 0.77668 0.91657
 H2727 H 0.90235 0.72543 0.87777
 H2728 H 0.91809 0.76029 0.89551
 C2729 C 0.88365 0.21942 0.38427
 C2730 C 0.86929 0.23779 0.39656
 C2731 C 0.87955 0.26278 0.40721
 C2732 C 0.90437 0.27129 0.40473
 H2733 H 0.84836 0.23499 0.39870
 H2734 H 0.86517 0.27508 0.41679
 H2735 H 0.90436 0.22240 0.38095
 H2736 H 0.91853 0.25996 0.39377
 C2737 C 0.37833 0.72312 0.37930
 C2738 C 0.39694 0.73834 0.36837
 C2739 C 0.40578 0.76380 0.37904
 C2740 C 0.40305 0.77152 0.40410
 H2741 H 0.40554 0.73338 0.34968
 H2742 H 0.41559 0.77644 0.36511
 H2743 H 0.36863 0.73017 0.39684
 H2744 H 0.39286 0.75917 0.41804
 C2745 C 0.37730 0.22387 0.87906
 C2746 C 0.39571 0.23924 0.86798
 C2747 C 0.40481 0.26454 0.87879
 C2748 C 0.40243 0.27204 0.90395
 H2749 H 0.40396 0.23452 0.84908
 H2750 H 0.41453 0.27728 0.86487
 H2751 H 0.36792 0.23069 0.89686
 H2752 H 0.39232 0.25964 0.91790
 C2753 C 1.11562 0.71860 1.11639
 C2754 C 1.09298 0.73030 1.12338
 C2755 C 1.08269 0.75476 1.11151
 C2756 C 1.09714 0.77223 1.09804
 H2757 H 1.08026 0.72166 1.13791
 H2758 H 1.06214 0.75866 1.11508
 H2759 H 1.12662 0.72696 1.10025
 H2760 H 1.11762 0.76834 1.09412
 C2761 C 1.11650 0.22008 0.61804
 C2762 C 1.13065 0.23846 0.60552
 C2763 C 1.12024 0.26345 0.59496
 C2764 C 1.09531 0.27172 0.59717
 H2765 H 1.15155 0.23569 0.60311
 H2766 H 1.13458 0.27593 0.58553
 H2767 H 1.09585 0.22311 0.62175
 H2768 H 1.08112 0.26021 0.60791
 C2769 C 0.61734 0.72089 0.61812
 C2770 C 0.63127 0.73914 0.60517
 C2771 C 0.62067 0.76400 0.59455
 C2772 C 0.59570 0.77212 0.59682
 H2773 H 0.65215 0.73639 0.60252
 H2774 H 0.63491 0.77652 0.58502
 H2775 H 0.59676 0.72392 0.62214
 H2776 H 0.58159 0.76056 0.60760
 C2777 C 0.61455 0.21793 1.11460
 C2778 C 0.59185 0.22948 1.12169
 C2779 C 0.58155 0.25402 1.11008
 C2780 C 0.59619 0.27175 1.09722
 H2781 H 0.57914 0.22071 1.13616
 H2782 H 0.56095 0.25785 1.11344
 H2783 H 0.62539 0.22628 1.09835
 H2784 H 0.61675 0.26798 1.09358
 C2785 C 1.27856 1.11744 0.88094
 C2786 C 1.26961 1.12107 0.90547
 C2787 C 1.24498 1.10976 0.91607
 C2788 C 1.22732 1.09614 0.90202
 H2789 H 1.28088 1.13276 0.91910
 H2790 H 1.24145 1.11329 0.93670
 H2791 H 1.26829 1.10447 0.86774
 H2792 H 1.23102 1.09160 0.88167
 C2793 C 1.27924 0.61744 0.38111
 C2794 C 1.26045 0.63145 0.39317
 C2795 C 1.23571 0.62067 0.40397
 C2796 C 1.22774 0.59567 0.40177
 H2797 H 1.26275 0.65244 0.39514
 H2798 H 1.22312 0.63482 0.41353
 H2799 H 1.27674 0.59665 0.37796
 H2800 H 1.23927 0.58170 0.39077
 C2801 C 0.77915 1.11627 0.38081
 C2802 C 0.76077 1.13036 0.39340
 C2803 C 0.73562 1.12000 0.40361
 C2804 C 0.72762 1.09498 0.40190
 H2805 H 0.76369 1.15118 0.39617
 H2806 H 0.72290 1.13440 0.41262
 H2807 H 0.77590 1.09578 0.37655
 H2808 H 0.73941 1.08062 0.39172
 C2809 C 0.77960 0.61765 0.88466
 C2810 C 0.77048 0.59331 0.88036
 C2811 C 0.74569 0.58272 0.89130
 C2812 C 0.72741 0.59704 0.90379
 H2813 H 0.78173 0.57978 0.86853
 H2814 H 0.74247 0.56197 0.88836
 H2815 H 0.76938 0.63053 0.89802
 H2816 H 0.73061 0.61763 0.90747
 C2817 C 1.27848 0.88091 1.11797
 C2818 C 1.26065 0.89474 1.13159
 C2819 C 1.23592 0.90550 1.12081
 C2820 C 1.22796 0.90330 1.09579
 H2821 H 1.26355 0.89788 1.15238
 H2822 H 1.22339 0.91514 1.13497
 H2823 H 1.27519 0.87632 1.09755
 H2824 H 1.23958 0.89254 1.08171
 C2825 C 1.27936 0.38357 0.61969
 C2826 C 1.27038 0.37948 0.59523
 C2827 C 1.24569 0.39043 0.58445
 C2828 C 1.22737 0.40302 0.59859
 H2829 H 1.28175 0.36776 0.58169
 H2830 H 1.24258 0.38740 0.56367
 H2831 H 1.26916 0.39686 0.63266
 H2832 H 1.23050 0.40684 0.61919
 C2833 C 0.77882 0.88264 0.61874
 C2834 C 0.76081 0.86879 0.60542
 C2835 C 0.73599 0.87943 0.59467
 C2836 C 0.72814 0.90451 0.59639
 H2837 H 0.76365 0.84797 0.60261
 H2838 H 0.72333 0.86516 0.58542
 H2839 H 0.77557 0.90313 0.62298
 H2840 H 0.73990 0.91874 0.60675
 C2841 C 0.77975 0.38233 1.11750
 C2842 C 0.76190 0.36837 1.10411
 C2843 C 0.73672 0.37873 1.09389
 C2844 C 0.72829 0.40359 1.09635
 H2845 H 0.76519 0.34768 1.10085
 H2846 H 0.72433 0.36441 1.08437
 H2847 H 0.77611 0.40268 1.12211
 H2848 H 0.73983 0.41779 1.10700
 C2849 C 0.71998 1.11817 1.11686
 C2850 C 0.73800 1.13230 1.10383
 C2851 C 0.76334 1.12207 1.09383
 C2852 C 0.77213 1.09740 1.09693
 H2853 H 0.73467 1.15300 1.10064
 H2854 H 0.77557 1.13637 1.08404
 H2855 H 0.72353 1.09777 1.12129
 H2856 H 0.76078 1.08333 1.10798
 C2857 C 0.72306 0.61886 0.62004
 C2858 C 0.73038 0.62026 0.59474
 C2859 C 0.75545 0.61007 0.58408
 C2860 C 0.77270 0.59546 0.59761
 H2861 H 0.71758 0.62965 0.58066
 H2862 H 0.75929 0.61472 0.56374
 H2863 H 0.73522 0.60887 0.63421
 H2864 H 0.76812 0.58918 0.61733
 C2865 C 0.22122 1.11699 0.61925
 C2866 C 0.23926 1.13105 0.60613
 C2867 C 0.26431 1.12072 0.59561
 C2868 C 0.27223 1.09565 0.59705
 H2869 H 0.23621 1.15184 0.60325
 H2870 H 0.27701 1.13515 0.58663
 H2871 H 0.22470 1.09657 0.62366
 H2872 H 0.26040 1.08122 0.60709
 C2873 C 0.21958 0.61741 1.11699
 C2874 C 0.23789 0.63154 1.10436
 C2875 C 0.26294 0.62106 1.09390
 C2876 C 0.27162 0.59635 1.09700
 H2877 H 0.23497 0.65238 1.10171
 H2878 H 0.27513 0.63523 1.08386
 H2879 H 0.22268 0.59680 1.12072
 H2880 H 0.26040 0.58247 1.10842
 C2881 C 0.72037 0.88421 0.88282
 C2882 C 0.72899 0.88065 0.90749
 C2883 C 0.75374 0.89153 0.91822
 C2884 C 0.77166 0.90492 0.90427
 H2885 H 0.71736 0.86932 0.92115
 H2886 H 0.75709 0.88796 0.93887
 H2887 H 0.73103 0.89682 0.86955
 H2888 H 0.76814 0.90952 0.88389
 C2889 C 0.72300 0.38064 0.38064
 C2890 C 0.72982 0.37944 0.40607
 C2891 C 0.75472 0.38972 0.41703
 C2892 C 0.77182 0.40487 0.40385
 H2893 H 0.71681 0.37009 0.41999
 H2894 H 0.75850 0.38472 0.43729
 H2895 H 0.73551 0.39045 0.36663
 H2896 H 0.76715 0.41152 0.38428
 C2897 C 0.22142 0.88061 0.38250
 C2898 C 0.23979 0.89374 0.36892
 C2899 C 0.26427 0.90466 0.38002
 C2900 C 0.27193 0.90249 0.40514
 H2901 H 0.23746 0.89630 0.34797
 H2902 H 0.27696 0.91431 0.36600
 H2903 H 0.22404 0.87669 0.40316
 H2904 H 0.26027 0.89155 0.41905
 C2905 C 0.22005 0.38436 0.88306
 C2906 C 0.22953 0.37963 0.90720
 C2907 C 0.25421 0.39079 0.91775
 C2908 C 0.27240 0.40329 0.90334
 H2909 H 0.21866 0.36728 0.92058
 H2910 H 0.25749 0.38784 0.93851
 H2911 H 0.22978 0.39833 0.87044
 H2912 H 0.26914 0.40687 0.88270
   
