data_POSCAR
  _audit_creation_date              2014-09-24
  _audit_creation_method            'ToBaCCo'
  _symmetry_space_group_name_H-M    'P1'
  _symmetry_Int_Tables_number       1
  _symmetry_cell_setting            triclinic
  loop_
  _symmetry_equiv_pos_as_xyz
 x,y,z
_cell_length_a 79.9412
_cell_length_b 79.5490
_cell_length_c 79.4920
_cell_angle_alpha 89.316400
_cell_angle_beta 89.321800
_cell_angle_gamma 89.166500
loop_
  _atom_site_label
  _atom_site_type_symbol
  _atom_site_fract_x
  _atom_site_fract_y
  _atom_site_fract_z
C1 C 0.73960 0.64937 0.98202
 H2 H 0.75129 0.65000 0.97507
 C3 C 0.72550 0.65814 0.97618
 H4 H 0.72645 0.66549 0.96466
 C5 C 0.72393 0.63813 1.00490
 H6 H 0.72320 0.63002 1.01585
 C7 C 0.70958 0.64670 0.99954
 H8 H 0.69807 0.64535 1.00671
 N9 N 0.73855 0.63953 0.99610
 C10 C 0.78892 0.63072 1.01502
 H11 H 0.78862 0.61715 1.01598
 C12 C 0.80294 0.63929 1.02036
 H13 H 0.81349 0.63217 1.02525
 C14 C 0.77547 0.65637 1.00727
 H15 H 0.76463 0.66295 1.00236
 C16 C 0.78931 0.66547 1.01245
 H17 H 0.78898 0.67906 1.01151
 Zn18 Zn 0.75730 0.62606 1.00221
 N19 N 0.77560 0.63929 1.00853
 C20 C 0.77885 0.61410 0.97638
 N21 N 0.76329 0.61288 0.98334
 C22 C 0.75146 0.60311 0.97634
 C23 C 0.75514 0.59399 0.96180
 C24 C 0.78305 0.60523 0.96186
 C25 C 0.74910 0.62038 1.03578
 C26 C 0.74462 0.61141 1.05028
 C27 C 0.74622 0.58586 1.03425
 C28 C 0.75074 0.59540 1.02007
 N29 N 0.75177 0.61237 1.02102
 H30 H 0.78799 0.62217 0.98187
 H31 H 0.73907 0.60263 0.98194
 H32 H 0.74548 0.58653 0.95624
 H33 H 0.79554 0.60633 0.95658
 H34 H 0.75009 0.63393 1.03619
 H35 H 0.74169 0.61879 1.06126
 H36 H 0.74619 0.57238 1.03278
 H37 H 0.75346 0.58918 1.00833
 C38 C 0.80326 0.65690 1.01915
 C39 C 0.71016 0.65667 0.98485
 C40 C 0.74281 0.59371 1.04989
 C41 C 0.77109 0.59511 0.95430
 C42 C 0.73632 0.35190 0.51610
 H43 H 0.74827 0.35128 0.52234
 C44 C 0.72290 0.34255 0.52238
 H45 H 0.72470 0.33453 0.53332
 C46 C 0.71937 0.36342 0.49447
 H47 H 0.71786 0.37192 0.48389
 C48 C 0.70566 0.35430 0.50030
 H49 H 0.69376 0.35592 0.49408
 N50 N 0.73434 0.36208 0.50238
 C51 C 0.78399 0.37182 0.48132
 H52 H 0.78311 0.38538 0.48034
 C53 C 0.79843 0.36345 0.47576
 H54 H 0.80856 0.37067 0.47032
 C55 C 0.77157 0.34599 0.48923
 H56 H 0.76102 0.33925 0.49440
 C57 C 0.78581 0.33709 0.48380
 H58 H 0.78617 0.32352 0.48508
 Zn59 Zn 0.75231 0.37595 0.49548
 N60 N 0.77103 0.36307 0.48811
 C61 C 0.77399 0.38790 0.52040
 N62 N 0.75821 0.38897 0.51423
 C63 C 0.74617 0.39849 0.52194
 C64 C 0.74986 0.40757 0.53634
 C65 C 0.77821 0.39673 0.53475
 C66 C 0.74264 0.38184 0.46248
 C67 C 0.73700 0.39091 0.44850
 C68 C 0.73820 0.41634 0.46473
 C69 C 0.74385 0.40676 0.47845
 N70 N 0.74561 0.38978 0.47717
 H71 H 0.78331 0.37999 0.51439
 H72 H 0.73362 0.39884 0.51699
 H73 H 0.74006 0.41488 0.54245
 H74 H 0.79089 0.39579 0.53936
 H75 H 0.74441 0.36836 0.46175
 H76 H 0.73463 0.38432 0.43695
 H77 H 0.73638 0.42977 0.46611
 H78 H 0.74658 0.41288 0.49013
 C79 C 0.79954 0.34585 0.47708
 C80 C 0.70726 0.34379 0.51452
 C81 C 0.73446 0.40837 0.44958
 C82 C 0.76606 0.40667 0.54298
 C83 C 0.23894 -0.14654 0.01776
 H84 H 0.25092 -0.14669 0.02396
 C85 C 0.22587 -0.15628 0.02417
 H86 H 0.22797 -0.16412 0.03519
 C87 C 0.22161 -0.13588 -0.00398
 H88 H 0.21980 -0.12759 -0.01467
 C89 C 0.20823 -0.14542 0.00198
 H90 H 0.19629 -0.14431 -0.00425
 N91 N 0.23662 -0.13663 0.00390
 C92 C 0.28593 -0.12629 -0.01763
 H93 H 0.28495 -0.11273 -0.01857
 C94 C 0.30030 -0.13457 -0.02348
 H95 H 0.31046 -0.12725 -0.02873
 C96 C 0.27384 -0.15218 -0.00940
 H97 H 0.26340 -0.15900 -0.00412
 C98 C 0.28804 -0.16100 -0.01509
 H99 H 0.28835 -0.17459 -0.01415
 Zn100 Zn 0.25422 -0.12247 -0.00333
 N101 N 0.27314 -0.13512 -0.01061
 C102 C 0.27575 -0.10918 0.02108
 N103 N 0.25988 -0.10890 0.01510
 C104 C 0.24756 -0.09965 0.02270
 C105 C 0.25107 -0.08998 0.03676
 C106 C 0.27981 -0.09968 0.03505
 C107 C 0.24426 -0.11731 -0.03637
 C108 C 0.23862 -0.10858 -0.05056
 C109 C 0.23969 -0.08285 -0.03485
 C110 C 0.24532 -0.09217 -0.02096
 N111 N 0.24717 -0.10912 -0.02187
 H112 H 0.28527 -0.11698 0.01523
 H113 H 0.23498 -0.09987 0.01786
 H114 H 0.24115 -0.08258 0.04255
 H115 H 0.29246 -0.10029 0.03976
 H116 H 0.24630 -0.13078 -0.03688
 H117 H 0.23722 -0.11585 -0.06182
 H118 H 0.23757 -0.06958 -0.03293
 H119 H 0.24794 -0.08583 -0.00937
 C120 C 0.30151 -0.15217 -0.02224
 C121 C 0.21022 -0.15572 0.01630
 C122 C 0.23586 -0.09092 -0.05015
 C123 C 0.26740 -0.08990 0.04309
 C124 C 0.23731 0.15029 0.48205
 H125 H 0.24939 0.15101 0.47580
 C126 C 0.22371 0.15954 0.47579
 H127 H 0.22549 0.16759 0.46486
 C128 C 0.22030 0.13860 0.50367
 H129 H 0.21886 0.13007 0.51424
 C130 C 0.20638 0.14762 0.49785
 H131 H 0.19440 0.14590 0.50407
 N132 N 0.23539 0.14008 0.49575
 C133 C 0.28506 0.13083 0.51631
 H134 H 0.28473 0.11725 0.51708
 C135 C 0.29901 0.13930 0.52198
 H136 H 0.30948 0.13211 0.52694
 C137 C 0.27179 0.15658 0.50863
 H138 H 0.26106 0.16326 0.50361
 C139 C 0.28555 0.16559 0.51413
 H140 H 0.28527 0.17919 0.51332
 Zn141 Zn 0.25378 0.12640 0.50247
 N142 N 0.27189 0.13949 0.50965
 C143 C 0.27616 0.11473 0.47719
 N144 N 0.26040 0.11342 0.48365
 C145 C 0.24883 0.10368 0.47622
 C146 C 0.25299 0.09462 0.46176
 C147 C 0.28084 0.10593 0.46277
 C148 C 0.24379 0.12030 0.53558
 C149 C 0.23898 0.11099 0.54976
 C150 C 0.24230 0.08562 0.53358
 C151 C 0.24709 0.09543 0.51969
 N152 N 0.24750 0.11247 0.52087
 H153 H 0.28510 0.12280 0.48302
 H154 H 0.23628 0.10313 0.48142
 H155 H 0.24355 0.08714 0.45586
 H156 H 0.29348 0.10707 0.45790
 H157 H 0.24440 0.13385 0.53621
 H158 H 0.23567 0.11753 0.56123
 H159 H 0.24205 0.07208 0.53243
 H160 H 0.25048 0.08941 0.50800
 C161 C 0.29941 0.15692 0.52091
 C162 C 0.20794 0.15816 0.48364
 C163 C 0.23809 0.09341 0.54885
 C164 C 0.26917 0.09579 0.45479
 C165 C 0.14947 0.47819 0.23890
 H166 H 0.15009 0.47172 0.25093
 C167 C 0.15862 0.47206 0.22514
 H168 H 0.16649 0.46098 0.22676
 C169 C 0.13814 0.50030 0.22214
 H170 H 0.12979 0.51101 0.22085
 C171 C 0.14707 0.49461 0.20807
 H172 H 0.14545 0.50107 0.19613
 N173 N 0.13948 0.49208 0.23718
 C174 C 0.13058 0.51133 0.28771
 H175 H 0.11707 0.51224 0.28747
 C176 C 0.13917 0.51643 0.30189
 H177 H 0.13215 0.52142 0.31249
 C178 C 0.15608 0.50416 0.27387
 H179 H 0.16260 0.49951 0.26286
 C180 C 0.16519 0.50918 0.28781
 H181 H 0.17870 0.50808 0.28749
 Zn182 Zn 0.12595 0.49864 0.25575
 N183 N 0.13907 0.50514 0.27417
 C184 C 0.11385 0.47303 0.27759
 N185 N 0.11270 0.47996 0.26191
 C186 C 0.10291 0.47305 0.25001
 C187 C 0.09365 0.45869 0.25375
 C188 C 0.10484 0.45868 0.28184
 C189 C 0.12051 0.53202 0.24634
 C190 C 0.11153 0.54647 0.24173
 C191 C 0.08596 0.53083 0.24471
 C192 C 0.09545 0.51665 0.24931
 N193 N 0.11243 0.51744 0.24979
 H194 H 0.12197 0.47842 0.28677
 H195 H 0.10248 0.47861 0.23753
 H196 H 0.08614 0.45321 0.24404
 H197 H 0.10587 0.45344 0.29443
 H198 H 0.13401 0.53232 0.24700
 H199 H 0.11826 0.55782 0.23861
 H200 H 0.07246 0.52999 0.24439
 H201 H 0.08923 0.50505 0.25249
 C202 C 0.15670 0.51531 0.30211
 C203 C 0.15737 0.48021 0.20942
 C204 C 0.09402 0.54598 0.24076
 C205 C 0.09465 0.45125 0.26983
 C206 C -0.14748 0.01473 0.23649
 H207 H -0.14844 0.02118 0.24838
 C208 C -0.15633 0.02084 0.22259
 H209 H -0.16371 0.03221 0.22420
 C210 C -0.13536 -0.00702 0.22019
 H211 H -0.12699 -0.01774 0.21916
 C212 C -0.14394 -0.00138 0.20598
 H213 H -0.14240 -0.00861 0.19463
 N214 N -0.13721 0.00106 0.23506
 C215 C -0.12894 -0.01922 0.28560
 H216 H -0.11542 -0.01996 0.28524
 C217 C -0.13765 -0.02471 0.29988
 H218 H -0.13072 -0.02985 0.31042
 C219 C -0.15432 -0.01196 0.27202
 H220 H -0.16074 -0.00707 0.26109
 C221 C -0.16356 -0.01737 0.28607
 H222 H -0.17708 -0.01637 0.28590
 Zn223 Zn -0.12397 -0.00554 0.25369
 N224 N -0.13731 -0.01278 0.27214
 C225 C -0.11311 0.01980 0.27556
 N226 N -0.11135 0.01335 0.25986
 C227 C -0.10142 0.02084 0.24804
 C228 C -0.09256 0.03529 0.25192
 C229 C -0.10455 0.03422 0.27994
 C230 C -0.11755 -0.03860 0.24455
 C231 C -0.10827 -0.05256 0.23922
 C232 C -0.08315 -0.03620 0.24110
 C233 C -0.09294 -0.02251 0.24641
 N234 N -0.10986 -0.02385 0.24766
 H235 H -0.12135 0.01396 0.28467
 H236 H -0.10053 0.01567 0.23553
 H237 H -0.08487 0.04120 0.24230
 H238 H -0.10602 0.03906 0.29256
 H239 H -0.13100 -0.03938 0.24591
 H240 H -0.11468 -0.06414 0.23668
 H241 H -0.06976 -0.03477 0.23965
 H242 H -0.08701 -0.01079 0.24927
 C243 C -0.15520 -0.02372 0.30030
 C244 C -0.15452 0.01297 0.20679
 C245 C -0.09086 -0.05140 0.23716
 C246 C -0.09416 0.04221 0.26804
 C247 C 0.35371 0.51592 0.73623
 H248 H 0.35259 0.52240 0.74809
 C249 C 0.34487 0.52184 0.72225
 H250 H 0.33698 0.53295 0.72344
 C251 C 0.36614 0.49412 0.72008
 H252 H 0.37471 0.48356 0.71914
 C253 C 0.35755 0.49960 0.70581
 H254 H 0.35934 0.49290 0.69414
 N255 N 0.36411 0.50230 0.73492
 C256 C 0.37187 0.48271 0.78578
 H257 H 0.38541 0.48219 0.78568
 C258 C 0.36298 0.47720 0.79994
 H259 H 0.36979 0.47227 0.81066
 C260 C 0.34666 0.48938 0.77164
 H261 H 0.34037 0.49403 0.76053
 C262 C 0.33724 0.48394 0.78556
 H263 H 0.32372 0.48469 0.78510
 Zn264 Zn 0.37719 0.49600 0.75374
 N265 N 0.36367 0.48885 0.77209
 C266 C 0.38757 0.52173 0.77542
 N267 N 0.38957 0.51507 0.75984
 C268 C 0.39961 0.52245 0.74804
 C269 C 0.40835 0.53699 0.75183
 C270 C 0.39602 0.53625 0.77972
 C271 C 0.38408 0.46288 0.74498
 C272 C 0.39366 0.44882 0.74049
 C273 C 0.41857 0.46540 0.74304
 C274 C 0.40849 0.47917 0.74754
 N275 N 0.39155 0.47774 0.74815
 H276 H 0.37925 0.51597 0.78451
 H277 H 0.40069 0.51710 0.73562
 H278 H 0.41615 0.54280 0.74224
 H279 H 0.39437 0.54125 0.79225
 H280 H 0.37059 0.46206 0.74573
 H281 H 0.38741 0.43725 0.73757
 H282 H 0.43203 0.46676 0.74256
 H283 H 0.41422 0.49097 0.75049
 C284 C 0.34542 0.47785 0.80000
 C285 C 0.34687 0.51375 0.70672
 C286 C 0.41115 0.45000 0.73934
 C287 C 0.40653 0.54411 0.76784
 C288 C 0.64852 0.97624 0.73984
 H289 H 0.64845 0.96986 0.75194
 C290 C 0.65781 0.96956 0.72644
 H291 H 0.66511 0.95814 0.72840
 C292 C 0.63880 0.99870 0.72255
 H293 H 0.63101 1.00978 0.72090
 C294 C 0.64790 0.99248 0.70884
 H295 H 0.64699 0.99892 0.69680
 N296 N 0.63927 0.99057 0.73769
 C297 C 0.62995 1.01133 0.78753
 H298 H 0.61652 1.01304 0.78682
 C299 C 0.63837 1.01632 0.80184
 H300 H 0.63106 1.02230 0.81166
 C301 C 0.65534 1.00247 0.77466
 H302 H 0.66190 0.99711 0.76401
 C303 C 0.66434 1.00735 0.78873
 H304 H 0.67769 1.00498 0.78861
 Zn305 Zn 0.62554 0.99810 0.75575
 N306 N 0.63843 1.00435 0.77441
 C307 C 0.61125 0.97389 0.77782
 N308 N 0.61122 0.98022 0.76186
 C309 C 0.60170 0.97333 0.74973
 C310 C 0.59153 0.95962 0.75353
 C311 C 0.60123 0.96026 0.78218
 C312 C 0.62189 1.03151 0.74565
 C313 C 0.61375 1.04616 0.74019
 C314 C 0.58745 1.03164 0.74226
 C315 C 0.59612 1.01723 0.74768
 N316 N 0.61307 1.01735 0.74898
 H317 H 0.61925 0.97916 0.78718
 H318 H 0.60213 0.97843 0.73706
 H319 H 0.58396 0.95435 0.74375
 H320 H 0.60167 0.95524 0.79489
 H321 H 0.63534 1.03131 0.74706
 H322 H 0.62102 1.05728 0.73756
 H323 H 0.57401 1.03120 0.74086
 H324 H 0.58930 1.00594 0.75070
 C325 C 0.65594 1.01434 0.80281
 C326 C 0.65749 0.97765 0.71064
 C327 C 0.59631 1.04631 0.73824
 C328 C 0.59121 0.95293 0.76996
 C329 C 0.01604 0.23800 -0.14750
 H330 H 0.02249 0.24986 -0.14802
 C331 C 0.02231 0.22428 -0.15656
 H332 H 0.03364 0.22568 -0.16400
 C333 C -0.00606 0.22154 -0.13642
 H334 H -0.01689 0.22036 -0.12829
 C335 C -0.00024 0.20754 -0.14524
 H336 H -0.00695 0.19585 -0.14407
 N337 N 0.00210 0.23640 -0.13767
 C338 C -0.01837 0.28679 -0.12910
 H339 H -0.01954 0.28621 -0.11553
 C340 C -0.02375 0.30113 -0.13784
 H341 H -0.02920 0.31152 -0.13088
 C342 C -0.01029 0.27364 -0.15459
 H343 H -0.00516 0.26283 -0.16105
 C344 C -0.01557 0.28776 -0.16386
 H345 H -0.01420 0.28778 -0.17742
 Zn346 Zn -0.00486 0.25477 -0.12419
 N347 N -0.01162 0.27350 -0.13751
 C348 C 0.01968 0.27637 -0.11137
 N349 N 0.01345 0.26056 -0.11062
 C350 C 0.02066 0.24838 -0.10085
 C351 C 0.03456 0.25199 -0.09109
 C352 C 0.03349 0.28053 -0.10179
 C353 C -0.03796 0.24577 -0.11902
 C354 C -0.05225 0.24067 -0.11025
 C355 C -0.03680 0.24211 -0.08442
 C356 C -0.02281 0.24719 -0.09378
 N357 N -0.02354 0.24858 -0.11078
 H358 H 0.01414 0.28576 -0.11957
 H359 H 0.01563 0.23583 -0.10071
 H360 H 0.04004 0.24219 -0.08325
 H361 H 0.03839 0.29313 -0.10276
 H362 H -0.03833 0.24744 -0.13254
 H363 H -0.06342 0.23932 -0.11758
 H364 H -0.03504 0.24032 -0.07108
 H365 H -0.01128 0.24974 -0.08740
 C366 C -0.02231 0.30180 -0.15545
 C367 C 0.01423 0.20873 -0.15535
 C368 C -0.05202 0.23836 -0.09253
 C369 C 0.04112 0.26828 -0.09146
 C370 C 0.47843 0.23947 0.14452
 H371 H 0.47179 0.25142 0.14461
 C372 C 0.47201 0.22574 0.15350
 H373 H 0.46037 0.22722 0.16046
 C374 C 0.50113 0.22279 0.13447
 H375 H 0.51225 0.22151 0.12674
 C376 C 0.49519 0.20879 0.14325
 H377 H 0.50209 0.19700 0.14246
 N378 N 0.49272 0.23776 0.13519
 C379 C 0.51291 0.28768 0.12587
 H380 H 0.51431 0.28705 0.11233
 C381 C 0.51826 0.30182 0.13434
 H382 H 0.52358 0.31215 0.12719
 C383 C 0.50413 0.27492 0.15152
 H384 H 0.49884 0.26429 0.15815
 C385 C 0.50930 0.28889 0.16053
 H386 H 0.50797 0.28886 0.17410
 Zn387 Zn 0.49979 0.25602 0.12147
 N388 N 0.50592 0.27465 0.13448
 C389 C 0.47526 0.27790 0.10742
 N390 N 0.48179 0.26202 0.10724
 C391 C 0.47496 0.24986 0.09771
 C392 C 0.46108 0.25352 0.08771
 C393 C 0.46144 0.28211 0.09759
 C394 C 0.53316 0.24655 0.11764
 C395 C 0.54773 0.24105 0.10948
 C396 C 0.53302 0.24238 0.08310
 C397 C 0.51869 0.24787 0.09180
 N398 N 0.51894 0.24951 0.10881
 H399 H 0.48053 0.28728 0.11541
 H400 H 0.48023 0.23725 0.09802
 H401 H 0.45586 0.24370 0.08015
 H402 H 0.45625 0.29474 0.09818
 H403 H 0.53306 0.24822 0.13113
 H404 H 0.55888 0.23867 0.11678
 H405 H 0.53248 0.24065 0.06963
 H406 H 0.50735 0.25058 0.08497
 C407 C 0.51654 0.30255 0.15192
 C408 C 0.48031 0.21007 0.15273
 C409 C 0.54772 0.23866 0.09201
 C410 C 0.45412 0.26984 0.08761
 C411 C 0.97931 0.73776 0.64643
 H412 H 0.97237 0.74954 0.64669
 C413 C 0.97322 0.72375 0.65519
 H414 H 0.96155 0.72484 0.66215
 C415 C 1.00242 0.72181 0.63615
 H416 H 1.01357 0.72094 0.62840
 C417 C 0.99681 0.70752 0.64471
 H418 H 1.00399 0.69592 0.64375
 N419 N 0.99364 0.73655 0.63710
 C420 C 1.01191 0.78746 0.62892
 H421 H 1.01343 0.78720 0.61538
 C422 C 1.01632 0.80174 0.63774
 H423 H 1.02139 0.81239 0.63090
 C424 C 1.00391 0.77358 0.65424
 H425 H 0.99918 0.76253 0.66060
 C426 C 1.00822 0.78762 0.66360
 H427 H 1.00653 0.78732 0.67713
 Zn428 Zn 1.00013 0.75529 0.62377
 N429 N 1.00565 0.77384 0.63719
 C430 C 0.97488 0.77667 0.61017
 N431 N 0.98189 0.76100 0.60972
 C432 C 0.97549 0.74882 0.59991
 C433 C 0.96162 0.75226 0.58984
 C434 C 0.96105 0.78067 0.60028
 C435 C 1.03378 0.74667 0.61929
 C436 C 1.04839 0.74204 0.61066
 C437 C 1.03327 0.74434 0.58457
 C438 C 1.01893 0.74895 0.59371
 N439 N 1.01937 0.74972 0.61079
 H440 H 0.97979 0.78605 0.61839
 H441 H 0.98114 0.73638 0.60000
 H442 H 0.95678 0.74245 0.58202
 H443 H 0.95549 0.79313 0.60103
 H444 H 1.03380 0.74755 0.63286
 H445 H 1.05959 0.73916 0.61772
 H446 H 1.03269 0.74371 0.57099
 H447 H 1.00748 0.75182 0.58715
 C448 C 1.01442 0.80199 0.65532
 C449 C 0.98191 0.70830 0.65422
 C450 C 1.04822 0.74065 0.59306
 C451 C 0.95423 0.76839 0.58995
 C452 C 0.51644 0.73853 0.35142
 H453 H 0.52279 0.75045 0.35083
 C454 C 0.52269 0.72489 0.34223
 H455 H 0.53389 0.72640 0.33461
 C456 C 0.49468 0.72185 0.36284
 H457 H 0.48401 0.72054 0.37116
 C458 C 0.50047 0.70792 0.35389
 H459 H 0.49389 0.69617 0.35516
 N460 N 0.50269 0.73679 0.36148
 C461 C 0.48205 0.78695 0.37081
 H462 H 0.48097 0.78613 0.38438
 C463 C 0.47656 0.80142 0.36238
 H464 H 0.47083 0.81125 0.36985
 C465 C 0.48985 0.77422 0.34511
 H466 H 0.49503 0.76355 0.33844
 C467 C 0.48444 0.78845 0.33609
 H468 H 0.48620 0.78845 0.32259
 Zn469 Zn 0.49580 0.75501 0.37520
 N470 N 0.48875 0.77382 0.36217
 C471 C 0.52042 0.77665 0.38784
 N472 N 0.51428 0.76080 0.38855
 C473 C 0.52167 0.74860 0.39815
 C474 C 0.53565 0.75222 0.40779
 C475 C 0.53431 0.78083 0.39730
 C476 C 0.46284 0.74558 0.38076
 C477 C 0.44879 0.74017 0.38975
 C478 C 0.46463 0.74171 0.41537
 C479 C 0.47841 0.74709 0.40587
 N480 N 0.47736 0.74858 0.38884
 H481 H 0.51473 0.78607 0.37977
 H482 H 0.51671 0.73602 0.39826
 H483 H 0.54126 0.74240 0.41550
 H484 H 0.53913 0.79346 0.39638
 H485 H 0.46229 0.74714 0.36724
 H486 H 0.43738 0.73775 0.38304
 H487 H 0.46582 0.74012 0.42885
 H488 H 0.48996 0.74985 0.41210
 C489 C 0.47774 0.80256 0.34465
 C490 C 0.51477 0.70926 0.34356
 C491 C 0.44964 0.73794 0.40727
 C492 C 0.54210 0.76855 0.40747
 C493 C 0.39351 -0.01066 0.26513
 H494 H 0.39402 0.00148 0.27109
 C495 C 0.40313 -0.02411 0.27134
 H496 H 0.41124 -0.02215 0.28192
 C497 C 0.38208 -0.02798 0.24427
 H498 H 0.37353 -0.02959 0.23402
 C499 C 0.39147 -0.04176 0.25005
 H500 H 0.39001 -0.05382 0.24412
 N501 N 0.38327 -0.01279 0.25181
 C502 C 0.37326 0.03695 0.23023
 H503 H 0.35976 0.03648 0.22986
 C504 C 0.38151 0.05112 0.22410
 H505 H 0.37421 0.06161 0.21918
 C506 C 0.39907 0.02388 0.23746
 H507 H 0.40585 0.01316 0.24251
 C508 C 0.40784 0.03786 0.23148
 H509 H 0.42138 0.03772 0.23194
 Zn510 Zn 0.36934 0.00545 0.24502
 N511 N 0.38207 0.02379 0.23693
 C512 C 0.35805 0.02794 0.27008
 N513 N 0.35654 0.01210 0.26407
 C514 C 0.34691 0.00055 0.27221
 C515 C 0.33823 0.00480 0.28696
 C516 C 0.34964 0.03270 0.28476
 C517 C 0.36338 -0.00454 0.21237
 C518 C 0.35425 -0.00934 0.19844
 C519 C 0.32891 -0.00673 0.21514
 C520 C 0.33856 -0.00191 0.22878
 N521 N 0.35549 -0.00111 0.22720
 H522 H 0.36604 0.03686 0.26371
 H523 H 0.34621 -0.01207 0.26736
 H524 H 0.33085 -0.00463 0.29345
 H525 H 0.35097 0.04540 0.28927
 H526 H 0.37685 -0.00364 0.21144
 H527 H 0.36083 -0.01235 0.18686
 H528 H 0.31544 -0.00728 0.21657
 H529 H 0.33249 0.00122 0.24057
 C530 C 0.39903 0.05174 0.22473
 C531 C 0.40209 -0.03996 0.26383
 C532 C 0.33677 -0.01054 0.19972
 C533 C 0.33968 0.02104 0.29349
 C534 C 0.09798 1.02080 0.76936
 H535 H 0.09667 1.00896 0.77605
 C536 C 0.08931 1.03509 0.77498
 H537 H 0.08136 1.03413 0.78606
 C538 C 0.11072 1.03658 0.74736
 H539 H 0.11936 1.03725 0.73684
 C540 C 0.10231 1.05115 0.75254
 H541 H 0.10430 1.06278 0.74565
 N542 N 0.10845 1.02179 0.75578
 C543 C 0.11568 0.97071 0.73742
 H544 H 0.12921 0.97040 0.73688
 C545 C 0.10672 0.95680 0.73233
 H546 H 0.11347 0.94586 0.72770
 C547 C 0.09054 0.98562 0.74371
 H548 H 0.08431 0.99693 0.74806
 C549 C 0.08104 0.97196 0.73867
 H550 H 0.06753 0.97281 0.73941
 Zn551 Zn 0.12128 1.00249 0.74987
 N552 N 0.10754 0.98465 0.74319
 C553 C 0.13148 0.98042 0.77612
 N554 N 0.13372 0.99588 0.76904
 C555 C 0.14415 1.00716 0.77601
 C556 C 0.15312 1.00290 0.79047
 C557 C 0.14013 0.97566 0.79058
 C558 C 0.12807 1.01115 0.71652
 C559 C 0.13764 1.01517 0.70229
 C560 C 0.16261 1.01115 0.71878
 C561 C 0.15254 1.00717 0.73272
 N562 N 0.13558 1.00751 0.73140
 H563 H 0.12284 0.97176 0.77070
 H564 H 0.14542 1.01952 0.77034
 H565 H 0.16127 1.01207 0.79592
 H566 H 0.13832 0.96321 0.79588
 H567 H 0.11456 1.01113 0.71579
 H568 H 0.13137 1.01847 0.69069
 H569 H 0.17609 1.01084 0.72004
 H570 H 0.15830 1.00383 0.74453
 C571 C 0.08916 0.95725 0.73302
 C572 C 0.09156 1.05057 0.76663
 C573 C 0.15516 1.01533 0.70334
 C574 C 0.15111 0.98697 0.79797
 C575 C 0.59825 0.52109 0.26746
 H576 H 0.59696 0.50900 0.27367
 C577 C 0.58919 0.53502 0.27335
 H578 H 0.58071 0.53347 0.28396
 C579 C 0.61113 0.53782 0.24627
 H580 H 0.62003 0.53900 0.23602
 C581 C 0.60232 0.55205 0.25173
 H582 H 0.60456 0.56402 0.24556
 N583 N 0.60895 0.52272 0.25413
 C584 C 0.61725 0.47249 0.23402
 H585 H 0.63078 0.47231 0.23386
 C586 C 0.60857 0.45884 0.22788
 H587 H 0.61555 0.44807 0.22320
 C588 C 0.59181 0.48679 0.24052
 H589 H 0.58535 0.49781 0.24524
 C590 C 0.58259 0.47334 0.23452
 H591 H 0.56906 0.47416 0.23465
 Zn592 Zn 0.62217 0.50381 0.24788
 N593 N 0.60882 0.48604 0.24030
 C594 C 0.63244 0.48103 0.27353
 N595 N 0.63434 0.49680 0.26707
 C596 C 0.64430 0.50811 0.27463
 C597 C 0.65308 0.50362 0.28914
 C598 C 0.64093 0.47603 0.28802
 C599 C 0.62960 0.51363 0.21495
 C600 C 0.63948 0.51787 0.20100
 C601 C 0.66408 0.51326 0.21791
 C602 C 0.65371 0.50908 0.23155
 N603 N 0.63679 0.50956 0.22989
 H604 H 0.62419 0.47232 0.26760
 H605 H 0.64534 0.52068 0.26941
 H606 H 0.66083 0.51283 0.29508
 H607 H 0.63939 0.46335 0.29284
 H608 H 0.61611 0.51371 0.21394
 H609 H 0.63347 0.52144 0.18934
 H610 H 0.67753 0.51276 0.21942
 H611 H 0.65921 0.50539 0.24340
 C612 C 0.59100 0.45914 0.22806
 C613 C 0.59126 0.55080 0.26553
 C614 C 0.65698 0.51778 0.20239
 C615 C 0.65140 0.48739 0.29604
 C616 C 0.89117 0.48753 0.76445
 H617 H 0.89168 0.49949 0.77074
 C618 C 0.90037 0.47375 0.77061
 H619 H 0.90790 0.47521 0.78171
 C620 C 0.88001 0.47092 0.74285
 H621 H 0.87182 0.46972 0.73225
 C622 C 0.88898 0.45684 0.74858
 H623 H 0.88784 0.44506 0.74203
 N624 N 0.88126 0.48589 0.75079
 C625 C 0.87269 0.53601 0.72940
 H626 H 0.85919 0.53579 0.72866
 C627 C 0.88137 0.54999 0.72346
 H628 H 0.87440 0.56060 0.71832
 C629 C 0.89804 0.52244 0.73730
 H630 H 0.90449 0.51159 0.74253
 C631 C 0.90724 0.53621 0.73151
 H632 H 0.92075 0.53580 0.73230
 Zn633 Zn 0.86783 0.50451 0.74393
 N634 N 0.88106 0.52268 0.73633
 C635 C 0.85551 0.52710 0.76854
 N636 N 0.85461 0.51114 0.76270
 C637 C 0.84499 0.49945 0.77066
 C638 C 0.83559 0.50372 0.78496
 C639 C 0.84629 0.53191 0.78273
 C640 C 0.86222 0.49506 0.71094
 C641 C 0.85319 0.49032 0.69691
 C642 C 0.82773 0.49292 0.71342
 C643 C 0.83727 0.49766 0.72716
 N644 N 0.85422 0.49839 0.72574
 H645 H 0.86358 0.53610 0.76240
 H646 H 0.84471 0.48677 0.76592
 H647 H 0.82791 0.49430 0.79107
 H648 H 0.84740 0.54461 0.78731
 H649 H 0.87571 0.49590 0.71014
 H650 H 0.85987 0.48731 0.68538
 H651 H 0.81425 0.49238 0.71475
 H652 H 0.83111 0.50071 0.73892
 C653 C 0.89888 0.55025 0.72450
 C654 C 0.89922 0.45810 0.76272
 C655 C 0.83571 0.48909 0.69807
 C656 C 0.83616 0.52017 0.79115
 C657 C 0.26406 0.39226 -0.01479
 H658 H 0.27045 0.39261 -0.00289
 C659 C 0.27020 0.40141 -0.02860
 H660 H 0.28139 0.40875 -0.02721
 C661 C 0.24223 0.38150 -0.03125
 H662 H 0.23155 0.37346 -0.03239
 C663 C 0.24793 0.39043 -0.04535
 H664 H 0.24129 0.38943 -0.05708
 N665 N 0.25031 0.38255 -0.01635
 C666 C 0.22960 0.37385 0.03395
 H667 H 0.22875 0.36029 0.03362
 C668 C 0.22388 0.38252 0.04807
 H669 H 0.21882 0.37550 0.05867
 C670 C 0.23749 0.39934 0.02053
 H671 H 0.24262 0.40583 0.00968
 C672 C 0.23194 0.40854 0.03446
 H673 H 0.23282 0.42211 0.03417
 Zn674 Zn 0.24360 0.36902 0.00224
 N675 N 0.23640 0.38228 0.02063
 C676 C 0.26838 0.35628 0.02436
 N677 N 0.26227 0.35550 0.00850
 C678 C 0.26990 0.34585 -0.00342
 C679 C 0.28420 0.33633 0.00048
 C680 C 0.28259 0.34694 0.02881
 C681 C 0.21063 0.36379 -0.00685
 C682 C 0.19651 0.35489 -0.01135
 C683 C 0.21273 0.32911 -0.00909
 C684 C 0.22657 0.33853 -0.00457
 N685 N 0.22533 0.35558 -0.00376
 H686 H 0.26247 0.36437 0.03355
 H687 H 0.26494 0.34567 -0.01602
 H688 H 0.29006 0.32865 -0.00914
 H689 H 0.28742 0.34798 0.04142
 H690 H 0.20997 0.37735 -0.00595
 H691 H 0.18505 0.36173 -0.01414
 H692 H 0.21391 0.31555 -0.00967
 H693 H 0.23825 0.33220 -0.00171
 C694 C 0.22503 0.40011 0.04848
 C695 C 0.26219 0.40043 -0.04419
 C696 C 0.19746 0.33730 -0.01260
 C697 C 0.29072 0.33682 0.01679
 C698 C 0.77208 0.09967 1.01911
 H699 H 0.77842 0.09901 1.00703
 C700 C 0.77831 0.09053 1.03285
 H701 H 0.78933 0.08263 1.03118
 C702 C 0.75013 0.11097 1.03597
 H703 H 0.73941 0.11928 1.03730
 C704 C 0.75590 0.10205 1.05001
 H705 H 0.74950 0.10362 1.06198
 N706 N 0.75818 0.10959 1.02087
 C707 C 0.73765 0.11734 0.97073
 H708 H 0.73637 0.13090 0.97084
 C709 C 0.73245 0.10842 0.95679
 H710 H 0.72703 0.11521 0.94626
 C711 C 0.74585 0.09208 0.98463
 H712 H 0.75096 0.08577 0.99556
 C713 C 0.74076 0.08262 0.97093
 H714 H 0.74224 0.06907 0.97136
 Zn715 Zn 0.75104 0.12276 1.00221
 N716 N 0.74441 0.10914 0.98417
 C717 C 0.77536 0.13541 0.97937
 N718 N 0.76914 0.13642 0.99534
 C719 C 0.77613 0.14665 1.00682
 C720 C 0.78968 0.15671 1.00228
 C721 C 0.78883 0.14527 0.97430
 C722 C 0.71791 0.12775 1.01221
 C723 C 0.70349 0.13658 1.01706
 C724 C 0.71850 0.16252 1.01328
 C725 C 0.73268 0.15317 1.00851
 N726 N 0.73220 0.13608 1.00834
 H727 H 0.77003 0.12685 0.97056
 H728 H 0.77112 0.14700 1.01952
 H729 H 0.79494 0.16496 1.01151
 H730 H 0.79368 0.14415 0.96158
 H731 H 0.71781 0.11417 1.01167
 H732 H 0.69225 0.12969 1.02009
 H733 H 0.71922 0.17609 1.01374
 H734 H 0.74404 0.15958 1.00504
 C735 C 0.73407 0.09082 0.95671
 C736 C 0.77022 0.09170 1.04859
 C737 C 0.70370 0.15420 1.01780
 C738 C 0.79614 0.15615 0.98579
 C739 C 0.27137 0.60065 0.51940
 H740 H 0.27756 0.60000 0.50724
 C741 C 0.27764 0.59133 0.53299
 H742 H 0.28854 0.58329 0.53112
 C743 C 0.24978 0.61214 0.53661
 H744 H 0.23920 0.62059 0.53812
 C745 C 0.25561 0.60304 0.55052
 H746 H 0.24939 0.60461 0.56258
 N747 N 0.25764 0.61076 0.52141
 C748 C 0.23684 0.61922 0.47148
 H749 H 0.23578 0.63279 0.47168
 C750 C 0.23150 0.61048 0.45748
 H751 H 0.22616 0.61743 0.44700
 C752 C 0.24473 0.59375 0.48518
 H753 H 0.24979 0.58729 0.49605
 C754 C 0.23949 0.58447 0.47141
 H755 H 0.24081 0.57091 0.47174
 Zn756 Zn 0.25060 0.62420 0.50290
 N757 N 0.24354 0.61083 0.48485
 C758 C 0.27501 0.63648 0.47993
 N759 N 0.26896 0.63747 0.49596
 C760 C 0.27629 0.64742 0.50747
 C761 C 0.29003 0.65721 0.50290
 C762 C 0.28866 0.64607 0.47482
 C763 C 0.21763 0.63006 0.51326
 C764 C 0.20343 0.63935 0.51795
 C765 C 0.21916 0.66481 0.51386
 C766 C 0.23308 0.65502 0.50922
 N767 N 0.23213 0.63796 0.50923
 H768 H 0.26940 0.62813 0.47108
 H769 H 0.27140 0.64777 0.52021
 H770 H 0.29556 0.66525 0.51216
 H771 H 0.29337 0.64496 0.46205
 H772 H 0.21719 0.61649 0.51296
 H773 H 0.19213 0.63278 0.52148
 H774 H 0.22011 0.67838 0.51372
 H775 H 0.24457 0.66109 0.50555
 C776 C 0.23290 0.59287 0.45726
 C777 C 0.26978 0.59251 0.54885
 C778 C 0.20410 0.65697 0.51836
 C779 C 0.29632 0.65667 0.48634
 C780 C 0.76567 0.89103 0.48718
 H781 H 0.77188 0.89106 0.49919
 C782 C 0.77198 0.90060 0.47374
 H783 H 0.78292 0.90819 0.47560
 C784 C 0.74403 0.88084 0.47011
 H785 H 0.73342 0.87278 0.46857
 C786 C 0.74990 0.89020 0.45636
 H787 H 0.74368 0.88921 0.44440
 N788 N 0.75192 0.88143 0.48516
 C789 C 0.73110 0.87146 0.53521
 H790 H 0.72997 0.85795 0.53442
 C791 C 0.72586 0.87973 0.54975
 H792 H 0.72053 0.87250 0.56006
 C793 C 0.73912 0.89724 0.52246
 H794 H 0.74422 0.90400 0.51176
 C795 C 0.73399 0.90605 0.53679
 H796 H 0.73543 0.91956 0.53706
 Zn797 Zn 0.74495 0.86743 0.50329
 N798 N 0.73783 0.88021 0.52206
 C799 C 0.76953 0.85392 0.52516
 N800 N 0.76346 0.85356 0.50926
 C801 C 0.77104 0.84411 0.49715
 C802 C 0.78523 0.83435 0.50089
 C803 C 0.78361 0.84432 0.52946
 C804 C 0.71201 0.86282 0.49371
 C805 C 0.69783 0.85417 0.48888
 C806 C 0.71373 0.82817 0.49087
 C807 C 0.72762 0.83733 0.49571
 N808 N 0.72657 0.85437 0.49681
 H809 H 0.76370 0.86188 0.53450
 H810 H 0.76613 0.84427 0.48452
 H811 H 0.79107 0.82684 0.49113
 H812 H 0.78840 0.84503 0.54211
 H813 H 0.71149 0.87636 0.49485
 H814 H 0.68648 0.86120 0.48609
 H815 H 0.71475 0.81461 0.49009
 H816 H 0.73920 0.83081 0.49860
 C817 C 0.72742 0.89725 0.55075
 C818 C 0.76413 0.90017 0.45803
 C819 C 0.69859 0.83661 0.48733
 C820 C 0.79168 0.83439 0.51725
 C821 C -0.01390 0.26578 0.39286
 H822 H -0.00200 0.27208 0.39305
 C823 C -0.02758 0.27236 0.40186
 H824 H -0.02610 0.28378 0.40894
 C825 C -0.03047 0.24376 0.38264
 H826 H -0.03171 0.23282 0.37487
 C827 C -0.04443 0.24988 0.39143
 H828 H -0.05615 0.24330 0.39060
 N829 N -0.01557 0.25171 0.38350
 C830 C 0.03424 0.22990 0.37548
 H831 H 0.03377 0.22830 0.36199
 C832 C 0.04845 0.22476 0.38426
 H833 H 0.05881 0.21901 0.37745
 C834 C 0.02109 0.23909 0.40067
 H835 H 0.01037 0.24464 0.40701
 C836 C 0.03507 0.23408 0.40999
 H837 H 0.03506 0.23604 0.42345
 Zn838 Zn 0.00284 0.24421 0.37019
 N839 N 0.02106 0.23718 0.38369
 C840 C 0.02528 0.26815 0.35666
 N841 N 0.00937 0.26238 0.35608
 C842 C -0.00233 0.27004 0.34620
 C843 C 0.00188 0.28399 0.33623
 C844 C 0.03003 0.28196 0.34685
 C845 C -0.00679 0.21110 0.36608
 C846 C -0.01208 0.19686 0.35771
 C847 C -0.00976 0.21223 0.33140
 C848 C -0.00451 0.22622 0.34031
 N849 N -0.00344 0.22549 0.35737
 H850 H 0.03429 0.26228 0.36493
 H851 H -0.01497 0.26539 0.34619
 H852 H -0.00755 0.28990 0.32839
 H853 H 0.04269 0.28651 0.34773
 H854 H -0.00556 0.21081 0.37962
 H855 H -0.01477 0.18556 0.36491
 H856 H -0.01100 0.21316 0.31788
 H857 H -0.00150 0.23768 0.33358
 C858 C 0.04907 0.22698 0.40174
 C859 C -0.04315 0.26446 0.40108
 C860 C -0.01385 0.19737 0.34016
 C861 C 0.01828 0.29009 0.33648
 C862 C 1.02377 0.76827 0.10006
 H863 H 1.01192 0.77488 0.09883
 C864 C 1.03787 0.77400 0.09127
 H865 H 1.03675 0.78509 0.08331
 C866 C 1.03979 0.74635 0.11272
 H867 H 1.04062 0.73582 0.12136
 C868 C 1.05416 0.75164 0.10418
 H869 H 1.06581 0.74482 0.10609
 N870 N 1.02497 0.75468 0.11055
 C871 C 0.97474 0.73530 0.11841
 H872 H 0.97469 0.73479 0.13202
 C873 C 0.96101 0.72957 0.10963
 H874 H 0.95032 0.72484 0.11661
 C875 C 0.98876 0.74233 0.09290
 H876 H 0.99970 0.74713 0.08646
 C877 C 0.97521 0.73676 0.08358
 H878 H 0.97586 0.73729 0.06997
 Zn879 Zn 1.00599 0.74862 0.12362
 N880 N 0.98820 0.74163 0.11001
 C881 C 0.98367 0.77447 0.13407
 N882 N 0.99925 0.76772 0.13611
 C883 C 1.01051 0.77496 0.14638
 C884 C 1.00613 0.78940 0.15536
 C885 C 0.97880 0.78890 0.14273
 C886 C 1.01496 0.71538 0.13051
 C887 C 1.01900 0.70118 0.14016
 C888 C 1.01518 0.71773 0.16524
 C889 C 1.01117 0.73165 0.15508
 N890 N 1.01137 0.73028 0.13804
 H891 H 0.97501 0.76881 0.12557
 H892 H 1.02294 0.76953 0.14751
 H893 H 1.01528 0.79508 0.16337
 H894 H 0.96626 0.79395 0.14107
 H895 H 1.01483 0.71461 0.11693
 H896 H 1.02220 0.68954 0.13388
 H897 H 1.01494 0.71901 0.17878
 H898 H 1.00787 0.74348 0.16085
 C899 C 0.96112 0.73024 0.09198
 C900 C 1.05337 0.76576 0.09343
 C901 C 1.01922 0.70225 0.15777
 C902 C 0.99009 0.79658 0.15353
 C903 C 0.51985 0.27029 0.60024
 H904 H 0.50791 0.27682 0.59952
 C905 C 0.53367 0.27645 0.59127
 H906 H 0.53226 0.28777 0.58370
 C907 C 0.53640 0.24816 0.61176
 H908 H 0.53758 0.23737 0.62005
 C909 C 0.55049 0.25386 0.60304
 H910 H 0.56225 0.24708 0.60443
 N911 N 0.52145 0.25639 0.61025
 C912 C 0.47184 0.23569 0.61909
 H913 H 0.47229 0.23466 0.63267
 C914 C 0.45797 0.22991 0.61058
 H915 H 0.44766 0.22463 0.61773
 C916 C 0.48478 0.24404 0.59341
 H917 H 0.49537 0.24936 0.58678
 C918 C 0.47107 0.23843 0.58435
 H919 H 0.47125 0.23946 0.57075
 Zn920 Zn 0.50298 0.24952 0.62371
 N921 N 0.48483 0.24269 0.61048
 C922 C 0.48046 0.27415 0.63654
 N923 N 0.49638 0.26792 0.63726
 C924 C 0.50802 0.27512 0.64710
 C925 C 0.50372 0.28895 0.65702
 C926 C 0.47563 0.28791 0.64626
 C927 C 0.51268 0.21620 0.62892
 C928 C 0.51778 0.20183 0.63778
 C929 C 0.51518 0.21741 0.66360
 C930 C 0.51011 0.23152 0.65422
 N931 N 0.50926 0.23074 0.63717
 H932 H 0.47150 0.26860 0.62829
 H933 H 0.52066 0.27008 0.64724
 H934 H 0.51309 0.29438 0.66495
 H935 H 0.46295 0.29278 0.64535
 H936 H 0.51161 0.21586 0.61537
 H937 H 0.52048 0.19039 0.63094
 H938 H 0.51622 0.21837 0.67712
 H939 H 0.50701 0.24309 0.66059
 C940 C 0.45745 0.23120 0.59296
 C941 C 0.54931 0.26830 0.59278
 C942 C 0.51928 0.20236 0.65534
 C943 C 0.48730 0.29547 0.65672
 C944 C 0.48796 0.76497 0.89606
 H945 H 0.49992 0.77113 0.89643
 C946 C 0.47430 0.77154 0.90511
 H947 H 0.47587 0.78281 0.91239
 C948 C 0.47118 0.74338 0.88529
 H949 H 0.46985 0.73264 0.87727
 C950 C 0.45724 0.74949 0.89412
 H951 H 0.44544 0.74310 0.89307
 N952 N 0.48617 0.75115 0.88638
 C953 C 0.53578 0.72920 0.87749
 H954 H 0.53533 0.72823 0.86394
 C955 C 0.54985 0.72339 0.88610
 H956 H 0.56029 0.71812 0.87903
 C957 C 0.52275 0.73762 0.90303
 H958 H 0.51208 0.74304 0.90956
 C959 C 0.53663 0.73198 0.91216
 H960 H 0.53648 0.73306 0.92573
 Zn961 Zn 0.50448 0.74395 0.87278
 N962 N 0.52268 0.73633 0.88598
 C963 C 0.52685 0.76853 0.86048
 N964 N 0.51105 0.76259 0.85934
 C965 C 0.49941 0.77054 0.84964
 C966 C 0.50351 0.78509 0.84053
 C967 C 0.53148 0.78300 0.85163
 C968 C 0.49463 0.71110 0.86767
 C969 C 0.48916 0.69717 0.85892
 C970 C 0.49134 0.71331 0.83307
 C971 C 0.49679 0.72698 0.84234
 N972 N 0.49800 0.72572 0.85937
 H973 H 0.53585 0.76230 0.86852
 H974 H 0.48682 0.76575 0.84923
 H975 H 0.49400 0.79145 0.83314
 H976 H 0.54414 0.78749 0.85269
 H977 H 0.49598 0.71038 0.88119
 H978 H 0.48646 0.68568 0.86581
 H979 H 0.48997 0.71466 0.81958
 H980 H 0.49982 0.73861 0.83594
 C981 C 0.55045 0.72480 0.90367
 C982 C 0.45863 0.76389 0.90404
 C983 C 0.48721 0.69823 0.84141
 C984 C 0.51970 0.79158 0.84162
 C985 C 0.46147 -0.16874 0.31047
 C986 C 0.46063 -0.15338 0.31880
 C987 C 0.46578 -0.15249 0.33547
 C988 C 0.47155 -0.16689 0.34391
 C989 C 0.47229 -0.18268 0.33586
 C990 C 0.46728 -0.18322 0.31884
 C991 C 0.45411 -0.13855 0.31047
 C992 C 0.44844 -0.12601 0.30389
 C993 C 0.44154 -0.11124 0.29660
 C994 C 0.43540 -0.09861 0.29066
 C995 C 0.42775 -0.08354 0.28387
 C996 C 0.42083 -0.07152 0.29473
 C997 C 0.41275 -0.05721 0.28822
 C998 C 0.41147 -0.05472 0.27072
 C999 C 0.41868 -0.06677 0.25990
 C1000 C 0.42676 -0.08108 0.26645
 H1001 H 0.45739 -0.16960 0.29757
 H1002 H 0.46533 -0.14060 0.34200
 H1003 H 0.47592 -0.16533 0.35660
 H1004 H 0.46701 -0.19490 0.31204
 H1005 H 0.42145 -0.07334 0.30824
 H1006 H 0.40712 -0.04832 0.29689
 H1007 H 0.41808 -0.06512 0.24638
 H1008 H 0.43210 -0.09029 0.25792
 C1009 C 0.96895 0.34747 0.83294
 C1010 C 0.95991 0.34589 0.81810
 C1011 C 0.95711 0.32992 0.81158
 C1012 C 0.96313 0.31556 0.82000
 C1013 C 0.97198 0.31701 0.83510
 C1014 C 0.97496 0.33315 0.84138
 C1015 C 0.95300 0.36064 0.80995
 C1016 C 0.94696 0.37303 0.80341
 C1017 C 0.93959 0.38753 0.79604
 C1018 C 0.93301 0.39986 0.78993
 C1019 C 0.92477 0.41445 0.78279
 C1020 C 0.90854 0.41315 0.77661
 C1021 C 0.90029 0.42731 0.77001
 C1022 C 0.90817 0.44302 0.76951
 C1023 C 0.92452 0.44421 0.77572
 C1024 C 0.93276 0.43000 0.78232
 H1025 H 0.97121 0.35977 0.83809
 H1026 H 0.95005 0.32855 0.80014
 H1027 H 0.96048 0.30331 0.81495
 H1028 H 0.98194 0.33470 0.85284
 H1029 H 0.90220 0.40120 0.77700
 H1030 H 0.88762 0.42602 0.76560
 H1031 H 0.93098 0.45608 0.77535
 H1032 H 0.94533 0.43115 0.78708
 C1033 C 0.02768 1.16367 0.83609
 C1034 C 0.03437 1.16502 0.81980
 C1035 C 0.03447 1.18067 0.81155
 C1036 C 0.02790 1.19492 0.81958
 C1037 C 0.02113 1.19367 0.83596
 C1038 C 0.02111 1.17786 0.84412
 C1039 C 0.04131 1.15033 0.81175
 C1040 C 0.04719 1.13789 0.80534
 C1041 C 0.05419 1.12320 0.79816
 C1042 C 0.06034 1.11063 0.79226
 C1043 C 0.06794 1.09563 0.78543
 C1044 C 0.08440 1.09599 0.77928
 C1045 C 0.09201 1.08138 0.77306
 C1046 C 0.08326 1.06615 0.77291
 C1047 C 0.06668 1.06592 0.77906
 C1048 C 0.05908 1.08058 0.78527
 H1049 H 0.02762 1.15164 0.84263
 H1050 H 0.03962 1.18186 0.79894
 H1051 H 0.02796 1.20687 0.81292
 H1052 H 0.01627 1.17652 0.85684
 H1053 H 0.09141 1.10754 0.77944
 H1054 H 0.10487 1.08193 0.76869
 H1055 H 0.05956 1.05445 0.77895
 H1056 H 0.04633 1.08015 0.79001
 C1057 C 0.53470 0.68130 0.31019
 C1058 C 0.53486 0.66567 0.31848
 C1059 C 0.52848 0.66431 0.33489
 C1060 C 0.52195 0.67847 0.34300
 C1061 C 0.52169 0.69425 0.33480
 C1062 C 0.52817 0.69552 0.31830
 C1063 C 0.54170 0.65098 0.31035
 C1064 C 0.54743 0.63846 0.30396
 C1065 C 0.55421 0.62362 0.29689
 C1066 C 0.56012 0.61085 0.29118
 C1067 C 0.56737 0.59554 0.28468
 C1068 C 0.57345 0.58318 0.29578
 C1069 C 0.58098 0.56851 0.28956
 C1070 C 0.58253 0.56601 0.27212
 C1071 C 0.57619 0.57843 0.26105
 C1072 C 0.56866 0.59310 0.26730
 H1073 H 0.53962 0.68249 0.29748
 H1074 H 0.52863 0.65230 0.34147
 H1075 H 0.51734 0.67712 0.35580
 H1076 H 0.52801 0.70746 0.31161
 H1077 H 0.57257 0.58497 0.30926
 H1078 H 0.58595 0.55933 0.29841
 H1079 H 0.57703 0.57679 0.24756
 H1080 H 0.56396 0.60257 0.25859
 C1081 C 0.54294 0.33948 0.16444
 C1082 C 0.53340 0.34635 0.17758
 C1083 C 0.51848 0.33868 0.18268
 C1084 C 0.51306 0.32428 0.17451
 C1085 C 0.52248 0.31744 0.16110
 C1086 C 0.53755 0.32514 0.15626
 C1087 C 0.53894 0.36141 0.18555
 C1088 C 0.54408 0.37408 0.19173
 C1089 C 0.55069 0.38890 0.19843
 C1090 C 0.55685 0.40149 0.20374
 C1091 C 0.56488 0.41637 0.20961
 C1092 C 0.55899 0.42460 0.22403
 C1093 C 0.56729 0.43870 0.22992
 C1094 C 0.58163 0.44469 0.22147
 C1095 C 0.58726 0.43647 0.20684
 C1096 C 0.57894 0.42242 0.20098
 H1097 H 0.55454 0.34527 0.16043
 H1098 H 0.51099 0.34391 0.19283
 H1099 H 0.50134 0.31872 0.17842
 H1100 H 0.54522 0.32002 0.14618
 H1101 H 0.54812 0.42000 0.23083
 H1102 H 0.56276 0.44467 0.24130
 H1103 H 0.59809 0.44093 0.19990
 H1104 H 0.58357 0.41619 0.18976
 C1105 C 0.02056 0.84759 0.66695
 C1106 C 0.02942 0.84590 0.68196
 C1107 C 0.03288 0.82987 0.68861
 C1108 C 0.02772 0.81555 0.68014
 C1109 C 0.01910 0.81712 0.66486
 C1110 C 0.01542 0.83332 0.65846
 C1111 C 0.03562 0.86062 0.69007
 C1112 C 0.04114 0.87297 0.69651
 C1113 C 0.04803 0.88743 0.70369
 C1114 C 0.05431 0.89970 0.70956
 C1115 C 0.06235 0.91420 0.71627
 C1116 C 0.07653 0.91208 0.72627
 C1117 C 0.08504 0.92608 0.73197
 C1118 C 0.07951 0.94245 0.72773
 C1119 C 0.06503 0.94448 0.71797
 C1120 C 0.05653 0.93043 0.71224
 H1121 H 0.01782 0.85994 0.66169
 H1122 H 0.03981 0.82841 0.70018
 H1123 H 0.03089 0.80327 0.68529
 H1124 H 0.00859 0.83494 0.64686
 H1125 H 0.08114 0.89958 0.72947
 H1126 H 0.09599 0.92411 0.73967
 H1127 H 0.06056 0.95691 0.71436
 H1128 H 0.04562 0.93221 0.70444
 C1129 C 0.96928 0.66298 0.66149
 C1130 C 0.96160 0.66378 0.67736
 C1131 C 0.96073 0.67910 0.68584
 C1132 C 0.96745 0.69359 0.67842
 C1133 C 0.97513 0.69291 0.66241
 C1134 C 0.97600 0.67741 0.65406
 C1135 C 0.95422 0.64893 0.68463
 C1136 C 0.94791 0.63639 0.69033
 C1137 C 0.94031 0.62164 0.69657
 C1138 C 0.93359 0.60903 0.70157
 C1139 C 0.92523 0.59404 0.70720
 C1140 C 0.93027 0.58563 0.72190
 C1141 C 0.92186 0.57124 0.72744
 C1142 C 0.90827 0.56513 0.71835
 C1143 C 0.90345 0.57358 0.70349
 C1144 C 0.91187 0.58793 0.69797
 H1145 H 0.96993 0.65121 0.65476
 H1146 H 0.95479 0.67986 0.69813
 H1147 H 0.96673 0.70529 0.68523
 H1148 H 0.98156 0.67651 0.64161
 H1149 H 0.94058 0.59027 0.72915
 H1150 H 0.92575 0.56513 0.73902
 H1151 H 0.89321 0.56905 0.69607
 H1152 H 0.90792 0.59429 0.68654
 C1153 C 0.46684 0.16510 0.16054
 C1154 C 0.45935 0.16617 0.17649
 C1155 C 0.45875 0.18160 0.18479
 C1156 C 0.46561 0.19592 0.17714
 C1157 C 0.47317 0.19494 0.16109
 C1158 C 0.47369 0.17935 0.15289
 C1159 C 0.45203 0.15144 0.18405
 C1160 C 0.44585 0.13891 0.18993
 C1161 C 0.43849 0.12410 0.19633
 C1162 C 0.43203 0.11140 0.20145
 C1163 C 0.42406 0.09623 0.20719
 C1164 C 0.42956 0.08784 0.22173
 C1165 C 0.42159 0.07324 0.22734
 C1166 C 0.40796 0.06687 0.21848
 C1167 C 0.40266 0.07530 0.20378
 C1168 C 0.41065 0.08987 0.19820
 H1169 H 0.46727 0.15325 0.15395
 H1170 H 0.45296 0.18258 0.19714
 H1171 H 0.46514 0.20770 0.18382
 H1172 H 0.47914 0.17823 0.14041
 H1173 H 0.43993 0.09266 0.22879
 H1174 H 0.42584 0.06713 0.23880
 H1175 H 0.39238 0.07058 0.19655
 H1176 H 0.40634 0.09621 0.18688
 C1177 C 0.31268 0.45650 -0.17247
 C1178 C 0.31846 0.46001 -0.15635
 C1179 C 0.33274 0.46975 -0.15450
 C1180 C 0.34135 0.47575 -0.16869
 C1181 C 0.33580 0.47208 -0.18496
 C1182 C 0.32127 0.46251 -0.18670
 C1183 C 0.31013 0.45317 -0.14170
 C1184 C 0.30345 0.44724 -0.12936
 C1185 C 0.29593 0.44001 -0.11490
 C1186 C 0.28969 0.43357 -0.10258
 C1187 C 0.28244 0.42552 -0.08797
 C1188 C 0.28220 0.43360 -0.07241
 C1189 C 0.27553 0.42552 -0.05816
 C1190 C 0.26900 0.40924 -0.05931
 C1191 C 0.26926 0.40128 -0.07504
 C1192 C 0.27592 0.40937 -0.08924
 H1193 H 0.30167 0.44891 -0.17405
 H1194 H 0.33732 0.47256 -0.14209
 H1195 H 0.35235 0.48329 -0.16693
 H1196 H 0.31679 0.45932 -0.19904
 H1197 H 0.28722 0.44611 -0.07128
 H1198 H 0.27536 0.43205 -0.04628
 H1199 H 0.26459 0.38865 -0.07630
 H1200 H 0.27614 0.40296 -0.10119
 C1201 C 0.81225 0.95546 0.32850
 C1202 C 0.81846 0.95885 0.34449
 C1203 C 0.83296 0.96831 0.34603
 C1204 C 0.84136 0.97418 0.33166
 C1205 C 0.83539 0.97064 0.31552
 C1206 C 0.82064 0.96135 0.31410
 C1207 C 0.81034 0.95217 0.35934
 C1208 C 0.80392 0.94642 0.37190
 C1209 C 0.79676 0.93947 0.38669
 C1210 C 0.79090 0.93332 0.39934
 C1211 C 0.78417 0.92568 0.41442
 C1212 C 0.79494 0.91801 0.42606
 C1213 C 0.78845 0.90998 0.44039
 C1214 C 0.77106 0.90948 0.44327
 C1215 C 0.76034 0.91744 0.43161
 C1216 C 0.76687 0.92547 0.41728
 H1217 H 0.80107 0.94808 0.32717
 H1218 H 0.83786 0.97103 0.35833
 H1219 H 0.85254 0.98152 0.33319
 H1220 H 0.81583 0.95828 0.30185
 H1221 H 0.80835 0.91804 0.42393
 H1222 H 0.79702 0.90378 0.44898
 H1223 H 0.74692 0.91745 0.43357
 H1224 H 0.75842 0.93139 0.40837
 C1225 C 0.81504 0.03628 1.17898
 C1226 C 0.82175 0.03292 1.16304
 C1227 C 0.83610 0.02283 1.16153
 C1228 C 0.84381 0.01617 1.17586
 C1229 C 0.83735 0.01946 1.19218
 C1230 C 0.82272 0.02966 1.19339
 C1231 C 0.81419 0.04007 1.14819
 C1232 C 0.80819 0.04607 1.13560
 C1233 C 0.80148 0.05317 1.12073
 C1234 C 0.79594 0.05935 1.10800
 C1235 C 0.78950 0.06691 1.09281
 C1236 C 0.80048 0.07399 1.08095
 C1237 C 0.79424 0.08181 1.06643
 C1238 C 0.77690 0.08268 1.06360
 C1239 C 0.76599 0.07533 1.07551
 C1240 C 0.77226 0.06751 1.09001
 H1241 H 0.80385 0.04401 1.18029
 H1242 H 0.84151 0.02030 1.14924
 H1243 H 0.85531 0.00911 1.17392
 H1244 H 0.81672 0.03220 1.20536
 H1245 H 0.81385 0.07364 1.08301
 H1246 H 0.80296 0.08754 1.05763
 H1247 H 0.75260 0.07561 1.07360
 H1248 H 0.76365 0.06203 1.09909
 C1249 C 0.33919 0.52716 0.66146
 C1250 C 0.32276 0.53337 0.66240
 C1251 C 0.31409 0.53305 0.67780
 C1252 C 0.32186 0.52659 0.69223
 C1253 C 0.33841 0.52036 0.69141
 C1254 C 0.34698 0.52070 0.67584
 C1255 C 0.31498 0.54032 0.64757
 C1256 C 0.30878 0.54625 0.63504
 C1257 C 0.30183 0.55334 0.62029
 C1258 C 0.29611 0.55957 0.60767
 C1259 C 0.28949 0.56725 0.59262
 C1260 C 0.27220 0.56808 0.59012
 C1261 C 0.26578 0.57607 0.57577
 C1262 C 0.27659 0.58334 0.56371
 C1263 C 0.29397 0.58223 0.56624
 C1264 C 0.30036 0.57425 0.58060
 H1265 H 0.34606 0.52743 0.64962
 H1266 H 0.30135 0.53783 0.67867
 H1267 H 0.31489 0.52635 0.70399
 H1268 H 0.35981 0.51627 0.67483
 H1269 H 0.26368 0.56267 0.59932
 H1270 H 0.25236 0.57653 0.57408
 H1271 H 0.30261 0.58791 0.55733
 H1272 H 0.31376 0.57374 0.58244
 C1273 C 0.16811 0.52266 0.34761
 C1274 C 0.18265 0.53210 0.34576
 C1275 C 0.18904 0.53563 0.32965
 C1276 C 0.18079 0.52993 0.31542
 C1277 C 0.16599 0.52068 0.31716
 C1278 C 0.15983 0.51697 0.33342
 C1279 C 0.19056 0.53874 0.36038
 C1280 C 0.19684 0.54456 0.37269
 C1281 C 0.20384 0.55173 0.38712
 C1282 C 0.20955 0.55819 0.39939
 C1283 C 0.21610 0.56635 0.41392
 C1284 C 0.22512 0.58119 0.41191
 C1285 C 0.23078 0.58967 0.42600
 C1286 C 0.22747 0.58343 0.44232
 C1287 C 0.21863 0.56834 0.44421
 C1288 C 0.21295 0.55988 0.43009
 H1289 H 0.16305 0.51985 0.36002
 H1290 H 0.20025 0.54301 0.32807
 H1291 H 0.18574 0.53314 0.30308
 H1292 H 0.14861 0.50967 0.33518
 H1293 H 0.22763 0.58631 0.39946
 H1294 H 0.23777 0.60111 0.42412
 H1295 H 0.21574 0.56331 0.45661
 H1296 H 0.20591 0.54844 0.43179
 C1297 C 0.69024 0.02915 0.83071
 C1298 C 0.68184 0.03033 0.84616
 C1299 C 0.66506 0.02584 0.84741
 C1300 C 0.65659 0.02041 0.83324
 C1301 C 0.66473 0.01936 0.81736
 C1302 C 0.68185 0.02369 0.81647
 C1303 C 0.69018 0.03671 0.86066
 C1304 C 0.69680 0.04237 0.87286
 C1305 C 0.70418 0.04941 0.88715
 C1306 C 0.71018 0.05580 0.89931
 C1307 C 0.71701 0.06395 0.91372
 C1308 C 0.71404 0.05756 0.92995
 C1309 C 0.71986 0.06610 0.94396
 C1310 C 0.72866 0.08120 0.94189
 C1311 C 0.73184 0.08732 0.92550
 C1312 C 0.72604 0.07876 0.91153
 H1313 H 0.70323 0.03275 0.82957
 H1314 H 0.65845 0.02658 0.85936
 H1315 H 0.64378 0.01657 0.83507
 H1316 H 0.68874 0.02372 0.80469
 H1317 H 0.70699 0.04614 0.93179
 H1318 H 0.71707 0.06117 0.95642
 H1319 H 0.73879 0.09877 0.92348
 H1320 H 0.72842 0.08381 0.89902
 C1321 C 0.67396 0.94614 0.67878
 C1322 C 0.68168 0.95669 0.66691
 C1323 C 0.68206 0.97403 0.66963
 C1324 C 0.67451 0.98083 0.68402
 C1325 C 0.66645 0.97036 0.69589
 C1326 C 0.66640 0.95291 0.69319
 C1327 C 0.68870 0.94976 0.65170
 C1328 C 0.69428 0.94383 0.63889
 C1329 C 0.70054 0.93668 0.62387
 C1330 C 0.70569 0.93034 0.61109
 C1331 C 0.71165 0.92243 0.59592
 C1332 C 0.70834 0.92976 0.58018
 C1333 C 0.71363 0.92170 0.56546
 C1334 C 0.72225 0.90617 0.56631
 C1335 C 0.72569 0.89903 0.58221
 C1336 C 0.72041 0.90711 0.59689
 H1337 H 0.67353 0.93271 0.67677
 H1338 H 0.68803 0.98231 0.66053
 H1339 H 0.67493 0.99428 0.68585
 H1340 H 0.66010 0.94454 0.70195
 H1341 H 0.70150 0.94159 0.57929
 H1342 H 0.71065 0.92742 0.55341
 H1343 H 0.73252 0.88723 0.58330
 H1344 H 0.72306 0.90134 0.60901
 C1345 C 0.18050 0.47773 0.16747
 C1346 C 0.18081 0.46038 0.16476
 C1347 C 0.17401 0.44949 0.17690
 C1348 C 0.16671 0.45591 0.19158
 C1349 C 0.16607 0.47335 0.19431
 C1350 C 0.17319 0.48419 0.18215
 C1351 C 0.18751 0.45373 0.14928
 C1352 C 0.19278 0.44791 0.13629
 C1353 C 0.19859 0.44077 0.12109
 C1354 C 0.20326 0.43435 0.10817
 C1355 C 0.20851 0.42624 0.09285
 C1356 C 0.19911 0.41305 0.08658
 C1357 C 0.20436 0.40473 0.07203
 C1358 C 0.21912 0.40948 0.06352
 C1359 C 0.22836 0.42292 0.06977
 C1360 C 0.22309 0.43123 0.08437
 H1361 H 0.18573 0.48628 0.15816
 H1362 H 0.17411 0.43604 0.17489
 H1363 H 0.16112 0.44725 0.20055
 H1364 H 0.17307 0.49766 0.18398
 H1365 H 0.18778 0.40912 0.09302
 H1366 H 0.19683 0.39461 0.06740
 H1367 H 0.23987 0.42675 0.06360
 H1368 H 0.23049 0.44140 0.08914
 C1369 C -0.15467 0.33532 0.46873
 C1370 C -0.15579 0.32038 0.45973
 C1371 C -0.17148 0.31351 0.45674
 C1372 C -0.18603 0.32164 0.46258
 C1373 C -0.18504 0.33680 0.47142
 C1374 C -0.16918 0.34347 0.47455
 C1375 C -0.14084 0.31244 0.45311
 C1376 C -0.12831 0.30603 0.44734
 C1377 C -0.11368 0.29873 0.44027
 C1378 C -0.10128 0.29262 0.43392
 C1379 C -0.08666 0.28540 0.42590
 C1380 C -0.07118 0.28534 0.43395
 C1381 C -0.05699 0.27852 0.42593
 C1382 C -0.05814 0.27165 0.40975
 C1383 C -0.07378 0.27180 0.40180
 C1384 C -0.08792 0.27861 0.40982
 H1385 H -0.14259 0.34075 0.47113
 H1386 H -0.17250 0.30199 0.44972
 H1387 H -0.19805 0.31628 0.45981
 H1388 H -0.16799 0.35499 0.48154
 H1389 H -0.07006 0.29057 0.44640
 H1390 H -0.04516 0.27846 0.43244
 H1391 H -0.07505 0.26689 0.38924
 H1392 H -0.09981 0.27868 0.40343
 C1393 C 0.33811 0.81693 0.97495
 C1394 C 0.34601 0.82229 0.96006
 C1395 C 0.33925 0.83581 0.95086
 C1396 C 0.32473 0.84402 0.95655
 C1397 C 0.31674 0.83882 0.97156
 C1398 C 0.32355 0.82512 0.98067
 C1399 C 0.36105 0.81400 0.95413
 C1400 C 0.37362 0.80727 0.94883
 C1401 C 0.38825 0.79958 0.94219
 C1402 C 0.40062 0.79313 0.93613
 C1403 C 0.41518 0.78552 0.92836
 C1404 C 0.41402 0.77883 0.91223
 C1405 C 0.42812 0.77174 0.90440
 C1406 C 0.44363 0.77122 0.91259
 C1407 C 0.44469 0.77795 0.92884
 C1408 C 0.43053 0.78505 0.93667
 H1409 H 0.34325 0.80648 0.98218
 H1410 H 0.34521 0.84001 0.93928
 H1411 H 0.31966 0.85435 0.94912
 H1412 H 0.31780 0.82094 0.99236
 H1413 H 0.40223 0.77922 0.90565
 H1414 H 0.42694 0.76695 0.89178
 H1415 H 0.45641 0.77760 0.93553
 H1416 H 0.43157 0.79020 0.94916
 C1417 C 1.17885 0.82575 0.04730
 C1418 C 1.16750 0.81833 0.03646
 C1419 C 1.17042 0.81886 0.01907
 C1420 C 1.18449 0.82700 0.01252
 C1421 C 1.19583 0.83475 0.02329
 C1422 C 1.19293 0.83389 0.04077
 C1423 C 1.15261 0.81065 0.04317
 C1424 C 1.14007 0.80447 0.04891
 C1425 C 1.12535 0.79747 0.05583
 C1426 C 1.11282 0.79165 0.06197
 C1427 C 1.09793 0.78485 0.06963
 C1428 C 1.08292 0.78466 0.06075
 C1429 C 1.06841 0.77838 0.06842
 C1430 C 1.06877 0.77218 0.08507
 C1431 C 1.08395 0.77240 0.09385
 C1432 C 1.09841 0.77868 0.08617
 H1433 H 1.17667 0.82547 0.06077
 H1434 H 1.16174 0.81313 0.01057
 H1435 H 1.18649 0.82727 -0.00098
 H1436 H 1.20128 0.83992 0.04938
 H1437 H 1.08241 0.78941 0.04794
 H1438 H 1.05696 0.77823 0.06129
 H1439 H 1.08459 0.76800 0.10677
 H1440 H 1.10994 0.77886 0.09320
 C1441 C 0.66636 0.32016 0.51721
 C1442 C 0.66349 0.31958 0.53460
 C1443 C 0.67521 0.32636 0.54546
 C1444 C 0.68962 0.33392 0.53896
 C1445 C 0.69249 0.33483 0.52147
 C1446 C 0.68076 0.32772 0.51067
 C1447 C 0.64833 0.31245 0.54132
 C1448 C 0.63560 0.30669 0.54711
 C1449 C 0.62074 0.30011 0.55415
 C1450 C 0.60815 0.29456 0.56044
 C1451 C 0.59332 0.28794 0.56838
 C1452 C 0.59416 0.28143 0.58478
 C1453 C 0.57986 0.27507 0.59267
 C1454 C 0.56446 0.27509 0.58426
 C1455 C 0.56371 0.28171 0.56778
 C1456 C 0.57807 0.28808 0.55989
 H1457 H 0.65738 0.31492 0.50868
 H1458 H 0.67309 0.32603 0.55894
 H1459 H 0.69827 0.33949 0.54759
 H1460 H 0.68270 0.32804 0.49717
 H1461 H 0.60587 0.28135 0.59150
 H1462 H 0.58081 0.27034 0.60545
 H1463 H 0.55208 0.28177 0.56093
 H1464 H 0.57728 0.29309 0.54719
 C1465 C 0.33674 0.16895 0.54694
 C1466 C 0.34320 0.18240 0.53755
 C1467 C 0.33508 0.18788 0.52292
 C1468 C 0.32066 0.17979 0.51761
 C1469 C 0.31424 0.16608 0.52685
 C1470 C 0.32237 0.16085 0.54166
 C1471 C 0.35833 0.19024 0.54289
 C1472 C 0.37109 0.19632 0.54778
 C1473 C 0.38607 0.20287 0.55405
 C1474 C 0.39884 0.20802 0.55991
 C1475 C 0.41397 0.21363 0.56758
 C1476 C 0.42158 0.22853 0.56219
 C1477 C 0.43593 0.23414 0.57021
 C1478 C 0.44277 0.22493 0.58378
 C1479 C 0.43517 0.20984 0.58888
 C1480 C 0.42088 0.20426 0.58084
 H1481 H 0.34288 0.16464 0.55831
 H1482 H 0.34000 0.19826 0.51553
 H1483 H 0.31477 0.18400 0.50608
 H1484 H 0.31760 0.15051 0.54918
 H1485 H 0.41632 0.23590 0.55194
 H1486 H 0.44143 0.24588 0.56610
 H1487 H 0.44028 0.20233 0.59909
 H1488 H 0.41513 0.19268 0.58508
 C1489 C 0.83891 0.68792 0.02079
 C1490 C 0.84708 0.68254 0.03542
 C1491 C 0.84065 0.66917 0.04495
 C1492 C 0.82627 0.66103 0.03978
 C1493 C 0.81809 0.66614 0.02496
 C1494 C 0.82446 0.67979 0.01559
 C1495 C 0.86225 0.69037 0.04066
 C1496 C 0.87505 0.69636 0.04556
 C1497 C 0.89006 0.70277 0.05192
 C1498 C 0.90282 0.70775 0.05793
 C1499 C 0.91790 0.71314 0.06583
 C1500 C 0.92415 0.70398 0.07957
 C1501 C 0.93837 0.70939 0.08785
 C1502 C 0.94656 0.72409 0.08253
 C1503 C 0.94040 0.73306 0.06848
 C1504 C 0.92611 0.72763 0.06021
 H1505 H 0.84380 0.69824 0.01330
 H1506 H 0.84682 0.66495 0.05633
 H1507 H 0.82152 0.65075 0.04740
 H1508 H 0.81852 0.68390 0.00405
 H1509 H 0.91794 0.69272 0.08399
 H1510 H 0.94296 0.70207 0.09845
 H1511 H 0.94635 0.74450 0.06419
 H1512 H 0.92136 0.73483 0.04960
 C1513 C 0.66489 0.66341 0.97231
 C1514 C 0.66531 0.67949 0.96503
 C1515 C 0.68036 0.68828 0.96440
 C1516 C 0.69496 0.68097 0.97095
 C1517 C 0.69466 0.66475 0.97823
 C1518 C 0.67944 0.65608 0.97885
 C1519 C 0.65033 0.68665 0.95784
 C1520 C 0.63765 0.69219 0.95170
 C1521 C 0.62272 0.69820 0.94431
 C1522 C 0.60995 0.70298 0.93776
 C1523 C 0.59475 0.70831 0.92961
 C1524 C 0.58641 0.72309 0.93449
 C1525 C 0.57185 0.72836 0.92624
 C1526 C 0.56548 0.71890 0.91296
 C1527 C 0.57386 0.70396 0.90831
 C1528 C 0.58838 0.69872 0.91658
 H1529 H 0.65335 0.65644 0.97276
 H1530 H 0.68082 0.70074 0.95877
 H1531 H 0.70644 0.68801 0.97042
 H1532 H 0.67883 0.64347 0.98408
 H1533 H 0.59125 0.73062 0.94456
 H1534 H 0.56579 0.74001 0.92999
 H1535 H 0.56914 0.69628 0.89831
 H1536 H 0.59469 0.68721 0.91274
 C1537 C 0.17609 0.17530 0.45258
 C1538 C 0.16381 0.18197 0.46337
 C1539 C 0.16620 0.18141 0.48078
 C1540 C 0.18070 0.17398 0.48739
 C1541 C 0.19301 0.16698 0.47664
 C1542 C 0.19059 0.16786 0.45914
 C1543 C 0.14856 0.18892 0.45655
 C1544 C 0.13579 0.19446 0.45059
 C1545 C 0.12090 0.20066 0.44328
 C1546 C 0.10827 0.20577 0.43669
 C1547 C 0.09337 0.21167 0.42835
 C1548 C 0.07756 0.20873 0.43548
 C1549 C 0.06311 0.21389 0.42696
 C1550 C 0.06432 0.22199 0.41116
 C1551 C 0.08029 0.22506 0.40424
 C1552 C 0.09469 0.21993 0.41277
 H1553 H 0.17433 0.17560 0.43908
 H1554 H 0.15678 0.18656 0.48926
 H1555 H 0.18228 0.17367 0.50090
 H1556 H 0.19969 0.16238 0.45054
 H1557 H 0.07639 0.20228 0.44751
 H1558 H 0.05100 0.21121 0.43253
 H1559 H 0.08164 0.23150 0.39223
 H1560 H 0.10686 0.22228 0.40715
 C1561 C 0.58655 0.08546 0.71232
 C1562 C 0.57105 0.09046 0.71905
 C1563 C 0.56373 0.08106 0.73211
 C1564 C 0.57192 0.06668 0.73841
 C1565 C 0.58754 0.06157 0.73171
 C1566 C 0.59474 0.07113 0.71858
 C1567 C 0.56273 0.10519 0.71235
 C1568 C 0.55620 0.11755 0.70628
 C1569 C 0.54909 0.13201 0.69862
 C1570 C 0.54345 0.14432 0.69162
 C1571 C 0.53725 0.15892 0.68268
 C1572 C 0.52420 0.16876 0.68940
 C1573 C 0.51832 0.18293 0.68055
 C1574 C 0.52543 0.18739 0.66487
 C1575 C 0.53858 0.17742 0.65829
 C1576 C 0.54443 0.16330 0.66714
 H1577 H 0.59229 0.09261 0.70215
 H1578 H 0.55174 0.08483 0.73743
 H1579 H 0.56614 0.05967 0.74863
 H1580 H 0.60661 0.06739 0.71297
 H1581 H 0.51855 0.16546 0.70142
 H1582 H 0.50808 0.19026 0.68586
 H1583 H 0.54450 0.18066 0.64639
 H1584 H 0.55459 0.15581 0.66186
 C1585 C 1.08034 0.59151 0.23475
 C1586 C 1.06725 0.58996 0.22337
 C1587 C 1.06245 0.57400 0.21819
 C1588 C 1.07091 0.55965 0.22414
 C1589 C 1.08433 0.56110 0.23530
 C1590 C 1.08882 0.57719 0.24069
 C1591 C 1.05934 0.60477 0.21636
 C1592 C 1.05308 0.61720 0.21013
 C1593 C 1.04617 0.63174 0.20244
 C1594 C 1.04060 0.64413 0.19551
 C1595 C 1.03435 0.65883 0.18678
 C1596 C 1.02359 0.65709 0.17318
 C1597 C 1.01839 0.67125 0.16395
 C1598 C 1.02392 0.68735 0.16820
 C1599 C 1.03445 0.68901 0.18212
 C1600 C 1.03966 0.67482 0.19132
 H1601 H 1.08416 0.60381 0.23883
 H1602 H 1.05240 0.57266 0.20931
 H1603 H 1.06729 0.54746 0.21960
 H1604 H 1.09894 0.57870 0.24946
 H1605 H 1.01941 0.64477 0.16955
 H1606 H 1.01009 0.66959 0.15345
 H1607 H 1.03907 0.70120 0.18557
 H1608 H 1.04807 0.67630 0.20177
 C1609 C 0.92188 0.91101 0.21084
 C1610 C 0.93760 0.90687 0.21737
 C1611 C 0.94411 0.91638 0.23041
 C1612 C 0.93490 0.92998 0.23691
 C1613 C 0.91904 0.93418 0.23044
 C1614 C 0.91267 0.92456 0.21730
 C1615 C 0.94687 0.89286 0.21051
 C1616 C 0.95406 0.88102 0.20427
 C1617 C 0.96180 0.86707 0.19642
 C1618 C 0.96781 0.85511 0.18927
 C1619 C 0.97427 0.84082 0.18022
 C1620 C 0.98395 0.82845 0.18836
 C1621 C 0.98938 0.81416 0.17962
 C1622 C 0.98510 0.81206 0.16266
 C1623 C 0.97561 0.82472 0.15454
 C1624 C 0.97024 0.83897 0.16327
 H1625 H 0.91675 0.90379 0.20070
 H1626 H 0.95627 0.91326 0.23557
 H1627 H 0.94007 0.93707 0.24711
 H1628 H 0.90065 0.92764 0.21185
 H1629 H 0.98708 0.82972 0.20150
 H1630 H 0.99655 0.80456 0.18624
 H1631 H 0.97234 0.82359 0.14143
 H1632 H 0.96276 0.84847 0.15684
 C1633 C 0.44379 0.42344 0.71645
 C1634 C 0.43951 0.40723 0.72184
 C1635 C 0.42647 0.40507 0.73353
 C1636 C 0.41751 0.41900 0.73955
 C1637 C 0.42146 0.43532 0.73391
 C1638 C 0.43486 0.43741 0.72247
 C1639 C 0.44775 0.39276 0.71466
 C1640 C 0.45414 0.38052 0.70835
 C1641 C 0.46102 0.36606 0.70064
 C1642 C 0.46637 0.35364 0.69378
 C1643 C 0.47213 0.33873 0.68528
 C1644 C 0.46154 0.32495 0.68417
 C1645 C 0.46660 0.31078 0.67512
 C1646 C 0.48234 0.31020 0.66703
 C1647 C 0.49304 0.32399 0.66848
 C1648 C 0.48793 0.33818 0.67753
 H1649 H 0.45379 0.42525 0.70732
 H1650 H 0.42304 0.39258 0.73778
 H1651 H 0.40742 0.41701 0.74852
 H1652 H 0.43806 0.44979 0.71776
 H1653 H 0.44928 0.32524 0.69012
 H1654 H 0.45818 0.30027 0.67444
 H1655 H 0.50515 0.32399 0.66224
 H1656 H 0.49619 0.34882 0.67824
 C1657 C 0.44048 0.57670 0.77193
 C1658 C 0.43218 0.58895 0.78154
 C1659 C 0.41543 0.58676 0.78623
 C1660 C 0.40705 0.57229 0.78158
 C1661 C 0.41532 0.55976 0.77216
 C1662 C 0.43209 0.56219 0.76722
 C1663 C 0.44087 0.60350 0.78721
 C1664 C 0.44772 0.61569 0.79258
 C1665 C 0.45523 0.62991 0.79957
 C1666 C 0.46120 0.64197 0.80615
 C1667 C 0.46778 0.65622 0.81472
 C1668 C 0.46105 0.66066 0.83040
 C1669 C 0.46735 0.67433 0.83901
 C1670 C 0.48052 0.68379 0.83206
 C1671 C 0.48715 0.67932 0.81623
 C1672 C 0.48082 0.66558 0.80762
 H1673 H 0.45347 0.57824 0.76829
 H1674 H 0.40888 0.59617 0.79365
 H1675 H 0.39407 0.57091 0.78533
 H1676 H 0.43882 0.55270 0.76008
 H1677 H 0.45090 0.65354 0.83598
 H1678 H 0.46178 0.67762 0.85103
 H1679 H 0.49739 0.68628 0.81063
 H1680 H 0.48613 0.66223 0.79549
 C1681 C -0.06020 0.07480 0.27201
 C1682 C -0.06839 0.08693 0.28187
 C1683 C -0.08506 0.08464 0.28680
 C1684 C -0.09347 0.07020 0.28212
 C1685 C -0.08531 0.05780 0.27243
 C1686 C -0.06862 0.06033 0.26727
 C1687 C -0.05968 0.10150 0.28748
 C1688 C -0.05284 0.11373 0.29277
 C1689 C -0.04535 0.12802 0.29963
 C1690 C -0.03941 0.14017 0.30606
 C1691 C -0.03288 0.15458 0.31441
 C1692 C -0.03975 0.15938 0.32991
 C1693 C -0.03355 0.17328 0.33824
 C1694 C -0.02035 0.18261 0.33118
 C1695 C -0.01355 0.17775 0.31553
 C1696 C -0.01977 0.16379 0.30721
 H1697 H -0.04727 0.07642 0.26818
 H1698 H -0.09152 0.09395 0.29441
 H1699 H -0.10639 0.06876 0.28605
 H1700 H -0.06198 0.05094 0.25993
 H1701 H -0.04994 0.15238 0.33557
 H1702 H -0.03925 0.17686 0.35012
 H1703 H -0.00328 0.18460 0.30986
 H1704 H -0.01435 0.16016 0.29521
 C1705 C 0.06045 0.41859 0.27268
 C1706 C 0.06825 0.40600 0.28237
 C1707 C 0.08468 0.40812 0.28775
 C1708 C 0.09326 0.42278 0.28359
 C1709 C 0.08551 0.43559 0.27398
 C1710 C 0.06904 0.43330 0.26847
 C1711 C 0.05949 0.39097 0.28713
 C1712 C 0.05268 0.37823 0.29160
 C1713 C 0.04533 0.36318 0.29740
 C1714 C 0.03962 0.35025 0.30283
 C1715 C 0.03352 0.33473 0.30990
 C1716 C 0.04399 0.32049 0.31018
 C1717 C 0.03882 0.30580 0.31839
 C1718 C 0.02309 0.30518 0.32649
 C1719 C 0.01243 0.31940 0.32571
 C1720 C 0.01765 0.33411 0.31751
 H1721 H 0.04772 0.41710 0.26849
 H1722 H 0.09086 0.39843 0.29521
 H1723 H 0.10601 0.42403 0.28777
 H1724 H 0.06270 0.44300 0.26118
 H1725 H 0.05630 0.32084 0.30435
 H1726 H 0.04720 0.29499 0.31858
 H1727 H 0.00033 0.31935 0.33198
 H1728 H 0.00950 0.34510 0.31747
 C1729 C 0.56379 0.92265 0.79456
 C1730 C 0.56353 0.90889 0.78377
 C1731 C 0.57162 0.90982 0.76808
 C1732 C 0.58026 0.92434 0.76335
 C1733 C 0.58096 0.93806 0.77432
 C1734 C 0.57242 0.93714 0.78987
 C1735 C 0.55591 0.89350 0.78936
 C1736 C 0.54999 0.88059 0.79463
 C1737 C 0.54364 0.86550 0.80149
 C1738 C 0.53871 0.85268 0.80793
 C1739 C 0.53346 0.83748 0.81631
 C1740 C 0.52352 0.82586 0.80811
 C1741 C 0.51888 0.81095 0.81635
 C1742 C 0.52423 0.80749 0.83286
 C1743 C 0.53408 0.81936 0.84101
 C1744 C 0.53866 0.83422 0.83278
 H1745 H 0.55759 0.92206 0.80674
 H1746 H 0.57160 0.89919 0.75969
 H1747 H 0.58686 0.92460 0.75138
 H1748 H 0.57256 0.94759 0.79848
 H1749 H 0.51947 0.82825 0.79534
 H1750 H 0.51140 0.80199 0.80972
 H1751 H 0.53814 0.81721 0.85381
 H1752 H 0.54631 0.84315 0.83927
 C1753 C 0.73258 0.58275 0.09438
 C1754 C 0.72538 0.56703 0.09262
 C1755 C 0.72466 0.55982 0.07674
 C1756 C 0.73079 0.56843 0.06257
 C1757 C 0.73770 0.58473 0.06387
 C1758 C 0.73870 0.59147 0.08030
 C1759 C 0.71799 0.55876 0.10702
 C1760 C 0.71142 0.55228 0.11913
 C1761 C 0.70332 0.54518 0.13333
 C1762 C 0.69604 0.53951 0.14544
 C1763 C 0.68692 0.53319 0.15983
 C1764 C 0.67320 0.52276 0.15757
 C1765 C 0.66364 0.51749 0.17144
 C1766 C 0.66767 0.52261 0.18777
 C1767 C 0.68168 0.53283 0.18994
 C1768 C 0.69122 0.53810 0.17604
 H1769 H 0.73339 0.58838 0.10669
 H1770 H 0.71895 0.54766 0.07522
 H1771 H 0.72892 0.56249 0.05062
 H1772 H 0.74470 0.60325 0.08275
 H1773 H 0.66975 0.51890 0.14508
 H1774 H 0.65307 0.50944 0.16939
 H1775 H 0.68499 0.53714 0.20232
 H1776 H 0.70176 0.54626 0.17792
 C1777 C 0.21544 1.06110 0.57587
 C1778 C 0.22037 1.06559 0.59202
 C1779 C 0.23159 1.07874 0.59403
 C1780 C 0.23763 1.08756 0.57997
 C1781 C 0.23249 1.08337 0.56369
 C1782 C 0.22148 1.06990 0.56178
 C1783 C 0.21330 1.05731 0.60658
 C1784 C 0.20706 1.05075 0.61883
 C1785 C 0.19939 1.04351 0.63320
 C1786 C 0.19250 1.03769 0.64547
 C1787 C 0.18388 1.03116 0.66008
 C1788 C 0.18844 1.03621 0.67617
 C1789 C 0.17934 1.03076 0.69030
 C1790 C 0.16550 1.02022 0.68848
 C1791 C 0.16124 1.01493 0.67227
 C1792 C 0.17037 1.02039 0.65817
 H1793 H 0.20669 1.05100 0.57418
 H1794 H 0.23548 1.08232 0.60647
 H1795 H 0.24627 1.09771 0.58184
 H1796 H 0.21715 1.06650 0.54944
 H1797 H 0.19881 1.04463 0.67778
 H1798 H 0.18280 1.03521 0.70257
 H1799 H 0.15081 1.00664 0.67048
 H1800 H 0.16673 1.01640 0.64577
 C1801 C 0.21464 0.91839 0.90938
 C1802 C 0.21613 0.93580 0.90823
 C1803 C 0.22438 0.94436 0.92082
 C1804 C 0.23105 0.93557 0.93460
 C1805 C 0.22964 0.91782 0.93620
 C1806 C 0.22125 0.90951 0.92307
 C1807 C 0.20880 0.94476 0.89424
 C1808 C 0.20229 0.95172 0.88242
 C1809 C 0.19423 0.95925 0.86848
 C1810 C 0.18699 0.96513 0.85652
 C1811 C 0.17790 0.97148 0.84221
 C1812 C 0.18599 0.98085 0.82960
 C1813 C 0.17723 0.98617 0.81531
 C1814 C 0.16028 0.98210 0.81345
 C1815 C 0.15221 0.97293 0.82635
 C1816 C 0.16097 0.96766 0.84061
 H1817 H 0.20807 0.91164 0.89978
 H1818 H 0.22573 0.95788 0.91997
 H1819 H 0.23788 0.94293 0.94346
 H1820 H 0.21874 0.89622 0.92350
 H1821 H 0.19912 0.98381 0.83068
 H1822 H 0.18381 0.99308 0.80552
 H1823 H 0.13912 0.96983 0.82541
 H1824 H 0.15458 0.96043 0.85030
 C1825 C 0.70810 0.42017 0.41179
 C1826 C 0.71419 0.43608 0.40756
 C1827 C 0.72689 0.44306 0.41710
 C1828 C 0.73352 0.43410 0.43082
 C1829 C 0.72752 0.41804 0.43510
 C1830 C 0.71469 0.41122 0.42545
 C1831 C 0.70728 0.44505 0.39337
 C1832 C 0.70107 0.45199 0.38137
 C1833 C 0.69333 0.45947 0.36722
 C1834 C 0.68631 0.46529 0.35510
 C1835 C 0.67747 0.47157 0.34061
 C1836 C 0.68559 0.48152 0.32847
 C1837 C 0.67706 0.48689 0.31405
 C1838 C 0.66034 0.48230 0.31160
 C1839 C 0.65225 0.47250 0.32400
 C1840 C 0.66077 0.46718 0.33839
 H1841 H 0.69822 0.41468 0.40454
 H1842 H 0.73170 0.45537 0.41392
 H1843 H 0.74348 0.43963 0.43791
 H1844 H 0.70959 0.39903 0.42859
 H1845 H 0.69854 0.48492 0.33004
 H1846 H 0.68366 0.49429 0.30465
 H1847 H 0.63931 0.46899 0.32260
 H1848 H 0.65437 0.45950 0.34771
 C1849 C 0.78498 0.41669 0.58514
 C1850 C 0.77917 0.43314 0.58766
 C1851 C 0.76874 0.44089 0.57575
 C1852 C 0.76428 0.43224 0.56128
 C1853 C 0.77028 0.41576 0.55854
 C1854 C 0.78057 0.40804 0.57071
 C1855 C 0.78437 0.44211 0.60227
 C1856 C 0.78925 0.44927 0.61451
 C1857 C 0.79555 0.45725 0.62882
 C1858 C 0.80145 0.46373 0.64098
 C1859 C 0.80909 0.47107 0.65540
 C1860 C 0.82184 0.48278 0.65313
 C1861 C 0.83023 0.48896 0.66704
 C1862 C 0.82600 0.48347 0.68341
 C1863 C 0.81288 0.47201 0.68559
 C1864 C 0.80452 0.46582 0.67165
 H1865 H 0.79303 0.41056 0.59429
 H1866 H 0.76422 0.45365 0.57755
 H1867 H 0.75646 0.43855 0.55207
 H1868 H 0.78515 0.39528 0.56911
 H1869 H 0.82549 0.48692 0.64060
 H1870 H 0.84011 0.49795 0.66497
 H1871 H 0.80946 0.46740 0.69802
 H1872 H 0.79474 0.45667 0.67354
 C1873 C 0.29101 -0.06287 0.07350
 C1874 C 0.28017 -0.06274 0.08744
 C1875 C 0.26485 -0.07099 0.08670
 C1876 C 0.26051 -0.07956 0.07215
 C1877 C 0.27149 -0.08003 0.05819
 C1878 C 0.28671 -0.07143 0.05897
 C1879 C 0.28519 -0.05473 0.10268
 C1880 C 0.28995 -0.04825 0.11535
 C1881 C 0.29619 -0.04091 0.13003
 C1882 C 0.30210 -0.03483 0.14241
 C1883 C 0.30984 -0.02782 0.15694
 C1884 C 0.30536 -0.03334 0.17314
 C1885 C 0.31383 -0.02741 0.18713
 C1886 C 0.32695 -0.01594 0.18506
 C1887 C 0.33109 -0.01019 0.16875
 C1888 C 0.32260 -0.01610 0.15480
 H1889 H 0.30289 -0.05652 0.07393
 H1890 H 0.25640 -0.07104 0.09746
 H1891 H 0.24879 -0.08621 0.07200
 H1892 H 0.29532 -0.07137 0.04834
 H1893 H 0.29557 -0.04249 0.17493
 H1894 H 0.31048 -0.03220 0.19951
 H1895 H 0.34096 -0.00118 0.16677
 H1896 H 0.32617 -0.01175 0.14232
 C1897 C 0.28841 0.08643 0.41205
 C1898 C 0.28339 0.06988 0.40956
 C1899 C 0.27343 0.06183 0.42172
 C1900 C 0.26862 0.07028 0.43639
 C1901 C 0.27381 0.08685 0.43909
 C1902 C 0.28366 0.09486 0.42668
 C1903 C 0.28890 0.06122 0.39466
 C1904 C 0.29408 0.05450 0.38208
 C1905 C 0.30080 0.04730 0.36730
 C1906 C 0.30710 0.04172 0.35465
 C1907 C 0.31530 0.03581 0.33958
 C1908 C 0.30681 0.02590 0.32811
 C1909 C 0.31478 0.02085 0.31317
 C1910 C 0.33129 0.02577 0.30954
 C1911 C 0.33975 0.03551 0.32129
 C1912 C 0.33180 0.04050 0.33618
 H1913 H 0.29609 0.09279 0.40271
 H1914 H 0.26952 0.04899 0.41993
 H1915 H 0.26115 0.06374 0.44578
 H1916 H 0.28761 0.10771 0.42825
 H1917 H 0.29401 0.02224 0.33060
 H1918 H 0.30792 0.01345 0.30431
 H1919 H 0.35255 0.03925 0.31900
 H1920 H 0.33849 0.04814 0.34498
 C1921 C 0.78877 0.58582 0.91089
 C1922 C 0.78353 0.56934 0.90850
 C1923 C 0.77397 0.56127 0.92098
 C1924 C 0.76978 0.56966 0.93587
 C1925 C 0.77517 0.58620 0.93844
 C1926 C 0.78463 0.59420 0.92573
 C1927 C 0.78829 0.56077 0.89329
 C1928 C 0.79274 0.55412 0.88042
 C1929 C 0.79849 0.54696 0.86522
 C1930 C 0.80384 0.54139 0.85216
 C1931 C 0.81075 0.53541 0.83650
 C1932 C 0.81825 0.51943 0.83559
 C1933 C 0.82614 0.51425 0.82068
 C1934 C 0.82669 0.52505 0.80654
 C1935 C 0.81874 0.54091 0.80748
 C1936 C 0.81085 0.54605 0.82236
 H1937 H 0.79613 0.59220 0.90129
 H1938 H 0.76988 0.54849 0.91927
 H1939 H 0.76260 0.56313 0.94548
 H1940 H 0.78871 0.60702 0.92719
 H1941 H 0.81834 0.51114 0.84650
 H1942 H 0.83230 0.50204 0.82040
 H1943 H 0.81876 0.54941 0.79673
 H1944 H 0.80509 0.55845 0.82293
 C1945 C 0.09374 0.73414 0.58027
 C1946 C 0.09236 0.72248 0.56734
 C1947 C 0.07654 0.71724 0.56239
 C1948 C 0.06216 0.72342 0.57051
 C1949 C 0.06342 0.73491 0.58375
 C1950 C 0.07937 0.74034 0.58842
 C1951 C 0.10717 0.71529 0.55970
 C1952 C 0.11955 0.70892 0.55358
 C1953 C 0.13399 0.70109 0.54672
 C1954 C 0.14627 0.69407 0.54112
 C1955 C 0.16084 0.68532 0.53474
 C1956 C 0.15902 0.67164 0.52405
 C1957 C 0.17310 0.66256 0.51852
 C1958 C 0.18921 0.66705 0.52364
 C1959 C 0.19093 0.68098 0.53419
 C1960 C 0.17682 0.69004 0.53972
 H1961 H 0.10592 0.73828 0.58421
 H1962 H 0.07534 0.70813 0.55247
 H1963 H 0.05009 0.71883 0.56678
 H1964 H 0.08074 0.74933 0.59841
 H1965 H 0.14671 0.66789 0.52012
 H1966 H 0.17139 0.65205 0.51022
 H1967 H 0.20313 0.68462 0.53852
 H1968 H 0.17836 0.70055 0.54808
 C1969 C 0.58665 0.21245 1.08275
 C1970 C 0.59155 0.21877 1.06698
 C1971 C 0.58212 0.23163 1.05930
 C1972 C 0.56784 0.23815 1.06740
 C1973 C 0.56286 0.23188 1.08329
 C1974 C 0.57242 0.21893 1.09084
 C1975 C 0.60622 0.21187 1.05881
 C1976 C 0.61855 0.20563 1.05248
 C1977 C 0.63301 0.19780 1.04566
 C1978 C 0.64534 0.19068 1.04032
 C1979 C 0.66000 0.18167 1.03452
 C1980 C 0.66967 0.18791 1.02111
 C1981 C 0.68392 0.17902 1.01564
 C1982 C 0.68863 0.16376 1.02352
 C1983 C 0.67882 0.15764 1.03700
 C1984 C 0.66462 0.16654 1.04244
 H1985 H 0.59381 0.20244 1.08876
 H1986 H 0.58582 0.23663 1.04710
 H1987 H 0.56082 0.24821 1.06134
 H1988 H 0.56877 0.21364 1.10293
 H1989 H 0.66619 0.19961 1.01488
 H1990 H 0.69112 0.18396 1.00512
 H1991 H 0.68225 0.14609 1.04350
 H1992 H 0.65726 0.16163 1.05288
 C1993 C 0.91862 0.22836 0.94280
 C1994 C 0.90602 0.22012 0.93432
 C1995 C 0.90728 0.21813 0.91696
 C1996 C 0.92109 0.22424 0.90803
 C1997 C 0.93423 0.23263 0.91625
 C1998 C 0.93253 0.23453 0.93396
 C1999 C 0.89185 0.21338 0.94330
 C2000 C 0.87982 0.20738 0.95025
 C2001 C 0.86558 0.19996 0.95770
 C2002 C 0.85333 0.19328 0.96348
 C2003 C 0.83860 0.18491 0.96964
 C2004 C 0.82479 0.18344 0.95915
 C2005 C 0.81086 0.17437 0.96454
 C2006 C 0.81055 0.16661 0.98053
 C2007 C 0.82434 0.16847 0.99116
 C2008 C 0.83830 0.17753 0.98572
 H2009 H 0.91769 0.23010 0.95628
 H2010 H 0.89766 0.21156 0.91028
 H2011 H 0.92157 0.22136 0.89480
 H2012 H 0.94140 0.24140 0.94123
 H2013 H 0.82490 0.18910 0.94668
 H2014 H 0.80034 0.17338 0.95617
 H2015 H 0.82453 0.16249 1.00347
 H2016 H 0.84897 0.17852 0.99391
 C2017 C 0.41681 0.73160 0.44167
 C2018 C 0.40732 0.71874 0.43486
 C2019 C 0.41170 0.71215 0.41916
 C2020 C 0.42546 0.71839 0.41023
 C2021 C 0.43506 0.73136 0.41689
 C2022 C 0.43063 0.73786 0.43275
 C2023 C 0.39298 0.71227 0.44378
 C2024 C 0.38083 0.70648 0.45070
 C2025 C 0.36647 0.69929 0.45814
 C2026 C 0.35411 0.69280 0.46393
 C2027 C 0.33927 0.68467 0.47012
 C2028 C 0.32535 0.68358 0.45971
 C2029 C 0.31127 0.67475 0.46513
 C2030 C 0.31092 0.66685 0.48106
 C2031 C 0.32483 0.66832 0.49160
 C2032 C 0.33894 0.67715 0.48613
 H2033 H 0.41350 0.73681 0.45380
 H2034 H 0.40447 0.70216 0.41380
 H2035 H 0.42870 0.71292 0.39820
 H2036 H 0.43769 0.74795 0.43813
 H2037 H 0.32547 0.68935 0.44730
 H2038 H 0.30066 0.67405 0.45683
 H2039 H 0.32500 0.66223 0.50385
 H2040 H 0.34969 0.67784 0.49425
 C2041 C 0.58524 0.76604 0.42693
 C2042 C 0.58601 0.78165 0.43481
 C2043 C 0.57225 0.79270 0.43424
 C2044 C 0.55787 0.78831 0.42561
 C2045 C 0.55705 0.77278 0.41739
 C2046 C 0.57083 0.76160 0.41830
 C2047 C 0.60111 0.78672 0.44290
 C2048 C 0.61368 0.79149 0.44943
 C2049 C 0.62831 0.79765 0.45681
 C2050 C 0.64069 0.80342 0.46287
 C2051 C 0.65532 0.81090 0.46984
 C2052 C 0.65353 0.82369 0.48168
 C2053 C 0.66762 0.83182 0.48763
 C2054 C 0.68373 0.82728 0.48178
 C2055 C 0.68543 0.81415 0.47014
 C2056 C 0.67130 0.80605 0.46418
 H2057 H 0.59586 0.75743 0.42722
 H2058 H 0.57271 0.80481 0.44030
 H2059 H 0.54738 0.79707 0.42533
 H2060 H 0.57065 0.74964 0.41195
 H2061 H 0.64122 0.82755 0.48614
 H2062 H 0.66592 0.84171 0.49676
 H2063 H 0.69764 0.81051 0.46526
 H2064 H 0.67282 0.79623 0.45493
 C2065 C 0.08413 0.26569 -0.07175
 C2066 C 0.08495 0.28136 -0.06400
 C2067 C 0.07123 0.29246 -0.06470
 C2068 C 0.05687 0.28807 -0.07335
 C2069 C 0.05602 0.27249 -0.08146
 C2070 C 0.06974 0.26125 -0.08040
 C2071 C 0.10005 0.28646 -0.05595
 C2072 C 0.11264 0.29126 -0.04947
 C2073 C 0.12728 0.29750 -0.04218
 C2074 C 0.13967 0.30335 -0.03620
 C2075 C 0.15429 0.31096 -0.02937
 C2076 C 0.15249 0.32386 -0.01765
 C2077 C 0.16656 0.33217 -0.01190
 C2078 C 0.18265 0.32771 -0.01784
 C2079 C 0.18438 0.31445 -0.02932
 C2080 C 0.17027 0.30616 -0.03507
 H2081 H 0.09471 0.25704 -0.07136
 H2082 H 0.07173 0.30462 -0.05874
 H2083 H 0.04642 0.29689 -0.07375
 H2084 H 0.06953 0.24925 -0.08667
 H2085 H 0.14018 0.32769 -0.01316
 H2086 H 0.16484 0.34216 -0.00288
 H2087 H 0.19658 0.31084 -0.03425
 H2088 H 0.17180 0.29625 -0.04423
 C2089 C 0.41090 0.26712 0.06865
 C2090 C 0.40939 0.28284 0.06066
 C2091 C 0.42276 0.29398 0.06084
 C2092 C 0.43747 0.28960 0.06926
 C2093 C 0.43898 0.27399 0.07765
 C2094 C 0.42562 0.26269 0.07706
 C2095 C 0.39381 0.28798 0.05315
 C2096 C 0.38069 0.29268 0.04729
 C2097 C 0.36528 0.29866 0.04095
 C2098 C 0.35209 0.30417 0.03598
 C2099 C 0.33634 0.31124 0.03059
 C2100 C 0.33493 0.31882 0.01468
 C2101 C 0.31995 0.32678 0.00999
 C2102 C 0.30621 0.32732 0.02122
 C2103 C 0.30764 0.31932 0.03703
 C2104 C 0.32261 0.31135 0.04167
 H2105 H 0.40058 0.25845 0.06868
 H2106 H 0.42172 0.30619 0.05472
 H2107 H 0.44762 0.29846 0.06930
 H2108 H 0.42632 0.25068 0.08358
 H2109 H 0.34552 0.31890 0.00604
 H2110 H 0.31930 0.33299 -0.00218
 H2111 H 0.29722 0.31932 0.04585
 H2112 H 0.32356 0.30553 0.05402
 C2113 C 0.91153 0.76494 0.56999
 C2114 C 0.90984 0.78072 0.56216
 C2115 C 0.92292 0.79218 0.56282
 C2116 C 0.93751 0.78802 0.57154
 C2117 C 0.93920 0.77234 0.57976
 C2118 C 0.92613 0.76075 0.57870
 C2119 C 0.89435 0.78560 0.55432
 C2120 C 0.88130 0.79013 0.54821
 C2121 C 0.86594 0.79595 0.54160
 C2122 C 0.85278 0.80137 0.53646
 C2123 C 0.83706 0.80838 0.53094
 C2124 C 0.83584 0.81630 0.51517
 C2125 C 0.82090 0.82435 0.51048
 C2126 C 0.80704 0.82465 0.52156
 C2127 C 0.80828 0.81626 0.53719
 C2128 C 0.82319 0.80820 0.54184
 H2129 H 0.90142 0.75603 0.56965
 H2130 H 0.92174 0.80444 0.55683
 H2131 H 0.94744 0.79712 0.57194
 H2132 H 0.92698 0.74866 0.58506
 H2133 H 0.84654 0.81660 0.50669
 H2134 H 0.82039 0.83085 0.49845
 H2135 H 0.79775 0.81608 0.54589
 H2136 H 0.82400 0.80213 0.55408
   
