data_POSCAR
  _audit_creation_date              2014-09-24
  _audit_creation_method            'ToBaCCo'
  _symmetry_space_group_name_H-M    'P1'
  _symmetry_Int_Tables_number       1
  _symmetry_cell_setting            triclinic
  loop_
  _symmetry_equiv_pos_as_xyz
 x,y,z
_cell_length_a 51.0771
_cell_length_b 51.4291
_cell_length_c 51.8043
_cell_angle_alpha 90.016000
_cell_angle_beta 90.001300
_cell_angle_gamma 90.021300
loop_
  _atom_site_label
  _atom_site_type_symbol
  _atom_site_fract_x
  _atom_site_fract_y
  _atom_site_fract_z
O1 O 0.32319 0.35918 0.02460
 O2 O 0.35903 0.32309 -0.02548
 O3 O 0.32388 0.35939 -0.02578
 O4 O 0.35869 0.32310 0.02480
 O5 O 0.32802 0.29284 0.02404
 O6 O 0.29235 0.33013 -0.02559
 O7 O 0.32799 0.29321 -0.02589
 O8 O 0.29213 0.32931 0.02426
 Cu9 Cu 0.34429 0.34419 -0.00042
 Cu10 Cu 0.30700 0.30836 -0.00085
 C11 C 0.30145 0.35051 0.03284
 C12 C 0.34974 0.30188 -0.03408
 C13 C 0.30197 0.35125 -0.03416
 C14 C 0.34950 0.30164 0.03284
 O15 O 0.67706 0.64084 0.02396
 O16 O 0.64122 0.67698 -0.02607
 O17 O 0.67630 0.64060 -0.02642
 O18 O 0.64165 0.67699 0.02421
 O19 O 0.67238 0.70718 0.02342
 O20 O 0.70789 0.66980 -0.02627
 O21 O 0.67233 0.70681 -0.02651
 O22 O 0.70818 0.67065 0.02358
 Cu23 Cu 0.65596 0.65587 -0.00104
 Cu24 Cu 0.69332 0.69161 -0.00152
 C25 C 0.69882 0.64947 0.03219
 C26 C 0.65054 0.69818 -0.03467
 C27 C 0.69823 0.64868 -0.03482
 C28 C 0.65090 0.69843 0.03225
 O29 O 0.67697 0.35912 0.97561
 O30 O 0.64111 0.32300 1.02566
 O31 O 0.67622 0.35935 1.02598
 O32 O 0.64149 0.32302 0.97537
 O33 O 0.67216 0.29279 0.97614
 O34 O 0.70777 0.33013 1.02581
 O35 O 0.67217 0.29316 1.02609
 O36 O 0.70804 0.32928 0.97596
 Cu37 Cu 0.65585 0.34411 1.00061
 Cu38 Cu 0.69315 0.30833 1.00107
 C39 C 0.69871 0.35046 0.96737
 C40 C 0.65041 0.30181 1.03427
 C41 C 0.69813 0.35125 1.03438
 C42 C 0.65069 0.30157 0.96732
 O43 O 0.35927 0.67692 1.02573
 O44 O 0.32330 0.64072 0.97578
 O45 O 0.35879 0.67685 0.97544
 O46 O 0.32410 0.64058 1.02616
 O47 O 0.29258 0.66983 1.02601
 O48 O 0.32811 0.70707 0.97623
 O49 O 0.29223 0.67056 0.97615
 O50 O 0.32823 0.70679 1.02616
 Cu51 Cu 0.34445 0.65578 1.00073
 Cu52 Cu 0.30717 0.69156 1.00121
 C53 C 0.35001 0.69815 1.03430
 C54 C 0.30154 0.64936 0.96757
 C55 C 0.34957 0.69829 0.96740
 C56 C 0.30220 0.64871 1.03457
 O57 O 0.02483 0.32397 0.35938
 O58 O -0.02598 0.35961 0.32359
 O59 O -0.02627 0.32467 0.35959
 O60 O 0.02502 0.35933 0.32356
 O61 O 0.02422 0.32893 0.29348
 O62 O -0.02605 0.29340 0.33051
 O63 O -0.02640 0.32878 0.29392
 O64 O 0.02449 0.29319 0.32966
 Cu65 Cu -0.00054 0.34496 0.34451
 Cu66 Cu -0.00098 0.30798 0.30890
 C67 C 0.03316 0.30238 0.35075
 C68 C -0.03471 0.35037 0.30254
 C69 C -0.03477 0.30292 0.35148
 C70 C 0.03311 0.35027 0.30220
 O71 O 0.02532 0.67585 0.64064
 O72 O -0.02568 0.64035 0.67635
 O73 O -0.02576 0.67527 0.64031
 O74 O 0.02533 0.64055 0.67651
 O75 O 0.02453 0.67098 0.70657
 O76 O -0.02552 0.70658 0.66935
 O77 O -0.02609 0.67122 0.70598
 O78 O 0.02500 0.70666 0.67034
 Cu79 Cu -0.00014 0.65493 0.65548
 Cu80 Cu -0.00056 0.69195 0.69105
 C81 C 0.03368 0.69744 0.64927
 C82 C -0.03444 0.64963 0.69736
 C83 C -0.03419 0.69706 0.64835
 C84 C 0.03340 0.64962 0.69788
 O85 O 1.02578 0.64064 0.32358
 O86 O 0.97487 0.67614 0.35938
 O87 O 0.97478 0.64088 0.32347
 O88 O 1.02595 0.67553 0.35965
 O89 O 1.02573 0.70686 0.33065
 O90 O 0.97558 0.67134 0.29345
 O91 O 0.97520 0.70698 0.32973
 O92 O 1.02621 0.67153 0.29398
 Cu93 Cu 1.00029 0.65522 0.34448
 Cu94 Cu 1.00073 0.69227 0.30897
 C95 C 1.03454 0.64993 0.30257
 C96 C 0.96652 0.69774 0.35079
 C97 C 0.96670 0.64998 0.30212
 C98 C 1.03440 0.69732 0.35162
 O99 O 0.97516 0.32376 0.64030
 O100 O 1.02600 0.35925 0.67626
 O101 O 1.02623 0.32438 0.64015
 O102 O 0.97498 0.35902 0.67623
 O103 O 0.97568 0.32854 0.70622
 O104 O 1.02591 0.29303 0.66914
 O105 O 1.02631 0.32835 0.70584
 O106 O 0.97539 0.29289 0.66991
 Cu107 Cu 1.00054 0.34468 0.65527
 Cu108 Cu 1.00086 0.30761 0.69077
 C109 C 0.96679 0.30214 0.64883
 C110 C 1.03468 0.34996 0.69729
 C111 C 1.03463 0.30257 0.64818
 C112 C 0.96684 0.34992 0.69755
 O113 O 0.32308 -0.02605 0.35792
 O114 O 0.35826 0.02496 0.32225
 O115 O 0.32281 0.02463 0.35816
 O116 O 0.35870 -0.02570 0.32218
 O117 O 0.32804 -0.02559 0.29213
 O118 O 0.29168 0.02427 0.32860
 O119 O 0.32752 0.02465 0.29228
 O120 O 0.29203 -0.02601 0.32827
 Cu121 Cu 0.34380 -0.00053 0.34312
 Cu122 Cu 0.30670 -0.00068 0.30732
 C123 C 0.30142 -0.03455 0.34933
 C124 C 0.34905 0.03330 0.30104
 C125 C 0.30100 0.03285 0.34969
 C126 C 0.34967 -0.03403 0.30089
 O127 O 0.64191 0.02529 0.67755
 O128 O 0.67717 -0.02570 0.64192
 O129 O 0.64156 -0.02537 0.67765
 O130 O 0.67733 0.02499 0.64160
 O131 O 0.70850 0.02474 0.67113
 O132 O 0.67223 -0.02513 0.70769
 O133 O 0.70822 -0.02554 0.67157
 O134 O 0.67267 0.02511 0.70750
 Cu135 Cu 0.65640 -0.00019 0.65669
 Cu136 Cu 0.69353 -0.00020 0.69246
 C137 C 0.65111 0.03368 0.69875
 C138 C 0.69883 -0.03415 0.65053
 C139 C 0.65062 -0.03365 0.69895
 C140 C 0.69914 0.03327 0.65004
 O141 O 0.35814 0.97502 0.67760
 O142 O 0.32286 1.02584 0.64178
 O143 O 0.35841 1.02568 0.67758
 O144 O 0.32275 0.97517 0.64163
 O145 O 0.29157 0.97545 0.67116
 O146 O 0.32770 1.02552 0.70758
 O147 O 0.29176 1.02574 0.67138
 O148 O 0.32736 0.97528 0.70753
 Cu149 Cu 0.34364 1.00042 0.65667
 Cu150 Cu 0.30647 1.00050 0.69240
 C151 C 0.34893 0.96669 0.69882
 C152 C 0.30117 1.03428 0.65033
 C153 C 0.34931 1.03402 0.69884
 C154 C 0.30095 0.96688 0.65009
 O155 O 0.67568 1.02619 0.35940
 O156 O 0.64145 0.97487 0.32329
 O157 O 0.67652 0.97544 0.35960
 O158 O 0.64068 1.02552 0.32322
 O159 O 0.67191 1.02592 0.29375
 O160 O 0.70785 0.97582 0.33024
 O161 O 0.67240 0.97565 0.29355
 O162 O 0.70738 1.02605 0.33054
 Cu163 Cu 0.65547 1.00044 0.34432
 Cu164 Cu 0.69303 1.00091 0.30907
 C165 C 0.69758 1.03473 0.35140
 C166 C 0.65087 0.96676 0.30208
 C167 C 0.69840 0.96723 0.35126
 C168 C 0.65005 1.03411 0.30217
 O169 O 0.82175 0.85643 0.52598
 O170 O 0.85743 0.82099 0.47539
 O171 O 0.82188 0.85713 0.47570
 O172 O 0.85732 0.82048 0.52572
 O173 O 0.82683 0.79000 0.52469
 O174 O 0.79071 0.82738 0.47557
 O175 O 0.82662 0.79086 0.47494
 O176 O 0.79078 0.82646 0.52548
 Cu177 Cu 0.84269 0.84177 0.50073
 Cu178 Cu 0.80561 0.80567 0.50013
 C179 C 0.80007 0.84763 0.53420
 C180 C 0.84829 0.79974 0.46675
 C181 C 0.80009 0.84871 0.46735
 C182 C 0.84830 0.79883 0.53344
 O183 O 0.14233 0.17866 0.47484
 O184 O 0.17815 0.14308 0.52523
 O185 O 0.14263 0.17908 0.52516
 O186 O 0.17782 0.14246 0.47492
 O187 O 0.20901 0.17220 0.47475
 O188 O 0.17316 0.20951 0.52410
 O189 O 0.20916 0.17301 0.52469
 O190 O 0.17316 0.20876 0.47437
 Cu191 Cu 0.15714 0.15780 0.50007
 Cu192 Cu 0.19426 0.19387 0.49943
 C193 C 0.15145 0.19993 0.46623
 C194 C 0.19986 0.15184 0.53341
 C195 C 0.15171 0.20070 0.53290
 C196 C 0.19958 0.15089 0.46649
 O197 O 0.17845 0.85652 0.47437
 O198 O 0.14264 0.82094 0.52477
 O199 O 0.17812 0.85715 0.52467
 O200 O 0.14289 0.82055 0.47445
 O201 O 0.17340 0.79011 0.47549
 O202 O 0.20930 0.82743 0.52483
 O203 O 0.17346 0.79085 0.52523
 O204 O 0.20944 0.82660 0.47489
 Cu205 Cu 0.15743 0.84181 0.49953
 Cu206 Cu 0.19454 0.80575 0.50015
 C207 C 0.20015 0.84776 0.46617
 C208 C 0.15177 0.79968 0.53339
 C209 C 0.19986 0.84871 0.53310
 C210 C 0.15195 0.79892 0.46671
 O211 O 0.85720 0.17900 0.52396
 O212 O 0.82056 0.14390 0.47368
 O213 O 0.85633 0.17967 0.47363
 O214 O 0.82152 0.14290 0.52403
 O215 O 0.79062 0.17290 0.52496
 O216 O 0.82587 0.21014 0.47511
 O217 O 0.78953 0.17380 0.47517
 O218 O 0.82660 0.20931 0.52487
 Cu219 Cu 0.84198 0.15834 0.49873
 Cu220 Cu 0.80505 0.19457 0.50010
 C221 C 0.84833 0.20032 0.53274
 C222 C 0.79865 0.15271 0.46612
 C223 C 0.84722 0.20133 0.46607
 C224 C 0.79998 0.15145 0.53287
 O225 O 0.52491 0.82262 0.85810
 O226 O 0.47382 0.85827 0.82271
 O227 O 0.47389 0.82273 0.85838
 O228 O 0.52484 0.85835 0.82268
 O229 O 0.52450 0.82813 0.79241
 O230 O 0.47399 0.79211 0.82851
 O231 O 0.47393 0.82800 0.79247
 O232 O 0.52456 0.79202 0.82819
 Cu233 Cu 0.49937 0.84354 0.84348
 Cu234 Cu 0.49923 0.80701 0.80737
 C235 C 0.53324 0.80109 0.84934
 C236 C 0.46540 0.84939 0.80139
 C237 C 0.46548 0.80119 0.84972
 C238 C 0.53315 0.84949 0.80132
 O239 O 0.52517 0.17755 0.14212
 O240 O 0.47400 0.14195 0.17747
 O241 O 0.47415 0.17742 0.14175
 O242 O 0.52502 0.14191 0.17765
 O243 O 0.52460 0.17221 0.20786
 O244 O 0.47418 0.20810 0.17158
 O245 O 0.47405 0.17228 0.20765
 O246 O 0.52476 0.20822 0.17195
 Cu247 Cu 0.49960 0.15665 0.15674
 Cu248 Cu 0.49938 0.19327 0.19278
 C249 C 0.53347 0.19911 0.15084
 C250 C 0.46553 0.15087 0.19875
 C251 C 0.46571 0.19897 0.15036
 C252 C 0.53326 0.15083 0.19903
 O253 O 0.47506 0.17763 0.85808
 O254 O 0.52607 0.14201 0.82256
 O255 O 0.52607 0.17747 0.85828
 O256 O 0.47505 0.14198 0.82257
 O257 O 0.47537 0.17226 0.79236
 O258 O 0.52598 0.20813 0.82846
 O259 O 0.52594 0.17231 0.79237
 O260 O 0.47540 0.20829 0.82825
 Cu261 Cu 0.50055 0.15671 0.84338
 Cu262 Cu 0.50068 0.19332 0.80735
 C263 C 0.46675 0.19919 0.84939
 C264 C 0.53448 0.15092 0.80125
 C265 C 0.53451 0.19901 0.84965
 C266 C 0.46672 0.15089 0.80124
 O267 O 0.47576 0.82270 0.14163
 O268 O 0.52679 0.85835 0.17722
 O269 O 0.52678 0.82287 0.14146
 O270 O 0.47576 0.85836 0.17715
 O271 O 0.47606 0.82809 0.20736
 O272 O 0.52662 0.79219 0.17126
 O273 O 0.52663 0.82802 0.20737
 O274 O 0.47606 0.79206 0.17148
 Cu275 Cu 0.50127 0.84363 0.15636
 Cu276 Cu 0.50135 0.80702 0.19238
 C277 C 0.46742 0.80114 0.15033
 C278 C 0.53517 0.84943 0.19853
 C279 C 0.53517 0.80131 0.15008
 C280 C 0.46741 0.84946 0.19849
 O281 O 0.82204 0.47457 0.85719
 O282 O 0.85716 0.52530 0.82111
 O283 O 0.82156 0.52525 0.85681
 O284 O 0.85783 0.47462 0.82149
 O285 O 0.82731 0.47435 0.79131
 O286 O 0.79038 0.52408 0.82726
 O287 O 0.82647 0.52462 0.79109
 O288 O 0.79118 0.47400 0.82734
 Cu289 Cu 0.84274 0.49998 0.84214
 Cu290 Cu 0.80576 0.49921 0.80622
 C291 C 0.80046 0.46587 0.84861
 C292 C 0.84794 0.53345 0.79983
 C293 C 0.79960 0.53298 0.84825
 C294 C 0.84894 0.46610 0.80020
 O295 O 0.14298 0.52568 0.17872
 O296 O 0.17810 0.47491 0.14270
 O297 O 0.14227 0.47500 0.17836
 O298 O 0.17863 0.52559 0.14305
 O299 O 0.20977 0.52444 0.17263
 O300 O 0.17276 0.47475 0.20857
 O301 O 0.20893 0.47436 0.17258
 O302 O 0.17363 0.52502 0.20877
 Cu303 Cu 0.15740 0.50034 0.15771
 Cu304 Cu 0.19435 0.49960 0.19367
 C305 C 0.15217 0.53383 0.20001
 C306 C 0.19966 0.46621 0.15131
 C307 C 0.15113 0.46649 0.19965
 C308 C 0.20058 0.53332 0.15163
 O309 O 0.85706 0.47461 0.17857
 O310 O 0.82198 0.52527 0.14240
 O311 O 0.85772 0.52528 0.17814
 O312 O 0.82148 0.47459 0.14284
 O313 O 0.79029 0.47577 0.17237
 O314 O 0.82717 0.52556 0.20828
 O315 O 0.79109 0.52585 0.17222
 O316 O 0.82636 0.47530 0.20857
 Cu317 Cu 0.84266 0.49989 0.15750
 Cu318 Cu 0.80564 0.50067 0.19339
 C319 C 0.84784 0.46648 0.19985
 C320 C 0.80039 0.53397 0.15096
 C321 C 0.84881 0.53382 0.19940
 C322 C 0.79953 0.46686 0.15140
 O323 O 0.14284 0.47423 0.82154
 O324 O 0.17798 0.52496 0.85768
 O325 O 0.14221 0.52492 0.82195
 O326 O 0.17844 0.47427 0.85728
 O327 O 0.20963 0.47543 0.82774
 O328 O 0.17275 0.52517 0.79180
 O329 O 0.20886 0.52551 0.82785
 O330 O 0.17355 0.47490 0.79155
 Cu331 Cu 0.15727 0.49955 0.84260
 Cu332 Cu 0.19427 0.50030 0.80670
 C333 C 0.15206 0.46609 0.80026
 C334 C 0.19958 0.53365 0.84912
 C335 C 0.15111 0.53343 0.80068
 C336 C 0.20040 0.46655 0.84873
 C337 C 0.25808 0.39646 0.08665
 C338 C 0.28555 0.39774 0.08672
 C339 C 0.29973 0.38241 0.06923
 C340 C 0.28660 0.36558 0.05214
 C341 C 0.25909 0.36403 0.05279
 C342 C 0.24469 0.37973 0.06977
 C343 C 0.24304 0.41343 0.10415
 C344 C 0.21556 0.41308 0.10318
 C345 C 0.20136 0.43014 0.11900
 C346 C 0.21450 0.44706 0.13599
 C347 C 0.24203 0.44664 0.13725
 C348 C 0.25643 0.43012 0.12107
 C349 C 0.21718 0.37946 0.06981
 C350 C 0.20286 0.39597 0.08613
 C351 C 0.29826 0.41457 0.10403
 C352 C 0.28394 0.43038 0.12103
 H353 H 0.20663 0.36666 0.05685
 H354 H 0.18167 0.39544 0.08529
 H355 H 0.31944 0.41565 0.10435
 H356 H 0.29449 0.44321 0.13396
 H357 H 0.32092 0.38356 0.06888
 H358 H 0.24888 0.35128 0.03949
 H359 H 0.18016 0.43035 0.11804
 H360 H 0.25223 0.45986 0.15010
 C361 C 0.74209 0.60358 0.08609
 C362 C 0.75552 0.62027 0.06920
 C363 C 0.74116 0.63595 0.05218
 C364 C 0.71364 0.63441 0.05150
 C365 C 0.70048 0.61762 0.06860
 C366 C 0.71462 0.60232 0.08613
 C367 C 0.75710 0.58665 0.10364
 C368 C 0.74368 0.57001 0.12057
 C369 C 0.75805 0.55352 0.13681
 C370 C 0.78558 0.55308 0.13559
 C371 C 0.79874 0.56996 0.11859
 C372 C 0.78459 0.58699 0.10272
 C373 C 0.70188 0.58553 0.10345
 C374 C 0.71617 0.56975 0.12049
 C375 C 0.78302 0.62053 0.06929
 C376 C 0.79732 0.60405 0.08566
 H377 H 0.68070 0.58447 0.10374
 H378 H 0.70559 0.55696 0.13343
 H379 H 0.79360 0.63330 0.05632
 H380 H 0.81851 0.60457 0.08485
 H381 H 0.75139 0.64866 0.03888
 H382 H 0.67929 0.61648 0.06822
 H383 H 0.74782 0.54033 0.14966
 H384 H 0.81995 0.56975 0.11767
 C385 C 0.74205 0.39630 0.91346
 C386 C 0.71458 0.39759 0.91342
 C387 C 0.70042 0.38231 0.93096
 C388 C 0.71355 0.36551 0.94806
 C389 C 0.74106 0.36395 0.94737
 C390 C 0.75545 0.37960 0.93035
 C391 C 0.75709 0.41321 0.89590
 C392 C 0.78457 0.41285 0.89682
 C393 C 0.79876 0.42986 0.88096
 C394 C 0.78562 0.44676 0.86396
 C395 C 0.75809 0.44634 0.86274
 C396 C 0.74369 0.42987 0.87897
 C397 C 0.78296 0.37931 0.93026
 C398 C 0.79728 0.39577 0.91388
 C399 C 0.70188 0.41439 0.89610
 C400 C 0.71619 0.43016 0.87906
 H401 H 0.79351 0.36654 0.94322
 H402 H 0.81847 0.39523 0.91469
 H403 H 0.68069 0.41548 0.89581
 H404 H 0.70563 0.44295 0.86612
 H405 H 0.67923 0.38347 0.93134
 H406 H 0.75128 0.35122 0.96067
 H407 H 0.81997 0.43006 0.88188
 H408 H 0.74789 0.45954 0.84989
 C409 C 0.25808 0.60334 0.91384
 C410 C 0.28555 0.60209 0.91373
 C411 C 0.29975 0.61743 0.93120
 C412 C 0.28665 0.63425 0.94832
 C413 C 0.25913 0.63577 0.94770
 C414 C 0.24471 0.62006 0.93075
 C415 C 0.24302 0.58637 0.89635
 C416 C 0.21553 0.58671 0.89733
 C417 C 0.20132 0.56966 0.88151
 C418 C 0.21444 0.55276 0.86448
 C419 C 0.24197 0.55320 0.86320
 C420 C 0.25639 0.56971 0.87939
 C421 C 0.21720 0.62030 0.93073
 C422 C 0.20286 0.60379 0.91441
 C423 C 0.29823 0.58527 0.89640
 C424 C 0.28390 0.56946 0.87941
 H425 H 0.20667 0.63309 0.94371
 H426 H 0.18167 0.60431 0.91528
 H427 H 0.31942 0.58422 0.89605
 H428 H 0.29443 0.55666 0.86645
 H429 H 0.32095 0.61630 0.93152
 H430 H 0.24894 0.64851 0.96102
 H431 H 0.18012 0.56944 0.88248
 H432 H 0.25215 0.54001 0.85033
 C433 C 0.08707 0.25877 0.39661
 C434 C 0.08733 0.28605 0.39800
 C435 C 0.06984 0.30032 0.38268
 C436 C 0.05256 0.28747 0.36577
 C437 C 0.05306 0.26015 0.36410
 C438 C 0.07002 0.24567 0.37978
 C439 C 0.10453 0.24363 0.41356
 C440 C 0.10333 0.21634 0.41309
 C441 C 0.11907 0.20206 0.43013
 C442 C 0.13623 0.21489 0.44715
 C443 C 0.13775 0.24223 0.44686
 C444 C 0.12162 0.25673 0.43036
 C445 C 0.06985 0.21835 0.37940
 C446 C 0.08612 0.20393 0.39589
 C447 C 0.10482 0.29846 0.41494
 C448 C 0.12178 0.28405 0.43074
 H449 H 0.05676 0.20802 0.36652
 H450 H 0.08510 0.18290 0.39527
 H451 H 0.10529 0.31949 0.41610
 H452 H 0.13485 0.29437 0.44364
 H453 H 0.06960 0.32136 0.38393
 H454 H 0.03961 0.25016 0.35130
 H455 H 0.11793 0.18100 0.43025
 H456 H 0.15073 0.25219 0.46015
 C457 C 0.08757 0.74096 0.60330
 C458 C 0.07057 0.75409 0.62014
 C459 C 0.05363 0.73963 0.63587
 C460 C 0.05312 0.71231 0.63426
 C461 C 0.07036 0.69943 0.61734
 C462 C 0.08783 0.71368 0.60197
 C463 C 0.10498 0.75608 0.58627
 C464 C 0.12203 0.74295 0.56945
 C465 C 0.13811 0.75742 0.55287
 C466 C 0.13659 0.78475 0.55252
 C467 C 0.11948 0.79762 0.56956
 C468 C 0.10379 0.78336 0.58668
 C469 C 0.10527 0.70124 0.58501
 C470 C 0.12219 0.71563 0.56914
 C471 C 0.07041 0.78141 0.62046
 C472 C 0.08663 0.79580 0.60390
 H473 H 0.10573 0.68021 0.58389
 H474 H 0.13522 0.70528 0.55622
 H475 H 0.05734 0.79175 0.63335
 H476 H 0.08562 0.81683 0.60448
 H477 H 0.04020 0.74965 0.64867
 H478 H 0.07010 0.67839 0.61613
 H479 H 0.15105 0.74744 0.53957
 H480 H 0.11834 0.81867 0.56941
 C481 C 0.91256 0.74116 0.39678
 C482 C 0.91232 0.71388 0.39807
 C483 C 0.92982 0.69967 0.38270
 C484 C 0.94707 0.71258 0.36582
 C485 C 0.94654 0.73991 0.36424
 C486 C 0.92958 0.75433 0.37998
 C487 C 0.89511 0.75624 0.41381
 C488 C 0.89629 0.78352 0.41343
 C489 C 0.88057 0.79775 0.43055
 C490 C 0.86346 0.78484 0.44757
 C491 C 0.86195 0.75751 0.44718
 C492 C 0.87806 0.74308 0.43059
 C493 C 0.92971 0.78164 0.37968
 C494 C 0.91346 0.79600 0.39624
 C495 C 0.89487 0.70140 0.41499
 C496 C 0.87792 0.71575 0.43087
 H497 H 0.94279 0.79202 0.36683
 H498 H 0.91446 0.81704 0.39570
 H499 H 0.89443 0.68037 0.41609
 H500 H 0.86488 0.70538 0.44376
 H501 H 0.93009 0.67862 0.38389
 H502 H 0.95998 0.74995 0.35146
 H503 H 0.88170 0.81880 0.43074
 H504 H 0.84902 0.74750 0.46046
 C505 C 0.91304 0.25873 0.60254
 C506 C 0.93015 0.24554 0.61923
 C507 C 0.94705 0.25994 0.63506
 C508 C 0.94743 0.28729 0.63369
 C509 C 0.93010 0.30022 0.61691
 C510 C 0.91267 0.28602 0.60145
 C511 C 0.89562 0.24368 0.58545
 C512 C 0.87843 0.25687 0.56884
 C513 C 0.86227 0.24247 0.55227
 C514 C 0.86381 0.21514 0.55174
 C515 C 0.88111 0.20220 0.56854
 C516 C 0.89689 0.21639 0.58565
 C517 C 0.89512 0.29852 0.58466
 C518 C 0.87818 0.28419 0.56874
 C519 C 0.93042 0.21822 0.61932
 C520 C 0.91418 0.20389 0.60270
 H521 H 0.89457 0.31956 0.58371
 H522 H 0.86504 0.29459 0.55597
 H523 H 0.94356 0.20782 0.63208
 H524 H 0.91526 0.18285 0.60312
 H525 H 0.96055 0.24989 0.64776
 H526 H 0.93026 0.32128 0.61588
 H527 H 0.84919 0.25252 0.53916
 H528 H 0.88227 0.18116 0.56825
 C529 C 0.39499 0.08705 0.25744
 C530 C 0.37802 0.06995 0.24452
 C531 C 0.36222 0.05307 0.25899
 C532 C 0.36395 0.05272 0.28611
 C533 C 0.38097 0.07007 0.29877
 C534 C 0.39638 0.08748 0.28451
 C535 C 0.41213 0.10437 0.24231
 C536 C 0.42909 0.12149 0.25524
 C537 C 0.44582 0.13746 0.24077
 C538 C 0.44618 0.13578 0.21365
 C539 C 0.42897 0.11861 0.20098
 C540 C 0.41171 0.10301 0.21524
 C541 C 0.41347 0.10499 0.29675
 C542 C 0.42944 0.12182 0.28235
 C543 C 0.37766 0.06963 0.21740
 C544 C 0.39433 0.08577 0.20300
 H545 H 0.41463 0.10558 0.31762
 H546 H 0.44246 0.13492 0.29254
 H547 H 0.36467 0.05649 0.20722
 H548 H 0.39374 0.08463 0.18213
 H549 H 0.34934 0.03954 0.24916
 H550 H 0.38227 0.06993 0.31966
 H551 H 0.45924 0.15044 0.25061
 H552 H 0.42912 0.11735 0.18009
 C553 C 0.60505 0.08726 0.74242
 C554 C 0.62211 0.07024 0.75531
 C555 C 0.63794 0.05342 0.74081
 C556 C 0.63617 0.05305 0.71370
 C557 C 0.61906 0.07032 0.70106
 C558 C 0.60361 0.08766 0.71535
 C559 C 0.58787 0.10452 0.75758
 C560 C 0.57083 0.12156 0.74468
 C561 C 0.55409 0.13748 0.75918
 C562 C 0.55379 0.13583 0.78631
 C563 C 0.57108 0.11873 0.79894
 C564 C 0.58836 0.10318 0.78465
 C565 C 0.58644 0.10510 0.70314
 C566 C 0.57044 0.12188 0.71757
 C567 C 0.62251 0.06993 0.78243
 C568 C 0.60581 0.08602 0.79686
 H569 H 0.58524 0.10568 0.68227
 H570 H 0.55735 0.13492 0.70740
 H571 H 0.63556 0.05686 0.79259
 H572 H 0.60645 0.08490 0.81773
 H573 H 0.65089 0.03996 0.75063
 H574 H 0.61773 0.07016 0.68018
 H575 H 0.54062 0.15042 0.74936
 H576 H 0.57098 0.11749 0.81983
 C577 C 0.39493 0.91312 0.74255
 C578 C 0.37793 0.93022 0.75543
 C579 C 0.36212 0.94704 0.74092
 C580 C 0.36386 0.94735 0.71380
 C581 C 0.38091 0.93000 0.70118
 C582 C 0.39634 0.91265 0.71548
 C583 C 0.41207 0.89585 0.75772
 C584 C 0.42905 0.87873 0.74483
 C585 C 0.44576 0.86279 0.75934
 C586 C 0.44609 0.86449 0.78646
 C587 C 0.42888 0.88167 0.79909
 C588 C 0.41162 0.89724 0.78479
 C589 C 0.41344 0.89514 0.70328
 C590 C 0.42941 0.87835 0.71772
 C591 C 0.37756 0.93059 0.78255
 C592 C 0.39423 0.91448 0.79699
 H593 H 0.41462 0.89452 0.68241
 H594 H 0.44245 0.86526 0.70756
 H595 H 0.36456 0.94372 0.79270
 H596 H 0.39362 0.91566 0.81786
 H597 H 0.34922 0.96056 0.75072
 H598 H 0.38221 0.93010 0.68029
 H599 H 0.45918 0.84979 0.74952
 H600 H 0.42900 0.88296 0.81998
 C601 C 0.60539 0.91310 0.25786
 C602 C 0.60401 0.91238 0.28493
 C603 C 0.61931 0.92974 0.29937
 C604 C 0.63620 0.94735 0.28691
 C605 C 0.63794 0.94728 0.25979
 C606 C 0.62225 0.93045 0.24513
 C607 C 0.58833 0.89584 0.24255
 C608 C 0.58873 0.89749 0.21549
 C609 C 0.57154 0.88193 0.20107
 C610 C 0.55443 0.86453 0.21356
 C611 C 0.55483 0.86259 0.24067
 C612 C 0.57148 0.87850 0.25530
 C613 C 0.62259 0.93106 0.21801
 C614 C 0.60600 0.91496 0.20345
 C615 C 0.58704 0.89464 0.29698
 C616 C 0.57115 0.87787 0.28241
 H617 H 0.63548 0.94438 0.20797
 H618 H 0.60657 0.91633 0.18258
 H619 H 0.58589 0.89382 0.31785
 H620 H 0.55821 0.86460 0.29246
 H621 H 0.61800 0.92965 0.32026
 H622 H 0.65072 0.96101 0.25011
 H623 H 0.57137 0.88341 0.18020
 H624 H 0.54150 0.84942 0.25039
 C625 C 0.39603 0.25812 0.91273
 C626 C 0.39755 0.28539 0.91253
 C627 C 0.38203 0.29969 0.92976
 C628 C 0.36477 0.28689 0.94672
 C629 C 0.36293 0.25958 0.94615
 C630 C 0.37883 0.24506 0.92944
 C631 C 0.41326 0.24295 0.89557
 C632 C 0.41269 0.21567 0.89669
 C633 C 0.43001 0.20135 0.88122
 C634 C 0.44741 0.21417 0.86442
 C635 C 0.44720 0.24150 0.86299
 C636 C 0.43043 0.25602 0.87883
 C637 C 0.37835 0.21774 0.92953
 C638 C 0.39510 0.20329 0.91354
 C639 C 0.41485 0.29778 0.89540
 C640 C 0.43090 0.28334 0.87872
 H641 H 0.36519 0.20744 0.94236
 H642 H 0.39440 0.18226 0.91450
 H643 H 0.41611 0.31880 0.89500
 H644 H 0.44409 0.29364 0.86592
 H645 H 0.38342 0.32073 0.93007
 H646 H 0.34986 0.24964 0.95936
 H647 H 0.43004 0.18030 0.88229
 H648 H 0.46077 0.25146 0.85028
 C649 C 0.60414 0.74204 0.91235
 C650 C 0.60264 0.71477 0.91207
 C651 C 0.61820 0.70044 0.92923
 C652 C 0.63549 0.71321 0.94619
 C653 C 0.63732 0.74052 0.94569
 C654 C 0.62137 0.75507 0.92907
 C655 C 0.58686 0.75725 0.89528
 C656 C 0.58740 0.78453 0.89649
 C657 C 0.57003 0.79888 0.88111
 C658 C 0.55261 0.78609 0.86430
 C659 C 0.55284 0.75876 0.86278
 C660 C 0.56966 0.74421 0.87854
 C661 C 0.62183 0.78239 0.92925
 C662 C 0.60502 0.79688 0.91334
 C663 C 0.58531 0.70242 0.89494
 C664 C 0.56921 0.71690 0.87834
 H665 H 0.63501 0.79267 0.94209
 H666 H 0.60571 0.81791 0.91437
 H667 H 0.58406 0.68140 0.89447
 H668 H 0.55600 0.70662 0.86553
 H669 H 0.61683 0.67940 0.92947
 H670 H 0.65041 0.75043 0.95892
 H671 H 0.56999 0.81993 0.88224
 H672 H 0.53926 0.74883 0.85007
 C673 C 0.39653 0.74206 0.08722
 C674 C 0.39799 0.71479 0.08752
 C675 C 0.38239 0.70045 0.07038
 C676 C 0.36512 0.71320 0.05342
 C677 C 0.36334 0.74052 0.05388
 C678 C 0.37933 0.75509 0.07049
 C679 C 0.41384 0.75728 0.10428
 C680 C 0.41333 0.78456 0.10306
 C681 C 0.43070 0.79892 0.11847
 C682 C 0.44808 0.78614 0.13531
 C683 C 0.44782 0.75881 0.13682
 C684 C 0.43100 0.74425 0.12105
 C685 C 0.37891 0.78240 0.07029
 C686 C 0.39574 0.79690 0.08619
 C687 C 0.41530 0.70245 0.10466
 C688 C 0.43142 0.71694 0.12126
 H689 H 0.36575 0.79268 0.05744
 H690 H 0.39507 0.81793 0.08515
 H691 H 0.41651 0.68143 0.10515
 H692 H 0.44460 0.70666 0.13408
 H693 H 0.38373 0.67941 0.07016
 H694 H 0.35026 0.75042 0.04065
 H695 H 0.43076 0.81997 0.11733
 H696 H 0.46137 0.74888 0.14956
 C697 C 0.60418 0.25806 0.08752
 C698 C 0.62139 0.24500 0.07081
 C699 C 0.63727 0.25952 0.05408
 C700 C 0.63539 0.28682 0.05348
 C701 C 0.61812 0.29962 0.07042
 C702 C 0.60263 0.28532 0.08768
 C703 C 0.58698 0.24288 0.10470
 C704 C 0.56980 0.25595 0.12142
 C705 C 0.55303 0.24143 0.13727
 C706 C 0.55284 0.21409 0.13586
 C707 C 0.57026 0.20128 0.11908
 C708 C 0.58757 0.21560 0.10361
 C709 C 0.58532 0.29770 0.10480
 C710 C 0.56929 0.28326 0.12150
 C711 C 0.62191 0.21768 0.07075
 C712 C 0.60517 0.20322 0.08676
 H713 H 0.58404 0.31873 0.10518
 H714 H 0.55609 0.29356 0.13429
 H715 H 0.63507 0.20738 0.05793
 H716 H 0.60590 0.18219 0.08583
 H717 H 0.65035 0.24958 0.04087
 H718 H 0.61672 0.32065 0.07009
 H719 H 0.53944 0.25138 0.14996
 H720 H 0.57024 0.18022 0.11802
 C721 C 0.25808 0.08810 0.60405
 C722 C 0.28555 0.08803 0.60279
 C723 C 0.29964 0.07061 0.61829
 C724 C 0.28643 0.05370 0.63525
 C725 C 0.25892 0.05454 0.63680
 C726 C 0.24461 0.07145 0.62095
 C727 C 0.24312 0.10544 0.58686
 C728 C 0.21564 0.10457 0.58721
 C729 C 0.20152 0.12017 0.56993
 C730 C 0.21471 0.13684 0.55274
 C731 C 0.24225 0.13806 0.55318
 C732 C 0.25658 0.12209 0.56995
 C733 C 0.21711 0.07162 0.62121
 C734 C 0.20286 0.08780 0.60451
 C735 C 0.29833 0.10510 0.58577
 C736 C 0.28409 0.12194 0.56972
 H737 H 0.20650 0.05885 0.63414
 H738 H 0.18167 0.08704 0.60504
 H739 H 0.31951 0.10531 0.58470
 H740 H 0.29470 0.13467 0.55675
 H741 H 0.32083 0.07011 0.61713
 H742 H 0.24865 0.04138 0.64964
 H743 H 0.18031 0.11926 0.56974
 H744 H 0.25249 0.15068 0.53979
 C745 C 0.73928 0.08847 0.39702
 C746 C 0.75178 0.07659 0.37597
 C747 C 0.73752 0.05954 0.36017
 C748 C 0.71119 0.05342 0.36597
 C749 C 0.69903 0.06567 0.38724
 C750 C 0.71287 0.08343 0.40257
 C751 C 0.75431 0.10604 0.41396
 C752 C 0.74169 0.11817 0.43484
 C753 C 0.75618 0.13444 0.45119
 C754 C 0.78323 0.13775 0.44731
 C755 C 0.79563 0.12547 0.42636
 C756 C 0.78114 0.10986 0.40934
 C757 C 0.70092 0.09599 0.42359
 C758 C 0.71503 0.11323 0.43932
 C759 C 0.77847 0.08152 0.37151
 C760 C 0.79296 0.09768 0.38805
 H761 H 0.68050 0.09237 0.42798
 H762 H 0.70511 0.12241 0.45540
 H763 H 0.78837 0.07243 0.35536
 H764 H 0.81360 0.10059 0.38419
 H765 H 0.74729 0.05028 0.34403
 H766 H 0.67877 0.06148 0.39189
 H767 H 0.74672 0.14365 0.46755
 H768 H 0.81648 0.12809 0.42337
 C769 C 0.74187 0.91168 0.60459
 C770 C 0.71441 0.91182 0.60326
 C771 C 0.70033 0.92937 0.61865
 C772 C 0.71355 0.94632 0.63555
 C773 C 0.74105 0.94541 0.63719
 C774 C 0.75535 0.92838 0.62145
 C775 C 0.75683 0.89422 0.58751
 C776 C 0.78431 0.89503 0.58791
 C777 C 0.79843 0.87934 0.57071
 C778 C 0.78523 0.86264 0.55354
 C779 C 0.75769 0.86147 0.55394
 C780 C 0.74336 0.87753 0.57063
 C781 C 0.78285 0.92814 0.62178
 C782 C 0.79710 0.91184 0.60518
 C783 C 0.70162 0.89471 0.58628
 C784 C 0.71586 0.87775 0.57034
 H785 H 0.79347 0.94095 0.63468
 H786 H 0.81829 0.91256 0.60575
 H787 H 0.68044 0.89455 0.58516
 H788 H 0.70524 0.86500 0.55738
 H789 H 0.67915 0.92992 0.61743
 H790 H 0.75133 0.95861 0.64999
 H791 H 0.81964 0.88021 0.57054
 H792 H 0.74745 0.84884 0.54056
 C793 C 0.25836 0.91153 0.39553
 C794 C 0.28583 0.91164 0.39681
 C795 C 0.29991 0.92909 0.38132
 C796 C 0.28670 0.94598 0.36436
 C797 C 0.25919 0.94509 0.36278
 C798 C 0.24489 0.92815 0.37862
 C799 C 0.24340 0.89417 0.41271
 C800 C 0.21592 0.89500 0.41235
 C801 C 0.20180 0.87940 0.42963
 C802 C 0.21500 0.86276 0.44683
 C803 C 0.24253 0.86157 0.44642
 C804 C 0.25687 0.87755 0.42964
 C805 C 0.21738 0.92794 0.37834
 C806 C 0.20314 0.91175 0.39503
 C807 C 0.29861 0.89460 0.41385
 C808 C 0.28437 0.87773 0.42988
 H809 H 0.20677 0.94070 0.36540
 H810 H 0.18195 0.91248 0.39449
 H811 H 0.31980 0.89442 0.41492
 H812 H 0.29498 0.86503 0.44287
 H813 H 0.32110 0.92963 0.38251
 H814 H 0.24892 0.95824 0.34994
 H815 H 0.18059 0.88028 0.42982
 H816 H 0.25278 0.84898 0.45981
 C817 C 0.08856 0.39575 0.74108
 C818 C 0.07170 0.37846 0.75390
 C819 C 0.05479 0.36274 0.73936
 C820 C 0.05416 0.36483 0.71227
 C821 C 0.07127 0.38216 0.69970
 C822 C 0.08871 0.39751 0.71403
 C823 C 0.10588 0.41282 0.75630
 C824 C 0.12274 0.43010 0.74348
 C825 C 0.13867 0.44678 0.75805
 C826 C 0.13718 0.44677 0.78519
 C827 C 0.12029 0.42921 0.79774
 C828 C 0.10475 0.41200 0.78338
 C829 C 0.10599 0.41491 0.70189
 C830 C 0.12283 0.43082 0.71637
 C831 C 0.07163 0.37772 0.78102
 C832 C 0.08777 0.39432 0.79551
 H833 H 0.10637 0.41636 0.68103
 H834 H 0.13572 0.44410 0.70625
 H835 H 0.05869 0.36449 0.79113
 H836 H 0.08680 0.39343 0.81638
 H837 H 0.04146 0.34961 0.74913
 H838 H 0.07092 0.38374 0.67884
 H839 H 0.15144 0.46046 0.74830
 H840 H 0.11917 0.42907 0.81864
 C841 C 0.08856 0.60419 0.25897
 C842 C 0.08861 0.60241 0.28603
 C843 C 0.07112 0.61775 0.30029
 C844 C 0.05406 0.63507 0.28766
 C845 C 0.05480 0.63718 0.26058
 C846 C 0.07175 0.62147 0.24609
 C847 C 0.10593 0.58713 0.24381
 C848 C 0.10490 0.58795 0.21673
 C849 C 0.12047 0.57074 0.20242
 C850 C 0.13729 0.55318 0.21504
 C851 C 0.13870 0.55316 0.24217
 C852 C 0.12273 0.56984 0.25669
 C853 C 0.07179 0.62222 0.21898
 C854 C 0.08797 0.60563 0.20454
 C855 C 0.10583 0.58501 0.29822
 C856 C 0.12272 0.56911 0.28381
 H857 H 0.05889 0.63545 0.20883
 H858 H 0.08709 0.60652 0.18367
 H859 H 0.10613 0.58355 0.31909
 H860 H 0.13556 0.55583 0.29396
 H861 H 0.07068 0.61616 0.32115
 H862 H 0.04150 0.65030 0.25077
 H863 H 0.11942 0.57088 0.18152
 H864 H 0.15141 0.53947 0.25197
 C865 C 0.91137 0.39618 0.25890
 C866 C 0.92815 0.37885 0.24604
 C867 C 0.94508 0.36314 0.26054
 C868 C 0.94581 0.36528 0.28763
 C869 C 0.92878 0.38265 0.30023
 C870 C 0.91132 0.39800 0.28596
 C871 C 0.89403 0.41324 0.24373
 C872 C 0.87724 0.43057 0.25658
 C873 C 0.86130 0.44723 0.24204
 C874 C 0.86270 0.44716 0.21490
 C875 C 0.87950 0.42956 0.20231
 C876 C 0.89506 0.41237 0.21665
 C877 C 0.89412 0.41544 0.29813
 C878 C 0.87726 0.43134 0.28370
 C879 C 0.92812 0.37806 0.21893
 C880 C 0.91196 0.39464 0.20448
 H881 H 0.89382 0.41693 0.31899
 H882 H 0.86443 0.44465 0.29383
 H883 H 0.94100 0.36479 0.20879
 H884 H 0.91284 0.39371 0.18360
 H885 H 0.95835 0.34998 0.25074
 H886 H 0.92921 0.38426 0.32110
 H887 H 0.84859 0.46096 0.25182
 H888 H 0.88055 0.42938 0.18141
 C889 C 0.91152 0.60386 0.74090
 C890 C 0.92830 0.62117 0.75380
 C891 C 0.94526 0.63689 0.73932
 C892 C 0.94603 0.63477 0.71224
 C893 C 0.92898 0.61742 0.69960
 C894 C 0.91149 0.60206 0.71385
 C895 C 0.89415 0.58678 0.75605
 C896 C 0.87737 0.56946 0.74316
 C897 C 0.86142 0.55277 0.75767
 C898 C 0.86281 0.55280 0.78481
 C899 C 0.87961 0.57040 0.79744
 C900 C 0.89517 0.58762 0.78313
 C901 C 0.89429 0.58464 0.70164
 C902 C 0.87740 0.56872 0.71605
 C903 C 0.92825 0.62194 0.78091
 C904 C 0.91207 0.60534 0.79533
 H905 H 0.89400 0.58316 0.68078
 H906 H 0.86457 0.55542 0.70589
 H907 H 0.94114 0.63519 0.79107
 H908 H 0.91294 0.60624 0.81621
 H909 H 0.95854 0.65003 0.74915
 H910 H 0.92943 0.61582 0.67874
 H911 H 0.84871 0.53905 0.74788
 H912 H 0.88064 0.57055 0.81834
 C913 C 0.74022 0.60246 0.91225
 C914 C 0.71378 0.59691 0.91713
 C915 C 0.69987 0.61243 0.93464
 C916 C 0.71197 0.63391 0.94679
 C917 C 0.73835 0.63969 0.94085
 C918 C 0.75269 0.62369 0.92405
 C919 C 0.75530 0.58535 0.89488
 C920 C 0.78214 0.58998 0.89117
 C921 C 0.79666 0.57286 0.87565
 C922 C 0.78424 0.55181 0.86335
 C923 C 0.75719 0.54791 0.86660
 C924 C 0.74269 0.56435 0.88278
 C925 C 0.77942 0.62813 0.91928
 C926 C 0.79394 0.61143 0.90330
 C927 C 0.70185 0.57574 0.90464
 C928 C 0.71601 0.55986 0.88759
 H929 H 0.78930 0.64440 0.92831
 H930 H 0.81460 0.61530 0.90049
 H931 H 0.68141 0.57134 0.90814
 H932 H 0.70608 0.54368 0.87843
 H933 H 0.67957 0.60777 0.93869
 H934 H 0.74809 0.65598 0.95005
 H935 H 0.81750 0.57587 0.87307
 H936 H 0.74771 0.53148 0.85738
 C937 C 0.25988 0.39730 0.91286
 C938 C 0.28631 0.40290 0.91772
 C939 C 0.30025 0.38744 0.93526
 C940 C 0.28818 0.36598 0.94745
 C941 C 0.26181 0.36015 0.94152
 C942 C 0.24744 0.37609 0.92470
 C943 C 0.24478 0.41434 0.89545
 C944 C 0.21794 0.40967 0.89175
 C945 C 0.20340 0.42673 0.87620
 C946 C 0.21578 0.44776 0.86385
 C947 C 0.24283 0.45170 0.86709
 C948 C 0.25735 0.43533 0.88330
 C949 C 0.22072 0.37160 0.91994
 C950 C 0.20617 0.38824 0.90393
 C951 C 0.29821 0.42405 0.90518
 C952 C 0.28403 0.43987 0.88810
 H953 H 0.21086 0.35533 0.92901
 H954 H 0.18552 0.38433 0.90113
 H955 H 0.31865 0.42849 0.90868
 H956 H 0.29393 0.45604 0.87890
 H957 H 0.32054 0.39214 0.93929
 H958 H 0.25210 0.34387 0.95076
 H959 H 0.18256 0.42368 0.87363
 H960 H 0.25229 0.46813 0.85784
 C961 C 0.26012 0.60263 0.08757
 C962 C 0.28654 0.59704 0.08268
 C963 C 0.30049 0.61251 0.06515
 C964 C 0.28843 0.63399 0.05299
 C965 C 0.26207 0.63982 0.05894
 C966 C 0.24770 0.62386 0.07575
 C967 C 0.24501 0.58557 0.10496
 C968 C 0.21817 0.59025 0.10868
 C969 C 0.20362 0.57317 0.12420
 C970 C 0.21599 0.55211 0.13653
 C971 C 0.24303 0.54817 0.13327
 C972 C 0.25757 0.56456 0.11707
 C973 C 0.22099 0.62835 0.08053
 C974 C 0.20642 0.61170 0.09653
 C975 C 0.29843 0.57586 0.09519
 C976 C 0.28424 0.56003 0.11226
 H977 H 0.21114 0.64463 0.07149
 H978 H 0.18577 0.61561 0.09935
 H979 H 0.31886 0.57142 0.09168
 H980 H 0.29413 0.54384 0.12143
 H981 H 0.32077 0.60781 0.06110
 H982 H 0.25236 0.65611 0.04973
 H983 H 0.18278 0.57622 0.12679
 H984 H 0.25247 0.53173 0.14250
 C985 C 0.74014 0.39740 0.08737
 C986 C 0.75260 0.37619 0.07554
 C987 C 0.73826 0.36021 0.05872
 C988 C 0.71189 0.36600 0.05278
 C989 C 0.69979 0.38745 0.06496
 C990 C 0.71370 0.40295 0.08249
 C991 C 0.75521 0.41449 0.10476
 C992 C 0.74261 0.43548 0.11688
 C993 C 0.75711 0.45191 0.13307
 C994 C 0.78417 0.44802 0.13631
 C995 C 0.79657 0.42699 0.12399
 C996 C 0.78206 0.40988 0.10847
 C997 C 0.70177 0.42410 0.09500
 C998 C 0.71593 0.43996 0.11208
 C999 C 0.77932 0.37176 0.08031
 C1000 C 0.79386 0.38845 0.09631
 H1001 H 0.68133 0.42849 0.09150
 H1002 H 0.70601 0.45613 0.12126
 H1003 H 0.78920 0.35550 0.07126
 H1004 H 0.81451 0.38458 0.09912
 H1005 H 0.74799 0.34394 0.04950
 H1006 H 0.67949 0.39211 0.06091
 H1007 H 0.74764 0.46833 0.14230
 H1008 H 0.81742 0.42399 0.12656
 C1009 C 0.91253 0.73920 0.60243
 C1010 C 0.91733 0.71293 0.59686
 C1011 C 0.93495 0.69896 0.61228
 C1012 C 0.94728 0.71085 0.63367
 C1013 C 0.94140 0.73706 0.63947
 C1014 C 0.92451 0.75145 0.62358
 C1015 C 0.89506 0.75433 0.58544
 C1016 C 0.89146 0.78100 0.59010
 C1017 C 0.87590 0.79556 0.57309
 C1018 C 0.86341 0.78338 0.55212
 C1019 C 0.86653 0.75651 0.54818
 C1020 C 0.88278 0.74195 0.56451
 C1021 C 0.91983 0.77801 0.62805
 C1022 C 0.90378 0.79258 0.61146
 C1023 C 0.90465 0.70122 0.57577
 C1024 C 0.88750 0.71543 0.56000
 H1025 H 0.92900 0.78772 0.64426
 H1026 H 0.90105 0.81311 0.61535
 H1027 H 0.90808 0.68091 0.57136
 H1028 H 0.87819 0.70568 0.54388
 H1029 H 0.93895 0.67880 0.60761
 H1030 H 0.95074 0.74664 0.65569
 H1031 H 0.87342 0.81628 0.57614
 H1032 H 0.85716 0.74721 0.53181
 C1033 C 0.91150 0.26094 0.39709
 C1034 C 0.92349 0.24868 0.37596
 C1035 C 0.94054 0.26302 0.36018
 C1036 C 0.94657 0.28918 0.36607
 C1037 C 0.93421 0.30108 0.38743
 C1038 C 0.91644 0.28717 0.40274
 C1039 C 0.89390 0.24585 0.41399
 C1040 C 0.88165 0.25823 0.43493
 C1041 C 0.86534 0.24369 0.45124
 C1042 C 0.86214 0.21682 0.44726
 C1043 C 0.87456 0.20465 0.42624
 C1044 C 0.89019 0.21920 0.40927
 C1045 C 0.90376 0.29889 0.42383
 C1046 C 0.88649 0.28471 0.43953
 C1047 C 0.91867 0.22216 0.37140
 C1048 C 0.90249 0.20762 0.38791
 H1049 H 0.90730 0.31917 0.42830
 H1050 H 0.87721 0.29446 0.45565
 H1051 H 0.92784 0.21245 0.35520
 H1052 H 0.89967 0.18712 0.38397
 H1053 H 0.94989 0.25344 0.34397
 H1054 H 0.93832 0.32122 0.39217
 H1055 H 0.85605 0.25297 0.46765
 H1056 H 0.87203 0.18395 0.42318
 C1057 C 0.08782 0.26039 0.60218
 C1058 C 0.08310 0.28669 0.59668
 C1059 C 0.06553 0.30068 0.61214
 C1060 C 0.05316 0.28878 0.63350
 C1061 C 0.05899 0.26255 0.63923
 C1062 C 0.07583 0.24814 0.62330
 C1063 C 0.10521 0.24524 0.58512
 C1064 C 0.10872 0.21855 0.58969
 C1065 C 0.12420 0.20397 0.57262
 C1066 C 0.13669 0.21615 0.55166
 C1067 C 0.13366 0.24305 0.54780
 C1068 C 0.11750 0.25762 0.56420
 C1069 C 0.08042 0.22156 0.62769
 C1070 C 0.09640 0.20696 0.61105
 C1071 C 0.09579 0.29841 0.57560
 C1072 C 0.11287 0.28417 0.55977
 H1073 H 0.07124 0.21184 0.64389
 H1074 H 0.09906 0.18642 0.61488
 H1075 H 0.09242 0.31874 0.57125
 H1076 H 0.12218 0.29392 0.54366
 H1077 H 0.06158 0.32087 0.60752
 H1078 H 0.04962 0.25296 0.65543
 H1079 H 0.12661 0.18324 0.57560
 H1080 H 0.14303 0.25235 0.53144
 C1081 C 0.08779 0.73937 0.39755
 C1082 C 0.08296 0.71310 0.40308
 C1083 C 0.06530 0.69916 0.38765
 C1084 C 0.05297 0.71108 0.36630
 C1085 C 0.05889 0.73729 0.36053
 C1086 C 0.07581 0.75165 0.37643
 C1087 C 0.10526 0.75448 0.41456
 C1088 C 0.10888 0.78116 0.40995
 C1089 C 0.12444 0.79570 0.42700
 C1090 C 0.13690 0.78350 0.44796
 C1091 C 0.13377 0.75661 0.45185
 C1092 C 0.11753 0.74208 0.43548
 C1093 C 0.08052 0.77821 0.37200
 C1094 C 0.09658 0.79276 0.38861
 C1095 C 0.09563 0.70136 0.42415
 C1096 C 0.11279 0.71555 0.43995
 H1097 H 0.07135 0.78794 0.35581
 H1098 H 0.09933 0.81329 0.38475
 H1099 H 0.09217 0.68105 0.42853
 H1100 H 0.12208 0.70579 0.45606
 H1101 H 0.06128 0.67899 0.39230
 H1102 H 0.04955 0.74689 0.34433
 H1103 H 0.12692 0.81642 0.42400
 H1104 H 0.14311 0.74730 0.46821
 C1105 C 0.60404 0.91308 0.74261
 C1106 C 0.62112 0.93009 0.75553
 C1107 C 0.63710 0.94682 0.74107
 C1108 C 0.63547 0.94713 0.71393
 C1109 C 0.61831 0.92989 0.70128
 C1110 C 0.60272 0.91263 0.71554
 C1111 C 0.58675 0.89588 0.75773
 C1112 C 0.56971 0.87884 0.74480
 C1113 C 0.55289 0.86294 0.75925
 C1114 C 0.55252 0.86459 0.78639
 C1115 C 0.56980 0.88170 0.79905
 C1116 C 0.58715 0.89723 0.78480
 C1117 C 0.58553 0.89521 0.70329
 C1118 C 0.56942 0.87849 0.71768
 C1119 C 0.62142 0.93042 0.78266
 C1120 C 0.60461 0.91439 0.79704
 H1121 H 0.58441 0.89460 0.68242
 H1122 H 0.55633 0.86547 0.70748
 H1123 H 0.63448 0.94348 0.79286
 H1124 H 0.60519 0.91554 0.81792
 H1125 H 0.65008 0.96025 0.75091
 H1126 H 0.61708 0.92998 0.68039
 H1127 H 0.53943 0.85000 0.74940
 H1128 H 0.56966 0.88296 0.81994
 C1129 C 0.39638 0.91284 0.25721
 C1130 C 0.37926 0.92979 0.24430
 C1131 C 0.36324 0.94647 0.25877
 C1132 C 0.36487 0.94679 0.28590
 C1133 C 0.38206 0.92960 0.29855
 C1134 C 0.39770 0.91239 0.28429
 C1135 C 0.41371 0.89569 0.24209
 C1136 C 0.43078 0.87870 0.25502
 C1137 C 0.44764 0.86284 0.24055
 C1138 C 0.44802 0.86450 0.21342
 C1139 C 0.43071 0.88157 0.20076
 C1140 C 0.41332 0.89705 0.21502
 C1141 C 0.41492 0.89502 0.29653
 C1142 C 0.43107 0.87835 0.28214
 C1143 C 0.37897 0.93013 0.21717
 C1144 C 0.39582 0.91415 0.20278
 H1145 H 0.41604 0.89441 0.31740
 H1146 H 0.44418 0.86536 0.29233
 H1147 H 0.36589 0.94315 0.20698
 H1148 H 0.39525 0.91530 0.18191
 H1149 H 0.35023 0.95986 0.24893
 H1150 H 0.38329 0.92969 0.31944
 H1151 H 0.46113 0.84994 0.25040
 H1152 H 0.43085 0.88283 0.17987
 C1153 C 0.60376 0.08733 0.25821
 C1154 C 0.62105 0.07045 0.24541
 C1155 C 0.63694 0.05374 0.25999
 C1156 C 0.63500 0.05331 0.28710
 C1157 C 0.61763 0.07041 0.29963
 C1158 C 0.60213 0.08766 0.28528
 C1159 C 0.58657 0.10452 0.24298
 C1160 C 0.56934 0.12143 0.25579
 C1161 C 0.55262 0.13732 0.24122
 C1162 C 0.55254 0.13576 0.21408
 C1163 C 0.57000 0.11876 0.20153
 C1164 C 0.58727 0.10326 0.21591
 C1165 C 0.58475 0.10496 0.29740
 C1166 C 0.56874 0.12167 0.28291
 C1167 C 0.62164 0.07022 0.21829
 C1168 C 0.60493 0.08623 0.20379
 H1169 H 0.58339 0.10548 0.31827
 H1170 H 0.55550 0.13460 0.29302
 H1171 H 0.63486 0.05727 0.20818
 H1172 H 0.60573 0.08516 0.18291
 H1173 H 0.65008 0.04041 0.25024
 H1174 H 0.61616 0.07023 0.32051
 H1175 H 0.53901 0.15017 0.25098
 H1176 H 0.57008 0.11758 0.18064
 C1177 C 0.39580 0.08737 0.74250
 C1178 C 0.37869 0.07040 0.75542
 C1179 C 0.36274 0.05364 0.74094
 C1180 C 0.36442 0.05328 0.71382
 C1181 C 0.38159 0.07050 0.70117
 C1182 C 0.39717 0.08778 0.71542
 C1183 C 0.41308 0.10458 0.75762
 C1184 C 0.43016 0.12158 0.74470
 C1185 C 0.44698 0.13747 0.75917
 C1186 C 0.44733 0.13584 0.78630
 C1187 C 0.43001 0.11877 0.79896
 C1188 C 0.41265 0.10325 0.78470
 C1189 C 0.41438 0.10517 0.70319
 C1190 C 0.43049 0.12189 0.71758
 C1191 C 0.37835 0.07009 0.78254
 C1192 C 0.39515 0.08614 0.79693
 H1193 H 0.41554 0.10574 0.68231
 H1194 H 0.44360 0.13489 0.70739
 H1195 H 0.36528 0.05706 0.79273
 H1196 H 0.39455 0.08501 0.81781
 H1197 H 0.34974 0.04023 0.75078
 H1198 H 0.38287 0.07037 0.68027
 H1199 H 0.46048 0.15038 0.74932
 H1200 H 0.43013 0.11753 0.81985
 C1201 C 0.60530 0.74238 0.08597
 C1202 C 0.60405 0.71510 0.08645
 C1203 C 0.61935 0.70077 0.06905
 C1204 C 0.63613 0.71355 0.05161
 C1205 C 0.63773 0.74088 0.05188
 C1206 C 0.62203 0.75543 0.06879
 C1207 C 0.58828 0.75757 0.10334
 C1208 C 0.58857 0.78484 0.10196
 C1209 C 0.57141 0.79915 0.11764
 C1210 C 0.55444 0.78635 0.13489
 C1211 C 0.55495 0.75903 0.13655
 C1212 C 0.57156 0.74451 0.12053
 C1213 C 0.62225 0.78275 0.06844
 C1214 C 0.60569 0.79720 0.08464
 C1215 C 0.58721 0.70273 0.10404
 C1216 C 0.57136 0.71719 0.12090
 H1217 H 0.63504 0.79305 0.05525
 H1218 H 0.60618 0.81823 0.08347
 H1219 H 0.58616 0.68170 0.10468
 H1220 H 0.55853 0.70689 0.13405
 H1221 H 0.61816 0.67973 0.06899
 H1222 H 0.65043 0.75080 0.03831
 H1223 H 0.57117 0.82019 0.11636
 H1224 H 0.54172 0.74906 0.14959
 C1225 C 0.39537 0.25777 0.08638
 C1226 C 0.37864 0.24469 0.06921
 C1227 C 0.36285 0.25921 0.05237
 C1228 C 0.36435 0.28655 0.05214
 C1229 C 0.38114 0.29935 0.06957
 C1230 C 0.39653 0.28505 0.08691
 C1231 C 0.41248 0.24261 0.10368
 C1232 C 0.42918 0.25570 0.12087
 C1233 C 0.44586 0.24122 0.13685
 C1234 C 0.44644 0.21389 0.13515
 C1235 C 0.42949 0.20106 0.11790
 C1236 C 0.41227 0.21534 0.10226
 C1237 C 0.41337 0.29745 0.10449
 C1238 C 0.42931 0.28302 0.12128
 C1239 C 0.37851 0.21737 0.06881
 C1240 C 0.39515 0.20294 0.08495
 H1241 H 0.41435 0.31848 0.10515
 H1242 H 0.44213 0.29335 0.13442
 H1243 H 0.36572 0.20704 0.05563
 H1244 H 0.39472 0.18191 0.08375
 H1245 H 0.35015 0.24926 0.03881
 H1246 H 0.38227 0.32040 0.06954
 H1247 H 0.45907 0.25121 0.14990
 H1248 H 0.42978 0.18002 0.11659
 C1249 C 0.60493 0.25775 0.91363
 C1250 C 0.62164 0.24466 0.93080
 C1251 C 0.63740 0.25917 0.94768
 C1252 C 0.63589 0.28650 0.94797
 C1253 C 0.61913 0.29932 0.93054
 C1254 C 0.60377 0.28503 0.91315
 C1255 C 0.58783 0.24261 0.89629
 C1256 C 0.57113 0.25571 0.87913
 C1257 C 0.55444 0.24124 0.86314
 C1258 C 0.55384 0.21392 0.86481
 C1259 C 0.57080 0.20107 0.88203
 C1260 C 0.58803 0.21534 0.89767
 C1261 C 0.58695 0.29744 0.89559
 C1262 C 0.57101 0.28303 0.87876
 C1263 C 0.62177 0.21734 0.93114
 C1264 C 0.60514 0.20293 0.91497
 H1265 H 0.58596 0.31848 0.89496
 H1266 H 0.55820 0.29336 0.86563
 H1267 H 0.63455 0.20700 0.94432
 H1268 H 0.60556 0.18190 0.91613
 H1269 H 0.65008 0.24921 0.96124
 H1270 H 0.61800 0.32037 0.93061
 H1271 H 0.54122 0.25124 0.85012
 H1272 H 0.57049 0.18003 0.88330
 C1273 C 0.39527 0.74223 0.91374
 C1274 C 0.37851 0.75527 0.93090
 C1275 C 0.36278 0.74073 0.94777
 C1276 C 0.36437 0.71339 0.94805
 C1277 C 0.38118 0.70062 0.93064
 C1278 C 0.39652 0.71495 0.91326
 C1279 C 0.41232 0.75742 0.89640
 C1280 C 0.42906 0.74436 0.87923
 C1281 C 0.44570 0.75889 0.86323
 C1282 C 0.44621 0.78621 0.86490
 C1283 C 0.42921 0.79901 0.88213
 C1284 C 0.41203 0.78469 0.89778
 C1285 C 0.41338 0.70259 0.89569
 C1286 C 0.42927 0.71704 0.87887
 C1287 C 0.37829 0.78260 0.93125
 C1288 C 0.39488 0.79705 0.91507
 H1289 H 0.41443 0.68156 0.89506
 H1290 H 0.44212 0.70675 0.86574
 H1291 H 0.36548 0.79289 0.94441
 H1292 H 0.39439 0.81808 0.91624
 H1293 H 0.35006 0.75065 0.96132
 H1294 H 0.38238 0.67957 0.93070
 H1295 H 0.45895 0.74893 0.85020
 H1296 H 0.42945 0.82005 0.88340
 C1297 C 0.74173 0.91362 0.39770
 C1298 C 0.71426 0.91346 0.39879
 C1299 C 0.70010 0.93088 0.38332
 C1300 C 0.71326 0.94799 0.36652
 C1301 C 0.74079 0.94742 0.36517
 C1302 C 0.75516 0.93052 0.38101
 C1303 C 0.75674 0.89616 0.41475
 C1304 C 0.78422 0.89718 0.41452
 C1305 C 0.79838 0.88134 0.43158
 C1306 C 0.78522 0.86425 0.44840
 C1307 C 0.75769 0.86297 0.44789
 C1308 C 0.74332 0.87918 0.43136
 C1309 C 0.78267 0.93055 0.38090
 C1310 C 0.79695 0.91427 0.39748
 C1311 C 0.70152 0.89612 0.41557
 C1312 C 0.71581 0.87916 0.43147
 H1313 H 0.79325 0.94352 0.36815
 H1314 H 0.81814 0.91516 0.39704
 H1315 H 0.68033 0.89573 0.41652
 H1316 H 0.70522 0.86619 0.44423
 H1317 H 0.67890 0.93116 0.38433
 H1318 H 0.75103 0.96073 0.35246
 H1319 H 0.81958 0.88231 0.43182
 H1320 H 0.74745 0.85005 0.46100
 C1321 C 0.25780 0.91327 0.60348
 C1322 C 0.28529 0.91300 0.60264
 C1323 C 0.29936 0.93039 0.61823
 C1324 C 0.28613 0.94757 0.63489
 C1325 C 0.25859 0.94708 0.63603
 C1326 C 0.24430 0.93021 0.62006
 C1327 C 0.24288 0.89589 0.58624
 C1328 C 0.21541 0.89702 0.58621
 C1329 C 0.20136 0.88128 0.56896
 C1330 C 0.21460 0.86418 0.55222
 C1331 C 0.24213 0.86279 0.55300
 C1332 C 0.25640 0.87889 0.56973
 C1333 C 0.21679 0.93034 0.61990
 C1334 C 0.20259 0.91413 0.60316
 C1335 C 0.29811 0.89563 0.58595
 C1336 C 0.28391 0.87876 0.56988
 H1337 H 0.20614 0.94335 0.63257
 H1338 H 0.18140 0.91511 0.60339
 H1339 H 0.31930 0.89517 0.58520
 H1340 H 0.29456 0.86576 0.55720
 H1341 H 0.32057 0.93061 0.61738
 H1342 H 0.24830 0.96045 0.64863
 H1343 H 0.18016 0.88233 0.56852
 H1344 H 0.25243 0.84985 0.53997
 C1345 C 0.25769 0.08634 0.39626
 C1346 C 0.24423 0.06933 0.37971
 C1347 C 0.25857 0.05249 0.36376
 C1348 C 0.28612 0.05210 0.36489
 C1349 C 0.29930 0.06935 0.38154
 C1350 C 0.28517 0.08670 0.39711
 C1351 C 0.24272 0.10370 0.41347
 C1352 C 0.25619 0.12078 0.42995
 C1353 C 0.24187 0.13688 0.44664
 C1354 C 0.21435 0.13541 0.44741
 C1355 C 0.20115 0.11823 0.43071
 C1356 C 0.21525 0.10249 0.41350
 C1357 C 0.29795 0.10414 0.41377
 C1358 C 0.28370 0.12100 0.42981
 C1359 C 0.21672 0.06911 0.37986
 C1360 C 0.20248 0.08530 0.39658
 H1361 H 0.31914 0.10467 0.41452
 H1362 H 0.29431 0.13405 0.44246
 H1363 H 0.20611 0.05605 0.36721
 H1364 H 0.18129 0.08426 0.39634
 H1365 H 0.24832 0.03907 0.35117
 H1366 H 0.32051 0.06920 0.38239
 H1367 H 0.25215 0.14988 0.45964
 H1368 H 0.17996 0.11711 0.43115
 C1369 C 0.74226 0.08678 0.60331
 C1370 C 0.71477 0.08718 0.60265
 C1371 C 0.70072 0.06982 0.61827
 C1372 C 0.71398 0.05253 0.63479
 C1373 C 0.74153 0.05287 0.63574
 C1374 C 0.75580 0.06971 0.61973
 C1375 C 0.75715 0.10416 0.58604
 C1376 C 0.78461 0.10289 0.58580
 C1377 C 0.79863 0.11866 0.56854
 C1378 C 0.78534 0.13592 0.55200
 C1379 C 0.75783 0.13742 0.55297
 C1380 C 0.74360 0.12129 0.56970
 C1381 C 0.78331 0.06945 0.61937
 C1382 C 0.79747 0.08565 0.60259
 C1383 C 0.70192 0.10468 0.58612
 C1384 C 0.71609 0.12155 0.57003
 H1385 H 0.79398 0.05634 0.63191
 H1386 H 0.81865 0.08457 0.60268
 H1387 H 0.68073 0.10524 0.58552
 H1388 H 0.70542 0.13465 0.55749
 H1389 H 0.67950 0.06971 0.61756
 H1390 H 0.75183 0.03941 0.64823
 H1391 H 0.81981 0.11751 0.56794
 H1392 H 0.74749 0.15047 0.54008
 C1393 C 0.91301 0.60406 0.25818
 C1394 C 0.91216 0.60305 0.28526
 C1395 C 0.92953 0.61847 0.29959
 C1396 C 0.94729 0.63513 0.28700
 C1397 C 0.94737 0.63649 0.25986
 C1398 C 0.93051 0.62067 0.24532
 C1399 C 0.89569 0.58692 0.24301
 C1400 C 0.89744 0.58698 0.21595
 C1401 C 0.88178 0.56978 0.20168
 C1402 C 0.86415 0.55298 0.21430
 C1403 C 0.86214 0.55368 0.24140
 C1404 C 0.87816 0.57035 0.25589
 C1405 C 0.93124 0.62065 0.21820
 C1406 C 0.91509 0.60398 0.20377
 C1407 C 0.89425 0.58633 0.29744
 C1408 C 0.87742 0.57037 0.28300
 H1409 H 0.94468 0.63334 0.20805
 H1410 H 0.91654 0.60430 0.18291
 H1411 H 0.89333 0.58546 0.31832
 H1412 H 0.86401 0.55765 0.29315
 H1413 H 0.92933 0.61745 0.32049
 H1414 H 0.96120 0.64909 0.25008
 H1415 H 0.88332 0.56939 0.18081
 H1416 H 0.84881 0.54060 0.25123
 C1417 C 0.91315 0.39587 0.74145
 C1418 C 0.91236 0.39691 0.71437
 C1419 C 0.92973 0.38148 0.70005
 C1420 C 0.94743 0.36477 0.71265
 C1421 C 0.94745 0.36339 0.73980
 C1422 C 0.93060 0.37923 0.75432
 C1423 C 0.89584 0.41302 0.75660
 C1424 C 0.89754 0.41292 0.78366
 C1425 C 0.88188 0.43013 0.79793
 C1426 C 0.86430 0.44695 0.78530
 C1427 C 0.86234 0.44629 0.75820
 C1428 C 0.87836 0.42962 0.74372
 C1429 C 0.93128 0.37922 0.78144
 C1430 C 0.91513 0.39589 0.79586
 C1431 C 0.89450 0.41367 0.70217
 C1432 C 0.87768 0.42963 0.71660
 H1433 H 0.94467 0.36650 0.79160
 H1434 H 0.91655 0.39555 0.81672
 H1435 H 0.89362 0.41456 0.68129
 H1436 H 0.86431 0.44238 0.70644
 H1437 H 0.92957 0.38252 0.67915
 H1438 H 0.96124 0.35077 0.74959
 H1439 H 0.88338 0.43049 0.81881
 H1440 H 0.84904 0.45939 0.74836
 C1441 C 0.08698 0.60364 0.74185
 C1442 C 0.08784 0.60261 0.71477
 C1443 C 0.07050 0.61804 0.70044
 C1444 C 0.05276 0.63474 0.71301
 C1445 C 0.05267 0.63610 0.74016
 C1446 C 0.06949 0.62027 0.75471
 C1447 C 0.10427 0.58649 0.75703
 C1448 C 0.10251 0.58658 0.78409
 C1449 C 0.11816 0.56938 0.79838
 C1450 C 0.13577 0.55258 0.78577
 C1451 C 0.13779 0.55325 0.75867
 C1452 C 0.12179 0.56991 0.74417
 C1453 C 0.06876 0.62026 0.78182
 C1454 C 0.08488 0.60359 0.79626
 C1455 C 0.10574 0.58588 0.70260
 C1456 C 0.12253 0.56991 0.71705
 H1457 H 0.05533 0.63296 0.79197
 H1458 H 0.08341 0.60393 0.81712
 H1459 H 0.10666 0.58499 0.68173
 H1460 H 0.13594 0.55719 0.70691
 H1461 H 0.07071 0.61702 0.67953
 H1462 H 0.03886 0.64872 0.74993
 H1463 H 0.11661 0.56901 0.81925
 H1464 H 0.15112 0.54017 0.74884
 C1465 C 0.08683 0.39627 0.25835
 C1466 C 0.08763 0.39729 0.28543
 C1467 C 0.07025 0.38185 0.29973
 C1468 C 0.05253 0.36515 0.28712
 C1469 C 0.05250 0.36379 0.25997
 C1470 C 0.06936 0.37963 0.24546
 C1471 C 0.10416 0.41342 0.24321
 C1472 C 0.10246 0.41333 0.21615
 C1473 C 0.11814 0.43053 0.20189
 C1474 C 0.13574 0.44735 0.21454
 C1475 C 0.13769 0.44667 0.24165
 C1476 C 0.12166 0.43000 0.25611
 C1477 C 0.06869 0.37964 0.21834
 C1478 C 0.08485 0.39631 0.20393
 C1479 C 0.10550 0.41403 0.29764
 C1480 C 0.12234 0.43000 0.28323
 H1481 H 0.05528 0.36693 0.20816
 H1482 H 0.08343 0.39597 0.18307
 H1483 H 0.10638 0.41491 0.31852
 H1484 H 0.13572 0.44274 0.29340
 H1485 H 0.07041 0.38287 0.32063
 H1486 H 0.03870 0.35117 0.25016
 H1487 H 0.11664 0.43090 0.18102
 H1488 H 0.15101 0.45976 0.25150
   
