data_POSCAR
  _audit_creation_date              2014-09-24
  _audit_creation_method            'ToBaCCo'
  _symmetry_space_group_name_H-M    'P1'
  _symmetry_Int_Tables_number       1
  _symmetry_cell_setting            triclinic
  loop_
  _symmetry_equiv_pos_as_xyz
 x,y,z
_cell_length_a 42.5418
_cell_length_b 42.5805
_cell_length_c 45.9881
_cell_angle_alpha 88.890000
_cell_angle_beta 91.088000
_cell_angle_gamma 90.454800
loop_
  _atom_site_label
  _atom_site_type_symbol
  _atom_site_fract_x
  _atom_site_fract_y
  _atom_site_fract_z
C1 C 0.42539 0.01064 0.28058
 C2 C 0.40132 0.03744 0.27784
 C3 C 0.38227 0.03572 0.25354
 C4 C 0.38888 0.00729 0.23445
 C5 C 0.40575 -0.01944 0.27928
 C6 C 0.38643 -0.02134 0.25556
 C7 C 0.44338 0.01213 0.25201
 C8 C 0.42432 0.01074 0.22778
 H9 H 0.40039 0.05668 0.29296
 H10 H 0.37341 0.00558 0.21479
 H11 H 0.40550 -0.03693 0.29684
 H12 H 0.46849 0.01673 0.25100
 C13 C 0.07416 -0.00252 0.77797
 C14 C 0.09448 -0.03196 0.77486
 C15 C 0.11342 -0.03084 0.75106
 C16 C 0.11016 0.00009 0.73274
 C17 C 0.09761 0.02483 0.77849
 C18 C 0.11657 0.02656 0.75504
 C19 C 0.05680 0.00085 0.75071
 C20 C 0.07639 0.00215 0.72580
 H21 H 0.09334 -0.05215 0.78962
 H22 H 0.12553 0.00140 0.71346
 H23 H 0.09868 0.04192 0.79576
 H24 H 0.03127 0.00040 0.74911
 C25 C 0.57736 0.49771 0.27930
 C26 C 0.59766 0.46833 0.27622
 C27 C 0.61646 0.46925 0.25237
 C28 C 0.61326 0.49998 0.23387
 C29 C 0.60054 0.52520 0.27931
 C30 C 0.61939 0.52675 0.25583
 C31 C 0.55897 0.50085 0.25055
 C32 C 0.57752 0.50188 0.22670
 H33 H 0.59643 0.44815 0.29098
 H34 H 0.62851 0.50113 0.21453
 H35 H 0.60157 0.54253 0.29639
 H36 H 0.53344 0.50074 0.24909
 C37 C 0.92533 0.50982 0.78029
 C38 C 0.90132 0.53666 0.77748
 C39 C 0.88224 0.53491 0.75320
 C40 C 0.88877 0.50640 0.73418
 C41 C 0.90563 0.47977 0.77908
 C42 C 0.88629 0.47784 0.75539
 C43 C 0.94330 0.51116 0.75170
 C44 C 0.92422 0.50974 0.72748
 H45 H 0.90045 0.55595 0.79256
 H46 H 0.87328 0.50465 0.71455
 H47 H 0.90536 0.46234 0.79668
 H48 H 0.96842 0.51571 0.75066
 C49 C 0.28245 0.37149 0.99505
 C50 C 0.28052 0.34737 1.01999
 C51 C 0.25430 0.32888 1.01917
 C52 C 0.23189 0.33613 0.99309
 C53 C 0.27924 0.35216 0.96722
 C54 C 0.25273 0.33367 0.96609
 C55 C 0.25165 0.39003 0.99627
 C56 C 0.22518 0.37161 0.99513
 H57 H 0.29767 0.34621 1.03781
 H58 H 0.21049 0.32100 0.99239
 H59 H 0.29577 0.35387 0.94953
 H60 H 0.25085 0.41548 0.99725
 C61 C 0.77667 0.13207 0.99845
 C62 C 0.77536 0.15592 0.97325
 C63 C 0.75021 0.17540 0.97363
 C64 C 0.72802 0.16903 0.99944
 C65 C 0.77546 0.15202 1.02595
 C66 C 0.74989 0.17137 1.02653
 C67 C 0.74667 0.11532 0.99731
 C68 C 0.71982 0.13561 0.99807
 H69 H 0.79286 0.15719 0.95632
 H70 H 0.70746 0.18498 0.99964
 H71 H 0.79216 0.14966 1.04402
 H72 H 0.74469 0.08986 0.99838
 C73 C 0.27889 0.63344 0.49842
 C74 C 0.27701 0.65666 0.47283
 C75 C 0.25184 0.67605 0.47314
 C76 C 0.23005 0.67035 0.49926
 C77 C 0.27771 0.65382 0.52559
 C78 C 0.25209 0.67305 0.52609
 C79 C 0.24721 0.61569 0.49788
 C80 C 0.22156 0.63498 0.49856
 H81 H 0.29432 0.65774 0.45574
 H82 H 0.20943 0.68619 0.49940
 H83 H 0.29440 0.65166 0.54368
 H84 H 0.24529 0.59024 0.49887
 C85 C 0.78255 0.87170 0.49534
 C86 C 0.78054 0.84745 0.52017
 C87 C 0.75436 0.82890 0.51913
 C88 C 0.73209 0.83623 0.49297
 C89 C 0.77957 0.85251 0.46742
 C90 C 0.75312 0.83396 0.46607
 C91 C 0.75171 0.89016 0.49648
 C92 C 0.72528 0.87169 0.49513
 H93 H 0.79760 0.84622 0.53805
 H94 H 0.71073 0.82106 0.49209
 H95 H 0.79622 0.85433 0.44984
 H96 H 0.75085 0.91560 0.49759
 C97 C -0.00150 0.28249 0.40558
 C98 C 0.01968 0.29237 0.38037
 C99 C 0.02045 0.27067 0.35906
 C100 C -0.00004 0.24155 0.36480
 C101 C -0.03210 0.27628 0.39258
 C102 C -0.03109 0.25372 0.37014
 C103 C 0.01110 0.25065 0.41622
 C104 C 0.01192 0.22930 0.39452
 H105 H 0.03637 0.31180 0.38159
 H106 H 0.00058 0.22387 0.34731
 H107 H -0.05306 0.28963 0.39721
 H108 H 0.01688 0.24496 0.43882
 C109 C -0.00175 0.76719 0.10775
 C110 C -0.01204 0.77343 0.13871
 C111 C -0.00965 0.74785 0.15670
 C112 C 0.00310 0.71877 0.14212
 C113 C 0.03173 0.75499 0.11078
 C114 C 0.03422 0.72969 0.12911
 C115 C -0.02155 0.73934 0.09750
 C116 C -0.01866 0.71379 0.11566
 H117 H -0.02551 0.79401 0.14427
 H118 H 0.00524 0.69787 0.15690
 H119 H 0.05208 0.76856 0.10373
 H120 H -0.03163 0.73795 0.07566
 C121 C 0.49685 0.26750 0.60901
 C122 C 0.48617 0.27359 0.63987
 C123 C 0.48876 0.24805 0.65790
 C124 C 0.50211 0.21916 0.64346
 C125 C 0.53048 0.25581 0.61233
 C126 C 0.53317 0.23053 0.63065
 C127 C 0.47757 0.23934 0.59863
 C128 C 0.48068 0.21384 0.61682
 H129 H 0.47231 0.29396 0.64529
 H130 H 0.50443 0.19831 0.65827
 H131 H 0.55072 0.26954 0.60526
 H132 H 0.46771 0.23780 0.57672
 C133 C 0.50034 0.78266 0.90791
 C134 C 0.52259 0.79216 0.88338
 C135 C 0.52333 0.77069 0.86188
 C136 C 0.50197 0.74206 0.86683
 C137 C 0.46837 0.77759 0.89288
 C138 C 0.46948 0.75626 0.87127
 C139 C 0.51060 0.75200 0.91810
 C140 C 0.51158 0.72982 0.89526
 H141 H 0.53950 0.81138 0.88499
 H142 H 0.50256 0.72463 0.84911
 H143 H 0.44754 0.79116 0.89738
 H144 H 0.51502 0.74585 0.94087
 C145 C -0.23982 0.67599 0.96956
 C146 C -0.21322 0.65170 0.97221
 C147 C -0.21497 0.63273 0.99656
 C148 C -0.24323 0.63965 1.01579
 C149 C -0.27011 0.65666 0.97107
 C150 C -0.27203 0.63743 0.99483
 C151 C -0.23798 0.69402 0.99808
 C152 C -0.23939 0.67505 1.02237
 H153 H -0.19405 0.65058 0.95700
 H154 H -0.24498 0.62425 1.03549
 H155 H -0.28767 0.65647 0.95357
 H156 H -0.23312 0.71907 0.99902
 C157 C -0.25200 0.32406 0.47219
 C158 C -0.28160 0.34416 0.47539
 C159 C -0.28055 0.36309 0.49918
 C160 C -0.24950 0.36006 0.51741
 C161 C -0.22479 0.34768 0.47159
 C162 C -0.22311 0.36664 0.49501
 C163 C -0.24843 0.30675 0.49946
 C164 C -0.24719 0.32633 0.52436
 H165 H -0.30185 0.34286 0.46070
 H166 H -0.24823 0.37542 0.53667
 H167 H -0.20774 0.34885 0.45426
 H168 H -0.24878 0.28124 0.50109
 C169 C 0.24770 -0.17430 -0.02826
 C170 C 0.21820 -0.15405 -0.02517
 C171 C 0.21918 -0.13521 -0.00133
 C172 C 0.25010 -0.13847 0.01707
 C173 C 0.27505 -0.15083 -0.02865
 C174 C 0.27669 -0.13196 -0.00514
 C175 C 0.25101 -0.19172 -0.00103
 C176 C 0.25220 -0.17224 0.02394
 H177 H 0.19803 -0.15521 -0.03997
 H178 H 0.25132 -0.12319 0.03639
 H179 H 0.29224 -0.14972 -0.04586
 H180 H 0.25067 -0.21724 0.00051
 C181 C 0.25954 1.17569 0.46966
 C182 C 0.28659 1.15188 0.47234
 C183 C 0.28507 1.13280 0.49664
 C184 C 0.25659 1.13913 0.51578
 C185 C 0.22961 1.15579 0.47102
 C186 C 0.22794 1.13645 0.49472
 C187 C 0.26091 1.19364 0.49824
 C188 C 0.25974 1.17455 0.52247
 H189 H 0.30581 1.15111 0.45716
 H190 H 0.25504 1.12363 0.53543
 H191 H 0.21212 1.15533 0.45346
 H192 H 0.26532 1.21876 0.49927
 C193 C 0.12152 0.53311 0.25416
 C194 C 0.09727 0.53111 0.22932
 C195 C 0.07867 0.50498 0.23037
 C196 C 0.08595 0.48273 0.25653
 C197 C 0.10226 0.53015 0.28209
 C198 C 0.08367 0.50373 0.28342
 C199 C 0.13995 0.50225 0.25306
 C200 C 0.12142 0.47588 0.25441
 H201 H 0.09608 0.54815 0.21142
 H202 H 0.07073 0.46141 0.25741
 H203 H 0.10408 0.54677 0.29967
 H204 H 0.16542 0.50135 0.25199
 C205 C -0.11720 1.02667 0.25189
 C206 C -0.09327 1.02538 0.27704
 C207 C -0.07379 1.00024 0.27664
 C208 C -0.08024 0.97805 0.25088
 C209 C -0.09730 1.02542 0.22434
 C210 C -0.07795 0.99986 0.22376
 C211 C -0.13398 0.99671 0.25311
 C212 C -0.11369 0.96988 0.25233
 H213 H -0.09194 1.04288 0.29394
 H214 H -0.06429 0.95750 0.25067
 H215 H -0.09971 1.04206 0.20625
 H216 H -0.15946 0.99475 0.25204
 C217 C 0.38267 0.52838 -0.24839
 C218 C 0.40605 0.52667 -0.22291
 C219 C 0.42552 0.50159 -0.22324
 C220 C 0.41972 0.47969 -0.24921
 C221 C 0.40293 0.52715 -0.27566
 C222 C 0.42224 0.50159 -0.27612
 C223 C 0.36499 0.49669 -0.24763
 C224 C 0.38436 0.47113 -0.24832
 H225 H 0.40724 0.54409 -0.20593
 H226 H 0.43563 0.45912 -0.24934
 H227 H 0.40066 0.54376 -0.29379
 H228 H 0.33952 0.49471 -0.24858
 C229 C 0.62145 0.03236 -0.24541
 C230 C 0.59715 0.03034 -0.27020
 C231 C 0.57862 0.00417 -0.26916
 C232 C 0.58601 -0.01811 -0.24302
 C233 C 0.60228 0.02932 -0.21746
 C234 C 0.58375 0.00287 -0.21610
 C235 C 0.63996 0.00156 -0.24659
 C236 C 0.62150 -0.02486 -0.24523
 H237 H 0.59591 0.04738 -0.28810
 H238 H 0.57085 -0.03946 -0.24212
 H239 H 0.60411 0.04594 -0.19987
 H240 H 0.66542 0.00073 -0.24775
 C241 C 0.03126 0.24995 0.84251
 C242 C 0.04124 0.27181 0.86717
 C243 C 0.01985 0.27275 0.88875
 C244 C -0.00917 0.25192 0.88376
 C245 C 0.02570 0.21798 0.85733
 C246 C 0.00446 0.21926 0.87903
 C247 C 0.00071 0.26080 0.83250
 C248 C -0.02138 0.26197 0.85544
 H249 H 0.06067 0.28847 0.86554
 H250 H -0.02652 0.25266 0.90154
 H251 H 0.03896 0.19700 0.85268
 H252 H -0.00551 0.26529 0.80977
 C253 C 0.51783 0.24833 0.14211
 C254 C 0.52370 0.23703 0.11141
 C255 C 0.49806 0.23945 0.09346
 C256 C 0.46928 0.25319 0.10781
 C257 C 0.50629 0.28194 0.13829
 C258 C 0.48090 0.28441 0.12004
 C259 C 0.48961 0.22942 0.15293
 C260 C 0.46402 0.23230 0.13481
 H261 H 0.54404 0.22309 0.10606
 H262 H 0.44835 0.25534 0.09307
 H263 H 0.52018 0.30222 0.14494
 H264 H 0.48817 0.21986 0.17496
 C265 C 0.01764 0.74783 0.64142
 C266 C 0.02377 0.73703 0.61061
 C267 C -0.00189 0.73913 0.59266
 C268 C -0.03094 0.75217 0.60713
 C269 C 0.00545 0.78124 0.63794
 C270 C -0.01996 0.78345 0.61969
 C271 C -0.01024 0.72825 0.65203
 C272 C -0.03587 0.73087 0.63391
 H273 H 0.04432 0.72342 0.60520
 H274 H -0.05189 0.75410 0.59237
 H275 H 0.01896 0.80169 0.64480
 H276 H -0.01157 0.71854 0.67401
 C277 C 0.53409 0.74996 0.34289
 C278 C 0.54305 0.77315 0.36669
 C279 C 0.52179 0.77387 0.38834
 C280 C 0.49379 0.75157 0.38441
 C281 C 0.52985 0.71836 0.35861
 C282 C 0.50872 0.71947 0.38036
 C283 C 0.50129 0.75962 0.33230
 C284 C 0.48036 0.76053 0.35432
 H285 H 0.56180 0.79049 0.36451
 H286 H 0.47648 0.75216 0.40221
 H287 H 0.54351 0.69759 0.35414
 H288 H 0.49495 0.76425 0.30963
 Zr289 Zr 0.02504 -0.02717 1.03990
 O290 O 0.05918 -0.01322 1.07127
 O291 O 0.01682 -0.07419 1.05173
 O292 O 0.00663 -0.02716 1.08258
 O293 O 0.07881 -0.04087 0.98568
 O294 O -0.03910 0.00028 1.07707
 O295 O 0.06922 -0.04921 1.03392
 O296 O -0.02189 -0.09013 1.02001
 O297 O -0.02366 -0.03230 1.03335
 O298 O 0.01829 -0.04827 0.99952
 O299 O 0.00653 0.01850 1.04140
 O300 O 0.04740 0.00292 1.00948
 Zr301 Zr -0.02898 0.02242 0.96197
 Zr302 Zr -0.04175 0.01324 1.03290
 Zr303 Zr 0.03832 -0.01783 0.96917
 Zr304 Zr -0.03006 -0.05162 0.99223
 O305 O 0.07889 0.00688 0.95532
 O306 O -0.07371 -0.06540 1.01021
 O307 O -0.01001 -0.02313 0.95989
 O308 O -0.05071 -0.00738 0.99258
 O309 O -0.02238 0.04420 1.00212
 O310 O 0.01972 0.02737 0.96858
 C311 C -0.00266 -0.09447 1.04139
 C312 C 0.08636 -0.05168 1.01116
 C313 C -0.01867 -0.01500 1.09242
 O314 O -0.08415 -0.00976 1.04435
 O315 O -0.08009 0.03997 1.01762
 O316 O -0.07196 0.04638 0.96890
 C317 C -0.08796 0.05040 0.99217
 O318 O 0.06210 0.05230 1.04150
 Zr319 Zr 0.02615 0.04743 1.00912
 O320 O -0.02160 0.06920 0.94953
 O321 O -0.04491 0.05392 1.05838
 O322 O 0.01218 0.08340 1.03728
 O323 O 0.06822 0.06359 0.98962
 O324 O 0.01444 0.08699 0.98295
 C325 C -0.00414 0.09057 0.96080
 O326 O -0.06480 0.00923 0.93192
 O327 O 0.04417 -0.05992 0.94616
 O328 O -0.01248 0.01863 0.91883
 O329 O 0.03270 -0.00981 0.92436
 O330 O -0.01631 -0.08962 0.96629
 O331 O -0.06206 -0.05676 0.95655
 C332 C 0.01176 0.00458 0.90887
 H333 H 0.02814 -0.06919 0.99851
 H334 H -0.07353 -0.00952 0.98841
 H335 H 0.02976 0.04038 0.95322
 H336 H 0.01068 0.02792 1.06061
 H337 H -0.07690 -0.08802 1.00628
 H338 H -0.09457 0.00364 1.05863
 H339 H -0.06497 0.05230 1.06893
 H340 H 0.02479 0.10242 1.03251
 H341 H -0.03040 -0.10764 0.97080
 H342 H 0.06427 -0.05791 0.93570
 H343 H 0.08932 -0.00660 0.94112
 H344 H 0.07032 0.08633 0.99351
 H345 H -0.07295 -0.07734 0.95821
 H346 H -0.06909 0.02780 0.91913
 H347 H 0.06379 -0.03187 1.08387
 H348 H 0.06901 0.07454 1.04224
 Zr349 Zr 0.52589 0.47231 0.54072
 O350 O 0.56008 0.48557 0.57232
 O351 O 0.51681 0.42542 0.55244
 O352 O 0.50730 0.47264 0.58332
 O353 O 0.57976 0.45807 0.48670
 O354 O 0.46198 0.50071 0.57762
 O355 O 0.56981 0.44969 0.53487
 O356 O 0.47805 0.41012 0.52049
 O357 O 0.47715 0.46793 0.53390
 O358 O 0.51906 0.45142 0.50027
 O359 O 0.50803 0.51824 0.54225
 O360 O 0.54885 0.50217 0.51051
 Zr361 Zr 0.47303 0.52294 0.46266
 Zr362 Zr 0.45973 0.51372 0.53347
 Zr363 Zr 0.53968 0.48168 0.47010
 Zr364 Zr 0.47072 0.44880 0.49270
 O365 O 0.58069 0.50580 0.45650
 O366 O 0.42672 0.43562 0.51034
 O367 O 0.49134 0.47711 0.46055
 O368 O 0.45071 0.49334 0.49306
 O369 O 0.47972 0.54451 0.50290
 O370 O 0.52176 0.52714 0.46955
 C371 C 0.49705 0.40547 0.54199
 C372 C 0.58705 0.44710 0.51218
 C373 C 0.48214 0.48518 0.59306
 O374 O 0.41698 0.49123 0.54470
 O375 O 0.42179 0.54095 0.51806
 O376 O 0.43028 0.54739 0.46941
 C377 C 0.41419 0.55152 0.49260
 O378 O 0.56408 0.55119 0.54277
 Zr379 Zr 0.52826 0.54697 0.51018
 O380 O 0.48117 0.56967 0.45047
 O381 O 0.45695 0.55442 0.55897
 O382 O 0.51466 0.58307 0.53837
 O383 O 0.57069 0.56256 0.49096
 O384 O 0.51733 0.58679 0.48409
 C385 C 0.49892 0.59072 0.46187
 O386 O 0.43727 0.51037 0.43232
 O387 O 0.54499 0.43956 0.44701
 O388 O 0.48980 0.51915 0.41961
 O389 O 0.53448 0.48996 0.42530
 O390 O 0.48413 0.41066 0.46678
 O391 O 0.43891 0.44421 0.45680
 C392 C 0.51391 0.50478 0.40976
 H393 H 0.52861 0.43036 0.49927
 H394 H 0.42789 0.49152 0.48876
 H395 H 0.53209 0.54006 0.45430
 H396 H 0.51221 0.52758 0.56150
 H397 H 0.42322 0.41306 0.50631
 H398 H 0.40666 0.50475 0.55895
 H399 H 0.43682 0.55304 0.56944
 H400 H 0.52759 0.60191 0.53375
 H401 H 0.46977 0.39283 0.47117
 H402 H 0.56518 0.44128 0.43665
 H403 H 0.59099 0.49222 0.44231
 H404 H 0.57312 0.58525 0.49495
 H405 H 0.42777 0.42376 0.45830
 H406 H 0.43333 0.52906 0.41958
 H407 H 0.56432 0.46679 0.58486
 H408 H 0.57132 0.57332 0.54362
 Zr409 Zr 0.46701 1.00735 0.54748
 O410 O 0.43265 0.98605 0.57422
 O411 O 0.47111 1.05187 0.56503
 O412 O 0.48472 1.00225 0.59085
 O413 O 0.41560 1.02954 0.49135
 O414 O 0.53167 0.97737 0.58573
 O415 O 0.42287 1.02982 0.54074
 O416 O 0.50985 1.07510 0.53813
 O417 O 0.51566 1.01528 0.54507
 O418 O 0.47438 1.03520 0.51018
 O419 O 0.48752 0.96266 0.54571
 O420 O 0.44676 0.98226 0.51259
 Zr421 Zr 0.52528 0.97341 0.46876
 Zr422 Zr 0.53582 0.97091 0.54083
 Zr423 Zr 0.45672 1.00965 0.47539
 Zr424 Zr 0.52257 1.04181 0.50715
 O425 O 0.41724 0.98627 0.45705
 O426 O 0.56422 1.05351 0.53070
 O427 O 0.50500 1.01838 0.47037
 O428 O 0.54494 0.99852 0.50371
 O429 O 0.51830 0.94510 0.50590
 O430 O 0.47679 0.96550 0.47157
 C431 C 0.48916 1.07490 0.55816
 C432 C 0.40710 1.03636 0.51711
 C433 C 0.51049 0.99009 0.60105
 O434 O 0.57756 0.99241 0.55676
 O435 O 0.57511 0.94732 0.52473
 O436 O 0.56860 0.94974 0.47531
 C437 C 0.58388 0.94165 0.49874
 O438 O 0.43213 0.92897 0.53797
 Zr439 Zr 0.46979 0.93902 0.50945
 O440 O 0.52098 0.92829 0.45205
 O441 O 0.53937 0.92670 0.56240
 O442 O 0.48286 0.89937 0.53543
 O443 O 0.43007 0.92387 0.48476
 O444 O 0.48550 0.90398 0.48186
 C445 C 0.50517 0.90437 0.46106
 O446 O 0.56112 0.99338 0.44278
 O447 O 0.45051 1.05474 0.45598
 O448 O 0.50972 0.98246 0.42518
 O449 O 0.46357 1.00863 0.43040
 O450 O 0.50892 1.08332 0.48418
 O451 O 0.55649 1.05471 0.47566
 C452 C 0.48526 0.99703 0.41497
 H453 H 0.46387 1.05583 0.51047
 H454 H 0.56778 1.00200 0.50125
 H455 H 0.46794 0.95453 0.45445
 H456 H 0.48319 0.95018 0.56360
 H457 H 0.56608 1.07672 0.53047
 H458 H 0.58783 0.97697 0.57018
 H459 H 0.55915 0.92712 0.57413
 H460 H 0.47080 0.88105 0.52813
 H461 H 0.52147 1.10094 0.49225
 H462 H 0.43075 1.05397 0.44423
 H463 H 0.40670 1.00157 0.44368
 H464 H 0.42890 0.90068 0.48673
 H465 H 0.56663 1.07482 0.48114
 H466 H 0.56684 0.97744 0.42838
 H467 H 0.42654 1.00200 0.58846
 H468 H 0.42551 0.90676 0.53599
 Zr469 Zr -0.03340 0.50695 1.04721
 O470 O -0.06765 0.48575 1.07413
 O471 O -0.02942 0.55163 1.06444
 O472 O -0.01560 0.50226 1.09057
 O473 O -0.08501 0.52857 0.99105
 O474 O 0.03142 0.47747 1.08555
 O475 O -0.07760 0.52927 1.04041
 O476 O 0.00918 0.57476 1.03730
 O477 O 0.01521 0.51502 1.04466
 O478 O -0.02620 0.53452 1.00970
 O479 O -0.01276 0.46231 1.04572
 O480 O -0.05366 0.48152 1.01254
 Zr481 Zr 0.02482 0.47255 0.96864
 Zr482 Zr 0.03550 0.47067 1.04070
 Zr483 Zr -0.04386 0.50864 0.97513
 Zr484 Zr 0.02196 0.54126 1.00655
 O485 O -0.08327 0.48495 0.95700
 O486 O 0.06362 0.55328 1.02995
 O487 O 0.00439 0.51746 0.96999
 O488 O 0.04447 0.49801 1.00337
 O489 O 0.01800 0.44453 1.00598
 O490 O -0.02364 0.46451 0.97157
 C491 C -0.01146 0.57466 1.05737
 C492 C -0.09345 0.53560 1.01678
 C493 C 0.01022 0.49026 1.10081
 O494 O 0.07720 0.49243 1.05642
 O495 O 0.07486 0.44710 1.02470
 O496 O 0.06824 0.44909 0.97528
 C497 C 0.08361 0.44125 0.99874
 O498 O -0.06810 0.42844 1.03826
 Zr499 Zr -0.03049 0.43833 1.00965
 O500 O 0.02064 0.42724 0.95229
 O501 O 0.03924 0.42663 1.06254
 O502 O -0.01734 0.39893 1.03594
 O503 O -0.07015 0.42283 0.98506
 O504 O -0.01464 0.40306 0.98238
 C505 C 0.00498 0.40333 0.96155
 O506 O 0.06057 0.49236 0.94246
 O507 O -0.05033 0.55356 0.95544
 O508 O 0.00922 0.48134 0.92504
 O509 O -0.03701 0.50741 0.93016
 O510 O 0.00815 0.58254 0.98331
 O511 O 0.05578 0.55401 0.97490
 C512 C -0.01527 0.49584 0.91477
 H513 H -0.03676 0.55513 1.00987
 H514 H 0.06729 0.50154 1.00085
 H515 H -0.03247 0.45339 0.95453
 H516 H -0.01702 0.44996 1.06370
 H517 H 0.06539 0.57650 1.02956
 H518 H 0.08754 0.47713 1.06993
 H519 H 0.05903 0.42720 1.07425
 H520 H -0.02938 0.38052 1.02879
 H521 H 0.02066 0.60027 0.99124
 H522 H -0.07011 0.55261 0.94372
 H523 H -0.09388 0.50011 0.94356
 H524 H -0.07125 0.39965 0.98722
 H525 H 0.06588 0.57417 0.98024
 H526 H 0.06630 0.47631 0.92816
 H527 H -0.07378 0.50178 1.08828
 H528 H -0.07473 0.40622 1.03640
 Zr529 Zr -0.02985 0.48015 0.46449
 O530 O -0.06178 0.48723 0.42915
 O531 O -0.02006 0.43242 0.46086
 O532 O -0.00811 0.47646 0.42311
 O533 O -0.08770 0.47242 0.51709
 O534 O 0.03677 0.50593 0.42779
 O535 O -0.07422 0.45766 0.47149
 O536 O 0.01542 0.42179 0.49764
 O537 O 0.01834 0.47783 0.47497
 O538 O -0.02616 0.46530 0.50809
 O539 O -0.01199 0.52581 0.45725
 O540 O -0.05532 0.51298 0.48842
 Zr541 Zr 0.01652 0.54243 0.53733
 Zr542 Zr 0.03558 0.52380 0.46985
 Zr543 Zr -0.04902 0.49883 0.53210
 Zr544 Zr 0.02150 0.46461 0.51895
 O545 O -0.09088 0.52382 0.53929
 O546 O 0.06649 0.45017 0.50558
 O547 O -0.00146 0.49672 0.54505
 O548 O 0.04125 0.50935 0.51339
 O549 O 0.01285 0.55774 0.49383
 O550 O -0.03158 0.54446 0.52680
 C551 C -0.00190 0.41409 0.47578
 C552 C -0.09300 0.45780 0.49334
 C553 C 0.01766 0.48865 0.41318
 O554 O 0.07902 0.50085 0.46477
 O555 O 0.07242 0.55354 0.48357
 O556 O 0.06003 0.56632 0.52995
 C557 C 0.07807 0.56754 0.50761
 O558 O -0.06910 0.55500 0.44866
 Zr559 Zr -0.03511 0.55778 0.48301
 O560 O 0.00710 0.59048 0.54013
 O561 O 0.04038 0.56125 0.43928
 O562 O -0.02090 0.58950 0.44954
 O563 O -0.07844 0.57529 0.49771
 O564 O -0.02548 0.60153 0.50123
 C565 C -0.00884 0.60926 0.52347
 O566 O 0.04981 0.53666 0.57182
 O567 O -0.05611 0.45997 0.56076
 O568 O -0.00320 0.54290 0.57971
 O569 O -0.04737 0.51232 0.57559
 O570 O 0.00624 0.43070 0.55010
 O571 O 0.05125 0.46542 0.55660
 C572 C -0.02771 0.52890 0.59027
 H573 H -0.03580 0.44441 0.51179
 H574 H 0.06370 0.50865 0.51942
 H575 H -0.04292 0.55913 0.53925
 H576 H -0.01474 0.53247 0.43663
 H577 H 0.06967 0.42836 0.51290
 H578 H 0.09054 0.51271 0.44952
 H579 H 0.06129 0.55910 0.43040
 H580 H -0.03512 0.60783 0.44967
 H581 H 0.02068 0.41258 0.54943
 H582 H -0.07708 0.46246 0.56943
 H583 H -0.10233 0.51208 0.55466
 H584 H -0.08097 0.59680 0.48941
 H585 H 0.06253 0.44522 0.55861
 H586 H 0.05208 0.55723 0.58148
 H587 H -0.06477 0.46663 0.41970
 H588 H -0.07745 0.57620 0.44410
 Zr589 Zr 0.47065 -0.01946 -0.03477
 O590 O 0.43883 -0.01280 -0.07026
 O591 O 0.48057 -0.06725 -0.03795
 O592 O 0.49249 -0.02348 -0.07606
 O593 O 0.41263 -0.02680 0.01770
 O594 O 0.53725 0.00619 -0.07155
 O595 O 0.42627 -0.04191 -0.02774
 O596 O 0.51601 -0.07742 -0.00102
 O597 O 0.51883 -0.02157 -0.02418
 O598 O 0.47427 -0.03393 0.00894
 O599 O 0.48839 0.02619 -0.04230
 O600 O 0.44505 0.01354 -0.01115
 Zr601 Zr 0.51670 0.04356 0.03769
 Zr602 Zr 0.53595 0.02441 -0.02963
 Zr603 Zr 0.45125 -0.00025 0.03263
 Zr604 Zr 0.52192 -0.03439 0.01990
 O605 O 0.40934 0.02474 0.03960
 O606 O 0.56697 -0.04885 0.00672
 O607 O 0.49880 -0.00213 0.04570
 O608 O 0.54157 0.01034 0.01403
 O609 O 0.51309 0.05851 -0.00592
 O610 O 0.46861 0.04537 0.02705
 C611 C 0.49876 -0.08539 -0.02284
 C612 C 0.40740 -0.04159 -0.00597
 C613 C 0.51822 -0.01130 -0.08605
 O614 O 0.57945 0.00151 -0.03446
 O615 O 0.57269 0.05437 -0.01605
 O616 O 0.56015 0.06753 0.03019
 C617 C 0.57824 0.06861 0.00788
 O618 O 0.43131 0.05529 -0.05128
 Zr619 Zr 0.46515 0.05835 -0.01682
 O620 O 0.50704 0.09157 0.04022
 O621 O 0.54073 0.06161 -0.06046
 O622 O 0.47948 0.08987 -0.05041
 O623 O 0.42167 0.07579 -0.00240
 O624 O 0.47449 0.10227 0.00122
 C625 C 0.49101 0.11019 0.02347
 O626 O 0.54998 0.03821 0.07224
 O627 O 0.44416 -0.03892 0.06151
 O628 O 0.49695 0.04418 0.08006
 O629 O 0.45281 0.01354 0.07603
 O630 O 0.50670 -0.06805 0.05129
 O631 O 0.55157 -0.03312 0.05760
 C632 C 0.47244 0.03020 0.09066
 H633 H 0.46466 -0.05481 0.01277
 H634 H 0.56402 0.00976 0.02010
 H635 H 0.45719 0.06010 0.03940
 H636 H 0.48567 0.03268 -0.06297
 H637 H 0.57021 -0.07057 0.01426
 H638 H 0.59098 0.01327 -0.04977
 H639 H 0.56166 0.05943 -0.06928
 H640 H 0.46525 0.10819 -0.05042
 H641 H 0.52121 -0.08612 0.05083
 H642 H 0.42315 -0.03640 0.07011
 H643 H 0.39789 0.01309 0.05502
 H644 H 0.41910 0.09723 -0.01083
 H645 H 0.56294 -0.05325 0.05979
 H646 H 0.55213 0.05887 0.08176
 H647 H 0.43590 -0.03350 -0.07954
 H648 H 0.42300 0.07647 -0.05603
 Zr649 Zr 0.53913 0.51915 -0.04185
 O650 O 0.57381 0.49800 -0.06724
 O651 O 0.53634 0.56408 -0.06092
 O652 O 0.52309 0.51378 -0.08561
 O653 O 0.59009 0.53805 0.01547
 O654 O 0.47447 0.49124 -0.08082
 O655 O 0.58428 0.53979 -0.03404
 O656 O 0.49768 0.58719 -0.03511
 O657 O 0.49083 0.52870 -0.04043
 O658 O 0.53220 0.54636 -0.00512
 O659 O 0.51629 0.47510 -0.03966
 O660 O 0.55685 0.49221 -0.00619
 Zr661 Zr 0.47682 0.48552 0.03622
 Zr662 Zr 0.46838 0.48505 -0.03604
 Zr663 Zr 0.54755 0.51915 0.03036
 Zr664 Zr 0.48424 0.55440 -0.00290
 O665 O 0.58594 0.49419 0.04914
 O666 O 0.44292 0.56829 -0.02608
 O667 O 0.49970 0.52963 0.03462
 O668 O 0.45945 0.51200 0.00047
 O669 O 0.48328 0.45779 -0.00034
 O670 O 0.52493 0.47576 0.03429
 C671 C 0.51821 0.58698 -0.05519
 C672 C 0.59980 0.54498 -0.01011
 C673 C 0.49709 0.50234 -0.09601
 O674 O 0.42869 0.50904 -0.05341
 O675 O 0.42760 0.46241 -0.02096
 O676 O 0.43246 0.46312 0.02861
 C677 C 0.41775 0.45595 0.00471
 O678 O 0.56915 0.43817 -0.03007
 Zr679 Zr 0.53139 0.44974 -0.00273
 O680 O 0.47743 0.44037 0.05381
 O681 O 0.46261 0.44147 -0.05696
 O682 O 0.51634 0.41137 -0.02837
 O683 O 0.56962 0.43232 0.02291
 O684 O 0.51248 0.41510 0.02549
 C685 C 0.49211 0.41607 0.04576
 O686 O 0.44203 0.50701 0.06120
 O687 O 0.55460 0.56345 0.04966
 O688 O 0.49317 0.49078 0.08006
 O689 O 0.54075 0.51549 0.07523
 O690 O 0.50027 0.59527 0.01867
 O691 O 0.45121 0.56777 0.02860
 C692 C 0.51884 0.50309 0.09047
 H693 H 0.54366 0.56668 -0.00575
 H694 H 0.43673 0.51621 0.00236
 H695 H 0.53296 0.46376 0.05148
 H696 H 0.52049 0.46266 -0.05711
 H697 H 0.44211 0.59154 -0.02594
 H698 H 0.41777 0.49440 -0.06678
 H699 H 0.44329 0.44301 -0.06927
 H700 H 0.52658 0.39224 -0.02019
 H701 H 0.48853 0.61336 0.01017
 H702 H 0.57406 0.56194 0.06180
 H703 H 0.59687 0.50861 0.06271
 H704 H 0.56901 0.40910 0.02180
 H705 H 0.44265 0.58871 0.02331
 H706 H 0.43486 0.49094 0.07556
 H707 H 0.58089 0.51415 -0.08156
 H708 H 0.57393 0.41552 -0.02774
 Zr709 Zr 0.04004 1.01723 0.45818
 O710 O 0.07440 0.99538 0.43295
 O711 O 0.03801 1.06210 0.43894
 O712 O 0.02387 1.01190 0.41443
 O713 O 0.09125 1.03582 0.51539
 O714 O -0.02508 0.99012 0.41932
 O715 O 0.08539 1.03743 0.46588
 O716 O -0.00020 1.08597 0.46473
 O717 O -0.00810 1.02752 0.45955
 O718 O 0.03352 1.04471 0.49481
 O719 O 0.01656 0.97353 0.46055
 O720 O 0.05740 0.99023 0.49394
 Zr721 Zr -0.02267 0.98495 0.53641
 Zr722 Zr -0.03119 0.98422 0.46413
 Zr723 Zr 0.04853 1.01747 0.53040
 Zr724 Zr -0.01428 1.05351 0.49699
 O725 O 0.08659 0.99201 0.54917
 O726 O -0.05534 1.06787 0.47364
 O727 O 0.00084 1.02871 0.53461
 O728 O -0.03969 1.01149 0.50055
 O729 O -0.01664 0.95695 0.49995
 O730 O 0.02527 0.97443 0.53452
 C731 C 0.02033 1.08535 0.44464
 C732 C 0.10095 1.04262 0.48978
 C733 C -0.00231 1.00080 0.40406
 O734 O -0.07057 1.00868 0.44674
 O735 O -0.07220 0.96215 0.47935
 O736 O -0.06730 0.96305 0.52891
 C737 C -0.08208 0.95590 0.50505
 O738 O 0.06894 0.93590 0.47035
 Zr739 Zr 0.03132 0.94814 0.49759
 O740 O -0.02276 0.93987 0.55419
 O741 O -0.03757 0.94064 0.44336
 O742 O 0.01577 0.90987 0.47206
 O743 O 0.06922 0.93022 0.52335
 O744 O 0.01177 0.91393 0.52585
 C745 C -0.00855 0.91529 0.54614
 O746 O -0.05715 1.00709 0.56126
 O747 O 0.05623 1.06173 0.54960
 O748 O -0.00624 0.99024 0.58024
 O749 O 0.04174 1.01410 0.57530
 O750 O 0.00226 1.09424 0.51845
 O751 O -0.04717 1.06754 0.52835
 C752 C 0.01962 1.00220 0.59061
 H753 H 0.04525 1.06487 0.49413
 H754 H -0.06235 1.01602 0.50242
 H755 H 0.03312 0.96240 0.55176
 H756 H 0.02057 0.96095 0.44315
 H757 H -0.05576 1.09114 0.47362
 H758 H -0.08172 0.99412 0.43344
 H759 H -0.05690 0.94238 0.43107
 H760 H 0.02572 0.89064 0.48033
 H761 H -0.00919 1.11247 0.50986
 H762 H 0.07569 1.05999 0.56171
 H763 H 0.09776 1.00632 0.56268
 H764 H 0.06823 0.90701 0.52233
 H765 H -0.05549 1.08854 0.52290
 H766 H -0.06456 0.99122 0.57569
 H767 H 0.08172 1.01133 0.41854
 H768 H 0.07342 0.91321 0.47278
 Zr769 Zr 0.72352 0.27484 0.21028
 O770 O 0.73751 0.30890 0.17887
 O771 O 0.67646 0.26666 0.19845
 O772 O 0.72351 0.25638 0.16762
 O773 O 0.70988 0.32856 0.26452
 O774 O 0.75096 0.21069 0.17315
 O775 O 0.70154 0.31902 0.21627
 O776 O 0.66047 0.22797 0.23016
 O777 O 0.71838 0.22618 0.21687
 O778 O 0.70239 0.26810 0.25066
 O779 O 0.76923 0.25632 0.20879
 O780 O 0.75364 0.29715 0.24071
 Zr781 Zr 0.77311 0.22086 0.28826
 Zr782 Zr 0.76395 0.20809 0.21732
 Zr783 Zr 0.73286 0.28809 0.28102
 Zr784 Zr 0.69900 0.21980 0.25797
 O785 O 0.75758 0.32861 0.29488
 O786 O 0.68521 0.17619 0.24002
 O787 O 0.72752 0.23981 0.29032
 O788 O 0.74329 0.19917 0.25765
 O789 O 0.79493 0.22744 0.24810
 O790 O 0.77808 0.26951 0.28162
 C791 C 0.65616 0.24720 0.20877
 C792 C 0.69910 0.33614 0.23904
 C793 C 0.73565 0.23108 0.15779
 O794 O 0.74093 0.16571 0.20593
 O795 O 0.79070 0.16979 0.23264
 O796 O 0.79709 0.17792 0.28135
 C797 C 0.80112 0.16193 0.25809
 O798 O 0.80308 0.31180 0.20864
 Zr799 Zr 0.79817 0.27592 0.24106
 O800 O 0.81993 0.22827 0.30070
 O801 O 0.80466 0.20492 0.19183
 O802 O 0.83420 0.26190 0.21294
 O803 O 0.81433 0.31799 0.26049
 O804 O 0.83775 0.26428 0.26727
 C805 C 0.84132 0.24574 0.28944
 O806 O 0.75990 0.18508 0.31832
 O807 O 0.69070 0.29393 0.30400
 O808 O 0.76931 0.23736 0.33140
 O809 O 0.74084 0.28249 0.32584
 O810 O 0.66097 0.23358 0.28391
 O811 O 0.69380 0.18783 0.29366
 C812 C 0.75524 0.26158 0.34134
 H813 H 0.68145 0.27796 0.25167
 H814 H 0.74113 0.17637 0.26184
 H815 H 0.79109 0.27955 0.29696
 H816 H 0.77867 0.26045 0.18957
 H817 H 0.66256 0.17302 0.24393
 H818 H 0.75434 0.15530 0.19165
 H819 H 0.80304 0.18486 0.18130
 H820 H 0.85324 0.27449 0.21769
 H821 H 0.64292 0.21953 0.27938
 H822 H 0.69270 0.31401 0.31446
 H823 H 0.74409 0.33903 0.30908
 H824 H 0.83709 0.32009 0.25660
 H825 H 0.67318 0.17699 0.29201
 H826 H 0.77849 0.18080 0.33112
 H827 H 0.71884 0.31352 0.16629
 H828 H 0.82535 0.31867 0.20787
 Zr829 Zr 0.75704 0.71690 0.70240
 O830 O 0.73578 0.68269 0.67550
 O831 O 0.80175 0.72087 0.68511
 O832 O 0.75223 0.73471 0.65903
 O833 O 0.77877 0.66533 0.75854
 O834 O 0.72739 0.78166 0.66411
 O835 O 0.77935 0.67271 0.70917
 O836 O 0.82495 0.75942 0.71220
 O837 O 0.76510 0.76547 0.70492
 O838 O 0.78470 0.72409 0.73985
 O839 O 0.71235 0.73750 0.70400
 O840 O 0.73167 0.69666 0.73714
 Zr841 Zr 0.72276 0.77505 0.78104
 Zr842 Zr 0.72071 0.78573 0.70898
 Zr843 Zr 0.75889 0.70645 0.77449
 Zr844 Zr 0.79144 0.77222 0.74297
 O845 O 0.73523 0.66707 0.79270
 O846 O 0.80342 0.81381 0.71949
 O847 O 0.76772 0.75465 0.77960
 O848 O 0.74816 0.79469 0.74624
 O849 O 0.69463 0.76823 0.74377
 O850 O 0.71473 0.72663 0.77814
 C851 C 0.82483 0.73878 0.69215
 C852 C 0.78573 0.65687 0.73280
 C853 C 0.74016 0.76049 0.64881
 O854 O 0.74244 0.82739 0.69320
 O855 O 0.69713 0.82504 0.72503
 O856 O 0.69922 0.81840 0.77444
 C857 C 0.69131 0.83375 0.75101
 O858 O 0.67845 0.68224 0.71152
 Zr859 Zr 0.68843 0.71979 0.74013
 O860 O 0.67748 0.77082 0.79754
 O861 O 0.67659 0.78945 0.68724
 O862 O 0.64893 0.73297 0.71396
 O863 O 0.67302 0.68011 0.76472
 O864 O 0.65321 0.73554 0.76754
 C865 C 0.65354 0.75513 0.78837
 O866 O 0.74265 0.81078 0.80715
 O867 O 0.80389 0.70000 0.79407
 O868 O 0.73167 0.75947 0.82463
 O869 O 0.75775 0.71328 0.81947
 O870 O 0.83280 0.75845 0.76616
 O871 O 0.80426 0.80604 0.77455
 C872 C 0.74619 0.73500 0.83488
 H873 H 0.80532 0.71353 0.73965
 H874 H 0.75169 0.81749 0.74875
 H875 H 0.70364 0.71779 0.79521
 H876 H 0.69995 0.73325 0.68605
 H877 H 0.82666 0.81560 0.71983
 H878 H 0.72710 0.83773 0.67973
 H879 H 0.67712 0.80923 0.67554
 H880 H 0.63052 0.72093 0.72116
 H881 H 0.85053 0.77095 0.75821
 H882 H 0.80298 0.68024 0.80579
 H883 H 0.75044 0.65647 0.80611
 H884 H 0.64981 0.67900 0.76263
 H885 H 0.82442 0.81615 0.76916
 H886 H 0.72662 0.81650 0.82149
 H887 H 0.75181 0.67658 0.66132
 H888 H 0.65620 0.67563 0.71341
 Zr889 Zr 0.22919 0.22017 0.78516
 O890 O 0.23577 0.18837 0.82068
 O891 O 0.18135 0.23004 0.78828
 O892 O 0.22518 0.24198 0.82648
 O893 O 0.22202 0.16218 0.73272
 O894 O 0.25480 0.28675 0.82191
 O895 O 0.20677 0.17582 0.77813
 O896 O 0.17117 0.26537 0.75128
 O897 O 0.22704 0.26829 0.77453
 O898 O 0.21479 0.22374 0.74144
 O899 O 0.27486 0.23793 0.79273
 O900 O 0.26227 0.19460 0.76159
 Zr901 Zr 0.29235 0.26618 0.71275
 Zr902 Zr 0.27304 0.28543 0.78000
 Zr903 Zr 0.24857 0.20078 0.71778
 Zr904 Zr 0.21429 0.27133 0.73044
 O905 O 0.27365 0.15894 0.71085
 O906 O 0.19973 0.31633 0.74358
 O907 O 0.24666 0.24827 0.70469
 O908 O 0.25903 0.29101 0.73633
 O909 O 0.30723 0.26261 0.75637
 O910 O 0.29422 0.21814 0.72340
 C911 C 0.16318 0.24815 0.77311
 C912 C 0.20716 0.15697 0.75636
 C913 C 0.23737 0.26770 0.83645
 O914 O 0.25004 0.32886 0.78479
 O915 O 0.30297 0.32216 0.76642
 O916 O 0.31624 0.30962 0.72021
 C917 C 0.31724 0.32771 0.74249
 O918 O 0.30392 0.18084 0.80172
 Zr919 Zr 0.30710 0.21471 0.76730
 O920 O 0.34046 0.25663 0.71036
 O921 O 0.31025 0.29026 0.81083
 O922 O 0.33854 0.22894 0.80100
 O923 O 0.32468 0.17133 0.75286
 O924 O 0.35111 0.22419 0.74944
 C925 C 0.35907 0.24073 0.72722
 O926 O 0.28707 0.29939 0.67814
 O927 O 0.20992 0.19360 0.68889
 O928 O 0.29308 0.24646 0.67039
 O929 O 0.26240 0.20238 0.67437
 O930 O 0.18069 0.25607 0.69899
 O931 O 0.21557 0.30097 0.69273
 C932 C 0.27909 0.22201 0.65977
 H933 H 0.19391 0.21412 0.73758
 H934 H 0.25843 0.31343 0.73024
 H935 H 0.30900 0.20676 0.71109
 H936 H 0.28133 0.23521 0.81340
 H937 H 0.17800 0.31953 0.73602
 H938 H 0.26179 0.34041 0.80009
 H939 H 0.30804 0.31118 0.81964
 H940 H 0.35686 0.21470 0.80106
 H941 H 0.16258 0.27054 0.69942
 H942 H 0.21249 0.17262 0.68029
 H943 H 0.26203 0.14748 0.69542
 H944 H 0.34612 0.16879 0.76133
 H945 H 0.19541 0.31229 0.69051
 H946 H 0.30778 0.30156 0.66866
 H947 H 0.21503 0.18546 0.82993
 H948 H 0.32508 0.17247 0.80646
 Zr949 Zr 0.26808 0.78978 0.29141
 O950 O 0.24641 0.82409 0.31682
 O951 O 0.31296 0.78731 0.31067
 O952 O 0.26273 0.77343 0.33510
 O953 O 0.28691 0.84114 0.23438
 O954 O 0.24067 0.72466 0.33007
 O955 O 0.28848 0.83506 0.28387
 O956 O 0.33654 0.74903 0.28478
 O957 O 0.27810 0.74164 0.28983
 O958 O 0.29554 0.78330 0.25474
 O959 O 0.22421 0.76657 0.28899
 O960 O 0.24112 0.80742 0.25573
 Zr961 Zr 0.23538 0.72766 0.21296
 Zr962 Zr 0.23464 0.71883 0.28522
 Zr963 Zr 0.26834 0.79860 0.21922
 Zr964 Zr 0.30405 0.73549 0.25235
 O965 O 0.24307 0.83686 0.20061
 O966 O 0.31823 0.69420 0.27538
 O967 O 0.27931 0.75092 0.21480
 O968 O 0.26186 0.71035 0.24875
 O969 O 0.20740 0.73365 0.24946
 O970 O 0.22514 0.77560 0.21506
 C971 C 0.33605 0.76941 0.30497
 C972 C 0.29371 0.85072 0.26002
 C973 C 0.25153 0.74727 0.34539
 O974 O 0.25893 0.67927 0.30244
 O975 O 0.21233 0.67803 0.26989
 O976 O 0.21324 0.68313 0.22035
 C977 C 0.20603 0.66828 0.24418
 O978 O 0.18678 0.81910 0.27943
 Zr979 Zr 0.19885 0.78160 0.25202
 O980 O 0.19030 0.72792 0.19519
 O981 O 0.19101 0.71260 0.30602
 O982 O 0.16048 0.76609 0.27749
 O983 O 0.18112 0.81972 0.22644
 O984 O 0.16450 0.76244 0.22363
 C985 C 0.16578 0.74222 0.20327
 O986 O 0.25734 0.69322 0.18795
 O987 O 0.31268 0.80611 0.20004
 O988 O 0.24069 0.74430 0.16919
 O989 O 0.26485 0.79209 0.17429
 O990 O 0.34495 0.75200 0.23105
 O991 O 0.31790 0.70283 0.22074
 C992 C 0.25276 0.77015 0.15890
 H993 H 0.31578 0.79490 0.25549
 H994 H 0.26628 0.68770 0.24678
 H995 H 0.21312 0.78361 0.19787
 H996 H 0.21165 0.77056 0.30643
 H997 H 0.34152 0.69363 0.27533
 H998 H 0.24431 0.66815 0.31572
 H999 H 0.19266 0.69323 0.31825
 H1000 H 0.14127 0.77615 0.26927
 H1001 H 0.36311 0.74038 0.23958
 H1002 H 0.31105 0.82561 0.18800
 H1003 H 0.25746 0.84801 0.18713
 H1004 H 0.15788 0.81885 0.22747
 H1005 H 0.33891 0.69442 0.22607
 H1006 H 0.24140 0.68598 0.17351
 H1007 H 0.26242 0.83123 0.33125
 H1008 H 0.16407 0.82366 0.27706
 Zr1009 Zr 0.22322 0.77618 0.70966
 O1010 O 0.23708 0.81040 0.67834
 O1011 O 0.17627 0.76765 0.69764
 O1012 O 0.22363 0.75779 0.66698
 O1013 O 0.20887 0.82977 0.76384
 O1014 O 0.25135 0.71228 0.67264
 O1015 O 0.20080 0.82016 0.71556
 O1016 O 0.16039 0.72892 0.72935
 O1017 O 0.21835 0.72750 0.71624
 O1018 O 0.20196 0.76931 0.74997
 O1019 O 0.26906 0.75798 0.70834
 O1020 O 0.25306 0.79871 0.74018
 Zr1021 Zr 0.27283 0.72254 0.78782
 Zr1022 Zr 0.26405 0.70972 0.71686
 Zr1023 Zr 0.23217 0.78952 0.78043
 Zr1024 Zr 0.19886 0.72101 0.75729
 O1025 O 0.25655 0.83024 0.79428
 O1026 O 0.18541 0.67730 0.73931
 O1027 O 0.22711 0.74121 0.78973
 O1028 O 0.24327 0.70066 0.75711
 O1029 O 0.29478 0.72926 0.74774
 O1030 O 0.27752 0.77122 0.78118
 C1031 C 0.15604 0.74808 0.70793
 C1032 C 0.19810 0.83724 0.73832
 C1033 C 0.23604 0.73259 0.65720
 O1034 O 0.24129 0.66725 0.70533
 O1035 O 0.29089 0.67155 0.73228
 O1036 O 0.29702 0.67969 0.78101
 C1037 C 0.30121 0.66372 0.75777
 O1038 O 0.30254 0.81370 0.70832
 Zr1039 Zr 0.29774 0.77776 0.74070
 O1040 O 0.31958 0.73016 0.80036
 O1041 O 0.30494 0.70677 0.69160
 O1042 O 0.33397 0.76401 0.71268
 O1043 O 0.31357 0.81990 0.76022
 O1044 O 0.33730 0.76632 0.76701
 C1045 C 0.34091 0.74776 0.78917
 O1046 O 0.25968 0.68675 0.81789
 O1047 O 0.18991 0.79504 0.80333
 O1048 O 0.26888 0.73909 0.83092
 O1049 O 0.24012 0.78403 0.82527
 O1050 O 0.16062 0.73454 0.78308
 O1051 O 0.19372 0.68901 0.79297
 C1052 C 0.25466 0.76324 0.84081
 H1053 H 0.18095 0.77902 0.75091
 H1054 H 0.24123 0.67785 0.76130
 H1055 H 0.29042 0.78134 0.79655
 H1056 H 0.27857 0.76218 0.68916
 H1057 H 0.16277 0.67399 0.74315
 H1058 H 0.25485 0.65690 0.69112
 H1059 H 0.30349 0.68671 0.68104
 H1060 H 0.35290 0.77673 0.71750
 H1061 H 0.14268 0.72036 0.77851
 H1062 H 0.19173 0.81514 0.81377
 H1063 H 0.24293 0.84058 0.80843
 H1064 H 0.33633 0.82214 0.75640
 H1065 H 0.17319 0.67803 0.79126
 H1066 H 0.27825 0.68256 0.83073
 H1067 H 0.21844 0.81487 0.66567
 H1068 H 0.32476 0.82073 0.70764
 Zr1069 Zr 0.25678 0.21748 0.20276
 O1070 O 0.23597 0.18324 0.17561
 O1071 O 0.30161 0.22181 0.18578
 O1072 O 0.25218 0.23535 0.15941
 O1073 O 0.27817 0.16578 0.25889
 O1074 O 0.22711 0.28218 0.16441
 O1075 O 0.27924 0.17338 0.20956
 O1076 O 0.32439 0.26036 0.21318
 O1077 O 0.26462 0.26607 0.20549
 O1078 O 0.28407 0.22464 0.24044
 O1079 O 0.21199 0.23789 0.20406
 O1080 O 0.23115 0.19700 0.23722
 Zr1081 Zr 0.22147 0.27519 0.28130
 Zr1082 Zr 0.22010 0.28613 0.20926
 Zr1083 Zr 0.25797 0.20676 0.27481
 Zr1084 Zr 0.29056 0.27278 0.24378
 O1085 O 0.23428 0.16725 0.29273
 O1086 O 0.30259 0.31457 0.22063
 O1087 O 0.26654 0.25498 0.28014
 O1088 O 0.24715 0.29504 0.24677
 O1089 O 0.19374 0.26840 0.24376
 O1090 O 0.21368 0.22675 0.27819
 C1091 C 0.32453 0.23985 0.19302
 C1092 C 0.28543 0.15746 0.23319
 C1093 C 0.24005 0.26109 0.14916
 O1094 O 0.24188 0.32785 0.19368
 O1095 O 0.19638 0.32538 0.22522
 O1096 O 0.19800 0.31858 0.27462
 C1097 C 0.19035 0.33403 0.25117
 O1098 O 0.17833 0.18239 0.21118
 Zr1099 Zr 0.18779 0.21994 0.23993
 O1100 O 0.17594 0.27079 0.29729
 O1101 O 0.17610 0.28981 0.18729
 O1102 O 0.14849 0.23291 0.21341
 O1103 O 0.17228 0.18019 0.26437
 O1104 O 0.15216 0.23555 0.26694
 C1105 C 0.15214 0.25511 0.28779
 O1106 O 0.24089 0.31086 0.30777
 O1107 O 0.30284 0.20038 0.29470
 O1108 O 0.23011 0.25948 0.32491
 O1109 O 0.25647 0.21344 0.31979
 O1110 O 0.33177 0.25901 0.26721
 O1111 O 0.30294 0.30645 0.27563
 C1112 C 0.24471 0.23507 0.33518
 H1113 H 0.30474 0.21418 0.24035
 H1114 H 0.25060 0.31784 0.24938
 H1115 H 0.20245 0.21783 0.29515
 H1116 H 0.19976 0.23365 0.18601
 H1117 H 0.32582 0.31646 0.22119
 H1118 H 0.22662 0.33820 0.18013
 H1119 H 0.17668 0.30960 0.17561
 H1120 H 0.13008 0.22073 0.22039
 H1121 H 0.34953 0.27162 0.25945
 H1122 H 0.30189 0.18057 0.30636
 H1123 H 0.24941 0.15665 0.30622
 H1124 H 0.14910 0.17899 0.26206
 H1125 H 0.32315 0.31663 0.27048
 H1126 H 0.22466 0.31643 0.32197
 H1127 H 0.25215 0.17725 0.16155
 H1128 H 0.15612 0.17559 0.21294
 Zr1129 Zr 0.73150 0.72075 0.28488
 O1130 O 0.73818 0.68901 0.32042
 O1131 O 0.68364 0.73052 0.28796
 O1132 O 0.72729 0.74259 0.32614
 O1133 O 0.72447 0.66268 0.23251
 O1134 O 0.75686 0.78740 0.32162
 O1135 O 0.70917 0.67635 0.27790
 O1136 O 0.67342 0.76586 0.25098
 O1137 O 0.72926 0.76886 0.27423
 O1138 O 0.71710 0.72427 0.24115
 O1139 O 0.77712 0.73861 0.29248
 O1140 O 0.76465 0.69523 0.26135
 Zr1141 Zr 0.79460 0.76685 0.21248
 Zr1142 Zr 0.77521 0.78610 0.27974
 Zr1143 Zr 0.75094 0.70135 0.21754
 Zr1144 Zr 0.71653 0.77187 0.23013
 O1145 O 0.77613 0.65957 0.21063
 O1146 O 0.70188 0.81685 0.24322
 O1147 O 0.74895 0.74883 0.20442
 O1148 O 0.76123 0.79164 0.23605
 O1149 O 0.80946 0.76333 0.25612
 O1150 O 0.79655 0.71882 0.22316
 C1151 C 0.66546 0.74862 0.27280
 C1152 C 0.70961 0.65747 0.25616
 C1153 C 0.73938 0.76834 0.33611
 O1154 O 0.75216 0.82951 0.28446
 O1155 O 0.80514 0.82285 0.26618
 O1156 O 0.81845 0.81033 0.21998
 C1157 C 0.81944 0.82842 0.24227
 O1158 O 0.80631 0.68160 0.30151
 Zr1159 Zr 0.80942 0.71544 0.26707
 O1160 O 0.84271 0.75733 0.21007
 O1161 O 0.81236 0.79100 0.31063
 O1162 O 0.84082 0.72979 0.30076
 O1163 O 0.82711 0.67210 0.25267
 O1164 O 0.85342 0.72500 0.24920
 C1165 C 0.86135 0.74148 0.22694
 O1166 O 0.78935 0.80009 0.17789
 O1167 O 0.71230 0.69405 0.18866
 O1168 O 0.79522 0.74716 0.17009
 O1169 O 0.76472 0.70295 0.17413
 O1170 O 0.68295 0.75653 0.19870
 O1171 O 0.71781 0.80145 0.19239
 C1172 C 0.78128 0.72266 0.15949
 H1173 H 0.69624 0.71460 0.23730
 H1174 H 0.76060 0.81405 0.22995
 H1175 H 0.81135 0.70746 0.21084
 H1176 H 0.78356 0.73592 0.31316
 H1177 H 0.68015 0.82001 0.23563
 H1178 H 0.76386 0.84107 0.29979
 H1179 H 0.81009 0.81191 0.31943
 H1180 H 0.85917 0.71559 0.30083
 H1181 H 0.66483 0.77099 0.19911
 H1182 H 0.71492 0.67306 0.18009
 H1183 H 0.76453 0.64807 0.19522
 H1184 H 0.84855 0.66960 0.26115
 H1185 H 0.69764 0.81276 0.19015
 H1186 H 0.81005 0.80224 0.16841
 H1187 H 0.71745 0.68604 0.32968
 H1188 H 0.82750 0.67329 0.30627
 Zr1189 Zr 0.76794 0.28906 0.79202
 O1190 O 0.74642 0.32349 0.81740
 O1191 O 0.81282 0.28648 0.81128
 O1192 O 0.76240 0.27280 0.83573
 O1193 O 0.78689 0.34030 0.73491
 O1194 O 0.74017 0.22411 0.83070
 O1195 O 0.78842 0.33431 0.78441
 O1196 O 0.83633 0.24812 0.78544
 O1197 O 0.77781 0.24089 0.79050
 O1198 O 0.79542 0.28246 0.75537
 O1199 O 0.72400 0.26600 0.78956
 O1200 O 0.74108 0.30674 0.75628
 Zr1201 Zr 0.73511 0.22694 0.71359
 Zr1202 Zr 0.73428 0.21822 0.78585
 Zr1203 Zr 0.76830 0.29777 0.71980
 Zr1204 Zr 0.80379 0.23461 0.75305
 O1205 O 0.74317 0.33606 0.70106
 O1206 O 0.81780 0.19332 0.77617
 O1207 O 0.77912 0.25005 0.71545
 O1208 O 0.76151 0.20961 0.74942
 O1209 O 0.70712 0.23308 0.75006
 O1210 O 0.72502 0.27493 0.71562
 C1211 C 0.83588 0.26854 0.80560
 C1212 C 0.79367 0.34992 0.76053
 C1213 C 0.75105 0.24671 0.84602
 O1214 O 0.75844 0.17864 0.80319
 O1215 O 0.71194 0.17743 0.77053
 O1216 O 0.71290 0.18247 0.72098
 C1217 C 0.70567 0.16766 0.74482
 O1218 O 0.68677 0.31864 0.77993
 Zr1219 Zr 0.69874 0.28107 0.75256
 O1220 O 0.69000 0.22734 0.69579
 O1221 O 0.69057 0.21212 0.80655
 O1222 O 0.66028 0.26572 0.77799
 O1223 O 0.68119 0.31925 0.72694
 O1224 O 0.66435 0.26205 0.72415
 C1225 C 0.66554 0.24179 0.70382
 O1226 O 0.75698 0.19241 0.68862
 O1227 O 0.81270 0.30513 0.70070
 O1228 O 0.74054 0.24348 0.66980
 O1229 O 0.76489 0.29118 0.67487
 O1230 O 0.84472 0.25096 0.73171
 O1231 O 0.81756 0.20182 0.72153
 C1232 C 0.75274 0.26926 0.65950
 H1233 H 0.81569 0.29401 0.75612
 H1234 H 0.76587 0.18694 0.74749
 H1235 H 0.71306 0.28295 0.69840
 H1236 H 0.71142 0.27005 0.80697
 H1237 H 0.84108 0.19267 0.77614
 H1238 H 0.74377 0.16757 0.81645
 H1239 H 0.69214 0.19276 0.81880
 H1240 H 0.64111 0.27586 0.76975
 H1241 H 0.86286 0.23932 0.74027
 H1242 H 0.81115 0.32462 0.68862
 H1243 H 0.75761 0.34713 0.68759
 H1244 H 0.65795 0.31848 0.72795
 H1245 H 0.83855 0.19338 0.72688
 H1246 H 0.74103 0.18521 0.67417
 H1247 H 0.76246 0.33059 0.83182
 H1248 H 0.66409 0.32328 0.77753
 C1249 C 0.44506 1.01072 0.30735
 C1250 C 0.45892 1.00837 0.33049
 C1251 C 0.47215 1.00412 0.35882
 C1252 C 0.48027 1.00038 0.38399
 C1253 C -0.05502 0.50988 0.80706
 C1254 C -0.04123 0.50744 0.83023
 C1255 C -0.02814 0.50306 0.85860
 C1256 C -0.02015 0.49923 0.88379
 C1257 C 0.05436 -0.00241 0.80384
 C1258 C 0.03997 -0.00044 0.82609
 C1259 C 0.02595 0.00264 0.85348
 C1260 C 0.01722 0.00457 0.87818
 C1261 C 0.55760 0.49797 0.30516
 C1262 C 0.54305 0.50000 0.32729
 C1263 C 0.52873 0.50308 0.35454
 C1264 C 0.51969 0.50494 0.37914
 C1265 C 0.56357 0.50173 0.19770
 C1266 C 0.55070 0.50148 0.17399
 C1267 C 0.53602 0.50137 0.14600
 C1268 C 0.52580 0.50174 0.12126
 C1269 C 0.06343 1.00164 0.69826
 C1270 C 0.05086 1.00117 0.67441
 C1271 C 0.03649 1.00085 0.64627
 C1272 C 0.02647 1.00106 0.62144
 C1273 C -0.06383 0.51652 0.69862
 C1274 C -0.05365 0.52215 0.67461
 C1275 C -0.04229 0.52764 0.64603
 C1276 C -0.03416 0.53013 0.62096
 C1277 C 0.43628 0.01766 0.19894
 C1278 C 0.44648 0.02340 0.17496
 C1279 C 0.45784 0.02898 0.14640
 C1280 C 0.46599 0.03150 0.12134
 C1281 C 0.31130 0.39114 -0.00256
 C1282 C 0.33521 0.40662 0.00052
 C1283 C 0.36361 0.42426 0.00410
 C1284 C 0.38815 0.43894 0.00582
 C1285 C -0.18865 0.89139 0.49790
 C1286 C -0.16477 0.90688 0.50102
 C1287 C -0.13636 0.92450 0.50458
 C1288 C -0.11178 0.93910 0.50625
 C1289 C -0.19500 0.11221 0.99671
 C1290 C -0.17090 0.09752 0.99427
 C1291 C -0.14203 0.08123 0.99149
 C1292 C -0.11726 0.06743 0.99042
 C1293 C 0.30731 0.61372 0.49678
 C1294 C 0.33144 0.59905 0.49442
 C1295 C 0.36030 0.58271 0.49173
 C1296 C 0.38502 0.56878 0.49074
 C1297 C 0.18974 0.62276 0.50224
 C1298 C 0.16350 0.61183 0.50527
 C1299 C 0.13302 0.59793 0.50810
 C1300 C 0.10753 0.58490 0.50912
 C1301 C 0.68978 0.12405 0.00192
 C1302 C 0.66356 0.11312 0.00517
 C1303 C 0.63312 0.09916 0.00818
 C1304 C 0.60765 0.08607 0.00930
 C1305 C 0.69391 0.88497 0.49472
 C1306 C 0.66817 0.89702 0.49458
 C1307 C 0.63840 0.91202 0.49493
 C1308 C 0.61335 0.92532 0.49602
 C1309 C 0.19382 0.38492 0.99477
 C1310 C 0.16807 0.39693 0.99465
 C1311 C 0.13824 0.41183 0.99500
 C1312 C 0.11314 0.42503 0.99608
 C1313 C -0.00189 0.30627 0.42755
 C1314 C -0.00165 0.32839 0.44303
 C1315 C -0.00119 0.35669 0.45753
 C1316 C -0.00114 0.38250 0.46708
 C1317 C 0.49980 -0.19368 -0.07003
 C1318 C 0.49977 -0.17149 -0.05464
 C1319 C 0.49987 -0.14302 -0.04044
 C1320 C 0.49967 -0.11707 -0.03121
 C1321 C -0.00374 -0.20490 1.08972
 C1322 C -0.00406 -0.18029 1.07708
 C1323 C -0.00346 -0.15057 1.06438
 C1324 C -0.00281 -0.12475 1.05411
 C1325 C 0.49468 0.29533 0.59089
 C1326 C 0.49437 0.31986 0.57810
 C1327 C 0.49523 0.34948 0.56519
 C1328 C 0.49626 0.37522 0.55478
 C1329 C 0.47685 1.18301 0.60600
 C1330 C 0.47715 1.15722 0.59638
 C1331 C 0.48053 1.12779 0.58428
 C1332 C 0.48460 1.10325 0.57292
 C1333 C -0.02303 0.68302 1.10485
 C1334 C -0.02310 0.65721 1.09526
 C1335 C -0.01999 0.62771 1.08324
 C1336 C -0.01603 0.60310 1.07197
 C1337 C 0.51652 0.69898 -0.09925
 C1338 C 0.51980 0.67184 -0.09291
 C1339 C 0.52166 0.64081 -0.08284
 C1340 C 0.52121 0.61531 -0.07157
 C1341 C 0.01857 1.19703 0.40025
 C1342 C 0.02245 1.17001 0.40667
 C1343 C 0.02447 1.13903 0.41685
 C1344 C 0.02381 1.11358 0.42820
 C1345 C 0.76024 0.69552 0.94271
 C1346 C 0.75782 0.70921 0.91948
 C1347 C 0.75344 0.72219 0.89107
 C1348 C 0.74961 0.73013 0.86587
 C1349 C 0.25931 0.19533 0.44287
 C1350 C 0.25665 0.20910 0.41970
 C1351 C 0.25205 0.22216 0.39135
 C1352 C 0.24811 0.23016 0.36617
 C1353 C 0.74817 0.30426 0.44634
 C1354 C 0.75018 0.28987 0.42410
 C1355 C 0.75329 0.27583 0.39672
 C1356 C 0.75523 0.26707 0.37203
 C1357 C 0.24788 0.80599 0.94582
 C1358 C 0.24982 0.79164 0.92357
 C1359 C 0.25283 0.77761 0.89617
 C1360 C 0.25468 0.76882 0.87148
 C1361 C 0.25177 0.81470 0.05145
 C1362 C 0.25139 0.80200 0.07525
 C1363 C 0.25118 0.78744 0.10333
 C1364 C 0.25150 0.77723 0.12810
 C1365 C 0.75227 0.31337 0.55191
 C1366 C 0.75176 0.30078 0.57575
 C1367 C 0.75142 0.28635 0.60388
 C1368 C 0.75161 0.27625 0.62868
 C1369 C 0.26664 0.18644 0.55132
 C1370 C 0.27235 0.19651 0.57534
 C1371 C 0.27790 0.20768 0.60397
 C1372 C 0.28039 0.21566 0.62907
 C1373 C 0.76784 0.68696 0.05116
 C1374 C 0.77383 0.69707 0.07512
 C1375 C 0.77969 0.70831 0.10369
 C1376 C 0.78241 0.71634 0.12877
 C1377 C 0.14127 0.56188 0.25156
 C1378 C 0.15678 0.58573 0.24835
 C1379 C 0.17444 0.61411 0.24467
 C1380 C 0.18911 0.63865 0.24294
 C1381 C 0.64112 0.06116 0.75200
 C1382 C 0.65657 0.08505 0.74884
 C1383 C 0.67417 0.11346 0.74524
 C1384 C 0.68878 0.13802 0.74357
 C1385 C 0.86295 0.05498 0.25364
 C1386 C 0.84825 0.07906 0.25606
 C1387 C 0.83196 0.10791 0.25881
 C1388 C 0.81815 0.13266 0.25986
 C1389 C 0.36291 0.55673 0.75328
 C1390 C 0.34827 0.58085 0.75572
 C1391 C 0.33204 0.60971 0.75852
 C1392 C 0.31825 0.63447 0.75958
 C1393 C 0.37223 0.43932 0.74801
 C1394 C 0.36139 0.41308 0.74496
 C1395 C 0.34758 0.38261 0.74209
 C1396 C 0.33460 0.35713 0.74104
 C1397 C 0.87474 0.93989 0.24842
 C1398 C 0.86383 0.91370 0.24510
 C1399 C 0.84992 0.88328 0.24203
 C1400 C 0.83687 0.85782 0.24087
 C1401 C 0.63480 0.94380 0.75511
 C1402 C 0.64684 0.91807 0.75521
 C1403 C 0.66179 0.88829 0.75481
 C1404 C 0.67504 0.86324 0.75370
 C1405 C 0.13459 0.44448 0.25488
 C1406 C 0.14644 0.41867 0.25509
 C1407 C 0.16115 0.38876 0.25482
 C1408 C 0.17422 0.36360 0.25380
 C1409 C 0.05483 0.24924 0.82036
 C1410 C 0.07700 0.24913 0.80491
 C1411 C 0.10548 0.24920 0.79067
 C1412 C 0.13145 0.24902 0.78144
 C1413 C 0.55751 0.74941 0.32063
 C1414 C 0.57952 0.74943 0.30500
 C1415 C 0.60785 0.74960 0.29055
 C1416 C 0.63376 0.74947 0.28118
 C1417 C 0.54577 0.24631 0.16012
 C1418 C 0.57037 0.24593 0.17282
 C1419 C 0.60007 0.24645 0.18563
 C1420 C 0.62587 0.24705 0.19600
 C1421 C 0.04561 0.74613 0.65940
 C1422 C 0.07025 0.74604 0.67203
 C1423 C 0.09998 0.74689 0.68476
 C1424 C 0.12578 0.74772 0.69510
 C1425 C 0.93335 0.72671 0.64484
 C1426 C 0.90752 0.72680 0.65443
 C1427 C 0.87797 0.73006 0.66640
 C1428 C 0.85332 0.73413 0.67759
 C1429 C 0.43319 0.22847 0.14571
 C1430 C 0.40735 0.22862 0.15531
 C1431 C 0.37781 0.23173 0.16731
 C1432 C 0.35311 0.23555 0.17852
 C1433 C 0.44788 0.76663 0.34906
 C1434 C 0.42076 0.77043 0.34291
 C1435 C 0.38973 0.77271 0.33289
 C1436 C 0.36426 0.77242 0.32153
 C1437 C 0.94776 0.26700 0.85000
 C1438 C 0.92061 0.27031 0.84365
 C1439 C 0.88959 0.27214 0.83350
 C1440 C 0.86412 0.27162 0.82212
 C1441 C 0.55771 0.99729 0.70654
 C1442 C 0.54238 0.99409 0.68436
 C1443 C 0.52735 0.99226 0.65663
 C1444 C 0.51760 0.99134 0.63178
 C1445 C 0.05771 0.49812 1.20611
 C1446 C 0.04231 0.49485 1.18398
 C1447 C 0.02720 0.49285 1.15632
 C1448 C 0.01738 0.49176 1.13150
 C1449 C -0.06055 -0.00763 1.19807
 C1450 C -0.04743 -0.01257 1.17553
 C1451 C -0.03416 -0.01637 1.14778
 C1452 C -0.02530 -0.01733 1.12299
 C1453 C 0.43972 0.49396 0.69830
 C1454 C 0.45296 0.48870 0.67590
 C1455 C 0.46639 0.48443 0.64830
 C1456 C 0.47538 0.48311 0.62358
 C1457 C 0.44880 0.49762 -0.20020
 C1458 C 0.46573 0.49752 -0.17882
 C1459 C 0.48179 0.49951 -0.15167
 C1460 C 0.49148 0.50143 -0.12691
 C1461 C -0.05056 0.99614 0.29973
 C1462 C -0.03368 0.99596 0.32117
 C1463 C -0.01766 0.99790 0.34837
 C1464 C -0.00797 0.99982 0.37315
 C1465 C 0.06563 0.49549 0.30911
 C1466 C 0.05159 0.48996 0.33141
 C1467 C 0.03674 0.48568 0.35876
 C1468 C 0.02624 0.48486 0.38314
 C1469 C 0.56583 -0.00536 -0.19033
 C1470 C 0.55192 -0.01075 -0.16794
 C1471 C 0.53722 -0.01477 -0.14048
 C1472 C 0.52681 -0.01535 -0.11606
 C1473 C 0.70287 0.61420 -0.00395
 C1474 C 0.68069 0.59629 -0.00571
 C1475 C 0.65355 0.57690 -0.00900
 C1476 C 0.62949 0.56161 -0.01093
 C1477 C 0.20327 1.11279 0.49586
 C1478 C 0.18139 1.09452 0.49407
 C1479 C 0.15453 1.07476 0.49080
 C1480 C 0.13061 1.05927 0.48890
 C1481 C 0.19235 -0.11582 1.00591
 C1482 C 0.16889 -0.10046 1.01009
 C1483 C 0.14048 -0.08306 1.01296
 C1484 C 0.11592 -0.06861 1.01347
 C1485 C 0.69263 0.38243 0.50654
 C1486 C 0.66921 0.39780 0.51087
 C1487 C 0.64090 0.41529 0.51392
 C1488 C 0.61643 0.42989 0.51452
 C1489 C -0.19705 0.38882 0.49745
 C1490 C -0.17394 0.40570 0.49650
 C1491 C -0.14600 0.42421 0.49395
 C1492 C -0.12186 0.43952 0.49241
 C1493 C 0.30291 -0.11000 -0.00245
 C1494 C 0.32615 -0.09329 -0.00319
 C1495 C 0.35424 -0.07496 -0.00553
 C1496 C 0.37848 -0.05978 -0.00695
 C1497 C 0.30952 1.11053 0.50466
 C1498 C 0.33052 1.09233 0.51066
 C1499 C 0.35607 1.07160 0.51609
 C1500 C 0.37883 1.05476 0.51840
 C1501 C -0.19075 0.61019 1.00457
 C1502 C -0.16988 0.59183 1.01050
 C1503 C -0.14441 0.57096 1.01581
 C1504 C -0.12170 0.55405 1.01805
 C1505 C -0.00483 0.71774 0.56946
 C1506 C -0.00667 0.69612 0.55344
 C1507 C -0.00799 0.66755 0.53939
 C1508 C -0.00856 0.64131 0.53083
 C1509 C 0.49485 0.21825 0.07013
 C1510 C 0.49286 0.19682 0.05391
 C1511 C 0.49151 0.16841 0.03957
 C1512 C 0.49104 0.14224 0.03084
 C1513 C -0.00014 0.19350 0.89876
 C1514 C -0.00264 0.17130 0.91489
 C1515 C -0.00410 0.14439 0.93262
 C1516 C -0.00442 0.12031 0.94642
 C1517 C 0.50430 0.69373 0.40012
 C1518 C 0.50171 0.67154 0.41622
 C1519 C 0.49992 0.64461 0.43388
 C1520 C 0.49919 0.62050 0.44760
 C1521 C 0.52022 0.80022 0.40669
 C1522 C 0.51777 0.82344 0.42051
 C1523 C 0.51387 0.85138 0.43512
 C1524 C 0.50997 0.87566 0.44699
 C1525 C 0.01902 0.29885 0.90747
 C1526 C 0.01706 0.32205 0.92142
 C1527 C 0.01355 0.35008 0.93599
 C1528 C 0.00981 0.37448 0.94771
 C1529 C 0.47608 0.31305 0.10452
 C1530 C 0.47599 0.33695 0.09070
 C1531 C 0.47987 0.36442 0.07447
 C1532 C 0.48521 0.38790 0.06095
 C1533 C -0.02522 0.81216 0.60441
 C1534 C -0.02548 0.83618 0.59078
 C1535 C -0.02155 0.86376 0.57473
 C1536 C -0.01595 0.88724 0.56132
 C1537 C 0.24751 0.30811 0.04359
 C1538 C 0.24435 0.29289 0.06583
 C1539 C 0.24250 0.27795 0.09359
 C1540 C 0.24150 0.26823 0.11845
 C1541 C 0.74752 0.80794 0.54341
 C1542 C 0.74434 0.79256 0.56557
 C1543 C 0.74249 0.77746 0.59326
 C1544 C 0.74153 0.76765 0.61810
 C1545 C 0.24451 0.69052 0.55172
 C1546 C 0.23937 0.70369 0.57419
 C1547 C 0.23526 0.71703 0.60187
 C1548 C 0.23401 0.72594 0.62663
 C1549 C 0.74250 0.18887 0.05219
 C1550 C 0.73768 0.20207 0.07472
 C1551 C 0.73405 0.21543 0.10246
 C1552 C 0.73321 0.22437 0.12724
 C1553 C 0.74612 0.19854 0.95046
 C1554 C 0.74598 0.21534 0.92896
 C1555 C 0.74801 0.23129 0.90172
 C1556 C 0.75000 0.24097 0.87693
 C1557 C 0.24759 0.69903 0.44986
 C1558 C 0.24724 0.71576 0.42833
 C1559 C 0.24896 0.73172 0.40107
 C1560 C 0.25071 0.74144 0.37629
 C1561 C 0.74495 0.81601 0.44033
 C1562 C 0.73963 0.80207 0.41795
 C1563 C 0.73571 0.78735 0.39050
 C1564 C 0.73522 0.77694 0.36610
 C1565 C 0.24426 0.31564 0.94047
 C1566 C 0.23861 0.30161 0.91820
 C1567 C 0.23427 0.28677 0.89085
 C1568 C 0.23346 0.27629 0.86647
 C1569 C 0.86294 0.45286 0.75430
 C1570 C 0.84496 0.43075 0.75616
 C1571 C 0.82552 0.40366 0.75953
 C1572 C 0.81023 0.37962 0.76146
 C1573 C 0.36312 0.95365 0.25435
 C1574 C 0.34512 0.93152 0.25606
 C1575 C 0.32564 0.90444 0.25922
 C1576 C 0.31030 0.88040 0.26102
 C1577 C 0.13300 0.94249 0.74379
 C1578 C 0.14855 0.91920 0.73954
 C1579 C 0.16621 0.89101 0.73657
 C1580 C 0.18090 0.86660 0.73600
 C1581 C 0.63558 0.44230 0.24497
 C1582 C 0.65073 0.41878 0.24059
 C1583 C 0.66793 0.39032 0.23746
 C1584 C 0.68226 0.36572 0.23679
 C1585 C 0.64132 0.55297 0.25302
 C1586 C 0.65801 0.57621 0.25364
 C1587 C 0.67632 0.60430 0.25585
 C1588 C 0.69148 0.62853 0.25719
 C1589 C 0.13859 0.05272 0.75250
 C1590 C 0.15535 0.07590 0.75335
 C1591 C 0.17372 0.10391 0.75581
 C1592 C 0.18894 0.12809 0.75730
 C1593 C 0.35985 0.06005 0.24549
 C1594 C 0.34159 0.08099 0.23953
 C1595 C 0.32080 0.10652 0.23420
 C1596 C 0.30392 0.12925 0.23194
 C1597 C 0.85987 0.55925 0.74510
 C1598 C 0.84164 0.58023 0.73912
 C1599 C 0.82090 0.60580 0.73376
 C1600 C 0.80409 0.62858 0.73151
 C1601 C 0.96945 0.74504 0.18032
 C1602 C 0.94811 0.74330 0.19668
 C1603 C 0.91969 0.74210 0.21105
 C1604 C 0.89346 0.74163 0.21970
 C1605 C 0.46758 0.24494 0.68128
 C1606 C 0.44606 0.24295 0.69743
 C1607 C 0.41751 0.24153 0.71155
 C1608 C 0.39122 0.24094 0.72006
 C1609 C 0.44372 0.75185 0.85148
 C1610 C 0.42155 0.74945 0.83530
 C1611 C 0.39467 0.74801 0.81750
 C1612 C 0.37063 0.74762 0.80363
 C1613 C 0.94435 0.24975 0.35148
 C1614 C 0.92210 0.24737 0.33538
 C1615 C 0.89516 0.24592 0.31766
 C1616 C 0.87107 0.24554 0.30386
 C1617 C 0.04668 0.26948 0.34045
 C1618 C 0.07008 0.26731 0.32677
 C1619 C 0.09840 0.26367 0.31264
 C1620 C 0.12304 0.25991 0.30129
 C1621 C 0.54938 0.76951 0.84309
 C1622 C 0.57249 0.76734 0.82902
 C1623 C 0.60041 0.76368 0.81425
 C1624 C 0.62473 0.75990 0.80237
 C1625 C 0.56209 0.22562 0.64570
 C1626 C 0.58622 0.22548 0.65919
 C1627 C 0.61389 0.22935 0.67515
 C1628 C 0.63743 0.23475 0.68857
 C1629 C 0.06302 0.72493 0.14440
 C1630 C 0.08697 0.72506 0.15816
 C1631 C 0.11436 0.72931 0.17443
 C1632 C 0.13773 0.73500 0.18800
   
