data_POSCAR
  _audit_creation_date              2014-09-24
  _audit_creation_method            'ToBaCCo'
  _symmetry_space_group_name_H-M    'P1'
  _symmetry_Int_Tables_number       1
  _symmetry_cell_setting            triclinic
  loop_
  _symmetry_equiv_pos_as_xyz
 x,y,z
_cell_length_a 108.3052
_cell_length_b 108.4484
_cell_length_c 108.5807
_cell_angle_alpha 89.974200
_cell_angle_beta 89.979400
_cell_angle_gamma 89.947900
loop_
  _atom_site_label
  _atom_site_type_symbol
  _atom_site_fract_x
  _atom_site_fract_y
  _atom_site_fract_z
N1 N 0.35738 0.32339 0.33188
 N2 N 0.35710 0.33187 0.32323
 C3 C 0.36667 0.33007 0.31550
 C4 C 0.37328 0.31997 0.31959
 C5 C 0.36715 0.31595 0.32999
 H6 H 0.36879 0.33573 0.30758
 H7 H 0.36960 0.30816 0.33571
 Cu8 Cu 0.34452 0.34466 0.32326
 Cu9 Cu 0.34515 0.32264 0.34500
 Cu10 Cu 0.32244 0.34524 0.34498
 N11 N 0.33175 0.35726 0.32327
 N12 N 0.32310 0.35737 0.33177
 C13 C 0.31553 0.36702 0.32979
 C14 C 0.31971 0.37331 0.31954
 C15 C 0.33000 0.36689 0.31562
 H16 H 0.30762 0.36934 0.33540
 H17 H 0.33578 0.36914 0.30781
 N18 N 0.32338 0.33215 0.35755
 N19 N 0.33196 0.32348 0.35748
 C20 C 0.33008 0.31589 0.36713
 C21 C 0.31990 0.32002 0.37356
 C22 C 0.31588 0.33033 0.36727
 H23 H 0.33573 0.30798 0.36938
 H24 H 0.30804 0.33605 0.36963
 H25 H 0.33110 0.33125 0.33538
 H26 H 0.34106 0.34123 0.34518
 N27 N 0.35790 0.82362 -0.16812
 N28 N 0.35806 0.83251 -0.17635
 C29 C 0.36777 0.83081 -0.18393
 C30 C 0.37398 0.82029 -0.18022
 C31 C 0.36745 0.81595 -0.17018
 H32 H 0.37017 0.83676 -0.19156
 H33 H 0.36953 0.80784 -0.16475
 Cu34 Cu 0.34558 0.84545 -0.17640
 Cu35 Cu 0.34548 0.82275 -0.15521
 Cu36 Cu 0.32248 0.84496 -0.15563
 N37 N 0.33241 0.85768 -0.17661
 N38 N 0.32332 0.85732 -0.16859
 C39 C 0.31556 0.86678 -0.17074
 C40 C 0.32007 0.87346 -0.18062
 C41 C 0.33077 0.86743 -0.18414
 H42 H 0.30733 0.86873 -0.16544
 H43 H 0.33689 0.87000 -0.19157
 N44 N 0.32324 0.83174 -0.14319
 N45 N 0.33212 0.82339 -0.14291
 C46 C 0.33034 0.81595 -0.13313
 C47 C 0.31984 0.81979 -0.12701
 C48 C 0.31556 0.82979 -0.13363
 H49 H 0.33624 0.80832 -0.13057
 H50 H 0.30753 0.83531 -0.13150
 H51 H 0.33187 0.83148 -0.16531
 H52 H 0.34120 0.84134 -0.15472
 N53 N 0.85717 0.32374 -0.16826
 N54 N 0.85696 0.33228 -0.17686
 C55 C 0.86653 0.33045 -0.18458
 C56 C 0.87306 0.32027 -0.18057
 C57 C 0.86690 0.31625 -0.17018
 H58 H 0.86868 0.33612 -0.19248
 H59 H 0.86946 0.30859 -0.16435
 Cu60 Cu 0.84428 0.34497 -0.17706
 Cu61 Cu 0.84497 0.32304 -0.15512
 Cu62 Cu 0.82269 0.34604 -0.15477
 N63 N 0.83181 0.35786 -0.17665
 N64 N 0.82345 0.35826 -0.16788
 C65 C 0.81604 0.36806 -0.16972
 C66 C 0.81995 0.37408 -0.18025
 C67 C 0.82996 0.36737 -0.18442
 H68 H 0.80849 0.37073 -0.16377
 H69 H 0.83549 0.36933 -0.19248
 N70 N 0.82346 0.33280 -0.14237
 N71 N 0.83184 0.32395 -0.14261
 C72 C 0.82989 0.31629 -0.13303
 C73 C 0.81985 0.32057 -0.12646
 C74 C 0.81599 0.33103 -0.13260
 H75 H 0.83540 0.30825 -0.13091
 H76 H 0.80830 0.33689 -0.13013
 H77 H 0.83095 0.33190 -0.16446
 H78 H 0.84131 0.34176 -0.15494
 N79 N 0.85695 0.82349 0.33151
 N80 N 0.85704 0.83234 0.32321
 C81 C 0.86669 0.83060 0.31556
 C82 C 0.87292 0.82011 0.31930
 C83 C 0.86649 0.81582 0.32941
 H84 H 0.86907 0.83652 0.30790
 H85 H 0.86875 0.80786 0.33499
 Cu86 Cu 0.84460 0.84529 0.32346
 Cu87 Cu 0.84474 0.82273 0.34466
 Cu88 Cu 0.82142 0.84458 0.34383
 N89 N 0.83197 0.85808 0.32367
 N90 N 0.82291 0.85775 0.33173
 C91 C 0.81532 0.86739 0.32981
 C92 C 0.81990 0.87415 0.32002
 C93 C 0.83048 0.86800 0.31633
 H94 H 0.80714 0.86937 0.33517
 H95 H 0.83652 0.87049 0.30879
 N96 N 0.82268 0.83201 0.35687
 N97 N 0.83149 0.82359 0.35709
 C98 C 0.82982 0.81627 0.36697
 C99 C 0.81954 0.82034 0.37330
 C100 C 0.81524 0.83034 0.36669
 H101 H 0.83564 0.80856 0.36946
 H102 H 0.80727 0.83593 0.36887
 H103 H 0.83126 0.83097 0.33446
 H104 H 0.84018 0.84127 0.34500
 N105 N 0.64275 0.67691 0.33183
 N106 N 0.64254 0.66797 0.32366
 C107 C 0.63287 0.66971 0.31604
 C108 C 0.62677 0.68030 0.31966
 C109 C 0.63329 0.68465 0.32967
 H110 H 0.63038 0.66372 0.30848
 H111 H 0.63118 0.69275 0.33509
 Cu112 Cu 0.65478 0.65483 0.32396
 Cu113 Cu 0.65500 0.67773 0.34491
 Cu114 Cu 0.67828 0.65589 0.34407
 N115 N 0.66756 0.64219 0.32415
 N116 N 0.67674 0.64267 0.33207
 C117 C 0.68437 0.63308 0.33010
 C118 C 0.67972 0.62621 0.32045
 C119 C 0.66904 0.63223 0.31689
 H120 H 0.69271 0.63125 0.33526
 H121 H 0.66293 0.62959 0.30947
 N122 N 0.67709 0.66850 0.35706
 N123 N 0.66828 0.67692 0.35727
 C124 C 0.66999 0.68428 0.36711
 C125 C 0.68028 0.68022 0.37342
 C126 C 0.68456 0.67020 0.36683
 H127 H 0.66415 0.69198 0.36959
 H128 H 0.69253 0.66460 0.36901
 H129 H 0.66828 0.66932 0.33455
 H130 H 0.65951 0.65916 0.34538
 N131 N 0.64298 0.17668 -0.16838
 N132 N 0.64269 0.16769 -0.17649
 C133 C 0.63292 0.16936 -0.18400
 C134 C 0.62682 0.17996 -0.18039
 C135 C 0.63345 0.18438 -0.17048
 H136 H 0.63037 0.16335 -0.19152
 H137 H 0.63135 0.19247 -0.16506
 Cu138 Cu 0.65513 0.15472 -0.17637
 Cu139 Cu 0.65533 0.17752 -0.15541
 Cu140 Cu 0.67769 0.15467 -0.15512
 N141 N 0.66798 0.14216 -0.17633
 N142 N 0.67686 0.14231 -0.16808
 C143 C 0.68453 0.13276 -0.17012
 C144 C 0.68019 0.12623 -0.18015
 C145 C 0.66968 0.13244 -0.18389
 H146 H 0.69255 0.13060 -0.16461
 H147 H 0.66376 0.13004 -0.19154
 N148 N 0.67698 0.16797 -0.14278
 N149 N 0.66855 0.17677 -0.14299
 C150 C 0.67049 0.18443 -0.13342
 C151 C 0.68056 0.18021 -0.12687
 C152 C 0.68447 0.16978 -0.13304
 H153 H 0.66492 0.19242 -0.13125
 H154 H 0.69217 0.16395 -0.13055
 H155 H 0.66892 0.16833 -0.16508
 H156 H 0.65903 0.15882 -0.15465
 N157 N 0.14264 0.67678 -0.16806
 N158 N 0.14237 0.66781 -0.17621
 C159 C 0.13257 0.66947 -0.18369
 C160 C 0.12646 0.68004 -0.18001
 C161 C 0.13310 0.68445 -0.17010
 H162 H 0.13006 0.66350 -0.19126
 H163 H 0.13108 0.69260 -0.16472
 Cu164 Cu 0.15499 0.65504 -0.17620
 Cu165 Cu 0.15507 0.67770 -0.15514
 Cu166 Cu 0.17733 0.65473 -0.15477
 N167 N 0.16755 0.64221 -0.17599
 N168 N 0.17637 0.64228 -0.16766
 C169 C 0.18396 0.63266 -0.16964
 C170 C 0.17964 0.62619 -0.17970
 C171 C 0.16922 0.63248 -0.18352
 H172 H 0.19202 0.63052 -0.16417
 H173 H 0.16338 0.63014 -0.19125
 N174 N 0.17673 0.66811 -0.14253
 N175 N 0.16836 0.67697 -0.14279
 C176 C 0.17036 0.68467 -0.13327
 C177 C 0.18040 0.68041 -0.12669
 C178 C 0.18422 0.66992 -0.13280
 H179 H 0.16484 0.69270 -0.13112
 H180 H 0.19187 0.66403 -0.13026
 H181 H 0.16878 0.66852 -0.16474
 H182 H 0.15872 0.65899 -0.15448
 N183 N 0.14300 0.17710 0.33169
 N184 N 0.14248 0.16792 0.32379
 C185 C 0.13245 0.16935 0.31659
 C186 C 0.12643 0.18000 0.32018
 C187 C 0.13336 0.18469 0.32977
 H188 H 0.12976 0.16321 0.30923
 H189 H 0.13152 0.19300 0.33494
 Cu190 Cu 0.15511 0.15514 0.32369
 Cu191 Cu 0.15627 0.17869 0.34364
 Cu192 Cu 0.17757 0.15490 0.34506
 N193 N 0.16808 0.14273 0.32352
 N194 N 0.17685 0.14274 0.33189
 C195 C 0.18452 0.13319 0.32981
 C196 C 0.18027 0.12682 0.31966
 C197 C 0.16983 0.13310 0.31587
 H198 H 0.19247 0.13091 0.33538
 H199 H 0.16399 0.13078 0.30816
 N200 N 0.17676 0.16820 0.35738
 N201 N 0.16872 0.17734 0.35677
 C202 C 0.17049 0.18492 0.36644
 C203 C 0.18011 0.18033 0.37342
 C204 C 0.18388 0.16975 0.36743
 H205 H 0.16517 0.19315 0.36831
 H206 H 0.19126 0.16364 0.37023
 H207 H 0.16971 0.16835 0.33453
 H208 H 0.15906 0.15993 0.34516
 N209 N 0.64241 0.32349 0.66765
 N210 N 0.64267 0.33196 0.67631
 C211 C 0.63307 0.33018 0.68400
 C212 C 0.62645 0.32011 0.67987
 C213 C 0.63260 0.31609 0.66949
 H214 H 0.63095 0.33583 0.69193
 H215 H 0.63015 0.30834 0.66373
 Cu216 Cu 0.65543 0.34458 0.67653
 Cu217 Cu 0.65477 0.32264 0.65466
 Cu218 Cu 0.67744 0.34516 0.65469
 N219 N 0.66803 0.35737 0.67624
 N220 N 0.67669 0.35742 0.66775
 C221 C 0.68423 0.36708 0.66966
 C222 C 0.68004 0.37345 0.67985
 C223 C 0.66974 0.36706 0.68381
 H224 H 0.69214 0.36938 0.66402
 H225 H 0.66396 0.36933 0.69161
 N226 N 0.67664 0.33198 0.64224
 N227 N 0.66806 0.32333 0.64229
 C228 C 0.66998 0.31572 0.63268
 C229 C 0.68020 0.31981 0.62627
 C230 C 0.68419 0.33013 0.63255
 H231 H 0.66432 0.30783 0.63041
 H232 H 0.69202 0.33585 0.63019
 H233 H 0.66877 0.33120 0.66433
 H234 H 0.65876 0.34127 0.65458
 N235 N 0.64268 0.82329 1.16806
 N236 N 0.64247 0.83223 1.17623
 C237 C 0.63268 0.83063 1.18374
 C238 C 0.62651 0.82011 1.18006
 C239 C 0.63310 0.81567 1.17010
 H240 H 0.63022 0.83662 1.19131
 H241 H 0.63098 0.80758 1.16467
 Cu242 Cu 0.65511 0.84496 1.17630
 Cu243 Cu 0.65509 0.82237 1.15512
 Cu244 Cu 0.67741 0.84532 1.15478
 N245 N 0.66767 0.85777 1.17605
 N246 N 0.67645 0.85774 1.16768
 C247 C 0.68402 0.86737 1.16966
 C248 C 0.67973 0.87378 1.17978
 C249 C 0.66934 0.86747 1.18362
 H250 H 0.69203 0.86958 1.16412
 H251 H 0.66350 0.86976 1.19137
 N252 N 0.67679 0.83195 1.14254
 N253 N 0.66840 0.82312 1.14276
 C254 C 0.67040 0.81544 1.13322
 C255 C 0.68046 0.81968 1.12668
 C256 C 0.68430 0.83014 1.13281
 H257 H 0.66486 0.80744 1.13105
 H258 H 0.69196 0.83601 1.13030
 H259 H 0.66885 0.83146 1.16463
 H260 H 0.65880 0.84105 1.15448
 N261 N 0.14276 0.32338 1.16791
 N262 N 0.14254 0.33230 1.17610
 C263 C 0.13274 0.33068 1.18359
 C264 C 0.12658 0.32016 1.17989
 C265 C 0.13318 0.31576 1.16994
 H266 H 0.13025 0.33664 1.19117
 H267 H 0.13109 0.30766 1.16454
 Cu268 Cu 0.15517 0.34503 1.17612
 Cu269 Cu 0.15517 0.32245 1.15498
 Cu270 Cu 0.17746 0.34540 1.15463
 N271 N 0.16772 0.35783 1.17590
 N272 N 0.17649 0.35782 1.16753
 C273 C 0.18404 0.36747 1.16952
 C274 C 0.17973 0.37389 1.17962
 C275 C 0.16936 0.36756 1.18345
 H276 H 0.19205 0.36968 1.16402
 H277 H 0.16353 0.36987 1.19120
 N278 N 0.17686 0.33201 1.14240
 N279 N 0.16848 0.32318 1.14263
 C280 C 0.17047 0.31549 1.13310
 C281 C 0.18053 0.31973 1.12655
 C282 C 0.18437 0.33019 1.13267
 H283 H 0.16493 0.30750 1.13093
 H284 H 0.19202 0.33606 1.13014
 H285 H 0.16892 0.33154 1.16452
 H286 H 0.15885 0.34114 1.15435
 N287 N 0.14243 0.82356 0.66766
 N288 N 0.14266 0.83207 0.67627
 C289 C 0.13306 0.83029 0.68397
 C290 C 0.12649 0.82017 0.67991
 C291 C 0.13267 0.81612 0.66955
 H292 H 0.13092 0.83595 0.69188
 H293 H 0.13021 0.80836 0.66381
 Cu294 Cu 0.15538 0.84470 0.67644
 Cu295 Cu 0.15476 0.82271 0.65465
 Cu296 Cu 0.17739 0.84532 0.65462
 N297 N 0.16797 0.85747 0.67618
 N298 N 0.17664 0.85755 0.66770
 C299 C 0.18419 0.86720 0.66967
 C300 C 0.17999 0.87353 0.67988
 C301 C 0.16968 0.86713 0.68379
 H302 H 0.19208 0.86954 0.66404
 H303 H 0.16392 0.86938 0.69160
 N304 N 0.17657 0.83214 0.64217
 N305 N 0.16804 0.82345 0.64226
 C306 C 0.16996 0.81583 0.63266
 C307 C 0.18013 0.81997 0.62621
 C308 C 0.18410 0.83031 0.63246
 H309 H 0.16433 0.80792 0.63041
 H310 H 0.19189 0.83606 0.63007
 H311 H 0.16876 0.83134 0.66425
 H312 H 0.15873 0.84135 0.65448
 N313 N 0.35744 0.67672 0.66799
 N314 N 0.35743 0.66800 0.67641
 C315 C 0.36708 0.66973 0.68405
 C316 C 0.37340 0.68011 0.68020
 C317 C 0.36704 0.68434 0.67001
 H318 H 0.36937 0.66390 0.69180
 H319 H 0.36931 0.69226 0.66440
 Cu320 Cu 0.34483 0.65521 0.67642
 Cu321 Cu 0.34525 0.67741 0.65483
 Cu322 Cu 0.32265 0.65475 0.65481
 N323 N 0.33199 0.64266 0.67645
 N324 N 0.32342 0.64247 0.66788
 C325 C 0.31593 0.63276 0.66981
 C326 C 0.32000 0.62659 0.68017
 C327 C 0.33019 0.63312 0.68419
 H328 H 0.30813 0.63035 0.66408
 H329 H 0.33591 0.63096 0.69207
 N330 N 0.32344 0.66797 0.64237
 N331 N 0.33211 0.67652 0.64229
 C332 C 0.33026 0.68404 0.63258
 C333 C 0.31992 0.68005 0.62632
 C334 C 0.31581 0.66988 0.63277
 H335 H 0.33596 0.69188 0.63022
 H336 H 0.30787 0.66428 0.63054
 H337 H 0.33135 0.66867 0.66448
 H338 H 0.34132 0.65877 0.65451
 N339 N 0.35732 0.17682 1.16806
 N340 N 0.35691 0.16846 1.17683
 C341 C 0.36642 0.17028 1.18460
 C342 C 0.37315 0.18026 1.18042
 C343 C 0.36713 0.18420 1.16992
 H344 H 0.36849 0.16465 1.19255
 H345 H 0.36972 0.19185 1.16407
 Cu346 Cu 0.34428 0.15575 1.17674
 Cu347 Cu 0.34528 0.17740 1.15474
 Cu348 Cu 0.32294 0.15444 1.15444
 N349 N 0.33175 0.14294 1.17665
 N350 N 0.32354 0.14238 1.16774
 C351 C 0.31622 0.13252 1.16954
 C352 C 0.32004 0.12663 1.18016
 C353 C 0.32987 0.13348 1.18446
 H354 H 0.30866 0.12985 1.16362
 H355 H 0.33535 0.13156 1.19255
 N356 N 0.32388 0.16753 1.14187
 N357 N 0.33228 0.17635 1.14208
 C358 C 0.33034 0.18397 1.13247
 C359 C 0.32030 0.17970 1.12592
 C360 C 0.31643 0.16928 1.13210
 H361 H 0.33582 0.19202 1.13034
 H362 H 0.30870 0.16347 1.12966
 H363 H 0.33108 0.16874 1.16402
 H364 H 0.34150 0.15876 1.15467
 N365 N 0.85702 0.67699 1.16839
 N366 N 0.85718 0.66811 1.17664
 C367 C 0.86688 0.66981 1.18422
 C368 C 0.87306 0.68031 1.18051
 C369 C 0.86656 0.68465 1.17047
 H370 H 0.86935 0.66385 1.19181
 H371 H 0.86877 0.69264 1.16494
 Cu372 Cu 0.84479 0.65515 1.17645
 Cu373 Cu 0.84484 0.67767 1.15523
 Cu374 Cu 0.82291 0.65441 1.15457
 N375 N 0.83215 0.64244 1.17632
 N376 N 0.82373 0.64211 1.16760
 C377 C 0.81630 0.63235 1.16947
 C378 C 0.82024 0.62628 1.17994
 C379 C 0.83030 0.63292 1.18407
 H380 H 0.80861 0.62983 1.16367
 H381 H 0.83585 0.63087 1.19209
 N382 N 0.82358 0.66773 1.14225
 N383 N 0.83180 0.67671 1.14263
 C384 C 0.82978 0.68441 1.13310
 C385 C 0.81988 0.68003 1.12642
 C386 C 0.81616 0.66947 1.13245
 H387 H 0.83516 0.69256 1.13108
 H388 H 0.80858 0.66352 1.12987
 H389 H 0.83108 0.66839 1.16459
 H390 H 0.84146 0.65894 1.15460
 N391 N 0.85727 0.17660 0.66779
 N392 N 0.85689 0.16823 0.67655
 C393 C 0.86645 0.17003 0.68427
 C394 C 0.87315 0.18002 0.68010
 C395 C 0.86709 0.18398 0.66963
 H396 H 0.86848 0.16445 0.69227
 H397 H 0.86969 0.19159 0.66375
 Cu398 Cu 0.84413 0.15563 0.67689
 Cu399 Cu 0.84512 0.17724 0.65463
 Cu400 Cu 0.82284 0.15432 0.65433
 N401 N 0.83172 0.14269 0.67637
 N402 N 0.82352 0.14215 0.66747
 C403 C 0.81621 0.13227 0.66924
 C404 C 0.82003 0.12634 0.67983
 C405 C 0.82988 0.13317 0.68414
 H406 H 0.80869 0.12958 0.66328
 H407 H 0.83530 0.13129 0.69228
 N408 N 0.82366 0.16747 0.64187
 N409 N 0.83204 0.17630 0.64208
 C410 C 0.83007 0.18395 0.63250
 C411 C 0.82002 0.17969 0.62596
 C412 C 0.81617 0.16925 0.63212
 H413 H 0.83555 0.19200 0.63037
 H414 H 0.80846 0.16344 0.62967
 H415 H 0.83095 0.16858 0.66402
 H416 H 0.84146 0.15854 0.65477
 N417 N 0.32330 0.35756 0.66779
 N418 N 0.33192 0.35744 0.67632
 C419 C 0.33022 0.36713 0.68390
 C420 C 0.31997 0.37358 0.67991
 C421 C 0.31579 0.36726 0.66970
 H422 H 0.33598 0.36937 0.69172
 H423 H 0.30791 0.36960 0.66404
 Cu424 Cu 0.34452 0.34464 0.67660
 Cu425 Cu 0.32258 0.34533 0.65471
 Cu426 Cu 0.34525 0.32272 0.65473
 N427 N 0.35727 0.33200 0.67640
 N428 N 0.35757 0.32354 0.66774
 C429 C 0.36739 0.31616 0.66957
 C430 C 0.37354 0.32019 0.67995
 C431 C 0.36689 0.33025 0.68408
 H432 H 0.36987 0.30841 0.66381
 H433 H 0.36900 0.33590 0.69201
 N434 N 0.33198 0.32347 0.64235
 N435 N 0.32343 0.33216 0.64226
 C436 C 0.31589 0.33032 0.63257
 C437 C 0.31987 0.31997 0.62631
 C438 C 0.33005 0.31583 0.63276
 H439 H 0.30809 0.33606 0.63019
 H440 H 0.33568 0.30791 0.63051
 H441 H 0.33119 0.33133 0.66434
 H442 H 0.34126 0.34139 0.65464
 N443 N 0.32353 0.85790 0.16746
 N444 N 0.33232 0.85794 0.17581
 C445 C 0.33055 0.86756 0.18346
 C446 C 0.32010 0.87382 0.17968
 C447 C 0.31586 0.86744 0.16953
 H448 H 0.33642 0.86989 0.19117
 H449 H 0.30782 0.86963 0.16404
 Cu450 Cu 0.34532 0.84556 0.17569
 Cu451 Cu 0.32274 0.84565 0.15440
 Cu452 Cu 0.34381 0.82168 0.15608
 N453 N 0.35778 0.83262 0.17569
 N454 N 0.35713 0.82330 0.16797
 C455 C 0.36669 0.81564 0.16999
 C456 C 0.37372 0.82044 0.17945
 C457 C 0.36783 0.83122 0.18286
 H458 H 0.36838 0.80718 0.16500
 H459 H 0.37063 0.83748 0.19007
 N460 N 0.33139 0.82303 0.14290
 N461 N 0.32346 0.83226 0.14217
 C462 C 0.31636 0.83070 0.13212
 C463 C 0.32001 0.82001 0.12626
 C464 C 0.32955 0.81538 0.13331
 H465 H 0.30904 0.83685 0.12925
 H466 H 0.33480 0.80708 0.13152
 H467 H 0.33054 0.83230 0.16513
 H468 H 0.34120 0.84045 0.15430
 N469 N 0.82365 0.35805 0.16726
 N470 N 0.83178 0.35744 0.17623
 C471 C 0.82995 0.36696 0.18398
 C472 C 0.82017 0.37387 0.17959
 C473 C 0.81639 0.36798 0.16897
 H474 H 0.83537 0.36882 0.19213
 H475 H 0.80886 0.37068 0.16300
 Cu476 Cu 0.84420 0.34448 0.17676
 Cu477 Cu 0.82296 0.34586 0.15414
 Cu478 Cu 0.84522 0.32290 0.15449
 N479 N 0.85695 0.33185 0.17644
 N480 N 0.85737 0.32352 0.16765
 C481 C 0.86723 0.31616 0.16944
 C482 C 0.87327 0.32009 0.17992
 C483 C 0.86653 0.33005 0.18415
 H484 H 0.86981 0.30853 0.16357
 H485 H 0.86856 0.33564 0.19214
 N486 N 0.83214 0.32383 0.14194
 N487 N 0.82376 0.33268 0.14170
 C488 C 0.81628 0.33090 0.13195
 C489 C 0.82013 0.32044 0.12581
 C490 C 0.83018 0.31617 0.13237
 H491 H 0.80857 0.33675 0.12948
 H492 H 0.83568 0.30812 0.13026
 H493 H 0.83104 0.33158 0.16388
 H494 H 0.84158 0.34162 0.15465
 N495 N 0.82357 0.85807 0.66744
 N496 N 0.83188 0.85760 0.67625
 C497 C 0.83000 0.86707 0.68406
 C498 C 0.82003 0.87382 0.67986
 C499 C 0.81616 0.86787 0.66930
 H500 H 0.83551 0.86902 0.69213
 H501 H 0.80857 0.87050 0.66339
 Cu502 Cu 0.84450 0.84483 0.67636
 Cu503 Cu 0.82288 0.84590 0.65425
 Cu504 Cu 0.84519 0.82288 0.65460
 N505 N 0.85705 0.83200 0.67647
 N506 N 0.85731 0.82350 0.66783
 C507 C 0.86703 0.81600 0.66976
 C508 C 0.87314 0.81999 0.68019
 C509 C 0.86657 0.83014 0.68424
 H510 H 0.86954 0.80830 0.66395
 H511 H 0.86870 0.83580 0.69215
 N512 N 0.83213 0.82388 0.64200
 N513 N 0.82375 0.83272 0.64177
 C514 C 0.81629 0.83096 0.63200
 C515 C 0.82015 0.82051 0.62585
 C516 C 0.83019 0.81623 0.63242
 H517 H 0.80858 0.83679 0.62953
 H518 H 0.83568 0.80818 0.63030
 H519 H 0.83113 0.83173 0.66399
 H520 H 0.84147 0.84156 0.65435
 N521 N 0.67626 0.64218 0.66745
 N522 N 0.66803 0.64269 0.67634
 C523 C 0.66985 0.63313 0.68406
 C524 C 0.67971 0.62629 0.67973
 C525 C 0.68355 0.63227 0.66918
 H526 H 0.66440 0.63118 0.69217
 H527 H 0.69118 0.62968 0.66331
 Cu528 Cu 0.65560 0.65563 0.67678
 Cu529 Cu 0.67706 0.65449 0.65443
 Cu530 Cu 0.65516 0.67778 0.65512
 N531 N 0.64299 0.66841 0.67670
 N532 N 0.64299 0.67713 0.66829
 C533 C 0.63330 0.68467 0.67024
 C534 C 0.62687 0.68040 0.68036
 C535 C 0.63325 0.67007 0.68425
 H536 H 0.63102 0.69261 0.66467
 H537 H 0.63086 0.66417 0.69192
 N538 N 0.66819 0.67681 0.64251
 N539 N 0.67640 0.66780 0.64211
 C540 C 0.68381 0.66952 0.63229
 C541 C 0.68010 0.68011 0.62628
 C542 C 0.67020 0.68451 0.63299
 H543 H 0.69137 0.66355 0.62969
 H544 H 0.66482 0.69266 0.63098
 H545 H 0.66910 0.66863 0.66439
 H546 H 0.65850 0.65900 0.65480
 N547 N 0.67635 0.14192 0.16716
 N548 N 0.66794 0.14230 0.17590
 C549 C 0.66978 0.13279 0.18367
 C550 C 0.67980 0.12609 0.17951
 C551 C 0.68375 0.13212 0.16902
 H552 H 0.66422 0.13081 0.19170
 H553 H 0.69145 0.12957 0.16320
 Cu554 Cu 0.65535 0.15508 0.17607
 Cu555 Cu 0.67721 0.15426 0.15415
 Cu556 Cu 0.65528 0.17759 0.15485
 N557 N 0.64292 0.16803 0.17626
 N558 N 0.64308 0.17690 0.16800
 C559 C 0.63352 0.18457 0.17005
 C560 C 0.62702 0.18024 0.18011
 C561 C 0.63322 0.16974 0.18384
 H562 H 0.63132 0.19257 0.16452
 H563 H 0.63076 0.16378 0.19145
 N564 N 0.66834 0.17663 0.14227
 N565 N 0.67656 0.16763 0.14186
 C566 C 0.68398 0.16938 0.13205
 C567 C 0.68026 0.17997 0.12606
 C568 C 0.67036 0.18435 0.13276
 H569 H 0.69154 0.16342 0.12944
 H570 H 0.66498 0.19251 0.13075
 H571 H 0.66908 0.16829 0.16416
 H572 H 0.65869 0.15887 0.15419
 N573 N 0.17641 0.64246 0.16758
 N574 N 0.16761 0.64242 0.17593
 C575 C 0.16931 0.63274 0.18353
 C576 C 0.17972 0.62643 0.17972
 C577 C 0.18400 0.63284 0.16959
 H578 H 0.16346 0.63042 0.19127
 H579 H 0.19197 0.63057 0.16403
 Cu580 Cu 0.15487 0.65507 0.17602
 Cu581 Cu 0.17726 0.65481 0.15460
 Cu582 Cu 0.15498 0.67777 0.15497
 N583 N 0.14244 0.66801 0.17617
 N584 N 0.14266 0.67696 0.16799
 C585 C 0.13311 0.68464 0.17009
 C586 C 0.12656 0.68024 0.18008
 C587 C 0.13272 0.66969 0.18373
 H588 H 0.13095 0.69269 0.16463
 H589 H 0.13024 0.66370 0.19130
 N590 N 0.16818 0.67697 0.14252
 N591 N 0.17657 0.66813 0.14227
 C592 C 0.18402 0.66990 0.13250
 C593 C 0.18016 0.68036 0.12636
 C594 C 0.17013 0.68463 0.13294
 H595 H 0.19168 0.66403 0.12997
 H596 H 0.16459 0.69264 0.13078
 H597 H 0.16866 0.66858 0.16455
 H598 H 0.15865 0.65908 0.15426
 N599 N 0.17670 0.14235 0.66796
 N600 N 0.16772 0.14210 0.67611
 C601 C 0.16934 0.13233 0.68360
 C602 C 0.17991 0.12618 0.67994
 C603 C 0.18436 0.13279 0.67001
 H604 H 0.16332 0.12983 0.69115
 H605 H 0.19249 0.13071 0.66461
 Cu606 Cu 0.15487 0.15467 0.67610
 Cu607 Cu 0.17760 0.15477 0.65504
 Cu608 Cu 0.15465 0.17703 0.65469
 N609 N 0.14212 0.16733 0.67591
 N610 N 0.14221 0.17613 0.66758
 C611 C 0.13260 0.18375 0.66955
 C612 C 0.12613 0.17947 0.67964
 C613 C 0.13239 0.16904 0.68347
 H614 H 0.13045 0.19178 0.66405
 H615 H 0.13004 0.16320 0.69119
 N616 N 0.16804 0.17642 0.64242
 N617 N 0.17689 0.16804 0.64267
 C618 C 0.18460 0.17003 0.63314
 C619 C 0.18035 0.18008 0.62657
 C620 C 0.16985 0.18391 0.63268
 H621 H 0.19261 0.16450 0.63097
 H622 H 0.16397 0.19155 0.63014
 H623 H 0.16842 0.16842 0.66464
 H624 H 0.15887 0.15843 0.65436
 N625 N 0.32312 0.64254 0.33166
 N626 N 0.33177 0.64265 0.32315
 C627 C 0.33002 0.63303 0.31550
 C628 C 0.31973 0.62662 0.31944
 C629 C 0.31556 0.63291 0.32968
 H630 H 0.33579 0.63078 0.30769
 H631 H 0.30765 0.63059 0.33530
 Cu632 Cu 0.34452 0.65525 0.32314
 Cu633 Cu 0.32245 0.65468 0.34486
 Cu634 Cu 0.34518 0.67721 0.34490
 N635 N 0.35712 0.66800 0.32311
 N636 N 0.35742 0.67645 0.33178
 C637 C 0.36718 0.68388 0.32989
 C638 C 0.37329 0.67989 0.31946
 C639 C 0.36666 0.66982 0.31535
 H640 H 0.36964 0.69165 0.33563
 H641 H 0.36875 0.66420 0.30741
 N642 N 0.33198 0.67640 0.35737
 N643 N 0.32339 0.66776 0.35742
 C644 C 0.31588 0.66959 0.36714
 C645 C 0.31992 0.67988 0.37344
 C646 C 0.33011 0.68398 0.36701
 H647 H 0.30804 0.66390 0.36950
 H648 H 0.33577 0.69186 0.36927
 H649 H 0.33111 0.66868 0.33527
 H650 H 0.34106 0.65865 0.34507
 N651 N 0.32346 0.14205 0.83205
 N652 N 0.33240 0.14186 0.82385
 C653 C 0.33070 0.13218 0.81626
 C654 C 0.32014 0.12604 0.81992
 C655 C 0.31576 0.13254 0.82994
 H656 H 0.33665 0.12976 0.80863
 H657 H 0.30765 0.13044 0.83536
 Cu658 Cu 0.34534 0.15430 0.82385
 Cu659 Cu 0.32256 0.15441 0.84498
 Cu660 Cu 0.34481 0.17732 0.84464
 N661 N 0.35760 0.16741 0.82369
 N662 N 0.35719 0.17649 0.83170
 C663 C 0.36662 0.18426 0.82954
 C664 C 0.37332 0.17979 0.81968
 C665 C 0.36736 0.16909 0.81617
 H666 H 0.36858 0.19246 0.83486
 H667 H 0.36998 0.16301 0.80872
 N668 N 0.33157 0.17655 0.85706
 N669 N 0.32320 0.16772 0.85729
 C670 C 0.31572 0.16950 0.86705
 C671 C 0.31957 0.17995 0.87320
 C672 C 0.32961 0.18421 0.86663
 H673 H 0.30806 0.16362 0.86957
 H674 H 0.33514 0.19221 0.86879
 H675 H 0.33133 0.16798 0.83490
 H676 H 0.34118 0.15861 0.84551
 N677 N 0.82334 0.64246 0.83206
 N678 N 0.83215 0.64238 0.82372
 C679 C 0.83041 0.63273 0.81610
 C680 C 0.81994 0.62650 0.81989
 C681 C 0.81568 0.63292 0.83001
 H682 H 0.83628 0.63038 0.80840
 H683 H 0.80768 0.63073 0.83556
 Cu684 Cu 0.84500 0.65491 0.82371
 Cu685 Cu 0.82260 0.65469 0.84514
 Cu686 Cu 0.84524 0.67729 0.84513
 N687 N 0.85745 0.66783 0.82361
 N688 N 0.85754 0.67648 0.83210
 C689 C 0.86718 0.68404 0.83012
 C690 C 0.87342 0.67994 0.81981
 C691 C 0.86700 0.66966 0.81588
 H692 H 0.86951 0.69192 0.83577
 H693 H 0.86923 0.66391 0.80806
 N694 N 0.83199 0.67652 0.85754
 N695 N 0.82343 0.66786 0.85761
 C696 C 0.81592 0.66967 0.86733
 C697 C 0.81992 0.67998 0.87362
 C698 C 0.83010 0.68411 0.86718
 H699 H 0.80812 0.66394 0.86972
 H700 H 0.83575 0.69200 0.86945
 H701 H 0.83142 0.66851 0.83538
 H702 H 0.84127 0.65866 0.84554
 N703 N 0.82324 0.14242 0.33169
 N704 N 0.83181 0.14261 0.32310
 C705 C 0.83002 0.13303 0.31540
 C706 C 0.81978 0.12657 0.31939
 C707 C 0.81568 0.13278 0.32971
 H708 H 0.83576 0.13083 0.30755
 H709 H 0.80788 0.13037 0.33543
 Cu710 Cu 0.84457 0.15521 0.32321
 Cu711 Cu 0.82264 0.15444 0.34501
 Cu712 Cu 0.84420 0.17806 0.34386
 N713 N 0.85737 0.16778 0.32332
 N714 N 0.85733 0.17655 0.33169
 C715 C 0.86715 0.18392 0.32992
 C716 C 0.87366 0.17957 0.31988
 C717 C 0.86722 0.16932 0.31589
 H718 H 0.86933 0.19194 0.33543
 H719 H 0.86956 0.16347 0.30818
 N720 N 0.83176 0.17664 0.35703
 N721 N 0.82362 0.16759 0.35752
 C722 C 0.81645 0.16914 0.36754
 C723 C 0.82025 0.17965 0.37360
 C724 C 0.82996 0.18418 0.36673
 H725 H 0.80894 0.16314 0.37021
 H726 H 0.83531 0.19236 0.36868
 H727 H 0.83040 0.16824 0.33486
 H728 H 0.84116 0.15933 0.34492
 N729 N 0.67650 0.35779 0.33211
 N730 N 0.66762 0.35792 0.32385
 C731 C 0.66927 0.36765 0.31631
 C732 C 0.67974 0.37387 0.32005
 C733 C 0.68411 0.36737 0.33008
 H734 H 0.66337 0.37002 0.30863
 H735 H 0.69220 0.36949 0.33552
 Cu736 Cu 0.65505 0.34512 0.32370
 Cu737 Cu 0.67748 0.34533 0.34499
 Cu738 Cu 0.65516 0.32241 0.34468
 N739 N 0.64244 0.33236 0.32366
 N740 N 0.64272 0.32336 0.33178
 C741 C 0.63320 0.31569 0.32970
 C742 C 0.62658 0.32014 0.31979
 C743 C 0.63267 0.33073 0.31615
 H744 H 0.63115 0.30754 0.33507
 H745 H 0.63016 0.33674 0.30860
 N746 N 0.66849 0.32311 0.35701
 N747 N 0.67689 0.33192 0.35723
 C748 C 0.68439 0.33011 0.36696
 C749 C 0.68054 0.31966 0.37310
 C750 C 0.67047 0.31543 0.36656
 H751 H 0.69204 0.33598 0.36948
 H752 H 0.66491 0.30745 0.36876
 H753 H 0.66887 0.33154 0.33512
 H754 H 0.65890 0.34106 0.34542
 N755 N 0.67645 0.85789 0.83229
 N756 N 0.66760 0.85801 0.82401
 C757 C 0.66925 0.86775 0.81647
 C758 C 0.67973 0.87397 0.82022
 C759 C 0.68408 0.86747 0.83025
 H760 H 0.66336 0.87014 0.80879
 H761 H 0.69216 0.86959 0.83569
 Cu762 Cu 0.65500 0.84524 0.82390
 Cu763 Cu 0.67743 0.84545 0.84519
 Cu764 Cu 0.65508 0.82254 0.84489
 N765 N 0.64239 0.83248 0.82383
 N766 N 0.64264 0.82350 0.83197
 C767 C 0.63309 0.81585 0.82989
 C768 C 0.62648 0.82032 0.81997
 C769 C 0.63261 0.83088 0.81634
 H770 H 0.63103 0.80771 0.83525
 H771 H 0.63010 0.83690 0.80880
 N772 N 0.66841 0.82325 0.85723
 N773 N 0.67681 0.83206 0.85744
 C774 C 0.68431 0.83026 0.86717
 C775 C 0.68045 0.81982 0.87333
 C776 C 0.67038 0.81558 0.86680
 H777 H 0.69196 0.83613 0.86968
 H778 H 0.66481 0.80761 0.86900
 H779 H 0.66879 0.83166 0.83532
 H780 H 0.65883 0.84120 0.84562
 N781 N 0.17629 0.35769 0.83221
 N782 N 0.16742 0.35781 0.82394
 C783 C 0.16910 0.36750 0.81635
 C784 C 0.17955 0.37376 0.82012
 C785 C 0.18390 0.36728 0.83018
 H786 H 0.16319 0.36987 0.80866
 H787 H 0.19194 0.36945 0.83566
 Cu788 Cu 0.15482 0.34503 0.82386
 Cu789 Cu 0.17726 0.34525 0.84512
 Cu790 Cu 0.15493 0.32230 0.84481
 N791 N 0.14223 0.33224 0.82376
 N792 N 0.14252 0.32324 0.83187
 C793 C 0.13298 0.31557 0.82980
 C794 C 0.12638 0.32001 0.81987
 C795 C 0.13249 0.33058 0.81622
 H796 H 0.13092 0.30745 0.83521
 H797 H 0.12997 0.33661 0.80868
 N798 N 0.16824 0.32304 0.85717
 N799 N 0.17664 0.33186 0.85739
 C800 C 0.18413 0.33005 0.86712
 C801 C 0.18028 0.31959 0.87327
 C802 C 0.17022 0.31536 0.86673
 H803 H 0.19179 0.33591 0.86964
 H804 H 0.16467 0.30738 0.86892
 H805 H 0.16863 0.33146 0.83532
 H806 H 0.15868 0.34095 0.84561
 N807 N 0.17637 0.85791 0.33214
 N808 N 0.16753 0.85801 0.32383
 C809 C 0.16919 0.86773 0.31629
 C810 C 0.17966 0.87396 0.32003
 C811 C 0.18400 0.86748 0.33009
 H812 H 0.16334 0.87006 0.30857
 H813 H 0.19208 0.86962 0.33554
 Cu814 Cu 0.15496 0.84522 0.32361
 Cu815 Cu 0.17732 0.84545 0.34501
 Cu816 Cu 0.15500 0.82254 0.34468
 N817 N 0.14232 0.83249 0.32363
 N818 N 0.14256 0.82351 0.33178
 C819 C 0.13302 0.81585 0.32967
 C820 C 0.12642 0.82032 0.31975
 C821 C 0.13254 0.83090 0.31615
 H822 H 0.13095 0.80769 0.33503
 H823 H 0.13007 0.83689 0.30858
 N824 N 0.16832 0.82322 0.35702
 N825 N 0.17672 0.83204 0.35725
 C826 C 0.18420 0.83023 0.36699
 C827 C 0.18034 0.81978 0.37314
 C828 C 0.17029 0.81555 0.36658
 H829 H 0.19185 0.83611 0.36952
 H830 H 0.16473 0.80757 0.36876
 H831 H 0.16875 0.83164 0.33511
 H832 H 0.15875 0.84119 0.34535
 C833 C 0.24461 1.03882 0.25333
 C834 C 0.25406 1.03882 0.24495
 C835 C 0.25739 1.02660 0.24315
 N836 N 0.25025 1.01918 0.25017
 C837 C 0.24244 1.02661 0.25643
 C838 C 0.26671 1.02265 0.23488
 C839 C 0.26950 1.01017 0.23212
 C840 C 0.27775 1.00645 0.22308
 C841 C 0.27756 0.99377 0.22289
 C842 C 0.26925 0.99003 0.23187
 N843 N 0.26456 1.00009 0.23758
 C844 C 0.26609 0.97756 0.23424
 C845 C 0.25687 0.97363 0.24262
 C846 C 0.25379 0.96140 0.24475
 C847 C 0.24451 0.96142 0.25332
 C848 C 0.24221 0.97366 0.25624
 N849 N 0.24978 0.98107 0.24969
 C850 C 0.23352 0.97761 0.26513
 C851 C 0.23103 0.99009 0.26810
 C852 C 0.22403 0.99382 0.27813
 C853 C 0.22407 1.00649 0.27817
 C854 C 0.23110 1.01022 0.26816
 N855 N 0.23510 1.00016 0.26193
 C856 C 0.23365 1.02269 0.26524
 H857 H 0.23987 1.04692 0.25672
 H858 H 0.25791 1.04692 0.24058
 H859 H 0.23957 1.00018 0.25348
 H860 H 0.28321 1.01225 0.21707
 H861 H 0.28282 0.98799 0.21669
 H862 H 0.25781 0.95326 0.24060
 H863 H 0.24002 0.95331 0.25702
 H864 H 0.21961 1.01229 0.28496
 H865 H 0.25874 1.00008 0.24510
 H866 H 0.21955 0.98801 0.28489
 C867 C 0.24430 0.46130 0.75327
 C868 C 0.25356 0.46129 0.74469
 C869 C 0.25671 0.47352 0.74264
 N870 N 0.24968 0.48095 0.74979
 C871 C 0.24207 0.47352 0.75628
 C872 C 0.26597 0.47746 0.73430
 C873 C 0.26919 0.48993 0.73198
 C874 C 0.27773 0.49368 0.72322
 C875 C 0.27788 0.50636 0.72338
 C876 C 0.26938 0.51009 0.73219
 N877 N 0.26430 0.50001 0.73750
 C878 C 0.26649 0.52257 0.73486
 C879 C 0.25714 0.52650 0.74312
 C880 C 0.25370 0.53870 0.74485
 C881 C 0.24430 0.53869 0.75329
 C882 C 0.24226 0.52648 0.75650
 N883 N 0.25011 0.51908 0.75026
 C884 C 0.23353 0.52255 0.76537
 C885 C 0.23103 0.51007 0.76832
 C886 C 0.22407 0.50632 0.77837
 C887 C 0.22403 0.49365 0.77833
 C888 C 0.23096 0.48993 0.76824
 N889 N 0.23499 0.50001 0.76205
 C890 C 0.23342 0.47745 0.76523
 H891 H 0.23978 0.45318 0.75691
 H892 H 0.25753 0.45316 0.74048
 H893 H 0.23935 0.50005 0.75355
 H894 H 0.28318 0.48789 0.71719
 H895 H 0.28350 0.51216 0.71752
 H896 H 0.25746 0.54679 0.74038
 H897 H 0.23950 0.54678 0.75665
 H898 H 0.21958 0.48783 0.78511
 H899 H 0.25814 0.49999 0.74474
 H900 H 0.21967 0.51212 0.78520
 C901 C 0.74637 -0.03883 0.24467
 C902 C 0.75562 -0.03884 0.25326
 C903 C 0.75786 -0.02662 0.25624
 N904 N 0.75027 -0.01918 0.24973
 C905 C 0.74324 -0.02660 0.24259
 C906 C 0.76652 -0.02268 0.26516
 C907 C 0.76896 -0.01021 0.26818
 C908 C 0.77592 -0.00650 0.27824
 C909 C 0.77588 0.00617 0.27828
 C910 C 0.76891 0.00992 0.26824
 N911 N 0.76493 -0.00013 0.26199
 C912 C 0.76642 0.02240 0.26527
 C913 C 0.75768 0.02635 0.25641
 C914 C 0.75563 0.03856 0.25321
 C915 C 0.74624 0.03858 0.24477
 C916 C 0.74281 0.02638 0.24304
 N917 N 0.74983 0.01895 0.25019
 C918 C 0.73346 0.02246 0.23479
 C919 C 0.73057 0.00998 0.23213
 C920 C 0.72198 0.00627 0.22341
 C921 C 0.72212 -0.00642 0.22326
 C922 C 0.73076 -0.01017 0.23192
 N923 N 0.73571 -0.00011 0.23737
 C924 C 0.73399 -0.02264 0.23424
 H925 H 0.74238 -0.04696 0.24048
 H926 H 0.76012 -0.04696 0.25694
 H927 H 0.74201 -0.00013 0.24448
 H928 H 0.78039 -0.01232 0.28501
 H929 H 0.78031 0.01197 0.28508
 H930 H 0.76042 0.04664 0.25657
 H931 H 0.74248 0.04668 0.24030
 H932 H 0.71659 -0.01221 0.21731
 H933 H 0.76058 -0.00009 0.25349
 H934 H 0.71628 0.01208 0.21763
 C935 C 0.74606 0.46117 0.74509
 C936 C 0.75522 0.46118 0.75378
 C937 C 0.75792 0.47343 0.75627
 N938 N 0.75061 0.48084 0.74940
 C939 C 0.74337 0.47341 0.74250
 C940 C 0.76671 0.47741 0.76508
 C941 C 0.76909 0.48989 0.76822
 C942 C 0.77676 0.49361 0.77776
 C943 C 0.77654 0.50629 0.77796
 C944 C 0.76878 0.51005 0.76851
 N945 N 0.76448 0.50000 0.76251
 C946 C 0.76596 0.52254 0.76577
 C947 C 0.75714 0.52648 0.75696
 C948 C 0.75488 0.53870 0.75394
 C949 C 0.74570 0.53869 0.74525
 C950 C 0.74258 0.52645 0.74320
 N951 N 0.74960 0.51905 0.75038
 C952 C 0.73351 0.52249 0.73464
 C953 C 0.73082 0.51000 0.73177
 C954 C 0.72219 0.50625 0.72310
 C955 C 0.72242 0.49356 0.72289
 C956 C 0.73114 0.48982 0.73147
 N957 N 0.73611 0.49991 0.73687
 C958 C 0.73428 0.47734 0.73393
 H959 H 0.74177 0.45302 0.74124
 H960 H 0.75927 0.45306 0.75794
 H961 H 0.74257 0.49990 0.74379
 H962 H 0.78196 0.48779 0.78399
 H963 H 0.78151 0.51208 0.78438
 H964 H 0.75942 0.54682 0.75754
 H965 H 0.74189 0.54680 0.74085
 H966 H 0.71680 0.48777 0.71703
 H967 H 0.75942 0.50006 0.75447
 H968 H 0.71633 0.51205 0.71747
 C969 C 0.24531 0.46132 0.24548
 C970 C 0.25471 0.46131 0.25389
 C971 C 0.25737 0.47355 0.25645
 N972 N 0.24991 0.48101 0.24980
 C973 C 0.24252 0.47357 0.24306
 C974 C 0.26637 0.47748 0.26504
 C975 C 0.26912 0.48995 0.26779
 C976 C 0.27659 0.49367 0.27747
 C977 C 0.27659 0.50634 0.27747
 C978 C 0.26911 0.51008 0.26779
 N979 N 0.26480 0.50002 0.26179
 C980 C 0.26634 0.52256 0.26505
 C981 C 0.25734 0.52652 0.25646
 C982 C 0.25465 0.53877 0.25394
 C983 C 0.24526 0.53878 0.24552
 C984 C 0.24250 0.52653 0.24307
 N985 N 0.24990 0.51908 0.24979
 C986 C 0.23344 0.52260 0.23454
 C987 C 0.23061 0.51013 0.23186
 C988 C 0.22302 0.50641 0.22227
 C989 C 0.22302 0.49374 0.22228
 C990 C 0.23062 0.49000 0.23186
 N991 N 0.23500 0.50006 0.23781
 C992 C 0.23346 0.47752 0.23454
 H993 H 0.24104 0.45319 0.24157
 H994 H 0.25906 0.45317 0.25771
 H995 H 0.24010 0.50005 0.24587
 H996 H 0.28135 0.48786 0.28404
 H997 H 0.28134 0.51214 0.28405
 H998 H 0.25898 0.54689 0.25778
 H999 H 0.24097 0.54691 0.24164
 H1000 H 0.21819 0.48794 0.21575
 H1001 H 0.25982 0.50003 0.25365
 H1002 H 0.21819 0.51222 0.21574
 C1003 C 0.74350 0.96172 0.75268
 C1004 C 0.75247 0.96169 0.74380
 C1005 C 0.75628 0.97381 0.74236
 N1006 N 0.74995 0.98122 0.75015
 C1007 C 0.74206 0.97386 0.75642
 C1008 C 0.76569 0.97763 0.73416
 C1009 C 0.76897 0.99007 0.73194
 C1010 C 0.77924 0.99377 0.72526
 C1011 C 0.77925 1.00646 0.72525
 C1012 C 0.76898 1.01019 0.73193
 N1013 N 0.76267 1.00014 0.73578
 C1014 C 0.76572 1.02265 0.73413
 C1015 C 0.75632 1.02655 0.74231
 C1016 C 0.75262 1.03870 0.74377
 C1017 C 0.74364 1.03874 0.75264
 C1018 C 0.74210 1.02660 0.75636
 N1019 N 0.74993 1.01918 0.75009
 C1020 C 0.73380 1.02277 0.76567
 C1021 C 0.73159 1.01033 0.76896
 C1022 C 0.72487 1.00664 0.77919
 C1023 C 0.72487 0.99395 0.77921
 C1024 C 0.73159 0.99021 0.76899
 N1025 N 0.73546 1.00026 0.76270
 C1026 C 0.73380 0.97775 0.76575
 H1027 H 0.73858 0.95369 0.75599
 H1028 H 0.75580 0.95363 0.73894
 H1029 H 0.73958 1.00024 0.75410
 H1030 H 0.78608 0.98793 0.72091
 H1031 H 0.78610 1.01226 0.72089
 H1032 H 0.75603 1.04675 0.73894
 H1033 H 0.73880 1.04681 0.75597
 H1034 H 0.72050 0.98814 0.78604
 H1035 H 0.75407 1.00016 0.73990
 H1036 H 0.72048 1.01247 0.78600
 C1037 C 0.74354 0.46160 0.25248
 C1038 C 0.75253 0.46157 0.24361
 C1039 C 0.75635 0.47369 0.24220
 N1040 N 0.75001 0.48110 0.24999
 C1041 C 0.74211 0.47374 0.25623
 C1042 C 0.76579 0.47753 0.23405
 C1043 C 0.76908 0.48997 0.23186
 C1044 C 0.77937 0.49367 0.22521
 C1045 C 0.77937 0.50636 0.22520
 C1046 C 0.76909 0.51009 0.23184
 N1047 N 0.76277 0.50004 0.23568
 C1048 C 0.76581 0.52254 0.23402
 C1049 C 0.75638 0.52642 0.24219
 C1050 C 0.75264 0.53857 0.24362
 C1051 C 0.74367 0.53859 0.25250
 C1052 C 0.74218 0.52646 0.25625
 N1053 N 0.75003 0.51905 0.24998
 C1054 C 0.73391 0.52262 0.26559
 C1055 C 0.73168 0.51018 0.26884
 C1056 C 0.72500 0.50647 0.27910
 C1057 C 0.72499 0.49379 0.27909
 C1058 C 0.73166 0.49006 0.26884
 N1059 N 0.73550 0.50012 0.26254
 C1060 C 0.73385 0.47761 0.26557
 H1061 H 0.73862 0.45357 0.25578
 H1062 H 0.75587 0.45352 0.23875
 H1063 H 0.73959 0.50011 0.25393
 H1064 H 0.78622 0.48784 0.22087
 H1065 H 0.78624 0.51217 0.22085
 H1066 H 0.75601 0.54661 0.23876
 H1067 H 0.73881 0.54666 0.25581
 H1068 H 0.72064 0.48797 0.28593
 H1069 H 0.75415 0.50006 0.23977
 H1070 H 0.72067 0.51230 0.28595
 C1071 C 0.24569 0.03843 0.74567
 C1072 C 0.25506 0.03838 0.75412
 C1073 C 0.25768 0.02611 0.75665
 N1074 N 0.25023 0.01871 0.74996
 C1075 C 0.24288 0.02620 0.74321
 C1076 C 0.26665 0.02212 0.76527
 C1077 C 0.26940 0.00963 0.76798
 C1078 C 0.27685 0.00585 0.77766
 C1079 C 0.27685 -0.00682 0.77762
 C1080 C 0.26941 -0.01051 0.76791
 N1081 N 0.26511 -0.00041 0.76192
 C1082 C 0.26665 -0.02298 0.76512
 C1083 C 0.25766 -0.02686 0.75649
 C1084 C 0.25502 -0.03909 0.75385
 C1085 C 0.24562 -0.03903 0.74544
 C1086 C 0.24281 -0.02677 0.74312
 N1087 N 0.25019 -0.01937 0.74990
 C1088 C 0.23370 -0.02277 0.73465
 C1089 C 0.23084 -0.01028 0.73203
 C1090 C 0.22318 -0.00651 0.72250
 C1091 C 0.22321 0.00616 0.72251
 C1092 C 0.23089 0.00985 0.73204
 N1093 N 0.23529 -0.00024 0.73795
 C1094 C 0.23378 0.02232 0.73469
 H1095 H 0.24144 0.04659 0.74180
 H1096 H 0.25940 0.04649 0.75797
 H1097 H 0.24046 -0.00027 0.74596
 H1098 H 0.28158 0.01162 0.78428
 H1099 H 0.28159 -0.01266 0.78419
 H1100 H 0.25939 -0.04725 0.75761
 H1101 H 0.24136 -0.04713 0.74148
 H1102 H 0.21835 0.01198 0.71601
 H1103 H 0.26016 -0.00037 0.75377
 H1104 H 0.21831 -0.01229 0.71600
 C1105 C 0.25418 0.24518 0.96116
 C1106 C 0.24570 0.25454 0.96117
 C1107 C 0.24321 0.25724 0.97341
 N1108 N 0.24998 0.24986 0.98084
 C1109 C 0.25671 0.24247 0.97339
 C1110 C 0.23459 0.26624 0.97735
 C1111 C 0.23190 0.26905 0.98982
 C1112 C 0.22224 0.27658 0.99356
 C1113 C 0.22225 0.27658 1.00621
 C1114 C 0.23193 0.26906 1.00992
 N1115 N 0.23792 0.26472 0.99986
 C1116 C 0.23465 0.26626 1.02238
 C1117 C 0.24328 0.25725 1.02630
 C1118 C 0.24580 0.25454 1.03852
 C1119 C 0.25427 0.24517 1.03851
 C1120 C 0.25676 0.24247 1.02627
 N1121 N 0.25001 0.24986 1.01884
 C1122 C 0.26538 0.23347 1.02232
 C1123 C 0.26808 0.23067 1.00986
 C1124 C 0.27775 0.22315 1.00613
 C1125 C 0.27774 0.22315 0.99348
 C1126 C 0.26806 0.23067 0.98976
 N1127 N 0.26206 0.23500 0.99982
 C1128 C 0.26534 0.23347 0.97730
 H1129 H 0.25805 0.24088 0.95303
 H1130 H 0.24181 0.25883 0.95306
 H1131 H 0.25393 0.24002 0.99983
 H1132 H 0.21565 0.28135 0.98777
 H1133 H 0.21568 0.28136 1.01201
 H1134 H 0.24194 0.25883 1.04665
 H1135 H 0.25816 0.24087 1.04663
 H1136 H 0.28432 0.21838 0.98768
 H1137 H 0.24605 0.25970 0.99985
 H1138 H 0.28434 0.21838 1.01192
 C1139 C 0.25535 0.74642 0.46113
 C1140 C 0.24671 0.75565 0.46113
 C1141 C 0.24371 0.75788 0.47335
 N1142 N 0.25028 0.75031 0.48076
 C1143 C 0.25744 0.74330 0.47334
 C1144 C 0.23472 0.76650 0.47728
 C1145 C 0.23172 0.76896 0.48975
 C1146 C 0.22162 0.77589 0.49347
 C1147 C 0.22159 0.77586 0.50613
 C1148 C 0.23168 0.76891 0.50985
 N1149 N 0.23796 0.76496 0.49980
 C1150 C 0.23466 0.76641 0.52231
 C1151 C 0.24357 0.75770 0.52623
 C1152 C 0.24677 0.75564 0.53842
 C1153 C 0.25525 0.74626 0.53843
 C1154 C 0.25700 0.74286 0.52624
 N1155 N 0.24985 0.74989 0.51883
 C1156 C 0.26529 0.73353 0.52232
 C1157 C 0.26799 0.73066 0.50986
 C1158 C 0.27686 0.72221 0.50613
 C1159 C 0.27702 0.72237 0.49346
 C1160 C 0.26820 0.73087 0.48973
 N1161 N 0.26263 0.73571 0.49978
 C1162 C 0.26584 0.73407 0.47727
 H1163 H 0.25955 0.74245 0.45300
 H1164 H 0.24302 0.76013 0.45303
 H1165 H 0.25533 0.74182 0.49977
 H1166 H 0.21481 0.78032 0.48767
 H1167 H 0.21476 0.78026 0.51192
 H1168 H 0.24338 0.76040 0.54650
 H1169 H 0.25970 0.74248 0.54652
 H1170 H 0.28309 0.71695 0.48768
 H1171 H 0.24648 0.76060 0.49983
 H1172 H 0.28276 0.71662 0.51193
 C1173 C 0.25541 0.75383 -0.03883
 C1174 C 0.24690 0.74450 -0.03881
 C1175 C 0.24367 0.74248 -0.02662
 N1176 N 0.24997 0.75027 -0.01922
 C1177 C 0.25717 0.75725 -0.02664
 C1178 C 0.23472 0.73383 -0.02269
 C1179 C 0.23173 0.73136 -0.01022
 C1180 C 0.22162 0.72446 -0.00648
 C1181 C 0.22165 0.72444 0.00618
 C1182 C 0.23177 0.73132 0.00989
 N1183 N 0.23801 0.73530 -0.00017
 C1184 C 0.23477 0.73378 0.02236
 C1185 C 0.24379 0.74236 0.02628
 C1186 C 0.24679 0.74459 0.03849
 C1187 C 0.25546 0.75377 0.03848
 C1188 C 0.25758 0.75686 0.02626
 N1189 N 0.25039 0.74988 0.01886
 C1190 C 0.26602 0.76604 0.02232
 C1191 C 0.26839 0.76922 0.00986
 C1192 C 0.27721 0.77770 0.00611
 C1193 C 0.27705 0.77785 -0.00656
 C1194 C 0.26819 0.76941 -0.01027
 N1195 N 0.26284 0.76437 -0.00019
 C1196 C 0.26548 0.76654 -0.02273
 H1197 H 0.25989 0.75757 -0.04692
 H1198 H 0.24351 0.73973 -0.04688
 H1199 H 0.25556 0.75825 -0.00017
 H1200 H 0.21478 0.72007 -0.01227
 H1201 H 0.21483 0.72004 0.01199
 H1202 H 0.24307 0.74014 0.04660
 H1203 H 0.25966 0.75774 0.04660
 H1204 H 0.28296 0.78342 -0.01237
 H1205 H 0.24654 0.73962 -0.00020
 H1206 H 0.28328 0.78311 0.01189
 C1207 C 0.24470 0.24643 0.46127
 C1208 C 0.25335 0.25562 0.46129
 C1209 C 0.25634 0.25783 0.47351
 N1210 N 0.24976 0.25028 0.48091
 C1211 C 0.24258 0.24331 0.47349
 C1212 C 0.26534 0.26642 0.47746
 C1213 C 0.26834 0.26886 0.48992
 C1214 C 0.27845 0.27577 0.49364
 C1215 C 0.27848 0.27573 0.50630
 C1216 C 0.26839 0.26880 0.51003
 N1217 N 0.26211 0.26486 0.49998
 C1218 C 0.26541 0.26630 0.52249
 C1219 C 0.25649 0.25760 0.52640
 C1220 C 0.25327 0.25554 0.53859
 C1221 C 0.24479 0.24618 0.53859
 C1222 C 0.24305 0.24279 0.52639
 N1223 N 0.25022 0.24981 0.51899
 C1224 C 0.23475 0.23350 0.52246
 C1225 C 0.23204 0.23065 0.50999
 C1226 C 0.22318 0.22221 0.50627
 C1227 C 0.22301 0.22239 0.49360
 C1228 C 0.23181 0.23089 0.48986
 N1229 N 0.23737 0.23572 0.49992
 C1230 C 0.23416 0.23410 0.47741
 H1231 H 0.24050 0.24247 0.45314
 H1232 H 0.25707 0.26010 0.45319
 H1233 H 0.24465 0.24184 0.49991
 H1234 H 0.28526 0.28019 0.48784
 H1235 H 0.28531 0.28012 0.51210
 H1236 H 0.25665 0.26030 0.54667
 H1237 H 0.24032 0.24242 0.54667
 H1238 H 0.21694 0.21698 0.48781
 H1239 H 0.25359 0.26053 0.50001
 H1240 H 0.21728 0.21662 0.51207
 C1241 C 0.75423 0.74532 1.03866
 C1242 C 0.74576 0.75469 1.03866
 C1243 C 0.74327 0.75742 1.02643
 N1244 N 0.75003 0.75004 1.01899
 C1245 C 0.75676 0.74264 1.02643
 C1246 C 0.73467 0.76643 1.02249
 C1247 C 0.73197 0.76925 1.01003
 C1248 C 0.72230 0.77677 1.00631
 C1249 C 0.72231 0.77678 0.99365
 C1250 C 0.73198 0.76925 0.98993
 N1251 N 0.73798 0.76491 0.99998
 C1252 C 0.73470 0.76644 0.97747
 C1253 C 0.74332 0.75744 0.97354
 C1254 C 0.74584 0.75474 0.96131
 C1255 C 0.75430 0.74537 0.96131
 C1256 C 0.75680 0.74265 0.97355
 N1257 N 0.75006 0.75004 0.98098
 C1258 C 0.76541 0.73365 0.97748
 C1259 C 0.76812 0.73084 0.98994
 C1260 C 0.77779 0.72333 0.99367
 C1261 C 0.77779 0.72333 1.00633
 C1262 C 0.76811 0.73084 1.01005
 N1263 N 0.76211 0.73518 0.99999
 C1264 C 0.76539 0.73365 1.02250
 H1265 H 0.75809 0.74102 1.04679
 H1266 H 0.74186 0.75898 1.04679
 H1267 H 0.75397 0.74019 0.99999
 H1268 H 0.71572 0.78155 1.01210
 H1269 H 0.71573 0.78156 0.98785
 H1270 H 0.74197 0.75904 0.95319
 H1271 H 0.75818 0.74107 0.95319
 H1272 H 0.78437 0.71856 1.01212
 H1273 H 0.74610 0.75988 0.99999
 H1274 H 0.78438 0.71855 0.98788
 C1275 C 0.75415 0.24504 0.53842
 C1276 C 0.74568 0.25441 0.53843
 C1277 C 0.74320 0.25716 0.52620
 N1278 N 0.74996 0.24979 0.51875
 C1279 C 0.75669 0.24238 0.52618
 C1280 C 0.73459 0.26618 0.52228
 C1281 C 0.73190 0.26901 0.50983
 C1282 C 0.72224 0.27654 0.50610
 C1283 C 0.72224 0.27655 0.49345
 C1284 C 0.73191 0.26903 0.48972
 N1285 N 0.73790 0.26467 0.49977
 C1286 C 0.73462 0.26623 0.47726
 C1287 C 0.74325 0.25724 0.47332
 C1288 C 0.74576 0.25455 0.46108
 C1289 C 0.75423 0.24519 0.46107
 C1290 C 0.75674 0.24247 0.47329
 N1291 N 0.75000 0.24985 0.48074
 C1292 C 0.76537 0.23347 0.47721
 C1293 C 0.76808 0.23065 0.48967
 C1294 C 0.77777 0.22316 0.49339
 C1295 C 0.77776 0.22314 0.50605
 C1296 C 0.76806 0.23063 0.50978
 N1297 N 0.76205 0.23496 0.49973
 C1298 C 0.76533 0.23340 0.52224
 H1299 H 0.75801 0.24072 0.54653
 H1300 H 0.74179 0.25868 0.54656
 H1301 H 0.75390 0.23995 0.49973
 H1302 H 0.71566 0.28132 0.51190
 H1303 H 0.71567 0.28135 0.48766
 H1304 H 0.74188 0.25886 0.45296
 H1305 H 0.75811 0.24091 0.45294
 H1306 H 0.78435 0.21838 0.51184
 H1307 H 0.74603 0.25964 0.49976
 H1308 H 0.78437 0.21841 0.48760
 C1309 C 0.75418 0.25494 -0.03895
 C1310 C 0.74572 0.24558 -0.03896
 C1311 C 0.74321 0.24286 -0.02673
 N1312 N 0.74995 0.25024 -0.01929
 C1313 C 0.75669 0.25763 -0.02672
 C1314 C 0.73460 0.23387 -0.02280
 C1315 C 0.73189 0.23107 -0.01033
 C1316 C 0.72222 0.22357 -0.00660
 C1317 C 0.72223 0.22357 0.00606
 C1318 C 0.73191 0.23106 0.00978
 N1319 N 0.73791 0.23539 -0.00028
 C1320 C 0.73464 0.23384 0.02224
 C1321 C 0.74329 0.24279 0.02617
 C1322 C 0.74583 0.24546 0.03840
 C1323 C 0.75430 0.25480 0.03841
 C1324 C 0.75678 0.25754 0.02618
 N1325 N 0.75002 0.25019 0.01873
 C1326 C 0.76539 0.26654 0.02224
 C1327 C 0.76808 0.26936 0.00978
 C1328 C 0.77774 0.27687 0.00604
 C1329 C 0.77772 0.27689 -0.00661
 C1330 C 0.76805 0.26939 -0.01033
 N1331 N 0.76206 0.26504 -0.00027
 C1332 C 0.76531 0.26661 -0.02278
 H1333 H 0.75806 0.25924 -0.04708
 H1334 H 0.74185 0.24130 -0.04708
 H1335 H 0.75394 0.26003 -0.00026
 H1336 H 0.71563 0.21882 -0.01238
 H1337 H 0.71565 0.21880 0.01186
 H1338 H 0.74197 0.24114 0.04653
 H1339 H 0.75819 0.25907 0.04653
 H1340 H 0.78429 0.28167 -0.01241
 H1341 H 0.74605 0.24038 -0.00029
 H1342 H 0.78433 0.28163 0.01183
 C1343 C 0.74565 0.74550 0.46117
 C1344 C 0.75411 0.75486 0.46114
 C1345 C 0.75663 0.75758 0.47336
 N1346 N 0.74991 0.75020 0.48082
 C1347 C 0.74316 0.74281 0.47341
 C1348 C 0.76524 0.76659 0.47727
 C1349 C 0.76798 0.76939 0.48972
 C1350 C 0.77765 0.77691 0.49342
 C1351 C 0.77769 0.77690 0.50607
 C1352 C 0.76804 0.76938 0.50983
 N1353 N 0.76202 0.76504 0.49979
 C1354 C 0.76537 0.76658 0.52230
 C1355 C 0.75676 0.75759 0.52626
 C1356 C 0.75428 0.75488 0.53850
 C1357 C 0.74580 0.74554 0.53853
 C1358 C 0.74324 0.74285 0.52631
 N1359 N 0.74998 0.75023 0.51885
 C1360 C 0.73460 0.73388 0.52241
 C1361 C 0.73187 0.73108 0.50995
 C1362 C 0.72218 0.72358 0.50625
 C1363 C 0.72217 0.72356 0.49359
 C1364 C 0.73185 0.73105 0.48984
 N1365 N 0.73786 0.73539 0.49988
 C1366 C 0.73456 0.73382 0.47737
 H1367 H 0.74176 0.74120 0.45306
 H1368 H 0.75797 0.75915 0.45300
 H1369 H 0.74600 0.74038 0.49986
 H1370 H 0.78420 0.78169 0.48760
 H1371 H 0.78427 0.78168 0.51184
 H1372 H 0.75819 0.75916 0.54662
 H1373 H 0.74194 0.74125 0.54667
 H1374 H 0.71558 0.71879 0.48782
 H1375 H 0.75390 0.76002 0.49982
 H1376 H 0.71561 0.71883 0.51206
 C1377 C 0.96114 0.25485 0.24560
 C1378 C 0.96114 0.24557 0.25416
 C1379 C 0.97340 0.24281 0.25665
 N1380 N 0.98083 0.25018 0.24987
 C1381 C 0.97341 0.25758 0.24311
 C1382 C 0.97737 0.23378 0.26525
 C1383 C 0.98986 0.23114 0.26821
 C1384 C 0.99360 0.22279 0.27716
 C1385 C 1.00631 0.22292 0.27731
 C1386 C 1.01007 0.23130 0.26840
 N1387 N 0.99997 0.23613 0.26286
 C1388 C 1.02257 0.23427 0.26580
 C1389 C 1.02655 0.24312 0.25702
 C1390 C 1.03881 0.24576 0.25445
 C1391 C 1.03881 0.25473 0.24555
 C1392 C 1.02655 0.25731 0.24290
 N1393 N 1.01913 0.25019 0.24993
 C1394 C 1.02258 0.26614 0.23410
 C1395 C 1.01008 0.26907 0.23142
 C1396 C 1.00634 0.27735 0.22241
 C1397 C 0.99362 0.27748 0.22253
 C1398 C 0.98988 0.26922 0.23156
 N1399 N 0.99999 0.26432 0.23702
 C1400 C 0.97738 0.26659 0.23450
 H1401 H 0.95300 0.25905 0.24162
 H1402 H 0.95300 0.24138 0.25815
 H1403 H 0.99999 0.25851 0.24450
 H1404 H 0.98778 0.21717 0.28301
 H1405 H 1.01211 0.21745 0.28331
 H1406 H 1.04695 0.24166 0.25852
 H1407 H 1.04696 0.25887 0.24153
 H1408 H 0.98782 0.28302 0.21660
 H1409 H 0.99998 0.24210 0.25551
 H1410 H 1.01214 0.28276 0.21636
 C1411 C 0.46145 0.24351 0.75240
 C1412 C 0.46146 0.25248 0.74353
 C1413 C 0.47361 0.25629 0.74216
 N1414 N 0.48099 0.24996 0.74998
 C1415 C 0.47359 0.24207 0.75620
 C1416 C 0.47747 0.26573 0.73403
 C1417 C 0.48994 0.26902 0.73187
 C1418 C 0.49367 0.27933 0.72529
 C1419 C 0.50637 0.27932 0.72528
 C1420 C 0.51009 0.26900 0.73187
 N1421 N 0.50001 0.26268 0.73567
 C1422 C 0.52256 0.26570 0.73405
 C1423 C 0.52640 0.25626 0.74219
 C1424 C 0.53855 0.25245 0.74360
 C1425 C 0.53854 0.24349 0.75249
 C1426 C 0.52638 0.24206 0.75625
 N1427 N 0.51900 0.24994 0.74999
 C1428 C 0.52252 0.23382 0.76560
 C1429 C 0.51005 0.23164 0.76886
 C1430 C 0.50632 0.22498 0.77912
 C1431 C 0.49361 0.22498 0.77911
 C1432 C 0.48990 0.23163 0.76884
 N1433 N 0.49998 0.23547 0.76255
 C1434 C 0.47743 0.23383 0.76556
 H1435 H 0.45340 0.23859 0.75566
 H1436 H 0.45341 0.25581 0.73863
 H1437 H 0.49999 0.23954 0.75394
 H1438 H 0.48784 0.28621 0.72099
 H1439 H 0.51220 0.28618 0.72098
 H1440 H 0.54661 0.25578 0.73874
 H1441 H 0.54659 0.23859 0.75579
 H1442 H 0.48778 0.22065 0.78595
 H1443 H 0.50001 0.25404 0.73970
 H1444 H 0.51214 0.22064 0.78597
 C1445 C -0.03902 0.24539 0.74563
 C1446 C -0.03901 0.25478 0.75407
 C1447 C -0.02675 0.25747 0.75658
 N1448 N -0.01932 0.24997 0.74994
 C1449 C -0.02675 0.24257 0.74322
 C1450 C -0.02278 0.26651 0.76514
 C1451 C -0.01028 0.26905 0.76813
 C1452 C -0.00655 0.27706 0.77737
 C1453 C 0.00616 0.27690 0.77751
 C1454 C 0.00991 0.26885 0.76831
 N1455 N -0.00017 0.26429 0.76253
 C1456 C 0.02242 0.26594 0.76565
 C1457 C 0.02639 0.25710 0.75687
 C1458 C 0.03865 0.25450 0.75422
 C1459 C 0.03864 0.24548 0.74541
 C1460 C 0.02638 0.24281 0.74287
 N1461 N 0.01895 0.24993 0.74991
 C1462 C 0.02240 0.23392 0.73416
 C1463 C 0.00990 0.23097 0.73157
 C1464 C 0.00614 0.22271 0.72257
 C1465 C -0.00657 0.22257 0.72273
 C1466 C -0.01029 0.23081 0.73178
 N1467 N -0.00019 0.23570 0.73722
 C1468 C -0.02279 0.23348 0.73470
 H1469 H -0.04716 0.24121 0.74166
 H1470 H -0.04716 0.25905 0.75797
 H1471 H -0.00017 0.24147 0.74476
 H1472 H -0.01236 0.28244 0.78344
 H1473 H 0.01196 0.28211 0.78373
 H1474 H 0.04680 0.25867 0.75820
 H1475 H 0.04679 0.24135 0.74136
 H1476 H -0.01238 0.21705 0.71680
 H1477 H -0.00016 0.25884 0.75476
 H1478 H 0.01194 0.21733 0.71649
 C1479 C 0.53893 0.25444 0.25426
 C1480 C 0.53893 0.24557 0.24527
 C1481 C 0.52666 0.24294 0.24268
 N1482 N 0.51925 0.24992 0.24988
 C1483 C 0.52666 0.25698 0.25697
 C1484 C 0.52269 0.23411 0.23388
 C1485 C 0.51019 0.23111 0.23128
 C1486 C 0.50645 0.22240 0.22271
 C1487 C 0.49373 0.22227 0.22286
 C1488 C 0.48998 0.23095 0.23148
 N1489 N 0.50009 0.23622 0.23653
 C1490 C 0.47748 0.23364 0.23442
 C1491 C 0.47351 0.24264 0.24306
 C1492 C 0.46125 0.24540 0.24555
 C1493 C 0.46125 0.25459 0.25422
 C1494 C 0.47352 0.25725 0.25677
 N1495 N 0.48093 0.24991 0.24995
 C1496 C 0.47749 0.26623 0.26543
 C1497 C 0.48999 0.26886 0.26839
 C1498 C 0.49373 0.27734 0.27719
 C1499 C 0.50645 0.27721 0.27730
 C1500 C 0.51020 0.26870 0.26852
 N1501 N 0.50009 0.26375 0.26315
 C1502 C 0.52269 0.26576 0.26583
 H1503 H 0.54707 0.25855 0.25830
 H1504 H 0.54707 0.24152 0.24115
 H1505 H 0.50010 0.25743 0.25613
 H1506 H 0.51226 0.21670 0.21693
 H1507 H 0.48792 0.21642 0.21725
 H1508 H 0.45311 0.24129 0.24151
 H1509 H 0.45311 0.25878 0.25820
 H1510 H 0.51226 0.28279 0.28319
 H1511 H 0.50009 0.24287 0.24323
 H1512 H 0.48792 0.28306 0.28296
 C1513 C 1.03867 0.74490 0.75368
 C1514 C 1.03868 0.75344 0.74439
 C1515 C 1.02646 0.75674 0.74240
 N1516 N 1.01904 0.75045 0.75018
 C1517 C 1.02645 0.74319 0.75710
 C1518 C 1.02255 0.76572 0.73379
 C1519 C 1.01005 0.76873 0.73132
 C1520 C 1.00632 0.77887 0.72448
 C1521 C 0.99363 0.77885 0.72444
 C1522 C 0.98990 0.76868 0.73124
 N1523 N 0.99998 0.76242 0.73519
 C1524 C 0.97740 0.76564 0.73362
 C1525 C 0.97344 0.75657 0.74212
 C1526 C 0.96119 0.75351 0.74426
 C1527 C 0.96117 0.74478 0.75336
 C1528 C 0.97341 0.74269 0.75652
 N1529 N 0.98085 0.74996 0.74964
 C1530 C 0.97733 0.73425 0.76570
 C1531 C 0.98981 0.73193 0.76895
 C1532 C 0.99355 0.72321 0.77754
 C1533 C 1.00625 0.72340 0.77774
 C1534 C 1.01000 0.73217 0.76921
 N1535 N 0.99990 0.73742 0.76406
 C1536 C 1.02249 0.73485 0.76635
 H1537 H 1.04677 0.74038 0.75739
 H1538 H 1.04677 0.75681 0.73961
 H1539 H 0.99990 0.74453 0.75777
 H1540 H 1.01213 0.78573 0.72015
 H1541 H 0.98781 0.78569 0.72007
 H1542 H 0.95308 0.75723 0.73977
 H1543 H 0.95301 0.74052 0.75725
 H1544 H 1.01206 0.71758 0.78340
 H1545 H 1.00000 0.75386 0.73942
 H1546 H 0.98775 0.71720 0.78299
 C1547 C 0.53868 0.75585 0.24678
 C1548 C 0.53869 0.74661 0.25537
 C1549 C 0.52645 0.74343 0.25739
 N1550 N 0.51902 0.75042 0.25022
 C1551 C 0.52644 0.75803 0.24373
 C1552 C 0.52252 0.73413 0.26570
 C1553 C 0.51004 0.73087 0.26796
 C1554 C 0.50629 0.72222 0.27661
 C1555 C 0.49359 0.72204 0.27641
 C1556 C 0.48986 0.73063 0.26770
 N1557 N 0.49996 0.73581 0.26249
 C1558 C 0.47737 0.73353 0.26502
 C1559 C 0.47343 0.74292 0.25683
 C1560 C 0.46121 0.74639 0.25516
 C1561 C 0.46121 0.75579 0.24674
 C1562 C 0.47342 0.75780 0.24348
 N1563 N 0.48084 0.74993 0.24967
 C1564 C 0.47735 0.76649 0.23459
 C1565 C 0.48984 0.76898 0.23162
 C1566 C 0.49359 0.77589 0.22155
 C1567 C 0.50628 0.77594 0.22160
 C1568 C 0.51000 0.76906 0.23172
 N1569 N 0.49991 0.76506 0.23792
 C1570 C 0.52249 0.76662 0.23474
 H1571 H 0.54681 0.76036 0.24312
 H1572 H 0.54684 0.74266 0.25958
 H1573 H 0.49987 0.76074 0.24644
 H1574 H 0.51209 0.71671 0.28258
 H1575 H 0.48778 0.71634 0.28218
 H1576 H 0.45311 0.74265 0.25966
 H1577 H 0.45311 0.76061 0.24342
 H1578 H 0.51211 0.78035 0.21481
 H1579 H 0.49997 0.74211 0.25539
 H1580 H 0.48779 0.78026 0.21471
 C1581 C -0.03890 0.75492 0.25424
 C1582 C -0.03891 0.74551 0.24585
 C1583 C -0.02665 0.74277 0.24334
 N1584 N -0.01918 0.75019 0.25001
 C1585 C -0.02663 0.75762 0.25670
 C1586 C -0.02272 0.73372 0.23480
 C1587 C -0.01023 0.73091 0.23207
 C1588 C -0.00651 0.72336 0.22245
 C1589 C 0.00618 0.72336 0.22241
 C1590 C 0.00993 0.73091 0.23201
 N1591 N -0.00014 0.73528 0.23801
 C1592 C 0.02243 0.73372 0.23467
 C1593 C 0.02639 0.74276 0.24321
 C1594 C 0.03865 0.74548 0.24566
 C1595 C 0.03867 0.75487 0.25407
 C1596 C 0.02641 0.75758 0.25660
 N1597 N 0.01894 0.75017 0.24992
 C1598 C 0.02248 0.76661 0.26516
 C1599 C 0.00998 0.76943 0.26788
 C1600 C 0.00626 0.77698 0.27750
 C1601 C -0.00643 0.77699 0.27752
 C1602 C -0.01017 0.76945 0.26791
 N1603 N -0.00010 0.76508 0.26192
 C1604 C -0.02267 0.76667 0.26523
 H1605 H -0.04704 0.75924 0.25809
 H1606 H -0.04705 0.74120 0.24202
 H1607 H -0.00011 0.76003 0.25384
 H1608 H -0.01233 0.71856 0.21592
 H1609 H 0.01198 0.71857 0.21585
 H1610 H 0.04679 0.74117 0.24178
 H1611 H 0.04682 0.75917 0.25789
 H1612 H -0.01223 0.78180 0.28407
 H1613 H -0.00013 0.74033 0.24609
 H1614 H 0.01208 0.78176 0.28404
 C1615 C 0.46118 0.75478 0.75449
 C1616 C 0.46117 0.74538 0.74607
 C1617 C 0.47343 0.74274 0.74348
 N1618 N 0.48089 0.75019 0.75012
 C1619 C 0.47344 0.75756 0.75687
 C1620 C 0.47737 0.73375 0.73486
 C1621 C 0.48987 0.73099 0.73211
 C1622 C 0.49360 0.72352 0.72243
 C1623 C 0.50628 0.72353 0.72240
 C1624 C 0.51003 0.73099 0.73207
 N1625 N 0.49995 0.73531 0.73809
 C1626 C 0.52253 0.73375 0.73478
 C1627 C 0.52648 0.74274 0.74337
 C1628 C 0.53875 0.74542 0.74587
 C1629 C 0.53875 0.75479 0.75432
 C1630 C 0.52649 0.75754 0.75680
 N1631 N 0.51903 0.75016 0.75007
 C1632 C 0.52255 0.76658 0.76535
 C1633 C 0.51005 0.76942 0.76804
 C1634 C 0.50631 0.77703 0.77761
 C1635 C 0.49363 0.77705 0.77761
 C1636 C 0.48988 0.76945 0.76805
 N1637 N 0.49996 0.76504 0.76210
 C1638 C 0.47739 0.76663 0.76539
 H1639 H 0.45304 0.75904 0.75841
 H1640 H 0.45303 0.74103 0.74228
 H1641 H 0.49996 0.75993 0.75406
 H1642 H 0.48779 0.71876 0.71586
 H1643 H 0.51209 0.71879 0.71581
 H1644 H 0.54689 0.74112 0.74200
 H1645 H 0.54689 0.75906 0.75819
 H1646 H 0.48782 0.78189 0.78413
 H1647 H 0.49996 0.74028 0.74622
 H1648 H 0.51212 0.78185 0.78413
 C1649 C 0.40548 0.30519 0.30428
 N1650 N 0.40091 0.30071 0.31502
 N1651 N 0.39061 0.30538 0.31987
 C1652 C 0.38454 0.31472 0.31415
 N1653 N 0.38910 0.31920 0.30341
 N1654 N 0.39937 0.31451 0.29854
 C1655 C 0.41677 0.29999 0.29887
 N1656 N 0.42078 0.30384 0.28767
 N1657 N 0.43093 0.29901 0.28267
 C1658 C 0.43746 0.29019 0.28872
 N1659 N 0.43346 0.28637 0.29994
 N1660 N 0.42329 0.29118 0.30492
 C1661 C 0.44836 0.28454 0.28298
 N1662 N 0.45502 0.27584 0.28907
 N1663 N 0.46454 0.27027 0.28362
 C1664 C 0.46775 0.27323 0.27191
 N1665 N 0.46115 0.28197 0.26584
 N1666 N 0.45165 0.28755 0.27129
 C1667 C 0.40540 0.80532 0.80470
 N1668 N 0.39969 0.79978 0.81436
 N1669 N 0.38950 0.80463 0.81922
 C1670 C 0.38459 0.81519 0.81459
 N1671 N 0.39028 0.82071 0.80489
 N1672 N 0.40050 0.81587 0.80005
 C1673 C 0.41666 0.79995 0.79937
 N1674 N 0.42286 0.80585 0.79024
 N1675 N 0.43302 0.80092 0.78537
 C1676 C 0.43735 0.78989 0.78945
 N1677 N 0.43115 0.78400 0.79858
 N1678 N 0.42101 0.78895 0.80348
 C1679 C 0.44829 0.78420 0.78376
 N1680 N 0.45182 0.77263 0.78699
 N1681 N 0.46131 0.76718 0.78139
 C1682 C 0.46767 0.77314 0.77241
 N1683 N 0.46424 0.78476 0.76926
 N1684 N 0.45472 0.79020 0.77484
 C1685 C -0.09483 0.30533 0.80407
 N1686 N -0.09943 0.30085 0.81481
 N1687 N -0.10966 0.30562 0.81970
 C1688 C -0.11564 0.31506 0.81406
 N1689 N -0.11102 0.31957 0.80334
 N1690 N -0.10081 0.31478 0.79843
 C1691 C -0.08353 0.30013 0.79868
 N1692 N -0.07942 0.30410 0.78756
 N1693 N -0.06928 0.29926 0.78255
 C1694 C -0.06286 0.29031 0.78851
 N1695 N -0.06692 0.28641 0.79968
 N1696 N -0.07708 0.29123 0.80468
 C1697 C -0.05194 0.28469 0.78278
 N1698 N -0.04537 0.27587 0.78878
 N1699 N -0.03583 0.27034 0.78332
 C1700 C -0.03251 0.27347 0.77168
 N1701 N -0.03902 0.28234 0.76571
 N1702 N -0.04853 0.28788 0.77117
 C1703 C -0.09478 0.80519 0.30434
 N1704 N -0.09946 0.81594 0.29994
 N1705 N -0.10977 0.82070 0.30467
 C1706 C -0.11576 0.81488 0.31400
 N1707 N -0.11106 0.80414 0.31842
 N1708 N -0.10078 0.79938 0.31366
 C1709 C -0.08342 0.79992 0.29915
 N1710 N -0.07928 0.78874 0.30299
 N1711 N -0.06911 0.78382 0.29815
 C1712 C -0.06266 0.78992 0.28933
 N1713 N -0.06675 0.80113 0.28554
 N1714 N -0.07695 0.80604 0.29036
 C1715 C -0.05171 0.78424 0.28367
 N1716 N -0.04503 0.79038 0.27503
 N1717 N -0.03553 0.78493 0.26943
 C1718 C -0.03238 0.77316 0.27228
 N1719 N -0.03896 0.76706 0.28099
 N1720 N -0.04844 0.77251 0.28661
 C1721 C 0.59462 0.69544 0.30461
 N1722 N 0.59922 0.68463 0.30026
 N1723 N 0.60950 0.67982 0.30501
 C1724 C 0.61552 0.68564 0.31430
 N1725 N 0.61092 0.69643 0.31866
 N1726 N 0.60066 0.70125 0.31389
 C1727 C 0.58331 0.70077 0.29939
 N1728 N 0.57913 0.71190 0.30331
 N1729 N 0.56894 0.71682 0.29850
 C1730 C 0.56252 0.71077 0.28963
 N1731 N 0.56667 0.69962 0.28574
 N1732 N 0.57688 0.69470 0.29053
 C1733 C 0.55158 0.71646 0.28400
 N1734 N 0.54509 0.71047 0.27514
 N1735 N 0.53558 0.71594 0.26957
 C1736 C 0.53223 0.72759 0.27269
 N1737 N 0.53862 0.73353 0.28165
 N1738 N 0.54811 0.72805 0.28722
 C1739 C 0.59462 0.19512 0.80464
 N1740 N 0.59902 0.18415 0.80049
 N1741 N 0.60930 0.17932 0.80523
 C1742 C 0.61552 0.18527 0.81431
 N1743 N 0.61110 0.19622 0.81847
 N1744 N 0.60085 0.20106 0.81371
 C1745 C 0.58331 0.20050 0.79944
 N1746 N 0.57957 0.21194 0.80287
 N1747 N 0.56943 0.21694 0.79804
 C1748 C 0.56260 0.21065 0.78965
 N1749 N 0.56630 0.19917 0.78627
 N1750 N 0.57648 0.19419 0.79106
 C1751 C 0.55167 0.21639 0.78402
 N1752 N 0.54440 0.20996 0.77612
 N1753 N 0.53487 0.21538 0.77054
 C1754 C 0.53228 0.22744 0.77268
 N1755 N 0.53947 0.23386 0.78065
 N1756 N 0.54896 0.22842 0.78626
 C1757 C 1.09443 0.69539 0.80491
 N1758 N 1.09882 0.68443 0.80073
 N1759 N 1.10906 0.67954 0.80550
 C1760 C 1.11525 0.68544 0.81463
 N1761 N 1.11086 0.69639 0.81881
 N1762 N 1.10065 0.70128 0.81402
 C1763 C 1.08321 0.70085 0.79965
 N1764 N 1.07942 0.71223 0.80325
 N1765 N 1.06931 0.71729 0.79843
 C1766 C 1.06257 0.71115 0.78987
 N1767 N 1.06633 0.69976 0.78628
 N1768 N 1.07647 0.69470 0.79108
 C1769 C 1.05167 0.71699 0.78430
 N1770 N 1.04465 0.71084 0.77595
 N1771 N 1.03512 0.71639 0.77050
 C1772 C 1.03225 0.72826 0.77325
 N1773 N 1.03921 0.73439 0.78164
 N1774 N 1.04872 0.72883 0.78710
 C1775 C 1.09437 0.19529 0.30507
 N1776 N 1.10051 0.20115 0.31426
 N1777 N 1.11070 0.19626 0.31908
 C1778 C 1.11515 0.18534 0.31488
 N1779 N 1.10902 0.17947 0.30568
 N1780 N 1.09880 0.18436 0.30087
 C1781 C 1.08315 0.20073 0.29976
 N1782 N 1.07666 0.19466 0.29095
 N1783 N 1.06653 0.19967 0.28608
 C1784 C 1.06254 0.21094 0.28984
 N1785 N 1.06903 0.21699 0.29865
 N1786 N 1.07913 0.21197 0.30354
 C1787 C 1.05164 0.21668 0.28417
 N1788 N 1.04832 0.22837 0.28719
 N1789 N 1.03884 0.23384 0.28159
 C1790 C 1.03229 0.22778 0.27282
 N1791 N 1.03551 0.21605 0.26989
 N1792 N 1.04501 0.21059 0.27547
 C1793 C 0.59438 0.30518 0.69531
 N1794 N 0.59880 0.30089 0.68442
 N1795 N 0.60904 0.30562 0.67952
 C1796 C 0.61520 0.31484 0.68531
 N1797 N 0.61079 0.31914 0.69619
 N1798 N 0.60058 0.31438 0.70112
 C1799 C 0.58314 0.29992 0.70077
 N1800 N 0.57945 0.30332 0.71222
 N1801 N 0.56937 0.29841 0.71726
 C1802 C 0.56256 0.28997 0.71101
 N1803 N 0.56622 0.28661 0.69953
 N1804 N 0.57634 0.29148 0.69451
 C1805 C 0.55169 0.28426 0.71676
 N1806 N 0.54443 0.27637 0.71029
 N1807 N 0.53491 0.27076 0.71569
 C1808 C 0.53234 0.27282 0.72774
 N1809 N 0.53955 0.28074 0.73420
 N1810 N 0.54903 0.28640 0.72880
 C1811 C 0.59439 0.80504 0.19520
 N1812 N 0.59890 0.81593 0.19942
 N1813 N 0.60916 0.82073 0.19462
 C1814 C 0.61525 0.81482 0.18543
 N1815 N 0.61074 0.80395 0.18121
 N1816 N 0.60052 0.79913 0.18603
 C1817 C 0.58312 0.79968 0.20050
 N1818 N 0.57921 0.78835 0.19692
 N1819 N 0.56908 0.78339 0.20182
 C1820 C 0.56246 0.78962 0.21043
 N1821 N 0.56634 0.80098 0.21397
 N1822 N 0.57649 0.80592 0.20909
 C1823 C 0.55156 0.78394 0.21614
 N1824 N 0.54464 0.79028 0.22444
 N1825 N 0.53513 0.78490 0.23008
 C1826 C 0.53221 0.77299 0.22761
 N1827 N 0.53906 0.76667 0.21925
 N1828 N 0.54853 0.77207 0.21359
 C1829 C 1.09451 0.30494 0.19499
 N1830 N 1.10061 0.29911 0.18575
 N1831 N 1.11083 0.30397 0.18096
 C1832 C 1.11535 0.31481 0.18527
 N1833 N 1.10926 0.32064 0.19452
 N1834 N 1.09902 0.31580 0.19929
 C1835 C 1.08326 0.29955 0.20026
 N1836 N 1.07673 0.30564 0.20903
 N1837 N 1.06657 0.30066 0.21387
 C1838 C 1.06260 0.28940 0.21011
 N1839 N 1.06912 0.28332 0.20133
 N1840 N 1.07925 0.28832 0.19647
 C1841 C 1.05169 0.28367 0.21577
 N1842 N 1.04842 0.27196 0.21280
 N1843 N 1.03893 0.26651 0.21838
 C1844 C 1.03231 0.27261 0.22707
 N1845 N 1.03547 0.28436 0.22996
 N1846 N 1.04499 0.28980 0.22440
 C1847 C 1.09440 0.80525 0.69528
 N1848 N 1.09886 0.80093 0.68442
 N1849 N 1.10911 0.80566 0.67955
 C1850 C 1.11523 0.81491 0.68533
 N1851 N 1.11076 0.81924 0.69618
 N1852 N 1.10054 0.81447 0.70108
 C1853 C 1.08314 0.80000 0.70069
 N1854 N 1.07936 0.80346 0.71210
 N1855 N 1.06924 0.79857 0.71709
 C1856 C 1.06250 0.79010 0.71082
 N1857 N 1.06624 0.78668 0.69939
 N1858 N 1.07638 0.79153 0.69442
 C1859 C 1.05160 0.78439 0.71652
 N1860 N 1.04446 0.77638 0.71007
 N1861 N 1.03496 0.77072 0.71545
 C1862 C 1.03229 0.77287 0.72747
 N1863 N 1.03936 0.78095 0.73389
 N1864 N 1.04882 0.78664 0.72850
 C1865 C 0.40549 0.69517 0.69541
 N1866 N 0.40082 0.68442 0.69980
 N1867 N 0.39057 0.67963 0.69499
 C1868 C 0.38465 0.68541 0.68559
 N1869 N 0.38933 0.69615 0.68120
 N1870 N 0.39955 0.70096 0.68604
 C1871 C 0.41677 0.70051 0.70071
 N1872 N 0.42084 0.71174 0.69695
 N1873 N 0.43096 0.71668 0.70185
 C1874 C 0.43744 0.71056 0.71064
 N1875 N 0.43341 0.69930 0.71436
 N1876 N 0.42326 0.69437 0.70949
 C1877 C 0.44834 0.71626 0.71636
 N1878 N 0.45510 0.71005 0.72488
 N1879 N 0.46459 0.71548 0.73050
 C1880 C 0.46765 0.72731 0.72779
 N1881 N 0.46097 0.73348 0.71920
 N1882 N 0.45151 0.72804 0.71356
 C1883 C 0.40544 0.19480 0.19568
 N1884 N 0.39922 0.18562 0.20149
 N1885 N 0.38892 0.18100 0.19664
 C1886 C 0.38444 0.18542 0.18583
 N1887 N 0.39063 0.19463 0.18004
 N1888 N 0.40095 0.19923 0.18487
 C1889 C 0.41676 0.19994 0.20106
 N1890 N 0.42338 0.20863 0.19494
 N1891 N 0.43355 0.21341 0.19991
 C1892 C 0.43747 0.20968 0.21119
 N1893 N 0.43086 0.20097 0.21730
 N1894 N 0.42071 0.19617 0.21231
 C1895 C 0.44838 0.21531 0.21691
 N1896 N 0.45157 0.21242 0.22865
 N1897 N 0.46106 0.21800 0.23410
 C1898 C 0.46774 0.22663 0.22797
 N1899 N 0.46464 0.22946 0.21620
 N1900 N 0.45513 0.22389 0.21076
 C1901 C -0.09467 0.69522 0.19551
 N1902 N -0.10071 0.70109 0.18625
 N1903 N -0.11098 0.69633 0.18147
 C1904 C -0.11562 0.68555 0.18582
 N1905 N -0.10961 0.67969 0.19510
 N1906 N -0.09931 0.68443 0.19985
 C1907 C -0.08336 0.70050 0.20075
 N1908 N -0.07686 0.69433 0.20951
 N1909 N -0.06669 0.69924 0.21436
 C1910 C -0.06265 0.71050 0.21064
 N1911 N -0.06913 0.71663 0.20186
 N1912 N -0.07928 0.71171 0.19699
 C1913 C -0.05174 0.71619 0.21633
 N1914 N -0.04853 0.72794 0.21346
 N1915 N -0.03907 0.73338 0.21909
 C1916 C -0.03245 0.72725 0.22775
 N1917 N -0.03554 0.71545 0.23053
 N1918 N -0.04503 0.71001 0.22491
 C1919 C -0.09470 0.19476 0.69550
 N1920 N -0.09917 0.19918 0.68468
 N1921 N -0.10942 0.19449 0.67979
 C1922 C -0.11555 0.18520 0.68551
 N1923 N -0.11107 0.18077 0.69632
 N1924 N -0.10084 0.18548 0.70123
 C1925 C -0.08343 0.19995 0.70094
 N1926 N -0.07947 0.19612 0.71217
 N1927 N -0.06935 0.20095 0.71720
 C1928 C -0.06280 0.20975 0.71118
 N1929 N -0.06673 0.21354 0.69992
 N1930 N -0.07687 0.20873 0.69490
 C1931 C -0.05190 0.21537 0.71696
 N1932 N -0.04518 0.22404 0.71091
 N1933 N -0.03567 0.22955 0.71641
 C1934 C -0.03254 0.22655 0.72814
 N1935 N -0.03920 0.21784 0.73416
 N1936 N -0.04869 0.21232 0.72865
 C1937 C 0.30474 0.40548 0.30440
 N1938 N 0.29897 0.39959 0.31381
 N1939 N 0.30373 0.38933 0.31861
 C1940 C 0.31441 0.38454 0.31413
 N1941 N 0.32016 0.39040 0.30468
 N1942 N 0.31542 0.40069 0.29991
 C1943 C 0.29945 0.41677 0.29911
 N1944 N 0.30558 0.42314 0.29025
 N1945 N 0.30070 0.43333 0.28539
 C1946 C 0.28951 0.43749 0.28920
 N1947 N 0.28338 0.43110 0.29805
 N1948 N 0.28828 0.42095 0.30294
 C1949 C 0.28385 0.44841 0.28350
 N1950 N 0.27211 0.45171 0.28642
 N1951 N 0.26668 0.46118 0.28079
 C1952 C 0.27283 0.46776 0.27210
 N1953 N 0.28461 0.46457 0.26927
 N1954 N 0.29003 0.45506 0.27487
 C1955 C 0.30518 -0.09505 0.80442
 N1956 N 0.29943 -0.10096 0.81383
 N1957 N 0.30426 -0.11118 0.81866
 C1958 C 0.31499 -0.11591 0.81423
 N1959 N 0.32071 -0.11002 0.80477
 N1960 N 0.31591 -0.09978 0.79997
 C1961 C 0.29983 -0.08377 0.79911
 N1962 N 0.30593 -0.07737 0.79026
 N1963 N 0.30100 -0.06720 0.78539
 C1964 C 0.28979 -0.06307 0.78920
 N1965 N 0.28370 -0.06948 0.79807
 N1966 N 0.28864 -0.07962 0.80295
 C1967 C 0.28411 -0.05214 0.78352
 N1968 N 0.27236 -0.04886 0.78642
 N1969 N 0.26694 -0.03936 0.78081
 C1970 C 0.27310 -0.03274 0.77216
 N1971 N 0.28489 -0.03592 0.76934
 N1972 N 0.29030 -0.04545 0.77493
 C1973 C 0.80518 0.40545 0.80446
 N1974 N 0.80049 0.40074 0.81506
 N1975 N 0.80529 0.39057 0.82002
 C1976 C 0.81497 0.38475 0.81458
 N1977 N 0.81970 0.38951 0.80401
 N1978 N 0.81487 0.39965 0.79903
 C1979 C 0.79995 0.41670 0.79900
 N1980 N 0.80415 0.42092 0.78800
 N1981 N 0.79934 0.43103 0.78294
 C1982 C 0.79020 0.43734 0.78874
 N1983 N 0.78605 0.43317 0.79978
 N1984 N 0.79084 0.42303 0.80483
 C1985 C 0.78463 0.44824 0.78294
 N1986 N 0.77566 0.45474 0.78880
 N1987 N 0.77021 0.46429 0.78328
 C1988 C 0.77359 0.46769 0.77173
 N1989 N 0.78262 0.46125 0.76591
 N1990 N 0.78807 0.45173 0.77143
 C1991 C 0.80500 -0.09443 0.30496
 N1992 N 0.81567 -0.09923 0.30046
 N1993 N 0.82051 -0.10941 0.30535
 C1994 C 0.81489 -0.11516 0.31494
 N1995 N 0.80424 -0.11033 0.31947
 N1996 N 0.79938 -0.10017 0.31456
 C1997 C 0.79964 -0.08321 0.29958
 N1998 N 0.78854 -0.07893 0.30353
 N1999 N 0.78357 -0.06886 0.29854
 C2000 C 0.78955 -0.06266 0.28945
 N2001 N 0.80068 -0.06690 0.28555
 N2002 N 0.80564 -0.07700 0.29052
 C2003 C 0.78388 -0.05177 0.28369
 N2004 N 0.79003 -0.04526 0.27494
 N2005 N 0.78465 -0.03574 0.26931
 C2006 C 0.77294 -0.03240 0.27225
 N2007 N 0.76681 -0.03884 0.28105
 N2008 N 0.77220 -0.04832 0.28671
 C2009 C 0.30517 0.59455 0.69568
 N2010 N 0.30075 0.59900 0.68485
 N2011 N 0.30546 0.60923 0.67992
 C2012 C 0.31477 0.61535 0.68562
 N2013 N 0.31920 0.61089 0.69644
 N2014 N 0.31446 0.60069 0.70139
 C2015 C 0.29996 0.58330 0.70115
 N2016 N 0.30366 0.57945 0.71247
 N2017 N 0.29884 0.56935 0.71752
 C2018 C 0.29019 0.56266 0.71141
 N2019 N 0.28653 0.56647 0.70007
 N2020 N 0.29132 0.57661 0.69504
 C2021 C 0.28459 0.55175 0.71720
 N2022 N 0.27621 0.54480 0.71102
 N2023 N 0.27072 0.53526 0.71650
 C2024 C 0.27345 0.53233 0.72834
 N2025 N 0.28187 0.53923 0.73450
 N2026 N 0.28737 0.54874 0.72901
 C2027 C 0.30533 1.09454 0.19564
 N2028 N 0.30103 1.09888 0.18472
 N2029 N 0.30568 1.10913 0.17982
 C2030 C 0.31482 1.11540 0.18563
 N2031 N 0.31912 1.11107 0.19655
 N2032 N 0.31444 1.10083 0.20148
 C2033 C 0.30016 1.08328 0.20111
 N2034 N 0.30387 1.07946 0.21242
 N2035 N 0.29907 1.06934 0.21748
 C2036 C 0.29042 1.06265 0.21138
 N2037 N 0.28673 1.06646 0.20005
 N2038 N 0.29151 1.07659 0.19500
 C2039 C 0.28483 1.05176 0.21717
 N2040 N 0.27630 1.04492 0.21106
 N2041 N 0.27080 1.03541 0.21656
 C2042 C 0.27366 1.03238 0.22834
 N2043 N 0.28222 1.03917 0.23444
 N2044 N 0.28774 1.04866 0.22894
 C2045 C 0.80524 0.59433 0.19543
 N2046 N 0.80094 0.59873 0.18454
 N2047 N 0.80570 0.60893 0.17962
 C2048 C 0.81496 0.61507 0.18539
 N2049 N 0.81926 0.61066 0.19627
 N2050 N 0.81447 0.60048 0.20121
 C2051 C 0.79999 0.58310 0.20087
 N2052 N 0.80354 0.57928 0.21223
 N2053 N 0.79865 0.56918 0.21723
 C2054 C 0.79008 0.56249 0.21102
 N2055 N 0.78659 0.56627 0.19962
 N2056 N 0.79144 0.57640 0.19464
 C2057 C 0.78438 0.55161 0.21673
 N2058 N 0.77627 0.54453 0.21032
 N2059 N 0.77065 0.53502 0.21571
 C2060 C 0.77293 0.53227 0.22769
 N2061 N 0.78109 0.53929 0.23407
 N2062 N 0.78675 0.54875 0.22867
 C2063 C 0.80513 1.09433 0.69533
 N2064 N 0.80093 1.09864 0.68437
 N2065 N 0.80567 1.10885 0.67944
 C2066 C 0.81481 1.11509 0.68528
 N2067 N 0.81903 1.11077 0.69624
 N2068 N 0.81426 1.10059 0.70118
 C2069 C 0.79989 1.08311 0.70078
 N2070 N 0.80339 1.07936 0.71219
 N2071 N 0.79850 1.06928 0.71722
 C2072 C 0.78999 1.06253 0.71100
 N2073 N 0.78653 1.06625 0.69956
 N2074 N 0.79139 1.07636 0.69455
 C2075 C 0.78429 1.05166 0.71674
 N2076 N 0.77620 1.04454 0.71035
 N2077 N 0.77057 1.03506 0.71577
 C2078 C 0.77284 1.03237 0.72777
 N2079 N 0.78097 1.03942 0.73413
 N2080 N 0.78664 1.04886 0.72870
 C2081 C 0.69511 0.59436 0.30509
 N2082 N 0.70112 0.60061 0.31410
 N2083 N 0.69619 0.61074 0.31901
 C2084 C 0.68509 0.61501 0.31506
 N2085 N 0.67909 0.60877 0.30603
 N2086 N 0.68400 0.59862 0.30114
 C2087 C 0.70057 0.58319 0.29971
 N2088 N 0.69423 0.57637 0.29135
 N2089 N 0.69924 0.56628 0.28644
 C2090 C 0.71079 0.56264 0.28971
 N2091 N 0.71712 0.56946 0.29806
 N2092 N 0.71210 0.57953 0.30300
 C2093 C 0.71652 0.55176 0.28401
 N2094 N 0.72856 0.54906 0.28622
 N2095 N 0.73399 0.53958 0.28060
 C2096 C 0.72754 0.53239 0.27266
 N2097 N 0.71547 0.53498 0.27054
 N2098 N 0.71005 0.54451 0.27612
 C2099 C 0.69517 1.09479 0.80487
 N2100 N 0.70074 1.10053 0.81449
 N2101 N 0.69587 1.11071 0.81935
 C2102 C 0.68527 1.11557 0.81475
 N2103 N 0.67971 1.10983 0.80511
 N2104 N 0.68456 1.09962 0.80028
 C2105 C 0.70055 1.08354 0.79956
 N2106 N 0.69447 1.07711 0.79073
 N2107 N 0.69943 1.06696 0.78587
 C2108 C 0.71067 1.06289 0.78966
 N2109 N 0.71674 1.06933 0.79850
 N2110 N 0.71176 1.07944 0.80339
 C2111 C 0.71639 1.05198 0.78400
 N2112 N 0.72827 1.04893 0.78662
 N2113 N 0.73369 1.03942 0.78104
 C2114 C 0.72739 1.03255 0.77271
 N2115 N 0.71548 1.03548 0.77017
 N2116 N 0.71007 1.04503 0.77572
 C2117 C 0.19485 0.59425 0.80497
 N2118 N 0.20076 0.60032 0.81417
 N2119 N 0.19591 0.61050 0.81904
 C2120 C 0.18500 0.61501 0.81486
 N2121 N 0.17910 0.60897 0.80564
 N2122 N 0.18393 0.59876 0.80079
 C2123 C 0.20023 0.58304 0.79961
 N2124 N 0.19393 0.57637 0.79110
 N2125 N 0.19889 0.56625 0.78620
 C2126 C 0.21034 0.56244 0.78962
 N2127 N 0.21662 0.56912 0.79813
 N2128 N 0.21165 0.57921 0.80305
 C2129 C 0.21606 0.55156 0.78391
 N2130 N 0.22803 0.54873 0.78629
 N2131 N 0.23348 0.53928 0.78064
 C2132 C 0.22712 0.53226 0.77247
 N2133 N 0.21510 0.53499 0.77019
 N2134 N 0.20967 0.54448 0.77581
 C2135 C 0.19526 1.09466 0.30457
 N2136 N 0.20117 1.10072 0.31377
 N2137 N 0.19639 1.11097 0.31856
 C2138 C 0.18556 1.11558 0.31428
 N2139 N 0.17967 1.10956 0.30502
 N2140 N 0.18443 1.09927 0.30026
 C2141 C 0.20057 1.08336 0.29932
 N2142 N 0.19427 1.07672 0.29079
 N2143 N 0.19918 1.06652 0.28597
 C2144 C 0.21056 1.06262 0.28950
 N2145 N 0.21684 1.06927 0.29803
 N2146 N 0.21192 1.07943 0.30288
 C2147 C 0.21623 1.05171 0.28382
 N2148 N 0.22817 1.04879 0.28626
 N2149 N 0.23360 1.03934 0.28060
 C2150 C 0.22725 1.03241 0.27235
 N2151 N 0.21526 1.03521 0.27001
 N2152 N 0.20985 1.04471 0.27564
 C2153 C 0.69531 0.40544 0.69499
 N2154 N 0.68453 0.40083 0.69941
 N2155 N 0.67968 0.39061 0.69463
 C2156 C 0.68540 0.38466 0.68522
 N2157 N 0.69618 0.38928 0.68080
 N2158 N 0.70105 0.39947 0.68561
 C2159 C 0.70073 0.41668 0.70028
 N2160 N 0.71197 0.42071 0.69648
 N2161 N 0.71697 0.43081 0.70134
 C2162 C 0.71089 0.43731 0.71015
 N2163 N 0.69962 0.43331 0.71392
 N2164 N 0.69464 0.42318 0.70908
 C2165 C 0.71663 0.44820 0.71579
 N2166 N 0.71051 0.45494 0.72440
 N2167 N 0.71598 0.46446 0.72991
 C2168 C 0.72775 0.46760 0.72698
 N2169 N 0.73384 0.46093 0.71832
 N2170 N 0.72836 0.45143 0.71280
 C2171 C 0.69503 -0.09434 0.19508
 N2172 N 0.70070 -0.10020 0.18559
 N2173 N 0.69581 -0.11036 0.18073
 C2174 C 0.68509 -0.11504 0.18520
 N2175 N 0.67943 -0.10920 0.19471
 N2176 N 0.68430 -0.09902 0.19956
 C2177 C 0.70044 -0.08313 0.20039
 N2178 N 0.71152 -0.07890 0.19635
 N2179 N 0.71652 -0.06881 0.20123
 C2180 C 0.71059 -0.06253 0.21030
 N2181 N 0.69949 -0.06673 0.21430
 N2182 N 0.69450 -0.07684 0.20944
 C2183 C 0.71632 -0.05164 0.21596
 N2184 N 0.71037 -0.04525 0.22493
 N2185 N 0.71584 -0.03576 0.23050
 C2186 C 0.72744 -0.03233 0.22726
 N2187 N 0.73336 -0.03865 0.21822
 N2188 N 0.72788 -0.04811 0.21265
 C2189 C 0.19488 0.40583 0.19498
 N2190 N 0.18414 0.40113 0.19939
 N2191 N 0.17932 0.39093 0.19453
 C2192 C 0.18507 0.38508 0.18507
 N2193 N 0.19580 0.38978 0.18067
 N2194 N 0.20063 0.39996 0.18554
 C2195 C 0.20023 0.41704 0.20034
 N2196 N 0.21138 0.42122 0.19647
 N2197 N 0.21632 0.43132 0.20140
 C2198 C 0.21027 0.43764 0.21035
 N2199 N 0.19909 0.43348 0.21420
 N2200 N 0.19416 0.42336 0.20929
 C2201 C 0.21596 0.44852 0.21607
 N2202 N 0.20985 0.45507 0.22483
 N2203 N 0.21527 0.46455 0.23044
 C2204 C 0.22699 0.46783 0.22748
 N2205 N 0.23307 0.46137 0.21866
 N2206 N 0.22764 0.45191 0.21303
 C2207 C 0.19508 -0.09447 0.69517
 N2208 N 0.20077 -0.10027 0.68565
 N2209 N 0.19595 -0.11046 0.68079
 C2210 C 0.18529 -0.11525 0.68530
 N2211 N 0.17961 -0.10947 0.69484
 N2212 N 0.18442 -0.09926 0.69968
 C2213 C 0.20041 -0.08323 0.70050
 N2214 N 0.19441 -0.07698 0.70953
 N2215 N 0.19933 -0.06685 0.71443
 C2216 C 0.21043 -0.06260 0.71047
 N2217 N 0.21643 -0.06885 0.70143
 N2218 N 0.21149 -0.07896 0.69652
 C2219 C 0.21612 -0.05171 0.71618
 N2220 N 0.22773 -0.04824 0.71301
 N2221 N 0.23319 -0.03880 0.71864
 C2222 C 0.22719 -0.03244 0.72759
 N2223 N 0.21552 -0.03579 0.73067
 N2224 N 0.21008 -0.04527 0.72506
 C2225 C 0.30485 0.30481 0.40562
 N2226 N 0.31423 0.29906 0.39963
 N2227 N 0.31903 0.30391 0.38942
 C2228 C 0.31457 0.31466 0.38480
 N2229 N 0.30517 0.32039 0.39076
 N2230 N 0.30040 0.31556 0.40100
 C2231 C 0.29959 0.29945 0.41689
 N2232 N 0.29084 0.30561 0.42341
 N2233 N 0.28598 0.30068 0.43355
 C2234 C 0.28966 0.28939 0.43753
 N2235 N 0.29841 0.28323 0.43101
 N2236 N 0.30331 0.28818 0.42090
 C2237 C 0.28395 0.28372 0.44842
 N2238 N 0.28662 0.27189 0.45154
 N2239 N 0.28096 0.26651 0.46101
 C2240 C 0.27249 0.27279 0.46776
 N2241 N 0.26991 0.28466 0.46475
 N2242 N 0.27555 0.29003 0.45525
 C2243 C 0.30459 0.80498 -0.09484
 N2244 N 0.31549 0.80067 -0.09928
 N2245 N 0.32034 0.80536 -0.10955
 C2246 C 0.31448 0.81455 -0.11573
 N2247 N 0.30359 0.81886 -0.11127
 N2248 N 0.29873 0.81415 -0.10103
 C2249 C 0.29917 0.79979 -0.08356
 N2250 N 0.28782 0.80347 -0.07971
 N2251 N 0.28280 0.79868 -0.06959
 C2252 C 0.28895 0.79007 -0.06289
 N2253 N 0.30032 0.78642 -0.06671
 N2254 N 0.30534 0.79118 -0.07687
 C2255 C 0.28318 0.78452 -0.05196
 N2256 N 0.28937 0.77612 -0.04501
 N2257 N 0.28388 0.77067 -0.03546
 C2258 C 0.27203 0.77347 -0.03249
 N2259 N 0.26586 0.78190 -0.03939
 N2260 N 0.27135 0.78736 -0.04891
 C2261 C 0.80478 0.30532 -0.09445
 N2262 N 0.81406 0.29950 -0.10052
 N2263 N 0.81886 0.30436 -0.11072
 C2264 C 0.81451 0.31519 -0.11525
 N2265 N 0.80520 0.32100 -0.10921
 N2266 N 0.80043 0.31616 -0.09898
 C2267 C 0.79948 0.29993 -0.08322
 N2268 N 0.79074 0.30608 -0.07669
 N2269 N 0.78588 0.30113 -0.06655
 C2270 C 0.78957 0.28983 -0.06259
 N2271 N 0.79832 0.28369 -0.06913
 N2272 N 0.80321 0.28866 -0.07923
 C2273 C 0.78386 0.28412 -0.05173
 N2274 N 0.78669 0.27234 -0.04857
 N2275 N 0.78103 0.26689 -0.03913
 C2276 C 0.77240 0.27306 -0.03247
 N2277 N 0.76967 0.28489 -0.03553
 N2278 N 0.77530 0.29032 -0.04499
 C2279 C 0.80461 0.80532 0.40551
 N2280 N 0.81413 0.79966 0.39964
 N2281 N 0.81889 0.80446 0.38940
 C2282 C 0.81428 0.81508 0.38462
 N2283 N 0.80475 0.82073 0.39046
 N2284 N 0.80001 0.81594 0.40074
 C2285 C 0.79933 0.79995 0.41676
 N2286 N 0.79043 0.80601 0.42317
 N2287 N 0.78555 0.80106 0.43330
 C2288 C 0.78939 0.78985 0.43737
 N2289 N 0.79829 0.78380 0.43097
 N2290 N 0.80319 0.78877 0.42087
 C2291 C 0.78368 0.78413 0.44825
 N2292 N 0.78660 0.77239 0.45148
 N2293 N 0.78098 0.76694 0.46093
 C2294 C 0.77229 0.77306 0.46755
 N2295 N 0.76945 0.78485 0.46443
 N2296 N 0.77505 0.79029 0.45494
 C2297 C 0.69526 0.30466 0.59418
 N2298 N 0.69973 0.31537 0.59885
 N2299 N 0.69496 0.32018 0.60909
 C2300 C 0.68553 0.31447 0.61503
 N2301 N 0.68104 0.30377 0.61035
 N2302 N 0.68584 0.29894 0.60013
 C2303 C 0.70053 0.29931 0.58291
 N2304 N 0.69669 0.28813 0.57880
 N2305 N 0.70156 0.28320 0.56867
 C2306 C 0.71040 0.28930 0.56222
 N2307 N 0.71420 0.30051 0.56629
 N2308 N 0.70936 0.30542 0.57646
 C2309 C 0.71607 0.28363 0.55130
 N2310 N 0.72469 0.28981 0.54463
 N2311 N 0.73031 0.28440 0.53513
 C2312 C 0.72750 0.27263 0.53198
 N2313 N 0.71880 0.26649 0.53857
 N2314 N 0.71316 0.27191 0.54803
 C2315 C 0.69535 0.80470 1.09445
 N2316 N 0.69975 0.81547 1.09907
 N2317 N 0.69504 0.82022 1.10937
 C2318 C 0.68575 0.81438 1.11540
 N2319 N 0.68135 0.80362 1.11079
 N2320 N 0.68608 0.79885 1.10051
 C2321 C 0.70057 0.79942 1.08315
 N2322 N 0.69679 0.78821 1.07906
 N2323 N 0.70166 0.78332 1.06891
 C2324 C 0.71043 0.78947 1.06243
 N2325 N 0.71418 0.80070 1.06649
 N2326 N 0.70933 0.80559 1.07667
 C2327 C 0.71612 0.78383 1.05152
 N2328 N 0.72474 0.79003 1.04485
 N2329 N 0.73036 0.78464 1.03535
 C2330 C 0.72756 0.77286 1.03219
 N2331 N 0.71888 0.76670 1.03877
 N2332 N 0.71324 0.77210 1.04824
 C2333 C 0.19542 0.30466 1.09435
 N2334 N 0.19981 0.31544 1.09894
 N2335 N 0.19511 0.32021 1.10923
 C2336 C 0.18582 0.31440 1.11529
 N2337 N 0.18144 0.30361 1.11071
 N2338 N 0.18616 0.29881 1.10045
 C2339 C 0.20063 0.29934 1.08304
 N2340 N 0.19687 0.28812 1.07899
 N2341 N 0.20173 0.28320 1.06885
 C2342 C 0.21049 0.28935 1.06234
 N2343 N 0.21421 0.30060 1.06635
 N2344 N 0.20937 0.30551 1.07652
 C2345 C 0.21618 0.28368 1.05144
 N2346 N 0.22475 0.28989 1.04473
 N2347 N 0.23035 0.28449 1.03522
 C2348 C 0.22757 0.27270 1.03209
 N2349 N 0.21893 0.26653 1.03873
 N2350 N 0.21331 0.27194 1.04821
 C2351 C 0.19515 0.80484 0.59411
 N2352 N 0.19949 0.81566 0.59866
 N2353 N 0.19474 0.82046 0.60892
 C2354 C 0.18546 0.81463 0.61497
 N2355 N 0.18111 0.80382 0.61042
 N2356 N 0.18589 0.79900 0.60019
 C2357 C 0.20042 0.79949 0.58285
 N2358 N 0.19688 0.78813 0.57898
 N2359 N 0.20178 0.78318 0.56887
 C2360 C 0.21034 0.78943 0.56221
 N2361 N 0.21384 0.80082 0.56604
 N2362 N 0.20898 0.80576 0.57618
 C2363 C 0.21606 0.78374 0.55134
 N2364 N 0.22421 0.79014 0.54430
 N2365 N 0.22985 0.78475 0.53480
 C2366 C 0.22752 0.77278 0.53202
 N2367 N 0.21931 0.76641 0.53899
 N2368 N 0.21365 0.77181 0.54845
 C2369 C 0.30453 0.69500 0.59429
 N2370 N 0.29880 0.68568 0.60036
 N2371 N 0.30371 0.68093 0.61056
 C2372 C 0.31450 0.68536 0.61510
 N2373 N 0.32024 0.69470 0.60904
 N2374 N 0.31535 0.69942 0.59881
 C2375 C 0.29906 0.70024 0.58306
 N2376 N 0.30516 0.70894 0.57643
 N2377 N 0.30011 0.71373 0.56630
 C2378 C 0.28879 0.71000 0.56245
 N2379 N 0.28271 0.70130 0.56908
 N2380 N 0.28776 0.69649 0.57918
 C2381 C 0.28300 0.71556 0.55153
 N2382 N 0.27121 0.71267 0.54845
 N2383 N 0.26571 0.71813 0.53892
 C2384 C 0.27185 0.72660 0.53206
 N2385 N 0.28367 0.72944 0.53506
 N2386 N 0.28916 0.72400 0.54461
 C2387 C 0.30504 0.19496 1.09399
 N2388 N 0.30073 0.18413 1.09856
 N2389 N 0.30557 0.17928 1.10875
 C2390 C 0.31492 0.18507 1.11472
 N2391 N 0.31924 0.19589 1.11016
 N2392 N 0.31438 0.20076 1.09999
 C2393 C 0.29970 0.20033 1.08278
 N2394 N 0.30342 0.21157 1.07873
 N2395 N 0.29848 0.21652 1.06864
 C2396 C 0.28968 0.21038 1.06219
 N2397 N 0.28600 0.19912 1.06620
 N2398 N 0.29091 0.19418 1.07632
 C2399 C 0.28395 0.21605 1.05131
 N2400 N 0.27536 0.20985 1.04464
 N2401 N 0.26972 0.21525 1.03515
 C2402 C 0.27249 0.22704 1.03201
 N2403 N 0.28115 0.23321 1.03860
 N2404 N 0.28681 0.22780 1.04806
 C2405 C 0.80484 0.69518 1.09433
 N2406 N 0.80059 0.68429 1.09882
 N2407 N 0.80536 0.67948 1.10906
 C2408 C 0.81456 0.68537 1.11517
 N2409 N 0.81881 0.69625 1.11068
 N2410 N 0.81402 0.70108 1.10046
 C2411 C 0.79955 0.70053 1.08307
 N2412 N 0.80321 0.71181 1.07909
 N2413 N 0.79832 0.71675 1.06896
 C2414 C 0.78963 0.71056 1.06242
 N2415 N 0.78599 0.69926 1.06638
 N2416 N 0.79086 0.69433 1.07653
 C2417 C 0.78394 0.71622 1.05152
 N2418 N 0.77542 0.70999 1.04478
 N2419 N 0.76979 0.71540 1.03529
 C2420 C 0.77250 0.72721 1.03220
 N2421 N 0.78110 0.73341 1.03885
 N2422 N 0.78674 0.72799 1.04832
 C2423 C 0.80489 0.19490 0.59395
 N2424 N 0.80055 0.18408 0.59852
 N2425 N 0.80534 0.17926 0.60875
 C2426 C 0.81466 0.18506 0.61476
 N2427 N 0.81900 0.19588 0.61019
 N2428 N 0.81418 0.20072 0.59999
 C2429 C 0.79958 0.20025 0.58271
 N2430 N 0.80330 0.21150 0.57868
 N2431 N 0.79838 0.21645 0.56858
 C2432 C 0.78962 0.21030 0.56210
 N2433 N 0.78594 0.19902 0.56610
 N2434 N 0.79083 0.19409 0.57623
 C2435 C 0.78390 0.21597 0.55122
 N2436 N 0.77533 0.20976 0.54452
 N2437 N 0.76970 0.21516 0.53503
 C2438 C 0.77244 0.22697 0.53192
 N2439 N 0.78107 0.23315 0.53854
 N2440 N 0.78672 0.22773 0.54800
 C2441 C 0.69515 0.69518 0.40567
 N2442 N 0.68563 0.70084 0.39981
 N2443 N 0.68088 0.69605 0.38955
 C2444 C 0.68552 0.68546 0.38475
 N2445 N 0.69505 0.67980 0.39059
 N2446 N 0.69977 0.68457 0.40088
 C2447 C 0.70042 0.70052 0.41693
 N2448 N 0.70934 0.69446 0.42332
 N2449 N 0.71421 0.69940 0.43344
 C2450 C 0.71035 0.71059 0.43755
 N2451 N 0.70143 0.71664 0.43117
 N2452 N 0.69653 0.71168 0.42107
 C2453 C 0.71605 0.71629 0.44842
 N2454 N 0.71310 0.72801 0.45168
 N2455 N 0.71874 0.73346 0.46113
 C2456 C 0.72747 0.72734 0.46770
 N2457 N 0.73033 0.71558 0.46455
 N2458 N 0.72471 0.71014 0.45507
 C2459 C 0.69537 0.19530 -0.09465
 N2460 N 0.68608 0.20111 -0.10073
 N2461 N 0.68137 0.19631 -0.11100
 C2462 C 0.68581 0.18554 -0.11559
 N2463 N 0.69512 0.17974 -0.10953
 N2464 N 0.69980 0.18453 -0.09924
 C2465 C 0.70059 0.20065 -0.08337
 N2466 N 0.70935 0.19451 -0.07684
 N2467 N 0.71418 0.19944 -0.06669
 C2468 C 0.71044 0.21071 -0.06270
 N2469 N 0.70167 0.21684 -0.06922
 N2470 N 0.69681 0.21189 -0.07935
 C2471 C 0.71612 0.21640 -0.05181
 N2472 N 0.71326 0.22816 -0.04862
 N2473 N 0.71889 0.23359 -0.03916
 C2474 C 0.72751 0.22742 -0.03249
 N2475 N 0.73027 0.21561 -0.03557
 N2476 N 0.72467 0.21019 -0.04507
 C2477 C 0.19525 0.69546 -0.09448
 N2478 N 0.19951 0.68456 -0.09895
 N2479 N 0.19481 0.67979 -0.10924
 C2480 C 0.18568 0.68573 -0.11542
 N2481 N 0.18142 0.69662 -0.11095
 N2482 N 0.18614 0.70141 -0.10069
 C2483 C 0.20047 0.70079 -0.08319
 N2484 N 0.19701 0.71221 -0.07940
 N2485 N 0.20188 0.71715 -0.06928
 C2486 C 0.21034 0.71083 -0.06253
 N2487 N 0.21375 0.69938 -0.06629
 N2488 N 0.20891 0.69446 -0.07644
 C2489 C 0.21605 0.71651 -0.05166
 N2490 N 0.22412 0.71007 -0.04455
 N2491 N 0.22978 0.71546 -0.03508
 C2492 C 0.22756 0.72748 -0.03239
 N2493 N 0.21942 0.73389 -0.03941
 N2494 N 0.21374 0.72849 -0.04885
 C2495 C 0.19489 0.19544 0.40562
 N2496 N 0.19920 0.18457 0.40115
 N2497 N 0.19449 0.17975 0.39089
 C2498 C 0.18528 0.18562 0.38474
 N2499 N 0.18098 0.19649 0.38921
 N2500 N 0.18570 0.20132 0.39945
 C2501 C 0.20014 0.20082 0.41687
 N2502 N 0.19631 0.21202 0.42094
 N2503 N 0.20118 0.21698 0.43105
 C2504 C 0.21004 0.21090 0.43750
 N2505 N 0.21386 0.19969 0.43345
 N2506 N 0.20900 0.19474 0.42332
 C2507 C 0.21571 0.21659 0.44840
 N2508 N 0.22454 0.21052 0.45491
 N2509 N 0.23015 0.21595 0.46439
 C2510 C 0.22711 0.22762 0.46770
 N2511 N 0.21821 0.23365 0.46128
 N2512 N 0.21259 0.22822 0.45182
 C2513 C 0.30479 0.40562 0.69510
 N2514 N 0.31546 0.40085 0.69963
 N2515 N 0.32029 0.39061 0.69483
 C2516 C 0.31463 0.38480 0.68530
 N2517 N 0.30396 0.38956 0.68079
 N2518 N 0.29912 0.39977 0.68561
 C2519 C 0.29942 0.41687 0.70040
 N2520 N 0.28831 0.42110 0.69641
 N2521 N 0.28334 0.43122 0.70129
 C2522 C 0.28932 0.43752 0.71029
 N2523 N 0.30044 0.43331 0.71426
 N2524 N 0.30540 0.42316 0.70940
 C2525 C 0.28361 0.44844 0.71595
 N2526 N 0.28960 0.45486 0.72486
 N2527 N 0.28414 0.46436 0.73044
 C2528 C 0.27250 0.46776 0.72729
 N2529 N 0.26654 0.46141 0.71832
 N2530 N 0.27202 0.45194 0.71272
 C2531 C 0.30488 0.90580 0.19493
 N2532 N 0.31565 0.90113 0.19934
 N2533 N 0.32048 0.89090 0.19453
 C2534 C 0.31473 0.88499 0.18512
 N2535 N 0.30396 0.88965 0.18073
 N2536 N 0.29912 0.89985 0.18556
 C2537 C 0.29951 0.91704 0.20023
 N2538 N 0.28834 0.92119 0.19634
 N2539 N 0.28338 0.93132 0.20122
 C2540 C 0.28944 0.93770 0.21011
 N2541 N 0.30062 0.93357 0.21397
 N2542 N 0.30557 0.92342 0.20912
 C2543 C 0.28373 0.94860 0.21579
 N2544 N 0.28978 0.95511 0.22460
 N2545 N 0.28432 0.96458 0.23021
 C2546 C 0.27260 0.96787 0.22721
 N2547 N 0.26659 0.96144 0.21833
 N2548 N 0.27206 0.95199 0.21270
 C2549 C 0.80532 0.40590 0.19511
 N2550 N 0.81430 0.39948 0.20105
 N2551 N 0.81904 0.38928 0.19610
 C2552 C 0.81493 0.38510 0.18506
 N2553 N 0.80591 0.39147 0.17915
 N2554 N 0.80120 0.40170 0.18407
 C2555 C 0.80006 0.41711 0.20061
 N2556 N 0.79175 0.42405 0.19430
 N2557 N 0.78687 0.43414 0.19936
 C2558 C 0.79012 0.43764 0.21091
 N2559 N 0.79844 0.43071 0.21721
 N2560 N 0.80334 0.42065 0.21214
 C2561 C 0.78440 0.44848 0.21669
 N2562 N 0.78645 0.45102 0.22876
 N2563 N 0.78077 0.46047 0.23420
 C2564 C 0.77291 0.46776 0.22773
 N2565 N 0.77092 0.46529 0.21564
 N2566 N 0.77657 0.45581 0.21022
 C2567 C 0.80514 0.90584 0.69538
 N2568 N 0.80097 0.90159 0.68438
 N2569 N 0.80570 0.89138 0.67945
 C2570 C 0.81479 0.88506 0.68532
 N2571 N 0.81898 0.88933 0.69630
 N2572 N 0.81422 0.89951 0.70126
 C2573 C 0.79989 0.91708 0.70085
 N2574 N 0.80321 0.92067 0.71236
 N2575 N 0.79832 0.93076 0.71739
 C2576 C 0.78999 0.93767 0.71108
 N2577 N 0.78672 0.93411 0.69955
 N2578 N 0.79157 0.92399 0.69453
 C2579 C 0.78427 0.94853 0.71683
 N2580 N 0.77647 0.95589 0.71034
 N2581 N 0.77084 0.96539 0.71574
 C2582 C 0.77281 0.96786 0.72783
 N2583 N 0.78067 0.96057 0.73431
 N2584 N 0.78633 0.95111 0.72889
 C2585 C 0.69471 0.59433 0.69528
 N2586 N 0.69892 0.59863 0.68432
 N2587 N 0.69418 0.60884 0.67938
 C2588 C 0.68503 0.61510 0.68522
 N2589 N 0.68083 0.61081 0.69619
 N2590 N 0.68559 0.60062 0.70114
 C2591 C 0.69997 0.58312 0.70079
 N2592 N 0.69640 0.57941 0.71220
 N2593 N 0.70124 0.56932 0.71727
 C2594 C 0.70977 0.56252 0.71112
 N2595 N 0.71332 0.56621 0.69970
 N2596 N 0.70851 0.57633 0.69463
 C2597 C 0.71539 0.55164 0.71693
 N2598 N 0.72371 0.54461 0.71073
 N2599 N 0.72921 0.53508 0.71624
 C2600 C 0.72654 0.53223 0.72812
 N2601 N 0.71819 0.53922 0.73430
 N2602 N 0.71268 0.54872 0.72878
 C2603 C 0.69469 0.09415 0.19517
 N2604 N 0.69900 0.09845 0.18424
 N2605 N 0.69428 0.10865 0.17926
 C2606 C 0.68505 0.11488 0.18501
 N2607 N 0.68074 0.11057 0.19593
 N2608 N 0.68549 0.10040 0.20093
 C2609 C 0.69991 0.08294 0.20071
 N2610 N 0.69628 0.07923 0.21209
 N2611 N 0.70112 0.06917 0.21722
 C2612 C 0.70973 0.06240 0.21113
 N2613 N 0.71332 0.06607 0.19972
 N2614 N 0.70850 0.07616 0.19461
 C2615 C 0.71535 0.05155 0.21700
 N2616 N 0.72370 0.04452 0.21083
 N2617 N 0.72920 0.03502 0.21637
 C2618 C 0.72652 0.03221 0.22825
 N2619 N 0.71815 0.03919 0.23440
 N2620 N 0.71263 0.04867 0.22886
 C2621 C 0.19477 0.59433 0.19492
 N2622 N 0.18401 0.59903 0.19932
 N2623 N 0.17922 0.60927 0.19450
 C2624 C 0.18500 0.61516 0.18510
 N2625 N 0.19575 0.61046 0.18070
 N2626 N 0.20056 0.60024 0.18554
 C2627 C 0.20010 0.58307 0.20024
 N2628 N 0.21131 0.57894 0.19644
 N2629 N 0.21626 0.56884 0.20138
 C2630 C 0.21017 0.56245 0.21025
 N2631 N 0.19893 0.56654 0.21400
 N2632 N 0.19398 0.57667 0.20909
 C2633 C 0.21588 0.55157 0.21599
 N2634 N 0.20972 0.54493 0.22464
 N2635 N 0.21517 0.53546 0.23029
 C2636 C 0.22696 0.53231 0.22747
 N2637 N 0.23309 0.53886 0.21875
 N2638 N 0.22763 0.54830 0.21309
 C2639 C 0.19501 0.09409 0.69513
 N2640 N 0.20094 0.10018 0.68594
 N2641 N 0.19612 0.11040 0.68110
 C2642 C 0.18522 0.11493 0.68531
 N2643 N 0.17931 0.10886 0.69452
 N2644 N 0.18411 0.09862 0.69934
 C2645 C 0.20038 0.08285 0.70046
 N2646 N 0.19420 0.07631 0.70917
 N2647 N 0.19916 0.06619 0.71407
 C2648 C 0.21050 0.06223 0.71046
 N2649 N 0.21667 0.06877 0.70174
 N2650 N 0.21169 0.07886 0.69682
 C2651 C 0.21623 0.05135 0.71619
 N2652 N 0.22802 0.04817 0.71338
 N2653 N 0.23348 0.03872 0.71902
 C2654 C 0.22732 0.03206 0.72764
 N2655 N 0.21547 0.03512 0.73036
 N2656 N 0.21002 0.04461 0.72473
 C2657 C 0.30478 0.59445 0.30438
 N2658 N 0.29902 0.60034 0.31380
 N2659 N 0.30377 0.61061 0.31856
 C2660 C 0.31444 0.61538 0.31405
 N2661 N 0.32018 0.60952 0.30460
 N2662 N 0.31544 0.59923 0.29986
 C2663 C 0.29948 0.58315 0.29912
 N2664 N 0.30560 0.57678 0.29025
 N2665 N 0.30070 0.56661 0.28538
 C2666 C 0.28952 0.56247 0.28921
 N2667 N 0.28341 0.56884 0.29809
 N2668 N 0.28832 0.57898 0.30297
 C2669 C 0.28385 0.55157 0.28351
 N2670 N 0.27212 0.54828 0.28645
 N2671 N 0.26668 0.53883 0.28082
 C2672 C 0.27281 0.53226 0.27211
 N2673 N 0.28459 0.53544 0.26926
 N2674 N 0.29001 0.54493 0.27487
 C2675 C 0.30497 0.09409 0.80461
 N2676 N 0.31583 0.09866 0.80035
 N2677 N 0.32065 0.10886 0.80519
 C2678 C 0.31479 0.11486 0.81448
 N2679 N 0.30393 0.11030 0.81874
 N2680 N 0.29910 0.10011 0.81388
 C2681 C 0.29964 0.08283 0.79930
 N2682 N 0.28839 0.07876 0.80302
 N2683 N 0.28350 0.06860 0.79815
 C2684 C 0.28969 0.06210 0.78943
 N2685 N 0.30096 0.06615 0.78574
 N2686 N 0.30585 0.07633 0.79058
 C2687 C 0.28406 0.05116 0.78377
 N2688 N 0.29030 0.04445 0.77522
 N2689 N 0.28491 0.03494 0.76962
 C2690 C 0.27310 0.03180 0.77238
 N2691 N 0.26691 0.03842 0.78101
 N2692 N 0.27231 0.04790 0.78662
 C2693 C 0.80473 0.59448 0.80478
 N2694 N 0.79889 0.60056 0.81403
 N2695 N 0.80374 0.61076 0.81882
 C2696 C 0.81459 0.61530 0.81450
 N2697 N 0.82042 0.60924 0.80523
 N2698 N 0.81559 0.59900 0.80046
 C2699 C 0.79932 0.58322 0.79952
 N2700 N 0.80551 0.57658 0.79090
 N2701 N 0.80053 0.56643 0.78610
 C2702 C 0.78918 0.56256 0.78973
 N2703 N 0.78300 0.56920 0.79837
 N2704 N 0.78800 0.57932 0.80320
 C2705 C 0.78344 0.55165 0.78409
 N2706 N 0.77158 0.54864 0.78676
 N2707 N 0.76614 0.53915 0.78120
 C2708 C 0.77240 0.53227 0.77282
 N2709 N 0.78431 0.53518 0.77024
 N2710 N 0.78973 0.54471 0.77578
 C2711 C 0.80485 0.09437 0.30439
 N2712 N 0.81557 0.09909 0.29992
 N2713 N 0.82030 0.10939 0.30465
 C2714 C 0.81452 0.11531 0.31404
 N2715 N 0.80382 0.11058 0.31851
 N2716 N 0.79906 0.10032 0.31375
 C2717 C 0.79956 0.08306 0.29917
 N2718 N 0.78827 0.07906 0.30286
 N2719 N 0.78335 0.06891 0.29802
 C2720 C 0.78955 0.06234 0.28937
 N2721 N 0.80087 0.06630 0.28571
 N2722 N 0.80578 0.07649 0.29052
 C2723 C 0.78387 0.05143 0.28371
 N2724 N 0.79021 0.04445 0.27546
 N2725 N 0.78479 0.03495 0.26988
 C2726 C 0.77284 0.03210 0.27234
 N2727 N 0.76653 0.03901 0.28065
 N2728 N 0.77197 0.04847 0.28627
 C2729 C 0.69509 0.40575 0.30474
 N2730 N 0.70100 0.39959 0.31389
 N2731 N 0.69610 0.38944 0.31876
 C2732 C 0.68513 0.38504 0.31461
 N2733 N 0.67924 0.39117 0.30543
 N2734 N 0.68412 0.40136 0.30059
 C2735 C 0.70053 0.41697 0.29944
 N2736 N 0.69423 0.42378 0.29104
 N2737 N 0.69923 0.43391 0.28621
 C2738 C 0.71072 0.43759 0.28959
 N2739 N 0.71701 0.43077 0.29800
 N2740 N 0.71199 0.42067 0.30286
 C2741 C 0.71645 0.44848 0.28394
 N2742 N 0.72847 0.45119 0.28621
 N2743 N 0.73390 0.46068 0.28062
 C2744 C 0.72747 0.46787 0.27265
 N2745 N 0.71541 0.46527 0.27047
 N2746 N 0.71000 0.45574 0.27603
 C2747 C 0.69511 0.90583 0.80489
 N2748 N 0.68414 0.90144 0.80074
 N2749 N 0.67924 0.89126 0.80558
 C2750 C 0.68513 0.88513 0.81477
 N2751 N 0.69610 0.88952 0.81892
 N2752 N 0.70101 0.89967 0.81405
 C2753 C 0.70053 0.91705 0.79959
 N2754 N 0.71199 0.92078 0.80302
 N2755 N 0.71699 0.93089 0.79815
 C2756 C 0.71069 0.93769 0.78974
 N2757 N 0.69921 0.93399 0.78634
 N2758 N 0.69423 0.92385 0.79118
 C2759 C 0.71642 0.94860 0.78411
 N2760 N 0.70997 0.95584 0.77617
 N2761 N 0.71538 0.96538 0.77062
 C2762 C 0.72742 0.96801 0.77283
 N2763 N 0.73385 0.96083 0.78081
 N2764 N 0.72843 0.95133 0.78639
 C2765 C 0.19485 0.40566 0.80478
 N2766 N 0.20068 0.39962 0.81406
 N2767 N 0.19579 0.38946 0.81893
 C2768 C 0.18491 0.38495 0.81468
 N2769 N 0.17909 0.39096 0.80538
 N2770 N 0.18396 0.40115 0.80053
 C2771 C 0.20025 0.41688 0.79945
 N2772 N 0.19404 0.42348 0.79081
 N2773 N 0.19900 0.43360 0.78592
 C2774 C 0.21036 0.43750 0.78949
 N2775 N 0.21656 0.43091 0.79815
 N2776 N 0.21158 0.42081 0.80306
 C2777 C 0.21605 0.44839 0.78378
 N2778 N 0.22793 0.45144 0.78638
 N2779 N 0.23333 0.46091 0.78073
 C2780 C 0.22703 0.46774 0.77235
 N2781 N 0.21511 0.46481 0.76985
 N2782 N 0.20972 0.45530 0.77547
 C2783 C 0.19496 0.90584 0.30465
 N2784 N 0.20079 0.89980 0.31393
 N2785 N 0.19592 0.88965 0.31881
 C2786 C 0.18505 0.88511 0.31456
 N2787 N 0.17922 0.89112 0.30525
 N2788 N 0.18408 0.90131 0.30039
 C2789 C 0.20035 0.91706 0.29932
 N2790 N 0.19414 0.92363 0.29066
 N2791 N 0.19909 0.93377 0.28578
 C2792 C 0.21044 0.93768 0.28937
 N2793 N 0.21663 0.93111 0.29804
 N2794 N 0.21167 0.92101 0.30295
 C2795 C 0.21613 0.94858 0.28367
 N2796 N 0.22798 0.95165 0.28632
 N2797 N 0.23339 0.96112 0.28068
 C2798 C 0.22711 0.96791 0.27225
 N2799 N 0.21521 0.96495 0.26970
 N2800 N 0.20981 0.95545 0.27531
 C2801 C 0.40562 0.30525 0.69537
 N2802 N 0.39941 0.31444 0.70119
 N2803 N 0.38920 0.31921 0.69627
 C2804 C 0.38479 0.31492 0.68538
 N2805 N 0.39097 0.30570 0.67959
 N2806 N 0.40121 0.30096 0.68448
 C2807 C 0.41686 0.29998 0.70081
 N2808 N 0.42367 0.29154 0.69453
 N2809 N 0.43380 0.28667 0.69952
 C2810 C 0.43748 0.29004 0.71099
 N2811 N 0.43066 0.29847 0.71727
 N2812 N 0.42056 0.30338 0.71225
 C2813 C 0.44837 0.28433 0.71672
 N2814 N 0.45103 0.28647 0.72874
 N2815 N 0.46050 0.28080 0.73416
 C2816 C 0.46771 0.27285 0.72771
 N2817 N 0.46514 0.27078 0.71565
 N2818 N 0.45563 0.27642 0.71025
 C2819 C 0.40575 0.80523 0.19471
 N2820 N 0.40154 0.81639 0.19854
 N2821 N 0.39132 0.82124 0.19369
 C2822 C 0.38497 0.81512 0.18482
 N2823 N 0.38919 0.80397 0.18099
 N2824 N 0.39938 0.79911 0.18585
 C2825 C 0.41695 0.79981 0.20008
 N2826 N 0.42058 0.78827 0.19688
 N2827 N 0.43065 0.78326 0.20184
 C2828 C 0.43750 0.78963 0.21014
 N2829 N 0.43390 0.80120 0.21332
 N2830 N 0.42379 0.80619 0.20839
 C2831 C 0.44836 0.78390 0.21591
 N2832 N 0.45555 0.79035 0.22387
 N2833 N 0.46502 0.78493 0.22954
 C2834 C 0.46762 0.77287 0.22745
 N2835 N 0.46050 0.76644 0.21942
 N2836 N 0.45107 0.77188 0.21372
 C2837 C 0.90548 0.30540 0.19527
 N2838 N 0.89930 0.31466 0.20101
 N2839 N 0.88904 0.31934 0.19612
 C2840 C 0.88455 0.31489 0.18534
 N2841 N 0.89069 0.30560 0.17962
 N2842 N 0.90098 0.30094 0.18449
 C2843 C 0.91676 0.30021 0.20071
 N2844 N 0.92331 0.29138 0.19471
 N2845 N 0.93345 0.28656 0.19974
 C2846 C 0.93740 0.29040 0.21096
 N2847 N 0.93087 0.29924 0.21696
 N2848 N 0.92075 0.30407 0.21192
 C2849 C 0.94829 0.28476 0.21676
 N2850 N 0.95154 0.28785 0.22843
 N2851 N 0.96103 0.28231 0.23394
 C2852 C 0.96764 0.27353 0.22795
 N2853 N 0.96445 0.27048 0.21625
 N2854 N 0.95495 0.27602 0.21075
 C2855 C 0.90539 0.80521 0.69540
 N2856 N 0.89927 0.81448 0.70118
 N2857 N 0.88899 0.81920 0.69633
 C2858 C 0.88444 0.81477 0.68556
 N2859 N 0.89054 0.80549 0.67979
 N2860 N 0.90084 0.80080 0.68461
 C2861 C 0.91670 0.79999 0.70074
 N2862 N 0.92332 0.79137 0.69451
 N2863 N 0.93350 0.78652 0.69942
 C2864 C 0.93743 0.79010 0.71074
 N2865 N 0.93083 0.79875 0.71695
 N2866 N 0.92067 0.80363 0.71202
 C2867 C 0.94834 0.78436 0.71639
 N2868 N 0.95138 0.78689 0.72824
 N2869 N 0.96086 0.78119 0.73361
 C2870 C 0.96769 0.77283 0.72728
 N2871 N 0.96476 0.77040 0.71537
 N2872 N 0.95525 0.77606 0.71002
 C2873 C 0.59459 0.30482 0.30465
 N2874 N 0.60073 0.29898 0.31386
 N2875 N 0.61092 0.30388 0.31866
 C2876 C 0.61537 0.31477 0.31440
 N2877 N 0.60926 0.32060 0.30517
 N2878 N 0.59904 0.31572 0.30038
 C2879 C 0.58335 0.29938 0.29939
 N2880 N 0.57677 0.30547 0.29065
 N2881 N 0.56663 0.30045 0.28584
 C2882 C 0.56271 0.28917 0.28960
 N2883 N 0.56928 0.28310 0.29836
 N2884 N 0.57940 0.28813 0.30318
 C2885 C 0.55181 0.28341 0.28398
 N2886 N 0.54859 0.27169 0.28700
 N2887 N 0.53909 0.26621 0.28147
 C2888 C 0.53243 0.27227 0.27279
 N2889 N 0.53555 0.28403 0.26985
 N2890 N 0.54508 0.28950 0.27536
 C2891 C 0.59442 0.80519 0.80474
 N2892 N 0.60054 0.79927 0.81393
 N2893 N 0.61074 0.80410 0.81877
 C2894 C 0.61524 0.81500 0.81457
 N2895 N 0.60916 0.82090 0.80536
 N2896 N 0.59892 0.81609 0.80054
 C2897 C 0.58316 0.79983 0.79943
 N2898 N 0.57660 0.80602 0.79075
 N2899 N 0.56646 0.80108 0.78587
 C2900 C 0.56251 0.78976 0.78950
 N2901 N 0.56907 0.78359 0.79819
 N2902 N 0.57919 0.78854 0.80309
 C2903 C 0.55160 0.78407 0.78381
 N2904 N 0.54842 0.77230 0.78663
 N2905 N 0.53895 0.76686 0.78101
 C2906 C 0.53227 0.77303 0.77241
 N2907 N 0.53533 0.78485 0.76968
 N2908 N 0.54484 0.79028 0.77528
 C2909 C 0.09435 0.30470 0.80477
 N2910 N 0.09881 0.31559 0.80050
 N2911 N 0.10903 0.32047 0.80528
 C2912 C 0.11515 0.31464 0.81451
 N2913 N 0.11069 0.30376 0.81877
 N2914 N 0.10050 0.29886 0.81398
 C2915 C 0.08310 0.29927 0.79951
 N2916 N 0.07913 0.28801 0.80326
 N2917 N 0.06901 0.28301 0.79842
 C2918 C 0.06244 0.28912 0.78968
 N2919 N 0.06638 0.30041 0.78596
 N2920 N 0.07653 0.30539 0.79079
 C2921 C 0.05153 0.28341 0.78403
 N2922 N 0.04479 0.28959 0.77546
 N2923 N 0.03527 0.28417 0.76989
 C2924 C 0.03214 0.27239 0.77270
 N2925 N 0.03881 0.26624 0.78133
 N2926 N 0.04830 0.27167 0.78692
 C2927 C 0.09436 0.80520 0.30453
 N2928 N 0.09886 0.81611 0.30033
 N2929 N 0.10910 0.82091 0.30514
 C2930 C 0.11519 0.81500 0.31434
 N2931 N 0.11069 0.80411 0.31854
 N2932 N 0.10047 0.79929 0.31371
 C2933 C 0.08309 0.79985 0.29923
 N2934 N 0.07912 0.78856 0.30289
 N2935 N 0.06899 0.78361 0.29800
 C2936 C 0.06242 0.78980 0.28932
 N2937 N 0.06636 0.80112 0.28570
 N2938 N 0.07651 0.80606 0.29057
 C2939 C 0.05152 0.78410 0.28362
 N2940 N 0.04474 0.79032 0.27513
 N2941 N 0.03524 0.78490 0.26952
 C2942 C 0.03220 0.77306 0.27222
 N2943 N 0.03891 0.76688 0.28079
 N2944 N 0.04837 0.77232 0.28642
 C2945 C 0.59459 0.69532 0.69539
 N2946 N 0.59931 0.68459 0.69981
 N2947 N 0.60963 0.67986 0.69506
 C2948 C 0.61557 0.68566 0.68570
 N2949 N 0.61085 0.69639 0.68129
 N2950 N 0.60056 0.70114 0.68606
 C2951 C 0.58327 0.70062 0.70067
 N2952 N 0.57914 0.71181 0.69688
 N2953 N 0.56897 0.71672 0.70176
 C2954 C 0.56253 0.71059 0.71057
 N2955 N 0.56664 0.69937 0.71434
 N2956 N 0.57683 0.69448 0.70948
 C2957 C 0.55160 0.71626 0.71627
 N2958 N 0.54493 0.71009 0.72489
 N2959 N 0.53542 0.71551 0.73051
 C2960 C 0.53225 0.72729 0.72770
 N2961 N 0.53885 0.73343 0.71902
 N2962 N 0.54833 0.72800 0.71338
 C2963 C 0.59475 0.19528 0.19500
 N2964 N 0.60080 0.20108 0.18570
 N2965 N 0.61108 0.19628 0.18097
 C2966 C 0.61572 0.18553 0.18540
 N2967 N 0.60970 0.17973 0.19471
 N2968 N 0.59939 0.18452 0.19942
 C2969 C 0.58343 0.20063 0.20020
 N2970 N 0.57698 0.19457 0.20905
 N2971 N 0.56680 0.19953 0.21386
 C2972 C 0.56272 0.21073 0.21000
 N2973 N 0.56916 0.21676 0.20113
 N2974 N 0.57931 0.21179 0.19630
 C2975 C 0.55180 0.21646 0.21565
 N2976 N 0.54845 0.22812 0.21254
 N2977 N 0.53896 0.23360 0.21810
 C2978 C 0.53243 0.22759 0.22691
 N2979 N 0.53568 0.21589 0.22996
 N2980 N 0.54520 0.21042 0.22441
 C2981 C 0.09432 0.69521 0.19514
 N2982 N 0.09894 0.68439 0.19945
 N2983 N 0.10924 0.67963 0.19468
 C2984 C 0.11526 0.68550 0.18542
 N2985 N 0.11064 0.69631 0.18110
 N2986 N 0.10037 0.70109 0.18589
 C2987 C 0.08301 0.70050 0.20040
 N2988 N 0.07892 0.71173 0.19666
 N2989 N 0.06879 0.71666 0.20157
 C2990 C 0.06232 0.71052 0.21035
 N2991 N 0.06637 0.69925 0.21404
 N2992 N 0.07653 0.69433 0.20916
 C2993 C 0.05142 0.71621 0.21609
 N2994 N 0.04474 0.71002 0.22469
 N2995 N 0.03526 0.71546 0.23034
 C2996 C 0.03213 0.72726 0.22758
 N2997 N 0.03873 0.73340 0.21890
 N2998 N 0.04818 0.72796 0.21323
 C2999 C 0.09422 0.19490 0.69492
 N3000 N 0.10021 0.20063 0.68554
 N3001 N 0.11038 0.19570 0.68069
 C3002 C 0.11494 0.18489 0.68505
 N3003 N 0.10898 0.17918 0.69445
 N3004 N 0.09879 0.18409 0.69929
 C3005 C 0.08300 0.20036 0.70023
 N3006 N 0.07653 0.19432 0.70909
 N3007 N 0.06640 0.19934 0.71395
 C3008 C 0.06238 0.21058 0.71013
 N3009 N 0.06885 0.21660 0.70127
 N3010 N 0.07896 0.21157 0.69639
 C3011 C 0.05148 0.21633 0.71579
 N3012 N 0.04817 0.22802 0.71277
 N3013 N 0.03869 0.23349 0.71837
 C3014 C 0.03212 0.22743 0.72712
 N3015 N 0.03532 0.21569 0.73006
 N3016 N 0.04483 0.21023 0.72448
 C3017 C 0.40542 0.69470 0.30408
 N3018 N 0.40098 0.69903 0.31495
 N3019 N 0.39071 0.69435 0.31981
 C3020 C 0.38452 0.68515 0.31401
 N3021 N 0.38895 0.68082 0.30315
 N3022 N 0.39920 0.68553 0.29826
 C3023 C 0.41667 0.69991 0.29863
 N3024 N 0.42045 0.69632 0.28727
 N3025 N 0.43056 0.70115 0.28222
 C3026 C 0.43730 0.70971 0.28838
 N3027 N 0.43355 0.71327 0.29977
 N3028 N 0.42341 0.70846 0.30481
 C3029 C 0.44819 0.71534 0.28260
 N3030 N 0.45519 0.72364 0.28883
 N3031 N 0.46472 0.72916 0.28337
 C3032 C 0.46760 0.72655 0.27149
 N3033 N 0.46065 0.71822 0.26527
 N3034 N 0.45114 0.71268 0.27074
 C3035 C 0.40538 0.19508 0.80460
 N3036 N 0.40111 0.18403 0.80057
 N3037 N 0.39087 0.17916 0.80533
 C3038 C 0.38455 0.18516 0.81433
 N3039 N 0.38883 0.19620 0.81837
 N3040 N 0.39904 0.20108 0.81358
 C3041 C 0.41665 0.20050 0.79936
 N3042 N 0.42028 0.21201 0.80269
 N3043 N 0.43041 0.21702 0.79785
 C3044 C 0.43733 0.21068 0.78957
 N3045 N 0.43374 0.19915 0.78628
 N3046 N 0.42357 0.19416 0.79108
 C3047 C 0.44826 0.21642 0.78394
 N3048 N 0.45561 0.20995 0.77612
 N3049 N 0.46515 0.21537 0.77056
 C3050 C 0.46765 0.22746 0.77262
 N3051 N 0.46036 0.23390 0.78050
 N3052 N 0.45087 0.22847 0.78609
 C3053 C 0.90546 0.69493 0.80442
 N3054 N 0.89953 0.68545 0.79880
 N3055 N 0.88931 0.68067 0.80369
 C3056 C 0.88463 0.68524 0.81436
 N3057 N 0.89054 0.69473 0.81996
 N3058 N 0.90078 0.69948 0.81509
 C3059 C 0.91672 0.70020 0.79903
 N3060 N 0.92310 0.70913 0.80503
 N3061 N 0.93325 0.71399 0.80008
 C3062 C 0.93739 0.71009 0.78894
 N3063 N 0.93103 0.70114 0.78294
 N3064 N 0.92089 0.69626 0.78791
 C3065 C 0.94828 0.71581 0.78323
 N3066 N 0.95173 0.71268 0.77162
 N3067 N 0.96120 0.71831 0.76618
 C3068 C 0.96761 0.72721 0.77218
 N3069 N 0.96427 0.73026 0.78384
 N3070 N 0.95477 0.72464 0.78927
 C3071 C 0.90570 0.19454 0.30446
 N3072 N 0.90104 0.19910 0.31514
 N3073 N 0.89083 0.19433 0.32005
 C3074 C 0.88494 0.18480 0.31448
 N3075 N 0.88960 0.18023 0.30382
 N3076 N 0.89979 0.18503 0.29888
 C3077 C 0.91690 0.19985 0.29898
 N3078 N 0.92093 0.19599 0.28778
 N3079 N 0.93099 0.20091 0.28272
 C3080 C 0.93743 0.20983 0.28869
 N3081 N 0.93342 0.21366 0.29991
 N3082 N 0.92333 0.20876 0.30496
 C3083 C 0.94828 0.21553 0.28291
 N3084 N 0.95494 0.22424 0.28896
 N3085 N 0.96444 0.22980 0.28348
 C3086 C 0.96762 0.22682 0.27176
 N3087 N 0.96103 0.21807 0.26573
 N3088 N 0.95155 0.21250 0.27122
 C3089 C 0.30486 0.30481 0.59424
 N3090 N 0.31412 0.29897 0.60032
 N3091 N 0.31890 0.30381 0.61054
 C3092 C 0.31455 0.31463 0.61508
 N3093 N 0.30526 0.32046 0.60902
 N3094 N 0.30051 0.31565 0.59878
 C3095 C 0.29959 0.29945 0.58299
 N3096 N 0.29104 0.30572 0.57631
 N3097 N 0.28619 0.30077 0.56618
 C3098 C 0.28969 0.28936 0.56237
 N3099 N 0.29825 0.28311 0.56905
 N3100 N 0.30313 0.28807 0.57915
 C3101 C 0.28399 0.28366 0.55150
 N3102 N 0.28638 0.27171 0.54865
 N3103 N 0.28072 0.26630 0.53921
 C3104 C 0.27253 0.27267 0.53221
 N3105 N 0.27023 0.28467 0.53494
 N3106 N 0.27586 0.29006 0.54442
 C3107 C 0.30525 0.80484 0.09406
 N3108 N 0.31434 0.79891 0.10032
 N3109 N 0.31906 0.80375 0.11056
 C3110 C 0.31483 0.81469 0.11494
 N3111 N 0.30573 0.82062 0.10870
 N3112 N 0.30103 0.81579 0.09844
 C3113 C 0.30000 0.79945 0.08281
 N3114 N 0.29123 0.80557 0.07629
 N3115 N 0.28636 0.80059 0.06617
 C3116 C 0.29010 0.78932 0.06221
 N3117 N 0.29889 0.78321 0.06872
 N3118 N 0.30377 0.78820 0.07882
 C3119 C 0.28441 0.78360 0.05134
 N3120 N 0.28750 0.77194 0.04798
 N3121 N 0.28190 0.76649 0.03851
 C3122 C 0.27307 0.77254 0.03202
 N3123 N 0.27006 0.78424 0.03527
 N3124 N 0.27564 0.78968 0.04476
 C3125 C 0.80497 0.30514 0.09388
 N3126 N 0.80063 0.31598 0.09840
 N3127 N 0.80543 0.32084 0.10860
 C3128 C 0.81477 0.31505 0.11462
 N3129 N 0.81911 0.30421 0.11009
 N3130 N 0.81428 0.29934 0.09992
 C3131 C 0.79966 0.29976 0.08266
 N3132 N 0.80338 0.28850 0.07866
 N3133 N 0.79847 0.28354 0.06856
 C3134 C 0.78970 0.28968 0.06206
 N3135 N 0.78602 0.30097 0.06603
 N3136 N 0.79090 0.30592 0.07615
 C3137 C 0.78398 0.28399 0.05119
 N3138 N 0.77541 0.29021 0.04447
 N3139 N 0.76977 0.28479 0.03500
 C3140 C 0.77250 0.27297 0.03193
 N3141 N 0.78113 0.26679 0.03857
 N3142 N 0.78679 0.27222 0.04800
 C3143 C 0.80498 0.80521 0.59391
 N3144 N 0.81429 0.79941 0.59995
 N3145 N 0.81912 0.80428 0.61013
 C3146 C 0.81477 0.81511 0.61466
 N3147 N 0.80543 0.82089 0.60865
 N3148 N 0.80063 0.81604 0.59845
 C3149 C 0.79966 0.79983 0.58269
 N3150 N 0.79089 0.80597 0.57620
 N3151 N 0.78599 0.80102 0.56609
 C3152 C 0.78968 0.78973 0.56211
 N3153 N 0.79847 0.78360 0.56860
 N3154 N 0.80339 0.78857 0.57868
 C3155 C 0.78395 0.78404 0.55125
 N3156 N 0.78679 0.77227 0.54805
 N3157 N 0.78113 0.76684 0.53861
 C3158 C 0.77248 0.77302 0.53198
 N3159 N 0.76972 0.78483 0.53507
 N3160 N 0.77537 0.79024 0.54454
 C3161 C 0.30489 0.69519 0.40545
 N3162 N 0.31436 0.70083 0.39951
 N3163 N 0.31914 0.69595 0.38932
 C3164 C 0.31459 0.68527 0.38465
 N3165 N 0.30509 0.67964 0.39056
 N3166 N 0.30033 0.68451 0.40078
 C3167 C 0.29964 0.70059 0.41670
 N3168 N 0.29067 0.69461 0.42307
 N3169 N 0.28584 0.69958 0.43321
 C3170 C 0.28980 0.71071 0.43734
 N3171 N 0.29878 0.71668 0.43097
 N3172 N 0.30363 0.71169 0.42086
 C3173 C 0.28415 0.71644 0.44824
 N3174 N 0.28737 0.72803 0.45168
 N3175 N 0.28180 0.73350 0.46116
 C3176 C 0.27285 0.72754 0.46758
 N3177 N 0.26972 0.71590 0.46424
 N3178 N 0.27528 0.71044 0.45474
 C3179 C 0.30472 0.19496 0.90546
 N3180 N 0.30034 0.18417 0.90087
 N3181 N 0.30504 0.17940 0.89057
 C3182 C 0.31430 0.18524 0.88450
 N3183 N 0.31869 0.19603 0.88909
 N3184 N 0.31397 0.20081 0.89936
 C3185 C 0.29949 0.20028 0.91675
 N3186 N 0.30322 0.21153 0.92077
 N3187 N 0.29834 0.21647 0.93089
 C3188 C 0.28959 0.21032 0.93741
 N3189 N 0.28590 0.19904 0.93343
 N3190 N 0.29076 0.19411 0.92328
 C3191 C 0.28388 0.21601 0.94830
 N3192 N 0.27534 0.20980 0.95504
 N3193 N 0.26971 0.21521 0.96453
 C3194 C 0.27243 0.22703 0.96760
 N3195 N 0.28105 0.23321 0.96094
 N3196 N 0.28670 0.22778 0.95149
 C3197 C 0.80490 0.69510 0.90572
 N3198 N 0.80043 0.68439 0.90106
 N3199 N 0.80518 0.67959 0.89081
 C3200 C 0.81460 0.68532 0.88486
 N3201 N 0.81907 0.69603 0.88952
 N3202 N 0.81429 0.70085 0.89975
 C3203 C 0.79963 0.70045 0.91699
 N3204 N 0.80343 0.71165 0.92106
 N3205 N 0.79853 0.71659 0.93118
 C3206 C 0.78970 0.71049 0.93763
 N3207 N 0.78593 0.69926 0.93358
 N3208 N 0.79081 0.69433 0.92344
 C3209 C 0.78398 0.71617 0.94851
 N3210 N 0.77537 0.70999 0.95519
 N3211 N 0.76973 0.71541 0.96467
 C3212 C 0.77251 0.72720 0.96779
 N3213 N 0.78119 0.73335 0.96118
 N3214 N 0.78684 0.72792 0.95174
 C3215 C 0.80522 0.19478 0.40571
 N3216 N 0.81441 0.20068 0.39957
 N3217 N 0.81922 0.19584 0.38936
 C3218 C 0.81499 0.18495 0.38490
 N3219 N 0.80579 0.17906 0.39102
 N3220 N 0.80100 0.18388 0.40125
 C3221 C 0.79987 0.20017 0.41691
 N3222 N 0.79114 0.19400 0.42344
 N3223 N 0.78619 0.19897 0.43352
 C3224 C 0.78978 0.21030 0.43744
 N3225 N 0.79852 0.21646 0.43092
 N3226 N 0.80350 0.21148 0.42086
 C3227 C 0.78400 0.21601 0.44827
 N3228 N 0.78677 0.22780 0.45143
 N3229 N 0.78109 0.23323 0.46086
 C3230 C 0.77248 0.22704 0.46752
 N3231 N 0.76979 0.21521 0.46446
 N3232 N 0.77546 0.20979 0.45501
 C3233 C 0.69536 0.30464 0.40534
 N3234 N 0.68611 0.29880 0.39926
 N3235 N 0.68140 0.30358 0.38898
 C3236 C 0.68581 0.31435 0.38438
 N3237 N 0.69508 0.32018 0.39043
 N3238 N 0.69977 0.31542 0.40073
 C3239 C 0.70057 0.29934 0.41665
 N3240 N 0.70931 0.30551 0.42315
 N3241 N 0.71414 0.30060 0.43332
 C3242 C 0.71041 0.28935 0.43735
 N3243 N 0.70166 0.28320 0.43085
 N3244 N 0.69680 0.28812 0.42071
 C3245 C 0.71610 0.28368 0.44825
 N3246 N 0.71323 0.27194 0.45149
 N3247 N 0.71887 0.26652 0.46096
 C3248 C 0.72752 0.27268 0.46757
 N3249 N 0.73030 0.28447 0.46444
 N3250 N 0.72468 0.28988 0.45494
 C3251 C 0.69530 0.80484 0.90559
 N3252 N 0.68605 0.79899 0.89952
 N3253 N 0.68133 0.80375 0.88923
 C3254 C 0.68573 0.81452 0.88461
 N3255 N 0.69501 0.82036 0.89066
 N3256 N 0.69970 0.81561 0.90096
 C3257 C 0.70052 0.79955 0.91690
 N3258 N 0.70925 0.80572 0.92340
 N3259 N 0.71410 0.80082 0.93357
 C3260 C 0.71040 0.78956 0.93759
 N3261 N 0.70164 0.78340 0.93110
 N3262 N 0.69677 0.78832 0.92096
 C3263 C 0.71612 0.78388 0.94848
 N3264 N 0.71330 0.77212 0.95170
 N3265 N 0.71896 0.76670 0.96115
 C3266 C 0.72759 0.77288 0.96777
 N3267 N 0.73033 0.78468 0.96466
 N3268 N 0.72469 0.79009 0.95517
 C3269 C 0.19513 0.30459 0.90551
 N3270 N 0.18587 0.29875 0.89944
 N3271 N 0.18115 0.30352 0.88917
 C3272 C 0.18555 0.31429 0.88455
 N3273 N 0.19482 0.32013 0.89060
 N3274 N 0.19952 0.31537 0.90090
 C3275 C 0.20034 0.29930 0.91682
 N3276 N 0.20908 0.30548 0.92332
 N3277 N 0.21393 0.30058 0.93348
 C3278 C 0.21024 0.28932 0.93751
 N3279 N 0.20148 0.28316 0.93103
 N3280 N 0.19660 0.28807 0.92089
 C3281 C 0.21596 0.28366 0.94840
 N3282 N 0.21314 0.27190 0.95163
 N3283 N 0.21882 0.26649 0.96107
 C3284 C 0.22747 0.27266 0.96767
 N3285 N 0.23020 0.28447 0.96455
 N3286 N 0.22454 0.28987 0.95508
 C3287 C 0.19520 0.80475 0.40537
 N3288 N 0.18598 0.79887 0.39926
 N3289 N 0.18126 0.80366 0.38899
 C3290 C 0.18562 0.81446 0.38441
 N3291 N 0.19487 0.82031 0.39049
 N3292 N 0.19956 0.81555 0.40079
 C3293 C 0.20043 0.79943 0.41667
 N3294 N 0.20907 0.80567 0.42325
 N3295 N 0.21392 0.80076 0.43341
 C3296 C 0.21033 0.78943 0.43736
 N3297 N 0.20167 0.78322 0.43079
 N3298 N 0.19679 0.78814 0.42065
 C3299 C 0.21605 0.78378 0.44825
 N3300 N 0.21347 0.77192 0.45133
 N3301 N 0.21915 0.76654 0.46079
 C3302 C 0.22755 0.77286 0.46758
 N3303 N 0.23005 0.78475 0.46460
 N3304 N 0.22440 0.79012 0.45510
 C3305 C 0.69515 0.69533 0.59422
 N3306 N 0.69937 0.68440 0.59865
 N3307 N 0.69460 0.67957 0.60889
 C3308 C 0.68542 0.68547 0.61504
 N3309 N 0.68119 0.69638 0.61059
 N3310 N 0.68598 0.70124 0.60038
 C3311 C 0.70043 0.70070 0.58296
 N3312 N 0.69680 0.71202 0.57903
 N3313 N 0.70169 0.71698 0.56891
 C3314 C 0.71034 0.71077 0.56232
 N3315 N 0.71394 0.69942 0.56622
 N3316 N 0.70907 0.69448 0.57636
 C3317 C 0.71604 0.71645 0.55143
 N3318 N 0.72451 0.71019 0.54463
 N3319 N 0.73014 0.71560 0.53514
 C3320 C 0.72750 0.72746 0.53212
 N3321 N 0.71895 0.73368 0.53884
 N3322 N 0.71330 0.72826 0.54829
 C3323 C 0.69531 0.19526 0.09404
 N3324 N 0.69955 0.18433 0.09847
 N3325 N 0.69479 0.17948 0.10869
 C3326 C 0.68560 0.18536 0.11485
 N3327 N 0.68135 0.19628 0.11042
 N3328 N 0.68614 0.20115 0.10021
 C3329 C 0.70058 0.20064 0.08280
 N3330 N 0.69692 0.21195 0.07887
 N3331 N 0.70179 0.21690 0.06874
 C3332 C 0.71044 0.21071 0.06214
 N3333 N 0.71407 0.19938 0.06605
 N3334 N 0.70923 0.19443 0.07620
 C3335 C 0.71612 0.21639 0.05124
 N3336 N 0.72461 0.21015 0.04446
 N3337 N 0.73023 0.21556 0.03497
 C3338 C 0.72754 0.22740 0.03193
 N3339 N 0.71897 0.23361 0.03863
 N3340 N 0.71333 0.22818 0.04809
 C3341 C 0.19514 0.69550 0.09422
 N3342 N 0.19947 0.68466 0.09875
 N3343 N 0.19473 0.67986 0.10901
 C3344 C 0.18547 0.68571 0.11510
 N3345 N 0.18114 0.69655 0.11056
 N3346 N 0.18591 0.70137 0.10033
 C3347 C 0.20041 0.70085 0.08294
 N3348 N 0.19680 0.71217 0.07900
 N3349 N 0.20170 0.71710 0.06887
 C3350 C 0.21034 0.71087 0.06228
 N3351 N 0.21391 0.69952 0.06620
 N3352 N 0.20904 0.69460 0.07635
 C3353 C 0.21608 0.71653 0.05139
 N3354 N 0.22440 0.71016 0.04451
 N3355 N 0.23006 0.71552 0.03502
 C3356 C 0.22760 0.72743 0.03207
 N3357 N 0.21922 0.73377 0.03888
 N3358 N 0.21353 0.72840 0.04834
 C3359 C 0.19561 0.19494 0.59444
 N3360 N 0.20147 0.18575 0.60062
 N3361 N 0.19661 0.18103 0.61085
 C3362 C 0.18573 0.18536 0.61532
 N3363 N 0.17988 0.19457 0.60917
 N3364 N 0.18473 0.19927 0.59890
 C3365 C 0.20103 0.20013 0.58317
 N3366 N 0.19486 0.20875 0.57649
 N3367 N 0.19989 0.21354 0.56635
 C3368 C 0.21126 0.20989 0.56254
 N3369 N 0.21740 0.20125 0.56920
 N3370 N 0.21237 0.19644 0.57931
 C3371 C 0.21704 0.21548 0.55164
 N3372 N 0.22887 0.21265 0.54860
 N3373 N 0.23437 0.21812 0.53909
 C3374 C 0.22820 0.22656 0.53220
 N3375 N 0.21635 0.22935 0.53517
 N3376 N 0.21086 0.22389 0.54471
   
