data_POSCAR
  _audit_creation_date              2014-09-24
  _audit_creation_method            'ToBaCCo'
  _symmetry_space_group_name_H-M    'P1'
  _symmetry_Int_Tables_number       1
  _symmetry_cell_setting            triclinic
  loop_
  _symmetry_equiv_pos_as_xyz
 x,y,z
_cell_length_a 54.6291
_cell_length_b 54.5389
_cell_length_c 54.5332
_cell_angle_alpha 90.080900
_cell_angle_beta 90.117400
_cell_angle_gamma 90.090700
loop_
  _atom_site_label
  _atom_site_type_symbol
  _atom_site_fract_x
  _atom_site_fract_y
  _atom_site_fract_z
C1 C 0.30387 0.44510 0.91583
 N2 N 0.29428 0.42509 0.92688
 C3 C 0.30478 0.41536 0.94720
 N4 N 0.32552 0.42578 0.95642
 C5 C 0.33534 0.44606 0.94558
 N6 N 0.32443 0.45547 0.92521
 C7 C 0.44620 0.83630 0.44544
 N8 N 0.45614 0.82682 0.42456
 C9 C 0.44650 0.80625 0.41419
 N10 N 0.42677 0.79544 0.42469
 C11 C 0.41667 0.80465 0.44538
 N12 N 0.42635 0.82516 0.45557
 C13 C 0.94365 0.91453 0.80571
 N14 N 0.92297 0.92472 0.79628
 C15 C 0.91307 0.94502 0.80690
 N16 N 0.92387 0.95488 0.82715
 C17 C 0.94449 0.94484 0.83671
 N18 N 0.95411 0.92466 0.82589
 C19 C 0.44448 -0.08622 0.30381
 N20 N 0.42351 -0.07649 0.29445
 C21 C 0.41345 -0.05609 0.30477
 N22 N 0.42436 -0.04570 0.32470
 C23 C 0.44524 -0.05525 0.33414
 N24 N 0.45502 -0.07548 0.32366
 C25 C 0.80553 0.30528 0.33519
 N26 N 0.82578 0.29528 0.32471
 C27 C 0.83584 0.30544 0.30441
 N28 N 0.82563 0.32587 0.29473
 C29 C 0.80549 0.33618 0.30489
 N30 N 0.79551 0.32590 0.32530
 C31 C -0.19310 0.83652 0.80529
 N32 N -0.20323 0.82697 0.82583
 C33 C -0.19329 0.80696 0.83688
 N34 N -0.17276 0.79659 0.82717
 C35 C -0.16249 0.80607 0.80652
 N36 N -0.17275 0.82603 0.79587
 C37 C 0.94406 0.33722 0.44413
 N38 N 0.92425 0.32660 0.45475
 C39 C 0.91389 0.30613 0.44521
 N40 N 0.92338 0.29623 0.42451
 C41 C 0.94323 0.30646 0.41353
 N42 N 0.95350 0.32707 0.42335
 C43 C 0.44518 0.44461 0.83618
 N44 N 0.42429 0.45443 0.82697
 C45 C 0.41305 0.44421 0.80714
 N46 N 0.42272 0.42370 0.79668
 C47 C 0.44362 0.41372 0.80584
 N48 N 0.45454 0.42425 0.82554
 C49 C 0.80837 0.91248 0.94403
 N50 N 0.79731 0.92178 0.92372
 C51 C 0.80633 0.94213 0.91255
 N52 N 0.82671 0.95311 0.92176
 C53 C 0.83799 0.94407 0.94207
 N54 N 0.82874 0.92370 0.95302
 C55 C 0.30579 0.83622 0.30457
 N56 N 0.32631 0.82599 0.29508
 C57 C 0.33671 0.80595 0.30546
 N58 N 0.32645 0.79608 0.32590
 C59 C 0.30580 0.80607 0.33563
 N60 N 0.29569 0.82621 0.32496
 C61 C 0.80497 0.41486 0.44530
 N62 N 0.82588 0.42487 0.45451
 C63 C 0.83607 0.44487 0.44360
 N64 N 0.82542 0.45449 0.42322
 C65 C 0.80466 0.44451 0.41385
 N66 N 0.79466 0.42471 0.42494
 C67 C 0.94371 0.83777 -0.05694
 N68 N 0.95434 0.82790 -0.07730
 C69 C 0.94501 0.80714 -0.08768
 N70 N 0.92485 0.79663 -0.07765
 C71 C 0.91407 0.80619 -0.05749
 N72 N 0.92353 0.82680 -0.04725
 C73 C 0.30546 0.33543 0.80689
 N74 N 0.29561 0.32514 0.82734
 C75 C 0.30576 0.30457 0.83721
 N76 N 0.32598 0.29462 0.82665
 C77 C 0.33590 0.30479 0.80629
 N78 N 0.32558 0.32517 0.79664
 C79 C 0.16559 0.55512 0.55447
 N80 N 0.17544 0.54463 0.57486
 C81 C 0.19592 0.55428 0.58533
 N82 N 0.20615 0.57470 0.57549
 C83 C 0.19646 0.58541 0.55530
 N84 N 0.17611 0.57560 0.54492
 C85 C 0.58567 0.69625 0.05343
 N86 N 0.57634 0.67522 0.04390
 C87 C 0.55630 0.66445 0.05407
 N88 N 0.54577 0.67477 0.07421
 C89 C 0.55501 0.69586 0.08386
 N90 N 0.57496 0.70632 0.07342
 C91 C 0.69361 0.19525 0.66464
 N92 N 0.67368 0.20533 0.67565
 C93 C 0.66452 0.19556 0.69658
 N94 N 0.67528 0.17546 0.70631
 C95 C 0.69511 0.16509 0.69564
 N96 N 0.70420 0.17497 0.67464
 C97 C 1.08435 0.05307 0.19548
 N98 N 1.07425 0.04285 0.17496
 C99 C 1.05345 0.05239 0.16499
 N100 N 1.04318 0.07243 0.17552
 C101 C 1.05300 0.08289 0.19580
 N102 N 1.07366 0.07323 0.20562
 C103 C 0.05396 0.16450 1.05498
 N104 N 0.04441 0.17473 1.07566
 C105 C 0.05496 0.19504 1.08584
 N106 N 0.07543 0.20468 1.07538
 C107 C 0.08518 0.19452 1.05493
 N108 N 0.07439 0.17448 1.04498
 C109 C 0.16645 0.69651 0.69607
 N110 N 0.17685 0.70588 0.67559
 C111 C 0.19673 0.69516 0.66528
 N112 N 0.20618 0.67453 0.67558
 C113 C 0.19594 0.66496 0.69622
 N114 N 0.17598 0.67595 0.70622
 C115 C 1.19562 0.16398 0.19466
 N116 N 1.17541 0.17335 0.20564
 C117 C 1.16432 0.19365 0.19653
 N118 N 1.17341 0.20440 0.17603
 C119 C 1.19360 0.19522 0.16476
 N120 N 1.20455 0.17491 0.17415
 C121 C 0.66210 1.05705 0.55601
 N122 N 0.67210 1.07764 0.54588
 C123 C 0.69302 1.08752 0.55539
 N124 N 0.70364 1.07666 0.57508
 C125 C 0.69400 1.05626 0.58531
 N126 N 0.67316 1.04662 0.57580
 C127 C 0.55408 0.55488 0.16448
 N128 N 0.57454 0.54483 0.17430
 C129 C 0.58504 0.55471 0.19469
 N130 N 0.57504 0.57508 0.20508
 C131 C 0.55442 0.58517 0.19541
 N132 N 0.54424 0.57503 0.17509
 C133 C 0.66649 0.69725 0.19579
 N134 N 0.67679 0.67718 0.20622
 C135 C 0.69703 0.66668 0.19651
 N136 N 0.70697 0.67632 0.17590
 C137 C 0.69697 0.69646 0.16516
 N138 N 0.67654 0.70677 0.17506
 C139 C 0.16426 0.05368 1.05412
 N140 N 0.17479 0.04292 1.07392
 C141 C 0.19492 0.05263 1.08477
 N142 N 0.20451 0.07370 1.07573
 C143 C 0.19432 0.08484 1.05590
 N144 N 0.17404 0.07485 1.04522
 C145 C 0.58510 0.19596 0.55420
 N146 N 0.57538 0.20622 0.57464
 C147 C 0.55508 0.19641 0.58522
 N148 N 0.54470 0.17591 0.57535
 C149 C 0.55434 0.16558 0.55483
 N150 N 0.57452 0.17569 0.54455
 C151 C 0.08348 0.55302 0.69647
 N152 N 0.07294 0.54333 0.67616
 C153 C 0.05304 0.55391 0.66571
 N154 N 0.04373 0.57478 0.67568
 C155 C 0.05405 0.58465 0.69621
 N156 N 0.07404 0.57378 0.70635
 C157 C 0.66437 0.55467 0.05498
 N158 N 0.67549 0.54531 0.07520
 C159 C 0.69615 0.55581 0.08432
 N160 N 0.70554 0.57600 0.07319
 C161 C 0.69462 0.58551 0.05295
 N162 N 0.67396 0.57483 0.04401
 C163 C 0.05623 0.69629 0.58475
 N164 N 0.04562 0.67632 0.57432
 C165 C 0.05547 0.66552 0.55426
 N166 N 0.07641 0.67476 0.54465
 C167 C 0.08734 0.69479 0.55481
 N168 N 0.07726 0.70542 0.57501
 C169 C 0.55363 1.05485 0.66301
 N170 N 0.54383 1.07485 0.67399
 C171 C 0.55391 1.08459 0.69455
 N172 N 0.57443 1.07424 0.70416
 C173 C 0.58445 1.05403 0.69345
 N174 N 0.57403 1.04456 0.67282
 C175 C 0.44523 0.33476 0.94674
 N176 N 0.45436 0.32497 0.92566
 C177 C 0.44388 0.30462 0.91556
 N178 N 0.42401 0.29434 0.92652
 C179 C 0.41481 0.30395 0.94750
 N180 N 0.42544 0.32414 0.95733
 C181 C 0.94467 0.44325 0.33693
 N182 N 0.92417 0.45343 0.32730
 C183 C 0.91327 0.44359 0.30711
 N184 N 0.92298 0.42312 0.29659
 C185 C 0.94357 0.41277 0.30610
 N186 N 0.95411 0.42293 0.32624
 C187 C 0.30485 0.94414 0.41334
 N188 N 0.29566 0.92399 0.42469
 C189 C 0.30635 0.91514 0.44536
 N190 N 0.32657 0.92647 0.45451
 C191 C 0.33596 0.94667 0.44337
 N192 N 0.32505 0.95531 0.42270
 O193 O 0.24695 0.56420 0.71943
 O194 O 0.28925 0.55699 0.72422
 O195 O 0.21803 0.50081 0.68558
 O196 O 0.21955 0.45984 0.69185
 O197 O 0.18358 0.53013 0.74869
 O198 O 0.19157 0.52738 0.79193
 O199 O 0.28180 0.43565 0.75330
 O200 O 0.27738 0.44230 0.71095
 O201 O 0.31216 0.49731 0.78429
 O202 O 0.30347 0.54185 0.78235
 O203 O 0.25033 0.46690 0.81494
 O204 O 0.20596 0.46828 0.80564
 O205 O 0.25209 0.43502 0.78252
 O206 O 0.20665 0.44273 0.77850
 O207 O 0.27960 0.49657 0.81583
 O208 O 0.27595 0.54193 0.80738
 O209 O 0.31279 0.46740 0.75520
 O210 O 0.30599 0.47603 0.71056
 O211 O 0.21759 0.56388 0.74912
 O212 O 0.21920 0.55473 0.79290
 O213 O 0.18417 0.50043 0.71932
 O214 O 0.19427 0.45614 0.72300
 O215 O 0.24730 0.53057 0.68646
 O216 O 0.29154 0.52533 0.69648
 Zr217 Zr 0.26244 0.52898 0.72194
 O218 O 0.28580 0.50778 0.74412
 Zr219 Zr 0.21962 0.48547 0.72098
 O220 O 0.24148 0.46212 0.74257
 Zr221 Zr 0.21875 0.52840 0.76442
 O222 O 0.24001 0.50674 0.78823
 Zr223 Zr 0.27863 0.47055 0.73759
 O224 O 0.25694 0.49167 0.71334
 Zr225 Zr 0.27725 0.51325 0.78120
 O226 O 0.25592 0.53692 0.75920
 Zr227 Zr 0.23478 0.46945 0.77978
 O228 O 0.21089 0.49109 0.75817
 O229 O 0.22545 0.52242 0.72754
 O230 O 0.27186 0.47611 0.77469
 C231 C 0.22940 0.57426 0.73152
 C232 C 0.23000 0.51860 0.67576
 C233 C 0.17366 0.51793 0.73108
 C234 C 0.27026 0.42538 0.77108
 C235 C 0.32243 0.47928 0.77315
 C236 C 0.26797 0.47850 0.82541
 H237 H 0.30307 0.51180 0.74047
 H238 H 0.23567 0.51046 0.80542
 H239 H 0.21502 0.53281 0.71701
 H240 H 0.23816 0.44480 0.73832
 H241 H 0.27240 0.45013 0.69535
 H242 H 0.23076 0.44644 0.69658
 H243 H 0.26223 0.53852 0.81868
 H244 H 0.23514 0.56332 0.79181
 H245 H 0.31762 0.46212 0.71155
 H246 H 0.29003 0.53850 0.68404
 H247 H 0.20726 0.48311 0.81603
 H248 H 0.18388 0.51097 0.79090
 H249 H 0.28796 0.56421 0.74082
 H250 H 0.31396 0.54028 0.76767
 H251 H 0.18453 0.45870 0.73807
 H252 H 0.21033 0.43130 0.76490
 O253 O 0.18443 0.03052 0.24690
 O254 O 0.19204 0.02734 0.28909
 O255 O 0.24847 0.06310 0.21721
 O256 O 0.28896 0.05585 0.21705
 O257 O 0.21765 -0.00058 0.18360
 O258 O 0.21890 -0.04342 0.19245
 O259 O 0.31260 -0.00361 0.28166
 O260 O 0.30625 0.03844 0.27673
 O261 O 0.25072 -0.03385 0.31267
 O262 O 0.20676 -0.03212 0.30433
 O263 O 0.28074 -0.06573 0.25090
 O264 O 0.27974 -0.05802 0.20724
 O265 O 0.31278 -0.03339 0.25235
 O266 O 0.30400 -0.02961 0.20605
 O267 O 0.25166 -0.06592 0.28064
 O268 O 0.20578 -0.05694 0.27622
 O269 O 0.28093 -0.00511 0.31272
 O270 O 0.27270 0.03964 0.30529
 O271 O 0.18386 0.00086 0.21738
 O272 O 0.19241 -0.04336 0.22086
 O273 O 0.24699 0.02911 0.18345
 O274 O 0.29171 0.02394 0.19333
 O275 O 0.21824 0.06340 0.24591
 O276 O 0.22431 0.05422 0.29063
 Zr277 Zr 0.21974 0.02821 0.26200
 O278 O 0.24066 0.00602 0.28564
 Zr279 Zr 0.26269 0.02741 0.21877
 O280 O 0.28597 0.00629 0.24111
 Zr281 Zr 0.21907 -0.01528 0.21913
 O282 O 0.24094 -0.03892 0.24045
 Zr283 Zr 0.27783 0.01207 0.27829
 O284 O 0.25704 0.03610 0.25605
 Zr285 Zr 0.23485 -0.03124 0.27767
 O286 O 0.21121 -0.00912 0.25634
 Zr287 Zr 0.27823 -0.03090 0.23497
 O288 O 0.25636 -0.00983 0.21078
 O289 O 0.22576 0.02164 0.22504
 O290 O 0.27193 -0.02509 0.27205
 C291 C 0.17392 0.01866 0.22937
 C292 C 0.23070 0.07347 0.22860
 C293 C 0.22947 0.01698 0.17328
 C294 C 0.32268 -0.02162 0.27033
 C295 C 0.26894 -0.02277 0.32268
 C296 C 0.26954 -0.07578 0.26895
 H297 H 0.23678 0.01000 0.30290
 H298 H 0.23708 -0.05616 0.23637
 H299 H 0.21543 0.03214 0.21450
 H300 H 0.30327 0.01034 0.23763
 H301 H 0.29859 0.05400 0.27139
 H302 H 0.30144 0.05222 0.22968
 H303 H 0.20982 -0.06936 0.26363
 H304 H 0.18351 -0.04105 0.23648
 H305 H 0.28652 0.03860 0.31705
 H306 H 0.21161 0.06707 0.28881
 H307 H 0.26392 -0.06685 0.20732
 H308 H 0.23534 -0.04329 0.18485
 H309 H 0.18493 0.01064 0.28870
 H310 H 0.20780 -0.01673 0.31389
 H311 H 0.28794 0.00951 0.18294
 H312 H 0.31664 -0.01733 0.21040
 O313 O 0.56542 0.71952 0.24776
 O314 O 0.55754 0.72313 0.29017
 O315 O 0.50182 0.68585 0.21842
 O316 O 0.46106 0.69275 0.21796
 O317 O 0.53180 0.74938 0.18415
 O318 O 0.52985 0.79256 0.19287
 O319 O 0.43678 0.75297 0.28208
 O320 O 0.44313 0.71088 0.27661
 O321 O 0.49833 0.78365 0.31310
 O322 O 0.54247 0.78152 0.30511
 O323 O 0.46808 0.81492 0.25119
 O324 O 0.47009 0.80687 0.20722
 O325 O 0.43678 0.78208 0.25219
 O326 O 0.44549 0.77876 0.20614
 O327 O 0.49787 0.81522 0.28035
 O328 O 0.54353 0.80634 0.27734
 O329 O 0.46876 0.75426 0.31291
 O330 O 0.47668 0.70954 0.30539
 O331 O 0.56562 0.74893 0.21807
 O332 O 0.55686 0.79273 0.22089
 O333 O 0.50276 0.71940 0.18409
 O334 O 0.45829 0.72420 0.19348
 O335 O 0.53222 0.68614 0.24705
 O336 O 0.52582 0.69540 0.29136
 Zr337 Zr 0.53006 0.72141 0.26277
 O338 O 0.50875 0.74340 0.28619
 Zr339 Zr 0.48711 0.72143 0.21934
 O340 O 0.46365 0.74276 0.24127
 Zr341 Zr 0.53029 0.76453 0.21960
 O342 O 0.50850 0.78816 0.24092
 Zr343 Zr 0.47162 0.73718 0.27851
 O344 O 0.49279 0.71315 0.25666
 Zr345 Zr 0.51450 0.78059 0.27821
 O346 O 0.53828 0.75871 0.25688
 Zr347 Zr 0.47128 0.78000 0.23515
 O348 O 0.49310 0.75869 0.21116
 O349 O 0.52398 0.72760 0.22572
 O350 O 0.47745 0.77434 0.27230
 C351 C 0.57576 0.73140 0.23020
 C352 C 0.51975 0.67575 0.22990
 C353 C 0.52013 0.73160 0.17389
 C354 C 0.42681 0.77078 0.27032
 C355 C 0.48038 0.77212 0.32303
 C356 C 0.47979 0.82508 0.26895
 H357 H 0.51258 0.73949 0.30348
 H358 H 0.51233 0.80539 0.23685
 H359 H 0.53442 0.71710 0.21530
 H360 H 0.44637 0.73865 0.23767
 H361 H 0.45080 0.69529 0.27137
 H362 H 0.44798 0.69700 0.22970
 H363 H 0.54011 0.81816 0.26403
 H364 H 0.56540 0.79110 0.23683
 H365 H 0.46281 0.71055 0.31705
 H366 H 0.53902 0.68301 0.28995
 H367 H 0.48545 0.81646 0.20817
 H368 H 0.51347 0.79194 0.18509
 H369 H 0.56477 0.73976 0.28934
 H370 H 0.54104 0.76644 0.31507
 H371 H 0.46158 0.73899 0.18350
 H372 H 0.43333 0.76589 0.21000
 O373 O 0.00352 0.68609 0.71806
 O374 O -0.03880 0.69336 0.72216
 O375 O 0.03286 0.74962 0.68487
 O376 O 0.03126 0.79057 0.69133
 O377 O 0.06658 0.72008 0.74824
 O378 O 0.05820 0.72294 0.79142
 O379 O -0.03222 0.81476 0.75173
 O380 O -0.02681 0.80816 0.70963
 O381 O -0.06241 0.75294 0.78262
 O382 O -0.05394 0.70869 0.78035
 O383 O -0.00103 0.78401 0.81387
 O384 O 0.04304 0.78228 0.80580
 O385 O -0.00233 0.81516 0.78088
 O386 O 0.04361 0.80705 0.77791
 O387 O -0.02974 0.75382 0.81410
 O388 O -0.02622 0.70810 0.80534
 O389 O -0.06256 0.78247 0.75324
 O390 O -0.05524 0.77429 0.70848
 O391 O 0.03252 0.68638 0.74821
 O392 O 0.03056 0.69556 0.79199
 O393 O 0.06627 0.74983 0.71899
 O394 O 0.05623 0.79416 0.72289
 O395 O 0.00360 0.71984 0.68515
 O396 O -0.04077 0.72501 0.69452
 Zr397 Zr -0.01196 0.72136 0.72041
 O398 O -0.03555 0.74255 0.74231
 Zr399 Zr 0.03086 0.76488 0.72032
 O400 O 0.00878 0.78821 0.74167
 Zr401 Zr 0.03126 0.72187 0.76357
 O402 O 0.00973 0.74350 0.78716
 Zr403 Zr -0.02831 0.77979 0.73604
 O404 O -0.00635 0.75869 0.71205
 Zr405 Zr -0.02743 0.73704 0.77952
 O406 O -0.00587 0.71338 0.75774
 Zr407 Zr 0.01504 0.78080 0.77895
 O408 O 0.03919 0.75919 0.75762
 O409 O 0.02495 0.72791 0.72662
 O410 O -0.02196 0.77417 0.77322
 C411 C 0.02089 0.67599 0.73042
 C412 C 0.02102 0.73186 0.67478
 C413 C 0.07664 0.73224 0.73075
 C414 C -0.02054 0.82493 0.76954
 C415 C -0.07247 0.77088 0.77116
 C416 C -0.01865 0.77214 0.82397
 H417 H -0.05279 0.73853 0.73840
 H418 H 0.01385 0.73978 0.80440
 H419 H 0.03546 0.71749 0.71619
 H420 H 0.01216 0.80553 0.73754
 H421 H -0.02157 0.80042 0.69407
 H422 H 0.02004 0.80399 0.69598
 H423 H -0.01301 0.71177 0.81722
 H424 H 0.01466 0.68694 0.79064
 H425 H -0.06702 0.78807 0.70948
 H426 H -0.03909 0.71187 0.68203
 H427 H 0.04217 0.76699 0.81548
 H428 H 0.06585 0.73938 0.79056
 H429 H -0.03780 0.68621 0.73881
 H430 H -0.06398 0.71004 0.76531
 H431 H 0.06601 0.79140 0.73793
 H432 H 0.03978 0.81894 0.76478
 O433 O 0.00167 0.06519 0.03231
 O434 O -0.04048 0.05792 0.02771
 O435 O 0.03109 0.00140 0.06487
 O436 O 0.03005 -0.03930 0.05800
 O437 O 0.06488 0.03214 0.00190
 O438 O 0.05683 0.02962 -0.04109
 O439 O -0.03340 -0.06317 -0.00296
 O440 O -0.02891 -0.05671 0.03931
 O441 O -0.06371 -0.00119 -0.03357
 O442 O -0.05519 0.04301 -0.03133
 O443 O -0.00196 -0.03146 -0.06451
 O444 O 0.04191 -0.03045 -0.05585
 O445 O -0.00382 -0.06353 -0.03232
 O446 O 0.04209 -0.05533 -0.02805
 O447 O -0.03139 -0.00204 -0.06505
 O448 O -0.02713 0.04370 -0.05600
 O449 O -0.06422 -0.03139 -0.00487
 O450 O -0.05737 -0.02302 0.04003
 O451 O 0.03055 0.06536 0.00217
 O452 O 0.02872 0.05638 -0.04196
 O453 O 0.06463 0.00194 0.03067
 O454 O 0.05437 -0.04272 0.02652
 O455 O 0.00174 0.03101 0.06472
 O456 O -0.04271 0.02574 0.05475
 Zr457 Zr -0.01372 0.02992 0.02927
 O458 O -0.03719 0.00894 0.00681
 Zr459 Zr 0.02920 -0.01337 0.02925
 O460 O 0.00708 -0.03664 0.00771
 Zr461 Zr 0.02963 0.03002 -0.01359
 O462 O 0.00841 0.00830 -0.03752
 Zr463 Zr -0.03007 -0.02832 0.01291
 O464 O -0.00810 -0.00745 0.03728
 Zr465 Zr -0.02879 0.01467 -0.03030
 O466 O -0.00751 0.03825 -0.00799
 Zr467 Zr 0.01364 -0.02905 -0.02942
 O468 O 0.03767 -0.00733 -0.00789
 O469 O 0.02324 0.02362 0.02327
 O470 O -0.02340 -0.02250 -0.02413
 C471 C 0.01897 0.07550 0.02009
 C472 C 0.01914 0.01894 0.07510
 C473 C 0.07501 0.01973 0.01917
 C474 C -0.02196 -0.07331 -0.02088
 C475 C -0.07388 -0.01945 -0.02274
 C476 C -0.01976 -0.02003 -0.07479
 H477 H -0.05445 0.01290 0.01053
 H478 H 0.01268 0.01212 -0.05469
 H479 H 0.03370 0.03396 0.03389
 H480 H 0.01040 -0.05397 0.01180
 H481 H -0.02380 -0.04900 0.05496
 H482 H 0.01785 -0.05206 0.05388
 H483 H -0.01418 0.03978 -0.06804
 H484 H 0.01300 0.06522 -0.04032
 H485 H -0.06913 -0.03683 0.03880
 H486 H -0.04105 0.03862 0.06752
 H487 H 0.04154 -0.01487 -0.06510
 H488 H 0.06446 0.01317 -0.04047
 H489 H -0.03954 0.06514 0.01109
 H490 H -0.06512 0.04181 -0.01624
 H491 H 0.06451 -0.03958 0.01183
 H492 H 0.03788 -0.06751 -0.01531
 O493 O 0.00163 0.56533 0.53079
 O494 O -0.04062 0.55738 0.52681
 O495 O 0.03077 0.50179 0.56436
 O496 O 0.03174 0.46105 0.55735
 O497 O 0.06522 0.53212 0.50085
 O498 O 0.05681 0.53002 0.45784
 O499 O -0.03200 0.43644 0.49692
 O500 O -0.02734 0.44304 0.53917
 O501 O -0.06315 0.49793 0.46645
 O502 O -0.05500 0.54221 0.46805
 O503 O -0.00124 0.46800 0.43520
 O504 O 0.04279 0.46969 0.44373
 O505 O -0.00256 0.43616 0.46743
 O506 O 0.04327 0.44489 0.47167
 O507 O -0.03098 0.49711 0.43463
 O508 O -0.02718 0.54290 0.44324
 O509 O -0.06332 0.46791 0.49535
 O510 O -0.05615 0.47646 0.54003
 O511 O 0.03130 0.56560 0.50142
 O512 O 0.02846 0.55663 0.45735
 O513 O 0.06527 0.50303 0.53075
 O514 O 0.05580 0.45823 0.52599
 O515 O 0.00219 0.53214 0.56398
 O516 O -0.04205 0.52549 0.55436
 Zr517 Zr -0.01333 0.52990 0.52859
 O518 O -0.03659 0.50849 0.50638
 Zr519 Zr 0.03008 0.48709 0.52873
 O520 O 0.00819 0.46342 0.50740
 Zr521 Zr 0.02992 0.53021 0.48564
 O522 O 0.00887 0.50810 0.46191
 Zr523 Zr -0.02902 0.47135 0.51270
 O524 O -0.00724 0.49263 0.53685
 Zr525 Zr -0.02836 0.51410 0.46922
 O526 O -0.00729 0.53808 0.49130
 Zr527 Zr 0.01453 0.47085 0.47019
 O528 O 0.03837 0.49299 0.49152
 O529 O 0.02368 0.52395 0.52256
 O530 O -0.02256 0.47703 0.47559
 C531 C 0.01923 0.57568 0.51903
 C532 C 0.01923 0.51970 0.57446
 C533 C 0.07544 0.52052 0.51863
 C534 C -0.02057 0.42629 0.47900
 C535 C -0.07320 0.47978 0.47757
 C536 C -0.01923 0.47915 0.42496
 H537 H -0.05387 0.51230 0.51017
 H538 H 0.01303 0.51186 0.44469
 H539 H 0.03404 0.53443 0.53315
 H540 H 0.01173 0.44615 0.51158
 H541 H -0.02225 0.45086 0.55477
 H542 H 0.01937 0.44835 0.55357
 H543 H -0.01407 0.53916 0.43133
 H544 H 0.01269 0.56534 0.45919
 H545 H -0.06772 0.46246 0.53903
 H546 H -0.04070 0.53868 0.56685
 H547 H 0.04185 0.48495 0.43401
 H548 H 0.06447 0.51359 0.45828
 H549 H -0.03967 0.56465 0.51022
 H550 H -0.06494 0.54096 0.48313
 H551 H 0.06593 0.46161 0.51134
 H552 H 0.03922 0.43275 0.48451
 O553 O 0.49896 -0.03128 0.43433
 O554 O 0.54119 -0.02791 0.44305
 O555 O 0.46803 -0.06366 0.49761
 O556 O 0.46663 -0.05625 0.53826
 O557 O 0.43533 0.00004 0.46587
 O558 O 0.44453 0.04305 0.46798
 O559 O 0.53111 0.00322 0.56366
 O560 O 0.52558 -0.03886 0.55730
 O561 O 0.56367 0.03323 0.50264
 O562 O 0.55676 0.03062 0.45829
 O563 O 0.50162 0.06534 0.53104
 O564 O 0.45790 0.05784 0.52832
 O565 O 0.50171 0.03276 0.56280
 O566 O 0.45584 0.02976 0.55288
 O567 O 0.53127 0.06503 0.50186
 O568 O 0.52915 0.05550 0.45610
 O569 O 0.56263 0.00425 0.53255
 O570 O 0.55499 -0.04056 0.52444
 O571 O 0.46981 -0.00139 0.43322
 O572 O 0.47323 0.04262 0.44167
 O573 O 0.43429 -0.02942 0.49540
 O574 O 0.44299 -0.02446 0.54034
 O575 O 0.49726 -0.06409 0.46789
 O576 O 0.54154 -0.05525 0.47516
 Zr577 Zr 0.51338 -0.02898 0.47003
 O578 O 0.53665 -0.00701 0.49171
 Zr579 Zr 0.46919 -0.02790 0.51199
 O580 O 0.49096 -0.00667 0.53585
 Zr581 Zr 0.47086 0.01470 0.46842
 O582 O 0.49197 0.03827 0.49062
 Zr583 Zr 0.52823 -0.01273 0.52876
 O584 O 0.50646 -0.03671 0.50727
 Zr585 Zr 0.52920 0.03021 0.48552
 O586 O 0.50814 0.00831 0.46136
 Zr587 Zr 0.48539 0.03054 0.52782
 O588 O 0.46159 0.00937 0.50551
 O589 O 0.47638 -0.02223 0.47520
 O590 O 0.52252 0.02442 0.52253
 C591 C 0.48171 -0.01934 0.42357
 C592 C 0.47975 -0.07412 0.48004
 C593 C 0.42464 -0.01741 0.47753
 C594 C 0.51939 0.02123 0.57329
 C595 C 0.57309 0.02195 0.52105
 C596 C 0.51962 0.07520 0.51959
 H597 H 0.55395 -0.01112 0.48833
 H598 H 0.48817 0.05550 0.48656
 H599 H 0.46603 -0.03275 0.46464
 H600 H 0.48698 -0.01061 0.55308
 H601 H 0.52039 -0.05446 0.54954
 H602 H 0.47876 -0.05248 0.55121
 H603 H 0.51597 0.06754 0.45912
 H604 H 0.48911 0.04040 0.43325
 H605 H 0.56638 -0.03949 0.53858
 H606 H 0.54019 -0.06780 0.46204
 H607 H 0.45889 0.06689 0.51265
 H608 H 0.43631 0.04261 0.48414
 H609 H 0.54075 -0.01132 0.43573
 H610 H 0.56635 0.01535 0.45994
 H611 H 0.43305 -0.00978 0.53656
 H612 H 0.45941 0.01711 0.56536
 O613 O 0.43563 0.49845 -0.03326
 O614 O 0.44425 0.54096 -0.02978
 O615 O 0.49910 0.46771 -0.06507
 O616 O 0.53988 0.46747 -0.05749
 O617 O 0.46786 0.43490 -0.00169
 O618 O 0.46920 0.44447 0.04156
 O619 O 0.56442 0.53109 0.00256
 O620 O 0.55861 0.52520 -0.03976
 O621 O 0.50325 0.56396 0.03119
 O622 O 0.45848 0.55655 0.02777
 O623 O 0.53101 0.50227 0.06424
 O624 O 0.52800 0.45763 0.05646
 O625 O 0.56329 0.50182 0.03229
 O626 O 0.55404 0.45648 0.02997
 O627 O 0.50176 0.53187 0.06343
 O628 O 0.45675 0.52988 0.05365
 O629 O 0.53337 0.56275 0.00250
 O630 O 0.52589 0.55474 -0.04212
 O631 O 0.43452 0.46931 -0.00331
 O632 O 0.44238 0.47244 0.04043
 O633 O 0.49735 0.43403 -0.03112
 O634 O 0.54159 0.44273 -0.02568
 O635 O 0.46937 0.49695 -0.06574
 O636 O 0.47632 0.54121 -0.05713
 Zr637 Zr 0.47122 0.51313 -0.03072
 O638 O 0.49272 0.53659 -0.00879
 Zr639 Zr 0.51343 0.46911 -0.02927
 O640 O 0.53689 0.49090 -0.00764
 Zr641 Zr 0.46958 0.47060 0.01298
 O642 O 0.49120 0.49211 0.03672
 Zr643 Zr 0.52981 0.52814 -0.01402
 O644 O 0.50852 0.50637 -0.03815
 Zr645 Zr 0.48611 0.52938 0.02837
 O646 O 0.46232 0.50790 0.00648
 Zr647 Zr 0.52842 0.48556 0.02954
 O648 O 0.50669 0.46157 0.00799
 O649 O 0.47658 0.47609 -0.02389
 O650 O 0.52314 0.52270 0.02310
 C651 C 0.42486 0.48119 -0.02128
 C652 C 0.48153 0.47938 -0.07561
 C653 C 0.47968 0.42421 -0.01906
 C654 C 0.57383 0.51948 0.02079
 C655 C 0.52169 0.57335 0.01995
 C656 C 0.51938 0.52032 0.07387
 H657 H 0.48937 0.55387 -0.01309
 H658 H 0.48692 0.48841 0.05392
 H659 H 0.46615 0.46561 -0.03440
 H660 H 0.55416 0.48694 -0.01127
 H661 H 0.55104 0.51990 -0.05541
 H662 H 0.55362 0.47819 -0.05250
 H663 H 0.45899 0.51598 0.06506
 H664 H 0.43444 0.48865 0.03871
 H665 H 0.54010 0.56603 -0.04111
 H666 H 0.46315 0.53987 -0.06963
 H667 H 0.51317 0.45992 0.06657
 H668 H 0.48537 0.43629 0.04124
 H669 H 0.43658 0.54025 -0.01337
 H670 H 0.46109 0.56683 0.01308
 H671 H 0.53823 0.43346 -0.01046
 H672 H 0.56568 0.45914 0.01636
 O673 O 0.78174 0.31509 0.49889
 O674 O 0.77677 0.30746 0.54130
 O675 O 0.81507 0.25188 0.46965
 O676 O 0.80859 0.21081 0.47090
 O677 O 0.75247 0.28170 0.43501
 O678 O 0.70920 0.27874 0.44269
 O679 O 0.74686 0.18640 0.53269
 O680 O 0.78924 0.19283 0.52853
 O681 O 0.71654 0.24804 0.56346
 O682 O 0.71889 0.29267 0.55498
 O683 O 0.68573 0.21823 0.50119
 O684 O 0.69518 0.21997 0.45660
 O685 O 0.71770 0.18611 0.50279
 O686 O 0.72176 0.19394 0.45754
 O687 O 0.68506 0.24768 0.53074
 O688 O 0.69380 0.29296 0.52741
 O689 O 0.74534 0.21799 0.56405
 O690 O 0.78997 0.22633 0.55741
 O691 O 0.75194 0.31498 0.46952
 O692 O 0.70824 0.30592 0.47046
 O693 O 0.78160 0.25190 0.43556
 O694 O 0.77752 0.20749 0.44524
 O695 O 0.81437 0.28159 0.49904
 O696 O 0.80449 0.27571 0.54324
 Zr697 Zr 0.77899 0.27976 0.51414
 O698 O 0.75671 0.25846 0.53728
 Zr699 Zr 0.77968 0.23655 0.47094
 O700 O 0.75793 0.21313 0.49256
 Zr701 Zr 0.73657 0.27956 0.47013
 O702 O 0.71265 0.25791 0.49122
 Zr703 Zr 0.76291 0.22123 0.52988
 O704 O 0.78730 0.24243 0.50841
 Zr705 Zr 0.71974 0.26417 0.52860
 O706 O 0.74184 0.28787 0.50744
 Zr707 Zr 0.72083 0.22065 0.48575
 O708 O 0.74260 0.24230 0.46203
 O709 O 0.77332 0.27345 0.47702
 O710 O 0.72594 0.22703 0.52296
 C711 C 0.76962 0.32525 0.48137
 C712 C 0.82491 0.26973 0.48161
 C713 C 0.77007 0.26960 0.42509
 C714 C 0.72902 0.17628 0.52099
 C715 C 0.72753 0.22992 0.57372
 C716 C 0.67538 0.22975 0.51892
 H717 H 0.76038 0.26234 0.55463
 H718 H 0.69553 0.26176 0.48682
 H719 H 0.78388 0.28393 0.46670
 H720 H 0.76203 0.19581 0.48914
 H721 H 0.80488 0.20058 0.52360
 H722 H 0.80365 0.19725 0.48185
 H723 H 0.68251 0.28970 0.51357
 H724 H 0.70921 0.31432 0.48653
 H725 H 0.78886 0.21234 0.56896
 H726 H 0.81686 0.28899 0.54198
 H727 H 0.68468 0.23464 0.45819
 H728 H 0.71028 0.26242 0.43479
 H729 H 0.76034 0.31494 0.53977
 H730 H 0.73342 0.29084 0.56565
 H731 H 0.76246 0.21016 0.43548
 H732 H 0.73556 0.18273 0.46096
 O733 O 0.68522 0.71988 0.00072
 O734 O 0.69253 0.72498 -0.04171
 O735 O 0.74778 0.68480 0.02907
 O736 O 0.78880 0.69036 0.02816
 O737 O 0.71979 0.74821 0.06448
 O738 O 0.72349 0.79142 0.05684
 O739 O 0.81423 0.75156 -0.03412
 O740 O 0.80667 0.70930 -0.02980
 O741 O 0.75337 0.78380 -0.06404
 O742 O 0.70890 0.78286 -0.05534
 O743 O 0.78469 0.81359 -0.00193
 O744 O 0.78305 0.80434 0.04229
 O745 O 0.81549 0.78049 -0.00398
 O746 O 0.80756 0.77624 0.04176
 O747 O 0.75503 0.81519 -0.03119
 O748 O 0.70944 0.80769 -0.02753
 O749 O 0.78261 0.75418 -0.06497
 O750 O 0.77293 0.70971 -0.05853
 O751 O 0.68617 0.74940 0.03039
 O752 O 0.69624 0.79309 0.02905
 O753 O 0.74875 0.71826 0.06356
 O754 O 0.79312 0.72124 0.05350
 O755 O 0.71779 0.68635 0.00003
 O756 O 0.72352 0.69647 -0.04414
 Zr757 Zr 0.72039 0.72187 -0.01482
 O758 O 0.74204 0.74378 -0.03800
 Zr759 Zr 0.76381 0.71992 0.02807
 O760 O 0.78761 0.74113 0.00636
 Zr761 Zr 0.72189 0.76411 0.02935
 O762 O 0.74408 0.78762 0.00828
 Zr763 Zr 0.77907 0.73648 -0.03090
 O764 O 0.75745 0.71255 -0.00937
 Zr765 Zr 0.73743 0.78093 -0.02909
 O766 O 0.71329 0.75925 -0.00794
 Zr767 Zr 0.78111 0.77843 0.01341
 O768 O 0.75901 0.75714 0.03717
 O769 O 0.72709 0.72718 0.02229
 O770 O 0.77433 0.77363 -0.02376
 C771 C 0.67548 0.73198 0.01846
 C772 C 0.72967 0.67539 0.01719
 C773 C 0.73156 0.73030 0.07425
 C774 C 0.82481 0.76910 -0.02239
 C775 C 0.77114 0.77241 -0.07444
 C776 C 0.77339 0.82432 -0.01959
 H777 H 0.73793 0.74032 -0.05534
 H778 H 0.74077 0.80486 0.01276
 H779 H 0.71651 0.71677 0.03266
 H780 H 0.80480 0.73653 0.00965
 H781 H 0.79849 0.69381 -0.02505
 H782 H 0.80208 0.69468 0.01666
 H783 H 0.71322 0.81894 -0.01379
 H784 H 0.68764 0.79219 0.01308
 H785 H 0.78687 0.71042 -0.07013
 H786 H 0.70998 0.68440 -0.04286
 H787 H 0.76826 0.81473 0.04133
 H788 H 0.73989 0.79011 0.06447
 H789 H 0.68554 0.74163 -0.04006
 H790 H 0.71001 0.76813 -0.06587
 H791 H 0.79079 0.73620 0.06352
 H792 H 0.81899 0.76281 0.03766
 O793 O 1.06363 0.21576 0.24986
 O794 O 1.05486 0.21943 0.29209
 O795 O 1.00029 0.18377 0.21854
 O796 O 0.95963 0.19136 0.21741
 O797 O 1.03223 0.24708 0.18576
 O798 O 1.03077 0.29011 0.19474
 O799 O 0.93488 0.25147 0.28127
 O800 O 0.94074 0.20930 0.27590
 O801 O 0.99622 0.28095 0.31408
 O802 O 1.04040 0.27821 0.30720
 O803 O 0.96783 0.31316 0.25187
 O804 O 0.97098 0.30537 0.20773
 O805 O 0.93603 0.28087 0.25168
 O806 O 0.94576 0.27781 0.20595
 O807 O 0.99690 0.31270 0.28174
 O808 O 1.04266 0.30302 0.27941
 O809 O 0.96595 0.25230 0.31301
 O810 O 0.97350 0.20742 0.30553
 O811 O 1.06499 0.24566 0.22068
 O812 O 1.05696 0.28970 0.22348
 O813 O 1.00259 0.21771 0.18467
 O814 O 0.95792 0.22306 0.19316
 O815 O 1.02986 0.18327 0.24802
 O816 O 1.02248 0.19230 0.29231
 Zr817 Zr 1.02798 0.21843 0.26406
 O818 O 1.00657 0.24069 0.28717
 Zr819 Zr 0.98611 0.21959 0.21961
 O820 O 0.96254 0.24116 0.24120
 Zr821 Zr 1.02998 0.26194 0.22130
 O822 O 1.00810 0.28582 0.24225
 Zr823 Zr 0.96953 0.23518 0.27860
 O824 O 0.99074 0.21092 0.25701
 Zr825 Zr 1.01312 0.27784 0.27958
 O826 O 1.03699 0.25565 0.25869
 Zr827 Zr 0.97091 0.27832 0.23554
 O828 O 0.99291 0.25681 0.21190
 O829 O 1.02290 0.22508 0.22694
 O830 O 0.97613 0.27227 0.27276
 C831 C 1.07449 0.22768 0.23267
 C832 C 1.01775 0.17327 0.23039
 C833 C 1.02047 0.22965 0.17502
 C834 C 0.92549 0.26954 0.26945
 C835 C 0.97770 0.26989 0.32348
 C836 C 0.97920 0.32294 0.27007
 H837 H 1.00991 0.23661 0.30452
 H838 H 1.01233 0.30301 0.23843
 H839 H 1.03337 0.21450 0.21664
 H840 H 0.94529 0.23735 0.23717
 H841 H 0.94831 0.19363 0.27076
 H842 H 0.94644 0.19567 0.22901
 H843 H 1.03945 0.31531 0.26648
 H844 H 1.06517 0.28773 0.23956
 H845 H 0.95938 0.20863 0.31685
 H846 H 1.03547 0.17967 0.29112
 H847 H 0.98629 0.31493 0.20940
 H848 H 1.01451 0.29002 0.18670
 H849 H 1.06244 0.23592 0.29153
 H850 H 1.03869 0.26294 0.31681
 H851 H 0.96170 0.23785 0.18335
 H852 H 0.93344 0.26493 0.20929
 O853 O 0.68417 1.03070 0.74664
 O854 O 0.69083 1.02605 0.78905
 O855 O 0.74782 1.06498 0.71884
 O856 O 0.78855 1.05888 0.72038
 O857 O 0.71881 1.00173 0.68374
 O858 O 0.72205 0.95850 0.69151
 O859 O 0.81246 0.99813 0.78350
 O860 O 0.80527 1.04033 0.77919
 O861 O 0.75091 0.96604 0.81274
 O862 O 0.70664 0.96760 0.80359
 O863 O 0.78234 0.93611 0.75108
 O864 O 0.78170 0.94489 0.70721
 O865 O 0.81369 0.96902 0.75355
 O866 O 0.80601 0.97322 0.70750
 O867 O 0.75247 0.93479 0.78001
 O868 O 0.70685 0.94288 0.77548
 O869 O 0.78043 0.99547 0.81389
 O870 O 0.77127 1.04016 0.80731
 O871 O 0.68503 1.00100 0.71715
 O872 O 0.69457 0.95715 0.71906
 O873 O 0.74820 1.03137 0.68484
 O874 O 0.79268 1.02761 0.69552
 O875 O 0.71768 1.06396 0.74761
 O876 O 0.72227 1.05383 0.79210
 Zr877 Zr 0.71918 1.02844 0.76274
 O878 O 0.74025 1.00638 0.78638
 Zr879 Zr 0.76309 1.02965 0.72044
 O880 O 0.78636 1.00843 0.74270
 Zr881 Zr 0.72054 0.98593 0.71888
 O882 O 0.74227 0.96234 0.74033
 Zr883 Zr 0.77743 1.01330 0.77981
 O884 O 0.75642 1.03732 0.75776
 Zr885 Zr 0.73530 0.96922 0.77758
 O886 O 0.71166 0.99108 0.75602
 Zr887 Zr 0.77946 0.97120 0.73567
 O888 O 0.75782 0.99246 0.71146
 O889 O 0.72620 1.02284 0.72580
 O890 O 0.77236 0.97618 0.77272
 C891 C 0.67443 1.01859 0.72881
 C892 C 0.72989 1.07472 0.73054
 C893 C 0.73078 1.01959 0.67411
 C894 C 0.82302 0.98052 0.77196
 C895 C 0.76880 0.97726 0.82324
 C896 C 0.77080 0.92550 0.76860
 H897 H 0.73601 1.00994 0.80364
 H898 H 0.73881 0.94511 0.73585
 H899 H 0.71585 1.03336 0.71531
 H900 H 0.80364 1.01287 0.73964
 H901 H 0.79732 1.05583 0.77411
 H902 H 0.80141 1.05470 0.73243
 H903 H 0.71086 0.93129 0.76213
 H904 H 0.68562 0.95842 0.73478
 H905 H 0.78497 1.03921 0.81922
 H906 H 0.70919 1.06631 0.79031
 H907 H 0.76629 0.93537 0.70726
 H908 H 0.73845 0.95980 0.68390
 H909 H 0.68398 1.00927 0.78783
 H910 H 0.70771 0.98248 0.81392
 H911 H 0.78984 1.01298 0.68512
 H912 H 0.81784 0.98625 0.71192
 O913 O 0.68538 0.53226 0.24703
 O914 O 0.69219 0.52737 0.28954
 O915 O 0.74907 0.56627 0.21937
 O916 O 0.79000 0.55986 0.22119
 O917 O 0.72006 0.50335 0.18394
 O918 O 0.72292 0.45996 0.19169
 O919 O 0.81342 0.49839 0.28369
 O920 O 0.80690 0.54076 0.27905
 O921 O 0.75145 0.46764 0.31306
 O922 O 0.70692 0.46966 0.30352
 O923 O 0.78246 0.43687 0.25169
 O924 O 0.78142 0.44610 0.20700
 O925 O 0.81431 0.46931 0.25369
 O926 O 0.80712 0.47296 0.20820
 O927 O 0.75258 0.43595 0.28063
 O928 O 0.70747 0.44423 0.27618
 O929 O 0.78134 0.49671 0.31412
 O930 O 0.77292 0.54131 0.30727
 O931 O 0.68605 0.50256 0.21755
 O932 O 0.69521 0.45890 0.21885
 O933 O 0.74956 0.53288 0.18510
 O934 O 0.79364 0.52879 0.19554
 O935 O 0.71894 0.56532 0.24815
 O936 O 0.72368 0.55521 0.29238
 Zr937 Zr 0.72040 0.52980 0.26305
 O938 O 0.74138 0.50765 0.28662
 Zr939 Zr 0.76429 0.53083 0.22074
 O940 O 0.78738 0.50918 0.24282
 Zr941 Zr 0.72148 0.48739 0.21907
 O942 O 0.74282 0.46354 0.24063
 Zr943 Zr 0.77863 0.51419 0.27993
 O944 O 0.75771 0.53842 0.25806
 Zr945 Zr 0.73594 0.47057 0.27787
 O946 O 0.71256 0.49255 0.25621
 Zr947 Zr 0.78008 0.47196 0.23595
 O948 O 0.75880 0.49364 0.21177
 O949 O 0.72735 0.52426 0.22607
 O950 O 0.77308 0.47709 0.27299
 C951 C 0.67553 0.52013 0.22929
 C952 C 0.73118 0.57606 0.23115
 C953 C 0.73215 0.52115 0.17431
 C954 C 0.82377 0.48064 0.27214
 C955 C 0.76936 0.47880 0.32357
 C956 C 0.77078 0.42640 0.26925
 H957 H 0.73719 0.51132 0.30388
 H958 H 0.73914 0.44635 0.23619
 H959 H 0.71704 0.53484 0.21559
 H960 H 0.80471 0.51338 0.23974
 H961 H 0.79917 0.55637 0.27398
 H962 H 0.80342 0.55492 0.23231
 H963 H 0.71096 0.43303 0.26234
 H964 H 0.68667 0.45971 0.23482
 H965 H 0.78671 0.54036 0.31909
 H966 H 0.71046 0.56757 0.29082
 H967 H 0.76677 0.43551 0.20830
 H968 H 0.73938 0.46110 0.18421
 H969 H 0.68485 0.51084 0.28789
 H970 H 0.70866 0.48410 0.31437
 H971 H 0.79115 0.51367 0.18577
 H972 H 0.81818 0.48691 0.21174
 O973 O 0.56421 0.21762 0.75018
 O974 O 0.55556 0.22074 0.79253
 O975 O 0.50113 0.18479 0.71911
 O976 O 0.46041 0.19180 0.71800
 O977 O 0.53212 0.24871 0.68646
 O978 O 0.52998 0.29173 0.69576
 O979 O 0.43514 0.25131 0.78247
 O980 O 0.44145 0.20918 0.77670
 O981 O 0.49608 0.28128 0.81513
 O982 O 0.54031 0.27914 0.80813
 O983 O 0.46732 0.31351 0.75297
 O984 O 0.47011 0.30591 0.70896
 O985 O 0.43583 0.28086 0.75301
 O986 O 0.44531 0.27800 0.70719
 O987 O 0.49650 0.31330 0.78274
 O988 O 0.54222 0.30411 0.78059
 O989 O 0.46629 0.25213 0.81407
 O990 O 0.47440 0.20747 0.80620
 O991 O 0.56502 0.24759 0.72104
 O992 O 0.55644 0.29140 0.72434
 O993 O 0.50280 0.21901 0.68537
 O994 O 0.45809 0.22359 0.69411
 O995 O 0.53097 0.18448 0.74832
 O996 O 0.52365 0.19311 0.79268
 Zr997 Zr 0.52860 0.21953 0.76459
 O998 O 0.50696 0.24131 0.78793
 Zr999 Zr 0.48649 0.22038 0.72037
 O1000 O 0.46271 0.24148 0.74217
 Zr1001 Zr 0.52980 0.26332 0.72208
 O1002 O 0.50771 0.28672 0.74329
 Zr1003 Zr 0.46995 0.23539 0.77950
 O1004 O 0.49141 0.21156 0.75769
 Zr1005 Zr 0.51298 0.27859 0.78056
 O1006 O 0.53707 0.25689 0.75940
 Zr1007 Zr 0.47061 0.27875 0.73665
 O1008 O 0.49278 0.25771 0.71279
 O1009 O 0.52323 0.22632 0.72754
 O1010 O 0.47604 0.27259 0.77384
 C1011 C 0.57482 0.22974 0.73295
 C1012 C 0.51883 0.17443 0.73073
 C1013 C 0.52049 0.23121 0.67570
 C1014 C 0.42551 0.26935 0.77079
 C1015 C 0.47782 0.26982 0.82458
 C1016 C 0.47875 0.32341 0.77104
 H1017 H 0.51043 0.23717 0.80524
 H1018 H 0.51171 0.30399 0.73952
 H1019 H 0.53380 0.21594 0.71714
 H1020 H 0.44549 0.23747 0.73820
 H1021 H 0.44920 0.19362 0.77150
 H1022 H 0.44728 0.19574 0.72980
 H1023 H 0.53909 0.31619 0.76744
 H1024 H 0.56476 0.28941 0.74035
 H1025 H 0.46026 0.20836 0.81755
 H1026 H 0.53684 0.18069 0.79135
 H1027 H 0.48544 0.31547 0.71039
 H1028 H 0.51381 0.29120 0.68754
 H1029 H 0.56288 0.23735 0.79206
 H1030 H 0.53880 0.26381 0.81768
 H1031 H 0.46161 0.23846 0.68434
 H1032 H 0.43307 0.26508 0.71063
 O1033 O 0.31662 0.75131 0.46858
 O1034 O 0.30861 0.70913 0.47145
 O1035 O 0.25296 0.78165 0.43599
 O1036 O 0.21234 0.78217 0.44320
 O1037 O 0.28414 0.81478 0.49969
 O1038 O 0.28220 0.80587 0.54258
 O1039 O 0.18827 0.71730 0.50231
 O1040 O 0.19462 0.72248 0.46030
 O1041 O 0.24997 0.68582 0.53228
 O1042 O 0.29420 0.69399 0.53043
 O1043 O 0.22059 0.74747 0.56469
 O1044 O 0.22156 0.79117 0.55718
 O1045 O 0.18831 0.74640 0.53230
 O1046 O 0.19725 0.79260 0.52888
 O1047 O 0.24957 0.71763 0.56469
 O1048 O 0.29513 0.72149 0.55572
 O1049 O 0.21969 0.68602 0.50361
 O1050 O 0.22802 0.69369 0.45891
 O1051 O 0.31731 0.78060 0.49848
 O1052 O 0.30864 0.77730 0.54259
 O1053 O 0.25456 0.81531 0.47023
 O1054 O 0.20973 0.80569 0.47513
 O1055 O 0.28313 0.75288 0.43558
 O1056 O 0.27640 0.70824 0.44432
 Zr1057 Zr 0.28121 0.73654 0.47064
 O1058 O 0.26017 0.71290 0.49265
 Zr1059 Zr 0.23858 0.78006 0.47164
 O1060 O 0.21517 0.75775 0.49265
 Zr1061 Zr 0.28209 0.77924 0.51440
 O1062 O 0.26020 0.75786 0.53787
 Zr1063 Zr 0.22305 0.72054 0.48665
 O1064 O 0.24397 0.74279 0.46275
 Zr1065 Zr 0.26610 0.72067 0.52993
 O1066 O 0.28980 0.74203 0.50799
 Zr1067 Zr 0.22294 0.76359 0.52989
 O1068 O 0.24487 0.78782 0.50894
 O1069 O 0.27544 0.77351 0.47744
 O1070 O 0.22902 0.72651 0.52386
 C1071 C 0.32715 0.76868 0.48061
 C1072 C 0.27078 0.77031 0.42559
 C1073 C 0.27232 0.82526 0.48222
 C1074 C 0.17830 0.72858 0.52041
 C1075 C 0.23169 0.67592 0.52119
 C1076 C 0.23186 0.72943 0.57471
 H1077 H 0.26394 0.69565 0.48856
 H1078 H 0.26410 0.76182 0.55513
 H1079 H 0.28587 0.78401 0.46702
 H1080 H 0.19790 0.76136 0.48861
 H1081 H 0.20231 0.72781 0.44476
 H1082 H 0.19985 0.76953 0.44667
 H1083 H 0.29157 0.73453 0.56782
 H1084 H 0.31739 0.76157 0.54035
 H1085 H 0.21410 0.68203 0.45985
 H1086 H 0.28927 0.70993 0.43162
 H1087 H 0.23749 0.79114 0.56581
 H1088 H 0.26590 0.81377 0.54216
 H1089 H 0.31580 0.70944 0.48813
 H1090 H 0.29266 0.68407 0.51531
 H1091 H 0.21345 0.81588 0.48971
 H1092 H 0.18472 0.78852 0.51639
 O1093 O 0.31523 0.25153 0.97135
 O1094 O 0.30764 0.20923 0.97573
 O1095 O 0.25266 0.28095 0.93685
 O1096 O 0.21177 0.28026 0.94257
 O1097 O 0.28177 0.31513 1.00063
 O1098 O 0.27803 0.30707 1.04369
 O1099 O 0.18615 0.21711 1.00266
 O1100 O 0.19362 0.22168 0.96065
 O1101 O 0.24705 0.18638 1.03469
 O1102 O 0.29141 0.19487 1.03394
 O1103 O 0.21639 0.24848 1.06534
 O1104 O 0.21792 0.29236 1.05679
 O1105 O 0.18529 0.24677 1.03209
 O1106 O 0.19381 0.29272 1.02827
 O1107 O 0.24569 0.21895 1.06652
 O1108 O 0.29136 0.22254 1.05891
 O1109 O 0.21763 0.18595 1.00514
 O1110 O 0.22715 0.19291 0.96070
 O1111 O 0.31481 0.28079 1.00129
 O1112 O 0.30490 0.27888 1.04509
 O1113 O 0.25239 0.31479 0.97098
 O1114 O 0.20777 0.30485 0.97387
 O1115 O 0.28230 0.25165 0.93790
 O1116 O 0.27635 0.20725 0.94751
 Zr1117 Zr 0.27995 0.23625 0.97325
 O1118 O 0.25831 0.21289 0.99498
 Zr1119 Zr 0.23694 0.27941 0.97204
 O1120 O 0.21309 0.25747 0.99294
 Zr1121 Zr 0.27918 0.27985 1.01610
 O1122 O 0.25687 0.25865 1.03937
 Zr1123 Zr 0.22132 0.22023 0.98781
 O1124 O 0.24289 0.24203 0.96410
 Zr1125 Zr 0.26315 0.22133 1.03224
 O1126 O 0.28735 0.24257 1.01071
 Zr1127 Zr 0.21982 0.26404 1.03030
 O1128 O 0.24207 0.28798 1.00936
 O1129 O 0.27365 0.27331 0.97909
 O1130 O 0.22624 0.22689 1.02507
 C1131 C 0.32523 0.26903 0.98365
 C1132 C 0.27053 0.26905 0.92719
 C1133 C 0.26989 0.32520 0.98294
 C1134 C 0.17570 0.22868 1.02031
 C1135 C 0.22918 0.17617 1.02317
 C1136 C 0.22759 0.23068 1.07588
 H1137 H 0.26228 0.19559 0.99130
 H1138 H 0.26029 0.26291 1.05666
 H1139 H 0.28426 0.28373 0.96877
 H1140 H 0.19591 0.26091 0.98838
 H1141 H 0.20175 0.22665 0.94522
 H1142 H 0.19869 0.26835 0.94647
 H1143 H 0.28763 0.23602 1.07046
 H1144 H 0.31352 0.26298 1.04378
 H1145 H 0.21317 0.18131 0.96133
 H1146 H 0.28968 0.20875 0.93527
 H1147 H 0.23329 0.29197 1.06641
 H1148 H 0.26176 0.31493 1.04240
 H1149 H 0.31460 0.21039 0.99247
 H1150 H 0.29037 0.18473 1.01892
 H1151 H 0.21049 0.31493 0.98874
 H1152 H 0.18196 0.28858 1.01516
 C1153 C 0.29571 0.35928 0.79686
 C1154 C 0.26876 0.35845 0.78870
 C1155 C 0.26022 0.38027 0.77989
 C1156 C 0.27941 0.40093 0.78007
 C1157 C 0.28854 0.40210 0.80674
 C1158 C 0.29707 0.38038 0.81549
 C1159 C 0.30963 0.36887 0.77423
 C1160 C 0.30116 0.39054 0.76552
 H1161 H 0.25741 0.34213 0.78970
 H1162 H 0.24159 0.38258 0.77335
 H1163 H 0.28835 0.41867 0.81779
 H1164 H 0.30417 0.37842 0.83399
 H1165 H 0.32482 0.35949 0.76554
 H1166 H 0.30925 0.39928 0.74960
 C1167 C 0.29629 -0.14142 0.29471
 C1168 C 0.29807 -0.11999 0.31299
 C1169 C 0.28903 -0.09849 0.30424
 C1170 C 0.27904 -0.10011 0.27793
 C1171 C 0.30040 -0.11057 0.26279
 C1172 C 0.30937 -0.13206 0.27148
 C1173 C 0.26905 -0.14254 0.28743
 C1174 C 0.26003 -0.12090 0.27865
 H1175 H 0.30584 -0.12154 0.33127
 H1176 H 0.28908 -0.08178 0.31505
 H1177 H 0.30780 -0.10207 0.24642
 H1178 H 0.32425 -0.14149 0.26230
 H1179 H 0.25785 -0.15894 0.28891
 H1180 H 0.24119 -0.11882 0.27267
 C1181 C 0.79713 0.86000 0.79466
 C1182 C 0.79824 0.88130 0.81308
 C1183 C 0.78942 0.90277 0.80414
 C1184 C 0.78029 0.90122 0.77752
 C1185 C 0.80219 0.89097 0.76303
 C1186 C 0.81097 0.86946 0.77196
 C1187 C 0.77018 0.85874 0.78652
 C1188 C 0.76136 0.88035 0.77752
 H1189 H 0.80543 0.87965 0.83158
 H1190 H 0.78905 0.91943 0.81501
 H1191 H 0.81011 0.89967 0.74701
 H1192 H 0.82626 0.86010 0.76343
 H1193 H 0.75907 0.84227 0.78762
 H1194 H 0.74271 0.88235 0.77092
 C1195 C 0.45408 0.89121 0.29449
 C1196 C 0.43617 0.86965 0.29744
 C1197 C 0.44489 0.84796 0.28880
 C1198 C 0.47080 0.84956 0.27799
 C1199 C 0.46919 0.86973 0.25837
 C1200 C 0.46042 0.89155 0.26700
 C1201 C 0.47785 0.88250 0.30715
 C1202 C 0.48648 0.86085 0.29858
 H1203 H 0.41816 0.87127 0.30567
 H1204 H 0.43431 0.83112 0.28964
 H1205 H 0.47457 0.86710 0.23939
 H1206 H 0.45833 0.90754 0.25536
 H1207 H 0.48750 0.89249 0.32145
 H1208 H 0.50321 0.85281 0.30569
 C1209 C -0.04636 0.89084 0.79554
 C1210 C -0.02303 0.88177 0.80861
 C1211 C -0.01435 0.86020 0.79988
 C1212 C -0.02963 0.84934 0.77874
 C1213 C -0.05580 0.84779 0.78894
 C1214 C -0.06452 0.86943 0.79773
 C1215 C -0.03942 0.89158 0.76823
 C1216 C -0.03064 0.86983 0.75942
 H1217 H -0.01378 0.89149 0.82334
 H1218 H 0.00210 0.85190 0.80734
 H1219 H -0.06653 0.83104 0.78926
 H1220 H -0.08270 0.87113 0.80556
 H1221 H -0.04118 0.90779 0.75685
 H1222 H -0.02490 0.86747 0.74053
 C1223 C -0.04744 -0.13953 -0.04703
 C1224 C -0.02056 -0.14029 -0.03853
 C1225 C -0.01206 -0.11845 -0.02962
 C1226 C -0.03116 -0.09779 -0.02999
 C1227 C -0.03999 -0.09667 -0.05675
 C1228 C -0.04853 -0.11838 -0.06563
 C1229 C -0.06161 -0.12988 -0.02453
 C1230 C -0.05313 -0.10818 -0.01570
 H1231 H -0.00921 -0.15660 -0.03932
 H1232 H 0.00649 -0.11613 -0.02283
 H1233 H -0.03961 -0.08013 -0.06776
 H1234 H -0.05547 -0.12028 -0.08421
 H1235 H -0.07698 -0.13919 -0.01602
 H1236 H -0.06139 -0.09936 0.00009
 C1237 C -0.04654 0.35993 0.45357
 C1238 C -0.01931 0.35929 0.46089
 C1239 C -0.01056 0.38117 0.46954
 C1240 C -0.02979 0.40172 0.47007
 C1241 C -0.03975 0.40288 0.44372
 C1242 C -0.04853 0.38113 0.43511
 C1243 C -0.05974 0.36946 0.47673
 C1244 C -0.05103 0.39115 0.48524
 H1245 H -0.00792 0.34306 0.45950
 H1246 H 0.00826 0.38358 0.47551
 H1247 H -0.03989 0.41945 0.43275
 H1248 H -0.05619 0.37924 0.41681
 H1249 H -0.07458 0.36003 0.48600
 H1250 H -0.05859 0.39975 0.50151
 C1251 C 0.45501 -0.14094 0.45514
 C1252 C 0.45169 -0.11963 0.43703
 C1253 C 0.46003 -0.09774 0.44559
 C1254 C 0.47095 -0.09890 0.47155
 C1255 C 0.45060 -0.11030 0.48735
 C1256 C 0.44229 -0.13220 0.47886
 C1257 C 0.48248 -0.14081 0.46153
 C1258 C 0.49081 -0.11878 0.47013
 H1259 H 0.44340 -0.12154 0.41901
 H1260 H 0.45889 -0.08104 0.43484
 H1261 H 0.44348 -0.10214 0.50404
 H1262 H 0.42819 -0.14236 0.48850
 H1263 H 0.49431 -0.15667 0.45963
 H1264 H 0.50972 -0.11584 0.47554
 C1265 C 0.45451 0.35746 -0.04379
 C1266 C 0.48210 0.35754 -0.03800
 C1267 C 0.49063 0.37953 -0.02946
 C1268 C 0.47080 0.39944 -0.02751
 C1269 C 0.45934 0.40070 -0.05324
 C1270 C 0.45082 0.37885 -0.06172
 C1271 C 0.44235 0.36616 -0.01972
 C1272 C 0.45083 0.38800 -0.01132
 H1273 H 0.49388 0.34168 -0.04027
 H1274 H 0.50965 0.38244 -0.02444
 H1275 H 0.45804 0.41744 -0.06391
 H1276 H 0.44221 0.37700 -0.07960
 H1277 H 0.42856 0.35595 -0.00968
 H1278 H 0.44417 0.39604 0.00562
 C1279 C 0.79491 0.39131 0.45559
 C1280 C 0.77085 0.38277 0.44346
 C1281 C 0.76224 0.36117 0.45221
 C1282 C 0.77834 0.34982 0.47240
 C1283 C 0.80398 0.34811 0.46098
 C1284 C 0.81261 0.36975 0.45219
 C1285 C 0.78924 0.39175 0.48321
 C1286 C 0.78054 0.36997 0.49204
 H1287 H 0.76099 0.39296 0.42952
 H1288 H 0.74520 0.35328 0.44559
 H1289 H 0.81447 0.33126 0.45991
 H1290 H 0.83046 0.37136 0.44360
 H1291 H 0.79175 0.40778 0.49477
 H1292 H 0.77560 0.36738 0.51113
 C1293 C 0.79965 0.89003 -0.04564
 C1294 C 0.81394 0.88041 -0.02319
 C1295 C 0.80526 0.85881 -0.01423
 C1296 C 0.78303 0.84864 -0.02842
 C1297 C 0.76419 0.86951 -0.02800
 C1298 C 0.77286 0.89116 -0.03700
 C1299 C 0.80035 0.86876 -0.06416
 C1300 C 0.79163 0.84724 -0.05519
 H1301 H 0.82949 0.88966 -0.01487
 H1302 H 0.81350 0.84993 0.00155
 H1303 H 0.74569 0.86748 -0.02106
 H1304 H 0.76172 0.90762 -0.03772
 H1305 H 0.80725 0.87041 -0.08275
 H1306 H 0.79107 0.83062 -0.06612
 C1307 C 0.79578 0.29502 0.35894
 C1308 C 0.76852 0.28791 0.35830
 C1309 C 0.75986 0.27915 0.38009
 C1310 C 0.77925 0.27831 0.40054
 C1311 C 0.80033 0.26307 0.38971
 C1312 C 0.80894 0.27176 0.36804
 C1313 C 0.79806 0.31328 0.38028
 C1314 C 0.78943 0.30458 0.40196
 H1315 H 0.75707 0.28951 0.34209
 H1316 H 0.74103 0.27327 0.38250
 H1317 H 0.80779 0.24666 0.39812
 H1318 H 0.82362 0.26262 0.35827
 H1319 H 0.80587 0.33151 0.37851
 H1320 H 0.78986 0.31541 0.41868
 C1321 C 0.79689 0.79809 -0.14048
 C1322 C 0.81546 0.79938 -0.11929
 C1323 C 0.80668 0.79080 -0.09762
 C1324 C 0.78005 0.78174 -0.09884
 C1325 C 0.76558 0.80359 -0.10921
 C1326 C 0.77430 0.81212 -0.13088
 C1327 C 0.78864 0.77110 -0.14132
 C1328 C 0.77983 0.76256 -0.11953
 H1329 H 0.83394 0.80650 -0.12111
 H1330 H 0.81766 0.79057 -0.08104
 H1331 H 0.74974 0.81173 -0.10041
 H1332 H 0.76567 0.82743 -0.14020
 H1333 H 0.78952 0.75972 -0.15764
 H1334 H 0.77320 0.74393 -0.11726
 C1335 C 0.29346 0.45410 0.89192
 C1336 C 0.28553 0.48113 0.89220
 C1337 C 0.27672 0.48926 0.87024
 C1338 C 0.27668 0.46961 0.85000
 C1339 C 0.30319 0.46032 0.84897
 C1340 C 0.31194 0.45220 0.87083
 C1341 C 0.27074 0.44001 0.88272
 C1342 C 0.26200 0.44810 0.86084
 H1343 H 0.28663 0.49281 0.90830
 H1344 H 0.27027 0.50788 0.86757
 H1345 H 0.31412 0.46003 0.83237
 H1346 H 0.33034 0.44497 0.87288
 H1347 H 0.26206 0.42504 0.89252
 H1348 H 0.24601 0.43993 0.85223
 C1349 C 0.29437 -0.04717 0.38931
 C1350 C 0.28622 -0.02020 0.38953
 C1351 C 0.27750 -0.01212 0.36753
 C1352 C 0.27770 -0.03173 0.34729
 C1353 C 0.30428 -0.04083 0.34639
 C1354 C 0.31297 -0.04891 0.36829
 C1355 C 0.27185 -0.06145 0.38002
 C1356 C 0.26314 -0.05340 0.35807
 H1357 H 0.28711 -0.00851 0.40564
 H1358 H 0.27094 0.00647 0.36483
 H1359 H 0.31530 -0.04105 0.32985
 H1360 H 0.33140 -0.05604 0.37043
 H1361 H 0.26334 -0.07656 0.38976
 H1362 H 0.24733 -0.06177 0.34934
 C1363 C -0.04555 -0.04601 -0.14080
 C1364 C -0.06378 -0.04790 -0.11945
 C1365 C -0.05497 -0.03914 -0.09783
 C1366 C -0.02864 -0.02932 -0.09925
 C1367 C -0.01368 -0.05071 -0.10991
 C1368 C -0.02243 -0.05941 -0.13155
 C1369 C -0.03808 -0.01879 -0.14156
 C1370 C -0.02923 -0.01006 -0.11979
 H1371 H -0.08208 -0.05554 -0.12114
 H1372 H -0.06574 -0.03927 -0.08115
 H1373 H 0.00260 -0.05833 -0.10141
 H1374 H -0.01342 -0.07432 -0.14113
 H1375 H -0.03949 -0.00740 -0.15781
 H1376 H -0.02310 0.00874 -0.11745
 C1377 C -0.04526 0.45253 0.35931
 C1378 C -0.06348 0.45099 0.38071
 C1379 C -0.05458 0.45994 0.40222
 C1380 C -0.02821 0.46960 0.40064
 C1381 C -0.01338 0.44799 0.39020
 C1382 C -0.02222 0.43910 0.36867
 C1383 C -0.03764 0.47971 0.35825
 C1384 C -0.02872 0.48863 0.37990
 H1385 H -0.08181 0.44340 0.37913
 H1386 H -0.06533 0.46001 0.41893
 H1387 H 0.00285 0.44036 0.39879
 H1388 H -0.01333 0.42401 0.35925
 H1389 H -0.03901 0.49092 0.34187
 H1390 H -0.02248 0.50742 0.38202
 C1391 C 0.45582 -0.04530 0.35767
 C1392 C 0.46263 -0.01793 0.35698
 C1393 C 0.47163 -0.00915 0.37868
 C1394 C 0.47295 -0.02856 0.39906
 C1395 C 0.44686 -0.03900 0.40077
 C1396 C 0.43794 -0.04775 0.37920
 C1397 C 0.47933 -0.05824 0.36644
 C1398 C 0.48824 -0.04952 0.38803
 H1399 H 0.46067 -0.00651 0.34081
 H1400 H 0.47737 0.00976 0.38107
 H1401 H 0.43629 -0.03952 0.41760
 H1402 H 0.41979 -0.05575 0.37763
 H1403 H 0.48850 -0.07280 0.35649
 H1404 H 0.50487 -0.05672 0.39619
 C1405 C 0.45545 0.45380 -0.14152
 C1406 C 0.43792 0.45060 -0.11976
 C1407 C 0.44694 0.45923 -0.09820
 C1408 C 0.47275 0.47029 -0.10011
 C1409 C 0.48839 0.44989 -0.11162
 C1410 C 0.47943 0.44129 -0.13323
 C1411 C 0.46165 0.48134 -0.14187
 C1412 C 0.47073 0.48997 -0.12016
 H1413 H 0.41993 0.44221 -0.12115
 H1414 H 0.43661 0.45822 -0.08124
 H1415 H 0.50533 0.44303 -0.10380
 H1416 H 0.48895 0.42720 -0.14353
 H1417 H 0.45929 0.49300 -0.15782
 H1418 H 0.47611 0.50897 -0.11755
 C1419 C 0.45594 0.79675 0.38999
 C1420 C 0.48307 0.78930 0.39010
 C1421 C 0.49130 0.78093 0.36798
 C1422 C 0.47164 0.78081 0.34775
 C1423 C 0.45046 0.76560 0.35847
 C1424 C 0.44230 0.77387 0.38043
 C1425 C 0.45368 0.81554 0.36915
 C1426 C 0.46190 0.80723 0.34711
 H1427 H 0.49477 0.79044 0.40618
 H1428 H 0.51001 0.77492 0.36516
 H1429 H 0.44252 0.74955 0.34974
 H1430 H 0.42755 0.76467 0.39004
 H1431 H 0.44624 0.83384 0.37151
 H1432 H 0.46150 0.81844 0.33069
 C1433 C -0.04521 0.79769 0.88985
 C1434 C -0.01779 0.79122 0.89073
 C1435 C -0.00878 0.78255 0.86901
 C1436 C -0.02799 0.78115 0.84839
 C1437 C -0.04881 0.76546 0.85910
 C1438 C -0.05775 0.77399 0.88062
 C1439 C -0.04767 0.81579 0.86840
 C1440 C -0.03864 0.80716 0.84682
 H1441 H -0.00647 0.79318 0.90700
 H1442 H 0.01019 0.77713 0.86675
 H1443 H -0.05584 0.74879 0.85077
 H1444 H -0.07223 0.76431 0.89018
 H1445 H -0.05582 0.83387 0.87001
 H1446 H -0.03907 0.81789 0.83008
 C1447 C 0.36060 0.79623 0.29560
 C1448 C 0.38170 0.79825 0.31417
 C1449 C 0.40346 0.78971 0.30561
 C1450 C 0.40232 0.77989 0.27919
 C1451 C 0.38189 0.76047 0.27952
 C1452 C 0.36004 0.76903 0.28812
 C1453 C 0.36997 0.80971 0.27263
 C1454 C 0.39168 0.80122 0.26411
 H1455 H 0.37971 0.80582 0.33248
 H1456 H 0.42003 0.79000 0.31661
 H1457 H 0.38437 0.74168 0.27344
 H1458 H 0.34385 0.75754 0.28941
 H1459 H 0.36041 0.82460 0.26358
 H1460 H 0.40027 0.80902 0.24797
 C1461 C -0.13864 0.79617 0.79670
 C1462 C -0.11750 0.79822 0.81520
 C1463 C -0.09576 0.78966 0.80658
 C1464 C -0.09696 0.77984 0.78017
 C1465 C -0.11738 0.76041 0.78058
 C1466 C -0.13923 0.76896 0.78926
 C1467 C -0.12933 0.80962 0.77368
 C1468 C -0.10767 0.80114 0.76510
 H1469 H -0.11945 0.80573 0.83354
 H1470 H -0.07919 0.78985 0.81757
 H1471 H -0.11490 0.74160 0.77454
 H1472 H -0.15540 0.75746 0.79064
 H1473 H -0.13891 0.82446 0.76457
 H1474 H -0.09918 0.80890 0.74889
 C1475 C 0.89049 0.29610 0.45580
 C1476 C 0.89139 0.26875 0.46268
 C1477 C 0.86980 0.25982 0.47162
 C1478 C 0.84931 0.27906 0.47283
 C1479 C 0.86019 0.30020 0.48815
 C1480 C 0.88166 0.30907 0.47927
 C1481 C 0.86895 0.29827 0.43781
 C1482 C 0.84750 0.28936 0.44668
 H1483 H 0.90762 0.25746 0.46081
 H1484 H 0.86758 0.24091 0.47738
 H1485 H 0.85201 0.30744 0.50476
 H1486 H 0.89149 0.32377 0.48844
 H1487 H 0.87043 0.30621 0.41962
 H1488 H 0.83068 0.28969 0.43604
 C1489 C 0.89047 0.79550 -0.04800
 C1490 C 0.89156 0.78694 -0.02117
 C1491 C 0.86991 0.77782 -0.01261
 C1492 C 0.84914 0.77813 -0.03167
 C1493 C 0.84777 0.80491 -0.04030
 C1494 C 0.86929 0.81396 -0.04887
 C1495 C 0.88096 0.77304 -0.06234
 C1496 C 0.85941 0.76399 -0.05383
 H1497 H 0.90795 0.78786 -0.00992
 H1498 H 0.86780 0.77094 0.00593
 H1499 H 0.83119 0.81580 -0.03980
 H1500 H 0.87105 0.83257 -0.05569
 H1501 H 0.89029 0.76476 -0.07782
 H1502 H 0.85065 0.74815 -0.06215
 C1503 C -0.13956 -0.04561 -0.04914
 C1504 C -0.11827 -0.06398 -0.05034
 C1505 C -0.09674 -0.05502 -0.04156
 C1506 C -0.09817 -0.02842 -0.03239
 C1507 C -0.10855 -0.01393 -0.05431
 C1508 C -0.13014 -0.02287 -0.06306
 C1509 C -0.14053 -0.03743 -0.02212
 C1510 C -0.11887 -0.02846 -0.01338
 H1511 H -0.11991 -0.08246 -0.05762
 H1512 H -0.08011 -0.06585 -0.04131
 H1513 H -0.09981 0.00203 -0.06234
 H1514 H -0.13951 -0.01436 -0.07841
 H1515 H -0.15687 -0.03844 -0.01087
 H1516 H -0.11673 -0.02184 0.00529
 C1517 C -0.13985 0.45483 0.45273
 C1518 C -0.14015 0.46318 0.47967
 C1519 C -0.11812 0.47169 0.48793
 C1520 C -0.09778 0.47108 0.46851
 C1521 C -0.09717 0.44437 0.45954
 C1522 C -0.11911 0.43589 0.45128
 C1523 C -0.13014 0.47719 0.43847
 C1524 C -0.10822 0.48565 0.44669
 H1525 H -0.15631 0.46255 0.49120
 H1526 H -0.11545 0.47832 0.50653
 H1527 H -0.08082 0.43311 0.45960
 H1528 H -0.12147 0.41739 0.44427
 H1529 H -0.13961 0.48580 0.42324
 H1530 H -0.09927 0.50133 0.43834
 C1531 C 0.35847 -0.04306 0.45204
 C1532 C 0.36760 -0.02006 0.43833
 C1533 C 0.38933 -0.01123 0.44683
 C1534 C 0.40011 -0.02606 0.46830
 C1535 C 0.37976 -0.02643 0.48770
 C1536 C 0.35796 -0.03530 0.47920
 C1537 C 0.37975 -0.06136 0.45016
 C1538 C 0.40141 -0.05251 0.45866
 H1539 H 0.35786 -0.01121 0.42341
 H1540 H 0.39783 0.00498 0.43904
 H1541 H 0.38222 -0.02008 0.50641
 H1542 H 0.34181 -0.03650 0.49071
 H1543 H 0.37799 -0.07973 0.44263
 H1544 H 0.41807 -0.06334 0.45841
 C1545 C 0.35812 0.45592 -0.04584
 C1546 C 0.37922 0.43744 -0.04801
 C1547 C 0.40109 0.44614 -0.03982
 C1548 C 0.40014 0.47261 -0.03016
 C1549 C 0.38921 0.48753 -0.05144
 C1550 C 0.36732 0.47889 -0.05963
 C1551 C 0.35804 0.46365 -0.01868
 C1552 C 0.38002 0.47238 -0.01048
 H1553 H 0.37719 0.41907 -0.05547
 H1554 H 0.41765 0.43517 -0.04026
 H1555 H 0.39771 0.50370 -0.05932
 H1556 H 0.35750 0.48790 -0.07440
 H1557 H 0.34204 0.46251 -0.00694
 H1558 H 0.38279 0.47869 0.00821
 C1559 C 0.38897 0.45426 0.79809
 C1560 C 0.36804 0.43550 0.79981
 C1561 C 0.34615 0.44404 0.79155
 C1562 C 0.34699 0.47063 0.78231
 C1563 C 0.35763 0.48539 0.80394
 C1564 C 0.37953 0.47687 0.81216
 C1565 C 0.38924 0.46227 0.77108
 C1566 C 0.36727 0.47085 0.76282
 H1567 H 0.37022 0.41708 0.80701
 H1568 H 0.32968 0.43290 0.79170
 H1569 H 0.34885 0.50123 0.81216
 H1570 H 0.38913 0.48558 0.82729
 H1571 H 0.40534 0.46138 0.75948
 H1572 H 0.36461 0.47729 0.74418
 C1573 C 0.38933 -0.04633 0.29545
 C1574 C 0.36853 -0.06525 0.29704
 C1575 C 0.34661 -0.05688 0.28864
 C1576 C 0.34729 -0.03028 0.27941
 C1577 C 0.35776 -0.01545 0.30110
 C1578 C 0.37965 -0.02380 0.30945
 C1579 C 0.38968 -0.03833 0.26842
 C1580 C 0.36768 -0.02992 0.26002
 H1581 H 0.37082 -0.08367 0.30422
 H1582 H 0.33023 -0.06816 0.28863
 H1583 H 0.34887 0.00033 0.30930
 H1584 H 0.38909 -0.01499 0.32462
 H1585 H 0.40585 -0.03912 0.25691
 H1586 H 0.36506 -0.02353 0.24136
 C1587 C 0.10722 0.54277 0.70604
 C1588 C 0.12852 0.56089 0.70296
 C1589 C 0.15030 0.55234 0.71138
 C1590 C 0.14900 0.52636 0.72216
 C1591 C 0.12904 0.52772 0.74194
 C1592 C 0.10713 0.53633 0.73349
 C1593 C 0.11588 0.51915 0.69319
 C1594 C 0.13769 0.51060 0.70158
 H1595 H 0.12665 0.57892 0.69476
 H1596 H 0.16702 0.56309 0.71037
 H1597 H 0.13184 0.52227 0.76087
 H1598 H 0.09121 0.53825 0.74521
 H1599 H 0.10570 0.50965 0.67894
 H1600 H 0.14583 0.49394 0.69440
 C1601 C 0.10716 0.04404 0.20488
 C1602 C 0.10696 0.01660 0.21158
 C1603 C 0.12894 0.00804 0.21994
 C1604 C 0.14917 0.02765 0.22089
 C1605 C 0.15010 0.03822 0.19479
 C1606 C 0.12825 0.04678 0.18646
 C1607 C 0.11647 0.05696 0.22832
 C1608 C 0.13831 0.04843 0.23660
 H1609 H 0.09090 0.00494 0.21002
 H1610 H 0.13163 -0.01087 0.22549
 H1611 H 0.16664 0.03896 0.18380
 H1612 H 0.12621 0.05485 0.16837
 H1613 H 0.10674 0.07138 0.23795
 H1614 H 0.14679 0.05572 0.25309
 C1615 C 0.64254 0.70690 0.20559
 C1616 C 0.63378 0.69422 0.22926
 C1617 C 0.61192 0.70246 0.23764
 C1618 C 0.60053 0.72276 0.22173
 C1619 C 0.62040 0.74272 0.22032
 C1620 C 0.64242 0.73441 0.21185
 C1621 C 0.62134 0.70347 0.18737
 C1622 C 0.59944 0.71175 0.19579
 H1623 H 0.64397 0.68020 0.23899
 H1624 H 0.60381 0.69535 0.25434
 H1625 H 0.61744 0.76168 0.22562
 H1626 H 0.65826 0.74627 0.20990
 H1627 H 0.62337 0.69520 0.16937
 H1628 H 0.58279 0.71055 0.18494
 C1629 C 0.14282 0.70694 0.70564
 C1630 C 0.14313 0.71361 0.73307
 C1631 C 0.12132 0.72236 0.74156
 C1632 C 0.10122 0.72364 0.72184
 C1633 C 0.11245 0.73918 0.70113
 C1634 C 0.13415 0.73047 0.69270
 C1635 C 0.12143 0.68887 0.70275
 C1636 C 0.09974 0.69757 0.71121
 H1637 H 0.15914 0.71173 0.74474
 H1638 H 0.11868 0.72798 0.76047
 H1639 H 0.10433 0.75581 0.69387
 H1640 H 0.14426 0.73981 0.67835
 H1641 H 0.12317 0.67077 0.69464
 H1642 H 0.08298 0.68687 0.71032
 C1643 C 0.60896 0.20520 0.54403
 C1644 C 0.61815 0.19126 0.52122
 C1645 C 0.64000 0.19942 0.51263
 C1646 C 0.65082 0.22086 0.52751
 C1647 C 0.63064 0.24048 0.52755
 C1648 C 0.60870 0.23228 0.53623
 C1649 C 0.62998 0.20324 0.56264
 C1650 C 0.65182 0.21143 0.55403
 H1651 H 0.60836 0.17636 0.51234
 H1652 H 0.64856 0.19137 0.49659
 H1653 H 0.63336 0.25915 0.52121
 H1654 H 0.59264 0.24392 0.53732
 H1655 H 0.62789 0.19593 0.58103
 H1656 H 0.66837 0.21112 0.56507
 C1657 C 0.60931 0.70665 0.04376
 C1658 C 0.61797 0.73037 0.05653
 C1659 C 0.63966 0.73909 0.04803
 C1660 C 0.65089 0.72341 0.02745
 C1661 C 0.65240 0.69745 0.03826
 C1662 C 0.63074 0.68872 0.04678
 C1663 C 0.60899 0.71303 0.01629
 C1664 C 0.63078 0.72184 0.00774
 H1665 H 0.60787 0.73980 0.07081
 H1666 H 0.64777 0.75584 0.05516
 H1667 H 0.66918 0.68684 0.03922
 H1668 H 0.62903 0.67068 0.05501
 H1669 H 0.59299 0.71095 0.00463
 H1670 H 0.63341 0.72728 -0.01121
 C1671 C 0.14163 0.04430 0.04465
 C1672 C 0.13322 0.01983 0.05619
 C1673 C 0.11142 0.01150 0.04759
 C1674 C 0.09974 0.02816 0.02810
 C1675 C 0.09836 0.05354 0.04030
 C1676 C 0.12017 0.06195 0.04895
 C1677 C 0.14143 0.03929 0.01685
 C1678 C 0.11948 0.03083 0.00819
 H1679 H 0.14360 0.00945 0.06961
 H1680 H 0.10361 -0.00571 0.05380
 H1681 H 0.08158 0.06405 0.04197
 H1682 H 0.12194 0.07960 0.05804
 H1683 H 0.15717 0.04201 0.00504
 H1684 H 0.11649 0.02634 -0.01098
 C1685 C 0.14179 0.54564 0.54412
 C1686 C 0.14207 0.51833 0.53701
 C1687 C 0.12019 0.50986 0.52824
 C1688 C 0.10004 0.52948 0.52738
 C1689 C 0.09879 0.53969 0.55363
 C1690 C 0.12055 0.54813 0.56236
 C1691 C 0.13286 0.55891 0.52085
 C1692 C 0.11111 0.55050 0.51213
 H1693 H 0.15810 0.50671 0.53862
 H1694 H 0.11753 0.49102 0.52236
 H1695 H 0.08212 0.54031 0.56443
 H1696 H 0.12246 0.55595 0.58058
 H1697 H 0.14282 0.57350 0.51172
 H1698 H 0.10280 0.55804 0.49570
 C1699 C 0.63932 0.04749 0.54699
 C1700 C 0.61830 0.06616 0.54838
 C1701 C 0.59655 0.05750 0.53971
 C1702 C 0.59754 0.03089 0.53045
 C1703 C 0.61817 0.03073 0.51131
 C1704 C 0.64001 0.03942 0.51995
 C1705 C 0.62957 0.02480 0.56084
 C1706 C 0.60785 0.01621 0.55222
 H1707 H 0.62029 0.08461 0.55564
 H1708 H 0.58006 0.06858 0.53956
 H1709 H 0.61582 0.02425 0.49262
 H1710 H 0.65628 0.04033 0.50858
 H1711 H 0.63880 0.01600 0.57611
 H1712 H 0.59898 0.00032 0.56026
 C1713 C 0.64036 0.54439 0.04598
 C1714 C 0.63077 0.52194 0.06013
 C1715 C 0.60887 0.51341 0.05181
 C1716 C 0.59840 0.52805 0.03002
 C1717 C 0.59765 0.55469 0.03914
 C1718 C 0.61952 0.56322 0.04749
 C1719 C 0.64075 0.53617 0.01900
 C1720 C 0.61878 0.52761 0.01065
 H1721 H 0.64031 0.51334 0.07532
 H1722 H 0.59997 0.49763 0.06002
 H1723 H 0.58122 0.56585 0.03923
 H1724 H 0.62174 0.58166 0.05469
 H1725 H 0.65694 0.53688 0.00752
 H1726 H 0.61620 0.52100 -0.00797
 C1727 C 0.04400 0.04329 0.14219
 C1728 C 0.03829 0.01563 0.14176
 C1729 C 0.02974 0.00735 0.11966
 C1730 C 0.02769 0.02746 0.10000
 C1731 C 0.01151 0.04728 0.11175
 C1732 C 0.01992 0.05551 0.13368
 C1733 C 0.06184 0.04729 0.12081
 C1734 C 0.05334 0.03901 0.09885
 H1735 H 0.04063 0.00364 0.15746
 H1736 H 0.02479 -0.01168 0.11652
 H1737 H -0.00547 0.05399 0.10387
 H1738 H 0.00984 0.06911 0.14411
 H1739 H 0.07968 0.05591 0.12274
 H1740 H 0.06396 0.04054 0.08211
 C1741 C 0.04344 0.54416 0.64164
 C1742 C 0.01584 0.53853 0.64112
 C1743 C 0.00761 0.53011 0.61896
 C1744 C 0.02774 0.52812 0.59938
 C1745 C 0.03933 0.55380 0.59837
 C1746 C 0.04753 0.56216 0.62041
 C1747 C 0.05565 0.52015 0.63314
 C1748 C 0.04749 0.51182 0.61114
 H1749 H 0.00386 0.54086 0.65680
 H1750 H -0.01140 0.52524 0.61572
 H1751 H 0.04096 0.56451 0.58168
 H1752 H 0.05616 0.57998 0.62252
 H1753 H 0.06928 0.51015 0.64361
 H1754 H 0.05428 0.49490 0.60318
 C1755 C 0.54408 0.04614 0.64015
 C1756 C 0.52104 0.05963 0.63079
 C1757 C 0.51266 0.05133 0.60883
 C1758 C 0.52790 0.03023 0.59799
 C1759 C 0.55419 0.04021 0.59717
 C1760 C 0.56263 0.04854 0.61912
 C1761 C 0.53672 0.01889 0.64024
 C1762 C 0.52825 0.01057 0.61817
 H1763 H 0.51182 0.07431 0.64052
 H1764 H 0.49651 0.05905 0.60020
 H1765 H 0.56519 0.04083 0.58063
 H1766 H 0.58085 0.05627 0.62125
 H1767 H 0.53792 0.00718 0.65628
 H1768 H 0.52223 -0.00821 0.61538
 C1769 C 0.54408 0.54545 0.14052
 C1770 C 0.52125 0.55906 0.13108
 C1771 C 0.51283 0.55069 0.10918
 C1772 C 0.52791 0.52937 0.09851
 C1773 C 0.55429 0.53912 0.09766
 C1774 C 0.56272 0.54754 0.11957
 C1775 C 0.53656 0.51827 0.14083
 C1776 C 0.52807 0.50984 0.11881
 H1777 H 0.51222 0.57389 0.14076
 H1778 H 0.49676 0.55851 0.10047
 H1779 H 0.56537 0.53949 0.08116
 H1780 H 0.58100 0.55510 0.12177
 H1781 H 0.53769 0.50671 0.15698
 H1782 H 0.52194 0.49108 0.11614
 C1783 C 0.20565 0.54423 0.60917
 C1784 C 0.22917 0.55691 0.61840
 C1785 C 0.23746 0.54827 0.64019
 C1786 C 0.22162 0.52760 0.65104
 C1787 C 0.19566 0.53838 0.65213
 C1788 C 0.18734 0.54707 0.63030
 C1789 C 0.21204 0.51676 0.60877
 C1790 C 0.22042 0.50804 0.63072
 H1791 H 0.23885 0.57122 0.60857
 H1792 H 0.25407 0.55533 0.64860
 H1793 H 0.18475 0.53915 0.66874
 H1794 H 0.16935 0.55525 0.62828
 H1795 H 0.21023 0.50523 0.59263
 H1796 H 0.22578 0.48907 0.63334
 C1797 C 0.20409 0.04256 0.10714
 C1798 C 0.19194 0.01834 0.11530
 C1799 C 0.20051 0.00959 0.13696
 C1800 C 0.22055 0.02568 0.14870
 C1801 C 0.24032 0.02803 0.12881
 C1802 C 0.23170 0.03688 0.10702
 C1803 C 0.20047 0.06010 0.12891
 C1804 C 0.20909 0.05131 0.15053
 H1805 H 0.17811 0.00851 0.10487
 H1806 H 0.19389 -0.00751 0.14466
 H1807 H 0.25934 0.02301 0.13156
 H1808 H 0.24342 0.03942 0.09117
 H1809 H 0.19180 0.07796 0.12747
 H1810 H 0.20780 0.06167 0.16750
 C1811 C 0.70265 0.20516 0.64047
 C1812 C 0.68858 0.22765 0.63080
 C1813 C 0.69678 0.23606 0.60884
 C1814 C 0.71839 0.22132 0.59834
 C1815 C 0.73785 0.22174 0.61874
 C1816 C 0.72961 0.21328 0.64078
 C1817 C 0.70096 0.18626 0.61961
 C1818 C 0.70919 0.19468 0.59765
 H1819 H 0.67347 0.23636 0.64030
 H1820 H 0.68854 0.25179 0.59990
 H1821 H 0.75645 0.22823 0.61611
 H1822 H 0.74119 0.21254 0.65696
 H1823 H 0.69380 0.16782 0.62190
 H1824 H 0.70907 0.18343 0.58123
 C1825 C 0.70694 0.70572 0.14111
 C1826 C 0.68839 0.70325 0.12005
 C1827 C 0.69683 0.71148 0.09811
 C1828 C 0.72313 0.72149 0.09902
 C1829 C 0.72275 0.74123 0.11917
 C1830 C 0.71426 0.73297 0.14121
 C1831 C 0.72993 0.69222 0.13191
 C1832 C 0.73836 0.70043 0.10998
 H1833 H 0.67017 0.69558 0.12219
 H1834 H 0.68579 0.71084 0.08154
 H1835 H 0.72874 0.76000 0.11639
 H1836 H 0.71299 0.74470 0.15725
 H1837 H 0.73908 0.67759 0.14179
 H1838 H 0.75456 0.69271 0.10147
 C1839 C 0.54516 0.70607 0.10757
 C1840 C 0.51763 0.71196 0.10743
 C1841 C 0.50913 0.72077 0.12929
 C1842 C 0.52896 0.72285 0.14926
 C1843 C 0.54021 0.69708 0.15086
 C1844 C 0.54867 0.68834 0.12913
 C1845 C 0.55754 0.73009 0.11600
 C1846 C 0.54910 0.73880 0.13771
 H1847 H 0.50590 0.70953 0.09153
 H1848 H 0.49014 0.72588 0.13206
 H1849 H 0.54142 0.68659 0.16773
 H1850 H 0.55712 0.67041 0.12745
 H1851 H 0.57148 0.73979 0.10569
 H1852 H 0.55596 0.75576 0.14560
 C1853 C 0.04622 0.70634 0.60848
 C1854 C 0.06405 0.70303 0.63001
 C1855 C 0.05545 0.71169 0.65173
 C1856 C 0.02971 0.72292 0.65014
 C1857 C 0.03163 0.74260 0.63007
 C1858 C 0.04030 0.73391 0.60823
 C1859 C 0.02231 0.69399 0.61702
 C1860 C 0.01374 0.70261 0.63871
 H1861 H 0.08195 0.69457 0.62832
 H1862 H 0.06603 0.71062 0.66857
 H1863 H 0.02654 0.76165 0.63276
 H1864 H 0.04262 0.74554 0.59226
 H1865 H 0.01257 0.67993 0.60682
 H1866 H -0.00315 0.69579 0.64664
 C1867 C 0.54453 0.60904 0.20518
 C1868 C 0.52068 0.61759 0.19268
 C1869 C 0.51223 0.63944 0.20100
 C1870 C 0.52825 0.65100 0.22118
 C1871 C 0.53004 0.63117 0.24113
 C1872 C 0.53857 0.60917 0.23274
 C1873 C 0.56250 0.63040 0.20162
 C1874 C 0.55402 0.65228 0.20998
 H1875 H 0.51088 0.60725 0.17874
 H1876 H 0.49541 0.64742 0.19404
 H1877 H 0.52495 0.63414 0.26013
 H1878 H 0.54079 0.59333 0.24457
 H1879 H 0.58040 0.62848 0.19322
 H1880 H 0.56471 0.66903 0.20871
 C1881 C 0.04498 0.60883 0.70609
 C1882 C 0.05820 0.61786 0.72942
 C1883 C 0.05015 0.63990 0.73775
 C1884 C 0.02953 0.65112 0.72209
 C1885 C 0.03999 0.65188 0.69595
 C1886 C 0.04805 0.62983 0.68762
 C1887 C 0.01766 0.60909 0.71286
 C1888 C 0.00957 0.63124 0.72124
 H1889 H 0.07250 0.60778 0.73885
 H1890 H 0.05771 0.64833 0.75415
 H1891 H 0.04105 0.66843 0.68496
 H1892 H 0.05599 0.62756 0.66952
 H1893 H 0.00576 0.59320 0.71131
 H1894 H -0.00923 0.63428 0.72686
 C1895 C 0.04443 0.14195 0.04540
 C1896 C 0.01675 0.14195 0.04001
 C1897 C 0.00808 0.12005 0.03133
 C1898 C 0.02787 0.10017 0.02883
 C1899 C 0.04761 0.11186 0.01250
 C1900 C 0.05621 0.13358 0.02105
 C1901 C 0.04836 0.12034 0.06301
 C1902 C 0.03971 0.09859 0.05438
 H1903 H 0.00501 0.15778 0.04265
 H1904 H -0.01101 0.11720 0.02657
 H1905 H 0.05397 0.10412 -0.00469
 H1906 H 0.06975 0.14399 0.01087
 H1907 H 0.05719 0.12198 0.08080
 H1908 H 0.04113 0.08172 0.06482
 C1909 C 0.04495 0.64187 0.54452
 C1910 C 0.06274 0.62032 0.54756
 C1911 C 0.05391 0.59864 0.53896
 C1912 C 0.02800 0.60028 0.52807
 C1913 C 0.01241 0.61167 0.54863
 C1914 C 0.02124 0.63336 0.55720
 C1915 C 0.03857 0.64218 0.51703
 C1916 C 0.02968 0.62038 0.50840
 H1917 H 0.08076 0.62194 0.55584
 H1918 H 0.06442 0.58178 0.53990
 H1919 H -0.00435 0.60367 0.55570
 H1920 H 0.01188 0.64355 0.57147
 H1921 H 0.04073 0.65817 0.50540
 H1922 H 0.02424 0.61774 0.48943
 C1923 C 0.54459 0.14167 0.54496
 C1924 C 0.51744 0.14206 0.53748
 C1925 C 0.50900 0.12009 0.52880
 C1926 C 0.52851 0.09978 0.52846
 C1927 C 0.54972 0.11056 0.51340
 C1928 C 0.55808 0.13235 0.52196
 C1929 C 0.54671 0.12060 0.56349
 C1930 C 0.53828 0.09874 0.55488
 H1931 H 0.50590 0.15819 0.53880
 H1932 H 0.49026 0.11745 0.52270
 H1933 H 0.55747 0.10204 0.49718
 H1934 H 0.57282 0.14206 0.51283
 H1935 H 0.55421 0.12269 0.58183
 H1936 H 0.53859 0.08217 0.56588
 C1937 C 0.54701 0.64021 0.04439
 C1938 C 0.56122 0.63009 0.02222
 C1939 C 0.55283 0.60812 0.01396
 C1940 C 0.53088 0.59802 0.02852
 C1941 C 0.53972 0.59762 0.05529
 C1942 C 0.54817 0.61962 0.06356
 C1943 C 0.52015 0.64068 0.03591
 C1944 C 0.51171 0.61860 0.02759
 H1945 H 0.57657 0.63931 0.01359
 H1946 H 0.56115 0.59893 -0.00159
 H1947 H 0.53945 0.58135 0.06673
 H1948 H 0.55513 0.62210 0.08207
 H1949 H 0.50879 0.65698 0.03631
 H1950 H 0.49315 0.61605 0.02090
 C1951 C 0.70271 0.11017 0.54624
 C1952 C 0.71017 0.10957 0.51904
 C1953 C 0.71914 0.13137 0.51055
 C1954 C 0.71981 0.15182 0.53000
 C1955 C 0.69345 0.15326 0.53971
 C1956 C 0.68454 0.13157 0.54823
 C1957 C 0.72589 0.11937 0.55977
 C1958 C 0.73470 0.14100 0.55132
 H1959 H 0.70865 0.09341 0.50748
 H1960 H 0.72525 0.13380 0.49179
 H1961 H 0.68271 0.16997 0.53992
 H1962 H 0.66620 0.12985 0.55571
 H1963 H 0.73494 0.10979 0.57467
 H1964 H 0.75098 0.14940 0.55912
 C1965 C 0.70396 0.60922 0.04236
 C1966 C 0.70242 0.63039 0.06088
 C1967 C 0.71099 0.65208 0.05218
 C1968 C 0.72037 0.65084 0.02567
 C1969 C 0.73958 0.63029 0.02577
 C1970 C 0.73098 0.60849 0.03451
 C1971 C 0.69015 0.61856 0.01957
 C1972 C 0.69871 0.64030 0.01086
 H1973 H 0.69505 0.62852 0.07926
 H1974 H 0.71094 0.66871 0.06317
 H1975 H 0.75824 0.63264 0.01937
 H1976 H 0.74231 0.59219 0.03558
 H1977 H 0.67508 0.60892 0.01082
 H1978 H 0.69084 0.64896 -0.00523
 C1979 C 0.20510 0.64099 0.70642
 C1980 C 0.20217 0.61974 0.68814
 C1981 C 0.21031 0.59784 0.69675
 C1982 C 0.22070 0.59899 0.72295
 C1983 C 0.24058 0.61895 0.72203
 C1984 C 0.23240 0.64095 0.71337
 C1985 C 0.19187 0.63220 0.72976
 C1986 C 0.19999 0.61030 0.73836
 H1987 H 0.19426 0.62173 0.66997
 H1988 H 0.20935 0.58115 0.68592
 H1989 H 0.25938 0.61607 0.72781
 H1990 H 0.24423 0.65687 0.71174
 H1991 H 0.17750 0.64234 0.73900
 H1992 H 0.19246 0.60206 0.75481
 C1993 C 0.20605 0.14011 0.20371
 C1994 C 0.18761 0.11897 0.20120
 C1995 C 0.19611 0.09711 0.20951
 C1996 C 0.22236 0.09818 0.21963
 C1997 C 0.23761 0.10918 0.19856
 C1998 C 0.22908 0.13108 0.19025
 C1999 C 0.21330 0.14030 0.23099
 C2000 C 0.22182 0.11833 0.23933
 H2001 H 0.16942 0.12098 0.19340
 H2002 H 0.18515 0.08049 0.20882
 H2003 H 0.25384 0.10069 0.19089
 H2004 H 0.23812 0.14104 0.17562
 H2005 H 0.21197 0.15637 0.24268
 H2006 H 0.22777 0.11560 0.25813
 C2007 C 0.70496 1.14126 0.70557
 C2008 C 0.73239 1.14144 0.71199
 C2009 C 0.74086 1.11951 0.72063
 C2010 C 0.72111 1.09942 0.72200
 C2011 C 0.70066 1.11066 0.73775
 C2012 C 0.69227 1.13244 0.72923
 C2013 C 0.70183 1.11993 0.68744
 C2014 C 0.71027 1.09812 0.69599
 H2015 H 0.74408 1.15742 0.71002
 H2016 H 0.75978 1.11676 0.72605
 H2017 H 0.69359 1.10252 0.75445
 H2018 H 0.67811 1.14253 0.73885
 H2019 H 0.69365 1.12181 0.66937
 H2020 H 0.70930 1.08140 0.68521
 C2021 C 0.70650 0.64282 0.20662
 C2022 C 0.73385 0.64292 0.21337
 C2023 C 0.74222 0.62091 0.22187
 C2024 C 0.72245 0.60084 0.22280
 C2025 C 0.70179 0.61197 0.23842
 C2026 C 0.69348 0.63386 0.22999
 C2027 C 0.70358 0.62165 0.18825
 C2028 C 0.71191 0.59977 0.19667
 H2029 H 0.74557 0.65892 0.21174
 H2030 H 0.76107 0.61811 0.22750
 H2031 H 0.69448 0.60366 0.25493
 H2032 H 0.67919 0.64392 0.23943
 H2033 H 0.69555 0.62368 0.17013
 H2034 H 0.71101 0.58313 0.18574
 C2035 C 0.54394 0.10826 0.70478
 C2036 C 0.56195 0.12969 0.70196
 C2037 C 0.55337 0.15137 0.71073
 C2038 C 0.52747 0.14985 0.72160
 C2039 C 0.51169 0.13876 0.70096
 C2040 C 0.52024 0.11711 0.69222
 C2041 C 0.53766 0.10774 0.73227
 C2042 C 0.52902 0.12955 0.74109
 H2043 H 0.57996 0.12797 0.69374
 H2044 H 0.56408 0.16815 0.71001
 H2045 H 0.49495 0.14689 0.69398
 H2046 H 0.51061 0.10712 0.67793
 H2047 H 0.53973 0.09164 0.74375
 H2048 H 0.52371 0.13207 0.76009
 C2049 C 1.04279 0.10670 0.20543
 C2050 C 1.01926 0.11543 0.19248
 C2051 C 1.01067 0.13724 0.20085
 C2052 C 1.02627 0.14855 0.22153
 C2053 C 1.02755 0.12850 0.24129
 C2054 C 1.03622 0.10657 0.23285
 C2055 C 1.06088 0.12806 0.20251
 C2056 C 1.05228 0.14986 0.21091
 H2057 H 1.00983 0.10527 0.17816
 H2058 H 0.99406 0.14538 0.19358
 H2059 H 1.02204 0.13127 0.26020
 H2060 H 1.03812 0.09061 0.24457
 H2061 H 1.07894 0.12620 0.19445
 H2062 H 1.06302 0.16661 0.21002
 C2063 C 0.20657 0.60937 0.54604
 C2064 C 0.18807 0.63044 0.54824
 C2065 C 0.19661 0.65233 0.53993
 C2066 C 0.22295 0.65134 0.53017
 C2067 C 0.23803 0.64050 0.55145
 C2068 C 0.22950 0.61862 0.55971
 C2069 C 0.21401 0.60910 0.51886
 C2070 C 0.22259 0.63108 0.51054
 H2071 H 0.16981 0.62835 0.55577
 H2072 H 0.18565 0.66890 0.54038
 H2073 H 0.25414 0.64910 0.55937
 H2074 H 0.23849 0.60886 0.57452
 H2075 H 0.21273 0.59300 0.50720
 H2076 H 0.22864 0.63377 0.49179
 C2077 C 0.20419 0.10914 1.04711
 C2078 C 0.21248 0.10912 1.02019
 C2079 C 0.22100 0.13126 1.01225
 C2080 C 0.22046 0.15145 1.03194
 C2081 C 0.19380 0.15200 1.04088
 C2082 C 0.18532 0.12993 1.04882
 C2083 C 0.22656 0.11872 1.06153
 C2084 C 0.23502 0.14077 1.05363
 H2085 H 0.21179 0.09306 1.00842
 H2086 H 0.22760 0.13411 0.99370
 H2087 H 0.18258 0.16840 1.04104
 H2088 H 0.16686 0.12751 1.05577
 H2089 H 0.23517 0.10910 1.07666
 H2090 H 0.25069 0.14963 1.06213
 C2091 C 0.20653 0.70476 0.64128
 C2092 C 0.23381 0.71175 0.64165
 C2093 C 0.24236 0.72014 0.61967
 C2094 C 0.22284 0.72075 0.59932
 C2095 C 0.21258 0.69451 0.59834
 C2096 C 0.20404 0.68617 0.62022
 C2097 C 0.19342 0.72793 0.63189
 C2098 C 0.20189 0.73623 0.61007
 H2099 H 0.24537 0.71031 0.65780
 H2100 H 0.26121 0.72587 0.61705
 H2101 H 0.21204 0.68344 0.58179
 H2102 H 0.19621 0.66799 0.62233
 H2103 H 0.17882 0.73732 0.64155
 H2104 H 0.19437 0.75252 0.60150
 C2105 C 0.20211 0.20526 1.14210
 C2106 C 0.18809 0.22791 1.13261
 C2107 C 0.19651 0.23660 1.11082
 C2108 C 0.21823 0.22199 1.10034
 C2109 C 0.23750 0.22217 1.12090
 C2110 C 0.22908 0.21343 1.14274
 C2111 C 0.20059 0.18666 1.12092
 C2112 C 0.20903 0.19538 1.09919
 H2113 H 0.17293 0.23657 1.14209
 H2114 H 0.18842 0.25249 1.10202
 H2115 H 0.25610 0.22877 1.11853
 H2116 H 0.24054 0.21259 1.15901
 H2117 H 0.19332 0.16821 1.12279
 H2118 H 0.20898 0.18437 1.08259
 C2119 C 0.70681 0.54655 0.10805
 C2120 C 0.73003 0.55993 0.11700
 C2121 C 0.73880 0.55146 0.13877
 C2122 C 0.72362 0.53032 0.14972
 C2123 C 0.69742 0.54042 0.15110
 C2124 C 0.68866 0.54890 0.12939
 C2125 C 0.71396 0.51928 0.10759
 C2126 C 0.72276 0.51078 0.12941
 H2127 H 0.73901 0.57464 0.10709
 H2128 H 0.75518 0.55904 0.14717
 H2129 H 0.68669 0.54100 0.16783
 H2130 H 0.67048 0.55671 0.12760
 H2131 H 0.71238 0.50771 0.09144
 H2132 H 0.72871 0.49197 0.13192
 C2133 C 0.70468 1.04611 0.60865
 C2134 C 0.72830 1.05892 0.61742
 C2135 C 0.73729 1.05001 0.63886
 C2136 C 0.72194 1.02900 0.64975
 C2137 C 0.69592 1.03950 0.65173
 C2138 C 0.68693 1.04844 0.63031
 C2139 C 0.71133 1.01873 0.60763
 C2140 C 0.72039 1.00975 0.62918
 H2141 H 0.73750 1.07353 0.60755
 H2142 H 0.75401 1.05710 0.64699
 H2143 H 0.68545 1.03992 0.66863
 H2144 H 0.66882 1.05650 0.62893
 H2145 H 0.70921 1.00744 0.59135
 H2146 H 0.72603 0.99081 0.63134
 C2147 C 0.54568 0.20655 0.60913
 C2148 C 0.51848 0.21380 0.60874
 C2149 C 0.51003 0.22233 0.63069
 C2150 C 0.52955 0.22283 0.65103
 C2151 C 0.53953 0.19652 0.65203
 C2152 C 0.54796 0.18803 0.63019
 C2153 C 0.55910 0.22964 0.61845
 C2154 C 0.55069 0.23812 0.64031
 H2155 H 0.50693 0.21246 0.59258
 H2156 H 0.49126 0.22829 0.63329
 H2157 H 0.54001 0.18550 0.66860
 H2158 H 0.55564 0.16980 0.62812
 H2159 H 0.57380 0.23879 0.60871
 H2160 H 0.55832 0.25438 0.64892
 C2161 C 1.04596 0.20470 0.10852
 C2162 C 1.01871 0.21188 0.10804
 C2163 C 1.01015 0.22046 0.12995
 C2164 C 1.02958 0.22110 0.15037
 C2165 C 1.03966 0.19483 0.15150
 C2166 C 1.04821 0.18628 0.12971
 C2167 C 1.05922 0.22794 0.11789
 C2168 C 1.05069 0.23643 0.13968
 H2169 H 1.00717 0.21050 0.09186
 H2170 H 0.99136 0.22638 0.13246
 H2171 H 1.04011 0.18388 0.16811
 H2172 H 1.05597 0.16805 0.12780
 H2173 H 1.07387 0.23727 0.10823
 H2174 H 1.05818 0.25279 0.14823
 C2175 C 0.64092 0.20503 0.70717
 C2176 C 0.63240 0.19187 0.73067
 C2177 C 0.61073 0.20016 0.73956
 C2178 C 0.59938 0.22094 0.72426
 C2179 C 0.61942 0.24073 0.72303
 C2180 C 0.64120 0.23239 0.71406
 C2181 C 0.61944 0.20222 0.68920
 C2182 C 0.59779 0.21053 0.69810
 H2183 H 0.64259 0.17748 0.73985
 H2184 H 0.60271 0.19276 0.75618
 H2185 H 0.61676 0.25958 0.72883
 H2186 H 0.65715 0.24411 0.71217
 H2187 H 0.62110 0.19429 0.67100
 H2188 H 0.58097 0.20972 0.68747
 C2189 C 1.14064 0.20271 0.20725
 C2190 C 1.13167 0.18893 0.23019
 C2191 C 1.10992 0.19724 0.23903
 C2192 C 1.09903 0.21862 0.22416
 C2193 C 1.11930 0.23818 0.22381
 C2194 C 1.14110 0.22985 0.21495
 C2195 C 1.11938 0.20065 0.18890
 C2196 C 1.09770 0.20896 0.19771
 H2197 H 1.14155 0.17407 0.23895
 H2198 H 1.10149 0.18938 0.25522
 H2199 H 1.11678 0.25689 0.23014
 H2200 H 1.15721 0.24144 0.21369
 H2201 H 1.12120 0.19315 0.17054
 H2202 H 1.08102 0.20857 0.18685
 C2203 C 0.11151 0.70390 0.54504
 C2204 C 0.11133 0.73092 0.53700
 C2205 C 0.13339 0.73915 0.52862
 C2206 C 0.15365 0.71963 0.52903
 C2207 C 0.15427 0.71042 0.55565
 C2208 C 0.13229 0.70219 0.56400
 C2209 C 0.12112 0.68981 0.52254
 C2210 C 0.14306 0.69799 0.51421
 H2211 H 0.09523 0.74253 0.53775
 H2212 H 0.13613 0.75779 0.52221
 H2213 H 0.17065 0.71030 0.56694
 H2214 H 0.12993 0.69503 0.58241
 H2215 H 0.11158 0.67470 0.51374
 H2216 H 0.15192 0.68971 0.49845
 C2217 C 0.10914 0.20379 1.04495
 C2218 C 0.11864 0.18982 1.02231
 C2219 C 0.14052 0.19809 1.01389
 C2220 C 0.15110 0.21967 1.02878
 C2221 C 0.13080 0.23916 1.02856
 C2222 C 0.10882 0.23084 1.03705
 C2223 C 0.13001 0.20203 1.06377
 C2224 C 0.15189 0.21034 1.05534
 H2225 H 0.10904 0.17478 1.01345
 H2226 H 0.14929 0.18999 0.99799
 H2227 H 0.13346 0.25782 1.02220
 H2228 H 0.09269 0.24240 1.03795
 H2229 H 0.12779 0.19478 1.08217
 H2230 H 0.16833 0.21020 1.06655
 C2231 C 0.60896 0.54472 0.20416
 C2232 C 0.63001 0.56324 0.20173
 C2233 C 0.65187 0.55482 0.21015
 C2234 C 0.65087 0.52855 0.22029
 C2235 C 0.63071 0.52914 0.23990
 C2236 C 0.60875 0.53761 0.23145
 C2237 C 0.61813 0.52157 0.19082
 C2238 C 0.63997 0.51315 0.19922
 H2239 H 0.62793 0.58144 0.19395
 H2240 H 0.66843 0.56583 0.20955
 H2241 H 0.63342 0.52328 0.25872
 H2242 H 0.59270 0.53900 0.24306
 H2243 H 0.60828 0.51231 0.17619
 H2244 H 0.64846 0.49684 0.19164
 C2245 C 0.60823 1.04376 0.70304
 C2246 C 0.62935 1.06228 0.70133
 C2247 C 0.65106 1.05364 0.70994
 C2248 C 0.64988 1.02718 0.71954
 C2249 C 0.62940 1.02741 0.73882
 C2250 C 0.60759 1.03609 0.73018
 C2251 C 0.61759 1.02087 0.68939
 C2252 C 0.63930 1.01223 0.69799
 H2253 H 0.62743 1.08062 0.69387
 H2254 H 0.66764 1.06465 0.70983
 H2255 H 0.63180 1.02118 0.75756
 H2256 H 0.59136 1.03727 0.74156
 H2257 H 0.60798 1.01196 0.67438
 H2258 H 0.64792 0.99610 0.69019
 C2259 C 0.88951 0.45412 0.29770
 C2260 C 0.88004 0.47650 0.31214
 C2261 C 0.85845 0.48552 0.30369
 C2262 C 0.84807 0.47147 0.28147
 C2263 C 0.86877 0.47191 0.26242
 C2264 C 0.89046 0.46282 0.27091
 C2265 C 0.86832 0.43560 0.29849
 C2266 C 0.84672 0.44464 0.29000
 H2267 H 0.88941 0.48471 0.32769
 H2268 H 0.84970 0.50126 0.31213
 H2269 H 0.86659 0.47887 0.24390
 H2270 H 0.90679 0.46200 0.25964
 H2271 H 0.87012 0.41697 0.30524
 H2272 H 0.83012 0.43372 0.28949
 C2273 C 0.88918 0.95520 0.79754
 C2274 C 0.86835 0.93627 0.79821
 C2275 C 0.84661 0.94491 0.78968
 C2276 C 0.84747 0.97179 0.78128
 C2277 C 0.85753 0.98595 0.80359
 C2278 C 0.87927 0.97731 0.81207
 C2279 C 0.89002 0.96403 0.77079
 C2280 C 0.86819 0.97273 0.76228
 H2281 H 0.87049 0.91765 0.80488
 H2282 H 0.83024 0.93365 0.78905
 H2283 H 0.84847 1.00148 0.81209
 H2284 H 0.88846 0.98562 0.82767
 H2285 H 0.90640 0.96358 0.75956
 H2286 H 0.86590 0.97971 0.74379
 C2287 C 0.35957 0.29510 0.79609
 C2288 C 0.35880 0.26794 0.78848
 C2289 C 0.38056 0.25929 0.77980
 C2290 C 0.40110 0.27859 0.77953
 C2291 C 0.39057 0.30006 0.76455
 C2292 C 0.36892 0.30866 0.77317
 C2293 C 0.38072 0.29691 0.81461
 C2294 C 0.40237 0.28827 0.80597
 H2295 H 0.34253 0.25655 0.78972
 H2296 H 0.38291 0.24052 0.77360
 H2297 H 0.39917 0.30783 0.74840
 H2298 H 0.35936 0.32361 0.76423
 H2299 H 0.37885 0.30445 0.83295
 H2300 H 0.41898 0.28845 0.81693
 C2301 C 0.85953 0.29567 0.29432
 C2302 C 0.88055 0.29728 0.31301
 C2303 C 0.90221 0.28853 0.30450
 C2304 C 0.90108 0.27896 0.27801
 C2305 C 0.88042 0.25980 0.27805
 C2306 C 0.85865 0.26855 0.28660
 C2307 C 0.86915 0.30927 0.27153
 C2308 C 0.89081 0.30056 0.26304
 H2309 H 0.87859 0.30477 0.33136
 H2310 H 0.91873 0.28857 0.31558
 H2311 H 0.88268 0.24104 0.27179
 H2312 H 0.84230 0.25727 0.28766
 H2313 H 0.85976 0.32434 0.26260
 H2314 H 0.89961 0.30835 0.24700
 C2315 C 0.39313 0.79417 0.45513
 C2316 C 0.37178 0.81228 0.45268
 C2317 C 0.35017 0.80353 0.46128
 C2318 C 0.35166 0.77737 0.47159
 C2319 C 0.36261 0.76200 0.45059
 C2320 C 0.38424 0.77075 0.44202
 C2321 C 0.39373 0.78727 0.48247
 C2322 C 0.37198 0.77846 0.49111
 H2323 H 0.37351 0.83046 0.44477
 H2324 H 0.33345 0.81426 0.46074
 H2325 H 0.35437 0.74541 0.44325
 H2326 H 0.39416 0.76151 0.42748
 H2327 H 0.40987 0.78905 0.49398
 H2328 H 0.36951 0.77270 0.50999
 C2329 C 0.39126 0.29425 0.95804
 C2330 C 0.36969 0.29738 0.94025
 C2331 C 0.34807 0.28889 0.94909
 C2332 C 0.34978 0.27799 0.97501
 C2333 C 0.36976 0.25824 0.97324
 C2334 C 0.39151 0.26677 0.96433
 C2335 C 0.38292 0.30696 0.98186
 C2336 C 0.36127 0.29849 0.99070
 H2337 H 0.37126 0.30565 0.92222
 H2338 H 0.33119 0.28990 0.93858
 H2339 H 0.36707 0.23928 0.97865
 H2340 H 0.40742 0.25509 0.96210
 H2341 H 0.39321 0.32117 0.99130
 H2342 H 0.35338 0.30555 1.00753
 C2343 C 0.79441 0.45371 0.38996
 C2344 C 0.78679 0.48082 0.39038
 C2345 C 0.77813 0.48916 0.36845
 C2346 C 0.77791 0.46962 0.34810
 C2347 C 0.80432 0.46005 0.34708
 C2348 C 0.81293 0.45170 0.36890
 C2349 C 0.77156 0.43991 0.38063
 C2350 C 0.76296 0.44821 0.35877
 H2351 H 0.78798 0.49240 0.40654
 H2352 H 0.77190 0.50787 0.36586
 H2353 H 0.81529 0.45973 0.33051
 H2354 H 0.83124 0.44426 0.37096
 H2355 H 0.76272 0.42496 0.39031
 H2356 H 0.74693 0.44025 0.35006
 C2357 C 0.79534 0.95133 0.88892
 C2358 C 0.78668 0.97812 0.89004
 C2359 C 0.77752 0.98670 0.86840
 C2360 C 0.77784 0.96772 0.84755
 C2361 C 0.80458 0.95917 0.84611
 C2362 C 0.81370 0.95058 0.86764
 C2363 C 0.77296 0.93691 0.87944
 C2364 C 0.76383 0.94546 0.85784
 H2365 H 0.78755 0.98933 0.90649
 H2366 H 0.77057 1.00522 0.86635
 H2367 H 0.81540 0.95968 0.82947
 H2368 H 0.83229 0.94376 0.86933
 H2369 H 0.76487 0.92134 0.88880
 H2370 H 0.74806 0.93709 0.84902
 C2371 C 0.29565 0.79630 0.35938
 C2372 C 0.31390 0.79882 0.38069
 C2373 C 0.30537 0.79008 0.40239
 C2374 C 0.27928 0.77957 0.40102
 C2375 C 0.26377 0.80050 0.39016
 C2376 C 0.27230 0.80921 0.36847
 C2377 C 0.28887 0.76890 0.35879
 C2378 C 0.28030 0.76014 0.38061
 H2379 H 0.33199 0.80688 0.37889
 H2380 H 0.31622 0.79067 0.41909
 H2381 H 0.24733 0.80779 0.39858
 H2382 H 0.26301 0.82381 0.35868
 H2383 H 0.29057 0.75744 0.34260
 H2384 H 0.27468 0.74121 0.38306
 C2385 C 0.29612 0.29433 0.86099
 C2386 C 0.26894 0.28695 0.86034
 C2387 C 0.26033 0.27823 0.88215
 C2388 C 0.27970 0.27768 0.90263
 C2389 C 0.30094 0.26257 0.89192
 C2390 C 0.30949 0.27123 0.87021
 C2391 C 0.29821 0.31271 0.88224
 C2392 C 0.28964 0.30404 0.90395
 H2393 H 0.25749 0.28836 0.84411
 H2394 H 0.24155 0.27217 0.88456
 H2395 H 0.30854 0.24628 0.90043
 H2396 H 0.32428 0.26219 0.86052
 H2397 H 0.30587 0.33100 0.88039
 H2398 H 0.28997 0.31495 0.92062
 C2399 C 0.45298 0.29475 0.89135
 C2400 C 0.47985 0.28641 0.89175
 C2401 C 0.48810 0.27790 0.86972
 C2402 C 0.46874 0.27851 0.84922
 C2403 C 0.44692 0.26394 0.85956
 C2404 C 0.43871 0.27239 0.88151
 C2405 C 0.45160 0.31370 0.87057
 C2406 C 0.45985 0.30524 0.84861
 H2407 H 0.49136 0.28704 0.90799
 H2408 H 0.50664 0.27127 0.86714
 H2409 H 0.43855 0.24828 0.85054
 H2410 H 0.42346 0.26378 0.89088
 H2411 H 0.44464 0.33219 0.87291
 H2412 H 0.45994 0.31651 0.83223
 C2413 C 0.95255 0.29614 0.38960
 C2414 C 0.97939 0.28773 0.39036
 C2415 C 0.98776 0.27875 0.36855
 C2416 C 0.96854 0.27902 0.34791
 C2417 C 0.94662 0.26472 0.35837
 C2418 C 0.93829 0.27362 0.38008
 C2419 C 0.95137 0.31468 0.36845
 C2420 C 0.95975 0.30576 0.34672
 H2421 H 0.99079 0.28865 0.40666
 H2422 H 1.00629 0.27200 0.36623
 H2423 H 0.93828 0.24889 0.34960
 H2424 H 0.92295 0.26521 0.38950
 H2425 H 0.94447 0.33324 0.37038
 H2426 H 0.95999 0.31670 0.33013
 C2427 C 0.45341 0.38980 0.79605
 C2428 C 0.43508 0.36856 0.79852
 C2429 C 0.44368 0.34674 0.79008
 C2430 C 0.46988 0.34796 0.77994
 C2431 C 0.46908 0.36818 0.76032
 C2432 C 0.46041 0.39010 0.76876
 C2433 C 0.47666 0.38074 0.80932
 C2434 C 0.48520 0.35898 0.80095
 H2435 H 0.41690 0.37052 0.80626
 H2436 H 0.43282 0.33007 0.79062
 H2437 H 0.47486 0.36550 0.74147
 H2438 H 0.45879 0.40616 0.75714
 H2439 H 0.48595 0.39057 0.82394
 H2440 H 0.50157 0.35064 0.80854
 C2441 C 0.95351 0.38899 0.29599
 C2442 C 0.97643 0.37953 0.30954
 C2443 C 0.98509 0.35793 0.30085
 C2444 C 0.97021 0.34741 0.27927
 C2445 C 0.94378 0.34609 0.28881
 C2446 C 0.93507 0.36776 0.29757
 C2447 C 0.96112 0.38985 0.26886
 C2448 C 0.96988 0.36807 0.26010
 H2449 H 0.98540 0.38899 0.32460
 H2450 H 1.00124 0.34936 0.30864
 H2451 H 0.93285 0.32947 0.28873
 H2452 H 0.91673 0.36960 0.30496
 H2453 H 0.95979 0.40616 0.25756
 H2454 H 0.97606 0.36579 0.24133
 C2455 C 0.29726 0.89145 0.45625
 C2456 C 0.31086 0.88277 0.47942
 C2457 C 0.30254 0.86104 0.48840
 C2458 C 0.28130 0.84984 0.47345
 C2459 C 0.26175 0.87004 0.47267
 C2460 C 0.27010 0.89183 0.46367
 C2461 C 0.29946 0.86997 0.43816
 C2462 C 0.29113 0.84830 0.44711
 H2463 H 0.32562 0.89283 0.48822
 H2464 H 0.31030 0.85281 0.50477
 H2465 H 0.24303 0.86747 0.47882
 H2466 H 0.25850 0.90790 0.46211
 H2467 H 0.30707 0.87164 0.41985
 H2468 H 0.29161 0.83149 0.43643
 C2469 C 0.29496 0.39160 0.95744
 C2470 C 0.27108 0.38281 0.94509
 C2471 C 0.26259 0.36111 0.95371
 C2472 C 0.27858 0.34987 0.97404
 C2473 C 0.30435 0.34844 0.96286
 C2474 C 0.31288 0.37020 0.95419
 C2475 C 0.28902 0.39192 0.98500
 C2476 C 0.28042 0.37004 0.99371
 H2477 H 0.26124 0.39289 0.93106
 H2478 H 0.24570 0.35306 0.94691
 H2479 H 0.31501 0.33168 0.96187
 H2480 H 0.33080 0.37199 0.94579
 H2481 H 0.29129 0.40795 0.99662
 H2482 H 0.27533 0.36738 1.01275
 C2483 C 0.79587 0.36009 0.29485
 C2484 C 0.76894 0.35940 0.28662
 C2485 C 0.76053 0.38128 0.27783
 C2486 C 0.77981 0.40186 0.27812
 C2487 C 0.78887 0.40291 0.30481
 C2488 C 0.79728 0.38114 0.31353
 C2489 C 0.80990 0.36969 0.27228
 C2490 C 0.80154 0.39142 0.26360
 H2491 H 0.75753 0.34312 0.28753
 H2492 H 0.74193 0.38368 0.27123
 H2493 H 0.78872 0.41944 0.31591
 H2494 H 0.80431 0.37910 0.33206
 H2495 H 0.82507 0.36025 0.26360
 H2496 H 0.80969 0.40018 0.24771
   
