data_POSCAR
  _audit_creation_date              2014-09-24
  _audit_creation_method            'ToBaCCo'
  _symmetry_space_group_name_H-M    'P1'
  _symmetry_Int_Tables_number       1
  _symmetry_cell_setting            triclinic
  loop_
  _symmetry_equiv_pos_as_xyz
 x,y,z
_cell_length_a 54.2575
_cell_length_b 56.5469
_cell_length_c 56.7962
_cell_angle_alpha 90.190900
_cell_angle_beta 89.937200
_cell_angle_gamma 90.163500
loop_
  _atom_site_label
  _atom_site_type_symbol
  _atom_site_fract_x
  _atom_site_fract_y
  _atom_site_fract_z
C1 C 0.30723 0.33661 0.00993
 C2 C 0.30847 0.33668 -0.01509
 C3 C 0.32464 0.32060 -0.02621
 C4 C 0.34007 0.30532 -0.01340
 C5 C 0.33869 0.30572 0.01156
 C6 C 0.32216 0.32110 0.02271
 H7 H 0.32116 0.32126 0.04179
 H8 H 0.32558 0.32026 -0.04526
 C9 C 0.70700 0.67852 0.01421
 C10 C 0.70534 0.67546 -0.01040
 C11 C 0.68823 0.68876 -0.02320
 C12 C 0.67275 0.70552 -0.01219
 C13 C 0.67478 0.70859 0.01266
 C14 C 0.69212 0.69537 0.02535
 H15 H 0.69291 0.69709 0.04436
 H16 H 0.68787 0.68664 -0.04217
 C17 C 0.71518 0.31325 0.99059
 C18 C 0.71565 0.31470 1.01566
 C19 C 0.70004 0.29941 1.02850
 C20 C 0.68444 0.28303 1.01731
 C21 C 0.68451 0.28150 0.99248
 C22 C 0.69994 0.29649 0.97956
 H23 H 0.69936 0.29569 0.96048
 H24 H 0.70012 0.29997 1.04757
 C25 C 0.28160 0.68531 0.99192
 C26 C 0.28417 0.68175 1.01657
 C27 C 0.30244 0.69476 1.02868
 C28 C 0.31779 0.71134 1.01725
 C29 C 0.31510 0.71428 0.99252
 C30 C 0.29669 0.70178 0.98046
 H31 H 0.29550 0.70338 0.96146
 H32 H 0.30348 0.69316 1.04766
 C33 C 0.01040 0.29863 0.32961
 C34 C -0.01571 0.29853 0.33063
 C35 C -0.02893 0.31448 0.31660
 C36 C -0.01685 0.33052 0.30171
 C37 C 0.00916 0.33040 0.30052
 C38 C 0.02244 0.31442 0.31438
 H39 H 0.04241 0.31459 0.31364
 H40 H -0.04890 0.31465 0.31750
 C41 C 0.00724 0.69132 0.66511
 C42 C -0.01894 0.69033 0.66400
 C43 C -0.03132 0.67412 0.67869
 C44 C -0.01873 0.65887 0.69412
 C45 C 0.00749 0.65978 0.69457
 C46 C 0.01990 0.67601 0.68017
 H47 H 0.03988 0.67673 0.68064
 H48 H -0.05125 0.67332 0.67809
 C49 C 0.98874 0.70954 0.31818
 C50 C 1.01477 0.70994 0.31863
 C51 C 1.02801 0.69431 0.30421
 C52 C 1.01606 0.67775 0.28945
 C53 C 0.98979 0.67784 0.28875
 C54 C 0.97666 0.69371 0.30306
 H55 H 0.95668 0.69363 0.30252
 H56 H 1.04793 0.69439 0.30555
 C57 C 0.98686 0.29959 0.67558
 C58 C 1.01302 0.29963 0.67318
 C59 C 1.02686 0.31438 0.68829
 C60 C 1.01560 0.32845 0.70555
 C61 C 0.98964 0.32845 0.70765
 C62 C 0.97567 0.31369 0.69294
 H63 H 0.95572 0.31420 0.69408
 H64 H 1.04682 0.31419 0.68751
 C65 C 0.31913 0.01067 0.29545
 C66 C 0.32014 -0.01448 0.29567
 C67 C 0.30549 -0.02666 0.31222
 C68 C 0.29048 -0.01484 0.32875
 C69 C 0.28974 0.01027 0.32818
 C70 C 0.30382 0.02251 0.31149
 H71 H 0.30327 0.04169 0.31133
 H72 H 0.30614 -0.04580 0.31258
 C73 C 0.67885 0.00551 0.70741
 C74 C 0.68122 -0.01930 0.70926
 C75 C 0.69830 -0.03117 0.69498
 C76 C 0.71265 -0.01891 0.67841
 C77 C 0.70967 0.00587 0.67599
 C78 C 0.69304 0.01776 0.69076
 H79 H 0.69090 0.03674 0.68911
 H80 H 0.70017 -0.05019 0.69653
 C81 C 0.32309 0.98899 0.70427
 C82 C 0.32517 1.01408 0.70366
 C83 C 0.30987 1.02666 0.68804
 C84 C 0.29342 1.01518 0.67247
 C85 C 0.29227 0.99005 0.67289
 C86 C 0.30675 0.97751 0.68894
 H87 H 0.30562 0.95835 0.68920
 H88 H 0.31106 1.04577 0.68773
 C89 C 0.67703 0.98892 0.29730
 C90 C 0.67820 1.01378 0.29523
 C91 C 0.69350 1.02676 0.31044
 C92 C 0.70748 1.01579 0.32829
 C93 C 0.70603 0.99068 0.33027
 C94 C 0.69103 0.97779 0.31470
 H95 H 0.69019 0.95868 0.31620
 H96 H 0.69345 1.04586 0.30891
 O97 O 0.88897 0.85058 0.47554
 O98 O 0.85408 0.87848 0.52399
 O99 O 0.88790 0.84593 0.52074
 O100 O 0.85579 0.88395 0.47828
 O101 O 0.82669 0.85691 0.47438
 O102 O 0.85867 0.81897 0.51704
 O103 O 0.82495 0.85151 0.51994
 O104 O 0.85960 0.82378 0.47169
 Cu105 Cu 0.87453 0.86754 0.50001
 Cu106 Cu 0.83949 0.83516 0.49540
 C107 C 0.88033 0.83220 0.46554
 C108 C 0.83356 0.86965 0.53032
 C109 C 0.87895 0.82584 0.52596
 C110 C 0.83581 0.87688 0.46894
 O111 O 0.10759 0.14678 0.47746
 O112 O 0.14063 0.11395 0.52354
 O113 O 0.10753 0.14728 0.52329
 O114 O 0.14103 0.11383 0.47756
 O115 O 0.17071 0.14058 0.47816
 O116 O 0.13672 0.17451 0.52294
 O117 O 0.16976 0.14124 0.52387
 O118 O 0.13727 0.17351 0.47705
 Cu119 Cu 0.12127 0.12773 0.50047
 Cu120 Cu 0.15653 0.16018 0.50051
 C121 C 0.11682 0.16573 0.46930
 C122 C 0.16081 0.12200 0.53166
 C123 C 0.11637 0.16671 0.53087
 C124 C 0.16167 0.12145 0.47012
 O125 O 0.14759 0.87654 0.48101
 O126 O 0.11825 0.83870 0.52575
 O127 O 0.14786 0.87517 0.52692
 O128 O 0.11822 0.84009 0.47994
 O129 O 0.15024 0.81614 0.47930
 O130 O 0.18017 0.85161 0.52553
 O131 O 0.15058 0.81515 0.52515
 O132 O 0.17946 0.85242 0.47991
 Cu133 Cu 0.12975 0.86002 0.50355
 Cu134 Cu 0.16830 0.83142 0.50245
 C135 C 0.16851 0.87085 0.47270
 C136 C 0.12938 0.82041 0.53308
 C137 C 0.16921 0.86950 0.53409
 C138 C 0.12921 0.82211 0.47154
 O139 O 0.88005 0.15458 0.53000
 O140 O 0.84967 0.12021 0.48311
 O141 O 0.88337 0.15368 0.48426
 O142 O 0.84668 0.12164 0.52858
 O143 O 0.81808 0.14925 0.52678
 O144 O 0.85395 0.18033 0.48126
 O145 O 0.82039 0.14710 0.48099
 O146 O 0.85160 0.18220 0.52694
 Cu147 Cu 0.86789 0.13483 0.50661
 Cu148 Cu 0.83310 0.16743 0.50367
 C149 C 0.87106 0.17427 0.53648
 C150 C 0.82957 0.12753 0.47434
 C151 C 0.87499 0.17256 0.47526
 C152 C 0.82618 0.13006 0.53539
 O153 O 0.52020 0.84813 0.87906
 O154 O 0.47279 0.87800 0.84355
 O155 O 0.47207 0.84892 0.87899
 O156 O 0.52077 0.87734 0.84359
 O157 O 0.51950 0.84753 0.81846
 O158 O 0.47222 0.81833 0.85479
 O159 O 0.47168 0.84739 0.81940
 O160 O 0.52014 0.81826 0.85400
 Cu161 Cu 0.49655 0.86610 0.86380
 Cu162 Cu 0.49588 0.82984 0.83422
 C163 C 0.52833 0.82808 0.87257
 C164 C 0.46406 0.86776 0.82542
 C165 C 0.46387 0.82871 0.87298
 C166 C 0.52820 0.86745 0.82477
 O167 O 0.52111 0.14698 0.12120
 O168 O 0.47304 0.11797 0.15684
 O169 O 0.47342 0.14748 0.12153
 O170 O 0.52120 0.11749 0.15658
 O171 O 0.52163 0.14757 0.18140
 O172 O 0.47407 0.17740 0.14656
 O173 O 0.47360 0.14806 0.18163
 O174 O 0.52188 0.17683 0.14631
 Cu175 Cu 0.49714 0.12940 0.13659
 Cu176 Cu 0.49784 0.16542 0.16651
 C177 C 0.52958 0.16696 0.12759
 C178 C 0.46501 0.12812 0.17530
 C179 C 0.46574 0.16770 0.12799
 C180 C 0.52965 0.12748 0.17497
 O181 O 0.52522 0.12235 0.83966
 O182 O 0.47925 0.15525 0.87442
 O183 O 0.47747 0.12446 0.84027
 O184 O 0.52729 0.15337 0.87389
 O185 O 0.52893 0.18173 0.84736
 O186 O 0.47797 0.15384 0.81482
 O187 O 0.48132 0.18467 0.84903
 O188 O 0.52579 0.15099 0.81339
 Cu189 Cu 0.50222 0.13597 0.85969
 Cu190 Cu 0.50358 0.17070 0.82854
 C191 C 0.53315 0.13092 0.82042
 C192 C 0.47264 0.17571 0.86778
 C193 C 0.46919 0.13422 0.82178
 C194 C 0.53667 0.17251 0.86631
 O195 O 0.47622 0.85715 0.11507
 O196 O 0.52376 0.88979 0.14815
 O197 O 0.52446 0.85708 0.11558
 O198 O 0.47626 0.88986 0.14759
 O199 O 0.47587 0.86232 0.17501
 O200 O 0.52347 0.82923 0.14267
 O201 O 0.52366 0.86195 0.17527
 O202 O 0.47553 0.82969 0.14255
 Cu203 Cu 0.50024 0.87614 0.12875
 Cu204 Cu 0.49962 0.84299 0.16157
 C205 C 0.46762 0.83791 0.12320
 C206 C 0.53159 0.88162 0.16755
 C207 C 0.53216 0.83750 0.12362
 C208 C 0.46810 0.88187 0.16698
 O209 O 0.87739 0.51937 0.84855
 O210 O 0.84417 0.47553 0.88399
 O211 O 0.87696 0.47329 0.85026
 O212 O 0.84323 0.52115 0.88081
 O213 O 0.81437 0.51940 0.85353
 O214 O 0.84733 0.47130 0.82374
 O215 O 0.81483 0.47361 0.85717
 O216 O 0.84852 0.51738 0.82130
 Cu217 Cu 0.86342 0.49750 0.86855
 Cu218 Cu 0.82838 0.49527 0.83620
 C219 C 0.86872 0.52593 0.82889
 C220 C 0.82375 0.46724 0.87683
 C221 C 0.86773 0.46402 0.83181
 C222 C 0.82289 0.52834 0.87238
 O223 O 0.15282 0.47502 0.11997
 O224 O 0.11737 0.51910 0.15336
 O225 O 0.15245 0.52112 0.12187
 O226 O 0.11870 0.47320 0.15216
 O227 O 0.14690 0.47325 0.18012
 O228 O 0.18042 0.52093 0.15002
 O229 O 0.14562 0.51910 0.18127
 O230 O 0.18133 0.47503 0.14765
 Cu231 Cu 0.13254 0.49713 0.13401
 Cu232 Cu 0.16641 0.49696 0.16754
 C233 C 0.17318 0.46756 0.12800
 C234 C 0.12531 0.52657 0.17306
 C235 C 0.17221 0.52926 0.13085
 C236 C 0.12695 0.46523 0.17151
 O237 O 0.87671 0.47972 0.15617
 O238 O 0.83988 0.52350 0.12376
 O239 O 0.87386 0.52558 0.15614
 O240 O 0.84247 0.47724 0.12407
 O241 O 0.81417 0.47572 0.15192
 O242 O 0.84494 0.52435 0.18343
 O243 O 0.81102 0.52157 0.15108
 O244 O 0.84822 0.47841 0.18387
 Cu245 Cu 0.86105 0.50167 0.13722
 Cu246 Cu 0.82673 0.49991 0.17033
 C247 C 0.86881 0.47161 0.17561
 C248 C 0.81912 0.52998 0.13185
 C249 C 0.86474 0.53319 0.17534
 C250 C 0.82302 0.46809 0.13264
 O251 O 0.16036 0.52763 0.87189
 O252 O 0.13035 0.47975 0.83815
 O253 O 0.16060 0.48155 0.87367
 O254 O 0.12925 0.52550 0.83679
 O255 O 0.16081 0.52567 0.81226
 O256 O 0.19171 0.48079 0.84864
 O257 O 0.16152 0.47968 0.81318
 O258 O 0.19188 0.52665 0.84735
 Cu259 Cu 0.14203 0.50371 0.85765
 Cu260 Cu 0.17961 0.50321 0.82787
 C261 C 0.18144 0.53512 0.86551
 C262 C 0.14077 0.47164 0.81978
 C263 C 0.18146 0.47353 0.86742
 C264 C 0.13954 0.53299 0.81815
 C265 C 0.29775 0.37814 0.02246
 C266 C 0.28447 0.39419 0.03628
 C267 C 0.26569 0.38623 0.05135
 C268 C 0.26076 0.36183 0.05275
 C269 C 0.27421 0.34580 0.03915
 C270 C 0.29262 0.35384 0.02376
 C271 C 0.25221 0.40357 0.06604
 C272 C 0.22859 0.40053 0.07228
 C273 C 0.21491 0.41789 0.08674
 C274 C 0.18955 0.42065 0.08299
 C275 C 0.17602 0.43683 0.09636
 C276 C 0.18751 0.45018 0.11417
 C277 C 0.21281 0.44702 0.11833
 C278 C 0.22643 0.43111 0.10466
 H279 H 0.31217 0.38460 0.01094
 H280 H 0.28877 0.41287 0.03512
 H281 H 0.24692 0.35505 0.06471
 H282 H 0.27028 0.32706 0.04059
 H283 H 0.26165 0.41981 0.07079
 H284 H 0.21839 0.38552 0.06544
 H285 H 0.18024 0.41047 0.06945
 H286 H 0.15652 0.43878 0.09287
 H287 H 0.22212 0.45704 0.13196
 H288 H 0.24585 0.42890 0.10837
 C289 C 0.74143 0.67189 0.04282
 C290 C 0.75618 0.65671 0.05614
 C291 C 0.75166 0.63224 0.05616
 C292 C 0.73240 0.62315 0.04222
 C293 C 0.71788 0.63827 0.02873
 C294 C 0.72233 0.66272 0.02887
 C295 C 0.76776 0.61651 0.07012
 C296 C 0.75953 0.59640 0.07983
 C297 C 0.77544 0.58022 0.09346
 C298 C 0.76480 0.56641 0.11126
 C299 C 0.77906 0.55035 0.12396
 C300 C 0.80419 0.54740 0.11874
 C301 C 0.81482 0.56107 0.10074
 C302 C 0.80062 0.57739 0.08827
 H303 H 0.74515 0.69072 0.04306
 H304 H 0.77104 0.66408 0.06658
 H305 H 0.72884 0.60432 0.04132
 H306 H 0.70320 0.63090 0.01806
 H307 H 0.78653 0.62224 0.07330
 H308 H 0.74012 0.59200 0.07867
 H309 H 0.74539 0.56811 0.11541
 H310 H 0.77031 0.53997 0.13762
 H311 H 0.83412 0.55914 0.09628
 H312 H 0.80924 0.58732 0.07422
 C313 C 0.74257 0.32295 0.95642
 C314 C 0.75379 0.33928 0.94142
 C315 C 0.75054 0.36362 0.94500
 C316 C 0.73522 0.37139 0.96345
 C317 C 0.72369 0.35504 0.97822
 C318 C 0.72761 0.33070 0.97509
 C319 C 0.76284 0.38044 0.92894
 C320 C 0.77107 0.40158 0.93619
 C321 C 0.78440 0.41802 0.92051
 C322 C 0.80279 0.43259 0.93009
 C323 C 0.81577 0.44835 0.91580
 C324 C 0.81021 0.45022 0.89172
 C325 C 0.79145 0.43595 0.88219
 C326 C 0.77873 0.41989 0.89643
 H327 H 0.74562 0.30424 0.95354
 H328 H 0.76532 0.33292 0.92717
 H329 H 0.73174 0.39003 0.96619
 H330 H 0.71166 0.36137 0.99209
 H331 H 0.76671 0.37455 0.91115
 H332 H 0.76955 0.40638 0.95462
 H333 H 0.80730 0.43159 0.94863
 H334 H 0.82997 0.45929 0.92368
 H335 H 0.78670 0.43711 0.86372
 H336 H 0.76420 0.40928 0.88867
 C337 C 0.24804 0.67817 0.96239
 C338 C 0.23411 0.66286 0.94827
 C339 C 0.23916 0.63852 0.94792
 C340 C 0.25796 0.62966 0.96242
 C341 C 0.27167 0.64491 0.97670
 C342 C 0.26676 0.66925 0.97685
 C343 C 0.22431 0.62268 0.93272
 C344 C 0.23391 0.60338 0.92253
 C345 C 0.21959 0.58708 0.90738
 C346 C 0.23205 0.57424 0.88991
 C347 C 0.21950 0.55780 0.87597
 C348 C 0.19425 0.55349 0.87953
 C349 C 0.18172 0.56632 0.89705
 C350 C 0.19425 0.58304 0.91081
 H351 H 0.24404 0.69693 0.96230
 H352 H 0.21960 0.67004 0.93736
 H353 H 0.26189 0.61091 0.96303
 H354 H 0.28613 0.63773 0.98768
 H355 H 0.20550 0.62774 0.92891
 H356 H 0.25342 0.59985 0.92446
 H357 H 0.25162 0.57691 0.88707
 H358 H 0.22972 0.54809 0.86273
 H359 H 0.16229 0.56331 0.90025
 H360 H 0.18422 0.59222 0.92453
 C361 C 0.04300 0.29330 0.36001
 C362 C 0.05687 0.27911 0.37503
 C363 C 0.05373 0.25445 0.37512
 C364 C 0.03678 0.24421 0.35924
 C365 C 0.02286 0.25848 0.34421
 C366 C 0.02566 0.28315 0.34471
 C367 C 0.06874 0.24038 0.39182
 C368 C 0.06347 0.21809 0.39822
 C369 C 0.07790 0.20477 0.41599
 C370 C 0.06684 0.18526 0.42704
 C371 C 0.07950 0.17248 0.44422
 C372 C 0.10359 0.17891 0.45072
 C373 C 0.11490 0.19811 0.43934
 C374 C 0.10230 0.21080 0.42206
 H375 H 0.04547 0.31231 0.36064
 H376 H 0.06990 0.28749 0.38687
 H377 H 0.03432 0.22527 0.35810
 H378 H 0.00986 0.25029 0.33221
 H379 H 0.08394 0.24951 0.40017
 H380 H 0.04709 0.20957 0.39139
 H381 H 0.04818 0.18006 0.42259
 H382 H 0.07029 0.15771 0.45258
 H383 H 0.13358 0.20330 0.44371
 H384 H 0.11196 0.22509 0.41341
 C385 C 0.01764 0.73336 0.65506
 C386 C 0.03080 0.74992 0.64180
 C387 C 0.04883 0.74257 0.62559
 C388 C 0.05346 0.71818 0.62300
 C389 C 0.04036 0.70167 0.63633
 C390 C 0.02208 0.70910 0.65215
 C391 C 0.06127 0.76070 0.61088
 C392 C 0.08245 0.75689 0.59925
 C393 C 0.09421 0.77432 0.58325
 C394 C 0.11881 0.77067 0.57649
 C395 C 0.13033 0.78579 0.56047
 C396 C 0.11747 0.80495 0.55076
 C397 C 0.09291 0.80878 0.55761
 C398 C 0.08133 0.79358 0.57356
 H399 H 0.00369 0.73942 0.66732
 H400 H 0.02674 0.76853 0.64406
 H401 H 0.06655 0.71159 0.61024
 H402 H 0.04389 0.68300 0.63374
 H403 H 0.05267 0.77791 0.61010
 H404 H 0.09212 0.74039 0.60173
 H405 H 0.12912 0.75591 0.58350
 H406 H 0.14927 0.78234 0.55554
 H407 H 0.08243 0.82326 0.55028
 H408 H 0.06216 0.79672 0.57762
 C409 C 0.95528 0.73939 0.32417
 C410 C 0.94115 0.75398 0.33877
 C411 C 0.94539 0.75459 0.36312
 C412 C 0.96348 0.73973 0.37277
 C413 C 0.97732 0.72488 0.35822
 C414 C 0.97366 0.72490 0.33375
 C415 C 0.92996 0.76996 0.37818
 C416 C 0.93847 0.78002 0.39797
 C417 C 0.92287 0.79442 0.41384
 C418 C 0.93394 0.81195 0.42784
 C419 C 0.91997 0.82483 0.44411
 C420 C 0.89472 0.82006 0.44700
 C421 C 0.88360 0.80262 0.43285
 C422 C 0.89750 0.78995 0.41640
 H423 H 0.95201 0.73953 0.30536
 H424 H 0.92707 0.76503 0.33101
 H425 H 0.96657 0.73916 0.39158
 H426 H 0.99084 0.71329 0.36608
 H427 H 0.91142 0.77373 0.37227
 H428 H 0.95776 0.77819 0.40251
 H429 H 0.95350 0.81555 0.42631
 H430 H 0.92909 0.83804 0.45488
 H431 H 0.86420 0.79847 0.43475
 H432 H 0.88849 0.77613 0.40635
 C433 C 0.97150 0.29368 0.63447
 C434 C 0.95668 0.28185 0.61812
 C435 C 0.94081 0.26364 0.62538
 C436 C 0.93920 0.25815 0.64948
 C437 C 0.95379 0.27022 0.66588
 C438 C 0.97043 0.28769 0.65840
 C439 C 0.92611 0.25086 0.60747
 C440 C 0.92067 0.22781 0.60931
 C441 C 0.90756 0.21451 0.59065
 C442 C 0.91302 0.19051 0.58730
 C443 C 0.90127 0.17747 0.56963
 C444 C 0.88341 0.18809 0.55524
 C445 C 0.87752 0.21200 0.55894
 C446 C 0.88953 0.22512 0.57642
 H447 H 0.98399 0.30737 0.62846
 H448 H 0.95800 0.28655 0.59969
 H449 H 0.92660 0.24466 0.65569
 H450 H 0.95254 0.26559 0.68433
 H451 H 0.92143 0.26025 0.59150
 H452 H 0.92768 0.21787 0.62413
 H453 H 0.92669 0.18191 0.59818
 H454 H 0.90606 0.15903 0.56732
 H455 H 0.86375 0.22063 0.54821
 H456 H 0.88444 0.24345 0.57898
 C457 C 0.33040 0.02200 0.25405
 C458 C 0.34508 0.03477 0.23829
 C459 C 0.36248 0.05128 0.24655
 C460 C 0.36475 0.05484 0.27102
 C461 C 0.35003 0.04215 0.28672
 C462 C 0.33309 0.02533 0.27841
 C463 C 0.37887 0.06325 0.22931
 C464 C 0.39149 0.08313 0.23418
 C465 C 0.40941 0.09440 0.21789
 C466 C 0.41725 0.11757 0.22283
 C467 C 0.43510 0.12857 0.20890
 C468 C 0.44562 0.11662 0.18965
 C469 C 0.43771 0.09348 0.18454
 C470 C 0.41991 0.08241 0.19856
 H471 H 0.31733 0.00915 0.24731
 H472 H 0.34304 0.03155 0.21958
 H473 H 0.37841 0.06672 0.27830
 H474 H 0.35252 0.04479 0.30548
 H475 H 0.38013 0.05541 0.21197
 H476 H 0.38844 0.09203 0.25080
 H477 H 0.40966 0.12718 0.23768
 H478 H 0.44076 0.14642 0.21331
 H479 H 0.44560 0.08373 0.16993
 H480 H 0.41504 0.06433 0.19445
 C481 C 0.66375 0.01761 0.74736
 C482 C 0.64771 0.03040 0.76179
 C483 C 0.62967 0.04512 0.75196
 C484 C 0.62769 0.04639 0.72726
 C485 C 0.64378 0.03361 0.71285
 C486 C 0.66188 0.01908 0.72277
 C487 C 0.61294 0.05824 0.76802
 C488 C 0.60055 0.07770 0.76164
 C489 C 0.58380 0.09099 0.77755
 C490 C 0.57737 0.11421 0.77148
 C491 C 0.56115 0.12725 0.78550
 C492 C 0.55088 0.11732 0.80594
 C493 C 0.55724 0.09406 0.81205
 C494 C 0.57341 0.08097 0.79796
 H495 H 0.67774 0.00663 0.75537
 H496 H 0.64954 0.02895 0.78073
 H497 H 0.61352 0.05682 0.71891
 H498 H 0.64188 0.03477 0.69390
 H499 H 0.61186 0.05210 0.78600
 H500 H 0.60344 0.08499 0.74427
 H501 H 0.58493 0.12232 0.75579
 H502 H 0.55658 0.14510 0.78026
 H503 H 0.54943 0.08581 0.82754
 H504 H 0.57716 0.06291 0.80295
 C505 C 0.35236 0.95617 0.71310
 C506 C 0.36665 0.94314 0.72883
 C507 C 0.36522 0.94751 0.75324
 C508 C 0.34912 0.96516 0.76141
 C509 C 0.33490 0.97825 0.74562
 C510 C 0.33673 0.97410 0.72132
 C511 C 0.38117 0.93515 0.77052
 C512 C 0.39269 0.91464 0.76597
 C513 C 0.41003 0.90291 0.78243
 C514 C 0.41658 0.87931 0.77798
 C515 C 0.43386 0.86782 0.79209
 C516 C 0.44508 0.87970 0.81103
 C517 C 0.43844 0.90326 0.81567
 C518 C 0.42122 0.91481 0.80148
 H519 H 0.35417 0.95286 0.69438
 H520 H 0.37930 0.93031 0.72158
 H521 H 0.34773 0.96901 0.78006
 H522 H 0.32282 0.99194 0.75231
 H523 H 0.38300 0.94327 0.78769
 H524 H 0.38910 0.90555 0.74955
 H525 H 0.40843 0.86974 0.76336
 H526 H 0.43856 0.84966 0.78802
 H527 H 0.44691 0.91297 0.83002
 H528 H 0.41737 0.93318 0.80522
 C529 C 0.67131 0.95487 0.26960
 C530 C 0.65649 0.94065 0.25523
 C531 C 0.63132 0.94555 0.25268
 C532 C 0.62102 0.96453 0.26535
 C533 C 0.63577 0.97851 0.28001
 C534 C 0.66114 0.97405 0.28195
 C535 C 0.61612 0.93011 0.23741
 C536 C 0.59676 0.93820 0.22527
 C537 C 0.58137 0.92293 0.20998
 C538 C 0.56941 0.93304 0.19061
 C539 C 0.55384 0.91943 0.17640
 C540 C 0.54952 0.89548 0.18157
 C541 C 0.56152 0.88532 0.20096
 C542 C 0.57735 0.89888 0.21501
 H543 H 0.69080 0.95098 0.27098
 H544 H 0.66476 0.92596 0.24585
 H545 H 0.60149 0.96826 0.26438
 H546 H 0.62736 0.99274 0.28994
 H547 H 0.62191 0.91192 0.23516
 H548 H 0.59261 0.95693 0.22565
 H549 H 0.57208 0.95157 0.18651
 H550 H 0.54471 0.92783 0.16171
 H551 H 0.55844 0.86695 0.20547
 H552 H 0.58578 0.89067 0.23017
 C553 C 0.38174 0.28904 0.98116
 C554 C 0.39843 0.27544 0.96818
 C555 C 0.39066 0.26294 0.94819
 C556 C 0.36599 0.26469 0.94098
 C557 C 0.34941 0.27870 0.95361
 C558 C 0.35690 0.29084 0.97412
 C559 C 0.40883 0.24928 0.93439
 C560 C 0.40317 0.22879 0.92379
 C561 C 0.42130 0.21545 0.90964
 C562 C 0.42119 0.19067 0.91033
 C563 C 0.43809 0.17769 0.89693
 C564 C 0.45487 0.18931 0.88206
 C565 C 0.45462 0.21413 0.88100
 C566 C 0.43813 0.22710 0.89480
 H567 H 0.38862 0.29901 0.99607
 H568 H 0.41750 0.27471 0.97376
 H569 H 0.35963 0.25567 0.92527
 H570 H 0.33048 0.27951 0.94761
 H571 H 0.42763 0.25579 0.93381
 H572 H 0.38512 0.22098 0.92643
 H573 H 0.40821 0.18136 0.92149
 H574 H 0.43780 0.15857 0.89795
 H575 H 0.46737 0.22352 0.86968
 H576 H 0.43823 0.24620 0.89354
 C577 C 0.64390 0.70797 0.95453
 C578 C 0.62723 0.72068 0.94082
 C579 C 0.62242 0.74459 0.94552
 C580 C 0.63473 0.75555 0.96446
 C581 C 0.65142 0.74284 0.97821
 C582 C 0.65606 0.71870 0.97376
 C583 C 0.60411 0.75696 0.93054
 C584 C 0.60144 0.78055 0.92956
 C585 C 0.58283 0.79233 0.91451
 C586 C 0.57446 0.81492 0.92092
 C587 C 0.55683 0.82658 0.90732
 C588 C 0.54735 0.81598 0.88681
 C589 C 0.55611 0.79357 0.88010
 C590 C 0.57370 0.78190 0.89372
 H591 H 0.64643 0.68940 0.95056
 H592 H 0.61795 0.71170 0.92645
 H593 H 0.63152 0.77384 0.96901
 H594 H 0.66125 0.75228 0.99188
 H595 H 0.59230 0.74586 0.91983
 H596 H 0.61276 0.79191 0.94043
 H597 H 0.58138 0.82346 0.93670
 H598 H 0.55057 0.84387 0.91292
 H599 H 0.54938 0.78501 0.86426
 H600 H 0.58031 0.76492 0.88764
 C601 C 0.34748 0.71461 0.04991
 C602 C 0.36469 0.72769 0.06286
 C603 C 0.36968 0.75140 0.05735
 C604 C 0.35691 0.76179 0.03849
 C605 C 0.33967 0.74875 0.02558
 C606 C 0.33493 0.72477 0.03072
 C607 C 0.38866 0.76420 0.07138
 C608 C 0.39211 0.78773 0.07095
 C609 C 0.41154 0.80003 0.08471
 C610 C 0.42025 0.82197 0.07670
 C611 C 0.43850 0.83424 0.08912
 C612 C 0.44827 0.82493 0.11003
 C613 C 0.43928 0.80314 0.11828
 C614 C 0.42108 0.79083 0.10581
 H615 H 0.34486 0.69618 0.05442
 H616 H 0.37430 0.71914 0.07720
 H617 H 0.36013 0.77988 0.03330
 H618 H 0.32955 0.75780 0.01192
 H619 H 0.40040 0.75349 0.08242
 H620 H 0.38087 0.79868 0.05975
 H621 H 0.41306 0.82956 0.06063
 H622 H 0.44492 0.85104 0.08234
 H623 H 0.44625 0.79558 0.13445
 H624 H 0.41428 0.77439 0.11304
 C625 C 0.67713 0.25526 0.05089
 C626 C 0.66138 0.24192 0.06513
 C627 C 0.63598 0.24125 0.06059
 C628 C 0.62648 0.25468 0.04191
 C629 C 0.64217 0.26833 0.02793
 C630 C 0.66769 0.26847 0.03207
 C631 C 0.61972 0.22739 0.07627
 C632 C 0.59909 0.21680 0.06862
 C633 C 0.58238 0.20351 0.08437
 C634 C 0.56868 0.18454 0.07519
 C635 C 0.55198 0.17225 0.08939
 C636 C 0.54825 0.17907 0.11294
 C637 C 0.56190 0.19813 0.12211
 C638 C 0.57887 0.21019 0.10801
 H639 H 0.69673 0.25525 0.05451
 H640 H 0.66906 0.23193 0.07960
 H641 H 0.60686 0.25518 0.03848
 H642 H 0.63436 0.27898 0.01401
 H643 H 0.62550 0.22505 0.09436
 H644 H 0.59470 0.21708 0.05002
 H645 H 0.57092 0.17924 0.05696
 H646 H 0.54157 0.15776 0.08178
 H647 H 0.55935 0.20384 0.14017
 H648 H 0.58866 0.22514 0.11545
 C649 C 0.28888 0.04919 0.64593
 C650 C 0.27497 0.06236 0.63001
 C651 C 0.25054 0.05608 0.62480
 C652 C 0.24024 0.03626 0.63608
 C653 C 0.25414 0.02307 0.65204
 C654 C 0.27889 0.02898 0.65692
 C655 C 0.23706 0.07031 0.60702
 C656 C 0.21259 0.06937 0.60356
 C657 C 0.19974 0.08336 0.58525
 C658 C 0.17708 0.07508 0.57659
 C659 C 0.16442 0.08759 0.55921
 C660 C 0.17406 0.10884 0.55026
 C661 C 0.19652 0.11739 0.55924
 C662 C 0.20919 0.10486 0.57659
 H663 H 0.30790 0.05430 0.64871
 H664 H 0.28348 0.07746 0.62153
 H665 H 0.22160 0.03050 0.63259
 H666 H 0.24516 0.00854 0.66097
 H667 H 0.24811 0.08195 0.59620
 H668 H 0.20131 0.05756 0.61393
 H669 H 0.16926 0.05871 0.58310
 H670 H 0.14709 0.08057 0.55277
 H671 H 0.20432 0.13383 0.55291
 H672 H 0.22612 0.11234 0.58338
 C673 C 0.73382 0.05060 0.33532
 C674 C 0.74744 0.06514 0.35044
 C675 C 0.74947 0.05971 0.37439
 C676 C 0.73699 0.03980 0.38315
 C677 C 0.72309 0.02540 0.36811
 C678 C 0.72162 0.03023 0.34379
 C679 C 0.76375 0.07572 0.38993
 C680 C 0.77568 0.06813 0.40911
 C681 C 0.78992 0.08407 0.42477
 C682 C 0.80989 0.07487 0.43741
 C683 C 0.82317 0.08916 0.45304
 C684 C 0.81645 0.11288 0.45669
 C685 C 0.79642 0.12210 0.44406
 C686 C 0.78331 0.10788 0.42822
 H687 H 0.73356 0.05503 0.31679
 H688 H 0.75672 0.08052 0.34331
 H689 H 0.73725 0.03573 0.40175
 H690 H 0.71262 0.01114 0.37590
 H691 H 0.76548 0.09404 0.38465
 H692 H 0.77602 0.04939 0.41298
 H693 H 0.81520 0.05654 0.43520
 H694 H 0.83838 0.08146 0.46264
 H695 H 0.79070 0.14027 0.44659
 H696 H 0.76760 0.11539 0.41924
 C697 C 0.75513 0.97404 0.66236
 C698 C 0.77104 0.96253 0.64674
 C699 C 0.76242 0.94405 0.63233
 C700 C 0.73747 0.93725 0.63397
 C701 C 0.72158 0.94882 0.64954
 C702 C 0.73017 0.96756 0.66356
 C703 C 0.77948 0.93342 0.61484
 C704 C 0.77633 0.91168 0.60574
 C705 C 0.79192 0.90132 0.58685
 C706 C 0.78293 0.88139 0.57477
 C707 C 0.79645 0.87114 0.55650
 C708 C 0.81944 0.88050 0.54988
 C709 C 0.82871 0.90022 0.56216
 C710 C 0.81517 0.91049 0.58050
 H711 H 0.76215 0.98838 0.67315
 H712 H 0.79009 0.96821 0.64574
 H713 H 0.72984 0.92367 0.62267
 H714 H 0.70233 0.94373 0.65002
 H715 H 0.79485 0.94423 0.60928
 H716 H 0.76110 0.90094 0.61188
 H717 H 0.76518 0.87385 0.57932
 H718 H 0.78879 0.85590 0.54748
 H719 H 0.84648 0.90770 0.55764
 H720 H 0.82323 0.92539 0.58966
 C721 C 0.28817 0.95179 0.35616
 C722 C 0.27554 0.93860 0.37302
 C723 C 0.25138 0.94444 0.37951
 C724 C 0.24006 0.96396 0.36873
 C725 C 0.25273 0.97722 0.35184
 C726 C 0.27716 0.97159 0.34548
 C727 C 0.23918 0.92992 0.39787
 C728 C 0.21477 0.92929 0.40169
 C729 C 0.20329 0.91405 0.41987
 C730 C 0.18044 0.92058 0.42944
 C731 C 0.16909 0.90662 0.44664
 C732 C 0.18031 0.88571 0.45446
 C733 C 0.20297 0.87894 0.44455
 C734 C 0.21428 0.89286 0.42738
 H735 H 0.30705 0.94696 0.35225
 H736 H 0.28478 0.92374 0.38112
 H737 H 0.22158 0.96934 0.37334
 H738 H 0.24302 0.99149 0.34329
 H739 H 0.25112 0.91904 0.40853
 H740 H 0.20258 0.94037 0.39153
 H741 H 0.17145 0.93666 0.42376
 H742 H 0.15156 0.91225 0.45382
 H743 H 0.21195 0.86277 0.44995
 H744 H 0.23137 0.88665 0.41979
 C745 C 0.02954 0.34048 0.74590
 C746 C 0.04330 0.35515 0.76076
 C747 C 0.05940 0.37220 0.75141
 C748 C 0.06152 0.37419 0.72676
 C749 C 0.04780 0.35945 0.71193
 C750 C 0.03144 0.34276 0.72137
 C751 C 0.07245 0.38835 0.76788
 C752 C 0.09242 0.40104 0.76193
 C753 C 0.10464 0.41826 0.77789
 C754 C 0.12872 0.42563 0.77254
 C755 C 0.14057 0.44271 0.78631
 C756 C 0.12854 0.45290 0.80576
 C757 C 0.10448 0.44548 0.81124
 C758 C 0.09258 0.42845 0.79740
 H759 H 0.01709 0.32759 0.75352
 H760 H 0.04119 0.35332 0.77963
 H761 H 0.07305 0.38753 0.71873
 H762 H 0.04931 0.36162 0.69304
 H763 H 0.06544 0.38929 0.78569
 H764 H 0.10076 0.39847 0.74481
 H765 H 0.13837 0.41825 0.75752
 H766 H 0.15910 0.44806 0.78159
 H767 H 0.09463 0.45316 0.82597
 H768 H 0.07376 0.42392 0.80176
 C769 C 0.05333 0.66805 0.26670
 C770 C 0.06781 0.65181 0.25434
 C771 C 0.06002 0.62834 0.25156
 C772 C 0.03782 0.62114 0.26210
 C773 C 0.02343 0.63728 0.27466
 C774 C 0.03061 0.66120 0.27675
 C775 C 0.07583 0.61164 0.23835
 C776 C 0.06669 0.59319 0.22630
 C777 C 0.08233 0.57664 0.21271
 C778 C 0.07224 0.56512 0.19305
 C779 C 0.08631 0.54910 0.17999
 C780 C 0.11066 0.54396 0.18660
 C781 C 0.12068 0.55528 0.20648
 C782 C 0.10669 0.57150 0.21940
 H783 H 0.05964 0.68621 0.26764
 H784 H 0.08499 0.65772 0.24657
 H785 H 0.03184 0.60288 0.26126
 H786 H 0.00719 0.63066 0.28354
 H787 H 0.09536 0.61553 0.23746
 H788 H 0.04691 0.59077 0.22521
 H789 H 0.05345 0.56863 0.18769
 H790 H 0.07799 0.54053 0.16487
 H791 H 0.13934 0.55158 0.21209
 H792 H 0.11481 0.57956 0.23487
 C793 C 0.95173 0.36260 0.29926
 C794 C 0.93765 0.37860 0.28634
 C795 C 0.93964 0.37964 0.26170
 C796 C 0.95585 0.36393 0.25020
 C797 C 0.97001 0.34798 0.26318
 C798 C 0.96816 0.34730 0.28781
 C799 C 0.92395 0.39682 0.24888
 C800 C 0.92786 0.40356 0.22653
 C801 C 0.91220 0.42097 0.21398
 C802 C 0.92170 0.43198 0.19378
 C803 C 0.90764 0.44839 0.18130
 C804 C 0.88368 0.45414 0.18873
 C805 C 0.87401 0.44293 0.20878
 C806 C 0.88801 0.42642 0.22118
 H807 H 0.95000 0.36231 0.31826
 H808 H 0.92520 0.39030 0.29566
 H809 H 0.95743 0.36347 0.23124
 H810 H 0.98225 0.33598 0.25400
 H811 H 0.90921 0.40491 0.25885
 H812 H 0.94379 0.39701 0.21714
 H813 H 0.94015 0.42798 0.18768
 H814 H 0.91562 0.45665 0.16589
 H815 H 0.85549 0.44675 0.21478
 H816 H 0.87955 0.41779 0.23610
 C817 C 0.94637 0.63169 0.69954
 C818 C 0.93262 0.61629 0.71354
 C819 C 0.93898 0.61244 0.73712
 C820 C 0.95964 0.62433 0.74643
 C821 C 0.97342 0.63977 0.73243
 C822 C 0.96726 0.64347 0.70862
 C823 C 0.92402 0.59539 0.75092
 C824 C 0.92372 0.59453 0.77452
 C825 C 0.90907 0.57700 0.78795
 C826 C 0.91703 0.57072 0.81055
 C827 C 0.90395 0.55414 0.82380
 C828 C 0.88238 0.54364 0.81482
 C829 C 0.87409 0.55025 0.79237
 C830 C 0.88726 0.56680 0.77906
 H831 H 0.94112 0.63359 0.68126
 H832 H 0.91694 0.60724 0.70583
 H833 H 0.96555 0.62164 0.76438
 H834 H 0.98860 0.64923 0.74051
 H835 H 0.91278 0.58308 0.74099
 H836 H 0.93504 0.60658 0.78465
 H837 H 0.93362 0.57848 0.81789
 H838 H 0.91076 0.54955 0.84110
 H839 H 0.85742 0.54266 0.78506
 H840 H 0.88003 0.57178 0.76206
 C841 C 0.74736 0.66042 0.97902
 C842 C 0.76266 0.64452 0.96714
 C843 C 0.75262 0.62688 0.95255
 C844 C 0.72679 0.62522 0.95044
 C845 C 0.71151 0.64116 0.96230
 C846 C 0.72165 0.65881 0.97676
 C847 C 0.76960 0.61021 0.94050
 C848 C 0.76339 0.59790 0.92114
 C849 C 0.77990 0.58091 0.90890
 C850 C 0.77331 0.57328 0.88622
 C851 C 0.78749 0.55654 0.87426
 C852 C 0.80867 0.54696 0.88471
 C853 C 0.81549 0.55470 0.90732
 C854 C 0.80120 0.57139 0.91938
 H855 H 0.75557 0.67403 0.98997
 H856 H 0.78244 0.64612 0.96923
 H857 H 0.71820 0.61140 0.94009
 H858 H 0.69170 0.63947 0.96055
 H859 H 0.78810 0.60897 0.94743
 H860 H 0.74555 0.60083 0.91320
 H861 H 0.75697 0.58017 0.87775
 H862 H 0.78170 0.55096 0.85686
 H863 H 0.83158 0.54747 0.91593
 H864 H 0.80669 0.57620 0.93703
 C865 C 0.30540 0.36300 0.95079
 C866 C 0.29221 0.37886 0.93694
 C867 C 0.26768 0.38443 0.94226
 C868 C 0.25657 0.37376 0.96197
 C869 C 0.26980 0.35787 0.97590
 C870 C 0.29459 0.35243 0.97076
 C871 C 0.25489 0.40183 0.92709
 C872 C 0.23035 0.40462 0.92622
 C873 C 0.21823 0.42216 0.91073
 C874 C 0.19494 0.43081 0.91708
 C875 C 0.18297 0.44748 0.90305
 C876 C 0.19397 0.45568 0.88218
 C877 C 0.21706 0.44665 0.87555
 C878 C 0.22903 0.43002 0.88959
 H879 H 0.32452 0.35982 0.94631
 H880 H 0.30132 0.38691 0.92197
 H881 H 0.23781 0.37769 0.96698
 H882 H 0.26023 0.34933 0.99028
 H883 H 0.26650 0.41273 0.91602
 H884 H 0.21850 0.39417 0.93743
 H885 H 0.18609 0.42487 0.93313
 H886 H 0.16512 0.45397 0.90860
 H887 H 0.22590 0.45239 0.85944
 H888 H 0.24651 0.42312 0.88356
 C889 C 0.24366 0.66336 0.02424
 C890 C 0.22908 0.64686 0.03615
 C891 C 0.23919 0.63243 0.05367
 C892 C 0.26437 0.63505 0.05915
 C893 C 0.27892 0.65167 0.04736
 C894 C 0.26898 0.66575 0.02929
 C895 C 0.22306 0.61444 0.06502
 C896 C 0.22873 0.60321 0.08509
 C897 C 0.21315 0.58470 0.09630
 C898 C 0.21933 0.57735 0.11912
 C899 C 0.20596 0.55950 0.13032
 C900 C 0.18596 0.54850 0.11898
 C901 C 0.17961 0.55583 0.09618
 C902 C 0.19311 0.57363 0.08487
 H903 H 0.23483 0.67464 0.01144
 H904 H 0.20973 0.64543 0.03165
 H905 H 0.27328 0.62391 0.07198
 H906 H 0.29836 0.65254 0.05162
 H907 H 0.20560 0.61094 0.05655
 H908 H 0.24539 0.60804 0.09436
 H909 H 0.23469 0.58539 0.12836
 H910 H 0.21135 0.55430 0.14791
 H911 H 0.16442 0.54756 0.08690
 H912 H 0.18794 0.57816 0.06710
 C913 C 0.75511 0.33611 0.02062
 C914 C 0.76940 0.35308 0.03231
 C915 C 0.76017 0.36503 0.05209
 C916 C 0.73624 0.35959 0.05999
 C917 C 0.72195 0.34266 0.04833
 C918 C 0.73088 0.33096 0.02809
 C919 C 0.77543 0.38381 0.06325
 C920 C 0.77253 0.39071 0.08573
 C921 C 0.78626 0.41048 0.09705
 C922 C 0.77712 0.41954 0.11836
 C923 C 0.78901 0.43823 0.12980
 C924 C 0.81049 0.44832 0.12027
 C925 C 0.81987 0.43916 0.09905
 C926 C 0.80795 0.42040 0.08756
 H927 H 0.76330 0.32675 0.00593
 H928 H 0.78781 0.35683 0.02591
 H929 H 0.72802 0.36895 0.07464
 H930 H 0.70329 0.33978 0.05450
 H931 H 0.78926 0.39209 0.05232
 H932 H 0.75896 0.38182 0.09654
 H933 H 0.76055 0.41223 0.12617
 H934 H 0.78131 0.44478 0.14617
 H935 H 0.83651 0.44641 0.09136
 H936 H 0.81606 0.41369 0.07151
 C937 C 0.94431 0.71439 0.65604
 C938 C 0.93048 0.72871 0.64108
 C939 C 0.93891 0.73388 0.61836
 C940 C 0.96102 0.72370 0.61048
 C941 C 0.97475 0.70917 0.62532
 C942 C 0.96699 0.70470 0.64860
 C943 C 0.92390 0.74935 0.60313
 C944 C 0.93387 0.76351 0.58680
 C945 C 0.91907 0.77950 0.57191
 C946 C 0.93003 0.80025 0.56334
 C947 C 0.91683 0.81554 0.54880
 C948 C 0.89249 0.81016 0.54220
 C949 C 0.88155 0.78928 0.55065
 C950 C 0.89468 0.77410 0.56538
 H951 H 0.93760 0.71174 0.67380
 H952 H 0.91335 0.73618 0.64746
 H953 H 0.96746 0.72646 0.59265
 H954 H 0.99102 0.70078 0.61816
 H955 H 0.90428 0.75016 0.60658
 H956 H 0.95374 0.76447 0.58511
 H957 H 0.94885 0.80468 0.56797
 H958 H 0.92585 0.83139 0.54243
 H959 H 0.86289 0.78457 0.54574
 H960 H 0.88589 0.75792 0.57112
 C961 C 0.95104 0.26854 0.33734
 C962 C 0.93718 0.25395 0.35213
 C963 C 0.94241 0.25279 0.37628
 C964 C 0.96153 0.26691 0.38549
 C965 C 0.97516 0.28179 0.37073
 C966 C 0.97022 0.28254 0.34647
 C967 C 0.92675 0.23776 0.39151
 C968 C 0.93500 0.22753 0.41124
 C969 C 0.91905 0.21293 0.42665
 C970 C 0.92967 0.19473 0.43993
 C971 C 0.91525 0.18120 0.45528
 C972 C 0.88999 0.18592 0.45801
 C973 C 0.87938 0.20422 0.44477
 C974 C 0.89373 0.21755 0.42922
 H975 H 0.94678 0.26894 0.31872
 H976 H 0.92237 0.24344 0.34468
 H977 H 0.96550 0.26703 0.40416
 H978 H 0.98934 0.29294 0.37831
 H979 H 0.90810 0.23422 0.38564
 H980 H 0.95431 0.22904 0.41583
 H981 H 0.94917 0.19099 0.43841
 H982 H 0.92401 0.16735 0.46538
 H983 H 0.86000 0.20838 0.44658
 H984 H 0.88507 0.23187 0.41975
 C985 C 0.04663 0.29402 0.64464
 C986 C 0.05898 0.28019 0.62800
 C987 C 0.05110 0.25709 0.62290
 C988 C 0.03038 0.24812 0.63487
 C989 C 0.01802 0.26195 0.65154
 C990 C 0.02564 0.28531 0.65648
 C991 C 0.06480 0.24344 0.60474
 C992 C 0.06306 0.21993 0.60174
 C993 C 0.07708 0.20677 0.58349
 C994 C 0.06779 0.18503 0.57539
 C995 C 0.08047 0.17202 0.55827
 C996 C 0.10289 0.18039 0.54904
 C997 C 0.11240 0.20197 0.55743
 C998 C 0.09971 0.21499 0.57450
 H999 H 0.05306 0.31195 0.64748
 H1000 H 0.07479 0.28765 0.61899
 H1001 H 0.02337 0.23055 0.63144
 H1002 H 0.00291 0.25392 0.66107
 H1003 H 0.07696 0.25347 0.59341
 H1004 H 0.05070 0.20968 0.61263
 H1005 H 0.05054 0.17817 0.58218
 H1006 H 0.07270 0.15540 0.55229
 H1007 H 0.12976 0.20880 0.55087
 H1008 H 0.10800 0.23120 0.58087
 C1009 C 0.02555 0.75038 0.33389
 C1010 C 0.03756 0.76498 0.35019
 C1011 C 0.05308 0.75529 0.36742
 C1012 C 0.05629 0.73058 0.36800
 C1013 C 0.04435 0.71604 0.35167
 C1014 C 0.02868 0.72578 0.33468
 C1015 C 0.06453 0.77132 0.38508
 C1016 C 0.08426 0.76543 0.39801
 C1017 C 0.09535 0.78084 0.41640
 C1018 C 0.11925 0.77569 0.42423
 C1019 C 0.13025 0.78911 0.44205
 C1020 C 0.11752 0.80801 0.45256
 C1021 C 0.09355 0.81318 0.44483
 C1022 C 0.08250 0.79969 0.42702
 H1023 H 0.01352 0.75822 0.32088
 H1024 H 0.03459 0.78390 0.34943
 H1025 H 0.06732 0.72220 0.38141
 H1026 H 0.04671 0.69706 0.35275
 H1027 H 0.05666 0.78879 0.38686
 H1028 H 0.09342 0.74879 0.39467
 H1029 H 0.12950 0.76117 0.41654
 H1030 H 0.14874 0.78464 0.44761
 H1031 H 0.08318 0.82750 0.45271
 H1032 H 0.06377 0.80385 0.42211
 C1033 C 0.67506 0.95359 0.74354
 C1034 C 0.65960 0.94085 0.75865
 C1035 C 0.63401 0.94049 0.75500
 C1036 C 0.62407 0.95357 0.73626
 C1037 C 0.63948 0.96656 0.72139
 C1038 C 0.66505 0.96667 0.72494
 C1039 C 0.61803 0.92712 0.77141
 C1040 C 0.59719 0.91645 0.76441
 C1041 C 0.58073 0.90338 0.78062
 C1042 C 0.56667 0.88450 0.77176
 C1043 C 0.55007 0.87245 0.78627
 C1044 C 0.54678 0.87940 0.80984
 C1045 C 0.56081 0.89836 0.81872
 C1046 C 0.57771 0.91018 0.80429
 H1047 H 0.69476 0.95359 0.74657
 H1048 H 0.66764 0.93108 0.77309
 H1049 H 0.60437 0.95417 0.73335
 H1050 H 0.63146 0.97661 0.70713
 H1051 H 0.62424 0.92513 0.78942
 H1052 H 0.59241 0.91642 0.74589
 H1053 H 0.56852 0.87908 0.75353
 H1054 H 0.53939 0.85803 0.77887
 H1055 H 0.55861 0.90417 0.83678
 H1056 H 0.58782 0.92505 0.81150
 C1057 C 0.32736 0.95068 0.27061
 C1058 C 0.34267 0.93716 0.25611
 C1059 C 0.36667 0.94472 0.25097
 C1060 C 0.37537 0.96583 0.26113
 C1061 C 0.36016 0.97927 0.27583
 C1062 C 0.33570 0.97218 0.28053
 C1063 C 0.38251 0.92957 0.23602
 C1064 C 0.40080 0.93818 0.22264
 C1065 C 0.41694 0.92297 0.20802
 C1066 C 0.42812 0.93261 0.18793
 C1067 C 0.44425 0.91908 0.17425
 C1068 C 0.44984 0.89570 0.18061
 C1069 C 0.43865 0.88604 0.20075
 C1070 C 0.42237 0.89951 0.21431
 H1071 H 0.30868 0.94454 0.27346
 H1072 H 0.33562 0.92083 0.24867
 H1073 H 0.39418 0.97163 0.25842
 H1074 H 0.36808 0.99465 0.28434
 H1075 H 0.37814 0.91089 0.23526
 H1076 H 0.40352 0.95712 0.22155
 H1077 H 0.42440 0.95070 0.18284
 H1078 H 0.45271 0.92710 0.15894
 H1079 H 0.44272 0.86815 0.20621
 H1080 H 0.41467 0.89171 0.23007
 C1081 C 0.66453 0.02226 0.25385
 C1082 C 0.64892 0.03385 0.23808
 C1083 C 0.63155 0.05036 0.24622
 C1084 C 0.63002 0.05490 0.27059
 C1085 C 0.64567 0.04340 0.28629
 C1086 C 0.66286 0.02685 0.27809
 C1087 C 0.61463 0.06161 0.22906
 C1088 C 0.60287 0.08203 0.23341
 C1089 C 0.58488 0.09323 0.21725
 C1090 C 0.57769 0.11659 0.22196
 C1091 C 0.55995 0.12771 0.20813
 C1092 C 0.54889 0.11571 0.18918
 C1093 C 0.55614 0.09237 0.18427
 C1094 C 0.57385 0.08117 0.19821
 H1095 H 0.67771 0.00953 0.24720
 H1096 H 0.65034 0.02984 0.21946
 H1097 H 0.61634 0.06675 0.27781
 H1098 H 0.64388 0.04689 0.30498
 H1099 H 0.61248 0.05294 0.21220
 H1100 H 0.60687 0.09154 0.24952
 H1101 H 0.58571 0.12629 0.23656
 H1102 H 0.55482 0.14572 0.21239
 H1103 H 0.54784 0.08261 0.16987
 H1104 H 0.57829 0.06298 0.19423
 C1105 C 0.36664 0.01847 0.72094
 C1106 C 0.38329 0.03074 0.73519
 C1107 C 0.37656 0.05205 0.74603
 C1108 C 0.35267 0.06087 0.74241
 C1109 C 0.33590 0.04851 0.72827
 C1110 C 0.34242 0.02681 0.71764
 C1111 C 0.39463 0.06409 0.76152
 C1112 C 0.39460 0.08746 0.76562
 C1113 C 0.41331 0.09924 0.78061
 C1114 C 0.41999 0.12270 0.77577
 C1115 C 0.43802 0.13415 0.78922
 C1116 C 0.44946 0.12245 0.80806
 C1117 C 0.44222 0.09918 0.81335
 C1118 C 0.42434 0.08768 0.79978
 H1119 H 0.37309 0.00276 0.71197
 H1120 H 0.40168 0.02370 0.73750
 H1121 H 0.34659 0.07693 0.75099
 H1122 H 0.31743 0.05549 0.72659
 H1123 H 0.40931 0.05338 0.76873
 H1124 H 0.38152 0.09861 0.75655
 H1125 H 0.41155 0.13206 0.76127
 H1126 H 0.44307 0.15214 0.78479
 H1127 H 0.45055 0.08974 0.82785
 H1128 H 0.41905 0.06984 0.80449
 C1129 C 0.63162 0.71671 0.02585
 C1130 C 0.61462 0.72967 0.03908
 C1131 C 0.62240 0.74885 0.05297
 C1132 C 0.64767 0.75447 0.05391
 C1133 C 0.66473 0.74128 0.04091
 C1134 C 0.65677 0.72253 0.02655
 C1135 C 0.60389 0.76200 0.06692
 C1136 C 0.60600 0.78511 0.07188
 C1137 C 0.58705 0.79821 0.08536
 C1138 C 0.58295 0.82215 0.08033
 C1139 C 0.56503 0.83492 0.09265
 C1140 C 0.55124 0.82411 0.11062
 C1141 C 0.55577 0.80027 0.11602
 C1142 C 0.57343 0.78743 0.10348
 H1143 H 0.62521 0.70207 0.01513
 H1144 H 0.59530 0.72485 0.03831
 H1145 H 0.65434 0.76871 0.06499
 H1146 H 0.68411 0.74580 0.04186
 H1147 H 0.58731 0.75260 0.07203
 H1148 H 0.62127 0.79511 0.06465
 H1149 H 0.59339 0.83088 0.06659
 H1150 H 0.56208 0.85331 0.08821
 H1151 H 0.54552 0.79147 0.12984
 H1152 H 0.57664 0.76917 0.10824
 C1153 C 0.36834 0.29873 0.04432
 C1154 C 0.38194 0.28367 0.05869
 C1155 C 0.38041 0.25902 0.05590
 C1156 C 0.36458 0.24973 0.03846
 C1157 C 0.35104 0.26487 0.02400
 C1158 C 0.35298 0.28948 0.02672
 C1159 C 0.39535 0.24405 0.07187
 C1160 C 0.39886 0.22070 0.06917
 C1161 C 0.41486 0.20673 0.08508
 C1162 C 0.42541 0.18569 0.07665
 C1163 C 0.44152 0.17266 0.09073
 C1164 C 0.44736 0.18040 0.11360
 C1165 C 0.43608 0.20095 0.12236
 C1166 C 0.41986 0.21387 0.10837
 H1167 H 0.37000 0.31768 0.04674
 H1168 H 0.39380 0.29137 0.07201
 H1169 H 0.36225 0.23091 0.03599
 H1170 H 0.33894 0.25742 0.01074
 H1171 H 0.40481 0.25319 0.08599
 H1172 H 0.39118 0.21156 0.05413
 H1173 H 0.42162 0.17962 0.05891
 H1174 H 0.44984 0.15682 0.08352
 H1175 H 0.43986 0.20715 0.14006
 H1176 H 0.41128 0.22935 0.11598
 C1177 C 0.66845 0.24076 0.98314
 C1178 C 0.65262 0.22579 0.97053
 C1179 C 0.63630 0.23504 0.95373
 C1180 C 0.63566 0.25968 0.95029
 C1181 C 0.65148 0.27456 0.96282
 C1182 C 0.66798 0.26527 0.97933
 C1183 C 0.61963 0.21877 0.94072
 C1184 C 0.61045 0.22404 0.91942
 C1185 C 0.59257 0.20926 0.90607
 C1186 C 0.58047 0.18942 0.91569
 C1187 C 0.56271 0.17712 0.90258
 C1188 C 0.55649 0.18449 0.87974
 C1189 C 0.56881 0.20406 0.87008
 C1190 C 0.58662 0.21623 0.88307
 H1191 H 0.68108 0.23326 0.99581
 H1192 H 0.65326 0.20693 0.97373
 H1193 H 0.62267 0.26767 0.93830
 H1194 H 0.65057 0.29347 0.95992
 H1195 H 0.61555 0.20194 0.94880
 H1196 H 0.61647 0.24017 0.91094
 H1197 H 0.58407 0.18353 0.93342
 H1198 H 0.55343 0.16217 0.91055
 H1199 H 0.56452 0.21016 0.85250
 H1200 H 0.59554 0.23143 0.87518
 C1201 C 0.35854 0.71971 0.97877
 C1202 C 0.37617 0.73106 0.96486
 C1203 C 0.36946 0.74985 0.95016
 C1204 C 0.34458 0.75679 0.94921
 C1205 C 0.32686 0.74521 0.96293
 C1206 C 0.33378 0.72678 0.97802
 C1207 C 0.38864 0.76108 0.93536
 C1208 C 0.38791 0.78385 0.92890
 C1209 C 0.40752 0.79494 0.91449
 C1210 C 0.41288 0.81902 0.91768
 C1211 C 0.43134 0.82998 0.90437
 C1212 C 0.44446 0.81714 0.88725
 C1213 C 0.43874 0.79313 0.88374
 C1214 C 0.42051 0.78212 0.89725
 H1215 H 0.36415 0.70527 0.99002
 H1216 H 0.39515 0.72523 0.96567
 H1217 H 0.33869 0.77076 0.93755
 H1218 H 0.30778 0.75069 0.96192
 H1219 H 0.40459 0.75051 0.93081
 H1220 H 0.37331 0.79511 0.93548
 H1221 H 0.40296 0.82931 0.93070
 H1222 H 0.43519 0.84855 0.90734
 H1223 H 0.44842 0.78279 0.87060
 H1224 H 0.41634 0.76369 0.89388
 C1225 C 0.70890 0.96153 0.36298
 C1226 C 0.72250 0.94796 0.37874
 C1227 C 0.74834 0.94925 0.37908
 C1228 C 0.76035 0.96438 0.36302
 C1229 C 0.74666 0.97803 0.34724
 C1230 C 0.72083 0.97677 0.34720
 C1231 C 0.76172 0.93383 0.39582
 C1232 C 0.78548 0.93657 0.40181
 C1233 C 0.79813 0.92084 0.41879
 C1234 C 0.81903 0.92931 0.43072
 C1235 C 0.83133 0.91507 0.44699
 C1236 C 0.82302 0.89198 0.45159
 C1237 C 0.80238 0.88333 0.43934
 C1238 C 0.79017 0.89751 0.42302
 H1239 H 0.68897 0.96024 0.36314
 H1240 H 0.71275 0.93637 0.39074
 H1241 H 0.78022 0.96545 0.36214
 H1242 H 0.75619 0.98941 0.33490
 H1243 H 0.75097 0.92013 0.40428
 H1244 H 0.79586 0.95144 0.39510
 H1245 H 0.82572 0.94710 0.42762
 H1246 H 0.84725 0.92222 0.45605
 H1247 H 0.79574 0.86550 0.44222
 H1248 H 0.77478 0.88990 0.41354
 C1249 C 0.28456 0.97801 0.63110
 C1250 C 0.27211 0.96436 0.61435
 C1251 C 0.25336 0.94868 0.62122
 C1252 C 0.24761 0.94652 0.64528
 C1253 C 0.26029 0.95997 0.66207
 C1254 C 0.27866 0.97598 0.65507
 C1255 C 0.24104 0.93405 0.60306
 C1256 C 0.21764 0.92663 0.60496
 C1257 C 0.20558 0.91191 0.58670
 C1258 C 0.18016 0.91422 0.58289
 C1259 C 0.16829 0.90054 0.56573
 C1260 C 0.18158 0.88391 0.55239
 C1261 C 0.20695 0.88125 0.55658
 C1262 C 0.21884 0.89514 0.57351
 H1263 H 0.29895 0.99004 0.62543
 H1264 H 0.27706 0.96611 0.59595
 H1265 H 0.23377 0.93408 0.65123
 H1266 H 0.25571 0.95799 0.68053
 H1267 H 0.25129 0.93025 0.58711
 H1268 H 0.20652 0.93248 0.61970
 H1269 H 0.16952 0.92685 0.59303
 H1270 H 0.14870 0.90287 0.56300
 H1271 H 0.21767 0.86853 0.54666
 H1272 H 0.23833 0.89244 0.57649
 C1273 C 0.28380 0.02309 0.37002
 C1274 C 0.27133 0.03625 0.38713
 C1275 C 0.25149 0.05078 0.38084
 C1276 C 0.24487 0.05258 0.35696
 C1277 C 0.25759 0.03968 0.33981
 C1278 C 0.27684 0.02454 0.34628
 C1279 C 0.23858 0.06437 0.39940
 C1280 C 0.21446 0.06932 0.39836
 C1281 C 0.20144 0.08259 0.41710
 C1282 C 0.17646 0.07776 0.42138
 C1283 C 0.16357 0.09017 0.43880
 C1284 C 0.17532 0.10802 0.45194
 C1285 C 0.20025 0.11310 0.44738
 C1286 C 0.21321 0.10048 0.43020
 H1287 H 0.29884 0.01171 0.37525
 H1288 H 0.27693 0.03482 0.40537
 H1289 H 0.23014 0.06419 0.35148
 H1290 H 0.25218 0.04118 0.32153
 H1291 H 0.24898 0.06916 0.41498
 H1292 H 0.20353 0.06234 0.38396
 H1293 H 0.16695 0.06421 0.41135
 H1294 H 0.14434 0.08597 0.44178
 H1295 H 0.20979 0.12682 0.45715
 H1296 H 0.23227 0.10508 0.42690
 C1297 C 0.72225 0.01285 0.63401
 C1298 C 0.73566 0.02535 0.61710
 C1299 C 0.74953 0.04533 0.62350
 C1300 C 0.74996 0.05247 0.64726
 C1301 C 0.73682 0.03975 0.66423
 C1302 C 0.72307 0.01968 0.65780
 C1303 C 0.76414 0.05766 0.60525
 C1304 C 0.76907 0.08089 0.60606
 C1305 C 0.78371 0.09304 0.58770
 C1306 C 0.77860 0.11675 0.58247
 C1307 C 0.79222 0.12874 0.56531
 C1308 C 0.81161 0.11738 0.55342
 C1309 C 0.81703 0.09376 0.55899
 C1310 C 0.80318 0.08168 0.57590
 H1311 H 0.71139 -0.00229 0.62856
 H1312 H 0.73509 0.01949 0.59893
 H1313 H 0.76094 0.06746 0.65288
 H1314 H 0.73778 0.04528 0.68248
 H1315 H 0.76997 0.04741 0.59009
 H1316 H 0.76108 0.09165 0.61990
 H1317 H 0.76384 0.12593 0.59151
 H1318 H 0.78773 0.14698 0.56153
 H1319 H 0.83193 0.08456 0.55020
 H1320 H 0.80805 0.06360 0.57999
 C1321 C 0.97951 0.66326 0.24808
 C1322 C 0.96638 0.64821 0.23302
 C1323 C 0.94855 0.63255 0.24198
 C1324 C 0.94424 0.63223 0.26646
 C1325 C 0.95729 0.64734 0.28145
 C1326 C 0.97524 0.66274 0.27244
 C1327 C 0.93584 0.61611 0.22549
 C1328 C 0.91447 0.60521 0.23059
 C1329 C 0.90201 0.58760 0.21512
 C1330 C 0.91336 0.57727 0.19527
 C1331 C 0.90107 0.55993 0.18209
 C1332 C 0.87735 0.55231 0.18857
 C1333 C 0.86599 0.56270 0.20826
 C1334 C 0.87817 0.58012 0.22132
 H1335 H 0.99322 0.67512 0.24078
 H1336 H 0.97023 0.64873 0.21431
 H1337 H 0.93139 0.61993 0.27432
 H1338 H 0.95391 0.64652 0.30023
 H1339 H 0.94437 0.61347 0.20849
 H1340 H 0.90517 0.60948 0.24690
 H1341 H 0.93186 0.58198 0.19000
 H1342 H 0.91038 0.55214 0.16709
 H1343 H 0.84771 0.55727 0.21372
 H1344 H 0.86897 0.58762 0.23654
 C1345 C 0.98186 0.36927 0.72331
 C1346 C 0.97035 0.38471 0.73905
 C1347 C 0.95284 0.37630 0.75517
 C1348 C 0.94730 0.35196 0.75551
 C1349 C 0.95910 0.33643 0.73995
 C1350 C 0.97665 0.34493 0.72386
 C1351 C 0.94107 0.39335 0.77149
 C1352 C 0.91798 0.39073 0.77948
 C1353 C 0.90552 0.40905 0.79383
 C1354 C 0.88011 0.41236 0.79100
 C1355 C 0.86788 0.43015 0.80344
 C1356 C 0.88073 0.44469 0.81939
 C1357 C 0.90603 0.44084 0.82289
 C1358 C 0.91837 0.42326 0.81013
 H1359 H 0.99494 0.37632 0.71074
 H1360 H 0.97490 0.40337 0.73841
 H1361 H 0.93427 0.34482 0.76807
 H1362 H 0.95485 0.31772 0.74071
 H1363 H 0.95104 0.40951 0.77542
 H1364 H 0.90703 0.37581 0.77358
 H1365 H 0.86980 0.40150 0.77871
 H1366 H 0.84831 0.43254 0.80055
 H1367 H 0.91636 0.45171 0.83515
 H1368 H 0.93788 0.42072 0.81313
 C1369 C 0.01920 0.61847 0.70626
 C1370 C 0.03300 0.60287 0.71997
 C1371 C 0.05116 0.61145 0.73538
 C1372 C 0.05517 0.63598 0.73701
 C1373 C 0.04112 0.65159 0.72357
 C1374 C 0.02280 0.64300 0.70830
 C1375 C 0.06462 0.59455 0.75044
 C1376 C 0.08777 0.59825 0.75783
 C1377 C 0.10075 0.58146 0.77338
 C1378 C 0.12634 0.57872 0.77118
 C1379 C 0.13902 0.56293 0.78567
 C1380 C 0.12638 0.55003 0.80303
 C1381 C 0.10084 0.55324 0.80560
 C1382 C 0.08814 0.56872 0.79088
 H1383 H 0.00544 0.61143 0.69433
 H1384 H 0.02953 0.58405 0.71849
 H1385 H 0.06860 0.64321 0.74915
 H1386 H 0.04415 0.67044 0.72547
 H1387 H 0.05541 0.57811 0.75481
 H1388 H 0.09798 0.61344 0.75149
 H1389 H 0.13647 0.58856 0.75798
 H1390 H 0.15873 0.56093 0.78338
 H1391 H 0.09060 0.54359 0.81885
 H1392 H 0.06851 0.57096 0.79346
 C1393 C 0.02163 0.37184 0.29086
 C1394 C 0.03516 0.38801 0.27746
 C1395 C 0.04995 0.38022 0.25870
 C1396 C 0.05129 0.35584 0.25380
 C1397 C 0.03801 0.33965 0.26743
 C1398 C 0.02299 0.34756 0.28595
 C1399 C 0.06469 0.39778 0.24545
 C1400 C 0.07064 0.39516 0.22267
 C1401 C 0.08540 0.41297 0.20975
 C1402 C 0.08079 0.41681 0.18577
 C1403 C 0.09427 0.43377 0.17326
 C1404 C 0.11303 0.44682 0.18441
 C1405 C 0.11810 0.44246 0.20827
 C1406 C 0.10438 0.42579 0.22084
 H1407 H 0.01031 0.37822 0.30525
 H1408 H 0.03403 0.40666 0.28171
 H1409 H 0.06303 0.34920 0.23987
 H1410 H 0.03939 0.32093 0.26354
 H1411 H 0.06978 0.41394 0.25455
 H1412 H 0.06341 0.38026 0.21282
 H1413 H 0.06643 0.40695 0.17681
 H1414 H 0.09005 0.43663 0.15486
 H1415 H 0.13248 0.45218 0.21734
 H1416 H 0.10885 0.42277 0.23915
   
