data_POSCAR
  _audit_creation_date              2014-09-24
  _audit_creation_method            'ToBaCCo'
  _symmetry_space_group_name_H-M    'P1'
  _symmetry_Int_Tables_number       1
  _symmetry_cell_setting            triclinic
  loop_
  _symmetry_equiv_pos_as_xyz
 x,y,z
_cell_length_a 49.2972
_cell_length_b 46.7114
_cell_length_c 47.6821
_cell_angle_alpha 90.566900
_cell_angle_beta 92.179200
_cell_angle_gamma 90.361500
loop_
  _atom_site_label
  _atom_site_type_symbol
  _atom_site_fract_x
  _atom_site_fract_y
  _atom_site_fract_z
C1 C 0.72185 0.68151 0.98242
 H2 H 0.74058 0.68439 0.97165
 C3 C 0.69943 0.69860 0.97543
 H4 H 0.70105 0.71438 0.95909
 C5 C 0.69629 0.65587 1.01505
 H6 H 0.69477 0.63872 1.02994
 C7 C 0.67351 0.67250 1.00883
 H8 H 0.65486 0.66814 1.01934
 N9 N 0.71961 0.65993 1.00120
 C10 C 0.80374 0.63241 1.01554
 H11 H 0.80124 0.60972 1.01196
 C12 C 0.82949 0.64337 1.02239
 H13 H 0.84655 0.62888 1.02338
 C14 C 0.78452 0.67857 1.01906
 H15 H 0.76683 0.69210 1.01841
 C16 C 0.81002 0.69046 1.02631
 H17 H 0.81162 0.71309 1.03125
 Zn18 Zn 0.74751 0.63220 1.00633
 N19 N 0.78184 0.64993 1.01400
 C20 C 0.76385 0.58413 0.97428
 N21 N 0.74966 0.60904 0.97324
 C22 C 0.73920 0.61897 0.94838
 C23 C 0.74458 0.60499 0.92322
 C24 C 0.76957 0.56933 0.94959
 C25 C 0.74339 0.62305 1.06317
 C26 C 0.73475 0.61029 1.08759
 C27 C 0.71850 0.56984 1.05978
 C28 C 0.72741 0.58359 1.03580
 N29 N 0.73918 0.60992 1.03790
 H30 H 0.77148 0.57611 0.99422
 H31 H 0.72753 0.63838 0.94772
 H32 H 0.73688 0.61382 0.90359
 H33 H 0.78201 0.55033 0.95078
 H34 H 0.75298 0.64394 1.06429
 H35 H 0.73958 0.62156 1.10705
 H36 H 0.70777 0.54979 1.05647
 H37 H 0.72371 0.57378 1.01537
 C38 C 0.83288 0.67267 1.02842
 C39 C 0.67457 0.69344 0.98801
 C40 C 0.72108 0.58348 1.08651
 C41 C 0.76063 0.58031 0.92358
 C42 C 0.71948 0.32171 0.52092
 H43 H 0.73833 0.31776 0.53256
 C44 C 0.69593 0.30684 0.52776
 H45 H 0.69694 0.29158 0.54470
 C46 C 0.69475 0.34840 0.48673
 H47 H 0.69400 0.36521 0.47136
 C48 C 0.67087 0.33391 0.49269
 H49 H 0.65221 0.33945 0.48137
 N50 N 0.71826 0.34291 0.50152
 C51 C 0.80227 0.36646 0.48387
 H52 H 0.80068 0.38942 0.48543
 C53 C 0.82638 0.35447 0.47517
 H54 H 0.84332 0.36845 0.47093
 C55 C 0.78182 0.32060 0.48624
 H56 H 0.76416 0.30752 0.48976
 C57 C 0.80567 0.30764 0.47748
 H58 H 0.80608 0.28466 0.47440
 Zn59 Zn 0.74788 0.36893 0.49750
 N60 N 0.78051 0.34959 0.48911
 C61 C 0.77008 0.41430 0.53155
 N62 N 0.75317 0.39112 0.53125
 C63 C 0.74047 0.38322 0.55488
 C64 C 0.74577 0.39770 0.58025
 C65 C 0.77561 0.42969 0.55642
 C66 C 0.74063 0.38080 0.44088
 C67 C 0.73222 0.39586 0.41705
 C68 C 0.72206 0.43632 0.44675
 C69 C 0.73060 0.42038 0.47013
 N70 N 0.73930 0.39301 0.46677
 H71 H 0.77933 0.42097 0.51251
 H72 H 0.72651 0.36541 0.55441
 H73 H 0.73600 0.39066 0.59897
 H74 H 0.78964 0.44763 0.55642
 H75 H 0.74753 0.35896 0.43885
 H76 H 0.73293 0.38555 0.39665
 H77 H 0.71419 0.45767 0.44978
 H78 H 0.72927 0.42949 0.49095
 C79 C 0.82820 0.32474 0.47136
 C80 C 0.67098 0.31373 0.51431
 C81 C 0.72227 0.42379 0.41985
 C82 C 0.76381 0.42100 0.58128
 C83 C 0.22710 -0.18298 0.01798
 H84 H 0.24773 -0.18716 0.02503
 C85 C 0.20599 -0.19978 0.02793
 H86 H 0.21068 -0.21696 0.04236
 C87 C 0.19563 -0.15488 -0.00828
 H88 H 0.19142 -0.13664 -0.02144
 C89 C 0.17401 -0.17122 0.00095
 H90 H 0.15349 -0.16533 -0.00538
 N91 N 0.22161 -0.16083 0.00036
 C92 C 0.29023 -0.15240 -0.04629
 H93 H 0.27877 -0.14058 -0.06190
 C94 C 0.31426 -0.16531 -0.05389
 H95 H 0.32060 -0.16340 -0.07530
 C96 C 0.29721 -0.16743 0.00068
 H97 H 0.29086 -0.16742 0.02212
 C98 C 0.32170 -0.18048 -0.00601
 H99 H 0.33373 -0.19107 0.01023
 Zn100 Zn 0.24926 -0.13474 -0.01015
 N101 N 0.28179 -0.15405 -0.01951
 C102 C 0.27972 -0.09225 0.01972
 N103 N 0.25759 -0.10971 0.02052
 C104 C 0.24262 -0.11124 0.04385
 C105 C 0.25025 -0.09550 0.06795
 C106 C 0.28808 -0.07611 0.04340
 C107 C 0.22710 -0.13092 -0.06429
 C108 C 0.21694 -0.11850 -0.08888
 C109 C 0.22403 -0.07200 -0.06730
 C110 C 0.23438 -0.08551 -0.04309
 N111 N 0.23579 -0.11449 -0.04209
 H112 H 0.29141 -0.09165 0.00099
 H113 H 0.22505 -0.12516 0.04406
 H114 H 0.23821 -0.09727 0.08639
 H115 H 0.30634 -0.06319 0.04270
 H116 H 0.22854 -0.15398 -0.06299
 H117 H 0.21215 -0.13310 -0.10604
 H118 H 0.22236 -0.04900 -0.06620
 H119 H 0.24100 -0.07281 -0.02499
 C120 C 0.33030 -0.17971 -0.03373
 C121 C 0.17899 -0.19371 0.01967
 C122 C 0.21476 -0.08834 -0.09115
 C123 C 0.27355 -0.07804 0.06814
 C124 C 0.21793 0.17921 0.47020
 H125 H 0.23580 0.18232 0.45807
 C126 C 0.19418 0.19433 0.46333
 H127 H 0.19394 0.20877 0.44571
 C128 C 0.19598 0.15518 0.50656
 H129 H 0.19644 0.13965 0.52318
 C130 C 0.17197 0.16989 0.50055
 H131 H 0.15439 0.16558 0.51282
 N132 N 0.21807 0.15915 0.49074
 C133 C 0.30319 0.13728 0.51003
 H134 H 0.30168 0.11431 0.50844
 C135 C 0.32776 0.14966 0.51907
 H136 H 0.34502 0.13595 0.52344
 C137 C 0.28235 0.18275 0.50751
 H138 H 0.26439 0.19549 0.50369
 C139 C 0.30669 0.19612 0.51673
 H140 H 0.30722 0.21909 0.51992
 Zn141 Zn 0.24787 0.13357 0.49634
 N142 N 0.28097 0.15372 0.50468
 C143 C 0.26879 0.08706 0.46541
 N144 N 0.25196 0.11001 0.46368
 C145 C 0.23947 0.11707 0.43875
 C146 C 0.24539 0.10232 0.41410
 C147 C 0.27544 0.07186 0.44126
 C148 C 0.24995 0.12037 0.55338
 C149 C 0.24214 0.10692 0.57779
 C150 C 0.21611 0.07283 0.54921
 C151 C 0.22451 0.08695 0.52523
 N152 N 0.24078 0.11053 0.52778
 H153 H 0.27753 0.08076 0.48549
 H154 H 0.22540 0.13460 0.43763
 H155 H 0.23561 0.10877 0.39448
 H156 H 0.29005 0.05472 0.44312
 H157 H 0.26249 0.13942 0.55495
 H158 H 0.24930 0.11545 0.59795
 H159 H 0.20218 0.05488 0.54687
 H160 H 0.21710 0.07987 0.50466
 C161 C 0.32965 0.17937 0.52321
 C162 C 0.17049 0.18892 0.47797
 C163 C 0.22444 0.08326 0.57597
 C164 C 0.26428 0.07994 0.41498
 C165 C 0.15170 0.44456 0.20663
 H166 H 0.13478 0.43378 0.21561
 C167 C 0.16367 0.43222 0.18348
 H168 H 0.15544 0.41231 0.17491
 C169 C 0.18232 0.48378 0.20618
 H170 H 0.18981 0.50367 0.21535
 C171 C 0.19493 0.47216 0.18291
 H172 H 0.21199 0.48333 0.17432
 N173 N 0.16062 0.47027 0.21712
 C174 C 0.14922 0.51846 0.29422
 H175 H 0.12801 0.52317 0.29006
 C176 C 0.16207 0.52826 0.31892
 H177 H 0.15073 0.54107 0.33340
 C178 C 0.18947 0.49561 0.28036
 H179 H 0.19974 0.48226 0.26551
 C180 C 0.20326 0.50513 0.30501
 H181 H 0.22425 0.49922 0.30896
 Zn182 Zn 0.14044 0.48795 0.24579
 N183 N 0.16283 0.50220 0.27572
 C184 C 0.12351 0.44994 0.28674
 N185 N 0.11653 0.46048 0.26099
 C186 C 0.09435 0.45029 0.24607
 C187 C 0.07854 0.42828 0.25685
 C188 C 0.10820 0.42824 0.29836
 C189 C 0.13529 0.53959 0.21680
 C190 C 0.12283 0.56452 0.20721
 C191 C 0.08135 0.54893 0.22782
 C192 C 0.09456 0.52405 0.23675
 N193 N 0.12109 0.51980 0.23106
 H194 H 0.14148 0.45774 0.29809
 H195 H 0.08933 0.45879 0.22551
 H196 H 0.06111 0.42018 0.24468
 H197 H 0.11453 0.41976 0.31860
 H198 H 0.15646 0.53633 0.21310
 H199 H 0.13453 0.57956 0.19538
 H200 H 0.06044 0.55219 0.23315
 H201 H 0.08385 0.50863 0.24901
 C202 C 0.18927 0.52120 0.32487
 C203 C 0.18530 0.44624 0.17100
 C204 C 0.09555 0.56965 0.21286
 C205 C 0.08553 0.41696 0.28331
 C206 C -0.16209 0.02648 0.22445
 H207 H -0.15843 0.03856 0.24372
 C208 C -0.17836 0.03796 0.20278
 H209 H -0.18617 0.05921 0.20612
 C210 C -0.15357 -0.01456 0.19690
 H211 H -0.14362 -0.03485 0.19436
 C212 C -0.17007 -0.00424 0.17492
 H213 H -0.17309 -0.01799 0.15672
 N214 N -0.14974 0.00088 0.22102
 C215 C -0.12863 -0.04045 0.29975
 H216 H -0.10735 -0.04419 0.29643
 C217 C -0.14045 -0.05107 0.32359
 H218 H -0.12803 -0.06282 0.33869
 C219 C -0.17038 -0.01998 0.28419
 H220 H -0.18189 -0.00793 0.26866
 C221 C -0.18307 -0.03025 0.30785
 H222 H -0.20448 -0.02625 0.31025
 Zn223 Zn -0.12501 -0.01159 0.24966
 N224 N -0.14357 -0.02506 0.28078
 C225 C -0.09923 0.02595 0.28891
 N226 N -0.10261 0.01983 0.26105
 C227 C -0.09205 0.03718 0.24138
 C228 C -0.07788 0.06216 0.24956
 C229 C -0.08487 0.05027 0.29797
 C230 C -0.11780 -0.06747 0.23137
 C231 C -0.10427 -0.09114 0.22095
 C232 C -0.06260 -0.06350 0.22304
 C233 C -0.07707 -0.04009 0.23303
 N234 N -0.10427 -0.04239 0.23648
 H235 H -0.10815 0.01237 0.30427
 H236 H -0.09534 0.03204 0.21934
 H237 H -0.06999 0.07611 0.23376
 H238 H -0.08290 0.05503 0.32023
 H239 H -0.13930 -0.06885 0.23498
 H240 H -0.11546 -0.11078 0.21639
 H241 H -0.04107 -0.06135 0.21976
 H242 H -0.06668 -0.02007 0.23775
 C243 C -0.16802 -0.04605 0.32788
 C244 C -0.18235 0.02292 0.17700
 C245 C -0.07641 -0.08920 0.21643
 C246 C -0.07426 0.06889 0.27822
 C247 C 0.34045 0.53507 0.73068
 H248 H 0.33978 0.54667 0.75038
 C249 C 0.32475 0.54421 0.70744
 H250 H 0.31196 0.56282 0.70947
 C251 C 0.35954 0.49817 0.70342
 H252 H 0.37365 0.48078 0.70147
 C253 C 0.34424 0.50652 0.67981
 H254 H 0.34636 0.49494 0.66023
 N255 N 0.35765 0.51257 0.72821
 C256 C 0.37885 0.47692 0.80995
 H257 H 0.40011 0.47323 0.80664
 C258 C 0.36707 0.46551 0.83346
 H259 H 0.37966 0.45386 0.84848
 C260 C 0.33650 0.49526 0.79359
 H261 H 0.32453 0.50623 0.77767
 C262 C 0.32381 0.48411 0.81692
 H263 H 0.30211 0.48657 0.81867
 Zn264 Zn 0.38213 0.50292 0.75839
 N265 N 0.36360 0.49148 0.79057
 C266 C 0.41940 0.53594 0.79199
 N267 N 0.40477 0.53508 0.76724
 C268 C 0.40468 0.55777 0.74954
 C269 C 0.41861 0.58300 0.75710
 C270 C 0.43348 0.56073 0.80044
 C271 C 0.38847 0.44619 0.74374
 C272 C 0.40075 0.42210 0.73261
 C273 C 0.44268 0.44903 0.73061
 C274 C 0.42943 0.47286 0.74155
 N275 N 0.40264 0.47110 0.74722
 H276 H 0.41947 0.51778 0.80576
 H277 H 0.39342 0.55656 0.72967
 H278 H 0.41798 0.60090 0.74285
 H279 H 0.44386 0.56127 0.82085
 H280 H 0.36722 0.44544 0.74859
 H281 H 0.38892 0.40268 0.72912
 H282 H 0.46374 0.45083 0.72515
 H283 H 0.44023 0.49294 0.74459
 C284 C 0.33913 0.46864 0.83698
 C285 C 0.32701 0.53018 0.68145
 C286 C 0.42800 0.42354 0.72536
 C287 C 0.43281 0.58493 0.78315
 C288 C 0.68069 0.97778 0.71904
 H289 H 0.68513 0.96786 0.73909
 C290 C 0.69343 0.96807 0.69512
 H291 H 0.70752 0.95043 0.69687
 C292 C 0.65610 1.01209 0.69227
 H293 H 0.64172 1.02938 0.69117
 C294 C 0.66827 1.00300 0.66784
 H295 H 0.66304 1.01337 0.64817
 N296 N 0.66177 0.99880 0.71706
 C297 C 0.66724 1.00364 0.80385
 H298 H 0.65284 0.98645 0.80638
 C299 C 0.68380 1.01235 0.82676
 H300 H 0.68067 1.00199 0.84655
 C301 C 0.68704 1.03832 0.77510
 H302 H 0.68816 1.04829 0.75478
 C303 C 0.70390 1.04793 0.79748
 H304 H 0.71838 1.06474 0.79348
 Zn305 Zn 0.64265 1.00864 0.74946
 N306 N 0.66827 1.01748 0.77900
 C307 C 0.60319 0.98175 0.78129
 N308 N 0.62037 0.97755 0.76000
 C309 C 0.62239 0.95147 0.74729
 C310 C 0.60813 0.92795 0.75715
 C311 C 0.58840 0.95883 0.79170
 C312 C 0.62621 1.06687 0.75316
 C313 C 0.61197 1.09105 0.74420
 C314 C 0.58408 1.06071 0.71342
 C315 C 0.59899 1.03712 0.72284
 N316 N 0.62022 1.04072 0.74163
 H317 H 0.60176 1.00276 0.79086
 H318 H 0.63553 0.94861 0.72992
 H319 H 0.61046 0.90721 0.74720
 H320 H 0.57569 0.96234 0.80942
 H321 H 0.64255 1.06931 0.76870
 H322 H 0.61757 1.11185 0.75293
 H323 H 0.56813 1.05763 0.69741
 H324 H 0.59447 1.01605 0.71419
 C325 C 0.70183 1.03575 0.82435
 C326 C 0.68675 0.98030 0.66898
 C327 C 0.59107 1.08821 0.72354
 C328 C 0.59129 0.93137 0.78000
 C329 C 0.02545 0.22419 -0.16246
 H330 H 0.03523 0.24500 -0.16190
 C331 C 0.03630 0.20200 -0.17824
 H332 H 0.05396 0.20626 -0.19041
 C333 C -0.00872 0.19325 -0.14634
 H334 H -0.02571 0.18961 -0.13316
 C335 C 0.00160 0.17038 -0.16163
 H336 H -0.00768 0.14944 -0.15993
 N337 N 0.00332 0.21952 -0.14693
 C338 C -0.03629 0.29984 -0.12865
 H339 H -0.04133 0.29479 -0.10738
 C340 C -0.04645 0.32465 -0.14098
 H341 H -0.05992 0.33788 -0.12911
 C342 C -0.01352 0.28772 -0.16991
 H343 H -0.00079 0.27323 -0.18117
 C344 C -0.02271 0.31281 -0.18287
 H345 H -0.01641 0.31740 -0.20385
 Zn346 Zn -0.00787 0.24943 -0.12290
 N347 N -0.02025 0.28188 -0.14315
 C348 C 0.03328 0.28675 -0.10269
 N349 N 0.02271 0.26003 -0.09987
 C350 C 0.03558 0.24009 -0.08362
 C351 C 0.06056 0.24657 -0.06999
 C352 C 0.05828 0.29393 -0.08985
 C353 C -0.06058 0.23080 -0.11629
 C354 C -0.08393 0.22321 -0.10252
 C355 C -0.05892 0.22920 -0.05834
 C356 C -0.03598 0.23657 -0.07313
 N357 N -0.03721 0.23709 -0.10158
 H358 H 0.02298 0.30216 -0.11599
 H359 H 0.02696 0.21882 -0.08217
 H360 H 0.07114 0.23030 -0.05789
 H361 H 0.06693 0.31496 -0.09313
 H362 H -0.06102 0.23165 -0.13898
 H363 H -0.10123 0.21698 -0.11578
 H364 H -0.05687 0.23058 -0.03575
 H365 H -0.01738 0.24260 -0.06178
 C366 C -0.03947 0.33176 -0.16838
 C367 C 0.02466 0.17448 -0.17758
 C368 C -0.08389 0.22227 -0.07279
 C369 C 0.07243 0.27354 -0.07377
 C370 C 0.46346 0.22849 0.15784
 H371 H 0.45285 0.24846 0.15459
 C372 C 0.45157 0.20666 0.17310
 H373 H 0.43208 0.21042 0.18212
 C374 C 0.50155 0.19939 0.14948
 H375 H 0.52081 0.19645 0.13980
 C376 C 0.49026 0.17687 0.16429
 H377 H 0.50098 0.15676 0.16551
 N378 N 0.48784 0.22438 0.14610
 C379 C 0.52121 0.30836 0.12542
 H380 H 0.52564 0.30429 0.10370
 C381 C 0.52886 0.33440 0.13796
 H382 H 0.53949 0.34998 0.12572
 C383 C 0.50347 0.29204 0.16791
 H384 H 0.49386 0.27534 0.17959
 C385 C 0.51061 0.31796 0.18128
 H386 H 0.50602 0.32102 0.20312
 Zn387 Zn 0.50071 0.25247 0.12139
 N388 N 0.50885 0.28773 0.14042
 C389 C 0.46535 0.28534 0.08642
 N390 N 0.47284 0.25828 0.09338
 C391 C 0.45903 0.23514 0.08244
 C392 C 0.43660 0.23882 0.06395
 C393 C 0.44341 0.28995 0.06781
 C394 C 0.55715 0.25018 0.11449
 C395 C 0.58127 0.24106 0.10309
 C396 C 0.55531 0.20829 0.07303
 C397 C 0.53157 0.21842 0.08472
 N398 N 0.53287 0.23912 0.10498
 H399 H 0.47579 0.30357 0.09579
 H400 H 0.46482 0.21383 0.08886
 H401 H 0.42548 0.22026 0.05585
 H402 H 0.43742 0.31173 0.06323
 H403 H 0.55796 0.26598 0.13118
 H404 H 0.60018 0.25080 0.11061
 H405 H 0.55378 0.19134 0.05741
 H406 H 0.51216 0.20950 0.07781
 C407 C 0.52371 0.33952 0.16632
 C408 C 0.46466 0.18010 0.17593
 C409 C 0.58066 0.21972 0.08211
 C410 C 0.42854 0.26657 0.05651
 C411 C 0.97807 0.71592 0.66895
 H412 H 0.98004 0.73747 0.67718
 C413 C 0.96809 0.69426 0.68589
 H414 H 0.96244 0.69934 0.70708
 C415 C 0.98275 0.68288 0.63144
 H416 H 0.98834 0.67862 0.61009
 C417 C 0.97326 0.66060 0.64770
 H418 H 0.97125 0.63934 0.63858
 N419 N 0.98477 0.70997 0.64210
 C420 C 1.03574 0.77938 0.63625
 H421 H 1.04941 0.76605 0.62482
 C422 C 1.04562 0.80449 0.64901
 H423 H 1.06676 0.81017 0.64687
 C424 C 0.99152 0.78884 0.65160
 H425 H 0.97032 0.78280 0.65204
 C426 C 1.00062 0.81423 0.66482
 H427 H 0.98638 0.82730 0.67589
 Zn428 Zn 0.99676 0.73877 0.61751
 N429 N 1.00911 0.77201 0.63765
 C430 C 0.96480 0.77670 0.58514
 N431 N 0.96755 0.74881 0.59253
 C432 C 0.94865 0.72883 0.58411
 C433 C 0.92532 0.73686 0.56865
 C434 C 0.94183 0.78565 0.56970
 C435 C 1.04300 0.70548 0.61079
 C436 C 1.06591 0.69535 0.59775
 C437 C 1.05414 0.72451 0.55755
 C438 C 1.03113 0.73381 0.57125
 N439 N 1.02602 0.72412 0.59736
 H440 H 0.98010 0.79222 0.59190
 H441 H 0.95118 0.70675 0.59001
 H442 H 0.91029 0.72074 0.56257
 H443 H 0.93958 0.80818 0.56512
 H444 H 1.03900 0.69883 0.63189
 H445 H 1.07931 0.68068 0.60886
 H446 H 1.05808 0.73237 0.53680
 H447 H 1.01760 0.74911 0.56129
 C448 C 1.02804 0.82237 0.66355
 C449 C 0.96549 0.66622 0.67519
 C450 C 1.07177 0.70495 0.57085
 C451 C 0.92144 0.76571 0.56169
 C452 C 0.52526 0.73247 0.35303
 H453 H 0.53559 0.75296 0.35424
 C454 C 0.53696 0.70969 0.33878
 H455 H 0.55590 0.71303 0.32846
 C456 C 0.48921 0.70255 0.36672
 H457 H 0.47122 0.69938 0.37853
 C458 C 0.50001 0.67931 0.35236
 H459 H 0.49003 0.65862 0.35308
 N460 N 0.50200 0.72850 0.36703
 C461 C 0.45976 0.80797 0.38108
 H462 H 0.45252 0.80274 0.40154
 C463 C 0.44902 0.83150 0.36690
 H464 H 0.43416 0.84425 0.37740
 C465 C 0.48879 0.79801 0.34393
 H466 H 0.50389 0.78461 0.33472
 C467 C 0.47902 0.82185 0.32917
 H468 H 0.48670 0.82576 0.30860
 Zn469 Zn 0.48982 0.75880 0.39050
 N470 N 0.47897 0.79145 0.36937
 C471 C 0.51736 0.79440 0.43082
 N472 N 0.51850 0.76921 0.41640
 C473 C 0.54056 0.75196 0.41912
 C474 C 0.56338 0.76076 0.43520
 C475 C 0.53964 0.80387 0.44751
 C476 C 0.43641 0.73960 0.39425
 C477 C 0.41286 0.73094 0.40713
 C478 C 0.43589 0.73847 0.45226
 C479 C 0.45925 0.74640 0.43844
 N480 N 0.45911 0.74665 0.40993
 H481 H 0.49945 0.80755 0.42873
 H482 H 0.54086 0.73163 0.40817
 H483 H 0.58121 0.74736 0.43552
 H484 H 0.53842 0.82422 0.45841
 H485 H 0.43678 0.74040 0.37160
 H486 H 0.39552 0.72432 0.39401
 H487 H 0.43637 0.73895 0.47496
 H488 H 0.47739 0.75260 0.45050
 C489 C 0.45829 0.83883 0.34026
 C490 C 0.52449 0.68261 0.33869
 C491 C 0.41226 0.73030 0.43659
 C492 C 0.56347 0.78741 0.44913
 C493 C 0.36360 0.00573 0.24678
 C494 C 0.12171 1.00279 0.73936
 C495 C 0.62165 0.51261 0.25345
 C496 C 0.85741 0.50364 0.75519
 C497 C 0.25441 0.35590 -0.00752
 C498 C 0.75214 0.13254 1.00802
 C499 C 0.24847 0.62300 0.50468
 C500 C 0.75017 0.86856 0.50084
 C501 C -0.00463 0.24899 0.37726
 C502 C 1.01100 0.74364 0.11877
 C503 C 0.50424 0.25492 0.61865
 C504 C 0.50723 0.76387 0.88120
 C505 C 0.42304 -0.09147 0.29525
 C506 C 0.40792 -0.10703 0.31421
 C507 C 0.41958 -0.12967 0.32911
 C508 C 0.44673 -0.13787 0.32514
 C509 C 0.46170 -0.12224 0.30563
 C510 C 0.45008 -0.09905 0.29120
 C511 C 0.41022 -0.06741 0.27994
 C512 C 0.42099 -0.03967 0.28242
 C513 C 0.40671 -0.01643 0.27104
 C514 C 0.38160 -0.02029 0.25584
 C515 C 0.37155 -0.04869 0.25313
 C516 C 0.38559 -0.07172 0.26494
 H517 H 0.40665 -0.14141 0.34284
 H518 H 0.48276 -0.12699 0.30220
 H519 H 0.41469 0.00477 0.27574
 H520 H 0.35227 -0.05359 0.24283
 H521 H 0.46212 -0.08719 0.27669
 H522 H 0.43968 -0.03578 0.29458
 H523 H 0.38697 -0.10154 0.31762
 H524 H 0.37680 -0.09300 0.26298
 C525 C 0.92569 0.40795 0.79427
 C526 C 0.93206 0.40678 0.82325
 C527 C 0.94435 0.38267 0.83502
 C528 C 0.94993 0.35852 0.81840
 C529 C 0.94430 0.35992 0.78930
 C530 C 0.93268 0.38442 0.77737
 C531 C 0.91045 0.43281 0.78224
 C532 C 0.89218 0.42910 0.75912
 C533 C 0.87605 0.45167 0.74942
 C534 C 0.87645 0.47845 0.76350
 C535 C 0.89624 0.48256 0.78540
 C536 C 0.91295 0.46022 0.79455
 H537 H 0.94912 0.38295 0.85736
 H538 H 0.94811 0.34184 0.77569
 H539 H 0.86328 0.44752 0.73096
 H540 H 0.89823 0.50311 0.79603
 H541 H 0.92886 0.38463 0.75488
 H542 H 0.88963 0.40850 0.74876
 H543 H 0.92680 0.42411 0.83720
 H544 H 0.92760 0.46449 0.81157
 C545 C 0.06276 1.10118 0.78506
 C546 C 0.03432 1.10335 0.78452
 C547 C 0.02187 1.12741 0.79601
 C548 C 0.03760 1.14980 0.80830
 C549 C 0.06604 1.14783 0.80820
 C550 C 0.07842 1.12394 0.79662
 C551 C 0.07628 1.07512 0.77433
 C552 C 0.09952 1.06458 0.78843
 C553 C 0.11350 1.04130 0.77779
 C554 C 0.10451 1.02700 0.75278
 C555 C 0.08063 1.03754 0.73908
 C556 C 0.06674 1.06110 0.74970
 H557 H -0.00007 1.12839 0.79542
 H558 H 0.07883 1.16441 0.81780
 H559 H 0.13169 1.03518 0.78938
 H560 H 0.07334 1.02837 0.71924
 H561 H 0.10038 1.12324 0.79689
 H562 H 0.10718 1.07455 0.80777
 H563 H 0.02167 1.08616 0.77585
 H564 H 0.04909 1.06896 0.73804
 C565 C 0.56395 0.60927 0.30336
 C566 C 0.53622 0.61424 0.29728
 C567 C 0.52331 0.63803 0.30873
 C568 C 0.53794 0.65752 0.32617
 C569 C 0.56554 0.65253 0.33237
 C570 C 0.57834 0.62861 0.32130
 C571 C 0.57806 0.58443 0.29071
 C572 C 0.60522 0.58703 0.28321
 C573 C 0.61871 0.56392 0.27161
 C574 C 0.60523 0.53769 0.26564
 C575 C 0.57831 0.53474 0.27437
 C576 C 0.56485 0.55788 0.28641
 H577 H 0.50199 0.64146 0.30362
 H578 H 0.57713 0.66690 0.34626
 H579 H 0.63985 0.56668 0.26680
 H580 H 0.56769 0.51445 0.27261
 H581 H 0.59949 0.62515 0.32710
 H582 H 0.61616 0.60707 0.28609
 H583 H 0.52458 0.60004 0.28328
 H584 H 0.54427 0.55474 0.29296
 C585 C 0.55797 0.41610 0.20506
 C586 C 0.55636 0.39051 0.22024
 C587 C 0.54443 0.36598 0.20803
 C588 C 0.53353 0.36646 0.18038
 C589 C 0.53381 0.39249 0.16573
 C590 C 0.54596 0.41700 0.17789
 C591 C 0.57373 0.44093 0.21698
 C592 C 0.56542 0.46932 0.21251
 C593 C 0.58073 0.49229 0.22399
 C594 C 0.60415 0.48746 0.24121
 C595 C 0.61324 0.45893 0.24372
 C596 C 0.59813 0.43615 0.23222
 H597 H 0.54479 0.34636 0.21991
 H598 H 0.52512 0.39378 0.14459
 H599 H 0.57409 0.51389 0.21964
 H600 H 0.63236 0.45395 0.25440
 H601 H 0.54690 0.43631 0.16558
 H602 H 0.54700 0.47380 0.20029
 H603 H 0.56492 0.38923 0.24144
 H604 H 0.60596 0.41469 0.23478
 C605 C 0.06114 0.90206 0.69621
 C606 C 0.03432 0.90089 0.68525
 C607 C 0.02312 0.87485 0.67535
 C608 C 0.03850 0.84955 0.67656
 C609 C 0.06483 0.85070 0.68895
 C610 C 0.07604 0.87664 0.69848
 C611 C 0.07434 0.92962 0.70435
 C612 C 0.10012 0.93595 0.69480
 C613 C 0.11439 0.96008 0.70462
 C614 C 0.10346 0.97919 0.72439
 C615 C 0.07685 0.97281 0.73316
 C616 C 0.06245 0.94866 0.72302
 H617 H 0.00285 0.87475 0.66579
 H618 H 0.07697 0.83154 0.69095
 H619 H 0.13446 0.96252 0.69703
 H620 H 0.06770 0.98518 0.74953
 H621 H 0.09658 0.87692 0.70743
 H622 H 0.10966 0.92164 0.68017
 H623 H 0.02245 0.92025 0.68333
 H624 H 0.04268 0.94395 0.73106
 C625 C 0.92715 0.59739 0.71839
 C626 C 0.91632 0.62519 0.71898
 C627 C 0.92941 0.64780 0.70596
 C628 C 0.95346 0.64308 0.69184
 C629 C 0.96483 0.61558 0.69206
 C630 C 0.95190 0.59301 0.70531
 C631 C 0.91172 0.57289 0.72976
 C632 C 0.91113 0.54622 0.71589
 C633 C 0.89450 0.52411 0.72491
 C634 C 0.87697 0.52826 0.74733
 C635 C 0.87956 0.55428 0.76265
 C636 C 0.89641 0.57630 0.75378
 H637 H 0.92004 0.66872 0.70582
 H638 H 0.98357 0.61148 0.68163
 H639 H 0.89427 0.50397 0.71344
 H640 H 0.86880 0.55801 0.78162
 H641 H 0.96112 0.57205 0.70498
 H642 H 0.92274 0.54266 0.69737
 H643 H 0.89710 0.62929 0.72846
 H644 H 0.89737 0.59613 0.76574
 C645 C 0.42499 0.10734 0.21228
 C646 C 0.40990 0.12800 0.19739
 C647 C 0.42275 0.15165 0.18594
 C648 C 0.45102 0.15546 0.18934
 C649 C 0.46607 0.13489 0.20460
 C650 C 0.45321 0.11099 0.21579
 C651 C 0.41110 0.08186 0.22352
 C652 C 0.42124 0.05428 0.21927
 C653 C 0.40657 0.03022 0.22748
 C654 C 0.38132 0.03280 0.24060
 C655 C 0.37210 0.06101 0.24559
 C656 C 0.38666 0.08494 0.23718
 H657 H 0.41052 0.16654 0.17375
 H658 H 0.48781 0.13728 0.20800
 H659 H 0.41452 0.00937 0.22228
 H660 H 0.35338 0.06542 0.25553
 H661 H 0.46527 0.09548 0.22740
 H662 H 0.43994 0.05123 0.20845
 H663 H 0.38817 0.12546 0.19394
 H664 H 0.37855 0.10606 0.24107
 C665 C 0.30100 0.42496 -0.09573
 C666 C 0.32140 0.41171 -0.11088
 C667 C 0.33370 0.42601 -0.13255
 C668 C 0.32601 0.45402 -0.13957
 C669 C 0.30575 0.46748 -0.12430
 C670 C 0.29344 0.45311 -0.10242
 C671 C 0.28741 0.40883 -0.07358
 C672 C 0.28290 0.42126 -0.04725
 C673 C 0.27183 0.40501 -0.02588
 C674 C 0.26432 0.37606 -0.03066
 C675 C 0.26916 0.36396 -0.05724
 C676 C 0.28016 0.38011 -0.07839
 H677 H 0.34897 0.41491 -0.14415
 H678 H 0.29956 0.48913 -0.12919
 H679 H 0.27026 0.41498 -0.00548
 H680 H 0.26455 0.34161 -0.06154
 H681 H 0.27767 0.46374 -0.09112
 H682 H 0.28894 0.44323 -0.04285
 H683 H 0.32787 0.39016 -0.10596
 H684 H 0.28328 0.36997 -0.09852
 C685 C 0.79577 0.92018 0.40138
 C686 C 0.81410 0.90378 0.38623
 C687 C 0.82560 0.91471 0.36230
 C688 C 0.81914 0.94236 0.35300
 C689 C 0.80080 0.95883 0.36811
 C690 C 0.78928 0.94787 0.39215
 C691 C 0.78334 0.90808 0.42650
 C692 C 0.78078 0.92458 0.45102
 C693 C 0.76997 0.91257 0.47498
 C694 C 0.76072 0.88388 0.47472
 C695 C 0.76409 0.86743 0.45011
 C696 C 0.77481 0.87941 0.42632
 H697 H 0.83944 0.90140 0.35094
 H698 H 0.79566 0.98032 0.36155
 H699 H 0.76978 0.92567 0.49376
 H700 H 0.75821 0.84505 0.44934
 H701 H 0.77505 0.96088 0.40333
 H702 H 0.78797 0.94654 0.45195
 H703 H 0.81977 0.88252 0.39303
 H704 H 0.77644 0.86614 0.40772
 C705 C 0.77867 0.06348 1.10674
 C706 C 0.77353 0.07258 1.13408
 C707 C 0.78525 0.05851 1.15720
 C708 C 0.80309 0.03522 1.15367
 C709 C 0.80696 0.02553 1.12583
 C710 C 0.79480 0.03937 1.10283
 C711 C 0.76971 0.08077 1.08238
 C712 C 0.77580 0.11006 1.08219
 C713 C 0.77003 0.12618 1.05834
 C714 C 0.75829 0.11346 1.03373
 C715 C 0.75017 0.08446 1.03496
 C716 C 0.75653 0.06812 1.05874
 H717 H 0.77994 0.06614 1.17771
 H718 H 0.82081 0.00850 1.12110
 H719 H 0.77530 0.14871 1.05892
 H720 H 0.73894 0.07425 1.01767
 H721 H 0.79931 0.03221 1.08185
 H722 H 0.78582 0.12034 1.10026
 H723 H 0.76071 0.09094 1.13754
 H724 H 0.75104 0.04563 1.05878
 C725 C 0.28775 0.56343 0.60652
 C726 C 0.27361 0.56186 0.63155
 C727 C 0.28619 0.55090 0.65593
 C728 C 0.31309 0.54120 0.65569
 C729 C 0.32711 0.54262 0.63062
 C730 C 0.31462 0.55361 0.60637
 C731 C 0.27525 0.57655 0.58096
 C732 C 0.28037 0.56554 0.55426
 C733 C 0.27114 0.57972 0.53015
 C734 C 0.25587 0.60530 0.53163
 C735 C 0.25047 0.61565 0.55888
 C736 C 0.25983 0.60148 0.58298
 H737 H 0.27485 0.54984 0.67491
 H738 H 0.34806 0.53591 0.62993
 H739 H 0.27736 0.57119 0.51026
 H740 H 0.23972 0.63518 0.56238
 H741 H 0.32632 0.55519 0.58768
 H742 H 0.29218 0.54626 0.55194
 H743 H 0.25281 0.56905 0.63225
 H744 H 0.25596 0.61087 0.60328
 C745 C 0.22368 0.55415 0.40289
 C746 C 0.19827 0.54034 0.40180
 C747 C 0.18777 0.52856 0.37669
 C748 C 0.20231 0.53041 0.35200
 C749 C 0.22833 0.54288 0.35327
 C750 C 0.23890 0.55472 0.37851
 C751 C 0.23295 0.56990 0.42875
 C752 C 0.24452 0.59726 0.42688
 C753 C 0.25016 0.61377 0.45097
 C754 C 0.24487 0.60340 0.47804
 C755 C 0.23331 0.57563 0.47950
 C756 C 0.22780 0.55910 0.45537
 H757 H 0.16784 0.51863 0.37640
 H758 H 0.23996 0.54457 0.33454
 H759 H 0.25792 0.63508 0.44784
 H760 H 0.22722 0.56707 0.49931
 H761 H 0.25870 0.56491 0.37880
 H762 H 0.24804 0.60656 0.40662
 H763 H 0.18587 0.53976 0.42005
 H764 H 0.21874 0.53810 0.45756
 C765 C 0.73496 0.07449 0.89918
 C766 C 0.73004 0.04493 0.89807
 C767 C 0.72048 0.03179 0.87311
 C768 C 0.71559 0.04788 0.84846
 C769 C 0.72281 0.07724 0.84940
 C770 C 0.73216 0.09030 0.87441
 C771 C 0.74031 0.08929 0.92646
 C772 C 0.72586 0.11411 0.93278
 C773 C 0.72943 0.12753 0.95886
 C774 C 0.74698 0.11610 0.97997
 C775 C 0.76289 0.09229 0.97266
 C776 C 0.75905 0.07859 0.94654
 H777 H 0.71688 0.00894 0.87345
 H778 H 0.71929 0.09103 0.83158
 H779 H 0.71841 0.14712 0.96234
 H780 H 0.77834 0.08420 0.98717
 H781 H 0.73621 0.11312 0.87465
 H782 H 0.71144 0.12302 0.91760
 H783 H 0.73233 0.03218 0.91685
 H784 H 0.77103 0.05991 0.94185
 C785 C 0.71724 0.94089 0.59471
 C786 C 0.73468 0.94646 0.61820
 C787 C 0.72501 0.95994 0.64207
 C788 C 0.69776 0.96832 0.64289
 C789 C 0.68058 0.96377 0.61903
 C790 C 0.69021 0.95016 0.59521
 C791 C 0.72672 0.92373 0.57066
 C792 C 0.71827 0.92993 0.54293
 C793 C 0.72622 0.91257 0.52067
 C794 C 0.74355 0.88901 0.52534
 C795 C 0.75106 0.88248 0.55347
 C796 C 0.74310 0.89976 0.57561
 H797 H 0.73878 0.96358 0.66001
 H798 H 0.65938 0.96966 0.61920
 H799 H 0.71871 0.91748 0.49965
 H800 H 0.76241 0.86345 0.55880
 H801 H 0.67617 0.94581 0.57765
 H802 H 0.70535 0.94811 0.53845
 H803 H 0.75574 0.94002 0.61825
 H804 H 0.74898 0.89365 0.59682
 C805 C 0.21669 0.41014 0.09539
 C806 C 0.21367 0.43992 0.09825
 C807 C 0.20401 0.45175 0.12301
 C808 C 0.19711 0.43403 0.14536
 C809 C 0.20040 0.40431 0.14254
 C810 C 0.20996 0.39251 0.11785
 C811 C 0.22694 0.39731 0.06926
 C812 C 0.24482 0.37412 0.07078
 C813 C 0.25377 0.36108 0.04647
 C814 C 0.24604 0.37147 0.01959
 C815 C 0.22734 0.39423 0.01825
 C816 C 0.21825 0.40725 0.04272
 H817 H 0.20140 0.47471 0.12443
 H818 H 0.19552 0.39009 0.15946
 H819 H 0.26638 0.34239 0.04909
 H820 H 0.21965 0.40188 -0.00186
 H821 H 0.21170 0.36947 0.11621
 H822 H 0.25182 0.36583 0.09088
 H823 H 0.21892 0.45406 0.08141
 H824 H 0.20385 0.42459 0.04085
 C825 C -0.10084 0.28857 0.43475
 C826 C -0.11310 0.27463 0.45705
 C827 C -0.13618 0.28624 0.46907
 C828 C -0.14719 0.31214 0.45920
 C829 C -0.13466 0.32610 0.43711
 C830 C -0.11180 0.31451 0.42510
 C831 C -0.07704 0.27621 0.42089
 C832 C -0.07592 0.27685 0.39158
 C833 C -0.05290 0.26758 0.37825
 C834 C -0.02983 0.25782 0.39373
 C835 C -0.03180 0.25528 0.42309
 C836 C -0.05505 0.26464 0.43650
 H837 H -0.14531 0.27509 0.48618
 H838 H -0.14282 0.34585 0.42871
 H839 H -0.05270 0.26880 0.35559
 H840 H -0.01562 0.24612 0.43592
 H841 H -0.10263 0.32595 0.40819
 H842 H -0.09288 0.28477 0.37887
 H843 H -0.10515 0.25453 0.46481
 H844 H -0.05557 0.26343 0.45914
 C845 C 0.40643 0.78969 0.93735
 C846 C 0.40534 0.80306 0.96383
 C847 C 0.38039 0.81179 0.97409
 C848 C 0.35621 0.80724 0.95802
 C849 C 0.35726 0.79222 0.93243
 C850 C 0.38205 0.78356 0.92222
 C851 C 0.43274 0.78404 0.92432
 C852 C 0.43598 0.79115 0.89616
 C853 C 0.46013 0.78530 0.88313
 C854 C 0.48226 0.77266 0.89790
 C855 C 0.47871 0.76512 0.92618
 C856 C 0.45440 0.77122 0.93934
 H857 H 0.38016 0.82341 0.99384
 H858 H 0.33888 0.78789 0.91988
 H859 H 0.46149 0.79041 0.86112
 H860 H 0.49417 0.75362 0.93804
 H861 H 0.38224 0.77267 0.90207
 H862 H 0.41969 0.80120 0.88405
 H863 H 0.42385 0.80804 0.97589
 H864 H 0.45219 0.76500 0.96095
 C865 C 1.10917 0.77082 0.05846
 C866 C 1.10914 0.77391 0.02921
 C867 C 1.13226 0.78421 0.01632
 C868 C 1.15589 0.79134 0.03245
 C869 C 1.15634 0.78661 0.06150
 C870 C 1.13322 0.77653 0.07436
 C871 C 1.08374 0.76412 0.07276
 C872 C 1.07682 0.78035 0.09624
 C873 C 1.05318 0.77445 0.11020
 C874 C 1.03509 0.75246 0.10080
 C875 C 1.04273 0.73557 0.07768
 C876 C 1.06641 0.74175 0.06344
 H877 H 1.13144 0.78737 -0.00616
 H878 H 1.17412 0.79211 0.07454
 H879 H 1.04964 0.78682 0.12898
 H880 H 1.03058 0.71724 0.07088
 H881 H 1.13388 0.77398 0.09693
 H882 H 1.08986 0.79768 0.10396
 H883 H 1.09086 0.76969 0.01649
 H884 H 1.07161 0.72851 0.04569
 C885 C 0.59711 0.28499 0.55088
 C886 C 0.59940 0.31280 0.54031
 C887 C 0.62298 0.32160 0.52757
 C888 C 0.64495 0.30281 0.52500
 C889 C 0.64230 0.27459 0.53463
 C890 C 0.61851 0.26570 0.54734
 C891 C 0.57332 0.27724 0.56743
 C892 C 0.55966 0.25099 0.56347
 C893 C 0.53722 0.24430 0.57944
 C894 C 0.52761 0.26380 0.59959
 C895 C 0.54250 0.28951 0.60418
 C896 C 0.56459 0.29625 0.58807
 H897 H 0.62442 0.34360 0.52082
 H898 H 0.65880 0.25957 0.53280
 H899 H 0.52732 0.22372 0.57617
 H900 H 0.53789 0.30439 0.62078
 H901 H 0.61730 0.24417 0.55543
 H902 H 0.56624 0.23572 0.54794
 H903 H 0.58312 0.32802 0.54256
 H904 H 0.57542 0.31616 0.59235
 C905 C 0.40323 0.21530 0.56120
 C906 C 0.39248 0.18930 0.57048
 C907 C 0.36865 0.17795 0.55819
 C908 C 0.35491 0.19215 0.53608
 C909 C 0.36556 0.21820 0.52668
 C910 C 0.38960 0.22962 0.53905
 C911 C 0.42837 0.22721 0.57513
 C912 C 0.44914 0.23930 0.55960
 C913 C 0.47353 0.24851 0.57298
 C914 C 0.47795 0.24528 0.60224
 C915 C 0.45621 0.23473 0.61767
 C916 C 0.43201 0.22566 0.60437
 H917 H 0.36079 0.15809 0.56626
 H918 H 0.35547 0.22955 0.50961
 H919 H 0.48860 0.25829 0.56023
 H920 H 0.45825 0.23304 0.64029
 H921 H 0.39731 0.24980 0.53159
 H922 H 0.44673 0.24115 0.53702
 H923 H 0.40265 0.17755 0.58725
 H924 H 0.41606 0.21733 0.61708
 C925 C 0.90987 0.70537 0.06113
 C926 C 0.89418 0.72168 0.04204
 C927 C 0.86925 0.71108 0.03105
 C928 C 0.85973 0.68392 0.03882
 C929 C 0.87586 0.66749 0.05740
 C930 C 0.90060 0.67800 0.06827
 C931 C 0.93511 0.71695 0.07502
 C932 C 0.93971 0.71270 0.10383
 C933 C 0.96387 0.72159 0.11717
 C934 C 0.98471 0.73457 0.10215
 C935 C 0.97923 0.74072 0.07355
 C936 C 0.95478 0.73169 0.06007
 H937 H 0.85740 0.72414 0.01657
 H938 H 0.86904 0.64670 0.06421
 H939 H 0.96658 0.71781 0.13947
 H940 H 0.99356 0.75261 0.06154
 H941 H 0.91241 0.66477 0.08265
 H942 H 0.92451 0.70241 0.11618
 H943 H 0.90079 0.74290 0.03628
 H944 H 0.95145 0.73582 0.03791
 C945 C 0.60235 0.72974 0.95000
 C946 C 0.60277 0.70117 0.95874
 C947 C 0.62586 0.68993 0.97213
 C948 C 0.64920 0.70695 0.97699
 C949 C 0.64848 0.73593 0.96918
 C950 C 0.62510 0.74731 0.95595
 C951 C 0.57915 0.73979 0.93229
 C952 C 0.56475 0.76461 0.93891
 C953 C 0.54172 0.77235 0.92257
 C954 C 0.53229 0.75509 0.89965
 C955 C 0.54863 0.73175 0.89192
 C956 C 0.57121 0.72387 0.90834
 H957 H 0.62586 0.66744 0.97746
 H958 H 0.66614 0.74955 0.97279
 H959 H 0.53099 0.79163 0.92807
 H960 H 0.54422 0.71936 0.87301
 H961 H 0.62521 0.76938 0.94921
 H962 H 0.57100 0.77763 0.95696
 H963 H 0.58541 0.68726 0.95439
 H964 H 0.58273 0.70532 0.90215
 C965 C 0.09381 0.21907 0.44377
 C966 C 0.09625 0.19147 0.45490
 C967 C 0.12087 0.18225 0.46685
 C968 C 0.14378 0.20037 0.46794
 C969 C 0.14113 0.22840 0.45769
 C970 C 0.11627 0.23775 0.44586
 C971 C 0.06868 0.22691 0.42766
 C972 C 0.05546 0.25300 0.43203
 C973 C 0.03164 0.25959 0.41643
 C974 C 0.02027 0.24020 0.39617
 C975 C 0.03480 0.21472 0.39116
 C976 C 0.05816 0.20802 0.40698
 H977 H 0.12224 0.16041 0.47414
 H978 H 0.15837 0.24290 0.45839
 H979 H 0.02209 0.28005 0.41999
 H980 H 0.02895 0.19996 0.37442
 H981 H 0.11492 0.25908 0.43725
 H982 H 0.06347 0.26818 0.44759
 H983 H 0.07920 0.17670 0.45362
 H984 H 0.06856 0.18825 0.40242
 C985 C 0.55353 0.16113 0.68388
 C986 C 0.53767 0.13774 0.69215
 C987 C 0.54973 0.11432 0.70557
 C988 C 0.57786 0.11388 0.71129
 C989 C 0.59361 0.13761 0.70384
 C990 C 0.58161 0.16094 0.69022
 C991 C 0.54096 0.18496 0.66764
 C992 C 0.54980 0.21340 0.67173
 C993 C 0.53805 0.23552 0.65598
 C994 C 0.51634 0.23011 0.63642
 C995 C 0.50870 0.20121 0.63147
 C996 C 0.52055 0.17916 0.64705
 H997 H 0.53707 0.09647 0.71140
 H998 H 0.61542 0.13767 0.70763
 H999 H 0.54566 0.25712 0.65934
 H1000 H 0.49399 0.19513 0.61508
 H1001 H 0.59448 0.17835 0.68378
 H1002 H 0.56573 0.21864 0.68722
 H1003 H 0.51591 0.13746 0.68810
 H1004 H 0.51416 0.15735 0.64237
 C1005 C 1.05785 0.64594 0.17978
 C1006 C 1.08482 0.64671 0.19039
 C1007 C 1.09676 0.62224 0.20193
 C1008 C 1.08212 0.59631 0.20288
 C1009 C 1.05485 0.59585 0.19318
 C1010 C 1.04283 0.62039 0.18195
 C1011 C 1.04584 0.67099 0.16498
 C1012 C 1.02897 0.66661 0.14098
 C1013 C 1.01772 0.68969 0.12657
 C1014 C 1.02230 0.71816 0.13601
 C1015 C 1.04081 0.72248 0.15900
 C1016 C 1.05193 0.69924 0.17367
 H1017 H 1.11762 0.62357 0.20981
 H1018 H 1.04298 0.57629 0.19342
 H1019 H 1.00579 0.68499 0.10756
 H1020 H 1.04658 0.74393 0.16575
 H1021 H 1.02183 0.61920 0.17450
 H1022 H 1.02498 0.64525 0.13275
 H1023 H 1.09704 0.66594 0.18894
 H1024 H 1.06528 0.70342 0.19181
 C1025 C 0.96393 0.83990 0.17864
 C1026 C 0.93983 0.85077 0.16644
 C1027 C 0.92672 0.87366 0.17894
 C1028 C 0.93769 0.88642 0.20364
 C1029 C 0.96188 0.87568 0.21586
 C1030 C 0.97477 0.85232 0.20359
 C1031 C 0.97780 0.81605 0.16474
 C1032 C 0.98391 0.79072 0.17912
 C1033 C 0.99496 0.76736 0.16501
 C1034 C 1.00126 0.76929 0.13641
 C1035 C 0.99483 0.79498 0.12233
 C1036 C 0.98341 0.81798 0.13628
 H1037 H 0.90817 0.88171 0.16909
 H1038 H 0.97057 0.88516 0.23500
 H1039 H 0.99749 0.74762 0.17640
 H1040 H 0.99827 0.79701 0.10014
 H1041 H 0.99341 0.84426 0.21324
 H1042 H 0.97901 0.78860 0.20096
 H1043 H 0.93109 0.84139 0.14726
 H1044 H 0.97862 0.83726 0.12471
 C1045 C 0.46249 0.35224 0.68206
 C1046 C 0.47644 0.36457 0.70547
 C1047 C 0.46550 0.38806 0.71948
 C1048 C 0.44020 0.39909 0.71061
 C1049 C 0.42624 0.38657 0.68733
 C1050 C 0.43734 0.36350 0.67310
 C1051 C 0.47403 0.32783 0.66667
 C1052 C 0.47491 0.32844 0.63737
 C1053 C 0.48489 0.30516 0.62258
 C1054 C 0.49464 0.28054 0.63660
 C1055 C 0.49264 0.27975 0.66609
 C1056 C 0.48300 0.30335 0.68093
 H1057 H 0.47656 0.39737 0.73743
 H1058 H 0.40680 0.39487 0.67997
 H1059 H 0.48513 0.30630 0.59992
 H1060 H 0.49771 0.26084 0.67795
 H1061 H 0.42615 0.35422 0.65522
 H1062 H 0.46787 0.34703 0.62587
 H1063 H 0.49595 0.35628 0.71262
 H1064 H 0.48169 0.30212 0.70351
 C1065 C 0.46653 0.66355 0.81749
 C1066 C 0.48006 0.63751 0.82180
 C1067 C 0.46978 0.61221 0.80963
 C1068 C 0.44556 0.61231 0.79309
 C1069 C 0.43266 0.63864 0.78782
 C1070 C 0.44313 0.66404 0.79981
 C1071 C 0.47592 0.68957 0.83303
 C1072 C 0.47874 0.71593 0.81954
 C1073 C 0.48851 0.74005 0.83453
 C1074 C 0.49615 0.73818 0.86333
 C1075 C 0.49101 0.71209 0.87695
 C1076 C 0.48166 0.68806 0.86196
 H1077 H 0.48058 0.59246 0.81358
 H1078 H 0.41380 0.63947 0.77547
 H1079 H 0.48978 0.76007 0.82348
 H1080 H 0.49498 0.71013 0.89934
 H1081 H 0.43226 0.68385 0.79634
 H1082 H 0.47368 0.71777 0.79733
 H1083 H 0.49840 0.63669 0.83501
 H1084 H 0.47868 0.66824 0.87307
 C1085 C -0.04100 0.14720 0.31286
 C1086 C -0.03194 0.12059 0.32291
 C1087 C -0.04178 0.09516 0.31070
 C1088 C -0.06071 0.09573 0.28799
 C1089 C -0.06853 0.12224 0.27673
 C1090 C -0.05879 0.14781 0.28911
 C1091 C -0.03305 0.17386 0.32835
 C1092 C -0.02651 0.19911 0.31427
 C1093 C -0.01801 0.22368 0.32936
 C1094 C -0.01516 0.22332 0.35897
 C1095 C -0.02376 0.19845 0.37278
 C1096 C -0.03225 0.17411 0.35778
 H1097 H -0.03514 0.07497 0.31948
 H1098 H -0.08327 0.12320 0.25934
 H1099 H -0.01386 0.24272 0.31759
 H1100 H -0.02308 0.19765 0.39550
 H1101 H -0.06620 0.16797 0.28096
 H1102 H -0.02757 0.19975 0.29156
 H1103 H -0.01769 0.11942 0.34070
 H1104 H -0.03824 0.15539 0.36931
 C1105 C 0.04345 0.34603 0.31920
 C1106 C 0.05069 0.37028 0.33555
 C1107 C 0.06378 0.39349 0.32369
 C1108 C 0.06991 0.39306 0.29518
 C1109 C 0.06230 0.36904 0.27863
 C1110 C 0.04931 0.34565 0.29059
 C1111 C 0.03004 0.32128 0.33229
 C1112 C 0.03845 0.29315 0.32701
 C1113 C 0.02691 0.27015 0.34102
 C1114 C 0.00596 0.27445 0.36001
 C1115 C -0.00183 0.30303 0.36544
 C1116 C 0.00971 0.32589 0.35152
 H1117 H 0.06925 0.41180 0.33688
 H1118 H 0.06703 0.36806 0.25665
 H1119 H 0.03460 0.24884 0.33730
 H1120 H -0.01621 0.30834 0.38119
 H1121 H 0.04378 0.32730 0.27749
 H1122 H 0.05462 0.28904 0.31280
 H1123 H 0.04672 0.37106 0.35773
 H1124 H 0.00297 0.34738 0.35620
 C1125 C 0.55361 0.85910 0.81878
 C1126 C 0.53891 0.88438 0.81374
 C1127 C 0.55097 0.90772 0.80082
 C1128 C 0.57791 0.90621 0.79241
 C1129 C 0.59243 0.88077 0.79687
 C1130 C 0.58046 0.85751 0.80998
 C1131 C 0.54129 0.83490 0.83401
 C1132 C 0.54692 0.80634 0.82690
 C1133 C 0.53584 0.78378 0.84187
 C1134 C 0.51789 0.78897 0.86368
 C1135 C 0.51338 0.81778 0.87143
 C1136 C 0.52459 0.84029 0.85663
 H1137 H 0.53921 0.92695 0.79733
 H1138 H 0.61338 0.87916 0.79100
 H1139 H 0.54128 0.76210 0.83631
 H1140 H 0.50170 0.82321 0.88945
 H1141 H 0.59254 0.83861 0.81397
 H1142 H 0.55992 0.80137 0.80974
 H1143 H 0.51803 0.88615 0.81979
 H1144 H 0.52078 0.86202 0.86348
 C1145 C 0.68333 0.54966 0.15723
 C1146 C 0.69091 0.57853 0.15643
 C1147 C 0.70408 0.58950 0.13347
 C1148 C 0.70993 0.57202 0.10996
 C1149 C 0.70275 0.54259 0.11154
 C1150 C 0.68986 0.53163 0.13489
 C1151 C 0.66737 0.53917 0.18079
 C1152 C 0.67464 0.51432 0.19548
 C1153 C 0.66008 0.50585 0.21873
 C1154 C 0.63826 0.52237 0.22826
 C1155 C 0.62981 0.54580 0.21162
 C1156 C 0.64451 0.55444 0.18878
 H1157 H 0.70764 0.61233 0.13390
 H1158 H 0.70764 0.52738 0.09532
 H1159 H 0.66609 0.48649 0.22951
 H1160 H 0.61166 0.55764 0.21604
 H1161 H 0.68435 0.50915 0.13514
 H1162 H 0.69185 0.50177 0.18928
 H1163 H 0.68611 0.59289 0.17350
 H1164 H 0.63778 0.57299 0.17703
 C1165 C 0.18796 1.04934 0.64954
 C1166 C 0.19674 1.03072 0.62843
 C1167 C 0.20904 1.04156 0.60471
 C1168 C 0.21303 1.07120 0.60178
 C1169 C 0.20491 1.08966 0.62333
 C1170 C 0.19254 1.07887 0.64689
 C1171 C 0.17247 1.03837 0.67333
 C1172 C 0.14892 1.05241 0.68125
 C1173 C 0.13325 1.04168 0.70256
 C1174 C 0.14054 1.01645 0.71720
 C1175 C 0.16488 1.00297 0.70930
 C1176 C 0.18041 1.01360 0.68769
 H1177 H 0.21525 1.02680 0.58855
 H1178 H 0.20734 1.11262 0.62160
 H1179 H 0.11526 1.05356 0.70674
 H1180 H 0.17161 0.98340 0.71924
 H1181 H 0.18619 1.09370 0.66292
 H1182 H 0.14206 1.07141 0.67032
 H1183 H 0.19327 1.00787 0.62983
 H1184 H 0.19861 1.00236 0.68212
 C1185 C 0.18024 0.94997 0.83568
 C1186 C 0.19579 0.96636 0.85520
 C1187 C 0.20744 0.95380 0.87932
 C1188 C 0.20396 0.92418 0.88490
 C1189 C 0.18846 0.90805 0.86451
 C1190 C 0.17710 0.92065 0.84049
 C1191 C 0.16617 0.96330 0.81100
 C1192 C 0.13970 0.95466 0.80306
 C1193 C 0.12601 0.96683 0.78010
 C1194 C 0.13835 0.98786 0.76357
 C1195 C 0.16470 0.99729 0.77256
 C1196 C 0.17848 0.98496 0.79564
 H1197 H 0.21984 0.96768 0.89280
 H1198 H 0.18338 0.88578 0.86717
 H1199 H 0.10539 0.95982 0.77602
 H1200 H 0.17446 1.01501 0.76247
 H1201 H 0.16539 0.90730 0.82572
 H1202 H 0.12913 0.93887 0.81513
 H1203 H 0.19858 0.98910 0.85212
 H1204 H 0.19874 0.99249 0.80151
 C1205 C 0.68394 0.46659 0.34947
 C1206 C 0.70214 0.48171 0.36762
 C1207 C 0.71491 0.46787 0.39046
 C1208 C 0.71002 0.43862 0.39514
 C1209 C 0.69235 0.42349 0.37646
 C1210 C 0.67942 0.43733 0.35397
 C1211 C 0.66854 0.48108 0.32650
 C1212 C 0.64047 0.47660 0.32343
 C1213 C 0.62587 0.48767 0.30054
 C1214 C 0.63896 0.50268 0.27928
 C1215 C 0.66681 0.50931 0.28379
 C1216 C 0.68148 0.49835 0.30704
 H1217 H 0.72855 0.47998 0.40449
 H1218 H 0.68791 0.40106 0.37970
 H1219 H 0.60423 0.48351 0.29883
 H1220 H 0.67740 0.52275 0.26942
 H1221 H 0.66563 0.42516 0.34014
 H1222 H 0.62983 0.46417 0.33867
 H1223 H 0.70585 0.50432 0.36459
 H1224 H 0.70306 0.50269 0.30941
 C1225 C 0.79065 0.46163 0.65895
 C1226 C 0.78907 0.43161 0.65653
 C1227 C 0.77942 0.41853 0.63162
 C1228 C 0.77148 0.43512 0.60838
 C1229 C 0.77225 0.46507 0.61089
 C1230 C 0.78148 0.47820 0.63599
 C1231 C 0.80404 0.47526 0.68431
 C1232 C 0.82041 0.49973 0.68177
 C1233 C 0.83623 0.51012 0.70458
 C1234 C 0.83734 0.49547 0.73040
 C1235 C 0.81841 0.47303 0.73366
 C1236 C 0.80227 0.46285 0.71092
 H1237 H 0.77928 0.39538 0.63010
 H1238 H 0.76589 0.47829 0.59334
 H1239 H 0.84783 0.52937 0.70132
 H1240 H 0.81727 0.46226 0.75360
 H1241 H 0.78180 0.50134 0.63722
 H1242 H 0.82198 0.51035 0.66182
 H1243 H 0.79641 0.41808 0.67344
 H1244 H 0.78894 0.44475 0.71404
 C1245 C 0.30512 -0.03674 0.14409
 C1246 C 0.29325 -0.06414 0.14486
 C1247 C 0.28255 -0.07722 0.12034
 C1248 C 0.28344 -0.06323 0.09439
 C1249 C 0.29475 -0.03557 0.09369
 C1250 C 0.30543 -0.02246 0.11826
 C1251 C 0.31855 -0.02392 0.16979
 C1252 C 0.34352 -0.00970 0.16819
 C1253 C 0.35743 0.00040 0.19239
 C1254 C 0.34683 -0.00292 0.21937
 C1255 C 0.32137 -0.01713 0.22052
 C1256 C 0.30749 -0.02728 0.19624
 H1257 H 0.27441 -0.09873 0.12156
 H1258 H 0.29539 -0.02406 0.07412
 H1259 H 0.37683 0.01017 0.18927
 H1260 H 0.31255 -0.02170 0.24042
 H1261 H 0.31407 -0.00116 0.11701
 H1262 H 0.35295 -0.00730 0.14820
 H1263 H 0.29311 -0.07596 0.16427
 H1264 H 0.28824 -0.03820 0.19826
 C1265 C 0.29673 0.04232 0.34038
 C1266 C 0.28858 0.07107 0.34071
 C1267 C 0.27726 0.08298 0.36457
 C1268 C 0.27361 0.06637 0.38863
 C1269 C 0.28067 0.03724 0.38778
 C1270 C 0.29219 0.02540 0.36398
 C1271 C 0.31194 0.03080 0.31650
 C1272 C 0.33571 0.01517 0.32166
 C1273 C 0.35178 0.00662 0.29965
 C1274 C 0.34450 0.01294 0.27136
 C1275 C 0.31996 0.02810 0.26650
 C1276 C 0.30407 0.03697 0.28865
 H1277 H 0.27252 0.10557 0.36456
 H1278 H 0.27765 0.02365 0.40566
 H1279 H 0.37023 -0.00440 0.30549
 H1280 H 0.31362 0.03432 0.24546
 H1281 H 0.29797 0.00307 0.36416
 H1282 H 0.34257 0.01053 0.34298
 H1283 H 0.29217 0.08474 0.32299
 H1284 H 0.28581 0.04907 0.28402
 C1285 C 0.79234 0.54392 0.84827
 C1286 C 0.78171 0.52607 0.86885
 C1287 C 0.77078 0.53779 0.89304
 C1288 C 0.76994 0.56760 0.89700
 C1289 C 0.77967 0.58543 0.87603
 C1290 C 0.79083 0.57376 0.85203
 C1291 C 0.80659 0.53173 0.82393
 C1292 C 0.80515 0.54513 0.79767
 C1293 C 0.82093 0.53548 0.77580
 C1294 C 0.83907 0.51242 0.77956
 C1295 C 0.83853 0.49758 0.80524
 C1296 C 0.82295 0.50741 0.82717
 H1297 H 0.76315 0.52357 0.90876
 H1298 H 0.77971 0.60848 0.87872
 H1299 H 0.81973 0.54669 0.75603
 H1300 H 0.85017 0.47840 0.80893
 H1301 H 0.79928 0.58818 0.83697
 H1302 H 0.79206 0.56335 0.79408
 H1303 H 0.78206 0.50302 0.86642
 H1304 H 0.82441 0.49633 0.84699
 C1305 C 0.14499 0.67484 0.53457
 C1306 C 0.12664 0.65558 0.54623
 C1307 C 0.10268 0.66539 0.55750
 C1308 C 0.09640 0.69464 0.55718
 C1309 C 0.11439 0.71392 0.54498
 C1310 C 0.13863 0.70412 0.53397
 C1311 C 0.17095 0.66412 0.52395
 C1312 C 0.19567 0.67749 0.53167
 C1313 C 0.22027 0.66507 0.52456
 C1314 C 0.22109 0.63896 0.50916
 C1315 C 0.19573 0.62664 0.50057
 C1316 C 0.17127 0.63899 0.50780
 H1317 H 0.08908 0.65009 0.56666
 H1318 H 0.11007 0.73661 0.54469
 H1319 H 0.23880 0.67526 0.53256
 H1320 H 0.19405 0.60694 0.48880
 H1321 H 0.15241 0.71936 0.52501
 H1322 H 0.19603 0.69677 0.54449
 H1323 H 0.13117 0.63295 0.54727
 H1324 H 0.15242 0.62842 0.50123
 C1325 C 0.65468 0.18805 1.04803
 C1326 C 0.65429 0.19735 1.07605
 C1327 C 0.63031 0.20759 1.08710
 C1328 C 0.60631 0.20920 1.07020
 C1329 C 0.60701 0.20044 1.04192
 C1330 C 0.63089 0.18975 1.03104
 C1331 C 0.67941 0.17506 1.03699
 C1332 C 0.67782 0.14808 1.02401
 C1333 C 0.70113 0.13493 1.01465
 C1334 C 0.72662 0.14895 1.01666
 C1335 C 0.72812 0.17580 1.03052
 C1336 C 0.70476 0.18872 1.04046
 H1337 H 0.63050 0.21355 1.10909
 H1338 H 0.58916 0.20193 1.02810
 H1339 H 0.69926 0.11350 1.00589
 H1340 H 0.74739 0.18660 1.03437
 H1341 H 0.63082 0.18282 1.00928
 H1342 H 0.65861 0.13673 1.02192
 H1343 H 0.67232 0.19582 1.08964
 H1344 H 0.70649 0.20935 1.05097
 C1345 C 0.84612 0.19511 0.96854
 C1346 C 0.87149 0.19617 0.98284
 C1347 C 0.89457 0.20575 0.96951
 C1348 C 0.89323 0.21468 0.94112
 C1349 C 0.86705 0.21486 0.92758
 C1350 C 0.84411 0.20512 0.94098
 C1351 C 0.82235 0.18151 0.98144
 C1352 C 0.79594 0.19194 0.97647
 C1353 C 0.77346 0.17707 0.98613
 C1354 C 0.77676 0.15177 1.00180
 C1355 C 0.80344 0.14154 1.00657
 C1356 C 0.82579 0.15632 0.99687
 H1357 H 0.91349 0.20412 0.98150
 H1358 H 0.86349 0.22313 0.90672
 H1359 H 0.75340 0.18491 0.98052
 H1360 H 0.80715 0.12127 1.01674
 H1361 H 0.82483 0.20467 0.92930
 H1362 H 0.79257 0.21125 0.96450
 H1363 H 0.87366 0.18888 1.00430
 H1364 H 0.84573 0.14709 1.00021
 C1365 C 0.34107 0.69522 0.47416
 C1366 C 0.33862 0.71153 0.44959
 C1367 C 0.36148 0.72404 0.43816
 C1368 C 0.38751 0.72008 0.45064
 C1369 C 0.38976 0.70488 0.47592
 C1370 C 0.36683 0.69293 0.48768
 C1371 C 0.31750 0.67863 0.48429
 C1372 C 0.32157 0.65137 0.49563
 C1373 C 0.29971 0.63443 0.50306
 C1374 C 0.27261 0.64395 0.49976
 C1375 C 0.26874 0.67133 0.48774
 C1376 C 0.29077 0.68854 0.48070
 H1377 H 0.35873 0.73631 0.41914
 H1378 H 0.40935 0.70114 0.48618
 H1379 H 0.30460 0.61333 0.51038
 H1380 H 0.24864 0.67912 0.48231
 H1381 H 0.36947 0.68119 0.50704
 H1382 H 0.34171 0.64234 0.49765
 H1383 H 0.31923 0.71370 0.43842
 H1384 H 0.28672 0.70936 0.47177
 C1385 C 0.64089 0.82033 0.48024
 C1386 C 0.62071 0.83886 0.46963
 C1387 C 0.59524 0.82835 0.46077
 C1388 C 0.58903 0.79904 0.46269
 C1389 C 0.60858 0.78082 0.47523
 C1390 C 0.63428 0.79135 0.48384
 C1391 C 0.66915 0.83104 0.48520
 C1392 C 0.68539 0.82250 0.50845
 C1393 C 0.71173 0.83367 0.51289
 C1394 C 0.72284 0.85305 0.49377
 C1395 C 0.70595 0.86166 0.47078
 C1396 C 0.67995 0.85045 0.46633
 H1397 H 0.58096 0.84309 0.45107
 H1398 H 0.60434 0.75824 0.47766
 H1399 H 0.72327 0.82768 0.53166
 H1400 H 0.71216 0.87797 0.45641
 H1401 H 0.64935 0.77656 0.49206
 H1402 H 0.67745 0.80791 0.52366
 H1403 H 0.62491 0.86147 0.46725
 H1404 H 0.66812 0.85737 0.44806
 C1405 C 0.15243 0.29859 -0.04406
 C1406 C 0.13362 0.28833 -0.02500
 C1407 C 0.10778 0.27893 -0.03461
 C1408 C 0.10040 0.27997 -0.06332
 C1409 C 0.11963 0.28877 -0.08239
 C1410 C 0.14540 0.29771 -0.07292
 C1411 C 0.17836 0.31248 -0.03428
 C1412 C 0.18692 0.33741 -0.04754
 C1413 C 0.21117 0.35087 -0.03929
 C1414 C 0.22838 0.33956 -0.01780
 C1415 C 0.21871 0.31563 -0.00317
 C1416 C 0.19425 0.30196 -0.01160
 H1417 H 0.09317 0.27210 -0.01960
 H1418 H 0.11448 0.28923 -0.10467
 H1419 H 0.21589 0.37071 -0.04957
 H1420 H 0.23018 0.30747 0.01480
 H1421 H 0.15965 0.30471 -0.08821
 H1422 H 0.17447 0.34705 -0.06405
 H1423 H 0.13839 0.28883 -0.00265
 H1424 H 0.18786 0.28313 -0.00048
 C1425 C 0.35419 0.29123 0.01474
 C1426 C 0.35449 0.26753 0.03261
 C1427 C 0.37908 0.25788 0.04470
 C1428 C 0.40361 0.27182 0.03899
 C1429 C 0.40338 0.29372 0.01902
 C1430 C 0.37891 0.30336 0.00706
 C1431 C 0.32859 0.30647 0.00810
 C1432 C 0.32712 0.33560 0.01490
 C1433 C 0.30319 0.35056 0.01007
 C1434 C 0.27964 0.33698 -0.00162
 C1435 C 0.28155 0.30779 -0.00945
 C1436 C 0.30563 0.29256 -0.00401
 H1437 H 0.37866 0.24101 0.06010
 H1438 H 0.42205 0.30447 0.01384
 H1439 H 0.30296 0.37308 0.01566
 H1440 H 0.26487 0.29669 -0.02021
 H1441 H 0.37914 0.32149 -0.00693
 H1442 H 0.34449 0.34680 0.02443
 H1443 H 0.33563 0.25798 0.03893
 H1444 H 0.30654 0.27011 -0.00978
 C1445 C 0.84657 0.79986 0.52755
 C1446 C 0.84616 0.77649 0.54578
 C1447 C 0.87051 0.76443 0.55591
 C1448 C 0.89566 0.77547 0.54783
 C1449 C 0.89586 0.79760 0.52811
 C1450 C 0.87160 0.80969 0.51814
 C1451 C 0.82152 0.81616 0.52085
 C1452 C 0.82199 0.84595 0.52419
 C1453 C 0.79884 0.86192 0.51835
 C1454 C 0.77415 0.84877 0.50917
 C1455 C 0.77388 0.81874 0.50533
 C1456 C 0.79723 0.80258 0.51161
 H1457 H 0.86964 0.74755 0.57125
 H1458 H 0.91485 0.80613 0.52098
 H1459 H 0.80019 0.88496 0.52091
 H1460 H 0.75608 0.80763 0.49683
 H1461 H 0.87240 0.82743 0.50372
 H1462 H 0.84035 0.85696 0.53155
 H1463 H 0.82712 0.76866 0.55347
 H1464 H 0.79654 0.77958 0.50856
   
