data_POSCAR
  _audit_creation_date              2014-09-24
  _audit_creation_method            'ToBaCCo'
  _symmetry_space_group_name_H-M    'P1'
  _symmetry_Int_Tables_number       1
  _symmetry_cell_setting            triclinic
  loop_
  _symmetry_equiv_pos_as_xyz
 x,y,z
_cell_length_a 59.5074
_cell_length_b 59.5090
_cell_length_c 59.5661
_cell_angle_alpha 86.844900
_cell_angle_beta 86.712600
_cell_angle_gamma 86.679800
loop_
  _atom_site_label
  _atom_site_type_symbol
  _atom_site_fract_x
  _atom_site_fract_y
  _atom_site_fract_z
C1 C 0.79581 0.63694 1.00367
 C2 C 0.80128 0.61966 0.98578
 C3 C 0.78371 0.60703 0.98179
 C4 C 0.76228 0.61253 0.99660
 C5 C 0.77487 0.65074 0.99549
 C6 C 0.75733 0.63791 0.99169
 C7 C 0.78723 0.62323 1.02452
 C8 C 0.76962 0.61052 1.02101
 H9 H 0.81699 0.61917 0.97564
 H10 H 0.74808 0.60195 0.99364
 H11 H 0.77433 0.66882 0.99210
 H12 H 0.79391 0.62445 1.04093
 C13 C 0.79274 0.35867 0.47797
 C14 C 0.79712 0.37352 0.49731
 C15 C 0.77901 0.38698 0.50409
 C16 C 0.75797 0.38437 0.49080
 C17 C 0.77220 0.34563 0.48644
 C18 C 0.75395 0.35901 0.49315
 C19 C 0.78412 0.37519 0.45939
 C20 C 0.76585 0.38857 0.46594
 H21 H 0.81314 0.37325 0.50511
 H22 H 0.74318 0.39537 0.49626
 H23 H 0.77221 0.32741 0.48700
 H24 H 0.79142 0.37556 0.44230
 C25 C 0.29323 -0.14069 -0.02183
 C26 C 0.29744 -0.12647 -0.00347
 C27 C 0.27830 -0.11236 0.00357
 C28 C 0.25844 -0.11517 -0.00923
 C29 C 0.27382 -0.15330 -0.01372
 C30 C 0.25450 -0.13929 -0.00677
 C31 C 0.28512 -0.12512 -0.03968
 C32 C 0.26578 -0.11112 -0.03294
 H33 H 0.31334 -0.12667 0.00455
 H34 H 0.24360 -0.10419 -0.00384
 H35 H 0.27396 -0.17156 -0.01290
 H36 H 0.29254 -0.12465 -0.05675
 C37 C 0.29575 0.13412 0.50415
 C38 C 0.30113 0.11700 0.48609
 C39 C 0.28353 0.10442 0.48206
 C40 C 0.26217 0.10980 0.49702
 C41 C 0.27477 0.14799 0.49617
 C42 C 0.25720 0.13521 0.49234
 C43 C 0.28727 0.12024 0.52493
 C44 C 0.26964 0.10758 0.52139
 H45 H 0.31679 0.11662 0.47585
 H46 H 0.24794 0.09926 0.49404
 H47 H 0.27424 0.16608 0.49289
 H48 H 0.29403 0.12132 0.54132
 C49 C 0.13468 0.50500 0.29606
 C50 C 0.11757 0.48700 0.30148
 C51 C 0.10504 0.48285 0.28388
 C52 C 0.11046 0.49764 0.26248
 C53 C 0.14863 0.49682 0.27519
 C54 C 0.13590 0.49288 0.25762
 C55 C 0.12081 0.52577 0.28743
 C56 C 0.10822 0.52211 0.26979
 H57 H 0.11715 0.47687 0.31716
 H58 H 0.09996 0.49457 0.24827
 H59 H 0.16673 0.49355 0.27471
 H60 H 0.12191 0.54224 0.29405
 C61 C -0.13952 -0.02304 0.29208
 C62 C -0.12472 -0.00365 0.29657
 C63 C -0.11138 0.00322 0.27843
 C64 C -0.11411 -0.01008 0.25735
 C65 C -0.15282 -0.01426 0.27177
 C66 C -0.13955 -0.00746 0.25348
 C67 C -0.12392 -0.04067 0.28372
 C68 C -0.11004 -0.03376 0.26449
 H69 H -0.12498 0.00412 0.31260
 H70 H -0.10330 -0.00435 0.24257
 H71 H -0.17106 -0.01360 0.27193
 H72 H -0.12344 -0.05780 0.29094
 C73 C 0.35879 0.47866 0.79252
 C74 C 0.37378 0.49788 0.79688
 C75 C 0.38716 0.50459 0.77874
 C76 C 0.38437 0.49134 0.75770
 C77 C 0.34566 0.48726 0.77210
 C78 C 0.35897 0.49389 0.75382
 C79 C 0.37517 0.45995 0.78377
 C80 C 0.38849 0.46642 0.76548
 H81 H 0.37361 0.50569 0.81289
 H82 H 0.39530 0.49673 0.74289
 H83 H 0.32742 0.48798 0.77221
 H84 H 0.37550 0.44284 0.79102
 C85 C 0.63625 1.00473 0.79483
 C86 C 0.61905 0.98676 0.80030
 C87 C 0.60645 0.98273 0.78270
 C88 C 0.61199 0.99759 0.76130
 C89 C 0.65020 0.99628 0.77402
 C90 C 0.63741 0.99243 0.75644
 C91 C 0.62327 1.02452 0.78668
 C92 C 0.61003 1.02084 0.76814
 H93 H 0.61860 0.97662 0.81598
 H94 H 0.60151 0.99439 0.74710
 H95 H 0.66827 0.99277 0.77361
 H96 H 0.62451 1.04098 0.79331
 C97 C -0.02142 0.29241 -0.14151
 C98 C -0.00217 0.29690 -0.12661
 C99 C 0.00458 0.27886 -0.11312
 C100 C -0.00865 0.25779 -0.11574
 C101 C -0.01281 0.27182 -0.15449
 C102 C -0.00614 0.25364 -0.14106
 C103 C -0.04009 0.28383 -0.12507
 C104 C -0.03358 0.26564 -0.11165
 H105 H 0.00560 0.31293 -0.12688
 H106 H -0.00322 0.24306 -0.10471
 H107 H -0.01215 0.27174 -0.17269
 H108 H -0.05722 0.29110 -0.12477
 C109 C 0.50323 0.29527 0.13738
 C110 C 0.48555 0.30098 0.11988
 C111 C 0.48170 0.28351 0.10702
 C112 C 0.49640 0.26201 0.11246
 C113 C 0.49480 0.27432 0.15079
 C114 C 0.49115 0.25690 0.13773
 C115 C 0.52424 0.28678 0.12374
 C116 C 0.52086 0.26930 0.11079
 H117 H 0.47530 0.31662 0.11940
 H118 H 0.49356 0.24791 0.10169
 H119 H 0.49121 0.27377 0.16883
 H120 H 0.54061 0.29355 0.12502
 C121 C 1.00236 0.79550 0.63814
 C122 C 0.98539 0.80114 0.62164
 C123 C 0.98122 0.78281 0.60807
 C124 C 0.99546 0.76247 0.61319
 C125 C 0.99448 0.77555 0.65098
 C126 C 0.99059 0.75723 0.63722
 C127 C 1.02234 0.78769 0.62499
 C128 C 1.01878 0.76933 0.61134
 H129 H 0.97489 0.81664 0.62139
 H130 H 0.99265 0.74844 0.60231
 H131 H 0.99085 0.77496 0.66904
 H132 H 1.03871 0.79458 0.62606
 C133 C 0.47728 0.79302 0.36004
 C134 C 0.49663 0.79746 0.37484
 C135 C 0.50340 0.77939 0.38830
 C136 C 0.49006 0.75836 0.38576
 C137 C 0.48577 0.77241 0.34704
 C138 C 0.49245 0.75421 0.36043
 C139 C 0.45865 0.78451 0.37657
 C140 C 0.46517 0.76629 0.38996
 H141 H 0.50449 0.81345 0.37447
 H142 H 0.49550 0.74362 0.39676
 H143 H 0.48638 0.77234 0.32884
 H144 H 0.44155 0.79182 0.37693
 C145 C 0.37942 -0.00014 0.25548
 H146 H 0.37732 0.01554 0.26393
 C147 C 0.39201 -0.01836 0.26504
 H148 H 0.39968 -0.01644 0.28082
 C149 C 0.37115 -0.02175 0.22504
 H150 H 0.36265 -0.02314 0.20968
 C151 C 0.38358 -0.04041 0.23402
 H152 H 0.38460 -0.05595 0.22527
 N153 N 0.36925 -0.00215 0.23588
 C154 C 0.35680 0.06541 0.20540
 H155 H 0.33900 0.06512 0.20265
 C156 C 0.36855 0.08443 0.19844
 H157 H 0.35959 0.09873 0.19036
 C158 C 0.38996 0.04694 0.21917
 H159 H 0.39831 0.03224 0.22708
 C160 C 0.40238 0.06561 0.21248
 H161 H 0.42018 0.06502 0.21548
 Zn162 Zn 0.35028 0.02233 0.22538
 N163 N 0.36751 0.04731 0.21588
 C164 C 0.32760 0.05148 0.25631
 N165 N 0.32999 0.02988 0.24983
 C166 C 0.32062 0.01279 0.26254
 C167 C 0.30926 0.01696 0.28322
 C168 C 0.31612 0.05645 0.27666
 C169 C 0.34751 0.01303 0.18064
 C170 C 0.33826 0.00569 0.16157
 C171 C 0.30343 0.00006 0.18354
 C172 C 0.31334 0.00778 0.20223
 N173 N 0.33512 0.01373 0.20049
 H174 H 0.33546 0.06481 0.24629
 H175 H 0.32308 -0.00431 0.25719
 H176 H 0.30278 0.00298 0.29355
 H177 H 0.31520 0.07366 0.28180
 H178 H 0.36482 0.01782 0.17978
 H179 H 0.34866 0.00490 0.14608
 H180 H 0.28624 -0.00508 0.18532
 H181 H 0.30381 0.00852 0.21820
 C182 C 0.39164 0.08477 0.20211
 C183 C 0.39401 -0.03894 0.25442
 C184 C 0.31604 -0.00127 0.16291
 C185 C 0.30742 0.03898 0.29078
 C186 C 0.08490 1.03520 0.78240
 H187 H 0.08327 1.01879 0.79090
 C188 C 0.07287 1.05406 0.79088
 H189 H 0.06185 1.05194 0.80586
 C190 C 0.10197 1.05792 0.75304
 H191 H 0.11378 1.05952 0.73868
 C192 C 0.09026 1.07716 0.76090
 H193 H 0.09306 1.09329 0.75217
 N194 N 0.09915 1.03745 0.76383
 C195 C 0.11174 0.97087 0.73739
 H196 H 0.12996 0.97060 0.73649
 C197 C 0.10087 0.95279 0.72998
 H198 H 0.11098 0.93868 0.72338
 C199 C 0.07671 0.98996 0.74691
 H200 H 0.06744 1.00461 0.75333
 C201 C 0.06507 0.97218 0.73955
 H202 H 0.04682 0.97328 0.74050
 Zn203 Zn 0.11720 1.01199 0.75463
 N204 N 0.09965 0.98886 0.74584
 C205 C 0.13075 0.98023 0.78881
 N206 N 0.13420 1.00114 0.77933
 C207 C 0.14865 1.01481 0.78809
 C208 C 0.16076 1.00729 0.80678
 C209 C 0.14241 0.97209 0.80747
 C210 C 0.12524 1.02602 0.70991
 C211 C 0.13750 1.03161 0.68993
 C212 C 0.17185 1.02416 0.70944
 C213 C 0.15888 1.01868 0.72910
 N214 N 0.13599 1.01995 0.72902
 H215 H 0.11869 0.96985 0.78215
 H216 H 0.15071 1.03158 0.78057
 H217 H 0.17227 1.01837 0.81342
 H218 H 0.13935 0.95535 0.81462
 H219 H 0.10702 1.02651 0.71025
 H220 H 0.12848 1.03652 0.67500
 H221 H 0.19005 1.02315 0.70986
 H222 H 0.16714 1.01328 0.74431
 C223 C 0.07722 0.95324 0.73097
 C224 C 0.07565 1.07546 0.78022
 C225 C 0.16115 1.03079 0.68950
 C226 C 0.15772 0.98562 0.81670
 C227 C 0.58420 0.53681 0.28177
 H228 H 0.58270 0.52029 0.29009
 C229 C 0.57209 0.55549 0.29053
 H230 H 0.56114 0.55313 0.30553
 C231 C 0.60104 0.55996 0.25264
 H232 H 0.61279 0.56180 0.23825
 C233 C 0.58924 0.57904 0.26076
 H234 H 0.59192 0.59528 0.25223
 N235 N 0.59838 0.53936 0.26319
 C236 C 0.61132 0.47324 0.23585
 H237 H 0.62954 0.47314 0.23484
 C238 C 0.60056 0.45515 0.22831
 H239 H 0.61075 0.44120 0.22151
 C240 C 0.57620 0.49191 0.24582
 H241 H 0.56684 0.50640 0.25248
 C242 C 0.56467 0.47410 0.23835
 H243 H 0.54642 0.47502 0.23946
 Zn244 Zn 0.61655 0.51412 0.25367
 N245 N 0.59913 0.49102 0.24458
 C246 C 0.63028 0.48199 0.28745
 N247 N 0.63358 0.50305 0.27827
 C248 C 0.64790 0.51669 0.28725
 C249 C 0.66003 0.50901 0.30588
 C250 C 0.64195 0.47369 0.30604
 C251 C 0.62462 0.52872 0.20909
 C252 C 0.63692 0.53452 0.18920
 C253 C 0.67123 0.52686 0.20874
 C254 C 0.65822 0.52119 0.22832
 N255 N 0.63533 0.52245 0.22818
 H256 H 0.61832 0.47162 0.28061
 H257 H 0.64984 0.53356 0.27996
 H258 H 0.67143 0.52007 0.31271
 H259 H 0.63902 0.45684 0.31295
 H260 H 0.60640 0.52920 0.20938
 H261 H 0.62795 0.53957 0.17428
 H262 H 0.68942 0.52584 0.20920
 H263 H 0.66645 0.51562 0.24350
 C264 C 0.57692 0.45537 0.22950
 C265 C 0.57472 0.57703 0.28012
 C266 C 0.66057 0.53369 0.18882
 C267 C 0.65713 0.48720 0.31550
 C268 C 0.88123 0.50029 0.75571
 H269 H 0.87924 0.51588 0.76432
 C270 C 0.89379 0.48193 0.76504
 H271 H 0.90155 0.48365 0.78081
 C272 C 0.87270 0.47903 0.72511
 H273 H 0.86410 0.47784 0.70977
 C274 C 0.88508 0.46024 0.73385
 H275 H 0.88598 0.44481 0.72495
 N276 N 0.87093 0.49852 0.73614
 C277 C 0.85830 0.56616 0.70591
 H278 H 0.84051 0.56579 0.70317
 C279 C 0.86996 0.58523 0.69893
 H280 H 0.86093 0.59948 0.69084
 C281 C 0.89153 0.54785 0.71970
 H282 H 0.89994 0.53319 0.72763
 C283 C 0.90386 0.56657 0.71298
 H284 H 0.92166 0.56606 0.71597
 Zn285 Zn 0.85191 0.52309 0.72592
 N286 N 0.86908 0.54811 0.71641
 C287 C 0.82921 0.55221 0.75686
 N288 N 0.83176 0.53057 0.75050
 C289 C 0.82256 0.51346 0.76333
 C290 C 0.81116 0.51768 0.78399
 C291 C 0.81769 0.55722 0.77717
 C292 C 0.84867 0.51428 0.68109
 C293 C 0.83928 0.50690 0.66210
 C294 C 0.80487 0.50050 0.68453
 C295 C 0.81490 0.50827 0.70312
 N296 N 0.83655 0.51461 0.70111
 H297 H 0.83693 0.56555 0.74674
 H298 H 0.82513 0.49635 0.75807
 H299 H 0.80479 0.50371 0.79440
 H300 H 0.81661 0.57447 0.78219
 H301 H 0.86588 0.51934 0.68002
 H302 H 0.84948 0.50640 0.64648
 H303 H 0.78781 0.49502 0.68651
 H304 H 0.80559 0.50869 0.71923
 C305 C 0.89304 0.58568 0.70259
 C306 C 0.89563 0.46145 0.75422
 C307 C 0.81721 0.49953 0.66372
 C308 C 0.80911 0.53975 0.79139
 C309 C 0.25589 0.38167 0.00037
 H310 H 0.26447 0.37968 0.01594
 C311 C 0.26528 0.39420 -0.01795
 H312 H 0.28107 0.40194 -0.01622
 C313 C 0.22529 0.37317 -0.02088
 H314 H 0.20993 0.36460 -0.02209
 C315 C 0.23409 0.38553 -0.03963
 H316 H 0.22522 0.38643 -0.05505
 N317 N 0.23629 0.37141 -0.00142
 C318 C 0.20594 0.35902 0.06619
 H319 H 0.20319 0.34123 0.06584
 C320 C 0.19896 0.37076 0.08524
 H321 H 0.19086 0.36180 0.09951
 C322 C 0.21975 0.39217 0.04783
 H323 H 0.22770 0.40051 0.03316
 C324 C 0.21304 0.40458 0.06653
 H325 H 0.21604 0.42237 0.06600
 Zn326 Zn 0.22599 0.35247 0.02312
 N327 N 0.21645 0.36973 0.04812
 C328 C 0.25692 0.32980 0.05215
 N329 N 0.25056 0.33230 0.03056
 C330 C 0.26339 0.32301 0.01344
 C331 C 0.28405 0.31158 0.01761
 C332 C 0.27724 0.31826 0.05711
 C333 C 0.18114 0.34930 0.01422
 C334 C 0.16215 0.33989 0.00685
 C335 C 0.18455 0.30537 0.00070
 C336 C 0.20314 0.31541 0.00845
 N337 N 0.20115 0.33712 0.01466
 H338 H 0.24680 0.33759 0.06550
 H339 H 0.25813 0.32554 -0.00365
 H340 H 0.29446 0.30514 0.00363
 H341 H 0.28226 0.31722 0.07434
 H342 H 0.18009 0.36656 0.01919
 H343 H 0.14654 0.35014 0.00625
 H344 H 0.18652 0.28825 -0.00467
 H345 H 0.21924 0.30606 0.00897
 C346 C 0.20264 0.39384 0.08566
 C347 C 0.25450 0.39604 -0.03840
 C348 C 0.16375 0.31776 -0.00039
 C349 C 0.29146 0.30959 0.03964
 C350 C 0.78182 0.08384 1.03657
 H351 H 0.79016 0.08216 1.02008
 C352 C 0.79045 0.07177 1.05528
 H353 H 0.80537 0.06067 1.05296
 C354 C 0.75274 0.10108 1.05963
 H355 H 0.73843 0.11297 1.06143
 C356 C 0.76074 0.08934 1.07874
 H357 H 0.75218 0.09220 1.09495
 N358 N 0.76333 0.09820 1.03907
 C359 C 0.73642 0.11101 0.97288
 H360 H 0.73568 0.12923 0.97267
 C361 C 0.72875 0.10023 0.95487
 H362 H 0.72213 0.11041 0.94087
 C363 C 0.74575 0.07590 0.99177
 H364 H 0.75220 0.06657 1.00633
 C365 C 0.73812 0.06436 0.97406
 H366 H 0.73889 0.04611 0.97511
 Zn367 Zn 0.75398 0.11630 1.01380
 N368 N 0.74489 0.09883 0.99073
 C369 C 0.78802 0.12975 0.98178
 N370 N 0.77870 0.13321 1.00277
 C371 C 0.78760 0.14763 1.01637
 C372 C 0.80624 0.15975 1.00869
 C373 C 0.80664 0.14141 0.97348
 C374 C 0.70934 0.12455 1.02832
 C375 C 0.68943 0.13691 1.03412
 C376 C 0.70906 0.17115 1.02649
 C377 C 0.72866 0.15809 1.02080
 N378 N 0.72849 0.13520 1.02206
 H379 H 0.78126 0.11770 0.97145
 H380 H 0.78020 0.14969 1.03320
 H381 H 0.81298 0.17126 1.01971
 H382 H 0.81364 0.13837 0.95668
 H383 H 0.70960 0.10634 1.02880
 H384 H 0.67448 0.12797 1.03918
 H385 H 0.70956 0.18934 1.02547
 H386 H 0.74388 0.16627 1.01524
 C387 C 0.72950 0.07659 0.95526
 C388 C 0.78000 0.07464 1.07678
 C389 C 0.68910 0.16055 1.03332
 C390 C 0.81598 0.15673 0.98693
 C391 C 0.27969 0.58573 0.53732
 H392 H 0.28799 0.58415 0.52080
 C393 C 0.28845 0.57365 0.55595
 H394 H 0.30343 0.56265 0.55354
 C395 C 0.25057 0.60271 0.56054
 H396 H 0.23619 0.61450 0.56241
 C397 C 0.25870 0.59095 0.57957
 H398 H 0.25018 0.59370 0.59582
 N399 N 0.26112 0.59996 0.53993
 C400 C 0.23400 0.61265 0.47382
 H401 H 0.23316 0.63087 0.47359
 C402 C 0.22636 0.60180 0.45584
 H403 H 0.21966 0.61192 0.44184
 C404 C 0.24355 0.57761 0.49273
 H405 H 0.25007 0.56833 0.50728
 C406 C 0.23596 0.56599 0.47505
 H407 H 0.23683 0.54775 0.47612
 Zn408 Zn 0.25162 0.61806 0.51472
 N409 N 0.24256 0.60054 0.49167
 C410 C 0.28558 0.63162 0.48266
 N411 N 0.27627 0.63505 0.50366
 C412 C 0.28519 0.64943 0.51728
 C413 C 0.30391 0.66147 0.50966
 C414 C 0.30427 0.64320 0.47441
 C415 C 0.20698 0.62610 0.52933
 C416 C 0.18700 0.63837 0.53511
 C417 C 0.20646 0.67271 0.52745
 C418 C 0.22612 0.65974 0.52179
 N419 N 0.22606 0.63685 0.52305
 H420 H 0.27879 0.61961 0.47231
 H421 H 0.27780 0.65147 0.53411
 H422 H 0.31070 0.67291 0.52072
 H423 H 0.31129 0.64015 0.45761
 H424 H 0.20732 0.60788 0.52982
 H425 H 0.17209 0.62936 0.54016
 H426 H 0.20686 0.69091 0.52642
 H427 H 0.24130 0.66799 0.51622
 C428 C 0.22725 0.57815 0.45625
 C429 C 0.27805 0.57637 0.57750
 C430 C 0.18654 0.66202 0.53427
 C431 C 0.31369 0.65842 0.48791
 C432 C 0.75747 0.87960 0.49983
 H433 H 0.76607 0.87751 0.51539
 C434 C 0.76695 0.89206 0.48151
 H435 H 0.78282 0.89964 0.48322
 C436 C 0.72672 0.87144 0.47863
 H437 H 0.71125 0.86304 0.47745
 C438 C 0.73560 0.88374 0.45988
 H439 H 0.72668 0.88476 0.44448
 N440 N 0.73775 0.86954 0.49807
 C441 C 0.70709 0.85750 0.56560
 H442 H 0.70413 0.83975 0.56525
 C443 C 0.70009 0.86933 0.58459
 H444 H 0.69178 0.86048 0.59880
 C445 C 0.72139 0.89045 0.54730
 H446 H 0.72952 0.89869 0.53267
 C447 C 0.71467 0.90295 0.56594
 H448 H 0.71786 0.92071 0.56541
 Zn449 Zn 0.72727 0.85070 0.52262
 N450 N 0.71784 0.86806 0.54759
 C451 C 0.75777 0.82756 0.55180
 N452 N 0.75167 0.83032 0.53013
 C453 C 0.76470 0.82122 0.51304
 C454 C 0.78533 0.80977 0.51734
 C455 C 0.77803 0.81597 0.55688
 C456 C 0.68233 0.84790 0.51396
 C457 C 0.66320 0.83871 0.50663
 C458 C 0.68536 0.80418 0.49988
 C459 C 0.70410 0.81400 0.50760
 N460 N 0.70228 0.83560 0.51412
 H461 H 0.74749 0.83519 0.56514
 H462 H 0.75965 0.82394 0.49590
 H463 H 0.79592 0.80351 0.50340
 H464 H 0.78285 0.81476 0.57418
 H465 H 0.68141 0.86508 0.51914
 H466 H 0.64763 0.84905 0.50628
 H467 H 0.68718 0.78713 0.49428
 H468 H 0.72017 0.80456 0.50787
 C469 C 0.70400 0.89237 0.58500
 C470 C 0.75612 0.89405 0.46108
 C471 C 0.66460 0.81669 0.49911
 C472 C 0.79248 0.80754 0.53946
 C473 C 0.00078 0.25577 0.38026
 H474 H 0.01637 0.26436 0.37831
 C475 C -0.01760 0.26515 0.39281
 H476 H -0.01590 0.28093 0.40060
 C477 C -0.02043 0.22517 0.37166
 H478 H -0.02160 0.20981 0.36306
 C479 C -0.03924 0.23396 0.38404
 H480 H -0.05466 0.22508 0.38492
 N481 N -0.00095 0.23618 0.36995
 C482 C 0.06684 0.20595 0.35770
 H483 H 0.06667 0.20330 0.33988
 C484 C 0.08579 0.19888 0.36953
 H485 H 0.10017 0.19084 0.36061
 C486 C 0.04811 0.21953 0.39084
 H487 H 0.03332 0.22739 0.39914
 C488 C 0.06669 0.21272 0.40333
 H489 H 0.06597 0.21559 0.42116
 Zn490 Zn 0.02370 0.22587 0.35106
 N491 N 0.04863 0.21636 0.36836
 C492 C 0.05275 0.25697 0.32872
 N493 N 0.03118 0.25044 0.33098
 C494 C 0.01406 0.26314 0.32159
 C495 C 0.01818 0.28384 0.31029
 C496 C 0.05766 0.27734 0.31732
 C497 C 0.01499 0.18100 0.34786
 C498 C 0.00769 0.16195 0.33850
 C499 C 0.00135 0.18422 0.30405
 C500 C 0.00905 0.20288 0.31404
 N501 N 0.01533 0.20098 0.33570
 H502 H 0.06609 0.24695 0.33660
 H503 H -0.00300 0.25776 0.32395
 H504 H 0.00419 0.29415 0.30377
 H505 H 0.07485 0.28250 0.31648
 H506 H 0.02000 0.18002 0.36508
 H507 H 0.00717 0.14636 0.34874
 H508 H -0.00407 0.18612 0.28698
 H509 H 0.00948 0.21896 0.30470
 C510 C 0.08595 0.20238 0.39266
 C511 C -0.03806 0.25435 0.39462
 C512 C 0.00038 0.16345 0.31644
 C513 C 0.04017 0.29143 0.30855
 C514 C 1.03793 0.78232 0.08241
 H515 H 1.02145 0.79069 0.08065
 C516 C 1.05675 0.79086 0.07043
 H517 H 1.05451 0.80575 0.05933
 C518 C 1.06086 0.75326 0.09976
 H519 H 1.06256 0.73901 0.11167
 C520 C 1.08007 0.76118 0.08811
 H521 H 1.09627 0.75262 0.09106
 N522 N 1.04031 0.76389 0.09679
 C523 C 0.97384 0.73745 0.10953
 H524 H 0.97356 0.73685 0.12773
 C525 C 0.95580 0.72983 0.09878
 H526 H 0.94170 0.72337 0.10895
 C527 C 0.99294 0.74641 0.07445
 H528 H 1.00759 0.75269 0.06512
 C529 C 0.97520 0.73880 0.06293
 H530 H 0.97633 0.73943 0.04470
 Zn531 Zn 1.01489 0.75474 0.11482
 N532 N 0.99181 0.74571 0.09735
 C533 C 0.98297 0.78905 0.12812
 N534 N 1.00390 0.77959 0.13166
 C535 C 1.01747 0.78840 0.14616
 C536 C 1.00981 0.80709 0.15829
 C537 C 0.97469 0.80772 0.13979
 C538 C 1.02924 0.71007 0.12321
 C539 C 1.03475 0.69017 0.13563
 C540 C 1.02674 0.70997 0.16976
 C541 C 1.02135 0.72955 0.15664
 N542 N 1.02292 0.72929 0.13378
 H543 H 0.97268 0.78236 0.11601
 H544 H 1.03425 0.78089 0.14829
 H545 H 1.02079 0.81374 0.16987
 H546 H 0.95793 0.81483 0.13669
 H547 H 1.02995 0.71026 0.10501
 H548 H 1.03983 0.67515 0.12677
 H549 H 1.02545 0.71054 0.18793
 H550 H 1.01574 0.74483 0.16475
 C551 C 0.95628 0.73040 0.07516
 C552 C 1.07824 0.78040 0.07341
 C553 C 1.03358 0.68992 0.15926
 C554 C 0.98810 0.81696 0.15520
 C555 C 0.53648 0.28076 0.58408
 H556 H 0.51995 0.28908 0.58243
 C557 C 0.55520 0.28941 0.57203
 H558 H 0.55287 0.30433 0.56098
 C559 C 0.55959 0.25172 0.60121
 H560 H 0.56140 0.23742 0.61305
 C561 C 0.57872 0.25974 0.58949
 H562 H 0.59495 0.25121 0.59231
 N563 N 0.53899 0.26228 0.59837
 C564 C 0.47276 0.23531 0.61103
 H565 H 0.47244 0.23464 0.62924
 C566 C 0.45484 0.22753 0.60021
 H567 H 0.44080 0.22090 0.61033
 C568 C 0.49185 0.24455 0.57602
 H569 H 0.50646 0.25098 0.56674
 C570 C 0.47424 0.23679 0.56443
 H571 H 0.47542 0.23747 0.54620
 Zn572 Zn 0.51368 0.25291 0.61643
 N573 N 0.49067 0.24378 0.59893
 C574 C 0.48155 0.28695 0.62992
 N575 N 0.50255 0.27763 0.63338
 C576 C 0.51613 0.28657 0.64778
 C577 C 0.50844 0.30529 0.65985
 C578 C 0.47324 0.30565 0.64153
 C579 C 0.52825 0.20829 0.62449
 C580 C 0.53403 0.18837 0.63675
 C581 C 0.52629 0.20793 0.67106
 C582 C 0.52063 0.22755 0.65809
 N583 N 0.52194 0.22742 0.63523
 H584 H 0.47124 0.28016 0.61788
 H585 H 0.53297 0.27916 0.64984
 H586 H 0.51945 0.31207 0.67132
 H587 H 0.45643 0.31267 0.63847
 H588 H 0.52878 0.20858 0.60629
 H589 H 0.53912 0.17343 0.62775
 H590 H 0.52523 0.20840 0.68923
 H591 H 0.51504 0.24276 0.66633
 C592 C 0.45539 0.22815 0.57659
 C593 C 0.57674 0.27899 0.57484
 C594 C 0.53315 0.18798 0.66037
 C595 C 0.48668 0.31506 0.65680
 C596 C 0.50002 0.75692 0.88007
 H597 H 0.51559 0.76553 0.87807
 C598 C 0.48163 0.76632 0.89260
 H599 H 0.48332 0.78214 0.90032
 C600 C 0.47884 0.72623 0.87163
 H601 H 0.47769 0.71083 0.86309
 C602 C 0.46003 0.73504 0.88399
 H603 H 0.44462 0.72613 0.88492
 N604 N 0.49830 0.73727 0.86984
 C605 C 0.56605 0.70689 0.85761
 H606 H 0.56578 0.70405 0.83984
 C607 C 0.58507 0.69995 0.86939
 H608 H 0.59939 0.69181 0.86047
 C609 C 0.54752 0.72085 0.89068
 H610 H 0.53280 0.72883 0.89898
 C611 C 0.56618 0.71418 0.90312
 H612 H 0.56557 0.71727 0.92089
 Zn613 Zn 0.52294 0.72690 0.85097
 N614 N 0.54791 0.71745 0.86826
 C615 C 0.55208 0.75772 0.82830
 N616 N 0.53045 0.75139 0.83078
 C617 C 0.51335 0.76421 0.82150
 C618 C 0.51757 0.78483 0.81008
 C619 C 0.55709 0.77800 0.81677
 C620 C 0.51428 0.68199 0.84783
 C621 C 0.50695 0.66293 0.83850
 C622 C 0.50045 0.68521 0.80409
 C623 C 0.50818 0.70388 0.81405
 N624 N 0.51455 0.70198 0.83567
 H625 H 0.56542 0.74762 0.83609
 H626 H 0.49624 0.75898 0.82402
 H627 H 0.50360 0.79524 0.80364
 H628 H 0.57434 0.78300 0.81575
 H629 H 0.51935 0.68100 0.86502
 H630 H 0.50649 0.64733 0.84873
 H631 H 0.49495 0.68712 0.78704
 H632 H 0.50855 0.71996 0.80472
 C633 C 0.58538 0.70373 0.89245
 C634 C 0.46119 0.75549 0.89448
 C635 C 0.49955 0.66444 0.81646
 C636 C 0.53963 0.79221 0.80810
 N637 N 0.44429 -0.17160 0.31885
 C638 C 0.45344 -0.15132 0.31947
 N639 N 0.47066 -0.14921 0.33299
 N640 N 0.47846 -0.16683 0.34557
 C641 C 0.46930 -0.18718 0.34511
 N642 N 0.45209 -0.18923 0.33144
 C643 C 0.44429 -0.13203 0.30687
 C644 C 0.43632 -0.11562 0.29681
 C645 C 0.42646 -0.09591 0.28543
 N646 N 0.42568 -0.07576 0.29505
 N647 N 0.41567 -0.05760 0.28502
 C648 C 0.40606 -0.05893 0.26502
 N649 N 0.40701 -0.07919 0.25540
 N650 N 0.41701 -0.09736 0.26543
 N651 N 0.94563 0.32794 0.81735
 C652 C 0.95478 0.34822 0.81808
 N653 N 0.97199 0.35026 0.83162
 N654 N 0.97979 0.33258 0.84413
 C655 C 0.97063 0.31224 0.84357
 N656 N 0.95344 0.31025 0.82986
 C657 C 0.94561 0.36760 0.80562
 C658 C 0.93766 0.38412 0.79572
 C659 C 0.92785 0.40398 0.78458
 N660 N 0.92724 0.42403 0.79441
 N661 N 0.91730 0.44234 0.78459
 C662 C 0.90760 0.44129 0.76459
 N663 N 0.90839 0.42115 0.75476
 N664 N 0.91833 0.40282 0.76458
 N665 N 0.01663 1.19478 0.85598
 C666 C 0.01830 1.19217 0.83347
 N667 N 0.01197 1.20971 0.81931
 N668 N 0.00416 1.22926 0.82741
 C669 C 0.00245 1.23197 0.84995
 N670 N 0.00881 1.21434 0.86408
 C671 C 0.02719 1.17132 0.82463
 C672 C 0.03497 1.15406 0.81689
 C673 C 0.04469 1.13388 0.80730
 N674 N 0.04152 1.11339 0.81773
 N675 N 0.05111 1.09478 0.80901
 C676 C 0.06420 1.09599 0.78955
 N677 N 0.06721 1.11660 0.77916
 N678 N 0.05764 1.13519 0.78787
 N679 N 0.51536 0.69542 0.35726
 C680 C 0.51692 0.69287 0.33473
 N681 N 0.51045 0.71041 0.32065
 N682 N 0.50261 0.72991 0.32883
 C683 C 0.50102 0.73257 0.35139
 N684 N 0.50751 0.71493 0.36544
 C685 C 0.52589 0.67209 0.32578
 C686 C 0.53373 0.65494 0.31788
 C687 C 0.54355 0.63493 0.30804
 N688 N 0.55639 0.63653 0.28856
 N689 N 0.56604 0.61811 0.27959
 C690 C 0.56320 0.59737 0.28975
 N691 N 0.55020 0.59586 0.30926
 N692 N 0.54054 0.61431 0.31824
 N693 N 0.50403 0.35237 0.15987
 C694 C 0.51933 0.34890 0.17587
 N695 N 0.52879 0.32788 0.17979
 N696 N 0.52318 0.31085 0.16801
 C697 C 0.50798 0.31427 0.15183
 N698 N 0.49842 0.33535 0.14809
 C699 C 0.52707 0.36756 0.18698
 C700 C 0.53464 0.38311 0.19563
 C701 C 0.54502 0.40129 0.20512
 N702 N 0.56774 0.40083 0.20574
 N703 N 0.57775 0.41794 0.21366
 C704 C 0.56544 0.43622 0.22124
 N705 N 0.54260 0.43658 0.22067
 N706 N 0.53256 0.41942 0.21271
 N707 N 0.00381 0.85159 0.66037
 C708 C 0.01884 0.84769 0.67656
 N709 N 0.02782 0.82648 0.68048
 N710 N 0.02200 0.80968 0.66850
 C711 C 0.00703 0.81346 0.65210
 N712 N -0.00201 0.83480 0.64839
 C713 C 0.02680 0.86609 0.68790
 C714 C 0.03450 0.88146 0.69674
 C715 C 0.04498 0.89947 0.70643
 N716 N 0.06768 0.89868 0.70744
 N717 N 0.07779 0.91568 0.71545
 C718 C 0.06561 0.93417 0.72271
 N719 N 0.04280 0.93485 0.72175
 N720 N 0.03265 0.91781 0.71371
 N721 N 0.96744 0.70218 0.63949
 C722 C 0.96188 0.69894 0.66175
 N723 N 0.96630 0.71497 0.67596
 N724 N 0.97590 0.73373 0.66809
 C725 C 0.98137 0.73714 0.64573
 N726 N 0.97702 0.72092 0.63164
 C727 C 0.95061 0.67918 0.66990
 C728 C 0.94076 0.66265 0.67621
 C729 C 0.92863 0.64309 0.68321
 N730 N 0.90637 0.64269 0.67968
 N731 N 0.89510 0.62445 0.68582
 C732 C 0.90566 0.60593 0.69570
 N733 N 0.92801 0.60645 0.69920
 N734 N 0.93930 0.62469 0.69305
 N735 N 0.46741 0.20095 0.13993
 C736 C 0.46126 0.19776 0.16207
 N737 N 0.46534 0.21379 0.17643
 N738 N 0.47519 0.23249 0.16881
 C739 C 0.48128 0.23580 0.14658
 N740 N 0.47724 0.21963 0.13233
 C741 C 0.44978 0.17805 0.16996
 C742 C 0.43979 0.16156 0.17609
 C743 C 0.42754 0.14204 0.18295
 N744 N 0.40529 0.14174 0.17931
 N745 N 0.39391 0.12355 0.18538
 C746 C 0.40437 0.10497 0.19527
 N747 N 0.42670 0.10538 0.19886
 N748 N 0.43809 0.12357 0.19279
 N749 N 0.33221 0.47216 -0.14951
 C750 C 0.31857 0.45500 -0.15149
 N751 N 0.31770 0.44586 -0.17175
 N752 N 0.33017 0.45362 -0.18950
 C753 C 0.34397 0.47075 -0.18757
 N754 N 0.34467 0.47990 -0.16724
 C755 C 0.30612 0.44590 -0.13209
 C756 C 0.29620 0.43800 -0.11557
 C757 C 0.28500 0.42822 -0.09574
 N758 N 0.26497 0.41873 -0.09692
 N759 N 0.25511 0.40881 -0.07863
 C760 C 0.26492 0.40800 -0.05851
 N761 N 0.28495 0.41766 -0.05745
 N762 N 0.29481 0.42758 -0.07572
 N763 N 0.83423 0.96994 0.35018
 C764 C 0.82033 0.95303 0.34807
 N765 N 0.81918 0.94421 0.32768
 N766 N 0.83162 0.95203 0.30995
 C767 C 0.84569 0.96892 0.31201
 N768 N 0.84667 0.97775 0.33247
 C769 C 0.80788 0.94386 0.36743
 C770 C 0.79795 0.93592 0.38393
 C771 C 0.78675 0.92613 0.40376
 N772 N 0.76662 0.91683 0.40260
 N773 N 0.75672 0.90693 0.42088
 C774 C 0.76660 0.90596 0.44097
 N775 N 0.78673 0.91543 0.44201
 N776 N 0.79663 0.92532 0.42374
 N777 N 0.82034 0.01085 1.21021
 C778 C 0.83435 0.01720 1.19255
 N779 N 0.85693 0.01549 1.19487
 N780 N 0.86523 0.00762 1.21427
 C781 C 0.85125 0.00124 1.23201
 N782 N 0.82864 0.00299 1.22959
 C783 C 0.82531 0.02612 1.17186
 C784 C 0.81740 0.03391 1.15475
 C785 C 0.80762 0.04364 1.13473
 N786 N 0.81783 0.04039 1.11413
 N787 N 0.80893 0.04998 1.09567
 C788 C 0.78952 0.06317 1.09715
 N789 N 0.77935 0.06626 1.11785
 N790 N 0.78822 0.05668 1.13629
 N791 N 0.31889 0.51219 0.71051
 C792 C 0.33291 0.51857 0.69287
 N793 N 0.35548 0.51685 0.69520
 N794 N 0.36378 0.50895 0.71459
 C795 C 0.34979 0.50255 0.73232
 N796 N 0.32718 0.50429 0.72988
 C797 C 0.32385 0.52757 0.67222
 C798 C 0.31589 0.53543 0.65515
 C799 C 0.30601 0.54524 0.63521
 N800 N 0.31616 0.54211 0.61457
 N801 N 0.30715 0.55176 0.59618
 C802 C 0.28769 0.56487 0.59779
 N803 N 0.27759 0.56783 0.61854
 N804 N 0.28658 0.55820 0.63691
 N805 N 0.18191 0.51378 0.33257
 C806 C 0.17060 0.52057 0.35165
 N807 N 0.14777 0.52183 0.35269
 N808 N 0.13656 0.51649 0.33520
 C809 C 0.14777 0.50977 0.31601
 N810 N 0.17068 0.50842 0.31505
 C811 C 0.18245 0.52816 0.36987
 C812 C 0.19167 0.53567 0.38509
 C813 C 0.20178 0.54604 0.40290
 N814 N 0.20314 0.56870 0.40203
 N815 N 0.21146 0.57876 0.41889
 C816 C 0.21870 0.56658 0.43731
 N817 N 0.21741 0.54380 0.43808
 N818 N 0.20905 0.53370 0.42118
 N819 N 0.68367 0.01323 0.83125
 C820 C 0.67245 0.01972 0.85049
 N821 N 0.64961 0.02087 0.85167
 N822 N 0.63831 0.01572 0.83417
 C823 C 0.64944 0.00930 0.81481
 N824 N 0.67236 0.00805 0.81372
 C825 C 0.68437 0.02713 0.86874
 C826 C 0.69367 0.03451 0.88398
 C827 C 0.70386 0.04476 0.90182
 N828 N 0.70545 0.06739 0.90094
 N829 N 0.71383 0.07736 0.91783
 C830 C 0.72090 0.06511 0.93628
 N831 N 0.71939 0.04235 0.93704
 N832 N 0.71097 0.03235 0.92012
 N833 N 0.67686 0.96661 0.71378
 C834 C 0.66276 0.96245 0.69758
 N835 N 0.64054 0.96854 0.70051
 N836 N 0.63263 0.97840 0.71911
 C837 C 0.64662 0.98252 0.73544
 N838 N 0.66893 0.97649 0.73240
 C839 C 0.67097 0.95091 0.67796
 C840 C 0.67734 0.94086 0.66154
 C841 C 0.68442 0.92852 0.64210
 N842 N 0.68065 0.90631 0.64175
 N843 N 0.68687 0.89485 0.62362
 C844 C 0.69705 0.90518 0.60515
 N845 N 0.70079 0.92748 0.60562
 N846 N 0.69456 0.93895 0.62375
 N847 N 0.17556 0.46759 0.21482
 C848 C 0.16150 0.46335 0.19862
 N849 N 0.13923 0.46922 0.20159
 N850 N 0.13124 0.47895 0.22023
 C851 C 0.14520 0.48315 0.23657
 N852 N 0.16755 0.47734 0.23348
 C853 C 0.16977 0.45192 0.17896
 C854 C 0.17616 0.44196 0.16249
 C855 C 0.18323 0.42971 0.14299
 N856 N 0.17968 0.40745 0.14263
 N857 N 0.18584 0.39608 0.12443
 C858 C 0.19574 0.40656 0.10589
 N859 N 0.19926 0.42890 0.10636
 N860 N 0.19310 0.44028 0.12457
 N861 N -0.17158 0.31761 0.44488
 C862 C -0.15131 0.31832 0.45404
 N863 N -0.14932 0.33183 0.47131
 N864 N -0.16704 0.34433 0.47914
 C865 C -0.18738 0.34379 0.46997
 N866 N -0.18931 0.33011 0.45273
 C867 C -0.13191 0.30586 0.44484
 C868 C -0.11538 0.29594 0.43685
 C869 C -0.09551 0.28478 0.42699
 N870 N -0.07548 0.29459 0.42638
 N871 N -0.05717 0.28475 0.41639
 C872 C -0.05821 0.26475 0.40663
 N873 N -0.07834 0.25494 0.40741
 N874 N -0.09666 0.26478 0.41740
 N875 N 0.32769 0.81855 0.94552
 C876 C 0.34811 0.81944 0.95430
 N877 N 0.35036 0.83318 0.97132
 N878 N 0.33274 0.84573 0.97928
 C879 C 0.31217 0.84506 0.97051
 N880 N 0.31005 0.83110 0.95349
 C881 C 0.36742 0.80695 0.94494
 C882 C 0.38391 0.79703 0.93686
 C883 C 0.40376 0.78590 0.92691
 N884 N 0.42377 0.79575 0.92622
 N885 N 0.44207 0.78592 0.91620
 C886 C 0.44104 0.76589 0.90650
 N887 N 0.42093 0.75604 0.90736
 N888 N 0.40261 0.76587 0.91738
 N889 N 1.21228 0.82093 0.01065
 C890 C 1.19447 0.83485 0.01692
 N891 N 1.19667 0.85743 0.01531
 N892 N 1.21610 0.86583 0.00762
 C893 C 1.23403 0.85195 0.00130
 N894 N 1.23169 0.82933 0.00296
 C895 C 1.17375 0.82571 0.02565
 C896 C 1.15658 0.81775 0.03329
 C897 C 1.13647 0.80795 0.04284
 N898 N 1.11588 0.81814 0.03945
 N899 N 1.09733 0.80925 0.04890
 C900 C 1.09871 0.78987 0.06208
 N901 N 1.11942 0.77973 0.06530
 N902 N 1.13794 0.78859 0.05587
 N903 N 0.71029 0.31916 0.51101
 C904 C 0.69268 0.33325 0.51746
 N905 N 0.69515 0.35580 0.51592
 N906 N 0.71464 0.36400 0.50814
 C907 C 0.73234 0.34994 0.50167
 N908 N 0.72977 0.32735 0.50323
 C909 C 0.67192 0.32429 0.52634
 C910 C 0.65477 0.31642 0.53412
 C911 C 0.63473 0.30664 0.54386
 N912 N 0.61411 0.31683 0.54066
 N913 N 0.59563 0.30793 0.55026
 C914 C 0.59712 0.28852 0.56339
 N915 N 0.61786 0.27838 0.56642
 N916 N 0.63632 0.28726 0.55684
 N917 N 0.33210 0.18154 0.51271
 C918 C 0.35129 0.17034 0.51935
 N919 N 0.35246 0.14750 0.52056
 N920 N 0.33499 0.13619 0.51534
 C921 C 0.31569 0.14730 0.50877
 N922 N 0.31461 0.17021 0.50746
 C923 C 0.36948 0.18230 0.52684
 C924 C 0.38463 0.19168 0.53429
 C925 C 0.40235 0.20200 0.54460
 N926 N 0.40130 0.20369 0.56721
 N927 N 0.41806 0.21223 0.57722
 C928 C 0.43655 0.21938 0.56505
 N929 N 0.43748 0.21776 0.54232
 N930 N 0.42068 0.20918 0.53226
 N931 N 0.85251 0.65035 0.02009
 C932 C 0.85142 0.67318 0.01862
 N933 N 0.83228 0.68438 0.01184
 N934 N 0.81475 0.67305 0.00669
 C935 C 0.81575 0.65014 0.00825
 N936 N 0.83500 0.63904 0.01497
 C937 C 0.86968 0.68516 0.02596
 C938 C 0.88492 0.69450 0.03328
 C939 C 0.90277 0.70474 0.04346
 N940 N 0.92121 0.71158 0.03105
 N941 N 0.93815 0.72002 0.04100
 C942 C 0.93727 0.72182 0.06371
 N943 N 0.91869 0.71501 0.07596
 N944 N 0.90179 0.70662 0.06604
 N945 N 0.71440 0.67724 0.96627
 C946 C 0.69824 0.66309 0.96212
 N947 N 0.70128 0.64087 0.96810
 N948 N 0.71994 0.63302 0.97785
 C949 C 0.73624 0.64707 0.98195
 N950 N 0.73309 0.66937 0.97604
 C951 C 0.67857 0.67122 0.95067
 C952 C 0.66210 0.67751 0.94069
 C953 C 0.64261 0.68448 0.92841
 N954 N 0.64235 0.68082 0.90618
 N955 N 0.62418 0.68693 0.89478
 C956 C 0.60557 0.69689 0.90520
 N957 N 0.60595 0.70051 0.92751
 N958 N 0.62413 0.69440 0.93893
 N959 N 0.21437 0.17478 0.46713
 C960 C 0.19822 0.16069 0.46279
 N961 N 0.20121 0.13843 0.46861
 N962 N 0.21984 0.13048 0.47837
 C963 C 0.23613 0.14446 0.48265
 N964 N 0.23301 0.16680 0.47690
 C965 C 0.17862 0.16894 0.45129
 C966 C 0.16224 0.17537 0.44124
 C967 C 0.14286 0.18253 0.42889
 N968 N 0.14276 0.17916 0.40658
 N969 N 0.12469 0.18547 0.39509
 C970 C 0.10603 0.19534 0.40549
 N971 N 0.10624 0.19867 0.42788
 N972 N 0.12432 0.19236 0.43938
 N973 N 0.58789 0.07707 0.75253
 C974 C 0.57719 0.07361 0.73367
 N975 N 0.57692 0.05237 0.72653
 N976 N 0.58718 0.03514 0.73789
 C977 C 0.59814 0.03856 0.75672
 N978 N 0.59814 0.05988 0.76384
 C979 C 0.56747 0.09249 0.72086
 C980 C 0.56010 0.10884 0.71025
 C981 C 0.55216 0.12870 0.69765
 N982 N 0.55242 0.12902 0.67488
 N983 N 0.54617 0.14780 0.66310
 C984 C 0.53952 0.16697 0.67362
 N985 N 0.53923 0.16650 0.69648
 N986 N 0.54548 0.14772 0.70827
 N987 N 1.08452 0.57893 0.25368
 C988 C 1.07532 0.57558 0.23395
 N989 N 1.07626 0.55448 0.22625
 N990 N 1.08625 0.53730 0.23790
 C991 C 1.09568 0.54065 0.25760
 N992 N 1.09451 0.56179 0.26529
 C993 C 1.06603 0.59447 0.22084
 C994 C 1.05902 0.61082 0.20999
 C995 C 1.05150 0.63068 0.19714
 N996 N 1.05214 0.63088 0.17436
 N997 N 1.04625 0.64965 0.16238
 C998 C 1.03959 0.66893 0.17270
 N999 N 1.03892 0.66859 0.19557
 N1000 N 1.04481 0.64982 0.20757
 N1001 N 0.91957 0.91417 0.24872
 C1002 C 0.93102 0.92078 0.22941
 N1003 N 0.92927 0.94275 0.22205
 N1004 N 0.91635 0.95763 0.23362
 C1005 C 0.90462 0.95104 0.25290
 N1006 N 0.90666 0.92902 0.26026
 C1007 C 0.94329 0.90428 0.21614
 C1008 C 0.95255 0.88979 0.20500
 C1009 C 0.96229 0.87195 0.19171
 N1010 N 0.95021 0.86372 0.17573
 N1011 N 0.95855 0.84642 0.16404
 C1012 C 0.97927 0.83663 0.16791
 N1013 N 0.99138 0.84502 0.18391
 N1014 N 0.98302 0.86235 0.19565
 N1015 N 0.42751 0.44161 0.72193
 C1016 C 0.43008 0.41989 0.72995
 N1017 N 0.41953 0.41364 0.74988
 N1018 N 0.40672 0.42860 0.76139
 C1019 C 0.40394 0.45034 0.75338
 N1020 N 0.41470 0.45660 0.73348
 C1021 C 0.44220 0.40320 0.71679
 C1022 C 0.45137 0.38854 0.70581
 C1023 C 0.46102 0.37050 0.69273
 N1024 N 0.44881 0.36197 0.67702
 N1025 N 0.45709 0.34451 0.66553
 C1026 C 0.47787 0.33485 0.66933
 N1027 N 0.49011 0.34353 0.68507
 N1028 N 0.48180 0.36102 0.69661
 N1029 N 0.42894 0.54698 0.76215
 C1030 C 0.43002 0.55764 0.78160
 N1031 N 0.41717 0.55085 0.79993
 N1032 N 0.40363 0.53396 0.79893
 C1033 C 0.40243 0.52320 0.77955
 N1034 N 0.41535 0.53003 0.76115
 C1035 C 0.44450 0.57588 0.78324
 C1036 C 0.45609 0.59122 0.78647
 C1037 C 0.46914 0.60930 0.79244
 N1038 N 0.48075 0.60698 0.81140
 N1039 N 0.49094 0.62435 0.81860
 C1040 C 0.48985 0.64475 0.80718
 N1041 N 0.47841 0.64693 0.78798
 N1042 N 0.46816 0.62954 0.78078
 N1043 N -0.06984 0.04586 0.26193
 C1044 C -0.06889 0.05655 0.28138
 N1045 N -0.08175 0.04970 0.29968
 N1046 N -0.09519 0.03273 0.29864
 C1047 C -0.09626 0.02194 0.27927
 N1048 N -0.08333 0.02882 0.26090
 C1049 C -0.05449 0.07484 0.28306
 C1050 C -0.04295 0.09021 0.28632
 C1051 C -0.02994 0.10831 0.29233
 N1052 N -0.01837 0.10599 0.31132
 N1053 N -0.00822 0.12337 0.31855
 C1054 C -0.00929 0.14376 0.30712
 N1055 N -0.02069 0.14595 0.28790
 N1056 N -0.03090 0.12854 0.28067
 N1057 N 0.07502 0.43551 0.26467
 C1058 C 0.07111 0.42325 0.28423
 N1059 N 0.07716 0.43123 0.30375
 N1060 N 0.08710 0.45070 0.30372
 C1061 C 0.09136 0.46292 0.28417
 N1062 N 0.08493 0.45506 0.26466
 C1063 C 0.06321 0.40092 0.28428
 C1064 C 0.05792 0.38162 0.28552
 C1065 C 0.05314 0.35826 0.28855
 N1066 N 0.07031 0.34258 0.29129
 N1067 N 0.06615 0.32118 0.29676
 C1068 C 0.04464 0.31462 0.29974
 N1069 N 0.02745 0.33036 0.29661
 N1070 N 0.03161 0.35182 0.29117
 N1071 N 0.57801 0.93145 0.80261
 C1072 C 0.57185 0.92353 0.78311
 N1073 N 0.57589 0.93574 0.76354
 N1074 N 0.58603 0.95516 0.76349
 C1075 C 0.59257 0.96295 0.78299
 N1076 N 0.58817 0.95080 0.80256
 C1077 C 0.56368 0.90131 0.78320
 C1078 C 0.55817 0.88209 0.78451
 C1079 C 0.55314 0.85880 0.78764
 N1080 N 0.53155 0.85261 0.79057
 N1081 N 0.52719 0.83122 0.79615
 C1082 C 0.54427 0.81531 0.79912
 N1083 N 0.56584 0.82161 0.79583
 N1084 N 0.57019 0.84294 0.79021
 N1085 N 0.72661 0.57797 0.05352
 C1086 C 0.73432 0.57726 0.07456
 N1087 N 0.75386 0.58686 0.07786
 N1088 N 0.76529 0.59700 0.06069
 C1089 C 0.75760 0.59793 0.03960
 N1090 N 0.73808 0.58812 0.03632
 C1091 C 0.72141 0.56771 0.09346
 C1092 C 0.71072 0.56045 0.10981
 C1093 C 0.69804 0.55261 0.12964
 N1094 N 0.70863 0.54594 0.14864
 N1095 N 0.69677 0.53974 0.16739
 C1096 C 0.67388 0.54005 0.16785
 N1097 N 0.66340 0.54669 0.14870
 N1098 N 0.67525 0.55290 0.12996
 N1099 N 0.22667 1.07499 0.55393
 C1100 C 0.23454 1.07405 0.57492
 N1101 N 0.25418 1.08351 0.57814
 N1102 N 0.26554 1.09372 0.56098
 C1103 C 0.25769 1.09488 0.53995
 N1104 N 0.23807 1.08521 0.53673
 C1105 C 0.22169 1.06448 0.59384
 C1106 C 0.21106 1.05722 0.61022
 C1107 C 0.19845 1.04941 0.63011
 N1108 N 0.20909 1.04291 0.64912
 N1109 N 0.19728 1.03678 0.66793
 C1110 C 0.17440 1.03701 0.66845
 N1111 N 0.16387 1.04348 0.64929
 N1112 N 0.17566 1.04961 0.63049
 N1113 N 0.22350 0.92803 0.94317
 C1114 C 0.23111 0.92966 0.92127
 N1115 N 0.25053 0.91820 0.91486
 N1116 N 0.26193 0.90538 0.92982
 C1117 C 0.25433 0.90347 0.95176
 N1118 N 0.23495 0.91521 0.95817
 C1119 C 0.21797 0.94177 0.90462
 C1120 C 0.20696 0.95088 0.89000
 C1121 C 0.19382 0.96041 0.87201
 N1122 N 0.17801 0.94817 0.86370
 N1123 N 0.16646 0.95632 0.84629
 C1124 C 0.17031 0.97699 0.83645
 N1125 N 0.18616 0.98926 0.84491
 N1126 N 0.19775 0.98110 0.86236
 N1127 N 0.72245 0.42789 0.44144
 C1128 C 0.73052 0.43050 0.41974
 N1129 N 0.75044 0.41989 0.41342
 N1130 N 0.76190 0.40698 0.42827
 C1131 C 0.75384 0.40415 0.44998
 N1132 N 0.73394 0.41497 0.45632
 C1133 C 0.71738 0.44269 0.40315
 C1134 C 0.70638 0.45188 0.38858
 C1135 C 0.69325 0.46154 0.37063
 N1136 N 0.67759 0.44929 0.36208
 N1137 N 0.66604 0.45757 0.34472
 C1138 C 0.66974 0.47840 0.33519
 N1139 N 0.68543 0.49067 0.34389
 N1140 N 0.69702 0.48237 0.36128
 N1141 N 0.80026 0.41673 0.55048
 C1142 C 0.78199 0.42977 0.55722
 N1143 N 0.76256 0.42890 0.54650
 N1144 N 0.76152 0.41531 0.52953
 C1145 C 0.77986 0.40219 0.52275
 N1146 N 0.79921 0.40320 0.53358
 C1147 C 0.78369 0.44429 0.57543
 C1148 C 0.78697 0.45592 0.59074
 C1149 C 0.79300 0.46901 0.60877
 N1150 N 0.78137 0.46809 0.62904
 N1151 N 0.78864 0.47838 0.64638
 C1152 C 0.80786 0.48979 0.64410
 N1153 N 0.81925 0.49081 0.62367
 N1154 N 0.81199 0.48059 0.60636
 N1155 N 0.29931 -0.08333 0.04911
 C1156 C 0.28101 -0.07036 0.05588
 N1157 N 0.26160 -0.07126 0.04512
 N1158 N 0.26062 -0.08482 0.02812
 C1159 C 0.27899 -0.09790 0.02129
 N1160 N 0.29832 -0.09683 0.03217
 C1161 C 0.28265 -0.05592 0.07416
 C1162 C 0.28591 -0.04438 0.08954
 C1163 C 0.29196 -0.03141 0.10767
 N1164 N 0.28007 -0.03210 0.12780
 N1165 N 0.28731 -0.02194 0.14523
 C1166 C 0.30676 -0.01088 0.14318
 N1167 N 0.31842 -0.01009 0.12289
 N1168 N 0.31118 -0.02019 0.10549
 N1169 N 0.26411 0.07420 0.43498
 C1170 C 0.28362 0.07037 0.42252
 N1171 N 0.30318 0.07656 0.43028
 N1172 N 0.30325 0.08654 0.44973
 C1173 C 0.28374 0.09072 0.46214
 N1174 N 0.26418 0.08416 0.45449
 C1175 C 0.28353 0.06240 0.40023
 C1176 C 0.28467 0.05703 0.38096
 C1177 C 0.28757 0.05215 0.35761
 N1178 N 0.29014 0.06928 0.34190
 N1179 N 0.29554 0.06504 0.32050
 C1180 C 0.29862 0.04352 0.31397
 N1181 N 0.29566 0.02637 0.32974
 N1182 N 0.29029 0.03061 0.35120
 N1183 N 0.80374 0.57848 0.93052
 C1184 C 0.78425 0.57221 0.92268
 N1185 N 0.76464 0.57621 0.93494
 N1186 N 0.76457 0.58642 0.95433
 C1187 C 0.78406 0.59307 0.96204
 N1188 N 0.80366 0.58871 0.94984
 C1189 C 0.78434 0.56397 0.90049
 C1190 C 0.78564 0.55840 0.88128
 C1191 C 0.78874 0.55333 0.85800
 N1192 N 0.79176 0.53174 0.85180
 N1193 N 0.79731 0.52735 0.83040
 C1194 C 0.80016 0.54441 0.81451
 N1195 N 0.79678 0.56598 0.82083
 N1196 N 0.79119 0.57036 0.84216
 N1197 N 0.05058 0.72816 0.57770
 C1198 C 0.07179 0.73529 0.57820
 N1199 N 0.07513 0.75403 0.58919
 N1200 N 0.05786 0.76522 0.59951
 C1201 C 0.03658 0.75810 0.59929
 N1202 N 0.03327 0.73940 0.58803
 C1203 C 0.09076 0.72254 0.56846
 C1204 C 0.10718 0.71195 0.56110
 C1205 C 0.12709 0.69934 0.55319
 N1206 N 0.14609 0.70997 0.54658
 N1207 N 0.16493 0.69816 0.54036
 C1208 C 0.16547 0.67528 0.54061
 N1209 N 0.14632 0.66475 0.54719
 N1210 N 0.12750 0.67654 0.55340
 N1211 N 0.55362 0.22673 1.07768
 C1212 C 0.57470 0.23435 1.07730
 N1213 N 0.57795 0.25369 1.08732
 N1214 N 0.56070 0.26501 1.09754
 C1215 C 0.53957 0.25742 1.09814
 N1216 N 0.53633 0.23810 1.08791
 C1217 C 0.59367 0.22152 1.06766
 C1218 C 0.61004 0.21085 1.06032
 C1219 C 0.62989 0.19815 1.05241
 N1220 N 0.64894 0.20868 1.04578
 N1221 N 0.66770 0.19679 1.03951
 C1222 C 0.66811 0.17391 1.03972
 N1223 N 0.64891 0.16347 1.04632
 N1224 N 0.63016 0.17536 1.05259
 N1225 N 0.94185 0.22237 0.92766
 C1226 C 0.92008 0.23036 0.93015
 N1227 N 0.91372 0.25018 0.91945
 N1228 N 0.92861 0.26163 0.90658
 C1229 C 0.95040 0.25365 0.90388
 N1230 N 0.95677 0.23385 0.91478
 C1231 C 0.90348 0.21721 0.94232
 C1232 C 0.88892 0.20619 0.95152
 C1233 C 0.87101 0.19302 0.96119
 N1234 N 0.86156 0.19687 0.98199
 N1235 N 0.84420 0.18522 0.99032
 C1236 C 0.83564 0.16938 0.97811
 N1237 N 0.84527 0.16560 0.95732
 N1238 N 0.86260 0.17721 0.94901
 N1239 N 0.41247 0.75110 0.42120
 C1240 C 0.41869 0.73114 0.43171
 N1241 N 0.44039 0.72297 0.42908
 N1242 N 0.45537 0.73441 0.41623
 C1243 C 0.44913 0.75434 0.40550
 N1244 N 0.42741 0.76251 0.40836
 C1245 C 0.40199 0.71806 0.44381
 C1246 C 0.38730 0.70714 0.45293
 C1247 C 0.36922 0.69414 0.46250
 N1248 N 0.35972 0.69805 0.48327
 N1249 N 0.34219 0.68659 0.49149
 C1250 C 0.33350 0.67089 0.47919
 N1251 N 0.34318 0.66706 0.45844
 N1252 N 0.36067 0.67848 0.45024
 N1253 N 0.55007 0.80060 0.41765
 C1254 C 0.55697 0.78230 0.43049
 N1255 N 0.54622 0.76288 0.42964
 N1256 N 0.52910 0.76187 0.41627
 C1257 C 0.52217 0.78024 0.40335
 N1258 N 0.53301 0.79959 0.40433
 C1259 C 0.57539 0.78394 0.44474
 C1260 C 0.59087 0.78713 0.45615
 C1261 C 0.60912 0.79302 0.46902
 N1262 N 0.62932 0.78123 0.46789
 N1263 N 0.64684 0.78832 0.47802
 C1264 C 0.64480 0.80754 0.48949
 N1265 N 0.62444 0.81911 0.49073
 N1266 N 0.60696 0.81201 0.48066
 N1267 N 0.05074 0.30035 -0.08324
 C1268 C 0.05748 0.28215 -0.07018
 N1269 N 0.04681 0.26269 -0.07108
 N1270 N 0.02992 0.26155 -0.08471
 C1271 C 0.02315 0.27982 -0.09785
 N1272 N 0.03392 0.29921 -0.09682
 C1273 C 0.07562 0.28396 -0.05563
 C1274 C 0.09088 0.28731 -0.04400
 C1275 C 0.10887 0.29342 -0.03090
 N1276 N 0.12912 0.28171 -0.03166
 N1277 N 0.14644 0.28902 -0.02138
 C1278 C 0.14414 0.30838 -0.01012
 N1279 N 0.12373 0.31985 -0.00926
 N1280 N 0.10644 0.31254 -0.01948
 N1281 N 0.43498 0.26470 0.07588
 C1282 C 0.42280 0.28435 0.07190
 N1283 N 0.43067 0.30380 0.07828
 N1284 N 0.44994 0.30363 0.08859
 C1285 C 0.46206 0.28398 0.09293
 N1286 N 0.45432 0.26454 0.08616
 C1287 C 0.40061 0.28454 0.06364
 C1288 C 0.38140 0.28590 0.05809
 C1289 C 0.35810 0.28907 0.05306
 N1290 N 0.35190 0.29206 0.03150
 N1291 N 0.33050 0.29766 0.02717
 C1292 C 0.31458 0.30059 0.04424
 N1293 N 0.32089 0.29724 0.06577
 N1294 N 0.34224 0.29160 0.07010
 N1295 N 0.93693 0.76448 0.57511
 C1296 C 0.92337 0.78355 0.57340
 N1297 N 0.92977 0.80254 0.58218
 N1298 N 0.94892 0.80244 0.59267
 C1299 C 0.96242 0.78332 0.59485
 N1300 N 0.95617 0.76440 0.58558
 C1301 C 0.90139 0.78337 0.56472
 C1302 C 0.88228 0.78447 0.55885
 C1303 C 0.85905 0.78737 0.55351
 N1304 N 0.84293 0.78940 0.57038
 N1305 N 0.82161 0.79490 0.56583
 C1306 C 0.81558 0.79861 0.54423
 N1307 N 0.83176 0.79617 0.52732
 N1308 N 0.85314 0.79071 0.53188
   
