data_POSCAR
  _audit_creation_date              2014-09-24
  _audit_creation_method            'ToBaCCo'
  _symmetry_space_group_name_H-M    'P1'
  _symmetry_Int_Tables_number       1
  _symmetry_cell_setting            triclinic
  loop_
  _symmetry_equiv_pos_as_xyz
 x,y,z
_cell_length_a 43.1139
_cell_length_b 43.5432
_cell_length_c 43.7283
_cell_angle_alpha 89.121000
_cell_angle_beta 90.472800
_cell_angle_gamma 91.701800
loop_
  _atom_site_label
  _atom_site_type_symbol
  _atom_site_fract_x
  _atom_site_fract_y
  _atom_site_fract_z
C1 C 0.12589 -0.00878 0.26629
 C2 C 0.36913 0.01200 0.74160
 C3 C 0.86925 0.52192 0.24476
 C4 C 0.64026 0.50388 0.75768
 C5 C 0.24207 0.12670 0.99981
 C6 C 0.74791 0.36706 0.98317
 C7 C 0.23632 0.86722 0.49992
 C8 C 0.75364 0.63371 0.50508
 C9 C 0.01302 0.25774 0.11950
 C10 C 0.00076 0.74415 0.37005
 C11 C 0.50640 0.23893 0.87539
 C12 C 0.51862 0.75286 0.62092
 C13 C 0.88395 1.01262 0.76387
 C14 C 0.38689 0.49906 0.25445
 C15 C 0.61688 1.01420 0.24203
 C16 C 0.11650 0.50586 0.74580
 C17 C 0.73525 0.87536 -0.00088
 C18 C 0.24653 0.37220 0.49435
 C19 C 0.25499 0.62568 0.00282
 C20 C 0.74249 0.12365 0.48664
 C21 C 1.02210 0.76276 0.88068
 C22 C 0.51251 0.25476 0.37440
 C23 C 1.00457 0.23811 0.62023
 C24 C 0.50042 0.73804 0.12225
 O25 O -0.01410 0.97665 0.93400
 O26 O 0.03722 0.99554 0.93809
 O27 O -0.01606 0.90869 1.00922
 O28 O -0.00965 0.90832 1.05873
 O29 O -0.09232 0.97115 0.99635
 O30 O -0.09947 1.02255 1.00713
 O31 O 0.04694 1.00298 1.09310
 O32 O 0.05880 0.95439 1.07277
 O33 O 0.05423 1.06433 1.01794
 O34 O 0.03002 1.06807 0.96755
 O35 O -0.02183 1.06517 1.07720
 O36 O -0.06839 1.03707 1.08328
 O37 O -0.00039 1.01807 1.10851
 O38 O -0.05543 0.99678 1.10143
 O39 O 0.00381 1.08563 1.03618
 O40 O -0.01036 1.08401 0.98100
 O41 O 0.07718 1.02554 1.04401
 O42 O 0.08429 0.97350 1.03404
 O43 O -0.05997 0.99704 0.94718
 O44 O -0.07486 1.04354 0.97241
 O45 O -0.07130 0.93177 1.02336
 O46 O -0.04839 0.93235 1.07579
 O47 O 0.00736 0.92949 0.96705
 O48 O 0.05517 0.95974 0.96385
 Zr49 Zr 0.01134 0.97678 0.97513
 O50 O 0.03578 1.00891 1.00208
 Zr51 Zr -0.02611 0.94732 1.03497
 O52 O -0.00214 0.97739 1.06489
 Zr53 Zr -0.05633 1.00474 0.99483
 O54 O -0.03492 1.03727 1.02394
 Zr55 Zr 0.04115 0.99142 1.04678
 O56 O 0.01915 0.95759 1.01888
 Zr57 Zr 0.00952 1.04827 1.00732
 O58 O -0.01301 1.01796 0.97656
 Zr59 Zr -0.02688 1.01812 1.06765
 O60 O -0.05247 0.98685 1.03975
 O61 O -0.03271 0.96415 0.99061
 O62 O 0.01707 1.03182 1.05184
 C63 C -0.04100 0.98678 0.92736
 C64 C -0.00316 0.90657 0.98306
 C65 C -0.09390 0.94443 1.00914
 C66 C 0.02801 1.01139 1.11376
 C67 C 0.07764 1.05236 1.03122
 C68 C -0.00913 1.08780 1.06230
 H69 H 0.05587 1.01367 0.99211
 H70 H -0.04785 1.05558 1.02501
 H71 H -0.04364 0.94947 0.97686
 H72 H 0.00018 0.96694 1.08497
 H73 H 0.05318 0.93537 1.06161
 H74 H 0.00637 0.91571 1.07338
 H75 H -0.03000 1.08955 0.99074
 H76 H -0.05812 1.05255 0.95943
 H77 H 0.08802 0.97936 1.01243
 H78 H 0.06104 0.94541 0.98058
 H79 H -0.07863 1.04674 1.06543
 H80 H -0.10281 1.01655 1.02881
 H81 H 0.02867 1.01595 0.93347
 H82 H 0.04841 1.05607 0.96267
 H83 H -0.06786 0.94371 1.07730
 H84 H -0.04323 0.98069 1.11176
 O85 O 0.56746 0.56305 0.51116
 O86 O 0.53951 0.57109 0.46249
 O87 O 0.49033 0.55908 0.57389
 O88 O 0.44567 0.53060 0.57744
 O89 O 0.56116 0.49356 0.58108
 O90 O 0.57183 0.44692 0.55116
 O91 O 0.41735 0.47193 0.49145
 O92 O 0.41321 0.52352 0.51062
 O93 O 0.48816 0.48499 0.42318
 O94 O 0.54255 0.50971 0.42650
 O95 O 0.49442 0.41127 0.48586
 O96 O 0.50952 0.40806 0.54168
 O97 O 0.44163 0.42961 0.50940
 O98 O 0.46793 0.41908 0.55632
 O99 O 0.51659 0.43828 0.44652
 O100 O 0.56101 0.47038 0.44052
 O101 O 0.44211 0.49674 0.44428
 O102 O 0.43210 0.54221 0.46530
 O103 O 0.59063 0.52088 0.53105
 O104 O 0.59582 0.47071 0.51761
 O105 O 0.51498 0.50878 0.59953
 O106 O 0.46452 0.48745 0.59603
 O107 O 0.51548 0.58351 0.53455
 O108 O 0.50147 0.58911 0.48253
 Zr109 Zr 0.52095 0.54929 0.50213
 O110 O 0.49474 0.52299 0.47054
 Zr111 Zr 0.48713 0.51267 0.56045
 O112 O 0.46123 0.48320 0.53154
 Zr113 Zr 0.55366 0.48811 0.53325
 O114 O 0.53049 0.45930 0.50154
 Zr115 Zr 0.45307 0.50604 0.48990
 O116 O 0.47677 0.53688 0.51979
 Zr117 Zr 0.51929 0.48360 0.46104
 O118 O 0.54687 0.51108 0.49087
 Zr119 Zr 0.48725 0.44501 0.51945
 O120 O 0.51145 0.47222 0.55232
 O121 O 0.53022 0.52747 0.54371
 O122 O 0.47683 0.46694 0.47811
 C123 C 0.59127 0.54893 0.52155
 C124 C 0.50237 0.58323 0.56075
 C125 C 0.54309 0.50076 0.60314
 C126 C 0.41741 0.44351 0.49987
 C127 C 0.45882 0.48964 0.42149
 C128 C 0.50693 0.41315 0.45922
 H129 H 0.49058 0.53546 0.45195
 H130 H 0.54383 0.44178 0.49745
 H131 H 0.54228 0.54068 0.55801
 H132 H 0.44170 0.47708 0.54195
 H133 H 0.41958 0.54327 0.52011
 H134 H 0.42807 0.51964 0.56735
 H135 H 0.57145 0.45644 0.45511
 H136 H 0.59753 0.47711 0.49586
 H137 H 0.44422 0.56109 0.47026
 H138 H 0.48071 0.59108 0.49166
 H139 H 0.52898 0.40443 0.53065
 H140 H 0.55688 0.43879 0.56654
 H141 H 0.55717 0.55878 0.45600
 H142 H 0.52842 0.52569 0.41897
 H143 H 0.47465 0.46738 0.59765
 H144 H 0.45172 0.43152 0.56554
 O145 O 0.50415 -0.06127 0.55469
 O146 O 0.54974 -0.03094 0.55744
 O147 O 0.43253 0.00295 0.56035
 O148 O 0.41908 0.04692 0.53269
 O149 O 0.42687 -0.06749 0.49309
 O150 O 0.44994 -0.07676 0.44662
 O151 O 0.50193 0.08539 0.46511
 O152 O 0.49126 0.09192 0.51592
 O153 O 0.57455 0.02151 0.46550
 O154 O 0.58104 -0.02760 0.47773
 O155 O 0.49519 0.01390 0.40123
 O156 O 0.44378 -0.00495 0.40542
 O157 O 0.47531 0.06213 0.42640
 O158 O 0.42470 0.02969 0.42781
 O159 O 0.54239 -0.00107 0.41833
 O160 O 0.55308 -0.05249 0.44939
 O161 O 0.55327 0.06399 0.48516
 O162 O 0.52699 0.07097 0.53760
 O163 O 0.48074 -0.08727 0.51576
 O164 O 0.49358 -0.08914 0.46099
 O165 O 0.40358 -0.02587 0.51230
 O166 O 0.39884 0.02750 0.49450
 O167 O 0.47909 -0.01280 0.57874
 O168 O 0.53198 0.00962 0.57308
 Zr169 Zr 0.50708 -0.01572 0.53952
 O170 O 0.53285 0.01155 0.50829
 Zr171 Zr 0.43959 0.00847 0.51305
 O172 O 0.46247 0.03899 0.48222
 Zr173 Zr 0.47186 -0.05249 0.48271
 O174 O 0.49377 -0.02488 0.44891
 Zr175 Zr 0.50756 0.05067 0.49787
 O176 O 0.48255 0.02451 0.53120
 Zr177 Zr 0.53719 -0.01032 0.46591
 O178 O 0.51620 -0.03992 0.49922
 Zr179 Zr 0.46955 0.01591 0.44131
 O180 O 0.44482 -0.01418 0.47136
 O181 O 0.46375 -0.03087 0.52380
 O182 O 0.51400 0.02996 0.45582
 C183 C 0.49362 -0.08599 0.54239
 C184 C 0.45082 -0.00501 0.58218
 C185 C 0.40317 -0.05388 0.50313
 C186 C 0.48873 0.08567 0.43879
 C187 C 0.57606 0.04952 0.47391
 C188 C 0.52346 0.00720 0.39692
 H189 H 0.55327 0.01644 0.51778
 H190 H 0.49550 -0.03687 0.43002
 H191 H 0.45239 -0.04440 0.53857
 H192 H 0.45000 0.05748 0.47907
 H193 H 0.46835 0.09031 0.51541
 H194 H 0.43590 0.05821 0.54371
 H195 H 0.54356 -0.05599 0.42903
 H196 H 0.51407 -0.09148 0.47101
 H197 H 0.54784 0.06254 0.54084
 H198 H 0.51962 0.02776 0.57767
 H199 H 0.45196 -0.02570 0.40268
 H200 H 0.43503 -0.06258 0.43707
 H201 H 0.55818 -0.04490 0.54213
 H202 H 0.58323 -0.02549 0.50014
 H203 H 0.39367 0.01600 0.47569
 H204 H 0.42089 0.04977 0.43716
 O205 O -0.07112 0.44541 0.99359
 O206 O -0.04212 0.43420 0.94923
 O207 O -0.00186 0.44778 1.06377
 O208 O 0.03841 0.47524 1.07801
 O209 O -0.07124 0.51916 1.05545
 O210 O -0.07625 0.56246 1.02293
 O211 O 0.08627 0.52322 0.98584
 O212 O 0.08511 0.47560 1.00748
 O213 O 0.02193 0.51965 0.91156
 O214 O -0.02902 0.50309 0.90417
 O215 O 0.01714 0.59289 0.97259
 O216 O 0.00055 0.60052 1.02160
 O217 O 0.06445 0.56805 0.99875
 O218 O 0.03178 0.57830 1.04766
 O219 O -0.00334 0.56932 0.93075
 O220 O -0.05338 0.53743 0.92252
 O221 O 0.06255 0.49922 0.93744
 O222 O 0.06411 0.45057 0.96942
 O223 O -0.09434 0.48931 1.00716
 O224 O -0.09163 0.54048 0.98318
 O225 O -0.03078 0.49962 1.08227
 O226 O 0.02419 0.52042 1.08428
 O227 O -0.02034 0.42228 1.02214
 O228 O -0.00365 0.41736 0.97034
 Zr229 Zr -0.02386 0.45692 0.98809
 O230 O 0.00659 0.48136 0.95857
 Zr231 Zr 0.00375 0.49347 1.04913
 O232 O 0.03690 0.51785 1.02247
 Zr233 Zr -0.05602 0.52100 1.01006
 O234 O -0.02553 0.54853 0.98303
 Zr235 Zr 0.04720 0.49360 0.98281
 O236 O 0.01778 0.46698 1.01188
 Zr237 Zr -0.01237 0.52341 0.94498
 O238 O -0.04505 0.49655 0.97065
 Zr239 Zr 0.01666 0.55812 1.00617
 O240 O -0.01599 0.53490 1.03504
 O241 O -0.03708 0.48053 1.02660
 O242 O 0.02933 0.53510 0.96706
 C243 C -0.09512 0.46056 1.00074
 C244 C -0.01048 0.42315 1.04995
 C245 C -0.05809 0.51063 1.08049
 C246 C 0.08792 0.55195 0.99162
 C247 C 0.04947 0.50930 0.91290
 C248 C 0.00775 0.59304 0.94472
 H249 H 0.01086 0.46861 0.94068
 H250 H -0.03623 0.56754 0.97718
 H251 H -0.05110 0.46811 1.04006
 H252 H 0.05580 0.52200 1.03487
 H253 H 0.07629 0.46090 1.02281
 H254 H 0.05822 0.47766 1.06690
 H255 H -0.05924 0.55721 0.93134
 H256 H -0.09450 0.52741 0.96499
 H257 H 0.05472 0.44508 0.94944
 H258 H 0.01687 0.41562 0.98044
 H259 H -0.02152 0.60145 1.01541
 H260 H -0.06131 0.57276 1.03701
 H261 H -0.05598 0.44878 0.93872
 H262 H -0.02668 0.48068 0.90659
 H263 H 0.01106 0.53846 1.08684
 H264 H 0.05228 0.57002 1.05305
 O265 O 0.00133 0.40300 0.51627
 O266 O -0.02111 0.40121 0.46673
 O267 O 0.07926 0.46555 0.50397
 O268 O 0.08804 0.51343 0.48873
 O269 O 0.01675 0.47731 0.58101
 O270 O -0.03342 0.49583 0.58553
 O271 O 0.00264 0.55372 0.43034
 O272 O 0.04402 0.52247 0.42097
 O273 O -0.07541 0.49065 0.43507
 O274 O -0.08780 0.44509 0.46444
 O275 O -0.06434 0.55804 0.50081
 O276 O -0.03088 0.56572 0.54618
 O277 O -0.01451 0.57803 0.47231
 O278 O 0.00695 0.58009 0.52453
 O279 O -0.09380 0.51721 0.48494
 O280 O -0.09836 0.46292 0.50484
 O281 O -0.03257 0.50961 0.41046
 O282 O 0.01672 0.48372 0.40383
 O283 O -0.01463 0.42711 0.55888
 O284 O -0.05874 0.45898 0.56805
 O285 O 0.06025 0.49297 0.55549
 O286 O 0.06887 0.53989 0.52485
 O287 O 0.05169 0.42429 0.48582
 O288 O 0.01744 0.41811 0.44221
 Zr289 Zr 0.00542 0.43895 0.48365
 O290 O -0.02244 0.46711 0.45577
 Zr291 Zr 0.04595 0.49908 0.50981
 O292 O 0.02074 0.52963 0.48228
 Zr293 Zr -0.01726 0.47388 0.54621
 O294 O -0.04535 0.50407 0.52089
 Zr295 Zr 0.00300 0.50724 0.44346
 O296 O 0.03197 0.47763 0.46883
 Zr297 Zr -0.06044 0.48280 0.48040
 O298 O -0.03476 0.45122 0.50725
 Zr299 Zr -0.01892 0.54268 0.50584
 O300 O 0.00815 0.51445 0.53483
 O301 O 0.02180 0.45937 0.52360
 O302 O -0.03608 0.52259 0.46598
 C303 C -0.00736 0.40291 0.54430
 C304 C 0.07726 0.43802 0.49389
 C305 C 0.04559 0.48559 0.58011
 C306 C -0.00462 0.57798 0.44464
 C307 C -0.06137 0.50135 0.41118
 C308 C -0.09053 0.54531 0.49329
 H309 H -0.02948 0.45547 0.43766
 H310 H -0.06293 0.50982 0.53377
 H311 H 0.03482 0.44565 0.53623
 H312 H 0.03450 0.54736 0.47671
 H313 H 0.06084 0.50916 0.42835
 H314 H 0.08269 0.52716 0.47139
 H315 H -0.10150 0.47546 0.52318
 H316 H -0.06894 0.44360 0.55457
 H317 H 0.00167 0.46663 0.39996
 H318 H 0.03260 0.43230 0.43202
 H319 H -0.04887 0.55451 0.55538
 H320 H -0.02409 0.51688 0.58507
 H321 H -0.04149 0.40158 0.47696
 H322 H -0.07512 0.43378 0.44990
 H323 H 0.05648 0.54787 0.54179
 H324 H 0.02612 0.58297 0.51242
 O325 O 0.56768 0.97864 0.02136
 O326 O 0.56714 1.03166 0.00772
 O327 O 0.49295 0.97031 0.08646
 O328 O 0.44330 0.96840 0.08760
 O329 O 0.50441 0.90414 0.00898
 O330 O 0.49026 0.90614 -0.04244
 O331 O 0.41021 1.04486 0.00207
 O332 O 0.42896 1.04695 0.05290
 O333 O 0.48219 1.06165 -0.05537
 O334 O 0.53037 1.04203 -0.06579
 O335 O 0.42007 0.98593 -0.06839
 O336 O 0.41517 0.93428 -0.04603
 O337 O 0.39204 1.00172 -0.02162
 O338 O 0.39470 0.94552 -0.00642
 O339 O 0.46184 1.01376 -0.08594
 O340 O 0.51967 1.00120 -0.08511
 O341 O 0.45783 1.07639 -0.01232
 O342 O 0.47233 1.07273 0.04218
 O343 O 0.55282 0.93863 -0.00885
 O344 O 0.52665 0.93450 -0.05855
 O345 O 0.47933 0.91675 0.05238
 O346 O 0.42477 0.93895 0.05552
 O347 O 0.53572 0.99711 0.06977
 O348 O 0.54245 1.04660 0.04455
 Zr349 Zr 0.52795 1.00549 0.02283
 O350 O 0.50038 1.03422 -0.00441
 Zr351 Zr 0.46697 0.96320 0.04597
 O352 O 0.43638 0.99152 0.02122
 Zr353 Zr 0.50503 0.94474 -0.01683
 O354 O 0.47479 0.97029 -0.04457
 Zr355 Zr 0.45597 1.03585 0.01470
 O356 O 0.48435 1.00911 0.04368
 Zr357 Zr 0.49266 1.01547 -0.04798
 O358 O 0.52453 0.98916 -0.02228
 Zr359 Zr 0.43150 0.97418 -0.02318
 O360 O 0.46026 0.94443 0.00235
 O361 O 0.51110 0.96056 0.02769
 O362 O 0.44874 1.01912 -0.02924
 C363 C 0.57303 0.95382 0.00709
 C364 C 0.51913 0.98444 0.09105
 C365 C 0.49312 0.89756 0.03531
 C366 C 0.38902 1.02914 -0.01193
 C367 C 0.46950 1.08184 -0.03886
 C368 C 0.43459 1.00134 -0.08932
 H369 H 0.51085 1.05470 -0.00570
 H370 H 0.47275 0.96058 -0.06479
 H371 H 0.52477 0.94804 0.04088
 H372 H 0.41627 0.99244 0.03186
 H373 H 0.43864 1.03691 0.07089
 H374 H 0.43265 0.98816 0.08594
 H375 H 0.50825 0.98409 -0.09523
 H376 H 0.54199 0.95135 -0.06281
 H377 H 0.49115 1.08193 0.03252
 H378 H 0.52615 1.05132 0.05944
 H379 H 0.43021 0.92989 -0.06223
 H380 H 0.46846 0.90153 -0.03662
 H381 H 0.57156 1.02482 -0.01325
 H382 H 0.54125 1.05151 -0.04816
 H383 H 0.42341 0.92126 0.04156
 H384 H 0.38538 0.95582 0.01114
 O385 O 0.40995 0.51079 0.01449
 O386 O 0.40539 0.45834 -0.00235
 O387 O 0.48229 0.50118 0.08467
 O388 O 0.53074 0.48379 0.08649
 O389 O 0.48921 0.57591 0.01811
 O390 O 0.50374 0.57860 -0.03453
 O391 O 0.55905 0.42556 -0.00030
 O392 O 0.53157 0.41867 0.04834
 O393 O 0.48689 0.42645 -0.06560
 O394 O 0.43722 0.45555 -0.06958
 O395 O 0.55562 0.49188 -0.07085
 O396 O 0.56770 0.54125 -0.04068
 O397 O 0.58310 0.46747 -0.02202
 O398 O 0.59001 0.51843 -0.00757
 O399 O 0.50919 0.47574 -0.09077
 O400 O 0.45703 0.49292 -0.08949
 O401 O 0.50832 0.40262 -0.02432
 O402 O 0.49179 0.39605 0.02318
 O403 O 0.43548 0.55287 -0.00526
 O404 O 0.46230 0.56195 -0.05261
 O405 O 0.50998 0.55132 0.05930
 O406 O 0.55601 0.52128 0.06354
 O407 O 0.43560 0.48692 0.06376
 O408 O 0.42443 0.43888 0.03774
 Zr409 Zr 0.44573 0.47855 0.01761
 O410 O 0.46954 0.44889 -0.01120
 Zr411 Zr 0.51232 0.50521 0.04684
 O412 O 0.53892 0.47755 0.01871
 Zr413 Zr 0.48119 0.54016 -0.01343
 O414 O 0.50557 0.51334 -0.04420
 Zr415 Zr 0.51288 0.43785 0.00768
 O416 O 0.48713 0.46391 0.03874
 Zr417 Zr 0.48053 0.47206 -0.05231
 O418 O 0.45404 0.50089 -0.02476
 Zr419 Zr 0.54733 0.49955 -0.02385
 O420 O 0.52428 0.52914 0.00611
 O421 O 0.47045 0.51884 0.02799
 O422 O 0.52330 0.45881 -0.03438
 C423 C 0.41094 0.53895 0.00516
 C424 C 0.45302 0.49491 0.08646
 C425 C 0.50096 0.57561 0.04525
 C426 C 0.58314 0.43978 -0.01151
 C427 C 0.49788 0.40279 -0.05185
 C428 C 0.53791 0.48370 -0.09341
 H429 H 0.45672 0.43003 -0.01464
 H430 H 0.50903 0.52548 -0.06321
 H431 H 0.45888 0.53244 0.04146
 H432 H 0.55835 0.47270 0.02968
 H433 H 0.51730 0.42345 0.06516
 H434 H 0.54429 0.46734 0.07968
 H435 H 0.46711 0.51332 -0.09324
 H436 H 0.44563 0.54798 -0.06045
 H437 H 0.47065 0.40097 0.02964
 H438 H 0.43828 0.43206 0.05453
 H439 H 0.55665 0.54705 -0.05972
 H440 H 0.52525 0.57935 -0.02641
 H441 H 0.40302 0.46814 -0.02277
 H442 H 0.43154 0.43621 -0.05858
 H443 H 0.56369 0.53735 0.04898
 H444 H 0.59244 0.51134 0.01388
 O445 O -0.10437 0.00824 0.51802
 O446 O -0.10929 -0.04505 0.50936
 O447 O -0.03142 0.00920 0.58968
 O448 O 0.01787 -0.00083 0.59348
 O449 O -0.02791 0.07406 0.50946
 O450 O -0.01205 0.06806 0.45829
 O451 O 0.04526 -0.07679 0.51959
 O452 O 0.01915 -0.07575 0.56664
 O453 O -0.02215 -0.08709 0.45231
 O454 O -0.07483 -0.06153 0.44398
 O455 O 0.04212 -0.01996 0.43747
 O456 O 0.05402 0.03203 0.46150
 O457 O 0.06777 -0.03987 0.48909
 O458 O 0.07618 0.01289 0.49699
 O459 O -0.00351 -0.04026 0.41949
 O460 O -0.05652 -0.02763 0.41799
 O461 O -0.00334 -0.10360 0.49820
 O462 O -0.02282 -0.09937 0.54975
 O463 O -0.07974 0.04572 0.48998
 O464 O -0.05258 0.04736 0.44261
 O465 O -0.00772 0.05840 0.55505
 O466 O 0.04091 0.03072 0.56324
 O467 O -0.07680 -0.01165 0.57155
 O468 O -0.08903 -0.06074 0.54963
 Zr469 Zr -0.06821 -0.02305 0.52570
 O470 O -0.04375 -0.05669 0.50225
 Zr471 Zr -0.00262 0.01056 0.55083
 O472 O 0.02443 -0.02167 0.52845
 Zr473 Zr -0.03390 0.03308 0.48522
 O474 O -0.00845 0.00224 0.45990
 Zr475 Zr -0.00077 -0.06335 0.52399
 O476 O -0.02668 -0.03233 0.54945
 Zr477 Zr -0.03225 -0.04051 0.45819
 O478 O -0.05982 -0.00820 0.48031
 Zr479 Zr 0.03316 -0.00715 0.48304
 O480 O 0.00924 0.02699 0.50678
 O481 O -0.04488 0.01924 0.52973
 O482 O 0.01018 -0.04962 0.47922
 C483 C -0.10385 0.03397 0.50313
 C484 C -0.05959 -0.00063 0.59327
 C485 C -0.01709 0.07933 0.53633
 C486 C 0.06851 -0.06487 0.50503
 C487 C -0.01143 -0.10795 0.47030
 C488 C 0.02478 -0.03101 0.41589
 H489 H -0.05635 -0.07595 0.50132
 H490 H -0.00511 0.01165 0.43943
 H491 H -0.05717 0.03407 0.54114
 H492 H 0.04383 -0.02447 0.54023
 H493 H 0.00729 -0.06544 0.58263
 H494 H 0.03028 -0.01925 0.59043
 H495 H -0.04813 -0.00718 0.41150
 H496 H -0.06920 0.03218 0.43722
 H497 H -0.04243 -0.10550 0.53936
 H498 H -0.07313 -0.06834 0.56411
 H499 H 0.04223 0.03618 0.44245
 H500 H 0.00916 0.07120 0.46675
 H501 H -0.10972 -0.04137 0.48697
 H502 H -0.07799 -0.08100 0.45565
 H503 H 0.04718 0.04499 0.54641
 H504 H 0.07779 0.01005 0.51941
 O505 O 0.75130 0.32059 0.17574
 O506 O 0.70582 0.32741 0.20291
 O507 O 0.82185 0.32811 0.24408
 O508 O 0.83766 0.30419 0.28546
 O509 O 0.82224 0.25498 0.17780
 O510 O 0.79501 0.20802 0.17254
 O511 O 0.74923 0.24654 0.33022
 O512 O 0.76570 0.29663 0.32928
 O513 O 0.67512 0.23946 0.26696
 O514 O 0.66658 0.25159 0.21658
 O515 O 0.74606 0.17268 0.26320
 O516 O 0.79700 0.17219 0.24902
 O517 O 0.76709 0.20223 0.31108
 O518 O 0.81885 0.19799 0.28098
 O519 O 0.70100 0.19061 0.24359
 O520 O 0.69022 0.22033 0.19303
 O521 O 0.69887 0.26262 0.30754
 O522 O 0.72420 0.31539 0.30772
 O523 O 0.76911 0.27726 0.15446
 O524 O 0.75297 0.22309 0.15712
 O525 O 0.84703 0.27737 0.21810
 O526 O 0.84988 0.26009 0.27266
 O527 O 0.77751 0.34817 0.22499
 O528 O 0.72393 0.34617 0.24259
 Zr529 Zr 0.74673 0.30945 0.22215
 O530 O 0.71864 0.28210 0.25152
 Zr531 Zr 0.81180 0.28130 0.25094
 O532 O 0.78665 0.25478 0.28337
 Zr533 Zr 0.77647 0.24745 0.19228
 O534 O 0.75165 0.21748 0.22205
 Zr535 Zr 0.74370 0.27438 0.29194
 O536 O 0.77107 0.30359 0.26353
 Zr537 Zr 0.71007 0.23793 0.23382
 O538 O 0.73380 0.26718 0.20190
 Zr539 Zr 0.77523 0.21203 0.26412
 O540 O 0.80252 0.23786 0.23218
 O541 O 0.78845 0.29020 0.21015
 O542 O 0.73286 0.23052 0.27533
 C543 C 0.75936 0.30487 0.15272
 C544 C 0.80567 0.35077 0.23483
 C545 C 0.84664 0.26596 0.19117
 C546 C 0.75776 0.21883 0.33316
 C547 C 0.67538 0.24965 0.29434
 C548 C 0.71796 0.16880 0.25395
 H549 H 0.69898 0.29251 0.25518
 H550 H 0.74823 0.19772 0.21154
 H551 H 0.80091 0.30361 0.19612
 H552 H 0.79911 0.25289 0.30235
 H553 H 0.77903 0.31345 0.32062
 H554 H 0.82597 0.30111 0.30466
 H555 H 0.70070 0.20104 0.18842
 H556 H 0.73282 0.23300 0.15383
 H557 H 0.70348 0.31764 0.29822
 H558 H 0.73512 0.35068 0.26194
 H559 H 0.79152 0.16998 0.22714
 H560 H 0.81001 0.19977 0.18759
 H561 H 0.69598 0.31074 0.19073
 H562 H 0.66672 0.27428 0.21718
 H563 H 0.85433 0.24151 0.26089
 H564 H 0.82251 0.20751 0.30114
 O565 O 0.77423 0.70389 0.68241
 O566 O 0.82680 0.70124 0.70971
 O567 O 0.71307 0.68314 0.75720
 O568 O 0.70107 0.70310 0.80205
 O569 O 0.69929 0.76278 0.69653
 O570 O 0.72553 0.81399 0.69524
 O571 O 0.78560 0.76513 0.84280
 O572 O 0.76798 0.71291 0.83920
 O573 O 0.85563 0.77514 0.77586
 O574 O 0.85532 0.76325 0.71840
 O575 O 0.78531 0.84046 0.78049
 O576 O 0.72907 0.83939 0.76213
 O577 O 0.76073 0.80776 0.82622
 O578 O 0.71424 0.81794 0.80034
 O579 O 0.82858 0.82369 0.75749
 O580 O 0.83861 0.80512 0.70867
 O581 O 0.83426 0.74968 0.81657
 O582 O 0.81459 0.70010 0.81730
 O583 O 0.75073 0.74758 0.66692
 O584 O 0.76321 0.79979 0.67038
 O585 O 0.68214 0.73207 0.73571
 O586 O 0.68025 0.74605 0.78834
 O587 O 0.75666 0.66902 0.73279
 O588 O 0.80643 0.66831 0.73831
 Zr589 Zr 0.78336 0.70972 0.72966
 O590 O 0.81171 0.73377 0.76119
 Zr591 Zr 0.71990 0.73026 0.76574
 O592 O 0.74524 0.75720 0.79715
 Zr593 Zr 0.74662 0.77221 0.70729
 O594 O 0.77516 0.79962 0.73598
 Zr595 Zr 0.78908 0.73866 0.80314
 O596 O 0.76296 0.70998 0.77354
 Zr597 Zr 0.81797 0.77883 0.74458
 O598 O 0.79138 0.75414 0.71165
 Zr599 Zr 0.75432 0.80169 0.77906
 O600 O 0.72449 0.77603 0.74954
 O601 O 0.73947 0.72710 0.72266
 O602 O 0.79781 0.78345 0.78741
 C603 C 0.76218 0.72135 0.66174
 C604 C 0.73017 0.66309 0.74489
 C605 C 0.67804 0.74661 0.71041
 C606 C 0.77313 0.79111 0.84716
 C607 C 0.85700 0.76346 0.80303
 C608 C 0.81333 0.84430 0.77088
 H609 H 0.83154 0.72320 0.76399
 H610 H 0.77809 0.82023 0.72648
 H611 H 0.72670 0.71402 0.70881
 H612 H 0.73371 0.75758 0.81657
 H613 H 0.75812 0.69440 0.82997
 H614 H 0.70957 0.71128 0.82146
 H615 H 0.82221 0.81770 0.69937
 H616 H 0.78529 0.79482 0.66784
 H617 H 0.80478 0.68206 0.80722
 H618 H 0.81531 0.66985 0.75916
 H619 H 0.74129 0.84950 0.74558
 H620 H 0.70901 0.81710 0.71038
 H621 H 0.82931 0.71559 0.69205
 H622 H 0.86473 0.74600 0.72976
 H623 H 0.67581 0.76657 0.77955
 H624 H 0.70407 0.80017 0.81093
 O625 O 0.30747 0.19361 0.74967
 O626 O 0.31712 0.21945 0.70271
 O627 O 0.31962 0.26993 0.81248
 O628 O 0.29817 0.31376 0.82230
 O629 O 0.24186 0.20523 0.82297
 O630 O 0.19398 0.19846 0.79628
 O631 O 0.24184 0.35126 0.73304
 O632 O 0.29307 0.35021 0.74923
 O633 O 0.23401 0.28000 0.66681
 O634 O 0.24438 0.22670 0.66619
 O635 O 0.16534 0.28468 0.73611
 O636 O 0.16205 0.27331 0.78770
 O637 O 0.19685 0.33343 0.75454
 O638 O 0.18904 0.30626 0.80689
 O639 O 0.18308 0.25981 0.69476
 O640 O 0.20882 0.20880 0.68956
 O641 O 0.25732 0.32326 0.68580
 O642 O 0.31023 0.32617 0.70935
 O643 O 0.26375 0.17600 0.77390
 O644 O 0.20997 0.17732 0.75744
 O645 O 0.26822 0.24738 0.84062
 O646 O 0.25286 0.30150 0.83797
 O647 O 0.33856 0.24357 0.77260
 O648 O 0.34001 0.25870 0.71925
 Zr649 Zr 0.30023 0.24082 0.74207
 O650 O 0.27492 0.26872 0.71157
 Zr651 Zr 0.27301 0.27669 0.80227
 O652 O 0.24777 0.30692 0.77444
 Zr653 Zr 0.23567 0.21490 0.77588
 O654 O 0.20776 0.24248 0.74747
 Zr655 Zr 0.26840 0.31174 0.73128
 O656 O 0.29634 0.28492 0.76066
 Zr657 Zr 0.22977 0.25030 0.70524
 O658 O 0.25648 0.22007 0.73258
 Zr659 Zr 0.20389 0.28669 0.76566
 O660 O 0.22813 0.25754 0.79628
 O661 O 0.27976 0.23335 0.78455
 O662 O 0.22363 0.29402 0.72273
 C663 C 0.29057 0.17214 0.76212
 C664 C 0.34157 0.25668 0.79869
 C665 C 0.25480 0.22092 0.84453
 C666 C 0.21426 0.35503 0.74281
 C667 C 0.24468 0.30776 0.66405
 C668 C 0.16151 0.27264 0.70973
 H669 H 0.28600 0.27058 0.69192
 H670 H 0.18725 0.23198 0.74514
 H671 H 0.29226 0.22009 0.79816
 H672 H 0.24660 0.32690 0.78473
 H673 H 0.31005 0.34215 0.76216
 H674 H 0.29386 0.33233 0.80987
 H675 H 0.19026 0.20425 0.70218
 H676 H 0.21938 0.17292 0.73747
 H677 H 0.31297 0.31362 0.69097
 H678 H 0.34382 0.27974 0.72696
 H679 H 0.15846 0.25116 0.78390
 H680 H 0.18695 0.21503 0.80960
 H681 H 0.29969 0.20665 0.69451
 H682 H 0.26628 0.23292 0.66243
 H683 H 0.23321 0.29054 0.84352
 H684 H 0.20117 0.32563 0.80997
 O685 O 0.19433 0.74327 0.31834
 O686 O 0.21908 0.69639 0.32677
 O687 O 0.27231 0.80786 0.31449
 O688 O 0.31755 0.81005 0.28843
 O689 O 0.20114 0.81610 0.25065
 O690 O 0.18667 0.78890 0.20431
 O691 O 0.33838 0.71977 0.22799
 O692 O 0.34768 0.73933 0.27685
 O693 O 0.26305 0.65627 0.23777
 O694 O 0.21012 0.65957 0.25842
 O695 O 0.26181 0.72389 0.16602
 O696 O 0.25193 0.77794 0.16335
 O697 O 0.31483 0.74105 0.18644
 O698 O 0.29280 0.79369 0.17995
 O699 O 0.23771 0.68325 0.18996
 O700 O 0.19101 0.67920 0.22225
 O701 O 0.31018 0.67406 0.25455
 O702 O 0.32459 0.70066 0.30114
 O703 O 0.17098 0.76515 0.27693
 O704 O 0.16336 0.75265 0.22531
 O705 O 0.24885 0.83371 0.26612
 O706 O 0.29935 0.82869 0.24357
 O707 O 0.24826 0.76725 0.33875
 O708 O 0.26208 0.71374 0.34160
 Zr709 Zr 0.23959 0.73499 0.30406
 O710 O 0.26125 0.70281 0.27663
 Zr711 Zr 0.27515 0.79389 0.26894
 O712 O 0.29896 0.76422 0.24024
 Zr713 Zr 0.20633 0.76833 0.24376
 O714 O 0.22701 0.73771 0.21371
 Zr715 Zr 0.30421 0.72122 0.26183
 O716 O 0.28404 0.75227 0.29229
 Zr717 Zr 0.23550 0.69571 0.23624
 O718 O 0.21162 0.72516 0.26547
 Zr719 Zr 0.27136 0.75478 0.20150
 O720 O 0.24902 0.78730 0.22858
 O721 O 0.23172 0.77725 0.28314
 O722 O 0.27902 0.71196 0.22184
 C723 C 0.17061 0.75407 0.30438
 C724 C 0.26063 0.79449 0.33829
 C725 C 0.22040 0.83785 0.25869
 C726 C 0.33791 0.72838 0.19981
 C727 C 0.29149 0.65234 0.24572
 C728 C 0.24831 0.69726 0.16596
 H729 H 0.26339 0.68348 0.28847
 H730 H 0.21332 0.73497 0.19566
 H731 H 0.22052 0.79129 0.29647
 H732 H 0.31936 0.77363 0.23478
 H733 H 0.34354 0.75303 0.29413
 H734 H 0.33458 0.80086 0.27700
 H735 H 0.18396 0.69242 0.20511
 H736 H 0.16038 0.73109 0.23243
 H737 H 0.30907 0.68641 0.31061
 H738 H 0.28351 0.72256 0.34232
 H739 H 0.22985 0.77128 0.16184
 H740 H 0.20295 0.80275 0.19540
 H741 H 0.20346 0.68752 0.31245
 H742 H 0.22210 0.65317 0.27670
 H743 H 0.28729 0.83224 0.22455
 H744 H 0.31330 0.79742 0.18976
 O745 O 0.26219 0.80372 0.67882
 O746 O 0.21518 0.81224 0.70266
 O747 O 0.32894 0.81502 0.75020
 O748 O 0.33826 0.79067 0.79780
 O749 O 0.33241 0.73844 0.68903
 O750 O 0.30669 0.69123 0.68489
 O751 O 0.24860 0.73704 0.83619
 O752 O 0.26256 0.78815 0.83454
 O753 O 0.18009 0.72613 0.76701
 O754 O 0.17535 0.73760 0.71629
 O755 O 0.24866 0.66078 0.77427
 O756 O 0.30102 0.65825 0.76223
 O757 O 0.27033 0.69282 0.82147
 O758 O 0.32195 0.68507 0.79358
 O759 O 0.20682 0.67784 0.74785
 O760 O 0.20097 0.70557 0.69563
 O761 O 0.19960 0.75352 0.80693
 O762 O 0.22905 0.80623 0.80823
 O763 O 0.28203 0.75935 0.66152
 O764 O 0.26532 0.70497 0.66585
 O765 O 0.35520 0.76374 0.72869
 O766 O 0.35612 0.74983 0.78321
 O767 O 0.28531 0.83386 0.72825
 O768 O 0.23061 0.83293 0.74205
 Zr769 Zr 0.25471 0.79512 0.72533
 O770 O 0.22449 0.76924 0.75380
 Zr771 Zr 0.31782 0.76846 0.75965
 O772 O 0.29013 0.74323 0.79139
 Zr773 Zr 0.28627 0.73137 0.70107
 O774 O 0.25930 0.70283 0.73018
 Zr775 Zr 0.24656 0.76318 0.79612
 O776 O 0.27618 0.79113 0.76842
 Zr777 Zr 0.21734 0.72438 0.73730
 O778 O 0.24331 0.75200 0.70606
 Zr779 Zr 0.27953 0.69938 0.77411
 O780 O 0.30937 0.72381 0.74310
 O781 O 0.29701 0.77515 0.71724
 O782 O 0.23655 0.71867 0.78096
 C783 C 0.27207 0.78665 0.65763
 C784 C 0.31303 0.83715 0.73905
 C785 C 0.35596 0.75114 0.70222
 C786 C 0.25875 0.71025 0.84178
 C787 C 0.17745 0.73903 0.79286
 C788 C 0.22171 0.65666 0.76193
 H789 H 0.20474 0.78001 0.75560
 H790 H 0.25646 0.68258 0.72047
 H791 H 0.31027 0.78790 0.70334
 H792 H 0.30139 0.74222 0.81114
 H793 H 0.28487 0.78403 0.83710
 H794 H 0.32248 0.80450 0.80571
 H795 H 0.21111 0.68571 0.69291
 H796 H 0.24621 0.71546 0.65945
 H797 H 0.20850 0.80834 0.79830
 H798 H 0.24085 0.83898 0.76148
 H799 H 0.29639 0.65480 0.74034
 H800 H 0.31982 0.68340 0.70180
 H801 H 0.20608 0.79503 0.69070
 H802 H 0.17491 0.76026 0.71712
 H803 H 0.35934 0.72933 0.77450
 H804 H 0.32654 0.69791 0.81162
 O805 O 0.27235 0.18008 0.18744
 O806 O 0.31998 0.17811 0.21725
 O807 O 0.20534 0.16994 0.26103
 O808 O 0.19437 0.19671 0.30349
 O809 O 0.19302 0.24124 0.19039
 O810 O 0.21956 0.28856 0.17835
 O811 O 0.27383 0.26597 0.33535
 O812 O 0.26105 0.21163 0.33865
 O813 O 0.34723 0.26727 0.26795
 O814 O 0.35012 0.24728 0.21551
 O815 O 0.27602 0.33165 0.25978
 O816 O 0.21964 0.32591 0.24270
 O817 O 0.25517 0.30767 0.31010
 O818 O 0.20547 0.31060 0.28397
 O819 O 0.31962 0.31206 0.23996
 O820 O 0.32960 0.28215 0.19487
 O821 O 0.32552 0.25085 0.31274
 O822 O 0.30942 0.20208 0.32262
 O823 O 0.24562 0.21859 0.16477
 O824 O 0.25841 0.27121 0.15940
 O825 O 0.17434 0.21727 0.23325
 O826 O 0.17249 0.23640 0.28353
 O827 O 0.24862 0.15294 0.23818
 O828 O 0.30092 0.15622 0.25448
 Zr829 Zr 0.27689 0.19276 0.23357
 O830 O 0.30437 0.22301 0.26021
 Zr831 Zr 0.21244 0.21832 0.26352
 O832 O 0.23704 0.25098 0.29041
 Zr833 Zr 0.24040 0.25039 0.19975
 O834 O 0.26738 0.28327 0.22372
 Zr835 Zr 0.28117 0.23453 0.30031
 O836 O 0.25561 0.20032 0.27599
 Zr837 Zr 0.31028 0.26485 0.23625
 O838 O 0.28504 0.23362 0.20836
 Zr839 Zr 0.24606 0.29222 0.26552
 O840 O 0.21740 0.26109 0.24018
 O841 O 0.23299 0.20835 0.22216
 O842 O 0.28960 0.27629 0.27737
 C843 C 0.25995 0.19321 0.16402
 C844 C 0.22203 0.14834 0.25062
 C845 C 0.17090 0.22890 0.20634
 C846 C 0.26484 0.29379 0.33429
 C847 C 0.34828 0.26162 0.29681
 C848 C 0.30366 0.33461 0.24886
 H849 H 0.32438 0.21349 0.26516
 H850 H 0.26982 0.30196 0.21076
 H851 H 0.22041 0.19357 0.20988
 H852 H 0.22521 0.25443 0.30926
 H853 H 0.25398 0.19093 0.33191
 H854 H 0.20411 0.20710 0.32123
 H855 H 0.31473 0.29655 0.18567
 H856 H 0.28026 0.26505 0.15803
 H857 H 0.30881 0.18364 0.30978
 H858 H 0.29085 0.15168 0.27437
 H859 H 0.23154 0.33333 0.22466
 H860 H 0.20488 0.29673 0.19327
 H861 H 0.32653 0.19287 0.20094
 H862 H 0.35713 0.22973 0.22816
 H863 H 0.16988 0.25705 0.27424
 H864 H 0.19798 0.29637 0.30032
 O865 O 0.72557 0.70694 0.32382
 O866 O 0.67962 0.70327 0.29468
 O867 O 0.79478 0.69520 0.25451
 O868 O 0.80806 0.72159 0.20875
 O869 O 0.80777 0.76688 0.32082
 O870 O 0.78575 0.81461 0.32927
 O871 O 0.72913 0.78842 0.17177
 O872 O 0.73842 0.73531 0.16857
 O873 O 0.65836 0.79266 0.23747
 O874 O 0.65230 0.78131 0.28857
 O875 O 0.73913 0.85627 0.24043
 O876 O 0.79121 0.85155 0.25689
 O877 O 0.75599 0.82866 0.19274
 O878 O 0.80788 0.82774 0.22187
 O879 O 0.69182 0.84002 0.25779
 O880 O 0.68016 0.81202 0.30970
 O881 O 0.67712 0.76830 0.19626
 O882 O 0.70151 0.71698 0.18994
 O883 O 0.75371 0.74596 0.34551
 O884 O 0.74282 0.80040 0.34563
 O885 O 0.82725 0.74259 0.27983
 O886 O 0.83204 0.75889 0.22730
 O887 O 0.74902 0.67835 0.27517
 O888 O 0.69640 0.68351 0.25576
 Zr889 Zr 0.72303 0.71873 0.27724
 O890 O 0.69819 0.74895 0.24896
 Zr891 Zr 0.79037 0.74267 0.24792
 O892 O 0.76842 0.77304 0.21734
 Zr893 Zr 0.76209 0.77700 0.30861
 O894 O 0.74005 0.80979 0.28070
 Zr895 Zr 0.72282 0.75713 0.20830
 O896 O 0.74641 0.72443 0.23539
 Zr897 Zr 0.69574 0.79267 0.26864
 O898 O 0.71663 0.76087 0.29915
 Zr899 Zr 0.76325 0.81534 0.23875
 O900 O 0.78789 0.78588 0.26851
 O901 O 0.76747 0.73431 0.28903
 O902 O 0.71817 0.80053 0.22711
 C903 C 0.73816 0.72030 0.34696
 C904 C 0.77632 0.67384 0.26478
 C905 C 0.82985 0.75426 0.30656
 C906 C 0.74242 0.81513 0.17014
 C907 C 0.65526 0.78101 0.21080
 C908 C 0.71110 0.86107 0.24797
 H909 H 0.67739 0.73943 0.24541
 H910 H 0.73925 0.82934 0.29181
 H911 H 0.77851 0.71982 0.30265
 H912 H 0.78068 0.77528 0.19840
 H913 H 0.76081 0.74036 0.16645
 H914 H 0.79041 0.71015 0.19921
 H915 H 0.69251 0.83114 0.31335
 H916 H 0.72123 0.79235 0.34790
 H917 H 0.68215 0.71259 0.20141
 H918 H 0.70721 0.67867 0.23661
 H919 H 0.78311 0.85607 0.27739
 H920 H 0.80096 0.82271 0.31411
 H921 H 0.67232 0.71975 0.30795
 H922 H 0.64778 0.75939 0.28429
 H923 H 0.83719 0.77910 0.23639
 H924 H 0.81058 0.81753 0.20205
 O925 O 0.75633 0.31381 0.79446
 O926 O 0.80523 0.31737 0.76691
 O927 O 0.68962 0.31713 0.72274
 O928 O 0.67849 0.29183 0.67982
 O929 O 0.68042 0.24811 0.79306
 O930 O 0.70626 0.20057 0.80357
 O931 O 0.75928 0.22644 0.64726
 O932 O 0.74552 0.28016 0.64352
 O933 O 0.83350 0.23031 0.71494
 O934 O 0.83737 0.24700 0.76613
 O935 O 0.75960 0.16208 0.71995
 O936 O 0.70637 0.16232 0.73825
 O937 O 0.73524 0.18588 0.67146
 O938 O 0.68734 0.18095 0.70114
 O939 O 0.80455 0.18263 0.73928
 O940 O 0.81416 0.21297 0.78784
 O941 O 0.81180 0.24766 0.67070
 O942 O 0.79262 0.29392 0.65901
 O943 O 0.73305 0.27213 0.81777
 O944 O 0.74619 0.22004 0.82282
 O945 O 0.66054 0.26889 0.74934
 O946 O 0.65833 0.24921 0.69803
 O947 O 0.73352 0.33786 0.74411
 O948 O 0.78638 0.33746 0.72721
 Zr949 Zr 0.76261 0.30009 0.74896
 O950 O 0.78987 0.27138 0.72253
 Zr951 Zr 0.69786 0.27028 0.71893
 O952 O 0.72210 0.24018 0.69154
 Zr953 Zr 0.72717 0.24008 0.78281
 O954 O 0.75316 0.20886 0.75822
 Zr955 Zr 0.76640 0.25896 0.68206
 O956 O 0.74074 0.29125 0.70654
 Zr957 Zr 0.79603 0.22939 0.74570
 O958 O 0.77161 0.25950 0.77385
 Zr959 Zr 0.73046 0.19965 0.71660
 O960 O 0.70272 0.22829 0.74274
 O961 O 0.71921 0.28137 0.76017
 O962 O 0.77434 0.21733 0.70451
 C963 C 0.74469 0.29955 0.81782
 C964 C 0.70588 0.33983 0.73325
 C965 C 0.65796 0.25876 0.77691
 C966 C 0.74594 0.19963 0.64753
 C967 C 0.83488 0.23790 0.68648
 C968 C 0.78761 0.15996 0.72960
 H969 H 0.80991 0.28211 0.71814
 H970 H 0.75578 0.19003 0.77076
 H971 H 0.70669 0.29527 0.77245
 H972 H 0.70980 0.23652 0.67271
 H973 H 0.73740 0.29996 0.65035
 H974 H 0.68813 0.28290 0.66168
 H975 H 0.80176 0.19449 0.79411
 H976 H 0.76821 0.22710 0.82373
 H977 H 0.79869 0.30935 0.67442
 H978 H 0.77575 0.34102 0.70737
 H979 H 0.71715 0.15768 0.75776
 H980 H 0.69063 0.19246 0.78882
 H981 H 0.81131 0.30307 0.78358
 H982 H 0.84119 0.26795 0.75767
 H983 H 0.65339 0.23015 0.70985
 H984 H 0.68066 0.19329 0.68321
 C985 C 0.06446 1.00498 1.20415
 C986 C 0.08357 1.00610 1.17822
 N987 N 0.11444 1.00316 1.18137
 C988 C 0.12736 0.99889 1.20923
 C989 C 0.10874 0.99697 1.23577
 N990 N 0.07736 1.00031 1.23260
 N991 N 0.03333 1.00803 1.20011
 C992 C 0.02068 1.01164 1.17149
 C993 C 0.04001 1.01182 1.14558
 N994 N 0.07099 1.00919 1.14997
 H995 H 0.15223 0.99636 1.21065
 H996 H -0.00420 1.01332 1.16895
 C997 C 0.57923 0.50193 0.69380
 C998 C 0.59858 0.50563 0.66811
 N999 N 0.62938 0.51011 0.67203
 C1000 C 0.64200 0.51081 0.70035
 C1001 C 0.62321 0.50636 0.72665
 N1002 N 0.59191 0.50204 0.72265
 N1003 N 0.54816 0.49795 0.68923
 C1004 C 0.53581 0.49750 0.66038
 C1005 C 0.55544 0.50068 0.63475
 N1006 N 0.58639 0.50466 0.63948
 H1007 H 0.66694 0.51356 0.70229
 H1008 H 0.51097 0.49436 0.65747
 C1009 C 0.40746 -0.01042 0.66800
 C1010 C 0.42221 0.01709 0.65834
 N1011 N 0.42097 0.04224 0.67629
 C1012 C 0.40531 0.04120 0.70329
 C1013 C 0.38961 0.01378 0.71276
 N1014 N 0.39150 -0.01127 0.69454
 N1015 N 0.40853 -0.03571 0.65033
 C1016 C 0.42346 -0.03465 0.62309
 C1017 C 0.43767 -0.00702 0.61293
 N1018 N 0.43679 0.01834 0.63081
 H1019 H 0.40456 0.06165 0.71697
 H1020 H 0.42362 -0.05497 0.60913
 C1021 C -0.10774 0.52195 1.16227
 C1022 C -0.07800 0.50986 1.16310
 N1023 N -0.06521 0.50188 1.19047
 C1024 C -0.08069 0.50581 1.21710
 C1025 C -0.11030 0.51891 1.21647
 N1026 N -0.12309 0.52590 1.18870
 N1027 N -0.12096 0.52948 1.13507
 C1028 C -0.10566 0.52567 1.10847
 C1029 C -0.07563 0.51379 1.10903
 N1030 N -0.06254 0.50608 1.13650
 H1031 H -0.07022 0.49810 1.23829
 H1032 H -0.11683 0.53208 1.08716
 C1033 C -0.11058 0.50580 0.32735
 C1034 C -0.08241 0.52220 0.33114
 N1035 N -0.07064 0.53918 0.30740
 C1036 C -0.08548 0.53997 0.27980
 C1037 C -0.11294 0.52211 0.27528
 N1038 N -0.12504 0.50616 0.29974
 N1039 N -0.12286 0.48939 0.35117
 C1040 C -0.10799 0.48828 0.37867
 C1041 C -0.07923 0.50394 0.38242
 N1042 N -0.06722 0.52070 0.35845
 H1043 H -0.07566 0.55393 0.26142
 H1044 H -0.11818 0.47469 0.39714
 C1045 C 0.38753 1.00700 -0.17437
 C1046 C 0.41990 1.01082 -0.17304
 N1047 N 0.43595 1.01491 -0.19946
 C1048 C 0.42113 1.01548 -0.22714
 C1049 C 0.38842 1.01197 -0.22861
 N1050 N 0.37279 1.00767 -0.20181
 N1051 N 0.37127 1.00232 -0.14826
 C1052 C 0.38593 1.00099 -0.12072
 C1053 C 0.41846 1.00458 -0.11907
 N1054 N 0.43473 1.00963 -0.14542
 H1055 H 0.43497 1.01844 -0.24748
 H1056 H 0.37226 0.99708 -0.10030
 C1057 C 0.57759 0.48953 -0.18209
 C1058 C 0.59603 0.48989 -0.15537
 N1059 N 0.62711 0.49327 -0.15752
 C1060 C 0.64082 0.49664 -0.18507
 C1061 C 0.62280 0.49713 -0.21230
 N1062 N 0.59128 0.49338 -0.21012
 N1063 N 0.54629 0.48598 -0.17930
 C1064 C 0.53280 0.48312 -0.15120
 C1065 C 0.55138 0.48431 -0.12447
 N1066 N 0.58260 0.48756 -0.12750
 H1067 H 0.66576 0.49994 -0.18569
 H1068 H 0.50780 0.48067 -0.14975
 C1069 C 0.06349 -0.02344 0.32696
 C1070 C 0.08226 -0.02446 0.35342
 N1071 N 0.11337 -0.02142 0.35098
 C1072 C 0.12676 -0.01704 0.32338
 C1073 C 0.10838 -0.01478 0.29650
 N1074 N 0.07685 -0.01838 0.29891
 N1075 N 0.03221 -0.02711 0.33003
 C1076 C 0.01905 -0.03122 0.35818
 C1077 C 0.03794 -0.03111 0.38471
 N1078 N 0.06915 -0.02783 0.38138
 H1079 H 0.15181 -0.01477 0.32233
 H1080 H -0.00595 -0.03340 0.35991
 C1081 C 0.15938 1.10472 1.01423
 C1082 C 0.16162 1.07391 1.02397
 N1083 N 0.19022 1.06146 1.02717
 C1084 C 0.21691 1.07777 1.01998
 C1085 C 0.21332 1.10870 1.00857
 N1086 N 0.18506 1.12117 1.00629
 N1087 N 0.13152 1.11809 1.01323
 C1088 C 0.10537 1.10206 1.02091
 C1089 C 0.10684 1.07079 1.02934
 N1090 N 0.13514 1.05743 1.03107
 H1091 H 0.24163 1.06874 1.03575
 H1092 H 0.08344 1.11350 1.01937
 C1093 C 0.67339 0.60429 0.52094
 C1094 C 0.67487 0.57338 0.51250
 N1095 N 0.70195 0.56293 0.50073
 C1096 C 0.72815 0.58147 0.49741
 C1097 C 0.72527 0.61303 0.50608
 N1098 N 0.69854 0.62315 0.51787
 N1099 N 0.64641 0.61552 0.53096
 C1100 C 0.62023 0.59763 0.53227
 C1101 C 0.62087 0.56691 0.52319
 N1102 N 0.64837 0.55526 0.51373
 H1103 H 0.74735 0.57169 0.47593
 H1104 H 0.59891 0.60746 0.53992
 C1105 C 0.66578 0.38932 -0.01044
 C1106 C 0.66776 0.42115 -0.01602
 N1107 N 0.69620 0.43485 -0.02220
 C1108 C 0.72315 0.41860 -0.02263
 C1109 C 0.71955 0.38596 -0.01736
 N1110 N 0.69152 0.37266 -0.01110
 N1111 N 0.63797 0.37513 -0.00521
 C1112 C 0.61150 0.39102 -0.00555
 C1113 C 0.61259 0.42282 -0.01164
 N1114 N 0.64091 0.43729 -0.01673
 H1115 H 0.74578 0.43233 -0.03943
 H1116 H 0.58975 0.37869 -0.00134
 C1117 C 0.15460 -0.10794 0.51440
 C1118 C 0.14985 -0.08634 0.49089
 N1119 N 0.17320 -0.07938 0.47110
 C1120 C 0.20097 -0.09335 0.47358
 C1121 C 0.20592 -0.11529 0.49716
 N1122 N 0.18235 -0.12148 0.51707
 N1123 N 0.13122 -0.11558 0.53386
 C1124 C 0.10315 -0.10251 0.53093
 C1125 C 0.09827 -0.08048 0.50763
 N1126 N 0.12192 -0.07285 0.48816
 H1127 H 0.21908 -0.08720 0.45746
 H1128 H 0.08502 -0.10892 0.54698
 C1129 C 0.31944 -0.10607 0.49647
 C1130 C 0.31903 -0.07581 0.50694
 N1131 N 0.29143 -0.06363 0.51424
 C1132 C 0.26431 -0.08036 0.51145
 C1133 C 0.26467 -0.11061 0.50016
 N1134 N 0.29260 -0.12246 0.49341
 N1135 N 0.34669 -0.11898 0.49007
 C1136 C 0.37380 -0.10288 0.49321
 C1137 C 0.37380 -0.07215 0.50295
 N1138 N 0.34623 -0.05930 0.50975
 H1139 H 0.24295 -0.07034 0.51859
 H1140 H 0.39509 -0.11399 0.48756
 C1141 C -0.17450 0.40167 1.00019
 C1142 C -0.17845 0.43290 0.99318
 N1143 N -0.20699 0.44220 0.98296
 C1144 C -0.23198 0.42198 0.97943
 C1145 C -0.22577 0.39004 0.98485
 N1146 N -0.19796 0.38125 0.99581
 N1147 N -0.14682 0.39169 1.01019
 C1148 C -0.12199 0.41111 1.01233
 C1149 C -0.12447 0.44203 1.00325
 N1150 N -0.15298 0.45261 0.99439
 H1151 H -0.10007 0.40210 1.02003
 C1152 C -0.16692 0.60376 0.50084
 C1153 C -0.17270 0.57265 0.49419
 N1154 N -0.20273 0.56238 0.48937
 C1155 C -0.22760 0.58133 0.49171
 C1156 C -0.22027 0.61299 0.49853
 N1157 N -0.19064 0.62289 0.50321
 N1158 N -0.13756 0.61474 0.50463
 C1159 C -0.11316 0.59629 0.50193
 C1160 C -0.11806 0.56502 0.49512
 N1161 N -0.14797 0.55379 0.49134
 H1162 H -0.09008 0.60623 0.50514
 C1163 C 0.31340 1.08615 -0.02204
 C1164 C 0.30920 1.05787 -0.00636
 N1165 N 0.28264 1.05218 0.00986
 C1166 C 0.25985 1.07332 0.01167
 C1167 C 0.26627 1.10282 -0.00267
 N1168 N 0.29197 1.10788 -0.01980
 N1169 N 0.34004 1.09254 -0.03730
 C1170 C 0.36355 1.07266 -0.03651
 C1171 C 0.36063 1.04544 -0.01911
 N1172 N 0.33329 1.03827 -0.00473
 H1173 H 0.38512 1.07890 -0.04788
 C1174 C -0.00863 1.17573 1.10129
 C1175 C 0.01078 1.16968 1.07674
 N1176 N 0.03044 1.19221 1.06593
 C1177 C 0.03140 1.22063 1.07854
 C1178 C 0.01130 1.22712 1.10274
 N1179 N -0.00781 1.20399 1.11360
 N1180 N -0.02768 1.15316 1.11282
 C1181 C -0.02827 1.12459 1.10081
 C1182 C -0.00905 1.11838 1.07599
 N1183 N 0.01005 1.14121 1.06452
 H1184 H 0.04769 1.23799 1.06991
 H1185 H -0.04375 1.10703 1.11043
 C1186 C 0.50119 0.66943 0.60358
 C1187 C 0.52046 0.66462 0.57862
 N1188 N 0.53903 0.68799 0.56785
 C1189 C 0.53893 0.71621 0.58075
 C1190 C 0.51875 0.72166 0.60517
 N1191 N 0.50082 0.69763 0.61619
 N1192 N 0.48310 0.64585 0.61480
 C1193 C 0.48325 0.61759 0.60194
 C1194 C 0.50211 0.61283 0.57648
 N1195 N 0.52034 0.63659 0.56557
 H1196 H 0.55420 0.73435 0.57190
 H1197 H 0.46846 0.59925 0.61118
 C1198 C 0.01089 0.66320 0.39862
 C1199 C -0.00988 0.66082 0.42311
 N1200 N -0.02578 0.68587 0.43114
 C1201 C -0.02187 0.71315 0.41579
 C1202 C -0.00047 0.71595 0.39150
 N1203 N 0.01501 0.69042 0.38355
 N1204 N 0.02568 0.63796 0.38942
 C1205 C 0.02068 0.61033 0.40361
 C1206 C 0.00008 0.60773 0.42841
 N1207 N -0.01463 0.63325 0.43769
 H1208 H -0.03621 0.73208 0.42175
 H1209 H 0.03303 0.59067 0.39581
 C1210 C 0.47906 1.17271 -0.07358
 C1211 C 0.49299 1.14795 -0.08761
 N1212 N 0.51119 1.15286 -0.11228
 C1213 C 0.51650 1.18157 -0.12361
 C1214 C 0.50337 1.20707 -0.10940
 N1215 N 0.48414 1.20168 -0.08505
 N1216 N 0.46086 1.16726 -0.04869
 C1217 C 0.45636 1.13818 -0.03709
 C1218 C 0.47062 1.11346 -0.05119
 N1219 N 0.48842 1.11922 -0.07620
 H1220 H 0.53043 1.18426 -0.14397
 H1221 H 0.44218 1.13449 -0.01698
 C1222 C 0.50130 0.32089 -0.10179
 C1223 C 0.50508 0.32010 -0.07001
 N1224 N 0.50973 0.29269 -0.05555
 C1225 C 0.51027 0.26596 -0.07148
 C1226 C 0.50570 0.26668 -0.10348
 N1227 N 0.50211 0.29454 -0.11749
 N1228 N 0.49647 0.34788 -0.11662
 C1229 C 0.49510 0.37444 -0.10101
 C1230 C 0.49896 0.37406 -0.06906
 N1231 N 0.50404 0.34676 -0.05425
 H1232 H 0.51480 0.24478 -0.05929
 H1233 H 0.49131 0.39565 -0.11354
 C1234 C 0.00071 -0.19491 0.43117
 C1235 C -0.00189 -0.16823 0.41302
 N1236 N -0.00093 -0.17005 0.38223
 C1237 C 0.00169 -0.19751 0.36856
 C1238 C 0.00264 -0.22485 0.38638
 N1239 N 0.00281 -0.22265 0.41751
 N1240 N -0.00008 -0.19268 0.46213
 C1241 C -0.00365 -0.16500 0.47563
 C1242 C -0.00715 -0.13844 0.45729
 N1243 N -0.00595 -0.14087 0.42641
 H1244 H 0.00151 -0.19823 0.34384
 H1245 H -0.00426 -0.16385 0.50032
 C1246 C 0.50699 -0.16611 0.59548
 C1247 C 0.49848 -0.16852 0.56459
 N1248 N 0.49579 -0.19678 0.55193
 C1249 C 0.50176 -0.22266 0.56864
 C1250 C 0.51152 -0.22013 0.59948
 N1251 N 0.51311 -0.19168 0.61193
 N1252 N 0.50951 -0.13824 0.60860
 C1253 C 0.50441 -0.11234 0.59206
 C1254 C 0.49661 -0.11432 0.56079
 N1255 N 0.49349 -0.14254 0.54778
 H1256 H 0.49855 -0.24470 0.55790
 H1257 H 0.50682 -0.09040 0.60328
 C1258 C 0.00495 0.34043 1.09819
 C1259 C -0.00425 0.33980 1.06741
 N1260 N -0.00703 0.31238 1.05307
 C1261 C -0.00096 0.28555 1.06813
 C1262 C 0.00888 0.28618 1.09904
 N1263 N 0.01118 0.31390 1.11303
 N1264 N 0.00720 0.36748 1.11299
 C1265 C 0.00110 0.39424 1.09824
 C1266 C -0.00748 0.39403 1.06710
 N1267 N -0.01011 0.36663 1.05242
 H1268 H -0.00467 0.26421 1.05622
 H1269 H 0.00352 0.41549 1.11067
 C1270 C 0.75210 0.34983 0.06702
 C1271 C 0.75167 0.31767 0.06874
 N1272 N 0.74815 0.30134 0.04262
 C1273 C 0.74578 0.31576 0.01481
 C1274 C 0.74764 0.34816 0.01295
 N1275 N 0.75009 0.36406 0.03949
 N1276 N 0.75508 0.36649 0.09280
 C1277 C 0.75766 0.35242 0.12050
 C1278 C 0.75753 0.32014 0.12257
 N1279 N 0.75452 0.30342 0.09650
 H1280 H 0.74263 0.30200 -0.00539
 H1281 H 0.76001 0.36640 0.14070
 C1282 C 0.26695 0.83365 0.57394
 C1283 C 0.24325 0.81274 0.58269
 N1284 N 0.21746 0.80955 0.56491
 C1285 C 0.21422 0.82649 0.53875
 C1286 C 0.23783 0.84800 0.52986
 N1287 N 0.26359 0.85062 0.54810
 N1288 N 0.29281 0.83701 0.59159
 C1289 C 0.29586 0.82055 0.61800
 C1290 C 0.27195 0.79997 0.62704
 N1291 N 0.24610 0.79653 0.60923
 H1292 H 0.19385 0.82254 0.52458
 H1293 H 0.31623 0.82418 0.63228
 C1294 C 0.75609 0.68867 0.57119
 C1295 C 0.76357 0.66900 0.59577
 N1296 N 0.76787 0.63886 0.59066
 C1297 C 0.76515 0.62741 0.56208
 C1298 C 0.75813 0.64702 0.53704
 N1299 N 0.75351 0.67730 0.54246
 N1300 N 0.75106 0.71871 0.57658
 C1301 C 0.75307 0.72994 0.60542
 C1302 C 0.76059 0.71025 0.63009
 N1303 N 0.76575 0.68020 0.62449
 H1304 H 0.76823 0.60310 0.55887
 H1305 H 0.74884 0.75399 0.60899
 C1306 C 0.26612 0.15136 0.07792
 C1307 C 0.24909 0.17797 0.08145
 N1308 N 0.23304 0.18952 0.05729
 C1309 C 0.23266 0.17525 0.02984
 C1310 C 0.24919 0.14808 0.02624
 N1311 N 0.26559 0.13706 0.05065
 N1312 N 0.28113 0.13902 0.10234
 C1313 C 0.27970 0.15199 0.13035
 C1314 C 0.26226 0.17845 0.13414
 N1315 N 0.24761 0.19092 0.10938
 H1316 H 0.21815 0.18402 0.01160
 H1317 H 0.29191 0.14162 0.14941
 C1318 C 0.25347 0.18311 0.93438
 C1319 C 0.23891 0.16753 0.91007
 N1320 N 0.22465 0.13982 0.91536
 C1321 C 0.22429 0.12692 0.94385
 C1322 C 0.23865 0.14250 0.96854
 N1323 N 0.25323 0.17021 0.96286
 N1324 N 0.26818 0.21060 0.92898
 C1325 C 0.26900 0.22326 0.90037
 C1326 C 0.25451 0.20768 0.87584
 N1327 N 0.23975 0.18009 0.88145
 H1328 H 0.21348 0.10437 0.94710
 H1329 H 0.28091 0.24525 0.89688
 C1330 C 0.73045 0.67116 0.43084
 C1331 C 0.75372 0.69406 0.42692
 N1332 N 0.77519 0.69860 0.44943
 C1333 C 0.77474 0.68095 0.47541
 C1334 C 0.75172 0.65751 0.47923
 N1335 N 0.73007 0.65352 0.45664
 N1336 N 0.70958 0.66572 0.40808
 C1337 C 0.71117 0.68182 0.38129
 C1338 C 0.73481 0.70443 0.37687
 N1339 N 0.75539 0.71025 0.40007
 H1340 H 0.79277 0.68445 0.49247
 H1341 H 0.69429 0.67672 0.36347
 C1342 C 0.24926 0.84560 0.41819
 C1343 C 0.24895 0.81345 0.41942
 N1344 N 0.24430 0.79865 0.44651
 C1345 C 0.23981 0.81448 0.47255
 C1346 C 0.23919 0.84703 0.47154
 N1347 N 0.24417 0.86142 0.44399
 N1348 N 0.25503 0.86053 0.39130
 C1349 C 0.26020 0.84464 0.36542
 C1350 C 0.25904 0.81229 0.36641
 N1351 N 0.25342 0.79751 0.39353
 H1352 H 0.23746 0.80133 0.49346
 H1353 H 0.26413 0.85714 0.34415
 C1354 C 0.73499 0.34285 0.90202
 C1355 C 0.75867 0.32193 0.89788
 N1356 N 0.77820 0.31549 0.92147
 C1357 C 0.77507 0.32899 0.94908
 C1358 C 0.75070 0.34928 0.95369
 N1359 N 0.73151 0.35578 0.92966
 N1360 N 0.71615 0.35030 0.87820
 C1361 C 0.71975 0.33749 0.85038
 C1362 C 0.74292 0.31603 0.84641
 N1363 N 0.76185 0.30860 0.87028
 H1364 H 0.79147 0.32406 0.96723
 H1365 H 0.70419 0.34336 0.83177
 C1366 C 0.84962 0.43807 0.24520
 C1367 C 0.81881 0.43608 0.23493
 N1368 N 0.80359 0.46249 0.22882
 C1369 C 0.81787 0.49069 0.23257
 C1370 C 0.84882 0.49260 0.24342
 N1371 N 0.86356 0.46585 0.24904
 N1372 N 0.86558 0.41227 0.25058
 C1373 C 0.85206 0.38420 0.24648
 C1374 C 0.82089 0.38161 0.23667
 N1375 N 0.80490 0.40781 0.23100
 H1376 H 0.80548 0.51105 0.22621
 H1377 H 0.86559 0.36413 0.25126
 C1378 C 0.35501 0.92631 0.74315
 C1379 C 0.32302 0.92273 0.73814
 N1380 N 0.30557 0.94818 0.73555
 C1381 C 0.31872 0.97705 0.73730
 C1382 C 0.35114 0.98082 0.74160
 N1383 N 0.36808 0.95492 0.74472
 N1384 N 0.37267 0.90118 0.74603
 C1385 C 0.35979 0.87241 0.74428
 C1386 C 0.32764 0.86841 0.73923
 N1387 N 0.30997 0.89388 0.73624
 H1388 H 0.30393 0.99654 0.73506
 H1389 H 0.37457 0.85286 0.74686
 C1390 C 0.18578 0.92825 0.26418
 C1391 C 0.16639 0.90283 0.25670
 N1392 N 0.13579 0.90669 0.25196
 C1393 C 0.12345 0.93471 0.25441
 C1394 C 0.14242 0.96071 0.26180
 N1395 N 0.17346 0.95677 0.26664
 N1396 N 0.21643 0.92366 0.26944
 C1397 C 0.22839 0.89504 0.26764
 C1398 C 0.20883 0.86958 0.26022
 N1399 N 0.17827 0.87442 0.25488
 H1400 H 0.09869 0.93676 0.25101
 H1401 H 0.25287 0.89219 0.27210
 C1402 C 0.66092 0.42389 0.73945
 C1403 C 0.69201 0.42197 0.74844
 N1404 N 0.70693 0.44711 0.76030
 C1405 C 0.69210 0.47416 0.76338
 C1406 C 0.66071 0.47605 0.75421
 N1407 N 0.64623 0.45041 0.74292
 N1408 N 0.64559 0.39921 0.72763
 C1409 C 0.65992 0.37223 0.72458
 C1410 C 0.69100 0.36970 0.73413
 N1411 N 0.70643 0.39479 0.74581
 H1412 H 0.70448 0.49332 0.77366
 H1413 H 0.64687 0.35286 0.71531
 C1414 C 0.69692 0.57110 0.74909
 C1415 C 0.67885 0.59527 0.75899
 N1416 N 0.64996 0.58932 0.76969
 C1417 C 0.63811 0.56020 0.77083
 C1418 C 0.65609 0.53553 0.76122
 N1419 N 0.68513 0.54186 0.75028
 N1420 N 0.72553 0.57743 0.73746
 C1421 C 0.73685 0.60687 0.73537
 C1422 C 0.71869 0.63107 0.74540
 N1423 N 0.69013 0.62450 0.75704
 H1424 H 0.61443 0.55643 0.77834
 H1425 H 0.75982 0.61125 0.72619
 C1426 C 0.18652 0.05613 0.25748
 C1427 C 0.16997 0.08089 0.26867
 N1428 N 0.14160 0.07568 0.28081
 C1429 C 0.12866 0.04701 0.28200
 C1430 C 0.14474 0.02161 0.27075
 N1431 N 0.17355 0.02704 0.25854
 N1432 N 0.21463 0.06196 0.24444
 C1433 C 0.22673 0.09122 0.24203
 C1434 C 0.20991 0.11609 0.25297
 N1435 N 0.18193 0.11001 0.26619
 H1436 H 0.10522 0.04428 0.29050
 H1437 H 0.24917 0.09500 0.23149
 C1438 C 0.33184 0.08533 0.76635
 C1439 C 0.31678 0.09504 0.73956
 N1440 N 0.31673 0.07678 0.71462
 C1441 C 0.33155 0.04951 0.71507
 C1442 C 0.34792 0.04009 0.74156
 N1443 N 0.34718 0.05855 0.76656
 N1444 N 0.33189 0.10335 0.79144
 C1445 C 0.31780 0.13092 0.79086
 C1446 C 0.30346 0.14122 0.76383
 N1447 N 0.30319 0.12293 0.73873
 H1448 H 0.33153 0.03578 0.69465
 H1449 H 0.31846 0.14503 0.81104
 C1450 C 0.81227 0.58441 0.26036
 C1451 C 0.82766 0.61013 0.24729
 N1452 N 0.85501 0.60691 0.23303
 C1453 C 0.86783 0.57904 0.23097
 C1454 C 0.85249 0.55257 0.24342
 N1455 N 0.82519 0.55626 0.25855
 N1456 N 0.78491 0.58822 0.27497
 C1457 C 0.77238 0.61658 0.27698
 C1458 C 0.78808 0.64236 0.26396
 N1459 N 0.81536 0.63819 0.24948
 H1460 H 0.89031 0.57787 0.22034
 H1461 H 0.75057 0.61895 0.28866
 C1462 C 0.92998 0.25872 0.14239
 C1463 C 0.93101 0.26593 0.17345
 N1464 N 0.95909 0.26977 0.18760
 C1465 C 0.98614 0.26665 0.17200
 C1466 C 0.98503 0.25906 0.14073
 N1467 N 0.95665 0.25565 0.12707
 N1468 N 0.90239 0.25510 0.12775
 C1469 C 0.87541 0.25807 0.14288
 C1470 C 0.87597 0.26497 0.17421
 N1471 N 0.90393 0.26891 0.18882
 H1472 H 1.00797 0.27077 0.18377
 H1473 H 0.85374 0.25482 0.13050
 C1474 C 0.43730 0.74807 0.64931
 C1475 C 0.43960 0.75691 0.67995
 N1476 N 0.46812 0.76405 0.69188
 C1477 C 0.49429 0.76255 0.67458
 C1478 C 0.49189 0.75304 0.64382
 N1479 N 0.46310 0.74653 0.63232
 N1480 N 0.40931 0.74144 0.63665
 C1481 C 0.38319 0.74290 0.65331
 C1482 C 0.38493 0.75127 0.68434
 N1483 N 0.41330 0.75834 0.69702
 H1484 H 0.51632 0.76946 0.68464
 H1485 H 0.36123 0.73742 0.64220
 C1486 C 0.42658 0.25675 0.84722
 C1487 C 0.42370 0.24066 0.81981
 N1488 N 0.44822 0.22462 0.80991
 C1489 C 0.47540 0.22411 0.82621
 C1490 C 0.47836 0.24067 0.85367
 N1491 N 0.45330 0.25601 0.86331
 N1492 N 0.40253 0.27253 0.85782
 C1493 C 0.37532 0.27298 0.84229
 C1494 C 0.37178 0.25670 0.81481
 N1495 N 0.39626 0.24088 0.80407
 H1496 H 0.49420 0.21057 0.81812
 H1497 H 0.35662 0.28589 0.85159
 C1498 C 0.91810 0.75832 0.34851
 C1499 C 0.91199 0.73735 0.32511
 N1500 N 0.93483 0.71861 0.31621
 C1501 C 0.96358 0.72025 0.32950
 C1502 C 0.97015 0.74240 0.35207
 N1503 N 0.94664 0.76024 0.36120
 N1504 N 0.89539 0.77634 0.35852
 C1505 C 0.86663 0.77465 0.34592
 C1506 C 0.86034 0.75427 0.32185
 N1507 N 0.88328 0.73596 0.31195
 H1508 H 0.98109 0.70451 0.32262
 H1509 H 0.84912 0.78970 0.35419
 C1510 C 0.08538 0.74499 0.35122
 C1511 C 0.08584 0.75177 0.31980
 N1512 N 0.05859 0.75465 0.30438
 C1513 C 0.03087 0.75110 0.31895
 C1514 C 0.03022 0.74411 0.35063
 N1515 N 0.05785 0.74157 0.36574
 N1516 N 0.11244 0.74241 0.36690
 C1517 C 0.14012 0.74604 0.35251
 C1518 C 0.14088 0.75267 0.32090
 N1519 N 0.11353 0.75546 0.30530
 H1520 H 0.00983 0.75496 0.30606
 H1521 H 0.16131 0.74353 0.36565
 C1522 C 0.56910 0.25479 0.81688
 C1523 C 0.59590 0.24907 0.83431
 N1524 N 0.59335 0.24112 0.86422
 C1525 C 0.56513 0.23819 0.87750
 C1526 C 0.53794 0.24282 0.86000
 N1527 N 0.54073 0.25153 0.83005
 N1528 N 0.57192 0.26304 0.78696
 C1529 C 0.60030 0.26545 0.77362
 C1530 C 0.62711 0.25897 0.79092
 N1531 N 0.62411 0.25108 0.82094
 H1532 H 0.56376 0.23182 0.90148
 H1533 H 0.60180 0.27169 0.74961
 C1534 C 0.58780 0.74024 0.67211
 C1535 C 0.61043 0.76041 0.65952
 N1536 N 0.60317 0.77810 0.63494
 C1537 C 0.57422 0.77687 0.62251
 C1538 C 0.55090 0.75720 0.63552
 N1539 N 0.55886 0.73887 0.65970
 N1540 N 0.59512 0.72226 0.69652
 C1541 C 0.62403 0.72368 0.70905
 C1542 C 0.64683 0.74402 0.69659
 N1543 N 0.63938 0.76185 0.67194
 H1544 H 0.56997 0.79063 0.60223
 H1545 H 0.62907 0.70907 0.72860
 C1546 C 0.07972 0.23507 0.17059
 C1547 C 0.10442 0.25291 0.15851
 N1548 N 0.09907 0.27319 0.13546
 C1549 C 0.07013 0.27649 0.12373
 C1550 C 0.04483 0.25868 0.13561
 N1551 N 0.05069 0.23804 0.15867
 N1552 N 0.08531 0.21474 0.19373
 C1553 C 0.11448 0.21165 0.20542
 C1554 C 0.13932 0.22949 0.19317
 N1555 N 0.13348 0.24967 0.16993
 H1556 H 0.06745 0.29205 0.10447
 H1557 H 0.11819 0.19556 0.22411
 C1558 C -0.06650 0.99420 0.83350
 C1559 C -0.08274 1.00917 0.85636
 N1560 N -0.10702 1.02660 0.84862
 C1561 C -0.11615 1.02970 0.81910
 C1562 C -0.10019 1.01490 0.79549
 N1563 N -0.07579 0.99699 0.80362
 N1564 N -0.04238 0.97637 0.84181
 C1565 C -0.03382 0.97302 0.87179
 C1566 C -0.05035 0.98792 0.89471
 N1567 N -0.07441 1.00565 0.88614
 H1568 H -0.13679 1.04253 0.81438
 H1569 H -0.01433 0.95892 0.87765
 C1570 C 0.40970 0.48636 0.33738
 C1571 C 0.44113 0.49555 0.33807
 N1572 N 0.45490 0.50559 0.31184
 C1573 C 0.43877 0.50670 0.28495
 C1574 C 0.40714 0.49686 0.28379
 N1575 N 0.39366 0.48732 0.31056
 N1576 N 0.39542 0.47736 0.36366
 C1577 C 0.41108 0.47742 0.39075
 C1578 C 0.44261 0.48682 0.39173
 N1579 N 0.45699 0.49552 0.36516
 H1580 H 0.45054 0.51569 0.26486
 H1581 H 0.39895 0.47043 0.41140
 C1582 C 0.55752 0.01256 0.30619
 C1583 C 0.57753 0.01003 0.33170
 N1584 N 0.60844 0.00952 0.32767
 C1585 C 0.62049 0.01123 0.29932
 C1586 C 0.60088 0.01322 0.27324
 N1587 N 0.56953 0.01398 0.27732
 N1588 N 0.52646 0.01351 0.31094
 C1589 C 0.51470 0.01201 0.33982
 C1590 C 0.53490 0.00915 0.36523
 N1591 N 0.56583 0.00824 0.36030
 H1592 H 0.64545 0.01070 0.29697
 H1593 H 0.48986 0.01278 0.34286
 C1594 C 0.09664 0.50169 0.82932
 C1595 C 0.07060 0.52000 0.83112
 N1596 N 0.06018 0.53461 0.80550
 C1597 C 0.07423 0.53106 0.77800
 C1598 C 0.09913 0.51094 0.77570
 N1599 N 0.11014 0.49774 0.80195
 N1600 N 0.10778 0.48765 0.85484
 C1601 C 0.09368 0.49065 0.88221
 C1602 C 0.06686 0.50812 0.88411
 N1603 N 0.05607 0.52260 0.85840
 H1604 H 0.06580 0.54341 0.75811
 H1605 H 0.10287 0.47877 0.90207
 C1606 C 0.09551 0.49642 0.66304
 C1607 C 0.06354 0.48980 0.66342
 N1608 N 0.04861 0.48803 0.69068
 C1609 C 0.06413 0.49309 0.71752
 C1610 C 0.09617 0.50092 0.71715
 N1611 N 0.11087 0.50159 0.68964
 N1612 N 0.11076 0.49792 0.63607
 C1613 C 0.09538 0.49354 0.60922
 C1614 C 0.06312 0.48750 0.60923
 N1615 N 0.04797 0.48555 0.63653
 H1616 H 0.05160 0.49039 0.73872
 H1617 H 0.10824 0.49526 0.58808
 C1618 C 0.55547 0.99741 0.18075
 C1619 C 0.57246 1.00551 0.15442
 N1620 N 0.60148 1.01757 0.15704
 C1621 C 0.61468 1.02182 0.18481
 C1622 C 0.59810 1.01417 0.21184
 N1623 N 0.56861 1.00182 0.20904
 N1624 N 0.52659 0.98428 0.17734
 C1625 C 0.51414 0.97909 0.14893
 C1626 C 0.53134 0.98745 0.12263
 N1627 N 0.56005 1.00052 0.12639
 H1628 H 0.63855 1.03019 0.18574
 H1629 H 0.49103 0.96890 0.14691
 C1630 C 0.40956 0.50755 0.17139
 C1631 C 0.43527 0.48870 0.16943
 N1632 N 0.44516 0.47346 0.19482
 C1633 C 0.43081 0.47654 0.22217
 C1634 C 0.40595 0.49682 0.22482
 N1635 N 0.39570 0.51118 0.19880
 N1636 N 0.39830 0.52125 0.14570
 C1637 C 0.41170 0.51707 0.11809
 C1638 C 0.43793 0.49883 0.11611
 N1639 N 0.44920 0.48508 0.14195
 H1640 H 0.43843 0.46290 0.24154
 H1641 H 0.40232 0.52829 0.09792
 C1642 C -0.09972 -0.00130 0.68165
 C1643 C -0.06847 0.00739 0.67821
 N1644 N -0.05164 0.01569 0.70352
 C1645 C -0.06485 0.01598 0.73195
 C1646 C -0.09650 0.00753 0.73529
 N1647 N -0.11271 -0.00079 0.70964
 N1648 N -0.11712 -0.00907 0.65688
 C1649 C -0.10474 -0.00864 0.62848
 C1650 C -0.07333 0.00010 0.62437
 N1651 N -0.05580 0.00790 0.64959
 H1652 H -0.05119 0.02383 0.75131
 H1653 H -0.11942 -0.01513 0.60931
 C1654 C -0.17998 0.89579 1.00754
 C1655 C -0.17819 0.92711 0.99990
 N1656 N -0.20458 0.94203 0.99281
 C1657 C -0.23272 0.92695 0.99271
 C1658 C -0.23464 0.89517 0.99982
 N1659 N -0.20786 0.88077 1.00727
 N1660 N -0.15383 0.88076 1.01502
 C1661 C -0.12577 0.89574 1.01533
 C1662 C -0.12374 0.92722 1.00765
 N1663 N -0.15014 0.94215 1.00005
 H1664 H -0.25302 0.93983 0.98698
 H1665 H -0.10532 0.88317 1.02154
 C1666 C 0.33086 0.39524 0.50507
 C1667 C 0.33353 0.42316 0.48883
 N1668 N 0.30801 0.43468 0.47492
 C1669 C 0.27988 0.41969 0.47678
 C1670 C 0.27671 0.39210 0.49412
 N1671 N 0.30280 0.38051 0.50725
 N1672 N 0.35643 0.38299 0.51806
 C1673 C 0.38463 0.39758 0.51584
 C1674 C 0.38748 0.42601 0.50016
 N1675 N 0.36166 0.43810 0.48696
 H1676 H 0.26039 0.42886 0.46431
 H1677 H 0.40447 0.38734 0.52685
 C1678 C 0.33378 0.59646 0.00817
 C1679 C 0.32834 0.56457 0.01050
 N1680 N 0.29835 0.55338 0.01401
 C1681 C 0.27320 0.57231 0.01382
 C1682 C 0.28042 0.60464 0.01036
 N1683 N 0.30993 0.61543 0.00774
 N1684 N 0.36288 0.60837 0.00566
 C1685 C 0.38745 0.59003 0.00520
 C1686 C 0.38300 0.55794 0.00712
 N1687 N 0.35333 0.54572 0.01009
 H1688 H 0.24816 0.56022 0.02830
 H1689 H 0.41036 0.60071 0.00328
 C1690 C -0.17963 0.09212 0.49287
 C1691 C -0.18588 0.06092 0.49967
 N1692 N -0.21617 0.05086 0.50335
 C1693 C -0.24077 0.07018 0.49986
 C1694 C -0.23261 0.10174 0.49268
 N1695 N -0.20291 0.11140 0.48915
 N1696 N -0.15028 0.10326 0.49076
 C1697 C -0.12619 0.08476 0.49497
 C1698 C -0.13145 0.05325 0.50127
 N1699 N -0.16139 0.04183 0.50380
 H1700 H -0.26610 0.06028 0.51524
 H1701 H -0.10299 0.09484 0.49324
 C1702 C 0.66061 0.10006 0.47271
 C1703 C 0.66057 0.06866 0.48047
 N1704 N 0.68729 0.05591 0.49132
 C1705 C 0.71466 0.07263 0.49437
 C1706 C 0.71328 0.10474 0.48623
 N1707 N 0.68689 0.11714 0.47542
 N1708 N 0.63403 0.11351 0.46380
 C1709 C 0.60679 0.09730 0.46300
 C1710 C 0.60606 0.06613 0.47139
 N1711 N 0.63308 0.05231 0.47968
 H1712 H 0.58578 0.10878 0.45633
 C1713 C 0.17354 0.60131 0.98850
 C1714 C 0.17345 0.56998 0.99643
 N1715 N 0.20061 0.55709 1.00619
 C1716 C 0.22827 0.57367 1.00844
 C1717 C 0.22654 0.60586 1.00076
 N1718 N 0.19992 0.61826 0.99063
 N1719 N 0.14688 0.61501 0.98042
 C1720 C 0.11946 0.59917 0.98063
 C1721 C 0.11847 0.56807 0.98943
 N1722 N 0.14566 0.55388 0.99675
 H1723 H 0.09853 0.61093 0.97428
 C1724 C 0.16208 0.39219 0.48637
 C1725 C 0.16102 0.42093 0.49960
 N1726 N 0.18895 0.43471 0.51055
 C1727 C 0.21737 0.42027 0.50886
 C1728 C 0.21707 0.39131 0.49449
 N1729 N 0.18968 0.37831 0.48429
 N1730 N 0.13544 0.37830 0.47609
 C1731 C 0.10770 0.39222 0.47844
 C1732 C 0.10657 0.42147 0.49160
 N1733 N 0.13352 0.43509 0.50187
 H1734 H 0.20413 0.43960 0.51501
 H1735 H 0.08688 0.38067 0.46991
 C1736 C 0.66026 0.91368 0.01770
 C1737 C 0.65061 0.92466 -0.01106
 N1738 N 0.66944 0.92182 -0.03551
 C1739 C 0.69715 0.90781 -0.03268
 C1740 C 0.70621 0.89499 -0.00420
 N1741 N 0.68740 0.89887 0.02033
 N1742 N 0.64197 0.91729 0.04242
 C1743 C 0.61420 0.93108 0.03961
 C1744 C 0.60390 0.94098 0.01067
 N1745 N 0.62243 0.93764 -0.01408
 H1746 H 0.71157 0.90577 -0.05265
 H1747 H 0.59986 0.93351 0.05960
 C1748 C 0.00545 0.82036 0.94185
 C1749 C 0.01203 0.84802 0.92596
 N1750 N 0.02123 0.84763 0.89653
 C1751 C 0.02449 0.82071 0.88214
 C1752 C 0.01881 0.79262 0.89798
 N1753 N 0.00890 0.79319 0.92753
 N1754 N -0.00428 0.82126 0.97131
 C1755 C -0.00756 0.84861 0.98552
 C1756 C -0.00059 0.87622 0.96952
 N1757 N 0.00897 0.87502 0.94012
 H1758 H 0.03169 0.82109 0.85848
 H1759 H -0.01529 0.84876 1.00900
 C1760 C 0.52198 0.33352 0.40787
 C1761 C 0.50246 0.33183 0.43339
 N1762 N 0.48777 0.30469 0.44058
 C1763 C 0.49151 0.27934 0.42324
 C1764 C 0.51108 0.28100 0.39740
 N1765 N 0.52567 0.30838 0.39067
 N1766 N 0.53612 0.36056 0.39989
 C1767 C 0.53154 0.38622 0.41616
 C1768 C 0.51180 0.38496 0.44175
 N1769 N 0.49784 0.35755 0.44993
 H1770 H 0.47861 0.25839 0.42899
 H1771 H 0.54335 0.40740 0.40910
 C1772 C -0.00996 0.31862 0.59379
 C1773 C 0.00213 0.32000 0.56421
 N1774 N 0.01399 0.29424 0.55216
 C1775 C 0.01425 0.26717 0.56841
 C1776 C 0.00170 0.26562 0.59814
 N1777 N -0.00957 0.29189 0.60985
 N1778 N -0.02119 0.34416 0.60648
 C1779 C -0.02082 0.37135 0.59092
 C1780 C -0.00856 0.37322 0.56120
 N1781 N 0.00258 0.34728 0.54847
 H1782 H 0.02491 0.24753 0.55854
 H1783 H -0.02995 0.39130 0.60178
 C1784 C 0.50318 0.80684 0.06874
 C1785 C 0.48807 0.82885 0.08591
 N1786 N 0.47696 0.82120 0.11387
 C1787 C 0.47987 0.79242 0.12542
 C1788 C 0.49411 0.76960 0.10800
 N1789 N 0.50620 0.77792 0.08027
 N1790 N 0.51484 0.81488 0.04095
 C1791 C 0.51197 0.84390 0.02956
 C1792 C 0.49676 0.86597 0.04681
 N1793 N 0.48522 0.85776 0.07463
 H1794 H 0.47161 0.78769 0.14835
 H1795 H 0.52149 0.84961 0.00730
 C1796 C 0.50903 0.65784 0.09514
 C1797 C 0.49535 0.65803 0.06598
 N1798 N 0.48395 0.68467 0.05454
 C1799 C 0.48579 0.71113 0.07090
 C1800 C 0.49999 0.71104 0.10015
 N1801 N 0.51066 0.68395 0.11138
 N1802 N 0.52001 0.63147 0.10717
 C1803 C 0.51788 0.60497 0.09138
 C1804 C 0.50396 0.60468 0.06212
 N1805 N 0.49303 0.63142 0.05002
 H1806 H 0.47530 0.73145 0.06152
 H1807 H 0.52690 0.58433 0.10178
 C1808 C -0.01062 0.17120 0.56693
 C1809 C -0.00267 0.14637 0.58605
 N1810 N 0.00732 0.15159 0.61493
 C1811 C 0.00996 0.18056 0.62564
 C1812 C 0.00272 0.20589 0.60656
 N1813 N -0.00790 0.20043 0.57758
 N1814 N -0.02103 0.16554 0.53809
 C1815 C -0.02369 0.13627 0.52755
 C1816 C -0.01546 0.11142 0.54671
 N1817 N -0.00519 0.11731 0.57555
 H1818 H 0.01763 0.18391 0.64902
 H1819 H -0.03194 0.13250 0.50443
 C1820 C 0.49137 0.17199 0.39350
 C1821 C 0.50985 0.16645 0.41935
 N1822 N 0.52893 0.18915 0.43026
 C1823 C 0.53027 0.21736 0.41651
 C1824 C 0.51133 0.22340 0.39079
 N1825 N 0.49248 0.20019 0.37996
 N1826 N 0.47266 0.14908 0.38231
 C1827 C 0.47148 0.12078 0.39600
 C1828 C 0.48965 0.11531 0.42224
 N1829 N 0.50844 0.13842 0.43316
 H1830 H 0.54590 0.23496 0.42553
 H1831 H 0.45626 0.10297 0.38673
 C1832 C 0.00698 0.67961 0.90001
 C1833 C 0.02119 0.67628 0.92869
 N1834 N 0.03465 0.70125 0.94225
 C1835 C 0.03442 0.72950 0.92840
 C1836 C 0.01940 0.73317 0.89984
 N1837 N 0.00659 0.70767 0.88638
 N1838 N -0.00569 0.65467 0.88587
 C1839 C -0.00505 0.62636 0.89931
 C1840 C 0.00876 0.62286 0.92835
 N1841 N 0.02161 0.64806 0.94232
 H1842 H 0.04652 0.74860 0.93919
 H1843 H -0.01568 0.60696 0.88763
 C1844 C 0.25446 0.67938 0.93402
 C1845 C 0.26396 0.65989 0.91072
 N1846 N 0.27115 0.63061 0.91768
 C1847 C 0.26933 0.61982 0.94682
 C1848 C 0.26026 0.63927 0.97067
 N1849 N 0.25267 0.66867 0.96338
 N1850 N 0.24653 0.70849 0.92672
 C1851 C 0.24765 0.71895 0.89727
 C1852 C 0.25718 0.69941 0.87387
 N1853 N 0.26519 0.67030 0.88135
 H1854 H 0.27437 0.59597 0.95125
 H1855 H 0.24120 0.74234 0.89228
 C1856 C 0.74917 0.18111 0.42192
 C1857 C 0.75404 0.16210 0.39681
 N1858 N 0.75478 0.13128 0.40108
 C1859 C 0.75111 0.11861 0.42938
 C1860 C 0.74676 0.13764 0.45481
 N1861 N 0.74549 0.16850 0.45016
 N1862 N 0.74810 0.21190 0.41769
 C1863 C 0.75147 0.22460 0.38940
 C1864 C 0.75610 0.20562 0.36410
 N1865 N 0.75740 0.17474 0.36849
 H1866 H 0.75163 0.09388 0.43213
 H1867 H 0.75034 0.24930 0.38674
 C1868 C 0.26584 0.34430 0.41557
 C1869 C 0.24604 0.31842 0.41244
 N1870 N 0.22629 0.31040 0.43542
 C1871 C 0.22563 0.32697 0.46155
 C1872 C 0.24628 0.35246 0.46540
 N1873 N 0.26559 0.36041 0.44180
 N1874 N 0.28474 0.35321 0.39218
 C1875 C 0.28476 0.33728 0.36570
 C1876 C 0.26543 0.31100 0.36273
 N1877 N 0.24646 0.30212 0.38620
 H1878 H 0.20943 0.32011 0.47932
 H1879 H 0.29989 0.34485 0.34726
 C1880 C 0.76810 0.83153 0.93342
 C1881 C 0.74128 0.81990 0.91893
 N1882 N 0.71321 0.82353 0.93202
 C1883 C 0.71064 0.83924 0.95850
 C1884 C 0.73729 0.85319 0.97203
 N1885 N 0.76541 0.84806 0.95917
 N1886 N 0.79630 0.82745 0.92070
 C1887 C 0.79880 0.81277 0.89363
 C1888 C 0.77182 0.80256 0.87831
 N1889 N 0.74365 0.80617 0.89144
 H1890 H 0.68791 0.84185 0.96827
 H1891 H 0.82142 0.81032 0.88353
 C1892 C 0.74079 0.86026 0.08389
 C1893 C 0.73351 0.82880 0.08662
 N1894 N 0.72637 0.81252 0.06117
 C1895 C 0.72639 0.82620 0.03297
 C1896 C 0.73388 0.85792 0.02993
 N1897 N 0.74057 0.87397 0.05588
 N1898 N 0.74851 0.87652 0.10922
 C1899 C 0.74936 0.86266 0.13728
 C1900 C 0.74193 0.83107 0.14019
 N1901 N 0.73405 0.81497 0.11464
 H1902 H 0.72066 0.81225 0.01342
 H1903 H 0.75555 0.87621 0.15707
 C1904 C 0.24035 0.35343 0.57837
 C1905 C 0.24770 0.32233 0.58018
 N1906 N 0.25523 0.30754 0.55428
 C1907 C 0.25523 0.32228 0.52657
 C1908 C 0.24642 0.35327 0.52434
 N1909 N 0.23986 0.36796 0.55077
 N1910 N 0.23434 0.36885 0.60428
 C1911 C 0.23540 0.35452 0.63206
 C1912 C 0.24233 0.32321 0.63403
 N1913 N 0.24827 0.30777 0.60792
 H1914 H 0.26260 0.30994 0.50679
 H1915 H 0.23071 0.36738 0.65242
 C1916 C 0.72923 0.15508 0.56401
 C1917 C 0.75249 0.17821 0.56621
 N1918 N 0.77048 0.18510 0.54163
 C1919 C 0.76654 0.16960 0.51506
 C1920 C 0.74317 0.14629 0.51271
 N1921 N 0.72522 0.13981 0.53756
 N1922 N 0.71221 0.14693 0.58885
 C1923 C 0.71747 0.16078 0.61600
 C1924 C 0.74079 0.18397 0.61844
 N1925 N 0.75761 0.19238 0.59330
 H1926 H 0.78247 0.17445 0.49651
 H1927 H 0.70333 0.15388 0.63540
 C1928 C 0.23732 0.65331 0.08089
 C1929 C 0.25715 0.67918 0.08369
 N1930 N 0.27407 0.68911 0.05917
 C1931 C 0.27234 0.67404 0.03206
 C1932 C 0.25254 0.64787 0.02918
 N1933 N 0.23567 0.63838 0.05402
 N1934 N 0.22134 0.64241 0.10553
 C1935 C 0.22441 0.65612 0.13311
 C1936 C 0.24442 0.68200 0.13625
 N1937 N 0.26018 0.69306 0.11125
 H1938 H 0.28729 0.68156 0.01350
 H1939 H 0.21133 0.64687 0.15234
 C1940 C 0.17855 0.56757 0.76024
 C1941 C 0.16704 0.59224 0.74306
 N1942 N 0.14132 0.58805 0.72560
 C1943 C 0.12623 0.56035 0.72454
 C1944 C 0.13732 0.53498 0.74166
 N1945 N 0.16328 0.53961 0.75950
 N1946 N 0.20420 0.57238 0.77810
 C1947 C 0.21873 0.60067 0.77946
 C1948 C 0.20687 0.62550 0.76241
 N1949 N 0.18128 0.62034 0.74461
 H1950 H 0.10489 0.55878 0.71144
 H1951 H 0.23917 0.60375 0.79373
 C1952 C 0.67916 0.07797 0.25005
 C1953 C 0.66071 0.10398 0.24671
 N1954 N 0.62990 0.10037 0.24185
 C1955 C 0.61650 0.07201 0.24005
 C1956 C 0.63460 0.04547 0.24267
 N1957 N 0.66581 0.04912 0.24788
 N1958 N 0.71004 0.08221 0.25572
 C1959 C 0.72313 0.11105 0.25795
 C1960 C 0.70459 0.13705 0.25404
 N1961 N 0.67378 0.13259 0.24851
 H1962 H 0.59161 0.07004 0.23674
 H1963 H 0.74783 0.11363 0.26214
 C1964 C 0.82658 0.07267 0.73937
 C1965 C 0.84449 0.09975 0.74356
 N1966 N 0.87443 0.09815 0.75268
 C1967 C 0.88716 0.07063 0.75861
 C1968 C 0.86893 0.04325 0.75624
 N1969 N 0.83921 0.04503 0.74562
 N1970 N 0.79655 0.07457 0.73011
 C1971 C 0.78351 0.10237 0.72548
 C1972 C 0.80125 0.12949 0.73073
 N1973 N 0.83144 0.12734 0.73935
 H1974 H 0.91122 0.07008 0.76583
 H1975 H 0.75935 0.10323 0.71867
 C1976 C 0.32802 0.56257 0.24793
 C1977 C 0.34728 0.58889 0.25094
 N1978 N 0.37820 0.58586 0.25484
 C1979 C 0.39089 0.55773 0.25617
 C1980 C 0.37186 0.53082 0.25406
 N1981 N 0.34064 0.53415 0.24955
 N1982 N 0.29705 0.56597 0.24334
 C1983 C 0.28456 0.59443 0.24184
 C1984 C 0.30386 0.62087 0.24536
 N1985 N 0.33484 0.61717 0.24979
 H1986 H 0.41575 0.55654 0.25846
 H1987 H 0.25980 0.59634 0.23843
 C1988 C 0.35101 0.42082 0.23796
 C1989 C 0.32709 0.41763 0.25938
 N1990 N 0.32108 0.44185 0.27751
 C1991 C 0.33825 0.46874 0.27554
 C1992 C 0.36305 0.47170 0.25458
 N1993 N 0.36816 0.44732 0.23627
 N1994 N 0.35787 0.39692 0.22010
 C1995 C 0.34227 0.36958 0.22292
 C1996 C 0.31865 0.36558 0.24485
 N1997 N 0.31127 0.39003 0.26245
 H1998 H 0.33335 0.48718 0.29091
 H1999 H 0.34856 0.35098 0.20826
 C2000 C 0.86210 0.92939 0.77040
 C2001 C 0.82999 0.92861 0.77503
 N2002 N 0.81510 0.95560 0.77725
 C2003 C 0.83079 0.98320 0.77420
 C2004 C 0.86284 0.98387 0.76742
 N2005 N 0.87737 0.95659 0.76667
 N2006 N 0.87766 0.90298 0.76914
 C2007 C 0.86241 0.87548 0.77134
 C2008 C 0.82987 0.87418 0.77426
 N2009 N 0.81432 0.90094 0.77658
 H2010 H 0.81831 1.00392 0.77772
 H2011 H 0.87559 0.85478 0.76979
 C2012 C 0.67705 0.95148 0.24128
 C2013 C 0.65718 0.92533 0.24392
 N2014 N 0.62625 0.92847 0.24468
 C2015 C 0.61398 0.95654 0.24321
 C2016 C 0.63335 0.98338 0.24125
 N2017 N 0.66481 0.98020 0.24019
 N2018 N 0.70821 0.94747 0.24025
 C2019 C 0.72011 0.91873 0.24191
 C2020 C 0.69997 0.89273 0.24516
 N2021 N 0.66901 0.89698 0.24599
 H2022 H 0.58902 0.95800 0.24449
 H2023 H 0.74499 0.91623 0.24115
 C2024 C 0.17685 0.44416 0.74072
 C2025 C 0.15898 0.41799 0.74943
 N2026 N 0.12900 0.42082 0.75727
 C2027 C 0.11586 0.44862 0.75686
 C2028 C 0.13348 0.47541 0.74866
 N2029 N 0.16376 0.47238 0.74044
 N2030 N 0.20680 0.44067 0.73223
 C2031 C 0.21956 0.41234 0.73221
 C2032 C 0.20159 0.38619 0.74122
 N2033 N 0.17171 0.38994 0.74959
 H2034 H 0.09157 0.44987 0.76262
 H2035 H 0.24351 0.41032 0.72549
 C2036 C 0.08797 0.74123 0.83029
 C2037 C 0.11335 0.75648 0.84430
 N2038 N 0.10901 0.77318 0.86960
 C2039 C 0.08028 0.77592 0.88127
 C2040 C 0.05424 0.76198 0.86649
 N2041 N 0.05915 0.74403 0.84187
 N2042 N 0.09255 0.72419 0.80513
 C2043 C 0.12133 0.72218 0.79305
 C2044 C 0.14666 0.73808 0.80673
 N2045 N 0.14197 0.75463 0.83222
 H2046 H 0.07798 0.78866 0.90213
 H2047 H 0.12424 0.70876 0.77269
 C2048 C 0.59321 0.24108 0.34531
 C2049 C 0.59646 0.26352 0.32211
 N2050 N 0.57311 0.28309 0.31653
 C2051 C 0.54650 0.28112 0.33298
 C2052 C 0.54265 0.25816 0.35593
 N2053 N 0.56649 0.23883 0.36142
 N2054 N 0.61689 0.22200 0.35146
 C2055 C 0.64372 0.22433 0.33535
 C2056 C 0.64677 0.24643 0.31181
 N2057 N 0.62306 0.26559 0.30573
 H2058 H 0.52831 0.29710 0.32800
 H2059 H 0.66241 0.20901 0.34068
 C2060 C 0.56524 0.76700 0.17394
 C2061 C 0.59153 0.75679 0.15896
 N2062 N 0.58817 0.74035 0.13313
 C2063 C 0.55964 0.73317 0.12165
 C2064 C 0.53267 0.74214 0.13710
 N2065 N 0.53652 0.75978 0.16255
 N2066 N 0.56893 0.78384 0.19970
 C2067 C 0.59774 0.79035 0.21141
 C2068 C 0.62410 0.77938 0.19673
 N2069 N 0.62012 0.76306 0.17068
 H2070 H 0.55836 0.72130 0.10014
 H2071 H 0.59993 0.80309 0.23241
 C2072 C 0.07046 0.26388 0.67307
 C2073 C 0.09624 0.25346 0.65724
 N2074 N 0.09204 0.23894 0.63039
 C2075 C 0.06320 0.23382 0.61875
 C2076 C 0.03679 0.24291 0.63497
 N2077 N 0.04133 0.25863 0.66152
 N2078 N 0.07508 0.27868 0.69994
 C2079 C 0.10419 0.28302 0.71184
 C2080 C 0.12997 0.27187 0.69626
 N2081 N 0.12513 0.25754 0.66918
 H2082 H 0.06091 0.22260 0.59691
 H2083 H 0.10705 0.29438 0.73356
 C2084 C 0.92054 0.23799 0.64018
 C2085 C 0.92002 0.23471 0.67203
 N2086 N 0.94740 0.23256 0.68760
 C2087 C 0.97523 0.23389 0.67273
 C2088 C 0.97574 0.23803 0.64063
 N2089 N 0.94799 0.23938 0.62558
 N2090 N 0.89367 0.23986 0.62414
 C2091 C 0.86596 0.23901 0.63856
 C2092 C 0.86495 0.23624 0.67064
 N2093 N 0.89219 0.23394 0.68671
 H2094 H 0.99628 0.23096 0.68582
 H2095 H 0.84496 0.24081 0.62500
 C2096 C 0.41858 0.72551 0.14676
 C2097 C 0.42064 0.72215 0.17858
 N2098 N 0.44911 0.72093 0.19214
 C2099 C 0.47562 0.72404 0.17536
 C2100 C 0.47346 0.72950 0.14352
 N2101 N 0.44474 0.72914 0.13032
 N2102 N 0.39052 0.72714 0.13282
 C2103 C 0.36413 0.72646 0.14942
 C2104 C 0.36590 0.72451 0.18150
 N2105 N 0.39421 0.72182 0.19539
 H2106 H 0.49777 0.72287 0.18694
 H2107 H 0.34206 0.72833 0.13765
 C2108 C 0.43160 0.27002 0.34650
 C2109 C 0.43098 0.25654 0.31758
 N2110 N 0.45678 0.24324 0.30704
 C2111 C 0.48324 0.24278 0.32415
 C2112 C 0.48421 0.25673 0.35311
 N2113 N 0.45800 0.26981 0.36338
 N2114 N 0.40543 0.28186 0.35790
 C2115 C 0.37842 0.28045 0.34177
 C2116 C 0.37768 0.26685 0.31286
 N2117 N 0.40407 0.25538 0.30130
 H2118 H 0.50314 0.23122 0.31547
 H2119 H 0.35762 0.28945 0.35154
 C2120 C 0.93968 0.76196 0.85483
 C2121 C 0.94113 0.76784 0.82328
 N2122 N 0.96939 0.77184 0.80992
 C2123 C 0.99616 0.76995 0.82671
 C2124 C 0.99458 0.76315 0.85839
 N2125 N 0.96607 0.75982 0.87127
 N2126 N 0.91194 0.75862 0.86881
 C2127 C 0.88525 0.76029 0.85255
 C2128 C 0.88622 0.76522 0.82066
 N2129 N 0.91429 0.76924 0.80667
 H2130 H 1.01805 0.77452 0.81547
 H2131 H 0.86345 0.75732 0.86450
   
