data_POSCAR
  _audit_creation_date              2014-09-24
  _audit_creation_method            'ToBaCCo'
  _symmetry_space_group_name_H-M    'P1'
  _symmetry_Int_Tables_number       1
  _symmetry_cell_setting            triclinic
  loop_
  _symmetry_equiv_pos_as_xyz
 x,y,z
_cell_length_a 97.6438
_cell_length_b 97.6323
_cell_length_c 97.6935
_cell_angle_alpha 90.053800
_cell_angle_beta 90.037200
_cell_angle_gamma 90.026100
loop_
  _atom_site_label
  _atom_site_type_symbol
  _atom_site_fract_x
  _atom_site_fract_y
  _atom_site_fract_z
N1 N 0.31375 0.42667 0.89836
 N2 N 0.32327 0.43621 0.89854
 C3 C 0.32122 0.44480 0.88795
 C4 C 0.30986 0.44033 0.88085
 C5 C 0.30532 0.42886 0.88768
 H6 H 0.32745 0.45365 0.88556
 H7 H 0.29652 0.42263 0.88510
 Cu8 Cu 0.33739 0.43624 0.91262
 Cu9 Cu 0.31294 0.41210 0.91196
 Cu10 Cu 0.33812 0.41216 0.93707
 N11 N 0.35151 0.43628 0.92669
 N12 N 0.35172 0.42676 0.93622
 C13 C 0.36243 0.42900 0.94463
 C14 C 0.36923 0.44048 0.94005
 C15 C 0.36211 0.44492 0.92870
 H16 H 0.36503 0.42279 0.95342
 H17 H 0.36445 0.45375 0.92245
 N18 N 0.32348 0.39826 0.93616
 N19 N 0.31390 0.39824 0.92660
 C20 C 0.30537 0.38761 0.92881
 C21 C 0.30986 0.38069 0.94023
 C22 C 0.32130 0.38765 0.94469
 H23 H 0.29648 0.38514 0.92268
 H24 H 0.32745 0.38521 0.95357
 H25 H 0.32253 0.42278 0.92748
 H26 H 0.33360 0.41186 0.91640
 N27 N 0.42777 0.85121 0.43743
 N28 N 0.43750 0.85081 0.42812
 C29 C 0.44629 0.86124 0.43033
 C30 C 0.44172 0.86846 0.44157
 C31 C 0.43000 0.86189 0.44587
 H32 H 0.45532 0.86341 0.42430
 H33 H 0.42366 0.86460 0.45453
 Cu34 Cu 0.43743 0.83672 0.41398
 Cu35 Cu 0.41303 0.83772 0.43816
 Cu36 Cu 0.41463 0.81116 0.41459
 N37 N 0.43736 0.82264 0.39983
 N38 N 0.42821 0.81273 0.40006
 C39 C 0.43038 0.80429 0.38937
 C40 C 0.44142 0.80922 0.38210
 C41 C 0.44565 0.82083 0.38895
 H42 H 0.42450 0.79515 0.38717
 H43 H 0.45422 0.82733 0.38629
 N44 N 0.39987 0.81282 0.42825
 N45 N 0.39923 0.82297 0.43719
 C46 C 0.38819 0.82112 0.44526
 C47 C 0.38165 0.80932 0.44113
 C48 C 0.38923 0.80428 0.43038
 H49 H 0.38525 0.82770 0.45367
 H50 H 0.38725 0.79498 0.42468
 H51 H 0.42452 0.82237 0.42984
 H52 H 0.41331 0.83199 0.41774
 N53 N 0.92701 0.89887 0.81336
 N54 N 0.93634 0.89888 0.82309
 C55 C 0.94497 0.88830 0.82103
 C56 C 0.94074 0.88139 0.80947
 C57 C 0.92937 0.88831 0.80481
 H58 H 0.95371 0.88584 0.82738
 H59 H 0.92334 0.88589 0.79584
 Cu60 Cu 0.93632 0.91277 0.83739
 Cu61 Cu 0.91260 0.91261 0.81237
 Cu62 Cu 0.91268 0.93783 0.83736
 N63 N 0.93638 0.92718 0.85119
 N64 N 0.92710 0.93695 0.85111
 C65 C 0.92946 0.94555 0.86164
 C66 C 0.94078 0.94086 0.86861
 C67 C 0.94499 0.92924 0.86178
 H68 H 0.92343 0.95454 0.86401
 H69 H 0.95367 0.92284 0.86432
 N70 N 0.89892 0.93700 0.82263
 N71 N 0.89887 0.92738 0.81311
 C72 C 0.88830 0.92960 0.80452
 C73 C 0.88145 0.94112 0.80890
 C74 C 0.88837 0.94561 0.82034
 H75 H 0.88579 0.92339 0.79570
 H76 H 0.88593 0.95451 0.82646
 H77 H 0.92357 0.92785 0.82212
 H78 H 0.91211 0.91709 0.83300
 N79 N 0.42800 -0.10022 0.31250
 N80 N 0.43769 -0.09978 0.32186
 C81 C 0.44641 -0.11028 0.31980
 C82 C 0.44185 -0.11758 0.30861
 C83 C 0.43020 -0.11099 0.30418
 H84 H 0.45540 -0.11244 0.32588
 H85 H 0.42388 -0.11377 0.29553
 Cu86 Cu 0.43801 -0.08548 0.33572
 Cu87 Cu 0.41334 -0.08676 0.31168
 Cu88 Cu 0.41336 -0.06145 0.33659
 N89 N 0.43767 -0.07141 0.34981
 N90 N 0.42799 -0.06204 0.35008
 C91 C 0.43018 -0.05355 0.36073
 C92 C 0.44181 -0.05789 0.36742
 C93 C 0.44636 -0.06919 0.36031
 H94 H 0.42386 -0.04485 0.36336
 H95 H 0.45535 -0.07525 0.36258
 N96 N 0.39942 -0.06257 0.32208
 N97 N 0.39940 -0.07222 0.31259
 C98 C 0.38873 -0.07013 0.30409
 C99 C 0.38181 -0.05867 0.30852
 C100 C 0.38878 -0.05409 0.31987
 H101 H 0.38624 -0.07635 0.29527
 H102 H 0.38634 -0.04515 0.32595
 H103 H 0.42403 -0.07100 0.32093
 H104 H 0.41352 -0.08222 0.33231
 N105 N 0.81327 0.32309 0.35139
 N106 N 0.82279 0.31356 0.35122
 C107 C 0.82060 0.30482 0.36166
 C108 C 0.80916 0.30920 0.36866
 C109 C 0.80471 0.32076 0.36194
 H110 H 0.82676 0.29592 0.36397
 H111 H 0.79590 0.32696 0.36449
 Cu112 Cu 0.83696 0.31352 0.33723
 Cu113 Cu 0.81258 0.33775 0.33790
 Cu114 Cu 0.83787 0.33780 0.31295
 N115 N 0.85118 0.31367 0.32330
 N116 N 0.85142 0.32319 0.31379
 C117 C 0.86212 0.32093 0.30539
 C118 C 0.86887 0.30943 0.30994
 C119 C 0.86174 0.30500 0.32127
 H120 H 0.86475 0.32714 0.29661
 H121 H 0.86402 0.29612 0.32746
 N122 N 0.82328 0.35172 0.31386
 N123 N 0.81367 0.35172 0.32338
 C124 C 0.80525 0.36245 0.32125
 C125 C 0.80985 0.36945 0.30993
 C126 C 0.82123 0.36245 0.30544
 H127 H 0.79639 0.36494 0.32739
 H128 H 0.82746 0.36495 0.29664
 H129 H 0.82218 0.32708 0.32234
 H130 H 0.83324 0.33792 0.33355
 N131 N -0.17735 0.85161 0.81316
 N132 N -0.18678 0.85154 0.82280
 C133 C -0.19516 0.86237 0.82100
 C134 C -0.19066 0.86948 0.80968
 C135 C -0.17941 0.86244 0.80489
 H136 H -0.20394 0.86480 0.82730
 H137 H -0.17336 0.86484 0.79593
 Cu138 Cu -0.18689 0.83714 0.83660
 Cu139 Cu -0.16355 0.83720 0.81166
 Cu140 Cu -0.16353 0.81219 0.83681
 N141 N -0.18684 0.82334 0.85100
 N142 N -0.17740 0.81371 0.85114
 C143 C -0.17945 0.80550 0.86201
 C144 C -0.19072 0.81030 0.86902
 C145 C -0.19521 0.82160 0.86183
 H146 H -0.17335 0.79661 0.86451
 H147 H -0.20395 0.82794 0.86427
 N148 N -0.14894 0.81374 0.82290
 N149 N -0.14896 0.82327 0.81328
 C150 C -0.13791 0.82150 0.80521
 C151 C -0.13068 0.81039 0.81002
 C152 C -0.13787 0.80568 0.82119
 H153 H -0.13541 0.82767 0.79637
 H154 H -0.13533 0.79689 0.82743
 H155 H -0.17411 0.82186 0.82146
 H156 H -0.16290 0.83284 0.83234
 N157 N 0.93777 0.35045 0.42810
 N158 N 0.92843 0.35010 0.43780
 C159 C 0.93065 0.36053 0.44659
 C160 C 0.94195 0.36768 0.44207
 C161 C 0.94627 0.36109 0.43037
 H162 H 0.92457 0.36275 0.45557
 H163 H 0.95496 0.36376 0.42405
 Cu164 Cu 0.91420 0.33615 0.43766
 Cu165 Cu 0.93842 0.33698 0.41334
 Cu166 Cu 0.91461 0.31061 0.41486
 N167 N 0.89988 0.32227 0.43750
 N168 N 0.90002 0.31238 0.42834
 C169 C 0.88924 0.30405 0.43045
 C170 C 0.88200 0.30905 0.44147
 C171 C 0.88895 0.32057 0.44576
 H172 H 0.88699 0.29492 0.42458
 H173 H 0.88635 0.32706 0.45435
 N174 N 0.92831 0.31217 0.40014
 N175 N 0.93733 0.32225 0.39952
 C176 C 0.94536 0.32037 0.38846
 C177 C 0.94111 0.30863 0.38188
 C178 C 0.93033 0.30366 0.38946
 H179 H 0.95380 0.32690 0.38550
 H180 H 0.92450 0.29446 0.38742
 H181 H 0.91791 0.33142 0.41354
 H182 H 0.92995 0.32169 0.42472
 N183 N 0.43660 0.42731 0.85087
 N184 N 0.42712 0.43689 0.85059
 C185 C 0.42913 0.44551 0.86118
 C186 C 0.44041 0.44103 0.86836
 C187 C 0.44495 0.42951 0.86161
 H188 H 0.42296 0.45442 0.86346
 H189 H 0.45371 0.42328 0.86426
 Cu190 Cu 0.41319 0.43717 0.83638
 Cu191 Cu 0.43754 0.41283 0.83722
 Cu192 Cu 0.41249 0.41276 0.81206
 N193 N 0.39904 0.43681 0.82239
 N194 N 0.39880 0.42723 0.81291
 C195 C 0.38806 0.42941 0.80453
 C196 C 0.38129 0.44093 0.80906
 C197 C 0.38845 0.44542 0.82036
 H198 H 0.38543 0.42317 0.79577
 H199 H 0.38615 0.45433 0.82653
 N200 N 0.42722 0.39900 0.81295
 N201 N 0.43676 0.39904 0.82255
 C202 C 0.44541 0.38852 0.82032
 C203 C 0.44105 0.38162 0.80884
 C204 C 0.42955 0.38844 0.80437
 H205 H 0.45428 0.38611 0.82650
 H206 H 0.42343 0.38594 0.79548
 H207 H 0.42803 0.42354 0.82160
 H208 H 0.41685 0.41276 0.83274
 N209 N 0.81376 0.89831 0.92644
 N210 N 0.82293 0.89881 0.93629
 C211 C 0.82091 0.88819 0.94485
 C212 C 0.80993 0.88074 0.94005
 C213 C 0.80557 0.88738 0.92841
 H214 H 0.82688 0.88607 0.95393
 H215 H 0.79699 0.88459 0.92198
 Cu216 Cu 0.83671 0.91319 0.93710
 Cu217 Cu 0.81286 0.91203 0.91206
 Cu218 Cu 0.83632 0.93854 0.91375
 N219 N 0.85130 0.92672 0.93603
 N220 N 0.85118 0.93653 0.92680
 C221 C 0.86218 0.94465 0.92867
 C222 C 0.86953 0.93959 0.93959
 C223 C 0.86241 0.92826 0.94408
 H224 H 0.86446 0.95373 0.92276
 H225 H 0.86498 0.92185 0.95272
 N226 N 0.82247 0.93707 0.89920
 N227 N 0.81356 0.92692 0.89851
 C228 C 0.80537 0.92886 0.88758
 C229 C 0.80942 0.94073 0.88115
 C230 C 0.82023 0.94572 0.88870
 H231 H 0.79696 0.92228 0.88461
 H232 H 0.82594 0.95501 0.88675
 H233 H 0.83336 0.91767 0.91285
 H234 H 0.82099 0.92745 0.92370
 N235 N 0.31322 0.85116 0.32287
 N236 N 0.32230 0.85059 0.31294
 C237 C 0.32019 0.86113 0.30431
 C238 C 0.30925 0.86860 0.30915
 C239 C 0.30501 0.86206 0.32088
 H240 H 0.32605 0.86317 0.29514
 H241 H 0.29648 0.86489 0.32735
 Cu242 Cu 0.33601 0.83618 0.31213
 Cu243 Cu 0.31243 0.83759 0.33736
 Cu244 Cu 0.33576 0.81099 0.33560
 N245 N 0.35035 0.82239 0.31286
 N246 N 0.35030 0.81264 0.32215
 C247 C 0.36113 0.80436 0.32010
 C248 C 0.36828 0.80925 0.30898
 C249 C 0.36124 0.82065 0.30458
 H250 H 0.36347 0.79534 0.32607
 H251 H 0.36375 0.82702 0.29589
 N252 N 0.32213 0.81263 0.35033
 N253 N 0.31326 0.82281 0.35101
 C254 C 0.30516 0.82098 0.36201
 C255 C 0.30922 0.80916 0.36851
 C256 C 0.31996 0.80407 0.36092
 H257 H 0.29678 0.82759 0.36497
 H258 H 0.32561 0.79475 0.36288
 H259 H 0.33286 0.83191 0.33643
 H260 H 0.32036 0.82210 0.32574
 N261 N 0.81281 0.39868 0.42720
 N262 N 0.82212 0.39909 0.43693
 C263 C 0.82009 0.38850 0.44553
 C264 C 0.80898 0.38116 0.44086
 C265 C 0.80454 0.38784 0.42927
 H266 H 0.82612 0.38635 0.45457
 H267 H 0.79588 0.38510 0.42292
 Cu268 Cu 0.83587 0.41348 0.43757
 Cu269 Cu 0.81201 0.41228 0.41270
 Cu270 Cu 0.83690 0.43757 0.41294
 N271 N 0.84997 0.42754 0.43729
 N272 N 0.85034 0.43689 0.42761
 C273 C 0.86102 0.44532 0.42986
 C274 C 0.86763 0.44095 0.44151
 C275 C 0.86043 0.42970 0.44603
 H276 H 0.86374 0.45401 0.42355
 H277 H 0.86263 0.42363 0.45502
 N278 N 0.82243 0.43654 0.39896
 N279 N 0.81291 0.42691 0.39889
 C280 C 0.80448 0.42902 0.38817
 C281 C 0.80897 0.44045 0.38127
 C282 C 0.82030 0.44502 0.38830
 H283 H 0.79569 0.42278 0.38560
 H284 H 0.82646 0.45390 0.38586
 H285 H 0.83271 0.41682 0.41305
 H286 H 0.82124 0.42804 0.42348
 N287 N 0.92682 0.85104 -0.06351
 N288 N 0.93622 0.85095 -0.07316
 C289 C 0.94490 0.86148 -0.07107
 C290 C 0.94063 0.86843 -0.05957
 C291 C 0.92919 0.86161 -0.05497
 H292 H 0.95369 0.86390 -0.07736
 H293 H 0.92310 0.86410 -0.04607
 Cu294 Cu 0.93619 0.83706 -0.08744
 Cu295 Cu 0.91228 0.83746 -0.06267
 Cu296 Cu 0.91230 0.81223 -0.08765
 N297 N 0.93623 0.82265 -0.10119
 N298 N 0.92685 0.81297 -0.10120
 C299 C 0.92923 0.80434 -0.11169
 C300 C 0.94067 0.80891 -0.11854
 C301 C 0.94491 0.82050 -0.11169
 H302 H 0.92314 0.79540 -0.11412
 H303 H 0.95367 0.82681 -0.11416
 N304 N 0.89843 0.81324 -0.07308
 N305 N 0.89841 0.82286 -0.06356
 C306 C 0.88772 0.82077 -0.05511
 C307 C 0.88077 0.80935 -0.05958
 C308 C 0.88775 0.80477 -0.07093
 H309 H 0.88520 0.82700 -0.04631
 H310 H 0.88525 0.79589 -0.07708
 H311 H 0.92315 0.82209 -0.07235
 H312 H 0.91190 0.83296 -0.08335
 N313 N 0.31265 0.35104 0.82246
 N314 N 0.32213 0.35080 0.81290
 C315 C 0.31999 0.36128 0.80419
 C316 C 0.30865 0.36840 0.80865
 C317 C 0.30419 0.36169 0.82021
 H318 H 0.32616 0.36358 0.79530
 H319 H 0.29543 0.36432 0.82644
 Cu320 Cu 0.33638 0.33688 0.81284
 Cu321 Cu 0.31189 0.33751 0.83705
 Cu322 Cu 0.33685 0.31228 0.83691
 N323 N 0.35013 0.32246 0.81273
 N324 N 0.35032 0.31294 0.82226
 C325 C 0.36088 0.30440 0.81992
 C326 C 0.36759 0.30883 0.80836
 C327 C 0.36057 0.32026 0.80398
 H328 H 0.36347 0.29561 0.82614
 H329 H 0.36291 0.32647 0.79513
 N330 N 0.32236 0.31332 0.85089
 N331 N 0.31284 0.32293 0.85094
 C332 C 0.30436 0.32079 0.86159
 C333 C 0.30880 0.30933 0.86848
 C334 C 0.32018 0.30480 0.86151
 H335 H 0.29552 0.32697 0.86409
 H336 H 0.32628 0.29588 0.86392
 H337 H 0.33252 0.33298 0.83720
 H338 H 0.32139 0.32201 0.82617
 N339 N 0.14862 0.57313 0.56307
 N340 N 0.14886 0.56349 0.57246
 C341 C 0.13820 0.55495 0.57042
 C342 C 0.13100 0.55956 0.55920
 C343 C 0.13783 0.57106 0.55473
 H344 H 0.13589 0.54601 0.57653
 H345 H 0.13521 0.57736 0.54601
 Cu346 Cu 0.16321 0.56296 0.58629
 Cu347 Cu 0.16237 0.58757 0.56224
 Cu348 Cu 0.18776 0.58712 0.58706
 N349 N 0.17738 0.56297 0.60032
 N350 N 0.18697 0.57245 0.60053
 C351 C 0.19551 0.57002 0.61108
 C352 C 0.19099 0.55845 0.61777
 C353 C 0.17949 0.55420 0.61075
 H354 H 0.20440 0.57612 0.61364
 H355 H 0.17325 0.54534 0.61304
 N356 N 0.18682 0.60114 0.57257
 N357 N 0.17714 0.60130 0.56312
 C358 C 0.17929 0.61201 0.55470
 C359 C 0.19082 0.61884 0.55912
 C360 C 0.19539 0.61175 0.57041
 H361 H 0.17301 0.61464 0.54597
 H362 H 0.20432 0.61412 0.57652
 H363 H 0.17799 0.57660 0.57144
 H364 H 0.16704 0.58736 0.58284
 N365 N 0.60056 0.67775 0.06281
 N366 N 0.60033 0.68735 0.07227
 C367 C 0.61089 0.69600 0.07018
 C368 C 0.61801 0.69149 0.05886
 C369 C 0.61124 0.67995 0.05438
 H370 H 0.61322 0.70491 0.07634
 H371 H 0.61386 0.67367 0.04564
 Cu372 Cu 0.58622 0.68741 0.08631
 Cu373 Cu 0.58704 0.66309 0.06206
 Cu374 Cu 0.56189 0.66315 0.08715
 N375 N 0.57210 0.68747 0.10034
 N376 N 0.56263 0.67787 0.10061
 C377 C 0.55417 0.68017 0.11124
 C378 C 0.55862 0.69177 0.11792
 C379 C 0.56997 0.69621 0.11082
 H380 H 0.54541 0.67392 0.11388
 H381 H 0.57613 0.70514 0.11310
 N382 N 0.56292 0.64915 0.07264
 N383 N 0.57249 0.64915 0.06307
 C384 C 0.57035 0.63846 0.05460
 C385 C 0.55896 0.63149 0.05911
 C386 C 0.55445 0.63847 0.07049
 H387 H 0.57649 0.63600 0.04573
 H388 H 0.54557 0.63601 0.07663
 H389 H 0.57141 0.67374 0.07155
 H390 H 0.58255 0.66298 0.08272
 N391 N 0.67729 0.18697 0.64926
 N392 N 0.68659 0.17722 0.64925
 C393 C 0.69526 0.17928 0.63871
 C394 C 0.69108 0.19087 0.63185
 C395 C 0.67970 0.19554 0.63874
 H396 H 0.70395 0.17289 0.63622
 H397 H 0.67366 0.20450 0.63631
 Cu398 Cu 0.68645 0.16287 0.66305
 Cu399 Cu 0.66277 0.18785 0.66289
 Cu400 Cu 0.66256 0.16260 0.68783
 N401 N 0.68636 0.14890 0.67723
 N402 N 0.67697 0.14887 0.68689
 C403 C 0.67923 0.13823 0.69535
 C404 C 0.69059 0.13130 0.69070
 C405 C 0.69492 0.13827 0.67924
 H406 H 0.67312 0.13575 0.70425
 H407 H 0.70367 0.13580 0.67292
 N408 N 0.64885 0.17737 0.68703
 N409 N 0.64893 0.18699 0.67753
 C410 C 0.63837 0.19559 0.67977
 C411 C 0.63140 0.19109 0.69116
 C412 C 0.63824 0.17958 0.69556
 H413 H 0.63596 0.20450 0.67367
 H414 H 0.63571 0.17338 0.70437
 H415 H 0.67350 0.17791 0.67817
 H416 H 0.66217 0.16711 0.66716
 N417 N 1.10109 0.07239 0.18659
 N418 N 1.10085 0.06279 0.17713
 C419 C 1.11148 0.05422 0.17912
 C420 C 1.11867 0.05878 0.19039
 C421 C 1.11186 0.07027 0.19493
 H422 H 1.11382 0.04533 0.17294
 H423 H 1.11453 0.07657 0.20364
 Cu424 Cu 1.08665 0.06263 0.16318
 Cu425 Cu 1.08749 0.08695 0.18741
 Cu426 Cu 1.06217 0.08672 0.16245
 N427 N 1.07244 0.06247 0.14923
 N428 N 1.06291 0.07200 0.14901
 C429 C 1.05441 0.06966 0.13841
 C430 C 1.05890 0.05809 0.13172
 C431 C 1.07031 0.05372 0.13877
 H432 H 1.04562 0.07586 0.13580
 H433 H 1.07650 0.04483 0.13646
 N434 N 1.06323 0.10072 0.17694
 N435 N 1.07285 0.10080 0.18647
 C436 C 1.07068 0.11147 0.19494
 C437 C 1.05923 0.11835 0.19047
 C438 C 1.05470 0.11135 0.17911
 H439 H 1.07685 0.11398 0.20379
 H440 H 1.04577 0.11373 0.17302
 H441 H 1.07186 0.07620 0.17798
 H442 H 1.08288 0.08704 0.16675
 N443 N 0.07286 0.14826 1.06346
 N444 N 0.06324 0.14858 1.07289
 C445 C 0.05457 0.13803 1.07084
 C446 C 0.05908 0.13081 1.05959
 C447 C 0.07065 0.13752 1.05511
 H448 H 0.04562 0.13581 1.07696
 H449 H 0.07691 0.13484 1.04638
 Cu450 Cu 0.06316 0.16283 1.08682
 Cu451 Cu 0.08749 0.16181 1.06265
 Cu452 Cu 0.08740 0.18717 1.08760
 N453 N 0.06308 0.17701 1.10080
 N454 N 0.07266 0.18649 1.10105
 C455 C 0.07035 0.19500 1.11166
 C456 C 0.05876 0.19056 1.11833
 C457 C 0.05434 0.17917 1.11125
 H458 H 0.07659 0.20377 1.11428
 H459 H 0.04542 0.17301 1.11353
 N460 N 0.10139 0.18605 1.07310
 N461 N 0.10140 0.17642 1.06358
 C462 C 0.11212 0.17847 1.05515
 C463 C 0.11911 0.18987 1.05962
 C464 C 0.11212 0.19448 1.07096
 H465 H 0.11462 0.17223 1.04635
 H466 H 0.11462 0.20336 1.07710
 H467 H 0.08759 0.16646 1.08330
 H468 H 0.07685 0.17753 1.07203
 N469 N 0.14974 0.68763 0.67808
 N470 N 0.15007 0.67817 0.68766
 C471 C 0.13962 0.68028 0.69642
 C472 C 0.13246 0.69162 0.69203
 C473 C 0.13909 0.69607 0.68041
 H474 H 0.13741 0.67412 0.70534
 H475 H 0.13641 0.70483 0.67420
 Cu476 Cu 0.16417 0.66411 0.68779
 Cu477 Cu 0.16320 0.68841 0.66342
 Cu478 Cu 0.18815 0.66316 0.66307
 N479 N 0.17802 0.64981 0.68724
 N480 N 0.18737 0.64950 0.67755
 C481 C 0.19572 0.63874 0.67965
 C482 C 0.19132 0.63201 0.69123
 C483 C 0.18011 0.63923 0.69584
 H484 H 0.20442 0.63608 0.67334
 H485 H 0.17407 0.63701 0.70484
 N486 N 0.18721 0.67787 0.64930
 N487 N 0.17769 0.68748 0.64943
 C488 C 0.17982 0.69604 0.63882
 C489 C 0.19117 0.69154 0.63178
 C490 C 0.19565 0.68006 0.63862
 H491 H 0.17367 0.70493 0.63643
 H492 H 0.20444 0.67385 0.63603
 H493 H 0.16749 0.66763 0.66332
 H494 H 0.17890 0.67877 0.67392
 N495 N 1.17708 0.14850 0.18659
 N496 N 1.18667 0.14882 0.17714
 C497 C 1.19529 0.13822 0.17912
 C498 C 1.19078 0.13098 0.19036
 C499 C 1.17927 0.13772 0.19490
 H500 H 1.20421 0.13598 0.17296
 H501 H 1.17304 0.13506 0.20365
 Cu502 Cu 1.18699 0.16314 0.16329
 Cu503 Cu 1.16262 0.16217 0.18761
 Cu504 Cu 1.16267 0.18752 0.16278
 N505 N 1.18669 0.17726 0.14924
 N506 N 1.17714 0.18676 0.14911
 C507 C 1.17930 0.19522 0.13844
 C508 C 1.19077 0.19074 0.13158
 C509 C 1.19526 0.17936 0.13863
 H510 H 1.17305 0.20400 0.13590
 H511 H 1.20412 0.17317 0.13622
 N512 N 1.14888 0.18657 0.17746
 N513 N 1.14885 0.17690 0.18691
 C514 C 1.13826 0.17906 0.19549
 C515 C 1.13139 0.19059 0.19117
 C516 C 1.13832 0.19514 0.17978
 H517 H 1.13578 0.17281 0.20428
 H518 H 1.13588 0.20408 0.17373
 H519 H 1.16257 0.16677 0.16699
 H520 H 1.17338 0.17782 0.17827
 N521 N 0.64817 1.06401 0.57340
 N522 N 0.64876 1.07313 0.56352
 C523 C 0.63824 1.07103 0.55482
 C524 C 0.63078 1.06005 0.55957
 C525 C 0.63730 1.05577 0.57132
 H526 H 0.63618 1.07696 0.54571
 H527 H 0.63443 1.04724 0.57777
 Cu528 Cu 0.66306 1.08699 0.56292
 Cu529 Cu 0.66166 1.06324 0.58801
 Cu530 Cu 0.68817 1.08671 0.58655
 N531 N 0.67667 1.10151 0.56398
 N532 N 0.68639 1.10143 0.57330
 C533 C 0.69459 1.11236 0.57143
 C534 C 0.68966 1.11963 0.56039
 C535 C 0.67834 1.11252 0.55585
 H536 H 0.70361 1.11467 0.57743
 H537 H 0.67201 1.11505 0.54713
 N538 N 0.68652 1.07298 0.60119
 N539 N 0.67634 1.06408 0.60179
 C540 C 0.67814 1.05598 0.61280
 C541 C 0.68993 1.06006 0.61938
 C542 C 0.69503 1.07081 0.61183
 H543 H 0.67151 1.04760 0.61572
 H544 H 0.70431 1.07651 0.61386
 H545 H 0.66728 1.08373 0.58723
 H546 H 0.67717 1.07132 0.57652
 N547 N 0.57238 0.56313 0.14903
 N548 N 0.56279 0.57259 0.14925
 C549 C 0.55417 0.57050 0.13867
 C550 C 0.55867 0.55918 0.13155
 C551 C 0.57019 0.55471 0.13833
 H552 H 0.54525 0.57664 0.13637
 H553 H 0.57643 0.54593 0.13574
 Cu554 Cu 0.56243 0.58664 0.16338
 Cu555 Cu 0.58689 0.56233 0.16268
 Cu556 Cu 0.58690 0.58758 0.18763
 N557 N 0.56286 0.60096 0.17724
 N558 N 0.57246 0.60126 0.18669
 C559 C 0.57032 0.61206 0.19500
 C560 C 0.55882 0.61883 0.19045
 C561 C 0.55428 0.61159 0.17921
 H562 H 0.57656 0.61471 0.20376
 H563 H 0.54534 0.61384 0.17307
 N564 N 0.60067 0.57288 0.18689
 N565 N 0.60069 0.56327 0.17737
 C566 C 0.61132 0.55476 0.17962
 C567 C 0.61821 0.55930 0.19106
 C568 C 0.61127 0.57074 0.19547
 H569 H 0.61383 0.54589 0.17348
 H570 H 0.61373 0.57696 0.20429
 H571 H 0.57615 0.57190 0.17817
 H572 H 0.58687 0.58304 0.16693
 N573 N 0.64964 0.67803 0.18771
 N574 N 0.64973 0.68748 0.17812
 C575 C 0.63920 0.69615 0.18024
 C576 C 0.63224 0.69181 0.19170
 C577 C 0.63906 0.68034 0.19624
 H578 H 0.63681 0.70498 0.17401
 H579 H 0.63658 0.67421 0.20511
 Cu580 Cu 0.66367 0.68759 0.16391
 Cu581 Cu 0.66328 0.66352 0.18851
 Cu582 Cu 0.68852 0.66376 0.16356
 N583 N 0.67805 0.68776 0.15014
 N584 N 0.68774 0.67840 0.15007
 C585 C 0.69637 0.68089 0.13962
 C586 C 0.69180 0.69239 0.13286
 C587 C 0.68020 0.69655 0.13973
 H588 H 0.70531 0.67485 0.13715
 H589 H 0.67389 0.70533 0.13734
 N590 N 0.68756 0.64979 0.17808
 N591 N 0.67794 0.64971 0.18758
 C592 C 0.68012 0.63906 0.19606
 C593 C 0.69159 0.63219 0.19163
 C594 C 0.69612 0.63919 0.18027
 H595 H 0.67392 0.63653 0.20488
 H596 H 0.70503 0.63679 0.17417
 H597 H 0.67866 0.67447 0.17894
 H598 H 0.66780 0.66327 0.16786
 N599 N 0.14912 0.07257 1.06275
 N600 N 0.14938 0.06293 1.07214
 C601 C 0.13882 0.05429 1.07002
 C602 C 0.13169 0.05882 1.05874
 C603 C 0.13843 0.07039 1.05432
 H604 H 0.13654 0.04533 1.07612
 H605 H 0.13581 0.07667 1.04558
 Cu606 Cu 0.16355 0.06246 1.08610
 Cu607 Cu 0.16273 0.08712 1.06206
 Cu608 Cu 0.18778 0.08698 1.08719
 N609 N 0.17745 0.06278 1.10034
 N610 N 0.18692 0.07237 1.10069
 C611 C 0.19526 0.07013 1.11143
 C612 C 0.19072 0.05857 1.11809
 C613 C 0.17944 0.05412 1.11089
 H614 H 0.20401 0.07637 1.11414
 H615 H 0.17323 0.04522 1.11313
 N616 N 0.18692 0.10090 1.07266
 N617 N 0.17736 0.10096 1.06308
 C618 C 0.17957 0.11164 1.05464
 C619 C 0.19100 0.11854 1.05918
 C620 C 0.19546 0.11154 1.07056
 H621 H 0.17342 0.11417 1.04579
 H622 H 0.20432 0.11397 1.07676
 H623 H 0.17832 0.07635 1.07148
 H624 H 0.16708 0.08694 1.08276
 N625 N 0.60126 0.18690 0.57301
 N626 N 0.60108 0.17736 0.56349
 C627 C 0.61169 0.17938 0.55491
 C628 C 0.61880 0.19074 0.55936
 C629 C 0.61197 0.19531 0.57082
 H630 H 0.61405 0.17316 0.54605
 H631 H 0.61454 0.20414 0.57701
 Cu632 Cu 0.58698 0.16328 0.56317
 Cu633 Cu 0.58754 0.18781 0.58741
 Cu634 Cu 0.56262 0.16253 0.58752
 N635 N 0.57315 0.14893 0.56366
 N636 N 0.56367 0.14870 0.57321
 C637 C 0.55541 0.13784 0.57115
 C638 C 0.56004 0.13095 0.55975
 C639 C 0.57125 0.13820 0.55518
 H640 H 0.54665 0.13522 0.57738
 H641 H 0.57744 0.13587 0.54630
 N642 N 0.56328 0.17738 0.60115
 N643 N 0.57280 0.18700 0.60113
 C644 C 0.57048 0.19563 0.61165
 C645 C 0.55902 0.19116 0.61852
 C646 C 0.55466 0.17963 0.61168
 H647 H 0.57659 0.20455 0.61409
 H648 H 0.54583 0.17343 0.61416
 H649 H 0.58330 0.16707 0.58754
 H650 H 0.57206 0.17810 0.57668
 N651 N 0.10071 0.57289 0.68668
 N652 N 0.10059 0.56339 0.67711
 C653 C 0.11122 0.55483 0.67914
 C654 C 0.11826 0.55926 0.69055
 C655 C 0.11137 0.57068 0.69514
 H656 H 0.11366 0.54602 0.67288
 H657 H 0.11386 0.57684 0.70400
 Cu658 Cu 0.08650 0.56334 0.66302
 Cu659 Cu 0.08702 0.58737 0.68756
 Cu660 Cu 0.06190 0.58729 0.66238
 N661 N 0.07245 0.56330 0.64889
 N662 N 0.06285 0.57276 0.64872
 C663 C 0.05447 0.57052 0.63801
 C664 C 0.05911 0.55911 0.63115
 C665 C 0.07049 0.55472 0.63825
 H666 H 0.04563 0.57668 0.63544
 H667 H 0.07681 0.54595 0.63584
 N668 N 0.06272 0.60110 0.67708
 N669 N 0.07229 0.60113 0.68666
 C670 C 0.07006 0.61175 0.69519
 C671 C 0.05862 0.61864 0.69070
 C672 C 0.05416 0.61169 0.67927
 H673 H 0.07623 0.61427 0.70404
 H674 H 0.04531 0.61416 0.67309
 H675 H 0.07153 0.57666 0.67791
 H676 H 0.08257 0.58767 0.66689
 N677 N 0.64981 0.56218 0.07151
 N678 N 0.64969 0.57200 0.06230
 C679 C 0.63867 0.57036 0.05414
 C680 C 0.63162 0.55895 0.05854
 C681 C 0.63892 0.55395 0.06953
 H682 H 0.63613 0.57675 0.04547
 H683 H 0.63667 0.54484 0.07540
 Cu684 Cu 0.66422 0.58565 0.06142
 Cu685 Cu 0.66458 0.56027 0.08471
 Cu686 Cu 0.68812 0.58671 0.08641
 N687 N 0.67812 0.59993 0.06212
 N688 N 0.68730 0.60040 0.07198
 C689 C 0.69561 0.61123 0.06994
 C690 C 0.69133 0.61784 0.05824
 C691 C 0.68026 0.61048 0.05349
 H692 H 0.70422 0.61397 0.07635
 H693 H 0.67433 0.61259 0.04439
 N694 N 0.68734 0.57183 0.10001
 N695 N 0.67840 0.56170 0.09930
 C696 C 0.68061 0.55303 0.10980
 C697 C 0.69144 0.55797 0.11736
 C698 C 0.69551 0.56985 0.11095
 H699 H 0.67487 0.54376 0.11174
 H700 H 0.70393 0.57642 0.11393
 H701 H 0.66762 0.58115 0.08567
 H702 H 0.67993 0.57136 0.07477
 N703 N 0.07312 0.68646 0.60148
 N704 N 0.06375 0.67676 0.60149
 C705 C 0.05510 0.67889 0.61202
 C706 C 0.05934 0.69049 0.61887
 C707 C 0.07074 0.69508 0.61197
 H708 H 0.04633 0.67258 0.61448
 H709 H 0.07677 0.70407 0.61435
 Cu710 Cu 0.06374 0.66243 0.58764
 Cu711 Cu 0.08762 0.68728 0.58782
 Cu712 Cu 0.08777 0.66191 0.56300
 N713 N 0.06399 0.64822 0.57366
 N714 N 0.07341 0.64812 0.56403
 C715 C 0.07122 0.63738 0.55565
 C716 C 0.05988 0.63043 0.56034
 C717 C 0.05548 0.63751 0.57173
 H718 H 0.07733 0.63487 0.54677
 H719 H 0.04670 0.63508 0.57802
 N720 N 0.10146 0.67671 0.56367
 N721 N 0.10143 0.68637 0.57316
 C722 C 0.11203 0.69492 0.57090
 C723 C 0.11897 0.69037 0.55950
 C724 C 0.11207 0.67887 0.55513
 H725 H 0.11450 0.70382 0.57701
 H726 H 0.11459 0.67261 0.54635
 H727 H 0.07688 0.67734 0.57257
 H728 H 0.08805 0.66651 0.58369
 N729 N 0.57232 1.06348 0.64846
 N730 N 0.56312 1.07333 0.64830
 C731 C 0.55485 1.07161 0.63737
 C732 C 0.55919 1.06010 0.63042
 C733 C 0.57023 1.05513 0.63767
 H734 H 0.54626 1.07808 0.63475
 H735 H 0.57615 1.04604 0.63541
 Cu736 Cu 0.56298 1.08725 0.66260
 Cu737 Cu 0.58591 1.06186 0.66302
 Cu738 Cu 0.58742 1.08839 0.68668
 N739 N 0.56289 1.10141 0.67664
 N740 N 0.57263 1.10184 0.68597
 C741 C 0.57039 1.11256 0.69437
 C742 C 0.55869 1.11913 0.69001
 C743 C 0.55412 1.11186 0.67879
 H744 H 0.57673 1.11529 0.70304
 H745 H 0.54510 1.11401 0.67272
 N746 N 0.60130 1.07370 0.68568
 N747 N 0.60071 1.06358 0.67669
 C748 C 0.61146 1.05516 0.67872
 C749 C 0.61907 1.06024 0.68947
 C750 C 0.61240 1.07193 0.69370
 H751 H 0.61352 1.04593 0.67295
 H752 H 0.61533 1.07851 0.70211
 H753 H 0.57611 1.07292 0.67834
 H754 H 0.58716 1.08267 0.66621
 N755 N 0.43703 0.35117 0.92756
 N756 N 0.42762 0.35090 0.93720
 C757 C 0.42965 0.36154 0.94578
 C758 C 0.44088 0.36876 0.94119
 C759 C 0.44537 0.36197 0.92966
 H760 H 0.42353 0.36382 0.95472
 H761 H 0.45409 0.36460 0.92337
 Cu762 Cu 0.41373 0.33659 0.93771
 Cu763 Cu 0.43789 0.33741 0.91315
 Cu764 Cu 0.41292 0.31217 0.91337
 N765 N 0.39956 0.32256 0.93743
 N766 N 0.39931 0.31306 0.92787
 C767 C 0.38862 0.30464 0.93010
 C768 C 0.38186 0.30914 0.94162
 C769 C 0.38900 0.32049 0.94608
 H770 H 0.38601 0.29584 0.92389
 H771 H 0.38672 0.32666 0.95499
 N772 N 0.42755 0.31299 0.89952
 N773 N 0.43707 0.32261 0.89942
 C774 C 0.44560 0.32034 0.88882
 C775 C 0.44118 0.30879 0.88201
 C776 C 0.42978 0.30434 0.88899
 H777 H 0.45441 0.32654 0.88626
 H778 H 0.42364 0.29543 0.88660
 H779 H 0.41718 0.33291 0.91327
 H780 H 0.42850 0.32183 0.92398
 N781 N 0.93693 0.42725 0.35112
 N782 N 0.92743 0.43680 0.35089
 C783 C 0.92956 0.44554 0.36138
 C784 C 0.94095 0.44113 0.36846
 C785 C 0.94543 0.42955 0.36175
 H786 H 0.92338 0.45444 0.36366
 H787 H 0.95423 0.42335 0.36433
 Cu788 Cu 0.91330 0.43689 0.33681
 Cu789 Cu 0.93771 0.41263 0.33755
 Cu790 Cu 0.91242 0.41238 0.31263
 N791 N 0.89901 0.43650 0.32290
 N792 N 0.89873 0.42686 0.31348
 C793 C 0.88795 0.42898 0.30513
 C794 C 0.88118 0.44052 0.30961
 C795 C 0.88839 0.44509 0.32085
 H796 H 0.88530 0.42268 0.29642
 H797 H 0.88611 0.45404 0.32697
 N798 N 0.92714 0.39859 0.31347
 N799 N 0.93678 0.39868 0.32297
 C800 C 0.94533 0.38807 0.32076
 C801 C 0.94080 0.38106 0.30939
 C802 C 0.92930 0.38793 0.30498
 H803 H 0.95424 0.38566 0.32688
 H804 H 0.92307 0.38537 0.29619
 H805 H 0.92803 0.42319 0.32200
 H806 H 0.91698 0.41245 0.33329
 N807 N 0.31285 0.92822 0.39954
 N808 N 0.32257 0.93756 0.39946
 C809 C 0.32081 0.94576 0.38851
 C810 C 0.30943 0.94125 0.38146
 C811 C 0.30458 0.93016 0.38869
 H812 H 0.32713 0.95450 0.38598
 H813 H 0.29555 0.92415 0.38640
 Cu814 Cu 0.33631 0.93845 0.41393
 Cu815 Cu 0.31114 0.91485 0.41415
 Cu816 Cu 0.33767 0.91329 0.43757
 N817 N 0.35064 0.93782 0.42780
 N818 N 0.35117 0.92791 0.43691
 C819 C 0.36201 0.92995 0.44521
 C820 C 0.36856 0.94169 0.44099
 C821 C 0.36117 0.94650 0.42997
 H822 H 0.36481 0.92347 0.45373
 H823 H 0.36325 0.95564 0.42407
 N824 N 0.32301 0.89947 0.43666
 N825 N 0.31284 0.90011 0.42776
 C826 C 0.30433 0.88944 0.42987
 C827 C 0.30942 0.88185 0.44060
 C828 C 0.32120 0.88842 0.44472
 H829 H 0.29504 0.88745 0.42418
 H830 H 0.32779 0.88550 0.45312
 H831 H 0.32216 0.92482 0.42951
 H832 H 0.33202 0.91412 0.41708
 O833 O 0.21359 0.51834 0.74868
 O834 O 0.21771 0.51618 0.77280
 O835 O 0.24889 0.53644 0.73243
 O836 O 0.27176 0.53268 0.73276
 O837 O 0.23192 0.50095 0.71376
 O838 O 0.23326 0.47686 0.71858
 O839 O 0.28532 0.49905 0.76847
 O840 O 0.28157 0.52286 0.76533
 O841 O 0.25151 0.48169 0.78545
 O842 O 0.22812 0.48280 0.78273
 O843 O 0.26796 0.46449 0.75119
 O844 O 0.26676 0.46911 0.72638
 O845 O 0.28537 0.48246 0.75201
 O846 O 0.28083 0.48468 0.72622
 O847 O 0.25125 0.46418 0.76743
 O848 O 0.22511 0.47007 0.76505
 O849 O 0.26799 0.49821 0.78551
 O850 O 0.26291 0.52317 0.78166
 O851 O 0.21337 0.50132 0.73263
 O852 O 0.21840 0.47658 0.73438
 O853 O 0.24842 0.51750 0.71367
 O854 O 0.27340 0.51495 0.71900
 O855 O 0.23222 0.53640 0.74878
 O856 O 0.23571 0.53110 0.77370
 Zr857 Zr 0.23318 0.51672 0.75759
 O858 O 0.24509 0.50438 0.77067
 Zr859 Zr 0.25726 0.51661 0.73336
 O860 O 0.27041 0.50476 0.74567
 Zr861 Zr 0.23308 0.49249 0.73356
 O862 O 0.24539 0.47930 0.74541
 Zr863 Zr 0.26587 0.50794 0.76644
 O864 O 0.25402 0.52132 0.75419
 Zr865 Zr 0.24202 0.48360 0.76620
 O866 O 0.22855 0.49584 0.75440
 Zr867 Zr 0.26619 0.48394 0.74218
 O868 O 0.25388 0.49578 0.72882
 O869 O 0.23668 0.51311 0.73697
 O870 O 0.26265 0.48721 0.76284
 C871 C 0.20789 0.51147 0.73899
 C872 C 0.23897 0.54204 0.73901
 C873 C 0.23854 0.51081 0.70810
 C874 C 0.29077 0.48888 0.76216
 C875 C 0.26170 0.48800 0.79087
 C876 C 0.26147 0.45888 0.76112
 H877 H 0.24286 0.50639 0.78035
 H878 H 0.24324 0.46966 0.74315
 H879 H 0.23091 0.51896 0.73109
 H880 H 0.28008 0.50705 0.74373
 H881 H 0.27710 0.53152 0.76253
 H882 H 0.27917 0.53023 0.73920
 H883 H 0.22763 0.46251 0.75878
 H884 H 0.21308 0.47797 0.74288
 H885 H 0.27082 0.52277 0.78801
 H886 H 0.22866 0.53834 0.77273
 H887 H 0.25840 0.46344 0.72718
 H888 H 0.24247 0.47708 0.71436
 H889 H 0.21191 0.50807 0.77092
 H890 H 0.22263 0.49126 0.78224
 H891 H 0.27161 0.50660 0.71353
 H892 H 0.28771 0.49172 0.72860
 O893 O 0.26843 -0.03615 0.25096
 O894 O 0.26642 -0.03184 0.22683
 O895 O 0.28618 -0.00086 0.26764
 O896 O 0.28226 0.02201 0.26734
 O897 O 0.25078 -0.01820 0.28596
 O898 O 0.22671 -0.01701 0.28105
 O899 O 0.24862 0.03553 0.23176
 O900 O 0.27240 0.03194 0.23483
 O901 O 0.23165 0.00146 0.21432
 O902 O 0.23296 -0.02182 0.21693
 O903 O 0.21421 0.01783 0.24847
 O904 O 0.21869 0.01623 0.27350
 O905 O 0.23205 0.03538 0.24823
 O906 O 0.23390 0.03060 0.27383
 O907 O 0.21409 0.00116 0.23215
 O908 O 0.22008 -0.02497 0.23460
 O909 O 0.24785 0.01825 0.21451
 O910 O 0.27289 0.01342 0.21838
 O911 O 0.25135 -0.03664 0.26692
 O912 O 0.22661 -0.03182 0.26520
 O913 O 0.26718 -0.00156 0.28627
 O914 O 0.26450 0.02341 0.28113
 O915 O 0.28634 -0.01741 0.25115
 O916 O 0.28112 -0.01371 0.22622
 Zr917 Zr 0.26670 -0.01653 0.24222
 O918 O 0.25429 -0.00468 0.22919
 Zr919 Zr 0.26630 0.00738 0.26664
 O920 O 0.25435 0.02049 0.25439
 Zr921 Zr 0.24238 -0.01699 0.26614
 O922 O 0.22910 -0.00475 0.25432
 Zr923 Zr 0.25763 0.01612 0.23359
 O924 O 0.27110 0.00433 0.24580
 Zr925 Zr 0.23353 -0.00799 0.23354
 O926 O 0.24586 -0.02140 0.24529
 Zr927 Zr 0.23356 0.01606 0.25774
 O928 O 0.24549 0.00381 0.27106
 O929 O 0.26298 -0.01319 0.26285
 O930 O 0.23693 0.01267 0.23707
 C931 C 0.26157 -0.04197 0.26055
 C932 C 0.29188 -0.01069 0.26101
 C933 C 0.26056 -0.01154 0.29172
 C934 C 0.23846 0.04089 0.23815
 C935 C 0.23781 0.01178 0.20903
 C936 C 0.20872 0.01136 0.23843
 H937 H 0.25634 -0.00684 0.21950
 H938 H 0.21948 -0.00700 0.25650
 H939 H 0.26885 -0.01896 0.26872
 H940 H 0.25654 0.03016 0.25643
 H941 H 0.28108 0.02755 0.23771
 H942 H 0.27966 0.02953 0.26108
 H943 H 0.21240 -0.02244 0.24070
 H944 H 0.22801 -0.03704 0.25663
 H945 H 0.27235 0.02133 0.21205
 H946 H 0.28846 -0.02067 0.22719
 H947 H 0.21277 0.00810 0.27224
 H948 H 0.22676 -0.00778 0.28523
 H949 H 0.25848 -0.03787 0.22866
 H950 H 0.24110 -0.02773 0.21788
 H951 H 0.25612 0.02156 0.28652
 H952 H 0.24127 0.03727 0.27186
 O953 O 0.50103 0.71398 0.23223
 O954 O 0.47723 0.71814 0.23477
 O955 O 0.51733 0.74921 0.21355
 O956 O 0.51693 0.77217 0.21711
 O957 O 0.53634 0.73278 0.24901
 O958 O 0.53161 0.73439 0.27317
 O959 O 0.48141 0.78589 0.25082
 O960 O 0.48427 0.78202 0.22717
 O961 O 0.46440 0.75166 0.26824
 O962 O 0.46898 0.72689 0.26729
 O963 O 0.49879 0.76887 0.28541
 O964 O 0.52353 0.76778 0.28081
 O965 O 0.49806 0.78620 0.26720
 O966 O 0.52382 0.78152 0.26510
 O967 O 0.48237 0.75230 0.28580
 O968 O 0.48470 0.72653 0.28108
 O969 O 0.46431 0.76832 0.25192
 O970 O 0.46815 0.76321 0.22694
 O971 O 0.51749 0.71408 0.24888
 O972 O 0.51601 0.71921 0.27348
 O973 O 0.53623 0.74914 0.23236
 O974 O 0.53072 0.77412 0.23466
 O975 O 0.50108 0.73242 0.21384
 O976 O 0.47626 0.73577 0.21911
 Zr977 Zr 0.49235 0.73365 0.23355
 O978 O 0.47925 0.74560 0.24581
 Zr979 Zr 0.51648 0.75782 0.23330
 O980 O 0.50417 0.77099 0.24514
 Zr981 Zr 0.51660 0.73388 0.25759
 O982 O 0.50469 0.74617 0.27073
 Zr983 Zr 0.48338 0.76636 0.24212
 O984 O 0.49561 0.75446 0.22875
 Zr985 Zr 0.48388 0.74262 0.26659
 O986 O 0.49580 0.72926 0.25441
 Zr987 Zr 0.50777 0.76695 0.26595
 O988 O 0.52118 0.75469 0.25411
 O989 O 0.51301 0.73725 0.23698
 O990 O 0.48707 0.76329 0.26284
 C991 C 0.51092 0.70845 0.23892
 C992 C 0.51079 0.73917 0.20809
 C993 C 0.54191 0.73936 0.23909
 C994 C 0.48788 0.79151 0.26079
 C995 C 0.45892 0.76182 0.26198
 C996 C 0.48878 0.76251 0.29106
 H997 H 0.46959 0.74339 0.24370
 H998 H 0.50701 0.74415 0.28037
 H999 H 0.51886 0.73142 0.23115
 H1000 H 0.50609 0.78065 0.24277
 H1001 H 0.48702 0.77755 0.21849
 H1002 H 0.51029 0.77944 0.21944
 H1003 H 0.49178 0.72888 0.28795
 H1004 H 0.50716 0.71435 0.27259
 H1005 H 0.46168 0.77103 0.22740
 H1006 H 0.47707 0.72830 0.21227
 H1007 H 0.52296 0.75933 0.28635
 H1008 H 0.53593 0.74356 0.27269
 H1009 H 0.47798 0.71406 0.24402
 H1010 H 0.46350 0.72744 0.25879
 H1011 H 0.53633 0.77244 0.24293
 H1012 H 0.52151 0.78828 0.25792
 O1013 O 0.00093 0.71370 0.73236
 O1014 O -0.02288 0.71787 0.73496
 O1015 O 0.01709 0.74888 0.71341
 O1016 O 0.01659 0.77187 0.71686
 O1017 O 0.03632 0.73269 0.74887
 O1018 O 0.03169 0.73438 0.77301
 O1019 O -0.01878 0.78564 0.75078
 O1020 O -0.01598 0.78171 0.72706
 O1021 O -0.03554 0.75152 0.76841
 O1022 O -0.03090 0.72656 0.76721
 O1023 O -0.00130 0.76877 0.78523
 O1024 O 0.02368 0.76755 0.78044
 O1025 O -0.00207 0.78602 0.76711
 O1026 O 0.02357 0.78160 0.76498
 O1027 O -0.01759 0.75208 0.78574
 O1028 O -0.01528 0.72641 0.78117
 O1029 O -0.03574 0.76814 0.75206
 O1030 O -0.03210 0.76288 0.72700
 O1031 O 0.01747 0.71394 0.74892
 O1032 O 0.01613 0.71917 0.77347
 O1033 O 0.03609 0.74897 0.73214
 O1034 O 0.03053 0.77392 0.73431
 O1035 O 0.00090 0.73204 0.71384
 O1036 O -0.02388 0.73537 0.71914
 Zr1037 Zr -0.00776 0.73337 0.73357
 O1038 O -0.02085 0.74534 0.74581
 Zr1039 Zr 0.01630 0.75760 0.73311
 O1040 O 0.00403 0.77079 0.74498
 Zr1041 Zr 0.01661 0.73377 0.75750
 O1042 O 0.00470 0.74604 0.77065
 Zr1043 Zr -0.01677 0.76610 0.74206
 O1044 O -0.00457 0.75417 0.72869
 Zr1045 Zr -0.01612 0.74240 0.76657
 O1046 O -0.00419 0.72905 0.75442
 Zr1047 Zr 0.00771 0.76682 0.76579
 O1048 O 0.02111 0.75457 0.75392
 O1049 O 0.01291 0.73703 0.73690
 O1050 O -0.01297 0.76306 0.76276
 C1051 C 0.01085 0.70822 0.73906
 C1052 C 0.01057 0.73879 0.70802
 C1053 C 0.04182 0.73924 0.73889
 C1054 C -0.01233 0.79128 0.76076
 C1055 C -0.04103 0.76172 0.76222
 C1056 C -0.01127 0.76238 0.79091
 H1057 H -0.03053 0.74313 0.74376
 H1058 H 0.00706 0.74406 0.78028
 H1059 H 0.01875 0.73118 0.73108
 H1060 H 0.00590 0.78044 0.74257
 H1061 H -0.01329 0.77721 0.71838
 H1062 H 0.00999 0.77917 0.71923
 H1063 H -0.00801 0.72868 0.78786
 H1064 H 0.00727 0.71431 0.77266
 H1065 H -0.03859 0.77067 0.72751
 H1066 H -0.02310 0.72782 0.71238
 H1067 H 0.02272 0.75945 0.78644
 H1068 H 0.03585 0.74362 0.77260
 H1069 H -0.02213 0.71389 0.74424
 H1070 H -0.03679 0.72747 0.75903
 H1071 H 0.03603 0.77241 0.74269
 H1072 H 0.02137 0.78812 0.75755
 O1073 O 0.03614 0.01764 0.00116
 O1074 O 0.03190 0.01547 -0.02299
 O1075 O 0.00090 0.03576 0.01754
 O1076 O -0.02196 0.03216 0.01708
 O1077 O 0.01781 0.00066 0.03612
 O1078 O 0.01687 -0.02377 0.03139
 O1079 O -0.03559 -0.00153 -0.01870
 O1080 O -0.03176 0.02221 -0.01573
 O1081 O -0.00172 -0.01922 -0.03542
 O1082 O 0.02162 -0.01803 -0.03263
 O1083 O -0.01849 -0.03605 -0.00123
 O1084 O -0.01776 -0.03268 0.02209
 O1085 O -0.03584 -0.01788 -0.00204
 O1086 O -0.03049 -0.01510 0.02429
 O1087 O -0.00162 -0.03656 -0.01730
 O1088 O 0.02443 -0.03085 -0.01485
 O1089 O -0.01817 -0.00270 -0.03567
 O1090 O -0.01298 0.02232 -0.03196
 O1091 O 0.03634 0.00071 0.01727
 O1092 O 0.03117 -0.02410 0.01560
 O1093 O 0.00108 0.01694 0.03622
 O1094 O -0.02399 0.01450 0.03058
 O1095 O 0.01765 0.03568 0.00126
 O1096 O 0.01397 0.03046 -0.02369
 Zr1097 Zr 0.01654 0.01603 -0.00767
 O1098 O 0.00469 0.00360 -0.02075
 Zr1099 Zr -0.00759 0.01598 0.01649
 O1100 O -0.02076 0.00418 0.00411
 Zr1101 Zr 0.01659 -0.00811 0.01644
 O1102 O 0.00418 -0.02129 0.00467
 Zr1103 Zr -0.01610 0.00724 -0.01665
 O1104 O -0.00429 0.02066 -0.00435
 Zr1105 Zr 0.00767 -0.01716 -0.01614
 O1106 O 0.02116 -0.00485 -0.00440
 Zr1107 Zr -0.01660 -0.01659 0.00771
 O1108 O -0.00425 -0.00485 0.02118
 O1109 O 0.01299 0.01247 0.01294
 O1110 O -0.01298 -0.01346 -0.01294
 C1111 C 0.04184 0.01081 0.01085
 C1112 C 0.01092 0.04130 0.01107
 C1113 C 0.01105 0.01041 0.04178
 C1114 C -0.04115 -0.01155 -0.01228
 C1115 C -0.01187 -0.01295 -0.04093
 C1116 C -0.01194 -0.04176 -0.01107
 H1117 H 0.00698 0.00552 -0.03043
 H1118 H 0.00614 -0.03093 0.00710
 H1119 H 0.01879 0.01831 0.01881
 H1120 H -0.03043 0.00651 0.00605
 H1121 H -0.02727 0.03091 -0.01307
 H1122 H -0.02908 0.02999 0.01022
 H1123 H 0.02192 -0.03816 -0.00831
 H1124 H 0.03661 -0.02266 0.00718
 H1125 H -0.02087 0.02190 -0.03834
 H1126 H 0.02106 0.03768 -0.02271
 H1127 H -0.00894 -0.03265 0.02705
 H1128 H 0.00883 -0.02231 0.03738
 H1129 H 0.03784 0.00748 -0.02105
 H1130 H 0.02756 -0.00990 -0.03173
 H1131 H -0.02195 0.00666 0.03667
 H1132 H -0.03814 -0.00914 0.02139
 O1133 O -0.03628 0.49861 0.48138
 O1134 O -0.03176 0.52278 0.48299
 O1135 O -0.00106 0.48155 0.46374
 O1136 O 0.02184 0.48191 0.46764
 O1137 O -0.01839 0.46368 0.49923
 O1138 O -0.01712 0.46879 0.52326
 O1139 O 0.03553 0.51790 0.50094
 O1140 O 0.03186 0.51458 0.47717
 O1141 O 0.00167 0.53539 0.51794
 O1142 O -0.02162 0.53304 0.51626
 O1143 O 0.01771 0.50137 0.53555
 O1144 O 0.01637 0.47653 0.53135
 O1145 O 0.03527 0.50172 0.51777
 O1146 O 0.03042 0.47584 0.51576
 O1147 O 0.00110 0.51773 0.53551
 O1148 O -0.02497 0.51544 0.52948
 O1149 O 0.01838 0.53510 0.50169
 O1150 O 0.01339 0.53115 0.47666
 O1151 O -0.03680 0.48281 0.49860
 O1152 O -0.03187 0.48465 0.52326
 O1153 O -0.00168 0.46316 0.48293
 O1154 O 0.02333 0.46841 0.48552
 O1155 O -0.01759 0.49804 0.46340
 O1156 O -0.01366 0.52306 0.46831
 Zr1157 Zr -0.01658 0.50726 0.48293
 O1158 O -0.00468 0.52042 0.49525
 Zr1159 Zr 0.00726 0.48282 0.48360
 O1160 O 0.02042 0.49519 0.49542
 Zr1161 Zr -0.01710 0.48358 0.50748
 O1162 O -0.00480 0.49550 0.52063
 Zr1163 Zr 0.01610 0.51598 0.49196
 O1164 O 0.00427 0.50363 0.47860
 Zr1165 Zr -0.00798 0.51626 0.51604
 O1166 O -0.02144 0.50441 0.50380
 Zr1167 Zr 0.01601 0.49203 0.51623
 O1168 O 0.00369 0.47860 0.50444
 O1169 O -0.01332 0.48665 0.48687
 O1170 O 0.01266 0.51267 0.51267
 C1171 C -0.04215 0.48914 0.48837
 C1172 C -0.01092 0.48808 0.45797
 C1173 C -0.01169 0.45779 0.48956
 C1174 C 0.04083 0.51171 0.51125
 C1175 C 0.01204 0.54061 0.51179
 C1176 C 0.01126 0.51144 0.54097
 H1177 H -0.00681 0.53010 0.49313
 H1178 H -0.00705 0.49340 0.53027
 H1179 H -0.01914 0.48074 0.48108
 H1180 H 0.03009 0.49312 0.49325
 H1181 H 0.02742 0.51180 0.46849
 H1182 H 0.02922 0.48843 0.47002
 H1183 H -0.02256 0.50923 0.53710
 H1184 H -0.03702 0.49326 0.52186
 H1185 H 0.02136 0.53743 0.47713
 H1186 H -0.02061 0.52201 0.46097
 H1187 H 0.00785 0.47734 0.53675
 H1188 H -0.00798 0.46441 0.52309
 H1189 H -0.03783 0.52107 0.49092
 H1190 H -0.02788 0.53171 0.50845
 H1191 H 0.02143 0.46299 0.49387
 H1192 H 0.03753 0.47819 0.50895
 O1193 O 0.49893 -0.01821 0.46412
 O1194 O 0.52268 -0.01613 0.46866
 O1195 O 0.48185 -0.03612 0.49955
 O1196 O 0.48229 -0.03210 0.52246
 O1197 O 0.46356 -0.00088 0.48212
 O1198 O 0.46844 0.02329 0.48342
 O1199 O 0.51800 0.00180 0.53581
 O1200 O 0.51472 -0.02206 0.53253
 O1201 O 0.53546 0.01807 0.50144
 O1202 O 0.53107 0.01655 0.47659
 O1203 O 0.50133 0.03590 0.51800
 O1204 O 0.47619 0.03151 0.51633
 O1205 O 0.50148 0.01832 0.53559
 O1206 O 0.47586 0.01642 0.53085
 O1207 O 0.51793 0.03569 0.50164
 O1208 O 0.51552 0.03062 0.47589
 O1209 O 0.53516 0.00220 0.51852
 O1210 O 0.53110 -0.02294 0.51400
 O1211 O 0.48272 -0.00134 0.46370
 O1212 O 0.48420 0.02328 0.46848
 O1213 O 0.46328 -0.01719 0.49883
 O1214 O 0.46842 -0.01434 0.52377
 O1215 O 0.49824 -0.03635 0.48293
 O1216 O 0.52313 -0.03138 0.48663
 Zr1217 Zr 0.50730 -0.01675 0.48392
 O1218 O 0.52043 -0.00437 0.49575
 Zr1219 Zr 0.48292 -0.01621 0.50778
 O1220 O 0.49521 -0.00417 0.52084
 Zr1221 Zr 0.48334 0.00761 0.48337
 O1222 O 0.49530 0.02090 0.49547
 Zr1223 Zr 0.51601 -0.00752 0.51654
 O1224 O 0.50376 -0.02103 0.50478
 Zr1225 Zr 0.51608 0.01639 0.49223
 O1226 O 0.50414 0.00406 0.47903
 Zr1227 Zr 0.49192 0.01660 0.51630
 O1228 O 0.47851 0.00460 0.50417
 O1229 O 0.48666 -0.01298 0.48718
 O1230 O 0.51259 0.01314 0.51291
 C1231 C 0.48927 -0.01142 0.45830
 C1232 C 0.48838 -0.04185 0.48967
 C1233 C 0.45782 -0.01066 0.48880
 C1234 C 0.51163 0.01203 0.54110
 C1235 C 0.54072 0.01207 0.51186
 C1236 C 0.51159 0.04119 0.51174
 H1237 H 0.53009 -0.00663 0.49372
 H1238 H 0.49315 0.03053 0.49322
 H1239 H 0.48084 -0.01885 0.48135
 H1240 H 0.49318 -0.00628 0.53053
 H1241 H 0.51182 -0.03079 0.52825
 H1242 H 0.48849 -0.02940 0.53000
 H1243 H 0.50876 0.03780 0.47821
 H1244 H 0.49314 0.02232 0.46380
 H1245 H 0.53748 -0.02232 0.52187
 H1246 H 0.52227 -0.03843 0.47936
 H1247 H 0.47754 0.03744 0.50824
 H1248 H 0.46420 0.02316 0.49262
 H1249 H 0.52226 -0.00691 0.46449
 H1250 H 0.53664 0.00815 0.47758
 H1251 H 0.46311 -0.00590 0.52194
 H1252 H 0.47785 0.00914 0.53759
 O1253 O 0.50105 0.53618 0.01785
 O1254 O 0.47693 0.53214 0.01562
 O1255 O 0.51718 0.50105 0.03628
 O1256 O 0.51675 0.47811 0.03273
 O1257 O 0.53598 0.51755 0.00074
 O1258 O 0.53123 0.51597 -0.02332
 O1259 O 0.48104 0.46436 -0.00098
 O1260 O 0.48397 0.46835 0.02279
 O1261 O 0.46422 0.49833 -0.01865
 O1262 O 0.46720 0.52167 -0.01781
 O1263 O 0.49841 0.48128 -0.03550
 O1264 O 0.52327 0.48250 -0.03087
 O1265 O 0.49764 0.46404 -0.01740
 O1266 O 0.52342 0.46861 -0.01518
 O1267 O 0.48230 0.49812 -0.03603
 O1268 O 0.48492 0.52435 -0.03037
 O1269 O 0.46405 0.48180 -0.00222
 O1270 O 0.46771 0.48709 0.02276
 O1271 O 0.51719 0.53619 0.00093
 O1272 O 0.51554 0.53097 -0.02376
 O1273 O 0.53598 0.50119 0.01739
 O1274 O 0.53041 0.47613 0.01511
 O1275 O 0.50089 0.51779 0.03605
 O1276 O 0.47595 0.51427 0.03070
 Zr1277 Zr 0.49209 0.51662 0.01636
 O1278 O 0.47898 0.50470 0.00403
 Zr1279 Zr 0.51621 0.49245 0.01654
 O1280 O 0.50386 0.47925 0.00473
 Zr1281 Zr 0.51620 0.51640 -0.00776
 O1282 O 0.50435 0.50403 -0.02091
 Zr1283 Zr 0.48306 0.48391 0.00774
 O1284 O 0.49535 0.49580 0.02111
 Zr1285 Zr 0.48356 0.50758 -0.01673
 O1286 O 0.49538 0.52108 -0.00452
 Zr1287 Zr 0.50745 0.48326 -0.01608
 O1288 O 0.52085 0.49560 -0.00428
 O1289 O 0.51271 0.51300 0.01285
 O1290 O 0.48678 0.48694 -0.01297
 C1291 C 0.51081 0.54177 0.01101
 C1292 C 0.51065 0.51108 0.04176
 C1293 C 0.54160 0.51099 0.01065
 C1294 C 0.48743 0.45875 -0.01100
 C1295 C 0.45874 0.48814 -0.01242
 C1296 C 0.48852 0.48778 -0.04120
 H1297 H 0.46930 0.50699 0.00597
 H1298 H 0.50664 0.50608 -0.03055
 H1299 H 0.51861 0.51880 0.01867
 H1300 H 0.50575 0.46960 0.00712
 H1301 H 0.48665 0.47290 0.03145
 H1302 H 0.50998 0.47092 0.03050
 H1303 H 0.49111 0.52167 -0.03793
 H1304 H 0.50707 0.53637 -0.02244
 H1305 H 0.46132 0.47921 0.02233
 H1306 H 0.47691 0.52141 0.03786
 H1307 H 0.52246 0.49077 -0.03664
 H1308 H 0.53539 0.50673 -0.02300
 H1309 H 0.47884 0.53786 0.00747
 H1310 H 0.46737 0.52688 -0.00915
 H1311 H 0.53604 0.47785 0.00687
 H1312 H 0.52106 0.46187 -0.00800
 O1313 O 0.78636 0.25135 0.48213
 O1314 O 0.78229 0.22720 0.48410
 O1315 O 0.75107 0.26758 0.46386
 O1316 O 0.72817 0.26708 0.46746
 O1317 O 0.76777 0.28612 0.49943
 O1318 O 0.76621 0.28130 0.52349
 O1319 O 0.71457 0.23122 0.50082
 O1320 O 0.71851 0.23428 0.47710
 O1321 O 0.74864 0.21424 0.51829
 O1322 O 0.77202 0.21734 0.51757
 O1323 O 0.73156 0.24835 0.53552
 O1324 O 0.73271 0.27313 0.53117
 O1325 O 0.71430 0.24771 0.51739
 O1326 O 0.71896 0.27356 0.51532
 O1327 O 0.74832 0.23216 0.53586
 O1328 O 0.77458 0.23491 0.53029
 O1329 O 0.73202 0.21421 0.50192
 O1330 O 0.73723 0.21801 0.47699
 O1331 O 0.78640 0.26736 0.49919
 O1332 O 0.78119 0.26557 0.52386
 O1333 O 0.75132 0.28619 0.48284
 O1334 O 0.72628 0.28067 0.48519
 O1335 O 0.76787 0.25136 0.46392
 O1336 O 0.76438 0.22634 0.46904
 Zr1337 Zr 0.76679 0.24237 0.48353
 O1338 O 0.75490 0.22918 0.49578
 Zr1339 Zr 0.74257 0.26646 0.48361
 O1340 O 0.72943 0.25404 0.49533
 Zr1341 Zr 0.76662 0.26633 0.50786
 O1342 O 0.75429 0.25438 0.52094
 Zr1343 Zr 0.73410 0.23328 0.49213
 O1344 O 0.74594 0.24565 0.47884
 Zr1345 Zr 0.75783 0.23363 0.51658
 O1346 O 0.77128 0.24552 0.50444
 Zr1347 Zr 0.73351 0.25751 0.51616
 O1348 O 0.74581 0.27099 0.50445
 O1349 O 0.76315 0.26296 0.48723
 O1350 O 0.73718 0.23686 0.51286
 C1351 C 0.79198 0.26104 0.48907
 C1352 C 0.76109 0.26114 0.45830
 C1353 C 0.76118 0.29176 0.48954
 C1354 C 0.70899 0.23755 0.51090
 C1355 C 0.73842 0.20882 0.51205
 C1356 C 0.73801 0.23837 0.54110
 H1357 H 0.75719 0.21951 0.49375
 H1358 H 0.75637 0.25660 0.53059
 H1359 H 0.76895 0.26887 0.48144
 H1360 H 0.71977 0.25595 0.49297
 H1361 H 0.72303 0.23704 0.46846
 H1362 H 0.72095 0.26036 0.46969
 H1363 H 0.77185 0.24097 0.53793
 H1364 H 0.78656 0.25708 0.52251
 H1365 H 0.72934 0.21163 0.47735
 H1366 H 0.77149 0.22738 0.46187
 H1367 H 0.74121 0.27256 0.53665
 H1368 H 0.75702 0.28557 0.52310
 H1369 H 0.78797 0.22900 0.49231
 H1370 H 0.77690 0.21730 0.50873
 H1371 H 0.72809 0.28631 0.49343
 H1372 H 0.71206 0.27116 0.50830
 O1373 O 0.71350 0.73236 0.00093
 O1374 O 0.71773 0.73495 -0.02286
 O1375 O 0.74874 0.71359 0.01719
 O1376 O 0.77170 0.71716 0.01673
 O1377 O 0.73230 0.74903 0.03636
 O1378 O 0.73383 0.77318 0.03172
 O1379 O 0.78538 0.75123 -0.01848
 O1380 O 0.78161 0.72744 -0.01571
 O1381 O 0.75119 0.76859 -0.03544
 O1382 O 0.72623 0.76735 -0.03081
 O1383 O 0.76842 0.78549 -0.00124
 O1384 O 0.76677 0.78071 0.02395
 O1385 O 0.78564 0.76750 -0.00170
 O1386 O 0.78117 0.76553 0.02377
 O1387 O 0.75184 0.78590 -0.01764
 O1388 O 0.72608 0.78138 -0.01516
 O1389 O 0.76796 0.75238 -0.03553
 O1390 O 0.76287 0.72725 -0.03189
 O1391 O 0.71359 0.74895 0.01745
 O1392 O 0.71869 0.77355 0.01609
 O1393 O 0.74864 0.73234 0.03618
 O1394 O 0.77355 0.73465 0.03078
 O1395 O 0.73197 0.71394 0.00093
 O1396 O 0.73538 0.71929 -0.02384
 Zr1397 Zr 0.73319 0.73369 -0.00770
 O1398 O 0.74514 0.74601 -0.02074
 Zr1399 Zr 0.75733 0.73336 0.01644
 O1400 O 0.77049 0.74530 0.00424
 Zr1401 Zr 0.73337 0.75765 0.01665
 O1402 O 0.74561 0.77088 0.00479
 Zr1403 Zr 0.76591 0.74236 -0.01657
 O1404 O 0.75401 0.72891 -0.00444
 Zr1405 Zr 0.74208 0.76676 -0.01603
 O1406 O 0.72875 0.75453 -0.00416
 Zr1407 Zr 0.76639 0.76611 0.00791
 O1408 O 0.75417 0.75415 0.02123
 O1409 O 0.73676 0.73704 0.01297
 O1410 O 0.76273 0.76304 -0.01277
 C1411 C 0.70795 0.73904 0.01083
 C1412 C 0.73872 0.70814 0.01061
 C1413 C 0.73888 0.73907 0.04188
 C1414 C 0.79094 0.76122 -0.01197
 C1415 C 0.76147 0.76248 -0.04087
 C1416 C 0.76214 0.79107 -0.01133
 H1417 H 0.74298 0.74393 -0.03042
 H1418 H 0.74358 0.78052 0.00712
 H1419 H 0.73093 0.73119 0.01879
 H1420 H 0.78015 0.74295 0.00616
 H1421 H 0.77717 0.71877 -0.01292
 H1422 H 0.77914 0.71970 0.01036
 H1423 H 0.72849 0.78824 -0.00811
 H1424 H 0.71389 0.77273 0.00720
 H1425 H 0.77067 0.72783 -0.03836
 H1426 H 0.72791 0.71244 -0.02307
 H1427 H 0.75903 0.78708 0.02253
 H1428 H 0.74310 0.77290 0.03582
 H1429 H 0.71370 0.74422 -0.02214
 H1430 H 0.72718 0.75916 -0.03668
 H1431 H 0.77201 0.74309 0.03619
 H1432 H 0.78752 0.75789 0.02181
 O1433 O 1.00099 0.21326 0.23196
 O1434 O 0.97692 0.21727 0.23421
 O1435 O 1.01715 0.24842 0.21361
 O1436 O 1.01675 0.27136 0.21719
 O1437 O 1.03595 0.23187 0.24913
 O1438 O 1.03121 0.23341 0.27319
 O1439 O 0.98107 0.28505 0.25085
 O1440 O 0.98399 0.28111 0.22711
 O1441 O 0.96418 0.25100 0.26840
 O1442 O 0.96730 0.22758 0.26770
 O1443 O 0.99839 0.26811 0.28539
 O1444 O 1.02326 0.26686 0.28080
 O1445 O 0.99768 0.28535 0.26728
 O1446 O 1.02344 0.28076 0.26513
 O1447 O 0.98223 0.25131 0.28587
 O1448 O 0.98491 0.22505 0.28023
 O1449 O 0.96406 0.26759 0.25202
 O1450 O 0.96773 0.26235 0.22706
 O1451 O 1.01715 0.21323 0.24888
 O1452 O 1.01549 0.21840 0.27359
 O1453 O 1.03595 0.24827 0.23251
 O1454 O 1.03041 0.27331 0.23482
 O1455 O 1.00085 0.23168 0.21379
 O1456 O 0.97590 0.23518 0.21913
 Zr1457 Zr 0.99205 0.23282 0.23347
 O1458 O 0.97896 0.24473 0.24580
 Zr1459 Zr 1.01619 0.25700 0.23336
 O1460 O 1.00386 0.27017 0.24517
 Zr1461 Zr 1.01617 0.23300 0.25762
 O1462 O 1.00433 0.24535 0.27078
 Zr1463 Zr 0.98307 0.26551 0.24212
 O1464 O 0.99534 0.25365 0.22875
 Zr1465 Zr 0.98355 0.24181 0.26657
 O1466 O 0.99535 0.22834 0.25435
 Zr1467 Zr 1.00745 0.26613 0.26599
 O1468 O 1.02083 0.25381 0.25418
 O1469 O 1.01268 0.23644 0.23701
 O1470 O 0.98678 0.26246 0.26284
 C1471 C 1.01075 0.20767 0.23879
 C1472 C 1.01062 0.23840 0.20811
 C1473 C 1.04157 0.23845 0.23923
 C1474 C 0.98747 0.29065 0.26088
 C1475 C 0.95872 0.26120 0.26218
 C1476 C 0.98847 0.26165 0.29106
 H1477 H 0.96928 0.24244 0.24384
 H1478 H 1.00662 0.24329 0.28042
 H1479 H 1.01857 0.23065 0.23119
 H1480 H 1.00577 0.27983 0.24280
 H1481 H 0.98666 0.27659 0.21844
 H1482 H 1.00999 0.27855 0.21942
 H1483 H 0.99104 0.22777 0.28783
 H1484 H 1.00701 0.21300 0.27224
 H1485 H 0.96134 0.27023 0.22747
 H1486 H 0.97686 0.22803 0.21197
 H1487 H 1.02243 0.25859 0.28657
 H1488 H 1.03538 0.24265 0.27289
 H1489 H 0.97876 0.21165 0.24244
 H1490 H 0.96692 0.22295 0.25872
 H1491 H 1.03603 0.27158 0.24308
 H1492 H 1.02110 0.28752 0.25797
 O1493 O 0.78590 0.99891 0.76782
 O1494 O 0.78147 1.02276 0.76551
 O1495 O 0.75059 0.98235 0.78640
 O1496 O 0.72758 0.98293 0.78266
 O1497 O 0.76746 0.96353 0.75105
 O1498 O 0.76564 0.96834 0.72674
 O1499 O 0.71407 1.01837 0.74865
 O1500 O 0.71744 1.01492 0.77244
 O1501 O 0.74811 1.03549 0.73200
 O1502 O 0.77328 1.03091 0.73348
 O1503 O 0.73161 1.00112 0.71432
 O1504 O 0.73374 0.97549 0.71979
 O1505 O 0.71416 1.00207 0.73190
 O1506 O 0.71637 0.97846 0.73427
 O1507 O 0.74790 1.01782 0.71436
 O1508 O 0.77345 1.01574 0.71904
 O1509 O 0.73142 1.03539 0.74828
 O1510 O 0.73622 1.03124 0.77328
 O1511 O 0.78591 0.98253 0.75108
 O1512 O 0.78085 0.98386 0.72662
 O1513 O 0.75129 0.96362 0.76786
 O1514 O 0.72594 0.96871 0.76553
 O1515 O 0.76739 0.99859 0.78624
 O1516 O 0.76385 1.02339 0.78119
 Zr1517 Zr 0.76614 1.00745 0.76659
 O1518 O 0.75416 1.02056 0.75439
 Zr1519 Zr 0.74210 0.98316 0.76661
 O1520 O 0.72899 0.99538 0.75459
 Zr1521 Zr 0.76609 0.98326 0.74243
 O1522 O 0.75399 0.99532 0.72924
 Zr1523 Zr 0.73339 1.01620 0.75784
 O1524 O 0.74531 1.00403 0.77124
 Zr1525 Zr 0.75742 1.01612 0.73361
 O1526 O 0.77067 1.00407 0.74575
 Zr1527 Zr 0.73319 0.99208 0.73378
 O1528 O 0.74524 0.97851 0.74576
 O1529 O 0.76265 0.98681 0.76303
 O1530 O 0.73678 1.01273 0.73715
 C1531 C 0.79152 0.98911 0.76104
 C1532 C 0.76062 0.98884 0.79191
 C1533 C 0.76110 0.95801 0.76113
 C1534 C 0.70875 1.01223 0.73830
 C1535 C 0.73787 1.04086 0.73825
 C1536 C 0.73784 1.01134 0.70891
 H1537 H 0.75625 1.03023 0.75661
 H1538 H 0.75613 0.99308 0.71962
 H1539 H 0.76856 0.98105 0.76886
 H1540 H 0.71929 0.99330 0.75665
 H1541 H 0.72178 1.01228 0.78121
 H1542 H 0.72000 0.98905 0.77992
 H1543 H 0.77145 1.00835 0.71240
 H1544 H 0.78542 0.99289 0.72730
 H1545 H 0.72832 1.03760 0.77284
 H1546 H 0.77134 1.02261 0.78801
 H1547 H 0.74074 0.97757 0.71278
 H1548 H 0.75669 0.96364 0.72748
 H1549 H 0.78559 1.02211 0.75629
 H1550 H 0.77195 1.03695 0.74150
 H1551 H 0.72868 0.96156 0.75889
 H1552 H 0.71915 0.97066 0.74007
 O1553 O 0.71383 0.51838 0.24879
 O1554 O 0.71799 0.51604 0.27296
 O1555 O 0.74914 0.53661 0.23273
 O1556 O 0.77201 0.53288 0.23307
 O1557 O 0.73228 0.50121 0.21375
 O1558 O 0.73357 0.47715 0.21838
 O1559 O 0.78549 0.49882 0.26861
 O1560 O 0.78185 0.52266 0.26570
 O1561 O 0.75129 0.48163 0.28544
 O1562 O 0.72807 0.48247 0.28238
 O1563 O 0.76842 0.46464 0.25121
 O1564 O 0.76686 0.46935 0.22618
 O1565 O 0.78568 0.48253 0.25185
 O1566 O 0.78113 0.48477 0.22620
 O1567 O 0.75175 0.46426 0.26748
 O1568 O 0.72546 0.46978 0.26447
 O1569 O 0.76800 0.49792 0.28560
 O1570 O 0.76308 0.52296 0.28189
 O1571 O 0.71364 0.50149 0.23259
 O1572 O 0.71869 0.47672 0.23416
 O1573 O 0.74876 0.51778 0.21382
 O1574 O 0.77374 0.51528 0.21925
 O1575 O 0.73243 0.53645 0.24903
 O1576 O 0.73592 0.53101 0.27389
 Zr1577 Zr 0.73340 0.51671 0.25770
 O1578 O 0.74526 0.50425 0.27070
 Zr1579 Zr 0.75753 0.51678 0.23354
 O1580 O 0.77066 0.50483 0.24579
 Zr1581 Zr 0.73336 0.49264 0.23349
 O1582 O 0.74565 0.47934 0.24526
 Zr1583 Zr 0.76607 0.50783 0.26659
 O1584 O 0.75426 0.52132 0.25441
 Zr1585 Zr 0.74218 0.48351 0.26605
 O1586 O 0.72876 0.49586 0.25433
 Zr1587 Zr 0.76645 0.48404 0.24212
 O1588 O 0.75418 0.49599 0.22883
 O1589 O 0.73695 0.51324 0.23706
 O1590 O 0.76283 0.48715 0.26279
 C1591 C 0.70815 0.51159 0.23904
 C1592 C 0.73919 0.54215 0.23932
 C1593 C 0.73890 0.51111 0.20817
 C1594 C 0.79101 0.48879 0.26214
 C1595 C 0.76151 0.48782 0.29092
 C1596 C 0.76206 0.45906 0.26124
 H1597 H 0.74297 0.50619 0.28038
 H1598 H 0.74353 0.46971 0.24295
 H1599 H 0.73119 0.51913 0.23121
 H1600 H 0.78033 0.50714 0.24389
 H1601 H 0.77745 0.53137 0.26294
 H1602 H 0.77932 0.53046 0.23963
 H1603 H 0.72837 0.46200 0.25866
 H1604 H 0.71330 0.47808 0.24263
 H1605 H 0.77093 0.52245 0.28831
 H1606 H 0.72882 0.53822 0.27299
 H1607 H 0.75887 0.46323 0.22739
 H1608 H 0.74288 0.47722 0.21438
 H1609 H 0.71204 0.50808 0.27092
 H1610 H 0.72224 0.49068 0.28161
 H1611 H 0.77201 0.50695 0.21372
 H1612 H 0.78781 0.49205 0.22844
 O1613 O 0.50120 0.21364 0.73186
 O1614 O 0.47722 0.21743 0.73439
 O1615 O 0.51708 0.24897 0.71359
 O1616 O 0.51669 0.27186 0.71725
 O1617 O 0.53610 0.23241 0.74906
 O1618 O 0.53136 0.23383 0.77315
 O1619 O 0.48104 0.28533 0.75092
 O1620 O 0.48384 0.28143 0.72724
 O1621 O 0.46418 0.25105 0.76841
 O1622 O 0.46780 0.22740 0.76782
 O1623 O 0.49856 0.26836 0.78549
 O1624 O 0.52321 0.26739 0.78091
 O1625 O 0.49770 0.28568 0.76730
 O1626 O 0.52353 0.28103 0.76504
 O1627 O 0.48235 0.25160 0.78594
 O1628 O 0.48510 0.22536 0.78036
 O1629 O 0.46401 0.26771 0.75210
 O1630 O 0.46771 0.26260 0.72715
 O1631 O 0.51747 0.21365 0.74868
 O1632 O 0.51570 0.21869 0.77345
 O1633 O 0.53597 0.24881 0.73245
 O1634 O 0.53030 0.27384 0.73483
 O1635 O 0.50084 0.23216 0.71377
 O1636 O 0.47589 0.23538 0.71927
 Zr1637 Zr 0.49216 0.23315 0.73350
 O1638 O 0.47904 0.24500 0.74586
 Zr1639 Zr 0.51618 0.25745 0.73338
 O1640 O 0.50382 0.27054 0.74523
 Zr1641 Zr 0.51634 0.23338 0.75757
 O1642 O 0.50447 0.24566 0.77077
 Zr1643 Zr 0.48305 0.26580 0.74222
 O1644 O 0.49534 0.25401 0.72880
 Zr1645 Zr 0.48367 0.24206 0.76663
 O1646 O 0.49552 0.22868 0.75436
 Zr1647 Zr 0.50748 0.26647 0.76602
 O1648 O 0.52090 0.25422 0.75417
 O1649 O 0.51278 0.23686 0.73697
 O1650 O 0.48680 0.26274 0.76293
 C1651 C 0.51106 0.20809 0.73858
 C1652 C 0.51056 0.23895 0.70807
 C1653 C 0.54166 0.23903 0.73916
 C1654 C 0.48749 0.29097 0.76089
 C1655 C 0.45866 0.26122 0.76218
 C1656 C 0.48866 0.26188 0.79118
 H1657 H 0.46937 0.24271 0.74386
 H1658 H 0.50679 0.24360 0.78040
 H1659 H 0.51868 0.23114 0.73110
 H1660 H 0.50569 0.28020 0.74286
 H1661 H 0.48651 0.27695 0.71854
 H1662 H 0.50980 0.27894 0.71943
 H1663 H 0.49127 0.22810 0.78791
 H1664 H 0.50723 0.21328 0.77208
 H1665 H 0.46128 0.27044 0.72758
 H1666 H 0.47685 0.22822 0.71212
 H1667 H 0.52278 0.25885 0.78632
 H1668 H 0.53562 0.24302 0.77276
 H1669 H 0.47890 0.21219 0.74291
 H1670 H 0.46598 0.22431 0.75836
 H1671 H 0.53607 0.27205 0.74298
 H1672 H 0.52108 0.28791 0.75804
 O1673 O 0.28596 0.75134 0.48176
 O1674 O 0.28140 0.72750 0.48379
 O1675 O 0.25053 0.76829 0.46367
 O1676 O 0.22759 0.76788 0.46763
 O1677 O 0.26790 0.78661 0.49914
 O1678 O 0.26633 0.78152 0.52337
 O1679 O 0.21410 0.73225 0.50114
 O1680 O 0.21743 0.73573 0.47743
 O1681 O 0.24830 0.71453 0.51744
 O1682 O 0.27344 0.71900 0.51583
 O1683 O 0.23213 0.74872 0.53565
 O1684 O 0.23447 0.77445 0.53055
 O1685 O 0.21445 0.74836 0.51807
 O1686 O 0.21697 0.77188 0.51622
 O1687 O 0.24838 0.73201 0.53532
 O1688 O 0.27388 0.73401 0.53042
 O1689 O 0.23137 0.71497 0.50139
 O1690 O 0.23602 0.71932 0.47638
 O1691 O 0.28623 0.76750 0.49870
 O1692 O 0.28140 0.76588 0.52319
 O1693 O 0.25158 0.78681 0.48246
 O1694 O 0.22624 0.78186 0.48495
 O1695 O 0.26722 0.75194 0.46350
 O1696 O 0.26360 0.72711 0.46833
 Zr1697 Zr 0.26615 0.74289 0.48306
 O1698 O 0.25419 0.72970 0.49520
 Zr1699 Zr 0.24228 0.76732 0.48353
 O1700 O 0.22922 0.75504 0.49551
 Zr1701 Zr 0.26650 0.76679 0.50751
 O1702 O 0.25444 0.75464 0.52064
 Zr1703 Zr 0.23343 0.73423 0.49198
 O1704 O 0.24530 0.74650 0.47863
 Zr1705 Zr 0.25768 0.73388 0.51600
 O1706 O 0.27090 0.74599 0.50389
 Zr1707 Zr 0.23363 0.75807 0.51632
 O1708 O 0.24566 0.77170 0.50441
 O1709 O 0.26285 0.76351 0.48689
 O1710 O 0.23702 0.73742 0.51269
 C1711 C 0.29172 0.76101 0.48862
 C1712 C 0.26045 0.76178 0.45799
 C1713 C 0.26146 0.79230 0.48919
 C1714 C 0.20886 0.73839 0.51153
 C1715 C 0.23793 0.70931 0.51126
 C1716 C 0.23840 0.73845 0.54091
 H1717 H 0.25620 0.72005 0.49285
 H1718 H 0.25669 0.75675 0.53028
 H1719 H 0.26874 0.76931 0.48107
 H1720 H 0.21952 0.75723 0.49354
 H1721 H 0.22174 0.73856 0.46870
 H1722 H 0.21998 0.76178 0.47036
 H1723 H 0.27202 0.74137 0.53713
 H1724 H 0.28595 0.75687 0.52231
 H1725 H 0.22810 0.71298 0.47682
 H1726 H 0.27099 0.72795 0.46141
 H1727 H 0.24149 0.77219 0.53749
 H1728 H 0.25739 0.78626 0.52280
 H1729 H 0.28561 0.72799 0.49300
 H1730 H 0.27206 0.71312 0.50769
 H1731 H 0.22911 0.78892 0.49165
 H1732 H 0.21974 0.77970 0.51045
 O1733 O 0.25118 0.26826 0.96397
 O1734 O 0.22699 0.26645 0.96840
 O1735 O 0.26803 0.28598 0.99923
 O1736 O 0.26729 0.28218 1.02215
 O1737 O 0.28623 0.25071 0.98205
 O1738 O 0.28131 0.22659 0.98317
 O1739 O 0.23168 0.24834 1.03553
 O1740 O 0.23500 0.27219 1.03210
 O1741 O 0.21448 0.23150 1.00153
 O1742 O 0.21706 0.23297 0.97829
 O1743 O 0.24876 0.21397 1.01774
 O1744 O 0.27361 0.21854 1.01651
 O1745 O 0.24809 0.23172 1.03536
 O1746 O 0.27388 0.23390 1.03079
 O1747 O 0.23236 0.21394 1.00116
 O1748 O 0.23477 0.21996 0.97510
 O1749 O 0.21455 0.24783 1.01820
 O1750 O 0.21856 0.27283 1.01353
 O1751 O 0.26719 0.25122 0.96351
 O1752 O 0.26552 0.22649 0.96834
 O1753 O 0.28650 0.26700 0.99880
 O1754 O 0.28122 0.26434 1.02368
 O1755 O 0.25159 0.28618 0.98263
 O1756 O 0.22660 0.28115 0.98652
 Zr1757 Zr 0.24248 0.26661 0.98361
 O1758 O 0.22939 0.25418 0.99540
 Zr1759 Zr 0.26680 0.26615 1.00759
 O1760 O 0.25449 0.25419 1.02064
 Zr1761 Zr 0.26639 0.24226 0.98317
 O1762 O 0.25451 0.22899 0.99535
 Zr1763 Zr 0.23370 0.25749 1.01621
 O1764 O 0.24598 0.27098 1.00448
 Zr1765 Zr 0.23372 0.23342 0.99208
 O1766 O 0.24553 0.24576 0.97873
 Zr1767 Zr 0.25785 0.23341 1.01618
 O1768 O 0.27123 0.24534 1.00398
 O1769 O 0.26310 0.26284 0.98700
 O1770 O 0.23719 0.23679 1.01274
 C1771 C 0.26078 0.26140 0.95815
 C1772 C 0.26152 0.29166 0.98931
 C1773 C 0.29198 0.26044 0.98880
 C1774 C 0.23797 0.23810 1.04085
 C1775 C 0.20911 0.23773 1.01178
 C1776 C 0.23872 0.20849 1.01127
 H1777 H 0.21970 0.25625 0.99322
 H1778 H 0.25671 0.21937 0.99309
 H1779 H 0.26900 0.26865 0.98121
 H1780 H 0.25649 0.25635 1.03033
 H1781 H 0.23787 0.28089 1.02775
 H1782 H 0.26123 0.27944 1.02978
 H1783 H 0.24097 0.21235 0.97757
 H1784 H 0.25691 0.22784 0.96315
 H1785 H 0.21224 0.27235 1.02145
 H1786 H 0.22763 0.28852 0.97960
 H1787 H 0.27277 0.21299 1.00809
 H1788 H 0.28564 0.22678 0.99233
 H1789 H 0.22878 0.25854 0.96232
 H1790 H 0.21832 0.24084 0.97209
 H1791 H 0.28659 0.25594 1.02188
 H1792 H 0.27159 0.24093 1.03771
 C1793 C 0.27791 0.42426 0.77773
 C1794 C 0.27761 0.42302 0.79218
 C1795 C 0.28434 0.41186 0.79864
 C1796 C 0.29112 0.40188 0.79060
 C1797 C 0.29155 0.40320 0.77617
 C1798 C 0.28491 0.41443 0.76972
 C1799 C 0.28548 0.41555 0.75529
 C1800 C 0.29246 0.40587 0.74745
 C1801 C 0.29899 0.39491 0.75376
 C1802 C 0.29856 0.39354 0.76795
 C1803 C 0.28415 0.41098 0.81310
 C1804 C 0.27743 0.42082 0.82096
 C1805 C 0.27071 0.43164 0.81464
 C1806 C 0.27076 0.43280 0.80042
 C1807 C 0.29744 0.39011 0.79711
 C1808 C 0.30259 0.38023 0.80241
 C1809 C 0.27157 0.43601 0.77123
 C1810 C 0.26666 0.44617 0.76624
 H1811 H 0.28055 0.42389 0.74992
 H1812 H 0.29280 0.40688 0.73643
 H1813 H 0.30442 0.38744 0.74764
 H1814 H 0.30384 0.38487 0.77239
 H1815 H 0.28922 0.40273 0.81848
 H1816 H 0.27740 0.42002 0.83201
 H1817 H 0.26542 0.43918 0.82078
 H1818 H 0.26546 0.44146 0.79601
 C1819 C 0.27833 -0.07618 0.27742
 C1820 C 0.27471 -0.08973 0.27381
 C1821 C 0.28116 -0.10095 0.28044
 C1822 C 0.29120 -0.09852 0.29063
 C1823 C 0.29484 -0.08495 0.29423
 C1824 C 0.28838 -0.07373 0.28762
 C1825 C 0.29216 -0.06024 0.29140
 C1826 C 0.30207 -0.05791 0.30141
 C1827 C 0.30841 -0.06889 0.30786
 C1828 C 0.30487 -0.08227 0.30436
 C1829 C 0.27736 -0.11443 0.27667
 C1830 C 0.26749 -0.11675 0.26662
 C1831 C 0.26120 -0.10576 0.26012
 C1832 C 0.26472 -0.09239 0.26364
 C1833 C 0.29775 -0.11001 0.29737
 C1834 C 0.30306 -0.11970 0.30282
 C1835 C 0.27175 -0.06470 0.27073
 C1836 C 0.26670 -0.05468 0.26565
 H1837 H 0.28753 -0.05135 0.28669
 H1838 H 0.30485 -0.04753 0.30416
 H1839 H 0.31610 -0.06702 0.31563
 H1840 H 0.31008 -0.09048 0.30968
 H1841 H 0.28197 -0.12331 0.28142
 H1842 H 0.26472 -0.12713 0.26385
 H1843 H 0.25354 -0.10762 0.25232
 H1844 H 0.25955 -0.08417 0.25831
 C1845 C 0.77822 0.92396 0.77825
 C1846 C 0.78832 0.92649 0.78837
 C1847 C 0.79483 0.91533 0.79508
 C1848 C 0.79120 0.90171 0.79163
 C1849 C 0.78110 0.89920 0.78151
 C1850 C 0.77460 0.91036 0.77480
 C1851 C 0.76456 0.90759 0.76471
 C1852 C 0.76102 0.89418 0.76136
 C1853 C 0.76735 0.88326 0.76793
 C1854 C 0.77728 0.88568 0.77790
 C1855 C 0.80489 0.91811 0.80515
 C1856 C 0.80841 0.93153 0.80852
 C1857 C 0.80206 0.94244 0.80197
 C1858 C 0.79212 0.94002 0.79201
 C1859 C 0.79788 0.89025 0.79838
 C1860 C 0.80331 0.88057 0.80379
 C1861 C 0.77155 0.93540 0.77149
 C1862 C 0.76639 0.94536 0.76633
 H1863 H 0.75936 0.91575 0.75932
 H1864 H 0.75331 0.89224 0.75362
 H1865 H 0.76455 0.87286 0.76530
 H1866 H 0.78190 0.87684 0.78271
 H1867 H 0.81011 0.90995 0.81053
 H1868 H 0.81612 0.93347 0.81625
 H1869 H 0.80483 0.95285 0.80462
 H1870 H 0.78748 0.94886 0.78722
 C1871 C 0.47167 0.82638 0.27710
 C1872 C 0.45747 0.82630 0.28008
 C1873 C 0.45145 0.83763 0.28696
 C1874 C 0.45964 0.84899 0.29073
 C1875 C 0.47386 0.84899 0.28790
 C1876 C 0.47989 0.83766 0.28103
 C1877 C 0.49413 0.83786 0.27835
 C1878 C 0.50220 0.84893 0.28238
 C1879 C 0.49631 0.86001 0.28910
 C1880 C 0.48230 0.86010 0.29185
 C1881 C 0.43726 0.83728 0.28994
 C1882 C 0.42924 0.82609 0.28616
 C1883 C 0.43511 0.81507 0.27936
 C1884 C 0.44906 0.81507 0.27638
 C1885 C 0.45339 0.86077 0.29728
 C1886 C 0.44815 0.87062 0.30254
 C1887 C 0.47789 0.81452 0.27069
 C1888 C 0.48274 0.80428 0.26581
 H1889 H 0.49917 0.82948 0.27315
 H1890 H 0.51308 0.84891 0.28027
 H1891 H 0.50262 0.86858 0.29223
 H1892 H 0.47820 0.86893 0.29714
 H1893 H 0.43223 0.84562 0.29521
 H1894 H 0.41839 0.82599 0.28848
 H1895 H 0.42880 0.80651 0.27630
 H1896 H 0.45314 0.80622 0.27111
 C1897 C -0.02887 0.82582 0.77751
 C1898 C -0.04332 0.82714 0.77752
 C1899 C -0.04958 0.83827 0.78452
 C1900 C -0.04135 0.84811 0.79130
 C1901 C -0.02691 0.84671 0.79140
 C1902 C -0.02066 0.83554 0.78447
 C1903 C -0.00622 0.83433 0.78473
 C1904 C 0.00182 0.84387 0.79168
 C1905 C -0.00429 0.85478 0.79848
 C1906 C -0.01848 0.85625 0.79836
 C1907 C -0.06404 0.83924 0.78459
 C1908 C -0.07209 0.82951 0.77791
 C1909 C -0.06597 0.81872 0.77097
 C1910 C -0.05176 0.81748 0.77074
 C1911 C -0.04770 0.85982 0.79794
 C1912 C -0.05296 0.86963 0.80329
 C1913 C -0.02255 0.81408 0.77094
 C1914 C -0.01760 0.80395 0.76592
 H1915 H -0.00099 0.82602 0.77958
 H1916 H 0.01286 0.84278 0.79180
 H1917 H 0.00201 0.86215 0.80388
 H1918 H -0.02276 0.86489 0.80382
 H1919 H -0.06928 0.84748 0.78983
 H1920 H -0.08315 0.83038 0.77808
 H1921 H -0.07225 0.81127 0.76572
 H1922 H -0.04749 0.80885 0.76526
 C1923 C -0.02857 -0.07621 -0.02779
 C1924 C -0.02044 -0.08595 -0.03479
 C1925 C -0.02680 -0.09708 -0.04169
 C1926 C -0.04124 -0.09839 -0.04153
 C1927 C -0.04939 -0.08849 -0.03475
 C1928 C -0.04302 -0.07741 -0.02778
 C1929 C -0.05137 -0.06767 -0.02100
 C1930 C -0.06559 -0.06882 -0.02120
 C1931 C -0.07182 -0.07959 -0.02812
 C1932 C -0.06386 -0.08937 -0.03480
 C1933 C -0.01847 -0.10666 -0.04869
 C1934 C -0.00427 -0.10526 -0.04887
 C1935 C 0.00195 -0.09438 -0.04211
 C1936 C -0.00599 -0.08481 -0.03512
 C1937 C -0.04769 -0.11006 -0.04810
 C1938 C -0.05302 -0.11984 -0.05341
 C1939 C -0.02215 -0.06454 -0.02121
 C1940 C -0.01717 -0.05444 -0.01620
 H1941 H -0.04702 -0.05906 -0.01554
 H1942 H -0.07181 -0.06132 -0.01595
 H1943 H -0.08288 -0.08039 -0.02827
 H1944 H -0.06917 -0.09758 -0.04003
 H1945 H -0.02283 -0.11527 -0.05414
 H1946 H 0.00195 -0.11266 -0.05431
 H1947 H 0.01299 -0.09334 -0.04228
 H1948 H -0.00069 -0.07652 -0.03000
 C1949 C -0.02809 0.42282 0.47355
 C1950 C -0.04219 0.42328 0.47013
 C1951 C -0.04840 0.41200 0.46333
 C1952 C -0.04050 0.40030 0.46003
 C1953 C -0.02636 0.39993 0.46326
 C1954 C -0.02014 0.41122 0.47005
 C1955 C -0.00599 0.41064 0.47312
 C1956 C 0.00182 0.39925 0.46953
 C1957 C -0.00425 0.38822 0.46287
 C1958 C -0.01817 0.38849 0.45976
 C1959 C -0.06247 0.41275 0.45989
 C1960 C -0.07020 0.42430 0.46312
 C1961 C -0.06415 0.43530 0.46982
 C1962 C -0.05031 0.43488 0.47328
 C1963 C -0.04691 0.38859 0.45345
 C1964 C -0.05218 0.37879 0.44807
 C1965 C -0.02167 0.43461 0.47997
 C1966 C -0.01674 0.44486 0.48478
 H1967 H -0.00081 0.41898 0.47828
 H1968 H 0.01264 0.39898 0.47192
 H1969 H 0.00187 0.37940 0.46008
 H1970 H -0.02241 0.37968 0.45453
 H1971 H -0.06764 0.40444 0.45467
 H1972 H -0.08095 0.42471 0.46043
 H1973 H -0.07023 0.44418 0.47241
 H1974 H -0.04608 0.44373 0.47844
 C1975 C 0.47194 -0.07667 0.47334
 C1976 C 0.48014 -0.08707 0.46746
 C1977 C 0.47386 -0.09823 0.46050
 C1978 C 0.45940 -0.09895 0.45951
 C1979 C 0.45120 -0.08842 0.46519
 C1980 C 0.45748 -0.07728 0.47218
 C1981 C 0.44906 -0.06690 0.47781
 C1982 C 0.43486 -0.06744 0.47646
 C1983 C 0.42873 -0.07827 0.46955
 C1984 C 0.43675 -0.08870 0.46400
 C1985 C 0.48229 -0.10843 0.45459
 C1986 C 0.49651 -0.10763 0.45552
 C1987 C 0.50264 -0.09675 0.46236
 C1988 C 0.49460 -0.08656 0.46829
 C1989 C 0.45299 -0.11062 0.45285
 C1990 C 0.44770 -0.12042 0.44747
 C1991 C 0.47834 -0.06494 0.47989
 C1992 C 0.48329 -0.05473 0.48479
 H1993 H 0.45334 -0.05822 0.48323
 H1994 H 0.42858 -0.05940 0.48079
 H1995 H 0.41770 -0.07862 0.46851
 H1996 H 0.43151 -0.09692 0.45873
 H1997 H 0.47800 -0.11708 0.44914
 H1998 H 0.50281 -0.11550 0.45090
 H1999 H 0.51369 -0.09618 0.46306
 H2000 H 0.49984 -0.07830 0.47351
 C2001 C 0.47081 0.42405 -0.02750
 C2002 C 0.47899 0.41420 -0.03429
 C2003 C 0.47270 0.40294 -0.04106
 C2004 C 0.45826 0.40158 -0.04100
 C2005 C 0.45006 0.41154 -0.03438
 C2006 C 0.45636 0.42275 -0.02752
 C2007 C 0.44794 0.43252 -0.02089
 C2008 C 0.43373 0.43131 -0.02113
 C2009 C 0.42757 0.42044 -0.02794
 C2010 C 0.43559 0.41061 -0.03448
 C2011 C 0.48111 0.39327 -0.04785
 C2012 C 0.49531 0.39468 -0.04793
 C2013 C 0.50145 0.40567 -0.04127
 C2014 C 0.49344 0.41535 -0.03451
 C2015 C 0.45188 0.38982 -0.04755
 C2016 C 0.44667 0.37996 -0.05288
 C2017 C 0.47717 0.43586 -0.02106
 C2018 C 0.48214 0.44604 -0.01613
 H2019 H 0.45223 0.44123 -0.01553
 H2020 H 0.42746 0.43884 -0.01599
 H2021 H 0.41652 0.41959 -0.02813
 H2022 H 0.43034 0.40231 -0.03963
 H2023 H 0.47681 0.38457 -0.05321
 H2024 H 0.50158 0.38720 -0.05319
 H2025 H 0.51249 0.40671 -0.04135
 H2026 H 0.49869 0.42372 -0.02948
 C2027 C 0.77808 0.32600 0.47279
 C2028 C 0.78813 0.32351 0.46263
 C2029 C 0.79463 0.33469 0.45597
 C2030 C 0.79102 0.34828 0.45952
 C2031 C 0.78102 0.35076 0.46973
 C2032 C 0.77453 0.33957 0.47638
 C2033 C 0.76456 0.34228 0.48654
 C2034 C 0.76111 0.35567 0.49005
 C2035 C 0.76746 0.36663 0.48355
 C2036 C 0.77730 0.36426 0.47349
 C2037 C 0.80464 0.33197 0.44586
 C2038 C 0.80815 0.31857 0.44242
 C2039 C 0.80180 0.30762 0.44891
 C2040 C 0.79189 0.31000 0.45890
 C2041 C 0.79755 0.35975 0.45271
 C2042 C 0.80283 0.36945 0.44722
 C2043 C 0.77142 0.31453 0.47946
 C2044 C 0.76632 0.30452 0.48452
 H2045 H 0.75936 0.33409 0.49188
 H2046 H 0.75347 0.35757 0.49785
 H2047 H 0.76474 0.37702 0.48630
 H2048 H 0.78194 0.37312 0.46874
 H2049 H 0.80987 0.34015 0.44053
 H2050 H 0.81584 0.31667 0.43467
 H2051 H 0.80455 0.29723 0.44619
 H2052 H 0.78726 0.30113 0.46364
 C2053 C 0.77952 0.82497 -0.02848
 C2054 C 0.77590 0.83849 -0.02472
 C2055 C 0.78225 0.84980 -0.03131
 C2056 C 0.79221 0.84752 -0.04160
 C2057 C 0.79587 0.83399 -0.04534
 C2058 C 0.78950 0.82267 -0.03877
 C2059 C 0.79329 0.80924 -0.04270
 C2060 C 0.80312 0.80704 -0.05281
 C2061 C 0.80935 0.81811 -0.05922
 C2062 C 0.80581 0.83145 -0.05557
 C2063 C 0.77843 0.86323 -0.02739
 C2064 C 0.76862 0.86541 -0.01726
 C2065 C 0.76242 0.85434 -0.01082
 C2066 C 0.76598 0.84101 -0.01447
 C2067 C 0.79864 0.85912 -0.04830
 C2068 C 0.80385 0.86891 -0.05370
 C2069 C 0.77296 0.81342 -0.02186
 C2070 C 0.76774 0.80351 -0.01670
 H2071 H 0.78874 0.80029 -0.03802
 H2072 H 0.80590 0.79670 -0.05569
 H2073 H 0.81697 0.81635 -0.06707
 H2074 H 0.81093 0.83973 -0.06085
 H2075 H 0.78295 0.87218 -0.03210
 H2076 H 0.76582 0.87575 -0.01440
 H2077 H 0.75481 0.85609 -0.00296
 H2078 H 0.76088 0.83273 -0.00917
 C2079 C 0.77747 0.27790 0.42377
 C2080 C 0.78453 0.26992 0.41394
 C2081 C 0.79137 0.27643 0.40288
 C2082 C 0.79109 0.29089 0.40170
 C2083 C 0.78425 0.29889 0.41167
 C2084 C 0.77735 0.29238 0.42270
 C2085 C 0.77052 0.30060 0.43250
 C2086 C 0.77058 0.31484 0.43148
 C2087 C 0.77742 0.32120 0.42076
 C2088 C 0.78417 0.31337 0.41092
 C2089 C 0.79845 0.26824 0.39324
 C2090 C 0.79875 0.25403 0.39449
 C2091 C 0.79202 0.24766 0.40529
 C2092 C 0.78497 0.25547 0.41493
 C2093 C 0.79763 0.29747 0.39010
 C2094 C 0.80295 0.30285 0.38036
 C2095 C 0.77099 0.27132 0.43540
 C2096 C 0.76608 0.26627 0.44552
 H2097 H 0.76514 0.29614 0.44109
 H2098 H 0.76539 0.32097 0.43912
 H2099 H 0.77752 0.33227 0.42007
 H2100 H 0.78937 0.31879 0.40278
 H2101 H 0.80389 0.27272 0.38470
 H2102 H 0.80423 0.24792 0.38704
 H2103 H 0.79227 0.23662 0.40621
 H2104 H 0.77990 0.25005 0.42315
 C2105 C 0.77810 0.77968 -0.07516
 C2106 C 0.78542 0.77169 -0.08478
 C2107 C 0.79210 0.77814 -0.09598
 C2108 C 0.79142 0.79256 -0.09749
 C2109 C 0.78430 0.80057 -0.08773
 C2110 C 0.77753 0.79411 -0.07659
 C2111 C 0.77037 0.80234 -0.06704
 C2112 C 0.77006 0.81655 -0.06835
 C2113 C 0.77680 0.82287 -0.07916
 C2114 C 0.78381 0.81502 -0.08880
 C2115 C 0.79940 0.76993 -0.10543
 C2116 C 0.80009 0.75576 -0.10386
 C2117 C 0.79355 0.74946 -0.09291
 C2118 C 0.78628 0.75728 -0.08345
 C2119 C 0.79783 0.79907 -0.10922
 C2120 C 0.80308 0.80430 -0.11909
 C2121 C 0.77167 0.77315 -0.06346
 C2122 C 0.76671 0.76799 -0.05341
 H2123 H 0.76507 0.79791 -0.05838
 H2124 H 0.76467 0.82270 -0.06087
 H2125 H 0.77661 0.83392 -0.08008
 H2126 H 0.78890 0.82040 -0.09704
 H2127 H 0.80470 0.77436 -0.11409
 H2128 H 0.80575 0.74964 -0.11117
 H2129 H 0.79412 0.73845 -0.09174
 H2130 H 0.78136 0.75191 -0.07511
 C2131 C 0.27890 0.47136 0.82515
 C2132 C 0.27092 0.46443 0.83505
 C2133 C 0.27744 0.45769 0.84618
 C2134 C 0.29189 0.45804 0.84741
 C2135 C 0.29988 0.46488 0.83744
 C2136 C 0.29336 0.47165 0.82633
 C2137 C 0.30155 0.47863 0.81662
 C2138 C 0.31578 0.47880 0.81779
 C2139 C 0.32216 0.47199 0.82853
 C2140 C 0.31435 0.46512 0.83829
 C2141 C 0.26925 0.45068 0.85586
 C2142 C 0.25504 0.45036 0.85460
 C2143 C 0.24867 0.45701 0.84376
 C2144 C 0.25647 0.46399 0.83407
 C2145 C 0.29847 0.45169 0.85913
 C2146 C 0.30376 0.44650 0.86899
 C2147 C 0.27229 0.47770 0.81344
 C2148 C 0.26712 0.48265 0.80339
 H2149 H 0.29708 0.48396 0.80801
 H2150 H 0.32189 0.48413 0.81024
 H2151 H 0.33322 0.47204 0.82930
 H2152 H 0.31977 0.45999 0.84647
 H2153 H 0.27373 0.44533 0.86446
 H2154 H 0.24894 0.44493 0.86208
 H2155 H 0.23763 0.45675 0.84283
 H2156 H 0.25105 0.46899 0.82580
 C2157 C 0.27707 -0.02802 0.32636
 C2158 C 0.28401 -0.01991 0.33617
 C2159 C 0.29103 -0.02628 0.34721
 C2160 C 0.29104 -0.04074 0.34839
 C2161 C 0.28427 -0.04887 0.33846
 C2162 C 0.27721 -0.04250 0.32744
 C2163 C 0.27048 -0.05085 0.31767
 C2164 C 0.27076 -0.06508 0.31872
 C2165 C 0.27775 -0.07131 0.32943
 C2166 C 0.28442 -0.06335 0.33923
 C2167 C 0.29798 -0.01795 0.35684
 C2168 C 0.29799 -0.00373 0.35560
 C2169 C 0.29111 0.00250 0.34481
 C2170 C 0.28418 -0.00545 0.33518
 C2171 C 0.29778 -0.04721 0.35996
 C2172 C 0.30320 -0.05251 0.36970
 C2173 C 0.27047 -0.02157 0.31471
 C2174 C 0.26551 -0.01661 0.30456
 H2175 H 0.26499 -0.04649 0.30909
 H2176 H 0.26564 -0.07131 0.31111
 H2177 H 0.27802 -0.08237 0.33014
 H2178 H 0.28973 -0.06867 0.34737
 H2179 H 0.30352 -0.02232 0.36537
 H2180 H 0.30338 0.00248 0.36304
 H2181 H 0.29115 0.01355 0.34389
 H2182 H 0.27897 -0.00013 0.32697
 C2183 C -0.02864 -0.02977 -0.07542
 C2184 C -0.03849 -0.04027 -0.07355
 C2185 C -0.04501 -0.04628 -0.08511
 C2186 C -0.04151 -0.04189 -0.09847
 C2187 C -0.03165 -0.03141 -0.10033
 C2188 C -0.02522 -0.02532 -0.08877
 C2189 C -0.01543 -0.01484 -0.09088
 C2190 C -0.01207 -0.01051 -0.10405
 C2191 C -0.01835 -0.01647 -0.11535
 C2192 C -0.02804 -0.02680 -0.11358
 C2193 C -0.05500 -0.05658 -0.08298
 C2194 C -0.05848 -0.06080 -0.06981
 C2195 C -0.05207 -0.05497 -0.05852
 C2196 C -0.04213 -0.04487 -0.06030
 C2197 C -0.04798 -0.04818 -0.11031
 C2198 C -0.05328 -0.05336 -0.12020
 C2199 C -0.02221 -0.02344 -0.06359
 C2200 C -0.01719 -0.01840 -0.05349
 H2201 H -0.01027 -0.00990 -0.08241
 H2202 H -0.00454 -0.00249 -0.10548
 H2203 H -0.01571 -0.01306 -0.12556
 H2204 H -0.03266 -0.03109 -0.12269
 H2205 H -0.06028 -0.06140 -0.09145
 H2206 H -0.06621 -0.06861 -0.06835
 H2207 H -0.05490 -0.05819 -0.04834
 H2208 H -0.03750 -0.04062 -0.05118
 C2209 C -0.02725 0.47148 0.42323
 C2210 C -0.03094 0.47941 0.41168
 C2211 C -0.03790 0.47318 0.40050
 C2212 C -0.04109 0.45903 0.40090
 C2213 C -0.03758 0.45113 0.41254
 C2214 C -0.03061 0.45736 0.42372
 C2215 C -0.02725 0.44924 0.43525
 C2216 C -0.03063 0.43538 0.43570
 C2217 C -0.03748 0.42932 0.42480
 C2218 C -0.04093 0.43705 0.41332
 C2219 C -0.04158 0.48135 0.38912
 C2220 C -0.03848 0.49528 0.38879
 C2221 C -0.03165 0.50136 0.39971
 C2222 C -0.02789 0.49357 0.41104
 C2223 C -0.04775 0.45257 0.38926
 C2224 C -0.05313 0.44720 0.37952
 C2225 C -0.02073 0.47794 0.43495
 C2226 C -0.01583 0.48293 0.44513
 H2227 H -0.02195 0.45349 0.44401
 H2228 H -0.02787 0.42931 0.44452
 H2229 H -0.04011 0.41855 0.42524
 H2230 H -0.04627 0.43187 0.40510
 H2231 H -0.04694 0.47710 0.38040
 H2232 H -0.04140 0.50139 0.38002
 H2233 H -0.02926 0.51219 0.39940
 H2234 H -0.02260 0.49875 0.41929
 C2235 C 0.47304 -0.02765 0.42343
 C2236 C 0.47648 -0.02344 0.41002
 C2237 C 0.46997 -0.02965 0.39858
 C2238 C 0.46002 -0.04001 0.40064
 C2239 C 0.45653 -0.04419 0.41406
 C2240 C 0.46311 -0.03805 0.42550
 C2241 C 0.45951 -0.04247 0.43883
 C2242 C 0.44960 -0.05255 0.44079
 C2243 C 0.44313 -0.05851 0.42961
 C2244 C 0.44653 -0.05444 0.41637
 C2245 C 0.47360 -0.02528 0.38525
 C2246 C 0.48338 -0.01507 0.38330
 C2247 C 0.48974 -0.00900 0.39449
 C2248 C 0.48636 -0.01309 0.40773
 C2249 C 0.45346 -0.04640 0.38893
 C2250 C 0.44810 -0.05168 0.37914
 C2251 C 0.47953 -0.02127 0.43517
 C2252 C 0.48442 -0.01639 0.44540
 H2253 H 0.46420 -0.03812 0.44788
 H2254 H 0.44686 -0.05568 0.45103
 H2255 H 0.43541 -0.06631 0.43120
 H2256 H 0.44121 -0.05938 0.40799
 H2257 H 0.46893 -0.02969 0.37622
 H2258 H 0.48603 -0.01186 0.37303
 H2259 H 0.49733 -0.00107 0.39292
 H2260 H 0.49159 -0.00807 0.41613
 C2261 C 0.47164 0.47112 -0.07558
 C2262 C 0.47469 0.47568 -0.08897
 C2263 C 0.46804 0.46958 -0.10039
 C2264 C 0.45836 0.45897 -0.09833
 C2265 C 0.45522 0.45449 -0.08492
 C2266 C 0.46195 0.46051 -0.07350
 C2267 C 0.45867 0.45582 -0.06018
 C2268 C 0.44887 0.44565 -0.05821
 C2269 C 0.44225 0.43979 -0.06936
 C2270 C 0.44539 0.44408 -0.08259
 C2271 C 0.47127 0.47430 -0.11370
 C2272 C 0.48078 0.48477 -0.11566
 C2273 C 0.48726 0.49075 -0.10448
 C2274 C 0.48429 0.48629 -0.09127
 C2275 C 0.45178 0.45259 -0.11003
 C2276 C 0.44650 0.44731 -0.11984
 C2277 C 0.47825 0.47746 -0.06389
 C2278 C 0.48332 0.48245 -0.05381
 H2279 H 0.46350 0.46008 -0.05116
 H2280 H 0.44630 0.44238 -0.04797
 H2281 H 0.43463 0.43190 -0.06774
 H2282 H 0.43996 0.43923 -0.09095
 H2283 H 0.46649 0.46998 -0.12272
 H2284 H 0.48312 0.48826 -0.12591
 H2285 H 0.49463 0.49888 -0.10606
 H2286 H 0.48961 0.49125 -0.08289
 C2287 C 0.47277 0.77921 0.32593
 C2288 C 0.46983 0.79343 0.32579
 C2289 C 0.46312 0.79959 0.33715
 C2290 C 0.45944 0.79153 0.34861
 C2291 C 0.46225 0.77730 0.34869
 C2292 C 0.46896 0.77113 0.33734
 C2293 C 0.47160 0.75688 0.33764
 C2294 C 0.46769 0.74894 0.34881
 C2295 C 0.46112 0.75496 0.35990
 C2296 C 0.45841 0.76897 0.35991
 C2297 C 0.46017 0.81378 0.33671
 C2298 C 0.46382 0.82168 0.32542
 C2299 C 0.47047 0.81568 0.31437
 C2300 C 0.47340 0.80171 0.31446
 C2301 C 0.45293 0.79789 0.36039
 C2302 C 0.44763 0.80311 0.37025
 C2303 C 0.47900 0.77282 0.31403
 C2304 C 0.48377 0.76782 0.30380
 H2305 H 0.47669 0.75174 0.32925
 H2306 H 0.46977 0.73805 0.34886
 H2307 H 0.45808 0.74874 0.36855
 H2308 H 0.45323 0.77317 0.36875
 H2309 H 0.45502 0.81891 0.34507
 H2310 H 0.46153 0.83253 0.32525
 H2311 H 0.47341 0.82189 0.30572
 H2312 H 0.47854 0.79753 0.30558
 C2313 C -0.02795 0.77912 0.82534
 C2314 C -0.03773 0.78966 0.82334
 C2315 C -0.04436 0.79568 0.83480
 C2316 C -0.04104 0.79125 0.84820
 C2317 C -0.03127 0.78072 0.85019
 C2318 C -0.02472 0.77463 0.83872
 C2319 C -0.01504 0.76408 0.84095
 C2320 C -0.01190 0.75968 0.85415
 C2321 C -0.01829 0.76565 0.86537
 C2322 C -0.02787 0.77606 0.86348
 C2323 C -0.05428 0.80600 0.83255
 C2324 C -0.05760 0.81023 0.81933
 C2325 C -0.05109 0.80437 0.80813
 C2326 C -0.04120 0.79427 0.81004
 C2327 C -0.04763 0.79754 0.85993
 C2328 C -0.05301 0.80274 0.86973
 C2329 C -0.02144 0.77278 0.81360
 C2330 C -0.01643 0.76777 0.80351
 H2331 H -0.00980 0.75912 0.83254
 H2332 H -0.00447 0.75159 0.85567
 H2333 H -0.01582 0.76220 0.87561
 H2334 H -0.03258 0.78037 0.87253
 H2335 H -0.05964 0.81084 0.84095
 H2336 H -0.06530 0.81805 0.81778
 H2337 H -0.05381 0.80758 0.79791
 H2338 H -0.03647 0.79000 0.80097
 C2339 C 0.42418 0.77806 0.27856
 C2340 C 0.41275 0.78188 0.27052
 C2341 C 0.40144 0.78864 0.27672
 C2342 C 0.40163 0.79149 0.29093
 C2343 C 0.41312 0.78780 0.29895
 C2344 C 0.42441 0.78102 0.29277
 C2345 C 0.43577 0.77738 0.30102
 C2346 C 0.43591 0.78031 0.31498
 C2347 C 0.42494 0.78703 0.32101
 C2348 C 0.41364 0.79076 0.31314
 C2349 C 0.39018 0.79247 0.26844
 C2350 C 0.39008 0.78971 0.25444
 C2351 C 0.40113 0.78309 0.24839
 C2352 C 0.41236 0.77920 0.25629
 C2353 C 0.38990 0.79796 0.29735
 C2354 C 0.38008 0.80318 0.30269
 C2355 C 0.43601 0.77175 0.27218
 C2356 C 0.44621 0.76690 0.26722
 H2357 H 0.44460 0.77217 0.29682
 H2358 H 0.44455 0.77727 0.32117
 H2359 H 0.42516 0.78932 0.33185
 H2360 H 0.40533 0.79597 0.31829
 H2361 H 0.38136 0.79768 0.27268
 H2362 H 0.38139 0.79273 0.24826
 H2363 H 0.40100 0.78097 0.23751
 H2364 H 0.42071 0.77407 0.25112
 C2365 C -0.07523 0.77855 0.77938
 C2366 C -0.08513 0.78539 0.77132
 C2367 C -0.09613 0.79243 0.77775
 C2368 C -0.09725 0.79244 0.79221
 C2369 C -0.08729 0.78566 0.80027
 C2370 C -0.07630 0.77862 0.79384
 C2371 C -0.06657 0.77177 0.80211
 C2372 C -0.06762 0.77193 0.81634
 C2373 C -0.07827 0.77896 0.82263
 C2374 C -0.08804 0.78574 0.81474
 C2375 C -0.10579 0.79938 0.76947
 C2376 C -0.10463 0.79935 0.75526
 C2377 C -0.09392 0.79240 0.74897
 C2378 C -0.08426 0.78547 0.75686
 C2379 C -0.10890 0.79902 0.79871
 C2380 C -0.11875 0.80430 0.80396
 C2381 C -0.06359 0.77201 0.77285
 C2382 C -0.05357 0.76699 0.76771
 H2383 H -0.05803 0.76625 0.79770
 H2384 H -0.06005 0.76669 0.82251
 H2385 H -0.07897 0.77916 0.83369
 H2386 H -0.09614 0.79106 0.82011
 H2387 H -0.11428 0.80495 0.77388
 H2388 H -0.11209 0.80474 0.74908
 H2389 H -0.09308 0.79239 0.73792
 H2390 H -0.07611 0.78022 0.75150
 C2391 C 0.82667 0.27791 0.47304
 C2392 C 0.83649 0.26997 0.46592
 C2393 C 0.84759 0.27653 0.45916
 C2394 C 0.84881 0.29098 0.45958
 C2395 C 0.83888 0.29893 0.46653
 C2396 C 0.82781 0.29238 0.47334
 C2397 C 0.81805 0.30055 0.48028
 C2398 C 0.81913 0.31478 0.48039
 C2399 C 0.82987 0.32119 0.47362
 C2400 C 0.83968 0.31341 0.46678
 C2401 C 0.85722 0.26838 0.45202
 C2402 C 0.85592 0.25417 0.45158
 C2403 C 0.84509 0.24777 0.45821
 C2404 C 0.83545 0.25553 0.46532
 C2405 C 0.86042 0.29761 0.45307
 C2406 C 0.87020 0.30293 0.44775
 C2407 C 0.81497 0.27129 0.47939
 C2408 C 0.80480 0.26622 0.48419
 H2409 H 0.80944 0.29605 0.48561
 H2410 H 0.81151 0.32088 0.48566
 H2411 H 0.83060 0.33225 0.47365
 H2412 H 0.84785 0.31886 0.46165
 H2413 H 0.86579 0.27289 0.44665
 H2414 H 0.86336 0.24810 0.44604
 H2415 H 0.84413 0.23673 0.45785
 H2416 H 0.82720 0.25008 0.47032
 C2417 C 0.82532 0.77818 -0.02847
 C2418 C 0.83481 0.77031 -0.03608
 C2419 C 0.84594 0.77687 -0.04276
 C2420 C 0.84750 0.79126 -0.04179
 C2421 C 0.83787 0.79916 -0.03438
 C2422 C 0.82681 0.79259 -0.02760
 C2423 C 0.81739 0.80069 -0.02012
 C2424 C 0.81877 0.81489 -0.01951
 C2425 C 0.82949 0.82133 -0.02629
 C2426 C 0.83899 0.81360 -0.03361
 C2427 C 0.85528 0.76879 -0.05036
 C2428 C 0.85366 0.75465 -0.05133
 C2429 C 0.84278 0.74823 -0.04478
 C2430 C 0.83343 0.75592 -0.03722
 C2431 C 0.85916 0.79786 -0.04819
 C2432 C 0.86897 0.80318 -0.05342
 C2433 C 0.81365 0.77158 -0.02211
 C2434 C 0.80357 0.76647 -0.01719
 H2435 H 0.80880 0.79617 -0.01477
 H2436 H 0.81139 0.82094 -0.01387
 H2437 H 0.83044 0.83237 -0.02589
 H2438 H 0.84717 0.81907 -0.03871
 H2439 H 0.86388 0.77332 -0.05568
 H2440 H 0.86088 0.74863 -0.05721
 H2441 H 0.84156 0.73724 -0.04556
 H2442 H 0.82514 0.75047 -0.03230
 C2443 C -0.07532 -0.02855 -0.02928
 C2444 C -0.08516 -0.03554 -0.02128
 C2445 C -0.09611 -0.04261 -0.02778
 C2446 C -0.09721 -0.04253 -0.04224
 C2447 C -0.08728 -0.03564 -0.05024
 C2448 C -0.07634 -0.02857 -0.04374
 C2449 C -0.06663 -0.02163 -0.05196
 C2450 C -0.06766 -0.02173 -0.06618
 C2451 C -0.07827 -0.02877 -0.07254
 C2452 C -0.08801 -0.03565 -0.06472
 C2453 C -0.10573 -0.04968 -0.01957
 C2454 C -0.10459 -0.04974 -0.00535
 C2455 C -0.09392 -0.04277 0.00100
 C2456 C -0.08429 -0.03572 -0.00682
 C2457 C -0.10881 -0.04911 -0.04882
 C2458 C -0.11861 -0.05437 -0.05418
 C2459 C -0.06376 -0.02190 -0.02271
 C2460 C -0.05374 -0.01682 -0.01761
 H2461 H -0.05811 -0.01610 -0.04750
 H2462 H -0.06010 -0.01642 -0.07231
 H2463 H -0.07895 -0.02892 -0.08360
 H2464 H -0.09608 -0.04100 -0.07013
 H2465 H -0.11419 -0.05528 -0.02404
 H2466 H -0.11203 -0.05522 0.00077
 H2467 H -0.09308 -0.04284 0.01205
 H2468 H -0.07616 -0.03047 -0.00141
 C2469 C -0.07698 0.47284 0.47216
 C2470 C -0.08849 0.46908 0.48011
 C2471 C -0.09967 0.46215 0.47387
 C2472 C -0.09929 0.45908 0.45970
 C2473 C -0.08770 0.46267 0.45178
 C2474 C -0.07652 0.46961 0.45802
 C2475 C -0.06503 0.47309 0.44989
 C2476 C -0.06462 0.46983 0.43601
 C2477 C -0.07551 0.46298 0.42993
 C2478 C -0.08696 0.45943 0.43767
 C2479 C -0.11103 0.45839 0.48204
 C2480 C -0.11132 0.46139 0.49599
 C2481 C -0.10039 0.46820 0.50208
 C2482 C -0.08908 0.47203 0.49428
 C2483 C -0.11092 0.45247 0.45324
 C2484 C -0.12067 0.44714 0.44788
 C2485 C -0.06527 0.47933 0.47859
 C2486 C -0.05504 0.48422 0.48346
 H2487 H -0.05627 0.47840 0.45413
 H2488 H -0.05584 0.47268 0.42992
 H2489 H -0.07511 0.46044 0.41915
 H2490 H -0.09519 0.45411 0.43249
 H2491 H -0.11976 0.45305 0.47778
 H2492 H -0.12007 0.45841 0.50210
 H2493 H -0.10068 0.47052 0.51292
 H2494 H -0.08083 0.47732 0.49947
 C2495 C 0.42338 -0.02724 0.47191
 C2496 C 0.41330 -0.03396 0.47986
 C2497 C 0.40223 -0.04080 0.47330
 C2498 C 0.40126 -0.04079 0.45884
 C2499 C 0.41149 -0.03432 0.45088
 C2500 C 0.42256 -0.02748 0.45743
 C2501 C 0.43264 -0.02104 0.44924
 C2502 C 0.43183 -0.02137 0.43500
 C2503 C 0.42107 -0.02815 0.42860
 C2504 C 0.41097 -0.03454 0.43640
 C2505 C 0.39238 -0.04759 0.48147
 C2506 C 0.39343 -0.04764 0.49569
 C2507 C 0.40424 -0.04093 0.50210
 C2508 C 0.41408 -0.03414 0.49432
 C2509 C 0.38957 -0.04719 0.45220
 C2510 C 0.37974 -0.05242 0.44685
 C2511 C 0.43496 -0.02069 0.47856
 C2512 C 0.44505 -0.01571 0.48364
 H2513 H 0.44127 -0.01572 0.45373
 H2514 H 0.43966 -0.01644 0.42890
 H2515 H 0.42055 -0.02847 0.41754
 H2516 H 0.40281 -0.03970 0.43095
 H2517 H 0.38381 -0.05300 0.47696
 H2518 H 0.38583 -0.05293 0.50177
 H2519 H 0.40500 -0.04100 0.51315
 H2520 H 0.42231 -0.02909 0.49977
 C2521 C 0.42443 0.47141 -0.02959
 C2522 C 0.41444 0.46468 -0.02155
 C2523 C 0.40327 0.45790 -0.02800
 C2524 C 0.40210 0.45802 -0.04245
 C2525 C 0.41217 0.46464 -0.05050
 C2526 C 0.42333 0.47142 -0.04405
 C2527 C 0.43318 0.47811 -0.05231
 C2528 C 0.43208 0.47805 -0.06653
 C2529 C 0.42126 0.47127 -0.07284
 C2530 C 0.41138 0.46465 -0.06497
 C2531 C 0.39351 0.45108 -0.01975
 C2532 C 0.39472 0.45098 -0.00554
 C2533 C 0.40559 0.45766 0.00077
 C2534 C 0.41537 0.46446 -0.00709
 C2535 C 0.39035 0.45162 -0.04898
 C2536 C 0.38046 0.44638 -0.05422
 C2537 C 0.43614 0.47784 -0.02304
 C2538 C 0.44620 0.48284 -0.01789
 H2539 H 0.44186 0.48342 -0.04789
 H2540 H 0.43973 0.48317 -0.07270
 H2541 H 0.42053 0.47115 -0.08390
 H2542 H 0.40314 0.45952 -0.07035
 H2543 H 0.38487 0.44572 -0.02418
 H2544 H 0.38716 0.44570 0.00061
 H2545 H 0.40648 0.45756 0.01181
 H2546 H 0.42366 0.46948 -0.00172
 C2547 C 0.32517 0.47202 0.77888
 C2548 C 0.33859 0.47652 0.77580
 C2549 C 0.35002 0.47011 0.78213
 C2550 C 0.34796 0.45929 0.79155
 C2551 C 0.33452 0.45487 0.79473
 C2552 C 0.32309 0.46117 0.78829
 C2553 C 0.30975 0.45651 0.79157
 C2554 C 0.30777 0.44612 0.80114
 C2555 C 0.31893 0.44001 0.80748
 C2556 C 0.33218 0.44425 0.80432
 C2557 C 0.36336 0.47476 0.77884
 C2558 C 0.36533 0.48543 0.76959
 C2559 C 0.35414 0.49171 0.76343
 C2560 C 0.34090 0.48734 0.76646
 C2561 C 0.35967 0.45267 0.79787
 C2562 C 0.36949 0.44725 0.80301
 C2563 C 0.31345 0.47855 0.77248
 C2564 C 0.30338 0.48362 0.76748
 H2565 H 0.30072 0.46097 0.78696
 H2566 H 0.29752 0.44289 0.80373
 H2567 H 0.31730 0.43196 0.81492
 H2568 H 0.34055 0.43918 0.80952
 H2569 H 0.37239 0.47021 0.78337
 H2570 H 0.37560 0.48886 0.76720
 H2571 H 0.35573 0.50000 0.75626
 H2572 H 0.33252 0.49253 0.76140
 C2573 C 0.32667 -0.02719 0.27707
 C2574 C 0.33655 -0.01929 0.28416
 C2575 C 0.34766 -0.02588 0.29085
 C2576 C 0.34882 -0.04033 0.29040
 C2577 C 0.33883 -0.04825 0.28348
 C2578 C 0.32776 -0.04166 0.27673
 C2579 C 0.31793 -0.04980 0.26982
 C2580 C 0.31897 -0.06403 0.26966
 C2581 C 0.32973 -0.07048 0.27636
 C2582 C 0.33960 -0.06273 0.28318
 C2583 C 0.35737 -0.01776 0.29795
 C2584 C 0.35612 -0.00355 0.29843
 C2585 C 0.34525 0.00289 0.29187
 C2586 C 0.33555 -0.00484 0.28480
 C2587 C 0.36040 -0.04700 0.29690
 C2588 C 0.37012 -0.05241 0.30222
 C2589 C 0.31497 -0.02056 0.27077
 C2590 C 0.30477 -0.01558 0.26596
 H2591 H 0.30930 -0.04527 0.26455
 H2592 H 0.31130 -0.07010 0.26442
 H2593 H 0.33043 -0.08154 0.27629
 H2594 H 0.34779 -0.06821 0.28825
 H2595 H 0.36597 -0.02230 0.30326
 H2596 H 0.36362 0.00249 0.30393
 H2597 H 0.34433 0.01393 0.29228
 H2598 H 0.32728 0.00063 0.27985
 C2599 C 0.17342 0.52779 0.72202
 C2600 C 0.17254 0.52775 0.70754
 C2601 C 0.16152 0.53456 0.70092
 C2602 C 0.15138 0.54126 0.70882
 C2603 C 0.15237 0.54147 0.72328
 C2604 C 0.16340 0.53468 0.72990
 C2605 C 0.16421 0.53507 0.74436
 C2606 C 0.15443 0.54203 0.75206
 C2607 C 0.14366 0.54872 0.74559
 C2608 C 0.14258 0.54846 0.73137
 C2609 C 0.16096 0.53455 0.68644
 C2610 C 0.17096 0.52791 0.67872
 C2611 C 0.18164 0.52111 0.68519
 C2612 C 0.18251 0.52104 0.69943
 C2613 C 0.13978 0.54771 0.70212
 C2614 C 0.13002 0.55300 0.69674
 C2615 C 0.18503 0.52138 0.72872
 C2616 C 0.19513 0.51649 0.73383
 H2617 H 0.17242 0.53004 0.74986
 H2618 H 0.15521 0.54226 0.76311
 H2619 H 0.13611 0.55414 0.75161
 H2620 H 0.13405 0.55385 0.72681
 H2621 H 0.15284 0.53971 0.68094
 H2622 H 0.17042 0.52806 0.66765
 H2623 H 0.18939 0.51598 0.67915
 H2624 H 0.19110 0.51572 0.70398
 C2625 C 0.17438 0.02788 0.22135
 C2626 C 0.17330 0.02763 0.20689
 C2627 C 0.16221 0.03438 0.20033
 C2628 C 0.15218 0.04119 0.20828
 C2629 C 0.15336 0.04157 0.22272
 C2630 C 0.16446 0.03483 0.22928
 C2631 C 0.16541 0.03532 0.24373
 C2632 C 0.15571 0.04236 0.25148
 C2633 C 0.14488 0.04899 0.24506
 C2634 C 0.14365 0.04862 0.23086
 C2635 C 0.16143 0.03416 0.18586
 C2636 C 0.17129 0.02736 0.17809
 C2637 C 0.18204 0.02061 0.18451
 C2638 C 0.18311 0.02074 0.19873
 C2639 C 0.14047 0.04750 0.20168
 C2640 C 0.13057 0.05266 0.19642
 C2641 C 0.18604 0.02151 0.22799
 C2642 C 0.19610 0.01658 0.23313
 H2643 H 0.17366 0.03033 0.24918
 H2644 H 0.15661 0.04267 0.26252
 H2645 H 0.13739 0.05446 0.25113
 H2646 H 0.13506 0.05397 0.22634
 H2647 H 0.15325 0.03926 0.18041
 H2648 H 0.17058 0.02735 0.16703
 H2649 H 0.18968 0.01536 0.17843
 H2650 H 0.19174 0.01545 0.20324
 C2651 C 0.57677 0.72296 0.22298
 C2652 C 0.57782 0.70848 0.22296
 C2653 C 0.58898 0.70202 0.21621
 C2654 C 0.59908 0.71008 0.20964
 C2655 C 0.59793 0.72454 0.20952
 C2656 C 0.58674 0.73100 0.21621
 C2657 C 0.58577 0.74545 0.21589
 C2658 C 0.59557 0.75331 0.20912
 C2659 C 0.60651 0.74700 0.20257
 C2660 C 0.60774 0.73278 0.20274
 C2661 C 0.58972 0.68754 0.21616
 C2662 C 0.57974 0.67966 0.22263
 C2663 C 0.56889 0.68597 0.22933
 C2664 C 0.56788 0.70020 0.22951
 C2665 C 0.61074 0.70352 0.20316
 C2666 C 0.62052 0.69815 0.19788
 C2667 C 0.56502 0.72947 0.22934
 C2668 C 0.55480 0.73441 0.23417
 H2669 H 0.57745 0.75083 0.22085
 H2670 H 0.59466 0.76436 0.20896
 H2671 H 0.61408 0.75315 0.19730
 H2672 H 0.61640 0.72835 0.19745
 H2673 H 0.59796 0.68216 0.21108
 H2674 H 0.58042 0.66859 0.22244
 H2675 H 0.56115 0.67979 0.23430
 H2676 H 0.55918 0.70462 0.23477
 C2677 C 0.07662 0.72276 0.72271
 C2678 C 0.07450 0.71309 0.71208
 C2679 C 0.08589 0.70646 0.70591
 C2680 C 0.09934 0.70964 0.71031
 C2681 C 0.10146 0.71929 0.72093
 C2682 C 0.09006 0.72585 0.72717
 C2683 C 0.09242 0.73543 0.73779
 C2684 C 0.10567 0.73846 0.74214
 C2685 C 0.11683 0.73207 0.73604
 C2686 C 0.11481 0.72259 0.72555
 C2687 C 0.08351 0.69672 0.69542
 C2688 C 0.07024 0.69360 0.69116
 C2689 C 0.05911 0.70011 0.69715
 C2690 C 0.06114 0.70979 0.70745
 C2691 C 0.11102 0.70309 0.70383
 C2692 C 0.12077 0.69779 0.69844
 C2693 C 0.06491 0.72933 0.72909
 C2694 C 0.05471 0.73429 0.73394
 H2695 H 0.08406 0.74067 0.74283
 H2696 H 0.10730 0.74581 0.75028
 H2697 H 0.12710 0.73446 0.73945
 H2698 H 0.12381 0.71788 0.72113
 H2699 H 0.09185 0.69139 0.69045
 H2700 H 0.06859 0.68607 0.68319
 H2701 H 0.04885 0.69758 0.69388
 H2702 H 0.05213 0.71452 0.71181
 C2703 C 0.67440 0.22095 0.52742
 C2704 C 0.66468 0.22913 0.53439
 C2705 C 0.65351 0.22284 0.54127
 C2706 C 0.65211 0.20840 0.54111
 C2707 C 0.66195 0.20020 0.53430
 C2708 C 0.67308 0.20651 0.52736
 C2709 C 0.68274 0.19810 0.52057
 C2710 C 0.68149 0.18389 0.52070
 C2711 C 0.67068 0.17772 0.52760
 C2712 C 0.66097 0.18574 0.53431
 C2713 C 0.64397 0.23123 0.54826
 C2714 C 0.64542 0.24543 0.54843
 C2715 C 0.65632 0.25158 0.54166
 C2716 C 0.66587 0.24358 0.53471
 C2717 C 0.64042 0.20202 0.54771
 C2718 C 0.63060 0.19683 0.55308
 C2719 C 0.68615 0.22731 0.52093
 C2720 C 0.69630 0.23227 0.51599
 H2721 H 0.69138 0.20240 0.51513
 H2722 H 0.68892 0.17763 0.51542
 H2723 H 0.66980 0.16667 0.52770
 H2724 H 0.65274 0.18047 0.53952
 H2725 H 0.63535 0.22692 0.55371
 H2726 H 0.63805 0.25169 0.55384
 H2727 H 0.65740 0.26262 0.54181
 H2728 H 0.67418 0.24883 0.52960
 C2729 C 0.67344 0.72266 0.02762
 C2730 C 0.67266 0.72246 0.04210
 C2731 C 0.66159 0.71568 0.04867
 C2732 C 0.65132 0.70923 0.04072
 C2733 C 0.65225 0.70919 0.02625
 C2734 C 0.66332 0.71597 0.01968
 C2735 C 0.66405 0.71577 0.00522
 C2736 C 0.65416 0.70900 -0.00254
 C2737 C 0.64335 0.70234 0.00388
 C2738 C 0.64234 0.70241 0.01811
 C2739 C 0.66111 0.71549 0.06315
 C2740 C 0.67123 0.72189 0.07093
 C2741 C 0.68198 0.72863 0.06452
 C2742 C 0.68277 0.72891 0.05028
 C2743 C 0.63964 0.70289 0.04737
 C2744 C 0.62982 0.69769 0.05271
 C2745 C 0.68504 0.72912 0.02097
 C2746 C 0.69515 0.73404 0.01591
 H2747 H 0.67228 0.72079 -0.00024
 H2748 H 0.65490 0.70891 -0.01360
 H2749 H 0.63571 0.69707 -0.00219
 H2750 H 0.63378 0.69704 0.02263
 H2751 H 0.65294 0.71036 0.06861
 H2752 H 0.67073 0.72160 0.08200
 H2753 H 0.68982 0.73358 0.07061
 H2754 H 0.69141 0.73420 0.04577
 C2755 C 0.07647 0.02741 0.02726
 C2756 C 0.08633 0.01946 0.03429
 C2757 C 0.09743 0.02600 0.04107
 C2758 C 0.09861 0.04045 0.04076
 C2759 C 0.08859 0.04843 0.03396
 C2760 C 0.07753 0.04189 0.02713
 C2761 C 0.06766 0.05008 0.02036
 C2762 C 0.06865 0.06433 0.02044
 C2763 C 0.07941 0.07072 0.02723
 C2764 C 0.08932 0.06291 0.03389
 C2765 C 0.10712 0.01784 0.04813
 C2766 C 0.10584 0.00363 0.04850
 C2767 C 0.09499 -0.00276 0.04186
 C2768 C 0.08533 0.00500 0.03481
 C2769 C 0.11022 0.04707 0.04725
 C2770 C 0.11998 0.05248 0.05254
 C2771 C 0.06481 0.02082 0.02082
 C2772 C 0.05466 0.01582 0.01590
 H2773 H 0.05904 0.04560 0.01503
 H2774 H 0.06096 0.07044 0.01531
 H2775 H 0.08006 0.08179 0.02736
 H2776 H 0.09749 0.06835 0.03904
 H2777 H 0.11571 0.02235 0.05350
 H2778 H 0.11331 -0.00244 0.05400
 H2779 H 0.09405 -0.01381 0.04218
 H2780 H 0.07706 -0.00043 0.02980
 C2781 C 0.07524 0.52863 0.52801
 C2782 C 0.07666 0.54306 0.52748
 C2783 C 0.08779 0.54954 0.53429
 C2784 C 0.09756 0.54153 0.54140
 C2785 C 0.09606 0.52711 0.54205
 C2786 C 0.08486 0.52065 0.53534
 C2787 C 0.08355 0.50624 0.53619
 C2788 C 0.09301 0.49843 0.54347
 C2789 C 0.10396 0.50475 0.55004
 C2790 C 0.10552 0.51892 0.54936
 C2791 C 0.08883 0.56399 0.53386
 C2792 C 0.07918 0.57183 0.52685
 C2793 C 0.06839 0.56549 0.52005
 C2794 C 0.06709 0.55128 0.52033
 C2795 C 0.10929 0.54805 0.54784
 C2796 C 0.11915 0.55335 0.55308
 C2797 C 0.06354 0.52209 0.52154
 C2798 C 0.05345 0.51702 0.51653
 H2799 H 0.07520 0.50085 0.53126
 H2800 H 0.09184 0.48742 0.54404
 H2801 H 0.11127 0.49864 0.55570
 H2802 H 0.11418 0.52336 0.55467
 H2803 H 0.09705 0.56939 0.53898
 H2804 H 0.08008 0.58288 0.52670
 H2805 H 0.06090 0.57163 0.51466
 H2806 H 0.05845 0.54684 0.51499
 C2807 C 0.57512 0.02919 0.52832
 C2808 C 0.57664 0.04360 0.52752
 C2809 C 0.58777 0.05012 0.53428
 C2810 C 0.59742 0.04216 0.54160
 C2811 C 0.59584 0.02777 0.54248
 C2812 C 0.58465 0.02127 0.53583
 C2813 C 0.58324 0.00688 0.53689
 C2814 C 0.59262 -0.00087 0.54435
 C2815 C 0.60356 0.00549 0.55088
 C2816 C 0.60521 0.01964 0.54998
 C2817 C 0.58892 0.06455 0.53358
 C2818 C 0.57937 0.07233 0.52637
 C2819 C 0.56858 0.06594 0.51963
 C2820 C 0.56718 0.05175 0.52015
 C2821 C 0.60912 0.04871 0.54803
 C2822 C 0.61895 0.05397 0.55332
 C2823 C 0.56340 0.02262 0.52197
 C2824 C 0.55331 0.01748 0.51707
 H2825 H 0.57490 0.00146 0.53198
 H2826 H 0.59138 -0.01186 0.54507
 H2827 H 0.61081 -0.00057 0.55667
 H2828 H 0.61387 0.02412 0.55527
 H2829 H 0.59715 0.06998 0.53866
 H2830 H 0.58035 0.08337 0.52602
 H2831 H 0.56117 0.07203 0.51407
 H2832 H 0.55854 0.04727 0.51484
 C2833 C 0.57645 0.52770 0.02663
 C2834 C 0.57745 0.54218 0.02655
 C2835 C 0.58851 0.54875 0.03338
 C2836 C 0.59858 0.54080 0.04014
 C2837 C 0.59755 0.52633 0.04026
 C2838 C 0.58645 0.51976 0.03348
 C2839 C 0.58562 0.50529 0.03378
 C2840 C 0.59545 0.49753 0.04060
 C2841 C 0.60629 0.50394 0.04725
 C2842 C 0.60738 0.51817 0.04711
 C2843 C 0.58919 0.56324 0.03333
 C2844 C 0.57927 0.57101 0.02665
 C2845 C 0.56852 0.56459 0.01986
 C2846 C 0.56756 0.55035 0.01980
 C2847 C 0.61012 0.54746 0.04679
 C2848 C 0.61985 0.55281 0.05221
 C2849 C 0.56471 0.52106 0.02032
 C2850 C 0.55450 0.51603 0.01554
 H2851 H 0.57738 0.49984 0.02875
 H2852 H 0.59465 0.48647 0.04073
 H2853 H 0.61389 0.49787 0.05255
 H2854 H 0.61597 0.52269 0.05247
 H2855 H 0.59736 0.56870 0.03846
 H2856 H 0.57991 0.58208 0.02675
 H2857 H 0.56082 0.57069 0.01472
 H2858 H 0.55894 0.54585 0.01447
 C2859 C 0.02732 0.02691 0.07648
 C2860 C 0.02706 0.04137 0.07768
 C2861 C 0.03395 0.04786 0.08873
 C2862 C 0.04094 0.03984 0.09858
 C2863 C 0.04136 0.02540 0.09726
 C2864 C 0.03452 0.01891 0.08618
 C2865 C 0.03512 0.00447 0.08503
 C2866 C 0.04231 -0.00334 0.09456
 C2867 C 0.04902 0.00301 0.10539
 C2868 C 0.04858 0.01721 0.10679
 C2869 C 0.03373 0.06233 0.08962
 C2870 C 0.02686 0.07017 0.07988
 C2871 C 0.02002 0.06382 0.06913
 C2872 C 0.02009 0.04959 0.06798
 C2873 C 0.04746 0.04639 0.11021
 C2874 C 0.05275 0.05175 0.11998
 C2875 C 0.02086 0.02037 0.06481
 C2876 C 0.01598 0.01540 0.05463
 H2877 H 0.03006 -0.00092 0.07677
 H2878 H 0.04269 -0.01437 0.09351
 H2879 H 0.05462 -0.00310 0.11275
 H2880 H 0.05402 0.02168 0.11535
 H2881 H 0.03892 0.06774 0.09779
 H2882 H 0.02685 0.08123 0.08067
 H2883 H 0.01474 0.06996 0.06156
 H2884 H 0.01471 0.04515 0.05937
 C2885 C 0.02787 0.52828 0.57544
 C2886 C 0.03524 0.52025 0.58498
 C2887 C 0.04199 0.52665 0.59618
 C2888 C 0.04133 0.54105 0.59777
 C2889 C 0.03415 0.54912 0.58809
 C2890 C 0.02732 0.54271 0.57694
 C2891 C 0.02013 0.55098 0.56746
 C2892 C 0.01981 0.56518 0.56887
 C2893 C 0.02659 0.57145 0.57970
 C2894 C 0.03365 0.56356 0.58926
 C2895 C 0.04934 0.51840 0.60556
 C2896 C 0.05001 0.50423 0.60390
 C2897 C 0.04341 0.49798 0.59294
 C2898 C 0.03609 0.50584 0.58356
 C2899 C 0.04780 0.54752 0.60949
 C2900 C 0.05304 0.55283 0.61933
 C2901 C 0.02140 0.52181 0.56372
 C2902 C 0.01644 0.51675 0.55362
 H2903 H 0.01478 0.54659 0.55880
 H2904 H 0.01438 0.57136 0.56144
 H2905 H 0.02638 0.58249 0.58070
 H2906 H 0.03877 0.56891 0.59752
 H2907 H 0.05468 0.52279 0.61422
 H2908 H 0.05570 0.49808 0.61115
 H2909 H 0.04397 0.48697 0.59170
 H2910 H 0.03111 0.50051 0.57522
 C2911 C 0.52827 0.02937 0.57537
 C2912 C 0.52759 0.04380 0.57677
 C2913 C 0.53436 0.05037 0.58788
 C2914 C 0.54160 0.04246 0.59763
 C2915 C 0.54239 0.02804 0.59615
 C2916 C 0.53571 0.02149 0.58499
 C2917 C 0.53668 0.00708 0.58370
 C2918 C 0.54407 -0.00064 0.59315
 C2919 C 0.55061 0.00576 0.60406
 C2920 C 0.54980 0.01993 0.60560
 C2921 C 0.53377 0.06482 0.58891
 C2922 C 0.52664 0.07256 0.57927
 C2923 C 0.51989 0.06614 0.56851
 C2924 C 0.52032 0.05193 0.56723
 C2925 C 0.54803 0.04906 0.60933
 C2926 C 0.55330 0.05434 0.61919
 C2927 C 0.52186 0.02273 0.56370
 C2928 C 0.51689 0.01752 0.55366
 H2929 H 0.53177 0.00163 0.57539
 H2930 H 0.54472 -0.01165 0.59200
 H2931 H 0.55635 -0.00028 0.61136
 H2932 H 0.55511 0.02444 0.61423
 H2933 H 0.53885 0.07028 0.59711
 H2934 H 0.52636 0.08361 0.58016
 H2935 H 0.51440 0.07220 0.56103
 H2936 H 0.51500 0.04741 0.55861
 C2937 C 0.52698 0.52787 0.07635
 C2938 C 0.52681 0.54235 0.07740
 C2939 C 0.53363 0.54892 0.08846
 C2940 C 0.54048 0.54098 0.09846
 C2941 C 0.54083 0.52652 0.09729
 C2942 C 0.53405 0.51995 0.08620
 C2943 C 0.53459 0.50550 0.08521
 C2944 C 0.54166 0.49775 0.09487
 C2945 C 0.54831 0.50417 0.10570
 C2946 C 0.54792 0.51839 0.10696
 C2947 C 0.53350 0.56341 0.08918
 C2948 C 0.52677 0.57118 0.07929
 C2949 C 0.52000 0.56476 0.06854
 C2950 C 0.51999 0.55052 0.06755
 C2951 C 0.54700 0.54762 0.11006
 C2952 C 0.55235 0.55298 0.11981
 C2953 C 0.52053 0.52123 0.06471
 C2954 C 0.51564 0.51617 0.05457
 H2955 H 0.52958 0.50004 0.07696
 H2956 H 0.54200 0.48671 0.09394
 H2957 H 0.55382 0.49811 0.11316
 H2958 H 0.55331 0.52291 0.11553
 H2959 H 0.53864 0.56887 0.09735
 H2960 H 0.52684 0.58225 0.07996
 H2961 H 0.51483 0.57085 0.06086
 H2962 H 0.51467 0.54601 0.05893
 C2963 C 0.22207 0.52723 0.67338
 C2964 C 0.22534 0.52302 0.65991
 C2965 C 0.21886 0.52940 0.64854
 C2966 C 0.20910 0.53991 0.65071
 C2967 C 0.20579 0.54409 0.66419
 C2968 C 0.21236 0.53781 0.67556
 C2969 C 0.20897 0.54227 0.68893
 C2970 C 0.19925 0.55251 0.69102
 C2971 C 0.19278 0.55859 0.67992
 C2972 C 0.19599 0.55450 0.66663
 C2973 C 0.22234 0.52504 0.63517
 C2974 C 0.23195 0.51470 0.63308
 C2975 C 0.23827 0.50847 0.64420
 C2976 C 0.23504 0.51254 0.65749
 C2977 C 0.20256 0.54648 0.63908
 C2978 C 0.19723 0.55195 0.62938
 C2979 C 0.22856 0.52070 0.68506
 C2980 C 0.23351 0.51575 0.69523
 H2981 H 0.21366 0.53782 0.69793
 H2982 H 0.19666 0.55567 0.70130
 H2983 H 0.18520 0.56651 0.68160
 H2984 H 0.19068 0.55954 0.65832
 H2985 H 0.21770 0.52958 0.62619
 H2986 H 0.23450 0.51150 0.62278
 H2987 H 0.24573 0.50045 0.64252
 H2988 H 0.24024 0.50740 0.66581
 C2989 C 0.22105 0.02840 0.17455
 C2990 C 0.21127 0.03895 0.17644
 C2991 C 0.20479 0.04497 0.16489
 C2992 C 0.20830 0.04056 0.15154
 C2993 C 0.21810 0.03004 0.14966
 C2994 C 0.22448 0.02392 0.16121
 C2995 C 0.23422 0.01340 0.15910
 C2996 C 0.23758 0.00905 0.14593
 C2997 C 0.23135 0.01504 0.13463
 C2998 C 0.22171 0.02541 0.13641
 C2999 C 0.19484 0.05530 0.16702
 C3000 C 0.19137 0.05955 0.18018
 C3001 C 0.19776 0.05372 0.19147
 C3002 C 0.20766 0.04360 0.18969
 C3003 C 0.20194 0.04693 0.13972
 C3004 C 0.19677 0.05224 0.12987
 C3005 C 0.22744 0.02207 0.18637
 C3006 C 0.23246 0.01709 0.19647
 H3007 H 0.23934 0.00844 0.16757
 H3008 H 0.24505 0.00100 0.14450
 H3009 H 0.23399 0.01162 0.12442
 H3010 H 0.21713 0.02973 0.12729
 H3011 H 0.18958 0.06013 0.15855
 H3012 H 0.18366 0.06738 0.18164
 H3013 H 0.19493 0.05696 0.20165
 H3014 H 0.21229 0.03935 0.19881
 C3015 C 0.72129 0.22164 0.57557
 C3016 C 0.71052 0.21209 0.57361
 C3017 C 0.70445 0.20554 0.58510
 C3018 C 0.70906 0.20871 0.59848
 C3019 C 0.71980 0.21827 0.60042
 C3020 C 0.72595 0.22472 0.58893
 C3021 C 0.73671 0.23420 0.59112
 C3022 C 0.74126 0.23722 0.60430
 C3023 C 0.73524 0.23094 0.61555
 C3024 C 0.72463 0.22156 0.61370
 C3025 C 0.69388 0.19586 0.58288
 C3026 C 0.68946 0.19269 0.56968
 C3027 C 0.69536 0.19911 0.55846
 C3028 C 0.70570 0.20878 0.56033
 C3029 C 0.70269 0.20224 0.61025
 C3030 C 0.69740 0.19699 0.62008
 C3031 C 0.72765 0.22809 0.56379
 C3032 C 0.73267 0.23311 0.55371
 H3033 H 0.74171 0.23936 0.58270
 H3034 H 0.74950 0.24449 0.60580
 H3035 H 0.73880 0.23333 0.62577
 H3036 H 0.72028 0.21693 0.62276
 H3037 H 0.68898 0.19058 0.59129
 H3038 H 0.68144 0.18518 0.56815
 H3039 H 0.69199 0.19651 0.54825
 H3040 H 0.70999 0.21345 0.55126
 C3041 C 0.72264 0.72293 0.07680
 C3042 C 0.71295 0.71230 0.07480
 C3043 C 0.70641 0.70619 0.08627
 C3044 C 0.70972 0.71062 0.09967
 C3045 C 0.71944 0.72121 0.10167
 C3046 C 0.72590 0.72740 0.09019
 C3047 C 0.73556 0.73797 0.09243
 C3048 C 0.73878 0.74231 0.10565
 C3049 C 0.73247 0.73626 0.11687
 C3050 C 0.72291 0.72583 0.11497
 C3051 C 0.69662 0.69571 0.08401
 C3052 C 0.69341 0.69138 0.07079
 C3053 C 0.69985 0.69729 0.05959
 C3054 C 0.70954 0.70760 0.06150
 C3055 C 0.70326 0.70419 0.11141
 C3056 C 0.69798 0.69882 0.12118
 C3057 C 0.72909 0.72929 0.06502
 C3058 C 0.73397 0.73414 0.05479
 H3059 H 0.74074 0.74297 0.08402
 H3060 H 0.74620 0.75040 0.10718
 H3061 H 0.73500 0.73966 0.12711
 H3062 H 0.71827 0.72145 0.12402
 H3063 H 0.69134 0.69080 0.09240
 H3064 H 0.68586 0.68340 0.06924
 H3065 H 0.69727 0.69394 0.04937
 H3066 H 0.71422 0.71191 0.05243
 C3067 C 0.52711 0.72268 0.17338
 C3068 C 0.52694 0.70822 0.17214
 C3069 C 0.53382 0.70180 0.16104
 C3070 C 0.54070 0.70988 0.15118
 C3071 C 0.54105 0.72432 0.15254
 C3072 C 0.53422 0.73074 0.16367
 C3073 C 0.53476 0.74518 0.16485
 C3074 C 0.54190 0.75305 0.15533
 C3075 C 0.54860 0.74677 0.14446
 C3076 C 0.54820 0.73258 0.14302
 C3077 C 0.53369 0.68732 0.16014
 C3078 C 0.52693 0.67942 0.16990
 C3079 C 0.52012 0.68570 0.18069
 C3080 C 0.52009 0.69992 0.18186
 C3081 C 0.54720 0.70339 0.13949
 C3082 C 0.55248 0.69808 0.12969
 C3083 C 0.52062 0.72917 0.18507
 C3084 C 0.51573 0.73413 0.19525
 H3085 H 0.52971 0.75053 0.17313
 H3086 H 0.54224 0.76408 0.15641
 H3087 H 0.55415 0.75293 0.13712
 H3088 H 0.55363 0.72816 0.13443
 H3089 H 0.53887 0.68197 0.15193
 H3090 H 0.52701 0.66836 0.16909
 H3091 H 0.51492 0.67950 0.18827
 H3092 H 0.51473 0.70432 0.19050
 C3093 C 0.02682 0.72195 0.67346
 C3094 C 0.02760 0.70747 0.67298
 C3095 C 0.03457 0.70093 0.66200
 C3096 C 0.04060 0.70891 0.65151
 C3097 C 0.03992 0.72339 0.65206
 C3098 C 0.03300 0.72993 0.66307
 C3099 C 0.03250 0.74441 0.66344
 C3100 C 0.03872 0.75222 0.65326
 C3101 C 0.04551 0.74583 0.64251
 C3102 C 0.04613 0.73159 0.64186
 C3103 C 0.03539 0.68645 0.66183
 C3104 C 0.02950 0.67865 0.67222
 C3105 C 0.02263 0.68504 0.68292
 C3106 C 0.02164 0.69927 0.68334
 C3107 C 0.04735 0.70224 0.64006
 C3108 C 0.05286 0.69682 0.63045
 C3109 C 0.02035 0.72860 0.68506
 C3110 C 0.01548 0.73367 0.69520
 H3111 H 0.02732 0.74984 0.67159
 H3112 H 0.03827 0.76329 0.65372
 H3113 H 0.05035 0.75195 0.63464
 H3114 H 0.05157 0.72710 0.63332
 H3115 H 0.04062 0.68102 0.65372
 H3116 H 0.03025 0.66759 0.67197
 H3117 H 0.01803 0.67893 0.69092
 H3118 H 0.01623 0.70375 0.69191
 C3119 C 0.52765 0.67418 0.22196
 C3120 C 0.53773 0.67661 0.21181
 C3121 C 0.54418 0.66538 0.20516
 C3122 C 0.54049 0.65181 0.20867
 C3123 C 0.53037 0.64939 0.21877
 C3124 C 0.52393 0.66062 0.22543
 C3125 C 0.51384 0.65797 0.23549
 C3126 C 0.51020 0.64459 0.23886
 C3127 C 0.51649 0.63360 0.23235
 C3128 C 0.52646 0.63591 0.22242
 C3129 C 0.55424 0.66805 0.19508
 C3130 C 0.55781 0.68144 0.19164
 C3131 C 0.55150 0.69242 0.19812
 C3132 C 0.54158 0.69010 0.20810
 C3133 C 0.54710 0.64029 0.20198
 C3134 C 0.55249 0.63057 0.19662
 C3135 C 0.52110 0.68568 0.22871
 C3136 C 0.51607 0.69571 0.23383
 H3137 H 0.50867 0.66619 0.24083
 H3138 H 0.50245 0.64274 0.24656
 H3139 H 0.51362 0.62323 0.23501
 H3140 H 0.53105 0.62703 0.21765
 H3141 H 0.55943 0.65984 0.18974
 H3142 H 0.56551 0.68330 0.18389
 H3143 H 0.55430 0.70280 0.19541
 H3144 H 0.53698 0.69899 0.21285
 C3145 C 0.02755 0.67369 0.72265
 C3146 C 0.04203 0.67289 0.72230
 C3147 C 0.04851 0.66188 0.71532
 C3148 C 0.04046 0.65171 0.70883
 C3149 C 0.02599 0.65263 0.70901
 C3150 C 0.01951 0.66363 0.71599
 C3151 C 0.00504 0.66436 0.71601
 C3152 C -0.00282 0.65452 0.70929
 C3153 C 0.00351 0.64377 0.70243
 C3154 C 0.01775 0.64278 0.70227
 C3155 C 0.06299 0.66135 0.71498
 C3156 C 0.07087 0.67137 0.72144
 C3157 C 0.06454 0.68207 0.72837
 C3158 C 0.05030 0.68290 0.72878
 C3159 C 0.04702 0.64012 0.70225
 C3160 C 0.05236 0.63037 0.69692
 C3161 C 0.02099 0.68529 0.72919
 C3162 C 0.01595 0.69541 0.73412
 H3163 H -0.00035 0.67254 0.72119
 H3164 H -0.01388 0.65524 0.70939
 H3165 H -0.00263 0.63617 0.69719
 H3166 H 0.02220 0.63426 0.69676
 H3167 H 0.06838 0.65323 0.70971
 H3168 H 0.08193 0.67084 0.72104
 H3169 H 0.07070 0.68983 0.73335
 H3170 H 0.04587 0.69149 0.73421
 C3171 C 0.02769 0.07550 0.02817
 C3172 C 0.03780 0.07304 0.03829
 C3173 C 0.04431 0.08425 0.04493
 C3174 C 0.04066 0.09784 0.04141
 C3175 C 0.03053 0.10027 0.03131
 C3176 C 0.02404 0.08906 0.02467
 C3177 C 0.01397 0.09173 0.01460
 C3178 C 0.01038 0.10511 0.01119
 C3179 C 0.01672 0.11609 0.01769
 C3180 C 0.02669 0.11376 0.02764
 C3181 C 0.05438 0.08156 0.05501
 C3182 C 0.05793 0.06816 0.05844
 C3183 C 0.05157 0.05720 0.05195
 C3184 C 0.04162 0.05954 0.04199
 C3185 C 0.04732 0.10934 0.04808
 C3186 C 0.05273 0.11907 0.05343
 C3187 C 0.02109 0.06402 0.02143
 C3188 C 0.01603 0.05402 0.01627
 H3189 H 0.00876 0.08352 0.00926
 H3190 H 0.00265 0.10698 0.00348
 H3191 H 0.01390 0.12647 0.01502
 H3192 H 0.03132 0.12264 0.03240
 H3193 H 0.05961 0.08976 0.06034
 H3194 H 0.06564 0.06629 0.06617
 H3195 H 0.05435 0.04681 0.05465
 H3196 H 0.03699 0.05066 0.03724
 C3197 C 0.02913 0.57454 0.52927
 C3198 C 0.02530 0.58804 0.52566
 C3199 C 0.03161 0.59938 0.53224
 C3200 C 0.04175 0.59716 0.54237
 C3201 C 0.04554 0.58366 0.54604
 C3202 C 0.03920 0.57231 0.53948
 C3203 C 0.04314 0.55889 0.54334
 C3204 C 0.05306 0.55676 0.55337
 C3205 C 0.05926 0.56786 0.55978
 C3206 C 0.05559 0.58118 0.55619
 C3207 C 0.02757 0.61279 0.52848
 C3208 C 0.01758 0.61491 0.51852
 C3209 C 0.01142 0.60381 0.51207
 C3210 C 0.01520 0.59050 0.51556
 C3211 C 0.04828 0.60880 0.54895
 C3212 C 0.05361 0.61861 0.55424
 C3213 C 0.02269 0.56294 0.52256
 C3214 C 0.01757 0.55302 0.51731
 H3215 H 0.03861 0.54992 0.53866
 H3216 H 0.05594 0.54643 0.55620
 H3217 H 0.06695 0.56615 0.56758
 H3218 H 0.06068 0.58949 0.56148
 H3219 H 0.03204 0.62177 0.53321
 H3220 H 0.01460 0.62523 0.51578
 H3221 H 0.00367 0.60551 0.50433
 H3222 H 0.01011 0.58219 0.51027
 C3223 C 0.52902 0.07515 0.52881
 C3224 C 0.53916 0.07284 0.53893
 C3225 C 0.54572 0.08415 0.54536
 C3226 C 0.54208 0.09768 0.54163
 C3227 C 0.53193 0.09997 0.53151
 C3228 C 0.52539 0.08866 0.52509
 C3229 C 0.51528 0.09119 0.51501
 C3230 C 0.51173 0.10452 0.51139
 C3231 C 0.51811 0.11559 0.51767
 C3232 C 0.52811 0.11340 0.52762
 C3233 C 0.55581 0.08161 0.55545
 C3234 C 0.55934 0.06827 0.55909
 C3235 C 0.55294 0.05720 0.55281
 C3236 C 0.54296 0.05940 0.54284
 C3237 C 0.54868 0.10929 0.54819
 C3238 C 0.55397 0.11910 0.55351
 C3239 C 0.52234 0.06359 0.52228
 C3240 C 0.51710 0.05366 0.51715
 H3241 H 0.51002 0.08291 0.50984
 H3242 H 0.50397 0.10627 0.50366
 H3243 H 0.51531 0.12593 0.51483
 H3244 H 0.53278 0.12235 0.53221
 H3245 H 0.56107 0.08988 0.56062
 H3246 H 0.56708 0.06650 0.56682
 H3247 H 0.55572 0.04686 0.55567
 H3248 H 0.53828 0.05046 0.53826
 C3249 C 0.52776 0.57610 0.02765
 C3250 C 0.52411 0.58964 0.02405
 C3251 C 0.53062 0.60090 0.03060
 C3252 C 0.54074 0.59853 0.04072
 C3253 C 0.54441 0.58497 0.04432
 C3254 C 0.53789 0.57372 0.03777
 C3255 C 0.54172 0.56025 0.04155
 C3256 C 0.55168 0.55797 0.05151
 C3257 C 0.55805 0.56898 0.05791
 C3258 C 0.55450 0.58235 0.05439
 C3259 C 0.52678 0.61436 0.02683
 C3260 C 0.51681 0.61663 0.01688
 C3261 C 0.51045 0.60561 0.01047
 C3262 C 0.51402 0.59225 0.01397
 C3263 C 0.54733 0.61007 0.04740
 C3264 C 0.55269 0.61978 0.05281
 C3265 C 0.52112 0.56457 0.02105
 C3266 C 0.51601 0.55452 0.01603
 H3267 H 0.53707 0.55133 0.03688
 H3268 H 0.55448 0.54760 0.05427
 H3269 H 0.56579 0.56716 0.06563
 H3270 H 0.55974 0.59058 0.05965
 H3271 H 0.53143 0.62327 0.03152
 H3272 H 0.51400 0.62699 0.01413
 H3273 H 0.50271 0.60742 0.00275
 H3274 H 0.50880 0.58400 0.00871
 C3275 C 0.72147 0.17471 0.52919
 C3276 C 0.72139 0.17378 0.54366
 C3277 C 0.71437 0.16283 0.55017
 C3278 C 0.70762 0.15278 0.54216
 C3279 C 0.70765 0.15376 0.52770
 C3280 C 0.71466 0.16472 0.52119
 C3281 C 0.71461 0.16545 0.50672
 C3282 C 0.70775 0.15568 0.49890
 C3283 C 0.70084 0.14499 0.50526
 C3284 C 0.70077 0.14398 0.51949
 C3285 C 0.71429 0.16219 0.56464
 C3286 C 0.72108 0.17201 0.57247
 C3287 C 0.72810 0.18262 0.56611
 C3288 C 0.72824 0.18359 0.55187
 C3289 C 0.70104 0.14121 0.54877
 C3290 C 0.69577 0.13144 0.55415
 C3291 C 0.72803 0.18629 0.52260
 C3292 C 0.73309 0.19629 0.51746
 H3293 H 0.71983 0.17359 0.50131
 H3294 H 0.70779 0.15641 0.48785
 H3295 H 0.69551 0.13743 0.49914
 H3296 H 0.69524 0.13549 0.52396
 H3297 H 0.70898 0.15411 0.57006
 H3298 H 0.72089 0.17139 0.58353
 H3299 H 0.73336 0.19023 0.57223
 H3300 H 0.73374 0.19210 0.54741
 C3301 C 0.72220 0.67327 0.02654
 C3302 C 0.70773 0.67281 0.02764
 C3303 C 0.70131 0.66166 0.03443
 C3304 C 0.70938 0.65097 0.03999
 C3305 C 0.72385 0.65150 0.03901
 C3306 C 0.73027 0.66268 0.03224
 C3307 C 0.74474 0.66301 0.03142
 C3308 C 0.75265 0.65263 0.03717
 C3309 C 0.74638 0.64172 0.04382
 C3310 C 0.73215 0.64110 0.04474
 C3311 C 0.68686 0.66152 0.03556
 C3312 C 0.67897 0.67210 0.03013
 C3313 C 0.68524 0.68296 0.02342
 C3314 C 0.69944 0.68337 0.02215
 C3315 C 0.70284 0.63935 0.04657
 C3316 C 0.69753 0.62959 0.05194
 C3317 C 0.72874 0.68501 0.02021
 C3318 C 0.73371 0.69524 0.01544
 H3319 H 0.75008 0.67128 0.02635
 H3320 H 0.76370 0.65305 0.03648
 H3321 H 0.75257 0.63370 0.04831
 H3322 H 0.72776 0.63243 0.05005
 H3323 H 0.68151 0.65328 0.04068
 H3324 H 0.66792 0.67186 0.03111
 H3325 H 0.67906 0.69112 0.01918
 H3326 H 0.70383 0.69207 0.01688
 C3327 C 0.22249 0.57685 0.72300
 C3328 C 0.20800 0.57737 0.72222
 C3329 C 0.20150 0.58846 0.71541
 C3330 C 0.20951 0.59903 0.70954
 C3331 C 0.22399 0.59844 0.71024
 C3332 C 0.23049 0.58733 0.71700
 C3333 C 0.24497 0.58694 0.71755
 C3334 C 0.25281 0.59723 0.71154
 C3335 C 0.24646 0.60808 0.70488
 C3336 C 0.23222 0.60874 0.70422
 C3337 C 0.18702 0.58867 0.71460
 C3338 C 0.17919 0.57822 0.72038
 C3339 C 0.18554 0.56744 0.72712
 C3340 C 0.19978 0.56696 0.72807
 C3341 C 0.20289 0.61059 0.70295
 C3342 C 0.19754 0.62031 0.69756
 C3343 C 0.22908 0.56515 0.72931
 C3344 C 0.23405 0.55494 0.73411
 H3345 H 0.25037 0.57870 0.72262
 H3346 H 0.26388 0.59677 0.71204
 H3347 H 0.25260 0.61603 0.70020
 H3348 H 0.22776 0.61737 0.69890
 H3349 H 0.18161 0.59686 0.70947
 H3350 H 0.16813 0.57852 0.71964
 H3351 H 0.17942 0.55939 0.73164
 H3352 H 0.20423 0.55831 0.73337
 C3353 C 0.22170 0.07543 0.22171
 C3354 C 0.20724 0.07660 0.22181
 C3355 C 0.20081 0.08772 0.21496
 C3356 C 0.20890 0.09769 0.20822
 C3357 C 0.22335 0.09646 0.20805
 C3358 C 0.22977 0.08530 0.21483
 C3359 C 0.24422 0.08427 0.21453
 C3360 C 0.25212 0.09397 0.20767
 C3361 C 0.24585 0.10486 0.20099
 C3362 C 0.23163 0.10615 0.20116
 C3363 C 0.18634 0.08855 0.21500
 C3364 C 0.17844 0.07870 0.22165
 C3365 C 0.18473 0.06792 0.22847
 C3366 C 0.19895 0.06681 0.22857
 C3367 C 0.20240 0.10937 0.20172
 C3368 C 0.19708 0.11919 0.19645
 C3369 C 0.22818 0.06369 0.22810
 C3370 C 0.23321 0.05356 0.23301
 H3371 H 0.24957 0.07598 0.21958
 H3372 H 0.26316 0.09302 0.20752
 H3373 H 0.25202 0.11235 0.19565
 H3374 H 0.22723 0.11478 0.19579
 H3375 H 0.18098 0.09677 0.20985
 H3376 H 0.16738 0.07946 0.22156
 H3377 H 0.17855 0.06037 0.23369
 H3378 H 0.20335 0.05818 0.23395
 C3379 C 0.72119 1.07538 0.72166
 C3380 C 0.72926 1.08492 0.71433
 C3381 C 0.72291 1.09619 0.70767
 C3382 C 0.70852 1.09783 0.70837
 C3383 C 0.70041 1.08816 0.71551
 C3384 C 0.70678 1.07696 0.72227
 C3385 C 0.69848 1.06751 0.72948
 C3386 C 0.68429 1.06898 0.72983
 C3387 C 0.67805 1.07984 0.72308
 C3388 C 0.68598 1.08938 0.71603
 C3389 C 0.73119 1.10558 0.70037
 C3390 C 0.74535 1.10387 0.69967
 C3391 C 0.75155 1.09285 0.70619
 C3392 C 0.74366 1.08346 0.71346
 C3393 C 0.70210 1.10960 0.70196
 C3394 C 0.69683 1.11947 0.69676
 C3395 C 0.72760 1.06361 0.72805
 C3396 C 0.73261 1.05349 0.73300
 H3397 H 0.70284 1.05882 0.73479
 H3398 H 0.67808 1.06157 0.73527
 H3399 H 0.66702 1.08087 0.72331
 H3400 H 0.68066 1.09767 0.71095
 H3401 H 0.72684 1.11429 0.69510
 H3402 H 0.75153 1.11113 0.69402
 H3403 H 0.76255 1.09157 0.70561
 H3404 H 0.74895 1.07506 0.71837
 C3405 C 0.72272 0.57700 0.22339
 C3406 C 0.70825 0.57746 0.22243
 C3407 C 0.70178 0.58855 0.21558
 C3408 C 0.70982 0.59918 0.20987
 C3409 C 0.72429 0.59866 0.21075
 C3410 C 0.73076 0.58754 0.21756
 C3411 C 0.74523 0.58722 0.21830
 C3412 C 0.75310 0.59757 0.21243
 C3413 C 0.74679 0.60842 0.20573
 C3414 C 0.73255 0.60902 0.20488
 C3415 C 0.68731 0.58868 0.21456
 C3416 C 0.67946 0.57817 0.22017
 C3417 C 0.68577 0.56738 0.22696
 C3418 C 0.69999 0.56697 0.22811
 C3419 C 0.70323 0.61076 0.20328
 C3420 C 0.69788 0.62049 0.19791
 C3421 C 0.72929 0.56529 0.22971
 C3422 C 0.73427 0.55506 0.23448
 H3423 H 0.75060 0.57899 0.22341
 H3424 H 0.76416 0.59716 0.21308
 H3425 H 0.75295 0.61641 0.20115
 H3426 H 0.72812 0.61765 0.19953
 H3427 H 0.68193 0.59686 0.20938
 H3428 H 0.66841 0.57840 0.21927
 H3429 H 0.67963 0.55928 0.23135
 H3430 H 0.70442 0.55833 0.23344
 C3431 C 0.52794 0.17391 0.72138
 C3432 C 0.52417 0.16035 0.72482
 C3433 C 0.53054 0.14911 0.71811
 C3434 C 0.54067 0.15149 0.70800
 C3435 C 0.54441 0.16506 0.70453
 C3436 C 0.53802 0.17631 0.71123
 C3437 C 0.54193 0.18979 0.70755
 C3438 C 0.55185 0.19209 0.69756
 C3439 C 0.55810 0.18110 0.69104
 C3440 C 0.55447 0.16772 0.69444
 C3441 C 0.52657 0.13564 0.72172
 C3442 C 0.51660 0.13335 0.73165
 C3443 C 0.51038 0.14435 0.73821
 C3444 C 0.51409 0.15772 0.73488
 C3445 C 0.54725 0.13994 0.70129
 C3446 C 0.55265 0.13021 0.69590
 C3447 C 0.52143 0.18543 0.72818
 C3448 C 0.51635 0.19542 0.73337
 H3449 H 0.53737 0.19869 0.71233
 H3450 H 0.55471 0.20246 0.69488
 H3451 H 0.56580 0.18294 0.68329
 H3452 H 0.55960 0.15950 0.68907
 H3453 H 0.53110 0.12674 0.71691
 H3454 H 0.51368 0.12298 0.73428
 H3455 H 0.50264 0.14251 0.74592
 H3456 H 0.50897 0.16594 0.74025
 C3457 C 1.02770 0.17348 0.22193
 C3458 C 1.03782 0.17595 0.21183
 C3459 C 1.04437 0.16476 0.20524
 C3460 C 1.04077 0.15117 0.20880
 C3461 C 1.03061 0.14871 0.21885
 C3462 C 1.02406 0.15991 0.22544
 C3463 C 1.01393 0.15722 0.23544
 C3464 C 1.01036 0.14382 0.23883
 C3465 C 1.01676 0.13286 0.23239
 C3466 C 1.02678 0.13521 0.22251
 C3467 C 1.05444 0.16746 0.19518
 C3468 C 1.05793 0.18086 0.19171
 C3469 C 1.05153 0.19182 0.19814
 C3470 C 1.04158 0.18946 0.20809
 C3471 C 1.04747 0.13969 0.20215
 C3472 C 1.05290 0.13002 0.19676
 C3473 C 1.02106 0.18495 0.22862
 C3474 C 1.01596 0.19496 0.23371
 H3475 H 1.00867 0.16541 0.24072
 H3476 H 1.00259 0.14194 0.24650
 H3477 H 1.01395 0.12248 0.23505
 H3478 H 1.03145 0.12635 0.21778
 H3479 H 1.05970 0.15927 0.18989
 H3480 H 1.06565 0.18275 0.18399
 H3481 H 1.05427 0.20221 0.19542
 H3482 H 1.03690 0.19833 0.21280
 C3483 C 0.22132 0.67465 0.52771
 C3484 C 0.22946 0.66483 0.53456
 C3485 C 0.22314 0.65358 0.54129
 C3486 C 0.20869 0.65222 0.54112
 C3487 C 0.20053 0.66215 0.53440
 C3488 C 0.20687 0.67334 0.52759
 C3489 C 0.19850 0.68309 0.52087
 C3490 C 0.18429 0.68186 0.52097
 C3491 C 0.17808 0.67100 0.52773
 C3492 C 0.18607 0.66120 0.53436
 C3493 C 0.23150 0.64392 0.54813
 C3494 C 0.24571 0.64534 0.54831
 C3495 C 0.25188 0.65632 0.54171
 C3496 C 0.24391 0.66599 0.53489
 C3497 C 0.20227 0.64049 0.54764
 C3498 C 0.19702 0.63066 0.55294
 C3499 C 0.22771 0.68646 0.52133
 C3500 C 0.23268 0.69663 0.51642
 H3501 H 0.20282 0.69178 0.51553
 H3502 H 0.17805 0.68937 0.51576
 H3503 H 0.16703 0.67014 0.52781
 H3504 H 0.18077 0.65291 0.53946
 H3505 H 0.22717 0.63522 0.55344
 H3506 H 0.25195 0.63787 0.55362
 H3507 H 0.26292 0.65737 0.54188
 H3508 H 0.24918 0.67435 0.52990
 C3509 C 0.22201 0.17395 1.02773
 C3510 C 0.23005 0.16414 1.03474
 C3511 C 0.22359 0.15301 1.04153
 C3512 C 0.20915 0.15175 1.04124
 C3513 C 0.20110 0.16168 1.03440
 C3514 C 0.20756 0.17276 1.02754
 C3515 C 0.19930 0.18250 1.02067
 C3516 C 0.18507 0.18138 1.02070
 C3517 C 0.17875 0.17063 1.02753
 C3518 C 0.18662 0.16083 1.03429
 C3519 C 0.23184 0.14337 1.04854
 C3520 C 0.24605 0.14470 1.04883
 C3521 C 0.25235 0.15557 1.04216
 C3522 C 0.24450 0.16521 1.03518
 C3523 C 0.20261 0.14010 1.04775
 C3524 C 0.19727 0.13031 1.05302
 C3525 C 0.22852 0.18565 1.02131
 C3526 C 0.23354 0.19578 1.01639
 H3527 H 0.20372 0.19111 1.01528
 H3528 H 0.17893 0.18888 1.01538
 H3529 H 0.16769 0.16986 1.02756
 H3530 H 0.18124 0.15264 1.03945
 H3531 H 0.22741 0.13476 1.05391
 H3532 H 0.25220 0.13725 1.05427
 H3533 H 0.26339 0.15655 1.04241
 H3534 H 0.24987 0.17349 1.03013
 C3535 C 0.22180 0.72171 0.57541
 C3536 C 0.21223 0.71096 0.57346
 C3537 C 0.20574 0.70485 0.58496
 C3538 C 0.20899 0.70941 0.59834
 C3539 C 0.21856 0.72014 0.60028
 C3540 C 0.22496 0.72633 0.58878
 C3541 C 0.23445 0.73707 0.59096
 C3542 C 0.23754 0.74158 0.60414
 C3543 C 0.23130 0.73552 0.61540
 C3544 C 0.22192 0.72492 0.61355
 C3545 C 0.19603 0.69430 0.58276
 C3546 C 0.19278 0.68994 0.56956
 C3547 C 0.19916 0.69587 0.55833
 C3548 C 0.20885 0.70619 0.56019
 C3549 C 0.20255 0.70303 0.61012
 C3550 C 0.19731 0.69776 0.61998
 C3551 C 0.22820 0.72810 0.56363
 C3552 C 0.23318 0.73313 0.55353
 H3553 H 0.23957 0.74210 0.58252
 H3554 H 0.24482 0.74981 0.60563
 H3555 H 0.23374 0.73906 0.62562
 H3556 H 0.21732 0.72055 0.62263
 H3557 H 0.19078 0.68939 0.59118
 H3558 H 0.18525 0.68194 0.56804
 H3559 H 0.19649 0.69254 0.54813
 H3560 H 0.21348 0.71051 0.55110
 C3561 C 0.22139 0.22108 1.07527
 C3562 C 0.21180 0.21035 1.07327
 C3563 C 0.20534 0.20416 1.08475
 C3564 C 0.20868 0.20857 1.09816
 C3565 C 0.21833 0.21923 1.10014
 C3566 C 0.22468 0.22551 1.08866
 C3567 C 0.23427 0.23616 1.09090
 C3568 C 0.23750 0.24048 1.10411
 C3569 C 0.23130 0.23433 1.11534
 C3570 C 0.22182 0.22383 1.11344
 C3571 C 0.19559 0.19366 1.08249
 C3572 C 0.19229 0.18941 1.06928
 C3573 C 0.19866 0.19540 1.05807
 C3574 C 0.20837 0.20569 1.05997
 C3575 C 0.20224 0.20215 1.10992
 C3576 C 0.19698 0.19689 1.11977
 C3577 C 0.22772 0.22760 1.06350
 C3578 C 0.23268 0.23271 1.05343
 H3579 H 0.23937 0.24124 1.08249
 H3580 H 0.24487 0.24863 1.10564
 H3581 H 0.23385 0.23772 1.12559
 H3582 H 0.21728 0.21937 1.12251
 H3583 H 0.19037 0.18869 1.09090
 H3584 H 0.18473 0.18144 1.06771
 H3585 H 0.19596 0.19215 1.04785
 H3586 H 0.21299 0.21005 1.05091
 C3587 C 0.72252 0.52741 0.17336
 C3588 C 0.72558 0.52290 0.15995
 C3589 C 0.71909 0.52916 0.14852
 C3590 C 0.70953 0.53987 0.15058
 C3591 C 0.70641 0.54435 0.16401
 C3592 C 0.71298 0.53816 0.17543
 C3593 C 0.70974 0.54288 0.18876
 C3594 C 0.70018 0.55328 0.19074
 C3595 C 0.69371 0.55928 0.17959
 C3596 C 0.69678 0.55493 0.16635
 C3597 C 0.72237 0.52448 0.13520
 C3598 C 0.73176 0.51392 0.13323
 C3599 C 0.73809 0.50780 0.14440
 C3600 C 0.73507 0.51219 0.15763
 C3601 C 0.70299 0.54633 0.13888
 C3602 C 0.69767 0.55167 0.12911
 C3603 C 0.72901 0.52098 0.18509
 C3604 C 0.73393 0.51608 0.19529
 H3605 H 0.71444 0.53851 0.19779
 H3606 H 0.69770 0.55664 0.20098
 H3607 H 0.68627 0.56734 0.18120
 H3608 H 0.69148 0.55992 0.15799
 H3609 H 0.71771 0.52892 0.12618
 H3610 H 0.73415 0.51047 0.12297
 H3611 H 0.74538 0.49960 0.14282
 H3612 H 0.74026 0.50713 0.16601
 C3613 C 0.72079 1.02820 0.67468
 C3614 C 0.70636 1.02762 0.67323
 C3615 C 0.69988 1.03457 0.66221
 C3616 C 0.70788 1.04189 0.65260
 C3617 C 0.72229 1.04259 0.65413
 C3618 C 0.72876 1.03572 0.66520
 C3619 C 0.74317 1.03660 0.66655
 C3620 C 0.75096 1.04408 0.65724
 C3621 C 0.74463 1.05081 0.64642
 C3622 C 0.73047 1.05010 0.64482
 C3623 C 0.68543 1.03405 0.66112
 C3624 C 0.67761 1.02685 0.67062
 C3625 C 0.68395 1.01994 0.68131
 C3626 C 0.69816 1.02027 0.68265
 C3627 C 0.70135 1.04848 0.64098
 C3628 C 0.69607 1.05383 0.63119
 C3629 C 0.72734 1.02163 0.68630
 C3630 C 0.73246 1.01659 0.69633
 H3631 H 0.74856 1.03153 0.67480
 H3632 H 0.76197 1.04466 0.65843
 H3633 H 0.75073 1.05662 0.63922
 H3634 H 0.72602 1.05555 0.63627
 H3635 H 0.68004 1.03927 0.65297
 H3636 H 0.66656 1.02664 0.66968
 H3637 H 0.67782 1.01440 0.68870
 H3638 H 0.70260 1.01484 0.69122
 C3639 C 0.52697 0.22241 0.67347
 C3640 C 0.53426 0.23037 0.66382
 C3641 C 0.54114 0.22385 0.65277
 C3642 C 0.54066 0.20941 0.65145
 C3643 C 0.53361 0.20142 0.66127
 C3644 C 0.52669 0.20794 0.67229
 C3645 C 0.51970 0.19974 0.68198
 C3646 C 0.51963 0.18551 0.68087
 C3647 C 0.52647 0.17913 0.67014
 C3648 C 0.53336 0.18695 0.66040
 C3649 C 0.54846 0.23202 0.64331
 C3650 C 0.54900 0.24621 0.64474
 C3651 C 0.54227 0.25258 0.65553
 C3652 C 0.53495 0.24480 0.66498
 C3653 C 0.54728 0.20282 0.63989
 C3654 C 0.55268 0.19746 0.63018
 C3655 C 0.52045 0.22897 0.68508
 C3656 C 0.51552 0.23396 0.69523
 H3657 H 0.51431 0.20420 0.69056
 H3658 H 0.51434 0.17938 0.68844
 H3659 H 0.52646 0.16807 0.66938
 H3660 H 0.53855 0.18152 0.65226
 H3661 H 0.55391 0.22754 0.63477
 H3662 H 0.55470 0.25230 0.63744
 H3663 H 0.54273 0.26361 0.65661
 H3664 H 0.52988 0.25022 0.67321
 C3665 C 1.02700 0.22168 0.17354
 C3666 C 1.02672 0.20721 0.17239
 C3667 C 1.03357 0.20067 0.16134
 C3668 C 1.04053 0.20864 0.15144
 C3669 C 1.04099 0.22308 0.15272
 C3670 C 1.03420 0.22962 0.16380
 C3671 C 1.03486 0.24406 0.16491
 C3672 C 1.04207 0.25182 0.15536
 C3673 C 1.04873 0.24543 0.14454
 C3674 C 1.04822 0.23123 0.14317
 C3675 C 1.03333 0.18619 0.16051
 C3676 C 1.02651 0.17839 0.17031
 C3677 C 1.01973 0.18479 0.18106
 C3678 C 1.01980 0.19902 0.18215
 C3679 C 1.04705 0.20204 0.13982
 C3680 C 1.05241 0.19673 0.13006
 C3681 C 1.02052 0.22828 0.18517
 C3682 C 1.01561 0.23333 0.19530
 H3683 H 1.02985 0.24949 0.17316
 H3684 H 1.04250 0.26286 0.15638
 H3685 H 1.05435 0.25151 0.13716
 H3686 H 1.05362 0.22673 0.13460
 H3687 H 1.03848 0.18075 0.15234
 H3688 H 1.02650 0.16733 0.16957
 H3689 H 1.01448 0.17868 0.18868
 H3690 H 1.01447 0.20351 0.19076
 C3691 C 0.57635 0.22246 0.72293
 C3692 C 0.57733 0.20798 0.72299
 C3693 C 0.58836 0.20142 0.71613
 C3694 C 0.59841 0.20938 0.70937
 C3695 C 0.59734 0.22385 0.70918
 C3696 C 0.58628 0.23041 0.71600
 C3697 C 0.58539 0.24487 0.71563
 C3698 C 0.59513 0.25264 0.70869
 C3699 C 0.60594 0.24623 0.70201
 C3700 C 0.60709 0.23201 0.70223
 C3701 C 0.58902 0.18693 0.71615
 C3702 C 0.57909 0.17914 0.72281
 C3703 C 0.56837 0.18555 0.72962
 C3704 C 0.56744 0.19979 0.72973
 C3705 C 0.60997 0.20275 0.70280
 C3706 C 0.61970 0.19737 0.69744
 C3707 C 0.56470 0.22907 0.72935
 C3708 C 0.55453 0.23407 0.73421
 H3709 H 0.57716 0.25032 0.72067
 H3710 H 0.59429 0.26369 0.70849
 H3711 H 0.61347 0.25231 0.69661
 H3712 H 0.61565 0.22750 0.69684
 H3713 H 0.59716 0.18148 0.71098
 H3714 H 0.57971 0.16807 0.72267
 H3715 H 0.56066 0.17945 0.73475
 H3716 H 0.55884 0.20429 0.73509
 C3717 C 1.07630 0.22183 0.22306
 C3718 C 1.07735 0.20735 0.22314
 C3719 C 1.08842 0.20083 0.21630
 C3720 C 1.09843 0.20883 0.20952
 C3721 C 1.09729 0.22329 0.20931
 C3722 C 1.08619 0.22980 0.21610
 C3723 C 1.08522 0.24426 0.21569
 C3724 C 1.09493 0.25206 0.20873
 C3725 C 1.10578 0.24570 0.20207
 C3726 C 1.10700 0.23148 0.20233
 C3727 C 1.08915 0.18635 0.21634
 C3728 C 1.07925 0.17852 0.22300
 C3729 C 1.06849 0.18489 0.22979
 C3730 C 1.06750 0.19913 0.22989
 C3731 C 1.11000 0.20222 0.20292
 C3732 C 1.11972 0.19685 0.19752
 C3733 C 1.06461 0.22841 0.22947
 C3734 C 1.05443 0.23342 0.23432
 H3735 H 1.07697 0.24968 0.22072
 H3736 H 1.09402 0.26311 0.20849
 H3737 H 1.11328 0.25180 0.19666
 H3738 H 1.11559 0.22700 0.19696
 H3739 H 1.09733 0.18092 0.21120
 H3740 H 1.07992 0.16746 0.22288
 H3741 H 1.06081 0.17876 0.23491
 H3742 H 1.05887 0.20360 0.23522
 C3743 C 0.17456 0.72162 0.52851
 C3744 C 0.17354 0.72160 0.54298
 C3745 C 0.16245 0.71475 0.54945
 C3746 C 0.15235 0.70812 0.54141
 C3747 C 0.15344 0.70805 0.52696
 C3748 C 0.16454 0.71488 0.52049
 C3749 C 0.16540 0.71471 0.50603
 C3750 C 0.15561 0.70790 0.49817
 C3751 C 0.14479 0.70116 0.50450
 C3752 C 0.14366 0.70122 0.51871
 C3753 C 0.16174 0.71471 0.56392
 C3754 C 0.17164 0.72137 0.57178
 C3755 C 0.18237 0.72822 0.56545
 C3756 C 0.18340 0.72832 0.55122
 C3757 C 0.14064 0.70171 0.54796
 C3758 C 0.13079 0.69650 0.55328
 C3759 C 0.18623 0.72808 0.52196
 C3760 C 0.19629 0.73308 0.51687
 H3761 H 0.17364 0.71979 0.50064
 H3762 H 0.15644 0.70785 0.48713
 H3763 H 0.13723 0.69586 0.49835
 H3764 H 0.13507 0.69580 0.52315
 H3765 H 0.15357 0.70953 0.56931
 H3766 H 0.17097 0.72121 0.58284
 H3767 H 0.19003 0.73339 0.57160
 H3768 H 0.19202 0.73369 0.54679
 C3769 C 0.17477 0.22099 1.02872
 C3770 C 0.17363 0.22114 1.04318
 C3771 C 0.16253 0.21431 1.04964
 C3772 C 0.15254 0.20754 1.04160
 C3773 C 0.15373 0.20731 1.02715
 C3774 C 0.16485 0.21412 1.02069
 C3775 C 0.16580 0.21380 1.00624
 C3776 C 0.15611 0.20685 0.99839
 C3777 C 0.14528 0.20013 1.00471
 C3778 C 0.14404 0.20034 1.01892
 C3779 C 0.16171 0.21443 1.06410
 C3780 C 0.17150 0.22123 1.07196
 C3781 C 0.18225 0.22807 1.06564
 C3782 C 0.18339 0.22802 1.05142
 C3783 C 0.14082 0.20114 1.04813
 C3784 C 0.13096 0.19596 1.05344
 C3785 C 0.18647 0.22740 1.02219
 C3786 C 0.19655 0.23239 1.01711
 H3787 H 0.17406 0.21885 1.00086
 H3788 H 0.15702 0.20666 0.98735
 H3789 H 0.13778 0.19473 0.99857
 H3790 H 0.13544 0.19494 1.02336
 H3791 H 0.15352 0.20926 1.06949
 H3792 H 0.17075 0.22118 1.08302
 H3793 H 0.18984 0.23333 1.07180
 H3794 H 0.19201 0.23339 1.04700
 C3795 C 0.67360 0.52804 0.22235
 C3796 C 0.67275 0.52827 0.20787
 C3797 C 0.66167 0.53508 0.20136
 C3798 C 0.65145 0.54153 0.20935
 C3799 C 0.65241 0.54149 0.22382
 C3800 C 0.66350 0.53469 0.23034
 C3801 C 0.66428 0.53482 0.24480
 C3802 C 0.65440 0.54153 0.25261
 C3803 C 0.64357 0.54821 0.24624
 C3804 C 0.64253 0.54821 0.23201
 C3805 C 0.66112 0.53530 0.18688
 C3806 C 0.67118 0.52890 0.17905
 C3807 C 0.68195 0.52212 0.18542
 C3808 C 0.68281 0.52181 0.19966
 C3809 C 0.63978 0.54794 0.20274
 C3810 C 0.62998 0.55316 0.19735
 C3811 C 0.68523 0.52157 0.22894
 C3812 C 0.69536 0.51663 0.23396
 H3813 H 0.67252 0.52978 0.25022
 H3814 H 0.65517 0.54156 0.26367
 H3815 H 0.63594 0.55343 0.25235
 H3816 H 0.63394 0.55358 0.22753
 H3817 H 0.65294 0.54045 0.18146
 H3818 H 0.67064 0.52921 0.16799
 H3819 H 0.68974 0.51716 0.17929
 H3820 H 0.69144 0.51650 0.20412
 C3821 C 0.67490 1.02953 0.72079
 C3822 C 0.66137 1.02588 0.72443
 C3823 C 0.65008 1.03228 0.71783
 C3824 C 0.65239 1.04233 0.70763
 C3825 C 0.66595 1.04599 0.70399
 C3826 C 0.67724 1.03956 0.71057
 C3827 C 0.69069 1.04337 0.70672
 C3828 C 0.69293 1.05326 0.69670
 C3829 C 0.68190 1.05956 0.69029
 C3830 C 0.66854 1.05600 0.69384
 C3831 C 0.63664 1.02842 0.72165
 C3832 C 0.63441 1.01854 0.73169
 C3833 C 0.64545 1.01229 0.73813
 C3834 C 0.65879 1.01588 0.73458
 C3835 C 0.64079 1.04886 0.70095
 C3836 C 0.63097 1.05412 0.69561
 C3837 C 0.68645 1.02298 0.72751
 C3838 C 0.69635 1.01779 0.73277
 H3839 H 0.69961 1.03877 0.71141
 H3840 H 0.70329 1.05605 0.69389
 H3841 H 0.68370 1.06724 0.68251
 H3842 H 0.66029 1.06116 0.68855
 H3843 H 0.62771 1.03298 0.71693
 H3844 H 0.62406 1.01573 0.73449
 H3845 H 0.64367 1.00462 0.74592
 H3846 H 0.66705 1.01072 0.73988
 C3847 C 0.82547 0.47175 0.27866
 C3848 C 0.83508 0.47964 0.28613
 C3849 C 0.84629 0.47310 0.29274
 C3850 C 0.84781 0.45870 0.29185
 C3851 C 0.83809 0.45078 0.28454
 C3852 C 0.82696 0.45733 0.27782
 C3853 C 0.81747 0.44921 0.27045
 C3854 C 0.81883 0.43501 0.26987
 C3855 C 0.82961 0.42860 0.27658
 C3856 C 0.83919 0.43634 0.28380
 C3857 C 0.85573 0.48121 0.30018
 C3858 C 0.85416 0.49536 0.30108
 C3859 C 0.84321 0.50175 0.29461
 C3860 C 0.83375 0.49403 0.28721
 C3861 C 0.85951 0.45210 0.29825
 C3862 C 0.86935 0.44676 0.30348
 C3863 C 0.81374 0.47835 0.27233
 C3864 C 0.80363 0.48347 0.26741
 H3865 H 0.80882 0.45371 0.26517
 H3866 H 0.81139 0.42895 0.26430
 H3867 H 0.83055 0.41756 0.27619
 H3868 H 0.84741 0.43089 0.28884
 H3869 H 0.86440 0.47671 0.30542
 H3870 H 0.86147 0.50140 0.30684
 H3871 H 0.84203 0.51275 0.29534
 H3872 H 0.82540 0.49947 0.28236
 C3873 C 0.82630 0.97248 0.77716
 C3874 C 0.83612 0.98043 0.78427
 C3875 C 0.84722 0.97390 0.79106
 C3876 C 0.84844 0.95944 0.79067
 C3877 C 0.83849 0.95147 0.78374
 C3878 C 0.82743 0.95801 0.77690
 C3879 C 0.81764 0.94982 0.76999
 C3880 C 0.81870 0.93558 0.76994
 C3881 C 0.82944 0.92919 0.77673
 C3882 C 0.83927 0.93700 0.78354
 C3883 C 0.85685 0.98206 0.79820
 C3884 C 0.85555 0.99627 0.79864
 C3885 C 0.84471 1.00265 0.79198
 C3886 C 0.83508 0.99488 0.78486
 C3887 C 0.86003 0.95282 0.79722
 C3888 C 0.86976 0.94743 0.80258
 C3889 C 0.81460 0.97908 0.77077
 C3890 C 0.80440 0.98408 0.76594
 H3891 H 0.80903 0.95430 0.76465
 H3892 H 0.81106 0.92947 0.76470
 H3893 H 0.83015 0.91813 0.77675
 H3894 H 0.84744 0.93156 0.78869
 H3895 H 0.86543 0.97756 0.80359
 H3896 H 0.86299 1.00235 0.80418
 H3897 H 0.84375 1.01369 0.79235
 H3898 H 0.82683 1.00031 0.77984
 C3899 C 0.42386 0.27759 0.77860
 C3900 C 0.41251 0.28139 0.77042
 C3901 C 0.40114 0.28816 0.77648
 C3902 C 0.40115 0.29104 0.79069
 C3903 C 0.41259 0.28744 0.79883
 C3904 C 0.42397 0.28066 0.79278
 C3905 C 0.43527 0.27715 0.80115
 C3906 C 0.43531 0.28019 0.81509
 C3907 C 0.42424 0.28689 0.82098
 C3908 C 0.41297 0.29050 0.81300
 C3909 C 0.38997 0.29199 0.76807
 C3910 C 0.39004 0.28922 0.75408
 C3911 C 0.40115 0.28259 0.74816
 C3912 C 0.41228 0.27869 0.75619
 C3913 C 0.38932 0.29750 0.79694
 C3914 C 0.37942 0.30273 0.80214
 C3915 C 0.43574 0.27120 0.77236
 C3916 C 0.44595 0.26630 0.76745
 H3917 H 0.44417 0.27197 0.79705
 H3918 H 0.44393 0.27728 0.82137
 H3919 H 0.42436 0.28926 0.83181
 H3920 H 0.40460 0.29570 0.81805
 H3921 H 0.38111 0.29722 0.77219
 H3922 H 0.38142 0.29225 0.74779
 H3923 H 0.40115 0.28047 0.73728
 H3924 H 0.42070 0.27356 0.75112
 C3925 C 0.92448 0.27796 0.27927
 C3926 C 0.91446 0.28464 0.27122
 C3927 C 0.90335 0.29148 0.27767
 C3928 C 0.90226 0.29147 0.29212
 C3929 C 0.91236 0.28491 0.30018
 C3930 C 0.92346 0.27806 0.29374
 C3931 C 0.93334 0.27141 0.30200
 C3932 C 0.93232 0.27159 0.31623
 C3933 C 0.92157 0.27844 0.32254
 C3934 C 0.91166 0.28503 0.31466
 C3935 C 0.89355 0.29825 0.26941
 C3936 C 0.89468 0.29824 0.25519
 C3937 C 0.90551 0.29150 0.24889
 C3938 C 0.91531 0.28475 0.25676
 C3939 C 0.89056 0.29791 0.29864
 C3940 C 0.88071 0.30318 0.30389
 C3941 C 0.93614 0.27149 0.27273
 C3942 C 0.94618 0.26648 0.26761
 H3943 H 0.94198 0.26605 0.29759
 H3944 H 0.93999 0.26649 0.32240
 H3945 H 0.92090 0.27867 0.33359
 H3946 H 0.90348 0.29022 0.32002
 H3947 H 0.88496 0.30367 0.27383
 H3948 H 0.88711 0.30349 0.24903
 H3949 H 0.90633 0.29150 0.23784
 H3950 H 0.92357 0.27968 0.25139
 C3951 C 0.32651 0.77771 0.47263
 C3952 C 0.33640 0.76984 0.46555
 C3953 C 0.34748 0.77646 0.45883
 C3954 C 0.34861 0.79092 0.45924
 C3955 C 0.33863 0.79881 0.46619
 C3956 C 0.32759 0.79218 0.47297
 C3957 C 0.31778 0.80029 0.47992
 C3958 C 0.31880 0.81453 0.48009
 C3959 C 0.32952 0.82100 0.47335
 C3960 C 0.33937 0.81328 0.46649
 C3961 C 0.35720 0.76837 0.45173
 C3962 C 0.35599 0.75415 0.45129
 C3963 C 0.34517 0.74768 0.45788
 C3964 C 0.33545 0.75538 0.46494
 C3965 C 0.36017 0.79763 0.45270
 C3966 C 0.36990 0.80305 0.44737
 C3967 C 0.31481 0.77104 0.47893
 C3968 C 0.30460 0.76600 0.48371
 H3969 H 0.30918 0.79574 0.48523
 H3970 H 0.31115 0.82057 0.48536
 H3971 H 0.33020 0.83207 0.47342
 H3972 H 0.34752 0.81879 0.46139
 H3973 H 0.36578 0.77293 0.44641
 H3974 H 0.36350 0.74813 0.44580
 H3975 H 0.34428 0.73664 0.45750
 H3976 H 0.32721 0.74989 0.46991
 C3977 C 0.32670 0.27727 0.97280
 C3978 C 0.33669 0.26949 0.96577
 C3979 C 0.34780 0.27620 0.95918
 C3980 C 0.34885 0.29067 0.95967
 C3981 C 0.33874 0.29847 0.96651
 C3982 C 0.32767 0.29176 0.97317
 C3983 C 0.31773 0.29979 0.98001
 C3984 C 0.31864 0.31403 0.98020
 C3985 C 0.32938 0.32060 0.97357
 C3986 C 0.33936 0.31296 0.96682
 C3987 C 0.35762 0.26820 0.95213
 C3988 C 0.35649 0.25398 0.95161
 C3989 C 0.34564 0.24742 0.95807
 C3990 C 0.33582 0.25504 0.96508
 C3991 C 0.36043 0.29746 0.95326
 C3992 C 0.37016 0.30291 0.94796
 C3993 C 0.31503 0.27051 0.97905
 C3994 C 0.30485 0.26543 0.98385
 H3995 H 0.30910 0.29518 0.98521
 H3996 H 0.31089 0.32002 0.98540
 H3997 H 0.32997 0.33167 0.97365
 H3998 H 0.34752 0.31852 0.96181
 H3999 H 0.36622 0.27283 0.94690
 H4000 H 0.36407 0.24802 0.94615
 H4001 H 0.34481 0.23637 0.95763
 H4002 H 0.32756 0.24948 0.96994
 C4003 C 0.77805 0.47091 0.32532
 C4004 C 0.78533 0.47899 0.33491
 C4005 C 0.79199 0.47263 0.34617
 C4006 C 0.79133 0.45823 0.34774
 C4007 C 0.78427 0.45012 0.33800
 C4008 C 0.77752 0.45649 0.32681
 C4009 C 0.77042 0.44819 0.31726
 C4010 C 0.77014 0.43398 0.31865
 C4011 C 0.77686 0.42775 0.32952
 C4012 C 0.78382 0.43567 0.33915
 C4013 C 0.79927 0.48091 0.35560
 C4014 C 0.79994 0.49507 0.35395
 C4015 C 0.79341 0.50129 0.34295
 C4016 C 0.78617 0.49340 0.33351
 C4017 C 0.79769 0.45181 0.35952
 C4018 C 0.80288 0.44657 0.36941
 C4019 C 0.77163 0.47735 0.31359
 C4020 C 0.76669 0.48241 0.30350
 H4021 H 0.76513 0.45255 0.30856
 H4022 H 0.76479 0.42778 0.31118
 H4023 H 0.77670 0.41670 0.33050
 H4024 H 0.78890 0.43035 0.34743
 H4025 H 0.80455 0.47654 0.36430
 H4026 H 0.80556 0.50125 0.36125
 H4027 H 0.79395 0.51230 0.34171
 H4028 H 0.78126 0.49870 0.32512
 C4029 C 0.77727 0.97211 0.82634
 C4030 C 0.77707 0.95764 0.82740
 C4031 C 0.78407 0.95108 0.83834
 C4032 C 0.79111 0.95904 0.84822
 C4033 C 0.79148 0.97350 0.84703
 C4034 C 0.78452 0.98005 0.83606
 C4035 C 0.78507 0.99450 0.83505
 C4036 C 0.79232 1.00226 0.84460
 C4037 C 0.79913 0.99586 0.85532
 C4038 C 0.79875 0.98164 0.85658
 C4039 C 0.78389 0.93660 0.83909
 C4040 C 0.77696 0.92882 0.82933
 C4041 C 0.77003 0.93523 0.81869
 C4042 C 0.77006 0.94947 0.81767
 C4043 C 0.79776 0.95241 0.85974
 C4044 C 0.80314 0.94702 0.86945
 C4045 C 0.77066 0.97873 0.81479
 C4046 C 0.76567 0.98377 0.80470
 H4047 H 0.77993 0.99995 0.82689
 H4048 H 0.79265 1.01330 0.84367
 H4049 H 0.80477 1.00193 0.86270
 H4050 H 0.80426 0.97713 0.86507
 H4051 H 0.78915 0.93115 0.84717
 H4052 H 0.77699 0.91775 0.83001
 H4053 H 0.76471 0.92913 0.81110
 H4054 H 0.76461 0.95396 0.80914
 C4055 C 0.27681 0.77836 0.42341
 C4056 C 0.28379 0.77028 0.41362
 C4057 C 0.29080 0.77671 0.40261
 C4058 C 0.29075 0.79117 0.40146
 C4059 C 0.28394 0.79926 0.41138
 C4060 C 0.27691 0.79283 0.42237
 C4061 C 0.27015 0.80113 0.43215
 C4062 C 0.27041 0.81537 0.43115
 C4063 C 0.27737 0.82165 0.42046
 C4064 C 0.28405 0.81374 0.41064
 C4065 C 0.29780 0.76842 0.39299
 C4066 C 0.29789 0.75421 0.39422
 C4067 C 0.29102 0.74793 0.40498
 C4068 C 0.28403 0.75582 0.41459
 C4069 C 0.29749 0.79767 0.38994
 C4070 C 0.30293 0.80296 0.38023
 C4071 C 0.27025 0.77186 0.43503
 C4072 C 0.26533 0.76687 0.44517
 H4073 H 0.26468 0.79674 0.44072
 H4074 H 0.26528 0.82156 0.43878
 H4075 H 0.27761 0.83271 0.41978
 H4076 H 0.28934 0.81909 0.40251
 H4077 H 0.30334 0.77283 0.38447
 H4078 H 0.30332 0.74803 0.38680
 H4079 H 0.29111 0.73688 0.40589
 H4080 H 0.27883 0.75047 0.42278
 C4081 C 0.27700 0.27802 0.92349
 C4082 C 0.28401 0.27004 0.91364
 C4083 C 0.29079 0.27655 0.90254
 C4084 C 0.29052 0.29101 0.90138
 C4085 C 0.28369 0.29900 0.91136
 C4086 C 0.27685 0.29249 0.92242
 C4087 C 0.27007 0.30070 0.93226
 C4088 C 0.27013 0.31494 0.93125
 C4089 C 0.27689 0.32131 0.92049
 C4090 C 0.28358 0.31348 0.91060
 C4091 C 0.29782 0.26836 0.89287
 C4092 C 0.29816 0.25415 0.89413
 C4093 C 0.29151 0.24778 0.90497
 C4094 C 0.28449 0.25558 0.91464
 C4095 C 0.29711 0.29762 0.88983
 C4096 C 0.30249 0.30302 0.88014
 C4097 C 0.27059 0.27145 0.93516
 C4098 C 0.26573 0.26645 0.94533
 H4099 H 0.26475 0.29624 0.94088
 H4100 H 0.26499 0.32106 0.93893
 H4101 H 0.27697 0.33237 0.91980
 H4102 H 0.28870 0.31891 0.90242
 H4103 H 0.30319 0.27284 0.88428
 H4104 H 0.30362 0.24805 0.88666
 H4105 H 0.29180 0.23674 0.90591
 H4106 H 0.27947 0.25017 0.92289
 C4107 C 0.47253 0.27851 0.82601
 C4108 C 0.46869 0.27042 0.83740
 C4109 C 0.46197 0.27658 0.84875
 C4110 C 0.45918 0.29082 0.84868
 C4111 C 0.46288 0.29889 0.83722
 C4112 C 0.46960 0.29273 0.82587
 C4113 C 0.47317 0.30102 0.81454
 C4114 C 0.47023 0.31499 0.81446
 C4115 C 0.46360 0.32099 0.82551
 C4116 C 0.45994 0.31308 0.83680
 C4117 C 0.45810 0.26825 0.85994
 C4118 C 0.46078 0.25423 0.85992
 C4119 C 0.46737 0.24821 0.84884
 C4120 C 0.47131 0.25617 0.83768
 C4121 C 0.45268 0.29718 0.86045
 C4122 C 0.44739 0.30249 0.87026
 C4123 C 0.47882 0.27214 0.81413
 C4124 C 0.48362 0.26715 0.80392
 H4125 H 0.47831 0.29684 0.80566
 H4126 H 0.47316 0.32120 0.80580
 H4127 H 0.46131 0.33184 0.82535
 H4128 H 0.45480 0.31821 0.84516
 H4129 H 0.45291 0.27245 0.86878
 H4130 H 0.45772 0.24800 0.86856
 H4131 H 0.46943 0.23732 0.84887
 H4132 H 0.47641 0.25103 0.82929
 C4133 C 0.97182 0.27842 0.32555
 C4134 C 0.97495 0.27386 0.33893
 C4135 C 0.96849 0.28006 0.35040
 C4136 C 0.95889 0.29075 0.34841
 C4137 C 0.95565 0.29522 0.33501
 C4138 C 0.96220 0.28910 0.32355
 C4139 C 0.95880 0.29376 0.31025
 C4140 C 0.94906 0.30401 0.30834
 C4141 C 0.94264 0.30997 0.31954
 C4142 C 0.94589 0.30570 0.33275
 C4143 C 0.97182 0.27534 0.36369
 C4144 C 0.98123 0.26478 0.36558
 C4145 C 0.98752 0.25871 0.35436
 C4146 C 0.98447 0.26316 0.34116
 C4147 C 0.95242 0.29716 0.36016
 C4148 C 0.94719 0.30244 0.37002
 C4149 C 0.97829 0.27202 0.31379
 C4150 C 0.98329 0.26699 0.30370
 H4151 H 0.96346 0.28942 0.30118
 H4152 H 0.94639 0.30726 0.29812
 H4153 H 0.93507 0.31792 0.31798
 H4154 H 0.94061 0.31063 0.34115
 H4155 H 0.96718 0.27972 0.37274
 H4156 H 0.98364 0.26129 0.37582
 H4157 H 0.99482 0.25051 0.35589
 H4158 H 0.98963 0.25813 0.33275
 C4159 C 0.47118 0.32582 0.77716
 C4160 C 0.47936 0.33710 0.78118
 C4161 C 0.47326 0.34842 0.78800
 C4162 C 0.45902 0.34841 0.79071
 C4163 C 0.45086 0.33706 0.78684
 C4164 C 0.45695 0.32574 0.78001
 C4165 C 0.44857 0.31452 0.77621
 C4166 C 0.43459 0.31452 0.77904
 C4167 C 0.42866 0.32553 0.78581
 C4168 C 0.43665 0.33670 0.78969
 C4169 C 0.48167 0.35952 0.79205
 C4170 C 0.49570 0.35943 0.78944
 C4171 C 0.50165 0.34836 0.78276
 C4172 C 0.49362 0.33729 0.77865
 C4173 C 0.45270 0.36015 0.79727
 C4174 C 0.44739 0.36993 0.80260
 C4175 C 0.47745 0.31396 0.77078
 C4176 C 0.48233 0.30373 0.76592
 H4177 H 0.45270 0.30567 0.77097
 H4178 H 0.42831 0.30597 0.77591
 H4179 H 0.41779 0.32543 0.78802
 H4180 H 0.43156 0.34504 0.79492
 H4181 H 0.47751 0.36835 0.79731
 H4182 H 0.50198 0.36800 0.79263
 H4183 H 0.51256 0.34834 0.78076
 H4184 H 0.49872 0.32891 0.77349
 C4185 C 0.97098 0.32532 0.27746
 C4186 C 0.97922 0.33513 0.28426
 C4187 C 0.97299 0.34635 0.29114
 C4188 C 0.95854 0.34770 0.29116
 C4189 C 0.95029 0.33778 0.28452
 C4190 C 0.95654 0.32661 0.27757
 C4191 C 0.94808 0.31686 0.27094
 C4192 C 0.93386 0.31805 0.27128
 C4193 C 0.92776 0.32889 0.27817
 C4194 C 0.93583 0.33871 0.28469
 C4195 C 0.98145 0.35598 0.29792
 C4196 C 0.99565 0.35456 0.29793
 C4197 C 1.00174 0.34360 0.29120
 C4198 C 0.99367 0.33397 0.28441
 C4199 C 0.95221 0.35943 0.29779
 C4200 C 0.94699 0.36925 0.30316
 C4201 C 0.97729 0.31353 0.27096
 C4202 C 0.98223 0.30336 0.26600
 H4203 H 0.95233 0.30819 0.26550
 H4204 H 0.92756 0.31052 0.26616
 H4205 H 0.91670 0.32973 0.27842
 H4206 H 0.93060 0.34698 0.28990
 H4207 H 0.97719 0.36467 0.30334
 H4208 H 1.00197 0.36200 0.30321
 H4209 H 1.01277 0.34254 0.29123
 H4210 H 0.99888 0.32563 0.27929
 C4211 C 0.27841 0.82651 0.47232
 C4212 C 0.28840 0.82407 0.46208
 C4213 C 0.29488 0.83528 0.45544
 C4214 C 0.29128 0.84887 0.45903
 C4215 C 0.28126 0.85129 0.46923
 C4216 C 0.27482 0.84008 0.47590
 C4217 C 0.26485 0.84275 0.48606
 C4218 C 0.26131 0.85613 0.48953
 C4219 C 0.26759 0.86711 0.48301
 C4220 C 0.27746 0.86478 0.47297
 C4221 C 0.30485 0.83259 0.44527
 C4222 C 0.30832 0.81919 0.44175
 C4223 C 0.30197 0.80822 0.44821
 C4224 C 0.29212 0.81057 0.45826
 C4225 C 0.29786 0.86037 0.45229
 C4226 C 0.30320 0.87009 0.44686
 C4227 C 0.27183 0.81502 0.47904
 C4228 C 0.26673 0.80501 0.48414
 H4229 H 0.25968 0.83454 0.49142
 H4230 H 0.25365 0.85800 0.49731
 H4231 H 0.26481 0.87749 0.48573
 H4232 H 0.28206 0.87366 0.46820
 H4233 H 0.31005 0.84079 0.43995
 H4234 H 0.31596 0.81732 0.43395
 H4235 H 0.30470 0.79784 0.44544
 H4236 H 0.28750 0.80169 0.46299
 C4237 C 0.27844 0.32574 0.97219
 C4238 C 0.27488 0.33934 0.97565
 C4239 C 0.28137 0.35049 0.96893
 C4240 C 0.29143 0.34795 0.95879
 C4241 C 0.29495 0.33433 0.95526
 C4242 C 0.28843 0.32319 0.96197
 C4243 C 0.29208 0.30965 0.95823
 C4244 C 0.30192 0.30720 0.94819
 C4245 C 0.30832 0.31810 0.94167
 C4246 C 0.30491 0.33153 0.94512
 C4247 C 0.27760 0.36401 0.97256
 C4248 C 0.26770 0.36645 0.98253
 C4249 C 0.26136 0.35554 0.98911
 C4250 C 0.26487 0.34212 0.98575
 C4251 C 0.29811 0.35939 0.95203
 C4252 C 0.30354 0.36904 0.94658
 C4253 C 0.27186 0.31432 0.97903
 C4254 C 0.26677 0.30435 0.98420
 H4255 H 0.28741 0.30082 0.96301
 H4256 H 0.30460 0.29679 0.94548
 H4257 H 0.31595 0.31615 0.93388
 H4258 H 0.31015 0.33968 0.93974
 H4259 H 0.28224 0.37284 0.96773
 H4260 H 0.26493 0.37685 0.98516
 H4261 H 0.25367 0.35748 0.99685
 H4262 H 0.25965 0.33396 0.99114
 C4263 C 0.77921 0.42514 0.27855
 C4264 C 0.78923 0.42745 0.28880
 C4265 C 0.79562 0.41615 0.29537
 C4266 C 0.79192 0.40262 0.29168
 C4267 C 0.78185 0.40032 0.28149
 C4268 C 0.77549 0.41162 0.27490
 C4269 C 0.76547 0.40908 0.26473
 C4270 C 0.76181 0.39575 0.26119
 C4271 C 0.76801 0.38469 0.26764
 C4272 C 0.77793 0.38689 0.27767
 C4273 C 0.80562 0.41871 0.30556
 C4274 C 0.80920 0.43205 0.30917
 C4275 C 0.80294 0.44311 0.30278
 C4276 C 0.79306 0.44090 0.29271
 C4277 C 0.79842 0.39102 0.29833
 C4278 C 0.80370 0.38124 0.30370
 C4279 C 0.77271 0.43669 0.27185
 C4280 C 0.76756 0.44660 0.26663
 H4281 H 0.76035 0.41736 0.25943
 H4282 H 0.75411 0.39399 0.25340
 H4283 H 0.76513 0.37435 0.26485
 H4284 H 0.78245 0.37794 0.28239
 H4285 H 0.81076 0.41043 0.31083
 H4286 H 0.81687 0.43382 0.31698
 H4287 H 0.80575 0.45345 0.30562
 H4288 H 0.78849 0.44984 0.28803
   
