data_POSCAR
  _audit_creation_date              2014-09-24
  _audit_creation_method            'ToBaCCo'
  _symmetry_space_group_name_H-M    'P1'
  _symmetry_Int_Tables_number       1
  _symmetry_cell_setting            triclinic
  loop_
  _symmetry_equiv_pos_as_xyz
 x,y,z
_cell_length_a 75.1902
_cell_length_b 75.1669
_cell_length_c 41.5547
_cell_angle_alpha 89.967600
_cell_angle_beta 89.974200
_cell_angle_gamma 89.556100
loop_
  _atom_site_label
  _atom_site_type_symbol
  _atom_site_fract_x
  _atom_site_fract_y
  _atom_site_fract_z
C1 C -0.00063 0.26114 -0.01388
 C2 C -0.00074 0.26082 0.01895
 C3 C -0.01764 0.26153 0.03739
 C4 C 0.01595 0.25954 0.03800
 C5 C 0.01624 0.26219 -0.03239
 C6 C -0.01735 0.26012 -0.03286
 C7 C -0.02954 0.27579 0.03378
 C8 C -0.04573 0.27601 0.05031
 C9 C -0.05066 0.26181 0.07098
 C10 C -0.03813 0.24774 0.07480
 C11 C -0.02190 0.24772 0.05847
 C12 C 0.01918 0.27182 0.06267
 C13 C 0.03501 0.27104 0.08023
 C14 C 0.04792 0.25792 0.07352
 C15 C 0.04443 0.24535 0.04929
 C16 C 0.02854 0.24605 0.03194
 C17 C 0.02027 0.24914 -0.05541
 C18 C 0.03650 0.24939 -0.07173
 C19 C 0.04895 0.26283 -0.06558
 C20 C 0.04464 0.27624 -0.04327
 C21 C 0.02840 0.27595 -0.02687
 C22 C -0.02955 0.24637 -0.02762
 C23 C -0.04546 0.24582 -0.04491
 C24 C -0.04935 0.25881 -0.06830
 C25 C -0.03683 0.27225 -0.07418
 C26 C -0.02100 0.27288 -0.05665
 H27 H -0.02640 0.28665 0.01765
 H28 H -0.05464 0.28695 0.04492
 H29 H -0.04022 0.23692 0.09147
 H30 H -0.01270 0.23672 0.06197
 H31 H 0.00954 0.28219 0.06802
 H32 H 0.03709 0.28069 0.09917
 H33 H 0.02613 0.23618 0.01353
 H34 H 0.01100 0.23850 -0.06018
 H35 H 0.03933 0.23906 -0.08919
 H36 H 0.05399 0.28671 -0.03792
 H37 H 0.02541 0.28629 -0.00952
 H38 H -0.02682 0.23613 -0.00992
 H39 H -0.05483 0.23537 -0.03955
 H40 H -0.03923 0.28225 -0.09247
 H41 H -0.01165 0.28346 -0.06137
 H42 H 0.05413 0.23516 0.04331
 C43 C 0.49952 0.76190 0.48134
 C44 C 0.49927 0.76243 0.51413
 C45 C 0.48240 0.76354 0.53261
 C46 C 0.51596 0.76134 0.53304
 C47 C 0.51655 0.76262 0.46327
 C48 C 0.48293 0.76039 0.46210
 C49 C 0.46990 0.77712 0.52659
 C50 C 0.45366 0.77743 0.54298
 C51 C 0.44968 0.76421 0.56577
 C52 C 0.46246 0.75096 0.57242
 C53 C 0.47869 0.75069 0.55611
 C54 C 0.52073 0.77534 0.55343
 C55 C 0.53680 0.77469 0.57032
 C56 C 0.54824 0.75986 0.56754
 C57 C 0.54311 0.74563 0.54768
 C58 C 0.52714 0.74639 0.53055
 C59 C 0.52108 0.74895 0.44177
 C60 C 0.53744 0.74910 0.42581
 C61 C 0.54952 0.76301 0.43089
 C62 C 0.54471 0.77695 0.45180
 C63 C 0.52835 0.77678 0.46773
 C64 C 0.47056 0.74694 0.46849
 C65 C 0.45471 0.74606 0.45107
 C66 C 0.45104 0.75841 0.42645
 C67 C 0.46376 0.77149 0.41940
 C68 C 0.47954 0.77245 0.43703
 H69 H 0.47263 0.78730 0.50886
 H70 H 0.44404 0.78775 0.53727
 H71 H 0.45987 0.74079 0.59024
 H72 H 0.48821 0.74018 0.56127
 H73 H 0.51222 0.78697 0.55561
 H74 H 0.54041 0.78599 0.58500
 H75 H 0.52350 0.73533 0.51528
 H76 H 0.51212 0.73793 0.43798
 H77 H 0.54082 0.73809 0.41011
 H78 H 0.55356 0.78803 0.45573
 H79 H 0.52492 0.78765 0.48373
 H80 H 0.47309 0.73723 0.48724
 H81 H 0.44518 0.73590 0.45732
 H82 H 0.46153 0.78097 0.40018
 H83 H 0.48901 0.78278 0.43143
 H84 H 0.55136 0.73383 0.54551
 C85 C 0.99959 0.73753 -0.01959
 C86 C 0.99973 0.73782 0.01322
 C87 C 1.01671 0.73725 0.03149
 C88 C 0.98305 0.73905 0.03233
 C89 C 0.98278 0.73649 -0.03822
 C90 C 1.01630 0.73886 -0.03838
 C91 C 1.02900 0.72332 0.02693
 C92 C 1.04530 0.72337 0.04306
 C93 C 1.04956 0.73730 0.06419
 C94 C 1.03701 0.75098 0.06934
 C95 C 1.02070 0.75090 0.05325
 C96 C 0.97984 0.72675 0.05701
 C97 C 0.96400 0.72748 0.07457
 C98 C 0.95105 0.74058 0.06785
 C99 C 0.95452 0.75316 0.04361
 C100 C 0.97043 0.75250 0.02626
 C101 C 0.97887 0.74952 -0.06139
 C102 C 0.96267 0.74933 -0.07779
 C103 C 0.95012 0.73600 -0.07155
 C104 C 0.95431 0.72260 -0.04910
 C105 C 0.97052 0.72282 -0.03264
 C106 C 1.02740 0.75359 -0.03487
 C107 C 1.04339 0.75456 -0.05183
 C108 C 1.04881 0.74076 -0.07294
 C109 C 1.03717 0.72617 -0.07673
 C110 C 1.02113 0.72534 -0.05982
 H111 H 1.02604 0.71254 0.01055
 H112 H 1.05473 0.71271 0.03847
 H113 H 1.03981 0.76173 0.08586
 H114 H 1.01133 0.76169 0.05725
 H115 H 0.98950 0.71641 0.06236
 H116 H 0.96192 0.71782 0.09351
 H117 H 0.97281 0.76239 0.00782
 H118 H 0.98821 0.76010 -0.06621
 H119 H 0.95994 0.75965 -0.09534
 H120 H 0.94487 0.71221 -0.04370
 H121 H 0.97341 0.71250 -0.01517
 H122 H 1.02363 0.76440 -0.01897
 H123 H 1.05108 0.76653 -0.04891
 H124 H 1.04061 0.71484 -0.09151
 H125 H 1.01269 0.71384 -0.06276
 H126 H 0.94481 0.76334 0.03762
 C127 C 0.49950 0.23774 0.48509
 C128 C 0.49960 0.23839 0.51788
 C129 C 0.51656 0.23802 0.53621
 C130 C 0.48289 0.23974 0.53688
 C131 C 0.48273 0.23649 0.46642
 C132 C 0.51624 0.23889 0.46634
 C133 C 0.52882 0.22402 0.53222
 C134 C 0.54505 0.22415 0.54858
 C135 C 0.54926 0.23825 0.56939
 C136 C 0.53675 0.25203 0.57392
 C137 C 0.52051 0.25186 0.55758
 C138 C 0.47968 0.22763 0.56187
 C139 C 0.46380 0.22844 0.57930
 C140 C 0.45081 0.24143 0.57215
 C141 C 0.45428 0.25382 0.54760
 C142 C 0.47023 0.25308 0.53036
 C143 C 0.47883 0.24931 0.44287
 C144 C 0.46265 0.24895 0.42644
 C145 C 0.45011 0.23566 0.43304
 C146 C 0.45431 0.22246 0.45587
 C147 C 0.47050 0.22285 0.47236
 C148 C 0.52707 0.25394 0.46874
 C149 C 0.54302 0.25480 0.45159
 C150 C 0.54850 0.24058 0.43181
 C151 C 0.53741 0.22563 0.42916
 C152 C 0.52137 0.22488 0.44606
 H153 H 0.52589 0.21308 0.51617
 H154 H 0.55445 0.21342 0.54445
 H155 H 0.53950 0.26291 0.59018
 H156 H 0.51115 0.26271 0.56115
 H157 H 0.48937 0.21737 0.56757
 H158 H 0.46172 0.21893 0.59848
 H159 H 0.47260 0.26282 0.51166
 H160 H 0.48815 0.25986 0.43777
 H161 H 0.45991 0.25911 0.40860
 H162 H 0.44488 0.21210 0.46155
 H163 H 0.47339 0.21269 0.49014
 H164 H 0.52314 0.26501 0.48391
 H165 H 0.55099 0.26667 0.45367
 H166 H 0.54130 0.21434 0.41455
 H167 H 0.51313 0.21318 0.44395
 H168 H 0.44454 0.26391 0.54127
 C169 C 0.73868 -0.00038 -0.01590
 C170 C 0.73862 -0.00034 0.01687
 C171 C 0.73984 -0.01710 0.03559
 C172 C 0.73779 0.01651 0.03536
 C173 C 0.73989 0.01638 -0.03458
 C174 C 0.73799 -0.01721 -0.03445
 C175 C 0.72640 -0.02155 0.05734
 C176 C 0.72713 -0.03762 0.07424
 C177 C 0.74152 -0.04968 0.07011
 C178 C 0.75523 -0.04468 0.04865
 C179 C 0.75437 -0.02865 0.03170
 C180 C 0.72358 0.02851 0.03120
 C181 C 0.72341 0.04478 0.04744
 C182 C 0.73747 0.04932 0.06807
 C183 C 0.75146 0.03709 0.07275
 C184 C 0.75155 0.02077 0.05671
 C185 C 0.75438 0.02773 -0.03060
 C186 C 0.75521 0.04378 -0.04745
 C187 C 0.74149 0.04901 -0.06889
 C188 C 0.72715 0.03712 -0.07311
 C189 C 0.72646 0.02103 -0.05632
 C190 C 0.75172 -0.02155 -0.05582
 C191 C 0.75171 -0.03777 -0.07217
 C192 C 0.73776 -0.05008 -0.06792
 C193 C 0.72369 -0.04522 -0.04700
 C194 C 0.72385 -0.02904 -0.03048
 H195 H 0.71505 -0.01277 0.06057
 H196 H 0.71586 -0.04073 0.08929
 H197 H 0.76707 -0.05271 0.04543
 H198 H 0.76512 -0.02519 0.01555
 H199 H 0.71276 0.02535 0.01504
 H200 H 0.71252 0.05400 0.04327
 H201 H 0.76258 0.01162 0.06031
 H202 H 0.76513 0.02412 -0.01445
 H203 H 0.76702 0.05167 -0.04417
 H204 H 0.71587 0.04040 -0.08815
 H205 H 0.71513 0.01240 -0.05960
 H206 H 0.76265 -0.01245 -0.05947
 H207 H 0.76247 -0.04027 -0.08888
 H208 H 0.71287 -0.05419 -0.04190
 H209 H 0.71306 -0.02584 -0.01416
 H210 H 0.76234 0.04017 0.08883
 C211 C 0.23837 0.49976 0.48268
 C212 C 0.23840 0.50022 0.51543
 C213 C 0.23968 0.48367 0.53470
 C214 C 0.23779 0.51728 0.53339
 C215 C 0.23957 0.51631 0.46344
 C216 C 0.23774 0.48272 0.46469
 C217 C 0.22587 0.47906 0.55565
 C218 C 0.22662 0.46307 0.57280
 C219 C 0.24138 0.45155 0.56971
 C220 C 0.25544 0.45655 0.54931
 C221 C 0.25456 0.47243 0.53191
 C222 C 0.22395 0.52961 0.52838
 C223 C 0.22397 0.54599 0.54429
 C224 C 0.23779 0.55029 0.56564
 C225 C 0.25138 0.53771 0.57121
 C226 C 0.25133 0.52133 0.55534
 C227 C 0.25446 0.52732 0.46608
 C228 C 0.25525 0.54323 0.44878
 C229 C 0.24110 0.54848 0.42863
 C230 C 0.22634 0.53718 0.42568
 C231 C 0.22567 0.52117 0.44272
 C232 C 0.25117 0.47855 0.44245
 C233 C 0.25118 0.46221 0.42646
 C234 C 0.23765 0.44978 0.43220
 C235 C 0.22394 0.45421 0.45386
 C236 C 0.22397 0.47055 0.46990
 H237 H 0.21429 0.48762 0.55805
 H238 H 0.21544 0.45957 0.58788
 H239 H 0.26718 0.44824 0.54689
 H240 H 0.26547 0.47596 0.51617
 H241 H 0.21325 0.52662 0.51186
 H242 H 0.21337 0.55544 0.53938
 H243 H 0.26206 0.51194 0.55968
 H244 H 0.26543 0.52360 0.48164
 H245 H 0.26699 0.55137 0.45109
 H246 H 0.21510 0.54088 0.41078
 H247 H 0.21409 0.51278 0.44045
 H248 H 0.26185 0.48782 0.43796
 H249 H 0.26175 0.45929 0.40953
 H250 H 0.21340 0.44488 0.45891
 H251 H 0.21334 0.47364 0.48663
 H252 H 0.26204 0.54053 0.58790
 C253 C 0.26059 1.00001 -0.01718
 C254 C 0.26118 0.99976 0.01562
 C255 C 0.26011 1.01640 0.03486
 C256 C 0.26269 0.98280 0.03379
 C257 C 0.25921 0.98336 -0.03627
 C258 C 0.26117 1.01695 -0.03548
 C259 C 0.27307 1.01999 0.05808
 C260 C 0.27238 1.03572 0.07594
 C261 C 0.25858 1.04838 0.07123
 C262 C 0.24537 1.04432 0.04817
 C263 C 0.24610 1.02854 0.03046
 C264 C 0.27665 0.97076 0.02767
 C265 C 0.27744 0.95446 0.04378
 C266 C 0.26435 0.94994 0.06649
 C267 C 0.25068 0.96227 0.07320
 C268 C 0.24992 0.97857 0.05711
 C269 C 0.24558 0.97118 -0.03038
 C270 C 0.24473 0.95528 -0.04767
 C271 C 0.25742 0.95113 -0.07174
 C272 C 0.27078 0.96385 -0.07800
 C273 C 0.27159 0.97971 -0.06059
 C274 C 0.24740 1.02132 -0.05676
 C275 C 0.24739 1.03756 -0.07308
 C276 C 0.26135 1.04986 -0.06893
 C277 C 0.27545 1.04498 -0.04811
 C278 C 0.27532 1.02878 -0.03161
 H279 H 0.28384 1.01062 0.06226
 H280 H 0.28246 1.03748 0.09416
 H281 H 0.23474 1.05354 0.04245
 H282 H 0.23576 1.02589 0.01300
 H283 H 0.28683 0.97395 0.01019
 H284 H 0.28832 0.94540 0.03852
 H285 H 0.23907 0.98771 0.06220
 H286 H 0.23572 0.97387 -0.01199
 H287 H 0.23447 0.94602 -0.04081
 H288 H 0.28040 0.96201 -0.09705
 H289 H 0.28204 0.98911 -0.06589
 H290 H 0.23648 1.01222 -0.06038
 H291 H 0.23660 1.04007 -0.08972
 H292 H 0.28629 1.05393 -0.04309
 H293 H 0.28616 1.02555 -0.01543
 H294 H 0.24029 0.95912 0.09028
 C295 C 0.76130 0.49941 0.48385
 C296 C 0.76121 0.49952 0.51669
 C297 C 0.75996 0.51639 0.53528
 C298 C 0.76204 0.48276 0.53562
 C299 C 0.76008 0.48258 0.46522
 C300 C 0.76227 0.51616 0.46495
 C301 C 0.77241 0.51996 0.55951
 C302 C 0.77162 0.53594 0.57662
 C303 C 0.75832 0.54867 0.56987
 C304 C 0.74561 0.54485 0.54607
 C305 C 0.74633 0.52880 0.52918
 C306 C 0.77584 0.47034 0.53084
 C307 C 0.77596 0.45423 0.54768
 C308 C 0.76236 0.45032 0.56974
 C309 C 0.74887 0.46303 0.57515
 C310 C 0.74877 0.47913 0.55836
 C311 C 0.74640 0.47039 0.47115
 C312 C 0.74570 0.45438 0.45417
 C313 C 0.75847 0.45037 0.43045
 C314 C 0.77183 0.46287 0.42390
 C315 C 0.77260 0.47881 0.44109
 C316 C 0.74910 0.52007 0.44209
 C317 C 0.74931 0.53619 0.42538
 C318 C 0.76281 0.54865 0.43099
 C319 C 0.77633 0.54444 0.45316
 C320 C 0.77609 0.52832 0.46993
 H321 H 0.78289 0.51045 0.56488
 H322 H 0.78138 0.53828 0.59524
 H323 H 0.73528 0.55440 0.54006
 H324 H 0.73633 0.52614 0.51109
 H325 H 0.78635 0.47302 0.51372
 H326 H 0.78648 0.44467 0.54289
 H327 H 0.73810 0.48861 0.56257
 H328 H 0.73635 0.47321 0.48915
 H329 H 0.73532 0.44502 0.46004
 H330 H 0.78164 0.46038 0.40534
 H331 H 0.78313 0.48814 0.43585
 H332 H 0.73841 0.51080 0.43773
 H333 H 0.73889 0.53893 0.40805
 H334 H 0.78685 0.55381 0.45810
 H335 H 0.78653 0.52542 0.48715
 H336 H 0.73838 0.46051 0.59239
 O337 O 0.23214 0.25579 0.21645
 O338 O 0.27651 0.25088 0.25289
 O339 O 0.25652 0.23122 0.21644
 O340 O 0.25206 0.27565 0.25288
 O341 O 0.24008 0.26371 0.29618
 O342 O 0.24444 0.21924 0.25961
 O343 O 0.26444 0.23894 0.29613
 O344 O 0.22003 0.24400 0.25978
 Cu345 Cu 0.25553 0.25461 0.23037
 Cu346 Cu 0.24104 0.24028 0.28226
 C347 C 0.21849 0.25065 0.23179
 C348 C 0.27809 0.24406 0.28074
 C349 C 0.25117 0.21763 0.23169
 C350 C 0.24534 0.27730 0.28079
 O351 O 0.72310 0.74679 0.25113
 O352 O 0.76714 0.74241 0.21308
 O353 O 0.74777 0.72228 0.25006
 O354 O 0.74247 0.76678 0.21417
 O355 O 0.75530 0.77869 0.25666
 O356 O 0.75989 0.73423 0.29319
 O357 O 0.77962 0.75394 0.25626
 O358 O 0.73549 0.75898 0.29378
 Cu359 Cu 0.74387 0.74335 0.22784
 Cu360 Cu 0.75880 0.75766 0.27929
 C361 C 0.72174 0.75367 0.27895
 C362 C 0.78092 0.74744 0.22813
 C363 C 0.75465 0.72063 0.27784
 C364 C 0.74812 0.78034 0.22912
 O365 O 0.77626 0.24690 0.24901
 O366 O 0.73185 0.24172 0.28491
 O367 O 0.75191 0.22235 0.24774
 O368 O 0.75597 0.26626 0.28614
 O369 O 0.74447 0.27896 0.24297
 O370 O 0.73954 0.23497 0.20526
 O371 O 0.71980 0.25492 0.24269
 O372 O 0.76416 0.25903 0.20583
 Cu373 Cu 0.75523 0.24303 0.27120
 Cu374 Cu 0.74077 0.25823 0.21989
 C375 C 0.77781 0.25374 0.22120
 C376 C 0.71824 0.24759 0.27011
 C377 C 0.74497 0.22114 0.21996
 C378 C 0.75092 0.28013 0.27113
 O379 O 0.25980 0.76371 0.20175
 O380 O 0.25524 0.71958 0.23918
 O381 O 0.23534 0.73938 0.20178
 O382 O 0.27953 0.74396 0.23907
 O383 O 0.26705 0.75588 0.28208
 O384 O 0.22302 0.75209 0.24419
 O385 O 0.24231 0.73193 0.28137
 O386 O 0.24777 0.77615 0.24470
 Cu387 Cu 0.25870 0.74041 0.21615
 Cu388 Cu 0.24379 0.75527 0.26734
 C389 C 0.25463 0.77750 0.21686
 C390 C 0.24800 0.71820 0.26669
 C391 C 0.22162 0.74505 0.21654
 C392 C 0.28083 0.75058 0.26709
 O393 O 0.72232 0.25290 0.75084
 O394 O 0.76644 0.25688 0.78836
 O395 O 0.74688 0.27714 0.75147
 O396 O 0.74190 0.23274 0.78764
 O397 O 0.75468 0.22064 0.74507
 O398 O 0.75892 0.26499 0.70826
 O399 O 0.77886 0.24518 0.74509
 O400 O 0.73463 0.24051 0.70811
 Cu401 Cu 0.74314 0.25614 0.77386
 Cu402 Cu 0.75799 0.24160 0.72232
 C403 C 0.72090 0.24600 0.72307
 C404 C 0.78021 0.25172 0.77317
 C405 C 0.75368 0.27867 0.72361
 C406 C 0.74759 0.21910 0.77269
 O407 O 0.27642 0.74859 0.74637
 O408 O 0.23218 0.74321 0.78280
 O409 O 0.25237 0.72384 0.74574
 O410 O 0.25614 0.76794 0.78348
 O411 O 0.24406 0.78033 0.74054
 O412 O 0.23989 0.73614 0.70309
 O413 O 0.21986 0.75585 0.74031
 O414 O 0.26410 0.76072 0.70339
 Cu415 Cu 0.25553 0.74465 0.76886
 Cu416 Cu 0.24075 0.75948 0.71752
 C417 C 0.27785 0.75552 0.71860
 C418 C 0.21846 0.74873 0.76792
 C419 C 0.24547 0.72242 0.71797
 C420 C 0.25072 0.78169 0.76853
 O421 O 0.26647 0.24374 0.71551
 O422 O 0.22229 0.24808 0.75303
 O423 O 0.24176 0.26809 0.71640
 O424 O 0.24699 0.22356 0.75216
 O425 O 0.25874 0.23549 0.79563
 O426 O 0.25462 0.27995 0.75892
 O427 O 0.23449 0.26036 0.79577
 O428 O 0.27880 0.25509 0.75898
 Cu429 Cu 0.24315 0.24465 0.72999
 Cu430 Cu 0.25788 0.25892 0.78167
 C431 C 0.28020 0.24868 0.73080
 C432 C 0.22081 0.25503 0.78078
 C433 C 0.24746 0.28161 0.73137
 C434 C 0.25364 0.22190 0.78011
 O435 O 0.73171 0.75804 0.71369
 O436 O 0.77619 0.75251 0.74936
 O437 O 0.75593 0.73322 0.71255
 O438 O 0.75176 0.77730 0.75043
 O439 O 0.73967 0.76497 0.79329
 O440 O 0.74441 0.72080 0.75583
 O441 O 0.76425 0.74043 0.79257
 O442 O 0.71978 0.74523 0.75624
 Cu443 Cu 0.75512 0.75650 0.72723
 Cu444 Cu 0.74082 0.74164 0.77881
 C445 C 0.71815 0.75245 0.72872
 C446 C 0.77785 0.74560 0.77712
 C447 C 0.75087 0.71946 0.72767
 C448 C 0.74497 0.77869 0.77832
 C449 C 0.25721 0.09747 0.12299
 C450 C 0.24158 0.09025 0.11027
 C451 C 0.24197 0.07413 0.09354
 C452 C 0.25808 0.06464 0.08886
 C453 C 0.27372 0.07200 0.10208
 C454 C 0.27326 0.08812 0.11882
 C455 C 0.25681 0.11483 0.14012
 C456 C 0.27043 0.12728 0.13540
 C457 C 0.26988 0.14376 0.15092
 C458 C 0.25568 0.14821 0.17149
 C459 C 0.24214 0.13570 0.17644
 C460 C 0.24271 0.11920 0.16096
 C461 C 0.25483 0.16595 0.18724
 C462 C 0.24877 0.16772 0.21910
 C463 C 0.24767 0.18447 0.23362
 C464 C 0.25266 0.19982 0.21664
 C465 C 0.25885 0.19803 0.18488
 C466 C 0.25990 0.18131 0.17034
 H467 H 0.22898 0.09717 0.11292
 H468 H 0.22937 0.06902 0.08530
 H469 H 0.28662 0.06587 0.09855
 H470 H 0.28555 0.09326 0.12854
 H471 H 0.28138 0.12441 0.11924
 H472 H 0.28062 0.15300 0.14689
 H473 H 0.23093 0.13878 0.19186
 H474 H 0.23213 0.10983 0.16541
 H475 H 0.24500 0.15613 0.23292
 H476 H 0.24291 0.18539 0.25817
 H477 H 0.26272 0.20960 0.17106
 H478 H 0.26436 0.18045 0.14562
 C479 C 0.75692 0.59911 0.61948
 C480 C 0.77323 0.59111 0.61106
 C481 C 0.77368 0.57476 0.59508
 C482 C 0.75783 0.56594 0.58732
 C483 C 0.74152 0.57386 0.59599
 C484 C 0.74107 0.59027 0.61179
 C485 C 0.75644 0.61667 0.63595
 C486 C 0.74373 0.62029 0.65995
 C487 C 0.74311 0.63689 0.67506
 C488 C 0.75525 0.65025 0.66668
 C489 C 0.76805 0.64659 0.64286
 C490 C 0.76860 0.63003 0.62762
 C491 C 0.75445 0.66799 0.68250
 C492 C 0.75762 0.68358 0.66473
 C493 C 0.75665 0.70026 0.67948
 C494 C 0.75236 0.70176 0.71228
 C495 C 0.74924 0.68620 0.73009
 C496 C 0.75034 0.66951 0.71541
 H497 H 0.78570 0.59743 0.61698
 H498 H 0.78646 0.56916 0.58841
 H499 H 0.72907 0.56734 0.59075
 H500 H 0.72827 0.59614 0.61755
 H501 H 0.73432 0.61024 0.66726
 H502 H 0.73294 0.63932 0.69300
 H503 H 0.77774 0.65649 0.63611
 H504 H 0.77841 0.62779 0.60896
 H505 H 0.76053 0.68293 0.63924
 H506 H 0.75902 0.71201 0.66504
 H507 H 0.74601 0.68691 0.75546
 H508 H 0.74812 0.65777 0.72993
 C509 C 0.74290 0.90031 0.11919
 C510 C 0.75265 0.90286 0.09079
 C511 C 0.75223 0.91919 0.07477
 C512 C 0.74210 0.93370 0.08669
 C513 C 0.73246 0.93099 0.11552
 C514 C 0.73284 0.91459 0.13138
 C515 C 0.74316 0.88279 0.13588
 C516 C 0.74325 0.88180 0.16968
 C517 C 0.74356 0.86532 0.18528
 C518 C 0.74389 0.84941 0.16747
 C519 C 0.74379 0.85042 0.13368
 C520 C 0.74336 0.86689 0.11810
 C521 C 0.74450 0.83184 0.18396
 C522 C 0.73520 0.81725 0.17137
 C523 C 0.73627 0.80059 0.18618
 C524 C 0.74653 0.79814 0.21411
 C525 C 0.75557 0.81277 0.22707
 C526 C 0.75462 0.82941 0.21210
 H527 H 0.76069 0.89219 0.08085
 H528 H 0.75941 0.91997 0.05229
 H529 H 0.72498 0.94160 0.12684
 H530 H 0.72507 0.91307 0.15314
 H531 H 0.74331 0.89378 0.18413
 H532 H 0.74342 0.86504 0.21132
 H533 H 0.74428 0.83847 0.11918
 H534 H 0.74304 0.86714 0.09206
 H535 H 0.72701 0.81871 0.15011
 H536 H 0.72904 0.78961 0.17573
 H537 H 0.76366 0.81129 0.24847
 H538 H 0.76216 0.84028 0.22220
 C539 C 0.24265 0.40123 0.62005
 C540 C 0.25004 0.40285 0.58910
 C541 C 0.24961 0.41911 0.57285
 C542 C 0.24198 0.43428 0.58725
 C543 C 0.23476 0.43272 0.61835
 C544 C 0.23501 0.41640 0.63447
 C545 C 0.24284 0.38380 0.63708
 C546 C 0.24522 0.38290 0.67061
 C547 C 0.24543 0.36650 0.68650
 C548 C 0.24346 0.35055 0.66924
 C549 C 0.24112 0.35146 0.63570
 C550 C 0.24069 0.36785 0.61988
 C551 C 0.24404 0.33303 0.68597
 C552 C 0.23336 0.31890 0.67542
 C553 C 0.23441 0.30225 0.69029
 C554 C 0.24596 0.29940 0.71636
 C555 C 0.25635 0.31358 0.72743
 C556 C 0.25550 0.33017 0.71227
 H557 H 0.25630 0.39156 0.57742
 H558 H 0.25506 0.41971 0.54876
 H559 H 0.22899 0.44416 0.63039
 H560 H 0.22899 0.41563 0.65809
 H561 H 0.24715 0.39487 0.68462
 H562 H 0.24703 0.36636 0.71239
 H563 H 0.23983 0.33947 0.62150
 H564 H 0.23854 0.36800 0.59412
 H565 H 0.22411 0.32069 0.65573
 H566 H 0.22611 0.29161 0.68142
 H567 H 0.26547 0.31173 0.74734
 H568 H 0.26413 0.34063 0.72074
 C569 C 0.89933 0.26099 0.11766
 C570 C 0.90905 0.24524 0.11272
 C571 C 0.92564 0.24551 0.09761
 C572 C 0.93317 0.26160 0.08635
 C573 C 0.92311 0.27740 0.09146
 C574 C 0.90661 0.27707 0.10695
 C575 C 0.88162 0.26058 0.13366
 C576 C 0.86780 0.27200 0.12357
 C577 C 0.85108 0.27137 0.13823
 C578 C 0.84769 0.25920 0.16317
 C579 C 0.86153 0.24784 0.17335
 C580 C 0.87829 0.24859 0.15891
 C581 C 0.82975 0.25817 0.17822
 C582 C 0.82790 0.25461 0.21129
 C583 C 0.81105 0.25318 0.22524
 C584 C 0.79565 0.25546 0.20652
 C585 C 0.79745 0.25925 0.17358
 C586 C 0.81429 0.26049 0.15956
 H587 H 0.90364 0.23252 0.11980
 H588 H 0.93182 0.23271 0.09325
 H589 H 0.92816 0.29037 0.08526
 H590 H 0.89969 0.28954 0.11110
 H591 H 0.86979 0.28126 0.10396
 H592 H 0.84082 0.28049 0.13006
 H593 H 0.85937 0.23814 0.19218
 H594 H 0.88868 0.23978 0.16765
 H595 H 0.83948 0.25308 0.22653
 H596 H 0.81009 0.25039 0.25075
 H597 H 0.78583 0.26096 0.15848
 H598 H 0.81518 0.26293 0.13393
 C599 C 0.39867 0.76322 0.61309
 C600 C 0.40654 0.74747 0.60148
 C601 C 0.42308 0.74782 0.58621
 C602 C 0.43212 0.76395 0.58208
 C603 C 0.42423 0.77974 0.59346
 C604 C 0.40769 0.77938 0.60886
 C605 C 0.38110 0.76274 0.62948
 C606 C 0.36830 0.77612 0.62393
 C607 C 0.35165 0.77541 0.63887
 C608 C 0.34743 0.76131 0.65969
 C609 C 0.36029 0.74801 0.66541
 C610 C 0.37693 0.74874 0.65053
 C611 C 0.32961 0.76030 0.67508
 C612 C 0.32785 0.75438 0.70701
 C613 C 0.31107 0.75292 0.72118
 C614 C 0.29565 0.75742 0.70378
 C615 C 0.29741 0.76355 0.67199
 C616 C 0.31419 0.76494 0.65778
 H617 H 0.39979 0.73486 0.60375
 H618 H 0.42868 0.73549 0.57715
 H619 H 0.43098 0.79234 0.59092
 H620 H 0.40210 0.79171 0.61791
 H621 H 0.37103 0.78699 0.60761
 H622 H 0.34212 0.78597 0.63424
 H623 H 0.35740 0.73686 0.68101
 H624 H 0.38657 0.73834 0.65566
 H625 H 0.33947 0.75097 0.72116
 H626 H 0.31018 0.74826 0.74578
 H627 H 0.28579 0.76706 0.65789
 H628 H 0.31506 0.76931 0.63300
 C629 C 0.10078 0.73870 0.11071
 C630 C 0.09315 0.75426 0.09776
 C631 C 0.07652 0.75379 0.08281
 C632 C 0.06715 0.73775 0.08037
 C633 C 0.07478 0.72217 0.09322
 C634 C 0.09140 0.72264 0.10827
 C635 C 0.11846 0.73925 0.12668
 C636 C 0.13093 0.72544 0.12213
 C637 C 0.14761 0.72608 0.13692
 C638 C 0.15221 0.74054 0.15660
 C639 C 0.13972 0.75432 0.16120
 C640 C 0.12304 0.75367 0.14645
 C641 C 0.16999 0.74134 0.17215
 C642 C 0.17176 0.74779 0.20373
 C643 C 0.18849 0.74890 0.21816
 C644 C 0.20386 0.74354 0.20139
 C645 C 0.20210 0.73694 0.16992
 C646 C 0.18535 0.73586 0.15546
 H647 H 0.10016 0.76677 0.09872
 H648 H 0.07113 0.76595 0.07263
 H649 H 0.06777 0.70966 0.09205
 H650 H 0.09679 0.71048 0.11842
 H651 H 0.12788 0.71424 0.10678
 H652 H 0.15686 0.71517 0.13316
 H653 H 0.14291 0.76574 0.17590
 H654 H 0.11367 0.76442 0.15075
 H655 H 0.16017 0.75185 0.21743
 H656 H 0.18938 0.75397 0.24249
 H657 H 0.21368 0.73275 0.15631
 H658 H 0.18447 0.73105 0.13096
 C659 C 0.60020 0.23968 0.61687
 C660 C 0.59272 0.25520 0.60351
 C661 C 0.57618 0.25474 0.58825
 C662 C 0.56674 0.23873 0.58594
 C663 C 0.57421 0.22319 0.59927
 C664 C 0.59075 0.22366 0.61459
 C665 C 0.61782 0.24021 0.63303
 C666 C 0.63024 0.22633 0.62875
 C667 C 0.64689 0.22696 0.64365
 C668 C 0.65150 0.24147 0.66318
 C669 C 0.63905 0.25531 0.66755
 C670 C 0.62241 0.25468 0.65267
 C671 C 0.66927 0.24228 0.67876
 C672 C 0.67104 0.24877 0.71030
 C673 C 0.68778 0.24988 0.72472
 C674 C 0.70314 0.24448 0.70797
 C675 C 0.70137 0.23784 0.67654
 C676 C 0.68462 0.23676 0.66209
 H677 H 0.59980 0.26768 0.60435
 H678 H 0.57091 0.26686 0.57773
 H679 H 0.56714 0.21071 0.59823
 H680 H 0.59602 0.21153 0.62507
 H681 H 0.62719 0.21509 0.61351
 H682 H 0.65611 0.21600 0.64008
 H683 H 0.64226 0.26677 0.68215
 H684 H 0.61307 0.26548 0.65675
 H685 H 0.65945 0.25288 0.72396
 H686 H 0.68867 0.25498 0.74903
 H687 H 0.71294 0.23362 0.66293
 H688 H 0.68373 0.23191 0.63761
 C689 C 0.74275 0.09910 0.88237
 C690 C 0.75249 0.09637 0.91075
 C691 C 0.75211 0.08001 0.92667
 C692 C 0.74203 0.06565 0.91465
 C693 C 0.73240 0.06854 0.88585
 C694 C 0.73273 0.08497 0.87010
 C695 C 0.74299 0.11664 0.86576
 C696 C 0.74308 0.11768 0.83197
 C697 C 0.74336 0.13418 0.81645
 C698 C 0.74365 0.15006 0.83433
 C699 C 0.74356 0.14900 0.86811
 C700 C 0.74316 0.13252 0.88362
 C701 C 0.74423 0.16764 0.81790
 C702 C 0.73492 0.18235 0.83058
 C703 C 0.73591 0.19901 0.81577
 C704 C 0.74611 0.20133 0.78777
 C705 C 0.75518 0.18659 0.77474
 C706 C 0.75431 0.16995 0.78971
 H707 H 0.76050 0.10691 0.92076
 H708 H 0.75928 0.07910 0.94915
 H709 H 0.72495 0.05805 0.87445
 H710 H 0.72497 0.08663 0.84835
 H711 H 0.74315 0.10572 0.81746
 H712 H 0.74320 0.13449 0.79040
 H713 H 0.74404 0.16093 0.88266
 H714 H 0.74285 0.13224 0.90966
 H715 H 0.72675 0.18098 0.85189
 H716 H 0.72866 0.21007 0.82627
 H717 H 0.76324 0.18797 0.75329
 H718 H 0.76186 0.15900 0.77955
 C719 C 0.24225 0.59885 0.37853
 C720 C 0.24971 0.59708 0.40941
 C721 C 0.24930 0.58080 0.42561
 C722 C 0.24162 0.56578 0.41120
 C723 C 0.23431 0.56750 0.38020
 C724 C 0.23454 0.58384 0.36415
 C725 C 0.24251 0.61628 0.36151
 C726 C 0.24486 0.61711 0.32796
 C727 C 0.24519 0.63350 0.31206
 C728 C 0.24337 0.64950 0.32933
 C729 C 0.24102 0.64866 0.36287
 C730 C 0.24048 0.63228 0.37870
 C731 C 0.24415 0.66700 0.31257
 C732 C 0.23361 0.68142 0.32306
 C733 C 0.23481 0.69802 0.30808
 C734 C 0.24637 0.70052 0.28195
 C735 C 0.25665 0.68607 0.27100
 C736 C 0.25564 0.66953 0.28626
 H737 H 0.25602 0.60825 0.42107
 H738 H 0.25482 0.58007 0.44963
 H739 H 0.22850 0.55617 0.36817
 H740 H 0.22846 0.58474 0.34059
 H741 H 0.24669 0.60510 0.31395
 H742 H 0.24678 0.63360 0.28617
 H743 H 0.23983 0.66068 0.37706
 H744 H 0.23835 0.63218 0.40447
 H745 H 0.22434 0.67989 0.34278
 H746 H 0.22660 0.70888 0.31687
 H747 H 0.26579 0.68763 0.25106
 H748 H 0.26418 0.65884 0.27785
 C749 C 0.25595 0.90159 0.87801
 C750 C 0.24046 0.90881 0.89175
 C751 C 0.24088 0.92507 0.90804
 C752 C 0.25687 0.93471 0.91117
 C753 C 0.27236 0.92732 0.89697
 C754 C 0.27188 0.91106 0.88073
 C755 C 0.25553 0.88416 0.86119
 C756 C 0.26944 0.87175 0.86518
 C757 C 0.26894 0.85526 0.84973
 C758 C 0.25451 0.85076 0.82992
 C759 C 0.24064 0.86320 0.82578
 C760 C 0.24114 0.87970 0.84123
 C761 C 0.25383 0.83310 0.81393
 C762 C 0.24745 0.83149 0.78228
 C763 C 0.24655 0.81483 0.76746
 C764 C 0.25202 0.79939 0.78395
 C765 C 0.25851 0.80102 0.81551
 C766 C 0.25939 0.81767 0.83034
 H767 H 0.22797 0.90180 0.89021
 H768 H 0.22838 0.93018 0.91712
 H769 H 0.28519 0.93357 0.89934
 H770 H 0.28405 0.90590 0.87021
 H771 H 0.28062 0.87469 0.88066
 H772 H 0.27993 0.84605 0.85313
 H773 H 0.22924 0.86008 0.81097
 H774 H 0.23031 0.88904 0.83738
 H775 H 0.24330 0.84314 0.76883
 H776 H 0.24154 0.81404 0.74307
 H777 H 0.26276 0.78939 0.82893
 H778 H 0.26413 0.81842 0.85489
 C779 C 0.75706 0.40008 0.38042
 C780 C 0.74121 0.40919 0.38810
 C781 C 0.74167 0.42555 0.40404
 C782 C 0.75797 0.43315 0.41288
 C783 C 0.77382 0.42406 0.40513
 C784 C 0.77337 0.40776 0.38901
 C785 C 0.75656 0.38257 0.36378
 C786 C 0.76868 0.36898 0.37203
 C787 C 0.76812 0.35248 0.35662
 C788 C 0.75536 0.34910 0.33272
 C789 C 0.74326 0.36271 0.32442
 C790 C 0.74390 0.37925 0.33969
 C791 C 0.75454 0.33142 0.31675
 C792 C 0.75046 0.33006 0.28382
 C793 C 0.74935 0.31342 0.26899
 C794 C 0.75242 0.29776 0.28668
 C795 C 0.75668 0.29911 0.31950
 C796 C 0.75766 0.31573 0.33439
 H797 H 0.72841 0.40357 0.38220
 H798 H 0.72922 0.43228 0.40926
 H799 H 0.78660 0.42941 0.41194
 H800 H 0.78583 0.40124 0.38311
 H801 H 0.77847 0.37099 0.39074
 H802 H 0.77778 0.34239 0.36332
 H803 H 0.73312 0.36051 0.30642
 H804 H 0.73451 0.38949 0.33244
 H805 H 0.74828 0.34187 0.26939
 H806 H 0.74614 0.31284 0.24361
 H807 H 0.75901 0.28728 0.33384
 H808 H 0.76054 0.31626 0.35989
 C809 C 0.10001 0.26194 0.88712
 C810 C 0.09251 0.24620 0.89913
 C811 C 0.07595 0.24652 0.91438
 C812 C 0.06651 0.26259 0.91808
 C813 C 0.07403 0.27836 0.90628
 C814 C 0.09058 0.27804 0.89091
 C815 C 0.11759 0.26150 0.87076
 C816 C 0.13006 0.27504 0.87597
 C817 C 0.14671 0.27442 0.86097
 C818 C 0.15127 0.26025 0.84043
 C819 C 0.13875 0.24677 0.83508
 C820 C 0.12212 0.24741 0.85002
 C821 C 0.16907 0.25937 0.82487
 C822 C 0.17089 0.25332 0.79302
 C823 C 0.18765 0.25202 0.77867
 C824 C 0.20301 0.25679 0.79580
 C825 C 0.20120 0.26303 0.82751
 C826 C 0.18442 0.26429 0.84190
 H827 H 0.09957 0.23364 0.89718
 H828 H 0.07066 0.23420 0.92376
 H829 H 0.06696 0.29091 0.90848
 H830 H 0.09587 0.29036 0.88155
 H831 H 0.12706 0.28599 0.89204
 H832 H 0.15597 0.28511 0.86532
 H833 H 0.14191 0.23556 0.81970
 H834 H 0.11274 0.23689 0.84517
 H835 H 0.15931 0.24970 0.77907
 H836 H 0.18858 0.24726 0.75414
 H837 H 0.21277 0.26676 0.84140
 H838 H 0.18351 0.26877 0.86661
 C839 C 0.60096 0.76191 0.38488
 C840 C 0.58566 0.75676 0.36794
 C841 C 0.56897 0.75722 0.38276
 C842 C 0.56719 0.76284 0.41487
 C843 C 0.58248 0.76808 0.43175
 C844 C 0.59916 0.76763 0.41692
 C845 C 0.61874 0.76115 0.36929
 C846 C 0.63372 0.75523 0.38660
 C847 C 0.65043 0.75436 0.37190
 C848 C 0.65253 0.75934 0.33954
 C849 C 0.63757 0.76530 0.32224
 C850 C 0.62087 0.76622 0.33695
 C851 C 0.67024 0.75817 0.32383
 C852 C 0.67191 0.75160 0.29231
 C853 C 0.68861 0.75021 0.27771
 C854 C 0.70402 0.75540 0.29426
 C855 C 0.70234 0.76209 0.32571
 C856 C 0.68564 0.76344 0.34034
 H857 H 0.58661 0.75211 0.34334
 H858 H 0.55743 0.75327 0.36901
 H859 H 0.58159 0.77228 0.45662
 H860 H 0.61065 0.77187 0.43052
 H861 H 0.63248 0.75095 0.41137
 H862 H 0.66165 0.74945 0.38571
 H863 H 0.63883 0.76948 0.29740
 H864 H 0.60966 0.77111 0.32312
 H865 H 0.66032 0.74724 0.27912
 H866 H 0.68944 0.74497 0.25348
 H867 H 0.71394 0.76625 0.33910
 H868 H 0.68475 0.76875 0.36451
 C869 C 0.89911 0.73728 0.88112
 C870 C 0.90840 0.72110 0.88500
 C871 C 0.92494 0.72064 0.90038
 C872 C 0.93258 0.73636 0.91211
 C873 C 0.92328 0.75251 0.90831
 C874 C 0.90674 0.75296 0.89305
 C875 C 0.88152 0.73785 0.86484
 C876 C 0.87709 0.75198 0.84409
 C877 C 0.86040 0.75280 0.82938
 C878 C 0.84774 0.73949 0.83498
 C879 C 0.85223 0.72526 0.85547
 C880 C 0.86893 0.72445 0.87024
 C881 C 0.82986 0.74062 0.81985
 C882 C 0.81457 0.73591 0.83728
 C883 C 0.79771 0.73738 0.82333
 C884 C 0.79574 0.74366 0.79166
 C885 C 0.81103 0.74825 0.77413
 C886 C 0.82789 0.74672 0.78805
 H887 H 0.90299 0.70882 0.87571
 H888 H 0.93189 0.70804 0.90266
 H889 H 0.92868 0.76479 0.91763
 H890 H 0.89979 0.76558 0.89104
 H891 H 0.88656 0.76240 0.83909
 H892 H 0.85731 0.76405 0.81402
 H893 H 0.84286 0.71468 0.85999
 H894 H 0.87186 0.71348 0.88632
 H895 H 0.81560 0.73140 0.86197
 H896 H 0.78620 0.73379 0.83753
 H897 H 0.80998 0.75303 0.74961
 H898 H 0.83941 0.75020 0.77380
 C899 C 0.39914 0.23650 0.38563
 C900 C 0.40844 0.22036 0.38991
 C901 C 0.42497 0.22005 0.40533
 C902 C 0.43257 0.23586 0.41669
 C903 C 0.42325 0.25197 0.41250
 C904 C 0.40673 0.25228 0.39721
 C905 C 0.38157 0.23693 0.36926
 C906 C 0.37716 0.25091 0.34816
 C907 C 0.36050 0.25160 0.33335
 C908 C 0.34785 0.23831 0.33918
 C909 C 0.35231 0.22423 0.36003
 C910 C 0.36898 0.22355 0.37490
 C911 C 0.32999 0.23932 0.32391
 C912 C 0.31467 0.23471 0.34134
 C913 C 0.29784 0.23610 0.32725
 C914 C 0.29594 0.24218 0.29544
 C915 C 0.31126 0.24664 0.27791
 C916 C 0.32809 0.24519 0.29196
 H917 H 0.40306 0.20801 0.38089
 H918 H 0.43194 0.20747 0.40792
 H919 H 0.42862 0.26432 0.42155
 H920 H 0.39976 0.26487 0.39490
 H921 H 0.38663 0.26130 0.34297
 H922 H 0.35742 0.26274 0.31772
 H923 H 0.34295 0.21368 0.36474
 H924 H 0.37190 0.21270 0.39126
 H925 H 0.31565 0.23038 0.36613
 H926 H 0.28630 0.23261 0.34144
 H927 H 0.31027 0.25127 0.25329
 H928 H 0.33964 0.24858 0.27772
 C929 C 0.73861 0.89952 0.88482
 C930 C 0.72241 0.90755 0.89368
 C931 C 0.72209 0.92404 0.90921
 C932 C 0.73800 0.93318 0.91614
 C933 C 0.75421 0.92500 0.90694
 C934 C 0.75448 0.90844 0.89172
 C935 C 0.73899 0.88188 0.86860
 C936 C 0.75156 0.87818 0.84441
 C937 C 0.75218 0.86151 0.82960
 C938 C 0.74015 0.84813 0.83840
 C939 C 0.72745 0.85188 0.86236
 C940 C 0.72691 0.86852 0.87734
 C941 C 0.74097 0.83032 0.82283
 C942 C 0.73790 0.81478 0.84081
 C943 C 0.73900 0.79804 0.82630
 C944 C 0.74334 0.79643 0.79353
 C945 C 0.74633 0.81194 0.77550
 C946 C 0.74508 0.82868 0.78994
 H947 H 0.70990 0.90123 0.88808
 H948 H 0.70921 0.92984 0.91442
 H949 H 0.76690 0.93086 0.91273
 H950 H 0.76723 0.90244 0.88599
 H951 H 0.76090 0.88822 0.83675
 H952 H 0.76229 0.85903 0.81155
 H953 H 0.71783 0.84197 0.86945
 H954 H 0.71718 0.87083 0.89613
 H955 H 0.73499 0.81552 0.86629
 H956 H 0.73672 0.78633 0.84088
 H957 H 0.74956 0.81115 0.75014
 H958 H 0.74720 0.84037 0.77523
 C959 C 0.23884 0.39859 0.38540
 C960 C 0.22275 0.40810 0.38859
 C961 C 0.22234 0.42470 0.40376
 C962 C 0.23802 0.43219 0.41599
 C963 C 0.25409 0.42268 0.41283
 C964 C 0.25449 0.40608 0.39775
 C965 C 0.23932 0.38092 0.36934
 C966 C 0.25354 0.37623 0.34899
 C967 C 0.25417 0.35953 0.33428
 C968 C 0.24059 0.34711 0.33951
 C969 C 0.22630 0.35184 0.35969
 C970 C 0.22568 0.36855 0.37444
 C971 C 0.24143 0.32925 0.32421
 C972 C 0.23632 0.31400 0.34138
 C973 C 0.23746 0.29716 0.32722
 C974 C 0.24377 0.29518 0.29557
 C975 C 0.24877 0.31043 0.27831
 C976 C 0.24759 0.32727 0.29245
 H977 H 0.21051 0.40283 0.37892
 H978 H 0.20980 0.43182 0.40549
 H979 H 0.26633 0.42796 0.42252
 H980 H 0.26704 0.39896 0.39623
 H981 H 0.26415 0.38553 0.34425
 H982 H 0.26546 0.35624 0.31916
 H983 H 0.21553 0.34266 0.36394
 H984 H 0.21463 0.37168 0.39023
 H985 H 0.23175 0.31503 0.36603
 H986 H 0.23355 0.28568 0.34122
 H987 H 0.25361 0.30938 0.25383
 H988 H 0.25138 0.33877 0.27840
 C989 C 0.26048 0.10031 0.88385
 C990 C 0.27667 0.09225 0.89261
 C991 C 0.27701 0.07574 0.90809
 C992 C 0.26110 0.06661 0.91511
 C993 C 0.24489 0.07479 0.90596
 C994 C 0.24461 0.09137 0.89077
 C995 C 0.26009 0.11801 0.86781
 C996 C 0.24749 0.12181 0.84372
 C997 C 0.24682 0.13857 0.82920
 C998 C 0.25882 0.15193 0.83822
 C999 C 0.27156 0.14807 0.86204
 C1000 C 0.27215 0.13134 0.87672
 C1001 C 0.25788 0.16987 0.82312
 C1002 C 0.26088 0.18526 0.84152
 C1003 C 0.25969 0.20213 0.82748
 C1004 C 0.25533 0.20402 0.79478
 C1005 C 0.25240 0.18866 0.77632
 C1006 C 0.25373 0.17179 0.79029
 H1007 H 0.28919 0.09858 0.88698
 H1008 H 0.28990 0.06993 0.91324
 H1009 H 0.23220 0.06893 0.91180
 H1010 H 0.23186 0.09739 0.88512
 H1011 H 0.23816 0.11180 0.83594
 H1012 H 0.23670 0.14114 0.81124
 H1013 H 0.28115 0.15795 0.86927
 H1014 H 0.28189 0.12895 0.89543
 H1015 H 0.26381 0.18431 0.86697
 H1016 H 0.26192 0.21371 0.84240
 H1017 H 0.24914 0.18967 0.75100
 H1018 H 0.25165 0.16023 0.77527
 C1019 C 0.76185 0.59947 0.38283
 C1020 C 0.77793 0.59000 0.38650
 C1021 C 0.77828 0.57351 0.40210
 C1022 C 0.76254 0.56610 0.41427
 C1023 C 0.74648 0.57556 0.41061
 C1024 C 0.74614 0.59206 0.39513
 C1025 C 0.76142 0.61704 0.36642
 C1026 C 0.74727 0.62161 0.34585
 C1027 C 0.74661 0.63828 0.33099
 C1028 C 0.76010 0.65078 0.33628
 C1029 C 0.77435 0.64615 0.35661
 C1030 C 0.77500 0.62948 0.37151
 C1031 C 0.75915 0.66865 0.32099
 C1032 C 0.76410 0.68392 0.33822
 C1033 C 0.76279 0.70077 0.32413
 C1034 C 0.75646 0.70274 0.29250
 C1035 C 0.75165 0.68747 0.27517
 C1036 C 0.75300 0.67062 0.28924
 H1037 H 0.79022 0.59523 0.37691
 H1038 H 0.79081 0.56642 0.40423
 H1039 H 0.73420 0.57035 0.42026
 H1040 H 0.73360 0.59915 0.39326
 H1041 H 0.73671 0.61226 0.34109
 H1042 H 0.73535 0.64149 0.31576
 H1043 H 0.78506 0.65540 0.36090
 H1044 H 0.78599 0.62644 0.38746
 H1045 H 0.76866 0.68289 0.36287
 H1046 H 0.76655 0.71227 0.33818
 H1047 H 0.74680 0.68851 0.25070
 H1048 H 0.74934 0.65910 0.27514
 C1049 C 0.09876 0.74248 0.87806
 C1050 C 0.08478 0.73216 0.86606
 C1051 C 0.06839 0.73167 0.88189
 C1052 C 0.06540 0.74145 0.91050
 C1053 C 0.07961 0.75183 0.92225
 C1054 C 0.09593 0.75236 0.90624
 C1055 C 0.11626 0.74288 0.86138
 C1056 C 0.13215 0.74336 0.87917
 C1057 C 0.14859 0.74394 0.86359
 C1058 C 0.14960 0.74391 0.82980
 C1059 C 0.13372 0.74330 0.81199
 C1060 C 0.11725 0.74284 0.82759
 C1061 C 0.16714 0.74470 0.81331
 C1062 C 0.16927 0.75476 0.78505
 C1063 C 0.18586 0.75586 0.77003
 C1064 C 0.20074 0.74702 0.78306
 C1065 C 0.19860 0.73683 0.81113
 C1066 C 0.18198 0.73562 0.82599
 H1067 H 0.08653 0.72429 0.84446
 H1068 H 0.05800 0.72399 0.87072
 H1069 H 0.07862 0.75913 0.94458
 H1070 H 0.10636 0.76060 0.91603
 H1071 H 0.13190 0.74315 0.90522
 H1072 H 0.16053 0.74464 0.87808
 H1073 H 0.13400 0.74305 0.78595
 H1074 H 0.10528 0.74268 0.81313
 H1075 H 0.15819 0.76214 0.77488
 H1076 H 0.18710 0.76390 0.74852
 H1077 H 0.20977 0.72975 0.82163
 H1078 H 0.18075 0.72747 0.84736
 C1079 C 0.59880 0.24218 0.38160
 C1080 C 0.58389 0.23420 0.36736
 C1081 C 0.56757 0.23382 0.38346
 C1082 C 0.56577 0.24124 0.41436
 C1083 C 0.58069 0.24920 0.42860
 C1084 C 0.59695 0.24975 0.41237
 C1085 C 0.61623 0.24253 0.36458
 C1086 C 0.63222 0.24066 0.38182
 C1087 C 0.64859 0.24119 0.36598
 C1088 C 0.64943 0.24339 0.33241
 C1089 C 0.63344 0.24511 0.31511
 C1090 C 0.61705 0.24477 0.33101
 C1091 C 0.66693 0.24405 0.31565
 C1092 C 0.66954 0.25545 0.28922
 C1093 C 0.68610 0.25636 0.27404
 C1094 C 0.70050 0.24606 0.28518
 C1095 C 0.69790 0.23456 0.31138
 C1096 C 0.68129 0.23348 0.32629
 H1097 H 0.58486 0.22803 0.34388
 H1098 H 0.55632 0.22779 0.37155
 H1099 H 0.57989 0.25483 0.45254
 H1100 H 0.60804 0.25626 0.42391
 H1101 H 0.63212 0.23863 0.40761
 H1102 H 0.66061 0.24010 0.38019
 H1103 H 0.63355 0.24660 0.28920
 H1104 H 0.60503 0.24648 0.31697
 H1105 H 0.65889 0.26399 0.28067
 H1106 H 0.68774 0.26544 0.25402
 H1107 H 0.70871 0.22633 0.32032
 H1108 H 0.67970 0.22426 0.34610
 C1109 C 0.90055 0.25775 0.88099
 C1110 C 0.90966 0.24186 0.88834
 C1111 C 0.92597 0.24220 0.90443
 C1112 C 0.93353 0.25845 0.91379
 C1113 C 0.92446 0.27435 0.90630
 C1114 C 0.90822 0.27401 0.89001
 C1115 C 0.88304 0.25736 0.86436
 C1116 C 0.86945 0.26942 0.87287
 C1117 C 0.85291 0.26889 0.85761
 C1118 C 0.84948 0.25620 0.83361
 C1119 C 0.86309 0.24418 0.82500
 C1120 C 0.87968 0.24479 0.84010
 C1121 C 0.83172 0.25536 0.81791
 C1122 C 0.83019 0.25131 0.78499
 C1123 C 0.81348 0.25017 0.77044
 C1124 C 0.79792 0.25319 0.78841
 C1125 C 0.79943 0.25741 0.82122
 C1126 C 0.81612 0.25841 0.83583
 H1127 H 0.90406 0.22909 0.88212
 H1128 H 0.93269 0.22972 0.90941
 H1129 H 0.92978 0.28709 0.91348
 H1130 H 0.90169 0.28651 0.88436
 H1131 H 0.87149 0.27913 0.89172
 H1132 H 0.84282 0.27851 0.86455
 H1133 H 0.86086 0.23409 0.80690
 H1134 H 0.88991 0.23545 0.83264
 H1135 H 0.84193 0.24918 0.77035
 H1136 H 0.81277 0.24700 0.74506
 H1137 H 0.78768 0.25970 0.83578
 H1138 H 0.81678 0.26125 0.86133
 C1139 C 0.40095 0.75677 0.37580
 C1140 C 0.40983 0.74095 0.38446
 C1141 C 0.42614 0.74147 0.40056
 C1142 C 0.43393 0.75782 0.40856
 C1143 C 0.42509 0.77364 0.39975
 C1144 C 0.40884 0.77312 0.38349
 C1145 C 0.38345 0.75622 0.35916
 C1146 C 0.37001 0.76865 0.36674
 C1147 C 0.35350 0.76804 0.35140
 C1148 C 0.34995 0.75492 0.32822
 C1149 C 0.36340 0.74252 0.32057
 C1150 C 0.37995 0.74320 0.33579
 C1151 C 0.33224 0.75405 0.31236
 C1152 C 0.33077 0.74950 0.27965
 C1153 C 0.31410 0.74841 0.26493
 C1154 C 0.29851 0.75198 0.28251
 C1155 C 0.29996 0.75669 0.31512
 C1156 C 0.31661 0.75765 0.32989
 H1157 H 0.40405 0.72812 0.37926
 H1158 H 0.43268 0.72903 0.40661
 H1159 H 0.43059 0.78647 0.40588
 H1160 H 0.40250 0.78556 0.37681
 H1161 H 0.37215 0.77872 0.38491
 H1162 H 0.34353 0.77793 0.35758
 H1163 H 0.36106 0.73211 0.30313
 H1164 H 0.39006 0.73356 0.32906
 H1165 H 0.34254 0.74693 0.26530
 H1166 H 0.31344 0.74485 0.23971
 H1167 H 0.28820 0.75941 0.32939
 H1168 H 0.31722 0.76091 0.35524
 C1169 C 0.26408 0.89845 0.11239
 C1170 C 0.26898 0.90017 0.07989
 C1171 C 0.26925 0.91687 0.06514
 C1172 C 0.26468 0.93227 0.08255
 C1173 C 0.26001 0.93059 0.11517
 C1174 C 0.25970 0.91388 0.12991
 C1175 C 0.26323 0.88063 0.12779
 C1176 C 0.26885 0.87814 0.15976
 C1177 C 0.26775 0.86142 0.17434
 C1178 C 0.26106 0.84680 0.15724
 C1179 C 0.25553 0.84925 0.12525
 C1180 C 0.25656 0.86598 0.11071
 C1181 C 0.25972 0.82907 0.17275
 C1182 C 0.26441 0.81358 0.15575
 C1183 C 0.26289 0.79686 0.17015
 C1184 C 0.25655 0.79525 0.20184
 C1185 C 0.25192 0.81075 0.21890
 C1186 C 0.25353 0.82749 0.20453
 H1187 H 0.27264 0.88858 0.06584
 H1188 H 0.27271 0.91768 0.03989
 H1189 H 0.25661 0.94221 0.12934
 H1190 H 0.25569 0.91300 0.15488
 H1191 H 0.27430 0.88908 0.17341
 H1192 H 0.27234 0.85987 0.19888
 H1193 H 0.25006 0.83830 0.11164
 H1194 H 0.25182 0.86750 0.08626
 H1195 H 0.26942 0.81441 0.13136
 H1196 H 0.26660 0.78518 0.15636
 H1197 H 0.24699 0.80997 0.24334
 H1198 H 0.24963 0.83918 0.21810
 C1199 C 0.76111 0.39961 0.61820
 C1200 C 0.77723 0.40877 0.61460
 C1201 C 0.77766 0.42523 0.59891
 C1202 C 0.76198 0.43290 0.58657
 C1203 C 0.74588 0.42374 0.59016
 C1204 C 0.74546 0.40728 0.60575
 C1205 C 0.76059 0.38206 0.63466
 C1206 C 0.74638 0.37776 0.65517
 C1207 C 0.74565 0.36112 0.67007
 C1208 C 0.75913 0.34837 0.66490
 C1209 C 0.77343 0.35273 0.64464
 C1210 C 0.77416 0.36937 0.62969
 C1211 C 0.75811 0.33053 0.68022
 C1212 C 0.76307 0.31517 0.66305
 C1213 C 0.76175 0.29836 0.67720
 C1214 C 0.75540 0.29652 0.70884
 C1215 C 0.75055 0.31188 0.72610
 C1216 C 0.75191 0.32869 0.71197
 H1217 H 0.78948 0.40334 0.62432
 H1218 H 0.79022 0.43209 0.59684
 H1219 H 0.73364 0.42916 0.58039
 H1220 H 0.73289 0.40042 0.60756
 H1221 H 0.73584 0.38731 0.65982
 H1222 H 0.73435 0.35812 0.68524
 H1223 H 0.78413 0.34329 0.64045
 H1224 H 0.78519 0.37220 0.61380
 H1225 H 0.76765 0.31610 0.63841
 H1226 H 0.76554 0.28679 0.66321
 H1227 H 0.74570 0.31093 0.75057
 H1228 H 0.74823 0.34028 0.72601
 C1229 C 0.73835 0.10069 0.11376
 C1230 C 0.72269 0.09061 0.11355
 C1231 C 0.72237 0.07393 0.09868
 C1232 C 0.73776 0.06693 0.08407
 C1233 C 0.75344 0.07697 0.08450
 C1234 C 0.75372 0.09370 0.09907
 C1235 C 0.73870 0.11845 0.12921
 C1236 C 0.74698 0.13282 0.11377
 C1237 C 0.74750 0.14953 0.12843
 C1238 C 0.73989 0.15218 0.15895
 C1239 C 0.73159 0.13782 0.17438
 C1240 C 0.73092 0.12114 0.15958
 C1241 C 0.74081 0.16983 0.17476
 C1242 C 0.74546 0.17119 0.20739
 C1243 C 0.74679 0.18785 0.22209
 C1244 C 0.74332 0.20348 0.20453
 C1245 C 0.73845 0.20209 0.17198
 C1246 C 0.73729 0.18544 0.15722
 H1247 H 0.71063 0.09574 0.12450
 H1248 H 0.71014 0.06641 0.09885
 H1249 H 0.76544 0.07196 0.07313
 H1250 H 0.76600 0.10113 0.09913
 H1251 H 0.75295 0.13115 0.09023
 H1252 H 0.75410 0.16033 0.11612
 H1253 H 0.72550 0.13954 0.19781
 H1254 H 0.72457 0.11026 0.17210
 H1255 H 0.74841 0.15937 0.22139
 H1256 H 0.75055 0.18847 0.24722
 H1257 H 0.73569 0.21388 0.15780
 H1258 H 0.73350 0.18475 0.13211
 C1259 C 0.23913 0.60157 0.61200
 C1260 C 0.25472 0.59387 0.59931
 C1261 C 0.25426 0.57724 0.58437
 C1262 C 0.23820 0.56793 0.58167
 C1263 C 0.22259 0.57564 0.59420
 C1264 C 0.22305 0.59227 0.60924
 C1265 C 0.23968 0.61924 0.62802
 C1266 C 0.22596 0.63178 0.62330
 C1267 C 0.22660 0.64846 0.63813
 C1268 C 0.24099 0.65299 0.65803
 C1269 C 0.25468 0.64042 0.66283
 C1270 C 0.25402 0.62375 0.64804
 C1271 C 0.24181 0.67077 0.67358
 C1272 C 0.24814 0.67253 0.70524
 C1273 C 0.24925 0.68927 0.71967
 C1274 C 0.24401 0.70466 0.70281
 C1275 C 0.23754 0.70290 0.67126
 C1276 C 0.23647 0.68615 0.65680
 H1277 H 0.26725 0.60083 0.60050
 H1278 H 0.26645 0.57179 0.57443
 H1279 H 0.21006 0.56868 0.59282
 H1280 H 0.21085 0.59771 0.61917
 H1281 H 0.21481 0.62880 0.60777
 H1282 H 0.21576 0.65776 0.63421
 H1283 H 0.26605 0.64355 0.67771
 H1284 H 0.26470 0.61432 0.65249
 H1285 H 0.25211 0.66093 0.71901
 H1286 H 0.25422 0.69015 0.74407
 H1287 H 0.23345 0.71449 0.65757
 H1288 H 0.23175 0.68528 0.63224
 C1289 C 0.90094 0.74168 0.11862
 C1290 C 0.90909 0.72541 0.11039
 C1291 C 0.92534 0.72506 0.09407
 C1292 C 0.93392 0.74098 0.08573
 C1293 C 0.92585 0.75724 0.09423
 C1294 C 0.90955 0.75760 0.11039
 C1295 C 0.88346 0.74206 0.13539
 C1296 C 0.87982 0.75486 0.15920
 C1297 C 0.86328 0.75541 0.17454
 C1298 C 0.85000 0.74309 0.16660
 C1299 C 0.85371 0.73019 0.14300
 C1300 C 0.87021 0.72971 0.12752
 C1301 C 0.83231 0.74384 0.18259
 C1302 C 0.81670 0.74048 0.16504
 C1303 C 0.80005 0.74144 0.17991
 C1304 C 0.79860 0.74591 0.21263
 C1305 C 0.81417 0.74920 0.23025
 C1306 C 0.83084 0.74812 0.21543
 H1307 H 0.90296 0.71291 0.11672
 H1308 H 0.93106 0.71230 0.08755
 H1309 H 0.93219 0.76974 0.08855
 H1310 H 0.90356 0.77036 0.11600
 H1311 H 0.88980 0.76443 0.16615
 H1312 H 0.86082 0.76566 0.19232
 H1313 H 0.84388 0.72036 0.13657
 H1314 H 0.87247 0.71981 0.10903
 H1315 H 0.81732 0.73743 0.13960
 H1316 H 0.78830 0.73893 0.16562
 H1317 H 0.81351 0.75258 0.25556
 H1318 H 0.84259 0.75049 0.22979
 C1319 C 0.40058 0.24270 0.62251
 C1320 C 0.40881 0.22640 0.61470
 C1321 C 0.42510 0.22600 0.59852
 C1322 C 0.43363 0.24189 0.58989
 C1323 C 0.42549 0.25818 0.59796
 C1324 C 0.40914 0.25858 0.61399
 C1325 C 0.38305 0.24312 0.63913
 C1326 C 0.37930 0.25604 0.66267
 C1327 C 0.36272 0.25662 0.67788
 C1328 C 0.34950 0.24422 0.67004
 C1329 C 0.35331 0.23120 0.64670
 C1330 C 0.36985 0.23069 0.63137
 C1331 C 0.33176 0.24501 0.68584
 C1332 C 0.31621 0.24154 0.66818
 C1333 C 0.29952 0.24253 0.68287
 C1334 C 0.29794 0.24712 0.71552
 C1335 C 0.31346 0.25052 0.73325
 C1336 C 0.33017 0.24942 0.71861
 H1337 H 0.40270 0.21392 0.62126
 H1338 H 0.43088 0.21322 0.59234
 H1339 H 0.43179 0.27067 0.59203
 H1340 H 0.40309 0.27137 0.61928
 H1341 H 0.38923 0.26568 0.66952
 H1342 H 0.36018 0.26695 0.69545
 H1343 H 0.34352 0.22131 0.64036
 H1344 H 0.37220 0.22069 0.61309
 H1345 H 0.31691 0.23839 0.64279
 H1346 H 0.28781 0.23994 0.66848
 H1347 H 0.31270 0.25400 0.75850
 H1348 H 0.34188 0.25188 0.73305
 C1349 C 0.09801 0.25675 0.12427
 C1350 C 0.08985 0.27303 0.11610
 C1351 C 0.07362 0.27339 0.09977
 C1352 C 0.06505 0.25749 0.09140
 C1353 C 0.07311 0.24121 0.09987
 C1354 C 0.08941 0.24084 0.11602
 C1355 C 0.11551 0.25636 0.14094
 C1356 C 0.11922 0.24350 0.16465
 C1357 C 0.13580 0.24293 0.17981
 C1358 C 0.14905 0.25527 0.17178
 C1359 C 0.14527 0.26824 0.14833
 C1360 C 0.12873 0.26874 0.13303
 C1361 C 0.16683 0.25444 0.18743
 C1362 C 0.18233 0.25786 0.16959
 C1363 C 0.19906 0.25684 0.18410
 C1364 C 0.20071 0.25224 0.21675
 C1365 C 0.18524 0.24888 0.23466
 C1366 C 0.16849 0.25003 0.22020
 H1367 H 0.09598 0.28553 0.12245
 H1368 H 0.06791 0.28616 0.09327
 H1369 H 0.06678 0.22872 0.09416
 H1370 H 0.09540 0.22807 0.12159
 H1371 H 0.10927 0.23391 0.17163
 H1372 H 0.13833 0.23263 0.19748
 H1373 H 0.15507 0.27809 0.14186
 H1374 H 0.12642 0.27868 0.11461
 H1375 H 0.18158 0.26100 0.14419
 H1376 H 0.21073 0.25939 0.16958
 H1377 H 0.18607 0.24540 0.25991
 H1378 H 0.15682 0.24760 0.23477
 C1379 C 0.59860 0.75852 0.61759
 C1380 C 0.58353 0.76638 0.63191
 C1381 C 0.56719 0.76669 0.61585
 C1382 C 0.56555 0.75931 0.58492
 C1383 C 0.58064 0.75149 0.57057
 C1384 C 0.59691 0.75100 0.58676
 C1385 C 0.61603 0.75818 0.63461
 C1386 C 0.63200 0.76009 0.61737
 C1387 C 0.64838 0.75950 0.63319
 C1388 C 0.64925 0.75722 0.66675
 C1389 C 0.63327 0.75550 0.68405
 C1390 C 0.61688 0.75588 0.66817
 C1391 C 0.66675 0.75646 0.68347
 C1392 C 0.66948 0.74501 0.70985
 C1393 C 0.68606 0.74396 0.72496
 C1394 C 0.70037 0.75416 0.71379
 C1395 C 0.69765 0.76571 0.68765
 C1396 C 0.68102 0.76694 0.67282
 H1397 H 0.58436 0.77251 0.65542
 H1398 H 0.55582 0.77262 0.62784
 H1399 H 0.57996 0.74592 0.54660
 H1400 H 0.60813 0.74459 0.57515
 H1401 H 0.63188 0.76216 0.59159
 H1402 H 0.66039 0.76060 0.61897
 H1403 H 0.63339 0.75396 0.70995
 H1404 H 0.60489 0.75415 0.68220
 H1405 H 0.65891 0.73652 0.71841
 H1406 H 0.68780 0.73484 0.74493
 H1407 H 0.70838 0.77387 0.67869
 H1408 H 0.67933 0.77619 0.65306
   
