data_POSCAR
  _audit_creation_date              2014-09-24
  _audit_creation_method            'ToBaCCo'
  _symmetry_space_group_name_H-M    'P1'
  _symmetry_Int_Tables_number       1
  _symmetry_cell_setting            triclinic
  loop_
  _symmetry_equiv_pos_as_xyz
 x,y,z
_cell_length_a 63.3201
_cell_length_b 63.3204
_cell_length_c 63.3157
_cell_angle_alpha 89.985500
_cell_angle_beta 90.012000
_cell_angle_gamma 89.985600
loop_
  _atom_site_label
  _atom_site_type_symbol
  _atom_site_fract_x
  _atom_site_fract_y
  _atom_site_fract_z
C1 C 0.35880 1.35962 0.33139
 C2 C 0.36777 1.34154 0.34077
 C3 C 0.35884 1.33236 0.35888
 C4 C 0.34072 1.34153 0.36780
 C5 C 0.33134 1.35960 0.35883
 C6 C 0.34062 1.36852 0.34066
 H7 H 0.38171 1.33442 0.33387
 H8 H 0.33381 1.33439 0.38172
 H9 H 0.33354 1.38240 0.33358
 C10 C 0.35866 0.85950 0.83220
 C11 C 0.34052 0.86843 0.84137
 C12 C 0.33118 0.85947 0.85949
 C13 C 0.34051 0.84134 0.86842
 C14 C 0.35866 0.83217 0.85950
 C15 C 0.36762 0.84141 0.84143
 H16 H 0.33358 0.88233 0.83421
 H17 H 0.33357 0.83417 0.88231
 H18 H 0.38154 0.83440 0.83441
 C19 C 0.85874 1.35966 0.83220
 C20 C 0.86772 1.34161 0.84147
 C21 C 0.85878 1.33239 0.85956
 C22 C 0.84063 1.34154 0.86846
 C23 C 0.83125 1.35964 0.85949
 C24 C 0.84057 1.36857 0.84134
 H25 H 0.88166 1.33461 0.83447
 H26 H 0.83370 1.33438 0.88237
 H27 H 0.83360 1.38244 0.83415
 C28 C 0.86017 0.86020 0.33291
 C29 C 0.84205 0.86913 0.34213
 C30 C 0.83283 0.86015 0.36021
 C31 C 0.84205 0.84204 0.36916
 C32 C 0.86016 0.83284 0.36021
 C33 C 0.86912 0.84209 0.34212
 H34 H 0.83500 0.88302 0.33508
 H35 H 0.83500 0.83497 0.38303
 H36 H 0.88302 0.83505 0.33508
 C37 C 0.64023 0.64033 0.33161
 C38 C 0.65836 0.63138 0.34093
 C39 C 0.66756 0.64030 0.35906
 C40 C 0.65835 0.65839 0.36801
 C41 C 0.64027 0.66764 0.35907
 C42 C 0.63131 0.65847 0.34095
 H43 H 0.66550 0.61747 0.33399
 H44 H 0.66540 0.66540 0.38192
 H45 H 0.61741 0.66564 0.33401
 C46 C 0.64099 0.14037 0.83241
 C47 C 0.65915 0.13145 0.84156
 C48 C 0.66847 0.14037 0.85971
 C49 C 0.65911 0.15846 0.86868
 C50 C 0.64095 0.16763 0.85977
 C51 C 0.63201 0.15842 0.84168
 H52 H 0.66611 0.11758 0.83438
 H53 H 0.66604 0.16561 0.88259
 H54 H 0.61807 0.16543 0.83468
 C55 C 1.13967 0.63967 0.83288
 C56 C 1.13071 0.65777 0.84208
 C57 C 1.13965 0.66699 0.86019
 C58 C 1.15774 0.65777 0.86917
 C59 C 1.16697 0.63966 0.86023
 C60 C 1.15776 0.63071 0.84212
 H61 H 1.11683 0.66483 0.83501
 H62 H 1.16478 0.66482 0.88306
 H63 H 1.16482 0.61682 0.83508
 C64 C 1.14157 0.14075 0.33090
 C65 C 1.13260 0.15883 0.34026
 C66 C 1.14152 0.16800 0.35839
 C67 C 1.15964 0.15882 0.36732
 C68 C 1.16901 0.14074 0.35837
 C69 C 1.15974 0.13183 0.34019
 H70 H 1.11867 0.16596 0.33335
 H71 H 1.16653 0.16595 0.38126
 H72 H 1.16682 0.11795 0.33313
 C73 C 0.64127 1.35961 0.66790
 C74 C 0.63227 1.34158 0.65863
 C75 C 0.64118 1.33236 0.64054
 C76 C 0.65934 1.34150 0.63161
 C77 C 0.66873 1.35958 0.64058
 C78 C 0.65943 1.36851 0.65874
 H79 H 0.61833 1.33458 0.66564
 H80 H 0.66625 1.33435 0.61770
 H81 H 0.66641 1.38237 0.66592
 C82 C 0.63980 0.86020 1.16724
 C83 C 0.65791 0.86915 1.15802
 C84 C 0.66714 0.86018 1.13993
 C85 C 0.65793 0.84207 1.13099
 C86 C 0.63983 0.83286 1.13994
 C87 C 0.63086 0.84209 1.15803
 H88 H 0.66495 0.88304 1.16506
 H89 H 0.66499 0.83501 1.11712
 H90 H 0.61697 0.83505 1.16508
 C91 C 1.14154 1.35918 1.16887
 C92 C 1.15971 1.36809 1.15959
 C93 C 1.16900 1.35918 1.14143
 C94 C 1.15965 1.34109 1.13247
 C95 C 1.14153 1.33191 1.14139
 C96 C 1.13260 1.34109 1.15951
 H97 H 1.16677 1.38198 1.16666
 H98 H 1.16656 1.33397 1.11855
 H99 H 1.11867 1.33397 1.16641
 C100 C 1.13974 0.86009 0.66709
 C101 C 1.15782 0.86907 0.65786
 C102 C 1.16706 0.86012 0.63977
 C103 C 1.15787 0.84200 0.63083
 C104 C 1.13978 0.83276 0.63978
 C105 C 1.13082 0.84198 0.65788
 H106 H 1.16485 0.88297 0.66491
 H107 H 1.16493 0.83495 0.61694
 H108 H 1.11694 0.83491 0.66494
 C109 C 0.35862 0.64061 0.66792
 C110 C 0.36756 0.65869 0.65869
 C111 C 0.35860 0.66793 0.64061
 C112 C 0.34046 0.65876 0.63168
 C113 C 0.33114 0.64062 0.64062
 C114 C 0.34048 0.63168 0.65874
 H115 H 0.38148 0.66571 0.66571
 H116 H 0.33351 0.66592 0.61779
 H117 H 0.33355 0.61778 0.66590
 C118 C 0.36069 0.13926 1.16658
 C119 C 0.36965 0.15735 1.15734
 C120 C 0.36070 0.16657 1.13924
 C121 C 0.34259 0.15737 1.13029
 C122 C 0.33336 0.13928 1.13925
 C123 C 0.34258 0.13032 1.15736
 H124 H 0.38354 0.16439 1.16439
 H125 H 0.33554 0.16442 1.11640
 H126 H 0.33551 0.11645 1.16443
 C127 C 0.85968 0.64032 1.16842
 C128 C 0.86860 0.65845 1.15909
 C129 C 0.85965 0.66765 1.14097
 C130 C 0.84156 0.65843 1.13203
 C131 C 0.83234 0.64034 1.14098
 C132 C 0.84154 0.63139 1.15910
 H133 H 0.88250 0.66560 1.16603
 H134 H 0.83452 0.66546 1.11812
 H135 H 0.83440 0.61749 1.16603
 C136 C 0.85811 0.14112 0.66922
 C137 C 0.86706 0.15920 0.65985
 C138 C 0.85813 0.16839 0.64173
 C139 C 0.84001 0.15922 0.63281
 C140 C 0.83064 0.14114 0.64177
 C141 C 0.83993 0.13222 0.65995
 H142 H 0.88100 0.16632 0.66675
 H143 H 0.83310 0.16635 0.61888
 H144 H 0.83286 0.11834 0.66702
 C145 C 1.35997 0.35922 0.66750
 C146 C 1.34191 0.36821 0.65824
 C147 C 1.33270 0.35927 0.64015
 C148 C 1.34187 0.34114 0.63122
 C149 C 1.35998 0.33177 0.64019
 C150 C 1.36890 0.34108 0.65834
 H151 H 1.33489 0.38212 0.66526
 H152 H 1.33473 0.33421 0.61731
 H153 H 1.38277 0.33412 0.66552
 C154 C 1.35968 0.85892 1.16772
 C155 C 1.34162 0.86789 1.15844
 C156 C 1.33239 0.85892 1.14038
 C157 C 1.34154 0.84075 1.13149
 C158 C 1.35965 0.83140 1.14047
 C159 C 1.36859 0.84075 1.15859
 H160 H 1.33462 0.88183 1.16543
 H161 H 1.33438 0.83380 1.11761
 H162 H 1.38247 0.83380 1.16578
 C163 C 0.86008 0.35918 1.16721
 C164 C 0.84199 0.36814 1.15800
 C165 C 0.83271 0.35917 1.13996
 C166 C 0.84186 0.34101 1.13103
 C167 C 0.86001 0.33168 1.13995
 C168 C 0.86899 0.34103 1.15804
 H169 H 0.83499 0.38207 1.16502
 H170 H 0.83467 0.33406 1.11717
 H171 H 0.88290 0.33409 1.16519
 C172 C 0.86007 0.85995 0.66719
 C173 C 0.86900 0.84183 0.65798
 C174 C 0.86003 0.83261 0.63988
 C175 C 0.84194 0.84186 0.63092
 C176 C 0.83274 0.85997 0.63986
 C177 C 0.84198 0.86892 0.65795
 H178 H 0.88288 0.83476 0.66504
 H179 H 0.83488 0.83481 0.61703
 H180 H 0.83494 0.88282 0.66499
 C181 C 0.63996 0.63989 0.66738
 C182 C 0.63099 0.65800 0.65816
 C183 C 0.63993 0.66723 0.64006
 C184 C 0.65802 0.65801 0.63109
 C185 C 0.66726 0.63991 0.64004
 C186 C 0.65806 0.63095 0.65815
 H187 H 0.61711 0.66504 0.66522
 H188 H 0.66506 0.66507 0.61720
 H189 H 0.66512 0.61705 0.66519
 C190 C 0.64028 1.14094 1.16763
 C191 C 0.63134 1.15909 1.15846
 C192 C 0.64029 1.16844 1.14035
 C193 C 0.65842 1.15912 1.13141
 C194 C 0.66760 1.14097 1.14033
 C195 C 0.65836 1.13200 1.15839
 H196 H 0.61745 1.16602 1.16562
 H197 H 0.66559 1.16608 1.11753
 H198 H 0.66538 1.11807 1.16541
 C199 C 0.14086 0.64161 1.16899
 C200 C 0.13197 0.65981 1.15972
 C201 C 0.14090 0.66909 1.14156
 C202 C 0.15898 0.65973 1.13261
 C203 C 0.16814 0.64159 1.14153
 C204 C 0.15895 0.63265 1.15963
 H205 H 0.11808 0.66687 1.16678
 H206 H 0.16612 0.66664 1.11869
 H207 H 0.16606 0.61871 1.16653
 C208 C 0.14003 1.14083 0.66738
 C209 C 0.13110 1.15897 0.65820
 C210 C 0.14003 1.16830 0.64007
 C211 C 0.15814 1.15894 0.63112
 C212 C 0.16731 1.14080 0.64005
 C213 C 0.15809 1.13185 0.65813
 H214 H 0.11722 1.16593 0.66537
 H215 H 0.16529 1.16588 0.61722
 H216 H 0.16511 1.11793 0.66516
 C217 C 1.35984 0.64101 0.33262
 C218 C 1.36872 0.65918 0.34176
 C219 C 1.35976 0.66853 0.35986
 C220 C 1.34165 0.65917 0.36882
 C221 C 1.33253 0.64100 0.35992
 C222 C 1.34179 0.63203 0.34187
 H223 H 1.38260 0.66614 0.33458
 H224 H 1.33447 0.66612 0.38270
 H225 H 1.33480 0.61808 0.33488
 C226 C 1.35951 1.14130 0.83227
 C227 C 1.34145 1.13233 0.84150
 C228 C 1.33221 1.14126 0.85958
 C229 C 1.34137 1.15940 0.86852
 C230 C 1.35948 1.16876 0.85959
 C231 C 1.36843 1.15944 0.84145
 H232 H 1.33445 1.11841 0.83447
 H233 H 1.33420 1.16632 0.88242
 H234 H 1.38231 1.16640 0.83429
 C235 C 0.85987 0.63999 0.83254
 C236 C 0.86883 0.65809 0.84175
 C237 C 0.85989 0.66731 0.85986
 C238 C 0.84180 0.65809 0.86883
 C239 C 0.83258 0.63998 0.85989
 C240 C 0.84178 0.63103 0.84178
 H241 H 0.88270 0.66515 0.83468
 H242 H 0.83477 0.66514 0.88272
 H243 H 0.83473 0.61714 0.83474
 C244 C 0.86058 1.13942 0.33323
 C245 C 0.84246 1.13049 0.34244
 C246 C 0.83323 1.13947 0.36053
 C247 C 0.84247 1.15756 0.36948
 C248 C 0.86059 1.16675 0.36053
 C249 C 0.86954 1.15751 0.34245
 H250 H 0.83540 1.11662 0.33538
 H251 H 0.83542 1.16463 0.38335
 H252 H 0.88344 1.16454 0.33540
 C253 C 0.64080 0.35851 0.33122
 C254 C 0.65892 0.36744 0.34054
 C255 C 0.66813 0.35850 0.35864
 C256 C 0.65896 0.34039 0.36759
 C257 C 0.64084 0.33106 0.35868
 C258 C 0.63189 0.34036 0.34052
 H259 H 0.66604 0.38136 0.33362
 H260 H 0.66611 0.33347 0.38150
 H261 H 0.61798 0.33331 0.33349
 C262 C 0.63985 0.86005 0.83284
 C263 C 0.65794 0.86900 0.84206
 C264 C 0.66717 0.86005 0.86017
 C265 C 0.65796 0.84194 0.86912
 C266 C 0.63987 0.83272 0.86016
 C267 C 0.63091 0.84194 0.84206
 H268 H 0.66498 0.88290 0.83501
 H269 H 0.66502 0.83489 0.88301
 H270 H 0.61702 0.83489 0.83501
 C271 C 0.14031 0.35969 0.83143
 C272 C 0.15843 0.36863 0.84079
 C273 C 0.16756 0.35972 0.85896
 C274 C 0.15831 0.34166 0.86792
 C275 C 0.14024 0.33242 0.85894
 C276 C 0.13135 0.34158 0.84077
 H277 H 0.16560 0.38251 0.83384
 H278 H 0.16530 0.33465 0.88186
 H279 H 0.11746 0.33442 0.83382
 C280 C 0.14034 0.85962 0.33149
 C281 C 0.13142 0.84147 0.34080
 C282 C 0.14035 0.83229 0.35894
 C283 C 0.15841 0.84154 0.36792
 C284 C 0.16762 0.85963 0.35899
 C285 C 0.15844 0.86857 0.34085
 H286 H 0.11754 0.83430 0.33384
 H287 H 0.16543 0.83451 0.38184
 H288 H 0.16558 0.88248 0.33392
 O289 O 0.97936 0.92389 0.89490
 O290 O 0.97934 0.89935 0.87019
 C291 C 0.97215 0.91652 0.87768
 C292 C 0.95494 0.92784 0.86657
 C293 C 0.94792 0.92103 0.84666
 H294 H 0.95564 0.90774 0.83915
 O295 O 1.02044 1.07627 0.89474
 O296 O 1.02046 1.10083 0.87004
 C297 C 1.02765 1.08365 0.87753
 C298 C 1.04489 1.07236 0.86645
 C299 C 1.05195 1.07921 0.84657
 H300 H 1.04422 1.09249 0.83904
 O301 O 0.89483 0.97955 0.92381
 O302 O 0.87010 0.97949 0.89928
 C303 C 0.87762 0.97232 0.91646
 C304 C 0.86655 0.95510 0.92779
 C305 C 0.84663 0.94807 0.92100
 H306 H 0.83908 0.95579 0.90773
 O307 O 1.10515 1.02069 0.92374
 O308 O 1.12983 1.02071 0.89918
 C309 C 1.12235 1.02790 0.91635
 C310 C 1.13343 1.04514 0.92764
 C311 C 1.15330 1.05224 0.92077
 H312 H 1.16082 1.04455 0.90748
 O313 O 0.92382 0.89485 0.97948
 O314 O 0.89926 0.87017 0.97947
 C315 C 0.91643 0.87765 0.97228
 C316 C 0.92772 0.86656 0.95504
 C317 C 0.92090 0.84666 0.94800
 H318 H 0.90762 0.83913 0.95572
 O319 O 1.07611 1.10528 0.97935
 O320 O 1.10066 1.12997 0.97930
 C321 C 1.08348 1.12248 0.97212
 C322 C 1.07218 1.13356 0.95488
 C323 C 1.07902 1.15344 0.94779
 H324 H 1.09231 1.16096 0.95548
 O325 O 0.92363 1.02077 0.89478
 O326 O 0.89903 1.02075 0.87013
 C327 C 0.91620 1.02796 0.87758
 C328 C 0.92744 1.04522 0.86647
 C329 C 0.92043 1.05240 0.84667
 H330 H 0.90707 1.04475 0.83922
 O331 O 1.07620 0.97951 0.89484
 O332 O 1.10074 0.97948 0.87012
 C333 C 1.08356 0.97231 0.87762
 C334 C 1.07224 0.95510 0.86653
 C335 C 1.07902 0.94808 0.84660
 H336 H 1.09230 0.95580 0.83907
 O337 O 1.02056 0.89493 0.92380
 O338 O 1.02057 0.87024 0.89924
 C339 C 1.02775 0.87772 0.91643
 C340 C 1.04495 0.86658 0.92774
 C341 C 1.05194 0.84666 0.92094
 H342 H 1.04421 0.83915 0.90766
 O343 O 0.97928 1.10523 0.92365
 O344 O 0.97925 1.12994 0.89911
 C345 C 0.97208 1.12245 0.91629
 C346 C 0.95488 1.13356 0.92762
 C347 C 0.94779 1.15344 0.92077
 H348 H 0.95545 1.16095 0.90745
 O349 O 0.89481 1.07636 0.97942
 O350 O 0.87013 1.10093 0.97942
 C351 C 0.87760 1.08375 0.97222
 C352 C 0.86649 1.07248 0.95499
 C353 C 0.84662 1.07936 0.94789
 H354 H 0.83913 1.09268 0.95557
 O355 O 1.10514 0.92373 0.97940
 O356 O 1.12985 0.89918 0.97934
 C357 C 1.12234 0.91636 0.97217
 C358 C 1.13341 0.92766 0.95492
 C359 C 1.15326 0.92076 0.94779
 H360 H 1.16076 0.90743 0.95545
 O361 O 0.97923 1.07637 0.89468
 O362 O 0.97921 1.10094 0.86999
 C363 C 0.97201 1.08377 0.87748
 C364 C 0.95472 1.07252 0.86641
 C365 C 0.94750 1.07948 0.84661
 H366 H 0.95513 1.09283 0.83912
 O367 O 1.02055 0.92387 0.89488
 O368 O 1.02057 0.89932 0.87017
 C369 C 1.02775 0.91650 0.87767
 C370 C 1.04495 0.92781 0.86655
 C371 C 1.05195 0.92101 0.84663
 H372 H 1.04422 0.90774 0.83911
 O373 O 1.10513 0.97948 0.92376
 O374 O 1.12981 0.97945 0.89919
 C375 C 1.12233 0.97226 0.91637
 C376 C 1.13341 0.95499 0.92764
 C377 C 1.15326 0.94787 0.92074
 H378 H 1.16076 0.95556 0.90742
 O379 O 0.89478 1.02075 0.92377
 O380 O 0.87004 1.02073 0.89925
 C381 C 0.87755 1.02793 0.91641
 C382 C 0.86647 1.04518 0.92770
 C383 C 0.84660 1.05228 0.92083
 H384 H 0.83909 1.04459 0.90752
 O385 O 0.92376 1.10525 0.97941
 O386 O 0.89921 1.12996 0.97942
 C387 C 0.91638 1.12247 0.97222
 C388 C 0.92765 1.13356 0.95497
 C389 C 0.92079 1.15345 0.94792
 H390 H 0.90750 1.16096 0.95564
 O391 O 1.07620 0.89483 0.97946
 O392 O 1.10076 0.87013 0.97941
 C393 C 1.08357 0.87762 0.97225
 C394 C 1.07224 0.86653 0.95504
 C395 C 1.07902 0.84661 0.94803
 H396 H 1.09228 0.83906 0.95575
 O397 O 1.07620 1.02070 0.89482
 O398 O 1.10075 1.02072 0.87011
 C399 C 1.08357 1.02790 0.87760
 C400 C 1.07225 1.04512 0.86649
 C401 C 1.07909 1.05219 0.84660
 H402 H 1.09240 1.04451 0.83909
 O403 O 0.92371 0.97957 0.89484
 O404 O 0.89912 0.97950 0.87017
 C405 C 0.91632 0.97235 0.87765
 C406 C 0.92764 0.95513 0.86655
 C407 C 0.92083 0.94810 0.84664
 H408 H 0.90754 0.95580 0.83910
 O409 O 1.02046 1.10521 0.92363
 O410 O 1.02048 1.12992 0.89908
 C411 C 1.02767 1.12242 0.91626
 C412 C 1.04489 1.13352 0.92756
 C413 C 1.05195 1.15340 0.92070
 H414 H 1.04425 1.16090 0.90738
 O415 O 0.97937 0.89492 0.92379
 O416 O 0.97935 0.87024 0.89922
 C417 C 0.97217 0.87771 0.91641
 C418 C 0.95497 0.86659 0.92772
 C419 C 0.94794 0.84670 0.92089
 H420 H 0.95563 0.83919 0.90758
 O421 O 1.10507 1.07639 0.97933
 O422 O 1.12977 1.10094 0.97929
 C423 C 1.12228 1.08376 0.97212
 C424 C 1.13338 1.07245 0.95490
 C425 C 1.15325 1.07933 0.94783
 H426 H 1.16074 1.09265 0.95551
 O427 O 0.89494 0.92382 0.97948
 O428 O 0.87023 0.89928 0.97947
 C429 C 0.87772 0.91646 0.97228
 C430 C 0.86660 0.92778 0.95507
 C431 C 0.84668 0.92098 0.94807
 H432 H 0.83917 0.90769 0.95579
 Cu433 Cu 0.99996 0.91186 0.91181
 Cu434 Cu 0.99996 0.88232 0.88223
 Cu435 Cu 0.99985 1.08830 0.91163
 Cu436 Cu 0.99986 1.11788 0.88208
 Cu437 Cu 0.91170 1.00016 0.91176
 Cu438 Cu 0.88209 1.00011 0.88224
 Cu439 Cu 1.08822 1.00010 0.91175
 Cu440 Cu 1.11776 1.00009 0.88218
 C441 C 0.94482 0.94502 0.87628
 H442 H 0.94998 0.95018 0.89176
 C443 C 0.93088 0.93106 0.83652
 C444 C 1.05502 1.05518 0.87618
 H445 H 1.04984 1.05000 0.89164
 C446 C 1.06903 1.06922 0.83647
 C447 C 0.87630 0.94498 0.94496
 H448 H 0.89178 0.95013 0.95010
 C449 C 0.83653 0.93102 0.93105
 C450 C 1.12371 1.05523 0.94483
 H451 H 1.10826 1.05003 0.95002
 C452 C 1.16338 1.06932 0.93078
 C453 C 0.94489 0.87629 0.94493
 H454 H 0.95005 0.89175 0.95010
 C455 C 0.93091 0.83656 0.93093
 C456 C 1.05498 1.12384 0.94479
 H457 H 1.04980 1.10839 0.94998
 C458 C 1.06900 1.16353 0.93070
 C459 C 0.94471 1.05526 0.87610
 H460 H 0.95001 1.04999 0.89149
 C461 C 0.93036 1.06952 0.83658
 C462 C 1.05507 0.94499 0.87626
 H463 H 1.04993 0.95014 0.89175
 C464 C 1.06897 0.93105 0.83649
 C465 C 1.05508 0.87628 0.94492
 H466 H 1.04995 0.89177 0.95007
 C467 C 1.06896 0.83650 0.93099
 C468 C 0.94483 1.12386 0.94485
 H469 H 0.95003 1.10840 0.95003
 C470 C 0.93075 1.16355 0.93083
 C471 C 0.87617 1.05525 0.94491
 H472 H 0.89162 1.05004 0.95011
 C473 C 0.83651 1.06936 0.93082
 C474 C 1.12373 0.94490 0.94486
 H475 H 1.10830 0.95013 0.95009
 C476 C 1.16335 0.93077 0.93071
 O477 O 1.02075 0.92376 1.10520
 O478 O 1.02076 0.89923 1.12993
 C479 C 1.02795 0.91640 1.12242
 C480 C 1.04518 0.92769 1.13352
 C481 C 1.05227 0.92082 1.15339
 H482 H 1.04460 0.90751 1.16089
 O483 O 0.97960 1.07629 1.10519
 O484 O 0.97955 1.10082 1.12991
 C485 C 0.97239 1.08363 1.12241
 C486 C 0.95520 1.07229 1.13351
 C487 C 0.94823 1.07903 1.15346
 H488 H 0.95597 1.09227 1.16102
 O489 O 0.89489 1.02070 1.07626
 O490 O 0.87023 1.02072 1.10085
 C491 C 0.87769 1.02791 1.08366
 C492 C 0.86658 1.04514 1.07237
 C493 C 0.84670 1.05223 1.07924
 H494 H 0.83920 1.04454 1.09255
 O495 O 1.10522 0.97941 1.07626
 O496 O 1.12997 0.97939 1.10078
 C497 C 1.12245 0.97220 1.08361
 C498 C 1.13353 0.95497 1.07231
 C499 C 1.15342 0.94788 1.07915
 H500 H 1.16094 0.95556 1.09245
 O501 O 1.07634 0.89476 1.02067
 O502 O 1.10092 0.87008 1.02066
 C503 C 1.08375 0.87756 1.02788
 C504 C 1.07251 0.86648 1.04516
 C505 C 1.07948 0.84667 1.05236
 H506 H 1.09282 0.83919 1.04472
 O507 O 0.92380 1.10522 1.02062
 O508 O 0.89926 1.12993 1.02066
 C509 C 0.91644 1.12243 1.02784
 C510 C 0.92775 1.13351 1.04507
 C511 C 0.92089 1.15340 1.05214
 H512 H 0.90759 1.16091 1.04444
 O513 O 0.92387 0.97948 1.10512
 O514 O 0.89934 0.97945 1.12984
 C515 C 0.91652 0.97227 1.12234
 C516 C 0.92784 0.95506 1.13344
 C517 C 0.92105 0.94806 1.15337
 H518 H 0.90777 0.95578 1.16089
 O519 O 1.07636 1.02065 1.10521
 O520 O 1.10097 1.02067 1.12985
 C521 C 1.08379 1.02787 1.12239
 C522 C 1.07255 1.04515 1.13348
 C523 C 1.07952 1.05230 1.15329
 H524 H 1.09286 1.04462 1.16076
 O525 O 0.97956 0.89483 1.07628
 O526 O 0.97952 0.87016 1.10087
 C527 C 0.97234 0.87764 1.08368
 C528 C 0.95510 0.86655 1.07240
 C529 C 0.94802 0.84668 1.07928
 H530 H 0.95572 0.83917 1.09258
 O531 O 1.02072 1.10530 1.07628
 O532 O 1.02072 1.12998 1.10085
 C533 C 1.02791 1.12251 1.08366
 C534 C 1.04513 1.13362 1.07237
 C535 C 1.05228 1.15345 1.07929
 H536 H 1.04464 1.16092 1.09264
 O537 O 0.89493 0.92380 1.02067
 O538 O 0.87022 0.89926 1.02070
 C539 C 0.87771 0.91644 1.02787
 C540 C 0.86661 0.92777 1.04507
 C541 C 0.84669 0.92097 1.05209
 H542 H 0.83917 0.90769 1.04438
 O543 O 1.10505 1.07633 1.02052
 O544 O 1.12977 1.10086 1.02052
 C545 C 1.12228 1.08368 1.02770
 C546 C 1.13342 1.07233 1.04488
 C547 C 1.15338 1.07908 1.05183
 H548 H 1.16091 1.09234 1.04409
 O549 O 1.02080 1.07637 1.10521
 O550 O 1.02080 1.10092 1.12992
 C551 C 1.02801 1.08375 1.12242
 C552 C 1.04528 1.07248 1.13349
 C553 C 1.05248 1.07942 1.15331
 H554 H 1.04485 1.09277 1.16079
 O555 O 0.97956 0.92379 1.10516
 O556 O 0.97953 0.89926 1.12989
 C557 C 0.97235 0.91644 1.12238
 C558 C 0.95514 0.92777 1.13347
 C559 C 0.94813 0.92098 1.15340
 H560 H 0.95585 0.90771 1.16094
 O561 O 1.10516 1.02060 1.07617
 O562 O 1.12992 1.02062 1.10067
 C563 C 1.12239 1.02780 1.08350
 C564 C 1.13347 1.04501 1.07215
 C565 C 1.15343 1.05197 1.07888
 H566 H 1.16100 1.04421 1.09212
 O567 O 0.89491 0.97950 1.07623
 O568 O 0.87024 0.97948 1.10081
 C569 C 0.87771 0.97230 1.08362
 C570 C 0.86660 0.95508 1.07232
 C571 C 0.84668 0.94807 1.07913
 H572 H 0.83916 0.95580 1.09240
 O573 O 1.07621 1.10535 1.02056
 O574 O 1.10079 1.13002 1.02055
 C575 C 1.08362 1.12254 1.02776
 C576 C 1.07237 1.13363 1.04503
 C577 C 1.07931 1.15346 1.05217
 H578 H 1.09262 1.16095 1.04448
 O579 O 0.92385 0.89487 1.02068
 O580 O 0.89929 0.87018 1.02071
 C581 C 0.91647 0.87766 1.02789
 C582 C 0.92778 0.86656 1.04513
 C583 C 0.92091 0.84669 1.05222
 H584 H 0.90759 0.83919 1.04455
 O585 O 1.07632 0.97944 1.10521
 O586 O 1.10092 0.97942 1.12986
 C587 C 1.08373 0.97223 1.12241
 C588 C 1.07246 0.95500 1.13352
 C589 C 1.07934 0.94791 1.15339
 H590 H 1.09265 0.95559 1.16089
 O591 O 0.92389 1.02066 1.10512
 O592 O 0.89937 1.02067 1.12985
 C593 C 0.91655 1.02785 1.12235
 C594 C 0.92789 1.04502 1.13347
 C595 C 0.92114 1.05197 1.15343
 H596 H 0.90788 1.04423 1.16096
 O597 O 0.97953 1.10523 1.07629
 O598 O 0.97947 1.12992 1.10085
 C599 C 0.97229 1.12243 1.08367
 C600 C 0.95504 1.13351 1.07237
 C601 C 0.94797 1.15340 1.07922
 H602 H 0.95566 1.16091 1.09252
 O603 O 1.02076 0.89481 1.07631
 O604 O 1.02077 0.87014 1.10090
 C605 C 1.02797 0.87761 1.08372
 C606 C 1.04523 0.86651 1.07247
 C607 C 1.05240 0.84670 1.07944
 H608 H 1.04476 0.83924 1.09279
 O609 O 1.10517 0.92377 1.02060
 O610 O 1.12988 0.89923 1.02058
 C611 C 1.12239 0.91640 1.02778
 C612 C 1.13350 0.92770 1.04500
 C613 C 1.15339 0.92083 1.05205
 H614 H 1.16088 0.90753 1.04435
 O615 O 0.89486 1.07633 1.02062
 O616 O 0.87017 1.10090 1.02066
 C617 C 0.87766 1.08371 1.02783
 C618 C 0.86657 1.07242 1.04507
 C619 C 0.84669 1.07929 1.05214
 H620 H 0.83919 1.09259 1.04444
 Cu621 Cu 1.00016 0.91175 1.08827
 Cu622 Cu 1.00014 0.88222 1.11787
 Cu623 Cu 1.00017 1.08834 1.08828
 Cu624 Cu 1.00013 1.11788 1.11786
 Cu625 Cu 0.91185 0.91179 1.00008
 Cu626 Cu 0.88227 0.88225 1.00009
 Cu627 Cu 1.08825 0.91173 1.00004
 Cu628 Cu 1.11783 0.88218 0.99999
 Cu629 Cu 0.91177 1.08833 1.00001
 Cu630 Cu 0.88222 1.11791 1.00004
 Cu631 Cu 1.08814 1.08838 0.99994
 Cu632 Cu 1.11772 1.11792 0.99991
 Cu633 Cu 0.91184 1.00009 1.08821
 Cu634 Cu 0.88232 1.00008 1.11782
 Cu635 Cu 1.08830 1.00002 1.08826
 Cu636 Cu 1.11792 1.00003 1.11776
 C637 C 1.05525 0.94491 1.12382
 H638 H 1.05004 0.95011 1.10838
 C639 C 1.06935 0.93083 1.16349
 C640 C 0.94505 1.05516 1.12375
 H641 H 0.95017 1.05006 1.10824
 C642 C 0.93121 1.06896 1.16359
 C643 C 0.87627 1.05522 1.05516
 H644 H 0.89172 1.05002 1.04996
 C645 C 0.83659 1.06929 1.06922
 C646 C 1.12381 0.94490 1.05510
 H647 H 1.10836 0.95010 1.04992
 C648 C 1.16351 0.93082 1.06912
 C649 C 1.05526 0.87616 1.05520
 H650 H 1.04999 0.89156 1.04992
 C651 C 1.06952 0.83662 1.06949
 C652 C 0.94495 1.12381 1.05517
 H653 H 0.95015 1.10836 1.04998
 C654 C 0.93090 1.16350 1.06920
 C655 C 0.94502 0.94494 1.12373
 H656 H 0.95016 0.95007 1.10824
 C657 C 0.93110 0.93103 1.16352
 C658 C 1.05530 1.05522 1.12382
 H659 H 1.05002 1.04996 1.10842
 C660 C 1.06959 1.06943 1.16337
 C661 C 0.94500 0.87625 1.05519
 H662 H 0.95020 0.89169 1.04999
 C663 C 0.93093 0.83658 1.06929
 C664 C 1.05516 1.12395 1.05511
 H665 H 1.04991 1.10854 1.04987
 C666 C 1.06936 1.16354 1.06929
 C667 C 0.87632 0.94495 1.05516
 H668 H 0.89180 0.95010 1.05001
 C669 C 0.83656 0.93103 1.06911
 C670 C 1.12370 1.05516 1.05502
 H671 H 1.10819 1.05006 1.04993
 C672 C 1.16356 1.06899 1.06881
 O673 O 1.07631 0.52039 0.60498
 O674 O 1.10085 0.52042 0.62971
 C675 C 1.08366 0.52759 0.62221
 C676 C 1.07232 0.54478 0.63331
 C677 C 1.07910 0.55179 0.65324
 H678 H 1.09238 0.54408 0.66078
 O679 O 0.92379 0.47917 0.60495
 O680 O 0.89924 0.47916 0.62965
 C681 C 0.91642 0.47197 0.62217
 C682 C 0.92772 0.45475 0.63329
 C683 C 0.92084 0.44768 0.65315
 H684 H 0.90752 0.45538 0.66063
 O685 O 1.02058 0.60494 0.57605
 O686 O 1.02058 0.62963 0.60060
 C687 C 1.02777 0.62215 0.58342
 C688 C 1.04497 0.63327 0.57211
 C689 C 1.05198 0.65319 0.57893
 H690 H 1.04426 0.66070 0.59221
 O691 O 0.97947 0.39465 0.57615
 O692 O 0.97948 0.36995 0.60071
 C693 C 0.97227 0.37744 0.58354
 C694 C 0.95500 0.36637 0.57228
 C695 C 0.94782 0.34656 0.57924
 H696 H 0.95546 0.33908 0.59260
 O697 O 1.10523 0.57613 0.52047
 O698 O 1.12989 0.60071 0.52050
 C699 C 1.12242 0.58353 0.52769
 C700 C 1.13352 0.57226 0.54495
 C701 C 1.15335 0.57919 0.55210
 H702 H 1.16083 0.59253 0.54443
 O703 O 0.89484 0.42357 0.52045
 O704 O 0.87019 0.39898 0.52041
 C705 C 0.87764 0.41616 0.52763
 C706 C 0.86652 0.42742 0.54487
 C707 C 0.84668 0.42051 0.55200
 H708 H 0.83919 0.40718 0.54433
 O709 O 0.97940 0.57599 0.60496
 O710 O 0.97937 0.60055 0.62966
 C711 C 0.97219 0.58337 0.62217
 C712 C 0.95497 0.57206 0.63327
 C713 C 0.94793 0.57889 0.65317
 H714 H 0.95564 0.59218 0.66069
 O715 O 1.02069 0.42358 0.60504
 O716 O 1.02075 0.39901 0.62973
 C717 C 1.02792 0.41620 0.62224
 C718 C 1.04517 0.42748 0.63332
 C719 C 1.05227 0.42061 0.65319
 H720 H 1.04458 0.40731 0.66071
 O721 O 1.10530 0.47927 0.57605
 O722 O 1.12999 0.47925 0.60061
 C723 C 1.12252 0.47207 0.58342
 C724 C 1.13363 0.45487 0.57211
 C725 C 1.15354 0.44783 0.57895
 H726 H 1.16105 0.45552 0.59225
 O727 O 0.89482 0.52034 0.57602
 O728 O 0.87013 0.52037 0.60058
 C729 C 0.87761 0.52755 0.58339
 C730 C 0.86650 0.54476 0.57207
 C731 C 0.84660 0.55181 0.57890
 H732 H 0.83909 0.54411 0.59219
 O733 O 0.92372 0.60488 0.52038
 O734 O 0.89917 0.62959 0.52037
 C735 C 0.91635 0.62210 0.52757
 C736 C 0.92765 0.63320 0.54479
 C737 C 0.92082 0.65311 0.55182
 H738 H 0.90753 0.66063 0.54411
 O739 O 1.07640 0.39474 0.52040
 O740 O 1.10097 0.37005 0.52045
 C741 C 1.08378 0.37754 0.52762
 C742 C 1.07247 0.36644 0.54486
 C743 C 1.07933 0.34656 0.55194
 H744 H 1.09263 0.33905 0.54426
 O745 O 0.92374 0.52036 0.60496
 O746 O 0.89919 0.52039 0.62966
 C747 C 0.91637 0.52757 0.62216
 C748 C 0.92768 0.54478 0.63326
 C749 C 0.92085 0.55183 0.65316
 H750 H 0.90756 0.54413 0.66068
 O751 O 1.07638 0.47920 0.60498
 O752 O 1.10094 0.47918 0.62969
 C753 C 1.08376 0.47199 0.62219
 C754 C 1.07248 0.45475 0.63329
 C755 C 1.07936 0.44767 0.65316
 H756 H 1.09267 0.45535 0.66066
 O757 O 1.02068 0.39472 0.57606
 O758 O 1.02074 0.37001 0.60061
 C759 C 1.02791 0.37751 0.58343
 C760 C 1.04515 0.36643 0.57213
 C761 C 1.05222 0.34655 0.57898
 H762 H 1.04452 0.33903 0.59227
 O763 O 0.97939 0.60490 0.57602
 O764 O 0.97935 0.62960 0.60057
 C765 C 0.97218 0.62211 0.58339
 C766 C 0.95495 0.63321 0.57208
 C767 C 0.94791 0.65311 0.57890
 H768 H 0.95563 0.66063 0.59218
 O769 O 0.89481 0.57596 0.52036
 O770 O 0.87012 0.60052 0.52035
 C771 C 0.87760 0.58334 0.52754
 C772 C 0.86649 0.57204 0.54477
 C773 C 0.84659 0.57888 0.55181
 H774 H 0.83907 0.59217 0.54409
 O775 O 1.10535 0.42365 0.52037
 O776 O 1.13005 0.39910 0.52042
 C777 C 1.12256 0.41628 0.52759
 C778 C 1.13365 0.42759 0.54481
 C779 C 1.15355 0.42077 0.55186
 H780 H 1.16108 0.40748 0.54415
 O781 O 0.97948 0.42357 0.60506
 O782 O 0.97950 0.39901 0.62976
 C783 C 0.97229 0.41619 0.62227
 C784 C 0.95503 0.42747 0.63335
 C785 C 0.94792 0.42061 0.65322
 H786 H 0.95560 0.40730 0.66075
 O787 O 1.02060 0.57599 0.60496
 O788 O 1.02060 0.60054 0.62966
 C789 C 1.02779 0.58336 0.62217
 C790 C 1.04500 0.57205 0.63329
 C791 C 1.05200 0.57885 0.65322
 H792 H 1.04426 0.59211 0.66074
 O793 O 0.89482 0.47915 0.57606
 O794 O 0.87013 0.47914 0.60063
 C795 C 0.87762 0.47195 0.58345
 C796 C 0.86652 0.45470 0.57217
 C797 C 0.84668 0.44758 0.57907
 H798 H 0.83920 0.45525 0.59240
 O799 O 1.10527 0.52047 0.57611
 O800 O 1.12995 0.52049 0.60069
 C801 C 1.12246 0.52769 0.58351
 C802 C 1.13354 0.54496 0.57224
 C803 C 1.15337 0.55210 0.57917
 H804 H 1.16086 0.54444 0.59250
 O805 O 0.92381 0.39468 0.52051
 O806 O 0.89929 0.36996 0.52047
 C807 C 0.91644 0.37746 0.52770
 C808 C 0.92770 0.36638 0.54498
 C809 C 0.92074 0.34658 0.55216
 H810 H 0.90739 0.33911 0.54452
 O811 O 1.07624 0.60499 0.52042
 O812 O 1.10076 0.62971 0.52044
 C813 C 1.08358 0.62221 0.52761
 C814 C 1.07226 0.63330 0.54482
 C815 C 1.07905 0.65322 0.55185
 H816 H 1.09232 0.66076 0.54413
 Cu817 Cu 1.08836 0.49983 0.58807
 Cu818 Cu 1.11791 0.49983 0.61765
 Cu819 Cu 0.91175 0.49976 0.58803
 Cu820 Cu 0.88220 0.49976 0.61760
 Cu821 Cu 1.00000 0.58800 0.58804
 Cu822 Cu 0.99998 0.61755 0.61760
 Cu823 Cu 1.00008 0.41159 0.58812
 Cu824 Cu 1.00012 0.38202 0.61767
 C825 C 1.05514 0.55489 0.62357
 H826 H 1.05001 0.54975 0.60809
 C827 C 1.06903 0.56881 0.66336
 C828 C 0.94495 0.44467 0.62362
 H829 H 0.95016 0.44987 0.60818
 C830 C 0.93083 0.43062 0.66329
 C831 C 1.05509 0.62357 0.55493
 H832 H 1.04995 0.60809 0.54978
 C833 C 1.06901 0.66333 0.56889
 C834 C 0.94496 0.37603 0.55501
 H835 H 0.95023 0.39143 0.54974
 C836 C 0.93069 0.33650 0.56929
 C837 C 1.12385 0.55502 0.55501
 H838 H 1.10844 0.54977 0.54976
 C839 C 1.16344 0.56922 0.56920
 C840 C 0.87620 0.44465 0.55494
 H841 H 0.89163 0.44988 0.54971
 C842 C 0.83659 0.43049 0.56909
 C843 C 0.94487 0.55488 0.62356
 H844 H 0.95004 0.54971 0.60809
 C845 C 0.93088 0.56887 0.66328
 C846 C 1.05525 0.44468 0.62361
 H847 H 1.05004 0.44988 0.60816
 C848 C 1.06935 0.43060 0.66328
 C849 C 1.12393 0.44478 0.55491
 H850 H 1.10846 0.44994 0.54974
 C851 C 1.16366 0.43078 0.56892
 C852 C 0.87621 0.55486 0.55488
 H853 H 0.89168 0.54968 0.54971
 C854 C 0.83648 0.56886 0.56886
 C855 C 0.94484 0.62349 0.55490
 H856 H 0.95001 0.60802 0.54974
 C857 C 0.93086 0.66323 0.56886
 C858 C 1.05525 0.37614 0.55493
 H859 H 1.05006 0.39160 0.54974
 C860 C 1.06930 0.33644 0.56899
 O861 O 1.07643 0.47932 0.39453
 O862 O 1.10101 0.47932 0.36986
 C863 C 1.08383 0.47211 0.37733
 C864 C 1.07258 0.45484 0.36625
 C865 C 1.07953 0.44769 0.34643
 H866 H 1.09286 0.45536 0.33895
 O867 O 0.92382 0.52041 0.39458
 O868 O 0.89928 0.52041 0.36987
 C869 C 0.91645 0.52761 0.37737
 C870 C 0.92773 0.54485 0.36627
 C871 C 0.92085 0.55196 0.34641
 H872 H 0.90753 0.54429 0.33891
 O873 O 0.97949 0.60490 0.42352
 O874 O 0.97943 0.62963 0.39899
 C875 C 0.97227 0.62212 0.41617
 C876 C 0.95506 0.63321 0.42750
 C877 C 0.94806 0.65315 0.42073
 H878 H 0.95578 0.66069 0.40747
 O879 O 1.02088 0.39472 0.42351
 O880 O 1.02087 0.37001 0.39898
 C881 C 1.02807 0.37750 0.41615
 C882 C 1.04531 0.36639 0.42744
 C883 C 1.05243 0.34655 0.42053
 H884 H 1.04477 0.33907 0.40719
 O885 O 1.10534 0.42363 0.47917
 O886 O 1.13005 0.39908 0.47918
 C887 C 1.12255 0.41625 0.47196
 C888 C 1.13363 0.42753 0.45470
 C889 C 1.15348 0.42062 0.44757
 H890 H 1.16098 0.40729 0.45523
 O891 O 0.89483 0.57597 0.47916
 O892 O 0.87014 0.60054 0.47911
 C893 C 0.87763 0.58336 0.47193
 C894 C 0.86654 0.57206 0.45469
 C895 C 0.84666 0.57892 0.44761
 H896 H 0.83915 0.59222 0.45530
 O897 O 1.02072 0.57606 0.39454
 O898 O 1.02069 0.60066 0.36988
 C899 C 1.02791 0.58348 0.37735
 C900 C 1.04519 0.57225 0.36626
 C901 C 1.05234 0.57924 0.34645
 H902 H 1.04466 0.59258 0.33899
 O903 O 0.97968 0.42367 0.39460
 O904 O 0.97963 0.39909 0.36993
 C905 C 0.97246 0.41628 0.37740
 C906 C 0.95523 0.42757 0.36629
 C907 C 0.94821 0.42074 0.34639
 H908 H 0.95594 0.40746 0.33888
 O909 O 1.10530 0.52050 0.42351
 O910 O 1.13003 0.52055 0.39899
 C911 C 1.12252 0.52771 0.41617
 C912 C 1.13359 0.54493 0.42751
 C913 C 1.15349 0.55202 0.42070
 H914 H 1.16102 0.54435 0.40740
 O915 O 0.89494 0.47917 0.42348
 O916 O 0.87026 0.47913 0.39890
 C917 C 0.87775 0.47194 0.41609
 C918 C 0.86666 0.45469 0.42738
 C919 C 0.84683 0.44755 0.42046
 H920 H 0.83934 0.45520 0.40711
 O921 O 1.07630 0.60501 0.47922
 O922 O 1.10083 0.62973 0.47920
 C923 C 1.08366 0.62222 0.47200
 C924 C 1.07237 0.63330 0.45475
 C925 C 1.07922 0.65318 0.44766
 H926 H 1.09252 0.66070 0.45535
 O927 O 0.92396 0.39477 0.47930
 O928 O 0.89946 0.37002 0.47923
 C929 C 0.91664 0.37755 0.47209
 C930 C 0.92800 0.36646 0.45489
 C931 C 0.92126 0.34651 0.44793
 H932 H 0.90801 0.33896 0.45567
 O933 O 0.92389 0.47922 0.39459
 O934 O 0.89935 0.47918 0.36987
 C935 C 0.91654 0.47201 0.37737
 C936 C 0.92788 0.45482 0.36627
 C937 C 0.92108 0.44776 0.34637
 H938 H 0.90777 0.45544 0.33884
 O939 O 1.07644 0.52052 0.39451
 O940 O 1.10102 0.52058 0.36985
 C941 C 1.08383 0.52775 0.37732
 C942 C 1.07255 0.54502 0.36624
 C943 C 1.07949 0.55223 0.34643
 H944 H 1.09285 0.54462 0.33895
 O945 O 0.97969 0.39480 0.42359
 O946 O 0.97964 0.37007 0.39906
 C947 C 0.97248 0.37758 0.41624
 C948 C 0.95528 0.36648 0.42759
 C949 C 0.94832 0.34652 0.42084
 H950 H 0.95605 0.33898 0.40758
 O951 O 1.02069 0.60494 0.42351
 O952 O 1.02066 0.62967 0.39897
 C953 C 1.02786 0.62217 0.41614
 C954 C 1.04508 0.63328 0.42745
 C955 C 1.05215 0.65315 0.42057
 H956 H 1.04445 0.66065 0.40726
 O957 O 0.89491 0.42358 0.47924
 O958 O 0.87027 0.39898 0.47916
 C959 C 0.87774 0.41617 0.47199
 C960 C 0.86666 0.42743 0.45471
 C961 C 0.84683 0.42051 0.44757
 H962 H 0.83934 0.40719 0.45525
 O963 O 1.10521 0.57606 0.47926
 O964 O 1.12988 0.60064 0.47925
 C965 C 1.12241 0.58345 0.47207
 C966 C 1.13353 0.57217 0.45485
 C967 C 1.15342 0.57904 0.44783
 H968 H 1.16091 0.59232 0.45557
 O969 O 1.02088 0.42364 0.39457
 O970 O 1.02088 0.39906 0.36990
 C971 C 1.02808 0.41624 0.37737
 C972 C 1.04533 0.42751 0.36627
 C973 C 1.05250 0.42057 0.34645
 H974 H 1.04487 0.40721 0.33897
 O975 O 0.97951 0.57602 0.39456
 O976 O 0.97944 0.60061 0.36989
 C977 C 0.97228 0.58341 0.37737
 C978 C 0.95504 0.57213 0.36627
 C979 C 0.94794 0.57902 0.34641
 H980 H 0.95562 0.59233 0.33891
 O981 O 0.89490 0.52037 0.42349
 O982 O 0.87021 0.52037 0.39892
 C983 C 0.87768 0.52756 0.41611
 C984 C 0.86657 0.54478 0.42740
 C985 C 0.84669 0.55185 0.42053
 H986 H 0.83919 0.54416 0.40722
 O987 O 1.10532 0.47930 0.42349
 O988 O 1.13004 0.47930 0.39896
 C989 C 1.12253 0.47210 0.41613
 C990 C 1.13362 0.45484 0.42741
 C991 C 1.15346 0.44772 0.42051
 H992 H 1.16095 0.45540 0.40719
 O993 O 1.07646 0.39467 0.47919
 O994 O 1.10103 0.36998 0.47921
 C995 C 1.08385 0.37746 0.47200
 C996 C 1.07258 0.36637 0.45475
 C997 C 1.07950 0.34653 0.44762
 H998 H 1.09282 0.33903 0.45530
 O999 O 0.92379 0.60485 0.47918
 O1000 O 0.89924 0.62956 0.47914
 C1001 C 0.91643 0.62207 0.47198
 C1002 C 0.92776 0.63318 0.45478
 C1003 C 0.92098 0.65312 0.44780
 H1004 H 0.90770 0.66064 0.45552
 Cu1005 Cu 1.08840 0.49991 0.41146
 Cu1006 Cu 1.11800 0.49994 0.38195
 Cu1007 Cu 0.91185 0.49979 0.41150
 Cu1008 Cu 0.88230 0.49977 0.38191
 Cu1009 Cu 1.08829 0.58808 0.49984
 Cu1010 Cu 1.11781 0.61767 0.49985
 Cu1011 Cu 1.08843 0.41163 0.49978
 Cu1012 Cu 1.11800 0.38208 0.49982
 Cu1013 Cu 0.91175 0.58795 0.49977
 Cu1014 Cu 0.88219 0.61753 0.49974
 Cu1015 Cu 0.91183 0.41162 0.49988
 Cu1016 Cu 0.88233 0.38201 0.49981
 Cu1017 Cu 1.00010 0.58801 0.41149
 Cu1018 Cu 1.00005 0.61762 0.38196
 Cu1019 Cu 1.00029 0.41167 0.41152
 Cu1020 Cu 1.00025 0.38208 0.38199
 C1021 C 1.05535 0.44478 0.37592
 H1022 H 1.05009 0.45003 0.39133
 C1023 C 1.06960 0.43055 0.33637
 C1024 C 0.94496 0.55492 0.37597
 H1025 H 0.95017 0.54970 0.39141
 C1026 C 0.93085 0.56904 0.33631
 C1027 C 0.94493 0.62346 0.44466
 H1028 H 0.95007 0.60797 0.44978
 C1029 C 0.93103 0.66327 0.43078
 C1030 C 1.05536 0.37606 0.44468
 H1031 H 1.05013 0.39149 0.44990
 C1032 C 1.06952 0.33645 0.43052
 C1033 C 1.12394 0.44476 0.44464
 H1034 H 1.10851 0.44999 0.44987
 C1035 C 1.16356 0.43062 0.43048
 C1036 C 0.87626 0.55486 0.44461
 H1037 H 0.89171 0.54968 0.44981
 C1038 C 0.83657 0.56891 0.43054
 C1039 C 1.05527 0.55501 0.37591
 H1040 H 1.05002 0.54972 0.39131
 C1041 C 1.06949 0.56934 0.33637
 C1042 C 0.94509 0.44474 0.37600
 H1043 H 0.95025 0.44992 0.39147
 C1044 C 0.93114 0.43073 0.33626
 C1045 C 1.12386 0.55499 0.44471
 H1046 H 1.10839 0.54979 0.44987
 C1047 C 1.16357 0.56906 0.43077
 C1048 C 0.87634 0.44465 0.44463
 H1049 H 0.89176 0.44989 0.44987
 C1050 C 0.83674 0.43046 0.43045
 C1051 C 1.05517 0.62359 0.44466
 H1052 H 1.04999 0.60814 0.44987
 C1053 C 1.06920 0.66327 0.43058
 C1054 C 0.94514 0.37621 0.44475
 H1055 H 0.95025 0.39172 0.44986
 C1056 C 0.93132 0.33637 0.43092
 O1057 O 0.47927 0.92383 0.39494
 O1058 O 0.47927 0.89930 0.37022
 C1059 C 0.47208 0.91648 0.37772
 C1060 C 0.45487 0.92779 0.36661
 C1061 C 0.44781 0.92092 0.34673
 H1062 H 0.45550 0.90761 0.33925
 O1063 O 0.52061 1.07650 0.39495
 O1064 O 0.52063 1.10102 0.37022
 C1065 C 0.52781 1.08385 0.37773
 C1066 C 0.54502 1.07252 0.36663
 C1067 C 0.55208 1.07936 0.34674
 H1068 H 0.54439 1.09267 0.33923
 O1069 O 0.39474 0.97961 0.42377
 O1070 O 0.37009 0.97962 0.39917
 C1071 C 0.37754 0.97243 0.41636
 C1072 C 0.36642 0.95520 0.42764
 C1073 C 0.34655 0.94814 0.42076
 H1074 H 0.33906 0.95584 0.40745
 O1075 O 0.60509 1.02070 0.42388
 O1076 O 0.62979 1.02068 0.39933
 C1077 C 0.62231 1.02787 0.41651
 C1078 C 0.63345 1.04505 0.42783
 C1079 C 0.65340 1.05201 0.42105
 H1080 H 0.66092 1.04427 0.40779
 O1081 O 0.42359 0.89494 0.47938
 O1082 O 0.39900 0.87029 0.47937
 C1083 C 0.41619 0.87774 0.47218
 C1084 C 0.42748 0.86662 0.45496
 C1085 C 0.42059 0.84676 0.44786
 H1086 H 0.40726 0.83927 0.45554
 O1087 O 0.57635 1.10540 0.47941
 O1088 O 0.60093 1.13006 0.47938
 C1089 C 0.58375 1.12258 0.47219
 C1090 C 0.57248 1.13368 0.45492
 C1091 C 0.57942 1.15349 0.44774
 H1092 H 0.59278 1.16096 0.45538
 O1093 O 0.42379 1.02075 0.39491
 O1094 O 0.39929 1.02079 0.37015
 C1095 C 0.41647 1.02795 0.37768
 C1096 C 0.42781 1.04514 0.36658
 C1097 C 0.42109 1.05208 0.34661
 H1098 H 0.40786 1.04432 0.33904
 O1099 O 0.57610 0.97955 0.39496
 O1100 O 0.60065 0.97951 0.37026
 C1101 C 0.58346 0.97234 0.37775
 C1102 C 0.57214 0.95513 0.36665
 C1103 C 0.57893 0.94813 0.34673
 H1104 H 0.59220 0.95586 0.33920
 O1105 O 0.52046 0.89485 0.42385
 O1106 O 0.52049 0.87019 0.39926
 C1107 C 0.52767 0.87765 0.41645
 C1108 C 0.54490 0.86654 0.42774
 C1109 C 0.55198 0.84667 0.42086
 H1110 H 0.54429 0.83918 0.40755
 O1111 O 0.47942 1.10548 0.42382
 O1112 O 0.47939 1.13014 0.39921
 C1113 C 0.47221 1.12267 0.41640
 C1114 C 0.45496 1.13377 0.42766
 C1115 C 0.44786 1.15364 0.42077
 H1116 H 0.45555 1.16114 0.40746
 O1117 O 0.39473 1.07655 0.47927
 O1118 O 0.37004 1.10111 0.47924
 C1119 C 0.37754 1.08394 0.47205
 C1120 C 0.36646 1.07266 0.45478
 C1121 C 0.34664 1.07959 0.44759
 H1122 H 0.33915 1.09294 0.45521
 O1123 O 0.60497 0.92379 0.47945
 O1124 O 0.62968 0.89924 0.47947
 C1125 C 0.62219 0.91642 0.47227
 C1126 C 0.63331 0.92773 0.45506
 C1127 C 0.65322 0.92091 0.44805
 H1128 H 0.66074 0.90762 0.45577
 O1129 O 0.47943 1.07648 0.39497
 O1130 O 0.47941 1.10099 0.37022
 C1131 C 0.47224 1.08382 0.37773
 C1132 C 0.45507 1.07246 0.36661
 C1133 C 0.44813 1.07919 0.34663
 H1134 H 0.45586 1.09245 0.33909
 O1135 O 0.52046 0.92384 0.39498
 O1136 O 0.52049 0.89932 0.37025
 C1137 C 0.52767 0.91649 0.37776
 C1138 C 0.54487 0.92783 0.36666
 C1139 C 0.55188 0.92104 0.34673
 H1140 H 0.54416 0.90776 0.33921
 O1141 O 0.60505 0.97950 0.42386
 O1142 O 0.62974 0.97945 0.39930
 C1143 C 0.62225 0.97228 0.41648
 C1144 C 0.63334 0.95504 0.42779
 C1145 C 0.65325 0.94801 0.42099
 H1146 H 0.66079 0.95574 0.40772
 O1147 O 0.39477 1.02081 0.42372
 O1148 O 0.37012 1.02087 0.39910
 C1149 C 0.37759 1.02805 0.41629
 C1150 C 0.36650 1.04533 0.42753
 C1151 C 0.34668 1.05247 0.42056
 H1152 H 0.33921 1.04478 0.40723
 O1153 O 0.42368 1.10544 0.47932
 O1154 O 0.39913 1.13015 0.47930
 C1155 C 0.41631 1.12266 0.47213
 C1156 C 0.42762 1.13376 0.45491
 C1157 C 0.42074 1.15363 0.44780
 H1158 H 0.40741 1.16112 0.45546
 O1159 O 0.57609 0.89483 0.47945
 O1160 O 0.60066 0.87014 0.47947
 C1161 C 0.58348 0.87762 0.47226
 C1162 C 0.57220 0.86652 0.45502
 C1163 C 0.57908 0.84665 0.44793
 H1164 H 0.59239 0.83915 0.45561
 O1165 O 0.57618 1.02075 0.39493
 O1166 O 0.60073 1.02074 0.37024
 C1167 C 0.58356 1.02795 0.37772
 C1168 C 0.57228 1.04520 0.36663
 C1169 C 0.57913 1.05226 0.34674
 H1170 H 0.59242 1.04455 0.33922
 O1171 O 0.42366 0.97955 0.39485
 O1172 O 0.39914 0.97956 0.37011
 C1173 C 0.41630 0.97235 0.37763
 C1174 C 0.42759 0.95510 0.36655
 C1175 C 0.42074 0.94801 0.34667
 H1176 H 0.40744 0.95570 0.33914
 O1177 O 0.52063 1.10544 0.42384
 O1178 O 0.52065 1.13010 0.39924
 C1179 C 0.52785 1.12263 0.41642
 C1180 C 0.54513 1.13370 0.42767
 C1181 C 0.55229 1.15352 0.42071
 H1182 H 0.54462 1.16100 0.40738
 O1183 O 0.47926 0.89487 0.42383
 O1184 O 0.47925 0.87020 0.39925
 C1185 C 0.47205 0.87768 0.41643
 C1186 C 0.45480 0.86659 0.42770
 C1187 C 0.44770 0.84673 0.42082
 H1188 H 0.45539 0.83922 0.40752
 O1189 O 0.60517 1.07636 0.47950
 O1190 O 0.62990 1.10088 0.47947
 C1191 C 0.62239 1.08370 0.47230
 C1192 C 0.63349 1.07235 0.45511
 C1193 C 0.65344 1.07909 0.44812
 H1194 H 0.66099 1.09235 0.45585
 O1195 O 0.39471 0.92391 0.47935
 O1196 O 0.36998 0.89940 0.47934
 C1197 C 0.37749 0.91656 0.47215
 C1198 C 0.36640 0.92788 0.45491
 C1199 C 0.34653 0.92103 0.44782
 H1200 H 0.33901 0.90772 0.45549
 Cu1201 Cu 0.49986 0.91180 0.41187
 Cu1202 Cu 0.49988 0.88228 0.38227
 Cu1203 Cu 0.50002 1.08852 0.41187
 Cu1204 Cu 0.50002 1.11804 0.38225
 Cu1205 Cu 0.41170 1.00017 0.41178
 Cu1206 Cu 0.38219 1.00022 0.38216
 Cu1207 Cu 0.58814 1.00013 0.41187
 Cu1208 Cu 0.61770 1.00009 0.38230
 C1209 C 0.44478 0.94501 0.37628
 H1210 H 0.44997 0.95021 0.39173
 C1211 C 0.43075 0.93093 0.33660
 C1212 C 0.55510 1.05531 0.37634
 H1213 H 0.54992 1.05013 0.39180
 C1214 C 0.56912 1.06933 0.33663
 C1215 C 0.37611 0.94509 0.44485
 H1216 H 0.39156 0.95027 0.45006
 C1217 C 0.33643 0.93106 0.43074
 C1218 C 0.62374 1.05520 0.44499
 H1219 H 0.60824 1.05009 0.45012
 C1220 C 0.66356 1.06902 0.43111
 C1221 C 0.44471 0.87629 0.44490
 H1222 H 0.44992 0.89173 0.45010
 C1223 C 0.43060 0.83665 0.43080
 C1224 C 0.55520 1.12403 0.44490
 H1225 H 0.54995 1.10862 0.45017
 C1226 C 0.56943 1.16358 0.43064
 C1227 C 0.44493 1.05531 0.37635
 H1228 H 0.45002 1.05021 0.39187
 C1229 C 0.43116 1.06909 0.33646
 C1230 C 0.55498 0.94500 0.37638
 H1231 H 0.54984 0.95014 0.39187
 C1232 C 0.56890 0.93110 0.33660
 C1233 C 0.55498 0.87622 0.44495
 H1234 H 0.54978 0.89167 0.45015
 C1235 C 0.56906 0.83656 0.43085
 C1236 C 0.44486 1.12408 0.44487
 H1237 H 0.45007 1.10864 0.45008
 C1238 C 0.43076 1.16373 0.43074
 C1239 C 0.37615 1.05540 0.44477
 H1240 H 0.39156 1.05016 0.45004
 C1241 C 0.33658 1.06959 0.43048
 C1242 C 0.62360 0.94492 0.44495
 H1243 H 0.60813 0.95008 0.45010
 C1244 C 0.66337 0.93096 0.43103
 O1245 O 0.52038 0.92393 0.60513
 O1246 O 0.52041 0.89939 0.62986
 C1247 C 0.52759 0.91657 0.62235
 C1248 C 0.54482 0.92787 0.63344
 C1249 C 0.55184 0.92106 0.65335
 H1250 H 0.54412 0.90779 0.66088
 O1251 O 0.47935 1.07648 0.60510
 O1252 O 0.47933 1.10104 0.62980
 C1253 C 0.47214 1.08386 0.62231
 C1254 C 0.45490 1.07258 0.63340
 C1255 C 0.44783 1.07946 0.65327
 H1256 H 0.45553 1.09277 0.66076
 O1257 O 0.39475 1.02086 0.57619
 O1258 O 0.37004 1.02090 0.60073
 C1259 C 0.37754 1.02807 0.58354
 C1260 C 0.36643 1.04528 0.57221
 C1261 C 0.34653 1.05233 0.57903
 H1262 H 0.33901 1.04464 0.59232
 O1263 O 0.60504 0.97959 0.57620
 O1264 O 0.62972 0.97951 0.60078
 C1265 C 0.62224 0.97235 0.58359
 C1266 C 0.63332 0.95512 0.57229
 C1267 C 0.65325 0.94810 0.57908
 H1268 H 0.66079 0.95583 0.59234
 O1269 O 0.57602 0.89491 0.52064
 O1270 O 0.60058 0.87021 0.52071
 C1271 C 0.58340 0.87770 0.52787
 C1272 C 0.57208 0.86661 0.54508
 C1273 C 0.57888 0.84670 0.55212
 H1274 H 0.59217 0.83917 0.54442
 O1275 O 0.42365 1.10541 0.52052
 O1276 O 0.39910 1.13012 0.52054
 C1277 C 0.41627 1.12262 0.52773
 C1278 C 0.42758 1.13371 0.54497
 C1279 C 0.42072 1.15358 0.55205
 H1280 H 0.40741 1.16110 0.54438
 O1281 O 0.42364 0.97966 0.60517
 O1282 O 0.39907 0.97966 0.62984
 C1283 C 0.41624 0.97246 0.62237
 C1284 C 0.42751 0.95520 0.63348
 C1285 C 0.42061 0.94812 0.65334
 H1286 H 0.40730 0.95582 0.66083
 O1287 O 0.57614 1.02078 0.60514
 O1288 O 0.60067 1.02074 0.62987
 C1289 C 0.58351 1.02796 0.62236
 C1290 C 0.57223 1.04520 0.63346
 C1291 C 0.57910 1.05226 0.65333
 H1292 H 0.59240 1.04454 0.66084
 O1293 O 0.47916 0.89497 0.57628
 O1294 O 0.47914 0.87029 0.60086
 C1295 C 0.47195 0.87777 0.58368
 C1296 C 0.45471 0.86668 0.57239
 C1297 C 0.44759 0.84682 0.57928
 H1298 H 0.45525 0.83932 0.59261
 O1299 O 0.52056 1.10541 0.57620
 O1300 O 0.52057 1.13011 0.60075
 C1301 C 0.52776 1.12262 0.58358
 C1302 C 0.54500 1.13371 0.57229
 C1303 C 0.55209 1.15358 0.57915
 H1304 H 0.54440 1.16110 0.59245
 O1305 O 0.39475 0.92397 0.52054
 O1306 O 0.37001 0.89947 0.52058
 C1307 C 0.37752 0.91664 0.52775
 C1308 C 0.36643 0.92797 0.54495
 C1309 C 0.34651 0.92119 0.55197
 H1310 H 0.33898 0.90791 0.54425
 O1311 O 0.60521 1.07649 0.52070
 O1312 O 0.62992 1.10102 0.52072
 C1313 C 0.62241 1.08386 0.52792
 C1314 C 0.63347 1.07259 0.54521
 C1315 C 0.65327 1.07954 0.55244
 H1316 H 0.66075 1.09290 0.54482
 O1317 O 0.52055 1.07648 0.60514
 O1318 O 0.52057 1.10104 0.62983
 C1319 C 0.52775 1.08386 0.62235
 C1320 C 0.54498 1.07254 0.63345
 C1321 C 0.55208 1.07939 0.65333
 H1322 H 0.54441 1.09271 0.66084
 O1323 O 0.47918 0.92391 0.60519
 O1324 O 0.47917 0.89937 0.62991
 C1325 C 0.47198 0.91655 0.62241
 C1326 C 0.45476 0.92786 0.63350
 C1327 C 0.44764 0.92099 0.65336
 H1328 H 0.45530 0.90766 0.66086
 O1329 O 0.60512 1.02080 0.57628
 O1330 O 0.62979 1.02075 0.60088
 C1331 C 0.62232 1.02798 0.58371
 C1332 C 0.63343 1.04526 0.57248
 C1333 C 0.65322 1.05243 0.57949
 H1334 H 0.66067 1.04476 0.59285
 O1335 O 0.39476 0.97967 0.57620
 O1336 O 0.37004 0.97967 0.60073
 C1337 C 0.37754 0.97248 0.58356
 C1338 C 0.36644 0.95527 0.57224
 C1339 C 0.34652 0.94826 0.57904
 H1340 H 0.33899 0.95598 0.59232
 O1341 O 0.57624 1.10536 0.52061
 O1342 O 0.60080 1.13004 0.52062
 C1343 C 0.58361 1.12256 0.52780
 C1344 C 0.57231 1.13368 0.54501
 C1345 C 0.57918 1.15355 0.55208
 H1346 H 0.59249 1.16104 0.54439
 O1347 O 0.42359 0.89497 0.52058
 O1348 O 0.39900 0.87032 0.52062
 C1349 C 0.41618 0.87779 0.52780
 C1350 C 0.42745 0.86669 0.54506
 C1351 C 0.42055 0.84684 0.55216
 H1352 H 0.40724 0.83935 0.54446
 O1353 O 0.57611 0.97958 0.60512
 O1354 O 0.60064 0.97950 0.62984
 C1355 C 0.58346 0.97235 0.62233
 C1356 C 0.57213 0.95514 0.63343
 C1357 C 0.57893 0.94811 0.65334
 H1358 H 0.59222 0.95581 0.66087
 O1359 O 0.42367 1.02086 0.60513
 O1360 O 0.39910 1.02091 0.62981
 C1361 C 0.41629 1.02808 0.62233
 C1362 C 0.42759 1.04532 0.63342
 C1363 C 0.42072 1.05242 0.65329
 H1364 H 0.40741 1.04476 0.66080
 O1365 O 0.47935 1.10540 0.57617
 O1366 O 0.47933 1.13009 0.60072
 C1367 C 0.47214 1.12260 0.58354
 C1368 C 0.45490 1.13370 0.57225
 C1369 C 0.44783 1.15357 0.57911
 H1370 H 0.45553 1.16108 0.59241
 O1371 O 0.52035 0.89495 0.57627
 O1372 O 0.52038 0.87027 0.60085
 C1373 C 0.52756 0.87774 0.58366
 C1374 C 0.54478 0.86663 0.57236
 C1375 C 0.55180 0.84671 0.57919
 H1376 H 0.54409 0.83919 0.59247
 O1377 O 0.60495 0.92382 0.52063
 O1378 O 0.62966 0.89926 0.52070
 C1379 C 0.62217 0.91646 0.52785
 C1380 C 0.63328 0.92779 0.54504
 C1381 C 0.65321 0.92099 0.55205
 H1382 H 0.66072 0.90770 0.54435
 O1383 O 0.39474 1.07649 0.52048
 O1384 O 0.37004 1.10104 0.52049
 C1385 C 0.37753 1.08386 0.52767
 C1386 C 0.36643 1.07255 0.54489
 C1387 C 0.34652 1.07938 0.55192
 H1388 H 0.33900 1.09267 0.54420
 Cu1389 Cu 0.49976 0.91189 0.58825
 Cu1390 Cu 0.49978 0.88236 0.61785
 Cu1391 Cu 0.49996 1.08848 0.58819
 Cu1392 Cu 0.49995 1.11805 0.61775
 Cu1393 Cu 0.41163 0.91190 0.49996
 Cu1394 Cu 0.38202 0.88240 0.49998
 Cu1395 Cu 0.58805 0.91180 0.50004
 Cu1396 Cu 0.61762 0.88224 0.50009
 Cu1397 Cu 0.41166 1.08851 0.49990
 Cu1398 Cu 0.38210 1.11808 0.49989
 Cu1399 Cu 0.58828 1.08844 0.50005
 Cu1400 Cu 0.61787 1.11797 0.50004
 Cu1401 Cu 0.41167 1.00026 0.58822
 Cu1402 Cu 0.38209 1.00029 0.61775
 Cu1403 Cu 0.58815 1.00019 0.58822
 Cu1404 Cu 0.61768 1.00011 0.61782
 C1405 C 0.55494 0.94505 0.62371
 H1406 H 0.54978 0.95020 0.60823
 C1407 C 0.56889 0.93108 0.66348
 C1408 C 0.44481 1.05538 0.62372
 H1409 H 0.45000 1.05017 0.60827
 C1410 C 0.43075 1.06949 0.66338
 C1411 C 0.37614 1.05537 0.55502
 H1412 H 0.39162 1.05020 0.54986
 C1413 C 0.33640 1.06937 0.56898
 C1414 C 0.62358 0.94499 0.55513
 H1415 H 0.60809 0.95014 0.54999
 C1416 C 0.66336 0.93105 0.56906
 C1417 C 0.55489 0.87634 0.55518
 H1418 H 0.54974 0.89181 0.55001
 C1419 C 0.56884 0.83658 0.56916
 C1420 C 0.44479 1.12400 0.55505
 H1421 H 0.44999 1.10855 0.54985
 C1422 C 0.43075 1.16369 0.56912
 C1423 C 0.44471 0.94510 0.62380
 H1424 H 0.44993 0.95030 0.60836
 C1425 C 0.43057 0.93102 0.66345
 C1426 C 0.55503 1.05532 0.62376
 H1427 H 0.54983 1.05013 0.60831
 C1428 C 0.56913 1.06935 0.66344
 C1429 C 0.44466 0.87637 0.55515
 H1430 H 0.44988 0.89180 0.54994
 C1431 C 0.43052 0.83674 0.56926
 C1432 C 0.55509 1.12400 0.55509
 H1433 H 0.54989 1.10855 0.54990
 C1434 C 0.56917 1.16367 0.56914
 C1435 C 0.37616 0.94515 0.55507
 H1436 H 0.39164 0.95028 0.54992
 C1437 C 0.33639 0.93123 0.56900
 C1438 C 0.62379 1.05532 0.55521
 H1439 H 0.60841 1.05006 0.54991
 C1440 C 0.66331 1.06957 0.56958
 O1441 O 0.47937 0.42368 0.89501
 O1442 O 0.47936 0.39911 0.87032
 C1443 C 0.47218 0.41630 0.87780
 C1444 C 0.45496 0.42761 0.86668
 C1445 C 0.44791 0.42076 0.84679
 H1446 H 0.45562 0.40746 0.83929
 O1447 O 0.52045 0.57615 0.89505
 O1448 O 0.52050 0.60071 0.87035
 C1449 C 0.52767 0.58352 0.87785
 C1450 C 0.54489 0.57220 0.86676
 C1451 C 0.55192 0.57901 0.84684
 H1452 H 0.54421 0.59230 0.83931
 O1453 O 0.39478 0.47932 0.92386
 O1454 O 0.37008 0.47932 0.89930
 C1455 C 0.37757 0.47213 0.91649
 C1456 C 0.36644 0.45493 0.92779
 C1457 C 0.34657 0.44787 0.92091
 H1458 H 0.33909 0.45556 0.90758
 O1459 O 0.60508 0.52045 0.92400
 O1460 O 0.62977 0.52049 0.89944
 C1461 C 0.62229 0.52765 0.91663
 C1462 C 0.63339 0.54486 0.92794
 C1463 C 0.65329 0.55189 0.92111
 H1464 H 0.66080 0.54419 0.90782
 O1465 O 0.42359 0.39485 0.97955
 O1466 O 0.39905 0.37015 0.97954
 C1467 C 0.41622 0.37764 0.97234
 C1468 C 0.42751 0.36655 0.95510
 C1469 C 0.42060 0.34670 0.94799
 H1470 H 0.40727 0.33921 0.95565
 O1471 O 0.57616 0.60498 0.97963
 O1472 O 0.60071 0.62967 0.97961
 C1473 C 0.58353 0.62219 0.97242
 C1474 C 0.57221 0.63330 0.95521
 C1475 C 0.57903 0.65321 0.94818
 H1476 H 0.59232 0.66072 0.95589
 O1477 O 0.42371 0.52052 0.89494
 O1478 O 0.39913 0.52056 0.87025
 C1479 C 0.41631 0.52774 0.87774
 C1480 C 0.42758 0.54499 0.86665
 C1481 C 0.42069 0.55209 0.84679
 H1482 H 0.40738 0.54440 0.83929
 O1483 O 0.57616 0.47926 0.89506
 O1484 O 0.60071 0.47928 0.87036
 C1485 C 0.58354 0.47207 0.87785
 C1486 C 0.57228 0.45483 0.86675
 C1487 C 0.57918 0.44775 0.84689
 H1488 H 0.59249 0.45546 0.83941
 O1489 O 0.52053 0.39473 0.92398
 O1490 O 0.52055 0.37001 0.89945
 C1491 C 0.52773 0.37751 0.91663
 C1492 C 0.54495 0.36641 0.92795
 C1493 C 0.55204 0.34653 0.92111
 H1494 H 0.54436 0.33901 0.90781
 O1495 O 0.47925 0.60511 0.92393
 O1496 O 0.47925 0.62981 0.89938
 C1497 C 0.47205 0.62232 0.91655
 C1498 C 0.45481 0.63342 0.92784
 C1499 C 0.44769 0.65328 0.92095
 H1500 H 0.45536 0.66078 0.90762
 O1501 O 0.39480 0.57614 0.97964
 O1502 O 0.37008 0.60068 0.97959
 C1503 C 0.37758 0.58350 0.97242
 C1504 C 0.36649 0.57218 0.95520
 C1505 C 0.34656 0.57896 0.94820
 H1506 H 0.33902 0.59223 0.95592
 O1507 O 0.60515 0.42363 0.97961
 O1508 O 0.62984 0.39906 0.97962
 C1509 C 0.62235 0.41623 0.97241
 C1510 C 0.63344 0.42750 0.95515
 C1511 C 0.65328 0.42060 0.94801
 H1512 H 0.66079 0.40727 0.95568
 O1513 O 0.47926 0.57621 0.89499
 O1514 O 0.47926 0.60078 0.87029
 C1515 C 0.47207 0.58360 0.87777
 C1516 C 0.45484 0.57231 0.86666
 C1517 C 0.44772 0.57920 0.84680
 H1518 H 0.45538 0.59253 0.83931
 O1519 O 0.52057 0.42361 0.89500
 O1520 O 0.52060 0.39904 0.87033
 C1521 C 0.52778 0.41622 0.87781
 C1522 C 0.54503 0.42751 0.86672
 C1523 C 0.55216 0.42063 0.84686
 H1524 H 0.54451 0.40731 0.83935
 O1525 O 0.60510 0.47925 0.92397
 O1526 O 0.62978 0.47926 0.89941
 C1527 C 0.62230 0.47205 0.91658
 C1528 C 0.63341 0.45481 0.92786
 C1529 C 0.65325 0.44769 0.92094
 H1530 H 0.66073 0.45537 0.90761
 O1531 O 0.39484 0.52050 0.92392
 O1532 O 0.37013 0.52055 0.89937
 C1533 C 0.37763 0.52771 0.91656
 C1534 C 0.36652 0.54491 0.92789
 C1535 C 0.34659 0.55191 0.92110
 H1536 H 0.33906 0.54419 0.90782
 O1537 O 0.42366 0.60512 0.97962
 O1538 O 0.39908 0.62980 0.97958
 C1539 C 0.41627 0.62232 0.97240
 C1540 C 0.42754 0.63341 0.95515
 C1541 C 0.42064 0.65327 0.94805
 H1542 H 0.40733 0.66076 0.95573
 O1543 O 0.57617 0.39477 0.97965
 O1544 O 0.60072 0.37006 0.97966
 C1545 C 0.58354 0.37755 0.97247
 C1546 C 0.57224 0.36644 0.95525
 C1547 C 0.57911 0.34655 0.94820
 H1548 H 0.59241 0.33905 0.95590
 O1549 O 0.57613 0.52047 0.89509
 O1550 O 0.60068 0.52051 0.87039
 C1551 C 0.58349 0.52768 0.87788
 C1552 C 0.57218 0.54490 0.86677
 C1553 C 0.57899 0.55193 0.84686
 H1554 H 0.59227 0.54421 0.83935
 O1555 O 0.42373 0.47932 0.89495
 O1556 O 0.39917 0.47932 0.87025
 C1557 C 0.41635 0.47212 0.87774
 C1558 C 0.42765 0.45489 0.86665
 C1559 C 0.42081 0.44782 0.84676
 H1560 H 0.40752 0.45551 0.83923
 O1561 O 0.52045 0.60506 0.92398
 O1562 O 0.52050 0.62977 0.89943
 C1563 C 0.52767 0.62226 0.91661
 C1564 C 0.54490 0.63334 0.92793
 C1565 C 0.55193 0.65325 0.92112
 H1566 H 0.54421 0.66079 0.90784
 O1567 O 0.47932 0.39477 0.92394
 O1568 O 0.47930 0.37006 0.89940
 C1569 C 0.47210 0.37757 0.91656
 C1570 C 0.45483 0.36651 0.92784
 C1571 C 0.44771 0.34666 0.92095
 H1572 H 0.45539 0.33915 0.90764
 O1573 O 0.60510 0.57607 0.97966
 O1574 O 0.62980 0.60062 0.97964
 C1575 C 0.62231 0.58344 0.97246
 C1576 C 0.63341 0.57213 0.95524
 C1577 C 0.65331 0.57896 0.94820
 H1578 H 0.66083 0.59224 0.95591
 O1579 O 0.39467 0.42378 0.97958
 O1580 O 0.36999 0.39921 0.97958
 C1581 C 0.37746 0.41639 0.97238
 C1582 C 0.36638 0.42768 0.95513
 C1583 C 0.34650 0.42082 0.94803
 H1584 H 0.33897 0.40753 0.95572
 Cu1585 Cu 0.49995 0.41165 0.91194
 Cu1586 Cu 0.49995 0.38208 0.88240
 Cu1587 Cu 0.49985 0.58817 0.91195
 Cu1588 Cu 0.49989 0.61775 0.88239
 Cu1589 Cu 0.41173 0.49991 0.91188
 Cu1590 Cu 0.38215 0.49994 0.88232
 Cu1591 Cu 0.58816 0.49986 0.91199
 Cu1592 Cu 0.61771 0.49989 0.88242
 C1593 C 0.44485 0.44480 0.87637
 H1594 H 0.45003 0.44999 0.89183
 C1595 C 0.43085 0.43077 0.83666
 C1596 C 0.55499 0.55502 0.87648
 H1597 H 0.54984 0.54986 0.89196
 C1598 C 0.56896 0.56897 0.83673
 C1599 C 0.37611 0.44486 0.94503
 H1600 H 0.39155 0.45004 0.95024
 C1601 C 0.33643 0.43083 0.93093
 C1602 C 0.62369 0.55495 0.94514
 H1603 H 0.60822 0.54979 0.95030
 C1604 C 0.66342 0.56893 0.93114
 C1605 C 0.44475 0.37621 0.94505
 H1606 H 0.44998 0.39164 0.95026
 C1607 C 0.43060 0.33659 0.93092
 C1608 C 0.55502 0.62360 0.94510
 H1609 H 0.54986 0.60813 0.95025
 C1610 C 0.56899 0.66336 0.93115
 C1611 C 0.44479 0.55508 0.87635
 H1612 H 0.45000 0.54986 0.89179
 C1613 C 0.43066 0.56919 0.83670
 C1614 C 0.55507 0.44473 0.87642
 H1615 H 0.54984 0.44994 0.89186
 C1616 C 0.56923 0.43066 0.83678
 C1617 C 0.55503 0.37613 0.94515
 H1618 H 0.54984 0.39158 0.95032
 C1619 C 0.56911 0.33643 0.93114
 C1620 C 0.44476 0.62372 0.94507
 H1621 H 0.44998 0.60829 0.95029
 C1622 C 0.43061 0.66337 0.93095
 C1623 C 0.37624 0.55502 0.94507
 H1624 H 0.39173 0.54989 0.95021
 C1625 C 0.33644 0.56892 0.93116
 C1626 C 0.62374 0.44474 0.94509
 H1627 H 0.60832 0.44996 0.95032
 C1628 C 0.66336 0.43059 0.93091
 O1629 O 0.52054 0.42370 1.10553
 O1630 O 0.52053 0.39910 1.13019
 C1631 C 0.52774 0.41628 1.12273
 C1632 C 0.54500 0.42752 1.13384
 C1633 C 0.55214 0.42056 1.15366
 H1634 H 0.54447 0.40723 1.16113
 O1635 O 0.47934 0.57612 1.10536
 O1636 O 0.47933 0.60067 1.13006
 C1637 C 0.47214 0.58349 1.12257
 C1638 C 0.45492 0.57220 1.13368
 C1639 C 0.44788 0.57906 1.15357
 H1640 H 0.45560 0.59236 1.16106
 O1641 O 0.39471 0.52053 1.07649
 O1642 O 0.37002 0.52057 1.10106
 C1643 C 0.37751 0.52776 1.08388
 C1644 C 0.36643 0.54502 1.07259
 C1645 C 0.34659 0.55217 1.07951
 H1646 H 0.33910 0.54451 1.09284
 O1647 O 0.60509 0.47926 1.07659
 O1648 O 0.62981 0.47924 1.10113
 C1649 C 0.62231 0.47206 1.08395
 C1650 C 0.63342 0.45485 1.07262
 C1651 C 0.65333 0.44780 1.07942
 H1652 H 0.66085 0.45547 1.09273
 O1653 O 0.57620 0.39479 1.02085
 O1654 O 0.60075 0.37008 1.02090
 C1655 C 0.58357 0.37759 1.02808
 C1656 C 0.57228 0.36650 1.04533
 C1657 C 0.57915 0.34663 1.05241
 H1658 H 0.59245 0.33912 1.04472
 O1659 O 0.42367 0.60512 1.02083
 O1660 O 0.39910 0.62980 1.02082
 C1661 C 0.41628 0.62232 1.02803
 C1662 C 0.42757 0.63341 1.04527
 C1663 C 0.42068 0.65327 1.05238
 H1664 H 0.40736 0.66078 1.04469
 O1665 O 0.42364 0.47931 1.10541
 O1666 O 0.39909 0.47931 1.13011
 C1667 C 0.41626 0.47211 1.12262
 C1668 C 0.42754 0.45486 1.13372
 C1669 C 0.42062 0.44774 1.15356
 H1670 H 0.40729 0.45542 1.16104
 O1671 O 0.57616 0.52044 1.10551
 O1672 O 0.60073 0.52047 1.13020
 C1673 C 0.58354 0.52766 1.12271
 C1674 C 0.57225 0.54492 1.13378
 C1675 C 0.57913 0.55202 1.15364
 H1676 H 0.59243 0.54434 1.16116
 O1677 O 0.47938 0.39487 1.07648
 O1678 O 0.47933 0.37012 1.10099
 C1679 C 0.47218 0.37764 1.08380
 C1680 C 0.45500 0.36654 1.07243
 C1681 C 0.44807 0.34656 1.07914
 H1682 H 0.45582 0.33899 1.09238
 O1683 O 0.52051 0.60505 1.07644
 O1684 O 0.52053 0.62975 1.10099
 C1685 C 0.52771 0.62226 1.08381
 C1686 C 0.54492 0.63336 1.07249
 C1687 C 0.55193 0.65328 1.07928
 H1688 H 0.54421 0.66082 1.09255
 O1689 O 0.39467 0.42373 1.02080
 O1690 O 0.37001 0.39915 1.02084
 C1691 C 0.37748 0.41633 1.02803
 C1692 C 0.36640 0.42759 1.04530
 C1693 C 0.34658 0.42064 1.05247
 H1694 H 0.33910 0.40731 1.04482
 O1695 O 0.60508 0.57607 1.02087
 O1696 O 0.62977 0.60062 1.02088
 C1697 C 0.62228 0.58345 1.02808
 C1698 C 0.63337 0.57216 1.04533
 C1699 C 0.65325 0.57902 1.05240
 H1700 H 0.66076 0.59232 1.04470
 O1701 O 0.52053 0.57615 1.10540
 O1702 O 0.52056 0.60071 1.13009
 C1703 C 0.52774 0.58353 1.12261
 C1704 C 0.54498 0.57223 1.13372
 C1705 C 0.55206 0.57912 1.15359
 H1706 H 0.54438 0.59245 1.16107
 O1707 O 0.47933 0.42369 1.10550
 O1708 O 0.47927 0.39909 1.13015
 C1709 C 0.47209 0.41628 1.12268
 C1710 C 0.45483 0.42755 1.13376
 C1711 C 0.44768 0.42064 1.15360
 H1712 H 0.45534 0.40732 1.16111
 O1713 O 0.60508 0.52045 1.07659
 O1714 O 0.62979 0.52047 1.10114
 C1715 C 0.62229 0.52765 1.08396
 C1716 C 0.63337 0.54488 1.07265
 C1717 C 0.65325 0.55196 1.07951
 H1718 H 0.66076 0.54428 1.09282
 O1719 O 0.39471 0.47933 1.07649
 O1720 O 0.37002 0.47932 1.10105
 C1721 C 0.37750 0.47212 1.08388
 C1722 C 0.36641 0.45487 1.07260
 C1723 C 0.34660 0.44772 1.07955
 H1724 H 0.33912 0.45537 1.09289
 O1725 O 0.57616 0.60501 1.02082
 O1726 O 0.60071 0.62970 1.02083
 C1727 C 0.58353 0.62222 1.02801
 C1728 C 0.57221 0.63334 1.04521
 C1729 C 0.57901 0.65326 1.05221
 H1730 H 0.59229 0.66078 1.04449
 O1731 O 0.42369 0.39490 1.02074
 O1732 O 0.39918 0.37017 1.02077
 C1733 C 0.41636 0.37768 1.02794
 C1734 C 0.42772 0.36656 1.04512
 C1735 C 0.42100 0.34658 1.05204
 H1736 H 0.40777 0.33903 1.04428
 O1737 O 0.57621 0.47924 1.10556
 O1738 O 0.60078 0.47922 1.13024
 C1739 C 0.58360 0.47203 1.12276
 C1740 C 0.57233 0.45478 1.13385
 C1741 C 0.57926 0.44760 1.15368
 H1742 H 0.59261 0.45522 1.16116
 O1743 O 0.42364 0.52051 1.10542
 O1744 O 0.39910 0.52055 1.13012
 C1745 C 0.41628 0.52772 1.12263
 C1746 C 0.42760 0.54494 1.13372
 C1747 C 0.42077 0.55203 1.15360
 H1748 H 0.40746 0.54436 1.16113
 O1749 O 0.47931 0.60509 1.07648
 O1750 O 0.47930 0.62978 1.10104
 C1751 C 0.47210 0.62229 1.08386
 C1752 C 0.45486 0.63340 1.07257
 C1753 C 0.44775 0.65326 1.07946
 H1754 H 0.45543 0.66075 1.09278
 O1755 O 0.52057 0.39482 1.07657
 O1756 O 0.52056 0.37008 1.10109
 C1757 C 0.52777 0.37760 1.08393
 C1758 C 0.54501 0.36651 1.07264
 C1759 C 0.55210 0.34663 1.07950
 H1760 H 0.54442 0.33912 1.09281
 O1761 O 0.60510 0.42372 1.02082
 O1762 O 0.62980 0.39915 1.02086
 C1763 C 0.62231 0.41634 1.02803
 C1764 C 0.63341 0.42763 1.04526
 C1765 C 0.65332 0.42079 1.05228
 H1766 H 0.66084 0.40752 1.04454
 O1767 O 0.39475 0.57620 1.02084
 O1768 O 0.37004 0.60075 1.02083
 C1769 C 0.37754 0.58358 1.02804
 C1770 C 0.36644 0.57231 1.04529
 C1771 C 0.34661 0.57924 1.05242
 H1772 H 0.33913 0.59258 1.04475
 Cu1773 Cu 0.49996 0.41174 1.08857
 Cu1774 Cu 0.49992 0.38212 1.11808
 Cu1775 Cu 0.49992 0.58814 1.08846
 Cu1776 Cu 0.49993 0.61770 1.11802
 Cu1777 Cu 0.41161 0.41178 1.00017
 Cu1778 Cu 0.38208 0.38220 1.00019
 Cu1779 Cu 0.58820 0.41169 1.00023
 Cu1780 Cu 0.61775 0.38211 1.00027
 Cu1781 Cu 0.41169 0.58819 1.00024
 Cu1782 Cu 0.38210 0.61773 1.00020
 Cu1783 Cu 0.58817 0.58807 1.00024
 Cu1784 Cu 0.61772 0.61763 1.00024
 Cu1785 Cu 0.41163 0.49992 1.08849
 Cu1786 Cu 0.38208 0.49994 1.11806
 Cu1787 Cu 0.58817 0.49984 1.08861
 Cu1788 Cu 0.61775 0.49985 1.11815
 C1789 C 0.55507 0.44476 1.12418
 H1790 H 0.54982 0.45003 1.10877
 C1791 C 0.56927 0.43049 1.16375
 C1792 C 0.44480 0.55501 1.12400
 H1793 H 0.44997 0.54982 1.10854
 C1794 C 0.43081 0.56908 1.16370
 C1795 C 0.37611 0.55506 1.05535
 H1796 H 0.39153 0.54982 1.05012
 C1797 C 0.33652 0.56928 1.06952
 C1798 C 0.62370 0.44479 1.05540
 H1799 H 0.60823 0.44996 1.05025
 C1800 C 0.66344 0.43077 1.06935
 C1801 C 0.55508 0.37621 1.05542
 H1802 H 0.54988 0.39166 1.05022
 C1803 C 0.56916 0.33652 1.06949
 C1804 C 0.44479 0.62372 1.05535
 H1805 H 0.45000 0.60828 1.05014
 C1806 C 0.43067 0.66336 1.06946
 C1807 C 0.44477 0.44479 1.12406
 H1808 H 0.45001 0.45002 1.10864
 C1809 C 0.43058 0.43064 1.16367
 C1810 C 0.55505 0.55500 1.12406
 H1811 H 0.54985 0.54979 1.10861
 C1812 C 0.56913 0.56912 1.16371
 C1813 C 0.44485 0.37630 1.05529
 H1814 H 0.44993 0.39183 1.05021
 C1815 C 0.43109 0.33641 1.06903
 C1816 C 0.55503 0.62363 1.05532
 H1817 H 0.54989 0.60815 1.05019
 C1818 C 0.56897 0.66340 1.06923
 C1819 C 0.37608 0.44483 1.05535
 H1820 H 0.39148 0.45008 1.05009
 C1821 C 0.33652 0.43061 1.06959
 C1822 C 0.62367 0.55496 1.05543
 H1823 H 0.60822 0.54977 1.05024
 C1824 C 0.66336 0.56902 1.06948
 N1825 N 1.13329 1.10652 1.28555
 C1826 C 1.11602 1.11538 1.27653
 N1827 N 1.10715 1.13256 1.28568
 N1828 N 1.11532 1.14067 1.30329
 C1829 C 1.13271 1.13194 1.31245
 N1830 N 1.14146 1.11464 1.30316
 C1831 C 1.10750 1.10694 1.25730
 C1832 C 1.10048 1.10000 1.24102
 C1833 C 1.09230 1.09191 1.22149
 N1834 N 1.07552 1.10127 1.21205
 N1835 N 1.06822 1.09404 1.19368
 C1836 C 1.07744 1.07720 1.18406
 N1837 N 1.09423 1.06787 1.19366
 N1838 N 1.10154 1.07509 1.21202
 N1839 N 1.13123 0.60507 0.78650
 C1840 C 1.11407 0.61399 0.77735
 N1841 N 1.10514 0.63118 0.78645
 N1842 N 1.11317 0.63923 0.80415
 C1843 C 1.13043 0.63041 0.81341
 N1844 N 1.13926 0.61313 0.80421
 C1845 C 1.10575 0.60565 0.75799
 C1846 C 1.09893 0.59880 0.74160
 C1847 C 1.09100 0.59084 0.72192
 N1848 N 1.07428 0.60022 0.71239
 N1849 N 1.06722 0.59313 0.69388
 C1850 C 1.07663 0.57642 0.68420
 N1851 N 1.09335 0.56707 0.69390
 N1852 N 1.10042 0.57415 0.71241
 N1853 N 0.63234 1.10586 0.78600
 C1854 C 0.61506 1.11472 0.77701
 N1855 N 0.60614 1.13186 0.78622
 N1856 N 0.61429 1.13990 0.80388
 C1857 C 0.63166 1.13113 0.81297
 N1858 N 0.64048 1.11390 0.80366
 C1859 C 0.60659 1.10638 0.75772
 C1860 C 0.59963 1.09952 0.74138
 C1861 C 0.59154 1.09153 0.72178
 N1862 N 0.57482 1.10096 0.71229
 N1863 N 0.56762 1.09382 0.69385
 C1864 C 0.57687 1.07702 0.68420
 N1865 N 0.59360 1.06762 0.69385
 N1866 N 0.60081 1.07474 0.71229
 N1867 N 0.63202 0.60607 1.28629
 C1868 C 0.61482 0.61496 1.27719
 N1869 N 0.60595 0.63218 1.28628
 N1870 N 0.61407 0.64029 1.30392
 C1871 C 0.63140 0.63152 1.31315
 N1872 N 0.64014 0.61418 1.30393
 C1873 C 0.60639 0.60654 1.25792
 C1874 C 0.59947 0.59960 1.24160
 C1875 C 0.59143 0.59152 1.22201
 N1876 N 0.57467 0.60085 1.21250
 N1877 N 0.56751 0.59364 1.19408
 C1878 C 0.57683 0.57686 1.18446
 N1879 N 0.59360 0.56755 1.19414
 N1880 N 0.60077 0.57475 1.21256
 N1881 N 0.86866 0.89480 1.28655
 C1882 C 0.88586 0.88590 1.27744
 N1883 N 0.89479 0.86873 1.28658
 N1884 N 0.88672 0.86067 1.30426
 C1885 C 0.86943 0.86947 1.31347
 N1886 N 0.86061 0.88674 1.30423
 C1887 C 0.89421 0.89425 1.25810
 C1888 C 0.90107 0.90109 1.24172
 C1889 C 0.90904 0.90904 1.22205
 N1890 N 0.92575 0.89963 1.21255
 N1891 N 0.93284 0.90671 1.19404
 C1892 C 0.92348 0.92343 1.18435
 N1893 N 0.90676 0.93282 1.19401
 N1894 N 0.89966 0.92575 1.21252
 N1895 N 0.89364 0.36819 0.78607
 C1896 C 0.88472 0.38530 0.77681
 N1897 N 0.86741 0.39416 0.78576
 N1898 N 0.85925 0.38611 0.80341
 C1899 C 0.86808 0.36891 0.81276
 N1900 N 0.88547 0.36015 0.80371
 C1901 C 0.89321 0.39364 0.75753
 C1902 C 0.90021 0.40048 0.74120
 C1903 C 0.90834 0.40846 0.72161
 N1904 N 0.89908 0.42524 0.71208
 N1905 N 0.90632 0.43236 0.69365
 C1906 C 0.92307 0.42295 0.68405
 N1907 N 0.93231 0.40615 0.69373
 N1908 N 0.92507 0.39903 0.71217
 N1909 N 0.39349 0.86812 0.78602
 C1910 C 0.38460 0.88532 0.77688
 N1911 N 0.36735 0.89419 0.78591
 N1912 N 0.35921 0.88608 0.80354
 C1913 C 0.36800 0.86880 0.81279
 N1914 N 0.38534 0.86003 0.80365
 C1915 C 0.39307 0.89373 0.75761
 C1916 C 0.40003 0.90064 0.74130
 C1917 C 0.40813 0.90870 0.72172
 N1918 N 0.39884 0.92548 0.71224
 N1919 N 0.40606 0.93266 0.69382
 C1920 C 0.42282 0.92330 0.68419
 N1921 N 0.43209 0.90650 0.69384
 N1922 N 0.42488 0.89932 0.71226
 N1923 N 0.39323 0.36777 1.28618
 C1924 C 0.38435 0.38494 1.27700
 N1925 N 0.36707 0.39380 1.28599
 N1926 N 0.35891 0.38571 1.30362
 C1927 C 0.36766 0.36842 1.31293
 N1928 N 0.38505 0.35969 1.30380
 C1929 C 0.39285 0.39334 1.25775
 C1930 C 0.39986 0.40024 1.24144
 C1931 C 0.40800 0.40829 1.22188
 N1932 N 0.39875 0.42510 1.21239
 N1933 N 0.40602 0.43227 1.19400
 C1934 C 0.42278 0.42291 1.18439
 N1935 N 0.43202 0.40609 1.19404
 N1936 N 0.42476 0.39890 1.21244
 N1937 N 0.86645 1.10685 0.71455
 C1938 C 0.88373 1.11569 0.72355
 N1939 N 0.89259 1.13288 0.71440
 N1940 N 0.88439 1.14100 0.69681
 C1941 C 0.86699 1.13229 0.68767
 N1942 N 0.85825 1.11499 0.69695
 C1943 C 0.89228 1.10721 0.74276
 C1944 C 0.89933 1.10025 0.75902
 C1945 C 0.90755 1.09212 0.77853
 N1946 N 0.92436 1.10144 0.78793
 N1947 N 0.93169 1.09418 0.80628
 C1948 C 0.92248 1.07734 0.81591
 N1949 N 0.90565 1.06804 0.80634
 N1950 N 0.89831 1.07530 0.78800
 N1951 N 0.86787 0.60602 0.21374
 C1952 C 0.88508 0.61489 0.22283
 N1953 N 0.89396 0.63211 0.21375
 N1954 N 0.88584 0.64023 0.19611
 C1955 C 0.86850 0.63149 0.18688
 N1956 N 0.85976 0.61415 0.19611
 C1957 C 0.89351 0.60645 0.24211
 C1958 C 0.90044 0.59951 0.25843
 C1959 C 0.90850 0.59143 0.27801
 N1960 N 0.92527 0.60075 0.28749
 N1961 N 0.93245 0.59354 0.30592
 C1962 C 0.92313 0.57677 0.31556
 N1963 N 0.90634 0.56748 0.30592
 N1964 N 0.89915 0.57468 0.28749
 N1965 N 0.36911 1.10481 0.21307
 C1966 C 0.38630 1.11373 0.22217
 N1967 N 0.39525 1.13086 0.21299
 N1968 N 0.38722 1.13886 0.19526
 C1969 C 0.36993 1.13004 0.18606
 N1970 N 0.36108 1.11281 0.19534
 C1971 C 0.39461 1.10547 0.24157
 C1972 C 0.40142 1.09870 0.25801
 C1973 C 0.40932 1.09084 0.27774
 N1974 N 0.42596 1.10032 0.28730
 N1975 N 0.43298 1.09332 0.30586
 C1976 C 0.42362 1.07661 0.31557
 N1977 N 0.40697 1.06715 0.30585
 N1978 N 0.39994 1.07414 0.28728
 N1979 N 0.36735 0.60596 0.71424
 C1980 C 0.38461 0.61484 0.72325
 N1981 N 0.39348 0.63202 0.71409
 N1982 N 0.38532 0.64010 0.69645
 C1983 C 0.36797 0.63132 0.68733
 N1984 N 0.35919 0.61405 0.69660
 C1985 C 0.39310 0.60644 0.74252
 C1986 C 0.40008 0.59954 0.75884
 C1987 C 0.40819 0.59150 0.77842
 N1988 N 0.42492 0.60090 0.78790
 N1989 N 0.43214 0.59372 0.80632
 C1990 C 0.42290 0.57691 0.81595
 N1991 N 0.40615 0.56754 0.80631
 N1992 N 0.39892 0.57470 0.78789
 N1993 N 1.13122 0.89472 0.71342
 C1994 C 1.11406 0.88578 0.72257
 N1995 N 1.10518 0.86857 0.71348
 N1996 N 1.11323 0.86051 0.69579
 C1997 C 1.13048 0.86935 0.68654
 N1998 N 1.13926 0.88666 0.69573
 C1999 C 1.10573 0.89413 0.74191
 C2000 C 1.09889 0.90099 0.75830
 C2001 C 1.09095 0.90897 0.77796
 N2002 N 1.07424 0.89960 0.78749
 N2003 N 1.06718 0.90671 0.80599
 C2004 C 1.07657 0.92342 0.81566
 N2005 N 1.09329 0.93277 0.80597
 N2006 N 1.10036 0.92567 0.78746
 N2007 N 1.10710 0.36737 0.21407
 C2008 C 1.11596 0.38455 0.22321
 N2009 N 1.13322 0.39341 0.21421
 N2010 N 1.14140 0.38530 0.19660
 C2011 C 1.13267 0.36799 0.18731
 N2012 N 1.11529 0.35926 0.19646
 C2013 C 1.10743 0.39299 0.24244
 C2014 C 1.10041 0.39994 0.25872
 C2015 C 1.09225 0.40804 0.27825
 N2016 N 1.10149 0.42487 0.28769
 N2017 N 1.09420 0.43210 0.30606
 C2018 C 1.07742 0.42277 0.31568
 N2019 N 1.06820 0.40592 0.30607
 N2020 N 1.07548 0.39868 0.28770
 N2021 N 0.63128 0.89482 0.21358
 C2022 C 0.61410 0.88591 0.22269
 N2023 N 0.60519 0.86872 0.21358
 N2024 N 0.61326 0.86067 0.19590
 C2025 C 0.63053 0.86948 0.18668
 N2026 N 0.63934 0.88676 0.19589
 C2027 C 0.60575 0.89426 0.24203
 C2028 C 0.59890 0.90111 0.25841
 C2029 C 0.59093 0.90907 0.27807
 N2030 N 0.57423 0.89968 0.28759
 N2031 N 0.56715 0.90676 0.30609
 C2032 C 0.57651 0.92349 0.31577
 N2033 N 0.59322 0.93286 0.30609
 N2034 N 0.60031 0.92578 0.28759
 N2035 N 0.60641 0.36817 0.71406
 C2036 C 0.61535 0.38527 0.72329
 N2037 N 0.63265 0.39411 0.71433
 N2038 N 0.64079 0.38606 0.69667
 C2039 C 0.63195 0.36886 0.68734
 N2040 N 0.61456 0.36012 0.69641
 C2041 C 0.60687 0.39363 0.74258
 C2042 C 0.59988 0.40048 0.75891
 C2043 C 0.59175 0.40847 0.77849
 N2044 N 0.60098 0.42527 0.78799
 N2045 N 0.59374 0.43239 0.80641
 C2046 C 0.57700 0.42298 0.81603
 N2047 N 0.56779 0.40616 0.80637
 N2048 N 0.57503 0.39903 0.78795
 N2049 N 1.28693 1.13090 1.10471
 C2050 C 1.27777 1.11375 1.11366
 N2051 N 1.28689 1.10482 1.13084
 N2052 N 1.30462 1.11282 1.13886
 C2053 C 1.31387 1.13006 1.13002
 N2054 N 1.30466 1.13889 1.11274
 C2055 C 1.25838 1.10548 1.10536
 C2056 C 1.24195 1.09869 1.09855
 C2057 C 1.22223 1.09081 1.09065
 N2058 N 1.21271 1.07411 1.10005
 N2059 N 1.19416 1.06710 1.09302
 C2060 C 1.18443 1.07653 1.07636
 N2061 N 1.19412 1.09325 1.06698
 N2062 N 1.21267 1.10027 1.07400
 N2063 N 1.28582 0.63244 0.60633
 C2064 C 1.27674 0.61521 0.61520
 N2065 N 1.28584 0.60633 0.63242
 N2066 N 1.30346 0.61446 0.64054
 C2067 C 1.31268 0.63180 0.63179
 N2068 N 1.30344 0.64055 0.61446
 C2069 C 1.25748 0.60676 0.60675
 C2070 C 1.24118 0.59981 0.59979
 C2071 C 1.22163 0.59171 0.59169
 N2072 N 1.21218 0.57492 0.60100
 N2073 N 1.19379 0.56769 0.59377
 C2074 C 1.18415 0.57699 0.57698
 N2075 N 1.19377 0.59380 0.56768
 N2076 N 1.21216 0.60103 0.57491
 N2077 N 0.78532 1.10688 0.63346
 C2078 C 0.77631 1.11572 0.61618
 N2079 N 0.78545 1.13292 0.60732
 N2080 N 0.80304 1.14104 0.61551
 C2081 C 0.81220 1.13232 0.63290
 N2082 N 0.80292 1.11501 0.64164
 C2083 C 0.75710 1.10725 0.60764
 C2084 C 0.74084 1.10028 0.60060
 C2085 C 0.72134 1.09216 0.59239
 N2086 N 0.71193 1.10148 0.57557
 N2087 N 0.69359 1.09422 0.56824
 C2088 C 0.68397 1.07738 0.57746
 N2089 N 0.69354 1.06807 0.59429
 N2090 N 0.71188 1.07533 0.60162
 N2091 N 0.78607 0.63180 1.10624
 C2092 C 0.77695 0.61460 1.11513
 N2093 N 0.78603 0.60570 1.13235
 N2094 N 0.80368 0.61378 1.14046
 C2095 C 0.81291 0.63107 1.13167
 N2096 N 0.80373 0.63987 1.11436
 C2097 C 0.75765 0.60622 1.10671
 C2098 C 0.74131 0.59932 1.09980
 C2099 C 0.72171 0.59129 1.09176
 N2100 N 0.71222 0.57455 1.10111
 N2101 N 0.69378 0.56739 1.09395
 C2102 C 0.68412 0.57672 1.07718
 N2103 N 0.69377 0.59348 1.06784
 N2104 N 0.71222 0.60064 1.07500
 N2105 N 1.28584 0.86765 0.89373
 C2106 C 1.27675 0.88487 0.88485
 N2107 N 1.28585 0.89375 0.86765
 N2108 N 1.30349 0.88563 0.85955
 C2109 C 1.31271 0.86829 0.86830
 N2110 N 1.30347 0.85953 0.88562
 C2111 C 1.25748 0.89331 0.89329
 C2112 C 1.24117 0.90025 0.90022
 C2113 C 1.22160 0.90834 0.90830
 N2114 N 1.21213 0.92512 0.89897
 N2115 N 1.19372 0.93233 0.90618
 C2116 C 1.18409 0.92302 0.92296
 N2117 N 1.19372 0.90622 0.93226
 N2118 N 1.21213 0.89901 0.92506
 N2119 N 1.28593 0.39377 0.36708
 C2120 C 1.27692 0.38490 0.38434
 N2121 N 1.28609 0.36773 0.39322
 N2122 N 1.30372 0.35965 0.38506
 C2123 C 1.31287 0.36839 0.36768
 N2124 N 1.30356 0.38569 0.35892
 C2125 C 1.25766 0.39330 0.39283
 C2126 C 1.24135 0.40020 0.39982
 C2127 C 1.22179 0.40825 0.40795
 N2128 N 1.21233 0.39887 0.42470
 N2129 N 1.19393 0.40606 0.43194
 C2130 C 1.18429 0.42288 0.42270
 N2131 N 1.19391 0.43224 0.40593
 N2132 N 1.21231 0.42506 0.39868
 N2133 N 0.78643 0.89471 0.36870
 C2134 C 0.77730 0.88578 0.38587
 N2135 N 0.78643 0.86858 0.39478
 N2136 N 0.80413 0.86055 0.38673
 C2137 C 0.81336 0.86939 0.36947
 N2138 N 0.80413 0.88668 0.36066
 C2139 C 0.75795 0.89410 0.39421
 C2140 C 0.74156 0.90094 0.40105
 C2141 C 0.72189 0.90890 0.40901
 N2142 N 0.71236 0.89950 0.42570
 N2143 N 0.69386 0.90659 0.43278
 C2144 C 0.68419 0.92333 0.42342
 N2145 N 0.69388 0.93272 0.40671
 N2146 N 0.71238 0.92563 0.39963
 N2147 N 0.78593 0.36774 0.89377
 C2148 C 0.77678 0.38492 0.88487
 N2149 N 0.78583 0.39380 0.86764
 N2150 N 0.80348 0.38571 0.85952
 C2151 C 0.81277 0.36842 0.86829
 N2152 N 0.80358 0.35967 0.88564
 C2153 C 0.75750 0.39331 0.89333
 C2154 C 0.74118 0.40021 0.90029
 C2155 C 0.72160 0.40825 0.90840
 N2156 N 0.71211 0.42504 0.89912
 N2157 N 0.69370 0.43222 0.90637
 C2158 C 0.68409 0.42286 0.92314
 N2159 N 0.69374 0.40606 0.93240
 N2160 N 0.71215 0.39888 0.92516
 N2161 N 0.71350 0.89477 1.13145
 C2162 C 0.72264 0.88585 1.11428
 N2163 N 0.71354 0.86865 1.10538
 N2164 N 0.69584 0.86060 1.11343
 C2165 C 0.68660 0.86943 1.13068
 N2166 N 0.69581 0.88672 1.13949
 C2167 C 0.74199 0.89419 1.10595
 C2168 C 0.75838 0.90104 1.09911
 C2169 C 0.77804 0.90900 1.09115
 N2170 N 0.78756 0.89960 1.07445
 N2171 N 0.80606 0.90669 1.06737
 C2172 C 0.81574 0.92342 1.07673
 N2173 N 0.80605 0.93279 1.09345
 N2174 N 0.78755 0.92571 1.10054
 N2175 N 0.71416 0.39370 0.63239
 C2176 C 0.72319 0.38482 0.61515
 N2177 N 0.71403 0.36766 0.60626
 N2178 N 0.69638 0.35960 0.61440
 C2179 C 0.68721 0.36835 0.63176
 N2180 N 0.69651 0.38563 0.64052
 C2181 C 0.74246 0.39321 0.60668
 C2182 C 0.75878 0.40010 0.59970
 C2183 C 0.77835 0.40814 0.59159
 N2184 N 0.78782 0.39877 0.57484
 N2185 N 0.80623 0.40595 0.56761
 C2186 C 0.81586 0.42276 0.57686
 N2187 N 0.80624 0.43211 0.59362
 N2188 N 0.78783 0.42493 0.60086
 N2189 N 0.21335 0.89480 0.63129
 C2190 C 0.22251 0.88589 0.61412
 N2191 N 0.21345 0.86868 0.60522
 N2192 N 0.19576 0.86060 0.61326
 C2193 C 0.18650 0.86941 0.63052
 N2194 N 0.19567 0.88671 0.63932
 C2195 C 0.24185 0.89427 0.60580
 C2196 C 0.25823 0.90115 0.59897
 C2197 C 0.27788 0.90914 0.59102
 N2198 N 0.28739 0.89979 0.57429
 N2199 N 0.30589 0.90690 0.56721
 C2200 C 0.31557 0.92360 0.57661
 N2201 N 0.30589 0.93294 0.59335
 N2202 N 0.28739 0.92584 0.60043
 N2203 N 0.21433 0.39343 1.13314
 C2204 C 0.22335 0.38458 1.11588
 N2205 N 0.21422 0.36739 1.10702
 N2206 N 0.19661 0.35927 1.11519
 C2207 C 0.18745 0.36800 1.13257
 N2208 N 0.19673 0.38531 1.14131
 C2209 C 0.24258 0.39302 1.10737
 C2210 C 0.25886 0.39998 1.10037
 C2211 C 0.27839 0.40808 1.09221
 N2212 N 0.28783 0.39876 1.07542
 N2213 N 0.30620 0.40600 1.06815
 C2214 C 0.31582 0.42282 1.07740
 N2215 N 0.30622 0.43212 1.09421
 N2216 N 0.28785 0.42489 1.10148
 N2217 N 0.71389 1.10619 0.86782
 C2218 C 0.72297 1.11505 0.88505
 N2219 N 0.71384 1.13223 0.89395
 N2220 N 0.69618 1.14031 0.88585
 C2221 C 0.68696 1.13157 0.86850
 N2222 N 0.69623 1.11428 0.85972
 C2223 C 0.74226 1.10665 0.89347
 C2224 C 0.75860 1.09974 0.90040
 C2225 C 0.77819 1.09170 0.90846
 N2226 N 0.78768 1.10106 0.92520
 N2227 N 0.80612 1.09388 0.93239
 C2228 C 0.81575 1.07709 0.92310
 N2229 N 0.80610 1.06775 0.90634
 N2230 N 0.78767 1.07492 0.89915
 N2231 N 0.71384 0.63169 0.39378
 C2232 C 0.72295 0.61450 0.38488
 N2233 N 0.71387 0.60562 0.36766
 N2234 N 0.69622 0.61372 0.35956
 C2235 C 0.68699 0.63100 0.36836
 N2236 N 0.69618 0.63978 0.38567
 C2237 C 0.74225 0.60609 0.39329
 C2238 C 0.75859 0.59919 0.40020
 C2239 C 0.77820 0.59116 0.40825
 N2240 N 0.78770 0.57442 0.39890
 N2241 N 0.80615 0.56727 0.40607
 C2242 C 0.81579 0.57660 0.42283
 N2243 N 0.80613 0.59335 0.43216
 N2244 N 0.78768 0.60051 0.42500
 N2245 N 0.21439 1.10654 0.36672
 C2246 C 0.22338 1.11541 0.38399
 N2247 N 0.21420 1.13258 0.39285
 N2248 N 0.19659 1.14067 0.38465
 C2249 C 0.18746 1.13194 0.36725
 N2250 N 0.19678 1.11464 0.35852
 C2251 C 0.24261 1.10699 0.39253
 C2252 C 0.25890 1.10007 0.39957
 C2253 C 0.27844 1.09201 0.40776
 N2254 N 0.28787 1.10140 0.42452
 N2255 N 0.30625 1.09419 0.43183
 C2256 C 0.31588 1.07735 0.42264
 N2257 N 0.30629 1.06798 0.40586
 N2258 N 0.28792 1.07518 0.39855
 N2259 N 0.21336 0.60509 0.86877
 C2260 C 0.22246 0.61401 0.88596
 N2261 N 0.21332 0.63119 0.89486
 N2262 N 0.19563 0.63923 0.88679
 C2263 C 0.18642 0.63041 0.86951
 N2264 N 0.19566 0.61314 0.86071
 C2265 C 0.24181 0.60568 0.89431
 C2266 C 0.25820 0.59885 0.90117
 C2267 C 0.27788 0.59091 0.90913
 N2268 N 0.28739 0.60030 0.92584
 N2269 N 0.30590 0.59323 0.93292
 C2270 C 0.31560 0.57652 0.92355
 N2271 N 0.30593 0.56715 0.90682
 N2272 N 0.28741 0.57421 0.89974
 N2273 N 1.10668 1.28578 1.13263
 C2274 C 1.11554 1.27670 1.11539
 N2275 N 1.13278 1.28576 1.10654
 N2276 N 1.14094 1.30336 1.11471
 C2277 C 1.13218 1.31253 1.13203
 N2278 N 1.11484 1.30337 1.14078
 C2279 C 1.10705 1.25748 1.10690
 C2280 C 1.10006 1.24121 1.09993
 C2281 C 1.09193 1.22168 1.09181
 N2282 N 1.10120 1.21223 1.07499
 N2283 N 1.09394 1.19386 1.06776
 C2284 C 1.07716 1.18424 1.07707
 N2285 N 1.06790 1.19384 1.09390
 N2286 N 1.07515 1.21222 1.10114
 N2287 N 1.10524 0.78635 0.63130
 C2288 C 1.11417 0.77724 0.61413
 N2289 N 1.13134 0.78637 0.60521
 N2290 N 1.13938 0.80407 0.61326
 C2291 C 1.13055 0.81329 0.63053
 N2292 N 1.11328 0.80406 0.63935
 C2293 C 1.10584 0.75789 0.60578
 C2294 C 1.09899 0.74150 0.59893
 C2295 C 1.09104 0.72184 0.59096
 N2296 N 1.10042 0.71234 0.57425
 N2297 N 1.09334 0.69384 0.56715
 C2298 C 1.07662 0.68415 0.57652
 N2299 N 1.06726 0.69382 0.59325
 N2300 N 1.07434 0.71231 0.60035
 N2301 N 0.60626 1.28626 0.63191
 C2302 C 0.61513 1.27711 0.61472
 N2303 N 0.63239 1.28611 0.60585
 N2304 N 0.64057 1.30372 0.61395
 C2305 C 0.63180 1.31298 0.63123
 N2306 N 0.61445 1.30387 0.64001
 C2307 C 0.60663 1.25785 0.60633
 C2308 C 0.59966 1.24154 0.59943
 C2309 C 0.59156 1.22197 0.59140
 N2310 N 0.60087 1.21247 0.57463
 N2311 N 0.59366 1.19405 0.56748
 C2312 C 0.57690 1.18442 0.57683
 N2313 N 0.56761 1.19408 0.59361
 N2314 N 0.57481 1.21251 0.60077
 N2315 N 0.60524 0.78649 1.13148
 C2316 C 0.61417 0.77734 1.11432
 N2317 N 0.63136 0.78645 1.10541
 N2318 N 0.63941 0.80415 1.11345
 C2319 C 0.63058 0.81339 1.13070
 N2320 N 0.61329 0.80419 1.13951
 C2321 C 0.60583 0.75799 1.10600
 C2322 C 0.59898 0.74160 1.09917
 C2323 C 0.59102 0.72193 1.09122
 N2324 N 0.60040 0.71240 1.07452
 N2325 N 0.59331 0.69390 1.06745
 C2326 C 0.57659 0.68423 1.07683
 N2327 N 0.56722 0.69392 1.09355
 N2328 N 0.57431 0.71243 1.10062
 N2329 N 0.89369 1.28626 0.86819
 C2330 C 0.88481 1.27709 0.88536
 N2331 N 0.86753 1.28609 0.89422
 N2332 N 0.85936 1.30372 0.88612
 C2333 C 0.86815 1.31299 0.86886
 N2334 N 0.88552 1.30389 0.86010
 C2335 C 0.89328 1.25782 0.89374
 C2336 C 0.90026 1.24149 0.90063
 C2337 C 0.90835 1.22190 0.90864
 N2338 N 0.89909 1.21241 0.92543
 N2339 N 0.90630 1.19397 0.93256
 C2340 C 0.92302 1.18432 0.92316
 N2341 N 0.93227 1.19397 0.90635
 N2342 N 0.92506 1.21242 0.89921
 N2343 N 0.86866 0.78640 0.39472
 C2344 C 0.88585 0.77730 0.38581
 N2345 N 0.89478 0.78647 0.36865
 N2346 N 0.88672 0.80418 0.36063
 C2347 C 0.86943 0.81337 0.36945
 N2348 N 0.86060 0.80411 0.38669
 C2349 C 0.89420 0.75794 0.39412
 C2350 C 0.90105 0.74154 0.40093
 C2351 C 0.90901 0.72186 0.40885
 N2352 N 0.92571 0.71234 0.39944
 N2353 N 0.93278 0.69382 0.40649
 C2354 C 0.92342 0.68412 0.42320
 N2355 N 0.90671 0.69379 0.43260
 N2356 N 0.89962 0.71231 0.42555
 N2357 N 0.39371 1.28621 0.36762
 C2358 C 0.38484 1.27711 0.38484
 N2359 N 0.36759 1.28617 0.39370
 N2360 N 0.35944 1.30378 0.38555
 C2361 C 0.36821 1.31298 0.36824
 N2362 N 0.38554 1.30381 0.35948
 C2363 C 0.39331 1.25786 0.39330
 C2364 C 0.40027 1.24156 0.40024
 C2365 C 0.40836 1.22200 0.40833
 N2366 N 0.39903 1.21252 0.42509
 N2367 N 0.40623 1.19410 0.43229
 C2368 C 0.42303 1.18447 0.42300
 N2369 N 0.43234 1.19411 0.40622
 N2370 N 0.42514 1.21253 0.39901
 N2371 N 0.36735 0.78583 0.89413
 C2372 C 0.38461 0.77681 0.88526
 N2373 N 0.39349 0.78598 0.86809
 N2374 N 0.38534 0.80362 0.86001
 C2375 C 0.36799 0.81274 0.86878
 N2376 N 0.35920 0.80347 0.88604
 C2377 C 0.39308 0.75754 0.89366
 C2378 C 0.40005 0.74122 0.90057
 C2379 C 0.40815 0.72164 0.90861
 N2380 N 0.42490 0.71217 0.89924
 N2381 N 0.43212 0.69375 0.90643
 C2382 C 0.42286 0.68411 0.92323
 N2383 N 0.40609 0.69374 0.93258
 N2384 N 0.39887 0.71216 0.92540
 N2385 N 1.13116 0.71337 0.89476
 C2386 C 1.11399 0.72251 0.88582
 N2387 N 1.10509 0.71341 0.86862
 N2388 N 1.11314 0.69570 0.86059
 C2389 C 1.13039 0.68646 0.86943
 N2390 N 1.13920 0.69567 0.88672
 C2391 C 1.10567 0.74187 0.89415
 C2392 C 1.09884 0.75827 0.90099
 C2393 C 1.09091 0.77794 0.90895
 N2394 N 1.07422 0.78749 0.89956
 N2395 N 1.06716 0.80600 0.90665
 C2396 C 1.07655 0.81566 0.92337
 N2397 N 1.09326 0.80595 0.93274
 N2398 N 1.10032 0.78744 0.92566
 N2399 N 1.10668 0.21417 0.36714
 C2400 C 1.11553 0.22322 0.38440
 N2401 N 1.13275 0.21412 0.39326
 N2402 N 1.14091 0.19653 0.38509
 C2403 C 1.13216 0.18738 0.36775
 N2404 N 1.11484 0.19658 0.35898
 C2405 C 1.10705 0.24244 0.39289
 C2406 C 1.10009 0.25873 0.39987
 C2407 C 1.09199 0.27826 0.40800
 N2408 N 1.10131 0.28771 0.42479
 N2409 N 1.09408 0.30610 0.43203
 C2410 C 1.07728 0.31573 0.42274
 N2411 N 1.06798 0.30613 0.40594
 N2412 N 1.07520 0.28774 0.39870
 N2413 N 0.60568 0.71400 0.36776
 C2414 C 0.61459 0.72302 0.38500
 N2415 N 0.63177 0.71385 0.39387
 N2416 N 0.63983 0.69620 0.38573
 C2417 C 0.63102 0.68707 0.36841
 N2418 N 0.61374 0.69634 0.35963
 C2419 C 0.60622 0.74231 0.39346
 C2420 C 0.59934 0.75865 0.40040
 C2421 C 0.59132 0.77824 0.40848
 N2422 N 0.60071 0.78771 0.42522
 N2423 N 0.59355 0.80615 0.43241
 C2424 C 0.57676 0.81580 0.42313
 N2425 N 0.56740 0.80617 0.40637
 N2426 N 0.57455 0.78774 0.39917
 N2427 N 0.63224 0.21389 0.89446
 C2428 C 0.61498 0.22292 0.88560
 N2429 N 0.60609 0.21378 0.86842
 N2430 N 0.61424 0.19615 0.86032
 C2431 C 0.63160 0.18702 0.86908
 N2432 N 0.64039 0.19627 0.88636
 C2433 C 0.60651 0.24219 0.89400
 C2434 C 0.59956 0.25851 0.90090
 C2435 C 0.59147 0.27810 0.90892
 N2436 N 0.57473 0.28757 0.89954
 N2437 N 0.56753 0.30600 0.90669
 C2438 C 0.57683 0.31567 0.92346
 N2439 N 0.59359 0.30603 0.93282
 N2440 N 0.60079 0.28760 0.92568
 N2441 N 0.89427 0.71397 1.13232
 C2442 C 0.88537 0.72303 1.11509
 N2443 N 0.86818 0.71390 1.10620
 N2444 N 0.86011 0.69625 1.11433
 C2445 C 0.86892 0.68708 1.13165
 N2446 N 0.88620 0.69632 1.14044
 C2447 C 0.89375 0.74232 1.10665
 C2448 C 0.90064 0.75866 1.09971
 C2449 C 0.90867 0.77825 1.09164
 N2450 N 0.89929 0.78774 1.07491
 N2451 N 0.90645 0.80618 1.06772
 C2452 C 0.92324 0.81582 1.07701
 N2453 N 0.93259 0.80617 1.09377
 N2454 N 0.92544 0.78773 1.10096
 N2455 N 0.86695 0.21451 0.60683
 C2456 C 0.88422 0.22354 0.61567
 N2457 N 0.89307 0.21446 0.63292
 N2458 N 0.88487 0.19690 0.64110
 C2459 C 0.86751 0.18775 0.63236
 N2460 N 0.85876 0.19694 0.61502
 C2461 C 0.89276 0.24273 0.60715
 C2462 C 0.89978 0.25898 0.60014
 C2463 C 0.90797 0.27847 0.59197
 N2464 N 0.92479 0.28789 0.60126
 N2465 N 0.93209 0.30623 0.59397
 C2466 C 0.92284 0.31584 0.57713
 N2467 N 0.90601 0.30625 0.56786
 N2468 N 0.89871 0.28791 0.57514
 N2469 N 0.36726 0.71428 0.60600
 C2470 C 0.38452 0.72329 0.61487
 N2471 N 0.39342 0.71412 0.63204
 N2472 N 0.38527 0.69647 0.64011
 C2473 C 0.36792 0.68736 0.63134
 N2474 N 0.35912 0.69663 0.61408
 C2475 C 0.39299 0.74256 0.60648
 C2476 C 0.39996 0.75888 0.59959
 C2477 C 0.40806 0.77846 0.59156
 N2478 N 0.42480 0.78793 0.60096
 N2479 N 0.43202 0.80635 0.59379
 C2480 C 0.42276 0.81600 0.57698
 N2481 N 0.40601 0.80637 0.56760
 N2482 N 0.39878 0.78795 0.57477
 N2483 N 0.39525 0.21297 1.13082
 C2484 C 0.38631 0.22213 1.11366
 N2485 N 0.36913 0.21302 1.10473
 N2486 N 0.36111 0.19530 1.11274
 C2487 C 0.36995 0.18604 1.12999
 N2488 N 0.38722 0.19525 1.13882
 C2489 C 0.39460 0.24152 1.10539
 C2490 C 0.40141 0.25796 1.09861
 C2491 C 0.40930 0.27768 1.09075
 N2492 N 0.39988 0.28724 1.07408
 N2493 N 0.40689 0.30581 1.06710
 C2494 C 0.42356 0.31551 1.07654
 N2495 N 0.43296 0.30579 1.09322
 N2496 N 0.42595 0.28722 1.10021
 N2497 N 1.13150 1.10604 0.71361
 C2498 C 1.11436 1.11495 0.72280
 N2499 N 1.10548 1.13221 0.71377
 N2500 N 1.11353 1.14033 0.69611
 C2501 C 1.13077 1.13151 0.68682
 N2502 N 1.13955 1.11416 0.69595
 C2503 C 1.10601 1.10652 0.74210
 C2504 C 1.09916 1.09958 0.75846
 C2505 C 1.09118 1.09152 0.77807
 N2506 N 1.07439 1.10081 0.78756
 N2507 N 1.06728 1.09364 0.80602
 C2508 C 1.07669 1.07692 0.81569
 N2509 N 1.09349 1.06765 0.80604
 N2510 N 1.10061 1.07483 0.78758
 N2511 N 1.10661 0.63326 0.21431
 C2512 C 1.11546 0.61597 0.22330
 N2513 N 1.13264 0.60711 0.21415
 N2514 N 1.14076 0.61532 0.19655
 C2515 C 1.13204 0.63273 0.18742
 N2516 N 1.11474 0.64146 0.19672
 C2517 C 1.10701 0.60741 0.24251
 C2518 C 1.10007 0.60036 0.25878
 C2519 C 1.09198 0.59214 0.27829
 N2520 N 1.10136 0.57536 0.28772
 N2521 N 1.09413 0.56803 0.30607
 C2522 C 1.07727 0.57721 0.31569
 N2523 N 1.06791 0.59400 0.30610
 N2524 N 1.07513 0.60133 0.28775
 N2525 N 0.63173 1.10612 0.21383
 C2526 C 0.61456 1.11501 0.22299
 N2527 N 0.60567 1.13226 0.21395
 N2528 N 0.61374 1.14039 0.19630
 C2529 C 0.63100 1.13160 0.18704
 N2530 N 0.63979 1.11426 0.19618
 C2531 C 0.60619 1.10657 0.24228
 C2532 C 0.59932 1.09964 0.25863
 C2533 C 0.59131 1.09159 0.27824
 N2534 N 0.57457 1.10093 0.28774
 N2535 N 0.56744 1.09377 0.30619
 C2536 C 0.57679 1.07702 0.31584
 N2537 N 0.59355 1.06769 0.30618
 N2538 N 0.60069 1.07485 0.28772
 N2539 N 0.60536 0.63137 0.71374
 C2540 C 0.61429 0.61419 0.72287
 N2541 N 0.63148 0.60529 0.71376
 N2542 N 0.63954 0.61335 0.69607
 C2543 C 0.63071 0.63062 0.68684
 N2544 N 0.61342 0.63943 0.69605
 C2545 C 0.60594 0.60584 0.74220
 C2546 C 0.59907 0.59899 0.75859
 C2547 C 0.59108 0.59103 0.77824
 N2548 N 0.60045 0.57431 0.78776
 N2549 N 0.59333 0.56722 0.80625
 C2550 C 0.57661 0.57660 0.81592
 N2551 N 0.56726 0.59334 0.80623
 N2552 N 0.57437 0.60043 0.78774
 N2553 N 0.86858 0.89460 0.71350
 C2554 C 0.88574 0.88567 0.72266
 N2555 N 0.89463 0.86844 0.71359
 N2556 N 0.88657 0.86038 0.69590
 C2557 C 0.86933 0.86921 0.68664
 N2558 N 0.86054 0.88653 0.69581
 C2559 C 0.89407 0.89404 0.74200
 C2560 C 0.90091 0.90092 0.75838
 C2561 C 0.90886 0.90892 0.77803
 N2562 N 0.92559 0.89957 0.78756
 N2563 N 0.93266 0.90669 0.80605
 C2564 C 0.92326 0.92341 0.81571
 N2565 N 0.90652 0.93274 0.80602
 N2566 N 0.89944 0.92562 0.78753
 N2567 N 0.89474 0.36783 0.21353
 C2568 C 0.88587 0.38509 0.22256
 N2569 N 0.86870 0.39399 0.21339
 N2570 N 0.86062 0.38586 0.19575
 C2571 C 0.86939 0.36852 0.18662
 N2572 N 0.88665 0.35971 0.19588
 C2573 C 0.89423 0.39351 0.24185
 C2574 C 0.90110 0.40044 0.25820
 C2575 C 0.90907 0.40849 0.27782
 N2576 N 0.89964 0.42519 0.28731
 N2577 N 0.90674 0.43234 0.30578
 C2578 C 0.92352 0.42305 0.31546
 N2579 N 0.93293 0.40634 0.30581
 N2580 N 0.92583 0.39918 0.28734
 N2581 N 0.39423 0.86763 0.21410
 C2582 C 0.38537 0.88493 0.22306
 N2583 N 0.36823 0.89384 0.21383
 N2584 N 0.36018 0.88567 0.19619
 C2585 C 0.36894 0.86828 0.18713
 N2586 N 0.38617 0.85947 0.19646
 C2587 C 0.39372 0.89342 0.24234
 C2588 C 0.40058 0.90040 0.25867
 C2589 C 0.40857 0.90851 0.27826
 N2590 N 0.39916 0.92524 0.28771
 N2591 N 0.40629 0.93245 0.30615
 C2592 C 0.42308 0.92319 0.31583
 N2593 N 0.43247 0.90644 0.30622
 N2594 N 0.42534 0.89922 0.28778
 N2595 N 0.39448 0.36781 0.71394
 C2596 C 0.38560 0.38507 0.72295
 N2597 N 0.36846 0.39399 0.71374
 N2598 N 0.36043 0.38588 0.69607
 C2599 C 0.36921 0.36853 0.68696
 N2600 N 0.38644 0.35970 0.69627
 C2601 C 0.39393 0.39349 0.74227
 C2602 C 0.40077 0.40042 0.75862
 C2603 C 0.40874 0.40847 0.77825
 N2604 N 0.39932 0.42519 0.78773
 N2605 N 0.40643 0.43236 0.80619
 C2606 C 0.42320 0.42307 0.81587
 N2607 N 0.43260 0.40634 0.80623
 N2608 N 0.42550 0.39917 0.78777
 N2609 N 1.10613 0.86779 1.28609
 C2610 C 1.11500 0.88502 1.27703
 N2611 N 1.13218 0.89391 1.28616
 N2612 N 1.14027 0.88579 1.30381
 C2613 C 1.13153 0.86844 1.31301
 N2614 N 1.11423 0.85967 1.30374
 C2615 C 1.10660 0.89346 1.25774
 C2616 C 1.09970 0.90040 1.24141
 C2617 C 1.09165 0.90847 1.22182
 N2618 N 1.10101 0.92521 1.21233
 N2619 N 1.09384 0.93240 1.19390
 C2620 C 1.07706 0.92310 1.18425
 N2621 N 1.06772 0.90634 1.19390
 N2622 N 1.07489 0.89915 1.21233
 N2623 N 1.13223 0.39388 0.78601
 C2624 C 1.11504 0.38499 0.77690
 N2625 N 1.10614 0.36781 0.78601
 N2626 N 1.11422 0.35972 0.80368
 C2627 C 1.13153 0.36848 0.81293
 N2628 N 1.14031 0.38579 0.80368
 C2629 C 1.10664 0.39339 0.75759
 C2630 C 1.09973 0.40029 0.74124
 C2631 C 1.09169 0.40832 0.72163
 N2632 N 1.07493 0.39898 0.71216
 N2633 N 1.06775 0.40614 0.69371
 C2634 C 1.07707 0.42290 0.68405
 N2635 N 1.09385 0.43222 0.69368
 N2636 N 1.10103 0.42507 0.71213
 N2637 N 0.63132 0.89467 0.78648
 C2638 C 0.61414 0.88576 0.77735
 N2639 N 0.60525 0.86856 0.78646
 N2640 N 0.61331 0.86050 0.80415
 C2641 C 0.63058 0.86932 0.81338
 N2642 N 0.63938 0.88660 0.80417
 C2643 C 0.60579 0.89412 0.75801
 C2644 C 0.59893 0.90099 0.74163
 C2645 C 0.59096 0.90897 0.72198
 N2646 N 0.57424 0.89961 0.71247
 N2647 N 0.56714 0.90673 0.69397
 C2648 C 0.57652 0.92344 0.68429
 N2649 N 0.59326 0.93278 0.69397
 N2650 N 0.60036 0.92568 0.71246
 N2651 N 0.63254 0.39295 1.28601
 C2652 C 0.61532 0.38411 1.27691
 N2653 N 0.60647 0.36686 1.28594
 N2654 N 0.61461 0.35868 1.30354
 C2655 C 0.63195 0.36739 1.31279
 N2656 N 0.64068 0.38476 1.30361
 C2657 C 0.60685 0.39263 1.25768
 C2658 C 0.59989 0.39965 1.24141
 C2659 C 0.59178 0.40782 1.22188
 N2660 N 0.57496 0.39857 1.21242
 N2661 N 0.56773 0.40587 1.19405
 C2662 C 0.57705 0.42266 1.18444
 N2663 N 0.59388 0.43189 1.19407
 N2664 N 0.60112 0.42460 1.21244
 N2665 N 0.89516 1.13093 1.28686
 C2666 C 0.88622 1.11378 1.27771
 N2667 N 0.86902 1.10488 1.28681
 N2668 N 0.86099 1.11292 1.30452
 C2669 C 0.86983 1.13016 1.31377
 N2670 N 0.88712 1.13896 1.30457
 C2671 C 0.89454 1.10548 1.25834
 C2672 C 0.90136 1.09868 1.24193
 C2673 C 0.90930 1.09078 1.22223
 N2674 N 0.89989 1.07411 1.21268
 N2675 N 0.90694 1.06710 1.19414
 C2676 C 0.92364 1.07650 1.18446
 N2677 N 0.93303 1.09319 1.19418
 N2678 N 0.92598 1.10021 1.21272
 N2679 N 0.89445 0.63146 0.78616
 C2680 C 0.88554 0.61427 0.77707
 N2681 N 0.86836 0.60536 0.78620
 N2682 N 0.86031 0.61343 0.80388
 C2683 C 0.86912 0.63072 0.81308
 N2684 N 0.88639 0.63953 0.80385
 C2685 C 0.89389 0.60589 0.75774
 C2686 C 0.90075 0.59902 0.74137
 C2687 C 0.90874 0.59102 0.72173
 N2688 N 0.89936 0.57431 0.71222
 N2689 N 0.90648 0.56719 0.69375
 C2690 C 0.92323 0.57653 0.68408
 N2691 N 0.93258 0.59326 0.69375
 N2692 N 0.92547 0.60039 0.71223
 N2693 N 0.36811 1.10650 0.78607
 C2694 C 0.38526 1.11541 0.77690
 N2695 N 0.39411 1.13268 0.78591
 N2696 N 0.38604 1.14081 0.80356
 C2697 C 0.36880 1.13199 0.81284
 N2698 N 0.36004 1.11463 0.80372
 C2699 C 0.39363 1.10696 0.75761
 C2700 C 0.40051 1.10000 0.74128
 C2701 C 0.40852 1.09191 0.72169
 N2702 N 0.42530 1.10119 0.71220
 N2703 N 0.43244 1.09397 0.69377
 C2704 C 0.42306 1.07723 0.68413
 N2705 N 0.40627 1.06797 0.69379
 N2706 N 0.39912 1.07518 0.71222
 N2707 N 0.36844 0.60610 1.28651
 C2708 C 0.38556 0.61502 1.27729
 N2709 N 0.39440 0.63233 1.28625
 N2710 N 0.38633 0.64048 1.30389
 C2711 C 0.36912 0.63165 1.31321
 N2712 N 0.36038 0.61426 1.30415
 C2713 C 0.39390 0.60655 1.25800
 C2714 C 0.40075 0.59958 1.24166
 C2715 C 0.40872 0.59148 1.22206
 N2716 N 0.42550 0.60074 1.21255
 N2717 N 0.43259 0.59353 1.19410
 C2718 C 0.42317 0.57681 1.18447
 N2719 N 0.40638 0.56757 1.19415
 N2720 N 0.39928 0.57477 1.21260
 N2721 N 1.13162 1.28626 0.89379
 C2722 C 1.11447 1.27709 0.88487
 N2723 N 1.10562 1.28610 0.86759
 N2724 N 1.11371 1.30374 0.85946
 C2725 C 1.13095 1.31301 0.86828
 N2726 N 1.13970 1.30390 0.88565
 C2727 C 1.10609 1.25781 0.89332
 C2728 C 1.09920 1.24147 0.90027
 C2729 C 1.09120 1.22188 0.90835
 N2730 N 1.07445 1.21237 0.89902
 N2731 N 1.06731 1.19393 0.90622
 C2732 C 1.07667 1.18430 0.92298
 N2733 N 1.09344 1.19397 0.93229
 N2734 N 1.10058 1.21241 0.92510
 N2735 N 1.13182 0.78604 0.39371
 C2736 C 1.11466 0.77687 0.38480
 N2737 N 1.10579 0.78591 0.36754
 N2738 N 1.11385 0.80357 0.35943
 C2739 C 1.13109 0.81284 0.36825
 N2740 N 1.13988 0.80370 0.38559
 C2741 C 1.10630 0.75757 0.39323
 C2742 C 1.09942 0.74123 0.40016
 C2743 C 1.09142 0.72162 0.40823
 N2744 N 1.07467 0.71212 0.39890
 N2745 N 1.06753 0.69368 0.40609
 C2746 C 1.07688 0.68404 0.42286
 N2747 N 1.09365 0.69371 0.43216
 N2748 N 1.10079 0.71215 0.42498
 N2749 N 0.63267 1.28584 0.39312
 C2750 C 0.61545 1.27673 0.38428
 N2751 N 0.60656 1.28576 0.36704
 N2752 N 0.61468 1.30336 0.35886
 C2753 C 0.63202 1.31262 0.36756
 N2754 N 0.64078 1.30344 0.38492
 C2755 C 0.60701 1.25750 0.39281
 C2756 C 0.60006 1.24122 0.39983
 C2757 C 0.59195 1.22170 0.40799
 N2758 N 0.57512 1.21226 0.39875
 N2759 N 0.56789 1.19389 0.40603
 C2760 C 0.57722 1.18427 0.42282
 N2761 N 0.59407 1.19387 0.43204
 N2762 N 0.60131 1.21224 0.42476
 N2763 N 0.60530 0.78633 0.86867
 C2764 C 0.61422 0.77722 0.88586
 N2765 N 0.63140 0.78635 0.89478
 N2766 N 0.63944 0.80404 0.88671
 C2767 C 0.63062 0.81326 0.86943
 N2768 N 0.61335 0.80403 0.86061
 C2769 C 0.60589 0.75788 0.89422
 C2770 C 0.59904 0.74150 0.90108
 C2771 C 0.59107 0.72185 0.90906
 N2772 N 0.60047 0.71232 0.92576
 N2773 N 0.59337 0.69382 0.93286
 C2774 C 0.57662 0.68417 0.92352
 N2775 N 0.56724 0.69386 0.90680
 N2776 N 0.57433 0.71235 0.89970
 N2777 N 0.86807 1.28625 1.10579
 C2778 C 0.88529 1.27717 1.11467
 N2779 N 0.89421 1.28630 1.13183
 N2780 N 0.88613 1.30396 1.13991
 C2781 C 0.86879 1.31319 1.13116
 N2782 N 0.85999 1.30392 1.11388
 C2783 C 0.89368 1.25786 1.10629
 C2784 C 0.90059 1.24150 1.09941
 C2785 C 0.90862 1.22189 1.09140
 N2786 N 0.92536 1.21239 1.10078
 N2787 N 0.93252 1.19394 1.09364
 C2788 C 0.92320 1.18428 1.07688
 N2789 N 0.90645 1.19394 1.06752
 N2790 N 0.89928 1.21239 1.07466
 N2791 N 0.86848 0.78625 0.60527
 C2792 C 0.88565 0.77710 0.61419
 N2793 N 0.89457 0.78619 0.63138
 N2794 N 0.88653 0.80389 0.63944
 C2795 C 0.86927 0.81314 0.63062
 N2796 N 0.86045 0.80395 0.61334
 C2797 C 0.89398 0.75775 0.60583
 C2798 C 0.90082 0.74137 0.59896
 C2799 C 0.90878 0.72172 0.59098
 N2800 N 0.92551 0.71220 0.60034
 N2801 N 0.93261 0.69372 0.59323
 C2802 C 0.92322 0.68404 0.57651
 N2803 N 0.90648 0.69372 0.56716
 N2804 N 0.89938 0.71221 0.57427
 N2805 N 0.36809 1.28644 0.60593
 C2806 C 0.38526 1.27729 0.61484
 N2807 N 0.39414 1.28635 0.63206
 N2808 N 0.38606 1.30401 0.64016
 C2809 C 0.36877 1.31329 0.63138
 N2810 N 0.36002 1.30409 0.61404
 C2811 C 0.39365 1.25799 0.60642
 C2812 C 0.40053 1.24165 0.59949
 C2813 C 0.40853 1.22204 0.59144
 N2814 N 0.42530 1.21254 0.60075
 N2815 N 0.43244 1.19410 0.59357
 C2816 C 0.42307 1.18445 0.57683
 N2817 N 0.40628 1.19411 0.56753
 N2818 N 0.39914 1.21256 0.57471
 N2819 N 0.39384 0.78598 1.13241
 C2820 C 0.38496 0.77688 1.11520
 N2821 N 0.36777 0.78600 1.10630
 N2822 N 0.35968 0.80366 1.11438
 C2823 C 0.36844 0.81290 1.13170
 N2824 N 0.38575 0.80365 1.14048
 C2825 C 0.39337 0.75759 1.10680
 C2826 C 0.40028 0.74125 1.09989
 C2827 C 0.40833 0.72166 1.09183
 N2828 N 0.39898 0.71219 1.07507
 N2829 N 0.40617 0.69376 1.06788
 C2830 C 0.42295 0.68411 1.07720
 N2831 N 0.43227 0.69374 1.09397
 N2832 N 0.42509 0.71217 1.10116
 N2833 N 0.89448 0.71368 0.86834
 C2834 C 0.88559 0.72278 0.88555
 N2835 N 0.86842 0.71365 0.89447
 N2836 N 0.86037 0.69597 0.88641
 C2837 C 0.86916 0.68677 0.86911
 N2838 N 0.88642 0.69600 0.86028
 C2839 C 0.89395 0.74211 0.89391
 C2840 C 0.90082 0.75848 0.90078
 C2841 C 0.90880 0.77811 0.90878
 N2842 N 0.89943 0.78760 0.92552
 N2843 N 0.90654 0.80608 0.93264
 C2844 C 0.92326 0.81576 0.92327
 N2845 N 0.93261 0.80612 0.90652
 N2846 N 0.92550 0.78764 0.89939
 N2847 N 0.89521 0.21310 0.36895
 C2848 C 0.88628 0.22227 0.38610
 N2849 N 0.86908 0.21320 0.39501
 N2850 N 0.86103 0.19549 0.38700
 C2851 C 0.86986 0.18621 0.36976
 N2852 N 0.88715 0.19539 0.36095
 C2853 C 0.89462 0.24164 0.39438
 C2854 C 0.90146 0.25805 0.40117
 C2855 C 0.90940 0.27774 0.40907
 N2856 N 0.90002 0.28727 0.42577
 N2857 N 0.90708 0.30581 0.43279
 C2858 C 0.92375 0.31551 0.42336
 N2859 N 0.93311 0.30581 0.40664
 N2860 N 0.92606 0.28728 0.39962
 N2861 N 0.36780 0.71395 0.39403
 C2862 C 0.38499 0.72307 0.38514
 N2863 N 0.39389 0.71397 0.36795
 N2864 N 0.38583 0.69629 0.35988
 C2865 C 0.36852 0.68703 0.36864
 N2866 N 0.35974 0.69628 0.38595
 C2867 C 0.39337 0.74238 0.39354
 C2868 C 0.40026 0.75872 0.40045
 C2869 C 0.40829 0.77833 0.40849
 N2870 N 0.42506 0.78780 0.39916
 N2871 N 0.43223 0.80623 0.40634
 C2872 C 0.42288 0.81589 0.42309
 N2873 N 0.40610 0.80626 0.43239
 N2874 N 0.39892 0.78783 0.42522
 N2875 N 0.36760 0.21407 0.89388
 C2876 C 0.38480 0.22318 0.88501
 N2877 N 0.39369 0.21412 0.86779
 N2878 N 0.38559 0.19648 0.85967
 C2879 C 0.36827 0.18722 0.86841
 N2880 N 0.35951 0.19643 0.88575
 C2881 C 0.39321 0.24245 0.89346
 C2882 C 0.40013 0.25877 0.90041
 C2883 C 0.40820 0.27834 0.90850
 N2884 N 0.42500 0.28779 0.89920
 N2885 N 0.43219 0.30620 0.90641
 C2886 C 0.42286 0.31585 0.92317
 N2887 N 0.40605 0.30624 0.93245
 N2888 N 0.39884 0.28783 0.92524
 N2889 N 1.13274 0.71433 1.10712
 C2890 C 1.11555 0.72348 1.11597
 N2891 N 1.10668 0.71447 1.13324
 N2892 N 1.11479 0.69685 1.14142
 C2893 C 1.13210 0.68756 1.13269
 N2894 N 1.14084 0.69671 1.11531
 C2895 C 1.10711 0.74271 1.10744
 C2896 C 1.10017 0.75899 1.10041
 C2897 C 1.09207 0.77852 1.09222
 N2898 N 1.07525 0.78799 1.10146
 N2899 N 1.06801 0.80635 1.09415
 C2900 C 1.07732 0.81593 1.07735
 N2901 N 1.09416 0.80631 1.06812
 N2902 N 1.10140 0.78795 1.07543
 N2903 N 1.13194 0.21366 0.60581
 C2904 C 1.11476 0.22279 0.61470
 N2905 N 1.10586 0.21372 0.63191
 N2906 N 1.11394 0.19605 0.64002
 C2907 C 1.13124 0.18678 0.63126
 N2908 N 1.14001 0.19600 0.61392
 C2909 C 1.10638 0.24210 0.60628
 C2910 C 1.09950 0.25845 0.59935
 C2911 C 1.09150 0.27806 0.59130
 N2912 N 1.07473 0.28755 0.60061
 N2913 N 1.06760 0.30601 0.59343
 C2914 C 1.07698 0.31567 0.57670
 N2915 N 1.09376 0.30601 0.56741
 N2916 N 1.10090 0.28756 0.57458
 N2917 N 0.60528 0.71357 0.63160
 C2918 C 0.61418 0.72271 0.61441
 N2919 N 0.63137 0.71361 0.60549
 N2920 N 0.63944 0.69592 0.61353
 C2921 C 0.63064 0.68668 0.63081
 N2922 N 0.61336 0.69588 0.63964
 C2923 C 0.60580 0.74205 0.60607
 C2924 C 0.59893 0.75843 0.59923
 C2925 C 0.59094 0.77809 0.59126
 N2926 N 0.60031 0.78760 0.57453
 N2927 N 0.59320 0.80609 0.56743
 C2928 C 0.57648 0.81577 0.57680
 N2929 N 0.56713 0.80610 0.59354
 N2930 N 0.57423 0.78760 0.60065
 N2931 N 0.63212 0.21385 1.10617
 C2932 C 0.61491 0.22293 1.11506
 N2933 N 0.60603 0.21380 1.13224
 N2934 N 0.61414 0.19614 1.14032
 C2935 C 0.63147 0.18693 1.13156
 N2936 N 0.64023 0.19619 1.11425
 C2937 C 0.60649 0.24223 1.10667
 C2938 C 0.59956 0.25857 1.09978
 C2939 C 0.59150 0.27817 1.09175
 N2940 N 0.57476 0.28766 1.10113
 N2941 N 0.56758 0.30610 1.09397
 C2942 C 0.57688 0.31576 1.07719
 N2943 N 0.59363 0.30611 1.06783
 N2944 N 0.60081 0.28766 1.07499
 N2945 N 1.28589 1.13252 0.89418
 C2946 C 1.27688 1.11526 0.88529
 N2947 N 1.28606 1.10639 0.86812
 N2948 N 1.30369 1.11456 0.86006
 C2949 C 1.31280 1.13190 0.86885
 N2950 N 1.30352 1.14068 0.88611
 C2951 C 1.25761 1.10678 0.89366
 C2952 C 1.24128 1.09982 0.90054
 C2953 C 1.22169 1.09172 0.90855
 N2954 N 1.21224 1.07497 0.89917
 N2955 N 1.19381 1.06777 0.90632
 C2956 C 1.18414 1.07706 0.92309
 N2957 N 1.19376 1.09382 0.93245
 N2958 N 1.21219 1.10103 0.92531
 N2959 N 1.28614 0.63230 0.39446
 C2960 C 1.27719 0.61500 0.38561
 N2961 N 1.28642 0.60609 0.36849
 N2962 N 1.30406 0.61425 0.36044
 C2963 C 1.31312 0.63164 0.36919
 N2964 N 1.30379 0.64046 0.38641
 C2965 C 1.25790 0.60653 0.39395
 C2966 C 1.24156 0.59956 0.40078
 C2967 C 1.22195 0.59146 0.40873
 N2968 N 1.21250 0.57475 0.39928
 N2969 N 1.19404 0.56755 0.40637
 C2970 C 1.18435 0.57679 0.42315
 N2971 N 1.19397 0.59351 0.43258
 N2972 N 1.21242 0.60072 0.42550
 N2973 N 0.78679 1.13108 0.39504
 C2974 C 0.77766 1.11390 0.38612
 N2975 N 0.78680 1.10496 0.36896
 N2976 N 0.80452 1.11298 0.36094
 C2977 C 0.81375 1.13024 0.36976
 N2978 N 0.80451 1.13909 0.38701
 C2979 C 0.75829 1.10561 0.39443
 C2980 C 0.74187 1.09880 0.40124
 C2981 C 0.72217 1.09089 0.40917
 N2982 N 0.71262 1.07422 0.39975
 N2983 N 0.69409 1.06718 0.40681
 C2984 C 0.68441 1.07657 0.42352
 N2985 N 0.69413 1.09326 0.43291
 N2986 N 0.71266 1.10030 0.42586
 N2987 N 0.78625 0.60537 0.86847
 C2988 C 0.77716 0.61428 0.88568
 N2989 N 0.78628 0.63147 0.89457
 N2990 N 0.80395 0.63953 0.88648
 C2991 C 0.81314 0.63072 0.86918
 N2992 N 0.80392 0.61344 0.86039
 C2993 C 0.75785 0.60592 0.89407
 C2994 C 0.74148 0.59905 0.90096
 C2995 C 0.72186 0.59106 0.90897
 N2996 N 0.71236 0.60044 0.92570
 N2997 N 0.69389 0.59332 0.93282
 C2998 C 0.68422 0.57658 0.92348
 N2999 N 0.69387 0.56723 0.90674
 N3000 N 0.71234 0.57434 0.89960
 N3001 N 1.28625 0.89380 1.13173
 C3002 C 1.27706 0.88489 1.11458
 N3003 N 1.28606 0.86760 1.10574
 N3004 N 1.30369 0.85945 1.11384
 C3005 C 1.31298 0.86827 1.13108
 N3006 N 1.30388 0.88565 1.13981
 C3007 C 1.25779 0.89336 1.10619
 C3008 C 1.24146 0.90032 1.09931
 C3009 C 1.22186 0.90842 1.09131
 N3010 N 1.21235 0.89913 1.07454
 N3011 N 1.19391 0.90634 1.06741
 C3012 C 1.18428 0.92309 1.07679
 N3013 N 1.19395 0.93235 1.09357
 N3014 N 1.21239 0.92515 1.10071
 N3015 N 1.28640 0.36796 0.60548
 C3016 C 1.27735 0.38519 0.61437
 N3017 N 1.28649 0.39407 0.63155
 N3018 N 1.30413 0.38594 0.63964
 C3019 C 1.31329 0.36861 0.63085
 N3020 N 1.30405 0.35983 0.61357
 C3021 C 1.25805 0.39362 0.60599
 C3022 C 1.24170 0.40054 0.59910
 C3023 C 1.22208 0.40857 0.59109
 N3024 N 1.21258 0.42529 0.60048
 N3025 N 1.19411 0.43243 0.59334
 C3026 C 1.18446 0.42311 0.57658
 N3027 N 1.19413 0.40638 0.56721
 N3028 N 1.21259 0.39924 0.57434
 N3029 N 0.78635 0.86852 0.60529
 C3030 C 0.77727 0.88573 0.61419
 N3031 N 0.78642 0.89464 0.63136
 N3032 N 0.80411 0.88656 0.63940
 C3033 C 0.81329 0.86926 0.63060
 N3034 N 0.80404 0.86045 0.61334
 C3035 C 0.75793 0.89410 0.60586
 C3036 C 0.74154 0.90098 0.59902
 C3037 C 0.72188 0.90896 0.59107
 N3038 N 0.71239 0.92568 0.60046
 N3039 N 0.69389 0.93278 0.59338
 C3040 C 0.68418 0.92342 0.57667
 N3041 N 0.69384 0.90668 0.56730
 N3042 N 0.71234 0.89958 0.57437
 N3043 N 0.78649 0.39399 1.13151
 C3044 C 0.77725 0.38507 1.11439
 N3045 N 0.78624 0.36780 1.10551
 N3046 N 0.80392 0.35967 1.11353
 C3047 C 0.81326 0.36849 1.13073
 N3048 N 0.80417 0.38585 1.13952
 C3049 C 0.75792 0.39351 1.10609
 C3050 C 0.74155 0.40044 1.09928
 C3051 C 0.72191 0.40850 1.09135
 N3052 N 0.71239 0.39923 1.07458
 N3053 N 0.69391 0.40640 1.06751
 C3054 C 0.68425 0.42308 1.07696
 N3055 N 0.69393 0.43234 1.09375
 N3056 N 0.71241 0.42517 1.10082
 N3057 N 0.71381 1.10617 1.13179
 C3058 C 0.72299 1.11509 1.11464
 N3059 N 0.71397 1.13235 1.10576
 N3060 N 0.69631 1.14047 1.11383
 C3061 C 0.68703 1.13165 1.13106
 N3062 N 0.69616 1.11430 1.13984
 C3063 C 0.74229 1.10664 1.10628
 C3064 C 0.75863 1.09970 1.09941
 C3065 C 0.77824 1.09163 1.09141
 N3066 N 0.78773 1.10093 1.07464
 N3067 N 0.80617 1.09375 1.06751
 C3068 C 0.81582 1.07701 1.07689
 N3069 N 0.80617 1.06773 1.09368
 N3070 N 0.78773 1.07491 1.10082
 N3071 N 0.71358 0.63141 0.60538
 C3072 C 0.72271 0.61422 0.61428
 N3073 N 0.71362 0.60530 0.63147
 N3074 N 0.69594 0.61336 0.63955
 C3075 C 0.68671 0.63065 0.63075
 N3076 N 0.69590 0.63946 0.61346
 C3077 C 0.74203 0.60586 0.60589
 C3078 C 0.75840 0.59899 0.59901
 C3079 C 0.77803 0.59100 0.59101
 N3080 N 0.78754 0.57427 0.60038
 N3081 N 0.80602 0.56716 0.59326
 C3082 C 0.81568 0.57651 0.57652
 N3083 N 0.80601 0.59326 0.56717
 N3084 N 0.78753 0.60038 0.57429
 N3085 N 0.21355 1.10602 0.63150
 C3086 C 0.22269 1.11492 0.61432
 N3087 N 0.21363 1.13215 0.60543
 N3088 N 0.19598 1.14027 0.61350
 C3089 C 0.18673 1.13147 0.63077
 N3090 N 0.19589 1.11415 0.63956
 C3091 C 0.24199 1.10650 0.60595
 C3092 C 0.25835 1.09959 0.59909
 C3093 C 0.27797 1.09157 0.59109
 N3094 N 0.28747 1.10091 0.57435
 N3095 N 0.30594 1.09377 0.56724
 C3096 C 0.31561 1.07704 0.57662
 N3097 N 0.30594 1.06771 0.59338
 N3098 N 0.28747 1.07485 0.60049
 N3099 N 0.21425 0.60667 1.13278
 C3100 C 0.22335 0.61554 1.11556
 N3101 N 0.21431 0.63280 1.10671
 N3102 N 0.19672 0.64098 1.11486
 C3103 C 0.18752 0.63221 1.13218
 N3104 N 0.19666 0.61486 1.14093
 C3105 C 0.24257 0.60703 1.10708
 C3106 C 0.25884 0.60002 1.10012
 C3107 C 0.27837 0.59187 1.09201
 N3108 N 0.28783 0.60115 1.07521
 N3109 N 0.30621 0.59388 1.06798
 C3110 C 0.31582 0.57708 1.07729
 N3111 N 0.30619 0.56782 1.09410
 N3112 N 0.28781 0.57508 1.10134
 N3113 N 0.71354 0.86856 0.89477
 C3114 C 0.72265 0.88575 0.88586
 N3115 N 0.71352 0.89466 0.86867
 N3116 N 0.69583 0.88660 0.86062
 C3117 C 0.68662 0.86932 0.86943
 N3118 N 0.69585 0.86050 0.88671
 C3119 C 0.74198 0.89410 0.89420
 C3120 C 0.75836 0.90096 0.90105
 C3121 C 0.77802 0.90894 0.90902
 N3122 N 0.78751 0.92566 0.89963
 N3123 N 0.80601 0.93276 0.90672
 C3124 C 0.81571 0.92339 0.92343
 N3125 N 0.80606 0.90665 0.93280
 N3126 N 0.78756 0.89954 0.92572
 N3127 N 0.71438 0.36719 0.39338
 C3128 C 0.72345 0.38442 0.38451
 N3129 N 0.71434 0.39329 0.36729
 N3130 N 0.69672 0.38515 0.35917
 C3131 C 0.68755 0.36783 0.36795
 N3132 N 0.69676 0.35906 0.38526
 C3133 C 0.74270 0.39289 0.39295
 C3134 C 0.75900 0.39986 0.39990
 C3135 C 0.77855 0.40796 0.40799
 N3136 N 0.78801 0.42473 0.39865
 N3137 N 0.80641 0.43196 0.40587
 C3138 C 0.81603 0.42269 0.42269
 N3139 N 0.80640 0.40591 0.43201
 N3140 N 0.78801 0.39867 0.42479
 N3141 N 0.21387 0.89434 0.36769
 C3142 C 0.22293 0.88545 0.38492
 N3143 N 0.21382 0.86824 0.39380
 N3144 N 0.19618 0.86015 0.38565
 C3145 C 0.18702 0.86894 0.36833
 N3146 N 0.19624 0.88623 0.35955
 C3147 C 0.24220 0.89386 0.39337
 C3148 C 0.25853 0.90077 0.40031
 C3149 C 0.27811 0.90880 0.40838
 N3150 N 0.28759 0.89944 0.42514
 N3151 N 0.30602 0.90660 0.43233
 C3152 C 0.31568 0.92337 0.42302
 N3153 N 0.30604 0.93272 0.40625
 N3154 N 0.28761 0.92556 0.39905
 N3155 N 0.21370 0.36827 0.89386
 C3156 C 0.22290 0.38542 0.88496
 N3157 N 0.21392 0.39428 0.86767
 N3158 N 0.19628 0.38622 0.85951
 C3159 C 0.18698 0.36898 0.86832
 N3160 N 0.19607 0.36021 0.88569
 C3161 C 0.24218 0.39378 0.89344
 C3162 C 0.25851 0.40064 0.90041
 C3163 C 0.27810 0.40864 0.90851
 N3164 N 0.28762 0.42539 0.89920
 N3165 N 0.30606 0.43252 0.90641
 C3166 C 0.31567 0.42316 0.92319
 N3167 N 0.30599 0.40639 0.93248
 N3168 N 0.28755 0.39926 0.92527
   
