data_POSCAR
  _audit_creation_date              2014-09-24
  _audit_creation_method            'ToBaCCo'
  _symmetry_space_group_name_H-M    'P1'
  _symmetry_Int_Tables_number       1
  _symmetry_cell_setting            triclinic
  loop_
  _symmetry_equiv_pos_as_xyz
 x,y,z
_cell_length_a 42.0823
_cell_length_b 42.0551
_cell_length_c 42.1283
_cell_angle_alpha 89.968000
_cell_angle_beta 89.989200
_cell_angle_gamma 89.929900
loop_
  _atom_site_label
  _atom_site_type_symbol
  _atom_site_fract_x
  _atom_site_fract_y
  _atom_site_fract_z
O1 O 0.27534 1.03173 0.46802
 O2 O 0.27555 0.97032 0.53031
 O3 O 0.27511 0.96978 0.46846
 O4 O 0.27578 1.03226 0.52987
 O5 O 0.22324 1.03253 0.53025
 O6 O 0.22256 0.97004 0.46883
 O7 O 0.22299 0.97058 0.53069
 O8 O 0.22279 1.03201 0.46839
 Cu9 Cu 0.28074 1.00100 0.49912
 Cu10 Cu 0.21760 1.00132 0.49958
 C11 C 0.24904 1.04223 0.45770
 C12 C 0.24931 0.96009 0.54101
 C13 C 0.24872 0.95936 0.45827
 C14 C 0.24963 1.04295 0.54044
 O15 O 0.72325 -0.03246 0.47094
 O16 O 0.72246 0.02997 0.53203
 O17 O 0.72342 0.02946 0.47028
 O18 O 0.72225 -0.03190 0.53275
 O19 O 0.77480 -0.03213 0.53345
 O20 O 0.77597 0.02924 0.47098
 O21 O 0.77502 0.02974 0.53273
 O22 O 0.77580 -0.03269 0.47164
 Cu23 Cu 0.71754 -0.00123 0.50141
 Cu24 Cu 0.78071 -0.00150 0.50228
 C25 C 0.74964 -0.04310 0.46097
 C26 C 0.74863 0.04039 0.54267
 C27 C 0.74987 0.03974 0.46011
 C28 C 0.74835 -0.04235 0.54367
 O29 O 0.28048 0.46888 0.96893
 O30 O 0.27961 0.53088 1.03060
 O31 O 0.27927 0.46896 1.03078
 O32 O 0.28042 0.53087 0.96884
 O33 O 0.22787 0.53095 0.96809
 O34 O 0.22673 0.46912 1.02996
 O35 O 0.22705 0.53097 1.02978
 O36 O 0.22793 0.46905 0.96817
 Cu37 Cu 0.28526 0.49986 0.99986
 Cu38 Cu 0.22209 0.50002 0.99891
 C39 C 0.25434 0.45852 0.95814
 C40 C 0.25317 0.54140 1.04057
 C41 C 0.25281 0.45862 1.04084
 C42 C 0.25429 0.54140 0.95807
 O43 O 0.47045 0.27734 1.02982
 O44 O 0.53208 0.27779 0.96787
 O45 O 0.47022 0.27791 0.96791
 O46 O 0.53237 0.27734 1.02966
 O47 O 0.53232 0.22477 1.02923
 O48 O 0.47021 0.22533 0.96751
 O49 O 0.53204 0.22519 0.96747
 O50 O 0.47043 0.22475 1.02938
 Cu51 Cu 0.50125 0.28291 0.99887
 Cu52 Cu 0.50123 0.21971 0.99837
 C53 C 0.46007 0.25097 1.04007
 C54 C 0.54246 0.25155 0.95723
 C55 C 0.45979 0.25172 0.95722
 C56 C 0.54288 0.25094 1.03983
 O57 O 0.46840 0.72133 -0.03026
 O58 O 0.53030 0.72068 0.03143
 O59 O 0.46833 0.72093 0.03167
 O60 O 0.53026 0.72134 -0.03034
 O61 O 0.53024 0.77392 -0.02994
 O62 O 0.46836 0.77351 0.03203
 O63 O 0.53029 0.77327 0.03180
 O64 O 0.46843 0.77392 -0.02986
 Cu65 Cu 0.49928 0.71576 0.00061
 Cu66 Cu 0.49930 0.77895 0.00107
 C67 C 0.45807 0.74773 -0.04055
 C68 C 0.54079 0.74688 0.04195
 C69 C 0.45790 0.74717 0.04233
 C70 C 0.54071 0.74771 -0.04061
 O71 O 1.03007 0.46789 0.27549
 O72 O 0.96792 0.52948 0.27623
 O73 O 0.96818 0.46751 0.27574
 O74 O 1.02980 0.52978 0.27599
 O75 O 1.02959 0.53024 0.22350
 O76 O 0.96797 0.46796 0.22325
 O77 O 0.96772 0.52993 0.22373
 O78 O 1.02987 0.46835 0.22299
 Cu79 Cu 0.99900 0.49861 0.28116
 Cu80 Cu 0.99875 0.49916 0.21807
 C81 C 1.04048 0.45776 0.24911
 C82 C 0.95737 0.54012 0.25011
 C83 C 0.95769 0.45721 0.24945
 C84 C 1.04011 0.54052 0.24979
 O85 O -0.03116 0.47125 0.72743
 O86 O 0.03033 0.53324 0.72666
 O87 O 0.03065 0.47141 0.72619
 O88 O -0.03154 0.53315 0.72780
 O89 O -0.03063 0.53280 0.78028
 O90 O 0.03163 0.47100 0.77867
 O91 O 0.03130 0.53288 0.77915
 O92 O -0.03024 0.47084 0.77992
 Cu93 Cu -0.00055 0.50232 0.72172
 Cu94 Cu 0.00060 0.50186 0.78482
 C95 C -0.04104 0.46055 0.75378
 C96 C 0.04125 0.54346 0.75277
 C97 C 0.04166 0.46080 0.75215
 C98 C -0.04159 0.54341 0.75429
 O99 O 0.46675 0.96811 0.27835
 O100 O 0.52880 1.02973 0.27772
 O101 O 0.46695 1.03006 0.27828
 O102 O 0.52859 0.96791 0.27804
 O103 O 0.52826 0.96777 0.22553
 O104 O 0.46662 1.02990 0.22578
 O105 O 0.52844 1.02955 0.22521
 O106 O 0.46644 0.96798 0.22585
 Cu107 Cu 0.49778 0.99897 0.28341
 Cu108 Cu 0.49737 0.99879 0.22028
 C109 C 0.45617 0.95762 0.25219
 C110 C 0.53912 1.03998 0.25135
 C111 C 0.45642 1.04051 0.25206
 C112 C 0.53887 0.95740 0.25175
 O113 O 1.03179 0.27503 0.52818
 O114 O 0.96916 0.27426 0.46722
 O115 O 0.96993 0.27495 0.52903
 O116 O 1.03096 0.27471 0.46646
 O117 O 1.03131 0.22212 0.46690
 O118 O 0.97023 0.22236 0.52954
 O119 O 0.96946 0.22167 0.46769
 O120 O 1.03213 0.22244 0.52866
 Cu121 Cu 1.00041 0.28005 0.49769
 Cu122 Cu 1.00079 0.21683 0.49826
 C123 C 1.04257 0.24887 0.53867
 C124 C 0.95878 0.24783 0.45712
 C125 C 0.95979 0.24872 0.53986
 C126 C 1.04144 0.24839 0.45613
 O127 O -0.03187 0.72690 0.53277
 O128 O 0.02960 0.72695 0.47072
 O129 O 0.02997 0.72734 0.53235
 O130 O -0.03220 0.72666 0.47093
 O131 O -0.03255 0.77924 0.47062
 O132 O 0.02968 0.77994 0.53208
 O133 O 0.02933 0.77955 0.47038
 O134 O -0.03223 0.77949 0.53253
 Cu135 Cu -0.00113 0.72165 0.50173
 Cu136 Cu -0.00153 0.78488 0.50138
 C137 C -0.04239 0.75317 0.54316
 C138 C 0.03989 0.75323 0.46013
 C139 C 0.04040 0.75373 0.54250
 C140 C -0.04281 0.75283 0.46034
 O141 O 0.72275 0.46797 1.03175
 O142 O 0.72245 0.53033 0.97048
 O143 O 0.72278 0.46846 0.96997
 O144 O 0.72251 0.52987 1.03226
 O145 O 0.77507 0.53003 1.03223
 O146 O 0.77534 0.46865 0.96997
 O147 O 0.77502 0.53050 0.97046
 O148 O 0.77531 0.46814 1.03175
 Cu149 Cu 0.71730 0.49914 1.00112
 Cu150 Cu 0.78050 0.49935 1.00111
 C151 C 0.74908 0.45754 1.04208
 C152 C 0.74869 0.54092 0.96012
 C153 C 0.74911 0.45822 0.95945
 C154 C 0.74874 0.54031 1.04274
 O155 O 0.46936 1.03293 0.72250
 O156 O 0.53104 0.97080 0.72359
 O157 O 0.46923 0.97102 0.72307
 O158 O 0.53123 1.03269 0.72297
 O159 O 0.53080 1.03317 0.77547
 O160 O 0.46880 0.97150 0.77557
 O161 O 0.53061 0.97128 0.77609
 O162 O 0.46894 1.03341 0.77499
 Cu163 Cu 0.50025 1.00182 0.71773
 Cu164 Cu 0.49973 1.00240 0.78084
 C165 C 0.45874 1.04365 0.74856
 C166 C 0.54121 0.96055 0.75003
 C167 C 0.45858 0.96082 0.74934
 C168 C 0.54149 1.04332 0.74920
 C169 C 0.25085 0.22689 0.27195
 C170 C 0.22697 0.25036 0.27144
 C171 C 0.22714 0.27396 0.24772
 C172 C 0.25108 0.27400 0.22435
 C173 C 0.27499 0.25055 0.22492
 C174 C 0.27495 0.22706 0.24876
 C175 C 0.74870 0.77312 0.27478
 C176 C 0.77258 0.74963 0.27472
 C177 C 0.77271 0.72597 0.25108
 C178 C 0.74914 0.72597 0.22735
 C179 C 0.72555 0.74974 0.22715
 C180 C 0.72527 0.77324 0.25094
 C181 C 0.75135 0.22754 0.72529
 C182 C 0.77545 0.25073 0.72580
 C183 C 0.77569 0.27404 0.74978
 C184 C 0.75172 0.27430 0.77310
 C185 C 0.72774 0.25099 0.77266
 C186 C 0.72761 0.22754 0.74883
 C187 C 0.25108 0.77433 0.72563
 C188 C 0.27480 0.77429 0.74922
 C189 C 0.27491 0.75052 0.77278
 C190 C 0.25118 0.72693 0.77293
 C191 C 0.22757 0.72693 0.74926
 C192 C 0.22755 0.75054 0.72555
 C193 C 0.22844 0.25271 0.72294
 C194 C 0.22828 0.27614 0.74685
 C195 C 0.25178 0.27581 0.77067
 C196 C 0.27558 0.25220 0.77049
 C197 C 0.27558 0.22864 0.74670
 C198 C 0.25196 0.22881 0.72298
 C199 C 0.77335 0.75092 0.72903
 C200 C 0.74930 0.77427 0.72863
 C201 C 0.72552 0.77417 0.75219
 C202 C 0.72554 0.75053 0.77589
 C203 C 0.74953 0.72711 0.77616
 C204 C 0.77356 0.72739 0.75285
 C205 C 0.22440 0.74825 0.27461
 C206 C 0.24801 0.77198 0.27462
 C207 C 0.27169 0.77198 0.25095
 C208 C 0.27168 0.74842 0.22718
 C209 C 0.24777 0.72497 0.22696
 C210 C 0.22420 0.72479 0.25073
 C211 C 0.77343 0.24658 0.27233
 C212 C 0.77359 0.27023 0.24862
 C213 C 0.75006 0.27015 0.22483
 C214 C 0.72649 0.24638 0.22458
 C215 C 0.72625 0.22289 0.24844
 C216 C 0.74964 0.22301 0.27238
 C217 C 0.24968 0.15795 0.34083
 C218 C 0.26007 0.12675 0.33365
 C219 C 0.26033 0.10310 0.35773
 C220 C 0.24908 0.11051 0.38855
 C221 C 0.23800 0.14154 0.39552
 C222 C 0.23883 0.16548 0.37173
 C223 C 0.22849 0.19657 0.37949
 C224 C 0.21671 0.20356 0.40960
 C225 C 0.21539 0.18001 0.43271
 C226 C 0.22604 0.14936 0.42595
 C227 C 0.27190 0.07238 0.35029
 C228 C 0.28271 0.06518 0.31985
 C229 C 0.28193 0.08816 0.29614
 C230 C 0.27055 0.11857 0.30278
 C231 C 0.24899 0.08626 0.41307
 C232 C 0.24898 0.06614 0.43346
 C233 C 0.25018 0.18229 0.31647
 C234 C 0.25055 0.20253 0.29624
 H235 H 0.22896 0.21567 0.36228
 H236 H 0.20846 0.22735 0.41496
 H237 H 0.20617 0.18554 0.45606
 H238 H 0.22471 0.13190 0.44477
 H239 H 0.27278 0.05364 0.36788
 H240 H 0.29161 0.04160 0.31460
 H241 H 0.29029 0.08246 0.27252
 H242 H 0.27052 0.13567 0.28358
 C243 C 0.74754 0.84088 0.34472
 C244 C 0.76073 0.83382 0.37482
 C245 C 0.76209 0.85776 0.39855
 C246 C 0.74925 0.88828 0.39237
 C247 C 0.73547 0.89514 0.36247
 C248 C 0.73474 0.87141 0.33850
 C249 C 0.72102 0.87887 0.30872
 C250 C 0.70825 0.90890 0.30287
 C251 C 0.70891 0.93210 0.32633
 C252 C 0.72236 0.92545 0.35582
 C253 C 0.77639 0.85049 0.42809
 C254 C 0.78874 0.82031 0.43410
 C255 C 0.78682 0.79670 0.41112
 C256 C 0.77281 0.80319 0.38186
 C257 C 0.74975 0.91248 0.41687
 C258 C 0.74984 0.93272 0.43708
 C259 C 0.74775 0.81696 0.31998
 C260 C 0.74816 0.79708 0.29943
 H261 H 0.71998 0.86162 0.28972
 H262 H 0.69782 0.91427 0.28003
 H263 H 0.69898 0.95539 0.32165
 H264 H 0.72236 0.94431 0.37328
 H265 H 0.77824 0.86802 0.44679
 H266 H 0.79973 0.81519 0.45677
 H267 H 0.79636 0.77326 0.41591
 H268 H 0.77188 0.78405 0.36474
 C269 C 0.74989 0.15954 0.65565
 C270 C 0.72076 0.14494 0.64737
 C271 C 0.72036 0.11993 0.62475
 C272 C 0.74895 0.11045 0.60975
 C273 C 0.77798 0.12556 0.61750
 C274 C 0.77849 0.15006 0.64069
 C275 C 0.80784 0.16461 0.64831
 C276 C 0.83586 0.15534 0.63326
 C277 C 0.83534 0.13148 0.61048
 C278 C 0.80682 0.11665 0.60262
 C279 C 0.69112 0.10492 0.61766
 C280 C 0.66302 0.11458 0.63231
 C281 C 0.66331 0.13951 0.65394
 C282 C 0.69175 0.15473 0.66132
 C283 C 0.74851 0.08544 0.58610
 C284 C 0.74843 0.06479 0.56632
 C285 C 0.75052 0.18377 0.68006
 C286 C 0.75096 0.20369 0.70055
 H287 H 0.80945 0.18325 0.66590
 H288 H 0.85810 0.16666 0.63931
 H289 H 0.85716 0.12437 0.59886
 H290 H 0.80765 0.09815 0.58479
 H291 H 0.68967 0.08556 0.60081
 H292 H 0.64088 0.10276 0.62672
 H293 H 0.64142 0.14703 0.66519
 H294 H 0.69077 0.17401 0.67827
 C295 C 0.25026 0.84411 0.65761
 C296 C 0.27925 0.85736 0.64690
 C297 C 0.27897 0.88171 0.62352
 C298 C 0.24977 0.89182 0.61016
 C299 C 0.22080 0.87826 0.62061
 C300 C 0.22102 0.85478 0.64486
 C301 C 0.19172 0.84231 0.65567
 C302 C 0.16308 0.85196 0.64215
 C303 C 0.16290 0.87447 0.61799
 C304 C 0.19134 0.88769 0.60737
 C305 C 0.30817 0.89537 0.61397
 C306 C 0.33685 0.88512 0.62703
 C307 C 0.33716 0.86091 0.64949
 C308 C 0.30878 0.84695 0.65922
 C309 C 0.24954 0.91608 0.58564
 C310 C 0.24941 0.93619 0.56526
 C311 C 0.25054 0.81943 0.68163
 C312 C 0.25079 0.79893 0.70159
 H313 H 0.19065 0.82466 0.67434
 H314 H 0.14093 0.84180 0.65038
 H315 H 0.14060 0.88184 0.60750
 H316 H 0.18997 0.90529 0.58868
 H317 H 0.30917 0.91414 0.59642
 H318 H 0.35895 0.89595 0.61957
 H319 H 0.35948 0.85298 0.65953
 H320 H 0.31023 0.82824 0.67680
 C321 C 0.34436 0.25016 0.15667
 C322 C 0.37261 0.26775 0.16128
 C323 C 0.39639 0.26794 0.13734
 C324 C 0.39184 0.25031 0.10909
 C325 C 0.36369 0.23246 0.10464
 C326 C 0.33981 0.23249 0.12847
 C327 C 0.31182 0.21454 0.12351
 C328 C 0.30761 0.19694 0.09582
 C329 C 0.33100 0.19686 0.07252
 C330 C 0.35875 0.21440 0.07674
 C331 C 0.42433 0.28597 0.14232
 C332 C 0.42864 0.30329 0.17017
 C333 C 0.40541 0.30304 0.19362
 C334 C 0.37767 0.28549 0.18937
 C335 C 0.41607 0.25057 0.08461
 C336 C 0.43617 0.25077 0.06425
 C337 C 0.31991 0.25034 0.18086
 C338 C 0.29954 0.25047 0.20090
 H339 H 0.29299 0.21377 0.14098
 H340 H 0.28609 0.18328 0.09244
 H341 H 0.32762 0.18315 0.05105
 H342 H 0.37626 0.21359 0.05794
 H343 H 0.44309 0.28690 0.12478
 H344 H 0.45014 0.31697 0.17358
 H345 H 0.40887 0.31653 0.21522
 H346 H 0.36025 0.28609 0.20825
 C347 C 0.34400 0.74956 0.84129
 C348 C 0.35704 0.77848 0.85241
 C349 C 0.38086 0.77803 0.87629
 C350 C 0.39064 0.74871 0.88967
 C351 C 0.37732 0.71980 0.87878
 C352 C 0.35439 0.72020 0.85406
 C353 C 0.34215 0.69096 0.84281
 C354 C 0.35147 0.66220 0.85637
 C355 C 0.37342 0.66185 0.88100
 C356 C 0.38643 0.69023 0.89205
 C357 C 0.39430 0.80718 0.88631
 C358 C 0.38437 0.83597 0.87320
 C359 C 0.36068 0.83644 0.85023
 C360 C 0.34693 0.80812 0.84004
 C361 C 0.41447 0.74829 0.91454
 C362 C 0.43432 0.74799 0.93513
 C363 C 0.31969 0.75001 0.81698
 C364 C 0.29938 0.75031 0.79688
 H365 H 0.32492 0.69002 0.82377
 H366 H 0.34148 0.64010 0.84781
 H367 H 0.38054 0.63946 0.89152
 H368 H 0.40360 0.68873 0.91111
 H369 H 0.41266 0.80805 0.90426
 H370 H 0.39501 0.85803 0.88103
 H371 H 0.35297 0.85885 0.84016
 H372 H 0.32862 0.80970 0.82207
 C373 C 0.65746 0.75001 0.15752
 C374 C 0.62692 0.76262 0.16390
 C375 C 0.60301 0.76161 0.14011
 C376 C 0.60973 0.74772 0.11024
 C377 C 0.64027 0.73506 0.10390
 C378 C 0.66437 0.73670 0.12744
 C379 C 0.69501 0.72480 0.12023
 C380 C 0.70138 0.71072 0.09098
 C381 C 0.67762 0.70854 0.06818
 C382 C 0.64742 0.72070 0.07436
 C383 C 0.57270 0.77458 0.14691
 C384 C 0.56620 0.78815 0.17638
 C385 C 0.58954 0.78905 0.19967
 C386 C 0.61959 0.77644 0.19366
 C387 C 0.58536 0.74698 0.08591
 C388 C 0.56502 0.74675 0.06580
 C389 C 0.68156 0.75012 0.18209
 C390 C 0.70154 0.74998 0.20255
 H391 H 0.71426 0.72593 0.13721
 H392 H 0.72483 0.70132 0.08606
 H393 H 0.68265 0.69750 0.04551
 H394 H 0.62977 0.71864 0.05580
 H395 H 0.55372 0.77438 0.12959
 H396 H 0.54289 0.79796 0.18117
 H397 H 0.58428 0.79956 0.22249
 H398 H 0.63696 0.77767 0.21254
 C399 C 0.65843 0.25138 0.84097
 C400 C 0.64885 0.28045 0.85493
 C401 C 0.62544 0.28049 0.87921
 C402 C 0.61090 0.25159 0.88847
 C403 C 0.62001 0.22259 0.87401
 C404 C 0.64430 0.22242 0.85060
 C405 C 0.65379 0.19304 0.83722
 C406 C 0.63895 0.16475 0.84590
 C407 C 0.61475 0.16499 0.86835
 C408 C 0.60542 0.19348 0.88247
 C409 C 0.61707 0.30971 0.89366
 C410 C 0.63127 0.33811 0.88419
 C411 C 0.65371 0.33813 0.85999
 C412 C 0.66231 0.30974 0.84529
 C413 C 0.58661 0.25168 0.91287
 C414 C 0.56643 0.25167 0.93315
 C415 C 0.68288 0.25125 0.81679
 C416 C 0.70324 0.25113 0.79674
 H417 H 0.67247 0.19166 0.81963
 H418 H 0.64619 0.14257 0.83505
 H419 H 0.60324 0.14296 0.87498
 H420 H 0.58664 0.19242 0.89998
 H421 H 0.59956 0.31093 0.91243
 H422 H 0.62471 0.36022 0.89560
 H423 H 0.66462 0.36024 0.85263
 H424 H 0.67990 0.31096 0.82659
 C425 C 0.15779 0.34246 0.24768
 C426 C 0.16505 0.37388 0.23811
 C427 C 0.14084 0.39744 0.23789
 C428 C 0.10980 0.38965 0.24829
 C429 C 0.10271 0.35834 0.25843
 C430 C 0.12666 0.33454 0.25761
 C431 C 0.11883 0.30320 0.26706
 C432 C 0.08845 0.29581 0.27792
 C433 C 0.06514 0.31921 0.27919
 C434 C 0.07200 0.35012 0.26943
 C435 C 0.14839 0.42846 0.22725
 C436 C 0.17905 0.43602 0.21728
 C437 C 0.20286 0.41309 0.21797
 C438 C 0.19612 0.38241 0.22845
 C439 C 0.08519 0.41382 0.24857
 C440 C 0.06475 0.43389 0.24882
 C441 C 0.18236 0.31832 0.24747
 C442 C 0.20273 0.29821 0.24745
 H443 H 0.13618 0.28420 0.26659
 H444 H 0.08301 0.27181 0.28547
 H445 H 0.04157 0.31337 0.28767
 H446 H 0.05303 0.36746 0.27068
 H447 H 0.13072 0.44715 0.22646
 H448 H 0.18438 0.45982 0.20908
 H449 H 0.22665 0.41907 0.21026
 H450 H 0.21541 0.36537 0.22847
 C451 C 0.84562 0.34172 0.75193
 C452 C 0.86109 0.35087 0.72353
 C453 C 0.88435 0.37530 0.72420
 C454 C 0.89167 0.39067 0.75319
 C455 C 0.87619 0.38150 0.78159
 C456 C 0.85348 0.35656 0.78104
 C457 C 0.83904 0.34707 0.80987
 C458 C 0.84603 0.36251 0.83827
 C459 C 0.86775 0.38738 0.83869
 C460 C 0.88287 0.39674 0.81078
 C461 C 0.89974 0.38389 0.69556
 C462 C 0.89231 0.36879 0.66709
 C463 C 0.86946 0.34499 0.66641
 C464 C 0.85391 0.33605 0.69423
 C465 C 0.91538 0.41563 0.75378
 C466 C 0.93522 0.43623 0.75396
 C467 C 0.82111 0.31760 0.75110
 C468 C 0.80053 0.29776 0.75046
 H469 H 0.82200 0.32786 0.81073
 H470 H 0.83442 0.35523 0.86002
 H471 H 0.87303 0.39937 0.86079
 H472 H 0.89977 0.41605 0.81233
 H473 H 0.91764 0.40233 0.69485
 H474 H 0.90432 0.37564 0.64541
 H475 H 0.86376 0.33343 0.64420
 H476 H 0.83629 0.31745 0.69251
 C477 C 0.15832 0.65860 0.75033
 C478 C 0.12933 0.66468 0.76622
 C479 C 0.10519 0.64112 0.76667
 C480 C 0.11039 0.61152 0.75153
 C481 C 0.13950 0.60538 0.73582
 C482 C 0.16348 0.62910 0.73505
 C483 C 0.19231 0.62258 0.71898
 C484 C 0.19738 0.59333 0.70430
 C485 C 0.17399 0.57004 0.70522
 C486 C 0.14532 0.57588 0.72072
 C487 C 0.07621 0.64784 0.78238
 C488 C 0.07129 0.67700 0.79730
 C489 C 0.09497 0.70000 0.79699
 C490 C 0.12372 0.69403 0.78169
 C491 C 0.08579 0.58742 0.75206
 C492 C 0.06540 0.56738 0.75244
 C493 C 0.18285 0.68269 0.74979
 C494 C 0.20318 0.70276 0.74947
 H495 H 0.21126 0.63991 0.71774
 H496 H 0.21961 0.58869 0.69222
 H497 H 0.17807 0.54733 0.69383
 H498 H 0.12784 0.55704 0.72075
 H499 H 0.05709 0.63068 0.78330
 H500 H 0.04897 0.68175 0.80918
 H501 H 0.09104 0.72261 0.80861
 H502 H 0.14138 0.71271 0.78200
 C503 C 0.84139 0.65678 0.25121
 C504 C 0.83404 0.62596 0.23992
 C505 C 0.85797 0.60213 0.23923
 C506 C 0.88879 0.60898 0.25085
 C507 C 0.89595 0.63966 0.26269
 C508 C 0.87231 0.66379 0.26237
 C509 C 0.88026 0.69454 0.27346
 C510 C 0.91041 0.70101 0.28545
 C511 C 0.93340 0.67727 0.28625
 C512 C 0.92644 0.64695 0.27487
 C513 C 0.85037 0.57179 0.22686
 C514 C 0.81993 0.56514 0.21567
 C515 C 0.79637 0.58830 0.21686
 C516 C 0.80316 0.61832 0.22904
 C517 C 0.91309 0.58451 0.25061
 C518 C 0.93330 0.56421 0.25039
 C519 C 0.81716 0.68128 0.25125
 C520 C 0.79700 0.70161 0.25121
 H521 H 0.86316 0.71378 0.27337
 H522 H 0.91592 0.72455 0.29425
 H523 H 0.95679 0.68239 0.29561
 H524 H 0.94517 0.62932 0.27580
 H525 H 0.86785 0.55293 0.22563
 H526 H 0.81456 0.54185 0.20616
 H527 H 0.77274 0.58303 0.20821
 H528 H 0.78406 0.63556 0.22942
 C529 C 0.16012 0.25327 0.65347
 C530 C 0.12964 0.26600 0.65992
 C531 C 0.10559 0.26490 0.63626
 C532 C 0.11210 0.25080 0.60643
 C533 C 0.14261 0.23811 0.59999
 C534 C 0.16685 0.23983 0.62340
 C535 C 0.19744 0.22787 0.61608
 C536 C 0.20363 0.21365 0.58686
 C537 C 0.17975 0.21139 0.56420
 C538 C 0.14959 0.22360 0.57048
 C539 C 0.07535 0.27796 0.64316
 C540 C 0.06904 0.29172 0.67258
 C541 C 0.09252 0.29273 0.69573
 C542 C 0.12251 0.28001 0.68964
 C543 C 0.08752 0.24980 0.58228
 C544 C 0.06702 0.24924 0.56233
 C545 C 0.18432 0.25334 0.67798
 C546 C 0.20436 0.25311 0.69839
 H547 H 0.21677 0.22905 0.63296
 H548 H 0.22705 0.20421 0.58186
 H549 H 0.18465 0.20024 0.54156
 H550 H 0.13185 0.22147 0.55203
 H551 H 0.05628 0.27770 0.62594
 H552 H 0.04579 0.30162 0.67744
 H553 H 0.08743 0.30340 0.71853
 H554 H 0.13998 0.28133 0.70841
 C555 C 0.84236 0.75142 0.66035
 C556 C 0.87047 0.76928 0.66486
 C557 C 0.89411 0.76983 0.64077
 C558 C 0.88957 0.75231 0.61245
 C559 C 0.86154 0.73424 0.60808
 C560 C 0.83781 0.73389 0.63207
 C561 C 0.80996 0.71569 0.62717
 C562 C 0.80574 0.69823 0.59940
 C563 C 0.82897 0.69853 0.57595
 C564 C 0.85658 0.71630 0.58009
 C565 C 0.92189 0.78812 0.64566
 C566 C 0.92620 0.80534 0.67358
 C567 C 0.90312 0.80473 0.69717
 C568 C 0.87553 0.78693 0.69300
 C569 C 0.91372 0.75279 0.58787
 C570 C 0.93377 0.75306 0.56744
 C571 C 0.81807 0.75121 0.68472
 C572 C 0.79780 0.75106 0.70489
 H573 H 0.79126 0.71464 0.64477
 H574 H 0.78434 0.68438 0.59608
 H575 H 0.82558 0.68491 0.55442
 H576 H 0.87396 0.71577 0.56117
 H577 H 0.94053 0.78933 0.62801
 H578 H 0.94758 0.81923 0.67692
 H579 H 0.90657 0.81816 0.71881
 H580 H 0.85823 0.78726 0.71200
 C581 C 0.15631 0.74831 0.34428
 C582 C 0.12573 0.73577 0.33809
 C583 C 0.10184 0.73720 0.36188
 C584 C 0.10861 0.75139 0.39159
 C585 C 0.13921 0.76388 0.39779
 C586 C 0.16329 0.76185 0.37424
 C587 C 0.19400 0.77358 0.38132
 C588 C 0.20045 0.78787 0.41045
 C589 C 0.17672 0.79043 0.43325
 C590 C 0.14645 0.77845 0.42719
 C591 C 0.07148 0.72433 0.35524
 C592 C 0.06494 0.71043 0.32595
 C593 C 0.08829 0.70908 0.30267
 C594 C 0.11837 0.72161 0.30850
 C595 C 0.08426 0.75254 0.41595
 C596 C 0.06399 0.75308 0.43613
 C597 C 0.18036 0.74795 0.31964
 C598 C 0.20033 0.74799 0.29917
 H599 H 0.21323 0.77215 0.36434
 H600 H 0.22396 0.79712 0.41527
 H601 H 0.18181 0.80162 0.45581
 H602 H 0.12882 0.78081 0.44575
 H603 H 0.05251 0.72485 0.37257
 H604 H 0.04160 0.70068 0.32129
 H605 H 0.08301 0.69828 0.27999
 H606 H 0.13574 0.72002 0.28965
 C607 C 0.84241 0.24677 0.34106
 C608 C 0.85531 0.27599 0.35157
 C609 C 0.87956 0.27614 0.37503
 C610 C 0.88993 0.24713 0.38864
 C611 C 0.87666 0.21793 0.37845
 C612 C 0.85326 0.21772 0.35415
 C613 C 0.84107 0.18819 0.34362
 C614 C 0.85091 0.15975 0.35746
 C615 C 0.87334 0.15999 0.38166
 C616 C 0.88629 0.18866 0.39200
 C617 C 0.89287 0.30558 0.38437
 C618 C 0.88237 0.33406 0.37105
 C619 C 0.85825 0.33395 0.34853
 C620 C 0.84463 0.30533 0.33899
 C621 C 0.91430 0.24732 0.41302
 C622 C 0.93458 0.24753 0.43321
 C623 C 0.81798 0.24661 0.31681
 C624 C 0.79771 0.24654 0.29665
 H625 H 0.82348 0.18680 0.32494
 H626 H 0.84096 0.13743 0.34945
 H627 H 0.88087 0.13783 0.39239
 H628 H 0.90384 0.18761 0.41075
 H629 H 0.91155 0.30690 0.40196
 H630 H 0.89292 0.35635 0.37835
 H631 H 0.85012 0.35613 0.33829
 H632 H 0.82598 0.30646 0.32135
 C633 C 0.25122 0.34320 0.84106
 C634 C 0.26442 0.33584 0.87110
 C635 C 0.26612 0.35964 0.89496
 C636 C 0.25360 0.39033 0.88901
 C637 C 0.23977 0.39749 0.85919
 C638 C 0.23870 0.37389 0.83509
 C639 C 0.22491 0.38165 0.80542
 C640 C 0.21241 0.41184 0.79980
 C641 C 0.21341 0.43490 0.82338
 C642 C 0.22693 0.42796 0.85276
 C643 C 0.28042 0.35204 0.92441
 C644 C 0.29244 0.32169 0.93022
 C645 C 0.29018 0.29822 0.90712
 C646 C 0.27616 0.30503 0.87794
 C647 C 0.25434 0.41438 0.91369
 C648 C 0.25455 0.43449 0.93406
 C649 C 0.25116 0.31943 0.81615
 C650 C 0.25139 0.29966 0.79547
 H651 H 0.22358 0.36452 0.78634
 H652 H 0.20191 0.41744 0.77704
 H653 H 0.20370 0.45832 0.81887
 H654 H 0.22721 0.44672 0.87032
 H655 H 0.28254 0.36944 0.94320
 H656 H 0.30344 0.31631 0.95283
 H657 H 0.29946 0.27465 0.91176
 H658 H 0.27497 0.28600 0.86072
 C659 C 0.74969 0.34005 0.15702
 C660 C 0.77873 0.35331 0.14651
 C661 C 0.77857 0.37790 0.12340
 C662 C 0.74942 0.38823 0.11010
 C663 C 0.72039 0.37461 0.12030
 C664 C 0.72049 0.35088 0.14429
 C665 C 0.69114 0.33834 0.15488
 C666 C 0.66256 0.34817 0.14136
 C667 C 0.66249 0.37093 0.11743
 C668 C 0.69099 0.38422 0.10706
 C669 C 0.80783 0.39160 0.11406
 C670 C 0.83645 0.38113 0.12707
 C671 C 0.83664 0.35668 0.14926
 C672 C 0.80821 0.34268 0.15878
 C673 C 0.74929 0.41284 0.08597
 C674 C 0.74919 0.43327 0.06592
 C675 C 0.74983 0.31527 0.18090
 C676 C 0.74995 0.29472 0.20079
 H677 H 0.68998 0.32050 0.17336
 H678 H 0.64037 0.33795 0.14941
 H679 H 0.64024 0.37844 0.10694
 H680 H 0.68971 0.40202 0.08854
 H681 H 0.80891 0.41055 0.09671
 H682 H 0.85859 0.39198 0.11978
 H683 H 0.85892 0.34857 0.15927
 H684 H 0.80957 0.32379 0.17617
 C685 C 0.74890 0.65778 0.84455
 C686 C 0.75918 0.62664 0.83700
 C687 C 0.75952 0.60277 0.86086
 C688 C 0.74853 0.60994 0.89181
 C689 C 0.73760 0.64093 0.89917
 C690 C 0.73831 0.66508 0.87560
 C691 C 0.72809 0.69612 0.88371
 C692 C 0.71657 0.70287 0.91397
 C693 C 0.71539 0.67912 0.93689
 C694 C 0.72592 0.64850 0.92976
 C695 C 0.77091 0.57206 0.85304
 C696 C 0.78147 0.56511 0.82246
 C697 C 0.78064 0.58833 0.79899
 C698 C 0.76944 0.61872 0.80599
 C699 C 0.74853 0.58547 0.91608
 C700 C 0.74858 0.56512 0.93622
 C701 C 0.74920 0.68230 0.82040
 C702 C 0.74940 0.70267 0.80032
 H703 H 0.72846 0.71536 0.86666
 H704 H 0.70843 0.72663 0.91961
 H705 H 0.70638 0.68446 0.96036
 H706 H 0.72470 0.63087 0.94844
 H707 H 0.77183 0.55315 0.87044
 H708 H 0.79023 0.54154 0.81693
 H709 H 0.78882 0.58282 0.77525
 H710 H 0.76936 0.63600 0.78695
 C711 C 0.24759 0.65740 0.15679
 C712 C 0.23502 0.62678 0.16279
 C713 C 0.23645 0.60303 0.13885
 C714 C 0.25070 0.61000 0.10920
 C715 C 0.26319 0.64066 0.10318
 C716 C 0.26114 0.66460 0.12688
 C717 C 0.27288 0.69537 0.11999
 C718 C 0.28720 0.70202 0.09092
 C719 C 0.28979 0.67842 0.06798
 C720 C 0.27780 0.64810 0.07384
 C721 C 0.22356 0.57262 0.14529
 C722 C 0.20963 0.56588 0.17453
 C723 C 0.20828 0.58908 0.19796
 C724 C 0.22083 0.61921 0.19232
 C725 C 0.25200 0.58575 0.08475
 C726 C 0.25272 0.56552 0.06453
 C727 C 0.24732 0.68126 0.18161
 C728 C 0.24743 0.70107 0.20224
 H729 H 0.27144 0.71450 0.13709
 H730 H 0.29647 0.72556 0.08625
 H731 H 0.30102 0.68367 0.04546
 H732 H 0.28018 0.63059 0.05518
 H733 H 0.22409 0.55376 0.12784
 H734 H 0.19986 0.54251 0.17905
 H735 H 0.19745 0.58365 0.22060
 H736 H 0.21923 0.63647 0.21128
 C737 C 0.34424 0.15935 0.74699
 C738 C 0.33701 0.12846 0.73581
 C739 C 0.36093 0.10459 0.73557
 C740 C 0.39162 0.11147 0.74751
 C741 C 0.39868 0.14225 0.75917
 C742 C 0.37507 0.16640 0.75841
 C743 C 0.38293 0.19722 0.76937
 C744 C 0.41296 0.20375 0.78164
 C745 C 0.43591 0.17998 0.78286
 C746 C 0.42904 0.14959 0.77163
 C747 C 0.35343 0.07415 0.72335
 C748 C 0.32310 0.06746 0.71187
 C749 C 0.29957 0.09066 0.71260
 C750 C 0.30625 0.12077 0.72462
 C751 C 0.41588 0.08692 0.74785
 C752 C 0.43604 0.06655 0.74817
 C753 C 0.31997 0.18383 0.74681
 C754 C 0.29981 0.20418 0.74672
 H755 H 0.36586 0.21648 0.76896
 H756 H 0.41840 0.22734 0.79033
 H757 H 0.45920 0.18515 0.79244
 H758 H 0.44774 0.13195 0.77290
 H759 H 0.37089 0.05527 0.72247
 H760 H 0.31781 0.04410 0.70249
 H761 H 0.27603 0.08535 0.70372
 H762 H 0.28717 0.13804 0.72465
 C763 C 0.34043 0.84095 0.25152
 C764 C 0.37141 0.83393 0.24046
 C765 C 0.39504 0.85802 0.24029
 C766 C 0.38781 0.88867 0.25221
 C767 C 0.35697 0.89551 0.26383
 C768 C 0.33305 0.87174 0.26295
 C769 C 0.30212 0.87939 0.27377
 C770 C 0.29530 0.90936 0.28611
 C771 C 0.31885 0.93244 0.28753
 C772 C 0.34933 0.92580 0.27638
 C773 C 0.42556 0.85073 0.22816
 C774 C 0.43257 0.82044 0.21669
 C775 C 0.40961 0.79673 0.21734
 C776 C 0.37941 0.80320 0.22928
 C777 C 0.41203 0.91318 0.25236
 C778 C 0.43217 0.93351 0.25236
 C779 C 0.31619 0.81652 0.25123
 C780 C 0.29601 0.79626 0.25106
 H781 H 0.28302 0.86221 0.27322
 H782 H 0.27163 0.91463 0.29473
 H783 H 0.31346 0.95568 0.29718
 H784 H 0.36681 0.94460 0.27778
 H785 H 0.44428 0.86832 0.22734
 H786 H 0.45600 0.81531 0.20736
 H787 H 0.41516 0.77322 0.20847
 H788 H 0.36233 0.78399 0.22925
 C789 C 0.65671 0.15477 0.24915
 C790 C 0.62738 0.16122 0.26426
 C791 C 0.60316 0.13772 0.26464
 C792 C 0.60858 0.10781 0.25020
 C793 C 0.63801 0.10132 0.23522
 C794 C 0.66208 0.12497 0.23452
 C795 C 0.69122 0.11807 0.21919
 C796 C 0.69652 0.08853 0.20517
 C797 C 0.67304 0.06533 0.20602
 C798 C 0.64406 0.07153 0.22080
 C799 C 0.57387 0.14483 0.27957
 C800 C 0.56869 0.17430 0.29379
 C801 C 0.59244 0.19723 0.29353
 C802 C 0.62151 0.19089 0.27901
 C803 C 0.58390 0.08377 0.25069
 C804 C 0.56342 0.06379 0.25104
 C805 C 0.68137 0.17876 0.24875
 C806 C 0.70179 0.19877 0.24854
 H807 H 0.71025 0.13532 0.21802
 H808 H 0.71898 0.08361 0.19365
 H809 H 0.67729 0.04239 0.19515
 H810 H 0.62653 0.05273 0.22081
 H811 H 0.55468 0.12775 0.28041
 H812 H 0.54614 0.17935 0.30507
 H813 H 0.58831 0.22009 0.30461
 H814 H 0.63920 0.20954 0.27933
 C815 C 0.65681 0.84339 0.75188
 C816 C 0.66461 0.87453 0.74176
 C817 C 0.64076 0.89845 0.74091
 C818 C 0.60953 0.89135 0.75122
 C819 C 0.60189 0.86035 0.76192
 C820 C 0.62549 0.83617 0.76176
 C821 C 0.61710 0.80514 0.77174
 C822 C 0.58652 0.79843 0.78248
 C823 C 0.56356 0.82220 0.78310
 C824 C 0.57098 0.85281 0.77281
 C825 C 0.64886 0.92912 0.72969
 C826 C 0.67969 0.93600 0.71977
 C827 C 0.70314 0.91274 0.72109
 C828 C 0.69587 0.88238 0.73215
 C829 C 0.58528 0.91591 0.75081
 C830 C 0.56515 0.93631 0.75045
 C831 C 0.68098 0.81882 0.75204
 C832 C 0.70115 0.79848 0.75211
 H833 H 0.63417 0.78588 0.77178
 H834 H 0.58066 0.77467 0.79044
 H835 H 0.53984 0.81688 0.79148
 H836 H 0.55226 0.87046 0.77357
 H837 H 0.63148 0.94807 0.72840
 H838 H 0.68544 0.95955 0.71113
 H839 H 0.72707 0.91819 0.71341
 H840 H 0.71490 0.86506 0.73263
 C841 C 0.74847 0.84236 0.65867
 C842 C 0.77720 0.85137 0.64368
 C843 C 0.77696 0.87535 0.61988
 C844 C 0.74807 0.89050 0.61151
 C845 C 0.71937 0.88163 0.62667
 C846 C 0.71949 0.85712 0.64993
 C847 C 0.69037 0.84797 0.66400
 C848 C 0.66208 0.86332 0.65617
 C849 C 0.66205 0.88772 0.63392
 C850 C 0.69027 0.89674 0.61911
 C851 C 0.80593 0.88372 0.60499
 C852 C 0.83434 0.86891 0.61343
 C853 C 0.83460 0.84561 0.63682
 C854 C 0.80645 0.83685 0.65187
 C855 C 0.74788 0.91491 0.58709
 C856 C 0.74799 0.93506 0.56669
 C857 C 0.74876 0.81825 0.68335
 C858 C 0.74900 0.79830 0.70392
 H859 H 0.68918 0.82911 0.68144
 H860 H 0.64009 0.85631 0.66753
 H861 H 0.64003 0.89964 0.62796
 H862 H 0.68902 0.91571 0.60179
 H863 H 0.80697 0.90178 0.58672
 H864 H 0.85628 0.87561 0.60181
 H865 H 0.85677 0.83434 0.64334
 H866 H 0.80787 0.81866 0.66996
 C867 C 0.25136 0.34239 0.15475
 C868 C 0.28030 0.35117 0.14002
 C869 C 0.28048 0.37535 0.11643
 C870 C 0.25181 0.39089 0.10802
 C871 C 0.22291 0.38221 0.12290
 C872 C 0.22261 0.35752 0.14595
 C873 C 0.19329 0.34858 0.15975
 C874 C 0.16521 0.36427 0.15182
 C875 C 0.16560 0.38884 0.12976
 C876 C 0.19402 0.39769 0.11524
 C877 C 0.30964 0.38351 0.10179
 C878 C 0.33782 0.36829 0.11027
 C879 C 0.33767 0.34478 0.13345
 C880 C 0.30932 0.33623 0.14826
 C881 C 0.25205 0.41551 0.08384
 C882 C 0.25238 0.43584 0.06364
 C883 C 0.25123 0.31814 0.17928
 C884 C 0.25113 0.29811 0.19975
 H885 H 0.19178 0.32960 0.17703
 H886 H 0.14307 0.35740 0.16296
 H887 H 0.14374 0.40102 0.12373
 H888 H 0.19309 0.41680 0.09806
 H889 H 0.31100 0.40172 0.08368
 H890 H 0.35991 0.37483 0.09884
 H891 H 0.35966 0.33318 0.13999
 H892 H 0.31041 0.31786 0.16619
 C893 C 0.25110 0.15897 0.65477
 C894 C 0.22184 0.14842 0.64200
 C895 C 0.22155 0.12478 0.61787
 C896 C 0.25046 0.11093 0.60752
 C897 C 0.27967 0.12098 0.62085
 C898 C 0.28003 0.14546 0.64412
 C899 C 0.30959 0.15575 0.65639
 C900 C 0.33792 0.14157 0.64674
 C901 C 0.33754 0.11726 0.62442
 C902 C 0.30884 0.10712 0.61140
 C903 C 0.19207 0.11551 0.60465
 C904 C 0.16368 0.12899 0.61513
 C905 C 0.16392 0.15162 0.63915
 C906 C 0.19258 0.16114 0.65268
 C907 C 0.25014 0.08634 0.58324
 C908 C 0.24989 0.06593 0.56309
 C909 C 0.25144 0.18372 0.67882
 C910 C 0.25170 0.20424 0.69881
 H911 H 0.31110 0.17453 0.67387
 H912 H 0.36027 0.14942 0.65675
 H913 H 0.35961 0.10628 0.61703
 H914 H 0.30978 0.08827 0.59396
 H915 H 0.19065 0.09782 0.58606
 H916 H 0.14136 0.12173 0.60465
 H917 H 0.14181 0.16198 0.64728
 H918 H 0.19155 0.17889 0.67123
 C919 C 0.24800 0.84170 0.34296
 C920 C 0.27717 0.85465 0.35358
 C921 C 0.27724 0.87923 0.37674
 C922 C 0.24821 0.88992 0.39004
 C923 C 0.21907 0.87659 0.37977
 C924 C 0.21894 0.85286 0.35573
 C925 C 0.18946 0.84065 0.34514
 C926 C 0.16098 0.85077 0.35866
 C927 C 0.16113 0.87351 0.38258
 C928 C 0.18976 0.88649 0.39298
 C929 C 0.30664 0.89256 0.38611
 C930 C 0.33516 0.88179 0.37313
 C931 C 0.33512 0.85736 0.35093
 C932 C 0.30654 0.84370 0.34137
 C933 C 0.24833 0.91458 0.41425
 C934 C 0.24848 0.93503 0.43435
 C935 C 0.24792 0.81696 0.31890
 C936 C 0.24792 0.79649 0.29886
 H937 H 0.18812 0.82284 0.32667
 H938 H 0.13869 0.84080 0.35061
 H939 H 0.13894 0.88124 0.39305
 H940 H 0.18864 0.90428 0.41149
 H941 H 0.30792 0.91148 0.40346
 H942 H 0.35742 0.89236 0.38045
 H943 H 0.35732 0.84901 0.34097
 H944 H 0.30773 0.82481 0.32398
 C945 C 0.74848 0.15522 0.34266
 C946 C 0.73553 0.12474 0.33666
 C947 C 0.73614 0.10108 0.36078
 C948 C 0.74994 0.10793 0.39067
 C949 C 0.76294 0.13839 0.39664
 C950 C 0.76173 0.16226 0.37275
 C951 C 0.77396 0.19282 0.37963
 C952 C 0.78797 0.19933 0.40887
 C953 C 0.78974 0.17582 0.43199
 C954 C 0.77724 0.14571 0.42615
 C955 C 0.72286 0.07086 0.35429
 C956 C 0.70937 0.06419 0.32484
 C957 C 0.70882 0.08729 0.30126
 C958 C 0.72175 0.11725 0.30694
 C959 C 0.75026 0.08379 0.41539
 C960 C 0.75022 0.06369 0.43584
 C961 C 0.74871 0.17913 0.31777
 C962 C 0.74912 0.19902 0.29713
 H963 H 0.77315 0.21189 0.36240
 H964 H 0.79763 0.22272 0.41354
 H965 H 0.80073 0.18097 0.45464
 H966 H 0.77898 0.12826 0.44495
 H967 H 0.72277 0.05207 0.37185
 H968 H 0.69932 0.04095 0.32029
 H969 H 0.69835 0.08190 0.27846
 H970 H 0.72079 0.13442 0.28784
 C971 C 0.65588 0.74946 0.84426
 C972 C 0.64651 0.72025 0.85811
 C973 C 0.62304 0.71989 0.88238
 C974 C 0.60818 0.74861 0.89184
 C975 C 0.61710 0.77775 0.87751
 C976 C 0.64142 0.77823 0.85407
 C977 C 0.65062 0.80776 0.84084
 C978 C 0.63553 0.83589 0.84969
 C979 C 0.61135 0.83535 0.87216
 C980 C 0.60227 0.80671 0.88613
 C981 C 0.61493 0.69051 0.89665
 C982 C 0.62941 0.66229 0.88704
 C983 C 0.65188 0.66257 0.86287
 C984 C 0.66025 0.69112 0.84834
 C985 C 0.58377 0.74819 0.91628
 C986 C 0.56351 0.74791 0.93657
 C987 C 0.68045 0.74991 0.82004
 C988 C 0.70089 0.75024 0.79998
 H989 H 0.66928 0.80939 0.82325
 H990 H 0.64256 0.85820 0.83896
 H991 H 0.59965 0.85726 0.87892
 H992 H 0.58349 0.80754 0.90366
 H993 H 0.59741 0.68905 0.91539
 H994 H 0.62303 0.64005 0.89831
 H995 H 0.66301 0.64058 0.85541
 H996 H 0.67787 0.69013 0.82966
 C997 C 0.15713 0.24954 0.33937
 C998 C 0.14284 0.27838 0.34919
 C999 C 0.11854 0.27797 0.37260
 C1000 C 0.10954 0.24884 0.38689
 C1001 C 0.12420 0.22005 0.37738
 C1002 C 0.14763 0.22034 0.35310
 C1003 C 0.16120 0.19115 0.34324
 C1004 C 0.15269 0.16262 0.35772
 C1005 C 0.13024 0.16241 0.38192
 C1006 C 0.11594 0.19069 0.39160
 C1007 C 0.10382 0.30699 0.38125
 C1008 C 0.11302 0.33561 0.36732
 C1009 C 0.13722 0.33607 0.34487
 C1010 C 0.15219 0.30788 0.33600
 C1011 C 0.08533 0.24854 0.41142
 C1012 C 0.06526 0.24839 0.43183
 C1013 C 0.18173 0.24992 0.31528
 C1014 C 0.20223 0.25017 0.29534
 H1015 H 0.17879 0.19011 0.32455
 H1016 H 0.16368 0.14059 0.35020
 H1017 H 0.12376 0.14019 0.39315
 H1018 H 0.09842 0.18929 0.41035
 H1019 H 0.08504 0.30787 0.39877
 H1020 H 0.10141 0.35756 0.37410
 H1021 H 0.14436 0.35835 0.33417
 H1022 H 0.17087 0.30945 0.31843
 C1023 C 0.65834 0.24645 0.15463
 C1024 C 0.66521 0.26002 0.12463
 C1025 C 0.64113 0.26183 0.10102
 C1026 C 0.61058 0.24911 0.10715
 C1027 C 0.60391 0.23496 0.13693
 C1028 C 0.62779 0.23376 0.16079
 C1029 C 0.62045 0.21966 0.19042
 C1030 C 0.59043 0.20697 0.19626
 C1031 C 0.56713 0.20808 0.17294
 C1032 C 0.57363 0.22191 0.14359
 C1033 C 0.64832 0.27644 0.07161
 C1034 C 0.67849 0.28868 0.06559
 C1035 C 0.70220 0.28634 0.08844
 C1036 C 0.69582 0.27201 0.11757
 C1037 C 0.58617 0.25012 0.08272
 C1038 C 0.56583 0.25064 0.06252
 C1039 C 0.68245 0.24616 0.17934
 C1040 C 0.70243 0.24619 0.19988
 H1041 H 0.63779 0.21826 0.20932
 H1042 H 0.58517 0.19624 0.21900
 H1043 H 0.54385 0.19820 0.17761
 H1044 H 0.55469 0.22225 0.12623
 H1045 H 0.63071 0.27864 0.05302
 H1046 H 0.68354 0.29991 0.04302
 H1047 H 0.72563 0.29580 0.08364
 H1048 H 0.71503 0.27076 0.13459
 C1049 C 0.34471 0.25210 0.83939
 C1050 C 0.35523 0.28121 0.85255
 C1051 C 0.37835 0.28115 0.87717
 C1052 C 0.39175 0.25205 0.88762
 C1053 C 0.38177 0.22299 0.87388
 C1054 C 0.35779 0.22298 0.85011
 C1055 C 0.34755 0.19356 0.83742
 C1056 C 0.36132 0.16504 0.84716
 C1057 C 0.38515 0.16509 0.86999
 C1058 C 0.39522 0.19363 0.88342
 C1059 C 0.38757 0.31049 0.89077
 C1060 C 0.37452 0.33907 0.88019
 C1061 C 0.35240 0.33917 0.85570
 C1062 C 0.34296 0.31066 0.84180
 C1063 C 0.41581 0.25201 0.91241
 C1064 C 0.43584 0.25192 0.93293
 C1065 C 0.32032 0.25210 0.81499
 C1066 C 0.30001 0.25212 0.79479
 H1067 H 0.32913 0.19231 0.81955
 H1068 H 0.35351 0.14281 0.83684
 H1069 H 0.39580 0.14287 0.87745
 H1070 H 0.41369 0.19243 0.90124
 H1071 H 0.40486 0.31165 0.90974
 H1072 H 0.38173 0.36128 0.89097
 H1073 H 0.34239 0.36143 0.84751
 H1074 H 0.32561 0.31194 0.82289
 C1075 C 0.34152 0.74778 0.15896
 C1076 C 0.35495 0.77676 0.14839
 C1077 C 0.37928 0.77650 0.12496
 C1078 C 0.38926 0.74733 0.11139
 C1079 C 0.37552 0.71837 0.12169
 C1080 C 0.35204 0.71856 0.14598
 C1081 C 0.33942 0.68923 0.15658
 C1082 C 0.34886 0.66062 0.14283
 C1083 C 0.37133 0.66049 0.11866
 C1084 C 0.38473 0.68894 0.10824
 C1085 C 0.39305 0.80573 0.11558
 C1086 C 0.38296 0.83438 0.12881
 C1087 C 0.35879 0.83467 0.15130
 C1088 C 0.34471 0.80628 0.16088
 C1089 C 0.41363 0.74714 0.08687
 C1090 C 0.43384 0.74708 0.06653
 C1091 C 0.31683 0.74803 0.18307
 C1092 C 0.29631 0.74823 0.20307
 H1093 H 0.32179 0.68813 0.17524
 H1094 H 0.33857 0.63846 0.15090
 H1095 H 0.37854 0.63820 0.10800
 H1096 H 0.40229 0.68759 0.08953
 H1097 H 0.41179 0.80674 0.09802
 H1098 H 0.39387 0.85649 0.12148
 H1099 H 0.35098 0.85698 0.16147
 H1100 H 0.32604 0.80773 0.17848
 C1101 C 0.84390 0.65951 0.75415
 C1102 C 0.85213 0.64432 0.78301
 C1103 C 0.87533 0.61972 0.78319
 C1104 C 0.89098 0.61117 0.75466
 C1105 C 0.88319 0.62681 0.72589
 C1106 C 0.85945 0.65090 0.72559
 C1107 C 0.85186 0.66592 0.69648
 C1108 C 0.86744 0.65757 0.66850
 C1109 C 0.89076 0.63416 0.66882
 C1110 C 0.89861 0.61884 0.69710
 C1111 C 0.88236 0.60419 0.81217
 C1112 C 0.86710 0.61289 0.84022
 C1113 C 0.84489 0.63738 0.84016
 C1114 C 0.83756 0.65313 0.81199
 C1115 C 0.91526 0.58654 0.75489
 C1116 C 0.93553 0.56621 0.75476
 C1117 C 0.81913 0.68360 0.75373
 C1118 C 0.79845 0.70349 0.75335
 H1119 H 0.83385 0.68423 0.69502
 H1120 H 0.86140 0.66928 0.64644
 H1121 H 0.90280 0.62777 0.64703
 H1122 H 0.91686 0.60072 0.69611
 H1123 H 0.89963 0.58515 0.81344
 H1124 H 0.87265 0.60067 0.86215
 H1125 H 0.83317 0.64414 0.86202
 H1126 H 0.82015 0.67203 0.81314
 C1127 C 0.34448 0.15865 0.25058
 C1128 C 0.35252 0.14373 0.27962
 C1129 C 0.37514 0.11863 0.28000
 C1130 C 0.39038 0.10937 0.25149
 C1131 C 0.38286 0.12480 0.22255
 C1132 C 0.35969 0.14939 0.22206
 C1133 C 0.35232 0.16425 0.19280
 C1134 C 0.36760 0.15524 0.16487
 C1135 C 0.39038 0.13129 0.16537
 C1136 C 0.39798 0.11613 0.19380
 C1137 C 0.38198 0.10332 0.30914
 C1138 C 0.36711 0.11277 0.33717
 C1139 C 0.34550 0.13777 0.33691
 C1140 C 0.33835 0.15329 0.30856
 C1141 C 0.41409 0.08429 0.25194
 C1142 C 0.43394 0.06361 0.25209
 C1143 C 0.32008 0.18301 0.24993
 C1144 C 0.29963 0.20305 0.24940
 H1145 H 0.33475 0.18296 0.19121
 H1146 H 0.36175 0.16683 0.14270
 H1147 H 0.40218 0.12438 0.14361
 H1148 H 0.41580 0.09758 0.19296
 H1149 H 0.39881 0.08389 0.31057
 H1150 H 0.37251 0.10071 0.35923
 H1151 H 0.33408 0.14511 0.35874
 H1152 H 0.32138 0.17260 0.30955
 C1153 C 0.15513 0.65585 0.25040
 C1154 C 0.12554 0.66181 0.23557
 C1155 C 0.10159 0.63798 0.23561
 C1156 C 0.10751 0.60817 0.25013
 C1157 C 0.13721 0.60217 0.26479
 C1158 C 0.16100 0.62614 0.26509
 C1159 C 0.19040 0.61966 0.28010
 C1160 C 0.19622 0.59025 0.29420
 C1161 C 0.17303 0.56675 0.29374
 C1162 C 0.14381 0.57252 0.27928
 C1163 C 0.07205 0.64466 0.22097
 C1164 C 0.06637 0.67399 0.20663
 C1165 C 0.08985 0.69721 0.20644
 C1166 C 0.11915 0.69131 0.22068
 C1167 C 0.08310 0.58372 0.24999
 C1168 C 0.06286 0.56341 0.24989
 C1169 C 0.17952 0.68025 0.25053
 C1170 C 0.19979 0.70048 0.25062
 H1171 H 0.20923 0.63714 0.28096
 H1172 H 0.21888 0.58565 0.30547
 H1173 H 0.17770 0.54392 0.30469
 H1174 H 0.12652 0.55350 0.27958
 H1175 H 0.05306 0.62735 0.22047
 H1176 H 0.04363 0.67871 0.19558
 H1177 H 0.08532 0.71995 0.19526
 H1178 H 0.13661 0.71016 0.22003
 C1179 C 0.84217 0.33975 0.24904
 C1180 C 0.87307 0.33286 0.26045
 C1181 C 0.89660 0.35709 0.26103
 C1182 C 0.88941 0.38781 0.24920
 C1183 C 0.85864 0.39454 0.23731
 C1184 C 0.83481 0.37061 0.23773
 C1185 C 0.80400 0.37819 0.22658
 C1186 C 0.79716 0.40823 0.21440
 C1187 C 0.82059 0.43147 0.21347
 C1188 C 0.85097 0.42490 0.22492
 C1189 C 0.92700 0.34986 0.27348
 C1190 C 0.93402 0.31953 0.28487
 C1191 C 0.91118 0.29571 0.28382
 C1192 C 0.88109 0.30211 0.27156
 C1193 C 0.91364 0.41246 0.24928
 C1194 C 0.93375 0.43290 0.24936
 C1195 C 0.81798 0.31513 0.24891
 C1196 C 0.79786 0.29472 0.24879
 H1197 H 0.78499 0.36089 0.22676
 H1198 H 0.77357 0.41345 0.20554
 H1199 H 0.81517 0.45477 0.20396
 H1200 H 0.86834 0.44382 0.22389
 H1201 H 0.94562 0.36754 0.27462
 H1202 H 0.95735 0.31446 0.29444
 H1203 H 0.91674 0.27217 0.29264
 H1204 H 0.86411 0.28281 0.27129
 C1205 C 0.15886 0.34487 0.74822
 C1206 C 0.16421 0.37471 0.73364
 C1207 C 0.14027 0.39858 0.73469
 C1208 C 0.11095 0.39233 0.74996
 C1209 C 0.10553 0.36237 0.76434
 C1210 C 0.12962 0.33864 0.76362
 C1211 C 0.12372 0.30896 0.77833
 C1212 C 0.09477 0.30281 0.79315
 C1213 C 0.07117 0.32594 0.79373
 C1214 C 0.07637 0.35543 0.77957
 C1215 C 0.14636 0.42838 0.72029
 C1216 C 0.17521 0.43439 0.70521
 C1217 C 0.19853 0.41098 0.70402
 C1218 C 0.19321 0.38143 0.71801
 C1219 C 0.08636 0.41664 0.75082
 C1220 C 0.06595 0.43680 0.75148
 C1221 C 0.18344 0.32063 0.74753
 C1222 C 0.20381 0.30045 0.74711
 H1223 H 0.14130 0.29016 0.77840
 H1224 H 0.09062 0.27994 0.80419
 H1225 H 0.04871 0.32103 0.80525
 H1226 H 0.05729 0.37267 0.78068
 H1227 H 0.12894 0.44733 0.72056
 H1228 H 0.17948 0.45733 0.69436
 H1229 H 0.22089 0.41577 0.69226
 H1230 H 0.21212 0.36403 0.71657
 C1231 C 0.84179 0.75072 0.34327
 C1232 C 0.85198 0.78010 0.35609
 C1233 C 0.87519 0.78055 0.38058
 C1234 C 0.88896 0.75170 0.39120
 C1235 C 0.87930 0.72238 0.37782
 C1236 C 0.85523 0.72186 0.35417
 C1237 C 0.84527 0.69220 0.34182
 C1238 C 0.85941 0.66394 0.35177
 C1239 C 0.88334 0.66448 0.37449
 C1240 C 0.89314 0.69328 0.38758
 C1241 C 0.88411 0.81012 0.39388
 C1242 C 0.87066 0.83845 0.38311
 C1243 C 0.84844 0.83805 0.35873
 C1244 C 0.83929 0.80929 0.34513
 C1245 C 0.91311 0.75219 0.41581
 C1246 C 0.93320 0.75254 0.43620
 C1247 C 0.81736 0.75021 0.31901
 C1248 C 0.79702 0.74988 0.29891
 H1249 H 0.82679 0.69057 0.32404
 H1250 H 0.85181 0.64152 0.34171
 H1251 H 0.89428 0.64246 0.38212
 H1252 H 0.91170 0.69247 0.40534
 H1253 H 0.90148 0.81167 0.41275
 H1254 H 0.87765 0.86084 0.39366
 H1255 H 0.83810 0.86011 0.35038
 H1256 H 0.82184 0.81019 0.32629
 C1257 C 0.84455 0.25037 0.65715
 C1258 C 0.84038 0.26865 0.62925
 C1259 C 0.86415 0.26839 0.60529
 C1260 C 0.89183 0.24964 0.60929
 C1261 C 0.89599 0.23135 0.63722
 C1262 C 0.87232 0.23183 0.66128
 C1263 C 0.87702 0.21344 0.68904
 C1264 C 0.90426 0.19497 0.69285
 C1265 C 0.92737 0.19442 0.66927
 C1266 C 0.92342 0.21238 0.64174
 C1267 C 0.85957 0.28709 0.57772
 C1268 C 0.83229 0.30551 0.57393
 C1269 C 0.80901 0.30570 0.59733
 C1270 C 0.81286 0.28751 0.62471
 C1271 C 0.91600 0.24918 0.58469
 C1272 C 0.93602 0.24889 0.56423
 C1273 C 0.82021 0.25053 0.68150
 C1274 C 0.79992 0.25063 0.70165
 H1275 H 0.85967 0.21302 0.70800
 H1276 H 0.90744 0.18097 0.71419
 H1277 H 0.94848 0.18002 0.67234
 H1278 H 0.94207 0.21120 0.62409
 H1279 H 0.87700 0.28771 0.55884
 H1280 H 0.82919 0.31969 0.55270
 H1281 H 0.78786 0.32006 0.59428
 H1282 H 0.79413 0.28852 0.64229
 C1283 C 0.15856 0.75057 0.65672
 C1284 C 0.16503 0.76382 0.62650
 C1285 C 0.14059 0.76546 0.60328
 C1286 C 0.11013 0.75290 0.61008
 C1287 C 0.10385 0.73909 0.64010
 C1288 C 0.12810 0.73805 0.66355
 C1289 C 0.12119 0.72430 0.69346
 C1290 C 0.09124 0.71178 0.69992
 C1291 C 0.06756 0.71271 0.67696
 C1292 C 0.07364 0.72622 0.64737
 C1293 C 0.14734 0.77972 0.57360
 C1294 C 0.17745 0.79179 0.56696
 C1295 C 0.20152 0.78963 0.58945
 C1296 C 0.19556 0.77564 0.61883
 C1297 C 0.08542 0.75364 0.58606
 C1298 C 0.06484 0.75387 0.56617
 C1299 C 0.18303 0.75038 0.68096
 C1300 C 0.20327 0.75043 0.70118
 H1301 H 0.13883 0.72305 0.71209
 H1302 H 0.08631 0.70131 0.72285
 H1303 H 0.04433 0.70296 0.68212
 H1304 H 0.05441 0.72645 0.63032
 H1305 H 0.12944 0.78177 0.55527
 H1306 H 0.18217 0.80274 0.54418
 H1307 H 0.22489 0.79897 0.58417
 H1308 H 0.21503 0.77453 0.63556
 C1309 C 0.74890 0.65633 0.15922
 C1310 C 0.71974 0.64567 0.14634
 C1311 C 0.71969 0.62221 0.12209
 C1312 C 0.74873 0.60865 0.11178
 C1313 C 0.77785 0.61877 0.12525
 C1314 C 0.77796 0.64310 0.14863
 C1315 C 0.80742 0.65353 0.16105
 C1316 C 0.83587 0.63958 0.15144
 C1317 C 0.83572 0.61538 0.12899
 C1318 C 0.80713 0.60512 0.11583
 C1319 C 0.69031 0.61280 0.10872
 C1320 C 0.66179 0.62603 0.11919
 C1321 C 0.66181 0.64852 0.14334
 C1322 C 0.69036 0.65814 0.15700
 C1323 C 0.74867 0.58437 0.08730
 C1324 C 0.74867 0.56423 0.06696
 C1325 C 0.74901 0.68096 0.18328
 C1326 C 0.74909 0.70143 0.20326
 H1327 H 0.80875 0.67223 0.17862
 H1328 H 0.85813 0.64753 0.16156
 H1329 H 0.85789 0.60457 0.12163
 H1330 H 0.80825 0.58636 0.09829
 H1331 H 0.68907 0.59522 0.09002
 H1332 H 0.63955 0.61868 0.10859
 H1333 H 0.63960 0.65868 0.15146
 H1334 H 0.68916 0.67578 0.17566
 C1335 C 0.25108 0.65843 0.84243
 C1336 C 0.23869 0.62783 0.83596
 C1337 C 0.23983 0.60380 0.85968
 C1338 C 0.25358 0.61045 0.88964
 C1339 C 0.26598 0.64107 0.89609
 C1340 C 0.26423 0.66528 0.87260
 C1341 C 0.27586 0.69597 0.87995
 C1342 C 0.28979 0.70230 0.90927
 C1343 C 0.29207 0.67845 0.93201
 C1344 C 0.28018 0.64819 0.92570
 C1345 C 0.22712 0.57344 0.85275
 C1346 C 0.21364 0.56699 0.82324
 C1347 C 0.21256 0.59046 0.80004
 C1348 C 0.22495 0.62056 0.80616
 C1349 C 0.25434 0.58599 0.91397
 C1350 C 0.25454 0.56562 0.93412
 C1351 C 0.25090 0.68266 0.81789
 C1352 C 0.25100 0.70275 0.79748
 H1353 H 0.27465 0.71529 0.86302
 H1354 H 0.29898 0.72579 0.91429
 H1355 H 0.30299 0.68346 0.95473
 H1356 H 0.28231 0.63048 0.94421
 H1357 H 0.22745 0.55437 0.87000
 H1358 H 0.20402 0.54364 0.81834
 H1359 H 0.20210 0.58526 0.77718
 H1360 H 0.22357 0.63802 0.78735
 C1361 C 0.75077 0.34292 0.84226
 C1362 C 0.74003 0.33519 0.87315
 C1363 C 0.73899 0.35902 0.89702
 C1364 C 0.74977 0.39017 0.89013
 C1365 C 0.76094 0.39777 0.85934
 C1366 C 0.76091 0.37421 0.83518
 C1367 C 0.77136 0.38259 0.80434
 C1368 C 0.78242 0.41310 0.79780
 C1369 C 0.78293 0.43601 0.82156
 C1370 C 0.77219 0.42862 0.85197
 C1371 C 0.72714 0.35099 0.92743
 C1372 C 0.71677 0.32024 0.93411
 C1373 C 0.71828 0.29680 0.91091
 C1374 C 0.72997 0.30400 0.88082
 C1375 C 0.74945 0.41432 0.91473
 C1376 C 0.74926 0.43437 0.93516
 C1377 C 0.75130 0.31872 0.81777
 C1378 C 0.75161 0.29857 0.79747
 H1379 H 0.77152 0.36555 0.78510
 H1380 H 0.79075 0.41895 0.77420
 H1381 H 0.79158 0.45968 0.81637
 H1382 H 0.77287 0.44730 0.86961
 H1383 H 0.72567 0.36837 0.94631
 H1384 H 0.70763 0.31455 0.95745
 H1385 H 0.71025 0.27294 0.91621
 H1386 H 0.73059 0.28498 0.86355
 C1387 C 0.65597 0.84180 0.25118
 C1388 C 0.66146 0.87137 0.23611
 C1389 C 0.63746 0.89516 0.23643
 C1390 C 0.60800 0.88905 0.25146
 C1391 C 0.60247 0.85940 0.26639
 C1392 C 0.62663 0.83577 0.26642
 C1393 C 0.62069 0.80638 0.28171
 C1394 C 0.59160 0.80043 0.29634
 C1395 C 0.56790 0.82348 0.29615
 C1396 C 0.57315 0.85268 0.28142
 C1397 C 0.64363 0.92472 0.22157
 C1398 C 0.67266 0.93055 0.20676
 C1399 C 0.69606 0.90721 0.20630
 C1400 C 0.69065 0.87789 0.22074
 C1401 C 0.58341 0.91325 0.25158
 C1402 C 0.56302 0.93339 0.25167
 C1403 C 0.68050 0.81761 0.25102
 C1404 C 0.70084 0.79747 0.25094
 H1405 H 0.63834 0.78766 0.28237
 H1406 H 0.58741 0.77779 0.30782
 H1407 H 0.54532 0.81872 0.30751
 H1408 H 0.55400 0.86987 0.28195
 H1409 H 0.62616 0.94361 0.22127
 H1410 H 0.67700 0.95331 0.19556
 H1411 H 0.71856 0.91185 0.19475
 H1412 H 0.70962 0.86053 0.21986
 C1413 C 0.65834 0.15899 0.74884
 C1414 C 0.62720 0.16670 0.75898
 C1415 C 0.60335 0.14283 0.75959
 C1416 C 0.61053 0.11167 0.74905
 C1417 C 0.64157 0.10409 0.73845
 C1418 C 0.66568 0.12770 0.73887
 C1419 C 0.69675 0.11936 0.72899
 C1420 C 0.70358 0.08884 0.71809
 C1421 C 0.67986 0.06588 0.71719
 C1422 C 0.64921 0.07324 0.72738
 C1423 C 0.57265 0.15085 0.77079
 C1424 C 0.56569 0.18162 0.78095
 C1425 C 0.58889 0.20508 0.77989
 C1426 C 0.61927 0.19789 0.76884
 C1427 C 0.58601 0.08742 0.74911
 C1428 C 0.56566 0.06728 0.74916
 C1429 C 0.68281 0.18323 0.74870
 C1430 C 0.70314 0.20336 0.74867
 H1431 H 0.71597 0.13643 0.72915
 H1432 H 0.72737 0.08302 0.71020
 H1433 H 0.68526 0.04220 0.70868
 H1434 H 0.63162 0.05452 0.72641
 H1435 H 0.55375 0.13346 0.77189
 H1436 H 0.54212 0.18730 0.78957
 H1437 H 0.58338 0.22896 0.78776
 H1438 H 0.63653 0.21693 0.76855
 C1439 C 0.34316 0.84373 0.74945
 C1440 C 0.37409 0.83679 0.76070
 C1441 C 0.39760 0.86101 0.76118
 C1442 C 0.39031 0.89172 0.74943
 C1443 C 0.35949 0.89851 0.73771
 C1444 C 0.33570 0.87458 0.73822
 C1445 C 0.30481 0.88216 0.72723
 C1446 C 0.29790 0.91222 0.71513
 C1447 C 0.32132 0.93547 0.71412
 C1448 C 0.35176 0.92888 0.72541
 C1449 C 0.42809 0.85377 0.77344
 C1450 C 0.43518 0.82343 0.78475
 C1451 C 0.41233 0.79961 0.78381
 C1452 C 0.38218 0.80603 0.77174
 C1453 C 0.41448 0.91631 0.74940
 C1454 C 0.43460 0.93668 0.74937
 C1455 C 0.31904 0.81915 0.74939
 C1456 C 0.29898 0.79875 0.74931
 H1457 H 0.28581 0.86486 0.72748
 H1458 H 0.27427 0.91744 0.70640
 H1459 H 0.31585 0.95878 0.70467
 H1460 H 0.36912 0.94781 0.72432
 H1461 H 0.44671 0.87145 0.77449
 H1462 H 0.45857 0.81834 0.79416
 H1463 H 0.41795 0.77606 0.79256
 H1464 H 0.36520 0.78673 0.77153
   
