data_POSCAR
  _audit_creation_date              2014-09-24
  _audit_creation_method            'ToBaCCo'
  _symmetry_space_group_name_H-M    'P1'
  _symmetry_Int_Tables_number       1
  _symmetry_cell_setting            triclinic
  loop_
  _symmetry_equiv_pos_as_xyz
 x,y,z
_cell_length_a 47.0612
_cell_length_b 44.7136
_cell_length_c 46.3157
_cell_angle_alpha 90.802200
_cell_angle_beta 88.813800
_cell_angle_gamma 89.493500
loop_
  _atom_site_label
  _atom_site_type_symbol
  _atom_site_fract_x
  _atom_site_fract_y
  _atom_site_fract_z
C1 C 0.70788 0.65192 0.97260
 H2 H 0.71871 0.63688 0.95750
 C3 C 0.68264 0.66586 0.96459
 H4 H 0.67433 0.66100 0.94344
 C5 C 0.70454 0.67462 1.01905
 H6 H 0.71278 0.67726 1.04056
 C7 C 0.67937 0.68927 1.01184
 H8 H 0.66891 0.70376 1.02775
 N9 N 0.71822 0.65625 0.99953
 C10 C 0.80747 0.64657 1.02241
 H11 H 0.81049 0.62317 1.01690
 C12 C 0.83052 0.66336 1.03163
 H13 H 0.85102 0.65254 1.03388
 C14 C 0.77704 0.68896 1.02651
 H15 H 0.75631 0.69901 1.02431
 C16 C 0.79945 0.70652 1.03608
 H17 H 0.79563 0.72990 1.04136
 Zn18 Zn 0.75072 0.63384 1.01073
 N19 N 0.78118 0.65930 1.02078
 C20 C 0.77885 0.62242 0.95813
 N21 N 0.76314 0.60944 0.97941
 C22 C 0.75549 0.58023 0.97764
 C23 C 0.76328 0.56298 0.95331
 C24 C 0.78741 0.60592 0.93367
 C25 C 0.76133 0.59689 1.05874
 C26 C 0.75447 0.58175 1.08411
 C27 C 0.70495 0.59180 1.07569
 C28 C 0.71288 0.60687 1.05061
 N29 N 0.74070 0.60984 1.04298
 H30 H 0.78433 0.64580 0.96000
 H31 H 0.74280 0.57055 0.99479
 H32 H 0.75674 0.53985 0.95191
 H33 H 0.79941 0.61675 0.91664
 H34 H 0.78331 0.59860 1.05194
 H35 H 0.77187 0.57136 1.09517
 H36 H 0.68257 0.59210 1.08123
 H37 H 0.69663 0.61677 1.03757
 C38 C 0.82646 0.69356 1.03929
 C39 C 0.66780 0.68463 0.98440
 C40 C 0.72582 0.57943 1.09384
 C41 C 0.77932 0.57591 0.93091
 C42 C 0.72370 0.33900 0.53239
 H43 H 0.73259 0.35278 0.54918
 C44 C 0.70141 0.31976 0.53926
 H45 H 0.69280 0.31968 0.56113
 C46 C 0.72354 0.32262 0.48357
 H47 H 0.73249 0.32336 0.46199
 C48 C 0.70128 0.30315 0.48944
 H49 H 0.69295 0.28949 0.47214
 N50 N 0.73358 0.34093 0.50465
 C51 C 0.81394 0.36373 0.46435
 H52 H 0.81011 0.38669 0.45834
 C53 C 0.83993 0.34991 0.45740
 H54 H 0.85610 0.36243 0.44598
 C55 C 0.79812 0.32026 0.48841
 H56 H 0.78202 0.30912 0.50117
 C57 C 0.82369 0.30555 0.48181
 H58 H 0.82676 0.28282 0.48894
 Zn59 Zn 0.76139 0.36951 0.49383
 N60 N 0.79393 0.34892 0.47999
 C61 C 0.79940 0.39504 0.53344
 N62 N 0.77155 0.39343 0.52634
 C63 C 0.75119 0.40859 0.54204
 C64 C 0.75853 0.42602 0.56597
 C65 C 0.80772 0.41249 0.55693
 C66 C 0.74151 0.38178 0.43778
 C67 C 0.72681 0.39806 0.41719
 C68 C 0.72529 0.44020 0.45033
 C69 C 0.73991 0.42312 0.47025
 N70 N 0.74665 0.39402 0.46423
 H71 H 0.81537 0.38290 0.52088
 H72 H 0.72914 0.40695 0.53608
 H73 H 0.74186 0.43724 0.57852
 H74 H 0.83009 0.41382 0.56171
 H75 H 0.74825 0.35913 0.43278
 H76 H 0.72161 0.38738 0.39688
 H77 H 0.71944 0.46306 0.45593
 H78 H 0.74503 0.43302 0.49082
 C79 C 0.84523 0.32061 0.46666
 C80 C 0.68938 0.30223 0.51740
 C81 C 0.71763 0.42735 0.42381
 C82 C 0.78718 0.42817 0.57372
 C83 C 0.19844 -0.11200 0.00402
 H84 H 0.20827 -0.09526 0.01740
 C85 C 0.17259 -0.12418 0.01297
 H86 H 0.16303 -0.11714 0.03346
 C87 C 0.19796 -0.14069 -0.03941
 H88 H 0.20800 -0.14686 -0.05987
 C89 C 0.17172 -0.15292 -0.03157
 H90 H 0.16166 -0.16878 -0.04589
 N91 N 0.21075 -0.12064 -0.02164
 C92 C 0.29568 -0.12393 -0.05948
 H93 H 0.29569 -0.10197 -0.06901
 C94 C 0.31781 -0.14390 -0.06601
 H95 H 0.33375 -0.13693 -0.08153
 C96 C 0.27346 -0.15912 -0.02903
 H97 H 0.25611 -0.16474 -0.01447
 C98 C 0.29602 -0.17937 -0.03381
 H99 H 0.29564 -0.20015 -0.02221
 Zn100 Zn 0.24482 -0.10286 -0.03508
 N101 N 0.27367 -0.13206 -0.04200
 C102 C 0.26632 -0.04748 -0.01120
 N103 N 0.25938 -0.07654 -0.00655
 C104 C 0.26472 -0.08972 0.01909
 C105 C 0.27670 -0.07351 0.04160
 C106 C 0.27880 -0.03048 0.01071
 C107 C 0.24122 -0.10092 -0.09488
 C108 C 0.23369 -0.09046 -0.12181
 C109 C 0.21425 -0.04604 -0.09853
 C110 C 0.22231 -0.05755 -0.07187
 N111 N 0.23615 -0.08427 -0.07059
 H112 H 0.26299 -0.03768 -0.03205
 H113 H 0.25983 -0.11310 0.02195
 H114 H 0.28110 -0.08464 0.06166
 H115 H 0.28454 -0.00749 0.00668
 H116 H 0.25016 -0.12316 -0.09338
 H117 H 0.23705 -0.10586 -0.13973
 H118 H 0.20445 -0.02412 -0.09818
 H119 H 0.21722 -0.04521 -0.05216
 C120 C 0.31869 -0.17215 -0.05288
 C121 C 0.15891 -0.14472 -0.00501
 C122 C 0.21991 -0.06238 -0.12458
 C123 C 0.28408 -0.04355 0.03754
 C124 C 0.25163 0.18493 0.45357
 H125 H 0.26901 0.17906 0.43887
 C126 C 0.23303 0.20824 0.44689
 H127 H 0.23613 0.22033 0.42698
 C128 C 0.22498 0.17484 0.49627
 H129 H 0.22107 0.16120 0.51489
 C130 C 0.20628 0.19824 0.49072
 H131 H 0.18814 0.20207 0.50513
 N132 N 0.24685 0.16827 0.47753
 C133 C 0.32027 0.11902 0.50670
 H134 H 0.31182 0.09660 0.50631
 C135 C 0.34681 0.12432 0.51843
 H136 H 0.35854 0.10579 0.52731
 C137 C 0.31443 0.17051 0.49658
 H138 H 0.30160 0.18840 0.48814
 C139 C 0.34104 0.17680 0.50791
 H140 H 0.34865 0.19957 0.50765
 Zn141 Zn 0.26860 0.13289 0.48182
 N142 N 0.30474 0.14196 0.49604
 C143 C 0.29782 0.10514 0.43447
 N144 N 0.27192 0.11412 0.44501
 C145 C 0.24820 0.11164 0.42884
 C146 C 0.25008 0.10000 0.40068
 C147 C 0.30058 0.09300 0.40665
 C148 C 0.24881 0.11626 0.53661
 C149 C 0.23339 0.09972 0.55674
 C150 C 0.22372 0.06346 0.51915
 C151 C 0.23890 0.08104 0.49960
 N152 N 0.25035 0.10733 0.50845
 H153 H 0.31646 0.10773 0.44746
 H154 H 0.22790 0.11926 0.43767
 H155 H 0.23110 0.09838 0.38793
 H156 H 0.32145 0.08636 0.39845
 H157 H 0.25865 0.13698 0.54318
 H158 H 0.23105 0.10840 0.57859
 H159 H 0.21463 0.04271 0.51156
 H160 H 0.24105 0.07392 0.47727
 C161 C 0.35761 0.15352 0.51905
 C162 C 0.20968 0.21462 0.46534
 C163 C 0.22007 0.07315 0.54803
 C164 C 0.27655 0.09050 0.38932
 C165 C 0.15078 0.46265 0.20936
 H166 H 0.14192 0.44791 0.22543
 C167 C 0.17060 0.45154 0.18904
 H168 H 0.17692 0.42823 0.18976
 C169 C 0.15374 0.51109 0.18939
 H170 H 0.14695 0.53426 0.18972
 C171 C 0.17352 0.50088 0.16856
 H172 H 0.18148 0.51631 0.15257
 N173 N 0.14261 0.49188 0.20901
 C174 C 0.11881 0.53269 0.29166
 H175 H 0.09592 0.53063 0.29201
 C176 C 0.13271 0.54179 0.31658
 H177 H 0.12029 0.54660 0.33605
 C178 C 0.16284 0.52637 0.26645
 H179 H 0.17456 0.51978 0.24706
 C180 C 0.17755 0.53568 0.29072
 H181 H 0.20052 0.53668 0.28950
 Zn182 Zn 0.11522 0.50596 0.23632
 N183 N 0.13404 0.52433 0.26754
 C184 C 0.10161 0.46185 0.27643
 N185 N 0.09472 0.47254 0.25011
 C186 C 0.07613 0.45777 0.23299
 C187 C 0.06373 0.43115 0.24223
 C188 C 0.08962 0.43558 0.28654
 C189 C 0.08742 0.56188 0.22928
 C190 C 0.07411 0.58398 0.21323
 C191 C 0.06831 0.54779 0.17464
 C192 C 0.08166 0.52639 0.19142
 N193 N 0.09139 0.53386 0.21798
 H194 H 0.11741 0.47290 0.28921
 H195 H 0.07140 0.46613 0.21188
 H196 H 0.04917 0.41949 0.22830
 H197 H 0.09612 0.42708 0.30719
 H198 H 0.09583 0.56765 0.25011
 H199 H 0.07254 0.60655 0.22194
 H200 H 0.06164 0.54170 0.15312
 H201 H 0.08591 0.50434 0.18243
 C202 C 0.16255 0.54256 0.31654
 C203 C 0.18204 0.47066 0.16808
 C204 C 0.06518 0.57724 0.18518
 C205 C 0.07058 0.41975 0.26931
 C206 C -0.15043 0.01061 0.24085
 H207 H -0.16583 0.00459 0.25736
 C208 C -0.15962 0.02031 0.21388
 H209 H -0.18223 0.02096 0.21028
 C210 C -0.10242 0.01474 0.22546
 H211 H -0.08008 0.01245 0.23015
 C212 C -0.11052 0.02448 0.19846
 H213 H -0.09375 0.03070 0.18349
 N214 N -0.12221 0.00807 0.24604
 C215 C -0.13496 -0.05334 0.30983
 H216 H -0.11914 -0.06752 0.29927
 C217 C -0.15501 -0.06614 0.32826
 H218 H -0.15459 -0.09010 0.33143
 C219 C -0.15443 -0.00504 0.31925
 H220 H -0.15392 0.01880 0.31562
 C221 C -0.17468 -0.01695 0.33842
 H222 H -0.19002 -0.00229 0.34931
 Zn223 Zn -0.10685 -0.00731 0.28035
 N224 N -0.13520 -0.02335 0.30529
 C225 C -0.07599 0.01737 0.32629
 N226 N -0.08714 0.02313 0.30008
 C227 C -0.08396 0.05025 0.28758
 C228 C -0.06797 0.07239 0.30079
 C229 C -0.06025 0.03918 0.34062
 C230 C -0.09207 -0.05777 0.24859
 C231 C -0.07462 -0.07943 0.23545
 C232 C -0.03513 -0.06048 0.26256
 C233 C -0.05342 -0.03887 0.27513
 N234 N -0.08130 -0.03792 0.26785
 H235 H -0.07917 -0.00427 0.33593
 H236 H -0.09339 0.05474 0.26705
 H237 H -0.06478 0.09321 0.28961
 H238 H -0.05182 0.03421 0.36159
 H239 H -0.11424 -0.05627 0.24297
 H240 H -0.08362 -0.09491 0.22002
 H241 H -0.01286 -0.06074 0.26800
 H242 H -0.04518 -0.02252 0.29009
 C243 C -0.17522 -0.04794 0.34274
 C244 C -0.13956 0.02706 0.19175
 C245 C -0.04568 -0.08067 0.24202
 C246 C -0.05572 0.06707 0.32767
 C247 C 0.33268 0.51957 0.71547
 H248 H 0.33180 0.53314 0.73499
 C249 C 0.31706 0.52810 0.69152
 H250 H 0.30413 0.54824 0.69277
 C251 C 0.34965 0.47622 0.69041
 H252 H 0.36185 0.45567 0.69008
 C253 C 0.33443 0.48385 0.66612
 H254 H 0.33579 0.46941 0.64718
 N255 N 0.34881 0.49412 0.71441
 C256 C 0.35552 0.45211 0.79852
 H257 H 0.37792 0.44690 0.79912
 C258 C 0.33771 0.44249 0.82085
 H259 H 0.34671 0.43052 0.83871
 C260 C 0.31646 0.47389 0.77484
 H261 H 0.30815 0.48604 0.75687
 C262 C 0.29793 0.46521 0.79710
 H263 H 0.27554 0.47084 0.79616
 Zn264 Zn 0.37007 0.48149 0.74663
 N265 N 0.34480 0.46761 0.77607
 C266 C 0.40796 0.50721 0.78531
 N267 N 0.39254 0.51325 0.76156
 C268 C 0.39398 0.54054 0.74889
 C269 C 0.41082 0.56315 0.76063
 C270 C 0.42488 0.52907 0.79776
 C271 C 0.39392 0.42167 0.74202
 C272 C 0.41278 0.40022 0.73016
 C273 C 0.43307 0.43853 0.70009
 C274 C 0.41470 0.45934 0.71331
 N275 N 0.39535 0.45066 0.73356
 H276 H 0.40734 0.48530 0.79464
 H277 H 0.38251 0.54477 0.72941
 H278 H 0.41192 0.58459 0.75010
 H279 H 0.43636 0.52374 0.81707
 H280 H 0.37792 0.41489 0.75755
 H281 H 0.41158 0.37755 0.73785
 H282 H 0.44684 0.44619 0.68282
 H283 H 0.41503 0.48241 0.70660
 C284 C 0.30861 0.44933 0.82042
 C285 C 0.31778 0.51001 0.66647
 C286 C 0.43265 0.40838 0.70857
 C287 C 0.42659 0.55752 0.78543
 C288 C 0.64731 0.95718 0.72846
 H289 H 0.63531 0.94090 0.74050
 C290 C 0.65831 0.94942 0.70109
 H291 H 0.65426 0.92733 0.69230
 C292 C 0.66638 1.00581 0.72474
 H293 H 0.66948 1.02783 0.73380
 C294 C 0.67753 0.99907 0.69719
 H295 H 0.68919 1.01599 0.68550
 N296 N 0.65071 0.98531 0.73941
 C297 C 0.64207 1.01855 0.82805
 H298 H 0.61985 1.02489 0.82757
 C299 C 0.65778 1.02481 0.85249
 H300 H 0.64674 1.03528 0.87073
 C301 C 0.68198 0.99545 0.80485
 H302 H 0.69120 0.98413 0.78606
 C303 C 0.69852 1.00089 0.82913
 H304 H 0.72067 0.99424 0.82802
 Zn305 Zn 0.62997 0.99707 0.77371
 N306 N 0.65429 1.00423 0.80488
 C307 C 0.60943 0.95089 0.80895
 N308 N 0.60453 0.96586 0.78414
 C309 C 0.58408 0.95670 0.76574
 C310 C 0.56814 0.93116 0.77170
 C311 C 0.59416 0.92521 0.81563
 C312 C 0.62802 1.05816 0.76569
 C313 C 0.61732 1.08596 0.75796
 C314 C 0.57069 1.06423 0.75501
 C315 C 0.58246 1.03656 0.76247
 N316 N 0.61089 1.03387 0.76674
 H317 H 0.62615 0.95795 0.82306
 H318 H 0.58097 0.96845 0.74578
 H319 H 0.55222 0.92409 0.75657
 H320 H 0.59952 0.91300 0.83481
 H321 H 0.65032 1.05584 0.77037
 H322 H 0.63200 1.10428 0.75566
 H323 H 0.54811 1.06581 0.75129
 H324 H 0.56893 1.01728 0.76429
 C325 C 0.68661 1.01601 0.85361
 C326 C 0.67294 0.97079 0.68474
 C327 C 0.58835 1.08931 0.75192
 C328 C 0.57350 0.91465 0.79667
 C329 C 0.01239 0.23167 -0.15900
 H330 H 0.00124 0.25161 -0.16536
 C331 C 0.02265 0.21173 -0.18031
 H332 H 0.01962 0.21692 -0.20281
 C333 C 0.02841 0.19975 -0.12228
 H334 H 0.03024 0.19487 -0.09966
 C335 C 0.03895 0.17916 -0.14288
 H336 H 0.04948 0.15901 -0.13578
 N337 N 0.01596 0.22577 -0.13054
 C338 C -0.03993 0.29640 -0.10939
 H339 H -0.05070 0.28472 -0.09217
 C340 C -0.05453 0.31873 -0.12373
 H341 H -0.07646 0.32365 -0.11769
 C342 C 0.00123 0.30409 -0.13853
 H343 H 0.02279 0.29778 -0.14465
 C344 C -0.01263 0.32693 -0.15339
 H345 H -0.00173 0.33802 -0.17100
 Zn346 Zn 0.00230 0.25286 -0.10109
 N347 N -0.01299 0.28845 -0.11778
 C348 C 0.04538 0.28945 -0.07873
 N349 N 0.03281 0.26231 -0.07615
 C350 C 0.04396 0.24100 -0.05886
 C351 C 0.06964 0.24592 -0.04490
 C352 C 0.07101 0.29530 -0.06520
 C353 C -0.04779 0.22336 -0.10104
 C354 C -0.07412 0.21342 -0.09137
 C355 C -0.05965 0.22238 -0.04233
 C356 C -0.03348 0.23277 -0.05318
 N357 N -0.02844 0.23366 -0.08215
 H358 H 0.03631 0.30620 -0.09241
 H359 H 0.03337 0.21981 -0.05650
 H360 H 0.07850 0.22841 -0.03182
 H361 H 0.08129 0.31650 -0.06895
 H362 H -0.04314 0.22409 -0.12398
 H363 H -0.08819 0.20488 -0.10762
 H364 H -0.06328 0.22367 -0.01923
 H365 H -0.01787 0.24147 -0.03852
 C366 C -0.04121 0.33356 -0.14664
 C367 C 0.03646 0.18522 -0.17236
 C368 C -0.08131 0.21365 -0.06154
 C369 C 0.08394 0.27310 -0.04862
 C370 C 0.48198 0.23004 0.17683
 H371 H 0.47063 0.25106 0.17843
 C372 C 0.47299 0.20609 0.19379
 H373 H 0.45468 0.20910 0.20810
 C374 C 0.51998 0.20083 0.15724
 H375 H 0.53858 0.19859 0.14343
 C376 C 0.51155 0.17633 0.17338
 H377 H 0.52333 0.15558 0.17047
 N378 N 0.50448 0.22668 0.15805
 C379 C 0.52766 0.31687 0.13209
 H380 H 0.52528 0.31434 0.10901
 C381 C 0.53311 0.34497 0.14406
 H382 H 0.53529 0.36399 0.12998
 C383 C 0.52750 0.29502 0.17844
 H384 H 0.52499 0.27546 0.19169
 C385 C 0.53330 0.32276 0.19133
 H386 H 0.53514 0.32444 0.21456
 Zn387 Zn 0.51442 0.25673 0.13060
 N388 N 0.52465 0.29271 0.14932
 C389 C 0.48463 0.26322 0.07768
 N390 N 0.48267 0.26591 0.10697
 C391 C 0.45875 0.27748 0.12008
 C392 C 0.43554 0.28635 0.10379
 C393 C 0.46196 0.27191 0.06057
 C394 C 0.57267 0.25103 0.11329
 C395 C 0.59628 0.23472 0.10257
 C396 C 0.56426 0.20058 0.07928
 C397 C 0.54137 0.21734 0.09048
 N398 N 0.54585 0.24153 0.10791
 H399 H 0.50407 0.25532 0.06732
 H400 H 0.45800 0.28104 0.14314
 H401 H 0.41711 0.29630 0.11465
 H402 H 0.46411 0.26980 0.03731
 H403 H 0.57581 0.26993 0.12765
 H404 H 0.61741 0.24142 0.10866
 H405 H 0.56012 0.18066 0.06652
 H406 H 0.51996 0.20957 0.08723
 C407 C 0.53575 0.34823 0.17406
 C408 C 0.48728 0.17836 0.19146
 C409 C 0.59213 0.20840 0.08634
 C410 C 0.43709 0.28393 0.07358
 C411 C 0.93982 0.71329 0.65261
 H412 H 0.92281 0.72368 0.64098
 C413 C 0.93427 0.68768 0.66864
 H414 H 0.91294 0.67878 0.66917
 C415 C 0.98862 0.71061 0.66398
 H416 H 1.00993 0.71917 0.66127
 C417 C 0.98405 0.68481 0.68006
 H418 H 1.00187 0.67398 0.69017
 N419 N 0.96674 0.72396 0.65021
 C420 C 0.98919 0.81413 0.62420
 H421 H 0.98408 0.81226 0.60159
 C422 C 0.99610 0.84190 0.63608
 H423 H 0.99664 0.86137 0.62243
 C424 C 0.99430 0.79105 0.66961
 H425 H 0.99306 0.77124 0.68265
 C426 C 1.00197 0.81835 0.68225
 H427 H 1.00682 0.81942 0.70499
 Zn428 Zn 0.97579 0.75386 0.62291
 N429 N 0.98817 0.78948 0.64103
 C430 C 0.92210 0.77920 0.61578
 N431 N 0.94306 0.76351 0.60150
 C432 C 0.94049 0.75539 0.57324
 C433 C 0.91558 0.76205 0.55861
 C434 C 0.89708 0.78677 0.60184
 C435 C 1.03167 0.74883 0.59795
 C436 C 1.05421 0.73253 0.58500
 C437 C 1.02109 0.69360 0.57281
 C438 C 0.99940 0.71035 0.58626
 N439 N 1.00505 0.73716 0.59893
 H440 H 0.92478 0.78560 0.63816
 H441 H 0.95758 0.74359 0.56199
 H442 H 0.91365 0.75518 0.53623
 H443 H 0.88044 0.79889 0.61365
 H444 H 1.03580 0.76991 0.60872
 H445 H 1.07556 0.74125 0.58596
 H446 H 1.01613 0.67198 0.56347
 H447 H 0.97821 0.70126 0.58792
 C448 C 1.00255 0.84420 0.66543
 C449 C 0.95667 0.67264 0.68200
 C450 C 1.04917 0.70402 0.57310
 C451 C 0.89350 0.77786 0.57300
 C452 C 0.50483 0.74497 0.35443
 H453 H 0.50848 0.76875 0.35283
 C454 C 0.52246 0.72489 0.33927
 H455 H 0.53912 0.73372 0.32547
 C456 C 0.47798 0.70527 0.37404
 H457 H 0.46081 0.69787 0.38801
 C458 C 0.49575 0.68420 0.35979
 H459 H 0.49211 0.66064 0.36320
 N460 N 0.48301 0.73501 0.37124
 C461 C 0.43833 0.82074 0.37418
 H462 H 0.43739 0.82631 0.39698
 C463 C 0.42842 0.84128 0.35411
 H464 H 0.41971 0.86231 0.36219
 C465 C 0.44882 0.78553 0.33685
 H466 H 0.45627 0.76358 0.33010
 C467 C 0.43872 0.80502 0.31616
 H468 H 0.44016 0.79776 0.29381
 Zn469 Zn 0.46287 0.76553 0.39196
 N470 N 0.44904 0.79378 0.36520
 C471 C 0.49748 0.81122 0.41822
 N472 N 0.48977 0.78196 0.41756
 C473 C 0.50326 0.76139 0.43383
 C474 C 0.52575 0.76969 0.45124
 C475 C 0.51958 0.82065 0.43586
 C476 C 0.40979 0.73859 0.39719
 C477 C 0.38518 0.72839 0.41107
 C478 C 0.40534 0.74199 0.45689
 C479 C 0.42949 0.75222 0.44209
 N480 N 0.43133 0.75018 0.41277
 H481 H 0.48711 0.82719 0.40464
 H482 H 0.49713 0.73816 0.43245
 H483 H 0.53685 0.75242 0.46276
 H484 H 0.52520 0.84406 0.43615
 H485 H 0.41162 0.73769 0.37387
 H486 H 0.36812 0.71982 0.39809
 H487 H 0.40460 0.74327 0.48025
 H488 H 0.44664 0.76195 0.45408
 C489 C 0.42844 0.83368 0.32437
 C490 C 0.51864 0.69394 0.34233
 C491 C 0.38269 0.72988 0.44138
 C492 C 0.53444 0.79968 0.45237
 C493 C 0.36789 0.00797 0.21993
 C494 C 0.11228 1.01436 0.71778
 C495 C 0.62176 0.52084 0.26340
 C496 C 0.86595 0.49615 0.75435
 C497 C 0.26079 0.36512 0.00146
 C498 C 0.76661 0.10624 1.02404
 C499 C 0.22544 0.60670 0.50591
 C500 C 0.72070 0.86940 0.50479
 C501 C 0.02826 0.25300 0.39058
 C502 C 1.00707 0.76676 0.10631
 C503 C 0.52249 0.23392 0.61568
 C504 C 0.49754 0.73438 0.88269
 C505 C 0.40988 -0.09550 0.28691
 C506 C 0.39903 -0.10671 0.26173
 C507 C 0.39721 -0.13713 0.25593
 C508 C 0.40707 -0.15684 0.27687
 C509 C 0.41840 -0.14608 0.30343
 C510 C 0.41950 -0.11460 0.30823
 O511 O 0.40959 -0.06583 0.28823
 C512 C 0.39805 -0.05825 0.26343
 C513 C 0.39114 -0.08235 0.24652
 C514 C 0.37833 -0.07936 0.22002
 C515 C 0.37154 -0.05037 0.21096
 C516 C 0.37722 -0.02449 0.22848
 C517 C 0.39208 -0.02930 0.25463
 H518 H 0.38826 -0.14544 0.23606
 H519 H 0.40460 -0.18049 0.27256
 H520 H 0.42853 -0.10489 0.32745
 H521 H 0.37340 -0.09874 0.20685
 H522 H 0.36182 -0.04893 0.19021
 H523 H 0.39820 -0.01078 0.26840
 C524 C 0.93080 0.40057 0.81316
 C525 C 0.90663 0.38838 0.80186
 C526 C 0.89879 0.35888 0.80608
 C527 C 0.91651 0.34114 0.82281
 C528 C 0.94159 0.35299 0.83482
 C529 C 0.94906 0.38310 0.82965
 O530 O 0.93351 0.42948 0.80735
 C531 C 0.91062 0.43550 0.79198
 C532 C 0.89362 0.41105 0.78806
 C533 C 0.86808 0.41234 0.77378
 C534 C 0.85981 0.43990 0.76263
 C535 C 0.87733 0.46571 0.76496
 C536 C 0.90271 0.46335 0.78111
 H537 H 0.87953 0.34994 0.79711
 H538 H 0.91070 0.31810 0.82656
 H539 H 0.96791 0.39273 0.83886
 H540 H 0.85470 0.39290 0.77172
 H541 H 0.83947 0.44108 0.75227
 H542 H 0.91569 0.48263 0.78562
 C543 C 0.06028 1.11462 0.78735
 C544 C 0.07446 1.12679 0.76417
 C545 C 0.07654 1.15743 0.76013
 C546 C 0.06360 1.17641 0.78097
 C547 C 0.04897 1.16456 0.80532
 C548 C 0.04726 1.13309 0.80841
 O549 O 0.06123 1.08489 0.78720
 C550 C 0.07653 1.07824 0.76348
 C551 C 0.08509 1.10307 0.74876
 C552 C 0.10146 1.10138 0.72364
 C553 C 0.10994 1.07298 0.71346
 C554 C 0.10256 1.04629 0.72860
 C555 C 0.08442 1.04963 0.75359
 H556 H 0.08801 1.16643 0.74176
 H557 H 0.06556 1.20034 0.77846
 H558 H 0.03618 1.12330 0.82663
 H559 H 0.10757 1.12134 0.71217
 H560 H 0.12198 1.07274 0.69350
 H561 H 0.07689 1.03036 0.76528
 C562 C 0.55123 0.62453 0.30576
 C563 C 0.57877 0.63379 0.30189
 C564 C 0.58817 0.66154 0.31118
 C565 C 0.56827 0.68081 0.32470
 C566 C 0.53930 0.67245 0.32834
 C567 C 0.53082 0.64361 0.31876
 O568 O 0.54736 0.59643 0.29699
 C569 C 0.57305 0.58796 0.28730
 C570 C 0.59285 0.61010 0.28971
 C571 C 0.62127 0.60575 0.28256
 C572 C 0.62987 0.57729 0.27277
 C573 C 0.61021 0.55327 0.26969
 C574 C 0.58112 0.55933 0.27758
 H575 H 0.61020 0.66793 0.30860
 H576 H 0.57577 0.70207 0.33281
 H577 H 0.50909 0.63620 0.32121
 H578 H 0.63658 0.62343 0.28535
 H579 H 0.65230 0.57421 0.26882
 H580 H 0.56546 0.54181 0.27848
 C581 C 0.56716 0.41101 0.21836
 C582 C 0.55195 0.43509 0.20855
 C583 C 0.53081 0.43223 0.18819
 C584 C 0.52525 0.40342 0.17740
 C585 C 0.54079 0.37819 0.18702
 C586 C 0.56182 0.38212 0.20812
 O587 O 0.58751 0.41877 0.23633
 C588 C 0.58507 0.44836 0.23789
 C589 C 0.56364 0.45945 0.22141
 C590 C 0.55880 0.48987 0.21839
 C591 C 0.57685 0.50965 0.23282
 C592 C 0.59927 0.49916 0.25062
 C593 C 0.60311 0.46757 0.25257
 H594 H 0.51933 0.45154 0.18052
 H595 H 0.50896 0.40075 0.16142
 H596 H 0.57443 0.36344 0.21544
 H597 H 0.54242 0.49816 0.20443
 H598 H 0.57423 0.53318 0.22846
 H599 H 0.62035 0.45763 0.26408
 C600 C 0.04392 0.90563 0.70146
 C601 C 0.02647 0.92991 0.69696
 C602 C 0.00048 0.92742 0.68338
 C603 C -0.00766 0.89886 0.67383
 C604 C 0.01008 0.87354 0.67812
 C605 C 0.03601 0.87697 0.69263
 O606 O 0.06894 0.91311 0.71190
 C607 C 0.06732 0.94271 0.71396
 C608 C 0.04175 0.95413 0.70532
 C609 C 0.03659 0.98464 0.70333
 C610 C 0.05894 1.00413 0.70962
 C611 C 0.08625 0.99311 0.71775
 C612 C 0.08971 0.96159 0.72058
 H613 H -0.01261 0.94690 0.67940
 H614 H -0.02749 0.89646 0.66260
 H615 H 0.05032 0.85818 0.69537
 H616 H 0.01652 0.99314 0.69572
 H617 H 0.05547 1.02770 0.70596
 H618 H 0.10967 0.95129 0.72584
 C619 C 0.92170 0.60890 0.72182
 C620 C 0.94049 0.58592 0.71533
 C621 C 0.96551 0.59012 0.69947
 C622 C 0.97123 0.61908 0.68964
 C623 C 0.95187 0.64309 0.69548
 C624 C 0.92690 0.63782 0.71218
 O625 O 0.89843 0.59993 0.73571
 C626 C 0.90255 0.57065 0.73793
 C627 C 0.92785 0.56088 0.72573
 C628 C 0.93503 0.53074 0.72319
 C629 C 0.91534 0.50986 0.73364
 C630 C 0.88935 0.51917 0.74756
 C631 C 0.88299 0.55036 0.74900
 H632 H 0.97979 0.57163 0.69423
 H633 H 0.99015 0.62250 0.67644
 H634 H 0.91158 0.65553 0.71685
 H635 H 0.95453 0.52346 0.71233
 H636 H 0.91997 0.48637 0.72989
 H637 H 0.86268 0.55872 0.75714
 C638 C 0.43594 0.11883 0.21599
 C639 C 0.45444 0.09569 0.22126
 C640 C 0.48376 0.09906 0.22037
 C641 C 0.49443 0.12718 0.21288
 C642 C 0.47583 0.15100 0.20540
 C643 C 0.44606 0.14679 0.20795
 O644 O 0.40895 0.11053 0.21624
 C645 C 0.41049 0.08148 0.22149
 C646 C 0.43780 0.07120 0.22436
 C647 C 0.44442 0.04098 0.22558
 C648 C 0.42197 0.02060 0.22418
 C649 C 0.39291 0.03039 0.22344
 C650 C 0.38778 0.06176 0.22137
 H651 H 0.49794 0.08052 0.22461
 H652 H 0.51724 0.12996 0.21196
 H653 H 0.43108 0.16391 0.20175
 H654 H 0.46627 0.03324 0.22582
 H655 H 0.42780 -0.00276 0.22230
 H656 H 0.36698 0.07098 0.21784
 C657 C 0.27755 0.40636 -0.11753
 C658 C 0.26289 0.42878 -0.10283
 C659 C 0.26020 0.45759 -0.11351
 C660 C 0.27380 0.46369 -0.14004
 C661 C 0.29012 0.44125 -0.15483
 C662 C 0.29137 0.41201 -0.14372
 O663 O 0.27976 0.38138 -0.10264
 C664 C 0.26664 0.38828 -0.07781
 C665 C 0.25608 0.41702 -0.07670
 C666 C 0.24448 0.42983 -0.05159
 C667 C 0.24493 0.41283 -0.02635
 C668 C 0.25752 0.38363 -0.02637
 C669 C 0.26624 0.37062 -0.05334
 H670 H 0.24904 0.47504 -0.10132
 H671 H 0.27306 0.48626 -0.14818
 H672 H 0.30412 0.39464 -0.15434
 H673 H 0.23628 0.45253 -0.05117
 H674 H 0.23573 0.42282 -0.00690
 H675 H 0.27504 0.34816 -0.05462
 C676 C 0.78099 0.93076 0.40862
 C677 C 0.76625 0.90701 0.39742
 C678 C 0.76864 0.89793 0.36865
 C679 C 0.78731 0.91373 0.35068
 C680 C 0.80308 0.93811 0.36163
 C681 C 0.79952 0.94709 0.39097
 O682 O 0.77674 0.93445 0.43695
 C683 C 0.75891 0.91255 0.44366
 C684 C 0.75196 0.89521 0.42019
 C685 C 0.73539 0.86988 0.42236
 C686 C 0.72512 0.86227 0.44980
 C687 C 0.73040 0.88048 0.47468
 C688 C 0.74869 0.90548 0.47133
 H689 H 0.75703 0.87893 0.36048
 H690 H 0.78992 0.90668 0.32831
 H691 H 0.81177 0.96522 0.39998
 H692 H 0.73116 0.85593 0.40368
 H693 H 0.71325 0.84175 0.45163
 H694 H 0.75545 0.91857 0.48973
 C695 C 0.81817 0.05819 1.13112
 C696 C 0.83719 0.05410 1.10853
 C697 C 0.86361 0.04083 1.11169
 C698 C 0.87094 0.03156 1.13933
 C699 C 0.85207 0.03585 1.16369
 C700 C 0.82495 0.04920 1.15895
 O701 O 0.79419 0.07146 1.12333
 C702 C 0.79825 0.07566 1.09518
 C703 C 0.82424 0.06550 1.08517
 C704 C 0.83327 0.06835 1.05670
 C705 C 0.81449 0.08174 1.03760
 C706 C 0.78659 0.09152 1.04657
 C707 C 0.77913 0.08904 1.07653
 H708 H 0.87806 0.03747 1.09342
 H709 H 0.89110 0.02006 1.14109
 H710 H 0.80983 0.05382 1.17636
 H711 H 0.85415 0.06076 1.04945
 H712 H 0.82170 0.08456 1.01545
 H713 H 0.75935 0.09745 1.08574
 C714 C 0.28469 0.55365 0.60615
 C715 C 0.27159 0.53097 0.59134
 C716 C 0.27200 0.50145 0.60025
 C717 C 0.28688 0.49493 0.62532
 C718 C 0.30103 0.51781 0.64086
 C719 C 0.29962 0.54770 0.63119
 O720 O 0.28141 0.58017 0.59402
 C721 C 0.26594 0.57399 0.57105
 C722 C 0.25949 0.54426 0.56849
 C723 C 0.24327 0.53293 0.54642
 C724 C 0.23307 0.55310 0.52620
 C725 C 0.23921 0.58449 0.52767
 C726 C 0.25606 0.59455 0.55112
 H727 H 0.26130 0.48404 0.58831
 H728 H 0.28729 0.47206 0.63267
 H729 H 0.31032 0.56562 0.64242
 H730 H 0.23814 0.50941 0.54507
 H731 H 0.21938 0.54400 0.50987
 H732 H 0.26140 0.61757 0.55469
 C733 C 0.18201 0.57224 0.39048
 C734 C 0.20621 0.55576 0.39522
 C735 C 0.21750 0.53529 0.37521
 C736 C 0.20311 0.53142 0.34927
 C737 C 0.17802 0.54813 0.34367
 C738 C 0.16744 0.56895 0.36471
 O739 O 0.17489 0.59039 0.41244
 C740 C 0.19504 0.58514 0.43144
 C741 C 0.21466 0.56419 0.42187
 C742 C 0.23786 0.55577 0.43786
 C743 C 0.24095 0.56942 0.46495
 C744 C 0.22058 0.59075 0.47631
 C745 C 0.19753 0.59892 0.45847
 H746 H 0.23650 0.52245 0.37956
 H747 H 0.21121 0.51486 0.33387
 H748 H 0.14850 0.58219 0.36117
 H749 H 0.25341 0.53971 0.42952
 H750 H 0.25989 0.56406 0.47675
 H751 H 0.18205 0.61582 0.46497
 C752 C 0.71146 0.05207 0.92165
 C753 C 0.73389 0.03375 0.92818
 C754 C 0.74210 0.00944 0.91084
 C755 C 0.72650 0.00377 0.88581
 C756 C 0.70277 0.02213 0.87856
 C757 C 0.69551 0.04677 0.89718
 O758 O 0.70766 0.07459 0.94030
 C759 C 0.72817 0.07036 0.95905
 C760 C 0.74468 0.04567 0.95279
 C761 C 0.76697 0.03712 0.96998
 C762 C 0.77326 0.05543 0.99389
 C763 C 0.75825 0.08299 0.99979
 C764 C 0.73402 0.08884 0.98255
 H765 H 0.75993 -0.00467 0.91636
 H766 H 0.73247 -0.01570 0.87290
 H767 H 0.67869 0.06245 0.89240
 H768 H 0.77907 0.01686 0.96531
 H769 H 0.78966 0.04697 1.00732
 H770 H 0.71999 0.10773 0.98689
 C771 C 0.69976 0.92950 0.61764
 C772 C 0.69434 0.95022 0.59672
 C773 C 0.68303 0.97842 0.60327
 C774 C 0.67691 0.98537 0.63246
 C775 C 0.68185 0.96410 0.65437
 C776 C 0.69372 0.93585 0.64669
 O777 O 0.70957 0.90368 0.60697
 C778 C 0.71029 0.90812 0.57872
 C779 C 0.70112 0.93611 0.57117
 C780 C 0.69835 0.94444 0.54252
 C781 C 0.70550 0.92310 0.52086
 C782 C 0.71629 0.89428 0.52798
 C783 C 0.71779 0.88687 0.55770
 H784 H 0.67864 0.99431 0.58649
 H785 H 0.66742 1.00692 0.63788
 H786 H 0.69773 0.91910 0.66280
 H787 H 0.69006 0.96623 0.53701
 H788 H 0.70184 0.92883 0.49863
 H789 H 0.72384 0.86470 0.56448
 C790 C 0.21466 0.42065 0.10972
 C791 C 0.23639 0.43830 0.09966
 C792 C 0.24220 0.46622 0.11164
 C793 C 0.22469 0.47647 0.13471
 C794 C 0.20176 0.45887 0.14514
 C795 C 0.19703 0.43037 0.13252
 O796 O 0.21171 0.39559 0.09450
 C797 C 0.23185 0.39754 0.07420
 C798 C 0.24758 0.42318 0.07637
 C799 C 0.26883 0.43027 0.05646
 C800 C 0.27337 0.41062 0.03290
 C801 C 0.25631 0.38467 0.02906
 C802 C 0.23636 0.37744 0.05132
 H803 H 0.25928 0.47984 0.10322
 H804 H 0.22887 0.49817 0.14428
 H805 H 0.17936 0.41664 0.13935
 H806 H 0.28101 0.45057 0.05858
 H807 H 0.28946 0.41623 0.01688
 H808 H 0.22396 0.35723 0.05087
 C809 C -0.08457 0.29757 0.43193
 C810 C -0.07300 0.28086 0.45352
 C811 C -0.08710 0.27592 0.47965
 C812 C -0.11416 0.28893 0.48371
 C813 C -0.12655 0.30635 0.46172
 C814 C -0.11142 0.31055 0.43542
 O815 O -0.06774 0.29953 0.40877
 C816 C -0.04500 0.28384 0.41595
 C817 C -0.04712 0.27188 0.44304
 C818 C -0.02599 0.25401 0.45444
 C819 C -0.00156 0.24850 0.43726
 C820 C 0.00190 0.26156 0.40947
 C821 C -0.02097 0.27878 0.39859
 H822 H -0.07754 0.26278 0.49638
 H823 H -0.12518 0.28590 0.50419
 H824 H -0.12031 0.32342 0.41809
 H825 H -0.02838 0.24429 0.47561
 H826 H 0.01480 0.23397 0.44555
 H827 H -0.02081 0.28743 0.37693
 C828 C 0.39104 0.79675 0.92272
 C829 C 0.38811 0.76692 0.92852
 C830 C 0.36320 0.75531 0.94026
 C831 C 0.34041 0.77525 0.94607
 C832 C 0.34305 0.80652 0.94099
 C833 C 0.36927 0.81708 0.92943
 O834 O 0.41580 0.80324 0.91029
 C835 C 0.42893 0.77693 0.90834
 C836 C 0.41317 0.75402 0.91956
 C837 C 0.42345 0.72487 0.92045
 C838 C 0.45095 0.71920 0.90917
 C839 C 0.46759 0.74223 0.89605
 C840 C 0.45574 0.77166 0.89598
 H841 H 0.36110 0.73160 0.94414
 H842 H 0.32072 0.76588 0.95398
 H843 H 0.37322 0.84046 0.92572
 H844 H 0.41092 0.70716 0.92985
 H845 H 0.45931 0.69665 0.91058
 H846 H 0.46634 0.79048 0.88660
 C847 C 1.10288 0.81768 0.04024
 C848 C 1.07930 0.82108 0.02344
 C849 C 1.08058 0.83461 -0.00346
 C850 C 1.10716 0.84517 -0.01320
 C851 C 1.13146 0.84248 0.00425
 C852 C 1.12921 0.82840 0.03125
 O853 O 1.09743 0.80418 0.06495
 C854 C 1.06981 0.79904 0.06389
 C855 C 1.05750 0.80905 0.03916
 C856 C 1.02844 0.80683 0.03458
 C857 C 1.01152 0.79344 0.05620
 C858 C 1.02400 0.78166 0.08150
 C859 C 1.05369 0.78532 0.08519
 H860 H 1.06185 0.83703 -0.01642
 H861 H 1.10872 0.85607 -0.03389
 H862 H 1.14747 0.82598 0.04491
 H863 H 1.01902 0.81560 0.01530
 H864 H 0.98886 0.79290 0.05316
 H865 H 1.06400 0.77749 0.10440
 C866 C 0.63150 0.25809 0.55469
 C867 C 0.60977 0.26231 0.53574
 C868 C 0.61323 0.27724 0.50984
 C869 C 0.64010 0.28882 0.50335
 C870 C 0.66273 0.28577 0.52293
 C871 C 0.65844 0.26965 0.54876
 O872 O 0.62300 0.24556 0.57920
 C873 C 0.59522 0.24230 0.57580
 C874 C 0.58616 0.25240 0.54964
 C875 C 0.55774 0.25503 0.54295
 C876 C 0.53775 0.24776 0.56436
 C877 C 0.54610 0.23716 0.59197
 C878 C 0.57567 0.23334 0.59701
 H879 H 0.59559 0.28083 0.49562
 H880 H 0.64283 0.30160 0.48381
 H881 H 0.67515 0.26739 0.56432
 H882 H 0.55113 0.26412 0.52260
 H883 H 0.51557 0.25175 0.55988
 H884 H 0.58373 0.22552 0.61718
 C885 C 0.41762 0.19045 0.55906
 C886 C 0.43878 0.16936 0.55500
 C887 C 0.43514 0.14316 0.53909
 C888 C 0.40845 0.13833 0.52707
 C889 C 0.38596 0.15949 0.53128
 C890 C 0.39083 0.18604 0.54747
 O891 O 0.42570 0.21400 0.57453
 C892 C 0.45253 0.20751 0.58046
 C893 C 0.46146 0.18045 0.56903
 C894 C 0.48880 0.16946 0.57208
 C895 C 0.50771 0.18700 0.58773
 C896 C 0.49925 0.21504 0.60069
 C897 C 0.47107 0.22554 0.59599
 H898 H 0.45226 0.12704 0.53596
 H899 H 0.40543 0.11822 0.51427
 H900 H 0.37419 0.20256 0.55137
 H901 H 0.49547 0.14825 0.56252
 H902 H 0.52928 0.17879 0.58985
 H903 H 0.46356 0.24733 0.60300
 C904 C 0.89918 0.72360 0.05681
 C905 C 0.89267 0.73946 0.08174
 C906 C 0.86522 0.74216 0.09315
 C907 C 0.84349 0.72772 0.07836
 C908 C 0.84955 0.71068 0.05286
 C909 C 0.87787 0.70876 0.04186
 O910 O 0.92682 0.72336 0.05020
 C911 C 0.93793 0.73932 0.07155
 C912 C 0.91788 0.74942 0.09139
 C913 C 0.92476 0.76456 0.11649
 C914 C 0.95349 0.77004 0.12124
 C915 C 0.97510 0.76183 0.10030
 C916 C 0.96676 0.74515 0.07549
 H917 H 0.86075 0.75461 0.11296
 H918 H 0.82206 0.72897 0.08732
 H919 H 0.88316 0.69581 0.02252
 H920 H 0.90863 0.77104 0.13243
 H921 H 0.95848 0.77996 0.14189
 H922 H 0.98237 0.73666 0.05988
 C923 C 0.60643 0.71536 0.94168
 C924 C 0.58542 0.71699 0.96271
 C925 C 0.59014 0.70966 0.99129
 C926 C 0.61754 0.69991 0.99841
 C927 C 0.63964 0.69767 0.97705
 C928 C 0.63388 0.70607 0.94831
 O929 O 0.59710 0.72125 0.91550
 C930 C 0.56956 0.72654 0.92009
 C931 C 0.56134 0.72429 0.94857
 C932 C 0.53320 0.72710 0.95783
 C933 C 0.51254 0.73159 0.93685
 C934 C 0.52006 0.73275 0.90682
 C935 C 0.54950 0.73133 0.89890
 H936 H 0.57312 0.71050 1.00737
 H937 H 0.62111 0.69299 1.02034
 H938 H 0.65005 0.70470 0.93138
 H939 H 0.52722 0.72514 0.98041
 H940 H 0.49080 0.73343 0.94451
 H941 H 0.55641 0.73184 0.87647
 C942 C 0.14794 0.24267 0.42367
 C943 C 0.13459 0.26083 0.44410
 C944 C 0.14659 0.26768 0.47056
 C945 C 0.17287 0.25431 0.47663
 C946 C 0.18641 0.23454 0.45632
 C947 C 0.17422 0.22963 0.42905
 O948 O 0.13164 0.23595 0.40156
 C949 C 0.10736 0.24983 0.40828
 C950 C 0.10801 0.26540 0.43403
 C951 C 0.08404 0.27910 0.44641
 C952 C 0.05822 0.27589 0.43211
 C953 C 0.05647 0.25814 0.40633
 C954 C 0.08211 0.24674 0.39353
 H955 H 0.13540 0.28140 0.48661
 H956 H 0.18190 0.25796 0.49769
 H957 H 0.18341 0.21365 0.41366
 H958 H 0.08503 0.29132 0.46670
 H959 H 0.03978 0.28722 0.44143
 H960 H 0.08201 0.23402 0.37347
 C961 C 0.54996 0.14468 0.70516
 C962 C 0.56392 0.17065 0.71195
 C963 C 0.58389 0.17219 0.73359
 C964 C 0.59036 0.14571 0.74814
 C965 C 0.57749 0.11812 0.74035
 C966 C 0.55634 0.11804 0.71901
 O967 O 0.53275 0.14754 0.68306
 C968 C 0.53624 0.17578 0.67545
 C969 C 0.55519 0.19088 0.69223
 C970 C 0.56358 0.21990 0.68636
 C971 C 0.55246 0.23355 0.66183
 C972 C 0.53326 0.21826 0.64330
 C973 C 0.52414 0.18925 0.65173
 H974 H 0.59460 0.19288 0.73864
 H975 H 0.60601 0.14666 0.76490
 H976 H 0.54649 0.09754 0.71183
 H977 H 0.57884 0.23132 0.69964
 H978 H 0.55956 0.25585 0.65675
 H979 H 0.50848 0.17657 0.64033
 C980 C 1.03322 0.64918 0.15781
 C981 C 1.04529 0.64961 0.13054
 C982 C 1.06240 0.62661 0.11937
 C983 C 1.06777 0.60230 0.13724
 C984 C 1.05621 0.60148 0.16579
 C985 C 1.03837 0.62521 0.17606
 O986 O 1.01839 0.67387 0.16442
 C987 C 1.02150 0.69030 0.14090
 C988 C 1.03787 0.67647 0.11970
 C989 C 1.04483 0.68990 0.09379
 C990 C 1.03501 0.71910 0.08968
 C991 C 1.01890 0.73493 0.11164
 C992 C 1.01087 0.71920 0.13700
 H993 H 1.07187 0.62769 0.09792
 H994 H 1.08194 0.58472 0.12923
 H995 H 1.02941 0.62534 0.19778
 H996 H 1.05749 0.67833 0.07728
 H997 H 1.03980 0.72892 0.06898
 H998 H 0.99729 0.72948 0.15355
 C999 C 0.98515 0.87047 0.18250
 C1000 C 1.00252 0.85164 0.19759
 C1001 C 1.00673 0.85522 0.22715
 C1002 C 0.99191 0.87867 0.24167
 C1003 C 0.97313 0.89754 0.22651
 C1004 C 0.97046 0.89376 0.19638
 O1005 O 0.98186 0.86206 0.15530
 C1006 C 0.99721 0.83718 0.15309
 C1007 C 1.01038 0.82968 0.17821
 C1008 C 1.02567 0.80311 0.18087
 C1009 C 1.02627 0.78298 0.15718
 C1010 C 1.01064 0.78915 0.13183
 C1011 C 0.99784 0.81788 0.12941
 H1012 H 1.02003 0.83986 0.23878
 H1013 H 0.99394 0.88120 0.26482
 H1014 H 0.95618 0.90769 0.18424
 H1015 H 1.03622 0.79772 0.20071
 H1016 H 1.03863 0.76269 0.15908
 H1017 H 0.98643 0.82396 0.11026
 C1018 C 0.46338 0.33539 0.67701
 C1019 C 0.48704 0.34608 0.66297
 C1020 C 0.49535 0.37569 0.66468
 C1021 C 0.47812 0.39549 0.68098
 C1022 C 0.45226 0.38588 0.69425
 C1023 C 0.44520 0.35497 0.69254
 O1024 O 0.46011 0.30604 0.67323
 C1025 C 0.48208 0.29830 0.65606
 C1026 C 0.49874 0.32219 0.64888
 C1027 C 0.52204 0.31986 0.63036
 C1028 C 0.52867 0.29170 0.61862
 C1029 C 0.51232 0.26575 0.62565
 C1030 C 0.48903 0.26953 0.64563
 H1031 H 0.51461 0.38328 0.65401
 H1032 H 0.48518 0.41833 0.68304
 H1033 H 0.42582 0.34637 0.70205
 H1034 H 0.53479 0.33915 0.62510
 H1035 H 0.54751 0.29061 0.60496
 H1036 H 0.47674 0.25057 0.65279
 C1037 C 0.45290 0.63167 0.81494
 C1038 C 0.47786 0.62255 0.82710
 C1039 C 0.48789 0.59328 0.82523
 C1040 C 0.47130 0.57235 0.81056
 C1041 C 0.44494 0.58079 0.79849
 C1042 C 0.43591 0.61114 0.80035
 O1043 O 0.44689 0.66038 0.82013
 C1044 C 0.46848 0.66943 0.83605
 C1045 C 0.48783 0.64708 0.84099
 C1046 C 0.51089 0.65092 0.85868
 C1047 C 0.51429 0.67894 0.87197
 C1048 C 0.49516 0.70333 0.86696
 C1049 C 0.47179 0.69782 0.84843
 H1050 H 0.50764 0.58669 0.83499
 H1051 H 0.47895 0.54948 0.80886
 H1052 H 0.41577 0.61831 0.79181
 H1053 H 0.52537 0.63262 0.86289
 H1054 H 0.53165 0.68056 0.88662
 H1055 H 0.45623 0.71515 0.84433
 C1056 C -0.02613 0.14237 0.34928
 C1057 C -0.00336 0.13387 0.36544
 C1058 C 0.00321 0.10407 0.37065
 C1059 C -0.01423 0.08217 0.35837
 C1060 C -0.03799 0.09036 0.34160
 C1061 C -0.04403 0.12110 0.33743
 O1062 O -0.02863 0.17176 0.34667
 C1063 C -0.00694 0.18206 0.36153
 C1064 C 0.00908 0.15987 0.37359
 C1065 C 0.03197 0.16587 0.39108
 C1066 C 0.03867 0.19595 0.39632
 C1067 C 0.02329 0.21965 0.38308
 C1068 C -0.00032 0.21202 0.36587
 H1069 H 0.02136 0.09789 0.38331
 H1070 H -0.00875 0.05890 0.36144
 H1071 H -0.06218 0.12846 0.32536
 H1072 H 0.04372 0.14803 0.40114
 H1073 H 0.05520 0.20034 0.41158
 H1074 H -0.01357 0.22913 0.35656
 C1075 C 0.04469 0.35906 0.31844
 C1076 C 0.04552 0.33467 0.30000
 C1077 C 0.05247 0.33697 0.27076
 C1078 C 0.05939 0.36545 0.26034
 C1079 C 0.05943 0.39073 0.27926
 C1080 C 0.05132 0.38741 0.30858
 O1081 O 0.03915 0.35212 0.34564
 C1082 C 0.03651 0.32268 0.34446
 C1083 C 0.04021 0.31078 0.31713
 C1084 C 0.04018 0.28014 0.31162
 C1085 C 0.03591 0.26107 0.33518
 C1086 C 0.03111 0.27285 0.36369
 C1087 C 0.03214 0.30433 0.36800
 H1088 H 0.05334 0.31745 0.25667
 H1089 H 0.06595 0.36756 0.23792
 H1090 H 0.05119 0.40621 0.32359
 H1091 H 0.04411 0.27117 0.29006
 H1092 H 0.03727 0.23727 0.33102
 H1093 H 0.02994 0.31426 0.38939
 C1094 C 0.54144 0.84814 0.83502
 C1095 C 0.53635 0.82937 0.81199
 C1096 C 0.54190 0.83738 0.78354
 C1097 C 0.55348 0.86577 0.77866
 C1098 C 0.55918 0.88560 0.80207
 C1099 C 0.55268 0.87653 0.83067
 O1100 O 0.53528 0.83600 0.86035
 C1101 C 0.52611 0.80897 0.85314
 C1102 C 0.52630 0.80380 0.82388
 C1103 C 0.51803 0.77677 0.81178
 C1104 C 0.50880 0.75425 0.83052
 C1105 C 0.50750 0.75893 0.86116
 C1106 C 0.51719 0.78693 0.87218
 H1107 H 0.53795 0.82212 0.76576
 H1108 H 0.55880 0.87183 0.75668
 H1109 H 0.55650 0.89099 0.84910
 H1110 H 0.51884 0.77303 0.78864
 H1111 H 0.50311 0.73333 0.82053
 H1112 H 0.51734 0.79160 0.89519
 C1113 C 0.68323 0.54714 0.15373
 C1114 C 0.70328 0.54519 0.17468
 C1115 C 0.73139 0.55296 0.16973
 C1116 C 0.73910 0.56351 0.14224
 C1117 C 0.71865 0.56676 0.11988
 C1118 C 0.69024 0.55753 0.12631
 O1119 O 0.65737 0.54005 0.16306
 C1120 C 0.66116 0.53372 0.19061
 C1121 C 0.68880 0.53653 0.19888
 C1122 C 0.69680 0.53356 0.22737
 C1123 C 0.67543 0.52757 0.24810
 C1124 C 0.64636 0.52356 0.24032
 C1125 C 0.63975 0.52731 0.21066
 H1126 H 0.74679 0.55174 0.18672
 H1127 H 0.76074 0.57097 0.13973
 H1128 H 0.67357 0.55769 0.11065
 H1129 H 0.71851 0.53728 0.23371
 H1130 H 0.68159 0.52832 0.27042
 H1131 H 0.61835 0.52692 0.20299
 C1132 C 0.18644 1.04425 0.61719
 C1133 C 0.16250 1.03097 0.60665
 C1134 C 0.15669 1.02954 0.57738
 C1135 C 0.17618 1.04271 0.55820
 C1136 C 0.20108 1.05683 0.56844
 C1137 C 0.20636 1.05702 0.59850
 O1138 O 0.18702 1.04494 0.64584
 C1139 C 0.16284 1.03188 0.65350
 C1140 C 0.14717 1.02285 0.63037
 C1141 C 0.12064 1.00995 0.63346
 C1142 C 0.10954 1.00650 0.66152
 C1143 C 0.12479 1.01628 0.68633
 C1144 C 0.15232 1.02870 0.68162
 H1145 H 0.13739 1.01948 0.56966
 H1146 H 0.17115 1.04289 0.53551
 H1147 H 0.22504 1.06740 0.60728
 H1148 H 0.10863 1.00314 0.61484
 H1149 H 0.08887 0.99647 0.66321
 H1150 H 0.16469 1.03687 0.69948
 C1151 C 0.18057 0.97752 0.81880
 C1152 C 0.19177 0.96361 0.79454
 C1153 C 0.21338 0.94252 0.79552
 C1154 C 0.22350 0.93484 0.82267
 C1155 C 0.21160 0.94760 0.84891
 C1156 C 0.19014 0.97021 0.84620
 O1157 O 0.15936 0.99620 0.81310
 C1158 C 0.15717 0.99382 0.78460
 C1159 C 0.17644 0.97410 0.77229
 C1160 C 0.17659 0.96656 0.74320
 C1161 C 0.15599 0.97990 0.72606
 C1162 C 0.13571 1.00123 0.73768
 C1163 C 0.13686 1.00795 0.76786
 H1164 H 0.22218 0.93220 0.77599
 H1165 H 0.24128 0.91942 0.82253
 H1166 H 0.17923 0.98056 0.86453
 H1167 H 0.19146 0.95020 0.73413
 H1168 H 0.15537 0.97262 0.70371
 H1169 H 0.12243 1.02309 0.77892
 C1170 C 0.68371 0.45810 0.35663
 C1171 C 0.66157 0.47426 0.36904
 C1172 C 0.65659 0.47602 0.39866
 C1173 C 0.67530 0.46054 0.41635
 C1174 C 0.69853 0.44376 0.40430
 C1175 C 0.70263 0.44242 0.37386
 O1176 O 0.68465 0.45980 0.32798
 C1177 C 0.66268 0.47755 0.32233
 C1178 C 0.64796 0.48683 0.34671
 C1179 C 0.62423 0.50521 0.34595
 C1180 C 0.61574 0.51531 0.31899
 C1181 C 0.63138 0.50798 0.29296
 C1182 C 0.65445 0.48714 0.29512
 H1183 H 0.63893 0.48887 0.40784
 H1184 H 0.67140 0.46132 0.43947
 H1185 H 0.72019 0.42996 0.36397
 H1186 H 0.61255 0.51159 0.36548
 H1187 H 0.59682 0.52893 0.31907
 H1188 H 0.66582 0.47852 0.27622
 C1189 C 0.82516 0.45319 0.64104
 C1190 C 0.81020 0.47884 0.64831
 C1191 C 0.78798 0.48955 0.63192
 C1192 C 0.78079 0.47304 0.60714
 C1193 C 0.79558 0.44614 0.59940
 C1194 C 0.81823 0.43632 0.61672
 O1195 O 0.84506 0.44643 0.65978
 C1196 C 0.84248 0.46815 0.67947
 C1197 C 0.82145 0.48852 0.67354
 C1198 C 0.81464 0.51249 0.69184
 C1199 C 0.82950 0.51499 0.71771
 C1200 C 0.85038 0.49328 0.72534
 C1201 C 0.85794 0.47060 0.70469
 H1202 H 0.77649 0.50981 0.63807
 H1203 H 0.76376 0.48132 0.59399
 H1204 H 0.82966 0.41566 0.61201
 H1205 H 0.79818 0.52845 0.68662
 H1206 H 0.82424 0.53355 0.73213
 H1207 H 0.87488 0.45468 0.70836
 C1208 C 0.30692 -0.01681 0.11127
 C1209 C 0.33173 -0.00247 0.10403
 C1210 C 0.34105 0.00097 0.07557
 C1211 C 0.32437 -0.01132 0.05367
 C1212 C 0.29915 -0.02709 0.06057
 C1213 C 0.29014 -0.02941 0.08985
 O1214 O 0.30261 -0.01890 0.13961
 C1215 C 0.32532 -0.00580 0.15050
 C1216 C 0.34383 0.00440 0.12964
 C1217 C 0.37008 0.01630 0.13608
 C1218 C 0.37772 0.01769 0.16515
 C1219 C 0.35887 0.00796 0.18772
 C1220 C 0.33204 -0.00382 0.17970
 H1221 H 0.36084 0.01205 0.07044
 H1222 H 0.33178 -0.00976 0.03146
 H1223 H 0.27112 -0.04152 0.09581
 H1224 H 0.38468 0.02333 0.11918
 H1225 H 0.39874 0.02583 0.16957
 H1226 H 0.31744 -0.01264 0.19576
 C1227 C 0.30233 0.04471 0.32508
 C1228 C 0.29142 0.06074 0.30264
 C1229 C 0.27375 0.08559 0.30722
 C1230 C 0.26766 0.09449 0.33600
 C1231 C 0.27960 0.07878 0.35935
 C1232 C 0.29664 0.05314 0.35364
 O1233 O 0.32040 0.02342 0.31651
 C1234 C 0.32127 0.02620 0.28808
 C1235 C 0.30400 0.04855 0.27834
 C1236 C 0.30385 0.05654 0.24949
 C1237 C 0.32305 0.04169 0.23033
 C1238 C 0.34257 0.01930 0.23998
 C1239 C 0.33993 0.01090 0.26949
 H1240 H 0.26577 0.09828 0.28934
 H1241 H 0.25483 0.11438 0.34007
 H1242 H 0.30626 0.04085 0.37095
 H1243 H 0.29037 0.07452 0.24215
 H1244 H 0.32371 0.04917 0.20823
 H1245 H 0.35241 -0.00606 0.27931
 C1246 C 0.81915 0.54550 0.86507
 C1247 C 0.79784 0.53016 0.85162
 C1248 C 0.77056 0.52783 0.86345
 C1249 C 0.76490 0.54228 0.89006
 C1250 C 0.78633 0.55885 0.90407
 C1251 C 0.81393 0.56024 0.89140
 O1252 O 0.84355 0.54499 0.85015
 C1253 C 0.83742 0.52918 0.82665
 C1254 C 0.80973 0.51973 0.82646
 C1255 C 0.79872 0.50314 0.80386
 C1256 C 0.81690 0.49621 0.78034
 C1257 C 0.84562 0.50630 0.77930
 C1258 C 0.85603 0.52215 0.80367
 H1259 H 0.75414 0.51562 0.85242
 H1260 H 0.74362 0.54132 0.89934
 H1261 H 0.83072 0.57264 0.90164
 H1262 H 0.77691 0.49565 0.80437
 H1263 H 0.80850 0.48264 0.76305
 H1264 H 0.87803 0.52882 0.80480
 C1265 C 0.11961 0.67354 0.54268
 C1266 C 0.11725 0.64418 0.55062
 C1267 C 0.09372 0.63305 0.56528
 C1268 C 0.07155 0.65304 0.57224
 C1269 C 0.07304 0.68360 0.56435
 C1270 C 0.09763 0.69401 0.54939
 O1271 O 0.14412 0.67913 0.52894
 C1272 C 0.15742 0.65268 0.52846
 C1273 C 0.14171 0.63078 0.54145
 C1274 C 0.15087 0.60146 0.54307
 C1275 C 0.17766 0.59430 0.53137
 C1276 C 0.19579 0.61638 0.51888
 C1277 C 0.18438 0.64602 0.51643
 H1278 H 0.09259 0.60983 0.57146
 H1279 H 0.05344 0.64473 0.58437
 H1280 H 0.09950 0.71715 0.54312
 H1281 H 0.13766 0.58446 0.55276
 H1282 H 0.18356 0.57111 0.53203
 H1283 H 0.19565 0.66335 0.50505
 C1284 C 0.66474 0.17625 1.06468
 C1285 C 0.65988 0.14634 1.06889
 C1286 C 0.63388 0.13542 1.07848
 C1287 C 0.61189 0.15615 1.08399
 C1288 C 0.61605 0.18725 1.07977
 C1289 C 0.64308 0.19742 1.07016
 O1290 O 0.69088 0.18162 1.05466
 C1291 C 0.70265 0.15447 1.05250
 C1292 C 0.68452 0.13223 1.06103
 C1293 C 0.69195 0.10216 1.05987
 C1294 C 0.71901 0.09455 1.04887
 C1295 C 0.73842 0.11680 1.03909
 C1296 C 0.72996 0.14746 1.04170
 H1297 H 0.63062 0.11174 1.08158
 H1298 H 0.59165 0.14795 1.09193
 H1299 H 0.64695 0.22093 1.06662
 H1300 H 0.67721 0.08506 1.06666
 H1301 H 0.72482 0.07108 1.04733
 H1302 H 0.74365 0.16544 1.03491
 C1303 C 0.85906 0.18560 0.98387
 C1304 C 0.83750 0.18702 0.96443
 C1305 C 0.84118 0.19820 0.93694
 C1306 C 0.86833 0.20779 0.92875
 C1307 C 0.89190 0.20597 0.94783
 C1308 C 0.88637 0.19548 0.97641
 O1309 O 0.85154 0.17154 1.00792
 C1310 C 0.82478 0.16374 1.00326
 C1311 C 0.81525 0.17284 0.97706
 C1312 C 0.78881 0.16524 0.96684
 C1313 C 0.77222 0.14577 0.98340
 C1314 C 0.78239 0.13310 1.00946
 C1315 C 0.80814 0.14515 1.02058
 H1316 H 0.82380 0.19900 0.92200
 H1317 H 0.87027 0.21749 0.90757
 H1318 H 0.90304 0.19234 0.99182
 H1319 H 0.78155 0.17315 0.94626
 H1320 H 0.75180 0.14049 0.97500
 H1321 H 0.81627 0.13902 1.04134
 C1322 C 0.31911 0.68221 0.46025
 C1323 C 0.30905 0.69595 0.48521
 C1324 C 0.32192 0.72113 0.49695
 C1325 C 0.34600 0.73244 0.48233
 C1326 C 0.35687 0.71837 0.45658
 C1327 C 0.34297 0.69284 0.44558
 O1328 O 0.30452 0.65824 0.45288
 C1329 C 0.28483 0.65668 0.47364
 C1330 C 0.28651 0.67905 0.49402
 C1331 C 0.26830 0.68051 0.51804
 C1332 C 0.24801 0.65772 0.52127
 C1333 C 0.24589 0.63370 0.50066
 C1334 C 0.26482 0.63425 0.47619
 H1335 H 0.31377 0.73166 0.51665
 H1336 H 0.35599 0.75223 0.49100
 H1337 H 0.35085 0.68099 0.42646
 H1338 H 0.27005 0.69817 0.53411
 H1339 H 0.23451 0.65833 0.54047
 H1340 H 0.26516 0.61762 0.45923
 C1341 C 0.60350 0.83640 0.47341
 C1342 C 0.61071 0.81974 0.49692
 C1343 C 0.59311 0.79784 0.50823
 C1344 C 0.56737 0.79243 0.49434
 C1345 C 0.55994 0.80833 0.46911
 C1346 C 0.57828 0.83109 0.45898
 O1347 O 0.62341 0.85569 0.46566
 C1348 C 0.64377 0.85084 0.48447
 C1349 C 0.63722 0.82893 0.50391
 C1350 C 0.65623 0.81932 0.52446
 C1351 C 0.68328 0.83239 0.52454
 C1352 C 0.69116 0.85447 0.50398
 C1353 C 0.67008 0.86478 0.48479
 H1354 H 0.59913 0.78510 0.52687
 H1355 H 0.55348 0.77551 0.50310
 H1356 H 0.57393 0.84336 0.43957
 H1357 H 0.65061 0.80206 0.53964
 H1358 H 0.69813 0.82507 0.54054
 H1359 H 0.67417 0.88276 0.46992
 C1360 C 0.14915 0.31099 -0.01929
 C1361 C 0.16881 0.28804 -0.02104
 C1362 C 0.16172 0.25931 -0.03014
 C1363 C 0.13343 0.25424 -0.03810
 C1364 C 0.11288 0.27779 -0.03699
 C1365 C 0.12100 0.30643 -0.02689
 O1366 O 0.16028 0.33696 -0.01169
 C1367 C 0.18756 0.33036 -0.00865
 C1368 C 0.19406 0.30081 -0.01406
 C1369 C 0.22187 0.28988 -0.01380
 C1370 C 0.24377 0.31023 -0.00779
 C1371 C 0.23760 0.34099 -0.00166
 C1372 C 0.20876 0.35076 -0.00256
 H1373 H 0.17755 0.24163 -0.03179
 H1374 H 0.12789 0.23230 -0.04625
 H1375 H 0.10603 0.32495 -0.02570
 H1376 H 0.22666 0.26667 -0.01897
 H1377 H 0.26539 0.30197 -0.00915
 H1378 H 0.20304 0.37410 0.00065
 C1379 C 0.36434 0.30642 0.04656
 C1380 C 0.37229 0.32351 0.02340
 C1381 C 0.40047 0.32785 0.01510
 C1382 C 0.42148 0.31404 0.03139
 C1383 C 0.41412 0.29648 0.05569
 C1384 C 0.38499 0.29258 0.06329
 O1385 O 0.33632 0.30617 0.05119
 C1386 C 0.32648 0.32362 0.03051
 C1387 C 0.34773 0.33480 0.01315
 C1388 C 0.34279 0.35536 -0.00824
 C1389 C 0.31475 0.36476 -0.01217
 C1390 C 0.29153 0.35252 0.00412
 C1391 C 0.29809 0.33208 0.02645
 H1392 H 0.40612 0.34174 -0.00305
 H1393 H 0.44355 0.31783 0.02559
 H1394 H 0.37867 0.27948 0.08179
 H1395 H 0.36011 0.36492 -0.02066
 H1396 H 0.31182 0.38268 -0.02721
 H1397 H 0.28157 0.32373 0.04074
 C1398 C 0.82883 0.81910 0.54686
 C1399 C 0.81488 0.79641 0.53285
 C1400 C 0.82590 0.76748 0.53039
 C1401 C 0.85220 0.76170 0.54315
 C1402 C 0.86663 0.78463 0.55827
 C1403 C 0.85475 0.81378 0.55997
 O1404 O 0.81488 0.84500 0.54667
 C1405 C 0.79149 0.83847 0.53248
 C1406 C 0.79032 0.80907 0.52366
 C1407 C 0.76747 0.79757 0.50870
 C1408 C 0.74476 0.81707 0.50300
 C1409 C 0.74484 0.84751 0.51270
 C1410 C 0.76948 0.85831 0.52658
 H1411 H 0.81459 0.74996 0.51924
 H1412 H 0.86100 0.73925 0.54188
 H1413 H 0.86537 0.83175 0.57121
 H1414 H 0.76715 0.77441 0.50160
 H1415 H 0.72719 0.80840 0.49085
 H1416 H 0.77151 0.88159 0.53283
   
