data_POSCAR
  _audit_creation_date              2014-09-24
  _audit_creation_method            'ToBaCCo'
  _symmetry_space_group_name_H-M    'P1'
  _symmetry_Int_Tables_number       1
  _symmetry_cell_setting            triclinic
  loop_
  _symmetry_equiv_pos_as_xyz
 x,y,z
_cell_length_a 27.0094
_cell_length_b 44.4140
_cell_length_c 35.3451
_cell_angle_alpha 90.048500
_cell_angle_beta 90.215200
_cell_angle_gamma 90.353300
loop_
  _atom_site_label
  _atom_site_type_symbol
  _atom_site_fract_x
  _atom_site_fract_y
  _atom_site_fract_z
B1 B -0.03384 -0.02466 0.02106
 B2 B 0.02660 -0.02166 0.03175
 B3 B 0.00925 -0.03333 -0.01158
 B4 B -0.04240 -0.01438 -0.02434
 B5 B -0.05622 0.00964 0.01162
 B6 B -0.01297 0.00503 0.04651
 B7 B 0.03496 0.02523 -0.01618
 B8 B -0.02550 0.02218 -0.02690
 B9 B -0.00812 0.03387 0.01641
 B10 B 0.04354 0.01490 0.02921
 B11 B 0.05737 -0.00911 -0.00677
 B12 B 0.01415 -0.00447 -0.04168
 B13 B 0.51410 0.48481 0.54062
 B14 B 0.45473 0.48549 0.52623
 B15 B 0.48358 0.51780 0.53819
 B16 B 0.54319 0.51578 0.52393
 B17 B 0.55085 0.48176 0.50254
 B18 B 0.49562 0.46291 0.50409
 B19 B 0.48225 0.51367 0.46200
 B20 B 0.54159 0.51298 0.47636
 B21 B 0.51272 0.48068 0.46444
 B22 B 0.45314 0.48272 0.47867
 B23 B 0.44548 0.51673 0.50005
 B24 B 0.50070 0.53557 0.49853
 B25 B 0.53607 0.02709 0.51601
 B26 B 0.47556 0.02400 0.52597
 B27 B 0.49336 0.03527 0.48269
 B28 B 0.54537 0.01636 0.47091
 B29 B 0.55890 -0.00724 0.50750
 B30 B 0.51516 -0.00240 0.54167
 B31 B 0.46834 -0.02338 0.47852
 B32 B 0.52902 -0.02030 0.46873
 B33 B 0.51083 -0.03152 0.51189
 B34 B 0.45898 -0.01257 0.52364
 B35 B 0.44544 0.01095 0.48714
 B36 B 0.48921 0.00605 0.45285
 B37 B -0.01473 0.51694 0.03528
 B38 B 0.04415 0.51601 0.02025
 B39 B 0.01539 0.48386 0.03272
 B40 B -0.04455 0.48602 0.01919
 B41 B -0.05258 0.51991 -0.00236
 B42 B 0.00280 0.53859 -0.00163
 B43 B 0.01454 0.48745 -0.04345
 B44 B -0.04441 0.48847 -0.02837
 B45 B -0.01562 0.52056 -0.04096
 B46 B 0.04438 0.51847 -0.02736
 B47 B 0.05237 0.48458 -0.00578
 B48 B -0.00305 0.46589 -0.00654
 B49 B 0.03361 0.47200 0.48754
 B50 B -0.02546 0.47536 0.47287
 B51 B -0.01285 0.46558 0.51793
 B52 B 0.03845 0.48455 0.53222
 B53 B 0.05693 0.50671 0.49559
 B54 B 0.01738 0.50055 0.45853
 B55 B -0.03555 0.52442 0.51685
 B56 B 0.02346 0.52132 0.53110
 B57 B 0.01074 0.53098 0.48611
 B58 B -0.04038 0.51192 0.47181
 B59 B -0.05891 0.49010 0.50878
 B60 B -0.01888 0.49581 0.54558
 B61 B 0.47172 -0.01009 -0.03828
 B62 B 0.53071 -0.01949 -0.02879
 B63 B 0.51577 0.01671 -0.03714
 B64 B 0.45973 0.02347 -0.01791
 B65 B 0.44035 -0.00910 0.00275
 B66 B 0.48428 -0.03580 -0.00434
 B67 B 0.52536 0.00897 0.03844
 B68 B 0.46638 0.01835 0.02894
 B69 B 0.48133 -0.01783 0.03729
 B70 B 0.53737 -0.02459 0.01807
 B71 B 0.55675 0.00797 -0.00259
 B72 B 0.51280 0.03468 0.00450
 B73 B 0.46918 0.52463 -0.01931
 B74 B 0.52934 0.52210 -0.03058
 B75 B 0.51300 0.53395 0.01273
 B76 B 0.46187 0.51457 0.02622
 B77 B 0.44718 0.49018 -0.00930
 B78 B 0.48943 0.49498 -0.04466
 B79 B 0.53917 0.47572 0.01779
 B80 B 0.47902 0.47825 0.02905
 B81 B 0.49532 0.46641 -0.01429
 B82 B 0.54649 0.48577 -0.02774
 B83 B 0.56117 0.51018 0.00778
 B84 B 0.51889 0.50539 0.04313
 B85 B 0.02729 0.01365 0.46012
 B86 B -0.03306 0.01723 0.47128
 B87 B -0.01011 -0.01670 0.45924
 B88 B 0.04807 -0.01920 0.47701
 B89 B 0.06032 0.01339 0.50069
 B90 B 0.01005 0.03605 0.49655
 B91 B -0.01758 -0.01449 0.53537
 B92 B 0.04264 -0.01734 0.52448
 B93 B 0.01910 0.01634 0.53629
 B94 B -0.03878 0.01873 0.51847
 B95 B -0.05102 -0.01406 0.49521
 B96 B -0.00021 -0.03658 0.49889
 B97 B 0.76382 0.27521 0.26555
 B98 B 0.70296 0.26820 0.26947
 B99 B 0.72731 0.27451 0.22657
 B100 B 0.78419 0.25954 0.22516
 B101 B 0.79506 0.24278 0.26766
 B102 B 0.74416 0.24815 0.29551
 B103 B 0.71541 0.21470 0.23434
 B104 B 0.77636 0.22220 0.22985
 B105 B 0.75218 0.21532 0.27282
 B106 B 0.69475 0.23067 0.27482
 B107 B 0.68407 0.24717 0.23207
 B108 B 0.73490 0.24174 0.20426
 B109 B 0.73546 0.78067 0.76644
 B110 B 0.71094 0.77412 0.72343
 B111 B 0.77133 0.78317 0.72777
 B112 B 0.79400 0.76693 0.76755
 B113 B 0.74636 0.74764 0.78783
 B114 B 0.69452 0.75219 0.76048
 B115 B 0.76364 0.72333 0.71781
 B116 B 0.78849 0.72935 0.76080
 B117 B 0.72814 0.72073 0.75695
 B118 B 0.70566 0.73676 0.71730
 B119 B 0.75322 0.75633 0.69683
 B120 B 0.80499 0.75168 0.72413
 B121 B 0.27014 0.22287 0.73521
 B122 B 0.20935 0.22955 0.73103
 B123 B 0.23370 0.22364 0.77410
 B124 B 0.29074 0.23888 0.77553
 B125 B 0.30158 0.25550 0.73286
 B126 B 0.25053 0.24969 0.70492
 B127 B 0.22218 0.28336 0.76564
 B128 B 0.28312 0.27620 0.77039
 B129 B 0.25878 0.28272 0.72729
 B130 B 0.20130 0.26697 0.72524
 B131 B 0.19069 0.25074 0.76811
 B132 B 0.24162 0.25663 0.79607
 B133 B 0.23201 0.77567 0.23488
 B134 B 0.29277 0.76883 0.23093
 B135 B 0.26840 0.77439 0.27394
 B136 B 0.21121 0.75929 0.27476
 B137 B 0.20030 0.74316 0.23170
 B138 B 0.25145 0.74914 0.20419
 B139 B 0.27942 0.71476 0.26449
 B140 B 0.21858 0.72202 0.26894
 B141 B 0.24293 0.71590 0.22588
 B142 B 0.30053 0.73145 0.22453
 B143 B 0.31119 0.74723 0.26775
 B144 B 0.26017 0.74126 0.29526
 B145 B 0.26831 0.72388 0.77616
 B146 B 0.29146 0.73024 0.73290
 B147 B 0.23074 0.72315 0.73778
 B148 B 0.21140 0.73878 0.77852
 B149 B 0.26122 0.75665 0.79863
 B150 B 0.31128 0.75129 0.77000
 B151 B 0.24197 0.78304 0.73036
 B152 B 0.21900 0.77615 0.77370
 B153 B 0.27979 0.78371 0.76824
 B154 B 0.29939 0.76776 0.72744
 B155 B 0.24949 0.75024 0.70754
 B156 B 0.19932 0.75555 0.73619
 B157 B 0.21927 0.21934 0.26471
 B158 B 0.27979 0.22719 0.27152
 B159 B 0.25814 0.22032 0.22769
 B160 B 0.20062 0.23527 0.22359
 B161 B 0.18732 0.25158 0.26601
 B162 B 0.23666 0.24638 0.29569
 B163 B 0.26827 0.28024 0.23574
 B164 B 0.20784 0.27281 0.22950
 B165 B 0.22973 0.27918 0.27327
 B166 B 0.28676 0.26455 0.27677
 B167 B 0.30018 0.24805 0.23462
 B168 B 0.25078 0.25312 0.20490
 B169 B 0.78312 0.71406 0.23845
 B170 B 0.72308 0.72232 0.23132
 B171 B 0.74398 0.71487 0.27527
 B172 B 0.80178 0.72954 0.28010
 B173 B 0.81622 0.74604 0.23808
 B174 B 0.76717 0.74156 0.20789
 B175 B 0.73605 0.77516 0.26791
 B176 B 0.79612 0.76698 0.27488
 B177 B 0.77512 0.77414 0.23090
 B178 B 0.71760 0.75990 0.22660
 B179 B 0.70296 0.74278 0.26824
 B180 B 0.75176 0.74761 0.29860
 B181 B 0.73155 0.22478 0.72865
 B182 B 0.70585 0.23025 0.77124
 B183 B 0.76656 0.22302 0.76840
 B184 B 0.78896 0.23946 0.72911
 B185 B 0.74111 0.25798 0.70778
 B186 B 0.68906 0.25218 0.73426
 B187 B 0.75647 0.28284 0.77765
 B188 B 0.78218 0.27672 0.73510
 B189 B 0.72130 0.28442 0.73834
 B190 B 0.69858 0.26767 0.77780
 B191 B 0.74662 0.24955 0.79896
 B192 B 0.79873 0.25527 0.77249
 C193 C 0.07638 0.43234 0.86488
 C194 C 0.03479 0.42243 0.88471
 C195 C 0.01288 0.44091 0.91164
 C196 C 0.03162 0.47005 0.91907
 C197 C 0.07163 0.48060 0.89718
 C198 C 0.09406 0.46176 0.87040
 C199 C 0.10367 0.41067 0.84301
 C200 C 0.12574 0.39073 0.82725
 C201 C 0.15127 0.36542 0.81102
 C202 C 0.14112 0.35601 0.77400
 C203 C 0.16351 0.33011 0.75953
 C204 C 0.19687 0.31332 0.78172
 C205 C 0.20593 0.32278 0.81920
 C206 C 0.18368 0.34869 0.83354
 H207 H 0.02096 0.39965 0.88098
 H208 H -0.01702 0.43143 0.92815
 H209 H 0.08758 0.50265 0.90228
 H210 H 0.12655 0.46963 0.85541
 H211 H 0.11519 0.36836 0.75655
 H212 H 0.15367 0.32301 0.73127
 H213 H 0.23041 0.31024 0.83759
 H214 H 0.19119 0.35540 0.86249
 C215 C 0.42124 0.56638 0.36738
 C216 C 0.40401 0.53695 0.37350
 C217 C 0.42577 0.51903 0.40166
 C218 C 0.46458 0.53054 0.42428
 C219 C 0.48259 0.55976 0.41654
 C220 C 0.46145 0.57730 0.38824
 C221 C 0.39458 0.58724 0.34384
 C222 C 0.37304 0.60686 0.32702
 C223 C 0.34801 0.63212 0.31022
 C224 C 0.35839 0.64125 0.27320
 C225 C 0.33673 0.66736 0.25853
 C226 C 0.30404 0.68460 0.28058
 C227 C 0.29474 0.67534 0.31804
 C228 C 0.31616 0.64925 0.33252
 H229 H 0.37246 0.52837 0.35776
 H230 H 0.41040 0.49689 0.40699
 H231 H 0.51163 0.56992 0.43351
 H232 H 0.47480 0.60012 0.38410
 H233 H 0.38397 0.62857 0.25595
 H234 H 0.34660 0.67428 0.23027
 H235 H 0.27069 0.68816 0.33633
 H236 H 0.30853 0.64275 0.36147
 C237 C 0.90926 0.93350 0.62584
 C238 C 0.94953 0.92170 0.60640
 C239 C 0.97380 0.93880 0.57922
 C240 C 0.95915 0.96857 0.57123
 C241 C 0.91967 0.98081 0.59202
 C242 C 0.89467 0.96328 0.61911
 C243 C 0.88080 0.91321 0.64906
 C244 C 0.85886 0.89361 0.66580
 C245 C 0.83446 0.86804 0.68270
 C246 C 0.80229 0.85053 0.66062
 C247 C 0.78257 0.82376 0.67490
 C248 C 0.79386 0.81417 0.71193
 C249 C 0.82685 0.83179 0.73372
 C250 C 0.84681 0.85858 0.71926
 H251 H 0.96082 0.89860 0.61095
 H252 H 1.00289 0.92794 0.56343
 H253 H 0.90664 1.00334 0.58623
 H254 H 0.86304 0.97256 0.63370
 H255 H 0.79334 0.85721 0.63194
 H256 H 0.75839 0.81061 0.65673
 H257 H 0.83843 0.82463 0.76153
 H258 H 0.87284 0.87147 0.73624
 C259 C 0.59571 0.05720 0.13277
 C260 C 0.54916 0.04384 0.13818
 C261 C 0.52868 0.02523 0.11003
 C262 C 0.55378 0.02080 0.07559
 C263 C 0.60263 0.03187 0.07243
 C264 C 0.62321 0.04995 0.10070
 C265 C 0.61296 0.08157 0.15640
 C266 C 0.62882 0.10349 0.17273
 C267 C 0.64933 0.13077 0.18856
 C268 C 0.63955 0.13937 0.22586
 C269 C 0.65971 0.16617 0.24033
 C270 C 0.69048 0.18457 0.21784
 C271 C 0.69861 0.17603 0.17998
 C272 C 0.67859 0.14931 0.16566
 H273 H 0.52754 0.04916 0.16303
 H274 H 0.49165 0.01642 0.11405
 H275 H 0.62411 0.02849 0.04703
 H276 H 0.65942 0.05996 0.09627
 H277 H 0.61623 0.12548 0.24369
 H278 H 0.65077 0.17247 0.26898
 H279 H 0.72130 0.18968 0.16143
 H280 H 0.68599 0.14308 0.13659
 C281 C 0.86428 0.07495 0.40676
 C282 C 0.84612 0.04882 0.42408
 C283 C 0.87839 0.03027 0.44457
 C284 C 0.92935 0.03720 0.44695
 C285 C 0.94609 0.06440 0.43084
 C286 C 0.91414 0.08274 0.41053
 C287 C 0.83325 0.09464 0.38507
 C288 C 0.81284 0.11315 0.36577
 C289 C 0.79551 0.13695 0.34176
 C290 C 0.74669 0.14722 0.34316
 C291 C 0.73244 0.17193 0.32111
 C292 C 0.76674 0.18636 0.29710
 C293 C 0.81595 0.17609 0.29691
 C294 C 0.82994 0.15147 0.31863
 H295 H 0.80721 0.04298 0.42207
 H296 H 0.86311 0.01094 0.45910
 H297 H 0.98399 0.07197 0.43413
 H298 H 0.92841 0.10326 0.39793
 H299 H 0.72004 0.13658 0.36175
 H300 H 0.69498 0.18009 0.32368
 H301 H 0.84415 0.18724 0.28028
 H302 H 0.86813 0.14413 0.31799
 C303 C 0.35153 0.43201 0.59529
 C304 C 0.34878 0.43059 0.55583
 C305 C 0.37860 0.44943 0.53377
 C306 C 0.41204 0.46984 0.55089
 C307 C 0.41172 0.47250 0.59063
 C308 C 0.38188 0.45364 0.61260
 C309 C 0.32916 0.40865 0.61779
 C310 C 0.31375 0.38808 0.63669
 C311 C 0.29909 0.36268 0.65939
 C312 C 0.33479 0.34796 0.68117
 C313 C 0.32196 0.32264 0.70237
 C314 C 0.27281 0.31185 0.70286
 C315 C 0.23745 0.32634 0.67992
 C316 C 0.25043 0.35172 0.65858
 H317 H 0.32563 0.41381 0.54209
 H318 H 0.37741 0.44657 0.50337
 H319 H 0.43721 0.48745 0.60511
 H320 H 0.38471 0.45474 0.64316
 H321 H 0.37282 0.35589 0.68147
 H322 H 0.35080 0.31156 0.71838
 H323 H 0.19994 0.31788 0.67782
 H324 H 0.22270 0.36254 0.64113
 C325 C 0.62129 0.92143 0.89956
 C326 C 0.57349 0.91280 0.91000
 C327 C 0.54477 0.93177 0.93209
 C328 C 0.56310 0.96004 0.94384
 C329 C 0.61136 0.96858 0.93307
 C330 C 0.64026 0.94939 0.91093
 C331 C 0.64984 0.90096 0.87725
 C332 C 0.66957 0.88203 0.85832
 C333 C 0.68751 0.85784 0.83536
 C334 C 0.65313 0.84095 0.81466
 C335 C 0.66851 0.81646 0.79331
 C336 C 0.71894 0.80871 0.79153
 C337 C 0.75318 0.82534 0.81342
 C338 C 0.73757 0.84994 0.83503
 H339 H 0.55846 0.89119 0.90128
 H340 H 0.50808 0.92411 0.93988
 H341 H 0.62730 0.98970 0.94228
 H342 H 0.67739 0.95620 0.90304
 H343 H 0.61413 0.84653 0.81532
 H344 H 0.64060 0.80376 0.77798
 H345 H 0.79178 0.81915 0.81447
 H346 H 0.76430 0.86249 0.85177
 C347 C 0.14889 0.56934 0.08888
 C348 C 0.11930 0.54745 0.10617
 C349 C 0.08894 0.52873 0.08427
 C350 C 0.08742 0.53169 0.04458
 C351 C 0.12004 0.55242 0.02738
 C352 C 0.15034 0.57118 0.04941
 C353 C 0.17173 0.59245 0.11167
 C354 C 0.18737 0.61268 0.13119
 C355 C 0.20218 0.63753 0.15489
 C356 C 0.16655 0.65186 0.17698
 C357 C 0.17956 0.67660 0.19929
 C358 C 0.22881 0.68718 0.20058
 C359 C 0.26415 0.67305 0.17743
 C360 C 0.25099 0.64825 0.15498
 H361 H 0.11740 0.54605 0.13674
 H362 H 0.06398 0.51365 0.09888
 H363 H 0.12017 0.55556 -0.00297
 H364 H 0.17287 0.58821 0.03570
 H365 H 0.12844 0.64408 0.17665
 H366 H 0.15078 0.68743 0.21550
 H367 H 0.30178 0.68137 0.17600
 H368 H 0.27869 0.63770 0.13739
 C369 C 0.43790 0.91264 0.11923
 C370 C 0.48596 0.92464 0.12045
 C371 C 0.49882 0.94897 0.09707
 C372 C 0.46380 0.96153 0.07201
 C373 C 0.41492 0.95022 0.07284
 C374 C 0.40220 0.92616 0.09626
 C375 C 0.42444 0.88594 0.14016
 C376 C 0.40906 0.86410 0.15689
 C377 C 0.38527 0.83981 0.17709
 C378 C 0.39392 0.80940 0.16861
 C379 C 0.36582 0.78663 0.18630
 C380 C 0.32848 0.79407 0.21238
 C381 C 0.32107 0.82484 0.22061
 C382 C 0.34914 0.84724 0.20341
 H383 H 0.51391 0.91452 0.13835
 H384 H 0.53692 0.95668 0.09699
 H385 H 0.38689 0.95843 0.05362
 H386 H 0.36478 0.91722 0.09520
 H387 H 0.42146 0.80333 0.14781
 H388 H 0.37255 0.76337 0.17887
 H389 H 0.29219 0.83218 0.23941
 H390 H 0.34138 0.87061 0.20982
 C391 C 0.55595 0.40976 0.38406
 C392 C 0.50591 0.41723 0.38788
 C393 C 0.49201 0.44159 0.41073
 C394 C 0.52802 0.45880 0.43027
 C395 C 0.57831 0.45192 0.42449
 C396 C 0.59203 0.42774 0.40159
 C397 C 0.57118 0.38326 0.36345
 C398 C 0.58746 0.36179 0.34659
 C399 C 0.61164 0.33795 0.32596
 C400 C 0.60278 0.30735 0.33353
 C401 C 0.63051 0.28501 0.31502
 C402 C 0.66767 0.29302 0.28892
 C403 C 0.67533 0.32396 0.28159
 C404 C 0.64767 0.34596 0.29968
 H405 H 0.47757 0.40363 0.37426
 H406 H 0.45296 0.44584 0.41460
 H407 H 0.60727 0.46427 0.43914
 H408 H 0.63093 0.42239 0.39869
 H409 H 0.57524 0.30079 0.35418
 H410 H 0.62358 0.26159 0.32178
 H411 H 0.70409 0.33169 0.26280
 H412 H 0.65554 0.36947 0.29388
 C413 C 0.93905 0.59010 0.87721
 C414 C 0.90342 0.57263 0.89581
 C415 C 0.91771 0.54891 0.91930
 C416 C 0.96813 0.54200 0.92464
 C417 C 1.00362 0.55868 0.90412
 C418 C 0.98916 0.58258 0.88066
 C419 C 0.92338 0.61614 0.85582
 C420 C 0.90698 0.63730 0.83834
 C421 C 0.88298 0.66091 0.81705
 C422 C 0.84957 0.65261 0.78872
 C423 C 0.82133 0.67429 0.77034
 C424 C 0.82584 0.70517 0.77943
 C425 C 0.86068 0.71351 0.80741
 C426 C 0.88893 0.69150 0.82619
 H427 H 0.86448 0.57801 0.89321
 H428 H 0.88915 0.53695 0.93468
 H429 H 1.04276 0.55435 0.90758
 H430 H 1.01716 0.59576 0.86622
 H431 H 0.84384 0.62908 0.78172
 H432 H 0.79402 0.66623 0.75038
 H433 H 0.86505 0.73685 0.81564
 H434 H 0.91434 0.69827 0.84843
 C435 C 0.06265 0.08516 0.61924
 C436 C 0.01247 0.07822 0.61412
 C437 C -0.00172 0.05402 0.59095
 C438 C 0.03415 0.03653 0.57224
 C439 C 0.08451 0.04245 0.57997
 C440 C 0.09853 0.06653 0.60321
 C441 C 0.07807 0.11204 0.63918
 C442 C 0.09424 0.13396 0.65545
 C443 C 0.11827 0.15834 0.67555
 C444 C 0.10916 0.18874 0.66732
 C445 C 0.13682 0.21159 0.68548
 C446 C 0.17411 0.20424 0.71184
 C447 C 0.18201 0.17346 0.71976
 C448 C 0.15444 0.15099 0.70206
 H449 H -0.01571 0.09227 0.62668
 H450 H -0.04081 0.05038 0.58586
 H451 H 0.11335 0.02968 0.56624
 H452 H 0.13754 0.07144 0.60728
 H453 H 0.08148 0.19476 0.64646
 H454 H 0.12973 0.23486 0.67827
 H455 H 0.21087 0.16619 0.73877
 H456 H 0.16248 0.12763 0.70836
 C457 C 0.12709 0.40441 0.43302
 C458 C 0.08224 0.39556 0.44931
 C459 C 0.05376 0.41645 0.46889
 C460 C 0.06966 0.44659 0.47207
 C461 C 0.11646 0.45465 0.45753
 C462 C 0.14484 0.43369 0.43804
 C463 C 0.15098 0.38480 0.40682
 C464 C 0.16807 0.36853 0.38318
 C465 C 0.18464 0.34880 0.35394
 C466 C 0.23492 0.34262 0.34938
 C467 C 0.24985 0.32169 0.32227
 C468 C 0.21453 0.30679 0.29941
 C469 C 0.16415 0.31397 0.30377
 C470 C 0.14945 0.33490 0.33068
 H471 H 0.06797 0.37294 0.44509
 H472 H 0.01784 0.40935 0.47894
 H473 H 0.13036 0.47750 0.45934
 H474 H 0.17940 0.44076 0.42524
 H475 H 0.26237 0.35333 0.36741
 H476 H 0.28876 0.31638 0.32048
 H477 H 0.13573 0.30288 0.28706
 H478 H 0.11040 0.33966 0.33403
 C479 C 0.37163 0.58872 0.92247
 C480 C 0.39680 0.56679 0.90205
 C481 C 0.42727 0.54652 0.92065
 C482 C 0.43327 0.54782 0.96025
 C483 C 0.40684 0.56958 0.98075
 C484 C 0.37637 0.59012 0.96187
 C485 C 0.34530 0.61117 0.90170
 C486 C 0.32729 0.62982 0.88140
 C487 C 0.31119 0.65202 0.85485
 C488 C 0.26106 0.65869 0.85000
 C489 C 0.24687 0.68071 0.82393
 C490 C 0.28274 0.69608 0.80231
 C491 C 0.33298 0.68874 0.80737
 C492 C 0.34693 0.66682 0.83324
 H493 H 0.39384 0.56581 0.87148
 H494 H 0.44681 0.53028 0.90357
 H495 H 0.40991 0.57097 1.01118
 H496 H 0.35728 0.60730 0.97785
 H497 H 0.23315 0.64722 0.86665
 H498 H 0.20804 0.68619 0.82165
 H499 H 0.36185 0.70016 0.79168
 H500 H 0.38585 0.66163 0.83670
 C501 C 0.63151 0.09274 0.57514
 C502 C 0.60696 0.07021 0.59522
 C503 C 0.57708 0.04954 0.57635
 C504 C 0.57106 0.05096 0.53676
 C505 C 0.59672 0.07344 0.51657
 C506 C 0.62661 0.09440 0.53575
 C507 C 0.65749 0.11534 0.59638
 C508 C 0.67515 0.13381 0.61738
 C509 C 0.69062 0.15552 0.64502
 C510 C 0.65425 0.16995 0.66615
 C511 C 0.66753 0.19098 0.69353
 C512 C 0.71771 0.19781 0.70066
 C513 C 0.75421 0.18288 0.67943
 C514 C 0.74068 0.16171 0.65185
 H515 H 0.61001 0.06901 0.62577
 H516 H 0.55810 0.03282 0.59325
 H517 H 0.59348 0.07501 0.48616
 H518 H 0.64517 0.11205 0.52003
 H519 H 0.61537 0.16508 0.66124
 H520 H 0.63818 0.20208 0.70883
 H521 H 0.79306 0.18802 0.68328
 H522 H 0.76911 0.15048 0.63565
 C523 C 0.87145 0.91030 0.08156
 C524 C 0.87760 0.90739 0.04239
 C525 C 0.90686 0.92828 0.02270
 C526 C 0.93076 0.95192 0.04218
 C527 C 0.92322 0.95469 0.08151
 C528 C 0.89391 0.93411 0.10086
 C529 C 0.84679 0.88760 0.10343
 C530 C 0.83010 0.86877 0.12428
 C531 C 0.81540 0.84605 0.15081
 C532 C 0.76904 0.84658 0.16832
 C533 C 0.75658 0.82443 0.19486
 C534 C 0.79080 0.80189 0.20475
 C535 C 0.83710 0.80172 0.18647
 C536 C 0.84934 0.82371 0.16011
 H537 H 0.86067 0.88875 0.02727
 H538 H 0.91125 0.92563 -0.00748
 H539 H 0.94069 0.97236 0.09795
 H540 H 0.88990 0.93632 0.13124
 H541 H 0.74246 0.86387 0.16122
 H542 H 0.71982 0.82460 0.20690
 H543 H 0.86381 0.78412 0.19145
 H544 H 0.88530 0.82308 0.14664
 C545 C 0.90678 0.08198 0.88744
 C546 C 0.89251 0.05169 0.88945
 C547 C 0.91373 0.03276 0.91662
 C548 C 0.94941 0.04391 0.94237
 C549 C 0.96342 0.07446 0.93980
 C550 C 0.94231 0.09324 0.91264
 C551 C 0.88287 0.10227 0.86152
 C552 C 0.86232 0.12056 0.84188
 C553 C 0.83670 0.14389 0.82161
 C554 C 0.85030 0.15228 0.78486
 C555 C 0.82732 0.17684 0.76722
 C556 C 0.79044 0.19324 0.78617
 C557 C 0.77724 0.18429 0.82309
 C558 C 0.79982 0.15980 0.84039
 H559 H 0.86463 0.04278 0.87031
 H560 H 0.90192 0.00944 0.91740
 H561 H 0.99036 0.08416 0.95899
 H562 H 0.95327 0.11674 0.91167
 H563 H 0.87937 0.14034 0.77022
 H564 H 0.83953 0.18342 0.73932
 H565 H 0.74968 0.19639 0.83910
 H566 H 0.78930 0.15374 0.86896
 C567 C 0.08666 0.58341 0.61670
 C568 C 0.05583 0.59444 0.58811
 C569 C 0.03629 0.57495 0.56080
 C570 C 0.04727 0.54399 0.56154
 C571 C 0.07830 0.53316 0.59062
 C572 C 0.09790 0.55275 0.61789
 C573 C 0.10935 0.60408 0.64299
 C574 C 0.12965 0.62242 0.66295
 C575 C 0.15584 0.64562 0.68334
 C576 C 0.14422 0.65304 0.72081
 C577 C 0.16862 0.67713 0.73882
 C578 C 0.20496 0.69396 0.71951
 C579 C 0.21595 0.68604 0.68181
 C580 C 0.19199 0.66205 0.66416
 H581 H 0.04726 0.61821 0.58668
 H582 H 0.01248 0.58431 0.53922
 H583 H 0.08761 0.50955 0.59250
 H584 H 0.12217 0.54401 0.63969
 H585 H 0.11577 0.64063 0.73580
 H586 H 0.15803 0.68299 0.76734
 H587 H 0.24297 0.69850 0.66548
 H588 H 0.20103 0.65669 0.63507
 C589 C 0.60397 0.91858 0.38833
 C590 C 0.56645 0.90769 0.41186
 C591 C 0.54277 0.92694 0.43712
 C592 C 0.55606 0.95762 0.43943
 C593 C 0.59383 0.96838 0.41540
 C594 C 0.61760 0.94899 0.39010
 C595 C 0.62854 0.89803 0.36312
 C596 C 0.64753 0.87932 0.34319
 C597 C 0.66802 0.85511 0.32114
 C598 C 0.64237 0.82776 0.31932
 C599 C 0.66318 0.80301 0.30119
 C600 C 0.71040 0.80501 0.28441
 C601 C 0.73502 0.83311 0.28504
 C602 C 0.71413 0.85791 0.30350
 H603 H 0.55563 0.88416 0.41087
 H604 H 0.51431 0.91751 0.45504
 H605 H 0.60532 0.99176 0.41611
 H606 H 0.64669 0.95769 0.37206
 H607 H 0.60663 0.82529 0.33285
 H608 H 0.64240 0.78213 0.30143
 H609 H 0.77114 0.83583 0.27238
 H610 H 0.73444 0.87900 0.30473
 C611 C 0.41464 0.41941 0.11717
 C612 C 0.44867 0.40784 0.09135
 C613 C 0.46865 0.42630 0.06331
 C614 C 0.45494 0.45677 0.06048
 C615 C 0.42081 0.46821 0.08686
 C616 C 0.40073 0.44962 0.11489
 C617 C 0.39111 0.39942 0.14365
 C618 C 0.37021 0.38137 0.16350
 C619 C 0.34345 0.35827 0.18341
 C620 C 0.35436 0.35075 0.22102
 C621 C 0.32979 0.32651 0.23838
 C622 C 0.29405 0.30963 0.21826
 C623 C 0.28374 0.31769 0.18045
 C624 C 0.30782 0.34184 0.16345
 H625 H 0.45922 0.38436 0.09252
 H626 H 0.49454 0.41643 0.04371
 H627 H 0.40932 0.49149 0.08596
 H628 H 0.37391 0.45873 0.13446
 H629 H 0.38246 0.36314 0.23659
 H630 H 0.33983 0.32056 0.26703
 H631 H 0.25723 0.30519 0.16351
 H632 H 0.29938 0.34726 0.13424
 C633 C 0.56027 0.61289 0.07800
 C634 C 0.51271 0.60107 0.08322
 C635 C 0.49515 0.57801 0.05968
 C636 C 0.52503 0.56636 0.03053
 C637 C 0.57152 0.57999 0.02408
 C638 C 0.58888 0.60307 0.04757
 C639 C 0.58213 0.63233 0.10615
 C640 C 0.60219 0.64765 0.12993
 C641 C 0.62791 0.66558 0.15777
 C642 C 0.62320 0.69684 0.15741
 C643 C 0.65169 0.71457 0.18189
 C644 C 0.68581 0.70137 0.20722
 C645 C 0.68851 0.66971 0.20842
 C646 C 0.65998 0.65200 0.18377
 H647 H 0.49032 0.60840 0.10683
 H648 H 0.45976 0.56787 0.06640
 H649 H 0.59630 0.57137 0.00272
 H650 H 0.62590 0.61196 0.04338
 H651 H 0.59846 0.70761 0.13745
 H652 H 0.64770 0.73873 0.17989
 H653 H 0.71395 0.65852 0.22737
 H654 H 0.66395 0.62774 0.18430
 C655 C 0.05680 0.88828 0.92258
 C656 C 0.00918 0.89976 0.91723
 C657 C -0.00835 0.92267 0.94079
 C658 C 0.02158 0.93452 0.97010
 C659 C 0.06828 0.92137 0.97647
 C660 C 0.08557 0.89844 0.95301
 C661 C 0.07846 0.86855 0.89487
 C662 C 0.09855 0.85288 0.87168
 C663 C 0.12441 0.83448 0.84464
 C664 C 0.11768 0.80330 0.84474
 C665 C 0.14604 0.78510 0.82107
 C666 C 0.18208 0.79773 0.79683
 C667 C 0.18693 0.82933 0.79590
 C668 C 0.15852 0.84751 0.81971
 H669 H -0.01338 0.89218 0.89363
 H670 H -0.04392 0.93247 0.93416
 H671 H 0.09323 0.93020 0.99783
 H672 H 0.12262 0.88985 0.95734
 H673 H 0.09137 0.79292 0.86386
 H674 H 0.14037 0.76102 0.82283
 H675 H 0.21372 0.84013 0.77768
 H676 H 0.16409 0.87168 0.81934
 C677 C 0.44563 0.11409 0.41749
 C678 C 0.41698 0.10369 0.44764
 C679 C 0.43420 0.08047 0.47066
 C680 C 0.48081 0.06730 0.46423
 C681 C 0.51060 0.07925 0.43510
 C682 C 0.49307 0.10244 0.41191
 C683 C 0.42380 0.13423 0.39028
 C684 C 0.40311 0.15019 0.36767
 C685 C 0.37620 0.16879 0.34139
 C686 C 0.34179 0.15582 0.31645
 C687 C 0.31245 0.17405 0.29329
 C688 C 0.31672 0.20567 0.29485
 C689 C 0.35280 0.21829 0.31928
 C690 C 0.38208 0.20003 0.34233
 H691 H 0.38004 0.11236 0.45209
 H692 H 0.40928 0.07153 0.49179
 H693 H 0.54604 0.06938 0.42842
 H694 H 0.51549 0.11018 0.38846
 H695 H 0.33681 0.13160 0.31550
 H696 H 0.28563 0.16326 0.27491
 H697 H 0.35798 0.24240 0.32152
 H698 H 0.40853 0.21036 0.36154
 C699 C 0.94339 0.38845 0.58767
 C700 C 0.90919 0.40148 0.56304
 C701 C 0.92403 0.42415 0.53829
 C702 C 0.97355 0.43420 0.53757
 C703 C 1.00849 0.41930 0.56055
 C704 C 0.99339 0.39666 0.58561
 C705 C 0.92549 0.36891 0.61705
 C706 C 0.90725 0.35344 0.64131
 C707 C 0.88222 0.33527 0.66899
 C708 C 0.88886 0.30416 0.66906
 C709 C 0.85907 0.28588 0.69169
 C710 C 0.82160 0.29838 0.71454
 C711 C 0.81749 0.32996 0.71594
 C712 C 0.84733 0.34822 0.69312
 H713 H 0.87036 0.39529 0.56442
 H714 H 0.89569 0.43511 0.52188
 H715 H 1.04697 0.42625 0.56084
 H716 H 1.02025 0.38661 0.60453
 H717 H 0.91574 0.29388 0.65048
 H718 H 0.86447 0.26182 0.68986
 H719 H 0.78975 0.34063 0.73327
 H720 H 0.84181 0.37236 0.69322
 C721 C 0.92778 0.56881 0.13172
 C722 C 0.96643 0.58028 0.10984
 C723 C 0.98651 0.56308 0.08081
 C724 C 0.96886 0.53372 0.07330
 C725 C 0.93167 0.52172 0.09684
 C726 C 0.91107 0.53925 0.12576
 C727 C 0.90165 0.58916 0.15618
 C728 C 0.87989 0.60822 0.17373
 C729 C 0.85397 0.63280 0.19120
 C730 C 0.82198 0.65007 0.16906
 C731 C 0.79958 0.67557 0.18415
 C732 C 0.80794 0.68409 0.22207
 C733 C 0.84063 0.66667 0.24406
 C734 C 0.86333 0.64113 0.22876
 H735 H 0.97934 0.60322 0.11387
 H736 H 1.01446 0.57351 0.06323
 H737 H 0.91663 0.49944 0.09176
 H738 H 0.88070 0.53024 0.14226
 H739 H 0.81511 0.64418 0.13974
 H740 H 0.77575 0.68863 0.16585
 H741 H 0.84983 0.67308 0.27271
 H742 H 0.88894 0.62832 0.24594
 C743 C 0.57719 0.43172 0.63408
 C744 C 0.53641 0.42090 0.61376
 C745 C 0.51437 0.43863 0.58602
 C746 C 0.53214 0.46790 0.57824
 C747 C 0.57147 0.47931 0.60043
 C748 C 0.59404 0.46124 0.62805
 C749 C 0.60452 0.41085 0.65722
 C750 C 0.62661 0.39143 0.67404
 C751 C 0.65221 0.36658 0.69139
 C752 C 0.68719 0.35067 0.67041
 C753 C 0.70908 0.32485 0.68536
 C754 C 0.69714 0.31469 0.72201
 C755 C 0.66132 0.33070 0.74265
 C756 C 0.63927 0.35652 0.72754
 H757 H 0.52324 0.39804 0.61789
 H758 H 0.48491 0.42856 0.56938
 H759 H 0.58663 0.50151 0.59510
 H760 H 0.62592 0.46979 0.64341
 H761 H 0.69681 0.35784 0.64207
 H762 H 0.73528 0.31282 0.66798
 H763 H 0.64912 0.32294 0.77002
 H764 H 0.61127 0.36818 0.74369
 C765 C 0.09191 0.06504 0.36567
 C766 C 0.04779 0.04889 0.35968
 C767 C 0.02891 0.03023 0.38837
 C768 C 0.05303 0.02856 0.42376
 C769 C 0.09925 0.04317 0.42795
 C770 C 0.11830 0.06113 0.39925
 C771 C 0.10849 0.08844 0.34049
 C772 C 0.12526 0.10976 0.32363
 C773 C 0.14799 0.13641 0.30811
 C774 C 0.13866 0.14572 0.27099
 C775 C 0.16091 0.17206 0.25714
 C776 C 0.19334 0.18922 0.28006
 C777 C 0.20114 0.17994 0.31768
 C778 C 0.17906 0.15368 0.33137
 H779 H 0.02700 0.05172 0.33367
 H780 H -0.00620 0.01891 0.38378
 H781 H 0.12012 0.04216 0.45407
 H782 H 0.15260 0.07335 0.40417
 H783 H 0.11397 0.13282 0.25290
 H784 H 0.15201 0.17908 0.22869
 H785 H 0.22478 0.19275 0.33662
 H786 H 0.18612 0.14690 0.36034
 C787 C 0.40101 0.94160 0.86767
 C788 C 0.44770 0.95476 0.86219
 C789 C 0.46832 0.97344 0.89021
 C790 C 0.44322 0.97812 0.92460
 C791 C 0.39422 0.96730 0.92776
 C792 C 0.37350 0.94916 0.89962
 C793 C 0.38363 0.91711 0.84432
 C794 C 0.36760 0.89509 0.82830
 C795 C 0.34688 0.86773 0.81287
 C796 C 0.35637 0.85884 0.77563
 C797 C 0.33593 0.83199 0.76155
 C798 C 0.30513 0.81386 0.78434
 C799 C 0.29740 0.82264 0.82215
 C800 C 0.31770 0.84941 0.83610
 H801 H 0.46932 0.94922 0.83742
 H802 H 0.50543 0.98212 0.88614
 H803 H 0.37271 0.97091 0.95310
 H804 H 0.33717 0.93931 0.90409
 H805 H 0.37967 0.87255 0.75757
 H806 H 0.34470 0.82546 0.73295
 H807 H 0.27482 0.80916 0.84096
 H808 H 0.31057 0.85585 0.86515
 C809 C 0.14087 0.92797 0.59628
 C810 C 0.14388 0.92594 0.55692
 C811 C 0.11443 0.94428 0.53416
 C812 C 0.08124 0.96490 0.55048
 C813 C 0.08031 0.96764 0.59018
 C814 C 0.10977 0.94924 0.61286
 C815 C 0.16467 0.90582 0.61948
 C816 C 0.18157 0.88616 0.63895
 C817 C 0.19790 0.86170 0.66228
 C818 C 0.24667 0.85140 0.66068
 C819 C 0.26099 0.82653 0.68230
 C820 C 0.22685 0.81197 0.70625
 C821 C 0.17757 0.82217 0.70664
 C822 C 0.16344 0.84698 0.68520
 H823 H 0.16752 0.90933 0.54381
 H824 H 0.11649 0.94134 0.50382
 H825 H 0.05493 0.98278 0.60399
 H826 H 0.10667 0.95070 0.64337
 H827 H 0.27335 0.86224 0.64228
 H828 H 0.29845 0.81843 0.67950
 H829 H 0.14955 0.81093 0.72337
 H830 H 0.12531 0.85440 0.68606
 C831 C 0.64329 0.56673 0.40638
 C832 C 0.61367 0.54457 0.38945
 C833 C 0.58446 0.52560 0.41176
 C834 C 0.58404 0.52868 0.45147
 C835 C 0.61680 0.54968 0.46823
 C836 C 0.64599 0.56862 0.44582
 C837 C 0.66547 0.58989 0.38342
 C838 C 0.68130 0.61020 0.36426
 C839 C 0.69753 0.63525 0.34155
 C840 C 0.66314 0.65077 0.31937
 C841 C 0.67787 0.67589 0.29842
 C842 C 0.72758 0.68568 0.29873
 C843 C 0.76164 0.67021 0.32181
 C844 C 0.74678 0.64508 0.34282
 H845 H 0.61091 0.54307 0.35892
 H846 H 0.55936 0.51029 0.39750
 H847 H 0.61783 0.55290 0.49857
 H848 H 0.66866 0.58580 0.45925
 H849 H 0.62470 0.64365 0.31862
 H850 H 0.65013 0.68765 0.28203
 H851 H 0.79961 0.67774 0.32438
 H852 H 0.77354 0.63360 0.36048
 C853 C 0.37500 0.07741 0.09997
 C854 C 0.42308 0.08594 0.09013
 C855 C 0.45212 0.06694 0.06832
 C856 C 0.43382 0.03875 0.05627
 C857 C 0.38531 0.03030 0.06650
 C858 C 0.35610 0.04951 0.08835
 C859 C 0.34596 0.09799 0.12174
 C860 C 0.32569 0.11700 0.14018
 C861 C 0.30709 0.14134 0.16254
 C862 C 0.34058 0.15760 0.18481
 C863 C 0.32487 0.18256 0.20511
 C864 C 0.27490 0.19145 0.20425
 C865 C 0.24158 0.17531 0.18100
 C866 C 0.25756 0.15025 0.16041
 H867 H 0.43804 0.10752 0.09905
 H868 H 0.48898 0.07454 0.06089
 H869 H 0.36937 0.00924 0.05703
 H870 H 0.31875 0.04279 0.09574
 H871 H 0.37924 0.15126 0.18603
 H872 H 0.35223 0.19486 0.22149
 H873 H 0.20354 0.18232 0.17798
 H874 H 0.23161 0.13820 0.14242
 C875 C 0.84908 0.43473 0.90538
 C876 C 0.87932 0.45578 0.88707
 C877 C 0.91020 0.47484 0.90813
 C878 C 0.91174 0.47287 0.94791
 C879 C 0.87823 0.45317 0.96601
 C880 C 0.84736 0.43418 0.94487
 C881 C 0.82626 0.41080 0.88401
 C882 C 0.81075 0.38959 0.86618
 C883 C 0.79638 0.36338 0.84479
 C884 C 0.83284 0.34706 0.82596
 C885 C 0.82018 0.32132 0.80542
 C886 C 0.77050 0.31170 0.80266
 C887 C 0.73431 0.32766 0.82294
 C888 C 0.74712 0.35349 0.84362
 H889 H 0.88134 0.45619 0.85646
 H890 H 0.93557 0.48933 0.89297
 H891 H 0.87781 0.45092 0.99649
 H892 H 0.82430 0.41785 0.95937
 H893 H 0.87126 0.35420 0.82721
 H894 H 0.84948 0.30922 0.79132
 H895 H 0.69620 0.32016 0.82326
 H896 H 0.71873 0.36559 0.85882
 C897 C 0.55907 0.08633 0.88101
 C898 C 0.59479 0.07284 0.90400
 C899 C 0.58211 0.04874 0.92737
 C900 C 0.53328 0.03737 0.92815
 C901 C 0.49825 0.04989 0.90306
 C902 C 0.51106 0.07426 0.87972
 C903 C 0.57248 0.11309 0.86015
 C904 C 0.58786 0.13497 0.84352
 C905 C 0.61174 0.15932 0.82348
 C906 C 0.60344 0.18971 0.83233
 C907 C 0.63190 0.21249 0.81502
 C908 C 0.66928 0.20509 0.78894
 C909 C 0.67628 0.17436 0.78028
 C910 C 0.64782 0.15195 0.79709
 H911 H 0.63216 0.08184 0.90511
 H912 H 0.61014 0.04056 0.94662
 H913 H 0.46018 0.04212 0.90309
 H914 H 0.48310 0.08436 0.86181
 H915 H 0.57596 0.19573 0.85320
 H916 H 0.62552 0.23572 0.82280
 H917 H 0.70528 0.16703 0.76159
 H918 H 0.65536 0.12859 0.79043
 C919 C 0.43942 0.58878 0.61820
 C920 C 0.48959 0.58164 0.61429
 C921 C 0.50384 0.55724 0.59161
 C922 C 0.46807 0.53966 0.57234
 C923 C 0.41767 0.54622 0.57825
 C924 C 0.40361 0.57043 0.60097
 C925 C 0.42376 0.61532 0.63860
 C926 C 0.40713 0.63679 0.65529
 C927 C 0.38261 0.66060 0.67579
 C928 C 0.39130 0.69123 0.66825
 C929 C 0.36350 0.71352 0.68681
 C930 C 0.32644 0.70545 0.71297
 C931 C 0.31888 0.67448 0.72021
 C932 C 0.34658 0.65252 0.70205
 H933 H 0.51775 0.59552 0.62768
 H934 H 0.54296 0.55324 0.58764
 H935 H 0.38887 0.53362 0.56377
 H936 H 0.36462 0.57552 0.60395
 H937 H 0.41884 0.69785 0.64762
 H938 H 0.37040 0.73696 0.68014
 H939 H 0.29032 0.66670 0.73915
 H940 H 0.33886 0.62900 0.70786
 C941 C 0.06035 0.41326 0.11288
 C942 C 0.09607 0.43113 0.09502
 C943 C 0.08187 0.45523 0.07218
 C944 C 0.03146 0.46214 0.06682
 C945 C -0.00413 0.44501 0.08667
 C946 C 0.01025 0.42073 0.10947
 C947 C 0.07594 0.38687 0.13347
 C948 C 0.09246 0.36550 0.15038
 C949 C 0.11683 0.34184 0.17121
 C950 C 0.15200 0.35013 0.19824
 C951 C 0.17971 0.32834 0.21676
 C952 C 0.17295 0.29737 0.20908
 C953 C 0.13671 0.28908 0.18216
 C954 C 0.10892 0.31121 0.16323
 H955 H 0.13501 0.42574 0.09763
 H956 H 0.11050 0.46749 0.05723
 H957 H -0.04327 0.44923 0.08307
 H958 H -0.01779 0.40720 0.12335
 H959 H 0.15908 0.37369 0.20438
 H960 H 0.20765 0.33626 0.23632
 H961 H 0.13047 0.26563 0.17517
 H962 H 0.08204 0.30447 0.14200
 C963 C 0.94345 0.91590 0.37510
 C964 C 0.90865 0.93533 0.39084
 C965 C 0.92385 0.95888 0.41443
 C966 C 0.97430 0.96365 0.42283
 C967 C 1.00936 0.94551 0.40419
 C968 C 0.99399 0.92166 0.38073
 C969 C 0.92633 0.88854 0.35700
 C970 C 0.90923 0.86563 0.34367
 C971 C 0.88580 0.83866 0.32904
 C972 C 0.90173 0.82562 0.29520
 C973 C 0.87545 0.80139 0.27934
 C974 C 0.83215 0.79021 0.29662
 C975 C 0.81875 0.80206 0.33212
 C976 C 0.84505 0.82624 0.34794
 H977 H 0.86940 0.93116 0.38680
 H978 H 0.89549 0.97161 0.42837
 H979 H 1.04856 0.94829 0.40971
 H980 H 1.02143 0.90684 0.36865
 H981 H 0.93368 0.83466 0.28054
 H982 H 0.88846 0.79207 0.25304
 H983 H 0.78622 0.79386 0.34674
 H984 H 0.83251 0.83592 0.37434
 C985 C 0.86676 0.59212 0.56748
 C986 C 0.87083 0.59070 0.52805
 C987 C 0.90158 0.56912 0.51146
 C988 C 0.92893 0.54924 0.53431
 C989 C 0.92364 0.55093 0.57391
 C990 C 0.89295 0.57212 0.59018
 C991 C 0.83972 0.61525 0.58626
 C992 C 0.82160 0.63399 0.60625
 C993 C 0.80588 0.65567 0.63351
 C994 C 0.84211 0.67090 0.65444
 C995 C 0.82852 0.69132 0.68227
 C996 C 0.77824 0.69675 0.68987
 C997 C 0.74195 0.68092 0.66893
 C998 C 0.75577 0.66035 0.64099
 H999 H 0.85082 0.60637 0.51029
 H1000 H 0.90391 0.56809 0.48099
 H1001 H 0.94381 0.53627 0.59282
 H1002 H 0.89046 0.57331 0.62076
 H1003 H 0.88107 0.66702 0.64918
 H1004 H 0.85764 0.70307 0.69750
 H1005 H 0.70295 0.68487 0.67330
 H1006 H 0.72751 0.64832 0.62513
 C1007 C 0.63329 0.41040 0.07719
 C1008 C 0.62676 0.40785 0.03801
 C1009 C 0.59798 0.42900 0.01865
 C1010 C 0.57489 0.45251 0.03847
 C1011 C 0.58311 0.45507 0.07777
 C1012 C 0.61197 0.43421 0.09682
 C1013 C 0.65716 0.38737 0.09870
 C1014 C 0.67339 0.36848 0.11953
 C1015 C 0.68799 0.34622 0.14653
 C1016 C 0.73782 0.33934 0.15249
 C1017 C 0.75080 0.31740 0.17901
 C1018 C 0.71401 0.30231 0.20003
 C1019 C 0.66406 0.30984 0.19388
 C1020 C 0.65128 0.33170 0.16752
 H1021 H 0.64293 0.38926 0.02264
 H1022 H 0.59322 0.42659 -0.01154
 H1023 H 0.56632 0.47270 0.09438
 H1024 H 0.61641 0.43616 0.12722
 H1025 H 0.76648 0.35060 0.13635
 H1026 H 0.78947 0.31177 0.18207
 H1027 H 0.63454 0.29862 0.20908
 H1028 H 0.61258 0.33707 0.16322
 C1029 C 0.37245 0.91085 0.41995
 C1030 C 0.40222 0.93065 0.39939
 C1031 C 0.43234 0.95135 0.41808
 C1032 C 0.43348 0.95259 0.45792
 C1033 C 0.40259 0.93292 0.47844
 C1034 C 0.37243 0.91198 0.45951
 C1035 C 0.34561 0.88810 0.39957
 C1036 C 0.32730 0.86905 0.37972
 C1037 C 0.31115 0.84628 0.35366
 C1038 C 0.34701 0.83118 0.33277
 C1039 C 0.33314 0.80906 0.30695
 C1040 C 0.28283 0.80180 0.30111
 C1041 C 0.24686 0.81720 0.32232
 C1042 C 0.26098 0.83946 0.34835
 H1043 H 0.40289 0.92971 0.36875
 H1044 H 0.45534 0.96600 0.40103
 H1045 H 0.40166 0.93360 0.50898
 H1046 H 0.34965 0.89653 0.47566
 H1047 H 0.38597 0.83641 0.33660
 H1048 H 0.36214 0.79762 0.29167
 H1049 H 0.20799 0.81168 0.31958
 H1050 H 0.23295 0.85110 0.36449
 C1051 C 0.13087 0.09038 0.92462
 C1052 C 0.10647 0.06761 0.90465
 C1053 C 0.07655 0.04707 0.92354
 C1054 C 0.07031 0.04884 0.96307
 C1055 C 0.09582 0.07154 0.98317
 C1056 C 0.12575 0.09236 0.96396
 C1057 C 0.15704 0.11282 0.90335
 C1058 C 0.17505 0.13123 0.88252
 C1059 C 0.19116 0.15300 0.85521
 C1060 C 0.15534 0.16726 0.83317
 C1061 C 0.16920 0.18867 0.80653
 C1062 C 0.21946 0.19610 0.80103
 C1063 C 0.25545 0.18124 0.82303
 C1064 C 0.24133 0.15971 0.84990
 H1065 H 0.10968 0.06612 0.87414
 H1066 H 0.05769 0.03017 0.90670
 H1067 H 0.09237 0.07341 1.01352
 H1068 H 0.14419 0.11018 0.97963
 H1069 H 0.11640 0.16205 0.83690
 H1070 H 0.14020 0.19967 0.79059
 H1071 H 0.29431 0.18678 0.82038
 H1072 H 0.26937 0.14865 0.86681
 C1073 C 0.09286 0.91811 0.11758
 C1074 C 0.05765 0.90703 0.09201
 C1075 C 0.03713 0.92595 0.06477
 C1076 C 0.05137 0.95648 0.06246
 C1077 C 0.08673 0.96746 0.08857
 C1078 C 0.10742 0.94837 0.11583
 C1079 C 0.11623 0.89758 0.14348
 C1080 C 0.13628 0.87893 0.16290
 C1081 C 0.16136 0.85510 0.18262
 C1082 C 0.19694 0.83869 0.16309
 C1083 C 0.21932 0.81395 0.17995
 C1084 C 0.20730 0.80525 0.21721
 C1085 C 0.17141 0.82198 0.23680
 C1086 C 0.14860 0.84681 0.21959
 H1087 H 0.04651 0.88356 0.09275
 H1088 H 0.01041 0.91636 0.04532
 H1089 H 0.09867 0.99076 0.08799
 H1090 H 0.13509 0.95714 0.13526
 H1091 H 0.20674 0.84464 0.13432
 H1092 H 0.24606 0.80161 0.16343
 H1093 H 0.15997 0.81554 0.26493
 H1094 H 0.12045 0.85911 0.23479
 C1095 C 0.90551 0.41593 0.38689
 C1096 C 0.95534 0.42413 0.38374
 C1097 C 0.97701 0.44320 0.41067
 C1098 C 0.94958 0.45368 0.44187
 C1099 C 0.89884 0.44639 0.44358
 C1100 C 0.87720 0.42740 0.41659
 C1101 C 0.88355 0.39476 0.36087
 C1102 C 0.86372 0.37613 0.34105
 C1103 C 0.83799 0.35276 0.32060
 C1104 C 0.85051 0.34510 0.28338
 C1105 C 0.82638 0.32100 0.26521
 C1106 C 0.78934 0.30440 0.28406
 C1107 C 0.77746 0.31252 0.32153
 C1108 C 0.80120 0.33653 0.33937
 H1109 H 0.97753 0.41567 0.36063
 H1110 H 1.01537 0.44962 0.40692
 H1111 H 0.87545 0.45551 0.46547
 H1112 H 0.83834 0.42154 0.41901
 H1113 H 0.87943 0.35735 0.26872
 H1114 H 0.83772 0.31496 0.23693
 H1115 H 0.74992 0.30020 0.33751
 H1116 H 0.79143 0.34208 0.36825
 C1117 C 0.40974 0.08356 0.61262
 C1118 C 0.44413 0.09501 0.58685
 C1119 C 0.46423 0.07639 0.55912
 C1120 C 0.45033 0.04581 0.55651
 C1121 C 0.41555 0.03453 0.58266
 C1122 C 0.39535 0.05329 0.61040
 C1123 C 0.38703 0.10363 0.63939
 C1124 C 0.36720 0.12176 0.65967
 C1125 C 0.34188 0.14497 0.68035
 C1126 C 0.30606 0.16165 0.66131
 C1127 C 0.28323 0.18577 0.67906
 C1128 C 0.29504 0.19364 0.71675
 C1129 C 0.33095 0.17653 0.73596
 C1130 C 0.35426 0.15230 0.71783
 H1131 H 0.45513 0.11850 0.58794
 H1132 H 0.49061 0.08618 0.53972
 H1133 H 0.40388 0.01119 0.58192
 H1134 H 0.36829 0.04423 0.62994
 H1135 H 0.29641 0.15639 0.63224
 H1136 H 0.25634 0.19834 0.66283
 H1137 H 0.34196 0.18224 0.76452
 H1138 H 0.38246 0.13971 0.73273
 C1139 C 0.59215 0.58064 0.88033
 C1140 C 0.55897 0.59237 0.90667
 C1141 C 0.53972 0.57406 0.93516
 C1142 C 0.55331 0.54356 0.93791
 C1143 C 0.58677 0.53199 0.91111
 C1144 C 0.60611 0.55043 0.88263
 C1145 C 0.61444 0.60039 0.85295
 C1146 C 0.63422 0.61827 0.83221
 C1147 C 0.65962 0.64126 0.81109
 C1148 C 0.64506 0.64932 0.77438
 C1149 C 0.66782 0.67385 0.75624
 C1150 C 0.70535 0.69051 0.77468
 C1151 C 0.71951 0.68180 0.81153
 C1152 C 0.69726 0.65734 0.82926
 H1153 H 0.54835 0.61584 0.90545
 H1154 H 0.51418 0.58399 0.95498
 H1155 H 0.59812 0.50868 0.91193
 H1156 H 0.63226 0.54119 0.86263
 H1157 H 0.61536 0.63722 0.76025
 H1158 H 0.65479 0.68030 0.72847
 H1159 H 0.74730 0.69421 0.82733
 H1160 H 0.70847 0.65155 0.85781
 C1161 C 0.44720 0.38788 0.92002
 C1162 C 0.49463 0.39981 0.91448
 C1163 C 0.51250 0.42270 0.93812
 C1164 C 0.48310 0.43408 0.96774
 C1165 C 0.43674 0.42036 0.97445
 C1166 C 0.41907 0.39745 0.95083
 C1167 C 0.42507 0.36848 0.89196
 C1168 C 0.40488 0.35306 0.86835
 C1169 C 0.37911 0.33482 0.84085
 C1170 C 0.34458 0.34776 0.81621
 C1171 C 0.31591 0.32953 0.79225
 C1172 C 0.32089 0.29797 0.79287
 C1173 C 0.35767 0.28550 0.81658
 C1174 C 0.38628 0.30375 0.84035
 H1175 H 0.51666 0.39266 0.89059
 H1176 H 0.54775 0.43294 0.93118
 H1177 H 0.41226 0.42882 0.99610
 H1178 H 0.38215 0.38847 0.95529
 H1179 H 0.33879 0.37188 0.81629
 H1180 H 0.28866 0.34019 0.77433
 H1181 H 0.36362 0.26148 0.81799
 H1182 H 0.41301 0.29347 0.85920
 C1183 C 0.94333 0.11176 0.08243
 C1184 C 0.99108 0.10048 0.08786
 C1185 C 1.00906 0.07782 0.06413
 C1186 C 0.97941 0.06599 0.03464
 C1187 C 0.93266 0.07904 0.02814
 C1188 C 0.91495 0.10174 0.05173
 C1189 C 0.92105 0.13106 0.11030
 C1190 C 0.90027 0.14637 0.13348
 C1191 C 0.87353 0.16443 0.16034
 C1192 C 0.88061 0.19557 0.16108
 C1193 C 0.85137 0.21355 0.18433
 C1194 C 0.81404 0.20076 0.20729
 C1195 C 0.80887 0.16916 0.20749
 C1196 C 0.83818 0.15120 0.18407
 H1197 H 1.01334 0.10799 0.11166
 H1198 H 1.04467 0.06810 0.07083
 H1199 H 0.90791 0.07023 0.00664
 H1200 H 0.87782 0.11019 0.04733
 H1201 H 0.90789 0.20609 0.14290
 H1202 H 0.85745 0.23762 0.18324
 H1203 H 0.78129 0.15824 0.22489
 H1204 H 0.83238 0.12704 0.18379
 C1205 C 0.55184 0.88818 0.57682
 C1206 C 0.58358 0.89925 0.54890
 C1207 C 0.56889 0.92315 0.52595
 C1208 C 0.52188 0.93630 0.53029
 C1209 C 0.48923 0.92376 0.55716
 C1210 C 0.50415 0.89989 0.58022
 C1211 C 0.57060 0.86743 0.60450
 C1212 C 0.58878 0.85110 0.62788
 C1213 C 0.61329 0.83236 0.65521
 C1214 C 0.60817 0.80110 0.65335
 C1215 C 0.63702 0.78276 0.67659
 C1216 C 0.67192 0.79539 0.70200
 C1217 C 0.67463 0.82699 0.70493
 C1218 C 0.64573 0.84528 0.68162
 H1219 H 0.62078 0.89052 0.54624
 H1220 H 0.59572 0.93247 0.50647
 H1221 H 0.45337 0.93358 0.56237
 H1222 H 0.47943 0.89167 0.60201
 H1223 H 0.58317 0.79084 0.63298
 H1224 H 0.63310 0.75865 0.67331
 H1225 H 0.70078 0.83780 0.72385
 H1226 H 0.65011 0.86952 0.68322
 C1227 C 0.06089 0.60794 0.41823
 C1228 C 0.01300 0.59653 0.41321
 C1229 C -0.00489 0.57390 0.43703
 C1230 C 0.02489 0.56230 0.46641
 C1231 C 0.07205 0.57525 0.47242
 C1232 C 0.08981 0.59790 0.44855
 C1233 C 0.08213 0.62768 0.39032
 C1234 C 0.10114 0.64350 0.36670
 C1235 C 0.12531 0.66224 0.33909
 C1236 C 0.11810 0.69331 0.33968
 C1237 C 0.14554 0.71199 0.31581
 C1238 C 0.18111 0.69993 0.29093
 C1239 C 0.18590 0.66838 0.28915
 C1240 C 0.15843 0.64973 0.31319
 H1241 H -0.00962 0.60403 0.38969
 H1242 H -0.04075 0.56421 0.43058
 H1243 H 0.09658 0.56668 0.49410
 H1244 H 0.12708 0.60651 0.45261
 H1245 H 0.09241 0.70325 0.35950
 H1246 H 0.13989 0.73600 0.31817
 H1247 H 0.21243 0.65803 0.27046
 H1248 H 0.16424 0.62562 0.31242
   
