data_POSCAR
  _audit_creation_date              2014-09-24
  _audit_creation_method            'ToBaCCo'
  _symmetry_space_group_name_H-M    'P1'
  _symmetry_Int_Tables_number       1
  _symmetry_cell_setting            triclinic
  loop_
  _symmetry_equiv_pos_as_xyz
 x,y,z
_cell_length_a 48.1753
_cell_length_b 48.1757
_cell_length_c 36.2786
_cell_angle_alpha 90.043500
_cell_angle_beta 90.025300
_cell_angle_gamma 89.986700
loop_
  _atom_site_label
  _atom_site_type_symbol
  _atom_site_fract_x
  _atom_site_fract_y
  _atom_site_fract_z
Zr1 Zr -0.04883 0.00300 -0.00352
 O2 O -0.08012 -0.01844 -0.03310
 O3 O -0.07237 0.02798 0.03208
 O4 O -0.07179 -0.02374 0.03099
 O5 O -0.03824 0.05307 -0.07054
 O6 O -0.03862 -0.04902 0.06097
 O7 O -0.07157 0.02970 -0.03821
 O8 O -0.03951 0.05015 0.06667
 O9 O -0.02571 0.00119 0.04531
 O10 O -0.02502 0.03926 -0.00194
 O11 O -0.02526 -0.03363 -0.00746
 O12 O -0.02543 0.00304 -0.05277
 Zr13 Zr 0.04800 0.00138 -0.00517
 Zr14 Zr -0.00064 -0.03413 0.04014
 Zr15 Zr -0.00025 0.03850 -0.04900
 Zr16 Zr -0.00097 0.03673 0.04545
 O17 O 0.00087 0.03656 -0.10724
 O18 O -0.00083 0.02797 0.10272
 O19 O 0.02467 0.03838 -0.00144
 O20 O 0.02428 0.00141 0.04352
 O21 O 0.02450 -0.03515 -0.00687
 O22 O 0.02454 0.00317 -0.05363
 C23 C -0.06477 0.04482 0.05762
 C24 C -0.06364 0.04746 -0.06248
 C25 C -0.06397 -0.04263 0.05380
 O26 O 0.00122 -0.03231 0.09836
 O27 O 0.03718 -0.05159 0.05781
 O28 O 0.07063 -0.02714 0.02722
 C29 C 0.06258 -0.04610 0.04979
 O30 O -0.03690 -0.04628 -0.08020
 Zr31 Zr 0.00012 -0.03235 -0.05422
 O32 O 0.07153 -0.02408 -0.04014
 O33 O -0.00265 -0.07768 0.03306
 O34 O -0.00147 -0.07608 -0.04782
 O35 O 0.00280 -0.02550 -0.11185
 O36 O 0.03861 -0.04867 -0.07160
 C37 C 0.06387 -0.04281 -0.06319
 O38 O 0.07925 0.02162 0.02590
 O39 O -0.00119 0.08213 -0.04230
 O40 O 0.07100 0.02968 -0.03744
 O41 O 0.03778 0.05592 -0.06592
 O42 O -0.00218 0.08061 0.04102
 O43 O 0.03603 0.05430 0.06726
 C44 C 0.06315 0.04956 -0.05875
 H45 H -0.03632 0.05641 -0.00154
 H46 H 0.03633 0.00099 0.06562
 H47 H 0.03614 0.00405 -0.07612
 H48 H -0.03739 -0.05017 -0.00891
 H49 H -0.00584 0.04533 0.11579
 H50 H 0.00032 -0.05172 0.10732
 H51 H -0.00191 -0.08602 0.05801
 H52 H 0.00346 -0.08450 -0.07188
 H53 H -0.00672 0.08813 0.06573
 H54 H -0.00181 0.09027 -0.06736
 H55 H 0.00158 0.05598 -0.11619
 H56 H 0.00736 -0.04353 -0.12355
 H57 H 0.03146 0.06580 0.08907
 H58 H 0.09743 0.01500 0.01651
 H59 H -0.09831 -0.01176 -0.02382
 H60 H -0.03241 -0.06126 -0.09792
 Zr61 Zr 0.54799 0.50139 0.49491
 O62 O 0.57919 0.52176 0.52593
 O63 O 0.57157 0.47580 0.46019
 O64 O 0.57057 0.47301 0.52759
 O65 O 0.53789 0.55567 0.43372
 O66 O 0.53706 0.44870 0.55828
 O67 O 0.57105 0.52954 0.46250
 O68 O 0.53871 0.45110 0.42878
 O69 O 0.52450 0.46486 0.49342
 O70 O 0.52461 0.50298 0.44637
 O71 O 0.52419 0.50163 0.54353
 O72 O 0.52467 0.53841 0.49829
 Zr73 Zr 0.45116 0.50302 0.49627
 Zr74 Zr 0.49927 0.46608 0.54035
 Zr75 Zr 0.49983 0.53834 0.45067
 Zr76 Zr 0.50019 0.46745 0.44598
 O77 O 0.49887 0.58199 0.45706
 O78 O 0.49863 0.42376 0.45271
 O79 O 0.47465 0.50286 0.44709
 O80 O 0.47474 0.46638 0.49268
 O81 O 0.47420 0.50142 0.54517
 O82 O 0.47497 0.53929 0.49764
 C83 C 0.56395 0.45700 0.43721
 C84 C 0.56325 0.54933 0.44101
 C85 C 0.56248 0.45415 0.55030
 O86 O 0.49728 0.42249 0.53359
 O87 O 0.46125 0.45127 0.56117
 O88 O 0.42814 0.47644 0.53090
 C89 C 0.43592 0.45764 0.55387
 O90 O 0.53591 0.55464 0.56687
 Zr91 Zr 0.49894 0.53696 0.54512
 O92 O 0.42756 0.52814 0.53163
 O93 O 0.50103 0.46815 0.59856
 O94 O 0.49902 0.52846 0.60246
 O95 O 0.49771 0.58082 0.54035
 O96 O 0.46037 0.55043 0.56617
 C97 C 0.43513 0.54506 0.55710
 O98 O 0.41992 0.48146 0.46676
 O99 O 0.50105 0.53617 0.39244
 O100 O 0.42848 0.52956 0.46128
 O101 O 0.46187 0.55279 0.42887
 O102 O 0.50293 0.47407 0.38831
 O103 O 0.46321 0.45341 0.42002
 C104 C 0.43645 0.54720 0.43688
 H105 H 0.53624 0.50377 0.42391
 H106 H 0.46260 0.44983 0.49131
 H107 H 0.46366 0.55644 0.49788
 H108 H 0.53621 0.50130 0.56567
 H109 H 0.50360 0.41524 0.42873
 H110 H 0.49798 0.41427 0.55860
 H111 H 0.50011 0.44878 0.60767
 H112 H 0.49400 0.54588 0.61538
 H113 H 0.50750 0.45599 0.37675
 H114 H 0.50177 0.55555 0.38335
 H115 H 0.49829 0.59003 0.43193
 H116 H 0.49312 0.58844 0.56500
 H117 H 0.46773 0.43833 0.40245
 H118 H 0.40172 0.48818 0.47593
 H119 H 0.59739 0.51510 0.51665
 H120 H 0.53131 0.56625 0.58856
 Zr121 Zr 0.54873 -0.00334 0.49792
 O122 O 0.58025 0.01788 0.46860
 O123 O 0.57203 -0.02853 0.53360
 O124 O 0.57172 0.02340 0.53255
 O125 O 0.53799 -0.05334 0.43064
 O126 O 0.53858 0.04886 0.56232
 O127 O 0.57139 -0.03017 0.46319
 O128 O 0.53895 -0.05058 0.56786
 O129 O 0.52549 -0.00140 0.54662
 O130 O 0.52469 -0.03946 0.49925
 O131 O 0.52532 0.03339 0.49389
 O132 O 0.52542 -0.00324 0.44854
 Zr133 Zr 0.45182 -0.00117 0.49568
 Zr134 Zr 0.50058 0.03405 0.54135
 Zr135 Zr 0.50002 -0.03856 0.45207
 Zr136 Zr 0.50054 -0.03680 0.54652
 O137 O 0.49905 -0.03659 0.39382
 O138 O 0.50040 -0.02801 0.60380
 O139 O 0.47498 -0.03829 0.49949
 O140 O 0.47546 -0.00136 0.54450
 O141 O 0.47555 0.03522 0.49421
 O142 O 0.47541 -0.00310 0.44736
 C143 C 0.56427 -0.04541 0.55898
 C144 C 0.56342 -0.04787 0.43880
 C145 C 0.56392 0.04240 0.55527
 O146 O 0.49861 0.03221 0.59955
 O147 O 0.46282 0.05173 0.55891
 O148 O 0.42928 0.02750 0.52807
 C149 C 0.43739 0.04642 0.55074
 O150 O 0.53719 0.04600 0.42122
 Zr151 Zr 0.50003 0.03228 0.44699
 O152 O 0.42854 0.02447 0.46063
 O153 O 0.50279 0.07760 0.53435
 O154 O 0.50188 0.07600 0.45349
 O155 O 0.49745 0.02540 0.38934
 O156 O 0.46168 0.04888 0.42943
 C157 C 0.43636 0.04318 0.43767
 O158 O 0.42036 -0.02122 0.52652
 O159 O 0.50072 -0.08220 0.45868
 O160 O 0.42877 -0.02942 0.46323
 O161 O 0.46195 -0.05582 0.43491
 O162 O 0.50140 -0.08069 0.54192
 O163 O 0.46341 -0.05413 0.56821
 C164 C 0.43658 -0.04936 0.44194
 H165 H 0.53589 -0.05668 0.49965
 H166 H 0.46336 -0.00086 0.56654
 H167 H 0.46386 -0.00392 0.42481
 H168 H 0.53753 0.04988 0.49251
 H169 H 0.50528 -0.04540 0.61687
 H170 H 0.49959 0.05161 0.60858
 H171 H 0.50202 0.08595 0.55930
 H172 H 0.49707 0.08445 0.42942
 H173 H 0.50586 -0.08827 0.56662
 H174 H 0.50138 -0.09034 0.43360
 H175 H 0.49825 -0.05599 0.38482
 H176 H 0.49300 0.04344 0.37763
 H177 H 0.46788 -0.06564 0.59001
 H178 H 0.40225 -0.01448 0.51702
 H179 H 0.59837 0.01107 0.47799
 H180 H 0.53281 0.06097 0.40346
 Zr181 Zr -0.04824 0.49891 -0.00788
 O182 O -0.07974 0.47888 0.02292
 O183 O -0.07152 0.52471 -0.04275
 O184 O -0.07069 0.52752 0.02471
 O185 O -0.03830 0.44429 -0.06873
 O186 O -0.03707 0.55165 0.05552
 O187 O -0.07137 0.47071 -0.04032
 O188 O -0.03838 0.54912 -0.07386
 O189 O -0.02445 0.53525 -0.00930
 O190 O -0.02474 0.49700 -0.05627
 O191 O -0.02455 0.49860 0.04088
 O192 O -0.02515 0.46174 -0.00423
 Zr193 Zr 0.04866 0.49653 -0.00586
 Zr194 Zr 0.00064 0.53396 0.03778
 Zr195 Zr -0.00017 0.46149 -0.05170
 Zr196 Zr -0.00004 0.53233 -0.05659
 O197 O 0.00046 0.41783 -0.04527
 O198 O 0.00200 0.57604 -0.05003
 O199 O 0.02529 0.49676 -0.05519
 O200 O 0.02531 0.53332 -0.00974
 O201 O 0.02547 0.49845 0.04290
 O202 O 0.02455 0.46046 -0.00456
 C203 C -0.06373 0.54352 -0.06559
 C204 C -0.06366 0.45074 -0.06163
 C205 C -0.06252 0.54637 0.04744
 O206 O 0.00290 0.57751 0.03086
 O207 O 0.03869 0.54866 0.05870
 O208 O 0.07175 0.52318 0.02879
 C209 C 0.06402 0.54216 0.05159
 O210 O -0.03669 0.44580 0.06444
 Zr211 Zr 0.00046 0.46310 0.04276
 O212 O 0.07195 0.47127 0.02974
 O213 O -0.00123 0.53205 0.09598
 O214 O 0.00037 0.47180 0.10006
 O215 O 0.00125 0.41922 0.03804
 O216 O 0.03886 0.44925 0.06402
 C217 C 0.06418 0.45439 0.05512
 O218 O 0.08018 0.51772 -0.03522
 O219 O -0.00122 0.46358 -0.10993
 O220 O 0.07122 0.46966 -0.04064
 O221 O 0.03776 0.44664 -0.07319
 O222 O -0.00282 0.52555 -0.11424
 O223 O 0.03711 0.54596 -0.08247
 C224 C 0.06323 0.45197 -0.06504
 H225 H -0.03634 0.49624 -0.07878
 H226 H 0.03756 0.54979 -0.01110
 H227 H 0.03571 0.44322 -0.00421
 H228 H -0.03662 0.49907 0.06295
 H229 H -0.00284 0.58453 -0.07407
 H230 H 0.00219 0.58583 0.05583
 H231 H -0.00021 0.55143 0.10505
 H232 H 0.00522 0.45438 0.11307
 H233 H -0.00726 0.54362 -0.12587
 H234 H -0.00208 0.44419 -0.11900
 H235 H 0.00106 0.40974 -0.07038
 H236 H 0.00572 0.41160 0.06271
 H237 H 0.03273 0.56092 -0.10025
 H238 H 0.09829 0.51086 -0.02589
 H239 H -0.09784 0.48567 0.01346
 H240 H -0.03222 0.43424 0.08620
 Zr241 Zr 0.04909 0.50304 0.50329
 O242 O 0.08046 0.48154 0.53261
 O243 O 0.07254 0.52820 0.46786
 O244 O 0.07206 0.47647 0.46854
 O245 O 0.03844 0.55278 0.57082
 O246 O 0.03892 0.45125 0.43840
 O247 O 0.07179 0.52962 0.53821
 O248 O 0.03960 0.55043 0.43351
 O249 O 0.02593 0.50138 0.45449
 O250 O 0.02520 0.53927 0.50207
 O251 O 0.02560 0.46636 0.50695
 O252 O 0.02573 0.50284 0.55258
 Zr253 Zr -0.04773 0.50123 0.50509
 Zr254 Zr 0.00094 0.46600 0.45939
 Zr255 Zr 0.00047 0.53827 0.54916
 Zr256 Zr 0.00111 0.53688 0.45470
 O257 O -0.00063 0.53612 0.60739
 O258 O 0.00092 0.52835 0.39736
 O259 O -0.02449 0.53829 0.50165
 O260 O -0.02406 0.50151 0.45636
 O261 O -0.02416 0.46474 0.50643
 O262 O -0.02423 0.50288 0.55353
 C263 C 0.06488 0.54511 0.44246
 C264 C 0.06384 0.54724 0.56268
 C265 C 0.06425 0.45765 0.44560
 O266 O -0.00098 0.46805 0.40120
 O267 O -0.03685 0.44854 0.44164
 O268 O -0.07033 0.47280 0.47252
 C269 C -0.06225 0.45394 0.44977
 O270 O 0.03734 0.45341 0.57954
 Zr271 Zr 0.00026 0.46739 0.55377
 O272 O -0.07117 0.47562 0.53990
 O273 O 0.00305 0.42242 0.46606
 O274 O 0.00191 0.42370 0.54696
 O275 O -0.00234 0.47404 0.61146
 O276 O -0.03818 0.45097 0.57111
 C277 C -0.06346 0.45683 0.56281
 O278 O -0.07905 0.52152 0.47423
 O279 O 0.00134 0.58193 0.54286
 O280 O -0.07076 0.52936 0.53760
 O281 O -0.03758 0.55556 0.56625
 O282 O 0.00223 0.58074 0.45955
 O283 O -0.03595 0.55448 0.43312
 C284 C -0.06293 0.54918 0.55905
 H285 H 0.03647 0.55644 0.50182
 H286 H -0.03614 0.50115 0.43428
 H287 H -0.03581 0.50366 0.57604
 H288 H 0.03776 0.44983 0.50824
 H289 H 0.00587 0.54578 0.38443
 H290 H -0.00004 0.44868 0.39205
 H291 H 0.00230 0.41419 0.44104
 H292 H -0.00299 0.41518 0.57095
 H293 H 0.00675 0.58837 0.43490
 H294 H 0.00196 0.58997 0.56800
 H295 H -0.00136 0.55550 0.61651
 H296 H -0.00686 0.45596 0.62302
 H297 H -0.03143 0.56609 0.41143
 H298 H -0.09721 0.51484 0.48359
 H299 H 0.09862 0.48830 0.52337
 H300 H 0.03288 0.43835 0.59713
 Zr301 Zr 0.45231 0.00113 0.00496
 O302 O 0.42105 0.02140 -0.02602
 O303 O 0.42881 -0.02455 0.03962
 O304 O 0.42984 -0.02731 -0.02774
 O305 O 0.46223 0.05544 0.06622
 O306 O 0.46342 -0.05151 -0.05851
 O307 O 0.42916 0.02922 0.03738
 O308 O 0.46175 -0.04918 0.07094
 O309 O 0.47593 -0.03533 0.00637
 O310 O 0.47568 0.00277 0.05352
 O311 O 0.47611 0.00147 -0.04366
 O312 O 0.47551 0.03822 0.00167
 Zr313 Zr 0.54913 0.00305 0.00360
 Zr314 Zr 0.50114 -0.03401 -0.04056
 Zr315 Zr 0.50034 0.03820 0.04930
 Zr316 Zr 0.50021 -0.03268 0.05382
 O317 O 0.50118 0.08186 0.04307
 O318 O 0.50195 -0.07637 0.04699
 O319 O 0.52565 0.00280 0.05279
 O320 O 0.52567 -0.03365 0.00712
 O321 O 0.52611 0.00140 -0.04532
 O322 O 0.52519 0.03925 0.00233
 C323 C 0.43648 -0.04335 0.06253
 C324 C 0.43690 0.04904 0.05888
 C325 C 0.43799 -0.04614 -0.05047
 O326 O 0.50327 -0.07760 -0.03393
 O327 O 0.53920 -0.04875 -0.06134
 O328 O 0.57223 -0.02348 -0.03104
 C329 C 0.56451 -0.04233 -0.05400
 O330 O 0.46422 0.05440 -0.06695
 Zr331 Zr 0.50124 0.03687 -0.04516
 O332 O 0.57265 0.02831 -0.03165
 O333 O 0.49940 -0.03193 -0.09876
 O334 O 0.50128 0.02836 -0.10252
 O335 O 0.50223 0.08073 -0.04027
 O336 O 0.53977 0.05056 -0.06608
 C337 C 0.56503 0.04528 -0.05700
 O338 O 0.58045 -0.01842 0.03304
 O339 O 0.49909 0.03600 0.10752
 O340 O 0.57171 0.02963 0.03866
 O341 O 0.53825 0.05274 0.07115
 O342 O 0.49743 -0.02608 0.11151
 O343 O 0.53724 -0.04661 0.07976
 C344 C 0.56368 0.04723 0.06311
 H345 H 0.46403 0.00353 0.07597
 H346 H 0.53785 -0.05017 0.00846
 H347 H 0.53644 0.05644 0.00216
 H348 H 0.46409 0.00110 -0.06580
 H349 H 0.49701 -0.08491 0.07094
 H350 H 0.50259 -0.08582 -0.05897
 H351 H 0.50038 -0.05129 -0.10792
 H352 H 0.50624 0.04579 -0.11540
 H353 H 0.49291 -0.04417 0.12302
 H354 H 0.49831 0.05537 0.11666
 H355 H 0.50173 0.08988 0.06822
 H356 H 0.50680 0.08838 -0.06489
 H357 H 0.53277 -0.06169 0.09733
 H358 H 0.59863 -0.01162 0.02389
 H359 H 0.40287 0.01469 -0.01676
 H360 H 0.46878 0.06600 -0.08864
 Zr361 Zr 0.45108 0.49685 0.00373
 O362 O 0.41985 0.51827 0.03341
 O363 O 0.42749 0.47196 -0.03193
 O364 O 0.42809 0.52363 -0.03068
 O365 O 0.46173 0.44664 0.07058
 O366 O 0.46123 0.54893 -0.06065
 O367 O 0.42837 0.47009 0.03835
 O368 O 0.46030 0.44983 -0.06662
 O369 O 0.47415 0.49873 -0.04511
 O370 O 0.47489 0.46058 0.00202
 O371 O 0.47466 0.53346 0.00773
 O372 O 0.47453 0.49673 0.05296
 Zr373 Zr 0.54790 0.49844 0.00528
 Zr374 Zr 0.49923 0.53403 -0.03989
 Zr375 Zr 0.49971 0.46126 0.04906
 Zr376 Zr 0.49888 0.46317 -0.04539
 O377 O 0.50087 0.46311 0.10732
 O378 O 0.49896 0.47202 -0.10263
 O379 O 0.52457 0.46145 0.00148
 O380 O 0.52414 0.49848 -0.04339
 O381 O 0.52441 0.53497 0.00711
 O382 O 0.52449 0.49658 0.05376
 C383 C 0.43505 0.45517 -0.05753
 C384 C 0.43632 0.45227 0.06255
 C385 C 0.43590 0.54254 -0.05346
 O386 O 0.50105 0.53230 -0.09811
 O387 O 0.53703 0.55153 -0.05753
 O388 O 0.57051 0.52700 -0.02703
 C389 C 0.56245 0.54602 -0.04953
 O390 O 0.46308 0.54600 0.08052
 Zr391 Zr 0.50008 0.53211 0.05447
 O392 O 0.57147 0.52385 0.04028
 O393 O 0.49720 0.57757 -0.03269
 O394 O 0.49846 0.57585 0.04820
 O395 O 0.50285 0.52518 0.11208
 O396 O 0.53859 0.54841 0.07183
 C397 C 0.56384 0.54256 0.06338
 O398 O 0.57911 0.47821 -0.02586
 O399 O 0.49880 0.41764 0.04225
 O400 O 0.57094 0.47012 0.03747
 O401 O 0.53777 0.44384 0.06592
 O402 O 0.49766 0.41929 -0.04108
 O403 O 0.53585 0.44561 -0.06726
 C404 C 0.56312 0.45023 0.05875
 H405 H 0.46358 0.44343 0.00158
 H406 H 0.53617 0.49893 -0.06550
 H407 H 0.53612 0.49567 0.07624
 H408 H 0.46253 0.55001 0.00923
 H409 H 0.49394 0.45468 -0.11574
 H410 H 0.50012 0.55172 -0.10702
 H411 H 0.49792 0.58594 -0.05762
 H412 H 0.50342 0.58422 0.07228
 H413 H 0.49308 0.41182 -0.06581
 H414 H 0.49820 0.40946 0.06730
 H415 H 0.50160 0.44368 0.11621
 H416 H 0.50741 0.54319 0.12381
 H417 H 0.53126 0.43415 -0.08910
 H418 H 0.59730 0.48482 -0.01649
 H419 H 0.40164 0.51161 0.02414
 H420 H 0.46759 0.56094 0.09830
 Zr421 Zr 0.04791 -0.00132 0.50535
 O422 O 0.07918 -0.02150 0.47425
 O423 O 0.07140 0.02423 0.54024
 O424 O 0.07039 0.02724 0.47287
 O425 O 0.03797 -0.05585 0.56616
 O426 O 0.03681 0.05155 0.44229
 O427 O 0.07105 -0.02953 0.53759
 O428 O 0.03845 0.04874 0.57173
 O429 O 0.02429 0.03513 0.50705
 O430 O 0.02453 -0.00316 0.55385
 O431 O 0.02411 -0.00149 0.45669
 O432 O 0.02470 -0.03840 0.50172
 Zr433 Zr -0.04892 -0.00326 0.50388
 Zr434 Zr -0.00092 0.03398 0.46008
 Zr435 Zr -0.00015 -0.03857 0.54932
 Zr436 Zr -0.00001 0.03229 0.55444
 O437 O -0.00094 -0.08221 0.54269
 O438 O -0.00177 0.07600 0.54800
 O439 O -0.02545 -0.00319 0.55309
 O440 O -0.02546 0.03344 0.50772
 O441 O -0.02588 -0.00142 0.45501
 O442 O -0.02499 -0.03945 0.50230
 C443 C 0.06372 0.04296 0.56329
 C444 C 0.06330 -0.04941 0.55893
 C445 C 0.06225 0.04616 0.45027
 O446 O -0.00307 0.07753 0.46711
 O447 O -0.03898 0.04873 0.43932
 O448 O -0.07202 0.02338 0.46939
 C449 C -0.06428 0.04228 0.44656
 O450 O 0.03600 -0.05437 0.43303
 Zr451 Zr -0.00102 -0.03688 0.45487
 O452 O -0.07243 -0.02834 0.46834
 O453 O 0.00085 0.03213 0.40186
 O454 O -0.00102 -0.02816 0.39759
 O455 O -0.00206 -0.08076 0.45936
 O456 O -0.03955 -0.05043 0.43372
 C457 C -0.06481 -0.04517 0.44281
 O458 O -0.08023 0.01810 0.53348
 O459 O 0.00107 -0.03659 0.60756
 O460 O -0.07152 -0.03001 0.53866
 O461 O -0.03806 -0.05325 0.57097
 O462 O 0.00279 0.02547 0.61207
 O463 O -0.03704 0.04612 0.58045
 C464 C -0.06350 -0.04772 0.56295
 H465 H 0.03617 -0.00399 0.57632
 H466 H -0.03765 0.04995 0.50917
 H467 H -0.03623 -0.05664 0.50195
 H468 H 0.03613 -0.00104 0.43457
 H469 H 0.00317 0.08445 0.57204
 H470 H -0.00240 0.08585 0.44215
 H471 H -0.00015 0.05152 0.39287
 H472 H -0.00598 -0.04555 0.38455
 H473 H 0.00731 0.04352 0.62374
 H474 H 0.00187 -0.05599 0.61653
 H475 H -0.00149 -0.09033 0.56776
 H476 H -0.00663 -0.08831 0.43466
 H477 H -0.03257 0.06111 0.59818
 H478 H -0.09842 0.01136 0.52425
 H479 H 0.09735 -0.01481 0.48360
 H480 H 0.03144 -0.06587 0.41123
 Zr481 Zr 0.75319 0.20111 0.25391
 O482 O 0.73173 0.16991 0.28354
 O483 O 0.77826 0.17746 0.21855
 O484 O 0.72657 0.17799 0.21941
 O485 O 0.80310 0.21201 0.32114
 O486 O 0.70129 0.21101 0.18914
 O487 O 0.77983 0.17854 0.28885
 O488 O 0.80043 0.21022 0.18388
 O489 O 0.75143 0.22404 0.20495
 O490 O 0.78942 0.22496 0.25237
 O491 O 0.71652 0.22464 0.25756
 O492 O 0.75311 0.22468 0.30304
 Zr493 Zr 0.75142 0.29792 0.25506
 Zr494 Zr 0.71607 0.24908 0.20984
 Zr495 Zr 0.78854 0.24990 0.29930
 Zr496 Zr 0.78693 0.24883 0.20485
 O497 O 0.78652 0.25127 0.35753
 O498 O 0.77827 0.24874 0.14754
 O499 O 0.78846 0.27464 0.25162
 O500 O 0.75157 0.27403 0.20648
 O501 O 0.71492 0.27438 0.25672
 O502 O 0.75316 0.27465 0.30365
 C503 C 0.79512 0.18499 0.19304
 C504 C 0.79752 0.18657 0.31318
 C505 C 0.70771 0.18571 0.19648
 O506 O 0.71797 0.25075 0.15162
 O507 O 0.69854 0.28679 0.19195
 O508 O 0.72290 0.32039 0.22249
 C509 C 0.70397 0.31223 0.19990
 O510 O 0.70376 0.21324 0.33030
 Zr511 Zr 0.71768 0.25019 0.30420
 O512 O 0.72589 0.32155 0.28980
 O513 O 0.67250 0.24700 0.21671
 O514 O 0.67396 0.24852 0.29762
 O515 O 0.72443 0.25309 0.36185
 O516 O 0.70128 0.28872 0.32131
 C517 C 0.70713 0.31395 0.31281
 O518 O 0.77165 0.32907 0.22389
 O519 O 0.83219 0.24898 0.29282
 O520 O 0.77962 0.32108 0.28729
 O521 O 0.80587 0.28802 0.31606
 O522 O 0.83081 0.24769 0.20948
 O523 O 0.80449 0.28577 0.18295
 C524 C 0.79947 0.31334 0.30872
 H525 H 0.80659 0.21367 0.25212
 H526 H 0.75116 0.28601 0.18432
 H527 H 0.75400 0.28633 0.32608
 H528 H 0.69999 0.21249 0.25900
 H529 H 0.79567 0.24371 0.13457
 H530 H 0.69859 0.24977 0.14257
 H531 H 0.66421 0.24764 0.19172
 H532 H 0.66550 0.25353 0.32162
 H533 H 0.83837 0.24306 0.18482
 H534 H 0.84028 0.24847 0.31793
 H535 H 0.80592 0.25203 0.36655
 H536 H 0.70637 0.25767 0.37344
 H537 H 0.81603 0.28114 0.16121
 H538 H 0.76499 0.34728 0.23314
 H539 H 0.73845 0.15169 0.27440
 H540 H 0.68875 0.21778 0.34794
 Zr541 Zr 0.74742 0.79847 0.75455
 O542 O 0.76894 0.82988 0.78379
 O543 O 0.72198 0.82189 0.71931
 O544 O 0.77384 0.82150 0.71970
 O545 O 0.69794 0.78772 0.82233
 O546 O 0.79903 0.78840 0.68944
 O547 O 0.72090 0.82111 0.78960
 O548 O 0.69961 0.78891 0.68516
 O549 O 0.74893 0.77533 0.70571
 O550 O 0.71125 0.77449 0.75355
 O551 O 0.78416 0.77502 0.75803
 O552 O 0.74788 0.77509 0.80383
 Zr553 Zr 0.74946 0.70162 0.75632
 Zr554 Zr 0.78439 0.75039 0.71044
 Zr555 Zr 0.71250 0.74976 0.80062
 Zr556 Zr 0.71349 0.75044 0.70613
 O557 O 0.71495 0.74866 0.85883
 O558 O 0.72183 0.75038 0.64875
 O559 O 0.71235 0.72482 0.75307
 O560 O 0.74893 0.72532 0.70760
 O561 O 0.78589 0.72528 0.75745
 O562 O 0.74795 0.72509 0.80479
 C563 C 0.70490 0.81420 0.69409
 C564 C 0.70336 0.81313 0.81412
 C565 C 0.79263 0.81373 0.69669
 O566 O 0.78211 0.74848 0.65226
 O567 O 0.80187 0.71264 0.69257
 O568 O 0.77782 0.67910 0.72355
 C569 C 0.79657 0.68722 0.70072
 O570 O 0.79731 0.78675 0.83064
 Zr571 Zr 0.78338 0.74966 0.80483
 O572 O 0.77535 0.67820 0.79090
 O573 O 0.82799 0.75256 0.71689
 O574 O 0.82704 0.75151 0.79782
 O575 O 0.77697 0.74691 0.86255
 O576 O 0.80011 0.71124 0.82189
 C577 C 0.79431 0.68594 0.81359
 O578 O 0.72913 0.67025 0.72554
 O579 O 0.66880 0.75056 0.79463
 O580 O 0.72143 0.67854 0.78890
 O581 O 0.69528 0.71168 0.81770
 O582 O 0.66965 0.75135 0.71126
 O583 O 0.69595 0.71336 0.68451
 C584 C 0.70164 0.68634 0.81041
 H585 H 0.69404 0.78571 0.75340
 H586 H 0.74923 0.71325 0.68551
 H587 H 0.74729 0.71348 0.82727
 H588 H 0.80066 0.78722 0.75925
 H589 H 0.70435 0.75531 0.63592
 H590 H 0.80144 0.74947 0.64301
 H591 H 0.83613 0.75181 0.69182
 H592 H 0.83568 0.74664 0.82176
 H593 H 0.66188 0.75586 0.68667
 H594 H 0.66088 0.75117 0.81983
 H595 H 0.69561 0.74787 0.86807
 H596 H 0.79510 0.74241 0.87398
 H597 H 0.68428 0.71788 0.66286
 H598 H 0.73591 0.65211 0.73485
 H599 H 0.76210 0.84803 0.77459
 H600 H 0.81240 0.78232 0.84822
 Zr601 Zr 0.25199 0.29975 0.74632
 O602 O 0.23055 0.33090 0.71655
 O603 O 0.27691 0.32345 0.78186
 O604 O 0.22506 0.32275 0.78064
 O605 O 0.30226 0.28901 0.67950
 O606 O 0.19980 0.28960 0.81064
 O607 O 0.27873 0.32241 0.71159
 O608 O 0.29913 0.29073 0.81658
 O609 O 0.25016 0.27677 0.79525
 O610 O 0.28831 0.27599 0.74808
 O611 O 0.21545 0.27605 0.74236
 O612 O 0.25220 0.27616 0.69717
 Zr613 Zr 0.25067 0.20287 0.74504
 Zr614 Zr 0.21493 0.25159 0.79007
 Zr615 Zr 0.28772 0.25105 0.70112
 Zr616 Zr 0.28577 0.25210 0.79556
 O617 O 0.28587 0.24978 0.64288
 O618 O 0.27688 0.25219 0.85280
 O619 O 0.28759 0.22630 0.74879
 O620 O 0.25053 0.22676 0.79364
 O621 O 0.21408 0.22629 0.74316
 O622 O 0.25247 0.22617 0.69649
 C623 C 0.29378 0.31594 0.80740
 C624 C 0.29658 0.31443 0.68743
 C625 C 0.20610 0.31495 0.80339
 O626 O 0.21665 0.24996 0.84829
 O627 O 0.19755 0.21378 0.80785
 O628 O 0.22216 0.18028 0.77748
 C629 C 0.20312 0.18836 0.79996
 O630 O 0.20295 0.28742 0.66950
 Zr631 Zr 0.21689 0.25052 0.69572
 O632 O 0.22530 0.17917 0.71016
 O633 O 0.17138 0.25343 0.78283
 O634 O 0.17314 0.25207 0.70196
 O635 O 0.22385 0.24762 0.63812
 O636 O 0.20065 0.21193 0.67853
 C637 C 0.20656 0.18671 0.68707
 O638 O 0.27096 0.17178 0.77629
 O639 O 0.33134 0.25209 0.70794
 O640 O 0.27909 0.17982 0.71290
 O641 O 0.30527 0.21300 0.68434
 O642 O 0.32966 0.25332 0.79125
 O643 O 0.30337 0.21521 0.81764
 C644 C 0.29897 0.18764 0.69158
 H645 H 0.30544 0.28731 0.74847
 H646 H 0.25010 0.21478 0.81579
 H647 H 0.25341 0.21450 0.67406
 H648 H 0.19887 0.28814 0.74080
 H649 H 0.29421 0.25729 0.86590
 H650 H 0.19723 0.25082 0.85720
 H651 H 0.16299 0.25274 0.80776
 H652 H 0.16479 0.24704 0.67790
 H653 H 0.33713 0.25796 0.81597
 H654 H 0.33953 0.25266 0.68290
 H655 H 0.30530 0.24909 0.63397
 H656 H 0.20585 0.24297 0.62641
 H657 H 0.31478 0.21988 0.83948
 H658 H 0.26440 0.15355 0.76697
 H659 H 0.23718 0.34913 0.72579
 H660 H 0.18802 0.28284 0.65175
 Zr661 Zr 0.24683 0.70084 0.24550
 O662 O 0.26813 0.66951 0.21583
 O663 O 0.22171 0.67735 0.28094
 O664 O 0.27345 0.67767 0.27997
 O665 O 0.19683 0.71185 0.17838
 O666 O 0.29887 0.71065 0.31017
 O667 O 0.22001 0.67831 0.21061
 O668 O 0.19970 0.71026 0.31562
 O669 O 0.24874 0.72385 0.29444
 O670 O 0.21069 0.72485 0.24710
 O671 O 0.28358 0.72425 0.24179
 O672 O 0.24696 0.72436 0.19636
 Zr673 Zr 0.24897 0.79769 0.24434
 Zr674 Zr 0.28419 0.74876 0.28951
 Zr675 Zr 0.21162 0.74972 0.20016
 Zr676 Zr 0.21332 0.74878 0.29461
 O677 O 0.21361 0.75097 0.14193
 O678 O 0.22205 0.74872 0.35190
 O679 O 0.21185 0.77453 0.24783
 O680 O 0.24877 0.77385 0.29292
 O681 O 0.28538 0.77400 0.24262
 O682 O 0.24708 0.77434 0.19576
 C683 C 0.20490 0.68499 0.30648
 C684 C 0.20230 0.68638 0.18631
 C685 C 0.29237 0.68536 0.30286
 O686 O 0.28234 0.75047 0.34773
 O687 O 0.30185 0.78644 0.30746
 O688 O 0.27759 0.82010 0.27695
 C689 C 0.29650 0.81191 0.29956
 O690 O 0.29625 0.71270 0.16904
 Zr691 Zr 0.28248 0.74974 0.19515
 O692 O 0.27458 0.82116 0.20955
 O693 O 0.32774 0.74653 0.28251
 O694 O 0.32619 0.74788 0.20164
 O695 O 0.27566 0.75261 0.13752
 O696 O 0.29901 0.78818 0.17799
 C697 C 0.29328 0.81345 0.18651
 O698 O 0.22887 0.82898 0.27549
 O699 O 0.16797 0.74902 0.20673
 O700 O 0.22080 0.82090 0.21212
 O701 O 0.19441 0.78790 0.18340
 O702 O 0.16944 0.74783 0.29006
 O703 O 0.19591 0.78582 0.31652
 C704 C 0.20089 0.81321 0.19072
 H705 H 0.19348 0.71364 0.24740
 H706 H 0.24924 0.78585 0.31507
 H707 H 0.24627 0.78600 0.17333
 H708 H 0.30007 0.71203 0.24032
 H709 H 0.20465 0.74379 0.36490
 H710 H 0.30173 0.74943 0.35675
 H711 H 0.33606 0.74715 0.30749
 H712 H 0.33465 0.75283 0.17763
 H713 H 0.16189 0.74327 0.31473
 H714 H 0.15985 0.74851 0.18164
 H715 H 0.19421 0.75183 0.13292
 H716 H 0.29371 0.75710 0.12588
 H717 H 0.18441 0.78128 0.33831
 H718 H 0.23559 0.84714 0.26621
 H719 H 0.26135 0.65134 0.22501
 H720 H 0.31122 0.71717 0.15132
 Zr721 Zr 0.25142 0.79799 0.75498
 O722 O 0.27166 0.82914 0.72383
 O723 O 0.22588 0.82161 0.78972
 O724 O 0.22291 0.82048 0.72242
 O725 O 0.30588 0.78805 0.81595
 O726 O 0.19854 0.78690 0.69187
 O727 O 0.27964 0.82113 0.78721
 O728 O 0.20126 0.78878 0.82120
 O729 O 0.21492 0.77446 0.75663
 O730 O 0.25316 0.77470 0.80356
 O731 O 0.25156 0.77411 0.70639
 O732 O 0.28845 0.77470 0.75152
 Zr733 Zr 0.25316 0.70118 0.75377
 Zr734 Zr 0.21605 0.74917 0.70973
 Zr735 Zr 0.28853 0.74994 0.79918
 Zr736 Zr 0.21766 0.75025 0.80410
 O737 O 0.33217 0.74901 0.79270
 O738 O 0.17395 0.74857 0.79753
 O739 O 0.25309 0.72474 0.80292
 O740 O 0.21650 0.72471 0.75744
 O741 O 0.25140 0.72413 0.70483
 O742 O 0.28940 0.72502 0.75224
 C743 C 0.20711 0.81402 0.81270
 C744 C 0.29950 0.81337 0.80862
 C745 C 0.20398 0.81233 0.69983
 O746 O 0.17248 0.74709 0.71662
 O747 O 0.20128 0.71110 0.68899
 O748 O 0.22654 0.67807 0.71925
 C749 C 0.20769 0.68580 0.69631
 O750 O 0.30449 0.78585 0.68286
 Zr751 Zr 0.28691 0.74890 0.70473
 O752 O 0.27822 0.67754 0.71839
 O753 O 0.21794 0.75087 0.65152
 O754 O 0.27825 0.74885 0.64742
 O755 O 0.33079 0.74774 0.70934
 O756 O 0.30038 0.71030 0.68372
 C757 C 0.29507 0.68507 0.69286
 O758 O 0.23170 0.66998 0.78339
 O759 O 0.28651 0.75130 0.85741
 O760 O 0.27982 0.67859 0.78869
 O761 O 0.30309 0.71205 0.82099
 O762 O 0.22442 0.75316 0.86174
 O763 O 0.20376 0.71329 0.83019
 C764 C 0.29751 0.68662 0.81302
 H765 H 0.25399 0.78639 0.82599
 H766 H 0.19997 0.71256 0.75887
 H767 H 0.30657 0.71373 0.75197
 H768 H 0.25115 0.78610 0.68424
 H769 H 0.16549 0.75357 0.82153
 H770 H 0.16419 0.74774 0.69163
 H771 H 0.19855 0.74990 0.64248
 H772 H 0.29564 0.74382 0.63445
 H773 H 0.20637 0.75774 0.87334
 H774 H 0.30591 0.75206 0.86644
 H775 H 0.34027 0.74850 0.81781
 H776 H 0.33834 0.74313 0.68468
 H777 H 0.18876 0.71783 0.84785
 H778 H 0.23842 0.65176 0.77424
 H779 H 0.26501 0.84735 0.73309
 H780 H 0.31602 0.78123 0.66112
 Zr781 Zr 0.24847 0.20165 0.25463
 O782 O 0.22825 0.17021 0.22388
 O783 O 0.27427 0.17834 0.28946
 O784 O 0.27695 0.17907 0.22211
 O785 O 0.19414 0.21180 0.31574
 O786 O 0.30106 0.21256 0.19110
 O787 O 0.22041 0.17862 0.28721
 O788 O 0.29888 0.21147 0.32049
 O789 O 0.28488 0.22534 0.25585
 O790 O 0.24681 0.22524 0.30299
 O791 O 0.24806 0.22524 0.20582
 O792 O 0.21135 0.22481 0.25111
 Zr793 Zr 0.24636 0.29849 0.25247
 Zr794 Zr 0.28349 0.25034 0.20873
 Zr795 Zr 0.21134 0.24986 0.29855
 Zr796 Zr 0.28222 0.24983 0.30311
 O797 O 0.16767 0.25062 0.29230
 O798 O 0.32590 0.25165 0.29629
 O799 O 0.24670 0.27522 0.30183
 O800 O 0.28311 0.27509 0.25622
 O801 O 0.24803 0.27524 0.20373
 O802 O 0.21021 0.27450 0.25138
 C803 C 0.29311 0.18615 0.31227
 C804 C 0.20057 0.18644 0.30862
 C805 C 0.29576 0.18716 0.19933
 O806 O 0.32708 0.25255 0.21537
 O807 O 0.29819 0.28832 0.18767
 O808 O 0.27288 0.32146 0.21769
 C809 C 0.29175 0.31366 0.19482
 O810 O 0.19514 0.21319 0.18254
 Zr811 Zr 0.21261 0.25033 0.20408
 O812 O 0.22102 0.32181 0.21699
 O813 O 0.28137 0.24832 0.15054
 O814 O 0.22109 0.25012 0.14673
 O815 O 0.16875 0.25126 0.20898
 O816 O 0.19880 0.28874 0.18284
 C817 C 0.20404 0.31406 0.19169
 O818 O 0.26777 0.33000 0.28167
 O819 O 0.21359 0.24887 0.35678
 O820 O 0.21977 0.32119 0.28736
 O821 O 0.19676 0.28784 0.32011
 O822 O 0.27564 0.24727 0.36081
 O823 O 0.29608 0.28700 0.32881
 C824 C 0.20222 0.31325 0.31188
 H825 H 0.24610 0.21369 0.32553
 H826 H 0.29961 0.28730 0.25748
 H827 H 0.19300 0.28572 0.25111
 H828 H 0.24843 0.21312 0.18377
 H829 H 0.33447 0.24684 0.32030
 H830 H 0.33529 0.25175 0.19035
 H831 H 0.30072 0.24929 0.14138
 H832 H 0.20364 0.25500 0.13380
 H833 H 0.29374 0.24281 0.37237
 H834 H 0.19423 0.24810 0.36591
 H835 H 0.15967 0.25128 0.31744
 H836 H 0.16105 0.25570 0.18434
 H837 H 0.31114 0.28262 0.34645
 H838 H 0.26094 0.34812 0.27236
 H839 H 0.23501 0.15209 0.23330
 H840 H 0.18350 0.21765 0.16083
 Zr841 Zr 0.75158 0.70181 0.24467
 O842 O 0.77197 0.67061 0.27562
 O843 O 0.72605 0.67824 0.20984
 O844 O 0.72315 0.67915 0.27715
 O845 O 0.80593 0.71208 0.18360
 O846 O 0.69869 0.71260 0.30785
 O847 O 0.77984 0.67883 0.21218
 O848 O 0.70130 0.71112 0.17858
 O849 O 0.71501 0.72527 0.24317
 O850 O 0.75320 0.72526 0.19623
 O851 O 0.75167 0.72555 0.29339
 O852 O 0.78854 0.72519 0.24826
 Zr853 Zr 0.75301 0.79868 0.24644
 Zr854 Zr 0.71608 0.75043 0.29020
 Zr855 Zr 0.78850 0.75010 0.20073
 Zr856 Zr 0.71764 0.74964 0.19584
 O857 O 0.83215 0.75107 0.20724
 O858 O 0.67393 0.75121 0.20242
 O859 O 0.75299 0.77524 0.19716
 O860 O 0.71642 0.77504 0.24263
 O861 O 0.75136 0.77556 0.29525
 O862 O 0.78931 0.77489 0.24781
 C863 C 0.70722 0.68587 0.18694
 C864 C 0.79964 0.68670 0.19074
 C865 C 0.70419 0.68719 0.29978
 O866 O 0.67250 0.75238 0.28331
 O867 O 0.70112 0.78839 0.31114
 O868 O 0.72626 0.82160 0.28109
 C869 C 0.70742 0.81375 0.30397
 O870 O 0.80462 0.71389 0.31691
 Zr871 Zr 0.78694 0.75086 0.29519
 O872 O 0.77805 0.82225 0.28195
 O873 O 0.71805 0.74857 0.34840
 O874 O 0.77831 0.75075 0.35249
 O875 O 0.83081 0.75210 0.29055
 O876 O 0.80037 0.78942 0.31636
 C877 C 0.79498 0.81467 0.30737
 O878 O 0.73146 0.82993 0.21699
 O879 O 0.78641 0.74900 0.14249
 O880 O 0.77961 0.82143 0.21164
 O881 O 0.80298 0.78811 0.17919
 O882 O 0.72435 0.74690 0.13818
 O883 O 0.70363 0.78663 0.16992
 C884 C 0.79735 0.81351 0.18729
 H885 H 0.75404 0.71366 0.17373
 H886 H 0.69985 0.78714 0.24126
 H887 H 0.80645 0.78621 0.24814
 H888 H 0.75131 0.71350 0.31548
 H889 H 0.66546 0.74626 0.17840
 H890 H 0.66422 0.75162 0.30830
 H891 H 0.69866 0.74944 0.35746
 H892 H 0.79569 0.75578 0.36549
 H893 H 0.70630 0.74230 0.12657
 H894 H 0.80580 0.74832 0.13344
 H895 H 0.84023 0.75171 0.18214
 H896 H 0.83838 0.75666 0.31523
 H897 H 0.68862 0.78212 0.15225
 H898 H 0.73814 0.84813 0.22627
 H899 H 0.76535 0.65242 0.26625
 H900 H 0.81616 0.71848 0.33867
 Zr901 Zr 0.74899 0.29878 0.74602
 O902 O 0.72898 0.33014 0.77714
 O903 O 0.77452 0.32215 0.71101
 O904 O 0.77774 0.32126 0.77834
 O905 O 0.69428 0.28886 0.68535
 O906 O 0.80207 0.28768 0.80888
 O907 O 0.72075 0.32193 0.71381
 O908 O 0.79888 0.28908 0.67952
 O909 O 0.78538 0.27506 0.74424
 O910 O 0.74696 0.27531 0.69755
 O911 O 0.74890 0.27506 0.79470
 O912 O 0.71187 0.27565 0.74979
 Zr913 Zr 0.74682 0.20194 0.74760
 Zr914 Zr 0.78431 0.24995 0.79125
 Zr915 Zr 0.71150 0.25072 0.70221
 Zr916 Zr 0.78235 0.25069 0.69688
 O917 O 0.66788 0.25007 0.70898
 O918 O 0.82608 0.24882 0.70319
 O919 O 0.74682 0.22534 0.69836
 O920 O 0.78356 0.22532 0.74364
 O921 O 0.74886 0.22506 0.79645
 O922 O 0.71069 0.22597 0.74927
 C923 C 0.79317 0.31438 0.68794
 C924 C 0.70080 0.31419 0.69252
 C925 C 0.79674 0.31312 0.80085
 O926 O 0.82784 0.24765 0.78408
 O927 O 0.79901 0.21187 0.81201
 O928 O 0.77349 0.17885 0.78206
 C929 C 0.79247 0.18657 0.80483
 O930 O 0.69614 0.28710 0.81855
 Zr931 Zr 0.71345 0.25000 0.79667
 O932 O 0.72176 0.17855 0.78322
 O933 O 0.78261 0.25184 0.84946
 O934 O 0.72235 0.25003 0.85392
 O935 O 0.66956 0.24911 0.79233
 O936 O 0.69981 0.21153 0.81785
 C937 C 0.70498 0.18624 0.80876
 O938 O 0.76805 0.17054 0.71798
 O939 O 0.71335 0.25182 0.64397
 O940 O 0.71992 0.17934 0.71293
 O941 O 0.69664 0.21280 0.68067
 O942 O 0.77540 0.25344 0.63927
 O943 O 0.79602 0.21358 0.67087
 C944 C 0.70214 0.18735 0.68869
 H945 H 0.74611 0.28692 0.67507
 H946 H 0.80004 0.21309 0.74215
 H947 H 0.69348 0.21477 0.74968
 H948 H 0.74945 0.28712 0.81680
 H949 H 0.83448 0.25370 0.67911
 H950 H 0.83622 0.24834 0.80902
 H951 H 0.80202 0.25080 0.85840
 H952 H 0.70498 0.24512 0.86702
 H953 H 0.79344 0.25788 0.62754
 H954 H 0.69393 0.25266 0.63505
 H955 H 0.65969 0.24949 0.68393
 H956 H 0.66206 0.24460 0.81705
 H957 H 0.81096 0.21799 0.65307
 H958 H 0.76128 0.15239 0.72725
 H959 H 0.73568 0.34828 0.76776
 H960 H 0.68471 0.28260 0.84043
 C961 C 0.11997 0.40511 0.88514
 C962 C 0.13200 0.41654 0.84902
 C963 C 0.15060 0.39912 0.83258
 C964 C 0.15534 0.37198 0.85387
 C965 C 0.12630 0.35935 0.85851
 C966 C 0.10776 0.37672 0.87491
 C967 C 0.14536 0.39851 0.90923
 C968 C 0.16395 0.38110 0.89278
 C969 C 0.09960 0.42343 0.90299
 C970 C 0.08231 0.43757 0.91809
 C971 C 0.17490 0.35275 0.83610
 C972 C 0.18984 0.33600 0.82131
 H973 H 0.12645 0.43656 0.83744
 H974 H 0.16098 0.40423 0.80690
 H975 H 0.12078 0.33853 0.84967
 H976 H 0.08638 0.37077 0.88009
 H977 H 0.14848 0.40683 0.93674
 H978 H 0.18299 0.37451 0.90621
 C979 C 0.37781 0.59510 0.38501
 C980 C 0.35058 0.58081 0.37377
 C981 C 0.33203 0.59824 0.35721
 C982 C 0.34258 0.62819 0.35358
 C983 C 0.37031 0.62578 0.33299
 C984 C 0.38881 0.60841 0.34949
 C985 C 0.36893 0.61959 0.40940
 C986 C 0.35043 0.63697 0.39289
 C987 C 0.39811 0.57684 0.40293
 C988 C 0.41539 0.56279 0.41811
 C989 C 0.32314 0.64742 0.33573
 C990 C 0.30836 0.66423 0.32086
 H991 H 0.34626 0.55898 0.37841
 H992 H 0.31181 0.59134 0.34767
 H993 H 0.37498 0.63673 0.30759
 H994 H 0.40932 0.60448 0.33824
 H995 H 0.37647 0.62295 0.43726
 H996 H 0.34212 0.65520 0.40661
 C997 C 0.87798 0.90405 0.61451
 C998 C 0.87870 0.87436 0.59921
 C999 C 0.86024 0.85694 0.61564
 C1000 C 0.84279 0.87086 0.64583
 C1001 C 0.82910 0.89588 0.62693
 C1002 C 0.84762 0.91335 0.61044
 C1003 C 0.88253 0.90086 0.65616
 C1004 C 0.86405 0.88343 0.67262
 C1005 C 0.89825 0.92240 0.59667
 C1006 C 0.91549 0.93655 0.58159
 C1007 C 0.82338 0.85160 0.66363
 C1008 C 0.80861 0.83480 0.67854
 H1009 H 0.89250 0.86760 0.57730
 H1010 H 0.85823 0.83527 0.60780
 H1011 H 0.80687 0.89954 0.62654
 H1012 H 0.84125 0.93200 0.59593
 H1013 H 0.89880 0.91143 0.67142
 H1014 H 0.86449 0.87906 0.70197
 C1015 C 0.62223 0.09529 0.11479
 C1016 C 0.65266 0.08696 0.10859
 C1017 C 0.67122 0.10445 0.12502
 C1018 C 0.65747 0.12850 0.14598
 C1019 C 0.63743 0.11457 0.17319
 C1020 C 0.61891 0.09712 0.15679
 C1021 C 0.62023 0.12537 0.10118
 C1022 C 0.63873 0.14280 0.11755
 C1023 C 0.60194 0.07697 0.09699
 C1024 C 0.58469 0.06287 0.08187
 C1025 C 0.67690 0.14777 0.16370
 C1026 C 0.69169 0.16460 0.17849
 H1027 H 0.65905 0.06894 0.09275
 H1028 H 0.69351 0.10142 0.12326
 H1029 H 0.63781 0.11806 0.20275
 H1030 H 0.60342 0.08566 0.17229
 H1031 H 0.60557 0.13238 0.08042
 H1032 H 0.63991 0.16473 0.11081
 C1033 C 0.87862 0.09263 0.39602
 C1034 C 0.84776 0.08539 0.40055
 C1035 C 0.83033 0.10399 0.38411
 C1036 C 0.84552 0.12795 0.36481
 C1037 C 0.86567 0.11385 0.33789
 C1038 C 0.88307 0.09529 0.35429
 C1039 C 0.88144 0.12229 0.41103
 C1040 C 0.86406 0.14083 0.39464
 C1041 C 0.89784 0.07314 0.41375
 C1042 C 0.91463 0.05832 0.42856
 C1043 C 0.82724 0.14828 0.34701
 C1044 C 0.81317 0.16556 0.33191
 H1045 H 0.84028 0.06727 0.41529
 H1046 H 0.80791 0.10182 0.38477
 H1047 H 0.86618 0.11803 0.30849
 H1048 H 0.89847 0.08357 0.33895
 H1049 H 0.89582 0.12822 0.43271
 H1050 H 0.86356 0.16262 0.40229
 C1051 C 0.37855 0.40769 0.60469
 C1052 C 0.38474 0.37724 0.59532
 C1053 C 0.36717 0.35893 0.61174
 C1054 C 0.34506 0.37278 0.63598
 C1055 C 0.33035 0.39359 0.61053
 C1056 C 0.34798 0.41196 0.59406
 C1057 C 0.37905 0.40907 0.64695
 C1058 C 0.36145 0.39072 0.66340
 C1059 C 0.39796 0.42696 0.58689
 C1060 C 0.41483 0.44166 0.57200
 C1061 C 0.32656 0.35265 0.65381
 C1062 C 0.31233 0.33547 0.66886
 H1063 H 0.40148 0.37063 0.57729
 H1064 H 0.36886 0.33665 0.60777
 H1065 H 0.30809 0.39388 0.60590
 H1066 H 0.34082 0.42800 0.57532
 H1067 H 0.39203 0.42325 0.66258
 H1068 H 0.35936 0.38920 0.69313
 C1069 C 0.62180 0.90725 0.89591
 C1070 C 0.62303 0.90977 0.85378
 C1071 C 0.64054 0.89117 0.83763
 C1072 C 0.65511 0.87186 0.86520
 C1073 C 0.63155 0.85828 0.88715
 C1074 C 0.61407 0.87685 0.90327
 C1075 C 0.65204 0.90998 0.90884
 C1076 C 0.66958 0.89135 0.89267
 C1077 C 0.60247 0.92677 0.91339
 C1078 C 0.58562 0.94162 0.92806
 C1079 C 0.67350 0.85149 0.84766
 C1080 C 0.68766 0.83419 0.83273
 H1081 H 0.61124 0.92488 0.83803
 H1082 H 0.64375 0.89035 0.80802
 H1083 H 0.62884 0.83600 0.88984
 H1084 H 0.59639 0.87045 0.91976
 H1085 H 0.65905 0.92521 0.92885
 H1086 H 0.69162 0.89061 0.89883
 C1087 C 0.12105 0.59256 0.10267
 C1088 C 0.15171 0.58857 0.09233
 C1089 C 0.16910 0.60713 0.10898
 C1090 C 0.15410 0.62783 0.13430
 C1091 C 0.13774 0.60976 0.16155
 C1092 C 0.12038 0.59124 0.14494
 C1093 C 0.11464 0.62295 0.09327
 C1094 C 0.13197 0.64145 0.10986
 C1095 C 0.10186 0.57307 0.08470
 C1096 C 0.08511 0.55822 0.06972
 C1097 C 0.17239 0.64815 0.15233
 C1098 C 0.18652 0.66538 0.16754
 H1099 H 0.15911 0.57258 0.07366
 H1100 H 0.19138 0.60703 0.10454
 H1101 H 0.13967 0.61134 0.19130
 H1102 H 0.10746 0.57695 0.16046
 H1103 H 0.09792 0.62940 0.07509
 H1104 H 0.13009 0.66371 0.10587
 C1105 C 0.37810 0.90650 0.11000
 C1106 C 0.38266 0.87637 0.09770
 C1107 C 0.36444 0.85814 0.11294
 C1108 C 0.34343 0.87182 0.13900
 C1109 C 0.32938 0.89455 0.11595
 C1110 C 0.34766 0.91283 0.10065
 C1111 C 0.37931 0.90570 0.15225
 C1112 C 0.36106 0.88745 0.16752
 C1113 C 0.39810 0.92564 0.09351
 C1114 C 0.41531 0.94036 0.07960
 C1115 C 0.32430 0.85182 0.15549
 C1116 C 0.30957 0.83461 0.16941
 H1117 H 0.39878 0.86991 0.07861
 H1118 H 0.36493 0.83606 0.10692
 H1119 H 0.30709 0.89615 0.11201
 H1120 H 0.34106 0.93013 0.08360
 H1121 H 0.39321 0.91840 0.16872
 H1122 H 0.35931 0.88449 0.19710
 C1123 C 0.62242 0.40705 0.38950
 C1124 C 0.62343 0.40852 0.34728
 C1125 C 0.64170 0.39029 0.33194
 C1126 C 0.65710 0.37241 0.36037
 C1127 C 0.63421 0.35839 0.38306
 C1128 C 0.61598 0.37660 0.39837
 C1129 C 0.65251 0.41147 0.40217
 C1130 C 0.67081 0.39320 0.38681
 C1131 C 0.60241 0.42614 0.40607
 C1132 C 0.58517 0.44081 0.42006
 C1133 C 0.67623 0.35242 0.34383
 C1134 C 0.69092 0.33519 0.32989
 H1135 H 0.61097 0.42268 0.33089
 H1136 H 0.64490 0.38880 0.30238
 H1137 H 0.63249 0.33610 0.38683
 H1138 H 0.59863 0.36991 0.41527
 H1139 H 0.65889 0.42750 0.42143
 H1140 H 0.69287 0.39357 0.39288
 C1141 C 0.87981 0.59263 0.88891
 C1142 C 0.84991 0.58164 0.88736
 C1143 C 0.83154 0.60000 0.87233
 C1144 C 0.84496 0.62747 0.86039
 C1145 C 0.86849 0.61910 0.83412
 C1146 C 0.88681 0.60078 0.84912
 C1147 C 0.87789 0.62019 0.90999
 C1148 C 0.85958 0.63850 0.89500
 C1149 C 0.89989 0.57339 0.90517
 C1150 C 0.91712 0.55857 0.91897
 C1151 C 0.82570 0.64756 0.84418
 C1152 C 0.81082 0.66478 0.83048
 H1153 H 0.84372 0.56127 0.89716
 H1154 H 0.80961 0.59538 0.86925
 H1155 H 0.87053 0.62682 0.80614
 H1156 H 0.90456 0.59281 0.83400
 H1157 H 0.88982 0.62490 0.93462
 H1158 H 0.85582 0.65889 0.90677
 C1159 C 0.12205 0.09318 0.61083
 C1160 C 0.15253 0.08660 0.60203
 C1161 C 0.17078 0.10497 0.61727
 C1162 C 0.15666 0.12802 0.63972
 C1163 C 0.13875 0.11279 0.66825
 C1164 C 0.12053 0.09445 0.65304
 C1165 C 0.11772 0.12319 0.59793
 C1166 C 0.13591 0.14150 0.61312
 C1167 C 0.10208 0.07398 0.59438
 C1168 C 0.08488 0.05923 0.58044
 C1169 C 0.17574 0.14812 0.65613
 C1170 C 0.19040 0.16542 0.67000
 H1171 H 0.15917 0.06909 0.58538
 H1172 H 0.19309 0.10323 0.61369
 H1173 H 0.14029 0.11606 0.69779
 H1174 H 0.10645 0.08200 0.66953
 H1175 H 0.10178 0.12951 0.57850
 H1176 H 0.13557 0.16351 0.60671
 C1177 C 0.12122 0.40731 0.39475
 C1178 C 0.12275 0.41045 0.35271
 C1179 C 0.14013 0.39187 0.33625
 C1180 C 0.15427 0.37197 0.36346
 C1181 C 0.13040 0.35836 0.38479
 C1182 C 0.11305 0.37691 0.40121
 C1183 C 0.15140 0.40946 0.40808
 C1184 C 0.16881 0.39086 0.39161
 C1185 C 0.10203 0.42680 0.41255
 C1186 C 0.08528 0.44162 0.42745
 C1187 C 0.17252 0.35163 0.34563
 C1188 C 0.18659 0.33432 0.33054
 H1189 H 0.11125 0.42595 0.33724
 H1190 H 0.14352 0.39145 0.30667
 H1191 H 0.12739 0.33608 0.38685
 H1192 H 0.09519 0.37049 0.41733
 H1193 H 0.15848 0.42430 0.42857
 H1194 H 0.19080 0.38974 0.39798
 C1195 C 0.37881 0.59287 0.89592
 C1196 C 0.34797 0.58546 0.90025
 C1197 C 0.33050 0.60401 0.88379
 C1198 C 0.34562 0.62808 0.86466
 C1199 C 0.36592 0.61415 0.83780
 C1200 C 0.38337 0.59564 0.85422
 C1201 C 0.38143 0.62252 0.91105
 C1202 C 0.36401 0.64100 0.89464
 C1203 C 0.39806 0.57343 0.91368
 C1204 C 0.41485 0.55862 0.92851
 C1205 C 0.32729 0.64836 0.84684
 C1206 C 0.31318 0.66560 0.83173
 H1207 H 0.34054 0.56728 0.91489
 H1208 H 0.30808 0.60172 0.88433
 H1209 H 0.36650 0.61839 0.80842
 H1210 H 0.39888 0.58404 0.83892
 H1211 H 0.39571 0.62847 0.93283
 H1212 H 0.36336 0.66277 0.90236
 C1213 C 0.62086 0.09310 0.60598
 C1214 C 0.65148 0.08927 0.59535
 C1215 C 0.66886 0.10793 0.61180
 C1216 C 0.65389 0.12858 0.63724
 C1217 C 0.63778 0.11044 0.66468
 C1218 C 0.62042 0.09181 0.64825
 C1219 C 0.61423 0.12346 0.59659
 C1220 C 0.63155 0.14206 0.61299
 C1221 C 0.60169 0.07350 0.58820
 C1222 C 0.58496 0.05857 0.57334
 C1223 C 0.67217 0.14900 0.65505
 C1224 C 0.68632 0.16630 0.67010
 H1225 H 0.65886 0.07331 0.57663
 H1226 H 0.69112 0.10795 0.60715
 H1227 H 0.63986 0.11205 0.69440
 H1228 H 0.60767 0.07747 0.66391
 H1229 H 0.59738 0.12979 0.57857
 H1230 H 0.62953 0.16431 0.60900
 C1231 C 0.87886 0.90716 0.10454
 C1232 C 0.88513 0.87675 0.09503
 C1233 C 0.86766 0.85834 0.11144
 C1234 C 0.84556 0.87207 0.13583
 C1235 C 0.83072 0.89289 0.11052
 C1236 C 0.84826 0.91136 0.09405
 C1237 C 0.87946 0.90844 0.14681
 C1238 C 0.86196 0.89000 0.16325
 C1239 C 0.89818 0.92653 0.08675
 C1240 C 0.91499 0.94131 0.07188
 C1241 C 0.82716 0.85185 0.15365
 C1242 C 0.81301 0.83460 0.16871
 H1243 H 0.90185 0.87024 0.07691
 H1244 H 0.86941 0.83608 0.10738
 H1245 H 0.80845 0.89312 0.10598
 H1246 H 0.84100 0.92741 0.07541
 H1247 H 0.89243 0.92263 0.16245
 H1248 H 0.85994 0.88840 0.19298
 C1249 C 0.87777 0.09581 0.88630
 C1250 C 0.85065 0.08158 0.87445
 C1251 C 0.83215 0.09917 0.85810
 C1252 C 0.84263 0.12920 0.85525
 C1253 C 0.87049 0.12713 0.83491
 C1254 C 0.88894 0.10960 0.85122
 C1255 C 0.86867 0.11995 0.91115
 C1256 C 0.85021 0.13749 0.89484
 C1257 C 0.89802 0.07737 0.90400
 C1258 C 0.91528 0.06318 0.91899
 C1259 C 0.82324 0.14857 0.83760
 C1260 C 0.80848 0.16544 0.82282
 H1261 H 0.84637 0.05968 0.87855
 H1262 H 0.81201 0.09234 0.84819
 H1263 H 0.87529 0.13842 0.80982
 H1264 H 0.90953 0.10587 0.84009
 H1265 H 0.87603 0.12297 0.93916
 H1266 H 0.84177 0.15553 0.90888
 C1267 C 0.12241 0.59532 0.61433
 C1268 C 0.15287 0.58712 0.60802
 C1269 C 0.17138 0.60463 0.62451
 C1270 C 0.15756 0.62856 0.64564
 C1271 C 0.13761 0.61448 0.67280
 C1272 C 0.11913 0.59700 0.65634
 C1273 C 0.12028 0.62543 0.60088
 C1274 C 0.13873 0.64288 0.61732
 C1275 C 0.10216 0.57697 0.59648
 C1276 C 0.08491 0.56286 0.58137
 C1277 C 0.17695 0.64786 0.66342
 C1278 C 0.19170 0.66469 0.67827
 H1279 H 0.15931 0.56917 0.59207
 H1280 H 0.19368 0.60169 0.62269
 H1281 H 0.13801 0.61787 0.70239
 H1282 H 0.10371 0.58544 0.67182
 H1283 H 0.10558 0.63244 0.58019
 H1284 H 0.13983 0.66483 0.61069
 C1285 C 0.62193 0.90387 0.38692
 C1286 C 0.63303 0.91489 0.35005
 C1287 C 0.65150 0.89746 0.33338
 C1288 C 0.65707 0.87073 0.35521
 C1289 C 0.62833 0.85779 0.36131
 C1290 C 0.60990 0.87516 0.37794
 C1291 C 0.64792 0.89799 0.41020
 C1292 C 0.66639 0.88057 0.39353
 C1293 C 0.60169 0.92220 0.40497
 C1294 C 0.58447 0.93636 0.42016
 C1295 C 0.67648 0.85151 0.33719
 C1296 C 0.69130 0.83477 0.32217
 H1297 H 0.62695 0.93464 0.33813
 H1298 H 0.66125 0.90230 0.30718
 H1299 H 0.62291 0.83676 0.35326
 H1300 H 0.58873 0.86901 0.38410
 H1301 H 0.65152 0.90678 0.43735
 H1302 H 0.68580 0.87445 0.40639
 C1303 C 0.37755 0.40401 0.11354
 C1304 C 0.37841 0.37431 0.09824
 C1305 C 0.35985 0.35687 0.11444
 C1306 C 0.34218 0.37078 0.14441
 C1307 C 0.32859 0.39578 0.12535
 C1308 C 0.34721 0.41328 0.10909
 C1309 C 0.38182 0.40082 0.15524
 C1310 C 0.36323 0.38337 0.17146
 C1311 C 0.39792 0.42237 0.09594
 C1312 C 0.41523 0.43653 0.08103
 C1313 C 0.32266 0.35150 0.16199
 C1314 C 0.30781 0.33471 0.17676
 H1315 H 0.39236 0.36757 0.07650
 H1316 H 0.35791 0.33521 0.10657
 H1317 H 0.30636 0.39943 0.12469
 H1318 H 0.34092 0.43192 0.09451
 H1319 H 0.39797 0.41140 0.17069
 H1320 H 0.36348 0.37901 0.20082
 C1321 C 0.62234 0.59259 0.11089
 C1322 C 0.65279 0.58597 0.10193
 C1323 C 0.67111 0.60429 0.11712
 C1324 C 0.65709 0.62733 0.13968
 C1325 C 0.63922 0.61210 0.16827
 C1326 C 0.62093 0.59381 0.15310
 C1327 C 0.61803 0.62262 0.09807
 C1328 C 0.63629 0.64089 0.11321
 C1329 C 0.60230 0.57344 0.09448
 C1330 C 0.58506 0.55875 0.08056
 C1331 C 0.67625 0.64738 0.15605
 C1332 C 0.69097 0.66464 0.16988
 H1333 H 0.65936 0.56847 0.08521
 H1334 H 0.69340 0.60252 0.11343
 H1335 H 0.64085 0.61534 0.19781
 H1336 H 0.60688 0.58136 0.16963
 H1337 H 0.60205 0.62899 0.07874
 H1338 H 0.63596 0.66290 0.10685
 C1339 C 0.12231 0.90720 0.88909
 C1340 C 0.12332 0.90858 0.84686
 C1341 C 0.14160 0.89032 0.83159
 C1342 C 0.15702 0.87252 0.86009
 C1343 C 0.13414 0.85854 0.88284
 C1344 C 0.11590 0.87676 0.89808
 C1345 C 0.15241 0.91166 0.90174
 C1346 C 0.17071 0.89338 0.88644
 C1347 C 0.10229 0.92632 0.90560
 C1348 C 0.08506 0.94100 0.91959
 C1349 C 0.17616 0.85250 0.84363
 C1350 C 0.19087 0.83525 0.82975
 H1351 H 0.11085 0.92269 0.83041
 H1352 H 0.14480 0.88876 0.80203
 H1353 H 0.13243 0.83625 0.88669
 H1354 H 0.09855 0.87010 0.91500
 H1355 H 0.15877 0.92775 0.92093
 H1356 H 0.19277 0.89377 0.89251
 C1357 C 0.37814 0.09337 0.38952
 C1358 C 0.34806 0.08283 0.38919
 C1359 C 0.32978 0.10106 0.37372
 C1360 C 0.34346 0.12797 0.36017
 C1361 C 0.36650 0.11852 0.33377
 C1362 C 0.38473 0.10033 0.34921
 C1363 C 0.37694 0.12151 0.40931
 C1364 C 0.35872 0.13969 0.39388
 C1365 C 0.39813 0.07426 0.40623
 C1366 C 0.41528 0.05952 0.42034
 C1367 C 0.32430 0.14792 0.34350
 C1368 C 0.30951 0.16506 0.32947
 H1369 H 0.34169 0.06284 0.40010
 H1370 H 0.30774 0.09672 0.37136
 H1371 H 0.36828 0.12544 0.30539
 H1372 H 0.40214 0.09166 0.33407
 H1373 H 0.38928 0.12668 0.43341
 H1374 H 0.35544 0.16044 0.40475
 C1375 C 0.87812 0.40697 0.61075
 C1376 C 0.88277 0.37674 0.59894
 C1377 C 0.86451 0.35862 0.61433
 C1378 C 0.84338 0.37250 0.64003
 C1379 C 0.82939 0.39500 0.61653
 C1380 C 0.84771 0.41318 0.60108
 C1381 C 0.87916 0.40654 0.65301
 C1382 C 0.86087 0.38839 0.66843
 C1383 C 0.89816 0.42598 0.59410
 C1384 C 0.91537 0.44062 0.58005
 C1385 C 0.82421 0.35261 0.65667
 C1386 C 0.80946 0.33547 0.67070
 H1387 H 0.89898 0.37013 0.58007
 H1388 H 0.86506 0.33649 0.60866
 H1389 H 0.80712 0.39654 0.61241
 H1390 H 0.84116 0.43031 0.58372
 H1391 H 0.89298 0.41939 0.66939
 H1392 H 0.85901 0.38569 0.69804
 C1393 C 0.88126 0.59620 0.10133
 C1394 C 0.87058 0.62045 0.07786
 C1395 C 0.85337 0.63800 0.09647
 C1396 C 0.84847 0.62963 0.13679
 C1397 C 0.87759 0.62742 0.15368
 C1398 C 0.89480 0.60988 0.13508
 C1399 C 0.85501 0.58204 0.11630
 C1400 C 0.83777 0.59962 0.13495
 C1401 C 0.90025 0.57759 0.08139
 C1402 C 0.91675 0.56297 0.06552
 C1403 C 0.83023 0.64896 0.15677
 C1404 C 0.81592 0.66570 0.17268
 H1405 H 0.87600 0.62353 0.04911
 H1406 H 0.84407 0.65611 0.08363
 H1407 H 0.88413 0.63862 0.17817
 H1408 H 0.91606 0.60609 0.14366
 H1409 H 0.85038 0.56017 0.11255
 H1410 H 0.81837 0.59280 0.14717
 C1411 C 0.61896 0.40470 0.60401
 C1412 C 0.64621 0.41841 0.61636
 C1413 C 0.66356 0.40086 0.63487
 C1414 C 0.65192 0.37136 0.63918
 C1415 C 0.64518 0.36182 0.59979
 C1416 C 0.62787 0.37932 0.58132
 C1417 C 0.60630 0.39267 0.63939
 C1418 C 0.62360 0.37517 0.65785
 C1419 C 0.59986 0.42322 0.58421
 C1420 C 0.58328 0.43772 0.56839
 C1421 C 0.67023 0.35205 0.65897
 C1422 C 0.68456 0.33527 0.67471
 H1423 H 0.65142 0.43995 0.61101
 H1424 H 0.68363 0.40738 0.64538
 H1425 H 0.65334 0.34297 0.58744
 H1426 H 0.62122 0.37547 0.55318
 H1427 H 0.58554 0.39752 0.64913
 H1428 H 0.61767 0.36504 0.68339
 C1429 C 0.11867 0.09589 0.39695
 C1430 C 0.12047 0.09007 0.35539
 C1431 C 0.13781 0.10763 0.33702
 C1432 C 0.15167 0.12932 0.36199
 C1433 C 0.16616 0.11242 0.39230
 C1434 C 0.14881 0.09484 0.41069
 C1435 C 0.11026 0.12654 0.39988
 C1436 C 0.12757 0.14407 0.38155
 C1437 C 0.09957 0.07730 0.41661
 C1438 C 0.08301 0.06272 0.43231
 C1439 C 0.17000 0.14865 0.34229
 C1440 C 0.18433 0.16541 0.32655
 H1441 H 0.10916 0.07356 0.34161
 H1442 H 0.14134 0.10616 0.30753
 H1443 H 0.18811 0.11409 0.39872
 H1444 H 0.15589 0.08147 0.43286
 H1445 H 0.09228 0.13385 0.41510
 H1446 H 0.12439 0.16638 0.38106
 C1447 C 0.38155 0.90414 0.89626
 C1448 C 0.39627 0.87881 0.87964
 C1449 C 0.37893 0.86123 0.86140
 C1450 C 0.34851 0.87065 0.86148
 C1451 C 0.34894 0.90013 0.84544
 C1452 C 0.36632 0.91775 0.86374
 C1453 C 0.35850 0.89206 0.92065
 C1454 C 0.34113 0.87445 0.90236
 C1455 C 0.40066 0.92276 0.91583
 C1456 C 0.41724 0.93734 0.93152
 C1457 C 0.33016 0.85127 0.84192
 C1458 C 0.31579 0.83445 0.82632
 H1459 H 0.41842 0.87500 0.88201
 H1460 H 0.38624 0.84239 0.84814
 H1461 H 0.33666 0.90659 0.82187
 H1462 H 0.36893 0.93932 0.85583
 H1463 H 0.35601 0.89694 0.94968
 H1464 H 0.32375 0.86425 0.91575
 C1465 C 0.12062 0.90171 0.61191
 C1466 C 0.15135 0.90686 0.60304
 C1467 C 0.16901 0.88951 0.62134
 C1468 C 0.15417 0.86874 0.64669
 C1469 C 0.13343 0.85358 0.62165
 C1470 C 0.11582 0.87088 0.60340
 C1471 C 0.11858 0.90397 0.65405
 C1472 C 0.13622 0.88664 0.67233
 C1473 C 0.10121 0.92002 0.59232
 C1474 C 0.08439 0.93434 0.57669
 C1475 C 0.17281 0.84966 0.66625
 C1476 C 0.18742 0.83309 0.68190
 H1477 H 0.15860 0.92272 0.58412
 H1478 H 0.19139 0.89052 0.61810
 H1479 H 0.13266 0.83118 0.61849
 H1480 H 0.09999 0.86329 0.58462
 H1481 H 0.10457 0.91799 0.66829
 H1482 H 0.13730 0.88583 0.70221
 C1483 C 0.62061 0.59803 0.38775
 C1484 C 0.61878 0.59550 0.34561
 C1485 C 0.63647 0.61272 0.32729
 C1486 C 0.65429 0.63082 0.35287
 C1487 C 0.66903 0.61024 0.37861
 C1488 C 0.65132 0.59299 0.39696
 C1489 C 0.61574 0.62892 0.39584
 C1490 C 0.63340 0.64612 0.37755
 C1491 C 0.60115 0.57982 0.40742
 C1492 C 0.58431 0.56555 0.42313
 C1493 C 0.67301 0.64982 0.33326
 C1494 C 0.68765 0.66637 0.31763
 H1495 H 0.60485 0.58136 0.33142
 H1496 H 0.63769 0.61333 0.29741
 H1497 H 0.69140 0.60927 0.38207
 H1498 H 0.65851 0.57727 0.41613
 H1499 H 0.59980 0.63662 0.41437
 H1500 H 0.63257 0.66854 0.38042
 C1501 C 0.37945 0.09782 0.11181
 C1502 C 0.38249 0.12842 0.10083
 C1503 C 0.36481 0.14569 0.11902
 C1504 C 0.34575 0.13074 0.14647
 C1505 C 0.36545 0.11476 0.17207
 C1506 C 0.38316 0.09746 0.15386
 C1507 C 0.34869 0.09098 0.10542
 C1508 C 0.33096 0.10830 0.12366
 C1509 C 0.39893 0.07955 0.09229
 C1510 C 0.41580 0.06525 0.07667
 C1511 C 0.32703 0.14980 0.16595
 C1512 C 0.31236 0.16637 0.18151
 H1513 H 0.39724 0.13588 0.08050
 H1514 H 0.36443 0.16794 0.11424
 H1515 H 0.36544 0.11679 0.20188
 H1516 H 0.39832 0.08469 0.16809
 H1517 H 0.34149 0.07403 0.08816
 H1518 H 0.30856 0.10618 0.12202
 C1519 C 0.88071 0.40302 0.88758
 C1520 C 0.88666 0.37217 0.89449
 C1521 C 0.86899 0.35473 0.87653
 C1522 C 0.84699 0.36978 0.85333
 C1523 C 0.86356 0.38878 0.82747
 C1524 C 0.88126 0.40624 0.84546
 C1525 C 0.85014 0.40701 0.89838
 C1526 C 0.83242 0.38953 0.88038
 C1527 C 0.90022 0.42149 0.90689
 C1528 C 0.91716 0.43589 0.92232
 C1529 C 0.82823 0.35054 0.83404
 C1530 C 0.81349 0.33391 0.81860
 H1531 H 0.90333 0.36465 0.91200
 H1532 H 0.87054 0.33231 0.87868
 H1533 H 0.86152 0.38858 0.79767
 H1534 H 0.89438 0.42098 0.83103
 H1535 H 0.84305 0.42223 0.91835
 H1536 H 0.81015 0.38980 0.88494
 C1537 C 0.62300 0.09373 0.89163
 C1538 C 0.62192 0.09287 0.84938
 C1539 C 0.63980 0.11093 0.83297
 C1540 C 0.65698 0.12806 0.86045
 C1541 C 0.67147 0.10658 0.88509
 C1542 C 0.65355 0.08848 0.90154
 C1543 C 0.61772 0.12419 0.90183
 C1544 C 0.63556 0.14222 0.88544
 C1545 C 0.60331 0.07488 0.90939
 C1546 C 0.58621 0.06064 0.92443
 C1547 C 0.67562 0.14792 0.84267
 C1548 C 0.68972 0.16509 0.82754
 H1549 H 0.60838 0.07922 0.83374
 H1550 H 0.64159 0.11277 0.80324
 H1551 H 0.69377 0.10565 0.88922
 H1552 H 0.66049 0.07202 0.91977
 H1553 H 0.60139 0.13101 0.92037
 H1554 H 0.63453 0.16448 0.88995
 C1555 C 0.37700 0.59292 0.60916
 C1556 C 0.37561 0.62150 0.59060
 C1557 C 0.35772 0.63938 0.60726
 C1558 C 0.34295 0.62694 0.64085
 C1559 C 0.36635 0.61681 0.66623
 C1560 C 0.38426 0.59892 0.64956
 C1561 C 0.34689 0.58247 0.60982
 C1562 C 0.32893 0.60041 0.62654
 C1563 C 0.39675 0.57428 0.59112
 C1564 C 0.41389 0.56022 0.57586
 C1565 C 0.32429 0.64667 0.65888
 C1566 C 0.31023 0.66383 0.67412
 H1567 H 0.38759 0.62718 0.56640
 H1568 H 0.35436 0.66037 0.59735
 H1569 H 0.36860 0.62307 0.69483
 H1570 H 0.40186 0.58984 0.66386
 H1571 H 0.34028 0.56276 0.59824
 H1572 H 0.30691 0.59611 0.62930
 C1573 C 0.12194 0.40607 0.10750
 C1574 C 0.15241 0.41531 0.10558
 C1575 C 0.17030 0.39734 0.12239
 C1576 C 0.15587 0.37198 0.13939
 C1577 C 0.13940 0.35886 0.10766
 C1578 C 0.12158 0.37676 0.09091
 C1579 C 0.11599 0.40194 0.14868
 C1580 C 0.13384 0.38402 0.16544
 C1581 C 0.10228 0.42481 0.08934
 C1582 C 0.08526 0.43901 0.07400
 C1583 C 0.17453 0.35224 0.15753
 C1584 C 0.18868 0.33517 0.17285
 H1585 H 0.15932 0.43426 0.09226
 H1586 H 0.19254 0.40088 0.12348
 H1587 H 0.14160 0.33738 0.09903
 H1588 H 0.10850 0.37061 0.06793
 H1589 H 0.09930 0.41225 0.16340
 H1590 H 0.13243 0.37898 0.19455
 C1591 C 0.87710 0.90684 0.39081
 C1592 C 0.88717 0.87663 0.39079
 C1593 C 0.86926 0.85874 0.37423
 C1594 C 0.84299 0.87278 0.35928
 C1595 C 0.85354 0.89578 0.33358
 C1596 C 0.87150 0.91372 0.35019
 C1597 C 0.84835 0.90600 0.40905
 C1598 C 0.83037 0.88804 0.39243
 C1599 C 0.89686 0.92552 0.40877
 C1600 C 0.91399 0.93962 0.42401
 C1601 C 0.82429 0.85303 0.34133
 C1602 C 0.81018 0.83589 0.32613
 H1603 H 0.90669 0.86986 0.40277
 H1604 H 0.87343 0.83665 0.37203
 H1605 H 0.84739 0.89784 0.30492
 H1606 H 0.88076 0.93116 0.33578
 H1607 H 0.84261 0.91843 0.43283
 H1608 H 0.80922 0.88507 0.40195
 C1609 C 0.87985 0.59797 0.61239
 C1610 C 0.88290 0.62858 0.60149
 C1611 C 0.86530 0.64584 0.61984
 C1612 C 0.84632 0.63086 0.64735
 C1613 C 0.86608 0.61480 0.67279
 C1614 C 0.88370 0.59752 0.65441
 C1615 C 0.84906 0.59118 0.60616
 C1616 C 0.83141 0.60849 0.62456
 C1617 C 0.89924 0.57971 0.59270
 C1618 C 0.91604 0.56541 0.57696
 C1619 C 0.82768 0.64990 0.66701
 C1620 C 0.81309 0.66646 0.68273
 H1621 H 0.89758 0.63606 0.58109
 H1622 H 0.86493 0.66810 0.61515
 H1623 H 0.86618 0.61678 0.70260
 H1624 H 0.89889 0.58470 0.66851
 H1625 H 0.84177 0.57427 0.58888
 H1626 H 0.80900 0.60640 0.62305
 C1627 C 0.62042 0.40137 0.11183
 C1628 C 0.65116 0.40667 0.10310
 C1629 C 0.66885 0.38938 0.12144
 C1630 C 0.65405 0.36851 0.14668
 C1631 C 0.63345 0.35328 0.12151
 C1632 C 0.61580 0.37052 0.10322
 C1633 C 0.61828 0.40356 0.15397
 C1634 C 0.63595 0.38629 0.17228
 C1635 C 0.60099 0.41962 0.09220
 C1636 C 0.58416 0.43394 0.07654
 C1637 C 0.67274 0.34949 0.16628
 C1638 C 0.68739 0.33297 0.18195
 H1639 H 0.65838 0.42259 0.08425
 H1640 H 0.69123 0.39051 0.11829
 H1641 H 0.63279 0.33088 0.11830
 H1642 H 0.60005 0.36288 0.08436
 H1643 H 0.60416 0.41750 0.16818
 H1644 H 0.63697 0.38545 0.20216
 C1645 C 0.37955 0.90151 0.38837
 C1646 C 0.38573 0.87062 0.39470
 C1647 C 0.36826 0.85326 0.37627
 C1648 C 0.34624 0.86839 0.35322
 C1649 C 0.36275 0.88781 0.32787
 C1650 C 0.38024 0.90520 0.34632
 C1651 C 0.34891 0.90513 0.39904
 C1652 C 0.33140 0.88772 0.38056
 C1653 C 0.39882 0.91992 0.40818
 C1654 C 0.41555 0.93433 0.42399
 C1655 C 0.32769 0.84922 0.33345
 C1656 C 0.31310 0.83265 0.31765
 H1657 H 0.40238 0.86304 0.41218
 H1658 H 0.36998 0.83082 0.37799
 H1659 H 0.36083 0.88793 0.29805
 H1660 H 0.39329 0.92021 0.33229
 H1661 H 0.34162 0.92006 0.41926
 H1662 H 0.30911 0.88775 0.38497
 C1663 C 0.12018 0.09868 0.88809
 C1664 C 0.11843 0.09606 0.84595
 C1665 C 0.13596 0.11345 0.82761
 C1666 C 0.15354 0.13177 0.85318
 C1667 C 0.16848 0.11139 0.87901
 C1668 C 0.15093 0.09398 0.89737
 C1669 C 0.11497 0.12952 0.89608
 C1670 C 0.13247 0.14688 0.87778
 C1671 C 0.10089 0.08029 0.90775
 C1672 C 0.08415 0.06589 0.92343
 C1673 C 0.17209 0.15092 0.83356
 C1674 C 0.18663 0.16754 0.81788
 H1675 H 0.10467 0.08175 0.83176
 H1676 H 0.13720 0.11403 0.79774
 H1677 H 0.19085 0.11067 0.88251
 H1678 H 0.15827 0.07836 0.91659
 H1679 H 0.09893 0.13708 0.91456
 H1680 H 0.13140 0.16930 0.88059
 C1681 C 0.11909 0.90414 0.10292
 C1682 C 0.14625 0.91784 0.11567
 C1683 C 0.16360 0.90018 0.13401
 C1684 C 0.15205 0.87060 0.13776
 C1685 C 0.14549 0.86140 0.09817
 C1686 C 0.12818 0.87902 0.07987
 C1687 C 0.10635 0.89174 0.13801
 C1688 C 0.12365 0.87413 0.15630
 C1689 C 0.10000 0.92278 0.08333
 C1690 C 0.08341 0.93738 0.06768
 C1691 C 0.17035 0.85118 0.15737
 C1692 C 0.18467 0.83434 0.17299
 H1693 H 0.15140 0.93945 0.11072
 H1694 H 0.18360 0.90667 0.14476
 H1695 H 0.15377 0.84270 0.08557
 H1696 H 0.12166 0.87541 0.05162
 H1697 H 0.08554 0.89642 0.14770
 H1698 H 0.11766 0.86374 0.18162
 C1699 C 0.88129 0.40422 0.39655
 C1700 C 0.89604 0.37877 0.38025
 C1701 C 0.87875 0.36117 0.36197
 C1702 C 0.84835 0.37067 0.36170
 C1703 C 0.84895 0.40009 0.34546
 C1704 C 0.86628 0.41774 0.36379
 C1705 C 0.85808 0.39230 0.42080
 C1706 C 0.84076 0.37466 0.40248
 C1707 C 0.90037 0.42285 0.41616
 C1708 C 0.91695 0.43744 0.43183
 C1709 C 0.83005 0.35127 0.34209
 C1710 C 0.81573 0.33443 0.32646
 H1711 H 0.91816 0.37491 0.38285
 H1712 H 0.88607 0.34225 0.34891
 H1713 H 0.83681 0.40649 0.32172
 H1714 H 0.86899 0.43927 0.35575
 H1715 H 0.85546 0.39730 0.44978
 H1716 H 0.82328 0.36456 0.41577
 C1717 C 0.38099 0.09658 0.60378
 C1718 C 0.37108 0.12112 0.58025
 C1719 C 0.35380 0.13881 0.59852
 C1720 C 0.34807 0.13027 0.63858
 C1721 C 0.37685 0.12754 0.65635
 C1722 C 0.39413 0.10986 0.63809
 C1723 C 0.35429 0.08272 0.61777
 C1724 C 0.33697 0.10044 0.63607
 C1725 C 0.40006 0.07782 0.58420
 C1726 C 0.41661 0.06310 0.56858
 C1727 C 0.32975 0.14975 0.65818
 C1728 C 0.31536 0.16658 0.67382
 H1729 H 0.37706 0.12430 0.55171
 H1730 H 0.34500 0.15713 0.58559
 H1731 H 0.38312 0.13850 0.68115
 H1732 H 0.41517 0.10571 0.64729
 H1733 H 0.34940 0.06094 0.61365
 H1734 H 0.31727 0.09383 0.64762
 C1735 C 0.61919 0.59574 0.89772
 C1736 C 0.62156 0.58971 0.85626
 C1737 C 0.63903 0.60728 0.83813
 C1738 C 0.65245 0.62917 0.86321
 C1739 C 0.66665 0.61251 0.89401
 C1740 C 0.64915 0.59493 0.91216
 C1741 C 0.61058 0.62636 0.90018
 C1742 C 0.62803 0.64389 0.88208
 C1743 C 0.59995 0.57715 0.91714
 C1744 C 0.58329 0.56257 0.93266
 C1745 C 0.67092 0.64851 0.84376
 C1746 C 0.68535 0.66528 0.82819
 H1747 H 0.61052 0.57307 0.84238
 H1748 H 0.64296 0.60568 0.80874
 H1749 H 0.68850 0.61434 0.90091
 H1750 H 0.65602 0.58171 0.93461
 H1751 H 0.59236 0.63364 0.91492
 H1752 H 0.62473 0.66618 0.88132
 C1753 C 0.37659 0.40766 0.89044
 C1754 C 0.38651 0.37741 0.89008
 C1755 C 0.36841 0.35968 0.87359
 C1756 C 0.34211 0.37390 0.85903
 C1757 C 0.35261 0.39697 0.83339
 C1758 C 0.37077 0.41475 0.84993
 C1759 C 0.34794 0.40688 0.90899
 C1760 C 0.32978 0.38908 0.89244
 C1761 C 0.39654 0.42616 0.90835
 C1762 C 0.41379 0.44011 0.92359
 C1763 C 0.32322 0.35430 0.84117
 C1764 C 0.30901 0.33720 0.82605
 H1765 H 0.40607 0.37049 0.90179
 H1766 H 0.37246 0.33758 0.87117
 H1767 H 0.34629 0.39918 0.80481
 H1768 H 0.38002 0.43220 0.83556
 H1769 H 0.34241 0.41923 0.93293
 H1770 H 0.30867 0.38617 0.90216
 C1771 C 0.87714 0.09272 0.10968
 C1772 C 0.87559 0.12120 0.09086
 C1773 C 0.85769 0.13911 0.10744
 C1774 C 0.84307 0.12680 0.14122
 C1775 C 0.86658 0.11689 0.16657
 C1776 C 0.88449 0.09897 0.14998
 C1777 C 0.84706 0.08217 0.11060
 C1778 C 0.82909 0.10015 0.12724
 C1779 C 0.89689 0.07405 0.09170
 C1780 C 0.91403 0.05997 0.07645
 C1781 C 0.82439 0.14657 0.15917
 C1782 C 0.81031 0.16374 0.17435
 H1783 H 0.88748 0.12678 0.06654
 H1784 H 0.85423 0.16004 0.09734
 H1785 H 0.86889 0.12331 0.19511
 H1786 H 0.90216 0.09002 0.16427
 H1787 H 0.84048 0.06238 0.09925
 H1788 H 0.80709 0.09579 0.13016
 C1789 C 0.62223 0.90629 0.61102
 C1790 C 0.65279 0.91495 0.60744
 C1791 C 0.67080 0.89699 0.62402
 C1792 C 0.65639 0.87220 0.64248
 C1793 C 0.63890 0.85880 0.61195
 C1794 C 0.62096 0.87670 0.59543
 C1795 C 0.61727 0.90302 0.65257
 C1796 C 0.63524 0.88509 0.66911
 C1797 C 0.60245 0.92502 0.59308
 C1798 C 0.58537 0.93921 0.57784
 C1799 C 0.67518 0.85245 0.66038
 C1800 C 0.68943 0.83536 0.67549
 H1801 H 0.65966 0.93353 0.59320
 H1802 H 0.69310 0.90016 0.62400
 H1803 H 0.64050 0.83713 0.60394
 H1804 H 0.60719 0.87036 0.57326
 H1805 H 0.60114 0.91389 0.66768
 H1806 H 0.63450 0.88061 0.69842
 C1807 C 0.12285 0.59304 0.39027
 C1808 C 0.12173 0.59184 0.34803
 C1809 C 0.13964 0.60972 0.33133
 C1810 C 0.15688 0.62703 0.35854
 C1811 C 0.17135 0.60572 0.38347
 C1812 C 0.15340 0.58780 0.40020
 C1813 C 0.11765 0.62359 0.40003
 C1814 C 0.13552 0.64144 0.38337
 C1815 C 0.10314 0.57440 0.40834
 C1816 C 0.08604 0.56032 0.42363
 C1817 C 0.17555 0.64673 0.34049
 C1818 C 0.18966 0.66382 0.32524
 H1819 H 0.10815 0.57810 0.33261
 H1820 H 0.14141 0.61132 0.30157
 H1821 H 0.19365 0.60477 0.38757
 H1822 H 0.16032 0.57148 0.41866
 H1823 H 0.10136 0.63061 0.41850
 H1824 H 0.13455 0.66374 0.38755
   
