data_POSCAR
  _audit_creation_date              2014-09-24
  _audit_creation_method            'ToBaCCo'
  _symmetry_space_group_name_H-M    'P1'
  _symmetry_Int_Tables_number       1
  _symmetry_cell_setting            triclinic
  loop_
  _symmetry_equiv_pos_as_xyz
 x,y,z
_cell_length_a 35.1337
_cell_length_b 35.1215
_cell_length_c 35.1139
_cell_angle_alpha 90.045100
_cell_angle_beta 90.040900
_cell_angle_gamma 89.993800
loop_
  _atom_site_label
  _atom_site_type_symbol
  _atom_site_fract_x
  _atom_site_fract_y
  _atom_site_fract_z
O1 O 0.21500 1.03654 0.03702
 O2 O 0.21535 0.96403 -0.03878
 O3 O 0.21545 0.96250 0.03533
 O4 O 0.21340 1.03820 -0.03698
 O5 O 0.27620 1.03746 -0.03918
 O6 O 0.27823 0.96514 0.03632
 O7 O 0.27815 0.96344 -0.03761
 O8 O 0.27777 1.03892 0.03478
 Cu9 Cu 0.20845 1.00021 -0.00082
 Cu10 Cu 0.28390 1.00134 -0.00154
 C11 C 0.24639 1.05028 0.04862
 C12 C 0.24688 0.95108 -0.05095
 C13 C 0.24717 0.95130 0.04856
 C14 C 0.24449 1.05059 -0.05057
 O15 O 0.71614 0.53622 0.53892
 O16 O 0.71668 0.46408 0.46283
 O17 O 0.71637 0.46214 0.53682
 O18 O 0.71525 0.53820 0.46462
 O19 O 0.77806 0.53736 0.46300
 O20 O 0.77916 0.46443 0.53820
 O21 O 0.77951 0.46333 0.46420
 O22 O 0.77892 0.53839 0.53710
 Cu23 Cu 0.70977 0.50014 0.50080
 Cu24 Cu 0.78522 0.50098 0.50059
 C25 C 0.74749 0.54973 0.55087
 C26 C 0.74823 0.45112 0.45082
 C27 C 0.74795 0.45064 0.55017
 C28 C 0.74648 0.55047 0.45119
 O29 O 0.71934 0.96238 1.03851
 O30 O 0.71793 1.03827 0.96635
 O31 O 0.71895 0.96425 0.96442
 O32 O 0.71872 1.03644 1.04027
 O33 O 0.78146 1.03863 1.03850
 O34 O 0.78176 0.96320 0.96554
 O35 O 0.78073 1.03740 0.96434
 O36 O 0.78209 0.96455 1.03971
 Cu37 Cu 0.71244 1.00025 1.00244
 Cu38 Cu 0.78783 1.00101 1.00197
 C39 C 0.75091 0.95080 1.05186
 C40 C 0.74909 1.05060 0.95282
 C41 C 0.75036 0.95120 0.95219
 C42 C 0.75001 1.05017 1.05218
 O43 O 0.21894 0.46420 0.53623
 O44 O 0.21862 0.53900 0.46324
 O45 O 0.21906 0.46497 0.46210
 O46 O 0.21923 0.53814 0.53709
 O47 O 0.28205 0.53939 0.53581
 O48 O 0.28188 0.46356 0.46328
 O49 O 0.28144 0.53776 0.46171
 O50 O 0.28177 0.46534 0.53734
 Cu51 Cu 0.21265 0.50154 0.49967
 Cu52 Cu 0.28812 0.50152 0.49949
 C53 C 0.25036 0.45226 0.54952
 C54 C 0.24995 0.55106 0.44990
 C55 C 0.25042 0.45162 0.45000
 C56 C 0.25065 0.55145 0.54908
 O57 O 1.03453 0.28012 0.03690
 O58 O 0.96198 0.27820 -0.03825
 O59 O 0.96083 0.27755 0.03569
 O60 O 1.03605 0.27810 -0.03715
 O61 O 1.03533 0.21525 -0.03828
 O62 O 0.96357 0.21476 0.03777
 O63 O 0.96132 0.21539 -0.03643
 O64 O 1.03740 0.21733 0.03586
 Cu65 Cu 0.99826 0.28481 -0.00081
 Cu66 Cu 0.99951 0.20935 -0.00025
 C67 C 1.04844 0.24913 0.04918
 C68 C 0.94885 0.24659 -0.04994
 C69 C 0.94984 0.24603 0.04961
 C70 C 1.04816 0.24672 -0.05052
 O71 O 0.53722 0.77834 0.53776
 O72 O 0.46481 0.77841 0.46218
 O73 O 0.46332 0.77781 0.53630
 O74 O 0.53877 0.77861 0.46371
 O75 O 0.53776 0.71578 0.46182
 O76 O 0.46515 0.71499 0.53756
 O77 O 0.46360 0.71556 0.46320
 O78 O 0.53917 0.71552 0.53587
 Cu79 Cu 0.50097 0.78460 0.50001
 Cu80 Cu 0.50140 0.70913 0.49955
 C81 C 0.55087 0.74697 0.54941
 C82 C 0.45157 0.74703 0.45003
 C83 C 0.45175 0.74631 0.54975
 C84 C 0.55098 0.74736 0.45017
 O85 O 0.03937 0.72222 -0.03761
 O86 O -0.03598 0.72203 0.03513
 O87 O -0.03472 0.72108 -0.03900
 O88 O 0.03785 0.72315 0.03641
 O89 O 0.03819 0.78599 0.03461
 O90 O -0.03678 0.78387 -0.03884
 O91 O -0.03627 0.78490 0.03506
 O92 O 0.03734 0.78498 -0.03953
 Cu93 Cu 0.00172 0.71583 -0.00122
 Cu94 Cu 0.00056 0.79125 -0.00222
 C95 C 0.05109 0.75361 -0.05124
 C96 C -0.04893 0.75343 0.04759
 C97 C -0.04840 0.75208 -0.05168
 C98 C 0.05074 0.75486 0.04809
 O99 O 0.53597 0.21751 0.46306
 O100 O 0.46339 0.21800 0.53798
 O101 O 0.46186 0.21860 0.46422
 O102 O 0.53723 0.21984 0.53716
 O103 O 0.53547 0.28268 0.53783
 O104 O 0.46332 0.28141 0.46196
 O105 O 0.46135 0.28080 0.53590
 O106 O 0.53746 0.28036 0.46384
 Cu107 Cu 0.49971 0.21217 0.50063
 Cu108 Cu 0.49939 0.28765 0.49981
 C109 C 0.54934 0.24875 0.45082
 C110 C 0.44971 0.24937 0.54952
 C111 C 0.44978 0.24988 0.45061
 C112 C 0.54892 0.25152 0.55022
 O113 O 1.03667 0.03659 0.21751
 O114 O 0.96423 -0.03942 0.21597
 O115 O 0.96253 0.03471 0.21499
 O116 O 1.03829 -0.03749 0.21609
 O117 O 1.03550 -0.03948 0.27888
 O118 O 0.96321 0.03629 0.27784
 O119 O 0.96159 -0.03771 0.27873
 O120 O 1.03728 0.03453 0.28034
 Cu121 Cu 1.00053 -0.00136 0.20981
 Cu122 Cu 0.99929 -0.00158 0.28525
 C123 C 1.04974 0.04812 0.24926
 C124 C 0.95033 -0.05140 0.24718
 C125 C 0.95015 0.04805 0.24622
 C126 C 1.04944 -0.05122 0.24762
 O127 O 0.53615 0.53680 0.71715
 O128 O 0.46359 0.46107 0.71785
 O129 O 0.46210 0.53506 0.71549
 O130 O 0.53773 0.46255 0.71711
 O131 O 0.53568 0.46169 0.77994
 O132 O 0.46343 0.53773 0.77830
 O133 O 0.46168 0.46390 0.78064
 O134 O 0.53737 0.53585 0.78001
 Cu135 Cu 0.49998 0.49874 0.71057
 Cu136 Cu 0.49956 0.49988 0.78603
 C137 C 0.54926 0.54908 0.74858
 C138 C 0.44984 0.45003 0.74943
 C139 C 0.45007 0.54900 0.74661
 C140 C 0.54923 0.44932 0.74874
 O141 O 0.96211 1.03749 0.72160
 O142 O 1.03443 0.96204 0.72030
 O143 O 0.96057 0.96358 0.72341
 O144 O 1.03607 1.03601 0.72118
 O145 O 1.03587 1.03804 0.78403
 O146 O 0.96361 0.96244 0.78622
 O147 O 1.03765 0.96387 0.78307
 O148 O 0.96177 1.03645 0.78444
 Cu149 Cu 0.99815 0.99974 0.71532
 Cu150 Cu 0.99990 1.00025 0.79077
 C151 C 0.94911 1.04954 0.75312
 C152 C 1.04864 0.95026 0.75136
 C153 C 0.94950 0.95037 0.75520
 C154 C 1.04866 1.04961 0.75228
 O155 O 0.46473 0.53665 0.22041
 O156 O 0.53779 0.46196 0.22201
 O157 O 0.46403 0.46234 0.22131
 O158 O 0.53876 0.53572 0.22238
 O159 O 0.53687 0.53688 0.28523
 O160 O 0.46281 0.46266 0.28418
 O161 O 0.53694 0.46242 0.28490
 O162 O 0.46282 0.53639 0.28327
 Cu163 Cu 0.50138 0.49918 0.21521
 Cu164 Cu 0.49983 0.49962 0.29074
 C165 C 0.45112 0.54911 0.25150
 C166 C 0.54985 0.44945 0.25368
 C167 C 0.45085 0.44978 0.25256
 C168 C 0.55041 0.54900 0.25397
 O169 O 0.24901 0.15213 0.19620
 O170 O 0.29137 0.14057 0.24841
 O171 O 0.15052 0.19777 0.24927
 O172 O 0.13656 0.24592 0.28852
 O173 O 0.19735 0.25040 0.15059
 O174 O 0.24887 0.29356 0.14046
 O175 O 0.25215 0.30155 0.34915
 O176 O 0.20723 0.25261 0.35938
 O177 O 0.34788 0.25242 0.30193
 O178 O 0.36117 0.21069 0.24914
 O179 O 0.30099 0.34918 0.25323
 O180 O 0.24772 0.36182 0.21027
 O181 O 0.24968 0.34783 0.30399
 O182 O 0.20571 0.35925 0.24908
 O183 O 0.34707 0.30382 0.25095
 O184 O 0.35769 0.24832 0.20610
 O185 O 0.30255 0.25027 0.34804
 O186 O 0.24941 0.20626 0.35890
 O187 O 0.25100 0.19838 0.15087
 O188 O 0.29259 0.25243 0.14089
 O189 O 0.15129 0.25118 0.19611
 O190 O 0.14229 0.29522 0.25016
 O191 O 0.19629 0.15191 0.24998
 O192 O 0.24996 0.14092 0.29166
 Zr193 Zr 0.24800 0.18230 0.24800
 O194 O 0.28392 0.21463 0.28345
 Zr195 Zr 0.18116 0.24915 0.24820
 O196 O 0.21366 0.28393 0.28488
 Zr197 Zr 0.24841 0.24971 0.18166
 O198 O 0.28339 0.28550 0.21465
 Zr199 Zr 0.25076 0.25055 0.31786
 O200 O 0.21431 0.21522 0.28515
 Zr201 Zr 0.31721 0.25188 0.25061
 O202 O 0.28506 0.21569 0.21466
 Zr203 Zr 0.24981 0.31826 0.25186
 O204 O 0.21443 0.28619 0.21495
 O205 O 0.21294 0.21417 0.21277
 O206 O 0.28594 0.28689 0.28690
 C207 C 0.25074 0.16333 0.16138
 C208 C 0.16131 0.16278 0.24983
 C209 C 0.16237 0.25099 0.16119
 C210 C 0.25128 0.33660 0.33877
 C211 C 0.33737 0.25156 0.33693
 C212 C 0.33598 0.33865 0.25251
 H213 H 0.29994 0.19726 0.29871
 H214 H 0.29893 0.30155 0.19757
 H215 H 0.19678 0.19787 0.19640
 H216 H 0.19659 0.29917 0.30128
 H217 H 0.18712 0.23476 0.35088
 H218 H 0.14459 0.26066 0.31115
 H219 H 0.35437 0.27086 0.18955
 H220 H 0.31209 0.23370 0.14883
 H221 H 0.27000 0.18800 0.35297
 H222 H 0.23168 0.14923 0.31143
 H223 H 0.26664 0.35559 0.19039
 H224 H 0.23146 0.31361 0.14992
 H225 H 0.31156 0.14989 0.23111
 H226 H 0.35356 0.18948 0.26601
 H227 H 0.14947 0.31300 0.22952
 H228 H 0.18819 0.35459 0.27062
 O229 O 0.75031 0.84822 0.19642
 O230 O 0.70774 0.85861 0.24883
 O231 O 0.84925 0.80299 0.24907
 O232 O 0.86343 0.75457 0.28815
 O233 O 0.80322 0.75013 0.14980
 O234 O 0.75124 0.70724 0.13915
 O235 O 0.74886 0.69705 0.34756
 O236 O 0.79380 0.74637 0.35810
 O237 O 0.65267 0.74666 0.30151
 O238 O 0.63998 0.78959 0.24763
 O239 O 0.69974 0.65037 0.24990
 O240 O 0.75386 0.63882 0.20758
 O241 O 0.75077 0.65129 0.30177
 O242 O 0.79492 0.64049 0.24723
 O243 O 0.65346 0.69554 0.25137
 O244 O 0.64146 0.74969 0.20639
 O245 O 0.69826 0.74771 0.34746
 O246 O 0.75066 0.79203 0.35891
 O247 O 0.74890 0.80246 0.15049
 O248 O 0.70787 0.74860 0.13972
 O249 O 0.84909 0.74982 0.19558
 O250 O 0.85857 0.70569 0.24879
 O251 O 0.80301 0.84837 0.25014
 O252 O 0.74959 0.85867 0.29178
 Zr253 Zr 0.75169 0.81751 0.24786
 O254 O 0.71625 0.78459 0.28320
 Zr255 Zr 0.81911 0.75127 0.24745
 O256 O 0.78692 0.71568 0.28351
 Zr257 Zr 0.75191 0.75081 0.18072
 O258 O 0.71704 0.71462 0.21337
 Zr259 Zr 0.74979 0.74845 0.31702
 O260 O 0.78570 0.78456 0.28470
 Zr261 Zr 0.68309 0.74753 0.24998
 O262 O 0.71495 0.78408 0.21417
 Zr263 Zr 0.75086 0.68153 0.25003
 O264 O 0.78611 0.71429 0.21371
 O265 O 0.78710 0.78633 0.21227
 O266 O 0.71474 0.71226 0.28565
 C267 C 0.74875 0.83741 0.16144
 C268 C 0.83807 0.83784 0.25032
 C269 C 0.83818 0.74926 0.16062
 C270 C 0.74980 0.66211 0.33672
 C271 C 0.66338 0.74660 0.33649
 C272 C 0.66470 0.66075 0.25078
 H273 H 0.70020 0.80169 0.29873
 H274 H 0.70153 0.69865 0.19615
 H275 H 0.80316 0.80282 0.19605
 H276 H 0.80411 0.70033 0.29967
 H277 H 0.81334 0.76500 0.35001
 H278 H 0.85580 0.73890 0.31025
 H279 H 0.64579 0.72787 0.18910
 H280 H 0.68761 0.76596 0.14881
 H281 H 0.73024 0.81047 0.35297
 H282 H 0.76755 0.85005 0.31173
 H283 H 0.73466 0.64492 0.18790
 H284 H 0.76919 0.68741 0.14804
 H285 H 0.68770 0.84929 0.23132
 H286 H 0.64581 0.80901 0.26720
 H287 H 0.85100 0.68759 0.22852
 H288 H 0.81263 0.64532 0.26860
 O289 O 0.75087 0.15098 0.80324
 O290 O 0.70870 0.13958 0.75084
 O291 O 0.84929 0.19694 0.74837
 O292 O 0.86354 0.24606 0.71108
 O293 O 0.80310 0.24978 0.84890
 O294 O 0.75092 0.29240 0.85934
 O295 O 0.74748 0.30060 0.65075
 O296 O 0.79299 0.25168 0.64068
 O297 O 0.65208 0.25097 0.69748
 O298 O 0.63947 0.20851 0.75118
 O299 O 0.69840 0.34786 0.74696
 O300 O 0.75163 0.36069 0.78977
 O301 O 0.74963 0.34684 0.69604
 O302 O 0.79368 0.35830 0.75104
 O303 O 0.65245 0.30239 0.74918
 O304 O 0.64143 0.24734 0.79298
 O305 O 0.69761 0.24909 0.65155
 O306 O 0.75032 0.20566 0.64035
 O307 O 0.74951 0.19702 0.84886
 O308 O 0.70777 0.25071 0.85917
 O309 O 0.84886 0.24980 0.80306
 O310 O 0.85733 0.29459 0.74957
 O311 O 0.80374 0.15092 0.75080
 O312 O 0.75085 0.13994 0.70783
 Zr313 Zr 0.75207 0.18128 0.75163
 O314 O 0.71610 0.21349 0.71618
 Zr315 Zr 0.81870 0.24831 0.75121
 O316 O 0.78603 0.28313 0.71483
 Zr317 Zr 0.75173 0.24849 0.81814
 O318 O 0.71644 0.28410 0.78524
 Zr319 Zr 0.74913 0.24958 0.68186
 O320 O 0.78559 0.21423 0.71439
 Zr321 Zr 0.68260 0.25055 0.74910
 O322 O 0.71500 0.21455 0.78509
 Zr323 Zr 0.74973 0.31716 0.74808
 O324 O 0.78538 0.28515 0.78474
 O325 O 0.78725 0.21319 0.78678
 O326 O 0.71373 0.28573 0.71290
 C327 C 0.74990 0.16198 0.83815
 C328 C 0.83861 0.16193 0.74897
 C329 C 0.83802 0.25053 0.83803
 C330 C 0.74810 0.33565 0.66122
 C331 C 0.66275 0.24977 0.66250
 C332 C 0.66343 0.33726 0.74773
 H333 H 0.70019 0.19605 0.70088
 H334 H 0.70086 0.30007 0.80238
 H335 H 0.80355 0.19696 0.80305
 H336 H 0.80300 0.29848 0.69848
 H337 H 0.81277 0.23337 0.64895
 H338 H 0.85512 0.26026 0.68827
 H339 H 0.64593 0.26880 0.81068
 H340 H 0.68808 0.23233 0.85083
 H341 H 0.73087 0.18651 0.64715
 H342 H 0.76957 0.14818 0.68845
 H343 H 0.73285 0.35428 0.80973
 H344 H 0.76832 0.31249 0.84997
 H345 H 0.68834 0.14897 0.76792
 H346 H 0.64594 0.18856 0.73237
 H347 H 0.85019 0.31212 0.77047
 H348 H 0.81115 0.35382 0.72941
 O349 O 0.25147 0.84936 0.80427
 O350 O 0.29353 0.86070 0.75161
 O351 O 0.15265 0.80403 0.74937
 O352 O 0.13822 0.75478 0.71190
 O353 O 0.19913 0.74925 0.84957
 O354 O 0.25218 0.70771 0.85962
 O355 O 0.25335 0.70006 0.65123
 O356 O 0.20769 0.74926 0.64174
 O357 O 0.34921 0.74897 0.69725
 O358 O 0.36149 0.79306 0.75145
 O359 O 0.30372 0.65296 0.74683
 O360 O 0.25002 0.64051 0.79068
 O361 O 0.25187 0.65378 0.69644
 O362 O 0.20887 0.64160 0.75095
 O363 O 0.34949 0.69860 0.74937
 O364 O 0.36140 0.75305 0.79211
 O365 O 0.30331 0.75148 0.65167
 O366 O 0.25078 0.79486 0.64079
 O367 O 0.25224 0.80315 0.84969
 O368 O 0.29448 0.75000 0.85972
 O369 O 0.15308 0.75159 0.80401
 O370 O 0.14420 0.70639 0.75101
 O371 O 0.19838 0.84983 0.75222
 O372 O 0.25073 0.86094 0.70908
 Zr373 Zr 0.24988 0.81929 0.75252
 O374 O 0.28544 0.78719 0.71654
 Zr375 Zr 0.18306 0.75248 0.75210
 O376 O 0.21551 0.71755 0.71558
 Zr377 Zr 0.25043 0.75179 0.81871
 O378 O 0.28568 0.71650 0.78547
 Zr379 Zr 0.25209 0.75112 0.68241
 O380 O 0.21602 0.78656 0.71528
 Zr381 Zr 0.31918 0.75018 0.74917
 O382 O 0.28702 0.78584 0.78568
 Zr383 Zr 0.25215 0.68346 0.74845
 O384 O 0.21654 0.71538 0.78524
 O385 O 0.21484 0.78733 0.78771
 O386 O 0.28779 0.71499 0.71311
 C387 C 0.25248 0.83821 0.83911
 C388 C 0.16346 0.83900 0.75068
 C389 C 0.16411 0.74965 0.83889
 C390 C 0.25309 0.66500 0.66165
 C391 C 0.33825 0.75016 0.66233
 C392 C 0.33866 0.66371 0.74809
 H393 H 0.30121 0.80462 0.70113
 H394 H 0.30140 0.70057 0.80251
 H395 H 0.19865 0.80348 0.80418
 H396 H 0.19842 0.70218 0.69931
 H397 H 0.18816 0.76777 0.65020
 H398 H 0.14624 0.73985 0.68941
 H399 H 0.35581 0.73293 0.81100
 H400 H 0.31411 0.76835 0.85124
 H401 H 0.26989 0.81430 0.64781
 H402 H 0.23212 0.85262 0.68959
 H403 H 0.27060 0.64558 0.80923
 H404 H 0.23511 0.68737 0.85016
 H405 H 0.31394 0.85117 0.76855
 H406 H 0.35642 0.81139 0.73069
 H407 H 0.15177 0.68871 0.77162
 H408 H 0.19020 0.64727 0.73063
 O409 O 0.24888 0.34951 0.69663
 O410 O 0.20752 0.36076 0.74985
 O411 O 0.34765 0.30164 0.74778
 O412 O 0.36123 0.25287 0.78645
 O413 O 0.29904 0.25108 0.64897
 O414 O 0.24618 0.20876 0.63891
 O415 O 0.24628 0.19766 0.84696
 O416 O 0.29264 0.24601 0.85713
 O417 O 0.15068 0.24969 0.80272
 O418 O 0.13804 0.29314 0.74940
 O419 O 0.19489 0.15272 0.74996
 O420 O 0.24786 0.14015 0.70671
 O421 O 0.24678 0.15218 0.80084
 O422 O 0.28969 0.14074 0.74556
 O423 O 0.14963 0.19889 0.75231
 O424 O 0.13821 0.25367 0.70774
 O425 O 0.19699 0.24986 0.84796
 O426 O 0.25041 0.29234 0.85915
 O427 O 0.24580 0.30391 0.65063
 O428 O 0.20363 0.25104 0.64010
 O429 O 0.34547 0.24904 0.69416
 O430 O 0.35467 0.20428 0.74687
 O431 O 0.30257 0.34815 0.74969
 O432 O 0.24997 0.35966 0.79205
 Zr433 Zr 0.25044 0.31862 0.74798
 O434 O 0.21481 0.28635 0.78367
 Zr435 Zr 0.31627 0.25079 0.74636
 O436 O 0.28386 0.21578 0.78265
 Zr437 Zr 0.24818 0.25220 0.68057
 O438 O 0.21294 0.21671 0.71349
 Zr439 Zr 0.24801 0.24927 0.81681
 O440 O 0.28423 0.28473 0.78419
 Zr441 Zr 0.18033 0.25022 0.75076
 O442 O 0.21248 0.28619 0.71467
 Zr443 Zr 0.24660 0.18272 0.74941
 O444 O 0.28208 0.21478 0.71279
 O445 O 0.28456 0.28676 0.71182
 O446 O 0.21171 0.21405 0.78576
 C447 C 0.24652 0.33880 0.66167
 C448 C 0.33735 0.33673 0.74899
 C449 C 0.33411 0.24969 0.65937
 C450 C 0.24649 0.16279 0.83585
 C451 C 0.16195 0.24984 0.83752
 C452 C 0.16014 0.16387 0.75174
 H453 H 0.19941 0.30376 0.79950
 H454 H 0.19681 0.20120 0.69642
 H455 H 0.30070 0.30305 0.69547
 H456 H 0.30094 0.19995 0.79845
 H457 H 0.31241 0.26432 0.84887
 H458 H 0.35363 0.23714 0.80851
 H459 H 0.14155 0.23165 0.69047
 H460 H 0.18378 0.26868 0.64955
 H461 H 0.23100 0.31179 0.85308
 H462 H 0.26809 0.35061 0.81167
 H463 H 0.22869 0.14695 0.68724
 H464 H 0.26419 0.18877 0.64730
 H465 H 0.18694 0.35196 0.73270
 H466 H 0.14470 0.31242 0.76883
 H467 H 0.34657 0.18661 0.72644
 H468 H 0.30785 0.14501 0.76668
 O469 O 0.74953 0.65158 0.69865
 O470 O 0.79254 0.64064 0.75084
 O471 O 0.65117 0.69659 0.75214
 O472 O 0.63726 0.74471 0.79177
 O473 O 0.69681 0.74963 0.65326
 O474 O 0.74858 0.79300 0.64282
 O475 O 0.75186 0.80166 0.85112
 O476 O 0.70737 0.75205 0.86149
 O477 O 0.84821 0.75082 0.80421
 O478 O 0.86074 0.70981 0.74987
 O479 O 0.80080 0.84884 0.75330
 O480 O 0.74634 0.86069 0.71155
 O481 O 0.75031 0.84772 0.80569
 O482 O 0.70581 0.85906 0.75166
 O483 O 0.84701 0.80356 0.75465
 O484 O 0.85857 0.74956 0.70887
 O485 O 0.80280 0.75227 0.85027
 O486 O 0.75079 0.70657 0.86161
 O487 O 0.75103 0.69776 0.65324
 O488 O 0.79196 0.75165 0.64272
 O489 O 0.65112 0.75035 0.69916
 O490 O 0.64194 0.79387 0.75296
 O491 O 0.69737 0.65114 0.75275
 O492 O 0.75093 0.64039 0.79397
 Zr493 Zr 0.74869 0.68187 0.75044
 O494 O 0.78435 0.71444 0.78594
 Zr495 Zr 0.68136 0.74827 0.75091
 O496 O 0.71380 0.78355 0.78713
 Zr497 Zr 0.74822 0.74907 0.68395
 O498 O 0.78333 0.78489 0.71673
 Zr499 Zr 0.75110 0.75051 0.82015
 O500 O 0.71495 0.71467 0.78769
 Zr501 Zr 0.81741 0.75158 0.75286
 O502 O 0.78530 0.71540 0.71686
 Zr503 Zr 0.74971 0.81780 0.75375
 O504 O 0.71420 0.78541 0.71732
 O505 O 0.71313 0.71340 0.71533
 O506 O 0.78606 0.78677 0.78890
 C507 C 0.75100 0.66273 0.66380
 C508 C 0.66235 0.66173 0.75310
 C509 C 0.66192 0.75066 0.66418
 C510 C 0.75153 0.83666 0.84054
 C511 C 0.83764 0.75203 0.83920
 C512 C 0.83581 0.83837 0.75391
 H513 H 0.80045 0.69719 0.80124
 H514 H 0.79875 0.80092 0.69953
 H515 H 0.69695 0.69704 0.69904
 H516 H 0.69673 0.79882 0.80349
 H517 H 0.68787 0.73336 0.85335
 H518 H 0.64519 0.75997 0.81408
 H519 H 0.85455 0.77186 0.69216
 H520 H 0.81228 0.73421 0.65149
 H521 H 0.77212 0.68902 0.85621
 H522 H 0.73367 0.64931 0.81439
 H523 H 0.76533 0.85463 0.69167
 H524 H 0.73031 0.81252 0.65174
 H525 H 0.81216 0.64963 0.73273
 H526 H 0.85406 0.68926 0.76791
 H527 H 0.64948 0.81220 0.73293
 H528 H 0.68818 0.85405 0.77304
 O529 O 0.25280 0.65192 0.30094
 O530 O 0.21028 0.64058 0.24889
 O531 O 0.35056 0.69843 0.24560
 O532 O 0.36453 0.74784 0.20861
 O533 O 0.30511 0.75035 0.34686
 O534 O 0.25313 0.79299 0.35797
 O535 O 0.24802 0.80222 0.14948
 O536 O 0.29280 0.75329 0.13843
 O537 O 0.15264 0.75117 0.19708
 O538 O 0.14078 0.70934 0.25092
 O539 O 0.19939 0.84881 0.24622
 O540 O 0.25289 0.86163 0.28879
 O541 O 0.25005 0.84825 0.19498
 O542 O 0.29464 0.85959 0.24961
 O543 O 0.15360 0.80314 0.24813
 O544 O 0.14325 0.74817 0.29268
 O545 O 0.19766 0.75265 0.15064
 O546 O 0.25014 0.70707 0.13892
 O547 O 0.25153 0.69771 0.34682
 O548 O 0.20998 0.75139 0.35792
 O549 O 0.35052 0.75125 0.30068
 O550 O 0.35839 0.79613 0.24697
 O551 O 0.30509 0.65233 0.24789
 O552 O 0.25188 0.64153 0.20542
 Zr553 Zr 0.25344 0.68251 0.24953
 O554 O 0.21698 0.71475 0.21464
 Zr555 Zr 0.31994 0.74973 0.24900
 O556 O 0.28682 0.78458 0.21308
 Zr557 Zr 0.25355 0.74934 0.31648
 O558 O 0.21787 0.78501 0.28413
 Zr559 Zr 0.24961 0.75115 0.18030
 O560 O 0.28655 0.71582 0.21227
 Zr561 Zr 0.18381 0.75143 0.24823
 O562 O 0.21665 0.71538 0.28364
 Zr563 Zr 0.25079 0.81833 0.24687
 O564 O 0.28686 0.78627 0.28305
 O565 O 0.28887 0.71430 0.28459
 O566 O 0.21451 0.78693 0.21199
 C567 C 0.25194 0.66276 0.33589
 C568 C 0.33990 0.66342 0.24601
 C569 C 0.33993 0.75149 0.33575
 C570 C 0.24837 0.83718 0.16014
 C571 C 0.16292 0.75204 0.16199
 C572 C 0.16448 0.83804 0.24687
 H573 H 0.20092 0.69738 0.19940
 H574 H 0.20240 0.80086 0.30148
 H575 H 0.30536 0.69802 0.30062
 H576 H 0.30362 0.80004 0.19664
 H577 H 0.31274 0.73502 0.14640
 H578 H 0.35554 0.76136 0.18561
 H579 H 0.14736 0.77013 0.30985
 H580 H 0.19016 0.73314 0.34964
 H581 H 0.22877 0.68955 0.14422
 H582 H 0.26980 0.65040 0.18557
 H583 H 0.23427 0.85509 0.30884
 H584 H 0.27039 0.81316 0.34853
 H585 H 0.19021 0.64955 0.26653
 H586 H 0.14741 0.68909 0.23250
 H587 H 0.35152 0.81353 0.26806
 H588 H 0.31186 0.85534 0.22774
 O589 O 0.75077 0.34799 0.30414
 O590 O 0.79247 0.35918 0.25127
 O591 O 0.65179 0.30149 0.25135
 O592 O 0.63759 0.25253 0.21328
 O593 O 0.69951 0.24962 0.35074
 O594 O 0.75187 0.20671 0.36050
 O595 O 0.75247 0.19755 0.15223
 O596 O 0.70648 0.24623 0.14264
 O597 O 0.84827 0.24754 0.19727
 O598 O 0.86113 0.29133 0.25089
 O599 O 0.80347 0.15126 0.24795
 O600 O 0.75057 0.13860 0.29181
 O601 O 0.75145 0.15156 0.19774
 O602 O 0.70850 0.13989 0.25303
 O603 O 0.84909 0.19710 0.24941
 O604 O 0.86093 0.25203 0.29220
 O605 O 0.80200 0.24926 0.15203
 O606 O 0.74902 0.29234 0.14131
 O607 O 0.75306 0.30209 0.34980
 O608 O 0.79484 0.24864 0.35998
 O609 O 0.65319 0.24845 0.30542
 O610 O 0.64389 0.20399 0.25237
 O611 O 0.69741 0.34753 0.25132
 O612 O 0.75003 0.35885 0.20890
 Zr613 Zr 0.74913 0.31746 0.25259
 O614 O 0.78454 0.28522 0.21667
 Zr615 Zr 0.68261 0.25022 0.25328
 O616 O 0.71488 0.21522 0.21672
 Zr617 Zr 0.75047 0.25056 0.31932
 O618 O 0.78555 0.21506 0.28612
 Zr619 Zr 0.75105 0.24876 0.18308
 O620 O 0.71509 0.28423 0.21596
 Zr621 Zr 0.81864 0.24859 0.24935
 O622 O 0.78666 0.28448 0.28575
 Zr623 Zr 0.75189 0.18158 0.24960
 O624 O 0.71651 0.21364 0.28649
 O625 O 0.71448 0.28566 0.28827
 O626 O 0.78714 0.21301 0.21379
 C627 C 0.75273 0.33706 0.33902
 C628 C 0.66253 0.33649 0.25056
 C629 C 0.66445 0.24873 0.34025
 C630 C 0.75241 0.16257 0.16287
 C631 C 0.83700 0.24842 0.16246
 C632 C 0.83836 0.16216 0.24865
 H633 H 0.80011 0.30262 0.20102
 H634 H 0.80146 0.19932 0.30316
 H635 H 0.69837 0.30199 0.30464
 H636 H 0.69775 0.19966 0.20068
 H637 H 0.68683 0.26461 0.15106
 H638 H 0.64533 0.23727 0.19091
 H639 H 0.85618 0.23134 0.31069
 H640 H 0.81454 0.26678 0.35124
 H641 H 0.76866 0.31151 0.14755
 H642 H 0.73168 0.35025 0.18929
 H643 H 0.77013 0.14486 0.31109
 H644 H 0.73413 0.18673 0.35150
 H645 H 0.81302 0.34990 0.26819
 H646 H 0.85512 0.31024 0.23092
 H647 H 0.65186 0.18613 0.27266
 H648 H 0.69033 0.14456 0.23201
 C649 C 0.24695 0.08052 0.07888
 C650 C 0.20808 0.09012 0.09668
 C651 C 0.20979 0.11769 0.12388
 C652 C 0.25005 0.13327 0.13090
 C653 C 0.27434 0.09801 0.14003
 C654 C 0.27256 0.07036 0.11290
 C655 C 0.26229 0.11877 0.06430
 C656 C 0.26395 0.14639 0.09145
 H657 H 0.18148 0.07658 0.08867
 H658 H 0.18469 0.12776 0.13885
 H659 H 0.29147 0.09503 0.16559
 H660 H 0.28802 0.04371 0.11540
 H661 H 0.27113 0.12368 0.03508
 H662 H 0.27447 0.17479 0.08534
 C663 C 0.74788 0.57984 0.58128
 C664 C 0.70935 0.58748 0.60070
 C665 C 0.71080 0.61504 0.62794
 C666 C 0.75048 0.63263 0.63331
 C667 C 0.77684 0.59863 0.64135
 C668 C 0.77532 0.57093 0.61424
 C669 C 0.76071 0.61878 0.56620
 C670 C 0.76209 0.64643 0.59333
 H671 H 0.68322 0.57243 0.59394
 H672 H 0.68596 0.62352 0.64425
 H673 H 0.79507 0.59647 0.66624
 H674 H 0.79212 0.54505 0.61608
 H675 H 0.76814 0.62414 0.53668
 H676 H 0.77096 0.67530 0.58682
 C677 C 0.75094 0.92172 0.08025
 C678 C 0.78971 0.91372 0.09929
 C679 C 0.78852 0.88568 0.12600
 C680 C 0.74892 0.86796 0.13138
 C681 C 0.72262 0.90181 0.14026
 C682 C 0.72384 0.93001 0.11369
 C683 C 0.73799 0.88293 0.06462
 C684 C 0.73695 0.85482 0.09126
 H685 H 0.81584 0.92886 0.09275
 H686 H 0.81353 0.87693 0.14195
 H687 H 0.70467 0.90354 0.16535
 H688 H 0.70705 0.95584 0.11629
 H689 H 0.73023 0.87797 0.03508
 H690 H 0.72806 0.82604 0.08434
 C691 C 0.24989 0.42201 0.57970
 C692 C 0.28904 0.41120 0.59619
 C693 C 0.28745 0.38357 0.62329
 C694 C 0.24702 0.36914 0.63152
 C695 C 0.22409 0.40505 0.64163
 C696 C 0.22574 0.43276 0.61458
 C697 C 0.23297 0.38430 0.56543
 C698 C 0.23140 0.35663 0.59247
 H699 H 0.31574 0.42401 0.58742
 H700 H 0.31274 0.37274 0.63741
 H701 H 0.20794 0.40841 0.66776
 H702 H 0.21116 0.45984 0.61771
 H703 H 0.22299 0.37977 0.53650
 H704 H 0.21980 0.32860 0.58656
 C705 C 0.74881 0.08065 0.92231
 C706 C 0.70993 0.09958 0.91501
 C707 C 0.71056 0.12640 0.88703
 C708 C 0.74982 0.13191 0.86872
 C709 C 0.77671 0.14069 0.90220
 C710 C 0.77601 0.11400 0.93031
 C711 C 0.76118 0.06513 0.88336
 C712 C 0.76172 0.09183 0.85531
 H713 H 0.68415 0.09281 0.93060
 H714 H 0.68539 0.14230 0.87874
 H715 H 0.79473 0.16576 0.90372
 H716 H 0.79330 0.11638 0.95585
 H717 H 0.76905 0.03566 0.87832
 H718 H 0.77035 0.08499 0.82642
 C719 C 0.25005 0.58109 0.41948
 C720 C 0.21102 0.59922 0.41103
 C721 C 0.21199 0.62617 0.38323
 C722 C 0.25169 0.63258 0.36624
 C723 C 0.27732 0.64178 0.40060
 C724 C 0.27628 0.61493 0.42853
 C725 C 0.26399 0.56601 0.38089
 C726 C 0.26488 0.59287 0.35300
 H727 H 0.18488 0.59181 0.42570
 H728 H 0.18676 0.64157 0.37417
 H729 H 0.29476 0.66720 0.40282
 H730 H 0.29270 0.61751 0.45462
 H731 H 0.27265 0.53673 0.37599
 H732 H 0.27462 0.58641 0.32438
 C733 C 0.24769 0.92207 0.92062
 C734 C 0.20923 0.91309 0.90141
 C735 C 0.21132 0.88515 0.87461
 C736 C 0.25142 0.86853 0.86935
 C737 C 0.27682 0.90310 0.86071
 C738 C 0.27469 0.93119 0.88735
 C739 C 0.26163 0.88360 0.93618
 C740 C 0.26358 0.85559 0.90943
 H741 H 0.18268 0.92750 0.90790
 H742 H 0.18663 0.87575 0.85852
 H743 H 0.29486 0.90538 0.83572
 H744 H 0.29076 0.95749 0.88490
 H745 H 0.26935 0.87878 0.96575
 H746 H 0.27318 0.82702 0.91625
 C747 C 0.74899 0.42066 0.42077
 C748 C 0.71015 0.41090 0.40295
 C749 C 0.71189 0.38309 0.37601
 C750 C 0.75213 0.36741 0.36925
 C751 C 0.77645 0.40258 0.35986
 C752 C 0.77464 0.43050 0.38672
 C753 C 0.76432 0.38254 0.43574
 C754 C 0.76599 0.35465 0.40885
 H755 H 0.68355 0.42460 0.41066
 H756 H 0.68684 0.37303 0.36095
 H757 H 0.79361 0.40530 0.33431
 H758 H 0.79011 0.45712 0.38401
 H759 H 0.77318 0.37791 0.46500
 H760 H 0.77652 0.32631 0.41524
 C761 C 0.07878 0.24996 0.07935
 C762 C 0.07273 0.22068 0.11130
 C763 C 0.10076 0.22075 0.13810
 C764 C 0.13213 0.25043 0.13084
 C765 C 0.14647 0.24149 0.09032
 C766 C 0.11851 0.24121 0.06350
 C767 C 0.08313 0.28833 0.10021
 C768 C 0.11100 0.28848 0.12715
 H769 H 0.04860 0.20142 0.11265
 H770 H 0.10063 0.20141 0.16220
 H771 H 0.17591 0.23537 0.08323
 H772 H 0.12414 0.23504 0.03373
 H773 H 0.06563 0.31319 0.09465
 H774 H 0.11736 0.31339 0.14434
 C775 C 0.58075 0.74745 0.58003
 C776 C 0.60065 0.70910 0.58742
 C777 C 0.62738 0.71056 0.61546
 C778 C 0.63182 0.75007 0.63373
 C779 C 0.63996 0.77705 0.60024
 C780 C 0.61337 0.77551 0.57207
 C781 C 0.56484 0.75950 0.61893
 C782 C 0.59147 0.76087 0.64707
 H783 H 0.59458 0.68308 0.57187
 H784 H 0.64391 0.68583 0.62387
 H785 H 0.66455 0.79571 0.59878
 H786 H 0.61536 0.79273 0.54648
 H787 H 0.53513 0.76641 0.62391
 H788 H 0.58437 0.76918 0.67598
 C789 C 0.08020 0.75319 0.92040
 C790 C 0.07074 0.72735 0.88628
 C791 C 0.09879 0.72565 0.85961
 C792 C 0.13375 0.75025 0.86911
 C793 C 0.11778 0.79042 0.87569
 C794 C 0.08983 0.79209 0.90245
 C795 C 0.11845 0.73821 0.93558
 C796 C 0.14644 0.73665 0.90882
 H797 H 0.04424 0.71169 0.88332
 H798 H 0.09627 0.70839 0.83407
 H799 H 0.12786 0.81553 0.86075
 H800 H 0.07605 0.81873 0.90996
 H801 H 0.12314 0.72957 0.96491
 H802 H 0.17486 0.72644 0.91539
 C803 C 0.58011 0.24845 0.42114
 C804 C 0.61962 0.25728 0.43764
 C805 C 0.64794 0.25745 0.41120
 C806 C 0.63412 0.24885 0.37044
 C807 C 0.61320 0.21063 0.37346
 C808 C 0.58498 0.21032 0.39998
 C809 C 0.57426 0.27801 0.38942
 C810 C 0.60261 0.27839 0.36305
 H811 H 0.62485 0.26300 0.46759
 H812 H 0.67729 0.26353 0.41872
 H813 H 0.61996 0.18591 0.35615
 H814 H 0.56758 0.18530 0.40505
 H815 H 0.54993 0.29701 0.38783
 H816 H 0.60253 0.29784 0.33903
 C817 C 0.92066 0.75286 0.07772
 C818 C 0.93446 0.73536 0.11533
 C819 C 0.90723 0.73376 0.14282
 C820 C 0.86844 0.74990 0.13028
 C821 C 0.87713 0.79041 0.11632
 C822 C 0.90445 0.79205 0.08890
 C823 C 0.88561 0.72917 0.06647
 C824 C 0.85837 0.72745 0.09400
 H825 H 0.96317 0.72486 0.11987
 H826 H 0.91279 0.72167 0.17072
 H827 H 0.86273 0.81564 0.12688
 H828 H 0.91330 0.81878 0.07619
 H829 H 0.88252 0.71493 0.03918
 H830 H 0.83212 0.71158 0.09025
 C831 C 0.41879 0.24932 0.57900
 C832 C 0.37908 0.25575 0.56186
 C833 C 0.35055 0.25592 0.58810
 C834 C 0.36443 0.24973 0.62926
 C835 C 0.38693 0.21231 0.62801
 C836 C 0.41536 0.21201 0.60176
 C837 C 0.42316 0.28049 0.60941
 C838 C 0.39461 0.28086 0.63557
 H839 H 0.37386 0.25988 0.53166
 H840 H 0.32102 0.26034 0.58015
 H841 H 0.38106 0.18811 0.64632
 H842 H 0.43385 0.18755 0.59792
 H843 H 0.44660 0.30062 0.61027
 H844 H 0.39357 0.30145 0.65864
 C845 C 0.92018 0.24676 0.92129
 C846 C 0.93429 0.26389 0.88357
 C847 C 0.90718 0.26556 0.85594
 C848 C 0.86825 0.24980 0.86838
 C849 C 0.87659 0.20929 0.88257
 C850 C 0.90374 0.20756 0.91022
 C851 C 0.88519 0.27077 0.93216
 C852 C 0.85815 0.27251 0.90444
 H853 H 0.96318 0.27391 0.87896
 H854 H 0.91297 0.27726 0.82793
 H855 H 0.86238 0.18405 0.87171
 H856 H 0.91244 0.18075 0.92289
 H857 H 0.88194 0.28521 0.95932
 H858 H 0.83200 0.28861 0.90793
 C859 C 0.42162 0.74763 0.41944
 C860 C 0.40362 0.70881 0.40987
 C861 C 0.37673 0.71052 0.38199
 C862 C 0.37020 0.75073 0.36607
 C863 C 0.36093 0.77534 0.40111
 C864 C 0.38771 0.77354 0.42908
 C865 C 0.43670 0.76262 0.38122
 C866 C 0.40987 0.76426 0.35327
 H867 H 0.41120 0.68226 0.42373
 H868 H 0.36158 0.68547 0.37202
 H869 H 0.33549 0.79270 0.40373
 H870 H 0.38502 0.78920 0.45562
 H871 H 0.46602 0.77119 0.37656
 H872 H 0.41634 0.77450 0.32485
 C873 C 0.07980 0.07867 0.24984
 C874 C 0.09937 0.08487 0.28865
 C875 C 0.12621 0.11285 0.28842
 C876 C 0.13111 0.13229 0.24960
 C877 C 0.13940 0.09956 0.22163
 C878 C 0.11270 0.07145 0.22192
 C879 C 0.06415 0.11795 0.23884
 C880 C 0.09086 0.14602 0.23874
 H881 H 0.09303 0.06853 0.31408
 H882 H 0.14253 0.12041 0.31358
 H883 H 0.16426 0.09845 0.20333
 H884 H 0.11485 0.04637 0.20396
 H885 H 0.03455 0.12324 0.23167
 H886 H 0.08386 0.17519 0.23130
 C887 C 0.57945 0.57936 0.74914
 C888 C 0.61801 0.56445 0.76334
 C889 C 0.64565 0.59154 0.76502
 C890 C 0.63223 0.63131 0.75231
 C891 C 0.61572 0.62525 0.71222
 C892 C 0.58816 0.59804 0.71048
 C893 C 0.56986 0.61282 0.77573
 C894 C 0.59754 0.63988 0.77756
 H895 H 0.62312 0.53505 0.77144
 H896 H 0.67426 0.58517 0.77481
 H897 H 0.62488 0.64111 0.68733
 H898 H 0.57383 0.59083 0.68405
 H899 H 0.54354 0.61503 0.79177
 H900 H 0.59491 0.66506 0.79531
 C901 C 0.92048 0.07837 0.75280
 C902 C 0.90180 0.08725 0.79153
 C903 C 0.87482 0.11504 0.78980
 C904 C 0.86889 0.13162 0.74975
 C905 C 0.90874 0.14474 0.73708
 C906 C 0.93564 0.11690 0.73868
 C907 C 0.88687 0.06906 0.72622
 C908 C 0.86006 0.09699 0.72445
 H909 H 0.90877 0.07289 0.81799
 H910 H 0.85904 0.12436 0.81471
 H911 H 0.91534 0.17333 0.72740
 H912 H 0.96506 0.12190 0.73062
 H913 H 0.88431 0.04273 0.71017
 H914 H 0.83481 0.09455 0.70677
 C915 C 0.42123 0.57964 0.25035
 C916 C 0.43701 0.61828 0.23736
 C917 C 0.41032 0.64631 0.23552
 C918 C 0.37008 0.63312 0.24682
 C919 C 0.36180 0.59902 0.22062
 C920 C 0.38846 0.57094 0.22264
 C921 C 0.40155 0.58788 0.28864
 C922 C 0.37479 0.61580 0.28671
 H923 H 0.46667 0.62314 0.23018
 H924 H 0.41731 0.67503 0.22654
 H925 H 0.33709 0.59706 0.20214
 H926 H 0.38640 0.54494 0.20601
 H927 H 0.40777 0.57295 0.31497
 H928 H 0.35838 0.62474 0.31135
 C929 C 0.07926 0.92032 0.75079
 C930 C 0.08612 0.90146 0.71174
 C931 C 0.11415 0.87470 0.71197
 C932 C 0.13295 0.86913 0.75101
 C933 C 0.14643 0.90920 0.76288
 C934 C 0.11831 0.93587 0.76275
 C935 C 0.07169 0.88691 0.77799
 C936 C 0.09983 0.86025 0.77827
 H937 H 0.07022 0.90826 0.68613
 H938 H 0.12217 0.85888 0.68663
 H939 H 0.17540 0.91607 0.77116
 H940 H 0.12338 0.96534 0.77064
 H941 H 0.04637 0.88444 0.79553
 H942 H 0.09853 0.83506 0.79611
 C943 C 0.57991 0.41908 0.25359
 C944 C 0.56783 0.38310 0.23174
 C945 C 0.59523 0.35573 0.23024
 C946 C 0.63223 0.36669 0.25099
 C947 C 0.64424 0.40469 0.23280
 C948 C 0.61689 0.43206 0.23427
 C949 C 0.59236 0.40456 0.29303
 C950 C 0.61970 0.37713 0.29158
 H951 H 0.54011 0.37951 0.21853
 H952 H 0.59092 0.32886 0.21556
 H953 H 0.67171 0.40963 0.21957
 H954 H 0.62112 0.46032 0.22250
 H955 H 0.58064 0.41466 0.31978
 H956 H 0.63119 0.36387 0.31702
 C957 C 0.92151 0.91994 0.24730
 C958 C 0.93014 0.88685 0.27472
 C959 C 0.90223 0.86001 0.27621
 C960 C 0.86829 0.86826 0.24983
 C961 C 0.85475 0.90834 0.26143
 C962 C 0.88258 0.93528 0.26011
 C963 C 0.91369 0.90047 0.20869
 C964 C 0.88592 0.87348 0.21015
 H965 H 0.95600 0.88468 0.29154
 H966 H 0.90423 0.83512 0.29442
 H967 H 0.82590 0.91504 0.27020
 H968 H 0.87731 0.96485 0.26750
 H969 H 0.92870 0.90698 0.18249
 H970 H 0.87728 0.85725 0.18529
 C971 C 0.41961 0.41979 0.74969
 C972 C 0.38715 0.42719 0.72128
 C973 C 0.36020 0.39935 0.72075
 C974 C 0.36787 0.36674 0.74897
 C975 C 0.40809 0.35251 0.73870
 C976 C 0.43506 0.38032 0.73906
 C977 C 0.39953 0.41403 0.78826
 C978 C 0.37246 0.38632 0.78778
 H979 H 0.38549 0.45216 0.70315
 H980 H 0.33559 0.40054 0.70207
 H981 H 0.41487 0.32325 0.73138
 H982 H 0.46469 0.37474 0.73228
 H983 H 0.40571 0.43045 0.81372
 H984 H 0.35578 0.37905 0.81275
 C985 C 0.07849 0.24712 0.91933
 C986 C 0.11784 0.25758 0.93522
 C987 C 0.14577 0.25864 0.90842
 C988 C 0.13179 0.24923 0.86789
 C989 C 0.11237 0.21023 0.87147
 C990 C 0.08454 0.20903 0.89840
 C991 C 0.07111 0.27617 0.88744
 C992 C 0.09909 0.27744 0.86068
 H993 H 0.12324 0.26378 0.96503
 H994 H 0.17496 0.26590 0.91551
 H995 H 0.11977 0.18569 0.85416
 H996 H 0.06817 0.18341 0.90388
 H997 H 0.04603 0.29418 0.88603
 H998 H 0.09796 0.29669 0.83652
 C999 C 0.58118 0.74746 0.41978
 C1000 C 0.56691 0.73192 0.38145
 C1001 C 0.59398 0.73122 0.35373
 C1002 C 0.63307 0.74626 0.36680
 C1003 C 0.62502 0.78615 0.38273
 C1004 C 0.59790 0.78689 0.41036
 C1005 C 0.61592 0.72275 0.42965
 C1006 C 0.64299 0.72197 0.40190
 H1007 H 0.53801 0.72208 0.37660
 H1008 H 0.58813 0.72046 0.32533
 H1009 H 0.63948 0.81170 0.37308
 H1010 H 0.58941 0.81316 0.42426
 H1011 H 0.61895 0.70715 0.45616
 H1012 H 0.66905 0.70559 0.40473
 C1013 C 0.92241 0.75155 0.92002
 C1014 C 0.91428 0.71234 0.90190
 C1015 C 0.88608 0.71292 0.87531
 C1016 C 0.86838 0.75237 0.86911
 C1017 C 0.85550 0.76535 0.90898
 C1018 C 0.88374 0.76490 0.93552
 C1019 C 0.93054 0.77787 0.88596
 C1020 C 0.90221 0.77846 0.85948
 H1021 H 0.92945 0.68635 0.90895
 H1022 H 0.87723 0.68755 0.85998
 H1023 H 0.82678 0.77446 0.91582
 H1024 H 0.87896 0.77335 0.96490
 H1025 H 0.95638 0.79454 0.88284
 H1026 H 0.90390 0.79569 0.83389
 C1027 C 0.41950 0.24990 0.42032
 C1028 C 0.43514 0.26027 0.38087
 C1029 C 0.40821 0.26102 0.35300
 C1030 C 0.36781 0.25140 0.36713
 C1031 C 0.37182 0.21254 0.38674
 C1032 C 0.39886 0.21166 0.41451
 C1033 C 0.38741 0.27880 0.42764
 C1034 C 0.36052 0.27975 0.39971
 H1035 H 0.46489 0.26652 0.37533
 H1036 H 0.41518 0.26810 0.32374
 H1037 H 0.35477 0.18781 0.37943
 H1038 H 0.40467 0.18615 0.43094
 H1039 H 0.38602 0.29701 0.45260
 H1040 H 0.33630 0.29893 0.40072
 C1041 C 0.08087 0.75497 0.07853
 C1042 C 0.06523 0.74386 0.11779
 C1043 C 0.09208 0.74280 0.14572
 C1044 C 0.13243 0.75288 0.13185
 C1045 C 0.13996 0.72519 0.09877
 C1046 C 0.11317 0.72646 0.07081
 C1047 C 0.10121 0.79327 0.08504
 C1048 C 0.12823 0.79209 0.11290
 H1049 H 0.03549 0.73746 0.12319
 H1050 H 0.08511 0.73528 0.17487
 H1051 H 0.16437 0.70628 0.09736
 H1052 H 0.11485 0.70879 0.04548
 H1053 H 0.09519 0.81902 0.06907
 H1054 H 0.14508 0.81681 0.12074
 C1055 C 0.57931 0.25170 0.58041
 C1056 C 0.56875 0.22812 0.61569
 C1057 C 0.59651 0.22708 0.64275
 C1058 C 0.63232 0.25001 0.63229
 C1059 C 0.64479 0.23376 0.59349
 C1060 C 0.61707 0.23472 0.56643
 C1061 C 0.59000 0.29121 0.59625
 C1062 C 0.61771 0.29023 0.62337
 H1063 H 0.54178 0.21341 0.61905
 H1064 H 0.59324 0.21132 0.66913
 H1065 H 0.67287 0.22222 0.58775
 H1066 H 0.62159 0.22425 0.53768
 H1067 H 0.57709 0.31771 0.58700
 H1068 H 0.62850 0.31581 0.63700
 C1069 C 0.91980 0.24609 0.08001
 C1070 C 0.88026 0.25620 0.06444
 C1071 C 0.85258 0.25711 0.09148
 C1072 C 0.86698 0.24788 0.13192
 C1073 C 0.88665 0.20901 0.12815
 C1074 C 0.91425 0.20798 0.10097
 C1075 C 0.92723 0.27525 0.11184
 C1076 C 0.89950 0.27634 0.13887
 H1077 H 0.87451 0.26209 0.03463
 H1078 H 0.82326 0.26399 0.08457
 H1079 H 0.87949 0.18442 0.14542
 H1080 H 0.93071 0.18245 0.09526
 H1081 H 0.95217 0.29347 0.11303
 H1082 H 0.90069 0.29560 0.16304
 C1083 C 0.42150 0.74660 0.58008
 C1084 C 0.38257 0.75925 0.56480
 C1085 C 0.35482 0.76061 0.59178
 C1086 C 0.36849 0.74921 0.63191
 C1087 C 0.38622 0.70955 0.62675
 C1088 C 0.41390 0.70810 0.59962
 C1089 C 0.43019 0.77417 0.61300
 C1090 C 0.40240 0.77570 0.63997
 H1091 H 0.37727 0.76651 0.53521
 H1092 H 0.32594 0.76927 0.58505
 H1093 H 0.37771 0.68473 0.64306
 H1094 H 0.42903 0.68198 0.59298
 H1095 H 0.45601 0.79104 0.61494
 H1096 H 0.40445 0.79401 0.66481
 C1097 C 0.24424 0.08077 0.91914
 C1098 C 0.20552 0.10006 0.91188
 C1099 C 0.20651 0.12713 0.88414
 C1100 C 0.24594 0.13244 0.86604
 C1101 C 0.27275 0.14070 0.89970
 C1102 C 0.27167 0.11381 0.92755
 C1103 C 0.25658 0.06546 0.88011
 C1104 C 0.25746 0.09238 0.85229
 H1105 H 0.17962 0.09329 0.92726
 H1106 H 0.18150 0.14327 0.87579
 H1107 H 0.29095 0.16561 0.90154
 H1108 H 0.28880 0.11588 0.95321
 H1109 H 0.26397 0.03590 0.87479
 H1110 H 0.26585 0.08567 0.82331
 C1111 C 0.74660 0.58048 0.42061
 C1112 C 0.70754 0.59793 0.41094
 C1113 C 0.70889 0.62483 0.38303
 C1114 C 0.74902 0.63192 0.36720
 C1115 C 0.77340 0.64157 0.40232
 C1116 C 0.77196 0.61480 0.43028
 C1117 C 0.76186 0.56557 0.38244
 C1118 C 0.76316 0.59238 0.35449
 H1119 H 0.68108 0.58995 0.42472
 H1120 H 0.68364 0.63955 0.37294
 H1121 H 0.79036 0.66727 0.40500
 H1122 H 0.78752 0.61775 0.45685
 H1123 H 0.77090 0.53637 0.37779
 H1124 H 0.77356 0.58595 0.32610
 C1125 C 0.75019 0.07906 0.08080
 C1126 C 0.71103 0.08854 0.09829
 C1127 C 0.71227 0.11628 0.12531
 C1128 C 0.75226 0.13224 0.13257
 C1129 C 0.77677 0.09722 0.14216
 C1130 C 0.77554 0.06935 0.11520
 C1131 C 0.76537 0.11740 0.06616
 C1132 C 0.76652 0.14520 0.09318
 H1133 H 0.68456 0.07464 0.09046
 H1134 H 0.68701 0.12596 0.14026
 H1135 H 0.79350 0.09445 0.16801
 H1136 H 0.79115 0.04282 0.11817
 H1137 H 0.77464 0.12225 0.03706
 H1138 H 0.77706 0.17360 0.08706
 C1139 C 0.25099 0.58191 0.57921
 C1140 C 0.21167 0.59226 0.59561
 C1141 C 0.21283 0.61988 0.62278
 C1142 C 0.25300 0.63483 0.63119
 C1143 C 0.27639 0.59916 0.64127
 C1144 C 0.27518 0.57145 0.61415
 C1145 C 0.26752 0.61986 0.56511
 C1146 C 0.26864 0.64757 0.59226
 H1147 H 0.18516 0.57903 0.58685
 H1148 H 0.18740 0.63016 0.63703
 H1149 H 0.29244 0.59589 0.66749
 H1150 H 0.29011 0.54457 0.61728
 H1151 H 0.27769 0.62447 0.53629
 H1152 H 0.28006 0.67571 0.58656
 C1153 C 0.75054 0.92066 0.92211
 C1154 C 0.71220 0.91468 0.90167
 C1155 C 0.71292 0.88669 0.87488
 C1156 C 0.75172 0.86702 0.87083
 C1157 C 0.78003 0.89953 0.86312
 C1158 C 0.77924 0.92770 0.88982
 C1159 C 0.76102 0.88132 0.93802
 C1160 C 0.76161 0.85322 0.91130
 H1161 H 0.68672 0.93119 0.90741
 H1162 H 0.68810 0.87928 0.85799
 H1163 H 0.79907 0.90033 0.83878
 H1164 H 0.79746 0.95261 0.88815
 H1165 H 0.76759 0.87606 0.96777
 H1166 H 0.76888 0.82404 0.91841
 C1167 C 0.25047 0.42088 0.42011
 C1168 C 0.21254 0.41592 0.39869
 C1169 C 0.21314 0.38777 0.37206
 C1170 C 0.25145 0.36694 0.36911
 C1171 C 0.28088 0.39857 0.36204
 C1172 C 0.28021 0.42689 0.38856
 C1173 C 0.25935 0.38131 0.43647
 C1174 C 0.25982 0.35305 0.40989
 H1175 H 0.18742 0.43320 0.40370
 H1176 H 0.18855 0.38098 0.35458
 H1177 H 0.30057 0.39868 0.33822
 H1178 H 0.29918 0.45125 0.38724
 H1179 H 0.26483 0.37599 0.46643
 H1180 H 0.26586 0.32368 0.41733
 C1181 C 0.24774 0.92088 0.07859
 C1182 C 0.28650 0.91493 0.09819
 C1183 C 0.28633 0.88703 0.12503
 C1184 C 0.24759 0.86744 0.12991
 C1185 C 0.21947 0.89998 0.13818
 C1186 C 0.21972 0.92805 0.11145
 C1187 C 0.23689 0.88152 0.06293
 C1188 C 0.23681 0.85352 0.08969
 H1189 H 0.31188 0.93137 0.09187
 H1190 H 0.31149 0.87962 0.14139
 H1191 H 0.20088 0.90080 0.16285
 H1192 H 0.20151 0.95294 0.11342
 H1193 H 0.22963 0.87620 0.03333
 H1194 H 0.22919 0.82436 0.08281
 C1195 C 0.74820 0.41990 0.58001
 C1196 C 0.78618 0.41527 0.60142
 C1197 C 0.78582 0.38713 0.62802
 C1198 C 0.74769 0.36599 0.63094
 C1199 C 0.71798 0.39735 0.63804
 C1200 C 0.71841 0.42566 0.61156
 C1201 C 0.73966 0.38026 0.56360
 C1202 C 0.73942 0.35201 0.59015
 H1203 H 0.81115 0.43276 0.59643
 H1204 H 0.81047 0.38055 0.64550
 H1205 H 0.69819 0.39722 0.66177
 H1206 H 0.69914 0.44980 0.61285
 H1207 H 0.73412 0.37490 0.53365
 H1208 H 0.73346 0.32261 0.58270
 C1209 C 0.07862 0.08012 0.75181
 C1210 C 0.11188 0.07247 0.77925
 C1211 C 0.13858 0.10057 0.77971
 C1212 C 0.12988 0.13362 0.75233
 C1213 C 0.12443 0.11475 0.71326
 C1214 C 0.09761 0.08682 0.71289
 C1215 C 0.06312 0.11926 0.76365
 C1216 C 0.08986 0.14731 0.76393
 H1217 H 0.11415 0.04722 0.79692
 H1218 H 0.16353 0.09939 0.79795
 H1219 H 0.14037 0.12268 0.68801
 H1220 H 0.09088 0.07088 0.68727
 H1221 H 0.03365 0.12443 0.77138
 H1222 H 0.08312 0.17632 0.77218
 C1223 C 0.58096 0.57904 0.25387
 C1224 C 0.58737 0.59970 0.29205
 C1225 C 0.61531 0.62658 0.29080
 C1226 C 0.63446 0.63037 0.25165
 C1227 C 0.64822 0.58986 0.24194
 C1228 C 0.62019 0.56312 0.24306
 C1229 C 0.57349 0.61113 0.22507
 C1230 C 0.60155 0.63780 0.22374
 H1231 H 0.57125 0.59400 0.31778
 H1232 H 0.62308 0.64361 0.31544
 H1233 H 0.67735 0.58270 0.23458
 H1234 H 0.62550 0.53330 0.23689
 H1235 H 0.54828 0.61276 0.20725
 H1236 H 0.60033 0.66207 0.20464
 C1237 C 0.08007 0.91892 0.24771
 C1238 C 0.07431 0.88756 0.21765
 C1239 C 0.10265 0.86111 0.21701
 C1240 C 0.13402 0.86811 0.24677
 C1241 C 0.14789 0.90897 0.23882
 C1242 C 0.11961 0.93544 0.23927
 C1243 C 0.08476 0.89730 0.28555
 C1244 C 0.11294 0.87074 0.28497
 H1245 H 0.05009 0.88631 0.19847
 H1246 H 0.10272 0.83738 0.19715
 H1247 H 0.17727 0.91656 0.23307
 H1248 H 0.12492 0.96545 0.23407
 H1249 H 0.06728 0.90211 0.31057
 H1250 H 0.11958 0.85311 0.30947
 C1251 C 0.57967 0.41913 0.74891
 C1252 C 0.57210 0.38639 0.72079
 C1253 C 0.60010 0.35958 0.72001
 C1254 C 0.63307 0.36761 0.74772
 C1255 C 0.64687 0.40788 0.73708
 C1256 C 0.61890 0.43471 0.73767
 C1257 C 0.58613 0.39932 0.78748
 C1258 C 0.61399 0.37237 0.78677
 H1259 H 0.54682 0.38441 0.70309
 H1260 H 0.59873 0.33478 0.70160
 H1261 H 0.67601 0.41485 0.72961
 H1262 H 0.62426 0.46437 0.73083
 H1263 H 0.57006 0.40561 0.81312
 H1264 H 0.62174 0.35589 0.81174
 C1265 C 0.92008 0.07849 0.24618
 C1266 C 0.93527 0.11716 0.25977
 C1267 C 0.90843 0.14508 0.26077
 C1268 C 0.86859 0.13180 0.24808
 C1269 C 0.87463 0.11456 0.20834
 C1270 C 0.90159 0.08671 0.20725
 C1271 C 0.88649 0.06964 0.27274
 C1272 C 0.85968 0.09759 0.27392
 H1273 H 0.96466 0.12216 0.26795
 H1274 H 0.91505 0.17382 0.27005
 H1275 H 0.85910 0.12358 0.18318
 H1276 H 0.90882 0.07192 0.18109
 H1277 H 0.88402 0.04363 0.28925
 H1278 H 0.83443 0.09548 0.29159
 C1279 C 0.42008 0.57959 0.74632
 C1280 C 0.43561 0.61850 0.75880
 C1281 C 0.40892 0.64656 0.75953
 C1282 C 0.36882 0.63320 0.74772
 C1283 C 0.37425 0.61503 0.70830
 C1284 C 0.40107 0.58703 0.70747
 C1285 C 0.38681 0.57153 0.77354
 C1286 C 0.36013 0.59963 0.77444
 H1287 H 0.46515 0.62354 0.76641
 H1288 H 0.41582 0.67548 0.76800
 H1289 H 0.35846 0.62360 0.68314
 H1290 H 0.40790 0.57163 0.68155
 H1291 H 0.38446 0.54592 0.79067
 H1292 H 0.33510 0.59804 0.79248
 C1293 C 0.91907 0.92036 0.75564
 C1294 C 0.88050 0.93521 0.74141
 C1295 C 0.85266 0.90827 0.74064
 C1296 C 0.86595 0.86874 0.75422
 C1297 C 0.90042 0.85938 0.72889
 C1298 C 0.92826 0.88627 0.72982
 C1299 C 0.91052 0.90268 0.79486
 C1300 C 0.88272 0.87567 0.79402
 H1301 H 0.87550 0.96444 0.73269
 H1302 H 0.82399 0.91461 0.73103
 H1303 H 0.90276 0.83380 0.71167
 H1304 H 0.95440 0.88355 0.71357
 H1305 H 0.92487 0.91066 0.82105
 H1306 H 0.87325 0.86087 0.81944
 C1307 C 0.42020 0.41987 0.25233
 C1308 C 0.42575 0.38858 0.28246
 C1309 C 0.39746 0.36207 0.28289
 C1310 C 0.36633 0.36890 0.25285
 C1311 C 0.35229 0.40975 0.26064
 C1312 C 0.38052 0.43631 0.26040
 C1313 C 0.41589 0.39813 0.21449
 C1314 C 0.38776 0.37150 0.21484
 H1315 H 0.44978 0.38743 0.30189
 H1316 H 0.39725 0.33845 0.30281
 H1317 H 0.32284 0.41727 0.26615
 H1318 H 0.37510 0.46632 0.26552
 H1319 H 0.43359 0.40290 0.18962
 H1320 H 0.38138 0.35379 0.19029
   
