data_POSCAR
  _audit_creation_date              2014-09-24
  _audit_creation_method            'ToBaCCo'
  _symmetry_space_group_name_H-M    'P1'
  _symmetry_Int_Tables_number       1
  _symmetry_cell_setting            triclinic
  loop_
  _symmetry_equiv_pos_as_xyz
 x,y,z
_cell_length_a 88.9496
_cell_length_b 89.0207
_cell_length_c 89.1609
_cell_angle_alpha 89.983900
_cell_angle_beta 89.983800
_cell_angle_gamma 89.943200
loop_
  _atom_site_label
  _atom_site_type_symbol
  _atom_site_fract_x
  _atom_site_fract_y
  _atom_site_fract_z
N1 N 0.35993 0.31818 0.32893
 N2 N 0.35974 0.32867 0.31853
 C3 C 0.37138 0.32644 0.30910
 C4 C 0.37915 0.31394 0.31392
 C5 C 0.37167 0.30894 0.32649
 H6 H 0.37402 0.33335 0.29948
 H7 H 0.37455 0.29932 0.33332
 Cu8 Cu 0.34425 0.34413 0.31835
 Cu9 Cu 0.34502 0.31724 0.34492
 Cu10 Cu 0.31691 0.34412 0.34410
 N11 N 0.32895 0.35982 0.31874
 N12 N 0.31836 0.35989 0.32905
 C13 C 0.30911 0.37163 0.32665
 C14 C 0.31422 0.37924 0.31419
 C15 C 0.32679 0.37153 0.30941
 H16 H 0.29928 0.37428 0.33328
 H17 H 0.33368 0.37417 0.29977
 N18 N 0.31825 0.32871 0.35991
 N19 N 0.32887 0.31832 0.36007
 C20 C 0.32659 0.30915 0.37188
 C21 C 0.31400 0.31406 0.37942
 C22 C 0.30896 0.32645 0.37165
 H23 H 0.33348 0.29956 0.37474
 H24 H 0.29919 0.33319 0.37428
 H25 H 0.32823 0.32711 0.33270
 H26 H 0.33971 0.33972 0.34485
 N27 N 0.36036 0.81828 -0.17131
 N28 N 0.36022 0.82880 -0.18171
 C29 C 0.37183 0.82658 -0.19111
 C30 C 0.37959 0.81406 -0.18632
 C31 C 0.37212 0.80901 -0.17377
 H32 H 0.37449 0.83351 -0.20072
 H33 H 0.37497 0.79937 -0.16695
 Cu34 Cu 0.34467 0.84425 -0.18174
 Cu35 Cu 0.34540 0.81731 -0.15541
 Cu36 Cu 0.31776 0.84489 -0.15546
 N37 N 0.32918 0.85977 -0.18177
 N38 N 0.31864 0.85989 -0.17138
 C39 C 0.30934 0.87163 -0.17388
 C40 C 0.31438 0.87912 -0.18644
 C41 C 0.32694 0.87136 -0.19119
 H42 H 0.29968 0.87447 -0.16706
 H43 H 0.33389 0.87401 -0.20079
 N44 N 0.31873 0.82876 -0.14026
 N45 N 0.32926 0.81827 -0.14025
 C46 C 0.32690 0.80894 -0.12857
 C47 C 0.31434 0.81384 -0.12096
 C48 C 0.30941 0.82637 -0.12858
 H49 H 0.33377 0.79931 -0.12578
 H50 H 0.29975 0.83320 -0.12578
 H51 H 0.32844 0.82783 -0.16709
 H52 H 0.34049 0.83991 -0.15508
 N53 N 0.85969 0.31877 -0.17120
 N54 N 0.85955 0.32931 -0.18156
 C55 C 0.87115 0.32706 -0.19102
 C56 C 0.87888 0.31450 -0.18626
 C57 C 0.87138 0.30949 -0.17370
 H58 H 0.87381 0.33398 -0.20063
 H59 H 0.87422 0.29982 -0.16691
 Cu60 Cu 0.84409 0.34479 -0.18155
 Cu61 Cu 0.84472 0.31784 -0.15527
 Cu62 Cu 0.81713 0.34546 -0.15525
 N63 N 0.82864 0.36027 -0.18155
 N64 N 0.81809 0.36043 -0.17118
 C65 C 0.80882 0.37214 -0.17366
 C66 C 0.81387 0.37960 -0.18622
 C67 C 0.82642 0.37187 -0.19101
 H68 H 0.79916 0.37498 -0.16686
 H69 H 0.83336 0.37451 -0.20062
 N70 N 0.81810 0.32934 -0.14009
 N71 N 0.82861 0.31883 -0.14010
 C72 C 0.82624 0.30951 -0.12842
 C73 C 0.81370 0.31443 -0.12081
 C74 C 0.80878 0.32697 -0.12840
 H75 H 0.83309 0.29986 -0.12564
 H76 H 0.79914 0.33382 -0.12560
 H77 H 0.82769 0.32843 -0.16696
 H78 H 0.83980 0.34050 -0.15487
 N79 N 0.85981 0.81866 0.32894
 N80 N 0.85969 0.82919 0.31857
 C81 C 0.87143 0.82703 0.30926
 C82 C 0.87919 0.81453 0.31410
 C83 C 0.87159 0.80945 0.32657
 H84 H 0.87407 0.83390 0.29961
 H85 H 0.87429 0.79967 0.33326
 Cu86 Cu 0.84403 0.84453 0.31810
 Cu87 Cu 0.84410 0.81722 0.34406
 Cu88 Cu 0.81667 0.84461 0.34405
 N89 N 0.82867 0.86017 0.31854
 N90 N 0.81811 0.86030 0.32891
 C91 C 0.80889 0.87207 0.32653
 C92 C 0.81400 0.87964 0.31405
 C93 C 0.82652 0.87189 0.30921
 H94 H 0.79910 0.87476 0.33320
 H95 H 0.83341 0.87451 0.29956
 N96 N 0.81814 0.82919 0.35989
 N97 N 0.82866 0.81869 0.35989
 C98 C 0.82648 0.80954 0.37175
 C99 C 0.81403 0.81457 0.37946
 C100 C 0.80899 0.82700 0.37174
 H101 H 0.83326 0.79983 0.37445
 H102 H 0.79926 0.83376 0.37445
 H103 H 0.82729 0.82784 0.33211
 H104 H 0.83928 0.83983 0.34442
 N105 N 0.64008 0.68179 0.32888
 N106 N 0.64048 0.67149 0.31830
 C107 C 0.62882 0.67365 0.30889
 C108 C 0.62084 0.68595 0.31389
 C109 C 0.62821 0.69088 0.32655
 H110 H 0.62629 0.66683 0.29918
 H111 H 0.62515 0.70034 0.33352
 Cu112 Cu 0.65618 0.65629 0.31826
 Cu113 Cu 0.65498 0.68272 0.34490
 Cu114 Cu 0.68263 0.65510 0.34489
 N115 N 0.67140 0.64061 0.31828
 N116 N 0.68172 0.64022 0.32886
 C117 C 0.69082 0.62836 0.32651
 C118 C 0.68589 0.62100 0.31385
 C119 C 0.67357 0.62897 0.30887
 H120 H 0.70029 0.62531 0.33348
 H121 H 0.66674 0.62644 0.29916
 N122 N 0.68159 0.67118 0.36009
 N123 N 0.67107 0.68169 0.36009
 C124 C 0.67345 0.69101 0.37175
 C125 C 0.68600 0.68611 0.37935
 C126 C 0.69092 0.67357 0.37175
 H127 H 0.66661 0.70067 0.37453
 H128 H 0.70059 0.66675 0.37453
 H129 H 0.67224 0.67236 0.33347
 H130 H 0.65992 0.66003 0.34505
 N131 N 0.64010 0.18155 -0.17110
 N132 N 0.64028 0.17104 -0.18147
 C133 C 0.62861 0.17323 -0.19087
 C134 C 0.62085 0.18575 -0.18607
 C135 C 0.62835 0.19078 -0.17354
 H136 H 0.62594 0.16630 -0.20046
 H137 H 0.62548 0.20042 -0.16672
 Cu138 Cu 0.65578 0.15558 -0.18150
 Cu139 Cu 0.65507 0.18253 -0.15519
 Cu140 Cu 0.68272 0.15494 -0.15522
 N141 N 0.67129 0.14010 -0.18153
 N142 N 0.68182 0.13993 -0.17116
 C143 C 0.69108 0.12820 -0.17363
 C144 C 0.68604 0.12070 -0.18618
 C145 C 0.67349 0.12845 -0.19096
 H146 H 0.70074 0.12535 -0.16682
 H147 H 0.66652 0.12580 -0.20054
 N148 N 0.68174 0.17108 -0.14006
 N149 N 0.67122 0.18157 -0.14006
 C150 C 0.67357 0.19090 -0.12839
 C151 C 0.68612 0.18602 -0.12078
 C152 C 0.69106 0.17348 -0.12838
 H153 H 0.66669 0.20053 -0.12560
 H154 H 0.70072 0.16665 -0.12557
 H155 H 0.67207 0.17202 -0.16686
 H156 H 0.65998 0.15990 -0.15482
 N157 N 0.14006 0.68169 -0.17104
 N158 N 0.14020 0.67115 -0.18136
 C159 C 0.12859 0.67339 -0.19083
 C160 C 0.12089 0.68596 -0.18609
 C161 C 0.12838 0.69099 -0.17354
 H162 H 0.12595 0.66648 -0.20044
 H163 H 0.12554 0.70066 -0.16676
 Cu164 Cu 0.15566 0.65569 -0.18139
 Cu165 Cu 0.15504 0.68265 -0.15513
 Cu166 Cu 0.18262 0.65502 -0.15513
 N167 N 0.17109 0.64021 -0.18137
 N168 N 0.18164 0.64004 -0.17104
 C169 C 0.19092 0.62836 -0.17354
 C170 C 0.18587 0.62088 -0.18609
 C171 C 0.17331 0.62860 -0.19083
 H172 H 0.20059 0.62549 -0.16676
 H173 H 0.16639 0.62599 -0.20044
 N174 N 0.18167 0.67114 -0.13999
 N175 N 0.17117 0.68166 -0.13999
 C176 C 0.17354 0.69097 -0.12832
 C177 C 0.18608 0.68604 -0.12072
 C178 C 0.19099 0.67350 -0.12832
 H179 H 0.16670 0.70062 -0.12553
 H180 H 0.20063 0.66664 -0.12552
 H181 H 0.17205 0.67206 -0.16684
 H182 H 0.15995 0.66000 -0.15476
 N183 N 0.13998 0.18166 0.32900
 N184 N 0.14010 0.17112 0.31866
 C185 C 0.12836 0.17324 0.30934
 C186 C 0.12062 0.18576 0.31416
 C187 C 0.12821 0.19088 0.32662
 H188 H 0.12570 0.16634 0.29973
 H189 H 0.12550 0.20066 0.33329
 Cu190 Cu 0.15574 0.15579 0.31852
 Cu191 Cu 0.15572 0.18310 0.34412
 Cu192 Cu 0.18267 0.15499 0.34489
 N193 N 0.17126 0.14039 0.31840
 N194 N 0.18174 0.14015 0.32882
 C195 C 0.19096 0.12840 0.32637
 C196 C 0.18594 0.12096 0.31379
 C197 C 0.17345 0.12876 0.30897
 H198 H 0.20055 0.12547 0.33322
 H199 H 0.16650 0.12611 0.29938
 N200 N 0.18155 0.17112 0.36008
 N201 N 0.17114 0.18173 0.35993
 C202 C 0.17340 0.19100 0.37167
 C203 C 0.18580 0.18596 0.37943
 C204 C 0.19072 0.17340 0.37188
 H205 H 0.16666 0.20076 0.37431
 H206 H 0.20033 0.16651 0.37474
 H207 H 0.17274 0.17182 0.33283
 H208 H 0.16015 0.16035 0.34501
 N209 N 0.64004 0.31827 0.67109
 N210 N 0.64022 0.32878 0.68148
 C211 C 0.62856 0.32659 0.69089
 C212 C 0.62080 0.31409 0.68610
 C213 C 0.62830 0.30906 0.67355
 H214 H 0.62588 0.33353 0.70048
 H215 H 0.62544 0.29942 0.66673
 Cu216 Cu 0.65570 0.34422 0.68148
 Cu217 Cu 0.65502 0.31731 0.65517
 Cu218 Cu 0.68264 0.34486 0.65518
 N219 N 0.67117 0.35967 0.68149
 N220 N 0.68169 0.35984 0.67111
 C221 C 0.69093 0.37156 0.67357
 C222 C 0.68589 0.37906 0.68612
 C223 C 0.67336 0.37131 0.69091
 H224 H 0.70058 0.37441 0.66676
 H225 H 0.66641 0.37398 0.70050
 N226 N 0.68168 0.32874 0.64003
 N227 N 0.67116 0.31826 0.64003
 C228 C 0.67354 0.30894 0.62835
 C229 C 0.68608 0.31383 0.62074
 C230 C 0.69100 0.32636 0.62835
 H231 H 0.66668 0.29931 0.62555
 H232 H 0.70064 0.33319 0.62554
 H233 H 0.67205 0.32783 0.66683
 H234 H 0.65993 0.33997 0.65480
 N235 N 0.64014 0.81850 1.17138
 N236 N 0.64053 0.82880 1.18196
 C237 C 0.62887 0.82666 1.19138
 C238 C 0.62090 0.81437 1.18639
 C239 C 0.62826 0.80943 1.17372
 H240 H 0.62634 0.83348 1.20109
 H241 H 0.62522 0.79998 1.16675
 Cu242 Cu 0.65623 0.84395 1.18199
 Cu243 Cu 0.65505 0.81757 1.15536
 Cu244 Cu 0.68271 0.84513 1.15534
 N245 N 0.67143 0.85959 1.18194
 N246 N 0.68175 0.85997 1.17137
 C247 C 0.69083 0.87182 1.17369
 C248 C 0.68589 0.87917 1.18635
 C249 C 0.67358 0.87123 1.19135
 H250 H 0.70031 0.87485 1.16672
 H251 H 0.66675 0.87378 1.20106
 N252 N 0.68167 0.82906 1.14016
 N253 N 0.67116 0.81858 1.14016
 C254 C 0.67355 0.80925 1.12849
 C255 C 0.68610 0.81415 1.12091
 C256 C 0.69102 0.82668 1.12850
 H257 H 0.66672 0.79961 1.12571
 H258 H 0.70068 0.83349 1.12574
 H259 H 0.67237 0.82794 1.16677
 H260 H 0.66004 0.84029 1.15520
 N261 N 0.14011 0.31860 1.17116
 N262 N 0.14031 0.32911 1.18154
 C263 C 0.12868 0.32695 1.19099
 C264 C 0.12093 0.31441 1.18625
 C265 C 0.12841 0.30936 1.17369
 H266 H 0.12601 0.33389 1.20059
 H267 H 0.12559 0.29968 1.16694
 Cu268 Cu 0.15566 0.34464 1.18150
 Cu269 Cu 0.15509 0.31765 1.15524
 Cu270 Cu 0.18270 0.34522 1.15519
 N271 N 0.17120 0.35994 1.18149
 N272 N 0.18172 0.36014 1.17110
 C273 C 0.19096 0.37182 1.17361
 C274 C 0.18591 0.37929 1.18615
 C275 C 0.17337 0.37157 1.19092
 H276 H 0.20065 0.37465 1.16684
 H277 H 0.16643 0.37425 1.20053
 N278 N 0.18172 0.32910 1.14006
 N279 N 0.17122 0.31861 1.14008
 C280 C 0.17360 0.30929 1.12840
 C281 C 0.18614 0.31420 1.12080
 C282 C 0.19105 0.32673 1.12839
 H283 H 0.16676 0.29965 1.12562
 H284 H 0.20069 0.33357 1.12559
 H285 H 0.17217 0.32825 1.16690
 H286 H 0.16009 0.34032 1.15479
 N287 N 0.14013 0.81860 0.67108
 N288 N 0.14028 0.82913 0.68144
 C289 C 0.12868 0.82691 0.69091
 C290 C 0.12095 0.81438 0.68616
 C291 C 0.12843 0.80934 0.67359
 H292 H 0.12604 0.83383 0.70053
 H293 H 0.12559 0.79969 0.66681
 Cu294 Cu 0.15573 0.84455 0.68142
 Cu295 Cu 0.15511 0.81765 0.65515
 Cu296 Cu 0.18272 0.84519 0.65513
 N297 N 0.17118 0.85996 0.68141
 N298 N 0.18173 0.86011 0.67106
 C299 C 0.19100 0.87177 0.67355
 C300 C 0.18596 0.87923 0.68611
 C301 C 0.17341 0.87154 0.69088
 H302 H 0.20067 0.87461 0.66677
 H303 H 0.16649 0.87420 0.70050
 N304 N 0.18173 0.82911 0.63998
 N305 N 0.17123 0.81862 0.63999
 C306 C 0.17360 0.80932 0.62830
 C307 C 0.18614 0.81424 0.62069
 C308 C 0.19105 0.82675 0.62830
 H309 H 0.16675 0.79969 0.62549
 H310 H 0.20069 0.83360 0.62551
 H311 H 0.17219 0.82823 0.66684
 H312 H 0.16009 0.84034 0.65476
 N313 N 0.35992 0.68175 0.67113
 N314 N 0.35973 0.67123 0.68150
 C315 C 0.37139 0.67342 0.69093
 C316 C 0.37913 0.68595 0.68615
 C317 C 0.37162 0.69098 0.67360
 H318 H 0.37405 0.66648 0.70052
 H319 H 0.37448 0.70063 0.66680
 Cu320 Cu 0.34433 0.65572 0.68148
 Cu321 Cu 0.34494 0.68269 0.65520
 Cu322 Cu 0.31737 0.65510 0.65517
 N323 N 0.32882 0.64030 0.68148
 N324 N 0.31831 0.64012 0.67109
 C325 C 0.30909 0.62840 0.67355
 C326 C 0.31411 0.62089 0.68610
 C327 C 0.32663 0.62864 0.69090
 H328 H 0.29944 0.62554 0.66673
 H329 H 0.33358 0.62597 0.70048
 N330 N 0.31833 0.67123 0.64002
 N331 N 0.32883 0.68173 0.64003
 C332 C 0.32646 0.69105 0.62835
 C333 C 0.31393 0.68614 0.62074
 C334 C 0.30902 0.67360 0.62834
 H335 H 0.33330 0.70069 0.62556
 H336 H 0.29939 0.66676 0.62553
 H337 H 0.32793 0.67210 0.66686
 H338 H 0.34006 0.66002 0.65481
 N339 N 0.35997 0.18137 1.17113
 N340 N 0.35983 0.17082 1.18148
 C341 C 0.37143 0.17303 1.19095
 C342 C 0.37915 0.18558 1.18620
 C343 C 0.37166 0.19063 1.17365
 H344 H 0.37407 0.16610 1.20055
 H345 H 0.37450 0.20029 1.16687
 Cu346 Cu 0.34438 0.15540 1.18146
 Cu347 Cu 0.34498 0.18233 1.15521
 Cu348 Cu 0.31738 0.15478 1.15519
 N349 N 0.32893 0.13999 1.18145
 N350 N 0.31838 0.13985 1.17111
 C351 C 0.30911 0.12818 1.17360
 C352 C 0.31416 0.12071 1.18615
 C353 C 0.32671 0.12839 1.19091
 H354 H 0.29944 0.12535 1.16683
 H355 H 0.33363 0.12573 1.20052
 N356 N 0.31835 0.17088 1.14006
 N357 N 0.32886 0.18137 1.14006
 C358 C 0.32647 0.19069 1.12838
 C359 C 0.31393 0.18577 1.12079
 C360 C 0.30903 0.17324 1.12839
 H361 H 0.33331 0.20032 1.12558
 H362 H 0.29938 0.16640 1.12561
 H363 H 0.32790 0.17172 1.16691
 H364 H 0.34000 0.15963 1.15480
 N365 N 0.85993 0.68140 1.17118
 N366 N 0.85975 0.67089 1.18156
 C367 C 0.87132 0.67313 1.19106
 C368 C 0.87906 0.68566 1.18629
 C369 C 0.87161 0.69067 1.17369
 H370 H 0.87392 0.66625 1.20071
 H371 H 0.87445 0.70033 1.16691
 Cu372 Cu 0.84427 0.65549 1.18155
 Cu373 Cu 0.84491 0.68240 1.15528
 Cu374 Cu 0.81702 0.65514 1.15558
 N375 N 0.82877 0.64013 1.18163
 N376 N 0.81807 0.64016 1.17145
 C377 C 0.80879 0.62849 1.17394
 C378 C 0.81400 0.62085 1.18632
 C379 C 0.82665 0.62844 1.19099
 H380 H 0.79904 0.62574 1.16724
 H381 H 0.83371 0.62563 1.20045
 N382 N 0.81802 0.67120 1.14041
 N383 N 0.82871 0.68151 1.14021
 C384 C 0.82642 0.69071 1.12842
 C385 C 0.81375 0.68592 1.12096
 C386 C 0.80867 0.67358 1.12876
 H387 H 0.83342 0.70018 1.12545
 H388 H 0.79893 0.66683 1.12608
 H389 H 0.82790 0.67203 1.16714
 H390 H 0.83970 0.65975 1.15493
 N391 N 0.85980 0.18143 0.67109
 N392 N 0.85961 0.17091 0.68145
 C393 C 0.87124 0.17310 0.69092
 C394 C 0.87898 0.18563 0.68615
 C395 C 0.87149 0.19066 0.67358
 H396 H 0.87388 0.16616 0.70052
 H397 H 0.87437 0.20031 0.66679
 Cu398 Cu 0.84421 0.15544 0.68149
 Cu399 Cu 0.84482 0.18234 0.65517
 Cu400 Cu 0.81724 0.15478 0.65514
 N401 N 0.82876 0.14005 0.68141
 N402 N 0.81823 0.13986 0.67106
 C403 C 0.80901 0.12816 0.67353
 C404 C 0.81405 0.12070 0.68608
 C405 C 0.82657 0.12842 0.69088
 H406 H 0.79936 0.12528 0.66674
 H407 H 0.83350 0.12577 0.70048
 N408 N 0.81821 0.17087 0.64001
 N409 N 0.82871 0.18137 0.64001
 C410 C 0.82633 0.19068 0.62832
 C411 C 0.81380 0.18575 0.62072
 C412 C 0.80889 0.17323 0.62833
 H413 H 0.83316 0.20032 0.62552
 H414 H 0.79926 0.16637 0.62553
 H415 H 0.82775 0.17171 0.66681
 H416 H 0.83986 0.15963 0.65480
 N417 N 0.31825 0.35992 0.67106
 N418 N 0.32877 0.35975 0.68143
 C419 C 0.32655 0.37137 0.69086
 C420 C 0.31401 0.37912 0.68608
 C421 C 0.30898 0.37163 0.67353
 H422 H 0.33349 0.37404 0.70046
 H423 H 0.29934 0.37450 0.66672
 Cu424 Cu 0.34433 0.34438 0.68142
 Cu425 Cu 0.31732 0.34497 0.65514
 Cu426 Cu 0.34490 0.31739 0.65515
 N427 N 0.35969 0.32883 0.68144
 N428 N 0.35986 0.31831 0.67107
 C429 C 0.37156 0.30904 0.67354
 C430 C 0.37905 0.31406 0.68610
 C431 C 0.37132 0.32660 0.69087
 H432 H 0.37442 0.29940 0.66674
 H433 H 0.37399 0.33353 0.70046
 N434 N 0.32880 0.31837 0.63999
 N435 N 0.31829 0.32887 0.63999
 C436 C 0.30897 0.32650 0.62832
 C437 C 0.31389 0.31396 0.62072
 C438 C 0.32643 0.30904 0.62833
 H439 H 0.29932 0.33335 0.62552
 H440 H 0.33328 0.29939 0.62555
 H441 H 0.32793 0.32801 0.66688
 H442 H 0.34002 0.34008 0.65476
 N443 N 0.31849 0.86015 0.17083
 N444 N 0.32902 0.86000 0.18119
 C445 C 0.32681 0.87164 0.19060
 C446 C 0.31428 0.87938 0.18582
 C447 C 0.30924 0.87188 0.17328
 H448 H 0.33374 0.87430 0.20021
 H449 H 0.29958 0.87473 0.16648
 Cu450 Cu 0.34444 0.84450 0.18133
 Cu451 Cu 0.31753 0.84516 0.15495
 Cu452 Cu 0.34511 0.81756 0.15500
 N453 N 0.35993 0.82907 0.18124
 N454 N 0.36008 0.81853 0.17089
 C455 C 0.37180 0.80927 0.17338
 C456 C 0.37929 0.81431 0.18592
 C457 C 0.37156 0.82686 0.19067
 H458 H 0.37464 0.79960 0.16660
 H459 H 0.37422 0.83379 0.20027
 N460 N 0.32899 0.81851 0.13986
 N461 N 0.31848 0.82902 0.13984
 C462 C 0.30916 0.82664 0.12816
 C463 C 0.31409 0.81409 0.12058
 C464 C 0.32662 0.80918 0.12820
 H465 H 0.29953 0.83350 0.12535
 H466 H 0.33348 0.79953 0.12541
 H467 H 0.32809 0.82814 0.16670
 H468 H 0.34023 0.84023 0.15466
 N469 N 0.81843 0.36019 0.17094
 N470 N 0.82895 0.36001 0.18131
 C471 C 0.82678 0.37166 0.19072
 C472 C 0.81426 0.37943 0.18592
 C473 C 0.80921 0.37194 0.17339
 H474 H 0.83373 0.37433 0.20030
 H475 H 0.79956 0.37482 0.16658
 Cu476 Cu 0.84440 0.34454 0.18132
 Cu477 Cu 0.81746 0.34522 0.15503
 Cu478 Cu 0.84506 0.31760 0.15504
 N479 N 0.85985 0.32908 0.18133
 N480 N 0.86003 0.31856 0.17096
 C481 C 0.87177 0.30933 0.17342
 C482 C 0.87926 0.31438 0.18596
 C483 C 0.87151 0.32690 0.19074
 H484 H 0.87464 0.29968 0.16663
 H485 H 0.87418 0.33385 0.20032
 N486 N 0.82892 0.31857 0.13991
 N487 N 0.81842 0.32908 0.13990
 C488 C 0.80909 0.32671 0.12824
 C489 C 0.81400 0.31416 0.12065
 C490 C 0.82654 0.30924 0.12825
 H491 H 0.79945 0.33356 0.12544
 H492 H 0.83339 0.29959 0.12546
 H493 H 0.82804 0.32818 0.16670
 H494 H 0.84017 0.34027 0.15465
 N495 N 0.81845 0.86022 0.67094
 N496 N 0.82901 0.86006 0.68128
 C497 C 0.82678 0.87168 0.69071
 C498 C 0.81423 0.87943 0.68594
 C499 C 0.80919 0.87193 0.67341
 H500 H 0.83371 0.87432 0.70029
 H501 H 0.79950 0.87478 0.66662
 Cu502 Cu 0.84443 0.84457 0.68138
 Cu503 Cu 0.81748 0.84522 0.65504
 Cu504 Cu 0.84507 0.81761 0.65506
 N505 N 0.85991 0.82913 0.68129
 N506 N 0.86006 0.81858 0.67095
 C507 C 0.87176 0.80931 0.67344
 C508 C 0.87926 0.81435 0.68597
 C509 C 0.87153 0.82690 0.69072
 H510 H 0.87461 0.79962 0.66666
 H511 H 0.87418 0.83382 0.70031
 N512 N 0.82894 0.81857 0.63992
 N513 N 0.81843 0.82908 0.63991
 C514 C 0.80911 0.82671 0.62824
 C515 C 0.81402 0.81416 0.62065
 C516 C 0.82657 0.80925 0.62826
 H517 H 0.79947 0.83356 0.62544
 H518 H 0.83342 0.79960 0.62547
 H519 H 0.82804 0.82818 0.66679
 H520 H 0.84019 0.84030 0.65469
 N521 N 0.68171 0.64001 0.67121
 N522 N 0.67121 0.64020 0.68162
 C523 C 0.67343 0.62856 0.69104
 C524 C 0.68593 0.62078 0.68622
 C525 C 0.69094 0.62826 0.67365
 H526 H 0.66651 0.62591 0.70065
 H527 H 0.70057 0.62538 0.66682
 Cu528 Cu 0.65573 0.65569 0.68179
 Cu529 Cu 0.68265 0.65492 0.65523
 Cu530 Cu 0.65575 0.68301 0.65603
 N531 N 0.64004 0.67099 0.68140
 N532 N 0.63996 0.68157 0.67107
 C533 C 0.62822 0.69081 0.67347
 C534 C 0.62059 0.68570 0.68592
 C535 C 0.62831 0.67315 0.69072
 H536 H 0.62556 0.70063 0.66683
 H537 H 0.62565 0.66627 0.70036
 N538 N 0.67117 0.68169 0.64022
 N539 N 0.68158 0.67108 0.64007
 C540 C 0.69076 0.67336 0.62826
 C541 C 0.68585 0.68594 0.62071
 C542 C 0.67344 0.69097 0.62849
 H543 H 0.70036 0.66648 0.62539
 H544 H 0.66670 0.70073 0.62586
 H545 H 0.67275 0.67172 0.66743
 H546 H 0.66012 0.66024 0.65528
 N547 N 0.68178 0.13968 0.17096
 N548 N 0.67124 0.13985 0.18135
 C549 C 0.67343 0.12820 0.19074
 C550 C 0.68596 0.12043 0.18596
 C551 C 0.69101 0.12794 0.17342
 H552 H 0.66647 0.12552 0.20034
 H553 H 0.70066 0.12508 0.16661
 Cu554 Cu 0.65578 0.15531 0.18136
 Cu555 Cu 0.68274 0.15468 0.15507
 Cu556 Cu 0.65513 0.18229 0.15510
 N557 N 0.64032 0.17078 0.18138
 N558 N 0.64015 0.18132 0.17101
 C559 C 0.62841 0.19055 0.17349
 C560 C 0.62091 0.18550 0.18602
 C561 C 0.62866 0.17297 0.19079
 H562 H 0.62555 0.20020 0.16669
 H563 H 0.62598 0.16601 0.20038
 N564 N 0.67127 0.18135 0.13996
 N565 N 0.68179 0.17084 0.13994
 C566 C 0.69112 0.17324 0.12827
 C567 C 0.68620 0.18579 0.12069
 C568 C 0.67365 0.19069 0.12830
 H569 H 0.70076 0.16639 0.12546
 H570 H 0.66679 0.20034 0.12552
 H571 H 0.67216 0.17170 0.16674
 H572 H 0.66004 0.15961 0.15469
 N573 N 0.18157 0.64001 0.17101
 N574 N 0.17125 0.64040 0.18158
 C575 C 0.17339 0.62873 0.19098
 C576 C 0.18570 0.62075 0.18599
 C577 C 0.19065 0.62813 0.17333
 H578 H 0.16656 0.62620 0.20069
 H579 H 0.20013 0.62508 0.16636
 Cu580 Cu 0.15605 0.65611 0.18163
 Cu581 Cu 0.18252 0.65492 0.15500
 Cu582 Cu 0.15490 0.68258 0.15501
 N583 N 0.14036 0.67133 0.18160
 N584 N 0.13999 0.68165 0.17103
 C585 C 0.12812 0.69075 0.17338
 C586 C 0.12074 0.68581 0.18603
 C587 C 0.12870 0.67349 0.19101
 H588 H 0.12509 0.70023 0.16641
 H589 H 0.12615 0.66666 0.20072
 N590 N 0.17101 0.68155 0.13982
 N591 N 0.18152 0.67104 0.13981
 C592 C 0.19086 0.67343 0.12815
 C593 C 0.18596 0.68599 0.12057
 C594 C 0.17341 0.69090 0.12817
 H595 H 0.20053 0.66659 0.12537
 H596 H 0.16659 0.70057 0.12540
 H597 H 0.17215 0.67217 0.16643
 H598 H 0.15982 0.65989 0.15484
 N599 N 0.18148 0.13978 0.67109
 N600 N 0.17094 0.13996 0.68147
 C601 C 0.17314 0.12830 0.69088
 C602 C 0.18566 0.12052 0.68608
 C603 C 0.19069 0.12804 0.67354
 H604 H 0.16617 0.12563 0.70045
 H605 H 0.20035 0.12517 0.66672
 Cu606 Cu 0.15547 0.15543 0.68148
 Cu607 Cu 0.18242 0.15478 0.65518
 Cu608 Cu 0.15482 0.18239 0.65520
 N609 N 0.14002 0.17090 0.68149
 N610 N 0.13984 0.18145 0.67112
 C611 C 0.12811 0.19066 0.67358
 C612 C 0.12060 0.18563 0.68612
 C613 C 0.12836 0.17310 0.69091
 H614 H 0.12523 0.20032 0.66678
 H615 H 0.12568 0.16614 0.70048
 N616 N 0.17095 0.18143 0.64005
 N617 N 0.18146 0.17092 0.64004
 C618 C 0.19079 0.17331 0.62837
 C619 C 0.18587 0.18586 0.62078
 C620 C 0.17333 0.19077 0.62839
 H621 H 0.20043 0.16646 0.62556
 H622 H 0.16648 0.20041 0.62561
 H623 H 0.17181 0.17178 0.66686
 H624 H 0.15971 0.15971 0.65480
 N625 N 0.31833 0.63986 0.32882
 N626 N 0.32908 0.63981 0.31867
 C627 C 0.32686 0.62823 0.30919
 C628 C 0.31409 0.62071 0.31374
 C629 C 0.30894 0.62831 0.32618
 H630 H 0.33392 0.62546 0.29971
 H631 H 0.29910 0.62564 0.33280
 Cu632 Cu 0.34465 0.65515 0.31899
 Cu633 Cu 0.31727 0.65490 0.34471
 Cu634 Cu 0.34489 0.68250 0.34471
 N635 N 0.36000 0.67070 0.31867
 N636 N 0.35994 0.68144 0.32881
 C637 C 0.37149 0.69083 0.32618
 C638 C 0.37911 0.68569 0.31374
 C639 C 0.37160 0.67294 0.30919
 H640 H 0.37416 0.70066 0.33279
 H641 H 0.37438 0.66589 0.29970
 N642 N 0.32870 0.68158 0.35982
 N643 N 0.31819 0.67108 0.35983
 C644 C 0.30888 0.67345 0.37152
 C645 C 0.31381 0.68598 0.37913
 C646 C 0.32634 0.69088 0.37151
 H647 H 0.29926 0.66659 0.37435
 H648 H 0.33321 0.70049 0.37432
 H649 H 0.32800 0.67178 0.33295
 H650 H 0.33987 0.65993 0.34547
 N651 N 0.31813 0.13989 0.82876
 N652 N 0.32900 0.13971 0.81875
 C653 C 0.32688 0.12801 0.80938
 C654 C 0.31406 0.12056 0.81387
 C655 C 0.30876 0.12832 0.82616
 H656 H 0.33406 0.12511 0.80002
 H657 H 0.29888 0.12570 0.83273
 Cu658 Cu 0.34459 0.15503 0.81908
 Cu659 Cu 0.31703 0.15498 0.84460
 Cu660 Cu 0.34490 0.18233 0.84490
 N661 N 0.35997 0.17055 0.81882
 N662 N 0.35996 0.18124 0.82902
 C663 C 0.37152 0.19063 0.82639
 C664 C 0.37909 0.18553 0.81391
 C665 C 0.37155 0.17281 0.80932
 H666 H 0.37419 0.20044 0.83302
 H667 H 0.37429 0.16581 0.79979
 N668 N 0.32863 0.18145 0.85993
 N669 N 0.31796 0.17112 0.85975
 C670 C 0.30864 0.17347 0.87144
 C671 C 0.31372 0.18582 0.87923
 C672 C 0.32636 0.19063 0.87173
 H673 H 0.29895 0.16668 0.87418
 H674 H 0.33337 0.20009 0.87470
 H675 H 0.32810 0.17185 0.83299
 H676 H 0.33971 0.15978 0.84556
 N677 N 0.81850 0.64000 0.82911
 N678 N 0.82896 0.64021 0.81873
 C679 C 0.82683 0.62852 0.80932
 C680 C 0.81429 0.62079 0.81409
 C681 C 0.80924 0.62828 0.82665
 H682 H 0.83375 0.62587 0.79970
 H683 H 0.79959 0.62545 0.83345
 Cu684 Cu 0.84448 0.65562 0.81872
 Cu685 Cu 0.81751 0.65499 0.84503
 Cu686 Cu 0.84507 0.68261 0.84500
 N687 N 0.85987 0.67118 0.81870
 N688 N 0.86006 0.68164 0.82907
 C689 C 0.87175 0.69092 0.82658
 C690 C 0.87926 0.68589 0.81402
 C691 C 0.87156 0.67333 0.80927
 H692 H 0.87457 0.70057 0.83336
 H693 H 0.87422 0.66642 0.79966
 N694 N 0.82894 0.68164 0.86015
 N695 N 0.81845 0.67113 0.86016
 C696 C 0.80913 0.67350 0.87185
 C697 C 0.81403 0.68604 0.87945
 C698 C 0.82656 0.69096 0.87183
 H699 H 0.79950 0.66665 0.87466
 H700 H 0.83340 0.70059 0.87461
 H701 H 0.82804 0.67205 0.83333
 H702 H 0.84018 0.65996 0.84538
 N703 N 0.81845 0.13968 0.32886
 N704 N 0.82898 0.13985 0.31849
 C705 C 0.82678 0.12821 0.30907
 C706 C 0.81425 0.12047 0.31386
 C707 C 0.80921 0.12798 0.32641
 H708 H 0.83371 0.12556 0.29946
 H709 H 0.79955 0.12513 0.33321
 Cu710 Cu 0.84439 0.15537 0.31835
 Cu711 Cu 0.81747 0.15468 0.34475
 Cu712 Cu 0.84501 0.18228 0.34472
 N713 N 0.85987 0.17081 0.31846
 N714 N 0.86001 0.18134 0.32883
 C715 C 0.87170 0.19060 0.32636
 C716 C 0.87923 0.18559 0.31381
 C717 C 0.87152 0.17305 0.30903
 H718 H 0.87451 0.20027 0.33315
 H719 H 0.87419 0.16613 0.29943
 N720 N 0.82888 0.18132 0.35987
 N721 N 0.81839 0.17081 0.35988
 C722 C 0.80907 0.17318 0.37157
 C723 C 0.81396 0.18572 0.37916
 C724 C 0.82649 0.19064 0.37154
 H725 H 0.79944 0.16632 0.37438
 H726 H 0.83333 0.20028 0.37433
 H727 H 0.82799 0.17172 0.33301
 H728 H 0.84016 0.15960 0.34504
 N729 N 0.68173 0.36003 0.32885
 N730 N 0.67121 0.35988 0.31845
 C731 C 0.67343 0.37152 0.30905
 C732 C 0.68597 0.37924 0.31383
 C733 C 0.69099 0.37172 0.32638
 H734 H 0.66651 0.37419 0.29945
 H735 H 0.70065 0.37456 0.33318
 Cu736 Cu 0.65570 0.34446 0.31833
 Cu737 Cu 0.68267 0.34505 0.34473
 Cu738 Cu 0.65513 0.31749 0.34472
 N739 N 0.64029 0.32894 0.31843
 N740 N 0.64014 0.31841 0.32883
 C741 C 0.62846 0.30915 0.32634
 C742 C 0.62093 0.31415 0.31380
 C743 C 0.62865 0.32670 0.30902
 H744 H 0.62563 0.29949 0.33315
 H745 H 0.62598 0.33363 0.29943
 N746 N 0.67123 0.31843 0.35987
 N747 N 0.68173 0.32893 0.35988
 C748 C 0.69104 0.32655 0.37157
 C749 C 0.68614 0.31401 0.37916
 C750 C 0.67360 0.30911 0.37155
 H751 H 0.70068 0.33340 0.37437
 H752 H 0.66676 0.29947 0.37434
 H753 H 0.67211 0.32809 0.33296
 H754 H 0.65998 0.34018 0.34505
 N755 N 0.68173 0.86021 0.82903
 N756 N 0.67118 0.86007 0.81868
 C757 C 0.67342 0.87166 0.80921
 C758 C 0.68598 0.87937 0.81395
 C759 C 0.69101 0.87189 0.82652
 H760 H 0.66650 0.87431 0.79960
 H761 H 0.70068 0.87472 0.83330
 Cu762 Cu 0.65571 0.84463 0.81870
 Cu763 Cu 0.68269 0.84525 0.84497
 Cu764 Cu 0.65507 0.81769 0.84499
 N765 N 0.64024 0.82918 0.81871
 N766 N 0.64009 0.81864 0.82907
 C767 C 0.62840 0.80938 0.82657
 C768 C 0.62090 0.81440 0.81401
 C769 C 0.62863 0.82695 0.80925
 H770 H 0.62556 0.79972 0.83337
 H771 H 0.62598 0.83386 0.79963
 N772 N 0.67120 0.81865 0.86015
 N773 N 0.68171 0.82914 0.86014
 C774 C 0.69103 0.82677 0.87182
 C775 C 0.68611 0.81424 0.87944
 C776 C 0.67357 0.80934 0.87183
 H777 H 0.70067 0.83360 0.87461
 H778 H 0.66672 0.79971 0.87464
 H779 H 0.67211 0.82824 0.83329
 H780 H 0.66002 0.84034 0.84538
 N781 N 0.18152 0.35988 0.82902
 N782 N 0.17099 0.35973 0.81864
 C783 C 0.17322 0.37135 0.80920
 C784 C 0.18576 0.37908 0.81397
 C785 C 0.19078 0.37158 0.82653
 H786 H 0.16628 0.37403 0.79960
 H787 H 0.20042 0.37442 0.83335
 Cu788 Cu 0.15542 0.34437 0.81866
 Cu789 Cu 0.18243 0.34492 0.84494
 Cu790 Cu 0.15486 0.31737 0.84495
 N791 N 0.14004 0.32882 0.81865
 N792 N 0.13989 0.31829 0.82903
 C793 C 0.12819 0.30904 0.82655
 C794 C 0.12069 0.31405 0.81399
 C795 C 0.12842 0.32659 0.80921
 H796 H 0.12533 0.29940 0.83337
 H797 H 0.12575 0.33353 0.79961
 N798 N 0.17096 0.31833 0.86011
 N799 N 0.18147 0.32882 0.86011
 C800 C 0.19079 0.32644 0.87179
 C801 C 0.18588 0.31391 0.87940
 C802 C 0.17334 0.30901 0.87179
 H803 H 0.20043 0.33328 0.87458
 H804 H 0.16650 0.29937 0.87459
 H805 H 0.17183 0.32796 0.83322
 H806 H 0.15973 0.34005 0.84533
 N807 N 0.18163 0.86018 0.32876
 N808 N 0.17109 0.86003 0.31841
 C809 C 0.17333 0.87163 0.30894
 C810 C 0.18588 0.87934 0.31369
 C811 C 0.19091 0.87185 0.32626
 H812 H 0.16641 0.87428 0.29932
 H813 H 0.20057 0.87469 0.33305
 Cu814 Cu 0.15562 0.84458 0.31842
 Cu815 Cu 0.18258 0.84522 0.34470
 Cu816 Cu 0.15498 0.81765 0.34471
 N817 N 0.14015 0.82913 0.31842
 N818 N 0.14000 0.81860 0.32878
 C819 C 0.12832 0.80933 0.32629
 C820 C 0.12082 0.81435 0.31373
 C821 C 0.12855 0.82689 0.30896
 H822 H 0.12548 0.79967 0.33309
 H823 H 0.12590 0.83381 0.29935
 N824 N 0.17111 0.81862 0.35987
 N825 N 0.18161 0.82911 0.35987
 C826 C 0.19093 0.82674 0.37155
 C827 C 0.18601 0.81422 0.37917
 C828 C 0.17348 0.80931 0.37156
 H829 H 0.20057 0.83358 0.37434
 H830 H 0.16663 0.79968 0.37436
 H831 H 0.17202 0.82820 0.33301
 H832 H 0.15992 0.84030 0.34510
 O833 O 0.26910 0.98533 0.24843
 O834 O 0.24858 1.01490 0.26879
 O835 O 0.24857 0.98532 0.26879
 O836 O 0.26908 1.01485 0.24846
 O837 O 0.25161 1.01487 0.23090
 O838 O 0.23110 0.98535 0.25124
 O839 O 0.23111 1.01493 0.25124
 O840 O 0.25163 0.98536 0.23088
 Cu841 Cu 0.26058 1.00009 0.26038
 Cu842 Cu 0.23960 1.00013 0.23932
 C843 C 0.26367 0.98000 0.23638
 C844 C 0.23656 1.02029 0.26327
 C845 C 0.23654 0.97998 0.26327
 C846 C 0.26364 1.02021 0.23642
 O847 O 0.25145 0.51479 0.73107
 O848 O 0.23094 0.48519 0.75143
 O849 O 0.23094 0.51477 0.75144
 O850 O 0.25147 0.48521 0.73106
 O851 O 0.26894 0.48519 0.74861
 O852 O 0.24841 0.51475 0.76898
 O853 O 0.24842 0.48517 0.76897
 O854 O 0.26893 0.51477 0.74862
 Cu855 Cu 0.23945 0.49999 0.73950
 Cu856 Cu 0.26042 0.49997 0.76055
 C857 C 0.26348 0.52015 0.73658
 C858 C 0.23639 0.47981 0.76347
 C859 C 0.23638 0.52012 0.76347
 C860 C 0.26350 0.47984 0.73657
 O861 O 0.74862 -0.01512 0.23112
 O862 O 0.76913 0.01438 0.25146
 O863 O 0.76910 -0.01521 0.25147
 O864 O 0.74861 0.01440 0.23109
 O865 O 0.73112 0.01443 0.24864
 O866 O 0.75161 -0.01517 0.26902
 O867 O 0.75164 0.01442 0.26901
 O868 O 0.73113 -0.01509 0.24866
 Cu869 Cu 0.76062 -0.00038 0.23954
 Cu870 Cu 0.73963 -0.00035 0.26059
 C871 C 0.73658 -0.02045 0.23663
 C872 C 0.76367 0.01976 0.26349
 C873 C 0.76363 -0.02058 0.26350
 C874 C 0.73656 0.01976 0.23658
 O875 O 0.74862 0.48506 0.73124
 O876 O 0.76913 0.51464 0.75161
 O877 O 0.76913 0.48505 0.75161
 O878 O 0.74861 0.51465 0.73125
 O879 O 0.73112 0.51466 0.74879
 O880 O 0.75165 0.48506 0.76916
 O881 O 0.75165 0.51465 0.76916
 O882 O 0.73114 0.48506 0.74879
 Cu883 Cu 0.76062 0.49985 0.73968
 Cu884 Cu 0.73964 0.49986 0.76072
 C885 C 0.73659 0.47969 0.73675
 C886 C 0.76368 0.52001 0.76365
 C887 C 0.76368 0.47969 0.76365
 C888 C 0.73657 0.52002 0.73676
 O889 O 0.24841 0.48516 0.23096
 O890 O 0.26889 0.51469 0.25132
 O891 O 0.26890 0.48510 0.25131
 O892 O 0.24839 0.51469 0.23093
 O893 O 0.23090 0.51470 0.24847
 O894 O 0.25140 0.48511 0.26885
 O895 O 0.25139 0.51470 0.26886
 O896 O 0.23091 0.48518 0.24850
 Cu897 Cu 0.26041 0.49991 0.23939
 Cu898 Cu 0.23941 0.49993 0.26043
 C899 C 0.23637 0.47982 0.23647
 C900 C 0.26342 0.52006 0.26335
 C901 C 0.26342 0.47972 0.26334
 C902 C 0.23634 0.52004 0.23642
 O903 O 0.73100 0.98549 0.75147
 O904 O 0.75149 1.01498 0.73108
 O905 O 0.75150 0.98547 0.73109
 O906 O 0.73099 1.01513 0.75146
 O907 O 0.74847 1.01512 0.76899
 O908 O 0.76899 0.98546 0.74862
 O909 O 0.76898 1.01497 0.74861
 O910 O 0.74848 0.98548 0.76900
 Cu911 Cu 0.73948 1.00027 0.73954
 Cu912 Cu 0.76047 1.00026 0.76057
 C913 C 0.73647 0.98011 0.76349
 C914 C 0.76354 1.02030 0.73656
 C915 C 0.76356 0.98012 0.73657
 C916 C 0.73645 1.02053 0.76347
 O917 O 0.73105 0.48536 0.25138
 O918 O 0.75153 0.51490 0.23103
 O919 O 0.75157 0.48538 0.23101
 O920 O 0.73106 0.51494 0.25139
 O921 O 0.74854 0.51491 0.26893
 O922 O 0.76905 0.48536 0.24854
 O923 O 0.76902 0.51488 0.24857
 O924 O 0.74853 0.48533 0.26891
 Cu925 Cu 0.73954 0.50014 0.23945
 Cu926 Cu 0.76053 0.50011 0.26050
 C927 C 0.73651 0.47998 0.26340
 C928 C 0.76356 0.52024 0.23654
 C929 C 0.76362 0.48003 0.23649
 C930 C 0.73652 0.52031 0.26341
 O931 O 0.25166 -0.01528 0.76896
 O932 O 0.23109 0.01443 0.74866
 O933 O 0.23110 -0.01510 0.74864
 O934 O 0.25160 0.01438 0.76903
 O935 O 0.26906 0.01443 0.75147
 O936 O 0.24857 -0.01507 0.73107
 O937 O 0.24855 0.01446 0.73110
 O938 O 0.26913 -0.01523 0.75140
 Cu939 Cu 0.23963 -0.00040 0.76059
 Cu940 Cu 0.26059 -0.00035 0.73952
 C941 C 0.26368 -0.02066 0.76342
 C942 C 0.23650 0.01980 0.73661
 C943 C 0.23653 -0.02041 0.73657
 C944 C 0.26359 0.01978 0.76350
 O945 O 0.24850 0.26884 0.98534
 O946 O 0.26893 0.24835 1.01488
 O947 O 0.26894 0.24835 0.98534
 O948 O 0.24856 0.26889 1.01487
 O949 O 0.23098 0.25143 1.01492
 O950 O 0.25136 0.23090 0.98537
 O951 O 0.25136 0.23089 1.01490
 O952 O 0.23092 0.25139 0.98539
 Cu953 Cu 0.26049 0.26035 1.00010
 Cu954 Cu 0.23940 0.23940 1.00015
 C955 C 0.23644 0.26340 0.98001
 C956 C 0.26341 0.23633 1.02025
 C957 C 0.26341 0.23634 0.97999
 C958 C 0.23651 0.26345 1.02026
 O959 O 0.26901 0.74867 0.51468
 O960 O 0.24856 0.76915 0.48515
 O961 O 0.24859 0.76917 0.51468
 O962 O 0.26899 0.74865 0.48514
 O963 O 0.25143 0.73118 0.48518
 O964 O 0.23103 0.75170 0.51471
 O965 O 0.23100 0.75168 0.48518
 O966 O 0.25145 0.73120 0.51471
 Cu967 Cu 0.26054 0.76066 0.49991
 Cu968 Cu 0.23947 0.73969 0.49995
 C969 C 0.26350 0.73665 0.52006
 C970 C 0.23650 0.76369 0.47981
 C971 C 0.23654 0.76372 0.52006
 C972 C 0.26348 0.73663 0.47980
 O973 O 0.26921 0.75140 -0.01486
 O974 O 0.24871 0.73102 0.01469
 O975 O 0.24871 0.73101 -0.01484
 O976 O 0.26917 0.75145 0.01468
 O977 O 0.25165 0.76900 0.01464
 O978 O 0.23119 0.74856 -0.01486
 O979 O 0.23119 0.74857 0.01467
 O980 O 0.25169 0.76895 -0.01491
 Cu981 Cu 0.26070 0.73947 -0.00008
 Cu982 Cu 0.23968 0.76053 -0.00012
 C983 C 0.26374 0.76343 -0.02025
 C984 C 0.23666 0.73652 0.02004
 C985 C 0.23667 0.73651 -0.02020
 C986 C 0.26368 0.76350 0.02002
 O987 O 0.26889 0.25139 0.48530
 O988 O 0.24844 0.23094 0.51483
 O989 O 0.24844 0.23096 0.48530
 O990 O 0.26888 0.25139 0.51483
 O991 O 0.25134 0.26892 0.51483
 O992 O 0.23089 0.24848 0.48531
 O993 O 0.23089 0.24847 0.51484
 O994 O 0.25134 0.26891 0.48530
 Cu995 Cu 0.26042 0.23942 0.50007
 Cu996 Cu 0.23936 0.26045 0.50007
 C997 C 0.26339 0.26342 0.47993
 C998 C 0.23639 0.23643 0.52020
 C999 C 0.23639 0.23645 0.47994
 C1000 C 0.26339 0.26343 0.52018
 O1001 O 0.74858 0.76905 0.98544
 O1002 O 0.76896 0.74851 1.01498
 O1003 O 0.76902 0.74856 0.98545
 O1004 O 0.74859 0.76906 1.01497
 O1005 O 0.73101 0.75160 1.01496
 O1006 O 0.75143 0.73111 0.98542
 O1007 O 0.75138 0.73106 1.01495
 O1008 O 0.73100 0.75160 0.98543
 Cu1009 Cu 0.76054 0.76054 1.00021
 Cu1010 Cu 0.73945 0.73959 1.00019
 C1011 C 0.73652 0.76361 0.98008
 C1012 C 0.76343 0.73649 1.02032
 C1013 C 0.76350 0.73655 0.98008
 C1014 C 0.73653 0.76361 1.02033
 O1015 O 0.74856 0.26877 0.48517
 O1016 O 0.76896 0.24826 0.51471
 O1017 O 0.76899 0.24827 0.48518
 O1018 O 0.74854 0.26876 0.51470
 O1019 O 0.73098 0.25129 0.51469
 O1020 O 0.75143 0.23080 0.48516
 O1021 O 0.75139 0.23078 0.51469
 O1022 O 0.73100 0.25130 0.48515
 Cu1023 Cu 0.76052 0.26026 0.49994
 Cu1024 Cu 0.73944 0.23930 0.49992
 C1025 C 0.73651 0.26332 0.47980
 C1026 C 0.76344 0.23623 0.52006
 C1027 C 0.76349 0.23626 0.47981
 C1028 C 0.73649 0.26330 0.52006
 O1029 O 0.76896 0.25166 -0.01483
 O1030 O 0.74860 0.23115 0.01473
 O1031 O 0.74856 0.23117 -0.01481
 O1032 O 0.76901 0.25163 0.01471
 O1033 O 0.75142 0.26912 0.01475
 O1034 O 0.73098 0.24866 -0.01477
 O1035 O 0.73101 0.24863 0.01477
 O1036 O 0.75138 0.26915 -0.01478
 Cu1037 Cu 0.76054 0.23966 -0.00005
 Cu1038 Cu 0.73944 0.26063 -0.00000
 C1039 C 0.76343 0.26370 -0.02017
 C1040 C 0.73654 0.23660 0.02011
 C1041 C 0.73649 0.23664 -0.02015
 C1042 C 0.76349 0.26365 0.02009
 O1043 O 0.76891 0.75163 0.48522
 O1044 O 0.74851 0.73117 0.51481
 O1045 O 0.74849 0.73116 0.48527
 O1046 O 0.76895 0.75162 0.51476
 O1047 O 0.75139 0.76913 0.51479
 O1048 O 0.73093 0.74867 0.48528
 O1049 O 0.73095 0.74867 0.51482
 O1050 O 0.75135 0.76914 0.48525
 Cu1051 Cu 0.76047 0.73965 0.50001
 Cu1052 Cu 0.73940 0.76065 0.50004
 C1053 C 0.76339 0.76367 0.47987
 C1054 C 0.73646 0.73664 0.52018
 C1055 C 0.73644 0.73664 0.47992
 C1056 C 0.76345 0.76365 0.52013
 O1057 O 0.98518 0.24858 0.26891
 O1058 O 1.01480 0.26913 0.24864
 O1059 O 0.98522 0.26912 0.24859
 O1060 O 1.01477 0.24859 0.26895
 O1061 O 1.01483 0.23117 0.25137
 O1062 O 0.98527 0.25170 0.23100
 O1063 O 1.01486 0.25171 0.23105
 O1064 O 0.98524 0.23115 0.25133
 Cu1065 Cu 0.99998 0.26060 0.26053
 Cu1066 Cu 1.00005 0.23969 0.23943
 C1067 C 0.97985 0.23656 0.26337
 C1068 C 1.02020 0.26372 0.23660
 C1069 C 0.97989 0.26371 0.23653
 C1070 C 1.02016 0.23659 0.26342
 O1071 O 0.48512 0.25146 0.73110
 O1072 O 0.51470 0.23095 0.75148
 O1073 O 0.48511 0.23095 0.75145
 O1074 O 0.51471 0.25144 0.73110
 O1075 O 0.51469 0.26890 0.74865
 O1076 O 0.48508 0.24841 0.76900
 O1077 O 0.51468 0.24841 0.76902
 O1078 O 0.48511 0.26892 0.74864
 Cu1079 Cu 0.49992 0.23945 0.73953
 Cu1080 Cu 0.49989 0.26041 0.76058
 C1081 C 0.47975 0.26348 0.73661
 C1082 C 0.52006 0.23639 0.76351
 C1083 C 0.47973 0.23639 0.76349
 C1084 C 0.52007 0.26346 0.73661
 O1085 O -0.01505 0.26897 0.75139
 O1086 O 0.01453 0.24839 0.73108
 O1087 O -0.01506 0.24839 0.73112
 O1088 O 0.01455 0.26891 0.75142
 O1089 O 0.01454 0.25150 0.76902
 O1090 O -0.01505 0.23097 0.74871
 O1091 O 0.01454 0.23097 0.74868
 O1092 O -0.01507 0.25155 0.76899
 Cu1093 Cu -0.00026 0.26041 0.73950
 Cu1094 Cu -0.00026 0.23951 0.76061
 C1095 C -0.02042 0.26357 0.76344
 C1096 C 0.01990 0.23638 0.73662
 C1097 C -0.02042 0.23638 0.73666
 C1098 C 0.01991 0.26350 0.76348
 O1099 O 0.48525 0.26875 0.25136
 O1100 O 0.51483 0.24821 0.23101
 O1101 O 0.48524 0.24820 0.23105
 O1102 O 0.51485 0.26875 0.25133
 O1103 O 0.51489 0.25132 0.26892
 O1104 O 0.48527 0.23078 0.24864
 O1105 O 0.51486 0.23078 0.24860
 O1106 O 0.48528 0.25132 0.26895
 Cu1107 Cu 0.50004 0.26022 0.23943
 Cu1108 Cu 0.50008 0.23931 0.26053
 C1109 C 0.47990 0.26332 0.26342
 C1110 C 0.52021 0.23619 0.23654
 C1111 C 0.47989 0.23619 0.23659
 C1112 C 0.52024 0.26334 0.26338
 O1113 O 1.01486 0.76920 0.74865
 O1114 O 0.98525 0.74868 0.76897
 O1115 O 1.01484 0.74866 0.76898
 O1116 O 0.98527 0.76919 0.74861
 O1117 O 0.98531 0.75175 0.73105
 O1118 O 1.01486 0.73121 0.75141
 O1119 O 0.98528 0.73124 0.75141
 O1120 O 1.01490 0.75175 0.73109
 Cu1121 Cu 1.00005 0.76068 0.76056
 Cu1122 Cu 1.00009 0.73974 0.73948
 C1123 C 1.02024 0.76377 0.73662
 C1124 C 0.97990 0.73666 0.76345
 C1125 C 1.02021 0.73664 0.76346
 C1126 C 0.97993 0.76376 0.73656
 O1127 O 0.51478 0.76911 0.24870
 O1128 O 0.48516 0.74860 0.26899
 O1129 O 0.51475 0.74860 0.26903
 O1130 O 0.48520 0.76912 0.24864
 O1131 O 0.48525 0.75167 0.23108
 O1132 O 0.51479 0.73115 0.25147
 O1133 O 0.48521 0.73115 0.25143
 O1134 O 0.51483 0.75167 0.23113
 Cu1135 Cu 0.49996 0.76060 0.26060
 Cu1136 Cu 0.50002 0.73966 0.23952
 C1137 C 0.52017 0.76368 0.23666
 C1138 C 0.47982 0.73658 0.26346
 C1139 C 0.52013 0.73658 0.26351
 C1140 C 0.47987 0.76369 0.23659
 O1141 O 0.01471 0.75161 0.26892
 O1142 O -0.01489 0.73105 0.24865
 O1143 O 0.01470 0.73109 0.24858
 O1144 O -0.01490 0.75162 0.26893
 O1145 O -0.01493 0.76905 0.25134
 O1146 O 0.01464 0.74851 0.23099
 O1147 O -0.01495 0.74847 0.23106
 O1148 O 0.01467 0.76903 0.25133
 Cu1149 Cu -0.00009 0.73960 0.26053
 Cu1150 Cu -0.00015 0.76051 0.23943
 C1151 C 0.02006 0.76362 0.26338
 C1152 C -0.02028 0.73646 0.23661
 C1153 C 0.02003 0.73650 0.23652
 C1154 C -0.02029 0.76363 0.26340
 O1155 O 0.51475 0.75173 0.76914
 O1156 O 0.48515 0.73122 0.74879
 O1157 O 0.51475 0.73121 0.74880
 O1158 O 0.48514 0.75172 0.76916
 O1159 O 0.48512 0.76918 0.75160
 O1160 O 0.51474 0.74867 0.73124
 O1161 O 0.48514 0.74868 0.73123
 O1162 O 0.51473 0.76919 0.75159
 Cu1163 Cu 0.49995 0.73973 0.76073
 Cu1164 Cu 0.49993 0.76068 0.73966
 C1165 C 0.52011 0.76376 0.76363
 C1166 C 0.47978 0.73666 0.73675
 C1167 C 0.52011 0.73664 0.73676
 C1168 C 0.47975 0.76374 0.76364
 C1169 C 0.44728 0.28984 0.27052
 C1170 C 0.44081 0.28347 0.28333
 C1171 C 0.44732 0.27072 0.28984
 C1172 C 0.46024 0.26435 0.28357
 C1173 C 0.39232 0.30744 0.30723
 C1174 C 0.46021 0.28349 0.26422
 C1175 C 0.42750 0.29000 0.28979
 C1176 C 0.41637 0.29550 0.29524
 C1177 C 0.40339 0.30195 0.30168
 C1178 C 0.46684 0.27066 0.27068
 H1179 H 0.44227 0.29964 0.26533
 H1180 H 0.44234 0.26563 0.29970
 H1181 H 0.46493 0.25435 0.28869
 H1182 H 0.46487 0.28850 0.25418
 C1183 C 0.44712 0.79024 0.77076
 C1184 C 0.44063 0.78386 0.78355
 C1185 C 0.44713 0.77110 0.79005
 C1186 C 0.46007 0.76474 0.78378
 C1187 C 0.39208 0.80790 0.80736
 C1188 C 0.46006 0.78391 0.76447
 C1189 C 0.42730 0.79040 0.79000
 C1190 C 0.41617 0.79591 0.79542
 C1191 C 0.40315 0.80240 0.80182
 C1192 C 0.46668 0.77107 0.77090
 H1193 H 0.44212 0.80006 0.76557
 H1194 H 0.44214 0.76600 0.79990
 H1195 H 0.46476 0.75474 0.78889
 H1196 H 0.46473 0.78893 0.75443
 C1197 C -0.05301 0.27108 0.78983
 C1198 C -0.05948 0.28384 0.78330
 C1199 C -0.05297 0.29017 0.77048
 C1200 C -0.04006 0.28378 0.76420
 C1201 C -0.10796 0.30798 0.80706
 C1202 C -0.04010 0.26466 0.78357
 C1203 C -0.07279 0.29042 0.78972
 C1204 C -0.08391 0.29596 0.79513
 C1205 C -0.09690 0.30246 0.80152
 C1206 C -0.03347 0.27094 0.77068
 H1207 H -0.05801 0.26603 0.79969
 H1208 H -0.05795 0.29999 0.76527
 H1209 H -0.03539 0.28876 0.75416
 H1210 H -0.03544 0.25466 0.78871
 C1211 C -0.05291 0.79014 0.27047
 C1212 C -0.05940 0.78377 0.28327
 C1213 C -0.05289 0.77103 0.28980
 C1214 C -0.03995 0.76466 0.28354
 C1215 C -0.10773 0.80792 0.30733
 C1216 C -0.03997 0.78380 0.26419
 C1217 C -0.07271 0.79032 0.28973
 C1218 C -0.08381 0.79584 0.29520
 C1219 C -0.09673 0.80235 0.30170
 C1220 C -0.03335 0.77097 0.27065
 H1221 H -0.05791 0.79995 0.26528
 H1222 H -0.05787 0.76595 0.29966
 H1223 H -0.03526 0.75467 0.28866
 H1224 H -0.03530 0.78881 0.25415
 C1225 C 0.55273 0.71009 0.27064
 C1226 C 0.55919 0.71646 0.28344
 C1227 C 0.55269 0.72922 0.28994
 C1228 C 0.53977 0.73559 0.28366
 C1229 C 0.60764 0.69241 0.30724
 C1230 C 0.53981 0.71643 0.26434
 C1231 C 0.57248 0.70992 0.28990
 C1232 C 0.58359 0.70439 0.29533
 C1233 C 0.59656 0.69791 0.30173
 C1234 C 0.53318 0.72925 0.27078
 H1235 H 0.55774 0.70028 0.26546
 H1236 H 0.55767 0.73431 0.29979
 H1237 H 0.53507 0.74558 0.28876
 H1238 H 0.53515 0.71141 0.25430
 C1239 C 0.55268 0.20990 0.77064
 C1240 C 0.55916 0.21629 0.78343
 C1241 C 0.55265 0.22905 0.78992
 C1242 C 0.53971 0.23540 0.78365
 C1243 C 0.60766 0.19226 0.80726
 C1244 C 0.53974 0.21622 0.76435
 C1245 C 0.57248 0.20976 0.78988
 C1246 C 0.58361 0.20425 0.79531
 C1247 C 0.59659 0.19777 0.80172
 C1248 C 0.53311 0.22906 0.77078
 H1249 H 0.55768 0.20008 0.76547
 H1250 H 0.55764 0.23415 0.79976
 H1251 H 0.53502 0.24540 0.78875
 H1252 H 0.53507 0.21119 0.75433
 C1253 C 1.05277 0.72923 0.78988
 C1254 C 1.05925 0.71647 0.78338
 C1255 C 1.05278 0.71009 0.77058
 C1256 C 1.03986 0.71645 0.76428
 C1257 C 1.10773 0.69247 0.80721
 C1258 C 1.03986 0.73561 0.78360
 C1259 C 1.07256 0.70992 0.78982
 C1260 C 1.08368 0.70442 0.79525
 C1261 C 1.09667 0.69796 0.80167
 C1262 C 1.03325 0.72930 0.77072
 H1263 H 1.05776 0.73431 0.79973
 H1264 H 1.05777 0.70028 0.76540
 H1265 H 1.03520 0.71145 0.75424
 H1266 H 1.03518 0.74562 0.78870
 C1267 C 1.05272 0.22921 0.28984
 C1268 C 1.05924 0.21648 0.28333
 C1269 C 1.05278 0.21010 0.27052
 C1270 C 1.03985 0.21643 0.26423
 C1271 C 1.10754 0.19236 0.30739
 C1272 C 1.03979 0.23557 0.28357
 C1273 C 1.07254 0.20994 0.28979
 C1274 C 1.08363 0.20442 0.29527
 C1275 C 1.09655 0.19792 0.30177
 C1276 C 1.03321 0.22925 0.27069
 H1277 H 1.05769 0.23429 0.29970
 H1278 H 1.05779 0.20029 0.26534
 H1279 H 1.03519 0.21142 0.25420
 H1280 H 1.03509 0.24556 0.28869
 C1281 C 0.55266 0.27083 0.71019
 C1282 C 0.55915 0.28358 0.71668
 C1283 C 0.55265 0.28997 0.72947
 C1284 C 0.53972 0.28363 0.73577
 C1285 C 0.60762 0.30759 0.69279
 C1286 C 0.53974 0.26446 0.71646
 C1287 C 0.57246 0.29012 0.71022
 C1288 C 0.58358 0.29563 0.70477
 C1289 C 0.59656 0.30209 0.69834
 C1290 C 0.53312 0.27079 0.72934
 H1291 H 0.55766 0.26573 0.70034
 H1292 H 0.55763 0.29978 0.73465
 H1293 H 0.53504 0.28865 0.74580
 H1294 H 0.53507 0.25447 0.71136
 C1295 C 0.55279 0.77110 0.21029
 C1296 C 0.55924 0.78386 0.21681
 C1297 C 0.55272 0.79022 0.22960
 C1298 C 0.53981 0.78386 0.23588
 C1299 C 0.60769 0.80793 0.19304
 C1300 C 0.53987 0.76471 0.21655
 C1301 C 0.57253 0.79043 0.21037
 C1302 C 0.58364 0.79596 0.20495
 C1303 C 0.59661 0.80244 0.19856
 C1304 C 0.53323 0.77102 0.22942
 H1305 H 0.55780 0.76602 0.20045
 H1306 H 0.55769 0.80003 0.23479
 H1307 H 0.53511 0.78887 0.24591
 H1308 H 0.53522 0.75471 0.21143
 C1309 C 1.05274 0.29029 0.22955
 C1310 C 1.05925 0.28395 0.21675
 C1311 C 1.05280 0.27120 0.21022
 C1312 C 1.03989 0.26479 0.21647
 C1313 C 1.10777 0.30792 0.19297
 C1314 C 1.03982 0.28392 0.23583
 C1315 C 1.07257 0.29051 0.21033
 C1316 C 1.08370 0.29601 0.20492
 C1317 C 1.09670 0.30244 0.19852
 C1318 C 1.03325 0.27108 0.22936
 H1319 H 1.05770 0.30010 0.23475
 H1320 H 1.05782 0.26613 0.20037
 H1321 H 1.03524 0.25480 0.21134
 H1322 H 1.03513 0.28891 0.24586
 C1323 C 1.05283 0.77120 0.71021
 C1324 C 1.05929 0.78395 0.71672
 C1325 C 1.05279 0.79032 0.72952
 C1326 C 1.03988 0.78395 0.73581
 C1327 C 1.10779 0.80789 0.69287
 C1328 C 1.03992 0.76481 0.71648
 C1329 C 1.07261 0.79049 0.71028
 C1330 C 1.08373 0.79599 0.70485
 C1331 C 1.09672 0.80242 0.69842
 C1332 C 1.03329 0.77112 0.72936
 H1333 H 1.05784 0.76612 0.70036
 H1334 H 1.05776 0.80013 0.73471
 H1335 H 1.03520 0.78896 0.74585
 H1336 H 1.03527 0.75481 0.71137
 C1337 C 0.44722 0.71012 0.72959
 C1338 C 0.44073 0.71650 0.71679
 C1339 C 0.44722 0.72926 0.71029
 C1340 C 0.46013 0.73564 0.71658
 C1341 C 0.39229 0.69246 0.69286
 C1342 C 0.46013 0.71648 0.73591
 C1343 C 0.42743 0.70995 0.71032
 C1344 C 0.41632 0.70444 0.70487
 C1345 C 0.40335 0.69797 0.69842
 C1346 C 0.46673 0.72932 0.72948
 H1347 H 0.44224 0.70030 0.73477
 H1348 H 0.44224 0.73435 0.70044
 H1349 H 0.46480 0.74563 0.71148
 H1350 H 0.46479 0.71146 0.74594
 C1351 C 0.44730 0.22874 0.21020
 C1352 C 0.44083 0.21599 0.21672
 C1353 C 0.44733 0.20964 0.22953
 C1354 C 0.46025 0.21600 0.23581
 C1355 C 0.39232 0.19206 0.19291
 C1356 C 0.46021 0.23513 0.21646
 C1357 C 0.42751 0.20944 0.21030
 C1358 C 0.41638 0.20395 0.20488
 C1359 C 0.40339 0.19752 0.19846
 C1360 C 0.46684 0.22884 0.22935
 H1361 H 0.44230 0.23381 0.20034
 H1362 H 0.44236 0.19983 0.23474
 H1363 H 0.46492 0.21101 0.24586
 H1364 H 0.46487 0.24513 0.21133
 C1365 C -0.05280 0.70986 0.22957
 C1366 C -0.05931 0.71620 0.21676
 C1367 C -0.05287 0.72896 0.21023
 C1368 C -0.03996 0.73537 0.21648
 C1369 C -0.10780 0.69217 0.19300
 C1370 C -0.03989 0.71624 0.23584
 C1371 C -0.07263 0.70964 0.21035
 C1372 C -0.08375 0.70413 0.20495
 C1373 C -0.09674 0.69767 0.19855
 C1374 C -0.03332 0.72908 0.22937
 H1375 H -0.05776 0.70004 0.23478
 H1376 H -0.05788 0.73402 0.20037
 H1377 H -0.03532 0.74537 0.21135
 H1378 H -0.03520 0.71125 0.24588
 C1379 C -0.05297 0.22890 0.71023
 C1380 C -0.05944 0.21615 0.71676
 C1381 C -0.05295 0.20981 0.72958
 C1382 C -0.04005 0.21618 0.73587
 C1383 C -0.10786 0.19211 0.69287
 C1384 C -0.04007 0.23530 0.71650
 C1385 C -0.07274 0.20958 0.71031
 C1386 C -0.08384 0.20406 0.70487
 C1387 C -0.09681 0.19760 0.69844
 C1388 C -0.03346 0.22902 0.72940
 H1389 H -0.05796 0.23396 0.70037
 H1390 H -0.05792 0.20000 0.73478
 H1391 H -0.03537 0.21119 0.74592
 H1392 H -0.03541 0.24530 0.71137
 C1393 C 0.27071 0.44708 0.28971
 C1394 C 0.28348 0.44058 0.28322
 C1395 C 0.28990 0.44707 0.27044
 C1396 C 0.28357 0.46000 0.26415
 C1397 C 0.30759 0.39230 0.30739
 C1398 C 0.26436 0.46002 0.28344
 C1399 C 0.29002 0.42728 0.28971
 C1400 C 0.29553 0.41619 0.29521
 C1401 C 0.30203 0.40328 0.30174
 C1402 C 0.27073 0.46664 0.27058
 H1403 H 0.26560 0.44210 0.29955
 H1404 H 0.29973 0.44207 0.26527
 H1405 H 0.28862 0.46467 0.25412
 H1406 H 0.25435 0.46470 0.28854
 C1407 C 0.27116 -0.05337 0.78977
 C1408 C 0.28396 -0.05984 0.78327
 C1409 C 0.29029 -0.05331 0.77046
 C1410 C 0.28389 -0.04039 0.76418
 C1411 C 0.30820 -0.10839 0.80720
 C1412 C 0.26474 -0.04045 0.78351
 C1413 C 0.29058 -0.07317 0.78973
 C1414 C 0.29614 -0.08430 0.79518
 C1415 C 0.30267 -0.09732 0.80163
 C1416 C 0.27104 -0.03378 0.77063
 H1417 H 0.26608 -0.05837 0.79962
 H1418 H 0.30012 -0.05827 0.76526
 H1419 H 0.28889 -0.03570 0.75415
 H1420 H 0.25472 -0.03580 0.78863
 C1421 C 0.79020 0.44708 0.77078
 C1422 C 0.78381 0.44060 0.78357
 C1423 C 0.77104 0.44710 0.79006
 C1424 C 0.76467 0.46002 0.78379
 C1425 C 0.80773 0.39207 0.80744
 C1426 C 0.78386 0.46000 0.76448
 C1427 C 0.79033 0.42727 0.79002
 C1428 C 0.79582 0.41614 0.79546
 C1429 C 0.80225 0.40315 0.80189
 C1430 C 0.77101 0.46663 0.77091
 H1431 H 0.80002 0.44208 0.76559
 H1432 H 0.76593 0.44211 0.79991
 H1433 H 0.75466 0.46470 0.78889
 H1434 H 0.78889 0.46466 0.75444
 C1435 C 0.79007 -0.05326 0.27061
 C1436 C 0.78366 -0.05972 0.28340
 C1437 C 0.77090 -0.05321 0.28989
 C1438 C 0.76455 -0.04027 0.28361
 C1439 C 0.80775 -0.10800 0.30762
 C1440 C 0.78375 -0.04032 0.26431
 C1441 C 0.79019 -0.07302 0.28990
 C1442 C 0.79570 -0.08410 0.29541
 C1443 C 0.80219 -0.09702 0.30195
 C1444 C 0.77092 -0.03367 0.27074
 H1445 H 0.79989 -0.05827 0.26544
 H1446 H 0.76579 -0.05818 0.29974
 H1447 H 0.75455 -0.03557 0.28871
 H1448 H 0.78880 -0.03566 0.25428
 C1449 C 0.27085 0.55274 0.71016
 C1450 C 0.28361 0.55923 0.71666
 C1451 C 0.29000 0.55274 0.72946
 C1452 C 0.28365 0.53982 0.73576
 C1453 C 0.30762 0.60772 0.69279
 C1454 C 0.26449 0.53983 0.71644
 C1455 C 0.29015 0.57255 0.71021
 C1456 C 0.29566 0.58367 0.70477
 C1457 C 0.30212 0.59665 0.69834
 C1458 C 0.27081 0.53321 0.72932
 H1459 H 0.26576 0.55773 0.70031
 H1460 H 0.29981 0.55772 0.73464
 H1461 H 0.28868 0.53515 0.74579
 H1462 H 0.25449 0.53516 0.71133
 C1463 C 0.27100 1.05272 0.21003
 C1464 C 0.28375 1.05918 0.21655
 C1465 C 0.29014 1.05271 0.22934
 C1466 C 0.28380 1.03981 0.23562
 C1467 C 0.30767 1.10758 0.19282
 C1468 C 0.26464 1.03982 0.21629
 C1469 C 0.29026 1.07247 0.21013
 C1470 C 0.29575 1.08357 0.20473
 C1471 C 0.30219 1.09653 0.19834
 C1472 C 0.27097 1.03322 0.22917
 H1473 H 0.26591 1.05773 0.20018
 H1474 H 0.29995 1.05770 0.23453
 H1475 H 0.28882 1.03514 0.24566
 H1476 H 0.25463 1.03516 0.21118
 C1477 C 0.79006 0.55275 0.22942
 C1478 C 0.78366 0.55922 0.21662
 C1479 C 0.77090 0.55276 0.21012
 C1480 C 0.76454 0.53986 0.21640
 C1481 C 0.80756 0.60766 0.19293
 C1482 C 0.78372 0.53986 0.23572
 C1483 C 0.79017 0.57250 0.21019
 C1484 C 0.79566 0.58361 0.20479
 C1485 C 0.80209 0.59658 0.19842
 C1486 C 0.77089 0.53326 0.22927
 H1487 H 0.79987 0.55775 0.23460
 H1488 H 0.76580 0.55776 0.20028
 H1489 H 0.75453 0.53519 0.21130
 H1490 H 0.78875 0.53519 0.24576
 C1491 C 0.79007 1.05276 0.72938
 C1492 C 0.78366 1.05922 0.71659
 C1493 C 0.77091 1.05275 0.71009
 C1494 C 0.76455 1.03985 0.71637
 C1495 C 0.80759 1.10757 0.69278
 C1496 C 0.78374 1.03986 0.73569
 C1497 C 0.79017 1.07250 0.71015
 C1498 C 0.79566 1.08359 0.70473
 C1499 C 0.80210 1.09653 0.69832
 C1500 C 0.77089 1.03328 0.72926
 H1501 H 0.79989 1.05775 0.73455
 H1502 H 0.76581 1.05774 0.70024
 H1503 H 0.75454 1.03519 0.71127
 H1504 H 0.78877 1.03520 0.74573
 C1505 C 0.71005 0.55294 0.27052
 C1506 C 0.71644 0.55940 0.28331
 C1507 C 0.72922 0.55291 0.28979
 C1508 C 0.73558 0.53999 0.28352
 C1509 C 0.69235 0.60780 0.30719
 C1510 C 0.71638 0.54002 0.26422
 C1511 C 0.70988 0.57269 0.28979
 C1512 C 0.70435 0.58378 0.29523
 C1513 C 0.69786 0.59674 0.30166
 C1514 C 0.72922 0.53338 0.27066
 H1515 H 0.70022 0.55794 0.26535
 H1516 H 0.73433 0.55789 0.29963
 H1517 H 0.74559 0.53531 0.28861
 H1518 H 0.71135 0.53536 0.25419
 C1519 C 0.72909 1.05320 0.78987
 C1520 C 0.71630 1.05971 0.78341
 C1521 C 0.70993 1.05321 0.77061
 C1522 C 0.71628 1.04028 0.76430
 C1523 C 0.69221 1.10821 0.80746
 C1524 C 0.73548 1.04028 0.78358
 C1525 C 0.70973 1.07303 0.78990
 C1526 C 0.70420 1.08415 0.79538
 C1527 C 0.69772 1.09714 0.80187
 C1528 C 0.72914 1.03365 0.77072
 H1529 H 0.73420 1.05818 0.79971
 H1530 H 0.70009 1.05819 0.76544
 H1531 H 0.71125 1.03561 0.75428
 H1532 H 0.74549 1.03560 0.78868
 C1533 C 0.22903 0.55269 0.78987
 C1534 C 0.21626 0.55919 0.78338
 C1535 C 0.20986 0.55271 0.77059
 C1536 C 0.21620 0.53979 0.76430
 C1537 C 0.19235 0.60771 0.80721
 C1538 C 0.23539 0.53977 0.78360
 C1539 C 0.20974 0.57251 0.78982
 C1540 C 0.20426 0.58364 0.79525
 C1541 C 0.19783 0.59663 0.80167
 C1542 C 0.22905 0.53317 0.77074
 H1543 H 0.23413 0.55768 0.79971
 H1544 H 0.20004 0.55772 0.76541
 H1545 H 0.21117 0.53513 0.75427
 H1546 H 0.24540 0.53509 0.78870
 C1547 C 0.22923 1.05289 0.28965
 C1548 C 0.21645 1.05938 0.28317
 C1549 C 0.21007 1.05291 0.27037
 C1550 C 0.21641 1.04000 0.26407
 C1551 C 0.19242 1.10778 0.30710
 C1552 C 0.23559 1.03997 0.28338
 C1553 C 0.20990 1.07267 0.28964
 C1554 C 0.20438 1.08376 0.29509
 C1555 C 0.19791 1.09672 0.30154
 C1556 C 0.22925 1.03337 0.27051
 H1557 H 0.23432 1.05787 0.29950
 H1558 H 0.20025 1.05792 0.26519
 H1559 H 0.21139 1.03534 0.25404
 H1560 H 0.24560 1.03529 0.28848
 C1561 C 0.71006 0.44712 0.72960
 C1562 C 0.71644 0.44064 0.71679
 C1563 C 0.72921 0.44713 0.71030
 C1564 C 0.73559 0.46004 0.71659
 C1565 C 0.69240 0.39223 0.69283
 C1566 C 0.71641 0.46003 0.73591
 C1567 C 0.70989 0.42734 0.71031
 C1568 C 0.70438 0.41624 0.70485
 C1569 C 0.69791 0.40327 0.69840
 C1570 C 0.72926 0.46664 0.72948
 H1571 H 0.70024 0.44214 0.73477
 H1572 H 0.73431 0.44216 0.70044
 H1573 H 0.74559 0.46471 0.71148
 H1574 H 0.71138 0.46469 0.74594
 C1575 C 0.71006 -0.05293 0.22952
 C1576 C 0.71645 -0.05939 0.21673
 C1577 C 0.72922 -0.05295 0.21022
 C1578 C 0.73559 -0.04005 0.21649
 C1579 C 0.69235 -0.10767 0.19298
 C1580 C 0.71640 -0.04004 0.23581
 C1581 C 0.70990 -0.07265 0.21029
 C1582 C 0.70436 -0.08372 0.20487
 C1583 C 0.69786 -0.09664 0.19849
 C1584 C 0.72925 -0.03345 0.22937
 H1585 H 0.70023 -0.05791 0.23470
 H1586 H 0.73432 -0.05795 0.20038
 H1587 H 0.74560 -0.03540 0.21139
 H1588 H 0.71137 -0.03537 0.24585
 C1589 C 0.22904 0.44730 0.21007
 C1590 C 0.21628 0.44084 0.21658
 C1591 C 0.20987 0.44731 0.22936
 C1592 C 0.21620 0.46021 0.23565
 C1593 C 0.19240 0.39242 0.19284
 C1594 C 0.23540 0.46021 0.21633
 C1595 C 0.20977 0.42755 0.21015
 C1596 C 0.20430 0.41644 0.20475
 C1597 C 0.19788 0.40347 0.19837
 C1598 C 0.22904 0.46681 0.22920
 H1599 H 0.23415 0.44230 0.20022
 H1600 H 0.20005 0.44232 0.23454
 H1601 H 0.21117 0.46488 0.24568
 H1602 H 0.24541 0.46487 0.21123
 C1603 C 0.20997 -0.05284 0.72939
 C1604 C 0.21636 -0.05929 0.71658
 C1605 C 0.22912 -0.05281 0.71007
 C1606 C 0.23549 -0.03993 0.71636
 C1607 C 0.19245 -0.10765 0.69279
 C1608 C 0.21632 -0.03997 0.73571
 C1609 C 0.20985 -0.07256 0.71015
 C1610 C 0.20437 -0.08366 0.70473
 C1611 C 0.19794 -0.09661 0.69833
 C1612 C 0.22917 -0.03337 0.72927
 H1613 H 0.20016 -0.05785 0.73457
 H1614 H 0.23420 -0.05779 0.70021
 H1615 H 0.24549 -0.03526 0.71126
 H1616 H 0.21131 -0.03532 0.74576
 C1617 C 0.27059 0.28987 0.44737
 C1618 C 0.28338 0.28341 0.44088
 C1619 C 0.28985 0.27062 0.44736
 C1620 C 0.28355 0.26431 0.46027
 C1621 C 0.30735 0.30745 0.39254
 C1622 C 0.26428 0.28358 0.46028
 C1623 C 0.28987 0.28991 0.42758
 C1624 C 0.29534 0.29540 0.41649
 C1625 C 0.30180 0.30189 0.40356
 C1626 C 0.27068 0.27071 0.46689
 H1627 H 0.26544 0.29971 0.44238
 H1628 H 0.29969 0.26547 0.44237
 H1629 H 0.28863 0.25428 0.46494
 H1630 H 0.25425 0.28866 0.46496
 C1631 C 0.27105 0.78983 -0.05285
 C1632 C 0.28384 0.78335 -0.05931
 C1633 C 0.29026 0.77056 -0.05280
 C1634 C 0.28393 0.76426 -0.03989
 C1635 C 0.30777 0.80723 -0.10779
 C1636 C 0.26469 0.78356 -0.03994
 C1637 C 0.29036 0.78981 -0.07263
 C1638 C 0.29583 0.79527 -0.08374
 C1639 C 0.30227 0.80171 -0.09673
 C1640 C 0.27106 0.77069 -0.03331
 H1641 H 0.26591 0.79967 -0.05785
 H1642 H 0.30011 0.76538 -0.05777
 H1643 H 0.28899 0.75424 -0.03521
 H1644 H 0.25466 0.78866 -0.03529
 C1645 C 0.77054 0.29021 -0.05270
 C1646 C 0.78334 0.28380 -0.05921
 C1647 C 0.78984 0.27102 -0.05276
 C1648 C 0.78357 0.26466 -0.03985
 C1649 C 0.80712 0.30782 -0.10765
 C1650 C 0.76425 0.28388 -0.03979
 C1651 C 0.78979 0.29032 -0.07252
 C1652 C 0.79522 0.29581 -0.08363
 C1653 C 0.80162 0.30228 -0.09660
 C1654 C 0.77069 0.27102 -0.03321
 H1655 H 0.76536 0.30005 -0.05766
 H1656 H 0.79969 0.26589 -0.05777
 H1657 H 0.78868 0.25464 -0.03521
 H1658 H 0.75422 0.28893 -0.03510
 C1659 C 0.77053 0.79014 0.44730
 C1660 C 0.78331 0.78369 0.44078
 C1661 C 0.78980 0.77091 0.44725
 C1662 C 0.78353 0.76458 0.46017
 C1663 C 0.80736 0.80788 0.39254
 C1664 C 0.76423 0.78383 0.46022
 C1665 C 0.78980 0.79022 0.42749
 C1666 C 0.79528 0.79574 0.41641
 C1667 C 0.80177 0.80227 0.40351
 C1668 C 0.77066 0.77097 0.46681
 H1669 H 0.76536 0.79998 0.44233
 H1670 H 0.79964 0.76578 0.44225
 H1671 H 0.78863 0.75457 0.46483
 H1672 H 0.75421 0.78890 0.46491
 C1673 C 0.71003 0.27056 0.55263
 C1674 C 0.71650 0.28332 0.55911
 C1675 C 0.72930 0.28974 0.55263
 C1676 C 0.73562 0.28343 0.53972
 C1677 C 0.69265 0.30725 0.60757
 C1678 C 0.71632 0.26423 0.53972
 C1679 C 0.71002 0.28981 0.57242
 C1680 C 0.70457 0.29528 0.58353
 C1681 C 0.69815 0.30173 0.59651
 C1682 C 0.72920 0.27060 0.53311
 H1683 H 0.70018 0.26543 0.55761
 H1684 H 0.73447 0.29955 0.55763
 H1685 H 0.74566 0.28848 0.53506
 H1686 H 0.71123 0.25422 0.53505
 C1687 C 0.72940 0.79007 1.05288
 C1688 C 0.71660 0.78365 1.05937
 C1689 C 0.71011 0.77090 1.05290
 C1690 C 0.71639 0.76456 1.03999
 C1691 C 0.69272 0.80756 1.10778
 C1692 C 0.73570 0.78375 1.03997
 C1693 C 0.71014 0.79015 1.07267
 C1694 C 0.70469 0.79562 1.08378
 C1695 C 0.69825 0.80205 1.09674
 C1696 C 0.72926 0.77092 1.03337
 H1697 H 0.73458 0.79988 1.05786
 H1698 H 0.70026 0.76578 1.05790
 H1699 H 0.71129 0.75455 1.03533
 H1700 H 0.74574 0.78879 1.03529
 C1701 C 0.21010 0.27081 1.05284
 C1702 C 0.21660 0.28358 1.05928
 C1703 C 0.22940 0.28998 1.05277
 C1704 C 0.23569 0.28363 1.03987
 C1705 C 0.19274 0.30760 1.10766
 C1706 C 0.21637 0.26444 1.03994
 C1707 C 0.21015 0.29011 1.07257
 C1708 C 0.20470 0.29560 1.08367
 C1709 C 0.19827 0.30207 1.09662
 C1710 C 0.22925 0.27078 1.03330
 H1711 H 0.20026 0.26571 1.05786
 H1712 H 0.23458 0.29980 1.05773
 H1713 H 0.24573 0.28866 1.03517
 H1714 H 0.21127 0.25443 1.03530
 C1715 C 0.22941 0.79019 0.55261
 C1716 C 0.21662 0.78377 0.55911
 C1717 C 0.21014 0.77100 0.55265
 C1718 C 0.21641 0.76466 0.53974
 C1719 C 0.19274 0.80766 0.60754
 C1720 C 0.23571 0.78387 0.53969
 C1721 C 0.21016 0.79027 0.57241
 C1722 C 0.20470 0.79573 0.58352
 C1723 C 0.19827 0.80216 0.59649
 C1724 C 0.22928 0.77103 0.53310
 H1725 H 0.23458 0.80001 0.55758
 H1726 H 0.20030 0.76588 0.55766
 H1727 H 0.21131 0.75465 0.53509
 H1728 H 0.24574 0.78892 0.53501
 C1729 C 0.27068 0.71022 0.55264
 C1730 C 0.28348 0.71664 0.55912
 C1731 C 0.28995 0.72941 0.55263
 C1732 C 0.28366 0.73574 0.53971
 C1733 C 0.30735 0.69273 0.60757
 C1734 C 0.26437 0.71652 0.53973
 C1735 C 0.28996 0.71015 0.57242
 C1736 C 0.29542 0.70469 0.58354
 C1737 C 0.30184 0.69825 0.59651
 C1738 C 0.27078 0.72936 0.53311
 H1739 H 0.26552 0.70040 0.55764
 H1740 H 0.29979 0.73454 0.55761
 H1741 H 0.28874 0.74574 0.53504
 H1742 H 0.25433 0.71146 0.53507
 C1743 C 0.28985 0.22903 1.05280
 C1744 C 0.28337 0.21627 1.05927
 C1745 C 0.27057 0.20986 1.05279
 C1746 C 0.26426 0.21618 1.03989
 C1747 C 0.30732 0.19235 1.10765
 C1748 C 0.28357 0.23538 1.03989
 C1749 C 0.28985 0.20976 1.07256
 C1750 C 0.29532 0.20429 1.08366
 C1751 C 0.30177 0.19786 1.09661
 C1752 C 0.27069 0.22902 1.03329
 H1753 H 0.29970 0.23415 1.05779
 H1754 H 0.26540 0.20004 1.05778
 H1755 H 0.25422 0.21114 1.03522
 H1756 H 0.28866 0.24539 1.03523
 C1757 C 0.78983 0.72913 1.05290
 C1758 C 0.78334 0.71636 1.05934
 C1759 C 0.77054 0.70997 1.05284
 C1760 C 0.76424 0.71631 1.03994
 C1761 C 0.80719 0.69244 1.10777
 C1762 C 0.78356 0.73550 1.04000
 C1763 C 0.78980 0.70983 1.07263
 C1764 C 0.79525 0.70435 1.08373
 C1765 C 0.80168 0.69792 1.09670
 C1766 C 0.77069 0.72916 1.03336
 H1767 H 0.79967 0.73424 1.05791
 H1768 H 0.76535 0.70014 1.05781
 H1769 H 0.75421 0.71129 1.03526
 H1770 H 0.78866 0.74552 1.03536
 C1771 C 0.77056 0.20976 0.55261
 C1772 C 0.78334 0.21618 0.55911
 C1773 C 0.78983 0.22895 0.55265
 C1774 C 0.78356 0.23529 0.53973
 C1775 C 0.80720 0.19231 0.60756
 C1776 C 0.76427 0.21607 0.53970
 C1777 C 0.78980 0.20968 0.57242
 C1778 C 0.79525 0.20422 0.58353
 C1779 C 0.80168 0.19781 0.59650
 C1780 C 0.77070 0.22892 0.53311
 H1781 H 0.76538 0.19993 0.55759
 H1782 H 0.79966 0.23407 0.55766
 H1783 H 0.78866 0.24530 0.53508
 H1784 H 0.75424 0.21103 0.53501
 C1785 C 0.70998 0.72941 0.44737
 C1786 C 0.71645 0.71663 0.44089
 C1787 C 0.72925 0.71019 0.44737
 C1788 C 0.73557 0.71649 0.46028
 C1789 C 0.69259 0.69271 0.39248
 C1790 C 0.71627 0.73573 0.46028
 C1791 C 0.70998 0.71015 0.42759
 C1792 C 0.70453 0.70469 0.41648
 C1793 C 0.69811 0.69824 0.40352
 C1794 C 0.72915 0.72934 0.46688
 H1795 H 0.70013 0.73456 0.44238
 H1796 H 0.73442 0.70036 0.44239
 H1797 H 0.74560 0.71142 0.46494
 H1798 H 0.71118 0.74575 0.46494
 C1799 C 0.72929 0.21019 -0.05271
 C1800 C 0.71648 0.21662 -0.05917
 C1801 C 0.71000 0.22939 -0.05268
 C1802 C 0.71630 0.23572 -0.03978
 C1803 C 0.69268 0.19263 -0.10761
 C1804 C 0.73562 0.21649 -0.03981
 C1805 C 0.70999 0.21012 -0.07247
 C1806 C 0.70455 0.20464 -0.08358
 C1807 C 0.69815 0.19817 -0.09655
 C1808 C 0.72920 0.22934 -0.03319
 H1809 H 0.73447 0.20037 -0.05770
 H1810 H 0.70014 0.23453 -0.05765
 H1811 H 0.71121 0.24573 -0.03510
 H1812 H 0.74567 0.21144 -0.03515
 C1813 C 0.21019 0.72931 -0.05273
 C1814 C 0.21663 0.71651 -0.05919
 C1815 C 0.22941 0.71004 -0.05271
 C1816 C 0.23574 0.71633 -0.03981
 C1817 C 0.19268 0.69262 -0.10758
 C1818 C 0.21650 0.73563 -0.03983
 C1819 C 0.21013 0.71003 -0.07248
 C1820 C 0.20466 0.70457 -0.08358
 C1821 C 0.19821 0.69814 -0.09654
 C1822 C 0.22936 0.72922 -0.03322
 H1823 H 0.20035 0.73448 -0.05772
 H1824 H 0.23455 0.70019 -0.05768
 H1825 H 0.24576 0.71124 -0.03514
 H1826 H 0.21144 0.74567 -0.03518
 C1827 C 0.20995 0.22929 0.44738
 C1828 C 0.21641 0.21651 0.44089
 C1829 C 0.22920 0.21003 0.44737
 C1830 C 0.23551 0.21631 0.46029
 C1831 C 0.19241 0.19259 0.39255
 C1832 C 0.21624 0.23559 0.46029
 C1833 C 0.20992 0.21003 0.42759
 C1834 C 0.20443 0.20458 0.41650
 C1835 C 0.19796 0.19813 0.40357
 C1836 C 0.22910 0.22917 0.46690
 H1837 H 0.20011 0.23445 0.44239
 H1838 H 0.23435 0.20020 0.44239
 H1839 H 0.24553 0.21122 0.46496
 H1840 H 0.21116 0.24561 0.46496
 C1841 C 0.29002 0.44726 0.72944
 C1842 C 0.28363 0.44079 0.71664
 C1843 C 0.27086 0.44728 0.71016
 C1844 C 0.26449 0.46020 0.71643
 C1845 C 0.30753 0.39230 0.69276
 C1846 C 0.28368 0.46017 0.73574
 C1847 C 0.29015 0.42747 0.71019
 C1848 C 0.29563 0.41635 0.70474
 C1849 C 0.30206 0.40337 0.69830
 C1850 C 0.27083 0.46680 0.72930
 H1851 H 0.29984 0.44225 0.73461
 H1852 H 0.26575 0.44230 0.70031
 H1853 H 0.25448 0.46488 0.71133
 H1854 H 0.28871 0.46483 0.74577
 C1855 C 0.27110 0.94752 0.20990
 C1856 C 0.28386 0.94102 0.21640
 C1857 C 0.29026 0.94749 0.22919
 C1858 C 0.28390 0.96040 0.23550
 C1859 C 0.30778 0.89254 0.19250
 C1860 C 0.26472 0.96043 0.21619
 C1861 C 0.29039 0.92771 0.20995
 C1862 C 0.29587 0.91659 0.20450
 C1863 C 0.30229 0.90360 0.19806
 C1864 C 0.27104 0.96700 0.22908
 H1865 H 0.26601 0.94254 0.20005
 H1866 H 0.30008 0.94249 0.23436
 H1867 H 0.28893 0.96506 0.24553
 H1868 H 0.25472 0.96511 0.21108
 C1869 C 0.77104 0.44755 0.21001
 C1870 C 0.78382 0.44106 0.21650
 C1871 C 0.79021 0.44753 0.22929
 C1872 C 0.78386 0.46044 0.23560
 C1873 C 0.80778 0.39260 0.19261
 C1874 C 0.76467 0.46046 0.21630
 C1875 C 0.79035 0.42775 0.21005
 C1876 C 0.79584 0.41664 0.20461
 C1877 C 0.80229 0.40366 0.19817
 C1878 C 0.77099 0.46704 0.22919
 H1879 H 0.76595 0.44257 0.20017
 H1880 H 0.80004 0.44254 0.23446
 H1881 H 0.78889 0.46510 0.24563
 H1882 H 0.75466 0.46514 0.21120
 C1883 C 0.79020 0.94761 0.72933
 C1884 C 0.78381 0.94113 0.71654
 C1885 C 0.77103 0.94762 0.71006
 C1886 C 0.76463 0.96052 0.71636
 C1887 C 0.80774 0.89260 0.69265
 C1888 C 0.78383 0.96051 0.73565
 C1889 C 0.79035 0.92781 0.71008
 C1890 C 0.79583 0.91667 0.70465
 C1891 C 0.80227 0.90367 0.69822
 C1892 C 0.77095 0.96711 0.72925
 H1893 H 0.80004 0.94262 0.73449
 H1894 H 0.76593 0.94264 0.70021
 H1895 H 0.75462 0.96520 0.71126
 H1896 H 0.78886 0.96517 0.74567
 C1897 C 0.72920 0.55262 0.71035
 C1898 C 0.71643 0.55911 0.71684
 C1899 C 0.71003 0.55263 0.72963
 C1900 C 0.71638 0.53970 0.73593
 C1901 C 0.69243 0.60760 0.69291
 C1902 C 0.73557 0.53970 0.71662
 C1903 C 0.70988 0.57243 0.71037
 C1904 C 0.70438 0.58355 0.70492
 C1905 C 0.69793 0.59653 0.69847
 C1906 C 0.72923 0.53309 0.72950
 H1907 H 0.73431 0.55761 0.70051
 H1908 H 0.70021 0.55762 0.73481
 H1909 H 0.71135 0.53503 0.74596
 H1910 H 0.74559 0.53502 0.71152
 C1911 C 0.72916 0.05226 0.21008
 C1912 C 0.71639 0.05876 0.21656
 C1913 C 0.70999 0.05229 0.22936
 C1914 C 0.71633 0.03938 0.23568
 C1915 C 0.69245 0.10725 0.19264
 C1916 C 0.73553 0.03935 0.21638
 C1917 C 0.70986 0.07208 0.21010
 C1918 C 0.70437 0.08320 0.20464
 C1919 C 0.69793 0.09619 0.19820
 C1920 C 0.72920 0.03277 0.22927
 H1921 H 0.73426 0.05723 0.20022
 H1922 H 0.70016 0.05729 0.23453
 H1923 H 0.71129 0.03472 0.24571
 H1924 H 0.74554 0.03466 0.21128
 C1925 C 0.22894 0.55254 0.20994
 C1926 C 0.21616 0.55903 0.21642
 C1927 C 0.20976 0.55256 0.22921
 C1928 C 0.21611 0.53965 0.23553
 C1929 C 0.19215 0.60753 0.19263
 C1930 C 0.23532 0.53964 0.21623
 C1931 C 0.20962 0.57234 0.20996
 C1932 C 0.20411 0.58346 0.20453
 C1933 C 0.19764 0.59645 0.19814
 C1934 C 0.22898 0.53305 0.22912
 H1935 H 0.23405 0.55752 0.20009
 H1936 H 0.19993 0.55755 0.23438
 H1937 H 0.21108 0.53499 0.24555
 H1938 H 0.24533 0.53496 0.21114
 C1939 C 0.22897 0.05233 0.71013
 C1940 C 0.21619 0.05881 0.71662
 C1941 C 0.20982 0.05231 0.72942
 C1942 C 0.21621 0.03940 0.73573
 C1943 C 0.19215 0.10733 0.69276
 C1944 C 0.23538 0.03943 0.71641
 C1945 C 0.20963 0.07214 0.71018
 C1946 C 0.20412 0.08326 0.70474
 C1947 C 0.19765 0.09626 0.69832
 C1948 C 0.22909 0.03282 0.72931
 H1949 H 0.23405 0.05732 0.70027
 H1950 H 0.19999 0.05728 0.73460
 H1951 H 0.21119 0.03472 0.74576
 H1952 H 0.24539 0.03476 0.71129
 C1953 C 0.28991 0.55263 0.27046
 C1954 C 0.28351 0.55912 0.28325
 C1955 C 0.27074 0.55263 0.28975
 C1956 C 0.26439 0.53971 0.28348
 C1957 C 0.30755 0.60759 0.30702
 C1958 C 0.28358 0.53971 0.26417
 C1959 C 0.29003 0.57244 0.28968
 C1960 C 0.29554 0.58356 0.29509
 C1961 C 0.30202 0.59654 0.30148
 C1962 C 0.27074 0.53310 0.27061
 H1963 H 0.29973 0.55761 0.26528
 H1964 H 0.26563 0.55762 0.29959
 H1965 H 0.25438 0.53504 0.28858
 H1966 H 0.28861 0.53505 0.25414
 C1967 C 0.27081 0.05239 0.78989
 C1968 C 0.28354 0.05893 0.78338
 C1969 C 0.28993 0.05249 0.77055
 C1970 C 0.28364 0.03955 0.76426
 C1971 C 0.30755 0.10739 0.80720
 C1972 C 0.26450 0.03945 0.78362
 C1973 C 0.29006 0.07224 0.78984
 C1974 C 0.29556 0.08335 0.79527
 C1975 C 0.30204 0.09633 0.80167
 C1976 C 0.27086 0.03287 0.77074
 H1977 H 0.26570 0.05734 0.79975
 H1978 H 0.29971 0.05753 0.76535
 H1979 H 0.28866 0.03492 0.75421
 H1980 H 0.25452 0.03474 0.78873
 C1981 C 0.77105 0.55260 0.79007
 C1982 C 0.78382 0.55909 0.78357
 C1983 C 0.79020 0.55259 0.77077
 C1984 C 0.78386 0.53968 0.76448
 C1985 C 0.80778 0.60760 0.80740
 C1986 C 0.76469 0.53968 0.78380
 C1987 C 0.79035 0.57242 0.79002
 C1988 C 0.79584 0.58354 0.79545
 C1989 C 0.80229 0.59653 0.80187
 C1990 C 0.77102 0.53307 0.77091
 H1991 H 0.76595 0.55758 0.79992
 H1992 H 0.80002 0.55758 0.76559
 H1993 H 0.78889 0.53501 0.75445
 H1994 H 0.75468 0.53501 0.78891
 C1995 C 0.77101 0.05236 0.28984
 C1996 C 0.78377 0.05884 0.28334
 C1997 C 0.79017 0.05233 0.27055
 C1998 C 0.78383 0.03941 0.26428
 C1999 C 0.80775 0.10731 0.30717
 C2000 C 0.76465 0.03944 0.28359
 C2001 C 0.79031 0.07215 0.28977
 C2002 C 0.79580 0.08327 0.29520
 C2003 C 0.80225 0.09625 0.30162
 C2004 C 0.77100 0.03281 0.27073
 H2005 H 0.76590 0.05736 0.29968
 H2006 H 0.79999 0.05731 0.26536
 H2007 H 0.78886 0.03473 0.25425
 H2008 H 0.75464 0.03477 0.28871
 C2009 C 0.72918 0.44738 0.28978
 C2010 C 0.71641 0.44090 0.28329
 C2011 C 0.71002 0.44740 0.27049
 C2012 C 0.71635 0.46032 0.26421
 C2013 C 0.69247 0.39241 0.30715
 C2014 C 0.73553 0.46030 0.28352
 C2015 C 0.70990 0.42759 0.28974
 C2016 C 0.70441 0.41646 0.29518
 C2017 C 0.69797 0.40348 0.30160
 C2018 C 0.72919 0.46692 0.27065
 H2019 H 0.73428 0.44239 0.29962
 H2020 H 0.70021 0.44241 0.26531
 H2021 H 0.71133 0.46500 0.25418
 H2022 H 0.74554 0.46497 0.28862
 C2023 C 0.72921 0.94747 0.78984
 C2024 C 0.71645 0.94099 0.78336
 C2025 C 0.71005 0.94747 0.77056
 C2026 C 0.71637 0.96040 0.76427
 C2027 C 0.69249 0.89253 0.80725
 C2028 C 0.73556 0.96040 0.78357
 C2029 C 0.70992 0.92768 0.78982
 C2030 C 0.70443 0.91657 0.79526
 C2031 C 0.69798 0.90359 0.80170
 C2032 C 0.72919 0.96702 0.77072
 H2033 H 0.73433 0.94248 0.79968
 H2034 H 0.70024 0.94248 0.76538
 H2035 H 0.71134 0.96506 0.75424
 H2036 H 0.74557 0.96507 0.78867
 C2037 C 0.22899 0.44724 0.78991
 C2038 C 0.21622 0.44076 0.78342
 C2039 C 0.20985 0.44725 0.77061
 C2040 C 0.21620 0.46016 0.76430
 C2041 C 0.19225 0.39226 0.80730
 C2042 C 0.23537 0.46015 0.78362
 C2043 C 0.20969 0.42744 0.78987
 C2044 C 0.20419 0.41632 0.79532
 C2045 C 0.19774 0.40333 0.80175
 C2046 C 0.22905 0.46676 0.77074
 H2047 H 0.23409 0.44225 0.79976
 H2048 H 0.20003 0.44227 0.76543
 H2049 H 0.21118 0.46483 0.75427
 H2050 H 0.24537 0.46481 0.78873
 C2051 C 0.22916 0.94742 0.28968
 C2052 C 0.21640 0.94096 0.28318
 C2053 C 0.21002 0.94744 0.27037
 C2054 C 0.21637 0.96035 0.26408
 C2055 C 0.19239 0.89250 0.30700
 C2056 C 0.23554 0.96033 0.28341
 C2057 C 0.20986 0.92765 0.28962
 C2058 C 0.20435 0.91654 0.29505
 C2059 C 0.19789 0.90356 0.30146
 C2060 C 0.22921 0.96694 0.27053
 H2061 H 0.23426 0.94243 0.29953
 H2062 H 0.20021 0.94247 0.26519
 H2063 H 0.21136 0.96502 0.25404
 H2064 H 0.24555 0.96499 0.28851
 C2065 C 0.44718 0.29002 0.72945
 C2066 C 0.44071 0.28363 0.71666
 C2067 C 0.44720 0.27086 0.71018
 C2068 C 0.46011 0.26449 0.71646
 C2069 C 0.39223 0.30757 0.69277
 C2070 C 0.46010 0.28367 0.73576
 C2071 C 0.42740 0.29016 0.71020
 C2072 C 0.41628 0.29565 0.70475
 C2073 C 0.40330 0.30208 0.69832
 C2074 C 0.46671 0.27082 0.72933
 H2075 H 0.44219 0.29984 0.73462
 H2076 H 0.44221 0.26577 0.70033
 H2077 H 0.46479 0.25448 0.71137
 H2078 H 0.46476 0.28869 0.74579
 C2079 C 0.44731 0.79022 0.22942
 C2080 C 0.44085 0.78383 0.21661
 C2081 C 0.44735 0.77108 0.21012
 C2082 C 0.46027 0.76471 0.21641
 C2083 C 0.39244 0.80780 0.19263
 C2084 C 0.46022 0.78387 0.23573
 C2085 C 0.42755 0.79037 0.21014
 C2086 C 0.41644 0.79586 0.20468
 C2087 C 0.40348 0.80231 0.19821
 C2088 C 0.46685 0.77103 0.22930
 H2089 H 0.44230 0.80003 0.23459
 H2090 H 0.44238 0.76599 0.20027
 H2091 H 0.46496 0.75471 0.21131
 H2092 H 0.46487 0.78889 0.24577
 C2093 C 0.94730 0.29023 0.22940
 C2094 C 0.94085 0.28386 0.21659
 C2095 C 0.94736 0.27112 0.21008
 C2096 C 0.96027 0.26474 0.21636
 C2097 C 0.89243 0.30788 0.19266
 C2098 C 0.96022 0.28388 0.23570
 C2099 C 0.92754 0.29040 0.21013
 C2100 C 0.91644 0.29591 0.20468
 C2101 C 0.90348 0.30238 0.19823
 C2102 C 0.96685 0.27106 0.22925
 H2103 H 0.94229 0.30003 0.23459
 H2104 H 0.94238 0.26604 0.20022
 H2105 H 0.96497 0.25475 0.21125
 H2106 H 0.96487 0.28889 0.24575
 C2107 C 0.94735 0.79029 0.72942
 C2108 C 0.94089 0.78391 0.71661
 C2109 C 0.94739 0.77115 0.71012
 C2110 C 0.96031 0.76478 0.71640
 C2111 C 0.89241 0.80785 0.69269
 C2112 C 0.96027 0.78394 0.73572
 C2113 C 0.92758 0.79044 0.71016
 C2114 C 0.91646 0.79593 0.70471
 C2115 C 0.90347 0.80237 0.69826
 C2116 C 0.96690 0.77110 0.72929
 H2117 H 0.94234 0.80010 0.73459
 H2118 H 0.94241 0.76606 0.70026
 H2119 H 0.96500 0.75478 0.71130
 H2120 H 0.96492 0.78896 0.74575
 C2121 C 0.55278 0.28991 0.27046
 C2122 C 0.55928 0.28357 0.28328
 C2123 C 0.55282 0.27080 0.28979
 C2124 C 0.53991 0.26440 0.28352
 C2125 C 0.60776 0.30764 0.30711
 C2126 C 0.53987 0.28354 0.26417
 C2127 C 0.57260 0.29012 0.28972
 C2128 C 0.58372 0.29564 0.29515
 C2129 C 0.59670 0.30212 0.30157
 C2130 C 0.53328 0.27070 0.27063
 H2131 H 0.55774 0.29973 0.26527
 H2132 H 0.55782 0.26573 0.29965
 H2133 H 0.53526 0.25441 0.28865
 H2134 H 0.53519 0.28854 0.25413
 C2135 C 0.55267 0.79029 0.77075
 C2136 C 0.55917 0.78392 0.78355
 C2137 C 0.55270 0.77116 0.79005
 C2138 C 0.53978 0.76478 0.78377
 C2139 C 0.60772 0.80790 0.80733
 C2140 C 0.53976 0.78394 0.76445
 C2141 C 0.57250 0.79046 0.78999
 C2142 C 0.58364 0.79595 0.79540
 C2143 C 0.59664 0.80241 0.80180
 C2144 C 0.53316 0.77110 0.77089
 H2145 H 0.55765 0.80011 0.76556
 H2146 H 0.55769 0.76606 0.79989
 H2147 H 0.53512 0.75478 0.78888
 H2148 H 0.53508 0.78896 0.75442
 C2149 C 0.05251 0.29000 0.77060
 C2150 C 0.05898 0.28364 0.78342
 C2151 C 0.05247 0.27090 0.78993
 C2152 C 0.03956 0.26453 0.78365
 C2153 C 0.10749 0.30757 0.80731
 C2154 C 0.03960 0.28365 0.76429
 C2155 C 0.07230 0.29017 0.78988
 C2156 C 0.08343 0.29566 0.79532
 C2157 C 0.09642 0.30209 0.80176
 C2158 C 0.03297 0.27083 0.77074
 H2159 H 0.05751 0.29980 0.76540
 H2160 H 0.05744 0.26582 0.79980
 H2161 H 0.03488 0.25455 0.78877
 H2162 H 0.03494 0.28866 0.75424
 C2163 C 0.05265 0.77106 0.28978
 C2164 C 0.05912 0.78382 0.28326
 C2165 C 0.05262 0.79017 0.27045
 C2166 C 0.03971 0.78380 0.26416
 C2167 C 0.10764 0.80784 0.30704
 C2168 C 0.03974 0.76467 0.28351
 C2169 C 0.07244 0.79037 0.28969
 C2170 C 0.08357 0.79588 0.29511
 C2171 C 0.09657 0.80234 0.30151
 C2172 C 0.03311 0.77097 0.27062
 H2173 H 0.05764 0.76599 0.29964
 H2174 H 0.05759 0.79998 0.26525
 H2175 H 0.03503 0.78880 0.25412
 H2176 H 0.03508 0.75467 0.28864
 C2177 C 0.55271 0.72925 0.71034
 C2178 C 0.55921 0.71649 0.71684
 C2179 C 0.55272 0.71011 0.72963
 C2180 C 0.53979 0.71645 0.73593
 C2181 C 0.60752 0.69233 0.69272
 C2182 C 0.53978 0.73562 0.71661
 C2183 C 0.57252 0.70994 0.71036
 C2184 C 0.58361 0.70442 0.70488
 C2185 C 0.59654 0.69791 0.69836
 C2186 C 0.53317 0.72930 0.72949
 H2187 H 0.55770 0.73434 0.70049
 H2188 H 0.55771 0.70028 0.73481
 H2189 H 0.53511 0.71143 0.74596
 H2190 H 0.53510 0.74562 0.71150
 C2191 C 0.55281 0.20967 0.22943
 C2192 C 0.55928 0.21603 0.21661
 C2193 C 0.55277 0.22878 0.21010
 C2194 C 0.53985 0.23516 0.21638
 C2195 C 0.60774 0.19200 0.19272
 C2196 C 0.53988 0.21602 0.23572
 C2197 C 0.57259 0.20949 0.21016
 C2198 C 0.58370 0.20397 0.20471
 C2199 C 0.59668 0.19750 0.19827
 C2200 C 0.53325 0.22884 0.22927
 H2201 H 0.55781 0.19986 0.23462
 H2202 H 0.55775 0.23386 0.20024
 H2203 H 0.53516 0.24515 0.21126
 H2204 H 0.53522 0.21101 0.24577
 C2205 C 0.05257 0.72910 0.21004
 C2206 C 0.05908 0.71636 0.21655
 C2207 C 0.05263 0.70999 0.22937
 C2208 C 0.03972 0.71634 0.23569
 C2209 C 0.10753 0.69228 0.19268
 C2210 C 0.03965 0.73548 0.21634
 C2211 C 0.07238 0.70980 0.21007
 C2212 C 0.08348 0.70427 0.20463
 C2213 C 0.09646 0.69779 0.19821
 C2214 C 0.03307 0.72916 0.22924
 H2215 H 0.05753 0.73419 0.20017
 H2216 H 0.05765 0.70019 0.23456
 H2217 H 0.03507 0.71133 0.24574
 H2218 H 0.03495 0.74547 0.21122
 C2219 C 0.05248 0.20983 0.72953
 C2220 C 0.05896 0.21618 0.71672
 C2221 C 0.05247 0.22893 0.71020
 C2222 C 0.03955 0.23532 0.71647
 C2223 C 0.10743 0.19212 0.69282
 C2224 C 0.03956 0.21619 0.73582
 C2225 C 0.07228 0.20963 0.71027
 C2226 C 0.08339 0.20411 0.70482
 C2227 C 0.09636 0.19763 0.69838
 C2228 C 0.03294 0.22902 0.72937
 H2229 H 0.05748 0.20001 0.73473
 H2230 H 0.05745 0.23401 0.70034
 H2231 H 0.03486 0.24531 0.71135
 H2232 H 0.03489 0.21118 0.74587
 C2233 C 0.44722 0.72915 0.28986
 C2234 C 0.44075 0.71639 0.28335
 C2235 C 0.44727 0.71003 0.27055
 C2236 C 0.46018 0.71639 0.26427
 C2237 C 0.39224 0.69225 0.30702
 C2238 C 0.46014 0.73553 0.28360
 C2239 C 0.42742 0.70984 0.28976
 C2240 C 0.41629 0.70431 0.29514
 C2241 C 0.40330 0.69780 0.30150
 C2242 C 0.46677 0.72923 0.27071
 H2243 H 0.44221 0.73423 0.29971
 H2244 H 0.44230 0.70022 0.26536
 H2245 H 0.46487 0.71139 0.25423
 H2246 H 0.46479 0.74553 0.28872
 C2247 C 0.44715 0.22899 0.78992
 C2248 C 0.44068 0.21623 0.78343
 C2249 C 0.44718 0.20986 0.77063
 C2250 C 0.46009 0.21621 0.76433
 C2251 C 0.39221 0.19210 0.80717
 C2252 C 0.46006 0.23537 0.78364
 C2253 C 0.42735 0.20969 0.78986
 C2254 C 0.41623 0.20417 0.79526
 C2255 C 0.40325 0.19766 0.80164
 C2256 C 0.46668 0.22905 0.77076
 H2257 H 0.44215 0.23408 0.79977
 H2258 H 0.44220 0.20004 0.76545
 H2259 H 0.46477 0.21119 0.75430
 H2260 H 0.46473 0.24537 0.78874
 C2261 C 0.94734 0.72923 0.78991
 C2262 C 0.94086 0.71648 0.78342
 C2263 C 0.94735 0.71012 0.77060
 C2264 C 0.96026 0.71648 0.76429
 C2265 C 0.89242 0.69242 0.80732
 C2266 C 0.96025 0.73562 0.78362
 C2267 C 0.92756 0.70992 0.78988
 C2268 C 0.91645 0.70441 0.79533
 C2269 C 0.90348 0.69793 0.80177
 C2270 C 0.96685 0.72932 0.77072
 H2271 H 0.94236 0.73431 0.79977
 H2272 H 0.94238 0.70030 0.76542
 H2273 H 0.96493 0.71147 0.75425
 H2274 H 0.96491 0.74562 0.78873
 C2275 C 0.94726 0.22906 0.28978
 C2276 C 0.94081 0.21630 0.28326
 C2277 C 0.94732 0.20996 0.27045
 C2278 C 0.96023 0.21635 0.26416
 C2279 C 0.89238 0.19213 0.30711
 C2280 C 0.96017 0.23547 0.28352
 C2281 C 0.92750 0.20971 0.28971
 C2282 C 0.91640 0.20418 0.29514
 C2283 C 0.90343 0.19767 0.30156
 C2284 C 0.96680 0.22919 0.27062
 H2285 H 0.94226 0.23412 0.29965
 H2286 H 0.94236 0.20015 0.26525
 H2287 H 0.96492 0.21136 0.25412
 H2288 H 0.96482 0.24546 0.28864
 C2289 C 0.27061 0.28990 0.55270
 C2290 C 0.28340 0.28344 0.55919
 C2291 C 0.28986 0.27065 0.55272
 C2292 C 0.28356 0.26432 0.53982
 C2293 C 0.30729 0.30736 0.60758
 C2294 C 0.26428 0.28359 0.53981
 C2295 C 0.28989 0.28993 0.57248
 C2296 C 0.29535 0.29540 0.58358
 C2297 C 0.30178 0.30184 0.59654
 C2298 C 0.27068 0.27072 0.53321
 H2299 H 0.26546 0.29974 0.55768
 H2300 H 0.29970 0.26550 0.55771
 H2301 H 0.28863 0.25430 0.53516
 H2302 H 0.25425 0.28867 0.53514
 C2303 C 0.27090 0.79000 0.05251
 C2304 C 0.28367 0.78354 0.05902
 C2305 C 0.29012 0.77073 0.05258
 C2306 C 0.28382 0.76439 0.03968
 C2307 C 0.30751 0.80750 0.10742
 C2308 C 0.26458 0.78369 0.03962
 C2309 C 0.29015 0.79004 0.07231
 C2310 C 0.29560 0.79552 0.08341
 C2311 C 0.30201 0.80197 0.09637
 C2312 C 0.27097 0.77080 0.03305
 H2313 H 0.26575 0.79986 0.05747
 H2314 H 0.29995 0.76557 0.05759
 H2315 H 0.28889 0.75435 0.03505
 H2316 H 0.25456 0.78877 0.03493
 C2317 C 0.78999 0.27090 0.05259
 C2318 C 0.78352 0.28367 0.05908
 C2319 C 0.77070 0.29010 0.05263
 C2320 C 0.76437 0.28380 0.03973
 C2321 C 0.80741 0.30758 0.10749
 C2322 C 0.78369 0.26457 0.03970
 C2323 C 0.79001 0.29016 0.07238
 C2324 C 0.79547 0.29563 0.08348
 C2325 C 0.80190 0.30206 0.09644
 C2326 C 0.77079 0.27095 0.03311
 H2327 H 0.79986 0.26577 0.05756
 H2328 H 0.76553 0.29993 0.05763
 H2329 H 0.75432 0.28886 0.03509
 H2330 H 0.78878 0.25456 0.03502
 C2331 C 0.78995 0.77089 0.55263
 C2332 C 0.78349 0.78367 0.55912
 C2333 C 0.77068 0.79011 0.55266
 C2334 C 0.76435 0.78381 0.53976
 C2335 C 0.80743 0.80757 0.60750
 C2336 C 0.78364 0.76456 0.53974
 C2337 C 0.78999 0.79015 0.57241
 C2338 C 0.79547 0.79562 0.58351
 C2339 C 0.80191 0.80205 0.59646
 C2340 C 0.77075 0.77095 0.53315
 H2341 H 0.79981 0.76574 0.55761
 H2342 H 0.76553 0.79995 0.55765
 H2343 H 0.75431 0.78888 0.53511
 H2344 H 0.78872 0.75454 0.53507
 C2345 C 0.27064 0.71014 0.44726
 C2346 C 0.28343 0.71655 0.44076
 C2347 C 0.28991 0.72933 0.44722
 C2348 C 0.28362 0.73568 0.46012
 C2349 C 0.30724 0.69256 0.39231
 C2350 C 0.26433 0.71647 0.46017
 C2351 C 0.28991 0.71004 0.42746
 C2352 C 0.29535 0.70455 0.41635
 C2353 C 0.30176 0.69808 0.40338
 C2354 C 0.27075 0.72932 0.46675
 H2355 H 0.26547 0.70032 0.44229
 H2356 H 0.29975 0.73445 0.44221
 H2357 H 0.28872 0.74569 0.46477
 H2358 H 0.25430 0.71142 0.46485
 C2359 C 0.27056 0.20985 0.94744
 C2360 C 0.28337 0.21625 0.94095
 C2361 C 0.28984 0.22902 0.94741
 C2362 C 0.28356 0.23537 0.96032
 C2363 C 0.30719 0.19232 0.89247
 C2364 C 0.26425 0.21618 0.96035
 C2365 C 0.28985 0.20972 0.92766
 C2366 C 0.29530 0.20424 0.91656
 C2367 C 0.30171 0.19781 0.90357
 C2368 C 0.27068 0.22902 0.96695
 H2369 H 0.26538 0.20003 0.94247
 H2370 H 0.29969 0.23414 0.94242
 H2371 H 0.28866 0.24538 0.96498
 H2372 H 0.25421 0.21114 0.96503
 C2373 C 0.77070 0.71012 0.94751
 C2374 C 0.78352 0.71654 0.94104
 C2375 C 0.78999 0.72929 0.94754
 C2376 C 0.78369 0.73562 0.96045
 C2377 C 0.80744 0.69263 0.89261
 C2378 C 0.76437 0.71642 0.96041
 C2379 C 0.79001 0.71005 0.92774
 C2380 C 0.79548 0.70458 0.91663
 C2381 C 0.80192 0.69814 0.90366
 C2382 C 0.77080 0.72925 0.96704
 H2383 H 0.76554 0.70031 0.94251
 H2384 H 0.79985 0.73442 0.94257
 H2385 H 0.78878 0.74561 0.96513
 H2386 H 0.75433 0.71138 0.96507
 C2387 C 0.77069 0.20981 0.44725
 C2388 C 0.78350 0.21623 0.44078
 C2389 C 0.78997 0.22899 0.44726
 C2390 C 0.78366 0.23532 0.46017
 C2391 C 0.80738 0.19230 0.39233
 C2392 C 0.76437 0.21612 0.46016
 C2393 C 0.78998 0.20974 0.42747
 C2394 C 0.79544 0.20427 0.41636
 C2395 C 0.80187 0.19782 0.40339
 C2396 C 0.77078 0.22895 0.46677
 H2397 H 0.76552 0.19999 0.44226
 H2398 H 0.79982 0.23412 0.44228
 H2399 H 0.78875 0.24533 0.46484
 H2400 H 0.75433 0.21107 0.46482
 C2401 C 0.72936 0.28982 0.44726
 C2402 C 0.71656 0.28341 0.44076
 C2403 C 0.71009 0.27063 0.44722
 C2404 C 0.71637 0.26428 0.46013
 C2405 C 0.69272 0.30741 0.39233
 C2406 C 0.73566 0.28349 0.46016
 C2407 C 0.71009 0.28992 0.42745
 C2408 C 0.70464 0.29541 0.41635
 C2409 C 0.69823 0.30188 0.40338
 C2410 C 0.72924 0.27064 0.46676
 H2411 H 0.73452 0.29965 0.44228
 H2412 H 0.70025 0.26550 0.44223
 H2413 H 0.71128 0.25426 0.46479
 H2414 H 0.74569 0.28854 0.46484
 C2415 C 0.72937 0.79009 0.94752
 C2416 C 0.71657 0.78367 0.94103
 C2417 C 0.71008 0.77091 0.94751
 C2418 C 0.71637 0.76457 0.96042
 C2419 C 0.69270 0.80764 0.89260
 C2420 C 0.73568 0.78377 0.96043
 C2421 C 0.71010 0.79018 0.92773
 C2422 C 0.70464 0.79566 0.91662
 C2423 C 0.69822 0.80211 0.90365
 C2424 C 0.72925 0.77093 0.96703
 H2425 H 0.73454 0.79990 0.94253
 H2426 H 0.70024 0.76579 0.94252
 H2427 H 0.71127 0.75456 0.96509
 H2428 H 0.74571 0.78881 0.96510
 C2429 C 0.22923 0.28983 0.94743
 C2430 C 0.21642 0.28341 0.94098
 C2431 C 0.20995 0.27066 0.94749
 C2432 C 0.21625 0.26434 0.96040
 C2433 C 0.19248 0.30731 0.89255
 C2434 C 0.23556 0.28353 0.96034
 C2435 C 0.20993 0.28990 0.92768
 C2436 C 0.20445 0.29536 0.91657
 C2437 C 0.19801 0.30180 0.90360
 C2438 C 0.22914 0.27070 0.96698
 H2439 H 0.23440 0.29965 0.94243
 H2440 H 0.20009 0.26553 0.94252
 H2441 H 0.21116 0.25434 0.96508
 H2442 H 0.24560 0.28858 0.96499
 C2443 C 0.22930 0.79014 0.44723
 C2444 C 0.21650 0.78371 0.44076
 C2445 C 0.21004 0.77095 0.44726
 C2446 C 0.21633 0.76462 0.46017
 C2447 C 0.19261 0.80763 0.39232
 C2448 C 0.23562 0.78384 0.46015
 C2449 C 0.21002 0.79020 0.42746
 C2450 C 0.20456 0.79567 0.41635
 C2451 C 0.19813 0.80211 0.40338
 C2452 C 0.22921 0.77100 0.46677
 H2453 H 0.23446 0.79996 0.44224
 H2454 H 0.20019 0.76581 0.44228
 H2455 H 0.21125 0.75461 0.46485
 H2456 H 0.24566 0.78889 0.46480
 C2457 C 0.71001 0.72940 0.55277
 C2458 C 0.71648 0.71662 0.55925
 C2459 C 0.72928 0.71018 0.55275
 C2460 C 0.73559 0.71648 0.53984
 C2461 C 0.69246 0.69259 0.60759
 C2462 C 0.71630 0.73573 0.53985
 C2463 C 0.70998 0.71011 0.57254
 C2464 C 0.70449 0.70463 0.58363
 C2465 C 0.69802 0.69816 0.59657
 C2466 C 0.72918 0.72934 0.53323
 H2467 H 0.70016 0.73455 0.55776
 H2468 H 0.73444 0.70034 0.55773
 H2469 H 0.74562 0.71141 0.53516
 H2470 H 0.71121 0.74575 0.53519
 C2471 C 0.72940 0.21006 0.05262
 C2472 C 0.71659 0.21647 0.05912
 C2473 C 0.71010 0.22926 0.05267
 C2474 C 0.71639 0.23563 0.03978
 C2475 C 0.69277 0.19240 0.10753
 C2476 C 0.73571 0.21640 0.03973
 C2477 C 0.71012 0.20993 0.07241
 C2478 C 0.70468 0.20443 0.08351
 C2479 C 0.69827 0.19795 0.09648
 C2480 C 0.72927 0.22927 0.03315
 H2481 H 0.73458 0.20022 0.05758
 H2482 H 0.70025 0.23438 0.05768
 H2483 H 0.71129 0.24565 0.03514
 H2484 H 0.74575 0.21136 0.03504
 C2485 C 0.21014 0.72933 0.05258
 C2486 C 0.21658 0.71653 0.05906
 C2487 C 0.22937 0.71006 0.05258
 C2488 C 0.23572 0.71636 0.03968
 C2489 C 0.19259 0.69260 0.10744
 C2490 C 0.21647 0.73565 0.03968
 C2491 C 0.21007 0.71004 0.07235
 C2492 C 0.20458 0.70458 0.08345
 C2493 C 0.19813 0.69813 0.09641
 C2494 C 0.22934 0.72924 0.03308
 H2495 H 0.20030 0.73449 0.05756
 H2496 H 0.23450 0.70021 0.05756
 H2497 H 0.24575 0.71127 0.03502
 H2498 H 0.21141 0.74569 0.03502
 C2499 C 0.20991 0.22919 0.55274
 C2500 C 0.21636 0.21639 0.55921
 C2501 C 0.22915 0.20994 0.55272
 C2502 C 0.23549 0.21626 0.53982
 C2503 C 0.19246 0.19245 0.60762
 C2504 C 0.21622 0.23553 0.53984
 C2505 C 0.20986 0.20989 0.57250
 C2506 C 0.20440 0.20442 0.58360
 C2507 C 0.19797 0.19797 0.59657
 C2508 C 0.22909 0.22913 0.53323
 H2509 H 0.20006 0.23434 0.55773
 H2510 H 0.23431 0.20010 0.55770
 H2511 H 0.24552 0.21118 0.53515
 H2512 H 0.21114 0.24556 0.53519
   
