data_POSCAR
  _audit_creation_date              2014-09-24
  _audit_creation_method            'ToBaCCo'
  _symmetry_space_group_name_H-M    'P1'
  _symmetry_Int_Tables_number       1
  _symmetry_cell_setting            triclinic
  loop_
  _symmetry_equiv_pos_as_xyz
 x,y,z
_cell_length_a 57.4743
_cell_length_b 57.5396
_cell_length_c 60.3330
_cell_angle_alpha 88.800900
_cell_angle_beta 91.176000
_cell_angle_gamma 90.428800
loop_
  _atom_site_label
  _atom_site_type_symbol
  _atom_site_fract_x
  _atom_site_fract_y
  _atom_site_fract_z
C1 C 0.40789 0.01065 0.27512
 C2 C 0.39065 0.03092 0.27308
 C3 C 0.37664 0.03012 0.25450
 C4 C 0.38107 0.00914 0.23974
 C5 C 0.39283 -0.01129 0.27390
 C6 C 0.37874 -0.01215 0.25556
 C7 C 0.42132 0.01153 0.25344
 C8 C 0.40732 0.01089 0.23491
 H9 H 0.39015 0.04499 0.28479
 H10 H 0.36968 0.00835 0.22467
 H11 H 0.39258 -0.02459 0.28696
 H12 H 0.44004 0.01409 0.25279
 C13 C 0.09109 -0.00045 0.77243
 C14 C 0.10604 -0.02238 0.77096
 C15 C 0.11988 -0.02232 0.75275
 C16 C 0.11747 -0.00022 0.73782
 C17 C 0.10851 0.01978 0.77184
 C18 C 0.12235 0.02004 0.75379
 C19 C 0.07812 0.00112 0.75159
 C20 C 0.09257 0.00119 0.73257
 H21 H 0.10517 -0.03689 0.78273
 H22 H 0.12878 -0.00003 0.72308
 H23 H 0.10941 0.03313 0.78433
 H24 H 0.05922 0.00092 0.75040
 C25 C 0.59346 0.49896 0.27301
 C26 C 0.60853 0.47715 0.27167
 C27 C 0.62241 0.47713 0.25353
 C28 C 0.62002 0.49905 0.23843
 C29 C 0.61058 0.51936 0.27212
 C30 C 0.62447 0.51955 0.25415
 C31 C 0.57988 0.50023 0.25093
 C32 C 0.59371 0.50020 0.23283
 H33 H 0.60761 0.46267 0.28347
 H34 H 0.63135 0.49917 0.22373
 H35 H 0.61131 0.53286 0.28447
 H36 H 0.56099 0.50023 0.24971
 C37 C 0.90790 0.51039 0.77460
 C38 C 0.89067 0.53067 0.77257
 C39 C 0.87660 0.52984 0.75402
 C40 C 0.88096 0.50880 0.73931
 C41 C 0.89281 0.48847 0.77348
 C42 C 0.87865 0.48756 0.75519
 C43 C 0.92125 0.51120 0.75288
 C44 C 0.90719 0.51051 0.73439
 H45 H 0.89022 0.54478 0.78424
 H46 H 0.86951 0.50798 0.72427
 H47 H 0.89258 0.47521 0.78659
 H48 H 0.93998 0.51373 0.75216
 C49 C 0.27660 0.37301 0.99232
 C50 C 0.27459 0.35559 1.01172
 C51 C 0.25492 0.34228 1.01096
 C52 C 0.23887 0.34749 0.99073
 C53 C 0.27439 0.35833 0.97142
 C54 C 0.25462 0.34502 0.97056
 C55 C 0.25404 0.38719 0.99261
 C56 C 0.23430 0.37378 0.99175
 H57 H 0.28712 0.35463 1.02545
 H58 H 0.22286 0.33654 0.99009
 H59 H 0.28687 0.35904 0.95813
 H60 H 0.25371 0.40603 0.99331
 C61 C 0.77065 0.12976 1.00050
 C62 C 0.76927 0.14720 0.98100
 C63 C 0.75011 0.16096 0.98107
 C64 C 0.73387 0.15597 1.00068
 C65 C 0.76920 0.14470 1.02125
 C66 C 0.74988 0.15842 1.02134
 C67 C 0.74889 0.11666 0.99961
 C68 C 0.72864 0.13113 0.99978
 H69 H 0.78241 0.14867 0.96833
 H70 H 0.71826 0.16728 1.00065
 H71 H 0.78173 0.14379 1.03497
 H72 H 0.74797 0.09779 1.00039
 C73 C 0.27165 0.63065 0.50024
 C74 C 0.26992 0.64769 0.48052
 C75 C 0.25080 0.66145 0.48059
 C76 C 0.23482 0.65693 0.50043
 C77 C 0.27028 0.64581 0.52080
 C78 C 0.25097 0.65950 0.52089
 C79 C 0.24863 0.61686 0.49974
 C80 C 0.22934 0.63067 0.49993
 H81 H 0.28292 0.64900 0.46771
 H82 H 0.21919 0.66819 0.50040
 H83 H 0.28283 0.64498 0.53451
 H84 H 0.24769 0.59800 0.50038
 C85 C 0.77664 0.87297 0.49259
 C86 C 0.77451 0.85549 0.51193
 C87 C 0.75481 0.84221 0.51104
 C88 C 0.73888 0.84750 0.49074
 C89 C 0.77452 0.85836 0.47164
 C90 C 0.75474 0.84507 0.47065
 C91 C 0.75409 0.88718 0.49281
 C92 C 0.73434 0.87380 0.49182
 H93 H 0.78695 0.85449 0.52572
 H94 H 0.72286 0.83658 0.48999
 H95 H 0.78711 0.85907 0.45844
 H96 H 0.75378 0.90601 0.49361
 C97 C -0.00453 0.27523 0.40764
 C98 C 0.01467 0.28116 0.39107
 C99 C 0.01631 0.26526 0.37478
 C100 C -0.00119 0.24508 0.37650
 C101 C -0.02572 0.27276 0.39440
 C102 C -0.02375 0.25615 0.37733
 C103 C 0.00134 0.25075 0.41650
 C104 C 0.00314 0.23503 0.39999
 H105 H 0.02687 0.29555 0.39297
 H106 H 0.00025 0.23211 0.36318
 H107 H -0.04116 0.28324 0.39646
 H108 H 0.00404 0.24633 0.43395
 C109 C -0.00208 0.76033 0.09982
 C110 C -0.01460 0.76535 0.12134
 C111 C -0.01326 0.74756 0.13650
 C112 C 0.00016 0.72644 0.12884
 C113 C 0.02281 0.75413 0.10702
 C114 C 0.02386 0.73635 0.12223
 C115 C -0.01290 0.73773 0.09139
 C116 C -0.01169 0.72004 0.10677
 H117 H -0.02508 0.78072 0.12369
 H118 H 0.00112 0.71189 0.14124
 H119 H 0.03796 0.76442 0.10239
 H120 H -0.01889 0.73534 0.07438
 C121 C 0.49742 0.26095 0.60081
 C122 C 0.48461 0.26591 0.62219
 C123 C 0.48588 0.24815 0.63738
 C124 C 0.49954 0.22710 0.62989
 C125 C 0.52228 0.25492 0.60830
 C126 C 0.52326 0.23715 0.62352
 C127 C 0.48686 0.23827 0.59230
 C128 C 0.48801 0.22061 0.60771
 H129 H 0.47399 0.28122 0.62440
 H130 H 0.50044 0.21258 0.64232
 H131 H 0.53744 0.26523 0.60374
 H132 H 0.48110 0.23582 0.57524
 C133 C 0.49639 0.77552 0.90949
 C134 C 0.51679 0.78051 0.89401
 C135 C 0.51832 0.76479 0.87755
 C136 C 0.49959 0.74567 0.87807
 C137 C 0.47480 0.77481 0.89415
 C138 C 0.47664 0.75912 0.87768
 C139 C 0.49969 0.75189 0.91772
 C140 C 0.50146 0.73557 0.90030
 H141 H 0.52943 0.79441 0.89646
 H142 H 0.50088 0.73291 0.86455
 H143 H 0.45976 0.78591 0.89587
 H144 H 0.50159 0.74713 0.93519
 C145 C -0.23931 0.65853 0.97520
 C146 C -0.21912 0.64118 0.97718
 C147 C -0.21997 0.62717 0.99576
 C148 C -0.24092 0.63170 1.01056
 C149 C -0.26135 0.64361 0.97645
 C150 C -0.26227 0.62951 0.99477
 C151 C -0.23830 0.67190 0.99689
 C152 C -0.23900 0.65790 1.01541
 H153 H -0.20506 0.64060 0.96545
 H154 H -0.24176 0.62030 1.02562
 H155 H -0.27467 0.64341 0.96338
 H156 H -0.23562 0.69059 0.99756
 C157 C -0.25086 0.34076 0.47800
 C158 C -0.27282 0.35570 0.47940
 C159 C -0.27275 0.36966 0.49751
 C160 C -0.25061 0.36736 0.51243
 C161 C -0.23061 0.35817 0.47845
 C162 C -0.23034 0.37213 0.49640
 C163 C -0.24926 0.32795 0.49893
 C164 C -0.24918 0.34251 0.51785
 H165 H -0.28735 0.35475 0.46764
 H166 H -0.25041 0.37876 0.52709
 H167 H -0.21727 0.35899 0.46593
 H168 H -0.24944 0.30908 0.50025
 C169 C 0.24944 -0.15777 -0.02238
 C170 C 0.22750 -0.14284 -0.02089
 C171 C 0.22753 -0.12906 -0.00266
 C172 C 0.24965 -0.13151 0.01229
 C173 C 0.26971 -0.14040 -0.02174
 C174 C 0.26996 -0.12661 -0.00366
 C175 C 0.25098 -0.17078 -0.00155
 C176 C 0.25104 -0.15640 0.01749
 H177 H 0.21297 -0.14369 -0.03267
 H178 H 0.24983 -0.12025 0.02704
 H179 H 0.28310 -0.13950 -0.03421
 H180 H 0.25081 -0.18967 -0.00040
 C181 C 0.26023 1.15831 0.47520
 C182 C 0.28062 1.14120 0.47721
 C183 C 0.27992 1.12719 0.49580
 C184 C 0.25890 1.13149 0.51059
 C185 C 0.23836 1.14312 0.47646
 C186 C 0.23760 1.12904 0.49480
 C187 C 0.26106 1.17171 0.49688
 C188 C 0.26051 1.15771 0.51542
 H189 H 0.29469 1.14076 0.46547
 H190 H 0.25819 1.12010 0.52566
 H191 H 0.22506 1.14276 0.46339
 H192 H 0.26351 1.19043 0.49754
 C193 C 0.12289 0.52683 0.25700
 C194 C 0.10540 0.52469 0.23765
 C195 C 0.09211 0.50502 0.23854
 C196 C 0.09739 0.48910 0.25883
 C197 C 0.10824 0.52470 0.27794
 C198 C 0.09494 0.50494 0.27893
 C199 C 0.13711 0.50430 0.25679
 C200 C 0.12371 0.48457 0.25777
 H201 H 0.10441 0.53713 0.22385
 H202 H 0.08645 0.47310 0.25959
 H203 H 0.10894 0.53725 0.29115
 H204 H 0.15597 0.50398 0.25600
 C205 C -0.11987 1.02004 0.25027
 C206 C -0.10233 1.01873 0.26969
 C207 C -0.08850 0.99963 0.26958
 C208 C -0.09354 0.98338 0.25001
 C209 C -0.10501 1.01861 0.22944
 C210 C -0.09123 0.99934 0.22932
 C211 C -0.13292 0.99827 0.25124
 C212 C -0.11839 0.97809 0.25103
 H213 H -0.10083 1.03187 0.28234
 H214 H -0.08218 0.96781 0.25002
 H215 H -0.10602 1.03110 0.21570
 H216 H -0.15181 0.99731 0.25050
 C217 C 0.38001 0.52213 -0.25067
 C218 C 0.39713 0.52045 -0.23100
 C219 C 0.41087 0.50133 -0.23104
 C220 C 0.40626 0.48530 -0.25079
 C221 C 0.39513 0.52065 -0.27127
 C222 C 0.40881 0.50134 -0.27132
 C223 C 0.36617 0.49916 -0.25005
 C224 C 0.37997 0.47987 -0.25020
 H225 H 0.39853 0.53351 -0.21826
 H226 H 0.41751 0.46967 -0.25073
 H227 H 0.39428 0.53314 -0.28502
 H228 H 0.34728 0.49824 -0.25067
 C229 C 0.62301 0.02652 -0.24236
 C230 C 0.60548 0.02444 -0.26167
 C231 C 0.59218 0.00477 -0.26078
 C232 C 0.59751 -0.01119 -0.24053
 C233 C 0.60843 0.02435 -0.22138
 C234 C 0.59513 0.00460 -0.22040
 C235 C 0.63723 0.00400 -0.24266
 C236 C 0.62383 -0.01574 -0.24167
 H237 H 0.60446 0.03690 -0.27544
 H238 H 0.58657 -0.02719 -0.23979
 H239 H 0.60919 0.03687 -0.20815
 H240 H 0.65609 0.00368 -0.24349
 C241 C 0.02440 0.24576 0.84091
 C242 C 0.02961 0.26613 0.85633
 C243 C 0.01391 0.26785 0.87281
 C244 C -0.00540 0.24932 0.87237
 C245 C 0.02352 0.22424 0.85631
 C246 C 0.00785 0.22627 0.87280
 C247 C 0.00076 0.24925 0.83271
 C248 C -0.01552 0.25122 0.85015
 H249 H 0.04362 0.27865 0.85381
 H250 H -0.01814 0.25076 0.88591
 H251 H 0.03450 0.20911 0.85462
 H252 H -0.00402 0.25112 0.81524
 C253 C 0.51109 0.24882 0.14913
 C254 C 0.51586 0.23574 0.12788
 C255 C 0.49795 0.23683 0.11282
 C256 C 0.47696 0.25059 0.12031
 C257 C 0.50500 0.27356 0.14140
 C258 C 0.48709 0.27436 0.12631
 C259 C 0.48845 0.23839 0.15795
 C260 C 0.47064 0.23935 0.14268
 H261 H 0.53118 0.22514 0.12565
 H262 H 0.46231 0.25134 0.10799
 H263 H 0.51537 0.28875 0.14569
 H264 H 0.48616 0.23280 0.17509
 C265 C 0.01075 0.74737 0.64890
 C266 C 0.01563 0.73472 0.62743
 C267 C -0.00226 0.73598 0.61236
 C268 C -0.02334 0.74947 0.62006
 C269 C 0.00453 0.77220 0.64157
 C270 C -0.01336 0.77318 0.62647
 C271 C -0.01185 0.73665 0.65752
 C272 C -0.02964 0.73779 0.64223
 H273 H 0.03096 0.72417 0.62509
 H274 H -0.03797 0.75037 0.60772
 H275 H 0.01480 0.78737 0.64613
 H276 H -0.01416 0.73081 0.67458
 C277 C 0.52641 0.74671 0.34164
 C278 C 0.53174 0.76673 0.35736
 C279 C 0.51602 0.76840 0.37379
 C280 C 0.49650 0.75018 0.37311
 C281 C 0.52495 0.72496 0.35659
 C282 C 0.50927 0.72693 0.37304
 C283 C 0.50154 0.75098 0.33301
 C284 C 0.48600 0.75283 0.34965
 H285 H 0.54581 0.77921 0.35498
 H286 H 0.48370 0.75160 0.38658
 H287 H 0.53568 0.70969 0.35471
 H288 H 0.49677 0.75289 0.31556
 Zr289 Zr 0.01976 -0.01816 1.03075
 O290 O 0.04368 -0.00897 1.05632
 O291 O 0.01442 -0.05374 1.03738
 O292 O 0.00483 -0.02108 1.06248
 O293 O 0.06162 -0.02427 0.99070
 O294 O -0.02916 -0.00093 1.05857
 O295 O 0.05289 -0.03322 1.02667
 O296 O -0.01297 -0.06422 1.01139
 O297 O -0.01598 -0.02218 1.02418
 O298 O 0.01652 -0.03148 0.99884
 O299 O 0.00546 0.01520 1.03363
 O300 O 0.03695 0.00601 1.00977
 Zr301 Zr -0.01804 0.02229 0.97245
 Zr302 Zr -0.02993 0.01126 1.02549
 Zr303 Zr 0.03190 -0.00702 0.97780
 Zr304 Zr -0.01896 -0.03421 0.99184
 O305 O 0.06202 0.01240 0.96954
 O306 O -0.05159 -0.04588 1.00372
 O307 O -0.00350 -0.01102 0.96920
 O308 O -0.03478 -0.00175 0.99356
 O309 O -0.01490 0.03608 1.00423
 O310 O 0.01767 0.02615 0.97910
 C311 C 0.00073 -0.06848 1.02800
 C312 C 0.06641 -0.03342 1.00987
 C313 C -0.01427 -0.01299 1.06994
 O314 O -0.06149 -0.00666 1.03171
 O315 O -0.05805 0.03152 1.01371
 O316 O -0.05018 0.03914 0.97730
 C317 C -0.06294 0.04058 0.99455
 O318 O 0.04624 0.04053 1.03708
 Zr319 Zr 0.02075 0.03861 1.01114
 O320 O -0.01277 0.05771 0.96552
 O321 O -0.03371 0.03966 1.04682
 O322 O 0.00903 0.06331 1.03393
 O323 O 0.05234 0.05211 0.99843
 O324 O 0.01248 0.06928 0.99294
 C325 C -0.00057 0.07307 0.97572
 O326 O -0.04344 0.01375 0.94796
 O327 O 0.03765 -0.03667 0.95851
 O328 O -0.00466 0.02228 0.93999
 O329 O 0.02891 0.00138 0.94386
 O330 O -0.00747 -0.06048 0.97057
 O331 O -0.04163 -0.03651 0.96367
 C332 C 0.01359 0.01266 0.93228
 H333 H 0.02417 -0.04671 0.99739
 H334 H -0.05149 -0.00333 0.98954
 H335 H 0.02539 0.03675 0.96836
 H336 H 0.00777 0.02104 1.04884
 H337 H -0.05342 -0.06243 0.99977
 H338 H -0.06977 0.00230 1.04294
 H339 H -0.04897 0.03765 1.05401
 H340 H 0.01836 0.07770 1.03172
 H341 H -0.01764 -0.07427 0.97285
 H342 H 0.05286 -0.03434 0.95132
 H343 H 0.07035 0.00334 0.95842
 H344 H 0.05351 0.06864 1.00267
 H345 H -0.04938 -0.05193 0.96370
 H346 H -0.04652 0.02805 0.93891
 H347 H 0.04708 -0.02330 1.06520
 H348 H 0.05104 0.05694 1.03905
 Zr349 Zr 0.52014 0.48195 0.53050
 O350 O 0.54409 0.49111 0.55605
 O351 O 0.51459 0.44642 0.53726
 O352 O 0.50518 0.47925 0.56223
 O353 O 0.56198 0.47544 0.49051
 O354 O 0.47128 0.49954 0.55821
 O355 O 0.55318 0.46667 0.52649
 O356 O 0.48718 0.43597 0.51129
 O357 O 0.48438 0.47808 0.52391
 O358 O 0.51685 0.46851 0.49865
 O359 O 0.50599 0.51540 0.53325
 O360 O 0.53746 0.50595 0.50946
 Zr361 Zr 0.48258 0.52236 0.47203
 Zr362 Zr 0.47060 0.51159 0.52509
 Zr363 Zr 0.53237 0.49282 0.47754
 Zr364 Zr 0.48136 0.46593 0.49162
 O365 O 0.56261 0.51204 0.46927
 O366 O 0.44866 0.45448 0.50350
 O367 O 0.49696 0.48896 0.46891
 O368 O 0.46571 0.49848 0.49320
 O369 O 0.48577 0.53626 0.50376
 O370 O 0.51830 0.52607 0.47871
 C371 C 0.50083 0.43171 0.52793
 C372 C 0.56670 0.46633 0.50971
 C373 C 0.48611 0.48747 0.56964
 O374 O 0.43894 0.49386 0.53134
 O375 O 0.44260 0.53196 0.51322
 O376 O 0.45052 0.53940 0.47679
 C377 C 0.43776 0.54099 0.49404
 O378 O 0.54691 0.54054 0.53664
 Zr379 Zr 0.52141 0.53865 0.51070
 O380 O 0.48801 0.55773 0.46500
 O381 O 0.46693 0.54010 0.54632
 O382 O 0.50982 0.56348 0.53341
 O383 O 0.55307 0.55196 0.49796
 O384 O 0.51328 0.56929 0.49241
 C385 C 0.50024 0.57307 0.47516
 O386 O 0.45717 0.51382 0.44754
 O387 O 0.53796 0.46307 0.45833
 O388 O 0.49603 0.52221 0.43960
 O389 O 0.52949 0.50115 0.44358
 O390 O 0.49275 0.43952 0.47046
 O391 O 0.45871 0.46364 0.46344
 C392 C 0.51426 0.51249 0.43195
 H393 H 0.52442 0.45323 0.49725
 H394 H 0.44898 0.49698 0.48918
 H395 H 0.52609 0.53660 0.46795
 H396 H 0.50832 0.52129 0.54844
 H397 H 0.44676 0.43792 0.49961
 H398 H 0.43070 0.50290 0.54253
 H399 H 0.45166 0.53819 0.55350
 H400 H 0.51922 0.57782 0.53116
 H401 H 0.48251 0.42578 0.47278
 H402 H 0.55320 0.46529 0.45115
 H403 H 0.57090 0.50290 0.45818
 H404 H 0.55430 0.56849 0.50214
 H405 H 0.45088 0.44825 0.46351
 H406 H 0.45417 0.52810 0.43845
 H407 H 0.54741 0.47680 0.56498
 H408 H 0.55179 0.55692 0.53855
 Zr409 Zr 0.47623 0.99743 0.53934
 O410 O 0.45216 0.98099 0.56076
 O411 O 0.47909 1.03062 0.55259
 O412 O 0.49044 0.99420 0.57189
 O413 O 0.43577 1.01221 0.49812
 O414 O 0.52562 0.97692 0.56712
 O415 O 0.44283 1.01256 0.53553
 O416 O 0.50660 1.04840 0.53115
 O417 O 0.51189 1.00436 0.53624
 O418 O 0.47978 1.01814 0.51069
 O419 O 0.49223 0.96477 0.53762
 O420 O 0.46080 0.97821 0.51341
 Zr421 Zr 0.51752 0.97325 0.47808
 Zr422 Zr 0.52759 0.97195 0.53274
 Zr423 Zr 0.46624 0.99866 0.48473
 Zr424 Zr 0.51519 1.02400 0.50705
 O425 O 0.43701 0.98056 0.47171
 O426 O 0.54669 1.03369 0.52341
 O427 O 0.50159 1.00609 0.47962
 O428 O 0.53253 0.99243 0.50409
 O429 O 0.51425 0.95220 0.50661
 O430 O 0.48195 0.96642 0.48146
 C431 C 0.49205 1.04793 0.54707
 C432 C 0.43012 1.01679 0.51805
 C433 C 0.50997 0.98588 0.57917
 O434 O 0.55840 0.98887 0.54375
 O435 O 0.55675 0.95555 0.51948
 O436 O 0.55018 0.95679 0.48199
 C437 C 0.56248 0.95145 0.49943
 O438 O 0.45232 0.93806 0.53358
 Zr439 Zr 0.47864 0.94666 0.51050
 O440 O 0.51458 0.93988 0.46508
 O441 O 0.53194 0.93947 0.54934
 O442 O 0.49065 0.91767 0.52964
 O443 O 0.44842 0.93479 0.49331
 O444 O 0.48939 0.92120 0.48837
 C445 C 0.50320 0.92192 0.47189
 O446 O 0.54286 0.98879 0.45740
 O447 O 0.46003 1.03184 0.47006
 O448 O 0.50472 0.97952 0.44531
 O449 O 0.47012 0.99782 0.45021
 O450 O 0.50322 1.05436 0.48999
 O451 O 0.53873 1.03408 0.48183
 C452 C 0.48607 0.98969 0.43804
 H453 H 0.47155 1.03315 0.51128
 H454 H 0.54925 0.99551 0.50158
 H455 H 0.47506 0.95813 0.46867
 H456 H 0.48985 0.95551 0.55142
 H457 H 0.54763 1.05089 0.52294
 H458 H 0.56670 0.97778 0.55385
 H459 H 0.54693 0.94032 0.55770
 H460 H 0.48207 0.90377 0.52438
 H461 H 0.51244 1.06768 0.49566
 H462 H 0.44508 1.03077 0.46163
 H463 H 0.42855 0.99167 0.46176
 H464 H 0.44806 0.91760 0.49477
 H465 H 0.54578 1.04934 0.48539
 H466 H 0.54704 0.97714 0.44628
 H467 H 0.44771 0.99264 0.57176
 H468 H 0.44827 0.92136 0.53251
 Zr469 Zr -0.02413 0.49677 1.03887
 O470 O -0.04817 0.48032 1.06031
 O471 O -0.02129 0.52996 1.05209
 O472 O -0.00989 0.49359 1.07141
 O473 O -0.06460 0.51152 0.99765
 O474 O 0.02527 0.47629 1.06665
 O475 O -0.05753 0.51188 1.03507
 O476 O 0.00622 0.54773 1.03064
 O477 O 0.01153 0.50369 1.03576
 O478 O -0.02058 0.51746 1.01021
 O479 O -0.00813 0.46410 1.03717
 O480 O -0.03957 0.47754 1.01295
 Zr481 Zr 0.01715 0.47254 0.97761
 Zr482 Zr 0.02722 0.47127 1.03228
 Zr483 Zr -0.03414 0.49797 0.98426
 Zr484 Zr 0.01483 0.52332 1.00657
 O485 O -0.06336 0.47987 0.97124
 O486 O 0.04632 0.53301 1.02292
 O487 O 0.00122 0.50539 0.97914
 O488 O 0.03216 0.49174 1.00361
 O489 O 0.01388 0.45151 1.00616
 O490 O -0.01843 0.46573 0.98101
 C491 C -0.00834 0.54728 1.04655
 C492 C -0.07024 0.51611 1.01759
 C493 C 0.00964 0.48528 1.07870
 O494 O 0.05805 0.48819 1.04327
 O495 O 0.05639 0.45488 1.01902
 O496 O 0.04981 0.45609 0.98154
 C497 C 0.06212 0.45079 0.99898
 O498 O -0.04801 0.43737 1.03317
 Zr499 Zr -0.02173 0.44598 1.01005
 O500 O 0.01416 0.43918 0.96460
 O501 O 0.03157 0.43881 1.04889
 O502 O -0.00968 0.41699 1.02917
 O503 O -0.05199 0.43412 0.99291
 O504 O -0.01105 0.42052 0.98789
 C505 C 0.00273 0.42124 0.97138
 O506 O 0.04250 0.48805 0.95693
 O507 O -0.04035 0.53115 0.96959
 O508 O 0.00437 0.47885 0.94485
 O509 O -0.03024 0.49715 0.94975
 O510 O 0.00286 0.55367 0.98948
 O511 O 0.03837 0.53338 0.98134
 C512 C -0.01427 0.48903 0.93757
 H513 H -0.02882 0.53247 1.01079
 H514 H 0.04888 0.49483 1.00110
 H515 H -0.02533 0.45744 0.96822
 H516 H -0.01051 0.45485 1.05097
 H517 H 0.04726 0.55021 1.02246
 H518 H 0.06634 0.47711 1.05338
 H519 H 0.04656 0.43965 1.05725
 H520 H -0.01827 0.40309 1.02391
 H521 H 0.01208 0.56699 0.99514
 H522 H -0.05530 0.53008 0.96116
 H523 H -0.07182 0.49097 0.96128
 H524 H -0.05237 0.41694 0.99438
 H525 H 0.04542 0.54864 0.98491
 H526 H 0.04667 0.47639 0.94581
 H527 H -0.05263 0.49197 1.07131
 H528 H -0.05204 0.42067 1.03211
 Zr529 Zr -0.02332 0.48867 0.47497
 O530 O -0.04581 0.49486 0.44727
 O531 O -0.01756 0.45285 0.47294
 O532 O -0.00651 0.48390 0.44439
 O533 O -0.06746 0.48525 0.51342
 O534 O 0.02723 0.50487 0.44795
 O535 O -0.05668 0.47336 0.47924
 O536 O 0.00787 0.44484 0.50165
 O537 O 0.01202 0.48588 0.48390
 O538 O -0.02201 0.47826 0.50840
 O539 O -0.00888 0.52189 0.46902
 O540 O -0.04184 0.51411 0.49205
 Zr541 Zr 0.01074 0.53473 0.53023
 Zr542 Zr 0.02599 0.51937 0.47956
 Zr543 Zr -0.03865 0.50411 0.52562
 Zr544 Zr 0.01300 0.47671 0.51758
 O545 O -0.06931 0.52354 0.52977
 O546 O 0.04623 0.46470 0.50861
 O547 O -0.00381 0.50150 0.53653
 O548 O 0.02880 0.50926 0.51305
 O549 O 0.00953 0.54553 0.49686
 O550 O -0.02451 0.53731 0.52117
 C551 C -0.00479 0.43905 0.48486
 C552 C -0.07110 0.47432 0.49532
 C553 C 0.01297 0.49191 0.43705
 O554 O 0.05786 0.50152 0.47718
 O555 O 0.05337 0.54106 0.49049
 O556 O 0.04321 0.55162 0.52526
 C557 C 0.05706 0.55183 0.50869
 O558 O -0.04984 0.54545 0.46056
 Zr559 Zr -0.02567 0.54671 0.48767
 O560 O 0.00509 0.57059 0.53210
 O561 O 0.03117 0.54608 0.45548
 O562 O -0.01301 0.56939 0.46242
 O563 O -0.05785 0.56084 0.49722
 O564 O -0.01820 0.57906 0.50190
 C565 C -0.00617 0.58470 0.51914
 O566 O 0.03451 0.52910 0.55707
 O567 O -0.04544 0.47615 0.54799
 O568 O -0.00482 0.53723 0.56174
 O569 O -0.03802 0.51537 0.55846
 O570 O 0.00026 0.45243 0.54141
 O571 O 0.03425 0.47712 0.54684
 C572 C -0.02353 0.52789 0.56952
 H573 H -0.02974 0.46310 0.51128
 H574 H 0.04526 0.50837 0.51814
 H575 H -0.03287 0.54868 0.53011
 H576 H -0.01028 0.52643 0.45314
 H577 H 0.04782 0.44855 0.51446
 H578 H 0.06688 0.50969 0.46551
 H579 H 0.04686 0.54379 0.44941
 H580 H -0.02272 0.58356 0.46219
 H581 H 0.01045 0.43861 0.54132
 H582 H -0.06113 0.47870 0.55400
 H583 H -0.07835 0.51534 0.54140
 H584 H -0.05883 0.57680 0.49079
 H585 H 0.04198 0.46189 0.54892
 H586 H 0.03688 0.54421 0.56445
 H587 H -0.04858 0.47970 0.44008
 H588 H -0.05482 0.56142 0.45641
 Zr589 Zr 0.47756 -0.01099 -0.02401
 O590 O 0.45511 -0.00493 -0.05177
 O591 O 0.48332 -0.04683 -0.02588
 O592 O 0.49440 -0.01590 -0.05455
 O593 O 0.43335 -0.01422 0.01438
 O594 O 0.52813 0.00511 -0.05105
 O595 O 0.44418 -0.02625 -0.01974
 O596 O 0.50871 -0.05471 0.00289
 O597 O 0.51289 -0.01374 -0.01503
 O598 O 0.47883 -0.02125 0.00946
 O599 O 0.49201 0.02221 -0.03007
 O600 O 0.45902 0.01453 -0.00706
 Zr601 Zr 0.51155 0.03531 0.03110
 Zr602 Zr 0.52686 0.01974 -0.01949
 Zr603 Zr 0.46217 0.00467 0.02655
 Zr604 Zr 0.51383 -0.02276 0.01868
 O605 O 0.43150 0.02412 0.03060
 O606 O 0.54707 -0.03482 0.00979
 O607 O 0.49699 0.00211 0.03750
 O608 O 0.52964 0.00977 0.01404
 O609 O 0.51038 0.04598 -0.00231
 O610 O 0.47631 0.03785 0.02199
 C611 C 0.49607 -0.06058 -0.01388
 C612 C 0.42973 -0.02521 -0.00370
 C613 C 0.51388 -0.00791 -0.06191
 O614 O 0.55874 0.00187 -0.02177
 O615 O 0.55423 0.04148 -0.00862
 O616 O 0.54402 0.05220 0.02609
 C617 C 0.55789 0.05234 0.00954
 O618 O 0.45108 0.04577 -0.03869
 Zr619 Zr 0.47519 0.04712 -0.01154
 O620 O 0.50586 0.07117 0.03285
 O621 O 0.53207 0.04634 -0.04367
 O622 O 0.48791 0.06970 -0.03683
 O623 O 0.44298 0.06125 -0.00211
 O624 O 0.48259 0.07952 0.00261
 C625 C 0.49459 0.08523 0.01985
 O626 O 0.53530 0.02980 0.05797
 O627 O 0.45533 -0.02321 0.04900
 O628 O 0.49596 0.03791 0.06259
 O629 O 0.46276 0.01605 0.05934
 O630 O 0.50107 -0.04694 0.04260
 O631 O 0.53505 -0.02222 0.04795
 C632 C 0.47723 0.02860 0.07038
 H633 H 0.47109 -0.03640 0.01239
 H634 H 0.54609 0.00890 0.01915
 H635 H 0.46793 0.04925 0.03088
 H636 H 0.49062 0.02668 -0.04597
 H637 H 0.54866 -0.05094 0.01570
 H638 H 0.56776 0.00999 -0.03346
 H639 H 0.54777 0.04404 -0.04971
 H640 H 0.47822 0.08388 -0.03712
 H641 H 0.51127 -0.06075 0.04259
 H642 H 0.43964 -0.02064 0.05497
 H643 H 0.42245 0.01597 0.04225
 H644 H 0.44199 0.07720 -0.00859
 H645 H 0.54279 -0.03744 0.05010
 H646 H 0.53766 0.04495 0.06531
 H647 H 0.45236 -0.02012 -0.05890
 H648 H 0.44612 0.06173 -0.04291
 Zr649 Zr 0.53290 0.51047 -0.03434
 O650 O 0.55730 0.49479 -0.05506
 O651 O 0.53135 0.54437 -0.04768
 O652 O 0.52000 0.50843 -0.06740
 O653 O 0.57259 0.52144 0.00839
 O654 O 0.48377 0.49234 -0.06363
 O655 O 0.56691 0.52424 -0.02917
 O656 O 0.50383 0.56152 -0.02678
 O657 O 0.49747 0.51833 -0.03212
 O658 O 0.52934 0.52969 -0.00557
 O659 O 0.51533 0.47822 -0.03334
 O660 O 0.54642 0.48924 -0.00820
 Zr661 Zr 0.48832 0.48427 0.02544
 Zr662 Zr 0.48017 0.48629 -0.02944
 Zr663 Zr 0.54101 0.50826 0.02054
 Zr664 Zr 0.49409 0.53641 -0.00277
 O665 O 0.56914 0.48865 0.03398
 O666 O 0.46324 0.54806 -0.01924
 O667 O 0.50590 0.51661 0.02485
 O668 O 0.47512 0.50532 -0.00074
 O669 O 0.49160 0.46472 -0.00321
 O670 O 0.52365 0.47641 0.02293
 C671 C 0.51852 0.56153 -0.04256
 C672 C 0.57923 0.52687 -0.01125
 C673 C 0.50042 0.50079 -0.07524
 O674 O 0.45081 0.50510 -0.04128
 O675 O 0.44987 0.47007 -0.01739
 O676 O 0.45499 0.46900 0.02028
 C677 C 0.44321 0.46489 0.00233
 O678 O 0.55385 0.44985 -0.02830
 Zr679 Zr 0.52701 0.45812 -0.00612
 O680 O 0.48879 0.45016 0.03787
 O681 O 0.47459 0.45485 -0.04639
 O682 O 0.51440 0.43071 -0.02614
 O683 O 0.55589 0.44420 0.01199
 O684 O 0.51381 0.43181 0.01516
 C685 C 0.49931 0.43216 0.03110
 O686 O 0.46333 0.49980 0.04563
 O687 O 0.54793 0.54040 0.03589
 O688 O 0.50079 0.48735 0.05862
 O689 O 0.53634 0.50492 0.05486
 O690 O 0.50730 0.56558 0.01448
 O691 O 0.47064 0.54588 0.02224
 C692 C 0.51991 0.49610 0.06650
 H693 H 0.53826 0.54448 -0.00586
 H694 H 0.45847 0.50879 0.00130
 H695 H 0.52973 0.46704 0.03569
 H696 H 0.51778 0.46952 -0.04707
 H697 H 0.46306 0.56524 -0.01849
 H698 H 0.44220 0.49485 -0.05164
 H699 H 0.45996 0.45668 -0.05522
 H700 H 0.52201 0.41621 -0.02073
 H701 H 0.49881 0.57945 0.00873
 H702 H 0.56253 0.53847 0.04473
 H703 H 0.57775 0.49888 0.04436
 H704 H 0.55530 0.42709 0.01046
 H705 H 0.46469 0.56172 0.01898
 H706 H 0.45810 0.48768 0.05640
 H707 H 0.56256 0.50694 -0.06578
 H708 H 0.55708 0.43298 -0.02722
 Zr709 Zr 0.03361 1.00889 0.46622
 O710 O 0.05792 0.99278 0.44570
 O711 O 0.03247 1.04270 0.45265
 O712 O 0.02076 1.00673 0.43314
 O713 O 0.07325 1.01993 0.50897
 O714 O -0.01561 0.99099 0.43692
 O715 O 0.06770 1.02244 0.47138
 O716 O 0.00507 1.06032 0.47335
 O717 O -0.00176 1.01710 0.46826
 O718 O 0.03014 1.02839 0.49483
 O719 O 0.01575 0.97681 0.46740
 O720 O 0.04687 0.98777 0.49255
 Zr721 Zr -0.01138 0.98361 0.52605
 Zr722 Zr -0.01934 0.98523 0.47114
 Zr723 Zr 0.04155 1.00708 0.52113
 Zr724 Zr -0.00506 1.03546 0.49746
 O725 O 0.06947 0.98732 0.53476
 O726 O -0.03571 1.04725 0.48075
 O727 O 0.00650 1.01578 0.52526
 O728 O -0.02431 1.00455 0.49967
 O729 O -0.00818 0.96378 0.49756
 O730 O 0.02389 0.97540 0.52370
 C731 C 0.01984 1.06006 0.45765
 C732 C 0.07998 1.02515 0.48930
 C733 C 0.00113 0.99922 0.42530
 O734 O -0.04853 1.00419 0.45910
 O735 O -0.04980 0.96935 0.48323
 O736 O -0.04480 0.96856 0.52091
 C737 C -0.05655 0.96438 0.50295
 O738 O 0.05400 0.94812 0.47278
 Zr739 Zr 0.02718 0.95684 0.49481
 O740 O -0.01124 0.94960 0.53876
 O741 O -0.02513 0.95370 0.45439
 O742 O 0.01438 0.92936 0.47498
 O743 O 0.05588 0.94280 0.51310
 O744 O 0.01367 0.93084 0.51626
 C745 C -0.00086 0.93145 0.53216
 O746 O -0.03630 0.99955 0.54602
 O747 O 0.04870 1.03928 0.53627
 O748 O 0.00102 0.98689 0.55923
 O749 O 0.03675 1.00407 0.55546
 O750 O 0.00831 1.06465 0.51458
 O751 O -0.02855 1.04536 0.52227
 C752 C 0.02019 0.99552 0.56711
 H753 H 0.03918 1.04309 0.49447
 H754 H -0.04094 1.00819 0.50164
 H755 H 0.02985 0.96609 0.53655
 H756 H 0.01816 0.96798 0.45375
 H757 H -0.03574 1.06445 0.48134
 H758 H -0.05718 0.99393 0.44879
 H759 H -0.03972 0.95559 0.44552
 H760 H 0.02184 0.91483 0.48052
 H761 H -0.00002 1.07856 0.50869
 H762 H 0.06327 1.03729 0.54516
 H763 H 0.07815 0.99756 0.54509
 H764 H 0.05513 0.92568 0.51171
 H765 H -0.03438 1.06121 0.51884
 H766 H -0.04167 0.98758 0.55687
 H767 H 0.06332 1.00478 0.43490
 H768 H 0.05707 0.93123 0.47399
 Zr769 Zr 0.73271 0.26925 0.21996
 O770 O 0.74244 0.29316 0.19458
 O771 O 0.69712 0.26429 0.21296
 O772 O 0.72995 0.25448 0.18816
 O773 O 0.72647 0.31092 0.26011
 O774 O 0.74977 0.22032 0.19215
 O775 O 0.71785 0.30245 0.22402
 O776 O 0.68608 0.23691 0.23872
 O777 O 0.72829 0.23357 0.22636
 O778 O 0.71899 0.26599 0.25172
 O779 O 0.76602 0.25468 0.21735
 O780 O 0.75682 0.28611 0.24123
 Zr781 Zr 0.77222 0.23088 0.27851
 Zr782 Zr 0.76166 0.21933 0.22532
 Zr783 Zr 0.74338 0.28104 0.27305
 Zr784 Zr 0.71585 0.23055 0.25856
 O785 O 0.76297 0.31094 0.28158
 O786 O 0.70403 0.19812 0.24643
 O787 O 0.73896 0.24569 0.28148
 O788 O 0.74824 0.21447 0.25710
 O789 O 0.78641 0.23404 0.24688
 O790 O 0.77647 0.26654 0.27202
 C791 C 0.68213 0.25071 0.22214
 C792 C 0.71755 0.31586 0.24087
 C793 C 0.73793 0.23534 0.18072
 O794 O 0.74356 0.18796 0.21886
 O795 O 0.78163 0.19106 0.23719
 O796 O 0.78890 0.19869 0.27370
 C797 C 0.79047 0.18602 0.25641
 O798 O 0.79178 0.29519 0.21431
 Zr799 Zr 0.78934 0.26964 0.24013
 O800 O 0.80763 0.23579 0.28583
 O801 O 0.79027 0.21541 0.20422
 O802 O 0.81421 0.25781 0.21754
 O803 O 0.80301 0.30101 0.25308
 O804 O 0.81976 0.26101 0.25860
 C805 C 0.82324 0.24786 0.27582
 O806 O 0.76313 0.20548 0.30280
 O807 O 0.71354 0.28694 0.29209
 O808 O 0.77200 0.24413 0.31101
 O809 O 0.75142 0.27787 0.30705
 O810 O 0.68942 0.24216 0.27961
 O811 O 0.71303 0.20779 0.28660
 C812 C 0.76247 0.26244 0.31868
 H813 H 0.70379 0.27376 0.25306
 H814 H 0.74648 0.19777 0.26104
 H815 H 0.78704 0.27412 0.28289
 H816 H 0.77204 0.25699 0.20220
 H817 H 0.68739 0.19643 0.25018
 H818 H 0.75257 0.17967 0.20768
 H819 H 0.78821 0.20022 0.19697
 H820 H 0.82868 0.26697 0.21994
 H821 H 0.67554 0.23215 0.27714
 H822 H 0.71591 0.30209 0.29936
 H823 H 0.75386 0.31929 0.29265
 H824 H 0.81961 0.30203 0.24902
 H825 H 0.69752 0.20019 0.28638
 H826 H 0.77731 0.20223 0.31198
 H827 H 0.72823 0.29673 0.18557
 H828 H 0.80827 0.29984 0.21251
 Zr829 Zr 0.74696 0.72614 0.71079
 O830 O 0.73047 0.70213 0.68939
 O831 O 0.78020 0.72894 0.69754
 O832 O 0.74376 0.74035 0.67825
 O833 O 0.76172 0.68571 0.75203
 O834 O 0.72647 0.77549 0.68301
 O835 O 0.76205 0.69275 0.71460
 O836 O 0.79802 0.75641 0.71896
 O837 O 0.75392 0.76175 0.71388
 O838 O 0.76771 0.72967 0.73943
 O839 O 0.71428 0.74214 0.71253
 O840 O 0.72772 0.71074 0.73675
 Zr841 Zr 0.72280 0.76740 0.77206
 Zr842 Zr 0.72149 0.77746 0.71739
 Zr843 Zr 0.74821 0.71616 0.76542
 Zr844 Zr 0.77360 0.76504 0.74304
 O845 O 0.73008 0.68699 0.77848
 O846 O 0.78332 0.79648 0.72665
 O847 O 0.75567 0.75147 0.77050
 O848 O 0.74200 0.78238 0.74603
 O849 O 0.70171 0.76415 0.74354
 O850 O 0.71595 0.73187 0.76869
 C851 C 0.79755 0.74186 0.70306
 C852 C 0.76628 0.68005 0.73208
 C853 C 0.73544 0.75986 0.67096
 O854 O 0.73844 0.80822 0.70636
 O855 O 0.70511 0.80661 0.73065
 O856 O 0.70634 0.80004 0.76813
 C857 C 0.70103 0.81234 0.75069
 O858 O 0.68748 0.70234 0.71658
 Zr859 Zr 0.69615 0.72858 0.73967
 O860 O 0.68941 0.76444 0.78511
 O861 O 0.68897 0.78182 0.70081
 O862 O 0.66711 0.74065 0.72059
 O863 O 0.68428 0.69836 0.75684
 O864 O 0.67069 0.73926 0.76187
 C865 C 0.67144 0.75303 0.77837
 O866 O 0.73836 0.79273 0.79270
 O867 O 0.78144 0.70992 0.78004
 O868 O 0.72913 0.75465 0.80482
 O869 O 0.74742 0.72006 0.79993
 O870 O 0.80399 0.75307 0.76011
 O871 O 0.78371 0.78856 0.76824
 C872 C 0.73932 0.73603 0.81210
 H873 H 0.78272 0.72142 0.73884
 H874 H 0.74511 0.79908 0.74853
 H875 H 0.70766 0.72499 0.78150
 H876 H 0.70500 0.73977 0.69874
 H877 H 0.80054 0.79741 0.72710
 H878 H 0.72734 0.81651 0.69625
 H879 H 0.68982 0.79679 0.69244
 H880 H 0.65320 0.73208 0.72587
 H881 H 0.81733 0.76227 0.75443
 H882 H 0.78036 0.69500 0.78848
 H883 H 0.74119 0.67854 0.78843
 H884 H 0.66707 0.69800 0.75540
 H885 H 0.79899 0.79559 0.76465
 H886 H 0.72670 0.79691 0.80384
 H887 H 0.74212 0.69766 0.67838
 H888 H 0.67075 0.69833 0.71765
 Zr889 Zr 0.23822 0.22720 0.77453
 O890 O 0.24435 0.20477 0.80227
 O891 O 0.20232 0.23281 0.77640
 O892 O 0.23326 0.24397 0.80508
 O893 O 0.23514 0.18306 0.73612
 O894 O 0.25416 0.27774 0.80157
 O895 O 0.22304 0.19381 0.77024
 O896 O 0.19434 0.25815 0.74761
 O897 O 0.23534 0.26248 0.76555
 O898 O 0.22795 0.22844 0.74106
 O899 O 0.27140 0.24174 0.78058
 O900 O 0.26383 0.20877 0.75756
 Zr901 Zr 0.28447 0.26133 0.71941
 Zr902 Zr 0.26881 0.27655 0.77000
 Zr903 Zr 0.25397 0.21190 0.72396
 Zr904 Zr 0.22632 0.26341 0.73183
 O905 O 0.27356 0.18134 0.71990
 O906 O 0.21412 0.29655 0.74075
 O907 O 0.25128 0.24668 0.71301
 O908 O 0.25883 0.27930 0.73647
 O909 O 0.29514 0.26018 0.75282
 O910 O 0.28714 0.22614 0.72852
 C911 C 0.18851 0.24548 0.76439
 C912 C 0.22414 0.17940 0.75419
 C913 C 0.24120 0.26345 0.81243
 O914 O 0.25080 0.30832 0.77229
 O915 O 0.29047 0.30396 0.75912
 O916 O 0.30125 0.29382 0.72441
 C917 C 0.30133 0.30766 0.74096
 O918 O 0.29511 0.20092 0.78918
 Zr919 Zr 0.29640 0.22504 0.76205
 O920 O 0.32039 0.25580 0.71767
 O921 O 0.29542 0.28183 0.79417
 O922 O 0.31895 0.23778 0.78736
 O923 O 0.31069 0.19293 0.75259
 O924 O 0.32883 0.23259 0.74792
 C925 C 0.33451 0.24461 0.73069
 O926 O 0.27888 0.28505 0.69253
 O927 O 0.22610 0.20499 0.70150
 O928 O 0.28715 0.24580 0.68792
 O929 O 0.26537 0.21256 0.69116
 O930 O 0.20217 0.25060 0.70791
 O931 O 0.22679 0.28463 0.70258
 C932 C 0.27789 0.22707 0.68013
 H933 H 0.21282 0.22067 0.73812
 H934 H 0.25790 0.29574 0.73136
 H935 H 0.29859 0.21782 0.71962
 H936 H 0.27588 0.24036 0.79648
 H937 H 0.19798 0.29808 0.73484
 H938 H 0.25890 0.31736 0.78397
 H939 H 0.29306 0.29751 0.80020
 H940 H 0.33317 0.22814 0.78765
 H941 H 0.18831 0.26074 0.70792
 H942 H 0.22874 0.18933 0.69552
 H943 H 0.26543 0.17228 0.70826
 H944 H 0.32665 0.19200 0.75907
 H945 H 0.21153 0.29232 0.70044
 H946 H 0.29404 0.28747 0.68520
 H947 H 0.22915 0.20196 0.80941
 H948 H 0.31110 0.19599 0.79339
 Zr949 Zr 0.25945 0.78315 0.28359
 O950 O 0.24347 0.80740 0.30424
 O951 O 0.29329 0.78172 0.29715
 O952 O 0.25725 0.77016 0.31662
 O953 O 0.27063 0.82290 0.24099
 O954 O 0.24131 0.73393 0.31272
 O955 O 0.27315 0.81717 0.27856
 O956 O 0.31074 0.75434 0.27634
 O957 O 0.26748 0.74779 0.28139
 O958 O 0.27893 0.77972 0.25495
 O959 O 0.22724 0.76547 0.28238
 O960 O 0.23834 0.79661 0.25734
 Zr961 Zr 0.23386 0.73862 0.22360
 Zr962 Zr 0.23549 0.73040 0.27848
 Zr963 Zr 0.25763 0.79134 0.22872
 Zr964 Zr 0.28582 0.74454 0.25216
 O965 O 0.23799 0.81940 0.21521
 O966 O 0.29748 0.71375 0.26867
 O967 O 0.26616 0.75632 0.22443
 O968 O 0.25478 0.72548 0.24991
 O969 O 0.21404 0.74177 0.25213
 O970 O 0.22582 0.77388 0.22611
 C971 C 0.31057 0.76899 0.29212
 C972 C 0.27590 0.82952 0.26068
 C973 C 0.24965 0.75055 0.32440
 O974 O 0.25434 0.70110 0.29039
 O975 O 0.21944 0.70010 0.26630
 O976 O 0.21865 0.70527 0.22864
 C977 C 0.21443 0.69346 0.24655
 O978 O 0.19869 0.80382 0.27720
 Zr979 Zr 0.20728 0.77711 0.25504
 O980 O 0.19981 0.73900 0.21093
 O981 O 0.20391 0.72470 0.29525
 O982 O 0.17972 0.76434 0.27483
 O983 O 0.19337 0.80595 0.23689
 O984 O 0.18116 0.76389 0.23354
 C985 C 0.18170 0.74944 0.21757
 O986 O 0.24967 0.71376 0.20350
 O987 O 0.28989 0.79839 0.21357
 O988 O 0.23715 0.75116 0.19046
 O989 O 0.25454 0.78674 0.19437
 O990 O 0.31511 0.75787 0.23511
 O991 O 0.29559 0.72119 0.22720
 C992 C 0.24586 0.77032 0.18265
 H993 H 0.29370 0.78868 0.25535
 H994 H 0.25834 0.70886 0.24787
 H995 H 0.21652 0.77994 0.21330
 H996 H 0.21842 0.76786 0.29606
 H997 H 0.31469 0.71364 0.26804
 H998 H 0.24403 0.69246 0.30068
 H999 H 0.20573 0.71007 0.30406
 H1000 H 0.16521 0.77189 0.26934
 H1001 H 0.32899 0.74944 0.24095
 H1002 H 0.28797 0.81299 0.20474
 H1003 H 0.24827 0.82806 0.20490
 H1004 H 0.17622 0.80529 0.23830
 H1005 H 0.31144 0.71530 0.23056
 H1006 H 0.23764 0.70851 0.19265
 H1007 H 0.25553 0.81269 0.31505
 H1008 H 0.18179 0.80696 0.27603
 Zr1009 Zr 0.23214 0.77083 0.71915
 O1010 O 0.24138 0.79482 0.69366
 O1011 O 0.19660 0.76528 0.71229
 O1012 O 0.22952 0.75595 0.68738
 O1013 O 0.22550 0.81252 0.75921
 O1014 O 0.24984 0.72210 0.69139
 O1015 O 0.21683 0.80382 0.72319
 O1016 O 0.18608 0.73783 0.73818
 O1017 O 0.22826 0.73510 0.72567
 O1018 O 0.21860 0.76747 0.75097
 O1019 O 0.26564 0.75673 0.71644
 O1020 O 0.25610 0.78808 0.74028
 Zr1021 Zr 0.27246 0.73319 0.77764
 Zr1022 Zr 0.26182 0.72135 0.72453
 Zr1023 Zr 0.24287 0.78292 0.77217
 Zr1024 Zr 0.21601 0.73200 0.75793
 O1025 O 0.26207 0.81312 0.78055
 O1026 O 0.20459 0.69935 0.74599
 O1027 O 0.23900 0.74753 0.78072
 O1028 O 0.24861 0.71639 0.75638
 O1029 O 0.28646 0.73646 0.74594
 O1030 O 0.27617 0.76889 0.77104
 C1031 C 0.18185 0.75150 0.72156
 C1032 C 0.21643 0.81728 0.73999
 C1033 C 0.23777 0.73692 0.67996
 O1034 O 0.24410 0.68975 0.71818
 O1035 O 0.28217 0.69335 0.73641
 O1036 O 0.28950 0.70118 0.77286
 C1037 C 0.29113 0.68847 0.75560
 O1038 O 0.29080 0.79760 0.71318
 Zr1039 Zr 0.28885 0.77208 0.73908
 O1040 O 0.30784 0.73862 0.78476
 O1041 O 0.29043 0.71776 0.70337
 O1042 O 0.31379 0.76055 0.71641
 O1043 O 0.30210 0.80369 0.75188
 O1044 O 0.31947 0.76396 0.75744
 C1045 C 0.32323 0.75090 0.77466
 O1046 O 0.26386 0.70776 0.80207
 O1047 O 0.21302 0.78844 0.79131
 O1048 O 0.27220 0.74654 0.81009
 O1049 O 0.25111 0.77996 0.80615
 O1050 O 0.18949 0.74333 0.77904
 O1051 O 0.21364 0.70932 0.78607
 C1052 C 0.26244 0.76472 0.81777
 H1053 H 0.20329 0.77502 0.75234
 H1054 H 0.24709 0.69968 0.76037
 H1055 H 0.28667 0.77665 0.78183
 H1056 H 0.27158 0.75909 0.70127
 H1057 H 0.18800 0.69744 0.74984
 H1058 H 0.25319 0.68154 0.70700
 H1059 H 0.28855 0.70252 0.69616
 H1060 H 0.32813 0.76994 0.71871
 H1061 H 0.17575 0.73311 0.77666
 H1062 H 0.21521 0.80364 0.79853
 H1063 H 0.25288 0.82136 0.79162
 H1064 H 0.31867 0.80495 0.74775
 H1065 H 0.19822 0.70152 0.78596
 H1066 H 0.27813 0.70474 0.81119
 H1067 H 0.22707 0.79815 0.68470
 H1068 H 0.30722 0.80248 0.71130
 Zr1069 Zr 0.24711 0.22643 0.21097
 O1070 O 0.23088 0.20243 0.18937
 O1071 O 0.28047 0.22935 0.19802
 O1072 O 0.24415 0.24069 0.17843
 O1073 O 0.26147 0.18590 0.25223
 O1074 O 0.22677 0.27580 0.18311
 O1075 O 0.26222 0.19306 0.21484
 O1076 O 0.29803 0.25678 0.21967
 O1077 O 0.25399 0.26204 0.21421
 O1078 O 0.26755 0.22990 0.23981
 O1079 O 0.21437 0.24239 0.21244
 O1080 O 0.22760 0.21094 0.23669
 Zr1081 Zr 0.22223 0.26750 0.27210
 Zr1082 Zr 0.22149 0.27770 0.21745
 Zr1083 Zr 0.24778 0.21630 0.26557
 Zr1084 Zr 0.27336 0.26526 0.24357
 O1085 O 0.22953 0.18709 0.27839
 O1086 O 0.28321 0.29678 0.22739
 O1087 O 0.25514 0.25159 0.27081
 O1088 O 0.24170 0.28256 0.24629
 O1089 O 0.20146 0.26430 0.24337
 O1090 O 0.21546 0.23197 0.26859
 C1091 C 0.29773 0.24230 0.20372
 C1092 C 0.26627 0.18031 0.23233
 C1093 C 0.23585 0.26020 0.17110
 O1094 O 0.23855 0.30848 0.20662
 O1095 O 0.20498 0.30682 0.23062
 O1096 O 0.20583 0.30016 0.26809
 C1097 C 0.20070 0.31250 0.25063
 O1098 O 0.18764 0.20249 0.21618
 Zr1099 Zr 0.19598 0.22874 0.23937
 O1100 O 0.18866 0.26453 0.28476
 O1101 O 0.18912 0.28209 0.20062
 O1102 O 0.16713 0.24072 0.21996
 O1103 O 0.18393 0.19852 0.25643
 O1104 O 0.17022 0.23944 0.26123
 C1105 C 0.17075 0.25319 0.27774
 O1106 O 0.23753 0.29276 0.29298
 O1107 O 0.28086 0.21003 0.28049
 O1108 O 0.22825 0.25465 0.30488
 O1109 O 0.24666 0.22011 0.30007
 O1110 O 0.30358 0.25325 0.26087
 O1111 O 0.28318 0.28869 0.26894
 C1112 C 0.23842 0.23604 0.31221
 H1113 H 0.28258 0.22168 0.23933
 H1114 H 0.24477 0.29925 0.24886
 H1115 H 0.20703 0.22506 0.28129
 H1116 H 0.20524 0.24005 0.19856
 H1117 H 0.30043 0.29772 0.22802
 H1118 H 0.22755 0.31680 0.19644
 H1119 H 0.19004 0.29708 0.19228
 H1120 H 0.15317 0.23211 0.22508
 H1121 H 0.31698 0.26248 0.25534
 H1122 H 0.27971 0.19508 0.28888
 H1123 H 0.24055 0.17861 0.28842
 H1124 H 0.16674 0.19815 0.25480
 H1125 H 0.29850 0.29573 0.26554
 H1126 H 0.22574 0.29690 0.30399
 H1127 H 0.24266 0.19802 0.17846
 H1128 H 0.17092 0.19839 0.21712
 Zr1129 Zr 0.73990 0.72703 0.27459
 O1130 O 0.74602 0.70461 0.30235
 O1131 O 0.70401 0.73271 0.27648
 O1132 O 0.73492 0.74383 0.30513
 O1133 O 0.73678 0.68289 0.23620
 O1134 O 0.75587 0.77757 0.30163
 O1135 O 0.72469 0.69366 0.27032
 O1136 O 0.69608 0.75809 0.24772
 O1137 O 0.73707 0.76232 0.26562
 O1138 O 0.72963 0.72830 0.24113
 O1139 O 0.77311 0.74153 0.28065
 O1140 O 0.76549 0.70858 0.25763
 Zr1141 Zr 0.78620 0.76112 0.21948
 Zr1142 Zr 0.77056 0.77634 0.27008
 Zr1143 Zr 0.75562 0.71172 0.22403
 Zr1144 Zr 0.72805 0.76327 0.23191
 O1145 O 0.77518 0.68115 0.21995
 O1146 O 0.71591 0.79644 0.24080
 O1147 O 0.75299 0.74651 0.21308
 O1148 O 0.76058 0.77912 0.23656
 O1149 O 0.79686 0.75995 0.25289
 O1150 O 0.78881 0.72592 0.22858
 C1151 C 0.69023 0.74544 0.26450
 C1152 C 0.72578 0.67924 0.25427
 C1153 C 0.74286 0.76331 0.31248
 O1154 O 0.75261 0.80815 0.27236
 O1155 O 0.79228 0.80372 0.25922
 O1156 O 0.80303 0.79358 0.22450
 C1157 C 0.80314 0.80741 0.24106
 O1158 O 0.79677 0.70068 0.28924
 Zr1159 Zr 0.79808 0.72480 0.26211
 O1160 O 0.82211 0.75552 0.21773
 O1161 O 0.79717 0.78157 0.29427
 O1162 O 0.82065 0.73751 0.28742
 O1163 O 0.81232 0.69267 0.25265
 O1164 O 0.83052 0.73230 0.24799
 C1165 C 0.83621 0.74431 0.23075
 O1166 O 0.78065 0.78487 0.19262
 O1167 O 0.72773 0.70483 0.20159
 O1168 O 0.78880 0.74560 0.18798
 O1169 O 0.76699 0.71239 0.19122
 O1170 O 0.70387 0.75048 0.20801
 O1171 O 0.72856 0.78447 0.20264
 C1172 C 0.77950 0.72690 0.18018
 H1173 H 0.71448 0.72054 0.23820
 H1174 H 0.75968 0.79556 0.23145
 H1175 H 0.80025 0.71758 0.21968
 H1176 H 0.77758 0.74014 0.29656
 H1177 H 0.69977 0.79800 0.23488
 H1178 H 0.76072 0.81717 0.28405
 H1179 H 0.79482 0.79725 0.30031
 H1180 H 0.83486 0.72785 0.28771
 H1181 H 0.69002 0.76064 0.20803
 H1182 H 0.73035 0.68918 0.19561
 H1183 H 0.76703 0.67210 0.20830
 H1184 H 0.82828 0.69172 0.25913
 H1185 H 0.71331 0.79217 0.20049
 H1186 H 0.79581 0.78725 0.18529
 H1187 H 0.73082 0.70182 0.30949
 H1188 H 0.81275 0.69573 0.29345
 Zr1189 Zr 0.75940 0.28297 0.78430
 O1190 O 0.74350 0.30725 0.80498
 O1191 O 0.79327 0.28151 0.79779
 O1192 O 0.75724 0.26999 0.81734
 O1193 O 0.77048 0.32271 0.74165
 O1194 O 0.74126 0.23377 0.81346
 O1195 O 0.77311 0.31698 0.77922
 O1196 O 0.81065 0.25412 0.77693
 O1197 O 0.76740 0.24760 0.78207
 O1198 O 0.77881 0.27952 0.75561
 O1199 O 0.72718 0.26531 0.78314
 O1200 O 0.73824 0.29644 0.75808
 Zr1201 Zr 0.73363 0.23845 0.72435
 Zr1202 Zr 0.73539 0.23023 0.77924
 Zr1203 Zr 0.75745 0.29115 0.72942
 Zr1204 Zr 0.78567 0.24434 0.75280
 O1205 O 0.73780 0.31921 0.71593
 O1206 O 0.79735 0.21354 0.76928
 O1207 O 0.76595 0.25612 0.72511
 O1208 O 0.75461 0.22530 0.75062
 O1209 O 0.71389 0.24162 0.75293
 O1210 O 0.72563 0.27371 0.72688
 C1211 C 0.81053 0.26876 0.79272
 C1212 C 0.77580 0.32932 0.76132
 C1213 C 0.74962 0.25039 0.82513
 O1214 O 0.75426 0.20094 0.79112
 O1215 O 0.71933 0.19993 0.76708
 O1216 O 0.71844 0.20510 0.72942
 C1217 C 0.71428 0.19329 0.74734
 O1218 O 0.69865 0.30368 0.77803
 Zr1219 Zr 0.70716 0.27696 0.75585
 O1220 O 0.69955 0.23884 0.71177
 O1221 O 0.70384 0.22454 0.79605
 O1222 O 0.67964 0.26422 0.77571
 O1223 O 0.69323 0.30581 0.73773
 O1224 O 0.68098 0.26375 0.73441
 C1225 C 0.68146 0.24931 0.71845
 O1226 O 0.74937 0.21357 0.70421
 O1227 O 0.78968 0.29818 0.71421
 O1228 O 0.73686 0.25098 0.69121
 O1229 O 0.75430 0.28654 0.69507
 O1230 O 0.81492 0.25766 0.73569
 O1231 O 0.79536 0.22099 0.72782
 C1232 C 0.74559 0.27012 0.68338
 H1233 H 0.79358 0.28848 0.75598
 H1234 H 0.75816 0.20868 0.74857
 H1235 H 0.71630 0.27978 0.71408
 H1236 H 0.71839 0.26770 0.79684
 H1237 H 0.81456 0.21342 0.76862
 H1238 H 0.74397 0.19229 0.80143
 H1239 H 0.70567 0.20991 0.80486
 H1240 H 0.66513 0.27177 0.77024
 H1241 H 0.82881 0.24922 0.74150
 H1242 H 0.78775 0.31278 0.70538
 H1243 H 0.74806 0.32786 0.70560
 H1244 H 0.67609 0.30516 0.73917
 H1245 H 0.81123 0.21510 0.73114
 H1246 H 0.73731 0.20834 0.69338
 H1247 H 0.75559 0.31252 0.81576
 H1248 H 0.68175 0.30684 0.77688
 C1249 C 0.44744 1.00597 0.33257
 N1250 N 0.45085 1.02402 0.34640
 N1251 N 0.46110 1.02063 0.36622
 C1252 C 0.46832 0.99912 0.37283
 N1253 N 0.46500 0.98110 0.35895
 N1254 N 0.45476 0.98449 0.33913
 C1255 C 0.43444 1.00904 0.31210
 C1256 C 0.42280 1.01056 0.29524
 C1257 C 0.47670 0.99509 0.39520
 C1258 C 0.48207 0.99218 0.41451
 C1259 C -0.05254 0.50568 0.83202
 N1260 N -0.04932 0.52365 0.84598
 N1261 N -0.03915 0.52019 0.86583
 C1262 C -0.03183 0.49869 0.87235
 N1263 N -0.03496 0.48075 0.85835
 N1264 N -0.04512 0.48420 0.83850
 C1265 C -0.06550 0.50879 0.81154
 C1266 C -0.07715 0.51033 0.79469
 C1267 C -0.02354 0.49456 0.89473
 C1268 C -0.01823 0.49158 0.91405
 C1269 C 0.05213 0.00556 0.82828
 N1270 N 0.04126 -0.01259 0.83846
 N1271 N 0.03095 -0.00976 0.85780
 C1272 C 0.03108 0.01131 0.86750
 N1273 N 0.04187 0.02948 0.85726
 N1274 N 0.05216 0.02666 0.83792
 C1275 C 0.06491 0.00226 0.80840
 C1276 C 0.07639 0.00033 0.79204
 C1277 C 0.02287 0.01343 0.88968
 C1278 C 0.01760 0.01399 0.90890
 C1279 C 0.55397 0.50518 0.32846
 N1280 N 0.54279 0.48711 0.33846
 N1281 N 0.53218 0.49000 0.35764
 C1282 C 0.53232 0.51106 0.36736
 N1283 N 0.54342 0.52915 0.35730
 N1284 N 0.55401 0.52627 0.33811
 C1285 C 0.56701 0.50180 0.30876
 C1286 C 0.57866 0.49980 0.29252
 C1287 C 0.52384 0.51323 0.38943
 C1288 C 0.51839 0.51381 0.40860
 C1289 C 0.56260 0.49765 0.17137
 N1290 N 0.56092 0.47732 0.16043
 N1291 N 0.54998 0.47643 0.14075
 C1292 C 0.54014 0.49578 0.13149
 N1293 N 0.54177 0.51609 0.14246
 N1294 N 0.55271 0.51699 0.16214
 C1295 C 0.57443 0.49865 0.19259
 C1296 C 0.58379 0.49943 0.21067
 C1297 C 0.53056 0.49537 0.10928
 C1298 C 0.52433 0.49542 0.09004
 C1299 C 0.06218 0.99793 0.67223
 N1300 N 0.06077 0.97755 0.66135
 N1301 N 0.04999 0.97649 0.64161
 C1302 C 0.04005 0.99572 0.63221
 N1303 N 0.04142 1.01608 0.64311
 N1304 N 0.05220 1.01715 0.66286
 C1305 C 0.07388 0.99912 0.69350
 C1306 C 0.08314 1.00013 0.71162
 C1307 C 0.03062 0.99513 0.60994
 C1308 C 0.02451 0.99504 0.59067
 C1309 C -0.06447 0.52247 0.67344
 N1310 N -0.07550 0.53536 0.65739
 N1311 N -0.06581 0.53885 0.63768
 C1312 C -0.04468 0.52975 0.63343
 N1313 N -0.03362 0.51692 0.64951
 N1314 N -0.04331 0.51343 0.66922
 C1315 C -0.07513 0.51816 0.69456
 C1316 C -0.08361 0.51452 0.71249
 C1317 C -0.03554 0.53121 0.61138
 C1318 C -0.02909 0.53083 0.59244
 C1319 C 0.43594 0.02309 0.17411
 N1320 N 0.42497 0.03600 0.15805
 N1321 N 0.43475 0.03955 0.13839
 C1322 C 0.45592 0.03050 0.13422
 N1323 N 0.46691 0.01764 0.15032
 N1324 N 0.45714 0.01409 0.16997
 C1325 C 0.42517 0.01870 0.19517
 C1326 C 0.41661 0.01499 0.21305
 C1327 C 0.46515 0.03199 0.11220
 C1328 C 0.47165 0.03159 0.09328
 C1329 C 0.33818 0.40997 -0.00179
 N1330 N 0.34085 0.43200 -0.00986
 N1331 N 0.36123 0.44306 -0.00766
 C1332 C 0.37960 0.43251 0.00276
 N1333 N 0.37691 0.41049 0.01084
 N1334 N 0.35653 0.39943 0.00865
 C1335 C 0.31630 0.39776 -0.00442
 C1336 C 0.29821 0.38699 -0.00626
 C1337 C 0.40198 0.44402 0.00398
 C1338 C 0.42082 0.45358 0.00400
 C1339 C -0.16178 0.90988 0.49876
 N1340 N -0.15888 0.93168 0.49019
 N1341 N -0.13848 0.94270 0.49242
 C1342 C -0.12032 0.93234 0.50337
 N1343 N -0.12325 0.91055 0.51195
 N1344 N -0.14364 0.89953 0.50973
 C1345 C -0.18367 0.89768 0.49606
 C1346 C -0.20175 0.88693 0.49414
 C1347 C -0.09790 0.94375 0.50462
 C1348 C -0.07902 0.95322 0.50464
 C1349 C -0.16763 0.09422 0.99687
 N1350 N -0.14770 0.10698 0.99801
 N1351 N -0.12705 0.09685 0.99619
 C1352 C -0.12564 0.07364 0.99303
 N1353 N -0.14558 0.06086 0.99187
 N1354 N -0.16625 0.07100 0.99369
 C1355 C -0.18986 0.10538 0.99869
 C1356 C -0.20805 0.11568 0.99986
 C1357 C -0.10329 0.06250 0.99226
 C1358 C -0.08468 0.05282 0.99258
 C1359 C 0.33334 0.59505 0.49664
 N1360 N 0.35332 0.60709 0.50070
 N1361 N 0.37395 0.59695 0.49880
 C1362 C 0.37530 0.57448 0.49261
 N1363 N 0.35532 0.56243 0.48853
 N1364 N 0.33467 0.57258 0.49043
 C1365 C 0.31114 0.60628 0.49845
 C1366 C 0.29296 0.61660 0.49962
 C1367 C 0.39756 0.56318 0.49175
 C1368 C 0.41610 0.55337 0.49204
 C1369 C 0.16336 0.60398 0.50628
 N1370 N 0.15943 0.58576 0.52040
 N1371 N 0.13814 0.57659 0.52218
 C1372 C 0.12003 0.58540 0.50998
 N1373 N 0.12396 0.60364 0.49589
 N1374 N 0.14525 0.61282 0.49410
 C1375 C 0.18652 0.61348 0.50392
 C1376 C 0.20599 0.62131 0.50199
 C1377 C 0.09738 0.57443 0.51072
 C1378 C 0.07871 0.56456 0.51044
 C1379 C 0.66406 0.10475 0.00675
 N1380 N 0.66039 0.08612 0.02044
 N1381 N 0.63914 0.07688 0.02233
 C1382 C 0.62081 0.08603 0.01067
 N1383 N 0.62449 0.10468 -0.00299
 N1384 N 0.64574 0.11392 -0.00489
 C1385 C 0.68718 0.11431 0.00421
 C1386 C 0.70661 0.12220 0.00207
 C1387 C 0.59819 0.07501 0.01147
 C1388 C 0.57953 0.06511 0.01125
 C1389 C 0.66894 0.90175 0.49205
 N1390 N 0.65099 0.88977 0.50122
 N1391 N 0.62986 0.89915 0.50182
 C1392 C 0.62596 0.92080 0.49323
 N1393 N 0.64391 0.93276 0.48404
 N1394 N 0.66504 0.92338 0.48344
 C1395 C 0.69190 0.89182 0.49184
 C1396 C 0.71121 0.88359 0.49179
 C1397 C 0.60336 0.93131 0.49471
 C1398 C 0.58457 0.94036 0.49649
 C1399 C 0.16881 0.40153 0.99184
 N1400 N 0.15087 0.38945 1.00090
 N1401 N 0.12969 0.39872 1.00144
 C1402 C 0.12573 0.42037 0.99288
 N1403 N 0.14367 0.43244 0.98379
 N1404 N 0.16485 0.42316 0.98325
 C1405 C 0.19182 0.39171 0.99169
 C1406 C 0.21115 0.38354 0.99169
 C1407 C 0.10307 0.43078 0.99429
 C1408 C 0.08425 0.43975 0.99605
 C1409 C -0.00725 0.32874 0.45033
 N1410 N -0.02721 0.34092 0.45193
 N1411 N -0.02685 0.36198 0.46063
 C1412 C -0.00650 0.37147 0.46784
 N1413 N 0.01343 0.35920 0.46647
 N1414 N 0.01306 0.33814 0.45777
 C1415 C -0.00693 0.30845 0.43728
 C1416 C -0.00616 0.29269 0.42464
 C1417 C -0.00570 0.39505 0.47448
 C1418 C -0.00514 0.41514 0.47933
 C1419 C 0.49370 -0.17117 -0.04762
 N1420 N 0.51401 -0.16166 -0.04033
 N1421 N 0.51435 -0.14053 -0.03177
 C1422 C 0.49440 -0.12831 -0.03040
 N1423 N 0.47405 -0.13792 -0.03746
 N1424 N 0.47371 -0.15904 -0.04602
 C1425 C 0.49404 -0.19147 -0.06066
 C1426 C 0.49482 -0.20718 -0.07335
 C1427 C 0.49516 -0.10466 -0.02396
 C1428 C 0.49571 -0.08453 -0.01927
 C1429 C -0.00259 -0.18041 1.06238
 N1430 N -0.02227 -0.16765 1.06057
 N1431 N -0.02130 -0.14559 1.05359
 C1432 C -0.00059 -0.13565 1.04852
 N1433 N 0.01908 -0.14844 1.05018
 N1434 N 0.01810 -0.17051 1.05716
 C1435 C -0.00309 -0.20252 1.07327
 C1436 C -0.00299 -0.22005 1.08430
 C1437 C 0.00049 -0.11182 1.04195
 C1438 C 0.00094 -0.09183 1.03607
 C1439 C 0.49708 0.32005 0.56312
 N1440 N 0.51778 0.32981 0.55773
 N1441 N 0.51883 0.35181 0.55056
 C1442 C 0.49921 0.36468 0.54888
 N1443 N 0.47848 0.35488 0.55412
 N1444 N 0.47745 0.33289 0.56128
 C1445 C 0.49652 0.29802 0.57414
 C1446 C 0.49658 0.28054 0.58525
 C1447 C 0.50037 0.38845 0.54213
 C1448 C 0.50091 0.40840 0.53612
 C1449 C 0.48076 1.15307 0.59164
 N1450 N 0.49571 1.13776 0.60151
 N1451 N 0.49699 1.11611 0.59433
 C1452 C 0.48336 1.10923 0.57708
 N1453 N 0.46828 1.12448 0.56732
 N1454 N 0.46701 1.14613 0.57449
 C1455 C 0.48161 1.17687 0.59753
 C1456 C 0.48376 1.19692 0.60215
 C1457 C 0.48648 1.08700 0.56774
 C1458 C 0.48922 1.06885 0.55882
 C1459 C -0.01954 0.65253 1.09086
 N1460 N -0.00494 0.63709 1.10102
 N1461 N -0.00372 0.61541 1.09390
 C1462 C -0.01708 0.60864 1.07641
 N1463 N -0.03181 0.62403 1.06636
 N1464 N -0.03301 0.64571 1.07347
 C1465 C -0.01851 0.67634 1.09668
 C1466 C -0.01618 0.69639 1.10126
 C1467 C -0.01395 0.58638 1.06714
 C1468 C -0.01120 0.56821 1.05827
 C1469 C 0.51519 0.66883 -0.08711
 N1470 N 0.50077 0.65211 -0.09509
 N1471 N 0.50354 0.63003 -0.08862
 C1472 C 0.52088 0.62406 -0.07408
 N1473 N 0.53542 0.64077 -0.06625
 N1474 N 0.53265 0.66285 -0.07272
 C1475 C 0.51066 0.69271 -0.09211
 C1476 C 0.50641 0.71283 -0.09576
 C1477 C 0.52145 0.60125 -0.06443
 C1478 C 0.52072 0.58269 -0.05504
 C1479 C 0.01800 1.16724 0.41285
 N1480 N 0.03472 1.16133 0.42805
 N1481 N 0.03731 1.13925 0.43458
 C1482 C 0.02334 1.12247 0.42601
 N1483 N 0.00676 1.12836 0.41066
 N1484 N 0.00416 1.15044 0.40413
 C1485 C 0.01339 1.19110 0.40784
 C1486 C 0.00890 1.21116 0.40417
 C1487 C 0.02351 1.09967 0.43569
 C1488 C 0.02242 1.08114 0.44512
 C1489 C 0.75601 0.69793 0.91769
 N1490 N 0.77399 0.70107 0.90370
 N1491 N 0.77053 0.71120 0.88384
 C1492 C 0.74902 0.71855 0.87734
 N1493 N 0.73106 0.71550 0.89137
 N1494 N 0.73452 0.70538 0.91123
 C1495 C 0.75912 0.68501 0.93820
 C1496 C 0.76064 0.67342 0.95508
 C1497 C 0.74488 0.72680 0.85494
 C1498 C 0.74189 0.73209 0.83562
 C1499 C 0.25509 0.19772 0.41773
 N1500 N 0.27312 0.20143 0.40390
 N1501 N 0.26958 0.21161 0.38407
 C1502 C 0.24794 0.21845 0.37744
 N1503 N 0.22993 0.21482 0.39130
 N1504 N 0.23347 0.20466 0.41114
 C1505 C 0.25835 0.18480 0.43821
 C1506 C 0.26001 0.17319 0.45508
 C1507 C 0.24380 0.22674 0.35505
 C1508 C 0.24085 0.23206 0.33574
 C1509 C 0.75510 0.30135 0.42247
 N1510 N 0.73685 0.29071 0.41221
 N1511 N 0.73968 0.28026 0.39295
 C1512 C 0.76086 0.28002 0.38341
 N1513 N 0.77913 0.29056 0.39373
 N1514 N 0.77630 0.30100 0.41300
 C1515 C 0.75182 0.31431 0.44224
 C1516 C 0.74990 0.32592 0.45851
 C1517 C 0.76304 0.27171 0.36128
 C1518 C 0.76367 0.26641 0.34207
 C1519 C 0.25537 0.80336 0.92173
 N1520 N 0.27650 0.80328 0.91210
 N1521 N 0.27927 0.79298 0.89276
 C1522 C 0.26103 0.78230 0.88251
 N1523 N 0.23993 0.78228 0.89221
 N1524 N 0.23715 0.79259 0.91155
 C1525 C 0.25213 0.81613 0.94161
 C1526 C 0.25022 0.82758 0.95799
 C1527 C 0.26314 0.77406 0.86035
 C1528 C 0.26371 0.76877 0.84114
 C1529 C 0.24797 0.81299 0.07775
 N1530 N 0.26725 0.80302 0.08703
 N1531 N 0.26625 0.79212 0.10672
 C1532 C 0.24589 0.79061 0.11766
 N1533 N 0.22659 0.80054 0.10835
 N1534 N 0.22758 0.81144 0.08866
 C1535 C 0.24909 0.82479 0.05652
 C1536 C 0.25004 0.83412 0.03843
 C1537 C 0.24536 0.78103 0.13988
 C1538 C 0.24533 0.77478 0.15911
 C1539 C 0.74772 0.31239 0.57832
 N1540 N 0.72736 0.31104 0.58928
 N1541 N 0.72635 0.30025 0.60902
 C1542 C 0.74560 0.29024 0.61833
 N1543 N 0.76595 0.29155 0.60733
 N1544 N 0.76696 0.30234 0.58760
 C1545 C 0.74885 0.32404 0.55701
 C1546 C 0.74981 0.33323 0.53886
 C1547 C 0.74507 0.28075 0.64058
 C1548 C 0.74503 0.27455 0.65983
 C1549 C 0.27261 0.18617 0.57626
 N1550 N 0.28552 0.17517 0.59232
 N1551 N 0.28901 0.18487 0.61201
 C1552 C 0.27991 0.20598 0.61624
 N1553 N 0.26706 0.21701 0.60015
 N1554 N 0.26356 0.20731 0.58046
 C1555 C 0.26826 0.17549 0.55517
 C1556 C 0.26458 0.16698 0.53727
 C1557 C 0.28134 0.21511 0.63828
 C1558 C 0.28092 0.22154 0.65722
 C1559 C 0.77356 0.68620 0.07626
 N1560 N 0.78644 0.67507 0.09226
 N1561 N 0.79009 0.68472 0.11196
 C1562 C 0.78118 0.70591 0.11624
 N1563 N 0.76836 0.71705 0.10021
 N1564 N 0.76470 0.70741 0.08052
 C1565 C 0.76904 0.67557 0.05517
 C1566 C 0.76522 0.66711 0.03727
 C1567 C 0.78276 0.71500 0.13830
 C1568 C 0.78244 0.72140 0.15724
 C1569 C 0.15977 0.58838 0.25076
 N1570 N 0.14911 0.60671 0.24041
 N1571 N 0.16013 0.62709 0.23815
 C1572 C 0.18223 0.62981 0.24607
 N1573 N 0.19290 0.61147 0.25640
 N1574 N 0.18188 0.59109 0.25866
 C1575 C 0.14760 0.56650 0.25349
 C1576 C 0.13685 0.54842 0.25543
 C1577 C 0.19368 0.65221 0.24481
 C1578 C 0.20319 0.67105 0.24481
 C1579 C 0.65983 0.08811 0.75146
 N1580 N 0.64922 0.10636 0.74095
 N1581 N 0.66019 0.12677 0.73872
 C1582 C 0.68220 0.12959 0.74684
 N1583 N 0.69283 0.11132 0.75734
 N1584 N 0.68185 0.09091 0.75957
 C1585 C 0.64769 0.06621 0.75417
 C1586 C 0.63696 0.04812 0.75609
 C1587 C 0.69359 0.15201 0.74561
 C1588 C 0.70307 0.17087 0.74561
 C1589 C 0.84429 0.08152 0.25412
 N1590 N 0.82076 0.08295 0.25472
 N1591 N 0.81050 0.10354 0.25654
 C1592 C 0.82342 0.12332 0.25795
 N1593 N 0.84695 0.12186 0.25738
 N1594 N 0.85720 0.10130 0.25556
 C1595 C 0.85558 0.05938 0.25220
 C1596 C 0.86596 0.04127 0.25095
 C1597 C 0.81228 0.14564 0.25872
 C1598 C 0.80262 0.16425 0.25839
 C1599 C 0.34465 0.58389 0.75287
 N1600 N 0.32247 0.58540 0.75998
 N1601 N 0.31247 0.60610 0.76192
 C1602 C 0.32438 0.62595 0.75697
 N1603 N 0.34654 0.62441 0.74987
 N1604 N 0.35654 0.60373 0.74794
 C1605 C 0.35575 0.56165 0.75108
 C1606 C 0.36600 0.54345 0.74992
 C1607 C 0.31319 0.64824 0.75787
 C1608 C 0.30345 0.66680 0.75760
 C1609 C 0.35326 0.41396 0.74348
 N1610 N 0.36220 0.39586 0.75558
 N1611 N 0.35307 0.37458 0.75378
 C1612 C 0.33476 0.37065 0.73974
 N1613 N 0.32585 0.38875 0.72762
 N1614 N 0.33498 0.41004 0.72942
 C1615 C 0.36274 0.43710 0.74584
 C1616 C 0.37058 0.45655 0.74777
 C1617 C 0.32384 0.34801 0.73899
 C1618 C 0.31402 0.32933 0.73924
 C1619 C 0.85536 0.91355 0.24397
 N1620 N 0.86461 0.89524 0.25555
 N1621 N 0.85541 0.87400 0.25362
 C1622 C 0.83674 0.87032 0.23997
 N1623 N 0.82752 0.88862 0.22836
 N1624 N 0.83671 0.90987 0.23029
 C1625 C 0.86487 0.93665 0.24654
 C1626 C 0.87272 0.95607 0.24871
 C1627 C 0.82576 0.84770 0.23914
 C1628 C 0.81589 0.82904 0.23936
 C1629 C 0.65167 0.91888 0.75805
 N1630 N 0.67332 0.91490 0.76662
 N1631 N 0.68262 0.89375 0.76603
 C1632 C 0.67056 0.87587 0.75688
 N1633 N 0.64889 0.87984 0.74832
 N1634 N 0.63959 0.90098 0.74892
 C1635 C 0.64181 0.94185 0.75826
 C1636 C 0.63362 0.96115 0.75832
 C1637 C 0.68099 0.85324 0.75541
 C1638 C 0.68998 0.83444 0.75363
 C1639 C 0.15148 0.41914 0.25769
 N1640 N 0.17315 0.41516 0.26623
 N1641 N 0.18241 0.39399 0.26570
 C1642 C 0.17030 0.37608 0.25665
 N1643 N 0.14861 0.38006 0.24813
 N1644 N 0.13935 0.40123 0.24866
 C1645 C 0.14167 0.44213 0.25784
 C1646 C 0.13350 0.46145 0.25784
 C1647 C 0.18069 0.35343 0.25525
 C1648 C 0.18965 0.33462 0.25352
 C1649 C 0.07772 0.24271 0.79799
 N1650 N 0.08706 0.26295 0.79034
 N1651 N 0.10823 0.26333 0.78180
 C1652 C 0.12067 0.24349 0.78083
 N1653 N 0.11124 0.22320 0.78825
 N1654 N 0.09007 0.22283 0.79678
 C1655 C 0.05740 0.24312 0.81103
 C1656 C 0.04169 0.24401 0.82373
 C1657 C 0.14435 0.24435 0.77442
 C1658 C 0.16452 0.24500 0.76975
 C1659 C 0.57967 0.74352 0.29867
 N1660 N 0.58918 0.76371 0.29109
 N1661 N 0.61028 0.76391 0.28242
 C1662 C 0.62248 0.74394 0.28123
 N1663 N 0.61287 0.72371 0.28858
 N1664 N 0.59177 0.72351 0.29725
 C1665 C 0.55940 0.74405 0.31178
 C1666 C 0.54372 0.74498 0.32450
 C1667 C 0.64612 0.74459 0.27469
 C1668 C 0.66627 0.74509 0.26993
 C1669 C 0.57046 0.24863 0.18653
 N1670 N 0.58079 0.26930 0.19100
 N1671 N 0.60281 0.27007 0.19820
 C1672 C 0.61512 0.25019 0.20085
 N1673 N 0.60476 0.22952 0.19652
 N1674 N 0.58275 0.22875 0.18932
 C1675 C 0.54837 0.24814 0.17557
 C1676 C 0.53081 0.24815 0.16456
 C1677 C 0.63891 0.25099 0.20770
 C1678 C 0.65885 0.25119 0.21381
 C1679 C 0.07014 0.74723 0.68625
 N1680 N 0.07974 0.76794 0.69179
 N1681 N 0.10177 0.76911 0.69891
 C1682 C 0.11482 0.74962 0.70042
 N1683 N 0.10519 0.72889 0.69503
 N1684 N 0.08316 0.72773 0.68790
 C1685 C 0.04803 0.74657 0.67533
 C1686 C 0.03047 0.74656 0.66433
 C1687 C 0.13860 0.75091 0.70722
 C1688 C 0.15855 0.75153 0.71328
 C1689 C 0.90284 0.73033 0.65858
 N1690 N 0.89606 0.71702 0.67610
 N1691 N 0.87438 0.71832 0.68328
 C1692 C 0.85896 0.73298 0.67317
 N1693 N 0.86570 0.74618 0.65556
 N1694 N 0.88737 0.74487 0.64837
 C1695 C 0.92665 0.73122 0.65264
 C1696 C 0.94670 0.73344 0.64793
 C1697 C 0.83669 0.73617 0.68246
 C1698 C 0.81850 0.73897 0.69134
 C1699 C 0.40319 0.23179 0.15927
 N1700 N 0.39653 0.21833 0.17673
 N1701 N 0.37486 0.21944 0.18395
 C1702 C 0.35932 0.23405 0.17395
 N1703 N 0.36594 0.24739 0.15640
 N1704 N 0.38761 0.24628 0.14916
 C1705 C 0.42697 0.23280 0.15323
 C1706 C 0.44700 0.23505 0.14844
 C1707 C 0.33702 0.23699 0.18325
 C1708 C 0.31877 0.23959 0.19209
 C1709 C 0.41782 0.76639 0.33701
 N1710 N 0.40121 0.75170 0.34479
 N1711 N 0.37910 0.75430 0.33829
 C1712 C 0.37298 0.77173 0.32393
 N1713 N 0.38957 0.78654 0.31630
 N1714 N 0.41169 0.78394 0.32280
 C1715 C 0.44176 0.76204 0.34198
 C1716 C 0.46194 0.75793 0.34558
 C1717 C 0.35019 0.77213 0.31420
 C1718 C 0.33166 0.77129 0.30471
 C1719 C 0.91774 0.26532 0.83760
 N1720 N 0.90093 0.25102 0.84562
 N1721 N 0.87885 0.25385 0.83911
 C1722 C 0.87297 0.27114 0.82450
 N1723 N 0.88977 0.28557 0.81664
 N1724 N 0.91185 0.28274 0.82315
 C1725 C 0.94162 0.26067 0.84260
 C1726 C 0.96174 0.25631 0.84624
 C1727 C 0.85017 0.27173 0.81477
 C1728 C 0.83163 0.27099 0.80530
 C1729 C 0.55113 0.99216 0.68471
 N1730 N 0.55340 0.97256 0.67285
 N1731 N 0.54307 0.97079 0.65295
 C1732 C 0.53016 0.98854 0.64426
 N1733 N 0.52781 1.00809 0.65617
 N1734 N 0.53813 1.00987 0.67607
 C1735 C 0.56449 0.99526 0.70488
 C1736 C 0.57663 0.99890 0.72103
 C1737 C 0.52132 0.98760 0.62181
 C1738 C 0.51528 0.98687 0.60254
 C1739 C 0.05104 0.49217 1.18410
 N1740 N 0.05327 0.47249 1.17235
 N1741 N 0.04290 0.47058 1.15249
 C1742 C 0.02997 0.48829 1.14373
 N1743 N 0.02765 0.50792 1.15552
 N1744 N 0.03802 0.50983 1.17538
 C1745 C 0.06443 0.49539 1.20423
 C1746 C 0.07657 0.49910 1.22037
 C1747 C 0.02108 0.48720 1.12130
 C1748 C 0.01500 0.48638 1.10204
 C1749 C -0.05440 -0.01451 1.17399
 N1750 N -0.03538 -0.00156 1.16880
 N1751 N -0.02543 -0.00364 1.14918
 C1752 C -0.03412 -0.01879 1.13414
 N1753 N -0.05306 -0.03184 1.13938
 N1754 N -0.06302 -0.02976 1.15901
 C1755 C -0.06663 -0.01044 1.19408
 C1756 C -0.07752 -0.00631 1.21041
 C1757 C -0.02552 -0.01856 1.11193
 C1758 C -0.01957 -0.01691 1.09289
 C1759 C 0.44577 0.48705 0.67355
 N1760 N 0.46478 0.49996 0.66827
 N1761 N 0.47480 0.49764 0.64870
 C1762 C 0.46618 0.48227 0.63383
 N1763 N 0.44724 0.46927 0.63917
 N1764 N 0.43722 0.47158 0.65873
 C1765 C 0.43349 0.49134 0.69356
 C1766 C 0.42255 0.49561 0.70983
 C1767 C 0.47481 0.48226 0.61164
 C1768 C 0.48079 0.48372 0.59260
 C1769 C 0.45773 0.49677 -0.17961
 N1770 N 0.46700 0.51717 -0.17262
 N1771 N 0.47861 0.51820 -0.15330
 C1772 C 0.48137 0.49881 -0.14038
 N1773 N 0.47226 0.47837 -0.14745
 N1774 N 0.46062 0.47735 -0.16676
 C1775 C 0.44242 0.49654 -0.19874
 C1776 C 0.42850 0.49774 -0.21397
 C1777 C 0.49056 0.50046 -0.11813
 C1778 C 0.49630 0.50119 -0.09880
 C1779 C -0.04149 0.99506 0.32089
 N1780 N -0.03215 1.01544 0.32786
 N1781 N -0.02054 1.01646 0.34718
 C1782 C -0.01785 0.99709 0.36014
 N1783 N -0.02704 0.97667 0.35309
 N1784 N -0.03867 0.97566 0.33378
 C1785 C -0.05683 0.99486 0.30177
 C1786 C -0.07078 0.99605 0.28658
 C1787 C -0.00867 0.99874 0.38240
 C1788 C -0.00295 0.99952 0.40173
 C1789 C 0.05762 0.49013 0.33468
 N1790 N 0.06706 0.47672 0.35126
 N1791 N 0.05647 0.47435 0.37066
 C1792 C 0.03602 0.48522 0.37410
 N1793 N 0.02652 0.49854 0.35748
 N1794 N 0.03711 0.50091 0.33808
 C1795 C 0.07019 0.49452 0.31455
 C1796 C 0.08121 0.49893 0.29810
 C1797 C 0.02635 0.48537 0.39597
 C1798 C 0.01941 0.48721 0.41464
 C1799 C 0.55811 -0.01016 -0.16445
 N1800 N 0.56775 -0.02334 -0.14781
 N1801 N 0.55728 -0.02562 -0.12834
 C1802 C 0.53676 -0.01488 -0.12489
 N1803 N 0.52707 -0.00179 -0.14158
 N1804 N 0.53754 0.00049 -0.16104
 C1805 C 0.57056 -0.00583 -0.18466
 C1806 C 0.58148 -0.00145 -0.20118
 C1807 C 0.52720 -0.01462 -0.10298
 C1808 C 0.52031 -0.01270 -0.08430
 C1809 C 0.68234 0.58467 -0.00485
 N1810 N 0.67632 0.57514 -0.02458
 N1811 N 0.65666 0.56287 -0.02683
 C1812 C 0.64232 0.55980 -0.00941
 N1813 N 0.64838 0.56927 0.01033
 N1814 N 0.66803 0.58155 0.01257
 C1815 C 0.70258 0.59950 -0.00309
 C1816 C 0.71902 0.61274 -0.00298
 C1817 C 0.62052 0.54749 -0.01185
 C1818 C 0.60183 0.53772 -0.01261
 C1819 C 0.18278 1.08351 0.49525
 N1820 N 0.17622 1.07479 0.47531
 N1821 N 0.15669 1.06228 0.47317
 C1822 C 0.14304 1.05814 0.49092
 N1823 N 0.14964 1.06680 0.51087
 N1824 N 0.16915 1.07932 0.51300
 C1825 C 0.20283 1.09859 0.49697
 C1826 C 0.21910 1.11203 0.49706
 C1827 C 0.12128 1.04573 0.48861
 C1828 C 0.10260 1.03594 0.48791
 C1829 C 0.16934 -0.09084 1.00941
 N1830 N 0.14999 -0.10173 1.01710
 N1831 N 0.13008 -0.09018 1.01878
 C1832 C 0.12883 -0.06734 1.01282
 N1833 N 0.14819 -0.05644 1.00518
 N1834 N 0.16811 -0.06799 1.00350
 C1835 C 0.19039 -0.10378 1.00608
 C1836 C 0.20760 -0.11502 1.00255
 C1837 C 0.10688 -0.05527 1.01304
 C1838 C 0.08841 -0.04526 1.01224
 C1839 C 0.66923 0.40821 0.50937
 N1840 N 0.64978 0.39743 0.51697
 N1841 N 0.62994 0.40912 0.51863
 C1842 C 0.62888 0.43199 0.51276
 N1843 N 0.64834 0.44278 0.50520
 N1844 N 0.66818 0.43109 0.50354
 C1845 C 0.69020 0.39514 0.50608
 C1846 C 0.70736 0.38380 0.50261
 C1847 C 0.60702 0.44421 0.51295
 C1848 C 0.58862 0.45436 0.51212
 C1849 C -0.17356 0.41501 0.49992
 N1850 N -0.17158 0.43287 0.48500
 N1851 N -0.15155 0.44454 0.48308
 C1852 C -0.13274 0.43854 0.49586
 N1853 N -0.13473 0.42071 0.51080
 N1854 N -0.15476 0.40906 0.51271
 C1855 C -0.19448 0.40106 0.50054
 C1856 C -0.21138 0.38844 0.49972
 C1857 C -0.11108 0.45118 0.49408
 C1858 C -0.09280 0.46172 0.49371
 C1859 C 0.32698 -0.08409 0.00043
 N1860 N 0.32901 -0.06596 -0.01419
 N1861 N 0.34912 -0.05439 -0.01598
 C1862 C 0.36793 -0.06075 -0.00338
 N1863 N 0.36588 -0.07885 0.01125
 N1864 N 0.34579 -0.09041 0.01304
 C1865 C 0.30597 -0.09792 0.00087
 C1866 C 0.28900 -0.11044 -0.00012
 C1867 C 0.38967 -0.04822 -0.00503
 C1868 C 0.40800 -0.03775 -0.00533
 C1869 C 0.33290 1.08214 0.51152
 N1870 N 0.35180 1.08963 0.52326
 N1871 N 0.37005 1.07575 0.52681
 C1872 C 0.36996 1.05388 0.51882
 N1873 N 0.35102 1.04636 0.50714
 N1874 N 0.33277 1.06024 0.50359
 C1875 C 0.31389 1.09768 0.50640
 C1876 C 0.29827 1.11097 0.50170
 C1877 C 0.39065 1.03989 0.52045
 C1878 C 0.40845 1.02883 0.52035
 C1879 C -0.16731 0.58171 1.01136
 N1880 N -0.14848 0.58899 1.02333
 N1881 N -0.13028 0.57503 1.02680
 C1882 C -0.13034 0.55329 1.01849
 N1883 N -0.14921 0.54599 1.00659
 N1884 N -0.16741 0.55995 1.00312
 C1885 C -0.18624 0.59737 1.00630
 C1886 C -0.20177 0.61079 1.00165
 C1887 C -0.10969 0.53925 1.02005
 C1888 C -0.09190 0.52816 1.01991
 C1889 C -0.00399 0.69095 0.56191
 N1890 N 0.01614 0.68097 0.55589
 N1891 N 0.01571 0.66148 0.54440
 C1892 C -0.00486 0.65141 0.53867
 N1893 N -0.02500 0.66157 0.54440
 N1894 N -0.02457 0.68106 0.55589
 C1895 C -0.00347 0.70859 0.57809
 C1896 C -0.00295 0.72183 0.59316
 C1897 C -0.00527 0.62848 0.53027
 C1898 C -0.00565 0.60862 0.52467
 C1899 C 0.49630 0.19147 0.06262
 N1900 N 0.51647 0.18163 0.05655
 N1901 N 0.51613 0.16213 0.04507
 C1902 C 0.49561 0.15194 0.03938
 N1903 N 0.47542 0.16197 0.04516
 N1904 N 0.47577 0.18146 0.05665
 C1905 C 0.49676 0.20918 0.07874
 C1906 C 0.49725 0.22252 0.09373
 C1907 C 0.49531 0.12902 0.03096
 C1908 C 0.49503 0.10915 0.02535
 C1909 C 0.00092 0.17485 0.91925
 N1910 N 0.01964 0.16850 0.93193
 N1911 N 0.01865 0.14966 0.94508
 C1912 C -0.00111 0.13671 0.94593
 N1913 N -0.01987 0.14315 0.93336
 N1914 N -0.01888 0.16199 0.92022
 C1915 C 0.00283 0.19352 0.90346
 C1916 C 0.00490 0.20865 0.88964
 C1917 C -0.00122 0.11499 0.95776
 C1918 C -0.00102 0.09609 0.96656
 C1919 C 0.50191 0.67502 0.41891
 N1920 N 0.52044 0.66883 0.43192
 N1921 N 0.51941 0.64992 0.44496
 C1922 C 0.49979 0.63672 0.44538
 N1923 N 0.48121 0.64299 0.43247
 N1924 N 0.48225 0.66190 0.41943
 C1925 C 0.50391 0.69383 0.40329
 C1926 C 0.50610 0.70911 0.38964
 C1927 C 0.49967 0.61498 0.45717
 C1928 C 0.49985 0.59608 0.46597
 C1929 C 0.51445 0.82374 0.41414
 N1930 N 0.53004 0.84135 0.41169
 N1931 N 0.52823 0.86049 0.42353
 C1932 C 0.51077 0.86253 0.43809
 N1933 N 0.49522 0.84490 0.44059
 N1934 N 0.49703 0.82576 0.42875
 C1935 C 0.51553 0.80390 0.40050
 C1936 C 0.51599 0.78753 0.38855
 C1937 C 0.50828 0.88337 0.45011
 C1938 C 0.50600 0.90100 0.46008
 C1939 C 0.01274 0.32320 0.91319
 N1940 N 0.02851 0.34064 0.91073
 N1941 N 0.02699 0.35975 0.92266
 C1942 C 0.00964 0.36192 0.93732
 N1943 N -0.00609 0.34446 0.93982
 N1944 N -0.00458 0.32535 0.92790
 C1945 C 0.01357 0.30336 0.89952
 C1946 C 0.01391 0.28699 0.88756
 C1947 C 0.00746 0.38275 0.94944
 C1948 C 0.00538 0.40035 0.95949
 C1949 C 0.47974 0.33287 0.08879
 N1950 N 0.48434 0.33190 0.06690
 N1951 N 0.48702 0.35138 0.05491
 C1952 C 0.48528 0.37231 0.06457
 N1953 N 0.48051 0.37329 0.08642
 N1954 N 0.47784 0.35382 0.09840
 C1955 C 0.48029 0.31222 0.10214
 C1956 C 0.48252 0.29491 0.11331
 C1957 C 0.49007 0.39310 0.05228
 C1958 C 0.49441 0.41081 0.04237
 C1959 C -0.02097 0.83225 0.58983
 N1960 N -0.01762 0.83143 0.56770
 N1961 N -0.01491 0.85096 0.55582
 C1962 C -0.01534 0.87181 0.56580
 N1963 N -0.01887 0.87265 0.58790
 N1964 N -0.02157 0.85311 0.59978
 C1965 C -0.02035 0.81142 0.60292
 C1966 C -0.01804 0.79393 0.61382
 C1967 C -0.01045 0.89258 0.55353
 C1968 C -0.00597 0.91022 0.54356
 C1969 C 0.24246 0.30136 0.06558
 N1970 N 0.22273 0.30339 0.07732
 N1971 N 0.22094 0.29307 0.09722
 C1972 C 0.23882 0.28042 0.10604
 N1973 N 0.25852 0.27831 0.09426
 N1974 N 0.26030 0.28862 0.07436
 C1975 C 0.24553 0.31469 0.04539
 C1976 C 0.24912 0.32679 0.02920
 C1977 C 0.23781 0.27158 0.12849
 C1978 C 0.23700 0.26554 0.14776
 C1979 C 0.74204 0.80115 0.56549
 N1980 N 0.75974 0.78814 0.57416
 N1981 N 0.75789 0.77779 0.59404
 C1982 C 0.73828 0.78012 0.60590
 N1983 N 0.72053 0.79304 0.59718
 N1984 N 0.72238 0.80340 0.57731
 C1985 C 0.74521 0.81453 0.54535
 C1986 C 0.74890 0.82667 0.52921
 C1987 C 0.73726 0.77125 0.62834
 C1988 C 0.73648 0.76519 0.64760
 C1989 C 0.23702 0.69656 0.57604
 N1990 N 0.22146 0.68818 0.59087
 N1991 N 0.21925 0.69820 0.61043
 C1992 C 0.23247 0.71698 0.61577
 N1993 N 0.24794 0.72544 0.60089
 N1994 N 0.25015 0.71541 0.58132
 C1995 C 0.24118 0.68425 0.55602
 C1996 C 0.24534 0.67329 0.53975
 C1997 C 0.23253 0.72563 0.63796
 C1998 C 0.23402 0.73162 0.65699
 C1999 C 0.73622 0.19539 0.07661
 N2000 N 0.72078 0.18700 0.09154
 N2001 N 0.71881 0.19695 0.11117
 C2002 C 0.73216 0.21565 0.11647
 N2003 N 0.74750 0.22412 0.10148
 N2004 N 0.74947 0.21417 0.08185
 C2005 C 0.74018 0.18313 0.05652
 C2006 C 0.74425 0.17219 0.04020
 C2007 C 0.73245 0.22421 0.13869
 C2008 C 0.73409 0.23012 0.15775
 C2009 C 0.74547 0.20772 0.92957
 N2010 N 0.76586 0.21711 0.92262
 N2011 N 0.76688 0.22868 0.90328
 C2012 C 0.74751 0.23126 0.89027
 N2013 N 0.72709 0.22201 0.89730
 N2014 N 0.72607 0.21042 0.91663
 C2015 C 0.74527 0.19246 0.94874
 C2016 C 0.74649 0.17859 0.96400
 C2017 C 0.74917 0.24046 0.86802
 C2018 C 0.74995 0.24622 0.84869
 C2019 C 0.24587 0.70793 0.42888
 N2020 N 0.26619 0.71745 0.42189
 N2021 N 0.26710 0.72899 0.40253
 C2022 C 0.24770 0.73141 0.38954
 N2023 N 0.22735 0.72203 0.39661
 N2024 N 0.22643 0.71047 0.41596
 C2025 C 0.24579 0.69274 0.44810
 C2026 C 0.24709 0.67894 0.46341
 C2027 C 0.24927 0.74060 0.36728
 C2028 C 0.25000 0.74637 0.34796
 C2029 C 0.74022 0.80780 0.41486
 N2030 N 0.72695 0.81727 0.39818
 N2031 N 0.72476 0.80672 0.37876
 C2032 C 0.73566 0.78629 0.37538
 N2033 N 0.74884 0.77677 0.39211
 N2034 N 0.75104 0.78732 0.41153
 C2035 C 0.74446 0.82034 0.43501
 C2036 C 0.74878 0.83135 0.45148
 C2037 C 0.73601 0.77666 0.35352
 C2038 C 0.73800 0.76975 0.33486
 C2039 C 0.23950 0.30781 0.91486
 N2040 N 0.22612 0.31735 0.89829
 N2041 N 0.22369 0.30681 0.87888
 C2042 C 0.23446 0.28633 0.87541
 N2043 N 0.24775 0.27675 0.89202
 N2044 N 0.25018 0.28728 0.91143
 C2045 C 0.24399 0.32033 0.93498
 C2046 C 0.24849 0.33132 0.95142
 C2047 C 0.23459 0.27673 0.85353
 C2048 C 0.23644 0.26984 0.83484
 C2049 C 0.83363 0.43234 0.75501
 N2050 N 0.82984 0.41843 0.73741
 N2051 N 0.81752 0.39882 0.73966
 C2052 C 0.80865 0.39241 0.75959
 N2053 N 0.81240 0.40633 0.77719
 N2054 N 0.82472 0.42596 0.77493
 C2055 C 0.84851 0.45253 0.75319
 C2056 C 0.86180 0.46892 0.75302
 C2057 C 0.79635 0.37061 0.76201
 C2058 C 0.78661 0.35192 0.76274
 C2059 C 0.33378 0.93256 0.25495
 N2060 N 0.33022 0.91866 0.23730
 N2061 N 0.31788 0.89904 0.23941
 C2062 C 0.30878 0.89260 0.25922
 N2063 N 0.31230 0.90652 0.27686
 N2064 N 0.32463 0.92615 0.27476
 C2065 C 0.34866 0.95277 0.25330
 C2066 C 0.36193 0.96918 0.25325
 C2067 C 0.29646 0.87080 0.26150
 C2068 C 0.28670 0.85211 0.26214
 C2069 C 0.15835 0.91972 0.74062
 N2070 N 0.18131 0.91867 0.74627
 N2071 N 0.19298 0.89885 0.74453
 C2072 C 0.18211 0.87941 0.73707
 N2073 N 0.15917 0.88047 0.73137
 N2074 N 0.14749 0.90029 0.73311
 C2075 C 0.14530 0.94066 0.74400
 C2076 C 0.13399 0.95781 0.74756
 C2077 C 0.19432 0.85757 0.73681
 C2078 C 0.20446 0.83919 0.73760
 C2079 C 0.66052 0.41889 0.24154
 N2080 N 0.68334 0.41753 0.24761
 N2081 N 0.69485 0.39761 0.24587
 C2082 C 0.68393 0.37838 0.23800
 N2083 N 0.66112 0.37976 0.23188
 N2084 N 0.64961 0.39968 0.23362
 C2085 C 0.64762 0.43994 0.24490
 C2086 C 0.63641 0.45717 0.24842
 C2087 C 0.69592 0.35641 0.23773
 C2088 C 0.70586 0.33792 0.23850
 C2089 C 0.66698 0.57654 0.25009
 N2090 N 0.66067 0.59532 0.23746
 N2091 N 0.67221 0.61540 0.23927
 C2092 C 0.69030 0.61747 0.25393
 N2093 N 0.69666 0.59868 0.26655
 N2094 N 0.68510 0.57859 0.26474
 C2095 C 0.65316 0.55554 0.24964
 C2096 C 0.64065 0.53858 0.25062
 C2097 C 0.70282 0.63919 0.25560
 C2098 C 0.71326 0.65751 0.25590
 C2099 C 0.16511 0.07685 0.74987
 N2100 N 0.15904 0.09558 0.73707
 N2101 N 0.17065 0.11563 0.73890
 C2102 C 0.18855 0.11770 0.75376
 N2103 N 0.19467 0.09896 0.76655
 N2104 N 0.18305 0.07890 0.76472
 C2105 C 0.15120 0.05591 0.74937
 C2106 C 0.13861 0.03901 0.75032
 C2107 C 0.20112 0.13938 0.75547
 C2108 C 0.21160 0.15768 0.75580
 C2109 C 0.33155 0.08305 0.23877
 N2110 N 0.30965 0.08299 0.24677
 N2111 N 0.29580 0.10126 0.24328
 C2112 C 0.30334 0.12016 0.23158
 N2113 N 0.32522 0.12019 0.22352
 N2114 N 0.33907 0.10192 0.22701
 C2115 C 0.34708 0.06403 0.24386
 C2116 C 0.36038 0.04841 0.24855
 C2117 C 0.28938 0.14086 0.22998
 C2118 C 0.27833 0.15866 0.23007
 C2119 C 0.83146 0.58274 0.73834
 N2120 N 0.80960 0.58270 0.74643
 N2121 N 0.79575 0.60097 0.74296
 C2122 C 0.80325 0.61985 0.73120
 N2123 N 0.82508 0.61985 0.72304
 N2124 N 0.83894 0.60158 0.72651
 C2125 C 0.84701 0.56372 0.74341
 C2126 C 0.86033 0.54812 0.74809
 C2127 C 0.78930 0.64056 0.72963
 C2128 C 0.77828 0.65838 0.72977
 C2129 C 0.94230 0.74628 0.18749
 N2130 N 0.93252 0.72576 0.19383
 N2131 N 0.91312 0.72541 0.20550
 C2132 C 0.90296 0.74557 0.21111
 N2133 N 0.91293 0.76608 0.20507
 N2134 N 0.93233 0.76643 0.19340
 C2135 C 0.95975 0.74666 0.17110
 C2136 C 0.97281 0.74705 0.15587
 C2137 C 0.88005 0.74520 0.21962
 C2138 C 0.86017 0.74483 0.22525
 C2139 C 0.44085 0.24673 0.68790
 N2140 N 0.43103 0.22620 0.69413
 N2141 N 0.41154 0.22582 0.70565
 C2142 C 0.40132 0.24596 0.71122
 N2143 N 0.41133 0.26649 0.70528
 N2144 N 0.43082 0.26687 0.69376
 C2145 C 0.45849 0.24715 0.67168
 C2146 C 0.47172 0.24758 0.65659
 C2147 C 0.37837 0.24556 0.71963
 C2148 C 0.35847 0.24517 0.72521
 C2149 C 0.42500 0.75250 0.83136
 N2150 N 0.41224 0.73265 0.83021
 N2151 N 0.39339 0.73169 0.81706
 C2152 C 0.38681 0.75054 0.80468
 N2153 N 0.39966 0.77034 0.80574
 N2154 N 0.41851 0.77130 0.81888
 C2155 C 0.44373 0.75431 0.84711
 C2156 C 0.45892 0.75629 0.86090
 C2157 C 0.36511 0.75040 0.79280
 C2158 C 0.34623 0.75054 0.78394
 C2159 C 0.92501 0.24873 0.33258
 N2160 N 0.91123 0.22952 0.33281
 N2161 N 0.89233 0.22853 0.31973
 C2162 C 0.88672 0.24671 0.30605
 N2163 N 0.90058 0.26586 0.30573
 N2164 N 0.91948 0.26685 0.31880
 C2165 C 0.94386 0.25077 0.34816
 C2166 C 0.95922 0.25305 0.36174
 C2167 C 0.86504 0.24677 0.29413
 C2168 C 0.84619 0.24716 0.28520
 C2169 C 0.07149 0.26405 0.33412
 N2170 N 0.08832 0.28059 0.33563
 N2171 N 0.10766 0.27889 0.32403
 C2172 C 0.11069 0.26058 0.31066
 N2173 N 0.09383 0.24407 0.30910
 N2174 N 0.07449 0.24577 0.32070
 C2175 C 0.05157 0.26500 0.34772
 C2176 C 0.03524 0.26535 0.35976
 C2177 C 0.13180 0.25821 0.29898
 C2178 C 0.14963 0.25598 0.28929
 C2179 C 0.57351 0.76321 0.83690
 N2180 N 0.59066 0.77940 0.83868
 N2181 N 0.60973 0.77782 0.82667
 C2182 C 0.61215 0.75999 0.81260
 N2183 N 0.59498 0.74384 0.81078
 N2184 N 0.57592 0.74542 0.82279
 C2185 C 0.55373 0.76417 0.85067
 C2186 C 0.53740 0.76463 0.86271
 C2187 C 0.63295 0.75777 0.80040
 C2188 C 0.65054 0.75568 0.79030
 C2189 C 0.58220 0.22990 0.66052
 N2190 N 0.58126 0.23361 0.68259
 N2191 N 0.60077 0.23625 0.69455
 C2192 C 0.62171 0.23537 0.68471
 N2193 N 0.62265 0.23150 0.66268
 N2194 N 0.60314 0.22887 0.65072
 C2195 C 0.56143 0.23046 0.64731
 C2196 C 0.54399 0.23266 0.63630
 C2197 C 0.64248 0.24010 0.69706
 C2198 C 0.66016 0.24442 0.70705
 C2199 C 0.08281 0.72942 0.15924
 N2200 N 0.08175 0.73288 0.18134
 N2201 N 0.10118 0.73569 0.19339
 C2202 C 0.12216 0.73526 0.18360
 N2203 N 0.12324 0.73163 0.16153
 N2204 N 0.10381 0.72883 0.14949
 C2205 C 0.06208 0.72982 0.14599
 C2206 C 0.04463 0.73192 0.13496
 C2207 C 0.14283 0.74013 0.19605
 C2208 C 0.16044 0.74452 0.20612
   
