data_POSCAR
  _audit_creation_date              2014-09-24
  _audit_creation_method            'ToBaCCo'
  _symmetry_space_group_name_H-M    'P1'
  _symmetry_Int_Tables_number       1
  _symmetry_cell_setting            triclinic
  loop_
  _symmetry_equiv_pos_as_xyz
 x,y,z
_cell_length_a 74.0440
_cell_length_b 74.1537
_cell_length_c 74.3090
_cell_angle_alpha 89.958000
_cell_angle_beta 89.929100
_cell_angle_gamma 90.001300
loop_
  _atom_site_label
  _atom_site_type_symbol
  _atom_site_fract_x
  _atom_site_fract_y
  _atom_site_fract_z
N1 N 0.18205 0.22551 0.22893
 N2 N 0.18698 0.21116 0.23812
 C3 C 0.17543 0.20874 0.25194
 C4 C 0.16271 0.22229 0.25127
 C5 C 0.16721 0.23271 0.23658
 H6 H 0.17612 0.19794 0.26171
 H7 H 0.16019 0.24456 0.23179
 Cu8 Cu 0.20792 0.19701 0.23098
 Cu9 Cu 0.19510 0.23369 0.20767
 Cu10 Cu 0.23248 0.20863 0.19471
 N11 N 0.22891 0.18307 0.22359
 N12 N 0.23846 0.18770 0.20938
 C13 C 0.25208 0.17586 0.20720
 C14 C 0.25091 0.16323 0.22075
 C15 C 0.23614 0.16809 0.23094
 H16 H 0.26203 0.17635 0.19654
 H17 H 0.23105 0.16120 0.24273
 N18 N 0.22427 0.23025 0.18161
 N19 N 0.21003 0.23979 0.18655
 C20 C 0.20785 0.25358 0.17492
 C21 C 0.22133 0.25257 0.16219
 C22 C 0.23151 0.23771 0.16672
 H23 H 0.19724 0.26357 0.17559
 H24 H 0.24324 0.23271 0.15963
 H25 H 0.20514 0.20871 0.20043
 H26 H 0.21986 0.22309 0.21489
 N27 N 0.68146 0.72485 0.72838
 N28 N 0.68619 0.71031 0.73738
 C29 C 0.67461 0.70789 0.75119
 C30 C 0.66209 0.72163 0.75070
 C31 C 0.66674 0.73216 0.73613
 H32 H 0.67518 0.69699 0.76084
 H33 H 0.65989 0.74419 0.73150
 Cu34 Cu 0.70693 0.69595 0.73009
 Cu35 Cu 0.69465 0.73314 0.70726
 Cu36 Cu 0.73206 0.70814 0.69437
 N37 N 0.72816 0.68226 0.72292
 N38 N 0.73794 0.68711 0.70893
 C39 C 0.75169 0.67540 0.70687
 C40 C 0.75038 0.66263 0.72029
 C41 C 0.73539 0.66728 0.73026
 H42 H 0.76182 0.67607 0.69640
 H43 H 0.73016 0.66025 0.74190
 N44 N 0.72396 0.72984 0.68136
 N45 N 0.70970 0.73937 0.68627
 C46 C 0.70759 0.75322 0.67471
 C47 C 0.72114 0.75227 0.66204
 C48 C 0.73129 0.73738 0.66655
 H49 H 0.69697 0.76321 0.67536
 H50 H 0.74305 0.73241 0.65949
 H51 H 0.70467 0.70825 0.69971
 H52 H 0.71925 0.72226 0.71468
 N53 N 0.31744 0.77467 0.72918
 N54 N 0.31220 0.78876 0.73859
 C55 C 0.32374 0.79122 0.75239
 C56 C 0.33675 0.77797 0.75147
 C57 C 0.33245 0.76769 0.73666
 H58 H 0.32284 0.80187 0.76229
 H59 H 0.33973 0.75608 0.73166
 Cu60 Cu 0.29096 0.80261 0.73179
 Cu61 Cu 0.30455 0.76656 0.70786
 Cu62 Cu 0.26712 0.79144 0.69492
 N63 N 0.27019 0.81669 0.72407
 N64 N 0.26092 0.81224 0.70963
 C65 C 0.24742 0.82418 0.70726
 C66 C 0.24839 0.83668 0.72094
 C67 C 0.26291 0.83165 0.73138
 H68 H 0.23771 0.82385 0.69640
 H69 H 0.26781 0.83842 0.74330
 N70 N 0.27551 0.76995 0.68175
 N71 N 0.28978 0.76047 0.68668
 C72 C 0.29207 0.74673 0.67504
 C73 C 0.27862 0.74770 0.66230
 C74 C 0.26835 0.76249 0.66685
 H75 H 0.30271 0.73676 0.67573
 H76 H 0.25658 0.76742 0.65978
 H77 H 0.29436 0.79162 0.70106
 H78 H 0.27958 0.77673 0.71501
 N79 N 0.81893 0.27490 0.22831
 N80 N 0.81412 0.28940 0.23732
 C81 C 0.82567 0.29188 0.25111
 C82 C 0.83826 0.27821 0.25057
 C83 C 0.83370 0.26766 0.23602
 H84 H 0.82504 0.30280 0.26074
 H85 H 0.84063 0.25569 0.23136
 Cu86 Cu 0.79331 0.30366 0.23004
 Cu87 Cu 0.80582 0.26657 0.20720
 Cu88 Cu 0.76833 0.29146 0.19432
 N89 N 0.77207 0.31732 0.22287
 N90 N 0.76236 0.31246 0.20887
 C91 C 0.74860 0.32415 0.20679
 C92 C 0.74982 0.33691 0.22020
 C93 C 0.76479 0.33227 0.23018
 H94 H 0.73850 0.32347 0.19630
 H95 H 0.76997 0.33932 0.24182
 N96 N 0.77653 0.26980 0.18132
 N97 N 0.79081 0.26032 0.18622
 C98 C 0.79298 0.24647 0.17467
 C99 C 0.77944 0.24739 0.16202
 C100 C 0.76924 0.26224 0.16653
 H101 H 0.80362 0.23651 0.17533
 H102 H 0.75746 0.26717 0.15949
 H103 H 0.79573 0.29144 0.19966
 H104 H 0.78116 0.27733 0.21461
 N105 N 0.81823 0.72522 0.27114
 N106 N 0.81343 0.71074 0.26211
 C107 C 0.82499 0.70831 0.24830
 C108 C 0.83758 0.72198 0.24882
 C109 C 0.83299 0.73249 0.26341
 H110 H 0.82438 0.69743 0.23864
 H111 H 0.83990 0.74445 0.26807
 Cu112 Cu 0.79263 0.69645 0.26941
 Cu113 Cu 0.80510 0.73350 0.29230
 Cu114 Cu 0.76763 0.70857 0.30522
 N115 N 0.77138 0.68277 0.27661
 N116 N 0.76167 0.68759 0.29064
 C117 C 0.74792 0.67589 0.29273
 C118 C 0.74916 0.66315 0.27930
 C119 C 0.76413 0.66781 0.26929
 H120 H 0.73783 0.67653 0.30325
 H121 H 0.76932 0.66079 0.25763
 N122 N 0.77582 0.73021 0.31824
 N123 N 0.79009 0.73971 0.31332
 C124 C 0.79226 0.75353 0.32489
 C125 C 0.77873 0.75259 0.33758
 C126 C 0.76853 0.73774 0.33307
 H127 H 0.80291 0.76348 0.32424
 H128 H 0.75676 0.73279 0.34014
 H129 H 0.79502 0.70861 0.29981
 H130 H 0.78044 0.72273 0.28492
 N131 N 0.31884 0.22489 -0.22874
 N132 N 0.31405 0.21040 -0.23777
 C133 C 0.32568 0.20791 -0.25153
 C134 C 0.33828 0.22157 -0.25095
 C135 C 0.33366 0.23212 -0.23641
 H136 H 0.32509 0.19700 -0.26116
 H137 H 0.34058 0.24408 -0.23172
 Cu138 Cu 0.29319 0.19616 -0.23054
 Cu139 Cu 0.30563 0.23322 -0.20765
 Cu140 Cu 0.26807 0.20836 -0.19485
 N141 N 0.27191 0.18252 -0.22342
 N142 N 0.26214 0.18737 -0.20943
 C143 C 0.24837 0.17568 -0.20738
 C144 C 0.24965 0.16293 -0.22079
 C145 C 0.26466 0.16756 -0.23075
 H146 H 0.23824 0.17635 -0.19690
 H147 H 0.26989 0.16052 -0.24238
 N148 N 0.27623 0.23000 -0.18182
 N149 N 0.29054 0.23948 -0.18670
 C150 C 0.29269 0.25330 -0.17512
 C151 C 0.27911 0.25238 -0.16249
 C152 C 0.26891 0.23754 -0.16702
 H153 H 0.30336 0.26324 -0.17574
 H154 H 0.25711 0.23261 -0.15999
 H155 H 0.29548 0.20836 -0.20015
 H156 H 0.28099 0.22248 -0.21511
 N157 N 0.68157 0.27387 -0.22923
 N158 N 0.68656 0.28823 -0.23839
 C159 C 0.67504 0.29073 -0.25220
 C160 C 0.66230 0.27721 -0.25154
 C161 C 0.66672 0.26673 -0.23688
 H162 H 0.67580 0.30155 -0.26195
 H163 H 0.65966 0.25488 -0.23210
 Cu164 Cu 0.70754 0.30229 -0.23123
 Cu165 Cu 0.69457 0.26558 -0.20801
 Cu166 Cu 0.73203 0.29046 -0.19504
 N167 N 0.72857 0.31614 -0.22383
 N168 N 0.73810 0.31142 -0.20965
 C169 C 0.75174 0.32322 -0.20743
 C170 C 0.75063 0.33591 -0.22093
 C171 C 0.73585 0.33113 -0.23112
 H172 H 0.76167 0.32266 -0.19678
 H173 H 0.73080 0.33809 -0.24287
 N174 N 0.72374 0.26883 -0.18200
 N175 N 0.70947 0.25936 -0.18694
 C176 C 0.70722 0.24555 -0.17535
 C177 C 0.72070 0.24647 -0.16264
 C178 C 0.73094 0.26130 -0.16714
 H179 H 0.69657 0.23560 -0.17602
 H180 H 0.74270 0.26623 -0.16007
 H181 H 0.70470 0.29050 -0.20071
 H182 H 0.71938 0.27611 -0.21525
 N183 N 0.18198 0.77494 0.27126
 N184 N 0.18679 0.78949 0.26233
 C185 C 0.17531 0.79199 0.24849
 C186 C 0.16275 0.77828 0.24889
 C187 C 0.16729 0.76768 0.26343
 H188 H 0.17594 0.80294 0.23889
 H189 H 0.16038 0.75566 0.26800
 Cu190 Cu 0.20752 0.80379 0.26975
 Cu191 Cu 0.19500 0.76655 0.29242
 Cu192 Cu 0.23235 0.79148 0.30558
 N193 N 0.22871 0.81745 0.27708
 N194 N 0.23836 0.81255 0.29112
 C195 C 0.25210 0.82424 0.29330
 C196 C 0.25090 0.83704 0.27991
 C197 C 0.23599 0.83245 0.26982
 H198 H 0.26214 0.82352 0.30384
 H199 H 0.23086 0.83952 0.25817
 N200 N 0.22412 0.76974 0.31847
 N201 N 0.20990 0.76024 0.31346
 C202 C 0.20769 0.74635 0.32496
 C203 C 0.22115 0.74725 0.33770
 C204 C 0.23133 0.76214 0.33330
 H205 H 0.19707 0.73637 0.32421
 H206 H 0.24305 0.76708 0.34043
 H207 H 0.20498 0.79141 0.30008
 H208 H 0.21967 0.77742 0.28516
 N209 N 0.47623 0.43261 0.48015
 N210 N 0.46217 0.43790 0.48960
 C211 C 0.45967 0.42640 0.50343
 C212 C 0.47287 0.41334 0.50249
 C213 C 0.48317 0.41759 0.48763
 H214 H 0.44903 0.42735 0.51337
 H215 H 0.49476 0.41026 0.48261
 Cu216 Cu 0.44837 0.45918 0.48282
 Cu217 Cu 0.48438 0.44544 0.45877
 Cu218 Cu 0.45960 0.48292 0.44583
 N219 N 0.43435 0.47996 0.47508
 N220 N 0.43881 0.48919 0.46061
 C221 C 0.42688 0.50269 0.45825
 C222 C 0.41437 0.50180 0.47196
 C223 C 0.41940 0.48729 0.48241
 H224 H 0.42721 0.51237 0.44736
 H225 H 0.41261 0.48243 0.49436
 N226 N 0.48106 0.47446 0.43262
 N227 N 0.49051 0.46017 0.43755
 C228 C 0.50423 0.45780 0.42585
 C229 C 0.50327 0.47122 0.41307
 C230 C 0.48852 0.48155 0.41765
 H231 H 0.51414 0.44712 0.42650
 H232 H 0.48359 0.49329 0.41056
 H233 H 0.47431 0.47043 0.46591
 H234 H 0.45931 0.45572 0.45205
 N235 N -0.02396 -0.06763 0.97898
 N236 N -0.03804 -0.06243 0.98847
 C237 C -0.04045 -0.07398 1.00228
 C238 C -0.02718 -0.08696 1.00129
 C239 C -0.01693 -0.08263 0.98641
 H240 H -0.05106 -0.07310 1.01225
 H241 H -0.00530 -0.08987 0.98137
 Cu242 Cu -0.05193 -0.04119 0.98177
 Cu243 Cu -0.01590 -0.05469 0.95763
 Cu244 Cu -0.04086 -0.01727 0.94486
 N245 N -0.06605 -0.02043 0.97413
 N246 N -0.06165 -0.01113 0.95969
 C247 C -0.07362 0.00235 0.95741
 C248 C -0.08610 0.00136 0.97114
 C249 C -0.08101 -0.01318 0.98153
 H250 H -0.07333 0.01208 0.94657
 H251 H -0.08775 -0.01810 0.99348
 N252 N -0.01938 -0.02560 0.93159
 N253 N -0.00987 -0.03986 0.93645
 C254 C 0.00385 -0.04212 0.92473
 C255 C 0.00283 -0.02865 0.91201
 C256 C -0.01197 -0.01841 0.91664
 H257 H 0.01382 -0.05275 0.92534
 H258 H -0.01694 -0.00665 0.90961
 H259 H -0.02607 -0.02976 0.96487
 H260 H -0.04102 -0.04449 0.95098
 N261 N 1.02461 0.56827 0.97875
 N262 N 1.03911 0.56344 0.98777
 C263 C 1.04162 0.57502 1.00151
 C264 C 1.02798 0.58765 1.00097
 C265 C 1.01741 0.58307 0.98643
 H266 H 1.05254 0.57440 1.01114
 H267 H 1.00546 0.59002 0.98175
 Cu268 Cu 1.05333 0.54261 0.98052
 Cu269 Cu 1.01624 0.55516 0.95765
 Cu270 Cu 1.04106 0.51763 0.94482
 N271 N 1.06695 0.52134 0.97337
 N272 N 1.06207 0.51163 0.95938
 C273 C 1.07375 0.49787 0.95730
 C274 C 1.08654 0.49910 0.97070
 C275 C 1.08193 0.51407 0.98067
 H276 H 1.07306 0.48779 0.94681
 H277 H 1.08901 0.51926 0.99229
 N278 N 1.01939 0.52586 0.93181
 N279 N 1.00994 0.54016 0.93670
 C280 C 0.99611 0.54237 0.92513
 C281 C 0.99699 0.52884 0.91249
 C282 C 1.01182 0.51860 0.91701
 H283 H 0.98618 0.55304 0.92576
 H284 H 1.01673 0.50682 0.90997
 H285 H 1.02694 0.53051 0.96509
 H286 H 1.04112 0.54499 0.95013
 N287 N 0.52493 0.06870 0.47896
 N288 N 0.53947 0.06391 0.48794
 C289 C 0.54197 0.07548 0.50169
 C290 C 0.52829 0.08807 0.50118
 C291 C 0.51770 0.08346 0.48667
 H292 H 0.55291 0.07489 0.51130
 H293 H 0.50571 0.09037 0.48203
 Cu294 Cu 0.55373 0.04311 0.48068
 Cu295 Cu 0.51654 0.05555 0.45790
 Cu296 Cu 0.54140 0.01806 0.44504
 N297 N 0.56735 0.02184 0.47352
 N298 N 0.56245 0.01210 0.45956
 C299 C 0.57413 -0.00166 0.45749
 C300 C 0.58694 -0.00041 0.47086
 C301 C 0.58234 0.01458 0.48082
 H302 H 0.57342 -0.01176 0.44702
 H303 H 0.58943 0.01978 0.49242
 N304 N 0.51969 0.02624 0.43207
 N305 N 0.51022 0.04053 0.43697
 C306 C 0.49634 0.04268 0.42545
 C307 C 0.49721 0.02913 0.41282
 C308 C 0.51209 0.01894 0.41730
 H309 H 0.48638 0.05332 0.42611
 H310 H 0.51700 0.00715 0.41027
 H311 H 0.52732 0.03094 0.46535
 H312 H 0.54142 0.04542 0.45032
 N313 N -0.02422 0.06805 0.52041
 N314 N -0.03826 0.06276 0.51096
 C315 C -0.04080 0.07434 0.49720
 C316 C -0.02764 0.08744 0.49819
 C317 C -0.01734 0.08314 0.51300
 H318 H -0.05143 0.07341 0.48727
 H319 H -0.00578 0.09048 0.51804
 Cu320 Cu -0.05197 0.04139 0.51764
 Cu321 Cu -0.01601 0.05511 0.54168
 Cu322 Cu -0.04065 0.01747 0.55445
 N323 N -0.06591 0.02050 0.52530
 N324 N -0.06142 0.01121 0.53970
 C325 C -0.07330 -0.00235 0.54201
 C326 C -0.08581 -0.00142 0.52834
 C327 C -0.08084 0.01317 0.51796
 H328 H -0.07292 -0.01209 0.55284
 H329 H -0.08765 0.01807 0.50606
 N330 N -0.01920 0.02592 0.56765
 N331 N -0.00981 0.04027 0.56278
 C332 C 0.00391 0.04261 0.57445
 C333 C 0.00302 0.02910 0.58714
 C334 C -0.01170 0.01875 0.58254
 H335 H 0.01380 0.05333 0.57383
 H336 H -0.01657 0.00694 0.58957
 H337 H -0.02598 0.03013 0.53441
 H338 H -0.04104 0.04470 0.54840
 N339 N 0.47522 0.56841 0.02127
 N340 N 0.46078 0.56355 0.01218
 C341 C 0.45831 0.57512 -0.00160
 C342 C 0.47192 0.58778 -0.00100
 C343 C 0.48242 0.58322 0.01361
 H344 H 0.44745 0.57448 -0.01129
 H345 H 0.49433 0.59020 0.01833
 Cu346 Cu 0.44656 0.54268 0.01938
 Cu347 Cu 0.48350 0.55531 0.04242
 Cu348 Cu 0.45870 0.51772 0.05517
 N349 N 0.43296 0.52138 0.02648
 N350 N 0.43779 0.51167 0.04050
 C351 C 0.42613 0.49788 0.04253
 C352 C 0.41341 0.49908 0.02906
 C353 C 0.41804 0.51407 0.01910
 H354 H 0.42679 0.48780 0.05303
 H355 H 0.41101 0.51925 0.00744
 N356 N 0.48028 0.52600 0.06828
 N357 N 0.48973 0.54032 0.06343
 C358 C 0.50350 0.54256 0.07506
 C359 C 0.50258 0.52902 0.08772
 C360 C 0.48779 0.51875 0.08313
 H361 H 0.51341 0.55325 0.07447
 H362 H 0.48287 0.50696 0.09016
 H363 H 0.47290 0.53064 0.03495
 H364 H 0.45861 0.54508 0.04983
 N365 N 0.52368 -0.06786 0.02104
 N366 N 0.53774 -0.06255 0.01157
 C367 C 0.54015 -0.07397 -0.00233
 C368 C 0.52689 -0.08698 -0.00142
 C369 C 0.51666 -0.08280 0.01350
 H370 H 0.55075 -0.07299 -0.01230
 H371 H 0.50506 -0.09011 0.01851
 Cu372 Cu 0.55161 -0.04136 0.01841
 Cu373 Cu 0.51562 -0.05512 0.04249
 Cu374 Cu 0.54056 -0.01779 0.05552
 N375 N 0.56572 -0.02065 0.02619
 N376 N 0.56132 -0.01149 0.04071
 C377 C 0.57327 0.00199 0.04308
 C378 C 0.58573 0.00115 0.02932
 C379 C 0.58065 -0.01330 0.01884
 H380 H 0.57297 0.01162 0.05400
 H381 H 0.58738 -0.01809 0.00683
 N382 N 0.51911 -0.02627 0.06876
 N383 N 0.50960 -0.04050 0.06379
 C384 C 0.49589 -0.04287 0.07551
 C385 C 0.49691 -0.02951 0.08832
 C386 C 0.51169 -0.01921 0.08375
 H387 H 0.48592 -0.05350 0.07482
 H388 H 0.51665 -0.00750 0.09086
 H389 H 0.52575 -0.03012 0.03543
 H390 H 0.54074 -0.04495 0.04919
 N391 N 1.02405 0.43224 0.52050
 N392 N 1.03814 0.43751 0.51106
 C393 C 1.04057 0.42607 0.49719
 C394 C 1.02730 0.41307 0.49808
 C395 C 1.01703 0.41730 0.51296
 H396 H 1.05120 0.42702 0.48723
 H397 H 1.00539 0.41002 0.51795
 Cu398 Cu 1.05203 0.45870 0.51790
 Cu399 Cu 1.01594 0.44503 0.54190
 Cu400 Cu 1.04088 0.48235 0.55493
 N401 N 1.06614 0.47940 0.52570
 N402 N 1.06171 0.48859 0.54019
 C403 C 1.07368 0.50204 0.54258
 C404 C 1.08619 0.50115 0.52888
 C405 C 1.08112 0.48670 0.51839
 H406 H 1.07337 0.51169 0.55349
 H407 H 1.08789 0.48187 0.50642
 N408 N 1.01937 0.47394 0.56811
 N409 N 1.00987 0.45971 0.56314
 C410 C 0.99611 0.45739 0.57481
 C411 C 0.99710 0.47077 0.58760
 C412 C 1.01191 0.48104 0.58306
 H413 H 0.98612 0.44677 0.57411
 H414 H 1.01686 0.49276 0.59016
 H415 H 1.02613 0.47000 0.53482
 H416 H 1.04106 0.45518 0.54866
 C417 C 0.37322 -0.00040 0.25089
 C418 C 0.12670 -0.00023 0.74941
 C419 C 0.62639 0.49977 0.24992
 C420 C 0.87338 0.49949 0.75021
 C421 C 0.25003 0.37621 -0.00034
 C422 C 0.74974 0.12339 0.00019
 C423 C 0.25003 0.62375 0.50023
 C424 C 0.75015 0.87634 0.49988
 C425 C -0.00054 0.25041 0.37458
 C426 C 0.00037 0.75016 0.12483
 C427 C 0.50013 0.25007 0.62560
 C428 C 0.49969 0.75032 0.87498
 C429 C 0.14770 0.22487 0.26325
 C430 C 0.13507 0.22702 0.27327
 C431 C 0.11993 0.22957 0.28517
 C432 C 0.11456 0.24699 0.29003
 C433 C 0.09976 0.24949 0.30146
 C434 C 0.09011 0.23456 0.30817
 C435 C 0.09566 0.21710 0.30323
 C436 C 0.11048 0.21464 0.29181
 C437 C 0.07426 0.23721 0.32015
 C438 C 0.05867 0.22655 0.31807
 C439 C 0.04369 0.22916 0.32923
 C440 C 0.04407 0.24242 0.34261
 C441 C 0.05952 0.25305 0.34483
 C442 C 0.07452 0.25048 0.33368
 C443 C 0.02855 0.24521 0.35393
 C444 C 0.01546 0.24755 0.36332
 H445 H 0.12175 0.25865 0.28492
 H446 H 0.09568 0.26310 0.30482
 H447 H 0.08867 0.20534 0.30835
 H448 H 0.11455 0.20109 0.28816
 H449 H 0.05796 0.21640 0.30763
 H450 H 0.03177 0.22090 0.32735
 H451 H 0.05997 0.26333 0.35517
 H452 H 0.08640 0.25874 0.33576
 C453 C 0.64716 0.72432 0.76275
 C454 C 0.63458 0.72659 0.77281
 C455 C 0.61952 0.72932 0.78475
 C456 C 0.60802 0.74409 0.78227
 C457 C 0.59332 0.74672 0.79378
 C458 C 0.58991 0.73458 0.80796
 C459 C 0.60157 0.71978 0.81035
 C460 C 0.61628 0.71719 0.79882
 C461 C 0.57420 0.73730 0.82011
 C462 C 0.56367 0.72254 0.82575
 C463 C 0.54876 0.72514 0.83702
 C464 C 0.54420 0.74250 0.84281
 C465 C 0.55463 0.75726 0.83735
 C466 C 0.56953 0.75470 0.82607
 C467 C 0.52870 0.74520 0.85419
 C468 C 0.51564 0.74750 0.86363
 H469 H 0.61038 0.75353 0.77138
 H470 H 0.58445 0.75809 0.79143
 H471 H 0.59943 0.71034 0.82127
 H472 H 0.62512 0.70574 0.80089
 H473 H 0.56678 0.70901 0.82121
 H474 H 0.54074 0.71363 0.84112
 H475 H 0.55123 0.77076 0.84179
 H476 H 0.57751 0.76630 0.82216
 C477 C 0.35185 0.77554 0.76333
 C478 C 0.36457 0.77349 0.77324
 C479 C 0.37981 0.77103 0.78499
 C480 C 0.37812 0.76053 0.80056
 C481 C 0.39296 0.75805 0.81191
 C482 C 0.40971 0.76603 0.80781
 C483 C 0.41126 0.77659 0.79214
 C484 C 0.39640 0.77906 0.78082
 C485 C 0.42553 0.76328 0.81978
 C486 C 0.44283 0.76037 0.81245
 C487 C 0.45771 0.75776 0.82371
 C488 C 0.45553 0.75802 0.84241
 C489 C 0.43840 0.76091 0.84984
 C490 C 0.42349 0.76352 0.83861
 C491 C 0.47089 0.75533 0.85394
 C492 C 0.48385 0.75307 0.86350
 H493 H 0.36535 0.75421 0.80388
 H494 H 0.39140 0.74966 0.82374
 H495 H 0.42390 0.78310 0.78875
 H496 H 0.39785 0.78725 0.76882
 H497 H 0.44480 0.75987 0.79802
 H498 H 0.47091 0.75548 0.81782
 H499 H 0.43658 0.76119 0.86431
 H500 H 0.41040 0.76595 0.84465
 C501 C -0.14755 0.27580 0.26190
 C502 C -0.13491 0.27367 0.27189
 C503 C -0.11977 0.27114 0.28375
 C504 C -0.12170 0.26091 0.29947
 C505 C -0.10695 0.25837 0.31093
 C506 C -0.09005 0.26603 0.30679
 C507 C -0.08828 0.27633 0.29097
 C508 C -0.10304 0.27886 0.27954
 C509 C -0.07433 0.26325 0.31888
 C510 C -0.05705 0.25998 0.31168
 C511 C -0.04225 0.25737 0.32305
 C512 C -0.04451 0.25800 0.34173
 C513 C -0.06163 0.26123 0.34903
 C514 C -0.07646 0.26383 0.33769
 C515 C -0.02923 0.25534 0.35338
 C516 C -0.01633 0.25312 0.36302
 H517 H -0.13457 0.25483 0.30282
 H518 H -0.10869 0.25020 0.32288
 H519 H -0.07552 0.28260 0.28754
 H520 H -0.10141 0.28685 0.26743
 H521 H -0.05502 0.25921 0.29727
 H522 H -0.02906 0.25482 0.31726
 H523 H -0.06351 0.26179 0.36349
 H524 H -0.08954 0.26654 0.34363
 C525 C -0.14743 0.72461 0.23682
 C526 C -0.13480 0.72686 0.22681
 C527 C -0.11966 0.72957 0.21496
 C528 C -0.11498 0.71632 0.20239
 C529 C -0.10016 0.71890 0.19099
 C530 C -0.08982 0.73478 0.19202
 C531 C -0.09468 0.74805 0.20467
 C532 C -0.10950 0.74544 0.21605
 C533 C -0.07397 0.73748 0.18004
 C534 C -0.05800 0.74526 0.18672
 C535 C -0.04307 0.74777 0.17545
 C536 C -0.04390 0.74256 0.15738
 C537 C -0.05972 0.73481 0.15060
 C538 C -0.07466 0.73227 0.16184
 C539 C -0.02850 0.74516 0.14584
 C540 C -0.01551 0.74739 0.13629
 H541 H -0.12272 0.70396 0.20147
 H542 H -0.09663 0.70834 0.18155
 H543 H -0.08714 0.76052 0.20563
 H544 H -0.11304 0.75581 0.22570
 H545 H -0.05695 0.74918 0.20071
 H546 H -0.03087 0.75373 0.18085
 H547 H -0.06052 0.73076 0.13661
 H548 H -0.08684 0.72645 0.15625
 C549 C 0.35254 0.22397 0.73777
 C550 C 0.36524 0.22610 0.72781
 C551 C 0.38045 0.22864 0.71601
 C552 C 0.37853 0.23861 0.70013
 C553 C 0.39334 0.24118 0.68872
 C554 C 0.41030 0.23380 0.69307
 C555 C 0.41207 0.22376 0.70905
 C556 C 0.39724 0.22120 0.72043
 C557 C 0.42609 0.23663 0.68105
 C558 C 0.44327 0.24023 0.68830
 C559 C 0.45813 0.24292 0.67699
 C560 C 0.45604 0.24204 0.65830
 C561 C 0.43903 0.23847 0.65094
 C562 C 0.42414 0.23579 0.66223
 C563 C 0.47137 0.24483 0.64671
 C564 C 0.48431 0.24718 0.63711
 H565 H 0.36560 0.24448 0.69661
 H566 H 0.39160 0.24916 0.67665
 H567 H 0.42488 0.21770 0.71265
 H568 H 0.39886 0.21341 0.73266
 H569 H 0.44517 0.24120 0.70271
 H570 H 0.47123 0.24573 0.68283
 H571 H 0.43728 0.23772 0.63649
 H572 H 0.41115 0.23283 0.65624
 C573 C 0.64810 0.27483 0.73713
 C574 C 0.63548 0.27273 0.72711
 C575 C 0.62037 0.27022 0.71521
 C576 C 0.61375 0.25287 0.71187
 C577 C 0.59897 0.25043 0.70043
 C578 C 0.59061 0.26534 0.69219
 C579 C 0.59741 0.28272 0.69560
 C580 C 0.61219 0.28513 0.70704
 C581 C 0.57479 0.26277 0.68018
 C582 C 0.56004 0.27472 0.68093
 C583 C 0.54508 0.27220 0.66975
 C584 C 0.54465 0.25774 0.65768
 C585 C 0.55927 0.24581 0.65679
 C586 C 0.57424 0.24829 0.66796
 C587 C 0.52915 0.25506 0.64633
 C588 C 0.51609 0.25281 0.63691
 H589 H 0.61994 0.24124 0.71818
 H590 H 0.59391 0.23691 0.69826
 H591 H 0.59142 0.29444 0.68928
 H592 H 0.61725 0.29862 0.70950
 H593 H 0.55995 0.28585 0.69035
 H594 H 0.53381 0.28148 0.67059
 H595 H 0.55908 0.23458 0.64746
 H596 H 0.58547 0.23900 0.66691
 C597 C 0.14785 0.77570 0.23681
 C598 C 0.13530 0.77353 0.22673
 C599 C 0.12025 0.77094 0.21476
 C600 C 0.11416 0.75351 0.21086
 C601 C 0.09944 0.75099 0.19938
 C602 C 0.09059 0.76589 0.19165
 C603 C 0.09685 0.78336 0.19561
 C604 C 0.11159 0.78585 0.20709
 C605 C 0.07481 0.76323 0.17961
 C606 C 0.05970 0.77467 0.18080
 C607 C 0.04478 0.77206 0.16959
 C608 C 0.04476 0.75800 0.15704
 C609 C 0.05974 0.74658 0.15570
 C610 C 0.07468 0.74916 0.16691
 C611 C 0.02931 0.75524 0.14565
 C612 C 0.01629 0.75293 0.13620
 H613 H 0.12074 0.74188 0.21678
 H614 H 0.09480 0.73739 0.19678
 H615 H 0.09048 0.79508 0.18969
 H616 H 0.11622 0.79940 0.20999
 H617 H 0.05929 0.78546 0.19060
 H618 H 0.03322 0.78094 0.17078
 H619 H 0.05988 0.73568 0.14600
 H620 H 0.08619 0.74027 0.16551
 C621 C 0.26257 0.14801 0.22358
 C622 C 0.27231 0.13521 0.22595
 C623 C 0.28388 0.11988 0.22879
 C624 C 0.27726 0.10458 0.23765
 C625 C 0.28846 0.08965 0.24037
 C626 C 0.30646 0.08984 0.23427
 C627 C 0.31300 0.10530 0.22541
 C628 C 0.30176 0.12021 0.22269
 C629 C 0.31835 0.07396 0.23713
 C630 C 0.33654 0.07626 0.24212
 C631 C 0.34769 0.06129 0.24486
 C632 C 0.34084 0.04385 0.24262
 C633 C 0.32279 0.04142 0.23763
 C634 C 0.31161 0.05636 0.23490
 C635 C 0.35229 0.02844 0.24550
 C636 C 0.36179 0.01546 0.24792
 H637 H 0.26345 0.10420 0.24248
 H638 H 0.28311 0.07805 0.24745
 H639 H 0.32671 0.10577 0.22036
 H640 H 0.30701 0.13197 0.21577
 H641 H 0.34207 0.08962 0.24416
 H642 H 0.36164 0.06332 0.24877
 H643 H 0.31736 0.02797 0.23582
 H644 H 0.29775 0.05415 0.23083
 C645 C 0.76211 0.64748 0.72317
 C646 C 0.77192 0.63473 0.72557
 C647 C 0.78358 0.61947 0.72843
 C648 C 0.80088 0.61918 0.72083
 C649 C 0.81218 0.60432 0.72354
 C650 C 0.80630 0.58953 0.73389
 C651 C 0.78888 0.58998 0.74148
 C652 C 0.77761 0.60485 0.73876
 C653 C 0.81825 0.57369 0.73671
 C654 C 0.81117 0.55609 0.73617
 C655 C 0.82241 0.54118 0.73886
 C656 C 0.84085 0.54366 0.74213
 C657 C 0.84803 0.56111 0.74269
 C658 C 0.83682 0.57604 0.73999
 C659 C 0.85236 0.52829 0.74495
 C660 C 0.86191 0.51533 0.74732
 H661 H 0.80561 0.63040 0.71276
 H662 H 0.82542 0.60428 0.71733
 H663 H 0.78405 0.57892 0.74970
 H664 H 0.76426 0.60496 0.74474
 H665 H 0.79699 0.55383 0.73344
 H666 H 0.81673 0.52773 0.73835
 H667 H 0.86228 0.56317 0.74526
 H668 H 0.84262 0.58942 0.74072
 C669 C 0.76232 0.35112 0.77632
 C670 C 0.77210 0.36391 0.77402
 C671 C 0.78374 0.37922 0.77130
 C672 C 0.80076 0.37978 0.77945
 C673 C 0.81204 0.39468 0.77686
 C674 C 0.80642 0.40925 0.76608
 C675 C 0.78928 0.40854 0.75793
 C676 C 0.77803 0.39362 0.76053
 C677 C 0.81835 0.42513 0.76338
 C678 C 0.81113 0.44269 0.76339
 C679 C 0.82236 0.45763 0.76081
 C680 C 0.84092 0.45524 0.75818
 C681 C 0.84824 0.43784 0.75816
 C682 C 0.83704 0.42287 0.76075
 C683 C 0.85241 0.47064 0.75544
 C684 C 0.86194 0.48362 0.75310
 H685 H 0.80528 0.36873 0.78786
 H686 H 0.82504 0.39493 0.78350
 H687 H 0.78467 0.41942 0.74937
 H688 H 0.76490 0.39330 0.75412
 H689 H 0.79685 0.44489 0.76561
 H690 H 0.81656 0.47104 0.76089
 H691 H 0.86258 0.43584 0.75608
 H692 H 0.84296 0.40952 0.76044
 C693 C 0.26202 -0.14861 0.27732
 C694 C 0.27186 -0.13585 0.27505
 C695 C 0.28355 -0.12057 0.27239
 C696 C 0.28391 -0.10664 0.28508
 C697 C 0.29520 -0.09175 0.28248
 C698 C 0.30630 -0.09061 0.26713
 C699 C 0.30588 -0.10471 0.25448
 C700 C 0.29456 -0.11959 0.25710
 C701 C 0.31822 -0.07474 0.26431
 C702 C 0.33584 -0.07693 0.25753
 C703 C 0.34703 -0.06197 0.25487
 C704 C 0.34076 -0.04464 0.25892
 C705 C 0.32326 -0.04231 0.26567
 C706 C 0.31206 -0.05725 0.26836
 C707 C 0.35222 -0.02923 0.25612
 C708 C 0.36175 -0.01625 0.25376
 H709 H 0.27548 -0.10730 0.29699
 H710 H 0.29540 -0.08123 0.29257
 H711 H 0.31409 -0.10412 0.24243
 H712 H 0.29435 -0.13028 0.24717
 H713 H 0.34105 -0.09023 0.25451
 H714 H 0.36057 -0.06392 0.24968
 H715 H 0.31825 -0.02894 0.26879
 H716 H 0.29849 -0.05509 0.27336
 C717 C 0.23740 -0.14886 0.72347
 C718 C 0.22768 -0.13601 0.72570
 C719 C 0.21611 -0.12064 0.72834
 C720 C 0.19969 -0.12258 0.73749
 C721 C 0.18846 -0.10765 0.74007
 C722 C 0.19352 -0.09056 0.73353
 C723 C 0.21005 -0.08876 0.72434
 C724 C 0.22125 -0.10372 0.72176
 C725 C 0.18163 -0.07467 0.73632
 C726 C 0.18904 -0.05779 0.74084
 C727 C 0.17784 -0.04284 0.74347
 C728 C 0.15912 -0.04454 0.74162
 C729 C 0.15161 -0.06125 0.73712
 C730 C 0.16277 -0.07623 0.73450
 C731 C 0.14764 -0.02912 0.74432
 C732 C 0.13812 -0.01612 0.74661
 H733 H 0.19560 -0.13562 0.74267
 H734 H 0.17593 -0.10942 0.74740
 H735 H 0.21421 -0.07585 0.71894
 H736 H 0.23391 -0.10208 0.71461
 H737 H 0.20346 -0.05621 0.74258
 H738 H 0.18379 -0.02997 0.74700
 H739 H 0.13713 -0.06269 0.73560
 H740 H 0.15668 -0.08897 0.73080
 C741 C 0.73807 0.35205 0.22303
 C742 C 0.72824 0.36479 0.22537
 C743 C 0.71655 0.38005 0.22814
 C744 C 0.70015 0.37791 0.23728
 C745 C 0.68880 0.39274 0.23999
 C746 C 0.69374 0.40992 0.23360
 C747 C 0.71026 0.41191 0.22442
 C748 C 0.72157 0.39707 0.22172
 C749 C 0.68174 0.42570 0.23652
 C750 C 0.68903 0.44258 0.24119
 C751 C 0.67774 0.45744 0.24390
 C752 C 0.65903 0.45565 0.24199
 C753 C 0.65163 0.43892 0.23737
 C754 C 0.66290 0.42403 0.23466
 C755 C 0.64747 0.47099 0.24475
 C756 C 0.63788 0.48393 0.24707
 H757 H 0.69616 0.36480 0.24235
 H758 H 0.67629 0.39081 0.24730
 H759 H 0.71432 0.42490 0.21913
 H760 H 0.73421 0.39886 0.21458
 H761 H 0.70345 0.44425 0.24296
 H762 H 0.68360 0.47033 0.24753
 H763 H 0.63717 0.43740 0.23580
 H764 H 0.65689 0.41128 0.23086
 C765 C 0.73745 0.64797 0.27649
 C766 C 0.72766 0.63520 0.27416
 C767 C 0.71604 0.61990 0.27139
 C768 C 0.69851 0.62235 0.26481
 C769 C 0.68723 0.60748 0.26211
 C770 C 0.69335 0.58993 0.26596
 C771 C 0.71100 0.58761 0.27258
 C772 C 0.72225 0.60250 0.27528
 C773 C 0.68141 0.57410 0.26306
 C774 C 0.68836 0.55803 0.25575
 C775 C 0.67714 0.54312 0.25308
 C776 C 0.65883 0.54406 0.25766
 C777 C 0.65176 0.55998 0.26492
 C778 C 0.66297 0.57491 0.26760
 C779 C 0.64734 0.52865 0.25497
 C780 C 0.63781 0.51566 0.25270
 H781 H 0.69358 0.63576 0.26172
 H782 H 0.67380 0.60969 0.25679
 H783 H 0.71603 0.57431 0.27590
 H784 H 0.73578 0.60046 0.28043
 H785 H 0.70244 0.55706 0.25190
 H786 H 0.68273 0.53087 0.24741
 H787 H 0.63762 0.56082 0.26856
 H788 H 0.65726 0.58701 0.27346
 C789 C 0.23794 0.14776 0.77638
 C790 C 0.22814 0.13500 0.77402
 C791 C 0.21650 0.11972 0.77123
 C792 C 0.19947 0.12206 0.76342
 C793 C 0.18818 0.10720 0.76069
 C794 C 0.19379 0.08978 0.76572
 C795 C 0.21094 0.08758 0.77357
 C796 C 0.22220 0.10246 0.77631
 C797 C 0.18184 0.07397 0.76277
 C798 C 0.18903 0.05751 0.75665
 C799 C 0.17779 0.04262 0.75392
 C800 C 0.15924 0.04396 0.75728
 C801 C 0.15195 0.06027 0.76335
 C802 C 0.16316 0.07519 0.76608
 C803 C 0.14773 0.02858 0.75453
 C804 C 0.13818 0.01562 0.75222
 H805 H 0.19495 0.13535 0.75940
 H806 H 0.17516 0.10930 0.75441
 H807 H 0.21555 0.07439 0.77781
 H808 H 0.23534 0.10050 0.78241
 H809 H 0.20331 0.05621 0.75375
 H810 H 0.18357 0.03006 0.74916
 H811 H 0.13761 0.06143 0.76605
 H812 H 0.15726 0.08760 0.77102
 C813 C 0.22406 0.26441 0.14713
 C814 C 0.22636 0.27430 0.13445
 C815 C 0.22910 0.28605 0.11927
 C816 C 0.21995 0.30253 0.11826
 C817 C 0.22254 0.31390 0.10346
 C818 C 0.23432 0.30890 0.08945
 C819 C 0.24348 0.29231 0.09061
 C820 C 0.24087 0.28097 0.10543
 C821 C 0.23702 0.32091 0.07366
 C822 C 0.23822 0.31366 0.05620
 C823 C 0.24079 0.32496 0.04135
 C824 C 0.24220 0.34362 0.04373
 C825 C 0.24101 0.35097 0.06103
 C826 C 0.23843 0.33970 0.07591
 C827 C 0.24491 0.35518 0.02841
 C828 C 0.24721 0.36475 0.01548
 H829 H 0.21076 0.30656 0.12888
 H830 H 0.21513 0.32647 0.10285
 H831 H 0.25282 0.28820 0.08017
 H832 H 0.24806 0.26826 0.10610
 H833 H 0.23694 0.29929 0.05401
 H834 H 0.24164 0.31913 0.02801
 H835 H 0.24214 0.36540 0.06302
 H836 H 0.23778 0.34566 0.08919
 C837 C 0.72395 0.76418 0.64704
 C838 C 0.72629 0.77412 0.63441
 C839 C 0.72908 0.78592 0.61928
 C840 C 0.74085 0.78086 0.60543
 C841 C 0.74349 0.79225 0.59065
 C842 C 0.73439 0.80887 0.58955
 C843 C 0.72262 0.81385 0.60357
 C844 C 0.71999 0.80243 0.61833
 C845 C 0.73710 0.82091 0.57379
 C846 C 0.73854 0.83970 0.57608
 C847 C 0.74114 0.85100 0.56123
 C848 C 0.74231 0.84369 0.54391
 C849 C 0.74087 0.82504 0.54149
 C850 C 0.73829 0.81371 0.55631
 C851 C 0.74503 0.85529 0.52862
 C852 C 0.74733 0.86487 0.51570
 H853 H 0.74800 0.76813 0.60605
 H854 H 0.75282 0.78814 0.58020
 H855 H 0.71524 0.82644 0.60301
 H856 H 0.71080 0.80645 0.62896
 H857 H 0.73791 0.84563 0.58938
 H858 H 0.74229 0.86542 0.56326
 H859 H 0.74171 0.81925 0.52813
 H860 H 0.73699 0.79935 0.55408
 C861 C 0.77598 0.76446 0.35259
 C862 C 0.77367 0.77438 0.36523
 C863 C 0.77092 0.78615 0.38038
 C864 C 0.76104 0.78015 0.39529
 C865 C 0.75844 0.79150 0.41007
 C866 C 0.76570 0.80905 0.41014
 C867 C 0.77557 0.81497 0.39505
 C868 C 0.77817 0.80358 0.38028
 C869 C 0.76302 0.82107 0.42589
 C870 C 0.75930 0.83953 0.42347
 C871 C 0.75673 0.85081 0.43833
 C872 C 0.75787 0.84381 0.45578
 C873 C 0.76160 0.82549 0.45834
 C874 C 0.76416 0.81419 0.44351
 C875 C 0.75518 0.85537 0.47109
 C876 C 0.75291 0.86492 0.48403
 H877 H 0.75533 0.76669 0.39548
 H878 H 0.75057 0.78664 0.42137
 H879 H 0.78152 0.82830 0.39479
 H880 H 0.78589 0.80834 0.36883
 H881 H 0.75811 0.84519 0.41008
 H882 H 0.75379 0.86497 0.43620
 H883 H 0.76257 0.81994 0.47180
 H884 H 0.76725 0.80010 0.44582
 C885 C 0.27633 0.26425 -0.14748
 C886 C 0.27401 0.27416 -0.13484
 C887 C 0.27123 0.28592 -0.11968
 C888 C 0.27665 0.30398 -0.12058
 C889 C 0.27402 0.31538 -0.10583
 C890 C 0.26596 0.30884 -0.08995
 C891 C 0.26054 0.29066 -0.08920
 C892 C 0.26317 0.27930 -0.10398
 C893 C 0.26324 0.32089 -0.07423
 C894 C 0.26639 0.31457 -0.05665
 C895 C 0.26378 0.32589 -0.04184
 C896 C 0.25798 0.34366 -0.04438
 C897 C 0.25482 0.35011 -0.06180
 C898 C 0.25744 0.33881 -0.07664
 C899 C 0.25520 0.35523 -0.02910
 C900 C 0.25287 0.36479 -0.01618
 H901 H 0.28295 0.30924 -0.13266
 H902 H 0.27854 0.32924 -0.10674
 H903 H 0.25408 0.28528 -0.07727
 H904 H 0.25888 0.26535 -0.10316
 H905 H 0.27109 0.30093 -0.05436
 H906 H 0.26630 0.32078 -0.02841
 H907 H 0.25028 0.36383 -0.06392
 H908 H 0.25469 0.34401 -0.08998
 C909 C 0.72339 0.23456 -0.14762
 C910 C 0.72564 0.22462 -0.13499
 C911 C 0.72831 0.21279 -0.11985
 C912 C 0.74575 0.20733 -0.11508
 C913 C 0.74837 0.19597 -0.10029
 C914 C 0.73355 0.18992 -0.09006
 C915 C 0.71606 0.19546 -0.09500
 C916 C 0.71348 0.20682 -0.10980
 C917 C 0.73632 0.17799 -0.07424
 C918 C 0.72629 0.18062 -0.05836
 C919 C 0.72898 0.16947 -0.04343
 C920 C 0.74171 0.15554 -0.04416
 C921 C 0.75173 0.15278 -0.05989
 C922 C 0.74907 0.16393 -0.07484
 C923 C 0.74454 0.14417 -0.02872
 C924 C 0.74690 0.13473 -0.01571
 H925 H 0.75733 0.21193 -0.12274
 H926 H 0.76200 0.19213 -0.09669
 H927 H 0.70437 0.19086 -0.08754
 H928 H 0.69991 0.21093 -0.11341
 H929 H 0.71656 0.19148 -0.05738
 H930 H 0.72120 0.17176 -0.03128
 H931 H 0.76159 0.14201 -0.06061
 H932 H 0.75683 0.16142 -0.08694
 C933 C 0.22384 0.73527 0.35265
 C934 C 0.22609 0.72527 0.36524
 C935 C 0.22876 0.71338 0.38032
 C936 C 0.21390 0.70533 0.38876
 C937 C 0.21646 0.69391 0.40352
 C938 C 0.23395 0.69039 0.41003
 C939 C 0.24881 0.69851 0.40140
 C940 C 0.24621 0.70993 0.38666
 C941 C 0.23669 0.67839 0.42581
 C942 C 0.25110 0.66602 0.42618
 C943 C 0.25373 0.65485 0.44111
 C944 C 0.24201 0.65589 0.45586
 C945 C 0.22762 0.66811 0.45562
 C946 C 0.22495 0.67929 0.44070
 C947 C 0.24483 0.64453 0.47131
 C948 C 0.24718 0.63510 0.48433
 H949 H 0.20034 0.70788 0.38394
 H950 H 0.20478 0.68768 0.40972
 H951 H 0.26241 0.69625 0.40624
 H952 H 0.25781 0.71614 0.38026
 H953 H 0.26022 0.66485 0.41484
 H954 H 0.26489 0.64540 0.44115
 H955 H 0.21851 0.66907 0.46700
 H956 H 0.21389 0.68883 0.44093
 C957 C 0.27593 0.73581 0.64730
 C958 C 0.27366 0.72586 0.63468
 C959 C 0.27093 0.71402 0.61959
 C960 C 0.28566 0.70522 0.61169
 C961 C 0.28303 0.69380 0.59696
 C962 C 0.26561 0.69104 0.58992
 C963 C 0.25089 0.69993 0.59800
 C964 C 0.25355 0.71133 0.61273
 C965 C 0.26282 0.67903 0.57419
 C966 C 0.25065 0.68386 0.56047
 C967 C 0.24807 0.67259 0.54563
 C968 C 0.25760 0.65635 0.54428
 C969 C 0.26971 0.65140 0.55785
 C970 C 0.27232 0.66266 0.57271
 C971 C 0.25498 0.64483 0.52893
 C972 C 0.25276 0.63526 0.51601
 H973 H 0.29918 0.70725 0.61686
 H974 H 0.29466 0.68735 0.59090
 H975 H 0.23730 0.69790 0.59305
 H976 H 0.24205 0.71804 0.61878
 H977 H 0.24331 0.69648 0.56110
 H978 H 0.23870 0.67658 0.53516
 H979 H 0.27713 0.63884 0.55695
 H980 H 0.28161 0.65846 0.58314
 C981 C 0.77663 0.23545 0.14707
 C982 C 0.77426 0.22548 0.13449
 C983 C 0.77140 0.21365 0.11942
 C984 C 0.75444 0.21280 0.11119
 C985 C 0.75167 0.20141 0.09646
 C986 C 0.76586 0.19071 0.08977
 C987 C 0.78286 0.19163 0.09817
 C988 C 0.78560 0.20304 0.11289
 C989 C 0.76296 0.17870 0.07404
 C990 C 0.77060 0.16132 0.07361
 C991 C 0.76790 0.15007 0.05876
 C992 C 0.75757 0.15602 0.04417
 C993 C 0.74991 0.17327 0.04447
 C994 C 0.75257 0.18454 0.05930
 C995 C 0.75486 0.14448 0.02885
 C996 C 0.75256 0.13490 0.01595
 H997 H 0.74334 0.22092 0.11616
 H998 H 0.73837 0.20083 0.09044
 H999 H 0.79411 0.18375 0.09319
 H1000 H 0.79880 0.20364 0.11913
 H1001 H 0.77847 0.15636 0.08484
 H1002 H 0.77386 0.13672 0.05868
 H1003 H 0.74193 0.17803 0.03321
 H1004 H 0.74672 0.19792 0.05912
 C1005 C 0.47527 0.39827 0.51440
 C1006 C 0.47727 0.38558 0.52436
 C1007 C 0.47967 0.37040 0.53619
 C1008 C 0.46550 0.35822 0.53895
 C1009 C 0.46785 0.34338 0.55032
 C1010 C 0.48444 0.34053 0.55909
 C1011 C 0.49859 0.35289 0.55627
 C1012 C 0.49620 0.36772 0.54488
 C1013 C 0.48702 0.32467 0.57104
 C1014 C 0.49660 0.32631 0.58730
 C1015 C 0.49913 0.31133 0.59846
 C1016 C 0.49214 0.29452 0.59351
 C1017 C 0.48256 0.29275 0.57739
 C1018 C 0.48001 0.30771 0.56622
 C1019 C 0.49490 0.27906 0.60488
 C1020 C 0.49725 0.26602 0.61431
 H1021 H 0.45262 0.36020 0.53232
 H1022 H 0.45664 0.33424 0.55239
 H1023 H 0.51159 0.35094 0.56264
 H1024 H 0.50728 0.37704 0.54280
 H1025 H 0.50197 0.33923 0.59149
 H1026 H 0.50654 0.31286 0.61093
 H1027 H 0.47715 0.27978 0.57340
 H1028 H 0.47279 0.30594 0.55368
 C1029 C -0.02465 0.89798 0.01318
 C1030 C -0.02251 0.88530 0.02312
 C1031 C -0.01993 0.87014 0.03494
 C1032 C -0.03335 0.86544 0.04736
 C1033 C -0.03089 0.85066 0.05878
 C1034 C -0.01494 0.84037 0.05793
 C1035 C -0.00152 0.84523 0.04540
 C1036 C -0.00402 0.86001 0.03399
 C1037 C -0.01233 0.82461 0.06999
 C1038 C 0.00460 0.82124 0.07791
 C1039 C 0.00708 0.80631 0.08914
 C1040 C -0.00729 0.79455 0.09259
 C1041 C -0.02419 0.79780 0.08483
 C1042 C -0.02671 0.81273 0.07361
 C1043 C -0.00466 0.77907 0.10398
 C1044 C -0.00241 0.76605 0.11344
 H1045 H -0.04571 0.87322 0.04824
 H1046 H -0.04137 0.84740 0.06843
 H1047 H 0.01080 0.83744 0.04425
 H1048 H 0.00643 0.86350 0.02438
 H1049 H 0.01587 0.83025 0.07558
 H1050 H 0.02021 0.80393 0.09511
 H1051 H -0.03539 0.78874 0.08737
 H1052 H -0.03983 0.81482 0.06753
 C1053 C 0.02547 0.60268 0.01288
 C1054 C 0.02336 0.61536 0.02281
 C1055 C 0.02084 0.63056 0.03458
 C1056 C 0.01907 0.64791 0.02737
 C1057 C 0.01663 0.66270 0.03876
 C1058 C 0.01590 0.66033 0.05754
 C1059 C 0.01767 0.64283 0.06465
 C1060 C 0.02014 0.62805 0.05323
 C1061 C 0.01330 0.67606 0.06964
 C1062 C 0.00187 0.67482 0.08474
 C1063 C -0.00067 0.68969 0.09603
 C1064 C 0.00817 0.70596 0.09239
 C1065 C 0.01961 0.70732 0.07745
 C1066 C 0.02217 0.69248 0.06614
 C1067 C 0.00543 0.72133 0.10389
 C1068 C 0.00314 0.73429 0.11341
 H1069 H 0.01954 0.65000 0.01295
 H1070 H 0.01506 0.67597 0.03287
 H1071 H 0.01740 0.64059 0.07905
 H1072 H 0.02154 0.61468 0.05895
 H1073 H -0.00532 0.66244 0.08767
 H1074 H -0.00961 0.68851 0.10753
 H1075 H 0.02656 0.71985 0.07454
 H1076 H 0.03123 0.69379 0.05477
 C1077 C 0.52575 0.10307 0.51313
 C1078 C 0.52362 0.11571 0.52311
 C1079 C 0.52108 0.13086 0.53494
 C1080 C 0.51060 0.12903 0.55052
 C1081 C 0.50805 0.14378 0.56196
 C1082 C 0.51594 0.16058 0.55793
 C1083 C 0.52648 0.16225 0.54225
 C1084 C 0.52903 0.14748 0.53084
 C1085 C 0.51314 0.17630 0.57000
 C1086 C 0.51015 0.19360 0.56278
 C1087 C 0.50752 0.20839 0.57413
 C1088 C 0.50784 0.20612 0.59282
 C1089 C 0.51080 0.18899 0.60014
 C1090 C 0.51342 0.17416 0.58882
 C1091 C 0.50515 0.22140 0.60445
 C1092 C 0.50288 0.23429 0.61407
 H1093 H 0.50435 0.11623 0.55379
 H1094 H 0.49968 0.14213 0.57380
 H1095 H 0.53294 0.17493 0.53890
 H1096 H 0.53721 0.14903 0.51884
 H1097 H 0.50961 0.19565 0.54836
 H1098 H 0.50519 0.22160 0.56832
 H1099 H 0.51112 0.18709 0.61460
 H1100 H 0.51592 0.16107 0.59478
 C1101 C -0.02529 0.10260 0.48638
 C1102 C -0.02330 0.11535 0.47651
 C1103 C -0.02088 0.13063 0.46480
 C1104 C -0.01383 0.14675 0.47160
 C1105 C -0.01147 0.16162 0.46026
 C1106 C -0.01613 0.16055 0.44194
 C1107 C -0.02320 0.14427 0.43523
 C1108 C -0.02556 0.12942 0.44660
 C1109 C -0.01359 0.17634 0.42989
 C1110 C -0.00693 0.17406 0.41229
 C1111 C -0.00440 0.18896 0.40102
 C1112 C -0.00852 0.20631 0.40717
 C1113 C -0.01520 0.20872 0.42462
 C1114 C -0.01772 0.19385 0.43592
 C1115 C -0.00577 0.22166 0.39564
 C1116 C -0.00343 0.23460 0.38608
 H1117 H -0.01011 0.14782 0.48566
 H1118 H -0.00577 0.17387 0.46578
 H1119 H -0.02712 0.14310 0.42125
 H1120 H -0.03107 0.11702 0.44121
 H1121 H -0.00341 0.16078 0.40733
 H1122 H 0.00083 0.18695 0.38755
 H1123 H -0.01847 0.22210 0.42950
 H1124 H -0.02310 0.19602 0.44930
 C1125 C 0.47446 0.60282 0.98708
 C1126 C 0.47661 0.61550 0.97715
 C1127 C 0.47918 0.63071 0.96539
 C1128 C 0.47460 0.62945 0.94716
 C1129 C 0.47706 0.64426 0.93575
 C1130 C 0.48414 0.66054 0.94245
 C1131 C 0.48872 0.66165 0.96079
 C1132 C 0.48626 0.64683 0.97216
 C1133 C 0.48672 0.67630 0.93037
 C1134 C 0.48258 0.69383 0.93636
 C1135 C 0.48511 0.70867 0.92503
 C1136 C 0.49182 0.70623 0.90759
 C1137 C 0.49595 0.68886 0.90148
 C1138 C 0.49341 0.67399 0.91278
 C1139 C 0.49455 0.72156 0.89603
 C1140 C 0.49686 0.73450 0.88646
 H1141 H 0.46907 0.61705 0.94179
 H1142 H 0.47320 0.64305 0.92176
 H1143 H 0.49442 0.67391 0.96629
 H1144 H 0.48990 0.64793 0.98624
 H1145 H 0.47718 0.69603 0.94972
 H1146 H 0.48183 0.72206 0.92988
 H1147 H 0.50120 0.68683 0.88802
 H1148 H 0.49694 0.66070 0.90786
 C1149 C 0.52440 0.89804 0.98660
 C1150 C 0.52230 0.88544 0.97658
 C1151 C 0.51980 0.87035 0.96468
 C1152 C 0.50242 0.86384 0.96119
 C1153 C 0.49998 0.84909 0.94974
 C1154 C 0.51493 0.84063 0.94164
 C1155 C 0.53236 0.84730 0.94521
 C1156 C 0.53476 0.86207 0.95664
 C1157 C 0.51237 0.82483 0.92963
 C1158 C 0.52422 0.81002 0.93051
 C1159 C 0.52171 0.79509 0.91932
 C1160 C 0.50736 0.79476 0.90710
 C1161 C 0.49553 0.80944 0.90607
 C1162 C 0.49800 0.82438 0.91725
 C1163 C 0.50468 0.77929 0.89574
 C1164 C 0.50243 0.76625 0.88631
 H1165 H 0.49075 0.87012 0.96738
 H1166 H 0.48643 0.84412 0.94745
 H1167 H 0.54411 0.84123 0.93900
 H1168 H 0.54828 0.86703 0.95922
 H1169 H 0.53526 0.80986 0.94005
 H1170 H 0.53091 0.78376 0.92027
 H1171 H 0.48439 0.80933 0.89662
 H1172 H 0.48880 0.83567 0.91609
 C1173 C 0.02478 0.39810 0.48610
 C1174 C 0.02265 0.38550 0.47609
 C1175 C 0.02009 0.37041 0.46419
 C1176 C 0.00404 0.36874 0.45439
 C1177 C 0.00147 0.35400 0.44296
 C1178 C 0.01494 0.34073 0.44116
 C1179 C 0.03104 0.34257 0.45103
 C1180 C 0.03358 0.35731 0.46247
 C1181 C 0.01216 0.32498 0.42914
 C1182 C 0.02637 0.31845 0.41838
 C1183 C 0.02377 0.30352 0.40720
 C1184 C 0.00696 0.29492 0.40663
 C1185 C -0.00728 0.30134 0.41725
 C1186 C -0.00471 0.31627 0.42842
 C1187 C 0.00435 0.27942 0.39530
 C1188 C 0.00215 0.26636 0.38589
 H1189 H -0.00647 0.37883 0.45559
 H1190 H -0.01097 0.35309 0.43537
 H1191 H 0.04156 0.33247 0.45012
 H1192 H 0.04603 0.35845 0.47004
 H1193 H 0.03944 0.32500 0.41846
 H1194 H 0.03487 0.29868 0.39900
 H1195 H -0.02033 0.29474 0.41696
 H1196 H -0.01584 0.32083 0.43672
 C1197 C 0.39910 0.51342 0.47467
 C1198 C 0.38625 0.52314 0.47694
 C1199 C 0.37087 0.53470 0.47965
 C1200 C 0.37063 0.55203 0.47219
 C1201 C 0.35566 0.56323 0.47476
 C1202 C 0.34071 0.55722 0.48482
 C1203 C 0.34111 0.53978 0.49229
 C1204 C 0.35610 0.52861 0.48971
 C1205 C 0.32476 0.56907 0.48750
 C1206 C 0.30716 0.56194 0.48662
 C1207 C 0.29215 0.57309 0.48916
 C1208 C 0.29451 0.59149 0.49260
 C1209 C 0.31194 0.59872 0.49349
 C1210 C 0.32697 0.58760 0.49095
 C1211 C 0.27902 0.60290 0.49525
 C1212 C 0.26597 0.61238 0.49749
 H1213 H 0.38198 0.55686 0.46433
 H1214 H 0.35566 0.57649 0.46865
 H1215 H 0.32992 0.53485 0.50030
 H1216 H 0.35617 0.51523 0.49559
 H1217 H 0.30500 0.54779 0.48375
 H1218 H 0.27871 0.56736 0.48839
 H1219 H 0.31391 0.61294 0.49621
 H1220 H 0.34034 0.59344 0.49193
 C1221 C 0.89862 0.01295 -0.02606
 C1222 C 0.88578 0.02267 -0.02372
 C1223 C 0.87042 0.03423 -0.02094
 C1224 C 0.85909 0.03153 -0.00610
 C1225 C 0.84412 0.04271 -0.00342
 C1226 C 0.84030 0.05677 -0.01557
 C1227 C 0.85180 0.05939 -0.03044
 C1228 C 0.86676 0.04818 -0.03309
 C1229 C 0.82436 0.06861 -0.01277
 C1230 C 0.82555 0.08728 -0.01596
 C1231 C 0.81052 0.09840 -0.01333
 C1232 C 0.79413 0.09102 -0.00751
 C1233 C 0.79281 0.07247 -0.00431
 C1234 C 0.80782 0.06132 -0.00691
 C1235 C 0.77866 0.10244 -0.00484
 C1236 C 0.76564 0.11195 -0.00258
 H1237 H 0.86183 0.02080 0.00341
 H1238 H 0.83567 0.04049 0.00827
 H1239 H 0.84909 0.06993 -0.04015
 H1240 H 0.87541 0.05036 -0.04466
 H1241 H 0.83815 0.09332 -0.02025
 H1242 H 0.81170 0.11276 -0.01580
 H1243 H 0.78017 0.06661 0.00015
 H1244 H 0.80640 0.04698 -0.00458
 C1245 C 0.60097 0.01281 0.02659
 C1246 C 0.61379 0.02258 0.02432
 C1247 C 0.62910 0.03422 0.02163
 C1248 C 0.63486 0.03845 0.00419
 C1249 C 0.64978 0.04971 0.00156
 C1250 C 0.65915 0.05689 0.01638
 C1251 C 0.65324 0.05257 0.03387
 C1252 C 0.63831 0.04132 0.03646
 C1253 C 0.67507 0.06877 0.01361
 C1254 C 0.69043 0.06705 0.02461
 C1255 C 0.70544 0.07818 0.02193
 C1256 C 0.70530 0.09117 0.00827
 C1257 C 0.69007 0.09301 -0.00272
 C1258 C 0.67505 0.08189 -0.00008
 C1259 C 0.72080 0.10252 0.00546
 C1260 C 0.73384 0.11198 0.00309
 H1261 H 0.62786 0.03298 -0.00739
 H1262 H 0.65414 0.05258 -0.01205
 H1263 H 0.66002 0.05806 0.04554
 H1264 H 0.63393 0.03817 0.05002
 H1265 H 0.69095 0.05693 0.03510
 H1266 H 0.71719 0.07660 0.03048
 H1267 H 0.68981 0.10305 -0.01332
 H1268 H 0.66335 0.08370 -0.00862
 C1269 C 0.10148 0.51277 0.52619
 C1270 C 0.11432 0.52252 0.52397
 C1271 C 0.12967 0.53413 0.52135
 C1272 C 0.13002 0.54627 0.50692
 C1273 C 0.14494 0.55754 0.50436
 C1274 C 0.15974 0.55680 0.51621
 C1275 C 0.15925 0.54456 0.53068
 C1276 C 0.14430 0.53331 0.53322
 C1277 C 0.17563 0.56871 0.51346
 C1278 C 0.19325 0.56207 0.51602
 C1279 C 0.20821 0.57327 0.51339
 C1280 C 0.20577 0.59124 0.50817
 C1281 C 0.18832 0.59799 0.50560
 C1282 C 0.17333 0.58681 0.50821
 C1283 C 0.22119 0.60272 0.50541
 C1284 C 0.23418 0.61227 0.50308
 H1285 H 0.11878 0.54698 0.49762
 H1286 H 0.14501 0.56665 0.49296
 H1287 H 0.17031 0.54383 0.54016
 H1288 H 0.14415 0.52400 0.54447
 H1289 H 0.19547 0.54815 0.51982
 H1290 H 0.22167 0.56790 0.51536
 H1291 H 0.18628 0.61190 0.50160
 H1292 H 0.15995 0.59238 0.50636
 C1293 C 0.10173 0.48739 -0.02652
 C1294 C 0.11451 0.47760 -0.02421
 C1295 C 0.12983 0.46596 -0.02151
 C1296 C 0.14692 0.47122 -0.02761
 C1297 C 0.16183 0.45996 -0.02498
 C1298 C 0.15982 0.44325 -0.01620
 C1299 C 0.14257 0.43807 -0.01014
 C1300 C 0.12768 0.44937 -0.01277
 C1301 C 0.17567 0.43130 -0.01337
 C1302 C 0.17414 0.41253 -0.01569
 C1303 C 0.18909 0.40131 -0.01306
 C1304 C 0.20574 0.40870 -0.00807
 C1305 C 0.20739 0.42734 -0.00570
 C1306 C 0.19247 0.43858 -0.00833
 C1307 C 0.22114 0.39719 -0.00540
 C1308 C 0.23414 0.38765 -0.00313
 H1309 H 0.14872 0.48401 -0.03443
 H1310 H 0.17488 0.46421 -0.03001
 H1311 H 0.14063 0.42541 -0.00314
 H1312 H 0.11451 0.44519 -0.00795
 H1313 H 0.16146 0.40654 -0.01978
 H1314 H 0.18768 0.38690 -0.01498
 H1315 H 0.22021 0.43319 -0.00178
 H1316 H 0.19402 0.45294 -0.00620
 C1317 C 0.60211 0.98786 0.47366
 C1318 C 0.61488 0.97805 0.47598
 C1319 C 0.63016 0.96639 0.47872
 C1320 C 0.62797 0.94981 0.48746
 C1321 C 0.64283 0.93848 0.49011
 C1322 C 0.66010 0.94361 0.48406
 C1323 C 0.66215 0.96031 0.47528
 C1324 C 0.64728 0.97161 0.47263
 C1325 C 0.67592 0.93162 0.48691
 C1326 C 0.69274 0.93887 0.49194
 C1327 C 0.70763 0.92759 0.49458
 C1328 C 0.70594 0.90895 0.49222
 C1329 C 0.68927 0.90160 0.48723
 C1330 C 0.67435 0.91285 0.48460
 C1331 C 0.72132 0.89740 0.49488
 C1332 C 0.73429 0.88783 0.49713
 H1333 H 0.61479 0.94566 0.49226
 H1334 H 0.64086 0.92582 0.49711
 H1335 H 0.67522 0.96454 0.47026
 H1336 H 0.64912 0.98439 0.46580
 H1337 H 0.69432 0.95322 0.49406
 H1338 H 0.72046 0.93341 0.49848
 H1339 H 0.68783 0.88719 0.48532
 H1340 H 0.66165 0.90689 0.48051
 C1341 C 0.89895 0.98692 0.52562
 C1342 C 0.88612 0.97718 0.52335
 C1343 C 0.87077 0.96560 0.52064
 C1344 C 0.87142 0.94756 0.52615
 C1345 C 0.85647 0.93632 0.52358
 C1346 C 0.84067 0.94301 0.51546
 C1347 C 0.84017 0.96117 0.50995
 C1348 C 0.85513 0.97237 0.51252
 C1349 C 0.82475 0.93112 0.51278
 C1350 C 0.80717 0.93766 0.51583
 C1351 C 0.79219 0.92649 0.51327
 C1352 C 0.79456 0.90864 0.50763
 C1353 C 0.81198 0.90199 0.50458
 C1354 C 0.82699 0.91314 0.50714
 C1355 C 0.77911 0.89721 0.50493
 C1356 C 0.76608 0.88772 0.50265
 H1357 H 0.88344 0.94219 0.53249
 H1358 H 0.85719 0.92248 0.52817
 H1359 H 0.82830 0.96665 0.50345
 H1360 H 0.85451 0.98630 0.50816
 H1361 H 0.80501 0.95135 0.52041
 H1362 H 0.77876 0.93175 0.51571
 H1363 H 0.81397 0.88821 0.50016
 H1364 H 0.84033 0.90778 0.50447
 C1365 C 0.39827 0.48734 0.02619
 C1366 C 0.38552 0.47753 0.02380
 C1367 C 0.37024 0.46588 0.02097
 C1368 C 0.35461 0.47261 0.01279
 C1369 C 0.33971 0.46135 0.01012
 C1370 C 0.34025 0.44319 0.01559
 C1371 C 0.35605 0.43654 0.02376
 C1372 C 0.37093 0.44783 0.02643
 C1373 C 0.32439 0.43125 0.01283
 C1374 C 0.32672 0.41329 0.00715
 C1375 C 0.31176 0.40209 0.00452
 C1376 C 0.29430 0.40867 0.00754
 C1377 C 0.29185 0.42649 0.01321
 C1378 C 0.30677 0.43772 0.01584
 C1379 C 0.27890 0.39718 0.00478
 C1380 C 0.26591 0.38765 0.00247
 H1381 H 0.35395 0.48655 0.00847
 H1382 H 0.32784 0.46680 0.00358
 H1383 H 0.35680 0.42269 0.02833
 H1384 H 0.38295 0.44250 0.03282
 H1385 H 0.34008 0.40799 0.00450
 H1386 H 0.31381 0.38833 0.00007
 H1387 H 0.27839 0.43170 0.01563
 H1388 H 0.30455 0.45139 0.02045
 C1389 C 0.51508 0.47377 0.39793
 C1390 C 0.52494 0.47591 0.38519
 C1391 C 0.53666 0.47846 0.36993
 C1392 C 0.53303 0.46960 0.35372
 C1393 C 0.54433 0.47214 0.33884
 C1394 C 0.55944 0.48359 0.34000
 C1395 C 0.56300 0.49240 0.35639
 C1396 C 0.55167 0.48985 0.37124
 C1397 C 0.57137 0.48640 0.32416
 C1398 C 0.59024 0.48728 0.32624
 C1399 C 0.60144 0.48995 0.31131
 C1400 C 0.59395 0.49178 0.29413
 C1401 C 0.57520 0.49093 0.29192
 C1402 C 0.56398 0.48826 0.30682
 C1403 C 0.60545 0.49456 0.27875
 C1404 C 0.61497 0.49690 0.26578
 H1405 H 0.52148 0.46071 0.35257
 H1406 H 0.54136 0.46498 0.32650
 H1407 H 0.57438 0.50148 0.35764
 H1408 H 0.55458 0.49681 0.38372
 H1409 H 0.59635 0.48567 0.33937
 H1410 H 0.61595 0.49053 0.31316
 H1411 H 0.56926 0.49240 0.27868
 H1412 H 0.54950 0.48789 0.30481
 C1413 C 0.01465 -0.02595 0.89691
 C1414 C 0.02453 -0.02367 0.88421
 C1415 C 0.03629 -0.02096 0.86901
 C1416 C 0.05278 -0.03012 0.86798
 C1417 C 0.06417 -0.02753 0.85318
 C1418 C 0.05919 -0.01575 0.83918
 C1419 C 0.04258 -0.00659 0.84036
 C1420 C 0.03122 -0.00918 0.85518
 C1421 C 0.07123 -0.01306 0.82340
 C1422 C 0.06399 -0.01183 0.80594
 C1423 C 0.07531 -0.00930 0.79109
 C1424 C 0.09401 -0.00794 0.79348
 C1425 C 0.10135 -0.00915 0.81078
 C1426 C 0.09005 -0.01170 0.82565
 C1427 C 0.10561 -0.00528 0.77816
 C1428 C 0.11521 -0.00302 0.76523
 H1429 H 0.05681 -0.03930 0.87858
 H1430 H 0.07675 -0.03495 0.85255
 H1431 H 0.03848 0.00275 0.82993
 H1432 H 0.01851 -0.00199 0.85587
 H1433 H 0.04959 -0.01307 0.80374
 H1434 H 0.06949 -0.00843 0.77775
 H1435 H 0.11580 -0.00806 0.81277
 H1436 H 0.09601 -0.01236 0.83894
 C1437 C 0.01488 0.02646 0.60219
 C1438 C 0.02478 0.02424 0.61487
 C1439 C 0.03654 0.02158 0.63004
 C1440 C 0.05322 0.01299 0.62777
 C1441 C 0.06460 0.01032 0.64254
 C1442 C 0.05942 0.01620 0.65979
 C1443 C 0.04263 0.02485 0.66192
 C1444 C 0.03129 0.02752 0.64713
 C1445 C 0.07143 0.01327 0.67552
 C1446 C 0.06420 0.00798 0.69223
 C1447 C 0.07549 0.00524 0.70704
 C1448 C 0.09415 0.00774 0.70536
 C1449 C 0.10149 0.01298 0.68880
 C1450 C 0.09022 0.01572 0.67396
 C1451 C 0.10571 0.00496 0.72066
 C1452 C 0.11527 0.00262 0.73358
 H1453 H 0.05739 0.00830 0.61460
 H1454 H 0.07732 0.00342 0.64050
 H1455 H 0.03837 0.02974 0.67497
 H1456 H 0.01843 0.03423 0.64903
 H1457 H 0.04983 0.00575 0.69380
 H1458 H 0.06968 0.00113 0.71979
 H1459 H 0.11591 0.01501 0.68737
 H1460 H 0.09617 0.02000 0.66135
 C1461 C 0.51442 0.52632 0.10277
 C1462 C 0.52431 0.52406 0.11545
 C1463 C 0.53606 0.52137 0.13063
 C1464 C 0.55348 0.51449 0.12809
 C1465 C 0.56486 0.51181 0.14285
 C1466 C 0.55895 0.51597 0.16037
 C1467 C 0.54142 0.52290 0.16277
 C1468 C 0.53007 0.52558 0.14799
 C1469 C 0.57098 0.51305 0.17608
 C1470 C 0.56406 0.50601 0.19228
 C1471 C 0.57537 0.50330 0.20708
 C1472 C 0.59374 0.50759 0.20591
 C1473 C 0.60077 0.51458 0.18988
 C1474 C 0.58949 0.51729 0.17504
 C1475 C 0.60531 0.50487 0.22121
 C1476 C 0.61490 0.50257 0.23412
 H1477 H 0.55824 0.51114 0.11471
 H1478 H 0.57819 0.50625 0.14059
 H1479 H 0.53656 0.52646 0.17605
 H1480 H 0.51662 0.53096 0.15010
 H1481 H 0.54994 0.50239 0.19343
 H1482 H 0.56980 0.49784 0.21942
 H1483 H 0.61497 0.51799 0.18885
 H1484 H 0.59518 0.52294 0.16285
 C1485 C 0.48508 -0.02693 0.10343
 C1486 C 0.47518 -0.02475 0.11613
 C1487 C 0.46341 -0.02213 0.13133
 C1488 C 0.45062 -0.00823 0.13116
 C1489 C 0.43924 -0.00562 0.14596
 C1490 C 0.44053 -0.01689 0.16116
 C1491 C 0.45341 -0.03084 0.16118
 C1492 C 0.46476 -0.03343 0.14635
 C1493 C 0.42854 -0.01405 0.17694
 C1494 C 0.43535 -0.01566 0.19454
 C1495 C 0.42409 -0.01293 0.20940
 C1496 C 0.40588 -0.00857 0.20688
 C1497 C 0.39896 -0.00695 0.18944
 C1498 C 0.41020 -0.00966 0.17456
 C1499 C 0.39434 -0.00572 0.22221
 C1500 C 0.38475 -0.00332 0.23512
 H1501 H 0.44950 0.00063 0.11962
 H1502 H 0.42963 0.00538 0.14563
 H1503 H 0.45457 -0.03988 0.17257
 H1504 H 0.47458 -0.04426 0.14661
 H1505 H 0.44945 -0.01878 0.19682
 H1506 H 0.42959 -0.01416 0.22285
 H1507 H 0.38487 -0.00362 0.18735
 H1508 H 0.40451 -0.00855 0.16119
 C1509 C 0.98521 0.47341 0.60266
 C1510 C 0.97526 0.47562 0.61531
 C1511 C 0.96342 0.47827 0.63045
 C1512 C 0.96027 0.49567 0.63704
 C1513 C 0.94884 0.49825 0.65181
 C1514 C 0.94042 0.48345 0.66020
 C1515 C 0.94366 0.46602 0.65345
 C1516 C 0.95508 0.46346 0.63867
 C1517 C 0.92839 0.48617 0.67597
 C1518 C 0.92900 0.47425 0.69070
 C1519 C 0.91777 0.47690 0.70560
 C1520 C 0.90577 0.49147 0.70598
 C1521 C 0.90502 0.50338 0.69139
 C1522 C 0.91625 0.50077 0.67648
 C1523 C 0.89434 0.49426 0.72140
 C1524 C 0.88483 0.49662 0.73437
 H1525 H 0.96670 0.50722 0.63081
 H1526 H 0.94681 0.51181 0.65683
 H1527 H 0.93720 0.45438 0.65946
 H1528 H 0.95740 0.44995 0.63365
 H1529 H 0.93836 0.46303 0.69082
 H1530 H 0.91851 0.46763 0.71685
 H1531 H 0.89575 0.51469 0.69154
 H1532 H 0.91529 0.51005 0.66526
 C1533 C 0.98508 0.52613 0.89749
 C1534 C 0.97512 0.52388 0.88487
 C1535 C 0.96329 0.52122 0.86976
 C1536 C 0.96011 0.53534 0.85767
 C1537 C 0.94873 0.53274 0.84290
 C1538 C 0.94036 0.51595 0.84003
 C1539 C 0.94360 0.50185 0.85230
 C1540 C 0.95499 0.50448 0.86705
 C1541 C 0.92838 0.51314 0.82426
 C1542 C 0.91230 0.50315 0.82596
 C1543 C 0.90109 0.50045 0.81108
 C1544 C 0.90579 0.50767 0.79431
 C1545 C 0.92174 0.51764 0.79248
 C1546 C 0.93296 0.52036 0.80734
 C1547 C 0.89433 0.50480 0.77896
 C1548 C 0.88482 0.50240 0.76602
 H1549 H 0.96643 0.54837 0.85966
 H1550 H 0.94633 0.54393 0.83384
 H1551 H 0.93754 0.48871 0.85033
 H1552 H 0.95740 0.49344 0.87630
 H1553 H 0.90829 0.49761 0.83885
 H1554 H 0.88875 0.49275 0.81265
 H1555 H 0.92553 0.52323 0.77954
 H1556 H 0.94536 0.52790 0.80554
 C1557 C 0.48522 0.02634 0.39790
 C1558 C 0.47520 0.02401 0.38535
 C1559 C 0.46327 0.02123 0.37033
 C1560 C 0.46300 0.00460 0.36146
 C1561 C 0.45151 0.00192 0.34678
 C1562 C 0.44014 0.01589 0.34077
 C1563 C 0.44050 0.03256 0.34981
 C1564 C 0.45199 0.03519 0.36449
 C1565 C 0.42806 0.01311 0.32508
 C1566 C 0.42579 0.02680 0.31215
 C1567 C 0.41454 0.02411 0.29729
 C1568 C 0.40542 0.00773 0.29516
 C1569 C 0.40752 -0.00595 0.30796
 C1570 C 0.41877 -0.00330 0.32283
 C1571 C 0.39403 0.00490 0.27974
 C1572 C 0.38458 0.00252 0.26675
 H1573 H 0.47172 -0.00628 0.36584
 H1574 H 0.45173 -0.01098 0.33997
 H1575 H 0.43175 0.04349 0.34565
 H1576 H 0.45206 0.04811 0.37129
 H1577 H 0.43293 0.03948 0.31337
 H1578 H 0.41305 0.03476 0.28742
 H1579 H 0.40049 -0.01867 0.30646
 H1580 H 0.42005 -0.01400 0.33266
   
