data_POSCAR
  _audit_creation_date              2014-09-24
  _audit_creation_method            'ToBaCCo'
  _symmetry_space_group_name_H-M    'P1'
  _symmetry_Int_Tables_number       1
  _symmetry_cell_setting            triclinic
  loop_
  _symmetry_equiv_pos_as_xyz
 x,y,z
_cell_length_a 61.9896
_cell_length_b 62.0166
_cell_length_c 62.0194
_cell_angle_alpha 89.355400
_cell_angle_beta 90.535700
_cell_angle_gamma 89.728600
loop_
  _atom_site_label
  _atom_site_type_symbol
  _atom_site_fract_x
  _atom_site_fract_y
  _atom_site_fract_z
C1 C 0.09544 0.01916 0.22364
 H2 H 0.09501 0.03181 0.23550
 C3 C 0.08360 0.02136 0.20444
 H4 H 0.07378 0.03563 0.20174
 C5 C 0.10921 -0.01462 0.21256
 H6 H 0.11968 -0.02833 0.21542
 C7 C 0.09760 -0.01314 0.19324
 H8 H 0.09926 -0.02582 0.18150
 N9 N 0.10791 0.00136 0.22732
 C10 C 0.12047 -0.00356 0.29633
 H11 H 0.13786 -0.00499 0.29577
 C12 C 0.10998 -0.00480 0.31605
 H13 H 0.11943 -0.00735 0.33064
 C14 C 0.08712 0.00079 0.27774
 H15 H 0.07832 0.00276 0.26272
 C16 C 0.07591 -0.00042 0.29720
 H17 H 0.05850 0.00099 0.29703
 Zn18 Zn 0.12556 0.00018 0.25234
 N19 N 0.10903 -0.00057 0.27774
 C20 C 0.14114 0.03967 0.26813
 N21 N 0.14308 0.02508 0.25205
 C22 C 0.15576 0.02908 0.23469
 C23 C 0.16696 0.04854 0.23293
 C24 C 0.15201 0.05926 0.26703
 C25 C 0.13047 -0.04382 0.25546
 C26 C 0.14071 -0.06381 0.25660
 C27 C 0.17485 -0.04583 0.25211
 C28 C 0.16381 -0.02609 0.25114
 N29 N 0.14200 -0.02552 0.25265
 H30 H 0.13062 0.03650 0.28156
 H31 H 0.15665 0.01740 0.22190
 H32 H 0.17649 0.05172 0.21872
 H33 H 0.15014 0.07068 0.27997
 H34 H 0.11308 -0.04284 0.25661
 H35 H 0.13033 -0.07770 0.25763
 H36 H 0.19224 -0.04515 0.25172
 H37 H 0.17274 -0.01125 0.24948
 C38 C 0.08742 -0.00312 0.31669
 C39 C 0.08469 0.00508 0.18891
 C40 C 0.16346 -0.06546 0.25500
 C41 C 0.16485 0.06407 0.24911
 C42 C 0.40484 0.01541 0.77492
 H43 H 0.40546 0.02849 0.76326
 C44 C 0.41642 0.01679 0.79433
 H45 H 0.42623 0.03086 0.79735
 C46 C 0.39083 -0.01855 0.78542
 H47 H 0.38032 -0.03201 0.78229
 C48 C 0.40217 -0.01788 0.80491
 H49 H 0.40025 -0.03093 0.81647
 N50 N 0.39234 -0.00207 0.77086
 C51 C 0.37961 -0.00485 0.70168
 H52 H 0.36226 -0.00655 0.70238
 C53 C 0.38994 -0.00529 0.68186
 H54 H 0.38041 -0.00753 0.66734
 C55 C 0.41300 -0.00051 0.72001
 H56 H 0.42188 0.00119 0.73497
 C57 C 0.42405 -0.00090 0.70043
 H58 H 0.44142 0.00087 0.70046
 Zn59 Zn 0.37469 -0.00224 0.74573
 N60 N 0.39113 -0.00223 0.72021
 C61 C 0.35861 0.03770 0.73009
 N62 N 0.35703 0.02281 0.74626
 C63 C 0.34457 0.02653 0.76379
 C64 C 0.33314 0.04594 0.76554
 C65 C 0.34742 0.05721 0.73114
 C66 C 0.37001 -0.04621 0.74224
 C67 C 0.35988 -0.06619 0.74165
 C68 C 0.32566 -0.04820 0.74665
 C69 C 0.33651 -0.02845 0.74717
 N70 N 0.35834 -0.02790 0.74525
 H71 H 0.36909 0.03483 0.71661
 H72 H 0.34391 0.01461 0.77663
 H73 H 0.32338 0.04869 0.77964
 H74 H 0.34940 0.06903 0.71834
 H75 H 0.38732 -0.04524 0.74042
 H76 H 0.36953 -0.08053 0.73915
 H77 H 0.30833 -0.04847 0.74862
 H78 H 0.32751 -0.01365 0.74921
 C79 C 0.41244 -0.00315 0.68100
 C80 C 0.41505 0.00002 0.80968
 C81 C 0.33744 -0.06742 0.74406
 C82 C 0.33461 0.06164 0.74911
 C83 C 0.90340 0.51590 0.27721
 H84 H 0.90469 0.52900 0.26564
 C85 C 0.91423 0.51703 0.29707
 H86 H 0.92439 0.53085 0.29990
 C87 C 0.88868 0.48209 0.28685
 H88 H 0.87807 0.46883 0.28326
 C89 C 0.89926 0.48244 0.30676
 H90 H 0.89601 0.46936 0.31791
 N91 N 0.89090 0.49861 0.27250
 C92 C 0.88037 0.49583 0.20296
 H93 H 0.86298 0.49447 0.20315
 C94 C 0.89129 0.49469 0.18349
 H95 H 0.88212 0.49279 0.16870
 C96 C 0.91326 0.50016 0.22219
 H97 H 0.92171 0.50197 0.23737
 C98 C 0.92489 0.49915 0.20297
 H99 H 0.94232 0.50020 0.20353
 Zn100 Zn 0.87414 0.49858 0.24675
 N101 N 0.89138 0.49862 0.22177
 C102 C 0.85817 0.53839 0.23064
 N103 N 0.85632 0.52349 0.24678
 C104 C 0.84322 0.52700 0.26387
 C105 C 0.83133 0.54617 0.26519
 C106 C 0.84654 0.55767 0.23127
 C107 C 0.86974 0.45465 0.24288
 C108 C 0.85973 0.43463 0.24203
 C109 C 0.82529 0.45246 0.24619
 C110 C 0.83602 0.47226 0.24697
 N111 N 0.85790 0.47290 0.24563
 H112 H 0.86912 0.53567 0.21752
 H113 H 0.84233 0.51507 0.27669
 H114 H 0.82102 0.54873 0.27893
 H115 H 0.84870 0.56951 0.21852
 H116 H 0.88709 0.45571 0.24152
 H117 H 0.86951 0.42034 0.23979
 H118 H 0.80791 0.45210 0.24775
 H119 H 0.82690 0.48700 0.24881
 C120 C 0.91386 0.49627 0.18330
 C121 C 0.91226 0.50017 0.31247
 C122 C 0.83724 0.43329 0.24392
 C123 C 0.83302 0.56185 0.24877
 C124 C 0.59377 0.52105 0.72601
 H125 H 0.59336 0.53373 0.73784
 C126 C 0.58157 0.52303 0.70700
 H127 H 0.57147 0.53713 0.70444
 C128 C 0.60794 0.48752 0.71469
 H129 H 0.61874 0.47404 0.71732
 C130 C 0.59596 0.48878 0.69558
 H131 H 0.59767 0.47613 0.68382
 N132 N 0.60665 0.50350 0.72946
 C133 C 0.62140 0.49906 0.79818
 H134 H 0.63878 0.49799 0.79711
 C135 C 0.61152 0.49752 0.81821
 H136 H 0.62144 0.49513 0.83250
 C137 C 0.58745 0.50271 0.78058
 H138 H 0.57819 0.50450 0.76582
 C139 C 0.57685 0.50121 0.80036
 H140 H 0.55942 0.50224 0.80069
 Zn141 Zn 0.62505 0.50273 0.75398
 N142 N 0.60936 0.50181 0.77993
 C143 C 0.64084 0.54251 0.76902
 N144 N 0.64219 0.52786 0.75293
 C145 C 0.65411 0.53183 0.73503
 C146 C 0.66518 0.55130 0.73274
 C147 C 0.65161 0.56214 0.76739
 C148 C 0.63081 0.45873 0.75670
 C149 C 0.64148 0.43893 0.75677
 C150 C 0.67513 0.45773 0.75153
 C151 C 0.66375 0.47727 0.75151
 N152 N 0.64194 0.47734 0.75378
 H153 H 0.63092 0.53933 0.78289
 H154 H 0.65453 0.52009 0.72227
 H155 H 0.67413 0.55444 0.71814
 H156 H 0.65026 0.57360 0.78035
 H157 H 0.61352 0.45933 0.75884
 H158 H 0.63228 0.42432 0.75919
 H159 H 0.69243 0.45785 0.74932
 H160 H 0.67231 0.49230 0.74961
 C161 C 0.58895 0.49867 0.81951
 C162 C 0.58269 0.50677 0.69145
 C163 C 0.66390 0.43823 0.75399
 C164 C 0.66373 0.56688 0.74894
 C165 C 0.27629 0.09403 0.98202
 H166 H 0.26416 0.09352 0.96939
 C167 C 0.29518 0.08177 0.98031
 H168 H 0.29735 0.07155 0.96644
 C169 C 0.28844 0.10838 1.01521
 H170 H 0.28614 0.11925 1.02847
 C171 C 0.30745 0.09636 1.01420
 H172 H 0.31950 0.09812 1.02680
 N173 N 0.27328 0.10698 0.99930
 C174 C 0.20466 0.12106 1.00396
 H175 H 0.20570 0.13845 1.00460
 C176 C 0.18474 0.11102 1.00610
 H177 H 0.17042 0.12086 1.00801
 C178 C 0.22224 0.08726 1.00054
 H179 H 0.23698 0.07811 0.99874
 C180 C 0.20256 0.07651 1.00258
 H181 H 0.20231 0.05906 1.00230
 Zn182 Zn 0.24866 0.12512 0.99992
 N183 N 0.22286 0.10916 1.00113
 C184 C 0.23250 0.14059 0.96001
 N185 N 0.24887 0.14242 0.97462
 C186 C 0.26639 0.15485 0.97040
 C187 C 0.26801 0.16587 0.95068
 C188 C 0.23346 0.15129 0.94017
 C189 C 0.24669 0.13014 1.04371
 C190 C 0.24615 0.14034 1.06355
 C191 C 0.25025 0.17451 1.04504
 C192 C 0.25075 0.16349 1.02547
 N193 N 0.24918 0.14169 1.02524
 H194 H 0.21893 0.13028 0.96339
 H195 H 0.27939 0.15566 0.98211
 H196 H 0.28234 0.17519 0.94734
 H197 H 0.22029 0.14951 0.92875
 H198 H 0.24487 0.11282 1.04296
 H199 H 0.24302 0.13016 1.07739
 H200 H 0.25257 0.19174 1.04424
 H201 H 0.25245 0.17239 1.01050
 C202 C 0.18350 0.08846 1.00550
 C203 C 0.31109 0.08293 0.99653
 C204 C 0.24807 0.16306 1.06487
 C205 C 0.25153 0.16386 0.93514
 C206 C 0.72537 0.40403 0.98347
 H207 H 0.73676 0.40505 0.97038
 C208 C 0.70584 0.41539 0.98215
 H209 H 0.70243 0.42544 0.96813
 C210 C 0.71574 0.38926 1.01742
 H211 H 0.71926 0.37858 1.03086
 C212 C 0.69615 0.40037 1.01681
 H213 H 0.68490 0.39810 1.02989
 N214 N 0.72993 0.39128 1.00093
 C215 C 0.79928 0.37993 1.00395
 H216 H 0.79889 0.36255 1.00553
 C217 C 0.81894 0.39066 1.00457
 H218 H 0.83365 0.38140 1.00681
 C219 C 0.78032 0.41302 0.99975
 H220 H 0.76518 0.42162 0.99804
 C221 C 0.79972 0.42447 1.00033
 H222 H 0.79938 0.44187 0.99871
 Zn223 Zn 0.75531 0.37414 1.00117
 N224 N 0.78052 0.39113 1.00131
 C225 C 0.77042 0.35965 0.96115
 N226 N 0.75469 0.35698 0.97608
 C227 C 0.73751 0.34395 0.97227
 C228 C 0.73558 0.33316 0.95264
 C229 C 0.76913 0.34922 0.94140
 C230 C 0.75987 0.36905 1.04497
 C231 C 0.76091 0.35892 1.06508
 C232 C 0.75558 0.32477 1.04756
 C233 C 0.75466 0.33571 1.02769
 N234 N 0.75647 0.35749 1.02685
 H235 H 0.78370 0.37042 0.96417
 H236 H 0.72498 0.34248 0.98420
 H237 H 0.72150 0.32334 0.94961
 H238 H 0.78179 0.35168 0.92974
 H239 H 0.76182 0.38635 1.04374
 H240 H 0.76465 0.36910 1.07859
 H241 H 0.75289 0.30760 1.04725
 H242 H 0.75220 0.32679 1.01301
 C243 C 0.81937 0.41322 1.00260
 C244 C 0.69090 0.41355 0.99897
 C245 C 0.75845 0.33627 1.06708
 C246 C 0.75137 0.33605 0.93677
 C247 C 0.22544 0.90344 0.48309
 H248 H 0.23683 0.90493 0.47005
 C249 C 0.20548 0.91402 0.48170
 H250 H 0.20161 0.92367 0.46752
 C251 C 0.21611 0.88795 0.51681
 H252 H 0.21996 0.87735 0.53023
 C253 C 0.19605 0.89818 0.51608
 H254 H 0.18498 0.89573 0.52928
 N255 N 0.23031 0.89062 0.50042
 C256 C 0.29987 0.88001 0.50254
 H257 H 0.29966 0.86262 0.50411
 C258 C 0.31945 0.89091 0.50282
 H259 H 0.33427 0.88178 0.50480
 C260 C 0.28057 0.91293 0.49870
 H261 H 0.26533 0.92139 0.49725
 C262 C 0.29987 0.92455 0.49894
 H263 H 0.29936 0.94195 0.49735
 Zn264 Zn 0.25592 0.87383 0.50040
 N265 N 0.28098 0.89104 0.50024
 C266 C 0.27064 0.85909 0.46023
 N267 N 0.25508 0.85663 0.47536
 C268 C 0.23783 0.84361 0.47190
 C269 C 0.23567 0.83253 0.45248
 C270 C 0.26913 0.84836 0.44065
 C271 C 0.26063 0.86845 0.54429
 C272 C 0.26133 0.85804 0.56428
 C273 C 0.25619 0.82407 0.54625
 C274 C 0.25559 0.83520 0.52649
 N275 N 0.25742 0.85705 0.52597
 H276 H 0.28398 0.86987 0.46298
 H277 H 0.22542 0.84232 0.48400
 H278 H 0.22155 0.82268 0.44976
 H279 H 0.28167 0.85061 0.42882
 H280 H 0.26234 0.88579 0.54333
 H281 H 0.26384 0.86748 0.57866
 H282 H 0.25414 0.80674 0.54652
 H283 H 0.25338 0.82642 0.51169
 C284 C 0.31965 0.91347 0.50086
 C285 C 0.19035 0.91113 0.49821
 C286 C 0.25879 0.83559 0.56549
 C287 C 0.25132 0.83512 0.43642
 C288 C 0.77529 0.59380 0.48108
 H289 H 0.76316 0.59284 0.46848
 C290 C 0.79435 0.58175 0.47964
 H291 H 0.79663 0.57123 0.46603
 C292 C 0.78728 0.60913 0.51388
 H293 H 0.78484 0.62030 0.52686
 C294 C 0.80646 0.59735 0.51313
 H295 H 0.81850 0.59958 0.52566
 N296 N 0.77214 0.60717 0.49802
 C297 C 0.70342 0.62126 0.50217
 H298 H 0.70448 0.63867 0.50230
 C299 C 0.68349 0.61133 0.50464
 H300 H 0.66919 0.62125 0.50628
 C301 C 0.72095 0.58733 0.49973
 H302 H 0.73568 0.57811 0.49819
 C303 C 0.70125 0.57668 0.50213
 H304 H 0.70096 0.55922 0.50236
 Zn305 Zn 0.74742 0.62521 0.49809
 N306 N 0.72160 0.60925 0.49969
 C307 C 0.73126 0.63977 0.45777
 N308 N 0.74764 0.64186 0.47233
 C309 C 0.76513 0.65425 0.46792
 C310 C 0.76665 0.66510 0.44810
 C311 C 0.73212 0.65030 0.43783
 C312 C 0.74514 0.63169 0.54178
 C313 C 0.74409 0.64274 0.56115
 C314 C 0.74840 0.67621 0.54135
 C315 C 0.74931 0.66446 0.52224
 N316 N 0.74779 0.64259 0.52287
 H317 H 0.71772 0.62949 0.46132
 H318 H 0.77814 0.65527 0.47960
 H319 H 0.78092 0.67448 0.44465
 H320 H 0.71891 0.64840 0.42648
 H321 H 0.74377 0.61431 0.54174
 H322 H 0.74225 0.63368 0.57604
 H323 H 0.74940 0.69363 0.54065
 H324 H 0.75096 0.67282 0.50697
 C325 C 0.68220 0.58875 0.50473
 C326 C 0.81028 0.58355 0.49578
 C327 C 0.74561 0.66530 0.56112
 C328 C 0.75010 0.66295 0.43265
 C329 C 0.01567 0.22520 0.09468
 H330 H 0.02857 0.23687 0.09397
 C331 C 0.01725 0.20599 0.08318
 H332 H 0.03127 0.20312 0.07332
 C333 C -0.01801 0.21448 0.10891
 H334 H -0.03141 0.21743 0.11948
 C335 C -0.01714 0.19518 0.09765
 H336 H -0.02999 0.18358 0.09967
 N337 N -0.00176 0.22904 0.10727
 C338 C -0.00576 0.29779 0.12026
 H339 H -0.00755 0.29653 0.13757
 C340 C -0.00659 0.31793 0.11017
 H341 H -0.00975 0.33172 0.12018
 C342 C -0.00111 0.28054 0.08680
 H343 H 0.00101 0.26586 0.07781
 C344 C -0.00187 0.30044 0.07593
 H345 H 0.00044 0.30046 0.05868
 Zn346 Zn -0.00206 0.25376 0.12493
 N347 N -0.00277 0.27966 0.10861
 C348 C 0.03775 0.26926 0.14062
 N349 N 0.02327 0.25292 0.14225
 C350 C 0.02754 0.23516 0.15466
 C351 C 0.04706 0.23335 0.16605
 C352 C 0.05736 0.26816 0.15177
 C353 C -0.04602 0.25722 0.13045
 C354 C -0.06568 0.25811 0.14108
 C355 C -0.04666 0.25238 0.17487
 C356 C -0.02725 0.25165 0.16354
 N357 N -0.02736 0.25388 0.14169
 H358 H 0.03445 0.28295 0.13019
 H359 H 0.01593 0.22220 0.15536
 H360 H 0.05023 0.21908 0.17581
 H361 H 0.06884 0.28112 0.14978
 H362 H -0.04557 0.25911 0.11309
 H363 H -0.08036 0.26038 0.13172
 H364 H -0.04637 0.25070 0.19227
 H365 H -0.01219 0.24941 0.17219
 C366 C -0.00441 0.31978 0.08757
 C367 C 0.00073 0.19062 0.08471
 C368 C -0.06620 0.25568 0.16359
 C369 C 0.06232 0.24998 0.16457
 C370 C 0.01700 0.77306 0.40534
 H371 H 0.02977 0.76111 0.40590
 C372 C 0.01884 0.79189 0.41741
 H373 H 0.03295 0.79419 0.42752
 C374 C -0.01670 0.78479 0.39107
 H375 H -0.03023 0.78235 0.38030
 C376 C -0.01557 0.80375 0.40288
 H377 H -0.02833 0.81562 0.40107
 N378 N -0.00058 0.76987 0.39250
 C379 C -0.00459 0.70123 0.37895
 H380 H -0.00577 0.70238 0.36155
 C381 C -0.00602 0.68119 0.38917
 H382 H -0.00842 0.66696 0.37949
 C383 C -0.00085 0.71867 0.41258
 H384 H 0.00090 0.73337 0.42160
 C385 C -0.00224 0.69886 0.42352
 H386 H -0.00114 0.69846 0.44095
 Zn387 Zn -0.00131 0.74542 0.37451
 N388 N -0.00186 0.71942 0.39067
 C389 C 0.03834 0.72995 0.35852
 N390 N 0.02364 0.74627 0.35714
 C391 C 0.02737 0.76415 0.34486
 C392 C 0.04656 0.76613 0.33335
 C393 C 0.05766 0.73122 0.34724
 C394 C -0.04533 0.74285 0.36907
 C395 C -0.06525 0.74228 0.35857
 C396 C -0.04697 0.74715 0.32468
 C397 C -0.02733 0.74766 0.33598
 N398 N -0.02693 0.74574 0.35779
 H399 H 0.03545 0.71617 0.36885
 H400 H 0.01558 0.77707 0.34435
 H401 H 0.04929 0.78049 0.32369
 H402 H 0.06936 0.71828 0.34902
 H403 H -0.04446 0.74077 0.38640
 H404 H -0.07902 0.73886 0.36855
 H405 H -0.04628 0.74980 0.30747
 H406 H -0.01244 0.74968 0.32728
 C407 C -0.00478 0.67978 0.41174
 C408 C 0.00244 0.80758 0.41616
 C409 C -0.06674 0.74458 0.33583
 C410 C 0.06207 0.74954 0.33457
 C411 C 0.52076 0.27695 0.90604
 H412 H 0.53343 0.26488 0.90646
 C413 C 0.52297 0.29582 0.91797
 H414 H 0.53725 0.29804 0.92787
 C415 C 0.48698 0.28894 0.89218
 H416 H 0.47329 0.28658 0.88160
 C417 C 0.48847 0.30793 0.90388
 H418 H 0.47579 0.31992 0.90221
 N419 N 0.50297 0.27387 0.89347
 C420 C 0.49827 0.20524 0.88013
 H421 H 0.49682 0.20639 0.86275
 C422 C 0.49705 0.18520 0.89037
 H423 H 0.49451 0.17097 0.88074
 C424 C 0.50261 0.22268 0.91370
 H425 H 0.50455 0.23738 0.92268
 C426 C 0.50142 0.20287 0.92466
 H427 H 0.50284 0.20245 0.94207
 Zn428 Zn 0.50181 0.24937 0.87558
 N429 N 0.50123 0.22342 0.89180
 C430 C 0.54115 0.23353 0.85919
 N431 N 0.52658 0.24997 0.85798
 C432 C 0.53030 0.26782 0.84564
 C433 C 0.54935 0.26961 0.83388
 C434 C 0.56033 0.23462 0.84767
 C435 C 0.45760 0.24738 0.87034
 C436 C 0.43770 0.24699 0.85976
 C437 C 0.45614 0.25120 0.82582
 C438 C 0.47578 0.25156 0.83711
 N439 N 0.47609 0.24987 0.85900
 H440 H 0.53828 0.21978 0.86957
 H441 H 0.51861 0.28083 0.84527
 H442 H 0.55208 0.28394 0.82417
 H443 H 0.57193 0.22159 0.84930
 H444 H 0.45839 0.24566 0.88771
 H445 H 0.42320 0.24480 0.86913
 H446 H 0.45609 0.25284 0.80842
 H447 H 0.49071 0.25311 0.82839
 C448 C 0.49873 0.18379 0.91292
 C449 C 0.50670 0.31165 0.91689
 C450 C 0.43676 0.24899 0.83721
 C451 C 0.56472 0.25290 0.83491
 C452 C 0.51499 0.72604 0.59530
 H453 H 0.52782 0.73777 0.59423
 C454 C 0.51660 0.70658 0.58422
 H455 H 0.53057 0.70357 0.57432
 C456 C 0.48146 0.71545 0.60997
 H457 H 0.46810 0.71857 0.62054
 C458 C 0.48236 0.69591 0.59914
 H459 H 0.46958 0.68431 0.60149
 N460 N 0.49760 0.73009 0.60787
 C461 C 0.49306 0.79924 0.61863
 H462 H 0.49178 0.79871 0.63601
 C463 C 0.49168 0.81893 0.60768
 H464 H 0.48965 0.83356 0.61682
 C465 C 0.49761 0.78065 0.58578
 H466 H 0.49965 0.76563 0.57735
 C467 C 0.49637 0.80008 0.57413
 H468 H 0.49748 0.79987 0.55673
 Zn469 Zn 0.49712 0.75531 0.62479
 N470 N 0.49614 0.78065 0.60765
 C471 C 0.53686 0.77147 0.64000
 N472 N 0.52246 0.75511 0.64205
 C473 C 0.52683 0.73761 0.65479
 C474 C 0.54645 0.73605 0.66603
 C475 C 0.55657 0.77061 0.65099
 C476 C 0.45318 0.75840 0.63019
 C477 C 0.43345 0.75865 0.64069
 C478 C 0.45243 0.75389 0.67464
 C479 C 0.47191 0.75370 0.66342
 N480 N 0.47186 0.75563 0.64155
 H481 H 0.53344 0.78494 0.62933
 H482 H 0.51527 0.72464 0.65581
 H483 H 0.54973 0.72196 0.67602
 H484 H 0.56803 0.78353 0.64864
 H485 H 0.45368 0.76023 0.61283
 H486 H 0.41879 0.76091 0.63129
 H487 H 0.45264 0.75188 0.69201
 H488 H 0.48699 0.75187 0.67215
 C489 C 0.49335 0.81955 0.58514
 C490 C 0.50016 0.69118 0.58617
 C491 C 0.43285 0.75615 0.66319
 C492 C 0.56168 0.75264 0.66406
 C493 C 0.90723 0.98425 0.72110
 H494 H 0.90882 0.97124 0.73279
 C495 C 0.91851 0.98376 0.70276
 H496 H 0.92956 0.97047 0.70043
 C497 C 0.89087 1.01790 0.71168
 H498 H 0.87960 1.03080 0.71461
 C499 C 0.90304 1.01819 0.69144
 H500 H 0.89961 1.03133 0.68033
 N501 N 0.89303 1.00203 0.72543
 C502 C 0.88035 1.00610 0.79541
 H503 H 0.86317 1.00917 0.79423
 C504 C 0.89011 1.00568 0.81466
 H505 H 0.88050 1.00923 0.82864
 C506 C 0.91325 1.00007 0.77681
 H507 H 0.92209 0.99768 0.76209
 C508 C 0.92483 0.99948 0.79778
 H509 H 0.94190 0.99589 0.79753
 Zn510 Zn 0.87567 1.00189 0.75053
 N511 N 0.89242 1.00260 0.77614
 C512 C 0.86126 0.96237 0.76770
 N513 N 0.85886 0.97638 0.75079
 C514 C 0.84572 0.97168 0.73380
 C515 C 0.83421 0.95231 0.73354
 C516 C 0.85006 0.94295 0.76813
 C517 C 0.86939 1.04576 0.75364
 C518 C 0.85877 1.06557 0.75247
 C519 C 0.82538 1.04678 0.74557
 C520 C 0.83671 1.02721 0.74685
 N521 N 0.85840 1.02714 0.75040
 H522 H 0.87225 0.96593 0.78076
 H523 H 0.84438 0.98288 0.72035
 H524 H 0.82375 0.94885 0.71995
 H525 H 0.85261 0.93191 0.78157
 H526 H 0.88660 1.04518 0.75666
 H527 H 0.86789 1.08019 0.75497
 H528 H 0.80823 1.04668 0.74214
 H529 H 0.82825 1.01221 0.74457
 C530 C 0.91381 1.00158 0.81642
 C531 C 0.91643 1.00173 0.68656
 C532 C 0.83654 1.06630 0.74804
 C533 C 0.83633 0.93765 0.75091
 C534 C 0.40646 0.48254 0.22404
 H535 H 0.40783 0.46975 0.23599
 C536 C 0.41868 0.48168 0.20519
 H537 H 0.42967 0.46831 0.20287
 C538 C 0.39023 0.51534 0.21235
 H539 H 0.37873 0.52817 0.21478
 C540 C 0.40213 0.51517 0.19342
 H541 H 0.39959 0.52793 0.18159
 N542 N 0.39270 0.49931 0.22735
 C543 C 0.38079 0.50543 0.29617
 H544 H 0.36347 0.50750 0.29521
 C545 C 0.39125 0.50607 0.31611
 H546 H 0.38180 0.50850 0.33048
 C547 C 0.41390 0.49899 0.27849
 H548 H 0.42263 0.49630 0.26376
 C549 C 0.42506 0.49943 0.29820
 H550 H 0.44239 0.49717 0.29847
 Zn551 Zn 0.37531 0.49987 0.25238
 N552 N 0.39210 0.50161 0.27792
 C553 C 0.36138 0.46060 0.27060
 N554 N 0.35879 0.47419 0.25338
 C555 C 0.34578 0.46892 0.23648
 C556 C 0.33471 0.44929 0.23654
 C557 C 0.35065 0.44092 0.27133
 C558 C 0.36852 0.54379 0.25363
 C559 C 0.35756 0.56340 0.25211
 C560 C 0.32431 0.54388 0.24685
 C561 C 0.33598 0.52453 0.24843
 N562 N 0.35775 0.52490 0.25138
 H563 H 0.37210 0.46473 0.28369
 H564 H 0.34433 0.47979 0.22277
 H565 H 0.32476 0.44515 0.22277
 H566 H 0.35291 0.43046 0.28527
 H567 H 0.38580 0.54357 0.25624
 H568 H 0.36650 0.57824 0.25389
 H569 H 0.30706 0.54340 0.24399
 H570 H 0.32770 0.50932 0.24697
 C571 C 0.41365 0.50287 0.31736
 C572 C 0.41661 0.49822 0.18961
 C573 C 0.33520 0.56365 0.24839
 C574 C 0.33727 0.43491 0.25408
 C575 C 0.58575 0.99915 0.27443
 H576 H 0.57648 0.99747 0.25969
 C577 C 0.57560 1.00130 0.29330
 H578 H 0.55816 1.00168 0.29313
 C579 C 0.62038 1.00242 0.29101
 H580 H 0.63776 1.00328 0.28993
 C581 C 0.61000 1.00473 0.31209
 H582 H 0.62056 1.00587 0.32599
 N583 N 0.60889 0.99973 0.27363
 C584 C 0.60834 1.01425 0.20759
 H585 H 0.61898 1.02774 0.21009
 C586 C 0.59721 1.01260 0.18804
 H587 H 0.59901 1.02520 0.17597
 C588 C 0.59370 0.98114 0.21985
 H589 H 0.59292 0.96867 0.23215
 C590 C 0.58224 0.97884 0.20047
 H591 H 0.57260 0.96456 0.19799
 Zn592 Zn 0.62470 0.99937 0.24771
 N593 N 0.60656 0.99857 0.22297
 C594 C 0.65483 0.97133 0.22912
 N595 N 0.64269 0.97462 0.24695
 C596 C 0.64191 0.95966 0.26312
 C597 C 0.65367 0.94049 0.26173
 C598 C 0.66679 0.95231 0.22703
 C599 C 0.62922 1.04349 0.24993
 C600 C 0.63939 1.06341 0.25116
 C601 C 0.67372 1.04524 0.24792
 C602 C 0.66278 1.02559 0.24670
 N603 N 0.64091 1.02513 0.24760
 H604 H 0.65487 0.98333 0.21633
 H605 H 0.63170 0.96222 0.27687
 H606 H 0.65238 0.92857 0.27454
 H607 H 0.67632 0.94993 0.21270
 H608 H 0.61184 1.04256 0.25117
 H609 H 0.62931 1.07735 0.25392
 H610 H 0.69108 1.04492 0.24641
 H611 H 0.67180 1.01074 0.24514
 C612 C 0.58425 0.99454 0.18410
 C613 C 0.58827 1.00445 0.31369
 C614 C 0.66210 1.06478 0.25015
 C615 C 0.66619 0.93652 0.24343
 C616 C 0.08578 0.49850 0.77499
 H617 H 0.07678 0.49705 0.76007
 C618 C 0.07478 0.50047 0.79449
 H619 H 0.05732 0.50045 0.79441
 C620 C 0.11941 0.50136 0.79320
 H621 H 0.13683 0.50192 0.79248
 C622 C 0.10912 0.50341 0.81295
 H623 H 0.11880 0.50513 0.82745
 N624 N 0.10771 0.49894 0.77474
 C625 C 0.10741 0.51397 0.70905
 H626 H 0.11796 0.52750 0.71170
 C627 C 0.09595 0.51264 0.68964
 H628 H 0.09744 0.52551 0.67782
 C629 C 0.09316 0.48053 0.72087
 H630 H 0.09260 0.46785 0.73297
 C631 C 0.08138 0.47856 0.70165
 H632 H 0.07178 0.46427 0.69907
 Zn633 Zn 0.12391 0.49852 0.74904
 N634 N 0.10592 0.49800 0.72416
 C635 C 0.15394 0.47013 0.73068
 N636 N 0.14163 0.47353 0.74838
 C637 C 0.14052 0.45853 0.76450
 C638 C 0.15209 0.43923 0.76320
 C639 C 0.16575 0.45099 0.72869
 C640 C 0.12897 0.54266 0.75178
 C641 C 0.13949 0.56238 0.75348
 C642 C 0.17357 0.54373 0.75002
 C643 C 0.16234 0.52426 0.74841
 N644 N 0.14042 0.52413 0.74925
 H645 H 0.15426 0.48216 0.71792
 H646 H 0.13018 0.46119 0.77814
 H647 H 0.15054 0.42731 0.77597
 H648 H 0.17544 0.44857 0.71448
 H649 H 0.11156 0.54203 0.75263
 H650 H 0.12999 0.57694 0.75524
 H651 H 0.19102 0.54356 0.74963
 H652 H 0.17116 0.50929 0.74686
 C653 C 0.08296 0.49462 0.68559
 C654 C 0.08650 0.50315 0.81380
 C655 C 0.16210 0.56312 0.75274
 C656 C 0.16481 0.43517 0.74505
 C657 C 0.77888 0.90554 0.01187
 H658 H 0.76760 0.90652 0.02503
 C659 C 0.79824 0.91706 0.01272
 H660 H 0.80176 0.92688 0.02662
 C661 C 0.78853 0.89068 -0.02173
 H662 H 0.78503 0.88011 -0.03499
 C663 C 0.80797 0.90184 -0.02154
 H664 H 0.81887 0.90005 -0.03494
 N665 N 0.77438 0.89271 -0.00523
 C666 C 0.70526 0.88193 -0.01150
 H667 H 0.70611 0.86500 -0.01544
 C668 C 0.68526 0.89208 -0.01008
 H669 H 0.67079 0.88296 -0.01344
 C670 C 0.72321 0.91416 -0.00194
 H671 H 0.73804 0.92256 0.00155
 C672 C 0.70345 0.92500 -0.00033
 H673 H 0.70324 0.94173 0.00449
 Zn674 Zn 0.74898 0.87574 -0.00562
 N675 N 0.72366 0.89285 -0.00691
 C676 C 0.73102 0.86149 0.03337
 N677 N 0.74817 0.85885 0.02010
 C678 C 0.76492 0.84564 0.02581
 C679 C 0.76475 0.83449 0.04559
 C680 C 0.73019 0.85071 0.05313
 C681 C 0.74539 0.86957 -0.04947
 C682 C 0.74602 0.85892 -0.06909
 C683 C 0.75358 0.82564 -0.04977
 C684 C 0.75271 0.83697 -0.03040
 N685 N 0.74898 0.85860 -0.03067
 H686 H 0.71802 0.87232 0.02895
 H687 H 0.77859 0.84413 0.01522
 H688 H 0.77839 0.82439 0.05011
 H689 H 0.71629 0.85305 0.06331
 H690 H 0.74248 0.88677 -0.04918
 H691 H 0.74370 0.86812 -0.08388
 H692 H 0.75667 0.80844 -0.04938
 H693 H 0.75529 0.82853 -0.01525
 C694 C 0.68413 0.91374 -0.00390
 C695 C 0.81316 0.91509 -0.00408
 C696 C 0.75030 0.83670 -0.06946
 C697 C 0.74729 0.83720 0.05963
 C698 C 0.27757 0.40562 0.51315
 H699 H 0.26616 0.40677 0.52619
 C700 C 0.29687 0.41725 0.51398
 H701 H 0.30020 0.42735 0.52773
 C702 C 0.28765 0.39016 0.47996
 H703 H 0.28436 0.37930 0.46689
 C704 C 0.30703 0.40144 0.48013
 H705 H 0.31809 0.39943 0.46688
 N706 N 0.27333 0.39240 0.49628
 C707 C 0.20433 0.38030 0.49017
 H708 H 0.20552 0.36327 0.48672
 C709 C 0.18414 0.39013 0.49111
 H710 H 0.16987 0.38065 0.48791
 C711 C 0.22162 0.41313 0.49883
 H712 H 0.23628 0.42191 0.50212
 C713 C 0.20164 0.42367 0.49995
 H714 H 0.20110 0.44055 0.50421
 Zn715 Zn 0.24815 0.37504 0.49606
 N716 N 0.22251 0.39169 0.49451
 C717 C 0.23049 0.36090 0.53528
 N718 N 0.24761 0.35837 0.52196
 C719 C 0.26452 0.34537 0.52767
 C720 C 0.26452 0.33426 0.54747
 C721 C 0.22983 0.35016 0.55509
 C722 C 0.24487 0.36836 0.45226
 C723 C 0.24556 0.35748 0.43276
 C724 C 0.25314 0.32444 0.45248
 C725 C 0.25221 0.33599 0.47172
 N726 N 0.24843 0.35762 0.47120
 H727 H 0.21737 0.37158 0.53086
 H728 H 0.27816 0.34394 0.51702
 H729 H 0.27827 0.32431 0.55197
 H730 H 0.21594 0.35238 0.56530
 H731 H 0.24190 0.38556 0.45234
 H732 H 0.24323 0.36650 0.41787
 H733 H 0.25624 0.30724 0.45308
 H734 H 0.25475 0.32773 0.48696
 C735 C 0.18255 0.41198 0.49656
 C736 C 0.31200 0.41503 0.49739
 C737 C 0.24987 0.33525 0.43266
 C738 C 0.24707 0.33680 0.56156
 C739 C 0.22279 0.59520 0.01763
 H740 H 0.23363 0.59276 0.03123
 C741 C 0.20274 0.58488 0.01721
 H742 H 0.19856 0.57492 0.03095
 C743 C 0.21495 0.61261 -0.01564
 H744 H 0.21948 0.62360 -0.02838
 C745 C 0.19487 0.60274 -0.01673
 H746 H 0.18517 0.60582 -0.03101
 N747 N 0.22853 0.60872 0.00130
 C748 C 0.29842 0.61549 -0.00128
 H749 H 0.29885 0.63279 -0.00365
 C750 C 0.31754 0.60363 -0.00115
 H751 H 0.33269 0.61199 -0.00327
 C752 C 0.27805 0.58382 0.00501
 H753 H 0.26259 0.57621 0.00733
 C754 C 0.29690 0.57129 0.00539
 H755 H 0.29579 0.55403 0.00790
 Zn756 Zn 0.25493 0.62412 0.00238
 N757 N 0.27922 0.60555 0.00200
 C758 C 0.27226 0.63723 0.04226
 N759 N 0.25566 0.64044 0.02806
 C760 C 0.23912 0.65409 0.03265
 C761 C 0.23896 0.66524 0.05214
 C762 C 0.27275 0.64801 0.06184
 C763 C 0.25996 0.63114 -0.04124
 C764 C 0.25877 0.64199 -0.06098
 C765 C 0.25161 0.67505 -0.04201
 C766 C 0.25293 0.66350 -0.02251
 N767 N 0.25649 0.64184 -0.02258
 H768 H 0.28506 0.62603 0.03865
 H769 H 0.22586 0.65602 0.02131
 H770 H 0.22549 0.67574 0.05570
 H771 H 0.28622 0.64528 0.07279
 H772 H 0.26285 0.61392 -0.04079
 H773 H 0.26121 0.63307 -0.07567
 H774 H 0.24792 0.69213 -0.04181
 H775 H 0.25036 0.67172 -0.00748
 C776 C 0.31698 0.58125 0.00234
 C777 C 0.18811 0.58871 -0.00008
 C778 C 0.25401 0.66413 -0.06159
 C779 C 0.25589 0.66210 0.06711
 C780 C 0.72380 0.09569 0.51864
 H781 H 0.73481 0.09319 0.53208
 C782 C 0.70374 0.08537 0.51844
 H783 H 0.69941 0.07494 0.53181
 C784 C 0.71557 0.11309 0.48536
 H785 H 0.71988 0.12421 0.47264
 C786 C 0.69548 0.10319 0.48452
 H787 H 0.68492 0.10646 0.47086
 N788 N 0.72936 0.10918 0.50217
 C789 C 0.79942 0.11581 0.50036
 H790 H 0.79994 0.13307 0.49774
 C791 C 0.81856 0.10401 0.50174
 H792 H 0.83377 0.11229 0.49981
 C793 C 0.77882 0.08418 0.50598
 H794 H 0.76328 0.07658 0.50773
 C795 C 0.79766 0.07168 0.50743
 H796 H 0.79646 0.05451 0.51046
 Zn797 Zn 0.75581 0.12454 0.50298
 N798 N 0.78010 0.10590 0.50296
 C799 C 0.77295 0.13777 0.54291
 N800 N 0.75660 0.14123 0.52848
 C801 C 0.74040 0.15541 0.53269
 C802 C 0.74042 0.16694 0.55198
 C803 C 0.77360 0.14890 0.56229
 C804 C 0.76040 0.13094 0.45916
 C805 C 0.75923 0.14162 0.43931
 C806 C 0.75314 0.17504 0.45802
 C807 C 0.75442 0.16366 0.47762
 N808 N 0.75743 0.14191 0.47775
 H809 H 0.78543 0.12611 0.53968
 H810 H 0.72730 0.15753 0.52121
 H811 H 0.72723 0.17790 0.55523
 H812 H 0.78690 0.14597 0.57340
 H813 H 0.76288 0.11367 0.45976
 H814 H 0.76127 0.13248 0.42469
 H815 H 0.74989 0.19220 0.45810
 H816 H 0.75230 0.17211 0.49259
 C817 C 0.81788 0.08170 0.50570
 C818 C 0.68922 0.08925 0.50126
 C819 C 0.75503 0.16387 0.43852
 C820 C 0.75714 0.16360 0.56714
 C821 C 0.98364 0.72537 0.90552
 H822 H 0.97004 0.73623 0.90706
 C823 C 0.98418 0.70671 0.91664
 H824 H 0.97108 0.70328 0.92751
 C825 C 1.01768 0.71846 0.88947
 H826 H 1.03044 0.72259 0.87849
 C827 C 1.01908 0.69790 0.90144
 H828 H 1.03279 0.68769 0.89809
 N829 N 1.00113 0.73120 0.89162
 C830 C 1.00289 0.80195 0.88159
 H831 H 1.00477 0.80214 0.86426
 C832 C 1.00252 0.82044 0.89237
 H833 H 1.00354 0.83528 0.88314
 C834 C 0.99770 0.78087 0.91348
 H835 H 0.99585 0.76550 0.92157
 C836 C 0.99711 0.80093 0.92613
 H837 H 0.99556 0.79929 0.94341
 Zn838 Zn 0.99983 0.75709 0.87500
 N839 N 1.00010 0.78174 0.89268
 C840 C 0.95987 0.77379 0.86037
 N841 N 0.97408 0.75718 0.85822
 C842 C 0.96967 0.74041 0.84495
 C843 C 0.95051 0.74018 0.83285
 C844 C 0.94062 0.77423 0.84858
 C845 C 1.04348 0.76263 0.86799
 C846 C 1.06296 0.76224 0.85698
 C847 C 1.04328 0.75443 0.82419
 C848 C 1.02409 0.75506 0.83586
 N849 N 1.02461 0.75865 0.85746
 H850 H 0.96323 0.78667 0.87143
 H851 H 0.98103 0.72719 0.84383
 H852 H 0.94738 0.72683 0.82218
 H853 H 0.92944 0.78747 0.85081
 H854 H 1.04342 0.76542 0.88518
 H855 H 1.07785 0.76466 0.86587
 H856 H 1.04267 0.75124 0.80706
 H857 H 1.00891 0.75222 0.82773
 C858 C 0.99936 0.82035 0.91622
 C859 C 1.00301 0.69170 0.91467
 C860 C 1.06307 0.75777 0.83484
 C861 C 0.93573 0.75733 0.83454
 C862 C 0.48492 0.22722 0.40504
 H863 H 0.47131 0.23811 0.40626
 C864 C 0.48514 0.20776 0.41667
 H865 H 0.47173 0.20388 0.42706
 C866 C 0.51882 0.21891 0.38981
 H867 H 0.53173 0.22294 0.37896
 C868 C 0.51972 0.19940 0.40112
 H869 H 0.53335 0.18871 0.39877
 N870 N 0.50171 0.23248 0.39205
 C871 C 0.50388 0.30224 0.38333
 H872 H 0.50593 0.30280 0.36603
 C873 C 0.50345 0.32132 0.39497
 H874 H 0.50504 0.33655 0.38645
 C875 C 0.49866 0.28159 0.41523
 H876 H 0.49690 0.26606 0.42305
 C877 C 0.49805 0.30034 0.42753
 H878 H 0.49592 0.29907 0.44481
 Zn879 Zn 0.50080 0.25842 0.37559
 N880 N 0.50118 0.28292 0.39349
 C881 C 0.46081 0.27524 0.36103
 N882 N 0.47507 0.25870 0.35878
 C883 C 0.47057 0.24182 0.34568
 C884 C 0.45117 0.24131 0.33401
 C885 C 0.44130 0.27540 0.34966
 C886 C 0.54458 0.26329 0.36885
 C887 C 0.56411 0.26270 0.35792
 C888 C 0.54445 0.25550 0.32497
 C889 C 0.52522 0.25632 0.33656
 N890 N 0.52570 0.25972 0.35819
 H891 H 0.46426 0.28820 0.37196
 H892 H 0.48198 0.22864 0.34449
 H893 H 0.44790 0.22781 0.32356
 H894 H 0.43005 0.28855 0.35204
 H895 H 0.54448 0.26593 0.38606
 H896 H 0.57899 0.26481 0.36691
 H897 H 0.54387 0.25249 0.30781
 H898 H 0.51002 0.25378 0.32834
 C899 C 0.50033 0.32055 0.41736
 C900 C 0.50276 0.19358 0.41479
 C901 C 0.56425 0.25845 0.33574
 C902 C 0.43622 0.25828 0.33595
 C903 C 0.98293 0.27303 0.59500
 H904 H 0.96927 0.26228 0.59399
 C905 C 0.98256 0.29274 0.58371
 H906 H 0.96819 0.29674 0.57448
 C907 C 1.01717 0.28107 0.60982
 H908 H 1.03061 0.27679 0.62018
 C909 C 1.01752 0.30079 0.59891
 H910 H 1.03191 0.31042 0.60057
 N911 N 1.00006 0.26761 0.60782
 C912 C 1.00323 0.19808 0.61960
 H913 H 1.00652 0.19865 0.63675
 C914 C 1.00206 0.17826 0.60933
 H915 H 1.00485 0.16363 0.61866
 C916 C 0.99574 0.21665 0.58674
 H917 H 0.99316 0.23167 0.57809
 C918 C 0.99446 0.19707 0.57577
 H919 H 0.99073 0.19720 0.55868
 Zn920 Zn 0.99986 0.24208 0.62511
 N921 N 0.99968 0.21673 0.60836
 C922 C 0.96056 0.22574 0.64070
 N923 N 0.97471 0.24236 0.64245
 C924 C 0.97033 0.25952 0.65520
 C925 C 0.95117 0.26027 0.66697
 C926 C 0.94135 0.22580 0.65218
 C927 C 1.04378 0.23675 0.63078
 C928 C 1.06397 0.23824 0.64066
 C929 C 1.04641 0.24806 0.67373
 C930 C 1.02646 0.24638 0.66311
 N931 N 1.02558 0.24133 0.64187
 H932 H 0.96382 0.21255 0.63002
 H933 H 0.98158 0.27278 0.65599
 H934 H 0.94796 0.27401 0.67708
 H935 H 0.93019 0.21258 0.65013
 H936 H 1.04260 0.23251 0.61394
 H937 H 1.07788 0.23403 0.63117
 H938 H 1.04637 0.25334 0.69028
 H939 H 1.01179 0.24991 0.67168
 C940 C 0.99730 0.17753 0.58719
 C941 C 0.99991 0.30735 0.58578
 C942 C 1.06581 0.24457 0.66240
 C943 C 0.93637 0.24321 0.66551
 C944 C 0.48082 0.78607 0.10757
 H945 H 0.46727 0.78331 0.11802
 C946 C 0.48191 0.80529 0.09572
 H947 H 0.46906 0.81705 0.09719
 C948 C 0.51468 0.77485 0.09414
 H949 H 0.52757 0.76303 0.09398
 C950 C 0.51647 0.79393 0.08208
 H951 H 0.53064 0.79652 0.07232
 N952 N 0.49708 0.77131 0.10661
 C953 C 0.49421 0.70247 0.12122
 H954 H 0.49274 0.70355 0.13854
 C955 C 0.49374 0.68238 0.11141
 H956 H 0.49171 0.66807 0.12132
 C957 C 0.49805 0.72005 0.08735
 H958 H 0.49959 0.73481 0.07808
 C959 C 0.49763 0.70020 0.07682
 H960 H 0.49919 0.69984 0.05946
 Zn961 Zn 0.49689 0.74668 0.12497
 N962 N 0.49661 0.72075 0.10921
 C963 C 0.45284 0.74333 0.13061
 N964 N 0.47154 0.74642 0.14176
 C965 C 0.47174 0.74789 0.16363
 C966 C 0.45244 0.74642 0.17511
 C967 C 0.43328 0.74173 0.14139
 C968 C 0.53715 0.73167 0.14090
 C969 C 0.55692 0.73321 0.15167
 C970 C 0.54590 0.76793 0.16508
 C971 C 0.52622 0.76567 0.15410
 N972 N 0.52226 0.74776 0.14225
 H973 H 0.45320 0.74199 0.11324
 H974 H 0.48684 0.74992 0.17220
 H975 H 0.45287 0.74736 0.19253
 H976 H 0.41859 0.73955 0.13212
 H977 H 0.53409 0.71787 0.13089
 H978 H 0.56873 0.72046 0.14985
 H979 H 0.54884 0.78234 0.17434
 H980 H 0.51429 0.77844 0.15458
 C981 C 0.49563 0.68102 0.08893
 C982 C 0.50000 0.80954 0.08291
 C983 C 0.56161 0.75160 0.16380
 C984 C 0.43288 0.74317 0.16396
 O985 O -0.01201 0.98862 0.94232
 O986 O 0.02362 0.99911 0.94238
 O987 O -0.01526 0.94241 0.99483
 O988 O -0.00906 0.94171 1.03016
 O989 O -0.06341 0.99366 0.98881
 O990 O -0.06315 1.03090 0.99706
 O991 O 0.03893 1.00093 1.05178
 O992 O 0.04131 0.96684 1.03812
 O993 O 0.04609 1.04415 0.99974
 O994 O 0.02875 1.04871 0.96436
 O995 O -0.00533 1.05269 1.04258
 O996 O -0.04008 1.03568 1.04784
 O997 O 0.00903 1.01886 1.06323
 O998 O -0.03007 1.00890 1.06303
 O999 O 0.01222 1.06451 1.01268
 O1000 O 0.00197 1.06370 0.97381
 O1001 O 0.05819 1.01482 1.01873
 O1002 O 0.05739 0.97758 1.00463
 O1003 O -0.04170 1.00713 0.95350
 O1004 O -0.04650 1.04175 0.97013
 O1005 O -0.05125 0.96404 1.00730
 O1006 O -0.03339 0.96189 1.04312
 O1007 O 0.00168 0.95430 0.96455
 O1008 O 0.03742 0.97174 0.96305
 Zr1009 Zr 0.00767 0.98715 0.97008
 O1010 O 0.02801 1.00712 0.98834
 Zr1011 Zr -0.01847 0.97028 1.01364
 O1012 O 0.00130 0.98906 1.03373
 Zr1013 Zr -0.03598 1.01342 0.98642
 O1014 O -0.01745 1.03419 1.00575
 Zr1015 Zr 0.03149 0.99407 1.01953
 O1016 O 0.01273 0.97280 1.00070
 Zr1017 Zr 0.01355 1.03737 0.99270
 O1018 O -0.00576 1.01833 0.97213
 Zr1019 Zr -0.01207 1.02010 1.03634
 O1020 O -0.03316 1.00059 1.01790
 O1021 O -0.02301 0.98275 0.98272
 O1022 O 0.01857 1.02488 1.02369
 C1023 C -0.03047 0.99762 0.93906
 C1024 C -0.00685 0.93950 0.97624
 C1025 C -0.06613 0.97518 0.99787
 C1026 C 0.02790 1.01061 1.06620
 C1027 C 0.06080 1.03339 1.00989
 C1028 C 0.00407 1.06732 1.03136
 H1029 H 0.04212 1.00826 0.98111
 H1030 H -0.02496 1.04823 1.00671
 H1031 H -0.03215 0.97339 0.97363
 H1032 H 0.00291 0.98175 1.04790
 H1033 H 0.03792 0.95399 1.02941
 H1034 H 0.00390 0.94525 1.03879
 H1035 H -0.01140 1.06909 0.98051
 H1036 H -0.03473 1.04601 0.96030
 H1037 H 0.07014 0.97824 1.01438
 H1038 H 0.03559 0.96303 0.94984
 H1039 H -0.04487 1.04620 1.03667
 H1040 H -0.06560 1.02629 1.01217
 H1041 H 0.01886 1.01425 0.94029
 H1042 H 0.04006 1.03816 0.96055
 H1043 H -0.04477 0.97280 1.04564
 H1044 H -0.02286 0.99578 1.06883
 O1045 O 0.43541 0.49370 0.49035
 O1046 O 0.43496 0.52949 0.50014
 O1047 O 0.48728 0.49029 0.44433
 O1048 O 0.52246 0.49626 0.44356
 O1049 O 0.48309 0.44269 0.49666
 O1050 O 0.49193 0.44367 0.53392
 O1051 O 0.54441 0.54523 0.50135
 O1052 O 0.52967 0.54718 0.46735
 O1053 O 0.49318 0.55301 0.54473
 O1054 O 0.45805 0.53584 0.54956
 O1055 O 0.53689 0.50193 0.55432
 O1056 O 0.54251 0.46705 0.53828
 O1057 O 0.55667 0.51571 0.52006
 O1058 O 0.55678 0.47638 0.51110
 O1059 O 0.50684 0.51940 0.56580
 O1060 O 0.46806 0.50919 0.56506
 O1061 O 0.51149 0.56464 0.51521
 O1062 O 0.49630 0.56342 0.47809
 O1063 O 0.44756 0.46437 0.50948
 O1064 O 0.46484 0.46039 0.54427
 O1065 O 0.50065 0.45456 0.46677
 O1066 O 0.53615 0.47248 0.46426
 O1067 O 0.45684 0.50724 0.45568
 O1068 O 0.45478 0.54309 0.47256
 Zr1069 Zr 0.46276 0.51359 0.48850
 O1070 O 0.48112 0.53433 0.50801
 Zr1071 Zr 0.50655 0.48741 0.47230
 O1072 O 0.52666 0.50752 0.49060
 Zr1073 Zr 0.48046 0.47045 0.51574
 O1074 O 0.49988 0.48939 0.53609
 Zr1075 Zr 0.51203 0.53772 0.49493
 O1076 O 0.49306 0.51857 0.47411
 Zr1077 Zr 0.48636 0.52039 0.53858
 O1078 O 0.46572 0.50069 0.51997
 Zr1079 Zr 0.53012 0.49463 0.52192
 O1080 O 0.51165 0.47318 0.50290
 O1081 O 0.47592 0.48291 0.48479
 O1082 O 0.51704 0.52530 0.52601
 C1083 C 0.43270 0.47532 0.49969
 C1084 C 0.46854 0.49865 0.44110
 C1085 C 0.49185 0.43977 0.47825
 C1086 C 0.55922 0.53436 0.51124
 C1087 C 0.50303 0.56752 0.53374
 C1088 C 0.52575 0.51139 0.56878
 H1089 H 0.47370 0.54845 0.50886
 H1090 H 0.50124 0.48210 0.55029
 H1091 H 0.46684 0.47361 0.47557
 H1092 H 0.54066 0.50901 0.48323
 H1093 H 0.52062 0.54362 0.45464
 H1094 H 0.53061 0.50954 0.44669
 H1095 H 0.47504 0.49589 0.57072
 H1096 H 0.45481 0.47216 0.54817
 H1097 H 0.50589 0.57618 0.47846
 H1098 H 0.44144 0.54106 0.46386
 H1099 H 0.53153 0.46226 0.54873
 H1100 H 0.50700 0.44118 0.52940
 H1101 H 0.43335 0.52501 0.51541
 H1102 H 0.45383 0.54691 0.53871
 H1103 H 0.53902 0.46118 0.47533
 H1104 H 0.56228 0.48343 0.49788
 O1105 O 0.56369 0.01603 0.48547
 O1106 O 0.56405 -0.01976 0.49524
 O1107 O 0.51283 0.02001 0.43707
 O1108 O 0.47773 0.01392 0.43491
 O1109 O 0.51566 0.06690 0.48912
 O1110 O 0.50609 0.06556 0.52592
 O1111 O 0.45483 -0.03603 0.49266
 O1112 O 0.47007 -0.03737 0.45909
 O1113 O 0.50482 -0.04386 0.53801
 O1114 O 0.53976 -0.02677 0.54412
 O1115 O 0.46084 0.00704 0.54515
 O1116 O 0.45545 0.04207 0.52819
 O1117 O 0.44196 -0.00681 0.51054
 O1118 O 0.44163 0.03255 0.50076
 O1119 O 0.49065 -0.01050 0.55809
 O1120 O 0.52951 -0.00012 0.55869
 O1121 O 0.48747 -0.05533 0.50776
 O1122 O 0.50338 -0.05356 0.47122
 O1123 O 0.55103 0.04509 0.50378
 O1124 O 0.53280 0.04878 0.53765
 O1125 O 0.49869 0.05548 0.45865
 O1126 O 0.46341 0.03729 0.45484
 O1127 O 0.54307 0.00303 0.44985
 O1128 O 0.54473 -0.03312 0.46720
 Zr1129 Zr 0.53641 -0.00378 0.48247
 O1130 O 0.51775 -0.02479 0.50153
 Zr1131 Zr 0.49293 0.02247 0.46422
 O1132 O 0.47250 0.00202 0.48191
 Zr1133 Zr 0.51798 0.03895 0.50856
 O1134 O 0.49814 0.01976 0.52831
 Zr1135 Zr 0.48719 -0.02816 0.48719
 O1136 O 0.50648 -0.00868 0.46691
 Zr1137 Zr 0.51175 -0.01120 0.53172
 O1138 O 0.53272 0.00872 0.51369
 Zr1139 Zr 0.46827 0.01454 0.51292
 O1140 O 0.48710 0.03628 0.49445
 O1141 O 0.52327 0.02692 0.47791
 O1142 O 0.48142 -0.01609 0.51791
 C1143 C 0.56616 0.03422 0.49487
 C1144 C 0.53166 0.01174 0.43469
 C1145 C 0.50720 0.07011 0.47040
 C1146 C 0.43978 -0.02547 0.50200
 C1147 C 0.49535 -0.05831 0.52675
 C1148 C 0.47167 -0.00253 0.56019
 H1149 H 0.52520 -0.03889 0.50286
 H1150 H 0.49644 0.02692 0.54235
 H1151 H 0.53254 0.03638 0.46901
 H1152 H 0.45867 0.00049 0.47401
 H1153 H 0.47933 -0.03367 0.44668
 H1154 H 0.46967 0.00050 0.43781
 H1155 H 0.52221 0.01293 0.56409
 H1156 H 0.54278 0.03703 0.54214
 H1157 H 0.49386 -0.06637 0.47134
 H1158 H 0.55815 -0.03095 0.45887
 H1159 H 0.46605 0.04668 0.53921
 H1160 H 0.49108 0.06799 0.52085
 H1161 H 0.56509 -0.01587 0.51065
 H1162 H 0.54426 -0.03773 0.53358
 H1163 H 0.46017 0.04836 0.46573
 H1164 H 0.43644 0.02550 0.48747
 O1165 O 0.06316 0.51564 0.98602
 O1166 O 0.06384 0.47990 0.99601
 O1167 O 0.01158 0.51903 0.93837
 O1168 O -0.02355 0.51272 0.93682
 O1169 O 0.01501 0.56631 0.98997
 O1170 O 0.00592 0.56523 1.02692
 O1171 O -0.04528 0.46312 0.99524
 O1172 O -0.03055 0.46155 0.96151
 O1173 O 0.00553 0.45588 1.03989
 O1174 O 0.04045 0.47325 1.04531
 O1175 O -0.03866 0.50654 1.04739
 O1176 O -0.04449 0.54143 1.03030
 O1177 O -0.05804 0.49243 1.01307
 O1178 O -0.05867 0.53172 1.00312
 O1179 O -0.00854 0.48926 1.05993
 O1180 O 0.03024 0.49989 1.05988
 O1181 O -0.01228 0.44404 1.01005
 O1182 O 0.00303 0.44564 0.97323
 O1183 O 0.05066 0.54477 1.00432
 O1184 O 0.03289 0.54870 1.03841
 O1185 O -0.00240 0.55459 0.95987
 O1186 O -0.03765 0.53620 0.95677
 O1187 O 0.04211 0.50233 0.95081
 O1188 O 0.04414 0.46629 0.96834
 Zr1189 Zr 0.03594 0.49568 0.98357
 O1190 O 0.01772 0.47472 1.00308
 Zr1191 Zr -0.00793 0.52159 0.96580
 O1192 O -0.02796 0.50116 0.98399
 Zr1193 Zr 0.01771 0.53853 1.00962
 O1194 O -0.00169 0.51938 1.02984
 Zr1195 Zr -0.01304 0.47108 0.98927
 O1196 O 0.00580 0.49052 0.96852
 Zr1197 Zr 0.01213 0.48853 1.03325
 O1198 O 0.03269 0.50842 1.01474
 Zr1199 Zr -0.03178 0.51389 1.01498
 O1200 O -0.01337 0.53559 0.99603
 O1201 O 0.02259 0.52629 0.97899
 O1202 O -0.01838 0.48335 1.01999
 C1203 C 0.06569 0.53389 0.99527
 C1204 C 0.03044 0.51087 0.93577
 C1205 C 0.00627 0.56935 0.97135
 C1206 C -0.06025 0.47371 1.00467
 C1207 C -0.00403 0.44126 1.02892
 C1208 C -0.02753 0.49710 1.06230
 H1209 H 0.02527 0.46068 1.00440
 H1210 H -0.00321 0.52663 1.04385
 H1211 H 0.03168 0.53573 0.96988
 H1212 H -0.04189 0.49950 0.97632
 H1213 H -0.02151 0.46523 0.94893
 H1214 H -0.03150 0.49928 0.93996
 H1215 H 0.02294 0.51294 1.06531
 H1216 H 0.04297 0.53702 1.04287
 H1217 H -0.00641 0.43278 0.97361
 H1218 H 0.05744 0.46846 0.95981
 H1219 H -0.03371 0.54620 1.04107
 H1220 H -0.00917 0.56754 1.02203
 H1221 H 0.06513 0.48394 1.01136
 H1222 H 0.04481 0.46219 1.03483
 H1223 H -0.04076 0.54736 0.96762
 H1224 H -0.06399 0.52460 0.98992
 O1225 O 0.05593 0.48340 0.51480
 O1226 O 0.05625 0.51917 0.50483
 O1227 O 0.00432 0.47975 0.56126
 O1228 O -0.03088 0.48676 0.56199
 O1229 O 0.00826 0.43262 0.50997
 O1230 O -0.00071 0.43358 0.47282
 O1231 O -0.05290 0.53600 0.50265
 O1232 O -0.03855 0.53764 0.53674
 O1233 O -0.00157 0.54297 0.45947
 O1234 O 0.03340 0.52525 0.45496
 O1235 O -0.04557 0.49240 0.45093
 O1236 O -0.05117 0.45747 0.46806
 O1237 O -0.06529 0.50657 0.48473
 O1238 O -0.06571 0.46739 0.49472
 O1239 O -0.01554 0.50968 0.43914
 O1240 O 0.02320 0.49881 0.44006
 O1241 O -0.01965 0.55501 0.48878
 O1242 O -0.00491 0.55335 0.52608
 O1243 O 0.04383 0.45418 0.49632
 O1244 O 0.02620 0.44999 0.46188
 O1245 O -0.00956 0.44446 0.53953
 O1246 O -0.04486 0.46298 0.54182
 O1247 O 0.03470 0.49644 0.54941
 O1248 O 0.03623 0.53261 0.53215
 Zr1249 Zr 0.02849 0.50328 0.51660
 O1250 O 0.01025 0.52419 0.49657
 Zr1251 Zr -0.01521 0.47749 0.53340
 O1252 O -0.03530 0.49790 0.51460
 Zr1253 Zr 0.01080 0.46033 0.49025
 O1254 O -0.00862 0.47947 0.46948
 Zr1255 Zr -0.02064 0.52797 0.50957
 O1256 O -0.00176 0.50856 0.53090
 Zr1257 Zr 0.00499 0.51028 0.46631
 O1258 O 0.02557 0.49041 0.48540
 Zr1259 Zr -0.03883 0.48509 0.48355
 O1260 O -0.02039 0.46342 0.50307
 O1261 O 0.01539 0.47269 0.52093
 O1262 O -0.02566 0.51560 0.47876
 C1263 C 0.05871 0.46514 0.50565
 C1264 C 0.02317 0.48777 0.56420
 C1265 C -0.00062 0.42965 0.52837
 C1266 C -0.06773 0.52535 0.49295
 C1267 C -0.01114 0.55771 0.47018
 C1268 C -0.03443 0.50183 0.43629
 H1269 H 0.01774 0.53820 0.49542
 H1270 H -0.01000 0.47219 0.45544
 H1271 H 0.02452 0.46323 0.53023
 H1272 H -0.04931 0.49961 0.52189
 H1273 H -0.02967 0.53391 0.54962
 H1274 H -0.03934 0.49989 0.55843
 H1275 H 0.01603 0.48575 0.43454
 H1276 H 0.03612 0.46169 0.45754
 H1277 H -0.01441 0.56626 0.52539
 H1278 H 0.04955 0.53046 0.54095
 H1279 H -0.04036 0.45274 0.45746
 H1280 H -0.01582 0.43135 0.47733
 H1281 H 0.05783 0.51494 0.48959
 H1282 H 0.03757 0.53643 0.46544
 H1283 H -0.04792 0.45191 0.53085
 H1284 H -0.07107 0.47446 0.50786
 O1285 O 0.50107 1.04632 -0.04175
 O1286 O 0.53487 1.03095 -0.04465
 O1287 O 0.45786 0.99290 -0.05156
 O1288 O 0.45113 0.96109 -0.03619
 O1289 O 0.44799 1.03667 0.00175
 O1290 O 0.46467 1.04038 0.03605
 O1291 O 0.51334 0.93573 0.00753
 O1292 O 0.50195 0.93591 -0.02758
 O1293 O 0.55800 0.98642 0.01381
 O1294 O 0.55775 1.02468 0.00540
 O1295 O 0.50750 0.98034 0.05882
 O1296 O 0.46966 0.98880 0.05871
 O1297 O 0.49507 0.94686 0.03716
 O1298 O 0.45854 0.96443 0.04111
 O1299 O 0.53714 0.99863 0.04760
 O1300 O 0.54079 1.03515 0.03038
 O1301 O 0.54644 0.95671 -0.00407
 O1302 O 0.53081 0.95773 -0.04103
 O1303 O 0.48352 1.05785 -0.01180
 O1304 O 0.49228 1.05647 0.02615
 O1305 O 0.43631 1.00727 -0.01655
 O1306 O 0.43810 0.96875 -0.00565
 O1307 O 0.48707 1.01197 -0.06276
 O1308 O 0.52504 0.99958 -0.06057
 Zr1309 Zr 0.50712 1.01354 -0.03521
 O1310 O 0.52788 0.99415 -0.01614
 Zr1311 Zr 0.46371 0.98719 -0.01850
 O1312 O 0.48284 0.96620 0.00063
 Zr1313 Zr 0.48079 1.03014 0.00805
 O1314 O 0.50010 1.01093 0.02887
 Zr1315 Zr 0.51404 0.96360 -0.01196
 O1316 O 0.49400 0.98231 -0.03283
 Zr1317 Zr 0.53061 1.00652 0.01511
 O1318 O 0.51195 1.02754 -0.00474
 Zr1319 Zr 0.48740 0.97962 0.03128
 O1320 O 0.46637 0.99980 0.01278
 O1321 O 0.47639 1.01786 -0.02268
 O1322 O 0.51836 0.97551 0.01914
 C1323 C 0.49217 1.06097 -0.03033
 C1324 C 0.46887 1.00275 -0.06605
 C1325 C 0.43331 1.02563 -0.00770
 C1326 C 0.50492 0.93249 0.02611
 C1327 C 0.56099 0.96781 0.00552
 C1328 C 0.52616 0.98864 0.06197
 H1329 H 0.54202 0.99313 -0.02332
 H1330 H 0.50105 1.01794 0.04307
 H1331 H 0.46717 1.02722 -0.03199
 H1332 H 0.47583 0.95193 0.00139
 H1333 H 0.49525 0.94099 -0.04129
 H1334 H 0.46063 0.94857 -0.03313
 H1335 H 0.53110 1.03777 0.04267
 H1336 H 0.50698 1.05960 0.02090
 H1337 H 0.53835 0.94364 -0.03954
 H1338 H 0.52330 1.00868 -0.07375
 H1339 H 0.47422 1.00354 0.06256
 H1340 H 0.45543 1.02823 0.04067
 H1341 H 0.53956 1.03940 -0.03201
 H1342 H 0.56217 1.01946 -0.00891
 H1343 H 0.43378 0.97568 0.00795
 H1344 H 0.45596 0.95206 0.03149
 O1345 O 0.44142 0.50301 0.01863
 O1346 O 0.44258 0.46754 0.00806
 O1347 O 0.49313 0.50714 0.06570
 O1348 O 0.52857 0.50202 0.06698
 O1349 O 0.48679 0.55577 0.01468
 O1350 O 0.49565 0.55630 -0.02234
 O1351 O 0.55240 0.45535 0.00748
 O1352 O 0.53832 0.45215 0.04147
 O1353 O 0.50139 0.44749 -0.03645
 O1354 O 0.46580 0.46363 -0.04154
 O1355 O 0.54300 0.50043 -0.04378
 O1356 O 0.54717 0.53490 -0.02623
 O1357 O 0.56338 0.48585 -0.01000
 O1358 O 0.56219 0.52471 0.00061
 O1359 O 0.51379 0.48217 -0.05629
 O1360 O 0.47447 0.49120 -0.05580
 O1361 O 0.51999 0.43538 -0.00687
 O1362 O 0.50534 0.43528 0.03018
 O1363 O 0.45231 0.53322 0.00054
 O1364 O 0.46943 0.53897 -0.03377
 O1365 O 0.50514 0.54382 0.04448
 O1366 O 0.54135 0.52681 0.04715
 O1367 O 0.46342 0.48950 0.05336
 O1368 O 0.46320 0.45395 0.03558
 Zr1369 Zr 0.46968 0.48412 0.02051
 O1370 O 0.48880 0.46464 0.00061
 Zr1371 Zr 0.51234 0.51127 0.03819
 O1372 O 0.53324 0.49232 0.01961
 Zr1373 Zr 0.48544 0.52856 -0.00523
 O1374 O 0.50562 0.51096 -0.02581
 Zr1375 Zr 0.51987 0.46182 0.01409
 O1376 O 0.50022 0.47973 0.03523
 Zr1377 Zr 0.49338 0.47967 -0.02946
 O1378 O 0.47197 0.49803 -0.01056
 Zr1379 Zr 0.53607 0.50626 -0.01124
 O1380 O 0.51675 0.52651 0.00809
 O1381 O 0.48151 0.51509 0.02529
 O1382 O 0.52425 0.47535 -0.01652
 C1383 C 0.43792 0.52148 0.00966
 C1384 C 0.47470 0.49819 0.06835
 C1385 C 0.49553 0.55856 0.03326
 C1386 C 0.56667 0.46691 -0.00200
 C1387 C 0.51159 0.43285 -0.02564
 C1388 C 0.53228 0.49102 -0.05870
 H1389 H 0.48194 0.45036 -0.00077
 H1390 H 0.50663 0.51874 -0.03975
 H1391 H 0.47204 0.52385 0.03456
 H1392 H 0.54733 0.49097 0.02711
 H1393 H 0.52932 0.45506 0.05423
 H1394 H 0.53737 0.48920 0.06357
 H1395 H 0.48108 0.50470 -0.06116
 H1396 H 0.45985 0.52705 -0.03819
 H1397 H 0.51540 0.42283 0.02958
 H1398 H 0.44982 0.45525 0.04414
 H1399 H 0.53609 0.53956 -0.03690
 H1400 H 0.51061 0.55916 -0.01749
 H1401 H 0.44074 0.47230 -0.00713
 H1402 H 0.46187 0.45229 -0.03097
 H1403 H 0.54379 0.53844 0.03639
 H1404 H 0.56801 0.51733 0.01364
 O1405 O 0.05167 -0.04718 0.50503
 O1406 O 0.03696 -0.05102 0.53903
 O1407 O -0.00227 -0.05600 0.46198
 O1408 O -0.03420 -0.04079 0.45533
 O1409 O 0.04106 -0.00169 0.45278
 O1410 O 0.04515 0.03191 0.47011
 O1411 O -0.05898 0.00071 0.51789
 O1412 O -0.05871 -0.03415 0.50619
 O1413 O -0.00798 0.00647 0.56265
 O1414 O 0.03020 -0.00180 0.56277
 O1415 O -0.01445 0.05264 0.51257
 O1416 O -0.00655 0.05365 0.47471
 O1417 O -0.04805 0.03107 0.50013
 O1418 O -0.03118 0.03629 0.46363
 O1419 O 0.00438 0.04086 0.54211
 O1420 O 0.04089 0.02346 0.54582
 O1421 O -0.03772 -0.01146 0.55088
 O1422 O -0.03651 -0.04808 0.53509
 O1423 O 0.06277 -0.01660 0.48771
 O1424 O 0.06159 0.02096 0.49754
 O1425 O 0.01166 -0.02004 0.44081
 O1426 O -0.02694 -0.00976 0.44274
 O1427 O 0.01704 -0.06800 0.49117
 O1428 O 0.00545 -0.06705 0.52920
 Zr1429 Zr 0.01898 -0.04103 0.51144
 O1430 O -0.00026 -0.02279 0.53236
 Zr1431 Zr -0.00803 -0.02320 0.46816
 O1432 O -0.02886 -0.00492 0.48745
 Zr1433 Zr 0.03506 0.00322 0.48565
 O1434 O 0.01603 0.02323 0.50510
 Zr1435 Zr -0.03101 -0.01850 0.51851
 O1436 O -0.01245 -0.03853 0.49830
 Zr1437 Zr 0.01202 0.00850 0.53546
 O1438 O 0.03291 -0.01057 0.51665
 Zr1439 Zr -0.01544 0.02569 0.49231
 O1440 O 0.00455 0.00809 0.47117
 O1441 O 0.02280 -0.02748 0.48086
 O1442 O -0.01914 0.01259 0.52313
 C1443 C 0.06609 -0.03543 0.49599
 C1444 C 0.00764 -0.07077 0.47289
 C1445 C 0.02989 -0.01075 0.43796
 C1446 C -0.06229 0.01959 0.50978
 C1447 C -0.02662 -0.00196 0.56548
 C1448 C -0.00578 0.05543 0.53118
 H1449 H -0.00113 -0.03037 0.54644
 H1450 H 0.02303 0.03746 0.50618
 H1451 H 0.03201 -0.03640 0.47147
 H1452 H -0.04323 -0.00409 0.48043
 H1453 H -0.05361 -0.04764 0.49947
 H1454 H -0.04658 -0.03831 0.46493
 H1455 H 0.04349 0.03600 0.53620
 H1456 H 0.06509 0.01495 0.51202
 H1457 H -0.05054 -0.04696 0.54257
 H1458 H 0.01459 -0.08006 0.52734
 H1459 H 0.00812 0.05771 0.47953
 H1460 H 0.03290 0.03681 0.46090
 H1461 H 0.04544 -0.03842 0.54376
 H1462 H 0.02531 -0.01646 0.56674
 H1463 H -0.02015 0.00408 0.43858
 H1464 H -0.04357 0.02664 0.46098
 O1465 O 0.68825 0.23571 0.26130
 O1466 O 0.68819 0.24556 0.22549
 O1467 O 0.73928 0.18769 0.26578
 O1468 O 0.77445 0.18588 0.25993
 O1469 O 0.73593 0.23951 0.31281
 O1470 O 0.74539 0.27641 0.31170
 O1471 O 0.79752 0.24423 0.21058
 O1472 O 0.78255 0.21043 0.20899
 O1473 O 0.74722 0.28893 0.20236
 O1474 O 0.71207 0.29456 0.21916
 O1475 O 0.79078 0.29640 0.25382
 O1476 O 0.79593 0.27920 0.28897
 O1477 O 0.80998 0.26211 0.24007
 O1478 O 0.81024 0.25219 0.27925
 O1479 O 0.76104 0.30904 0.23590
 O1480 O 0.72220 0.30930 0.24580
 O1481 O 0.76483 0.25893 0.19091
 O1482 O 0.74924 0.22219 0.19242
 O1483 O 0.70067 0.25396 0.29060
 O1484 O 0.71867 0.28792 0.29477
 O1485 O 0.75317 0.20928 0.30144
 O1486 O 0.78854 0.20581 0.28364
 O1487 O 0.70911 0.20033 0.24854
 O1488 O 0.70773 0.21764 0.21240
 Zr1489 Zr 0.71573 0.23298 0.24184
 O1490 O 0.73444 0.25228 0.22112
 Zr1491 Zr 0.75909 0.21501 0.26851
 O1492 O 0.77959 0.23303 0.24840
 Zr1493 Zr 0.73373 0.25904 0.28491
 O1494 O 0.75353 0.27909 0.26602
 Zr1495 Zr 0.76512 0.23829 0.21805
 O1496 O 0.74578 0.21773 0.23721
 Zr1497 Zr 0.74013 0.28246 0.23491
 O1498 O 0.71916 0.26417 0.25454
 Zr1499 Zr 0.78352 0.26404 0.26111
 O1500 O 0.76468 0.24524 0.28253
 O1501 O 0.72867 0.22841 0.27268
 O1502 O 0.77058 0.26902 0.23033
 C1503 C 0.68563 0.24505 0.27948
 C1504 C 0.72049 0.18523 0.25733
 C1505 C 0.74450 0.22088 0.31604
 C1506 C 0.81238 0.25374 0.22139
 C1507 C 0.75682 0.27784 0.18793
 C1508 C 0.77993 0.31133 0.24412
 H1509 H 0.72707 0.25357 0.20695
 H1510 H 0.75509 0.29313 0.27324
 H1511 H 0.71936 0.21941 0.28201
 H1512 H 0.79348 0.22530 0.24700
 H1513 H 0.77334 0.19789 0.21251
 H1514 H 0.78278 0.18899 0.24676
 H1515 H 0.72931 0.31465 0.25904
 H1516 H 0.70885 0.29245 0.28287
 H1517 H 0.75887 0.22243 0.17974
 H1518 H 0.69429 0.20924 0.21437
 H1519 H 0.78538 0.29032 0.29329
 H1520 H 0.76039 0.27143 0.31431
 H1521 H 0.68698 0.26091 0.22951
 H1522 H 0.70785 0.28414 0.20795
 H1523 H 0.79173 0.21676 0.29470
 H1524 H 0.81541 0.23886 0.27233
 O1525 O 0.70128 0.75644 0.70507
 O1526 O 0.71699 0.79008 0.70171
 O1527 O 0.75449 0.71237 0.69681
 O1528 O 0.78603 0.70496 0.71261
 O1529 O 0.71002 0.70351 0.74998
 O1530 O 0.70612 0.72047 0.78388
 O1531 O 0.81160 0.76666 0.75514
 O1532 O 0.81163 0.75522 0.72021
 O1533 O 0.76151 0.81241 0.75999
 O1534 O 0.72342 0.81316 0.75114
 O1535 O 0.76606 0.76179 0.80615
 O1536 O 0.75740 0.72412 0.80664
 O1537 O 0.79984 0.74885 0.78512
 O1538 O 0.78205 0.71272 0.78970
 O1539 O 0.74822 0.79179 0.79412
 O1540 O 0.71216 0.79640 0.77615
 O1541 O 0.79124 0.80021 0.74255
 O1542 O 0.79033 0.78454 0.70595
 O1543 O 0.68942 0.73913 0.73533
 O1544 O 0.69034 0.74826 0.77299
 O1545 O 0.73944 0.69116 0.73214
 O1546 O 0.77791 0.69220 0.74338
 O1547 O 0.73587 0.74193 0.68474
 O1548 O 0.74842 0.77965 0.68615
 Zr1549 Zr 0.73410 0.76203 0.71181
 O1550 O 0.75359 0.78242 0.73055
 Zr1551 Zr 0.75987 0.71813 0.72976
 O1552 O 0.78087 0.73687 0.74863
 Zr1553 Zr 0.71683 0.73617 0.75553
 O1554 O 0.73600 0.75515 0.77602
 Zr1555 Zr 0.78395 0.76797 0.73534
 O1556 O 0.76520 0.74829 0.71478
 Zr1557 Zr 0.74093 0.78553 0.76160
 O1558 O 0.71987 0.76724 0.74205
 Zr1559 Zr 0.76713 0.74176 0.77902
 O1560 O 0.74694 0.72110 0.76085
 O1561 O 0.72938 0.73143 0.72501
 O1562 O 0.77176 0.77262 0.76624
 C1563 C 0.68650 0.74769 0.71656
 C1564 C 0.74493 0.72354 0.68199
 C1565 C 0.72096 0.68858 0.74094
 C1566 C 0.81447 0.75829 0.77398
 C1567 C 0.78027 0.81499 0.75181
 C1568 C 0.75774 0.78052 0.80886
 H1569 H 0.75488 0.79652 0.72306
 H1570 H 0.72879 0.75625 0.79011
 H1571 H 0.72005 0.72235 0.71583
 H1572 H 0.79505 0.72957 0.74968
 H1573 H 0.80659 0.74862 0.70660
 H1574 H 0.79863 0.71420 0.71557
 H1575 H 0.70908 0.78668 0.78849
 H1576 H 0.68734 0.76293 0.76724
 H1577 H 0.80452 0.79174 0.70738
 H1578 H 0.73938 0.77810 0.67297
 H1579 H 0.74270 0.72903 0.81030
 H1580 H 0.71801 0.71080 0.78870
 H1581 H 0.70839 0.79486 0.71416
 H1582 H 0.72868 0.81723 0.73666
 H1583 H 0.77077 0.68806 0.75701
 H1584 H 0.79441 0.70982 0.78018
 O1585 O 0.29246 0.20068 0.74535
 O1586 O 0.29586 0.21630 0.71157
 O1587 O 0.30002 0.25438 0.78853
 O1588 O 0.28375 0.28554 0.79509
 O1589 O 0.24739 0.20896 0.79707
 O1590 O 0.21351 0.20456 0.77947
 O1591 O 0.24145 0.31029 0.73177
 O1592 O 0.27632 0.31077 0.74403
 O1593 O 0.23713 0.25993 0.68689
 O1594 O 0.24633 0.22198 0.68710
 O1595 O 0.19073 0.26399 0.73633
 O1596 O 0.19000 0.25573 0.77390
 O1597 O 0.21147 0.29823 0.74906
 O1598 O 0.20701 0.28029 0.78557
 O1599 O 0.20299 0.24615 0.70700
 O1600 O 0.22141 0.21039 0.70354
 O1601 O 0.25425 0.28991 0.69895
 O1602 O 0.29083 0.28954 0.71546
 O1603 O 0.26222 0.18842 0.76209
 O1604 O 0.22452 0.18887 0.75220
 O1605 O 0.26488 0.23871 0.80922
 O1606 O 0.25305 0.27698 0.80714
 O1607 O 0.31244 0.23572 0.75972
 O1608 O 0.31100 0.24800 0.72167
 Zr1609 Zr 0.28544 0.23339 0.73900
 O1610 O 0.26656 0.25251 0.71776
 Zr1611 Zr 0.26702 0.25908 0.78192
 O1612 O 0.24805 0.27974 0.76230
 Zr1613 Zr 0.24178 0.21560 0.76415
 O1614 O 0.22117 0.23442 0.74430
 Zr1615 Zr 0.26144 0.28286 0.73148
 O1616 O 0.28209 0.26448 0.75203
 Zr1617 Zr 0.23561 0.23943 0.71415
 O1618 O 0.25533 0.21873 0.73334
 Zr1619 Zr 0.21780 0.26558 0.75694
 O1620 O 0.23606 0.24570 0.77846
 O1621 O 0.27217 0.22861 0.76937
 O1622 O 0.23065 0.27025 0.72631
 C1623 C 0.28104 0.18573 0.75401
 C1624 C 0.31502 0.24502 0.77794
 C1625 C 0.25633 0.22009 0.81197
 C1626 C 0.22256 0.31298 0.73964
 C1627 C 0.24515 0.27879 0.68416
 C1628 C 0.18812 0.25551 0.71773
 H1629 H 0.27408 0.25385 0.70382
 H1630 H 0.20714 0.22702 0.74302
 H1631 H 0.28144 0.21945 0.77883
 H1632 H 0.24685 0.29394 0.76930
 H1633 H 0.28995 0.30592 0.75104
 H1634 H 0.28091 0.29801 0.78541
 H1635 H 0.20907 0.20717 0.71302
 H1636 H 0.23033 0.18587 0.73773
 H1637 H 0.28930 0.30368 0.70795
 H1638 H 0.32429 0.23921 0.72377
 H1639 H 0.18689 0.24071 0.76973
 H1640 H 0.20860 0.21639 0.78885
 H1641 H 0.28346 0.20762 0.70656
 H1642 H 0.26078 0.22742 0.68328
 H1643 H 0.23957 0.26954 0.81120
 H1644 H 0.21620 0.29299 0.78828
 O1645 O 0.25319 0.78955 0.29985
 O1646 O 0.28699 0.79202 0.28446
 O1647 O 0.20939 0.79903 0.24638
 O1648 O 0.20216 0.78369 0.21490
 O1649 O 0.19976 0.74585 0.29142
 O1650 O 0.21653 0.71166 0.29627
 O1651 O 0.26351 0.73948 0.19067
 O1652 O 0.25245 0.77475 0.18991
 O1653 O 0.30894 0.73317 0.24128
 O1654 O 0.30948 0.74200 0.27932
 O1655 O 0.25793 0.68858 0.23670
 O1656 O 0.22018 0.68891 0.24533
 O1657 O 0.24523 0.70998 0.20274
 O1658 O 0.20892 0.70632 0.22036
 O1659 O 0.28796 0.69967 0.25469
 O1660 O 0.29245 0.71717 0.29065
 O1661 O 0.29703 0.75093 0.21110
 O1662 O 0.28187 0.78807 0.21126
 O1663 O 0.23542 0.75981 0.31219
 O1664 O 0.24438 0.72188 0.31205
 O1665 O 0.18780 0.76409 0.26154
 O1666 O 0.18899 0.75319 0.22329
 O1667 O 0.23906 0.81030 0.26493
 O1668 O 0.27684 0.80792 0.25264
 Zr1669 Zr 0.25891 0.78270 0.26728
 O1670 O 0.27922 0.76345 0.24836
 Zr1671 Zr 0.21494 0.76599 0.24144
 O1672 O 0.23358 0.74670 0.22095
 Zr1673 Zr 0.23249 0.73964 0.28513
 O1674 O 0.25134 0.71867 0.26649
 Zr1675 Zr 0.26486 0.75916 0.21796
 O1676 O 0.24528 0.78019 0.23613
 Zr1677 Zr 0.28191 0.73227 0.26161
 O1678 O 0.26372 0.75229 0.28212
 Zr1679 Zr 0.23806 0.71615 0.23529
 O1680 O 0.21752 0.73480 0.25497
 O1681 O 0.22814 0.77029 0.27195
 O1682 O 0.26907 0.72813 0.23076
 C1683 C 0.24417 0.77837 0.31477
 C1684 C 0.22066 0.81353 0.25579
 C1685 C 0.18497 0.75524 0.28010
 C1686 C 0.25496 0.72088 0.18805
 C1687 C 0.31166 0.74121 0.22235
 C1688 C 0.27667 0.68535 0.24506
 H1689 H 0.29342 0.77054 0.24708
 H1690 H 0.25228 0.70450 0.27389
 H1691 H 0.21906 0.77965 0.28102
 H1692 H 0.22634 0.74589 0.20672
 H1693 H 0.24602 0.78853 0.19464
 H1694 H 0.21143 0.78052 0.20244
 H1695 H 0.28259 0.70506 0.29376
 H1696 H 0.25910 0.72728 0.31504
 H1697 H 0.28915 0.78645 0.19719
 H1698 H 0.27538 0.82112 0.26142
 H1699 H 0.22518 0.68491 0.26004
 H1700 H 0.20708 0.70692 0.28429
 H1701 H 0.29160 0.77943 0.29333
 H1702 H 0.31387 0.75629 0.27368
 H1703 H 0.18466 0.73961 0.23055
 H1704 H 0.20626 0.71585 0.20770
 O1705 O 0.23818 0.68752 0.76707
 O1706 O 0.27383 0.68672 0.75707
 O1707 O 0.23541 0.73975 0.81266
 O1708 O 0.24172 0.77483 0.81307
 O1709 O 0.18737 0.73573 0.76071
 O1710 O 0.18809 0.74393 0.72348
 O1711 O 0.29052 0.79589 0.75438
 O1712 O 0.29262 0.78150 0.78858
 O1713 O 0.29730 0.74436 0.71149
 O1714 O 0.27981 0.70933 0.70721
 O1715 O 0.24671 0.78846 0.70215
 O1716 O 0.21185 0.79443 0.71853
 O1717 O 0.26092 0.80832 0.73593
 O1718 O 0.22168 0.80890 0.74541
 O1719 O 0.26377 0.75817 0.69073
 O1720 O 0.25306 0.71949 0.69192
 O1721 O 0.30946 0.76274 0.74071
 O1722 O 0.30844 0.74786 0.77803
 O1723 O 0.20874 0.69972 0.74816
 O1724 O 0.20461 0.71681 0.71321
 O1725 O 0.19957 0.75347 0.79032
 O1726 O 0.21803 0.78867 0.79247
 O1727 O 0.25207 0.70913 0.80142
 O1728 O 0.28782 0.70673 0.78421
 Zr1729 Zr 0.25822 0.71475 0.76851
 O1730 O 0.27893 0.73273 0.74856
 Zr1731 Zr 0.23251 0.75884 0.78454
 O1732 O 0.25268 0.77863 0.76585
 Zr1733 Zr 0.21499 0.73254 0.74151
 O1734 O 0.23388 0.75169 0.72079
 Zr1735 Zr 0.28273 0.76368 0.76132
 O1736 O 0.26356 0.74509 0.78254
 Zr1737 Zr 0.26472 0.73785 0.71810
 O1738 O 0.24506 0.71753 0.73714
 Zr1739 Zr 0.23954 0.78197 0.73465
 O1740 O 0.21809 0.76381 0.75403
 O1741 O 0.22764 0.72815 0.77240
 O1742 O 0.27003 0.76855 0.73034
 C1743 C 0.21974 0.68484 0.75789
 C1744 C 0.24368 0.72099 0.81597
 C1745 C 0.18460 0.74481 0.77897
 C1746 C 0.27974 0.81072 0.74442
 C1747 C 0.31202 0.75418 0.72218
 C1748 C 0.25602 0.77717 0.68771
 H1749 H 0.29298 0.72518 0.74761
 H1750 H 0.22648 0.75302 0.70665
 H1751 H 0.21830 0.71924 0.78178
 H1752 H 0.25440 0.79266 0.77306
 H1753 H 0.28912 0.77260 0.80143
 H1754 H 0.25516 0.78267 0.80980
 H1755 H 0.23985 0.72665 0.68624
 H1756 H 0.21624 0.70660 0.70934
 H1757 H 0.32129 0.75731 0.77740
 H1758 H 0.28577 0.69352 0.79313
 H1759 H 0.20708 0.78358 0.70797
 H1760 H 0.18597 0.75918 0.72755
 H1761 H 0.26937 0.68509 0.74181
 H1762 H 0.29103 0.70515 0.71792
 H1763 H 0.20671 0.79164 0.78145
 H1764 H 0.22896 0.81448 0.75845
 O1765 O 0.25426 0.20948 0.19960
 O1766 O 0.28798 0.20601 0.21547
 O1767 O 0.21062 0.20092 0.25268
 O1768 O 0.20390 0.21650 0.28409
 O1769 O 0.20131 0.25412 0.20743
 O1770 O 0.21836 0.28808 0.20292
 O1771 O 0.26575 0.25900 0.30902
 O1772 O 0.25446 0.22403 0.30948
 O1773 O 0.31102 0.26450 0.25882
 O1774 O 0.31114 0.25542 0.22071
 O1775 O 0.26087 0.31025 0.26266
 O1776 O 0.22317 0.31096 0.25387
 O1777 O 0.24793 0.28900 0.29670
 O1778 O 0.21165 0.29372 0.27847
 O1779 O 0.29050 0.29840 0.24488
 O1780 O 0.29452 0.28068 0.20920
 O1781 O 0.29911 0.24709 0.28891
 O1782 O 0.28363 0.21023 0.28849
 O1783 O 0.23681 0.23964 0.18707
 O1784 O 0.24592 0.27735 0.18735
 O1785 O 0.18940 0.23621 0.23724
 O1786 O 0.19100 0.24724 0.27543
 O1787 O 0.23989 0.18895 0.23432
 O1788 O 0.27779 0.19041 0.24714
 Zr1789 Zr 0.26016 0.21607 0.23227
 O1790 O 0.28090 0.23483 0.25139
 Zr1791 Zr 0.21667 0.23383 0.25763
 O1792 O 0.23574 0.25271 0.27827
 Zr1793 Zr 0.23415 0.25976 0.21413
 O1794 O 0.25350 0.28026 0.23293
 Zr1795 Zr 0.26684 0.23948 0.28163
 O1796 O 0.24683 0.21890 0.26327
 Zr1797 Zr 0.28391 0.26593 0.23814
 O1798 O 0.26524 0.24636 0.21747
 Zr1799 Zr 0.24058 0.28315 0.26400
 O1800 O 0.21955 0.26497 0.24414
 O1801 O 0.22953 0.22920 0.22725
 O1802 O 0.27143 0.27042 0.26887
 C1803 C 0.24538 0.22094 0.18456
 C1804 C 0.22156 0.18615 0.24334
 C1805 C 0.18652 0.24502 0.21861
 C1806 C 0.25738 0.27776 0.31157
 C1807 C 0.31377 0.25647 0.27782
 C1808 C 0.27953 0.31303 0.25435
 H1809 H 0.29501 0.22741 0.25284
 H1810 H 0.25458 0.29439 0.22550
 H1811 H 0.22029 0.22004 0.21805
 H1812 H 0.22858 0.25368 0.29241
 H1813 H 0.24785 0.21040 0.30461
 H1814 H 0.21330 0.21952 0.29664
 H1815 H 0.28472 0.29293 0.20584
 H1816 H 0.26059 0.27174 0.18453
 H1817 H 0.29102 0.21169 0.30265
 H1818 H 0.27604 0.17723 0.23837
 H1819 H 0.22772 0.31452 0.23902
 H1820 H 0.20896 0.29289 0.21477
 H1821 H 0.29285 0.21854 0.20680
 H1822 H 0.31561 0.24121 0.22668
 H1823 H 0.18679 0.26091 0.26809
 H1824 H 0.20885 0.28422 0.29104
 O1825 O 0.78955 0.69991 0.24296
 O1826 O 0.79310 0.71547 0.20914
 O1827 O 0.79865 0.75309 0.28625
 O1828 O 0.78324 0.78463 0.29308
 O1829 O 0.74486 0.70905 0.29480
 O1830 O 0.71082 0.70559 0.27731
 O1831 O 0.74133 0.81075 0.22987
 O1832 O 0.77622 0.81032 0.24206
 O1833 O 0.73548 0.76072 0.18489
 O1834 O 0.74350 0.72258 0.18491
 O1835 O 0.68945 0.76601 0.23461
 O1836 O 0.68861 0.75754 0.27208
 O1837 O 0.71117 0.79945 0.24736
 O1838 O 0.70649 0.78144 0.28391
 O1839 O 0.70100 0.74799 0.20510
 O1840 O 0.71836 0.71162 0.20149
 O1841 O 0.75350 0.79016 0.19699
 O1842 O 0.79011 0.78878 0.21340
 O1843 O 0.75908 0.68833 0.25976
 O1844 O 0.72132 0.68980 0.24985
 O1845 O 0.76321 0.73826 0.30700
 O1846 O 0.75237 0.77689 0.30514
 O1847 O 0.81046 0.73431 0.25727
 O1848 O 0.80912 0.74676 0.21925
 Zr1849 Zr 0.78328 0.73276 0.23667
 O1850 O 0.76479 0.75243 0.21560
 Zr1851 Zr 0.76576 0.75871 0.27980
 O1852 O 0.74728 0.77997 0.26036
 Zr1853 Zr 0.73929 0.71599 0.26194
 O1854 O 0.71907 0.73547 0.24230
 Zr1855 Zr 0.76060 0.78283 0.22947
 O1856 O 0.78084 0.76386 0.24988
 Zr1857 Zr 0.73346 0.74021 0.21210
 O1858 O 0.75277 0.71892 0.23107
 Zr1859 Zr 0.71664 0.76664 0.25510
 O1860 O 0.73445 0.74615 0.27642
 O1861 O 0.77003 0.72820 0.26707
 O1862 O 0.72945 0.77108 0.22443
 C1863 C 0.77784 0.68523 0.25167
 C1864 C 0.81335 0.74340 0.27555
 C1865 C 0.75419 0.71985 0.30971
 C1866 C 0.72257 0.81391 0.23786
 C1867 C 0.74404 0.77934 0.18220
 C1868 C 0.68648 0.75776 0.21596
 H1869 H 0.77228 0.75360 0.20163
 H1870 H 0.70482 0.72848 0.24106
 H1871 H 0.77911 0.71877 0.27646
 H1872 H 0.74650 0.79417 0.26741
 H1873 H 0.78975 0.80512 0.24901
 H1874 H 0.78081 0.79719 0.28340
 H1875 H 0.70592 0.70879 0.21097
 H1876 H 0.72708 0.68669 0.23537
 H1877 H 0.78894 0.80297 0.20593
 H1878 H 0.82219 0.73762 0.22125
 H1879 H 0.68512 0.74260 0.26793
 H1880 H 0.70622 0.71752 0.28673
 H1881 H 0.78047 0.70707 0.20422
 H1882 H 0.75817 0.72748 0.18116
 H1883 H 0.73878 0.76972 0.30932
 H1884 H 0.71590 0.79401 0.28651
 O1885 O 0.75480 0.29260 0.79918
 O1886 O 0.78866 0.29536 0.78389
 O1887 O 0.71117 0.30177 0.74545
 O1888 O 0.70392 0.28629 0.71411
 O1889 O 0.70189 0.24849 0.79060
 O1890 O 0.71892 0.21437 0.79534
 O1891 O 0.76581 0.24278 0.68987
 O1892 O 0.75441 0.27793 0.68916
 O1893 O 0.81125 0.23696 0.74057
 O1894 O 0.81164 0.24558 0.77861
 O1895 O 0.76060 0.19177 0.73590
 O1896 O 0.72294 0.19169 0.74437
 O1897 O 0.74775 0.21312 0.70191
 O1898 O 0.71145 0.20915 0.71954
 O1899 O 0.79053 0.20310 0.75390
 O1900 O 0.79484 0.22060 0.78986
 O1901 O 0.79924 0.25467 0.71041
 O1902 O 0.78363 0.29157 0.71058
 O1903 O 0.73735 0.26263 0.81142
 O1904 O 0.74666 0.22481 0.81121
 O1905 O 0.68982 0.26671 0.76075
 O1906 O 0.69114 0.25570 0.72248
 O1907 O 0.74065 0.31330 0.76414
 O1908 O 0.77848 0.31126 0.75209
 Zr1909 Zr 0.76071 0.28585 0.76660
 O1910 O 0.78121 0.26683 0.74765
 Zr1911 Zr 0.71695 0.26877 0.74064
 O1912 O 0.73579 0.24969 0.72015
 Zr1913 Zr 0.73466 0.24252 0.78432
 O1914 O 0.75373 0.22176 0.76566
 Zr1915 Zr 0.76695 0.26245 0.71721
 O1916 O 0.74716 0.28326 0.73541
 Zr1917 Zr 0.78418 0.23565 0.76084
 O1918 O 0.76578 0.25546 0.78137
 Zr1919 Zr 0.74053 0.21917 0.73445
 O1920 O 0.71977 0.23758 0.75413
 O1921 O 0.73004 0.27316 0.77118
 O1922 O 0.77144 0.23142 0.72996
 C1923 C 0.74588 0.28128 0.81407
 C1924 C 0.72229 0.31637 0.75486
 C1925 C 0.68706 0.25783 0.77930
 C1926 C 0.75739 0.22411 0.68722
 C1927 C 0.81396 0.24513 0.72169
 C1928 C 0.77935 0.18868 0.74429
 H1929 H 0.79533 0.27407 0.74641
 H1930 H 0.75479 0.20759 0.77305
 H1931 H 0.72088 0.28245 0.78023
 H1932 H 0.72857 0.24884 0.70590
 H1933 H 0.74782 0.29164 0.69390
 H1934 H 0.71331 0.28335 0.70168
 H1935 H 0.78507 0.20842 0.79297
 H1936 H 0.76133 0.23032 0.81423
 H1937 H 0.79092 0.29008 0.69650
 H1938 H 0.77689 0.32443 0.76090
 H1939 H 0.72776 0.18787 0.75917
 H1940 H 0.70943 0.20965 0.78338
 H1941 H 0.79329 0.28281 0.79281
 H1942 H 0.81581 0.25999 0.77313
 H1943 H 0.68685 0.24215 0.72982
 H1944 H 0.70874 0.21862 0.70685
 C1945 C 0.05367 1.01045 1.12686
 C1946 C 0.05341 0.99088 1.13828
 C1947 C 0.06305 0.98928 1.15867
 C1948 C 0.07311 1.00727 1.16794
 C1949 C 0.07288 1.02703 1.15655
 C1950 C 0.06324 1.02859 1.13609
 C1951 C 0.04461 1.01155 1.10543
 C1952 C 0.03704 1.01160 1.08747
 H1953 H 0.04598 0.97676 1.13130
 H1954 H 0.06273 0.97393 1.16717
 H1955 H 0.08071 1.04108 1.16317
 H1956 H 0.06357 1.04381 1.12736
 C1957 C 0.55138 0.51161 0.62951
 C1958 C 0.55139 0.49206 0.64099
 C1959 C 0.56106 0.49065 0.66138
 C1960 C 0.57088 0.50879 0.67059
 C1961 C 0.57033 0.52853 0.65917
 C1962 C 0.56067 0.52991 0.63871
 C1963 C 0.54237 0.51251 0.60805
 C1964 C 0.53485 0.51245 0.59007
 H1965 H 0.54418 0.47782 0.63404
 H1966 H 0.56099 0.47531 0.66990
 H1967 H 0.57798 0.54271 0.66574
 H1968 H 0.56077 0.54511 0.62994
 C1969 C 0.44361 -0.00409 0.61937
 C1970 C 0.42419 0.00713 0.62189
 C1971 C 0.41422 0.00759 0.64197
 C1972 C 0.42352 -0.00320 0.65987
 C1973 C 0.44317 -0.01429 0.65726
 C1974 C 0.45314 -0.01474 0.63710
 C1975 C 0.45377 -0.00429 0.59860
 C1976 C 0.46201 -0.00387 0.58107
 H1977 H 0.41677 0.01556 0.60832
 H1978 H 0.39929 0.01655 0.64353
 H1979 H 0.45061 -0.02292 0.67068
 H1980 H 0.46820 -0.02344 0.63533
 C1981 C -0.05414 0.49440 1.12216
 C1982 C -0.04719 0.50877 1.13801
 C1983 C -0.05722 0.50907 1.15812
 C1984 C -0.07441 0.49503 1.16258
 C1985 C -0.08094 0.48032 1.14669
 C1986 C -0.07088 0.48004 1.12663
 C1987 C -0.04463 0.49490 1.10108
 C1988 C -0.03683 0.49566 1.08335
 H1989 H -0.03427 0.52000 1.13469
 H1990 H -0.05198 0.52070 1.16994
 H1991 H -0.09390 0.46908 1.14975
 H1992 H -0.07635 0.46881 1.11451
 C1993 C -0.05959 0.50283 0.37528
 C1994 C -0.06427 0.48299 0.36599
 C1995 C -0.07313 0.48208 0.34524
 C1996 C -0.07765 0.50112 0.33317
 C1997 C -0.07227 0.52106 0.34271
 C1998 C -0.06342 0.52185 0.36355
 C1999 C -0.05087 0.50341 0.39687
 C2000 C -0.04350 0.50310 0.41494
 H2001 H -0.06105 0.46811 0.37480
 H2002 H -0.07576 0.46625 0.33863
 H2003 H -0.07578 0.53627 0.33472
 H2004 H -0.05986 0.53735 0.37062
 C2005 C 0.44452 1.00310 -0.12740
 C2006 C 0.43538 1.02165 -0.13683
 C2007 C 0.42628 1.02084 -0.15755
 C2008 C 0.42616 1.00141 -0.16905
 C2009 C 0.43579 0.98297 -0.15958
 C2010 C 0.44489 0.98383 -0.13891
 C2011 C 0.45308 1.00355 -0.10574
 C2012 C 0.46022 1.00343 -0.08759
 H2013 H 0.43497 1.03665 -0.12805
 H2014 H 0.41876 1.03523 -0.16428
 H2015 H 0.43620 0.96785 -0.16814
 H2016 H 0.45200 0.96939 -0.13181
 C2017 C 0.55908 0.49337 -0.11841
 C2018 C 0.57777 0.50563 -0.12098
 C2019 C 0.58732 0.50752 -0.14120
 C2020 C 0.57830 0.49714 -0.15919
 C2021 C 0.55937 0.48500 -0.15652
 C2022 C 0.54983 0.48312 -0.13622
 C2023 C 0.54935 0.49171 -0.09750
 C2024 C 0.54148 0.49097 -0.07982
 H2025 H 0.58496 0.51377 -0.10733
 H2026 H 0.60169 0.51724 -0.14280
 H2027 H 0.55218 0.47665 -0.17002
 H2028 H 0.53532 0.47363 -0.13441
 C2029 C 0.05610 -0.00761 0.37805
 C2030 C 0.07494 0.00449 0.37580
 C2031 C 0.08490 0.00619 0.35577
 C2032 C 0.07616 -0.00423 0.33767
 C2033 C 0.05702 -0.01611 0.33999
 C2034 C 0.04707 -0.01781 0.36010
 C2035 C 0.04625 -0.00943 0.39888
 C2036 C 0.03855 -0.01039 0.41663
 H2037 H 0.08198 0.01256 0.38956
 H2038 H 0.09942 0.01573 0.35443
 H2039 H 0.05004 -0.02446 0.32639
 H2040 H 0.03247 -0.02720 0.36169
 C2041 C 0.12124 1.05883 1.01044
 C2042 C 0.12670 1.07594 1.02390
 C2043 C 0.14712 1.08528 1.02261
 C2044 C 0.16234 1.07764 1.00778
 C2045 C 0.15685 1.06013 0.99463
 C2046 C 0.13641 1.05082 0.99594
 C2047 C 0.09987 1.04996 1.01093
 C2048 C 0.08196 1.04252 1.01081
 H2049 H 0.11510 1.08223 1.03521
 H2050 H 0.15099 1.09852 1.03317
 H2051 H 0.16814 1.05405 0.98292
 H2052 H 0.13230 1.03762 0.98540
 C2053 C 0.61984 0.55948 0.51084
 C2054 C 0.62540 0.57700 0.52371
 C2055 C 0.64585 0.58622 0.52205
 C2056 C 0.66101 0.57805 0.50744
 C2057 C 0.65543 0.56012 0.49490
 C2058 C 0.63494 0.55093 0.49658
 C2059 C 0.59841 0.55072 0.51168
 C2060 C 0.58045 0.54338 0.51184
 H2061 H 0.61386 0.58370 0.53484
 H2062 H 0.64979 0.59979 0.53216
 H2063 H 0.66666 0.55362 0.48337
 H2064 H 0.63076 0.53740 0.48649
 C2065 C 0.62789 0.44269 -0.00355
 C2066 C 0.63675 0.43390 -0.02220
 C2067 C 0.65751 0.42491 -0.02158
 C2068 C 0.66960 0.42455 -0.00225
 C2069 C 0.66069 0.43385 0.01626
 C2070 C 0.63999 0.44284 0.01560
 C2071 C 0.60623 0.45115 -0.00375
 C2072 C 0.58810 0.45825 -0.00327
 H2073 H 0.62751 0.43368 -0.03710
 H2074 H 0.66383 0.41765 -0.03602
 H2075 H 0.66970 0.43407 0.03130
 H2076 H 0.63332 0.44969 0.03010
 C2077 C 0.12678 -0.06098 0.49466
 C2078 C 0.14460 -0.04893 0.48794
 C2079 C 0.16532 -0.05801 0.48883
 C2080 C 0.16842 -0.07922 0.49658
 C2081 C 0.15034 -0.09125 0.50300
 C2082 C 0.12970 -0.08218 0.50206
 C2083 C 0.10550 -0.05160 0.49455
 C2084 C 0.08753 -0.04410 0.49497
 H2085 H 0.14251 -0.03247 0.48223
 H2086 H 0.17894 -0.04832 0.48391
 H2087 H 0.15215 -0.10775 0.50865
 H2088 H 0.11603 -0.09168 0.50724
 C2089 C 0.38064 -0.05387 0.50190
 C2090 C 0.36302 -0.04513 0.51282
 C2091 C 0.34303 -0.05554 0.51226
 C2092 C 0.34049 -0.07484 0.50082
 C2093 C 0.35825 -0.08330 0.48969
 C2094 C 0.37816 -0.07289 0.49025
 C2095 C 0.40132 -0.04347 0.50252
 C2096 C 0.41884 -0.03513 0.50257
 H2097 H 0.36477 -0.03039 0.52187
 H2098 H 0.32971 -0.04876 0.52114
 H2099 H 0.35672 -0.09794 0.48047
 H2100 H 0.39165 -0.07971 0.48164
 C2101 C -0.11942 0.44540 1.00457
 C2102 C -0.13715 0.45429 1.01520
 C2103 C -0.15720 0.44403 1.01437
 C2104 C -0.15969 0.42472 1.00292
 C2105 C -0.14181 0.41610 0.99211
 C2106 C -0.12185 0.42637 0.99295
 C2107 C -0.09872 0.45574 1.00533
 C2108 C -0.08119 0.46405 1.00539
 H2109 H -0.13544 0.46906 1.02422
 H2110 H -0.17061 0.45093 1.02301
 H2111 H -0.14331 0.40145 0.98288
 H2112 H -0.10828 0.41944 0.98454
 C2113 C -0.12797 0.55204 0.49224
 C2114 C -0.13888 0.55291 0.51186
 C2115 C -0.15917 0.56271 0.51290
 C2116 C -0.16886 0.57180 0.49430
 C2117 C -0.15798 0.57046 0.47454
 C2118 C -0.13763 0.56066 0.47354
 C2119 C -0.10669 0.54269 0.49160
 C2120 C -0.08885 0.53485 0.49180
 H2121 H -0.13159 0.54621 0.52642
 H2122 H -0.16726 0.56324 0.52829
 H2123 H -0.16491 0.57753 0.46000
 H2124 H -0.12931 0.56010 0.45827
 C2125 C 0.37257 1.05107 -0.00758
 C2126 C 0.36155 1.05141 0.01199
 C2127 C 0.34130 1.06127 0.01320
 C2128 C 0.33178 1.07097 -0.00519
 C2129 C 0.34274 1.07009 -0.02494
 C2130 C 0.36304 1.06023 -0.02610
 C2131 C 0.39393 1.04196 -0.00834
 C2132 C 0.41191 1.03449 -0.00836
 H2133 H 0.36875 1.04432 0.02641
 H2134 H 0.33314 1.06145 0.02856
 H2135 H 0.33594 1.07763 -0.03931
 H2136 H 0.37147 1.06010 -0.04133
 C2137 C 0.00449 1.12815 1.05566
 C2138 C 0.02299 1.13738 1.06472
 C2139 C 0.02195 1.15797 1.07367
 C2140 C 0.00235 1.16953 1.07372
 C2141 C -0.01601 1.16027 1.06416
 C2142 C -0.01494 1.13973 1.05521
 C2143 C 0.00513 1.10663 1.04722
 C2144 C 0.00500 1.08862 1.04010
 H2145 H 0.03810 1.12854 1.06517
 H2146 H 0.03630 1.16457 1.08113
 H2147 H -0.03126 1.16887 1.06371
 H2148 H -0.02933 1.13278 1.04816
 C2149 C 0.50375 0.62835 0.55792
 C2150 C 0.52230 0.63768 0.56676
 C2151 C 0.52132 0.65839 0.57547
 C2152 C 0.50172 0.66994 0.57549
 C2153 C 0.48329 0.66056 0.56617
 C2154 C 0.48432 0.63992 0.55746
 C2155 C 0.50434 0.60679 0.54961
 C2156 C 0.50412 0.58877 0.54253
 H2157 H 0.53743 0.62886 0.56719
 H2158 H 0.53571 0.66508 0.58275
 H2159 H 0.46805 0.66916 0.56570
 H2160 H 0.46989 0.63289 0.55057
 C2161 C -0.00979 0.61763 0.44263
 C2162 C -0.02004 0.63554 0.45159
 C2163 C -0.01826 0.65586 0.44173
 C2164 C -0.00621 0.65846 0.42275
 C2165 C 0.00415 0.64036 0.41402
 C2166 C 0.00236 0.62012 0.42389
 C2167 C -0.01126 0.59669 0.45272
 C2168 C -0.01171 0.57894 0.46081
 H2169 H -0.02944 0.63380 0.46614
 H2170 H -0.02660 0.66945 0.44870
 H2171 H 0.01381 0.64188 0.39963
 H2172 H 0.01051 0.60640 0.41692
 C2173 C 0.49438 1.12150 -0.05641
 C2174 C 0.48420 1.13933 -0.04720
 C2175 C 0.48583 1.15972 -0.05696
 C2176 C 0.49762 1.16245 -0.07608
 C2177 C 0.50798 1.14445 -0.08501
 C2178 C 0.50635 1.12415 -0.07524
 C2179 C 0.49278 1.10042 -0.04666
 C2180 C 0.49208 1.08250 -0.03899
 H2181 H 0.47492 1.13745 -0.03259
 H2182 H 0.47752 1.17324 -0.04983
 H2183 H 0.51745 1.14609 -0.09951
 H2184 H 0.51441 1.11048 -0.08242
 C2185 C 0.51202 0.37287 -0.05179
 C2186 C 0.49245 0.36174 -0.05170
 C2187 C 0.49087 0.34160 -0.06143
 C2188 C 0.50888 0.33230 -0.07142
 C2189 C 0.52864 0.34338 -0.07102
 C2190 C 0.53018 0.36358 -0.06129
 C2191 C 0.51305 0.39406 -0.04263
 C2192 C 0.51294 0.41183 -0.03495
 H2193 H 0.47831 0.36875 -0.04434
 H2194 H 0.47552 0.33334 -0.06123
 H2195 H 0.54272 0.33674 -0.07879
 H2196 H 0.54540 0.37209 -0.06149
 C2197 C 0.00700 -0.13112 0.44749
 C2198 C -0.01255 -0.14230 0.44725
 C2199 C -0.01390 -0.16246 0.43754
 C2200 C 0.00432 -0.17175 0.42788
 C2201 C 0.02404 -0.16062 0.42862
 C2202 C 0.02535 -0.14040 0.43834
 C2203 C 0.00792 -0.10988 0.45655
 C2204 C 0.00810 -0.09201 0.46402
 H2205 H -0.02684 -0.13529 0.45434
 H2206 H -0.02924 -0.17076 0.43747
 H2207 H 0.03827 -0.16723 0.42111
 H2208 H 0.04055 -0.13186 0.43839
 C2209 C 0.49208 -0.11866 0.55318
 C2210 C 0.50645 -0.13465 0.54644
 C2211 C 0.50653 -0.15497 0.55645
 C2212 C 0.49227 -0.15949 0.57340
 C2213 C 0.47756 -0.14344 0.57971
 C2214 C 0.47750 -0.12316 0.56967
 C2215 C 0.49282 -0.09740 0.54372
 C2216 C 0.49377 -0.07953 0.53598
 H2217 H 0.51785 -0.13129 0.53371
 H2218 H 0.51818 -0.16691 0.55139
 H2219 H 0.46617 -0.14655 0.59250
 H2220 H 0.46627 -0.11092 0.57497
 C2221 C -0.00561 0.38146 1.05677
 C2222 C -0.01111 0.36310 1.04512
 C2223 C -0.01065 0.34275 1.05512
 C2224 C -0.00474 0.34035 1.07713
 C2225 C 0.00089 0.35923 1.08850
 C2226 C 0.00042 0.37945 1.07842
 C2227 C -0.00565 0.40241 1.04656
 C2228 C -0.00521 0.42012 1.03839
 H2229 H -0.01586 0.36450 1.02830
 H2230 H -0.01578 0.32918 1.04562
 H2231 H 0.00657 0.35858 1.10502
 H2232 H 0.00502 0.39355 1.08752
 C2233 C 0.75934 0.30558 0.12814
 C2234 C 0.76279 0.29356 0.10959
 C2235 C 0.76249 0.30362 0.08927
 C2236 C 0.75877 0.32616 0.08693
 C2237 C 0.75523 0.33785 0.10619
 C2238 C 0.75556 0.32768 0.12637
 C2239 C 0.75905 0.29534 0.14906
 C2240 C 0.75833 0.28721 0.16678
 H2241 H 0.76582 0.27637 0.11082
 H2242 H 0.76620 0.29350 0.07574
 H2243 H 0.75098 0.35475 0.10611
 H2244 H 0.75249 0.33710 0.14064
 C2245 C 0.25834 0.80444 0.62772
 C2246 C 0.26903 0.79469 0.61056
 C2247 C 0.26906 0.80466 0.59020
 C2248 C 0.25844 0.82453 0.58683
 C2249 C 0.24759 0.83405 0.60416
 C2250 C 0.24756 0.82407 0.62444
 C2251 C 0.25815 0.79441 0.64873
 C2252 C 0.25748 0.78641 0.66650
 H2253 H 0.27740 0.77946 0.61295
 H2254 H 0.27769 0.79705 0.57721
 H2255 H 0.23894 0.84914 0.60200
 H2256 H 0.23912 0.83168 0.63757
 C2257 C 0.74345 0.69760 0.62193
 C2258 C 0.72903 0.68093 0.61750
 C2259 C 0.72941 0.67078 0.59752
 C2260 C 0.74429 0.67715 0.58170
 C2261 C 0.75839 0.69429 0.58610
 C2262 C 0.75799 0.70441 0.60614
 C2263 C 0.74380 0.70710 0.64297
 C2264 C 0.74421 0.71471 0.66075
 H2265 H 0.71767 0.67557 0.62958
 H2266 H 0.71814 0.65786 0.59448
 H2267 H 0.77013 0.69940 0.57430
 H2268 H 0.76927 0.71728 0.60945
 C2269 C 0.24595 0.19396 0.12502
 C2270 C 0.25089 0.17208 0.12391
 C2271 C 0.25178 0.16188 0.10402
 C2272 C 0.24764 0.17330 0.08440
 C2273 C 0.24297 0.19568 0.08604
 C2274 C 0.24209 0.20577 0.10609
 C2275 C 0.24522 0.20413 0.14571
 C2276 C 0.24501 0.21204 0.16336
 H2277 H 0.25431 0.16285 0.13850
 H2278 H 0.25684 0.14519 0.10445
 H2279 H 0.23881 0.20556 0.07215
 H2280 H 0.23818 0.22280 0.10680
 C2281 C 0.25622 0.19316 0.87222
 C2282 C 0.24834 0.17218 0.87455
 C2283 C 0.24697 0.16266 0.89498
 C2284 C 0.25344 0.17401 0.91345
 C2285 C 0.26161 0.19502 0.91096
 C2286 C 0.26293 0.20455 0.89045
 C2287 C 0.25685 0.20301 0.85113
 C2288 C 0.25687 0.21093 0.83329
 H2289 H 0.24315 0.16321 0.86055
 H2290 H 0.24100 0.14633 0.89632
 H2291 H 0.26657 0.20420 0.92489
 H2292 H 0.26900 0.22083 0.88882
 C2293 C 0.75417 0.69254 0.36981
 C2294 C 0.74638 0.67153 0.37210
 C2295 C 0.74520 0.66190 0.39251
 C2296 C 0.75179 0.67319 0.41098
 C2297 C 0.75985 0.69424 0.40851
 C2298 C 0.76099 0.70387 0.38803
 C2299 C 0.75470 0.70249 0.34875
 C2300 C 0.75469 0.71053 0.33097
 H2301 H 0.74112 0.66259 0.35810
 H2302 H 0.73929 0.64554 0.39382
 H2303 H 0.76488 0.70338 0.42244
 H2304 H 0.76699 0.72018 0.38644
 C2305 C 0.24509 0.80535 0.37441
 C2306 C 0.23960 0.79380 0.39309
 C2307 C 0.24140 0.80348 0.41331
 C2308 C 0.24881 0.82481 0.41505
 C2309 C 0.25401 0.83633 0.39614
 C2310 C 0.25217 0.82665 0.37599
 C2311 C 0.24409 0.79536 0.35359
 C2312 C 0.24382 0.78742 0.33594
 H2313 H 0.23416 0.77726 0.39204
 H2314 H 0.23742 0.79418 0.42759
 H2315 H 0.25938 0.85289 0.39690
 H2316 H 0.25641 0.83576 0.36165
 C2317 C 0.74599 0.30753 0.87407
 C2318 C 0.74028 0.29560 0.89244
 C2319 C 0.74175 0.30489 0.91288
 C2320 C 0.74908 0.32619 0.91516
 C2321 C 0.75447 0.33810 0.89654
 C2322 C 0.75296 0.32882 0.87618
 C2323 C 0.74535 0.29793 0.85305
 C2324 C 0.74533 0.29022 0.83529
 H2325 H 0.73492 0.27907 0.89099
 H2326 H 0.73762 0.29529 0.92692
 H2327 H 0.75978 0.35466 0.89770
 H2328 H 0.75736 0.33823 0.86207
 C2329 C 0.80722 0.37098 0.24276
 C2330 C 0.79743 0.38847 0.23198
 C2331 C 0.80702 0.40885 0.23249
 C2332 C 0.82656 0.41192 0.24375
 C2333 C 0.83613 0.39425 0.25467
 C2334 C 0.82653 0.37395 0.25415
 C2335 C 0.79743 0.35000 0.24253
 C2336 C 0.78943 0.33233 0.24291
 H2337 H 0.78244 0.38634 0.22316
 H2338 H 0.79938 0.42210 0.22378
 H2339 H 0.85097 0.39616 0.26378
 H2340 H 0.83415 0.36056 0.26269
 C2341 C 0.30709 0.87038 0.74308
 C2342 C 0.29713 0.88801 0.73270
 C2343 C 0.30683 0.90835 0.73317
 C2344 C 0.32663 0.91125 0.74401
 C2345 C 0.33636 0.89344 0.75456
 C2346 C 0.32666 0.87318 0.75407
 C2347 C 0.29723 0.84942 0.74284
 C2348 C 0.28921 0.83174 0.74321
 H2349 H 0.28195 0.88602 0.72419
 H2350 H 0.29905 0.92170 0.72474
 H2351 H 0.35141 0.89521 0.76334
 H2352 H 0.33442 0.85969 0.76231
 C2353 C 0.19429 0.87380 0.25699
 C2354 C 0.20499 0.89167 0.24849
 C2355 C 0.19499 0.91195 0.24808
 C2356 C 0.17378 0.91489 0.25607
 C2357 C 0.16358 0.89641 0.26505
 C2358 C 0.17369 0.87627 0.26542
 C2359 C 0.20410 0.85275 0.25669
 C2360 C 0.21184 0.83490 0.25635
 H2361 H 0.22096 0.88988 0.24177
 H2362 H 0.20376 0.92479 0.24026
 H2363 H 0.14807 0.89723 0.27279
 H2364 H 0.16537 0.86255 0.27235
 C2365 C 0.69564 0.37653 0.75424
 C2366 C 0.70522 0.39393 0.76481
 C2367 C 0.69513 0.41416 0.76447
 C2368 C 0.67529 0.41715 0.75361
 C2369 C 0.66600 0.39962 0.74279
 C2370 C 0.67611 0.37947 0.74313
 C2371 C 0.70557 0.35554 0.75488
 C2372 C 0.71339 0.33772 0.75508
 H2373 H 0.72036 0.39180 0.77347
 H2374 H 0.70255 0.42732 0.77309
 H2375 H 0.65091 0.40151 0.73400
 H2376 H 0.66862 0.36614 0.73480
 C2377 C 0.69359 0.62898 0.74228
 C2378 C 0.70459 0.61045 0.73572
 C2379 C 0.69488 0.59020 0.73770
 C2380 C 0.67407 0.58829 0.74637
 C2381 C 0.66309 0.60706 0.75269
 C2382 C 0.67280 0.62724 0.75067
 C2383 C 0.70367 0.64980 0.74106
 C2384 C 0.71173 0.66744 0.74066
 H2385 H 0.72073 0.61162 0.72927
 H2386 H 0.70377 0.57602 0.73284
 H2387 H 0.64692 0.60617 0.75907
 H2388 H 0.66413 0.64148 0.75577
 C2389 C 0.19460 0.12635 0.24390
 C2390 C 0.17349 0.12446 0.25141
 C2391 C 0.16382 0.10423 0.25294
 C2392 C 0.17517 0.08553 0.24701
 C2393 C 0.19631 0.08759 0.23921
 C2394 C 0.20598 0.10790 0.23772
 C2395 C 0.20456 0.14724 0.24310
 C2396 C 0.21249 0.16495 0.24294
 H2397 H 0.16451 0.13863 0.25618
 H2398 H 0.14739 0.10323 0.25862
 H2399 H 0.20548 0.07347 0.23467
 H2400 H 0.22237 0.10919 0.23194
 C2401 C 0.30561 0.12457 0.75348
 C2402 C 0.30516 0.11349 0.73395
 C2403 C 0.31412 0.09283 0.73266
 C2404 C 0.32368 0.08292 0.75092
 C2405 C 0.32366 0.09399 0.77062
 C2406 C 0.31470 0.11471 0.77186
 C2407 C 0.29708 0.14619 0.75438
 C2408 C 0.28988 0.16429 0.75453
 H2409 H 0.29809 0.12092 0.71964
 H2410 H 0.31364 0.08463 0.71735
 H2411 H 0.33113 0.08691 0.78489
 H2412 H 0.31515 0.12314 0.78706
 C2413 C 0.80240 0.62408 0.25196
 C2414 C 0.80285 0.61295 0.23247
 C2415 C 0.81232 0.59249 0.23155
 C2416 C 0.82152 0.58286 0.25014
 C2417 C 0.82056 0.59397 0.26979
 C2418 C 0.81109 0.61447 0.27066
 C2419 C 0.79361 0.64560 0.25249
 C2420 C 0.78639 0.66369 0.25239
 H2421 H 0.79612 0.62020 0.21791
 H2422 H 0.81256 0.58424 0.21626
 H2423 H 0.82772 0.58710 0.28431
 H2424 H 0.81087 0.62296 0.28583
 C2425 C 0.87223 0.25626 0.19481
 C2426 C 0.87663 0.27123 0.17843
 C2427 C 0.89681 0.27134 0.16860
 C2428 C 0.91288 0.25641 0.17501
 C2429 C 0.90845 0.24170 0.19180
 C2430 C 0.88822 0.24162 0.20161
 C2431 C 0.85113 0.25559 0.20425
 C2432 C 0.83340 0.25486 0.21204
 H2433 H 0.86440 0.28269 0.17311
 H2434 H 0.89985 0.28307 0.15594
 H2435 H 0.92040 0.22988 0.19692
 H2436 H 0.88495 0.22993 0.21426
 C2437 C 0.37139 0.75580 0.69463
 C2438 C 0.38883 0.76661 0.70402
 C2439 C 0.40896 0.76656 0.69399
 C2440 C 0.41182 0.75572 0.67440
 C2441 C 0.39422 0.74472 0.66526
 C2442 C 0.37418 0.74479 0.67530
 C2443 C 0.35060 0.75581 0.70471
 C2444 C 0.33301 0.75535 0.71279
 H2445 H 0.38683 0.77517 0.71901
 H2446 H 0.42215 0.77532 0.70130
 H2447 H 0.39601 0.73594 0.65038
 H2448 H 0.36083 0.73625 0.66797
 C2449 C 0.37495 0.24668 0.80541
 C2450 C 0.39269 0.23612 0.79645
 C2451 C 0.41293 0.23711 0.80657
 C2452 C 0.41560 0.24863 0.82583
 C2453 C 0.39770 0.25939 0.83452
 C2454 C 0.37754 0.25840 0.82438
 C2455 C 0.35400 0.24555 0.79532
 C2456 C 0.33626 0.24503 0.78725
 H2457 H 0.39085 0.22701 0.78175
 H2458 H 0.42636 0.22849 0.79962
 H2459 H 0.39932 0.26865 0.84914
 H2460 H 0.36394 0.26673 0.83139
 C2461 C 0.87295 0.74299 0.30382
 C2462 C 0.89186 0.73946 0.29233
 C2463 C 0.91194 0.74010 0.30281
 C2464 C 0.91366 0.74422 0.32527
 C2465 C 0.89406 0.74793 0.33638
 C2466 C 0.87412 0.74727 0.32580
 C2467 C 0.85222 0.74261 0.29320
 C2468 C 0.83457 0.74270 0.28489
 H2469 H 0.89110 0.73603 0.27525
 H2470 H 0.92579 0.73624 0.29313
 H2471 H 0.89367 0.75249 0.35312
 H2472 H 0.85955 0.75040 0.33479
 C2473 C 0.12421 0.75445 0.30475
 C2474 C 0.11290 0.73499 0.30429
 C2475 C 0.09249 0.73352 0.31355
 C2476 C 0.08309 0.75154 0.32344
 C2477 C 0.09439 0.77118 0.32344
 C2478 C 0.11485 0.77259 0.31418
 C2479 C 0.14563 0.75548 0.29604
 C2480 C 0.16361 0.75571 0.28879
 H2481 H 0.11996 0.72086 0.29698
 H2482 H 0.08408 0.71827 0.31305
 H2483 H 0.08771 0.78525 0.33115
 H2484 H 0.12349 0.78773 0.31466
 C2485 C 0.62649 0.25729 0.80434
 C2486 C 0.61741 0.27550 0.81389
 C2487 C 0.59706 0.27425 0.82340
 C2488 C 0.58559 0.25472 0.82352
 C2489 C 0.59470 0.23663 0.81350
 C2490 C 0.61501 0.23793 0.80399
 C2491 C 0.64782 0.25815 0.79543
 C2492 C 0.66574 0.25831 0.78807
 H2493 H 0.62619 0.29056 0.81430
 H2494 H 0.59060 0.28838 0.83121
 H2495 H 0.58616 0.22145 0.81309
 H2496 H 0.62186 0.22374 0.79659
 C2497 C 0.62511 0.74864 0.69239
 C2498 C 0.61360 0.76809 0.69266
 C2499 C 0.59278 0.76927 0.68390
 C2500 C 0.58317 0.75098 0.67472
 C2501 C 0.59471 0.73138 0.67490
 C2502 C 0.61557 0.73024 0.68366
 C2503 C 0.64683 0.74778 0.70076
 C2504 C 0.66500 0.74752 0.70785
 H2505 H 0.62079 0.78240 0.69947
 H2506 H 0.58420 0.78451 0.68425
 H2507 H 0.58787 0.71709 0.66771
 H2508 H 0.62436 0.71510 0.68335
 C2509 C 0.12537 0.24577 0.19377
 C2510 C 0.11374 0.26514 0.19422
 C2511 C 0.09304 0.26637 0.18519
 C2512 C 0.08365 0.24820 0.17555
 C2513 C 0.09529 0.22865 0.17557
 C2514 C 0.11604 0.22747 0.18461
 C2515 C 0.14700 0.24492 0.20240
 C2516 C 0.16510 0.24472 0.20968
 H2517 H 0.12077 0.27938 0.20136
 H2518 H 0.08438 0.28156 0.18567
 H2519 H 0.08861 0.21446 0.16805
 H2520 H 0.12491 0.21239 0.18417
 C2521 C -0.05644 0.99734 0.87844
 C2522 C -0.04409 1.00274 0.86045
 C2523 C -0.05366 1.00392 0.83994
 C2524 C -0.07596 0.99984 0.83701
 C2525 C -0.08800 0.99408 0.85547
 C2526 C -0.07834 0.99288 0.87587
 C2527 C -0.04692 0.99698 0.89969
 C2528 C -0.03931 0.99703 0.91764
 H2529 H -0.02710 1.00639 0.86231
 H2530 H -0.04360 1.00901 0.82671
 H2531 H -0.10483 0.98972 0.85435
 H2532 H -0.08802 0.98849 0.88968
 C2533 C 0.44368 0.50052 0.38004
 C2534 C 0.42821 0.51635 0.37513
 C2535 C 0.41882 0.51742 0.35459
 C2536 C 0.42477 0.50263 0.33865
 C2537 C 0.44067 0.48702 0.34359
 C2538 C 0.45004 0.48596 0.36420
 C2539 C 0.45276 0.49921 0.40145
 C2540 C 0.46005 0.49861 0.41953
 H2541 H 0.42326 0.52778 0.38724
 H2542 H 0.40684 0.52980 0.35119
 H2543 H 0.44540 0.47527 0.33173
 H2544 H 0.46202 0.47364 0.36784
 C2545 C 0.55788 0.01076 0.37461
 C2546 C 0.54709 0.00074 0.35759
 C2547 C 0.55690 -0.00108 0.33745
 C2548 C 0.57792 0.00695 0.33393
 C2549 C 0.58831 0.01745 0.35133
 C2550 C 0.57840 0.01925 0.37137
 C2551 C 0.54831 0.01168 0.39566
 C2552 C 0.54063 0.01202 0.41344
 H2553 H 0.53120 -0.00605 0.35999
 H2554 H 0.54823 -0.00976 0.32513
 H2555 H 0.60390 0.02497 0.34957
 H2556 H 0.58684 0.02724 0.38438
 C2557 C 0.05575 0.50961 0.87529
 C2558 C 0.04757 0.49514 0.86013
 C2559 C 0.05728 0.49329 0.83994
 C2560 C 0.07539 0.50583 0.83473
 C2561 C 0.08322 0.52062 0.84996
 C2562 C 0.07348 0.52246 0.87009
 C2563 C 0.04654 0.51065 0.89650
 C2564 C 0.03911 0.51108 0.91439
 H2565 H 0.03390 0.48505 0.86402
 H2566 H 0.05100 0.48164 0.82866
 H2567 H 0.09691 0.53076 0.84630
 H2568 H 0.07993 0.53373 0.88168
 C2569 C 0.05108 0.48849 0.62401
 C2570 C 0.04041 0.48230 0.64289
 C2571 C 0.05076 0.48413 0.66296
 C2572 C 0.07187 0.49230 0.66438
 C2573 C 0.08248 0.49826 0.64527
 C2574 C 0.07214 0.49639 0.62528
 C2575 C 0.04046 0.48736 0.60329
 C2576 C 0.03222 0.48713 0.58559
 H2577 H 0.02406 0.47623 0.64211
 H2578 H 0.04212 0.47955 0.67739
 H2579 H 0.09886 0.50422 0.64575
 H2580 H 0.08058 0.50119 0.61079
 C2581 C 0.55381 0.98779 0.12191
 C2582 C 0.54259 0.98205 0.14060
 C2583 C 0.55251 0.98397 0.16089
 C2584 C 0.57371 0.99180 0.16268
 C2585 C 0.58491 0.99720 0.14375
 C2586 C 0.57502 0.99523 0.12356
 C2587 C 0.54350 0.98702 0.10102
 C2588 C 0.53536 0.98725 0.08327
 H2589 H 0.52612 0.97637 0.13953
 H2590 H 0.54344 0.97980 0.17517
 H2591 H 0.60138 1.00289 0.14455
 H2592 H 0.58387 0.99971 0.10921
 C2593 C 0.44913 0.49751 0.12873
 C2594 C 0.44741 0.51670 0.14024
 C2595 C 0.43736 0.51680 0.16031
 C2596 C 0.42883 0.49769 0.16914
 C2597 C 0.43112 0.47836 0.15770
 C2598 C 0.44117 0.47830 0.13759
 C2599 C 0.45842 0.49773 0.10754
 C2600 C 0.46594 0.49799 0.08968
 H2601 H 0.45358 0.53165 0.13357
 H2602 H 0.43611 0.53187 0.16886
 H2603 H 0.42451 0.46344 0.16397
 H2604 H 0.44238 0.46336 0.12879
 C2605 C -0.05248 0.00011 0.62568
 C2606 C -0.05844 0.01981 0.63454
 C2607 C -0.06825 0.02045 0.65470
 C2608 C -0.07248 0.00127 0.66655
 C2609 C -0.06572 -0.01846 0.65752
 C2610 C -0.05594 -0.01899 0.63728
 C2611 C -0.04321 -0.00048 0.60449
 C2612 C -0.03561 -0.00100 0.58668
 H2613 H -0.05556 0.03475 0.62582
 H2614 H -0.07191 0.03619 0.66106
 H2615 H -0.06889 -0.03375 0.66536
 H2616 H -0.05142 -0.03438 0.63052
 C2617 C -0.12556 0.94730 0.99691
 C2618 C -0.14407 0.95807 1.00397
 C2619 C -0.16403 0.94759 1.00388
 C2620 C -0.16569 0.92623 0.99666
 C2621 C -0.14693 0.91553 0.98980
 C2622 C -0.12705 0.92601 0.98992
 C2623 C -0.10491 0.95781 0.99707
 C2624 C -0.08733 0.96603 0.99727
 H2625 H -0.14308 0.97456 1.00948
 H2626 H -0.17821 0.95629 1.00909
 H2627 H -0.14759 0.89896 0.98452
 H2628 H -0.11281 0.91746 0.98459
 C2629 C 0.37330 0.44728 0.49858
 C2630 C 0.35471 0.45815 0.50527
 C2631 C 0.33474 0.44766 0.50511
 C2632 C 0.33315 0.42619 0.49819
 C2633 C 0.35200 0.41540 0.49170
 C2634 C 0.37188 0.42587 0.49188
 C2635 C 0.39396 0.45780 0.49878
 C2636 C 0.41154 0.46606 0.49903
 H2637 H 0.35564 0.47471 0.51054
 H2638 H 0.32051 0.45644 0.51004
 H2639 H 0.35140 0.39875 0.48665
 H2640 H 0.38618 0.41724 0.48684
 C2641 C 0.37744 0.54732 0.00651
 C2642 C 0.37381 0.56268 -0.00982
 C2643 C 0.35395 0.57328 -0.01150
 C2644 C 0.33739 0.56867 0.00317
 C2645 C 0.34095 0.55279 0.01922
 C2646 C 0.36092 0.54222 0.02091
 C2647 C 0.39839 0.53739 0.00859
 C2648 C 0.41631 0.52979 0.00957
 H2649 H 0.38646 0.56669 -0.02111
 H2650 H 0.35158 0.58519 -0.02421
 H2651 H 0.32856 0.54907 0.03086
 H2652 H 0.36357 0.53035 0.03363
 C2653 C -0.12214 0.04697 0.51142
 C2654 C -0.12464 0.06692 0.52141
 C2655 C -0.14429 0.07796 0.51989
 C2656 C -0.16174 0.06923 0.50829
 C2657 C -0.15928 0.04890 0.49876
 C2658 C -0.13955 0.03788 0.50026
 C2659 C -0.10132 0.03660 0.51156
 C2660 C -0.08360 0.02855 0.51113
 H2661 H -0.11128 0.07412 0.53006
 H2662 H -0.14580 0.09341 0.52771
 H2663 H -0.17237 0.04185 0.48960
 H2664 H -0.13774 0.02249 0.49235
 C2665 C 0.62636 0.06034 0.49813
 C2666 C 0.62909 0.08200 0.49233
 C2667 C 0.64946 0.09142 0.49365
 C2668 C 0.66748 0.07930 0.50076
 C2669 C 0.66455 0.05759 0.50685
 C2670 C 0.64410 0.04817 0.50550
 C2671 C 0.60528 0.05080 0.49667
 C2672 C 0.58747 0.04313 0.49560
 H2673 H 0.61546 0.09162 0.48677
 H2674 H 0.65111 0.10826 0.48920
 H2675 H 0.67812 0.04781 0.51222
 H2676 H 0.64215 0.03139 0.51009
 C2677 C 0.12592 0.55998 0.99728
 C2678 C 0.12983 0.57926 0.98627
 C2679 C 0.15019 0.58874 0.98722
 C2680 C 0.16730 0.57909 0.99925
 C2681 C 0.16289 0.55964 1.01048
 C2682 C 0.14244 0.55020 1.00943
 C2683 C 0.10479 0.55050 0.99633
 C2684 C 0.08697 0.54285 0.99563
 H2685 H 0.11705 0.58715 0.97707
 H2686 H 0.15198 0.60413 0.97911
 H2687 H 0.17531 0.55104 1.01946
 H2688 H 0.13957 0.53519 1.01802
 C2689 C 0.11967 0.44036 0.50364
 C2690 C 0.13611 0.45213 0.49368
 C2691 C 0.15671 0.44308 0.49158
 C2692 C 0.16102 0.42209 0.49934
 C2693 C 0.14446 0.41056 0.50963
 C2694 C 0.12394 0.41963 0.51173
 C2695 C 0.09822 0.44918 0.50493
 C2696 C 0.08016 0.45642 0.50558
 H2697 H 0.13294 0.46817 0.48729
 H2698 H 0.16909 0.45228 0.48346
 H2699 H 0.14739 0.39452 0.51613
 H2700 H 0.11135 0.41040 0.51950
 C2701 C 0.62183 0.94284 0.00463
 C2702 C 0.63836 0.95464 -0.00514
 C2703 C 0.65879 0.94537 -0.00765
 C2704 C 0.66284 0.92412 -0.00053
 C2705 C 0.64621 0.91257 0.00964
 C2706 C 0.62585 0.92186 0.01216
 C2707 C 0.60044 0.95176 0.00589
 C2708 C 0.58241 0.95906 0.00623
 H2709 H 0.63536 0.97087 -0.01114
 H2710 H 0.67123 0.95459 -0.01565
 H2711 H 0.64896 0.89631 0.01565
 H2712 H 0.61317 0.91259 0.01973
 C2713 C -0.00439 0.87996 0.94930
 C2714 C -0.01390 0.86156 0.95818
 C2715 C -0.01243 0.84179 0.94760
 C2716 C -0.00146 0.84006 0.92774
 C2717 C 0.00833 0.85887 0.91933
 C2718 C 0.00684 0.87851 0.92998
 C2719 C -0.00605 0.90050 0.95973
 C2720 C -0.00683 0.91812 0.96768
 H2721 H -0.02272 0.86254 0.97315
 H2722 H -0.02084 0.82826 0.95467
 H2723 H 0.01786 0.85857 0.90483
 H2724 H 0.01454 0.89262 0.92310
 C2725 C 0.49532 0.38024 0.45147
 C2726 C 0.48154 0.36315 0.45659
 C2727 C 0.48344 0.34351 0.44584
 C2728 C 0.49910 0.34081 0.42979
 C2729 C 0.51310 0.35798 0.42507
 C2730 C 0.51120 0.37753 0.43583
 C2731 C 0.49312 0.40079 0.46176
 C2732 C 0.49204 0.41841 0.46967
 H2733 H 0.46918 0.36510 0.46865
 H2734 H 0.47230 0.33066 0.44965
 H2735 H 0.52550 0.35629 0.41302
 H2736 H 0.52201 0.39062 0.43181
 C2737 C -0.00037 0.36922 0.55515
 C2738 C -0.01298 0.35262 0.54676
 C2739 C -0.01303 0.33225 0.55678
 C2740 C -0.00032 0.32802 0.57545
 C2741 C 0.01218 0.34520 0.58367
 C2742 C 0.01213 0.36545 0.57362
 C2743 C -0.00044 0.39032 0.54519
 C2744 C -0.00042 0.40820 0.53732
 H2745 H -0.02273 0.35536 0.53239
 H2746 H -0.02249 0.31978 0.54925
 H2747 H 0.02145 0.34359 0.59845
 H2748 H 0.02173 0.37829 0.58046
 C2749 C 0.50485 0.87157 0.05162
 C2750 C 0.48525 0.86045 0.05149
 C2751 C 0.48379 0.84009 0.06123
 C2752 C 0.50194 0.83052 0.07129
 C2753 C 0.52170 0.84163 0.07096
 C2754 C 0.52312 0.86204 0.06122
 C2755 C 0.50584 0.89301 0.04251
 C2756 C 0.50589 0.91104 0.03500
 H2757 H 0.47101 0.86765 0.04407
 H2758 H 0.46843 0.83185 0.06097
 H2759 H 0.53589 0.83482 0.07880
 H2760 H 0.53835 0.87052 0.06149
 C2761 C 0.49473 0.61861 0.05939
 C2762 C 0.50616 0.62174 0.07864
 C2763 C 0.50661 0.64207 0.08808
 C2764 C 0.49560 0.65962 0.07840
 C2765 C 0.48432 0.65639 0.05892
 C2766 C 0.48387 0.63598 0.04949
 C2767 C 0.49439 0.59755 0.04987
 C2768 C 0.49460 0.57977 0.04220
 H2769 H 0.51474 0.60845 0.08637
 H2770 H 0.51573 0.64410 0.10289
 H2771 H 0.47552 0.66952 0.05120
 H2772 H 0.47499 0.63374 0.03456
 C2773 C -0.00728 0.11561 0.55700
 C2774 C -0.01642 0.11890 0.57723
 C2775 C -0.01526 0.13914 0.58684
 C2776 C -0.00487 0.15640 0.57635
 C2777 C 0.00388 0.15308 0.55580
 C2778 C 0.00272 0.13278 0.54622
 C2779 C -0.00739 0.09442 0.54776
 C2780 C -0.00699 0.07659 0.54020
 H2781 H -0.02422 0.10575 0.58571
 H2782 H -0.02247 0.14128 0.60251
 H2783 H 0.01213 0.16599 0.54742
 H2784 H 0.00993 0.13038 0.53058
 C2785 C 0.50524 0.13127 0.44570
 C2786 C 0.52372 0.14409 0.44494
 C2787 C 0.52279 0.16458 0.43536
 C2788 C 0.50334 0.17250 0.42635
 C2789 C 0.48474 0.15967 0.42761
 C2790 C 0.48571 0.13917 0.43720
 C2791 C 0.50640 0.10980 0.45467
 C2792 C 0.50706 0.09171 0.46193
 H2793 H 0.53890 0.13817 0.45155
 H2794 H 0.53731 0.17420 0.43490
 H2795 H 0.46961 0.16520 0.42060
 H2796 H 0.47132 0.12934 0.43767
 C2797 C 0.00504 0.63025 0.94588
 C2798 C 0.02416 0.64045 0.94007
 C2799 C 0.02360 0.66079 0.93019
 C2800 C 0.00375 0.67147 0.92575
 C2801 C -0.01540 0.66108 0.93235
 C2802 C -0.01471 0.64068 0.94220
 C2803 C 0.00569 0.60887 0.95513
 C2804 C 0.00614 0.59085 0.96262
 H2805 H 0.03958 0.63263 0.94310
 H2806 H 0.03893 0.66820 0.92665
 H2807 H -0.03113 0.66798 0.92901
 H2808 H -0.02966 0.63285 0.94658
 C2809 C 0.24583 0.69560 0.87681
 C2810 C 0.23699 0.67522 0.88051
 C2811 C 0.23942 0.66518 0.90064
 C2812 C 0.25081 0.67537 0.91738
 C2813 C 0.25927 0.69608 0.91368
 C2814 C 0.25684 0.70610 0.89346
 C2815 C 0.24446 0.70514 0.85560
 C2816 C 0.24376 0.71258 0.83758
 H2817 H 0.22844 0.66696 0.86775
 H2818 H 0.23238 0.64941 0.90313
 H2819 H 0.26821 0.70425 0.92623
 H2820 H 0.26385 0.72185 0.89071
 C2821 C 0.74685 0.19520 0.37680
 C2822 C 0.73771 0.17497 0.38067
 C2823 C 0.74018 0.16496 0.40082
 C2824 C 0.75191 0.17502 0.41741
 C2825 C 0.76070 0.19555 0.41353
 C2826 C 0.75824 0.20554 0.39330
 C2827 C 0.74537 0.20476 0.35559
 C2828 C 0.74460 0.21229 0.33760
 H2829 H 0.72887 0.16682 0.36802
 H2830 H 0.73288 0.14933 0.40343
 H2831 H 0.76992 0.20362 0.42595
 H2832 H 0.76548 0.22117 0.39043
 C2833 C 0.25512 0.30395 0.37146
 C2834 C 0.26957 0.29862 0.38820
 C2835 C 0.26762 0.30842 0.40832
 C2836 C 0.25122 0.32371 0.41188
 C2837 C 0.23659 0.32864 0.39504
 C2838 C 0.23855 0.31883 0.37500
 C2839 C 0.25707 0.29432 0.35056
 C2840 C 0.25780 0.28663 0.33282
 H2841 H 0.28244 0.28708 0.38563
 H2842 H 0.27925 0.30446 0.42091
 H2843 H 0.22361 0.34010 0.39737
 H2844 H 0.22718 0.32296 0.36222
 C2845 C 0.75564 0.80620 0.86896
 C2846 C 0.77008 0.80066 0.88564
 C2847 C 0.76810 0.81020 0.90589
 C2848 C 0.75168 0.82542 0.90962
 C2849 C 0.73705 0.83055 0.89284
 C2850 C 0.73904 0.82102 0.87267
 C2851 C 0.75758 0.79680 0.84796
 C2852 C 0.75826 0.78927 0.83015
 H2853 H 0.78295 0.78917 0.88294
 H2854 H 0.77971 0.80610 0.91844
 H2855 H 0.72406 0.84197 0.89530
 H2856 H 0.72768 0.82529 0.85993
 C2857 C 0.74483 0.80657 0.12208
 C2858 C 0.75265 0.79512 0.10442
 C2859 C 0.75373 0.80509 0.08408
 C2860 C 0.74693 0.82661 0.08122
 C2861 C 0.73931 0.83799 0.09915
 C2862 C 0.73826 0.82803 0.11940
 C2863 C 0.74398 0.79659 0.14311
 C2864 C 0.74363 0.78860 0.16091
 H2865 H 0.75788 0.77851 0.10635
 H2866 H 0.75951 0.79588 0.07056
 H2867 H 0.73432 0.85469 0.09756
 H2868 H 0.73239 0.83710 0.13299
 C2869 C 0.24519 0.30603 0.62401
 C2870 C 0.25313 0.29474 0.60630
 C2871 C 0.25399 0.30474 0.58597
 C2872 C 0.24686 0.32617 0.58314
 C2873 C 0.23911 0.33740 0.60111
 C2874 C 0.23828 0.32739 0.62136
 C2875 C 0.24461 0.29602 0.64505
 C2876 C 0.24449 0.28801 0.66285
 H2877 H 0.25862 0.27821 0.60820
 H2878 H 0.25987 0.29564 0.57242
 H2879 H 0.23386 0.35403 0.59956
 H2880 H 0.23231 0.33636 0.63498
 C2881 C 0.75841 0.19604 0.62809
 C2882 C 0.76417 0.17427 0.62691
 C2883 C 0.76362 0.16375 0.60713
 C2884 C 0.75730 0.17486 0.58817
 C2885 C 0.75140 0.19674 0.58951
 C2886 C 0.75197 0.20726 0.60937
 C2887 C 0.75856 0.20655 0.64868
 C2888 C 0.75835 0.21482 0.66617
 H2889 H 0.76898 0.16537 0.64131
 H2890 H 0.76789 0.14681 0.60672
 H2891 H 0.74664 0.20578 0.57519
 H2892 H 0.74739 0.22412 0.61012
 C2893 C 0.25634 0.69332 0.12869
 C2894 C 0.26282 0.67178 0.12706
 C2895 C 0.26257 0.66165 0.10707
 C2896 C 0.25583 0.67294 0.08835
 C2897 C 0.24923 0.69458 0.09015
 C2898 C 0.24951 0.70470 0.11021
 C2899 C 0.25627 0.70346 0.14945
 C2900 C 0.25593 0.71158 0.16701
 H2901 H 0.26797 0.66276 0.14128
 H2902 H 0.26739 0.64487 0.10630
 H2903 H 0.24415 0.70375 0.07601
 H2904 H 0.24440 0.72138 0.11131
 C2905 C 0.19353 0.62459 0.75769
 C2906 C 0.20121 0.60919 0.74327
 C2907 C 0.19128 0.58902 0.74191
 C2908 C 0.17346 0.58404 0.75491
 C2909 C 0.16614 0.59951 0.76963
 C2910 C 0.17609 0.61963 0.77098
 C2911 C 0.20300 0.64575 0.75829
 C2912 C 0.21069 0.66358 0.75840
 H2913 H 0.21465 0.61289 0.73284
 H2914 H 0.19716 0.57755 0.73029
 H2915 H 0.15269 0.59606 0.78011
 H2916 H 0.17003 0.63141 0.78222
 C2917 C 0.69319 0.12562 0.25524
 C2918 C 0.67194 0.12441 0.24777
 C2919 C 0.66180 0.10446 0.24593
 C2920 C 0.67269 0.08506 0.25158
 C2921 C 0.69434 0.08664 0.25888
 C2922 C 0.70441 0.10671 0.26072
 C2923 C 0.70342 0.14634 0.25678
 C2924 C 0.71144 0.16399 0.25745
 H2925 H 0.66319 0.13894 0.24316
 H2926 H 0.64564 0.10449 0.23924
 H2927 H 0.70346 0.07260 0.26410
 H2928 H 0.72091 0.10748 0.26655
 C2929 C 0.80542 0.12825 0.74323
 C2930 C 0.82549 0.12492 0.73368
 C2931 C 0.83538 0.10467 0.73491
 C2932 C 0.82535 0.08743 0.74579
 C2933 C 0.80494 0.09078 0.75493
 C2934 C 0.79507 0.11110 0.75370
 C2935 C 0.79596 0.14948 0.74305
 C2936 C 0.78832 0.16738 0.74332
 H2937 H 0.83362 0.13806 0.72552
 H2938 H 0.85092 0.10249 0.72740
 H2939 H 0.79692 0.07787 0.76353
 H2940 H 0.77956 0.11354 0.76122
 C2941 C 0.30296 0.62502 0.24361
 C2942 C 0.32266 0.62180 0.23330
 C2943 C 0.33287 0.60170 0.23448
 C2944 C 0.32355 0.58452 0.24607
 C2945 C 0.30348 0.58774 0.25595
 C2946 C 0.29328 0.60791 0.25477
 C2947 C 0.29329 0.64616 0.24358
 C2948 C 0.28558 0.66402 0.24397
 H2949 H 0.33028 0.63491 0.22460
 H2950 H 0.34814 0.59961 0.22641
 H2951 H 0.29601 0.57488 0.26512
 H2952 H 0.27807 0.61027 0.26290
 C2953 C 0.30663 0.37281 0.25526
 C2954 C 0.29535 0.39088 0.24731
 C2955 C 0.30529 0.41111 0.24679
 C2956 C 0.32663 0.41349 0.25428
 C2957 C 0.33782 0.39518 0.26214
 C2958 C 0.32788 0.37502 0.26263
 C2959 C 0.29670 0.35188 0.25541
 C2960 C 0.28873 0.33418 0.25523
 H2961 H 0.27890 0.38934 0.24150
 H2962 H 0.29619 0.42492 0.24082
 H2963 H 0.35439 0.39638 0.26766
 H2964 H 0.33683 0.36112 0.26864
 C2965 C 0.80609 0.87539 0.75179
 C2966 C 0.80694 0.88768 0.77054
 C2967 C 0.81631 0.90814 0.77014
 C2968 C 0.82501 0.91659 0.75094
 C2969 C 0.82370 0.90427 0.73206
 C2970 C 0.81433 0.88379 0.73252
 C2971 C 0.79700 0.85406 0.75233
 C2972 C 0.78942 0.83619 0.75243
 H2973 H 0.80051 0.88140 0.78552
 H2974 H 0.81681 0.91734 0.78486
 H2975 H 0.83047 0.91019 0.71711
 H2976 H 0.81375 0.87440 0.71790
 C2977 C 0.69746 0.87481 0.23799
 C2978 C 0.69795 0.88579 0.25758
 C2979 C 0.68822 0.90606 0.25922
 C2980 C 0.67782 0.91567 0.24126
 C2981 C 0.67780 0.90471 0.22150
 C2982 C 0.68753 0.88438 0.21990
 C2983 C 0.70647 0.85340 0.23688
 C2984 C 0.71386 0.83538 0.23682
 H2985 H 0.70562 0.87855 0.27168
 H2986 H 0.68875 0.91420 0.27457
 H2987 H 0.66970 0.91156 0.20745
 H2988 H 0.68698 0.87599 0.20468
 C2989 C 0.19626 0.37344 0.73984
 C2990 C 0.19628 0.38428 0.75951
 C2991 C 0.18643 0.40451 0.76110
 C2992 C 0.17638 0.41424 0.74300
 C2993 C 0.17678 0.40339 0.72318
 C2994 C 0.18663 0.38311 0.72163
 C2995 C 0.20561 0.35216 0.73871
 C2996 C 0.21336 0.33427 0.73861
 H2997 H 0.20373 0.37699 0.77371
 H2998 H 0.18666 0.41255 0.77651
 H2999 H 0.16896 0.41032 0.70902
 H3000 H 0.18645 0.37484 0.70634
 C3001 C 0.12431 0.75044 0.80389
 C3002 C 0.10742 0.73635 0.79902
 C3003 C 0.08727 0.73905 0.80864
 C3004 C 0.08384 0.75585 0.82331
 C3005 C 0.10081 0.77016 0.82774
 C3006 C 0.12088 0.76745 0.81810
 C3007 C 0.14530 0.74748 0.79465
 C3008 C 0.16315 0.74574 0.78733
 H3009 H 0.10991 0.72313 0.78803
 H3010 H 0.07460 0.72763 0.80511
 H3011 H 0.09857 0.78340 0.83875
 H3012 H 0.13381 0.77852 0.82188
 C3013 C 0.62549 0.25079 0.30480
 C3014 C 0.62226 0.26761 0.31928
 C3015 C 0.60220 0.27041 0.32895
 C3016 C 0.58505 0.25639 0.32426
 C3017 C 0.58831 0.23977 0.30935
 C3018 C 0.60844 0.23698 0.29970
 C3019 C 0.64643 0.24778 0.29545
 C3020 C 0.66424 0.24601 0.28801
 H3021 H 0.63531 0.27847 0.32325
 H3022 H 0.60011 0.28351 0.34014
 H3023 H 0.57549 0.22858 0.30561
 H3024 H 0.61077 0.22392 0.28850
 C3025 C 0.62514 0.75731 0.19159
 C3026 C 0.61509 0.77534 0.18206
 C3027 C 0.59419 0.77368 0.17348
 C3028 C 0.58313 0.75391 0.17427
 C3029 C 0.59325 0.73601 0.18425
 C3030 C 0.61408 0.73772 0.19283
 C3031 C 0.64689 0.75856 0.19986
 C3032 C 0.66506 0.75871 0.20700
 H3033 H 0.62349 0.79059 0.18101
 H3034 H 0.58694 0.78767 0.16568
 H3035 H 0.58507 0.72066 0.18537
 H3036 H 0.62166 0.72368 0.20026
 C3037 C 0.12768 0.25331 0.69136
 C3038 C 0.10982 0.24890 0.70425
 C3039 C 0.08940 0.24617 0.69485
 C3040 C 0.08643 0.24763 0.67222
 C3041 C 0.10476 0.25241 0.65958
 C3042 C 0.12506 0.25517 0.66906
 C3043 C 0.14889 0.25499 0.70083
 C3044 C 0.16680 0.25571 0.70855
 H3045 H 0.11172 0.24720 0.72157
 H3046 H 0.07631 0.24195 0.70546
 H3047 H 0.10358 0.25484 0.64232
 H3048 H 0.13877 0.25871 0.65892
 C3049 C 0.87441 0.24389 0.69617
 C3050 C 0.88286 0.26294 0.68741
 C3051 C 0.90326 0.26289 0.67794
 C3052 C 0.91546 0.24374 0.67703
 C3053 C 0.90698 0.22478 0.68628
 C3054 C 0.88660 0.22487 0.69575
 C3055 C 0.85309 0.24384 0.70524
 C3056 C 0.83520 0.24411 0.71274
 H3057 H 0.87356 0.27777 0.68764
 H3058 H 0.90920 0.27768 0.67074
 H3059 H 0.91608 0.20984 0.68610
 H3060 H 0.88028 0.21006 0.70257
 C3061 C 0.37171 0.73938 0.19598
 C3062 C 0.37638 0.72546 0.17904
 C3063 C 0.39642 0.72640 0.16893
 C3064 C 0.41210 0.74134 0.17560
 C3065 C 0.40743 0.75495 0.19295
 C3066 C 0.38735 0.75399 0.20304
 C3067 C 0.35059 0.73932 0.20549
 C3068 C 0.33282 0.73980 0.21324
 H3069 H 0.36442 0.71407 0.17345
 H3070 H 0.39963 0.71547 0.15584
 H3071 H 0.41906 0.76676 0.19832
 H3072 H 0.38388 0.76492 0.21608
 C3073 C 0.37407 0.25788 0.30461
 C3074 C 0.38286 0.23873 0.31311
 C3075 C 0.40326 0.23874 0.32292
 C3076 C 0.41513 0.25795 0.32439
 C3077 C 0.40628 0.27706 0.31549
 C3078 C 0.38588 0.27700 0.30568
 C3079 C 0.35281 0.25790 0.29507
 C3080 C 0.33496 0.25755 0.28719
 H3081 H 0.37383 0.22383 0.31240
 H3082 H 0.40949 0.22384 0.32986
 H3083 H 0.41513 0.29205 0.31612
 H3084 H 0.37928 0.29190 0.29906
 C3085 C 0.87462 0.75836 0.80117
 C3086 C 0.88672 0.77726 0.80285
 C3087 C 0.90680 0.77683 0.81331
 C3088 C 0.91503 0.75747 0.82227
 C3089 C 0.90291 0.73849 0.82013
 C3090 C 0.88283 0.73896 0.80967
 C3091 C 0.85354 0.75892 0.79124
 C3092 C 0.83575 0.75899 0.78322
 H3093 H 0.88056 0.79235 0.79628
 H3094 H 0.91588 0.79165 0.81443
 H3095 H 0.90867 0.72340 0.82707
 H3096 H 0.87355 0.72424 0.80850
   
