data_POSCAR
  _audit_creation_date              2014-09-24
  _audit_creation_method            'ToBaCCo'
  _symmetry_space_group_name_H-M    'P1'
  _symmetry_Int_Tables_number       1
  _symmetry_cell_setting            triclinic
  loop_
  _symmetry_equiv_pos_as_xyz
 x,y,z
_cell_length_a 67.1495
_cell_length_b 67.5627
_cell_length_c 64.6403
_cell_angle_alpha 89.409600
_cell_angle_beta 89.763200
_cell_angle_gamma 88.291800
loop_
  _atom_site_label
  _atom_site_type_symbol
  _atom_site_fract_x
  _atom_site_fract_y
  _atom_site_fract_z
C1 C 0.20616 0.18251 0.22621
 C2 C 0.19015 0.18429 0.24018
 C3 C 0.17534 0.19922 0.23755
 C4 C 0.17638 0.21213 0.22037
 C5 C 0.19233 0.21061 0.20637
 C6 C 0.20732 0.19580 0.20930
 C7 C 0.22110 0.16776 0.22899
 C8 C 0.23713 0.16599 0.21492
 C9 C 0.23823 0.17943 0.19826
 C10 C 0.22346 0.19430 0.19532
 C11 C 0.22460 0.20769 0.17864
 C12 C 0.20979 0.22265 0.17579
 C13 C 0.19357 0.22377 0.18954
 H14 H 0.18929 0.17417 0.25326
 H15 H 0.16471 0.22324 0.21763
 H16 H 0.22032 0.15800 0.24232
 H17 H 0.25063 0.17827 0.18750
 H18 H 0.23685 0.20616 0.16779
 H19 H 0.18207 0.23520 0.18734
 C20 C 0.70562 0.70210 0.73468
 C21 C 0.68906 0.70822 0.74657
 C22 C 0.67820 0.72575 0.74147
 C23 C 0.68437 0.73730 0.72458
 C24 C 0.70086 0.73135 0.71253
 C25 C 0.71151 0.71366 0.71755
 C26 C 0.71645 0.68465 0.73973
 C27 C 0.73295 0.67843 0.72778
 C28 C 0.73887 0.69016 0.71083
 C29 C 0.72823 0.70768 0.70564
 C30 C 0.73413 0.71939 0.68878
 C31 C 0.72346 0.73689 0.68348
 C32 C 0.70693 0.74289 0.69561
 H33 H 0.68502 0.69948 0.75997
 H34 H 0.67618 0.75091 0.72071
 H35 H 0.71197 0.67577 0.75292
 H36 H 0.75199 0.68603 0.70190
 H37 H 0.74700 0.71481 0.67962
 H38 H 0.69894 0.75670 0.69228
 C39 C 0.29625 0.80198 0.72638
 C40 C 0.31145 0.79544 0.73986
 C41 C 0.32351 0.77863 0.73515
 C42 C 0.31961 0.76799 0.71710
 C43 C 0.30436 0.77425 0.70355
 C44 C 0.29278 0.79145 0.70811
 C45 C 0.28454 0.81899 0.73085
 C46 C 0.26961 0.82597 0.71713
 C47 C 0.26624 0.81518 0.69894
 C48 C 0.27770 0.79808 0.69440
 C49 C 0.27421 0.78748 0.67633
 C50 C 0.28537 0.77017 0.67182
 C51 C 0.30057 0.76368 0.68544
 H52 H 0.31360 0.80346 0.75402
 H53 H 0.32865 0.75490 0.71349
 H54 H 0.28730 0.82700 0.74496
 H55 H 0.25448 0.81952 0.68832
 H56 H 0.26257 0.79258 0.66579
 H57 H 0.30972 0.75068 0.68185
 C58 C 0.78946 0.29977 0.22944
 C59 C 0.80713 0.29592 0.24047
 C60 C 0.82013 0.27993 0.23510
 C61 C 0.81511 0.26813 0.21814
 C62 C 0.79748 0.27184 0.20698
 C63 C 0.78456 0.28768 0.21269
 C64 C 0.77659 0.31560 0.23495
 C65 C 0.75890 0.31961 0.22398
 C66 C 0.75397 0.30732 0.20741
 C67 C 0.76676 0.29148 0.20164
 C68 C 0.76200 0.27934 0.18499
 C69 C 0.77474 0.26346 0.17918
 C70 C 0.79260 0.25994 0.19017
 H71 H 0.81044 0.30565 0.25305
 H72 H 0.82493 0.25585 0.21364
 H73 H 0.78040 0.32492 0.24783
 H74 H 0.74014 0.30974 0.19912
 H75 H 0.74831 0.28225 0.17650
 H76 H 0.80296 0.24821 0.18559
 C77 C 0.78804 0.68871 0.27829
 C78 C 0.80400 0.69299 0.26520
 C79 C 0.81552 0.71205 0.26696
 C80 C 0.80766 0.72513 0.28410
 C81 C 0.79170 0.71994 0.29680
 C82 C 0.78192 0.70198 0.29395
 C83 C 0.77797 0.67101 0.27575
 C84 C 0.76168 0.66638 0.28834
 C85 C 0.75574 0.67948 0.30411
 C86 C 0.76573 0.69720 0.30700
 C87 C 0.75976 0.71017 0.32284
 C88 C 0.76966 0.72788 0.32596
 C89 C 0.78538 0.73280 0.31258
 H90 H 0.80840 0.68252 0.25334
 H91 H 0.81494 0.73903 0.28655
 H92 H 0.78265 0.66083 0.26367
 H93 H 0.74362 0.67583 0.31443
 H94 H 0.74746 0.70640 0.33292
 H95 H 0.79265 0.74677 0.31411
 C96 C 0.29492 0.19506 -0.22410
 C97 C 0.31135 0.19716 -0.23721
 C98 C 0.32448 0.21487 -0.23662
 C99 C 0.31775 0.22983 -0.22024
 C100 C 0.30121 0.22687 -0.20749
 C101 C 0.28988 0.20970 -0.20940
 C102 C 0.28333 0.17814 -0.22559
 C103 C 0.26665 0.17568 -0.21270
 C104 C 0.26184 0.19017 -0.19802
 C105 C 0.27320 0.20712 -0.19632
 C106 C 0.26804 0.22149 -0.18163
 C107 C 0.27934 0.23843 -0.17951
 C108 C 0.29581 0.24113 -0.19264
 H109 H 0.31498 0.18572 -0.24838
 H110 H 0.32618 0.24313 -0.21851
 H111 H 0.28759 0.16678 -0.23658
 H112 H 0.24907 0.18828 -0.18793
 H113 H 0.25525 0.21940 -0.17163
 H114 H 0.30433 0.25444 -0.19158
 C115 C 0.70942 0.30108 -0.22274
 C116 C 0.69310 0.29561 -0.23467
 C117 C 0.68280 0.27815 -0.23003
 C118 C 0.68910 0.26649 -0.21295
 C119 C 0.70542 0.27178 -0.20092
 C120 C 0.71567 0.28911 -0.20587
 C121 C 0.71955 0.31844 -0.22741
 C122 C 0.73598 0.32393 -0.21564
 C123 C 0.74204 0.31199 -0.19868
 C124 C 0.73201 0.29461 -0.19376
 C125 C 0.73798 0.28271 -0.17684
 C126 C 0.72799 0.26530 -0.17190
 C127 C 0.71156 0.26004 -0.18395
 H128 H 0.68853 0.30532 -0.24725
 H129 H 0.68132 0.25310 -0.20901
 H130 H 0.71474 0.32768 -0.24038
 H131 H 0.75424 0.31631 -0.18898
 H132 H 0.75052 0.28695 -0.16752
 H133 H 0.70317 0.24710 -0.18001
 C134 C 0.20134 0.80075 0.25471
 C135 C 0.18567 0.79850 0.24070
 C136 C 0.17185 0.78354 0.24345
 C137 C 0.17404 0.77039 0.26033
 C138 C 0.18963 0.77240 0.27449
 C139 C 0.20341 0.78766 0.27178
 C140 C 0.21468 0.81598 0.25155
 C141 C 0.23194 0.81933 0.26576
 C142 C 0.23300 0.80433 0.28364
 C143 C 0.21908 0.78946 0.28608
 C144 C 0.22074 0.77616 0.30291
 C145 C 0.20691 0.76112 0.30576
 C146 C 0.19157 0.75926 0.29133
 H147 H 0.18409 0.80858 0.22760
 H148 H 0.16394 0.75834 0.26237
 H149 H 0.21274 0.82590 0.23837
 H150 H 0.24490 0.80545 0.29479
 H151 H 0.23306 0.77745 0.31349
 H152 H 0.18095 0.74761 0.29335
 C153 C 0.42647 0.44892 0.47002
 C154 C 0.42915 0.43246 0.48319
 C155 C 0.44578 0.41954 0.48105
 C156 C 0.45965 0.42300 0.46510
 C157 C 0.45716 0.43943 0.45177
 C158 C 0.44055 0.45248 0.45428
 C159 C 0.40993 0.46187 0.47241
 C160 C 0.40734 0.47859 0.45938
 C161 C 0.42129 0.48184 0.44354
 C162 C 0.43789 0.46896 0.44094
 C163 C 0.45184 0.47236 0.42520
 C164 C 0.46864 0.45958 0.42274
 C165 C 0.47102 0.44304 0.43596
 H166 H 0.41834 0.42979 0.49533
 H167 H 0.47224 0.41289 0.46275
 H168 H 0.39909 0.45859 0.48426
 H169 H 0.41932 0.49458 0.43333
 H170 H 0.44927 0.48476 0.41474
 H171 H 0.48382 0.43305 0.43403
 C172 C -0.03815 -0.04206 0.96965
 C173 C -0.03513 -0.05800 0.98356
 C174 C -0.01834 -0.07085 0.98161
 C175 C -0.00441 -0.06736 0.96584
 C176 C -0.00728 -0.05162 0.95182
 C177 C -0.02424 -0.03895 0.95363
 C178 C -0.05483 -0.02916 0.97160
 C179 C -0.05785 -0.01305 0.95771
 C180 C -0.04397 -0.01041 0.94156
 C181 C -0.02721 -0.02313 0.93947
 C182 C -0.01327 -0.02018 0.92353
 C183 C 0.00365 -0.03288 0.92164
 C184 C 0.00658 -0.04840 0.93598
 H185 H -0.04569 -0.06009 0.99602
 H186 H 0.00864 -0.07710 0.96437
 H187 H -0.06536 -0.03213 0.98383
 H188 H -0.04609 0.00177 0.93064
 H189 H -0.01547 -0.00778 0.91298
 H190 H 0.01963 -0.05817 0.93465
 C191 C 1.06260 0.53861 0.96816
 C192 C 1.06021 0.55589 0.97987
 C193 C 1.04327 0.56853 0.97755
 C194 C 1.02878 0.56368 0.96278
 C195 C 1.03104 0.54650 0.95086
 C196 C 1.04797 0.53390 0.95361
 C197 C 1.07939 0.52595 0.97088
 C198 C 1.08173 0.50843 0.95925
 C199 C 1.06704 0.50406 0.94465
 C200 C 1.05025 0.51657 0.94180
 C201 C 1.03568 0.51195 0.92733
 C202 C 1.01886 0.52445 0.92430
 C203 C 1.01655 0.54168 0.93625
 H204 H 1.07154 0.55939 0.99106
 H205 H 1.01580 0.57316 0.96008
 H206 H 1.09047 0.53011 0.98195
 H207 H 1.06859 0.49073 0.93548
 H208 H 1.03747 0.49858 0.91827
 H209 H 1.00339 0.55120 0.93458
 C210 C 0.56336 0.04851 0.47407
 C211 C 0.56256 0.06415 0.48819
 C212 C 0.54628 0.07769 0.48847
 C213 C 0.53076 0.07562 0.47413
 C214 C 0.53133 0.06004 0.45992
 C215 C 0.54769 0.04644 0.45990
 C216 C 0.57958 0.03491 0.47400
 C217 C 0.58048 0.01917 0.45976
 C218 C 0.56473 0.01739 0.44565
 C219 C 0.54843 0.03085 0.44561
 C220 C 0.53289 0.02891 0.43144
 C221 C 0.51632 0.04221 0.43152
 C222 C 0.51582 0.05785 0.44570
 H223 H 0.57461 0.06576 0.49911
 H224 H 0.51839 0.08625 0.47361
 H225 H 0.59113 0.03671 0.48534
 H226 H 0.56511 0.00540 0.43460
 H227 H 0.53408 0.01719 0.42021
 H228 H 0.50322 0.06828 0.44574
 C229 C -0.06440 0.05201 0.51415
 C230 C -0.06230 0.06918 0.50210
 C231 C -0.04633 0.08170 0.50521
 C232 C -0.03216 0.07667 0.52052
 C233 C -0.03407 0.05953 0.53279
 C234 C -0.05024 0.04706 0.52963
 C235 C -0.08049 0.03970 0.51086
 C236 C -0.08267 0.02233 0.52258
 C237 C -0.06871 0.01754 0.53813
 C238 C -0.05250 0.02973 0.54168
 C239 C -0.03876 0.02457 0.55717
 C240 C -0.02115 0.03679 0.56172
 C241 C -0.01988 0.05494 0.54802
 H242 H -0.07321 0.07288 0.49024
 H243 H -0.01940 0.08578 0.52279
 H244 H -0.09131 0.04354 0.49894
 H245 H -0.07053 0.00454 0.54780
 H246 H -0.04074 0.01124 0.56633
 H247 H -0.00756 0.06469 0.55020
 C248 C 0.43477 0.55045 0.02783
 C249 C 0.43677 0.56797 0.01635
 C250 C 0.45191 0.58123 0.02077
 C251 C 0.46489 0.57681 0.03746
 C252 C 0.46298 0.55932 0.04919
 C253 C 0.44790 0.54607 0.04430
 C254 C 0.41988 0.53718 0.02298
 C255 C 0.41781 0.51958 0.03439
 C256 C 0.43102 0.51522 0.05078
 C257 C 0.44595 0.52842 0.05585
 C258 C 0.45904 0.52416 0.07223
 C259 C 0.47413 0.53721 0.07729
 C260 C 0.47593 0.55488 0.06573
 H261 H 0.42659 0.57113 0.00366
 H262 H 0.47638 0.58684 0.04173
 H263 H 0.40983 0.54056 0.01024
 H264 H 0.43007 0.50147 0.05940
 H265 H 0.45752 0.51056 0.08108
 H266 H 0.48712 0.56539 0.06958
 C267 C 0.56478 -0.04376 0.03410
 C268 C 0.56417 -0.05874 0.01925
 C269 C 0.54801 -0.07143 0.01844
 C270 C 0.53218 -0.06881 0.03261
 C271 C 0.53268 -0.05402 0.04765
 C272 C 0.54901 -0.04141 0.04841
 C273 C 0.58093 -0.03110 0.03482
 C274 C 0.58140 -0.01581 0.04945
 C275 C 0.56572 -0.01375 0.06382
 C276 C 0.54951 -0.02640 0.06340
 C277 C 0.53375 -0.02422 0.07764
 C278 C 0.51753 -0.03698 0.07716
 C279 C 0.51706 -0.05164 0.06194
 H280 H 0.57632 -0.06055 0.00826
 H281 H 0.51925 -0.07795 0.03183
 H282 H 0.59318 -0.03350 0.02413
 H283 H 0.56609 -0.00214 0.07526
 H284 H 0.53411 -0.01239 0.08877
 H285 H 0.50454 -0.06140 0.06136
 C286 C 1.05289 0.46318 0.52090
 C287 C 1.04820 0.44665 0.50905
 C288 C 1.03149 0.43525 0.51405
 C289 C 1.01971 0.44075 0.53124
 C290 C 1.02432 0.45713 0.54327
 C291 C 1.04094 0.46843 0.53808
 C292 C 1.06939 0.47456 0.51581
 C293 C 1.07408 0.49119 0.52752
 C294 C 1.06219 0.49617 0.54483
 C295 C 1.04562 0.48496 0.55010
 C296 C 1.03369 0.48997 0.56727
 C297 C 1.01723 0.47863 0.57269
 C298 C 1.01250 0.46234 0.56041
 H299 H 1.05781 0.44290 0.49615
 H300 H 1.00685 0.43218 0.53540
 H301 H 1.07859 0.47054 0.50259
 H302 H 1.06590 0.50849 0.55450
 H303 H 1.03729 0.50265 0.57655
 H304 H 0.99945 0.45387 0.56385
 C305 C 0.40574 0.00349 0.23443
 H306 H 0.40449 0.01575 0.24504
 C307 C 0.42017 0.00351 0.21886
 H308 H 0.42996 0.01592 0.21746
 C309 C 0.39490 -0.02789 0.22388
 H310 H 0.38542 -0.04034 0.22628
 C311 C 0.40909 -0.02843 0.20797
 H312 H 0.41031 -0.04142 0.19837
 N313 N 0.39342 -0.01201 0.23663
 C314 C 0.34285 0.01259 0.27133
 H315 H 0.34299 0.00270 0.28461
 C316 C 0.32814 0.02755 0.26960
 H317 H 0.31699 0.02918 0.28167
 C318 C 0.35697 0.02215 0.23923
 H319 H 0.36795 0.01970 0.22720
 C320 C 0.34257 0.03735 0.23690
 H321 H 0.34266 0.04630 0.22293
 Zn322 Zn 0.37577 -0.01092 0.25953
 N323 N 0.35696 0.01027 0.25635
 C324 C 0.39007 0.00949 0.29464
 N325 N 0.39178 -0.00716 0.28307
 C326 C 0.40609 -0.02129 0.28706
 C327 C 0.41922 -0.01916 0.30348
 C328 C 0.40309 0.01239 0.31111
 C329 C 0.34922 -0.03973 0.24672
 C330 C 0.33762 -0.05652 0.24853
 C331 C 0.35088 -0.06202 0.28285
 C332 C 0.36225 -0.04521 0.28031
 N333 N 0.36136 -0.03452 0.26240
 H334 H 0.37889 0.02077 0.29089
 H335 H 0.40736 -0.03421 0.27734
 H336 H 0.43049 -0.03068 0.30628
 H337 H 0.40124 0.02590 0.31975
 H338 H 0.34846 -0.03073 0.23279
 H339 H 0.32832 -0.06003 0.23559
 H340 H 0.35184 -0.07019 0.29735
 H341 H 0.37148 -0.04054 0.29289
 C342 C 0.32797 0.04028 0.25233
 C343 C 0.42194 -0.01252 0.20533
 C344 C 0.33824 -0.06797 0.26693
 C345 C 0.41805 -0.00209 0.31573
 C346 C 0.10156 0.00255 0.70694
 H347 H 0.09958 -0.01078 0.71605
 C348 C 0.08858 0.00720 0.69067
 H349 H 0.07653 -0.00262 0.68770
 C350 C 0.11916 0.03193 0.70086
 H351 H 0.13082 0.04174 0.70512
 C352 C 0.10651 0.03717 0.68449
 H353 H 0.10874 0.05091 0.67613
 N354 N 0.11664 0.01473 0.71154
 C355 C 0.16137 -0.02240 0.74332
 H356 H 0.16322 -0.01392 0.75725
 C357 C 0.17328 -0.03937 0.73993
 H358 H 0.18432 -0.04355 0.75139
 C359 C 0.14529 -0.02623 0.71112
 H360 H 0.13470 -0.02085 0.69971
 C361 C 0.15681 -0.04331 0.70714
 H362 H 0.15476 -0.05104 0.69274
 Zn363 Zn 0.13310 0.00762 0.73430
 N364 N 0.14765 -0.01624 0.72905
 C365 C 0.11540 -0.01283 0.76797
 N366 N 0.11619 0.00469 0.75754
 C367 C 0.10407 0.02034 0.76270
 C368 C 0.09075 0.01887 0.77923
 C369 C 0.10222 -0.01503 0.78457
 C370 C 0.16568 0.03048 0.72388
 C371 C 0.18003 0.04478 0.72633
 C372 C 0.16622 0.05204 0.76008
 C373 C 0.15211 0.03761 0.75692
 N374 N 0.15193 0.02737 0.73894
 H375 H 0.12479 -0.02525 0.76329
 H376 H 0.10474 0.03400 0.75387
 H377 H 0.08130 0.03161 0.78303
 H378 H 0.10209 -0.02929 0.79219
 H379 H 0.16539 0.02189 0.70986
 H380 H 0.19070 0.04709 0.71398
 H381 H 0.16547 0.06002 0.77444
 H382 H 0.14132 0.03463 0.76890
 C383 C 0.17100 -0.05015 0.72162
 C384 C 0.09111 0.02468 0.67906
 C385 C 0.18053 0.05587 0.74460
 C386 C 0.08959 0.00103 0.79052
 C387 C 0.58794 0.49824 0.22471
 H388 H 0.58624 0.48392 0.23203
 C389 C 0.57587 0.50388 0.20801
 H390 H 0.56473 0.49380 0.20292
 C391 C 0.60392 0.52902 0.22350
 H392 H 0.61459 0.53894 0.22980
 C393 C 0.59213 0.53528 0.20678
 H394 H 0.59403 0.54991 0.20019
 N395 N 0.60186 0.51064 0.23188
 C396 C 0.64494 0.47053 0.26217
 H397 H 0.64491 0.47679 0.27751
 C398 C 0.65704 0.45394 0.25801
 H399 H 0.66618 0.44758 0.27027
 C400 C 0.63278 0.47216 0.22767
 H401 H 0.62357 0.47967 0.21622
 C402 C 0.64436 0.45573 0.22177
 H403 H 0.64370 0.45071 0.20594
 Zn404 Zn 0.61735 0.50160 0.25471
 N405 N 0.63306 0.47894 0.24737
 C406 C 0.59822 0.47711 0.28462
 N407 N 0.59926 0.49559 0.27627
 C408 C 0.58665 0.51049 0.28248
 C409 C 0.57262 0.50728 0.29806
 C410 C 0.58437 0.47319 0.30021
 C411 C 0.64884 0.52740 0.24932
 C412 C 0.66180 0.54240 0.25433
 C413 C 0.64645 0.54417 0.28815
 C414 C 0.63375 0.52920 0.28242
 N415 N 0.63490 0.52142 0.26313
 H416 H 0.60799 0.46530 0.27912
 H417 H 0.58757 0.52497 0.27530
 H418 H 0.56320 0.51973 0.30250
 H419 H 0.58388 0.45833 0.30664
 H420 H 0.64964 0.52072 0.23419
 H421 H 0.67226 0.54689 0.24260
 H422 H 0.64505 0.55029 0.30354
 H423 H 0.62297 0.52388 0.29343
 C424 C 0.65767 0.44488 0.23678
 C425 C 0.57810 0.52255 0.19861
 C426 C 0.66064 0.55121 0.27403
 C427 C 0.57127 0.48833 0.30725
 C428 C 0.90181 0.50524 0.72434
 H429 H 0.90149 0.51948 0.73186
 C430 C 0.91556 0.50134 0.70852
 H431 H 0.92582 0.51271 0.70428
 C432 C 0.88927 0.47296 0.72180
 H433 H 0.87929 0.46180 0.72726
 C434 C 0.90278 0.46842 0.70594
 H435 H 0.90285 0.45382 0.69917
 N436 N 0.88883 0.49124 0.73044
 C437 C 0.83922 0.52480 0.75826
 H438 H 0.83831 0.51741 0.77315
 C439 C 0.82595 0.54048 0.75343
 H440 H 0.81475 0.54471 0.76472
 C441 C 0.85457 0.52738 0.72532
 H442 H 0.86554 0.52207 0.71429
 C443 C 0.84160 0.54308 0.71984
 H444 H 0.84289 0.54986 0.70465
 Zn445 Zn 0.87100 0.49770 0.75232
 N446 N 0.85339 0.51882 0.74441
 C447 C 0.88476 0.52333 0.78360
 N448 N 0.88669 0.50505 0.77510
 C449 C 0.90064 0.49163 0.78202
 C450 C 0.91297 0.49610 0.79856
 C451 C 0.89683 0.52849 0.80011
 C452 C 0.84290 0.46879 0.74480
 C453 C 0.83117 0.45249 0.74904
 C454 C 0.84469 0.45121 0.78362
 C455 C 0.85618 0.46748 0.77866
 N456 N 0.85533 0.47573 0.75940
 H457 H 0.87399 0.53403 0.77750
 H458 H 0.90219 0.47737 0.77462
 H459 H 0.92396 0.48500 0.80327
 H460 H 0.89497 0.54314 0.80665
 H461 H 0.84228 0.47584 0.72970
 H462 H 0.82186 0.44735 0.73677
 H463 H 0.84579 0.44483 0.79904
 H464 H 0.86573 0.47350 0.79027
 C465 C 0.82727 0.55005 0.73406
 C466 C 0.91600 0.48273 0.69892
 C467 C 0.83200 0.44331 0.76875
 C468 C 0.91108 0.51479 0.80805
 C469 C 0.22880 0.39860 0.02020
 H470 H 0.23716 0.39671 0.03439
 C471 C 0.21271 0.41215 0.01929
 H472 H 0.20867 0.42060 0.03290
 C473 C 0.22421 0.39015 -0.01490
 H474 H 0.22889 0.38175 -0.02828
 C475 C 0.20807 0.40360 -0.01653
 H476 H 0.20022 0.40483 -0.03107
 N477 N 0.23415 0.38786 0.00329
 C478 C 0.26811 0.33700 0.02811
 H479 H 0.28158 0.33806 0.01898
 C480 C 0.26623 0.32160 0.04246
 H481 H 0.27838 0.31084 0.04439
 C482 C 0.23580 0.34962 0.03641
 H483 H 0.22380 0.36031 0.03367
 C484 C 0.23328 0.33446 0.05097
 H485 H 0.21921 0.33373 0.05907
 Zn486 Zn 0.25698 0.37090 0.00553
 N487 N 0.25313 0.35078 0.02557
 C488 C 0.28874 0.38355 0.03085
 N489 N 0.27832 0.38687 0.01311
 C490 C 0.28225 0.40244 0.00044
 C491 C 0.29762 0.41511 0.00503
 C492 C 0.30420 0.39589 0.03612
 C493 C 0.24895 0.34579 -0.02735
 C494 C 0.25258 0.33549 -0.04567
 C495 C 0.28462 0.35071 -0.04809
 C496 C 0.28032 0.36073 -0.02976
 N497 N 0.26264 0.35826 -0.01990
 H498 H 0.28501 0.37143 0.04103
 H499 H 0.27337 0.40500 -0.01331
 H500 H 0.29995 0.42738 -0.00542
 H501 H 0.31236 0.39289 0.05030
 H502 H 0.23520 0.34374 -0.01891
 H503 H 0.24134 0.32556 -0.05075
 H504 H 0.29885 0.35290 -0.05561
 H505 H 0.29130 0.37024 -0.02331
 C506 C 0.24877 0.32032 0.05432
 C507 C 0.20230 0.41499 0.00070
 C508 C 0.27069 0.33791 -0.05644
 C509 C 0.30907 0.41183 0.02307
 C510 C 0.73488 0.08305 -0.00344
 H511 H 0.74491 0.08217 -0.01656
 C512 C 0.71908 0.07019 -0.00188
 H513 H 0.71703 0.05940 -0.01391
 C514 C 0.72545 0.09826 0.02812
 H515 H 0.72803 0.10921 0.03979
 C516 C 0.70944 0.08561 0.03034
 H517 H 0.69975 0.08738 0.04361
 N518 N 0.73760 0.09693 0.01127
 C519 C 0.76797 0.14450 -0.02089
 H520 H 0.78114 0.14556 -0.01143
 C521 C 0.76521 0.15737 -0.03770
 H522 H 0.77638 0.16817 -0.04109
 C523 C 0.73737 0.12879 -0.02712
 H524 H 0.72672 0.11793 -0.02251
 C525 C 0.73316 0.14079 -0.04425
 H526 H 0.71946 0.13879 -0.05266
 Zn527 Zn 0.75930 0.11385 0.00715
 N528 N 0.75443 0.13059 -0.01618
 C529 C 0.79382 0.09896 -0.01429
 N530 N 0.78223 0.09730 0.00290
 C531 C 0.78616 0.08306 0.01743
 C532 C 0.80249 0.07000 0.01519
 C533 C 0.81037 0.08621 -0.01717
 C534 C 0.74847 0.14415 0.03482
 C535 C 0.75063 0.15690 0.05151
 C536 C 0.78239 0.14069 0.05890
 C537 C 0.77965 0.12838 0.04201
 N538 N 0.76282 0.13018 0.03046
 H539 H 0.79024 0.11011 -0.02588
 H540 H 0.77652 0.08187 0.03081
 H541 H 0.80528 0.05884 0.02708
 H542 H 0.81922 0.08827 -0.03095
 H543 H 0.73530 0.14539 0.02525
 H544 H 0.73870 0.16755 0.05454
 H545 H 0.79594 0.13888 0.06786
 H546 H 0.79110 0.11748 0.03811
 C547 C 0.74699 0.15637 -0.05124
 C548 C 0.70608 0.07134 0.01513
 C549 C 0.76789 0.15534 0.06387
 C550 C 0.81495 0.07136 -0.00227
 C551 C 0.21349 0.60536 0.48705
 H552 H 0.22157 0.60350 0.47265
 C553 C 0.19633 0.59466 0.49077
 H554 H 0.19113 0.58492 0.47890
 C555 C 0.21052 0.62056 0.51982
 H556 H 0.21628 0.63034 0.53131
 C557 C 0.19324 0.61026 0.52412
 H558 H 0.18572 0.61240 0.53883
 N559 N 0.22020 0.61805 0.50146
 C560 C 0.25716 0.65968 0.46768
 H561 H 0.27079 0.65808 0.47648
 C562 C 0.25596 0.67306 0.45111
 H563 H 0.26881 0.68169 0.44721
 C564 C 0.22386 0.65043 0.46228
 H565 H 0.21132 0.64170 0.46680
 C566 C 0.22200 0.66365 0.44557
 H567 H 0.20801 0.66445 0.43740
 Zn568 Zn 0.24432 0.63096 0.49565
 N569 N 0.24131 0.64856 0.47281
 C570 C 0.27383 0.61052 0.47153
 N571 N 0.26382 0.61098 0.48984
 C572 C 0.26711 0.59678 0.50456
 C573 C 0.28144 0.58169 0.50151
 C574 C 0.28824 0.59566 0.46775
 C575 C 0.24017 0.66138 0.52472
 C576 C 0.24532 0.67300 0.54152
 C577 C 0.27578 0.65334 0.54493
 C578 C 0.26997 0.64206 0.52815
 N579 N 0.25229 0.64605 0.51860
 H580 H 0.27068 0.62166 0.45979
 H581 H 0.25871 0.59736 0.51887
 H582 H 0.28368 0.57105 0.51389
 H583 H 0.29613 0.59574 0.45309
 H584 H 0.22637 0.66449 0.51658
 H585 H 0.23502 0.68479 0.54587
 H586 H 0.28992 0.64975 0.55231
 H587 H 0.27973 0.63022 0.52272
 C588 C 0.23824 0.67524 0.43977
 C589 C 0.18608 0.59694 0.50964
 C590 C 0.26342 0.66902 0.55203
 C591 C 0.29241 0.58098 0.48284
 C592 C 0.73045 0.90937 0.51023
 H593 H 0.73931 0.90840 0.52416
 C594 C 0.71632 0.92473 0.50773
 H595 H 0.71429 0.93553 0.51988
 C596 C 0.72268 0.89661 0.47732
 H597 H 0.72555 0.88588 0.46531
 C598 C 0.70831 0.91174 0.47419
 H599 H 0.70038 0.91244 0.45966
 N600 N 0.73322 0.89558 0.49525
 C601 C 0.75916 0.84508 0.52911
 H602 H 0.77308 0.84280 0.52085
 C603 C 0.75437 0.83258 0.54564
 H604 H 0.76473 0.82064 0.54970
 C605 C 0.72849 0.86295 0.53283
 H606 H 0.71825 0.87454 0.52757
 C607 C 0.72309 0.85081 0.54938
 H608 H 0.70880 0.85337 0.55687
 Zn609 Zn 0.75342 0.87608 0.50033
 N610 N 0.74637 0.86005 0.52322
 C611 C 0.78672 0.88820 0.52402
 N612 N 0.77684 0.88997 0.50575
 C613 C 0.78268 0.90287 0.49084
 C614 C 0.79918 0.91455 0.49382
 C615 C 0.80331 0.89965 0.52772
 C616 C 0.74200 0.84820 0.47094
 C617 C 0.74448 0.83521 0.45437
 C618 C 0.77870 0.84499 0.45149
 C619 C 0.77551 0.85779 0.46803
 N620 N 0.75733 0.85931 0.47728
 H621 H 0.78160 0.87817 0.53588
 H622 H 0.77436 0.90414 0.47656
 H623 H 0.80318 0.92438 0.48134
 H624 H 0.81086 0.89806 0.54246
 H625 H 0.72777 0.84944 0.47883
 H626 H 0.73181 0.82686 0.44978
 H627 H 0.79337 0.84409 0.44442
 H628 H 0.78770 0.86630 0.47361
 C629 C 0.73613 0.83551 0.55613
 C630 C 0.70490 0.92596 0.48965
 C631 C 0.76315 0.83339 0.44435
 C632 C 0.80975 0.91322 0.51263
 C633 C 0.01136 0.23574 0.40655
 H634 H 0.02493 0.24396 0.40593
 C635 C 0.00949 0.22023 0.42080
 H636 H 0.02174 0.21655 0.43114
 C637 C -0.02109 0.23061 0.39382
 H638 H -0.03302 0.23473 0.38334
 C639 C -0.02360 0.21500 0.40783
 H640 H -0.03735 0.20712 0.40740
 N641 N -0.00372 0.24046 0.39325
 C642 C 0.02381 0.26787 0.33940
 H643 H 0.01491 0.28145 0.33829
 C644 C 0.03878 0.26389 0.32486
 H645 H 0.04140 0.27455 0.31258
 C646 C 0.03104 0.23742 0.35667
 H647 H 0.02773 0.22695 0.36885
 C648 C 0.04618 0.23285 0.34247
 H649 H 0.05413 0.21877 0.34398
 Zn650 Zn -0.00001 0.26155 0.37425
 N651 N 0.02047 0.25486 0.35512
 C652 C 0.02410 0.29353 0.38558
 N653 N 0.00692 0.28406 0.38963
 C654 C -0.00544 0.29004 0.40521
 C655 C -0.00095 0.30642 0.41718
 C656 C 0.02917 0.30999 0.39709
 C657 C -0.02925 0.25277 0.34535
 C658 C -0.04625 0.25583 0.33322
 C659 C -0.05116 0.28790 0.34895
 C660 C -0.03401 0.28423 0.36068
 N661 N -0.02355 0.26680 0.35885
 H662 H 0.03400 0.28833 0.37348
 H663 H -0.01890 0.28208 0.40828
 H664 H -0.01143 0.31078 0.42909
 H665 H 0.04291 0.31731 0.39344
 H666 H -0.02054 0.23910 0.34407
 H667 H -0.05035 0.24408 0.32304
 H668 H -0.05927 0.30188 0.35079
 H669 H -0.02906 0.29538 0.37117
 C670 C 0.05041 0.24636 0.32645
 C671 C -0.00816 0.20965 0.42164
 C672 C -0.05755 0.27370 0.33488
 C673 C 0.01666 0.31673 0.41320
 C674 C -0.01832 0.72114 0.07858
 H675 H -0.03166 0.73054 0.07856
 C676 C -0.01586 0.70635 0.06381
 H677 H -0.02742 0.70445 0.05241
 C678 C 0.01280 0.71219 0.09363
 H679 H 0.02398 0.71455 0.10522
 C680 C 0.01584 0.69714 0.07918
 H681 H 0.02924 0.68796 0.08033
 N682 N -0.00425 0.72357 0.09332
 C683 C -0.03685 0.74892 0.14552
 H684 H -0.02868 0.76232 0.14760
 C685 C -0.05266 0.74484 0.15873
 H686 H -0.05655 0.75522 0.17083
 C687 C -0.04081 0.71917 0.12681
 H688 H -0.03572 0.70942 0.11463
 C689 C -0.05681 0.71360 0.13909
 H690 H -0.06392 0.69976 0.13604
 Zn691 Zn -0.00959 0.74345 0.11323
 N692 N -0.03152 0.73644 0.13000
 C693 C -0.03319 0.77720 0.10065
 N694 N -0.01534 0.76738 0.09862
 C695 C -0.00112 0.77407 0.08551
 C696 C -0.00419 0.79175 0.07446
 C697 C -0.03699 0.79488 0.08978
 C698 C 0.01829 0.73086 0.14322
 C699 C 0.03428 0.73246 0.15679
 C700 C 0.03766 0.76639 0.14552
 C701 C 0.02164 0.76408 0.13214
 N702 N 0.01251 0.74645 0.13099
 H703 H -0.04457 0.77135 0.11065
 H704 H 0.01275 0.76567 0.08376
 H705 H 0.00751 0.79631 0.06412
 H706 H -0.05128 0.80251 0.09180
 H707 H 0.01046 0.71713 0.14240
 H708 H 0.03868 0.71974 0.16625
 H709 H 0.04421 0.78076 0.14594
 H710 H 0.01640 0.77655 0.12290
 C711 C -0.06434 0.72626 0.15642
 C712 C 0.00131 0.69402 0.06401
 C713 C 0.04440 0.75034 0.15805
 C714 C -0.02231 0.80266 0.07671
 C715 C 0.49341 0.22619 0.60105
 H716 H 0.48040 0.23602 0.60105
 C717 C 0.49396 0.20954 0.58848
 H718 H 0.48124 0.20660 0.57885
 C719 C 0.52588 0.21833 0.61346
 H720 H 0.53834 0.22192 0.62310
 C721 C 0.52710 0.20151 0.60102
 H722 H 0.54042 0.19216 0.60174
 N723 N 0.50914 0.23018 0.61333
 C724 C 0.48182 0.26726 0.66114
 H725 H 0.49074 0.28030 0.65991
 C726 C 0.46633 0.26656 0.67560
 H727 H 0.46332 0.27917 0.68546
 C728 C 0.47509 0.23487 0.64995
 H729 H 0.47883 0.22235 0.64029
 C730 C 0.45948 0.23353 0.66418
 H731 H 0.45161 0.21984 0.66526
 Zn732 Zn 0.50677 0.25361 0.62902
 N733 N 0.48566 0.25168 0.64842
 C734 C 0.48443 0.28575 0.61072
 N735 N 0.50153 0.27449 0.60987
 C736 C 0.51512 0.27713 0.59454
 C737 C 0.51203 0.29187 0.57953
 C738 C 0.48062 0.30059 0.59592
 C739 C 0.53631 0.24474 0.65867
 C740 C 0.55330 0.24780 0.67052
 C741 C 0.55771 0.27860 0.65199
 C742 C 0.54064 0.27495 0.64058
 N743 N 0.53041 0.25816 0.64394
 H744 H 0.47360 0.28316 0.62276
 H745 H 0.52844 0.26773 0.59402
 H746 H 0.52318 0.29372 0.56755
 H747 H 0.46700 0.30936 0.59745
 H748 H 0.52774 0.23163 0.66123
 H749 H 0.55753 0.23660 0.68182
 H750 H 0.56556 0.29212 0.64896
 H751 H 0.53548 0.28574 0.62924
 C752 C 0.45471 0.24968 0.67702
 C753 C 0.51098 0.19703 0.58820
 C754 C 0.56431 0.26505 0.66731
 C755 C 0.49453 0.30382 0.57990
 C756 C 0.50860 0.73132 0.91595
 H757 H 0.52164 0.74035 0.91565
 C758 C 0.50696 0.71633 0.93077
 H759 H 0.51886 0.71388 0.94185
 C760 C 0.47727 0.72373 0.90183
 H761 H 0.46567 0.72678 0.89062
 C762 C 0.47504 0.70847 0.91636
 H763 H 0.46182 0.69979 0.91566
 N764 N 0.49398 0.73462 0.90174
 C765 C 0.52593 0.76192 0.85052
 H766 H 0.51818 0.77613 0.84905
 C767 C 0.54190 0.75716 0.83734
 H768 H 0.54609 0.76784 0.82567
 C769 C 0.52904 0.73053 0.86704
 H770 H 0.52381 0.72001 0.87835
 C771 C 0.54495 0.72514 0.85417
 H772 H 0.55197 0.71057 0.85592
 Zn773 Zn 0.49821 0.75553 0.88268
 N774 N 0.52004 0.74876 0.86522
 C775 C 0.52072 0.78797 0.89714
 N776 N 0.50350 0.77797 0.89881
 C777 C 0.48961 0.78280 0.91338
 C778 C 0.49265 0.79832 0.92694
 C779 C 0.52439 0.80370 0.91037
 C780 C 0.46931 0.74610 0.85316
 C781 C 0.45275 0.74940 0.84037
 C782 C 0.44968 0.78269 0.85351
 C783 C 0.46619 0.77870 0.86607
 N784 N 0.47552 0.76058 0.86586
 H785 H 0.53183 0.78354 0.88584
 H786 H 0.47620 0.77437 0.91461
 H787 H 0.48135 0.80176 0.93847
 H788 H 0.53840 0.81099 0.90874
 H789 H 0.47722 0.73192 0.85301
 H790 H 0.44828 0.73737 0.83075
 H791 H 0.44253 0.79727 0.85406
 H792 H 0.47161 0.79021 0.87585
 C793 C 0.55176 0.73856 0.83924
 C794 C 0.49005 0.70465 0.93116
 C795 C 0.44261 0.76800 0.84041
 C796 C 0.51022 0.80908 0.92565
 C797 C 0.15880 0.20070 0.25275
 C798 C 0.14828 0.21847 0.25665
 C799 C 0.13141 0.22065 0.27143
 C800 C 0.11991 0.23834 0.27090
 C801 C 0.10394 0.24134 0.28453
 C802 C 0.09905 0.22661 0.29906
 C803 C 0.11074 0.20905 0.29986
 C804 C 0.12672 0.20603 0.28620
 C805 C 0.08250 0.22933 0.31410
 C806 C 0.06646 0.24271 0.31103
 H807 H 0.15252 0.23170 0.24837
 H808 H 0.12333 0.24998 0.25990
 H809 H 0.09584 0.25540 0.28386
 H810 H 0.10748 0.19760 0.31112
 H811 H 0.13540 0.19238 0.28760
 H812 H 0.08312 0.22032 0.32800
 H813 H 0.15539 0.18745 0.26139
 H814 H 0.06576 0.25147 0.29694
 C815 C 0.66070 0.73278 0.75369
 C816 C 0.64906 0.72026 0.76576
 C817 C 0.63159 0.72715 0.77811
 C818 C 0.62495 0.71499 0.79429
 C819 C 0.60847 0.72070 0.80631
 C820 C 0.59801 0.73866 0.80218
 C821 C 0.60468 0.75087 0.78605
 C822 C 0.62120 0.74516 0.77403
 C823 C 0.58050 0.74531 0.81462
 C824 C 0.56874 0.73228 0.82589
 H825 H 0.65296 0.70463 0.76655
 H826 H 0.63271 0.70108 0.79782
 H827 H 0.60430 0.71113 0.81901
 H828 H 0.59692 0.76479 0.78257
 H829 H 0.62545 0.75477 0.76140
 H830 H 0.57680 0.76099 0.81459
 H831 H 0.65675 0.74839 0.75269
 H832 H 0.57231 0.71658 0.82542
 C833 C 0.34014 0.77155 0.74868
 C834 C 0.34909 0.78331 0.76349
 C835 C 0.36612 0.77650 0.77652
 C836 C 0.36948 0.78630 0.79515
 C837 C 0.38574 0.78091 0.80762
 C838 C 0.39930 0.76578 0.80149
 C839 C 0.39578 0.75578 0.78299
 C840 C 0.37945 0.76112 0.77054
 C841 C 0.41702 0.75990 0.81405
 C842 C 0.42583 0.77268 0.82806
 H843 H 0.34347 0.79825 0.76598
 H844 H 0.35939 0.79814 0.80016
 H845 H 0.38741 0.78852 0.82211
 H846 H 0.40594 0.74402 0.77793
 H847 H 0.37769 0.75350 0.75607
 H848 H 0.42361 0.74542 0.81116
 H849 H 0.34581 0.75658 0.74641
 H850 H 0.41950 0.78754 0.82928
 C851 C -0.16206 0.27520 0.24585
 C852 C -0.15547 0.28489 0.26356
 C853 C -0.13663 0.27959 0.27450
 C854 C -0.13435 0.28599 0.29492
 C855 C -0.11680 0.28169 0.30582
 C856 C -0.10098 0.27103 0.29640
 C857 C -0.10326 0.26449 0.27604
 C858 C -0.12080 0.26886 0.26509
 C859 C -0.08222 0.26608 0.30754
 C860 C -0.07495 0.27791 0.32335
 H861 H -0.16465 0.29633 0.27062
 H862 H -0.14629 0.29424 0.30258
 H863 H -0.11585 0.28645 0.32170
 H864 H -0.09129 0.25622 0.26846
 H865 H -0.12162 0.26410 0.24922
 H866 H -0.07356 0.25346 0.30205
 H867 H -0.15310 0.26279 0.24026
 H868 H -0.08303 0.29166 0.32659
 C869 C -0.16613 0.71842 0.25296
 C870 C -0.15828 0.70693 0.23701
 C871 C -0.14116 0.71332 0.22440
 C872 C -0.13398 0.70104 0.20849
 C873 C -0.11782 0.70661 0.19629
 C874 C -0.10848 0.72464 0.19979
 C875 C -0.11566 0.73692 0.21571
 C876 C -0.13183 0.73135 0.22791
 C877 C -0.09135 0.73098 0.18716
 C878 C -0.08369 0.71954 0.17111
 H879 H -0.16476 0.69284 0.23360
 H880 H -0.14090 0.68709 0.20548
 H881 H -0.11267 0.69677 0.18414
 H882 H -0.10873 0.75088 0.21871
 H883 H -0.13698 0.74118 0.24006
 H884 H -0.08468 0.74498 0.19057
 H885 H -0.17554 0.71430 0.25954
 H886 H -0.07386 0.72371 0.16422
 C887 C 0.34300 0.21662 0.74808
 C888 C 0.35574 0.23247 0.74786
 C889 C 0.37272 0.23344 0.73324
 C890 C 0.38508 0.24981 0.73368
 C891 C 0.40118 0.25119 0.72000
 C892 C 0.40531 0.23609 0.70561
 C893 C 0.39282 0.21980 0.70510
 C894 C 0.37675 0.21843 0.71878
 C895 C 0.42201 0.23686 0.69055
 C896 C 0.43821 0.24927 0.69231
 H897 H 0.35328 0.24453 0.75859
 H898 H 0.38219 0.26164 0.74457
 H899 H 0.41002 0.26427 0.72061
 H900 H 0.39556 0.20802 0.69411
 H901 H 0.36750 0.20561 0.71795
 H902 H 0.42143 0.22696 0.67754
 H903 H 0.33380 0.21671 0.75635
 H904 H 0.43881 0.25949 0.70503
 C905 C 0.66633 0.27193 0.75846
 C906 C 0.65924 0.28101 0.74021
 C907 C 0.64147 0.27442 0.72891
 C908 C 0.63938 0.27972 0.70797
 C909 C 0.62261 0.27440 0.69683
 C910 C 0.60736 0.26385 0.70652
 C911 C 0.60954 0.25832 0.72739
 C912 C 0.62631 0.26368 0.73856
 C913 C 0.58920 0.25826 0.69529
 C914 C 0.58151 0.26942 0.67859
 H915 H 0.66733 0.29282 0.73301
 H916 H 0.65084 0.28795 0.70013
 H917 H 0.62181 0.27837 0.68059
 H918 H 0.59801 0.25017 0.73521
 H919 H 0.62703 0.25975 0.75480
 H920 H 0.58122 0.24586 0.70145
 H921 H 0.65898 0.25880 0.76386
 H922 H 0.58902 0.28285 0.67440
 C923 C 0.15572 0.78186 0.22804
 C924 C 0.13759 0.77294 0.23225
 C925 C 0.12123 0.77170 0.21700
 C926 C 0.10624 0.75801 0.22057
 C927 C 0.09039 0.75647 0.20677
 C928 C 0.08921 0.76866 0.18900
 C929 C 0.10397 0.78263 0.18567
 C930 C 0.11980 0.78417 0.19947
 C931 C 0.07254 0.76789 0.17407
 C932 C 0.06052 0.75142 0.17188
 H933 H 0.13512 0.76643 0.24737
 H934 H 0.10677 0.74846 0.23414
 H935 H 0.07897 0.74602 0.21038
 H936 H 0.10324 0.79245 0.17232
 H937 H 0.13053 0.79545 0.19644
 H938 H 0.07059 0.78057 0.16392
 H939 H 0.15823 0.78845 0.21299
 H940 H 0.06411 0.73835 0.18109
 C941 C 0.25333 0.15076 0.21741
 C942 C 0.25137 0.13330 0.22894
 C943 C 0.26758 0.11805 0.23124
 C944 C 0.26264 0.09877 0.23719
 C945 C 0.27744 0.08394 0.23958
 C946 C 0.29760 0.08818 0.23630
 C947 C 0.30255 0.10746 0.23039
 C948 C 0.28776 0.12230 0.22806
 C949 C 0.31370 0.07282 0.23830
 C950 C 0.31200 0.05579 0.25054
 H951 H 0.23704 0.12996 0.23560
 H952 H 0.24723 0.09509 0.23975
 H953 H 0.27295 0.06914 0.24359
 H954 H 0.31797 0.11110 0.22779
 H955 H 0.29231 0.13708 0.22407
 H956 H 0.32776 0.07567 0.23075
 H957 H 0.26692 0.15297 0.20875
 H958 H 0.29889 0.05415 0.26013
 C959 C 0.74405 0.66002 0.73390
 C960 C 0.75549 0.64864 0.72004
 C961 C 0.76731 0.63058 0.72597
 C962 C 0.78218 0.62359 0.71233
 C963 C 0.79390 0.60677 0.71723
 C964 C 0.79082 0.59637 0.73588
 C965 C 0.77591 0.60329 0.74950
 C966 C 0.76417 0.62011 0.74459
 C967 C 0.80323 0.57878 0.74202
 C968 C 0.81399 0.56702 0.72794
 H969 H 0.75623 0.65331 0.70400
 H970 H 0.78496 0.63137 0.69791
 H971 H 0.80560 0.60235 0.70656
 H972 H 0.77324 0.59556 0.76397
 H973 H 0.75259 0.62458 0.75536
 H974 H 0.80372 0.57510 0.75833
 H975 H 0.74278 0.65531 0.74986
 H976 H 0.81320 0.57062 0.71162
 C977 C 0.74599 0.34252 0.77878
 C978 C 0.76581 0.34616 0.78370
 C979 C 0.77605 0.36458 0.77786
 C980 C 0.79389 0.36887 0.78791
 C981 C 0.80423 0.38591 0.78282
 C982 C 0.79689 0.39915 0.76751
 C983 C 0.77929 0.39466 0.75716
 C984 C 0.76896 0.37760 0.76223
 C985 C 0.80751 0.41723 0.76133
 C986 C 0.82100 0.42658 0.77424
 H987 H 0.77436 0.33510 0.79235
 H988 H 0.79990 0.35894 0.79975
 H989 H 0.81813 0.38835 0.79062
 H990 H 0.77350 0.40439 0.74504
 H991 H 0.75570 0.37463 0.75353
 H992 H 0.80376 0.42352 0.74639
 H993 H 0.73738 0.35340 0.76997
 H994 H 0.82299 0.42068 0.78974
 C995 C 0.24660 -0.16300 0.26138
 C996 C 0.26324 -0.15920 0.27325
 C997 C 0.27609 -0.14228 0.26857
 C998 C 0.29349 -0.13993 0.28011
 C999 C 0.30581 -0.12397 0.27621
 C1000 C 0.30080 -0.10982 0.26078
 C1001 C 0.28355 -0.11239 0.24903
 C1002 C 0.27129 -0.12839 0.25287
 C1003 C 0.31318 -0.09245 0.25622
 C1004 C 0.32671 -0.08482 0.27033
 H1005 H 0.26703 -0.16882 0.28626
 H1006 H 0.29763 -0.15055 0.29213
 H1007 H 0.31930 -0.12304 0.28515
 H1008 H 0.27941 -0.10185 0.23694
 H1009 H 0.25801 -0.12975 0.24362
 H1010 H 0.31054 -0.08506 0.24156
 H1011 H 0.23983 -0.17234 0.26471
 H1012 H 0.32813 -0.09207 0.28527
 C1013 C 0.25850 -0.15670 0.72227
 C1014 C 0.24519 -0.14663 0.70891
 C1015 C 0.23320 -0.12884 0.71493
 C1016 C 0.22648 -0.11570 0.69936
 C1017 C 0.21459 -0.09907 0.70421
 C1018 C 0.20882 -0.09542 0.72480
 C1019 C 0.21570 -0.10847 0.74042
 C1020 C 0.22768 -0.12509 0.73557
 C1021 C 0.19605 -0.07803 0.73057
 C1022 C 0.18347 -0.06795 0.71654
 H1023 H 0.24420 -0.15088 0.69290
 H1024 H 0.23057 -0.11823 0.68335
 H1025 H 0.21024 -0.08906 0.69177
 H1026 H 0.21153 -0.10597 0.75641
 H1027 H 0.23216 -0.13514 0.74794
 H1028 H 0.19597 -0.07378 0.74664
 H1029 H 0.26100 -0.15031 0.73730
 H1030 H 0.18212 -0.07368 0.70106
 C1031 C 0.74586 0.33647 0.23074
 C1032 C 0.73105 0.34550 0.21841
 C1033 C 0.71851 0.36268 0.22525
 C1034 C 0.70888 0.37463 0.21023
 C1035 C 0.69706 0.39106 0.21599
 C1036 C 0.69453 0.39583 0.23699
 C1037 C 0.70388 0.38372 0.25203
 C1038 C 0.71564 0.36725 0.24628
 C1039 C 0.68234 0.41324 0.24365
 C1040 C 0.67154 0.42501 0.22968
 H1041 H 0.72934 0.34075 0.20261
 H1042 H 0.71067 0.37136 0.19394
 H1043 H 0.69002 0.40005 0.20397
 H1044 H 0.70200 0.38695 0.26831
 H1045 H 0.72217 0.35806 0.25841
 H1046 H 0.68171 0.41674 0.25997
 H1047 H 0.74899 0.34273 0.24567
 H1048 H 0.66486 0.43494 0.23413
 C1049 C 0.75154 0.64757 0.28463
 C1050 C 0.73154 0.64461 0.28954
 C1051 C 0.72087 0.62641 0.28429
 C1052 C 0.70263 0.62284 0.29413
 C1053 C 0.69172 0.60624 0.28919
 C1054 C 0.69887 0.59276 0.27425
 C1055 C 0.71697 0.59647 0.26422
 C1056 C 0.72786 0.61307 0.26912
 C1057 C 0.68751 0.57535 0.26788
 C1058 C 0.67266 0.56687 0.28012
 H1059 H 0.72309 0.65619 0.29737
 H1060 H 0.69671 0.63304 0.30559
 H1061 H 0.67750 0.60440 0.29675
 H1062 H 0.72266 0.58653 0.25239
 H1063 H 0.74142 0.61552 0.26056
 H1064 H 0.69163 0.56893 0.25320
 H1065 H 0.76010 0.63606 0.27684
 H1066 H 0.67024 0.57270 0.29549
 C1067 C 0.25415 0.15802 0.78632
 C1068 C 0.25262 0.14628 0.76876
 C1069 C 0.23915 0.12935 0.76775
 C1070 C 0.23213 0.12349 0.74842
 C1071 C 0.21893 0.10796 0.74691
 C1072 C 0.21272 0.09775 0.76478
 C1073 C 0.21997 0.10344 0.78408
 C1074 C 0.23317 0.11896 0.78558
 C1075 C 0.19812 0.08176 0.76402
 C1076 C 0.19503 0.07040 0.74638
 H1077 H 0.26023 0.15052 0.75469
 H1078 H 0.23652 0.13125 0.73445
 H1079 H 0.21326 0.10442 0.73180
 H1080 H 0.21546 0.09580 0.79808
 H1081 H 0.23873 0.12261 0.80071
 H1082 H 0.19033 0.07857 0.77826
 H1083 H 0.24464 0.15512 0.79949
 H1084 H 0.20474 0.07268 0.73320
 C1085 C 0.21054 0.23726 0.15859
 C1086 C 0.22825 0.24292 0.14908
 C1087 C 0.22922 0.25847 0.13279
 C1088 C 0.24632 0.25918 0.12029
 C1089 C 0.24812 0.27387 0.10505
 C1090 C 0.23277 0.28823 0.10200
 C1091 C 0.21582 0.28770 0.11474
 C1092 C 0.21402 0.27303 0.12997
 C1093 C 0.23410 0.30438 0.08640
 C1094 C 0.24718 0.30388 0.06952
 H1095 H 0.24218 0.23579 0.15375
 H1096 H 0.25840 0.24837 0.12237
 H1097 H 0.26176 0.27406 0.09613
 H1098 H 0.20392 0.29877 0.11297
 H1099 H 0.20091 0.27354 0.13971
 H1100 H 0.22419 0.31713 0.08841
 H1101 H 0.19658 0.24433 0.15397
 H1102 H 0.25716 0.29120 0.06745
 C1103 C 0.73041 0.74878 0.66561
 C1104 C 0.71800 0.76199 0.65449
 C1105 C 0.72479 0.77420 0.63678
 C1106 C 0.71315 0.79089 0.63091
 C1107 C 0.71880 0.80284 0.61426
 C1108 C 0.73618 0.79815 0.60286
 C1109 C 0.74787 0.78150 0.60876
 C1110 C 0.74222 0.76955 0.62543
 C1111 C 0.74279 0.81044 0.58514
 C1112 C 0.72983 0.82281 0.57366
 H1113 H 0.70255 0.76385 0.65905
 H1114 H 0.69970 0.79486 0.63942
 H1115 H 0.70969 0.81587 0.61072
 H1116 H 0.76133 0.77757 0.60025
 H1117 H 0.75139 0.75656 0.62903
 H1118 H 0.75837 0.80930 0.58095
 H1119 H 0.74580 0.74663 0.66098
 H1120 H 0.71419 0.82353 0.57776
 C1121 C 0.76297 0.74104 0.34305
 C1122 C 0.77503 0.75529 0.35169
 C1123 C 0.76863 0.76874 0.36856
 C1124 C 0.77887 0.78634 0.37109
 C1125 C 0.77391 0.79926 0.38715
 C1126 C 0.75879 0.79464 0.40138
 C1127 C 0.74830 0.77719 0.39866
 C1128 C 0.75320 0.76429 0.38249
 C1129 C 0.75351 0.80771 0.41899
 C1130 C 0.76710 0.82061 0.42766
 H1131 H 0.78996 0.75705 0.34578
 H1132 H 0.79072 0.79019 0.36049
 H1133 H 0.78185 0.81290 0.38815
 H1134 H 0.73652 0.77333 0.40934
 H1135 H 0.74521 0.75069 0.38135
 H1136 H 0.73892 0.80610 0.42575
 H1137 H 0.74813 0.73909 0.34916
 H1138 H 0.78206 0.82046 0.42135
 C1139 C 0.27320 0.25305 -0.16363
 C1140 C 0.28618 0.26628 -0.15472
 C1141 C 0.28010 0.27957 -0.13760
 C1142 C 0.29466 0.28593 -0.12387
 C1143 C 0.28937 0.29781 -0.10702
 C1144 C 0.26937 0.30383 -0.10376
 C1145 C 0.25487 0.29776 -0.11772
 C1146 C 0.26016 0.28590 -0.13456
 C1147 C 0.26295 0.31553 -0.08553
 C1148 C 0.27572 0.32774 -0.07473
 H1149 H 0.30178 0.26565 -0.15902
 H1150 H 0.31012 0.28127 -0.12588
 H1151 H 0.30092 0.30170 -0.09632
 H1152 H 0.23938 0.30223 -0.11559
 H1153 H 0.24860 0.28184 -0.14517
 H1154 H 0.24742 0.31487 -0.08124
 H1155 H 0.25823 0.25212 -0.15750
 H1156 H 0.29047 0.32980 -0.08108
 C1157 C 0.73477 0.25341 -0.15367
 C1158 C 0.73045 0.23345 -0.15068
 C1159 C 0.73652 0.22173 -0.13213
 C1160 C 0.72591 0.20475 -0.12711
 C1161 C 0.73101 0.19320 -0.10977
 C1162 C 0.74704 0.19830 -0.09714
 C1163 C 0.75788 0.21509 -0.10232
 C1164 C 0.75271 0.22672 -0.11964
 C1165 C 0.75274 0.18634 -0.07865
 C1166 C 0.74155 0.17051 -0.07203
 H1167 H 0.72176 0.22600 -0.16211
 H1168 H 0.71348 0.20048 -0.13655
 H1169 H 0.72238 0.18028 -0.10635
 H1170 H 0.77041 0.21922 -0.09296
 H1171 H 0.76167 0.23932 -0.12331
 H1172 H 0.76581 0.19023 -0.06996
 H1173 H 0.74361 0.26079 -0.14231
 H1174 H 0.74538 0.16402 -0.06138
 C1175 C 0.20809 0.74675 0.32326
 C1176 C 0.21820 0.75002 0.34173
 C1177 C 0.21861 0.73573 0.35931
 C1178 C 0.23407 0.73653 0.37379
 C1179 C 0.23493 0.72342 0.39067
 C1180 C 0.22022 0.70921 0.39346
 C1181 C 0.20447 0.70877 0.37928
 C1182 C 0.20364 0.72184 0.36239
 C1183 C 0.22037 0.69509 0.41118
 C1184 C 0.23762 0.68949 0.42210
 H1185 H 0.22641 0.76342 0.34352
 H1186 H 0.24557 0.74734 0.37201
 H1187 H 0.24691 0.72480 0.40164
 H1188 H 0.19275 0.69823 0.38127
 H1189 H 0.19103 0.72122 0.35210
 H1190 H 0.20637 0.68855 0.41514
 H1191 H 0.20015 0.73317 0.32155
 H1192 H 0.25163 0.69571 0.41746
 C1193 C 0.28085 0.75965 0.65250
 C1194 C 0.28404 0.73929 0.64993
 C1195 C 0.27778 0.72853 0.63124
 C1196 C 0.28602 0.70955 0.62755
 C1197 C 0.28024 0.69874 0.61035
 C1198 C 0.26604 0.70675 0.59639
 C1199 C 0.25753 0.72555 0.60032
 C1200 C 0.26326 0.73633 0.61751
 C1201 C 0.25909 0.69583 0.57809
 C1202 C 0.26973 0.67987 0.56922
 H1203 H 0.29124 0.73069 0.66214
 H1204 H 0.29694 0.70302 0.63807
 H1205 H 0.28666 0.68401 0.60843
 H1206 H 0.24630 0.73194 0.59006
 H1207 H 0.25587 0.75051 0.62010
 H1208 H 0.24536 0.70131 0.57122
 H1209 H 0.27381 0.76834 0.64030
 H1210 H 0.28401 0.67561 0.57584
 C1211 C 0.76914 0.25135 0.16118
 C1212 C 0.77709 0.23235 0.15739
 C1213 C 0.77195 0.22026 0.13921
 C1214 C 0.77754 0.20007 0.13934
 C1215 C 0.77346 0.18812 0.12244
 C1216 C 0.76381 0.19618 0.10489
 C1217 C 0.75799 0.21629 0.10480
 C1218 C 0.76217 0.22829 0.12166
 C1219 C 0.75933 0.18397 0.08667
 C1220 C 0.77131 0.16757 0.08094
 H1221 H 0.78703 0.22549 0.16866
 H1222 H 0.78504 0.19345 0.15264
 H1223 H 0.77765 0.17255 0.12333
 H1224 H 0.75050 0.22284 0.09147
 H1225 H 0.75797 0.24382 0.12058
 H1226 H 0.74715 0.18910 0.07695
 H1227 H 0.75759 0.25744 0.15118
 H1228 H 0.78464 0.16445 0.08993
 C1229 C 0.44780 0.40250 0.49561
 C1230 C 0.46575 0.39216 0.49955
 C1231 C 0.46769 0.37590 0.51507
 C1232 C 0.48662 0.37098 0.52308
 C1233 C 0.48905 0.35602 0.53805
 C1234 C 0.47255 0.34552 0.54517
 C1235 C 0.45366 0.35032 0.53706
 C1236 C 0.45124 0.36519 0.52202
 C1237 C 0.47441 0.32999 0.56143
 C1238 C 0.49186 0.31846 0.56440
 H1239 H 0.47927 0.39702 0.49219
 H1240 H 0.49954 0.37897 0.51800
 H1241 H 0.50376 0.35308 0.54432
 H1242 H 0.44074 0.34240 0.54226
 H1243 H 0.43650 0.36802 0.51581
 H1244 H 0.46110 0.32694 0.57020
 H1245 H 0.43478 0.39900 0.50468
 H1246 H 0.50398 0.32048 0.55354
 C1247 C -0.01442 0.91220 -0.00411
 C1248 C -0.02912 0.90302 0.00762
 C1249 C -0.02485 0.88516 0.02055
 C1250 C -0.04026 0.87214 0.02487
 C1251 C -0.03654 0.85471 0.03628
 C1252 C -0.01730 0.85011 0.04380
 C1253 C -0.00201 0.86333 0.03982
 C1254 C -0.00574 0.88076 0.02851
 C1255 C -0.01240 0.83138 0.05501
 C1256 C -0.02644 0.82075 0.06632
 H1257 H -0.04452 0.90792 0.00594
 H1258 H -0.05512 0.87521 0.01897
 H1259 H -0.04862 0.84468 0.03861
 H1260 H 0.01291 0.86018 0.04553
 H1261 H 0.00639 0.89073 0.02616
 H1262 H 0.00312 0.82672 0.05519
 H1263 H 0.00051 0.90573 -0.00418
 H1264 H -0.04129 0.82727 0.06789
 C1265 C 0.04168 0.58548 -0.00992
 C1266 C 0.02502 0.59845 -0.00887
 C1267 C 0.02410 0.61588 0.00485
 C1268 C 0.00546 0.62288 0.01196
 C1269 C 0.00394 0.63920 0.02505
 C1270 C 0.02110 0.64914 0.03100
 C1271 C 0.03974 0.64221 0.02375
 C1272 C 0.04126 0.62584 0.01071
 C1273 C 0.02024 0.66622 0.04526
 C1274 C 0.00293 0.67775 0.04878
 H1275 H 0.01151 0.59522 -0.01700
 H1276 H -0.00798 0.61547 0.00767
 H1277 H -0.01067 0.64361 0.03074
 H1278 H 0.05319 0.64957 0.02809
 H1279 H 0.05584 0.62125 0.00506
 H1280 H 0.03399 0.67010 0.05260
 H1281 H 0.05400 0.58827 0.00029
 H1282 H -0.01016 0.67507 0.03966
 C1283 C 0.54642 0.09406 0.50356
 C1284 C 0.52922 0.10431 0.51026
 C1285 C 0.52938 0.12083 0.52518
 C1286 C 0.51297 0.13416 0.52568
 C1287 C 0.51241 0.14998 0.53944
 C1288 C 0.52820 0.15264 0.55330
 C1289 C 0.54460 0.13930 0.55282
 C1290 C 0.54518 0.12347 0.53903
 C1291 C 0.52837 0.16939 0.56794
 C1292 C 0.51108 0.17957 0.57450
 H1293 H 0.51492 0.10044 0.50412
 H1294 H 0.50063 0.13249 0.51516
 H1295 H 0.49976 0.16024 0.53877
 H1296 H 0.55696 0.14102 0.56331
 H1297 H 0.55786 0.11326 0.53961
 H1298 H 0.54269 0.17362 0.57374
 H1299 H 0.56072 0.09785 0.50977
 H1300 H 0.49678 0.17499 0.56895
 C1301 C -0.04482 0.09951 0.49174
 C1302 C -0.03328 0.11579 0.49629
 C1303 C -0.03209 0.13339 0.48252
 C1304 C -0.01529 0.14519 0.48363
 C1305 C -0.01352 0.16183 0.47078
 C1306 C -0.02866 0.16706 0.45656
 C1307 C -0.04574 0.15562 0.45595
 C1308 C -0.04747 0.13896 0.46875
 C1309 C -0.02746 0.18443 0.44247
 C1310 C -0.00953 0.19290 0.43654
 H1311 H -0.02433 0.11567 0.51015
 H1312 H -0.00340 0.14144 0.49439
 H1313 H -0.00045 0.17064 0.47232
 H1314 H -0.05778 0.15952 0.44543
 H1315 H -0.06103 0.13076 0.46800
 H1316 H -0.04132 0.19023 0.43610
 H1317 H -0.05345 0.09975 0.47765
 H1318 H 0.00431 0.18705 0.44295
 C1319 C 0.45329 0.59832 1.00824
 C1320 C 0.46877 0.61173 1.00877
 C1321 C 0.46947 0.62891 0.99443
 C1322 C 0.48801 0.63554 0.98772
 C1323 C 0.48918 0.65133 0.97368
 C1324 C 0.47173 0.66113 0.96638
 C1325 C 0.45319 0.65464 0.97337
 C1326 C 0.45204 0.63876 0.98731
 C1327 C 0.47215 0.67766 0.95110
 C1328 C 0.48911 0.68852 0.94686
 H1329 H 0.48170 0.60885 1.01834
 H1330 H 0.50164 0.62816 0.99299
 H1331 H 0.50378 0.65539 0.96833
 H1332 H 0.43953 0.66190 0.96806
 H1333 H 0.43750 0.63438 0.99261
 H1334 H 0.45827 0.68174 0.94357
 H1335 H 0.44195 0.60079 0.99654
 H1336 H 0.50240 0.68561 0.95591
 C1337 C 0.54788 0.91326 1.00216
 C1338 C 0.53637 0.89638 1.00347
 C1339 C 0.53533 0.88126 0.98705
 C1340 C 0.52637 0.86326 0.99185
 C1341 C 0.52436 0.84878 0.97681
 C1342 C 0.53115 0.85204 0.95650
 C1343 C 0.54045 0.86984 0.95172
 C1344 C 0.54236 0.88442 0.96675
 C1345 C 0.52897 0.83705 0.94019
 C1346 C 0.51295 0.82425 0.94003
 H1347 H 0.52810 0.89360 1.01755
 H1348 H 0.52089 0.86037 1.00735
 H1349 H 0.51770 0.83497 0.98123
 H1350 H 0.54587 0.87265 0.93619
 H1351 H 0.54900 0.89816 0.96217
 H1352 H 0.53958 0.83718 0.92758
 H1353 H 0.55792 0.91506 0.98922
 H1354 H 0.50152 0.82643 0.95175
 C1355 C 0.02605 0.41845 0.50283
 C1356 C 0.03568 0.41125 0.48502
 C1357 C 0.02946 0.39320 0.47419
 C1358 C 0.03439 0.39095 0.45321
 C1359 C 0.02888 0.37414 0.44245
 C1360 C 0.01853 0.35903 0.45258
 C1361 C 0.01362 0.36125 0.47356
 C1362 C 0.01917 0.37804 0.48434
 C1363 C 0.01217 0.34110 0.44169
 C1364 C 0.02227 0.33346 0.42438
 H1365 H 0.04754 0.41934 0.47788
 H1366 H 0.04232 0.40239 0.44502
 H1367 H 0.03244 0.37326 0.42614
 H1368 H 0.00567 0.34982 0.48173
 H1369 H 0.01565 0.37882 0.50065
 H1370 H -0.00008 0.33332 0.44849
 H1371 H 0.01310 0.41073 0.50823
 H1372 H 0.03573 0.34064 0.41950
 C1373 C 0.39024 0.49287 0.46157
 C1374 C 0.37839 0.49443 0.47936
 C1375 C 0.36167 0.50905 0.48158
 C1376 C 0.36088 0.52707 0.47048
 C1377 C 0.34515 0.54077 0.47357
 C1378 C 0.32981 0.53668 0.48776
 C1379 C 0.33080 0.51879 0.49899
 C1380 C 0.34656 0.50516 0.49596
 C1381 C 0.31314 0.55096 0.49210
 C1382 C 0.30744 0.56653 0.47868
 H1383 H 0.38110 0.48449 0.49230
 H1384 H 0.37266 0.53098 0.45988
 H1385 H 0.34548 0.55470 0.46523
 H1386 H 0.31934 0.51535 0.51020
 H1387 H 0.34693 0.49149 0.50490
 H1388 H 0.30497 0.54847 0.50624
 H1389 H 0.38718 0.50279 0.44866
 H1390 H 0.31499 0.56754 0.46390
 C1391 C 0.92579 0.00048 -0.04089
 C1392 C 0.91191 0.00117 -0.02462
 C1393 C 0.89491 0.01565 -0.02392
 C1394 C 0.88679 0.02087 -0.00463
 C1395 C 0.87061 0.03430 -0.00327
 C1396 C 0.86192 0.04255 -0.02129
 C1397 C 0.87007 0.03736 -0.04059
 C1398 C 0.88630 0.02396 -0.04194
 C1399 C 0.84474 0.05687 -0.02057
 C1400 C 0.83131 0.05789 -0.00391
 H1401 H 0.91402 -0.00815 -0.01109
 H1402 H 0.89316 0.01472 0.00950
 H1403 H 0.86525 0.03837 0.01194
 H1404 H 0.86369 0.04350 -0.05471
 H1405 H 0.89176 0.01990 -0.05713
 H1406 H 0.84235 0.06605 -0.03415
 H1407 H 0.92428 0.01168 -0.05293
 H1408 H 0.83338 0.04723 0.00857
 C1409 C 0.59819 -0.00206 0.05049
 C1410 C 0.61081 0.00169 0.03372
 C1411 C 0.62796 0.01498 0.03445
 C1412 C 0.64291 0.01278 0.01937
 C1413 C 0.65919 0.02516 0.01901
 C1414 C 0.66072 0.04036 0.03359
 C1415 C 0.64589 0.04243 0.04886
 C1416 C 0.62960 0.02996 0.04926
 C1417 C 0.67759 0.05406 0.03350
 C1418 C 0.68910 0.05780 0.01588
 H1419 H 0.60835 -0.00564 0.01920
 H1420 H 0.64209 0.00128 0.00786
 H1421 H 0.67060 0.02250 0.00745
 H1422 H 0.64673 0.05396 0.06032
 H1423 H 0.61822 0.03246 0.06090
 H1424 H 0.68056 0.06171 0.04771
 H1425 H 0.60036 0.00551 0.06493
 H1426 H 0.68564 0.05043 0.00162
 C1427 C 0.09181 0.50256 0.52150
 C1428 C 0.09489 0.52203 0.52764
 C1429 C 0.11267 0.53338 0.52174
 C1430 C 0.11193 0.55404 0.52399
 C1431 C 0.12839 0.56535 0.51892
 C1432 C 0.14609 0.55616 0.51162
 C1433 C 0.14683 0.53554 0.50925
 C1434 C 0.13041 0.52421 0.51443
 C1435 C 0.16385 0.56758 0.50602
 C1436 C 0.16790 0.58592 0.51461
 H1437 H 0.08337 0.52980 0.53634
 H1438 H 0.09848 0.56151 0.52958
 H1439 H 0.12705 0.58126 0.52043
 H1440 H 0.16030 0.52810 0.50367
 H1441 H 0.13191 0.50832 0.51297
 H1442 H 0.17480 0.56057 0.49594
 H1443 H 0.10223 0.49555 0.51088
 H1444 H 0.15821 0.59180 0.52663
 C1445 C 0.09815 0.49507 -0.03863
 C1446 C 0.11330 0.49630 -0.02390
 C1447 C 0.13014 0.48167 -0.02269
 C1448 C 0.13967 0.47831 -0.00364
 C1449 C 0.15549 0.46446 -0.00189
 C1450 C 0.16217 0.45373 -0.01928
 C1451 C 0.15303 0.45758 -0.03844
 C1452 C 0.13721 0.47138 -0.04018
 C1453 C 0.17886 0.43889 -0.01831
 C1454 C 0.18550 0.42970 -0.00002
 H1455 H 0.11241 0.50731 -0.01192
 H1456 H 0.13476 0.48632 0.00997
 H1457 H 0.16255 0.46254 0.01301
 H1458 H 0.15812 0.44981 -0.05215
 H1459 H 0.13080 0.47414 -0.05530
 H1460 H 0.18598 0.43495 -0.03279
 H1461 H 0.09875 0.48245 -0.04883
 H1462 H 0.17860 0.43367 0.01455
 C1463 C 0.59619 1.00486 0.45920
 C1464 C 0.61344 1.00508 0.47130
 C1465 C 0.62889 0.98897 0.47106
 C1466 C 0.64828 0.99313 0.47736
 C1467 C 0.66312 0.97821 0.47806
 C1468 C 0.65878 0.95866 0.47275
 C1469 C 0.63948 0.95454 0.46619
 C1470 C 0.62461 0.96946 0.46550
 C1471 C 0.67395 0.94233 0.47388
 C1472 C 0.69013 0.94254 0.48738
 H1473 H 0.61650 1.01772 0.48073
 H1474 H 0.65198 1.00802 0.48169
 H1475 H 0.67797 0.98211 0.48259
 H1476 H 0.63576 0.93960 0.46202
 H1477 H 0.60974 0.96548 0.46114
 H1478 H 0.67131 0.92914 0.46507
 H1479 H 0.59496 0.99293 0.44827
 H1480 H 0.69133 0.95480 0.49791
 C1481 C 0.90003 1.00989 0.51840
 C1482 C 0.89960 0.98964 0.52304
 C1483 C 0.88253 0.97712 0.51811
 C1484 C 0.88069 0.95894 0.52857
 C1485 C 0.86490 0.94659 0.52426
 C1486 C 0.85058 0.95222 0.50933
 C1487 C 0.85270 0.97017 0.49854
 C1488 C 0.86847 0.98248 0.50282
 C1489 C 0.83361 0.93969 0.50401
 C1490 C 0.82622 0.92491 0.51710
 H1491 H 0.91222 0.98250 0.53070
 H1492 H 0.89152 0.95428 0.54014
 H1493 H 0.86429 0.93258 0.53242
 H1494 H 0.84210 0.97471 0.48669
 H1495 H 0.86969 0.99593 0.49378
 H1496 H 0.82626 0.94328 0.48959
 H1497 H 0.88741 1.01706 0.51079
 H1498 H 0.83321 0.92268 0.53203
 C1499 C 0.40213 0.50589 0.02819
 C1500 C 0.39467 0.49112 0.04111
 C1501 C 0.37899 0.47760 0.03453
 C1502 C 0.36728 0.46845 0.04968
 C1503 C 0.35219 0.45577 0.04403
 C1504 C 0.34872 0.45180 0.02306
 C1505 C 0.36055 0.46081 0.00794
 C1506 C 0.37565 0.47343 0.01358
 C1507 C 0.33252 0.43899 0.01632
 C1508 C 0.32483 0.42391 0.02875
 H1509 H 0.39947 0.49014 0.05705
 H1510 H 0.36958 0.47139 0.06592
 H1511 H 0.34304 0.44953 0.05611
 H1512 H 0.35820 0.45794 -0.00832
 H1513 H 0.38476 0.47964 0.00145
 H1514 H 0.32755 0.44100 0.00055
 H1515 H 0.39548 0.50834 0.01313
 H1516 H 0.33192 0.42087 0.04351
 C1517 C 0.48374 0.46274 0.40629
 C1518 C 0.48667 0.48108 0.39669
 C1519 C 0.50145 0.48432 0.38001
 C1520 C 0.51840 0.47187 0.37722
 C1521 C 0.53213 0.47578 0.36146
 C1522 C 0.52914 0.49219 0.34809
 C1523 C 0.51238 0.50473 0.35116
 C1524 C 0.49873 0.50087 0.36694
 C1525 C 0.54336 0.49725 0.33135
 C1526 C 0.55751 0.48382 0.32305
 H1527 H 0.47753 0.49377 0.40120
 H1528 H 0.52146 0.45941 0.38746
 H1529 H 0.54522 0.46617 0.36024
 H1530 H 0.50979 0.51759 0.34128
 H1531 H 0.48592 0.51082 0.36887
 H1532 H 0.54181 0.51206 0.32506
 H1533 H 0.49301 0.45009 0.40190
 H1534 H 0.55775 0.46875 0.32888
 C1535 C 0.01890 -0.03029 0.90530
 C1536 C 0.01510 -0.02109 0.88620
 C1537 C 0.03021 -0.01992 0.86945
 C1538 C 0.02750 -0.00568 0.85368
 C1539 C 0.04127 -0.00428 0.83746
 C1540 C 0.05813 -0.01717 0.83671
 C1541 C 0.06056 -0.03169 0.85223
 C1542 C 0.04680 -0.03311 0.86839
 C1543 C 0.07305 -0.01655 0.81974
 C1544 C 0.07577 0.00005 0.80696
 H1545 H 0.00052 -0.01446 0.88321
 H1546 H 0.01465 0.00440 0.85388
 H1547 H 0.03835 0.00664 0.82543
 H1548 H 0.07318 -0.04206 0.85183
 H1549 H 0.04910 -0.04486 0.87967
 H1550 H 0.08260 -0.02957 0.81811
 H1551 H 0.03356 -0.03667 0.90835
 H1552 H 0.06683 0.01328 0.81008
 C1553 C -0.00503 0.03010 0.58047
 C1554 C 0.01150 0.04097 0.58537
 C1555 C 0.02532 0.03479 0.60215
 C1556 C 0.04161 0.04656 0.60652
 C1557 C 0.05485 0.04124 0.62240
 C1558 C 0.05196 0.02402 0.63435
 C1559 C 0.03585 0.01208 0.62973
 C1560 C 0.02261 0.01742 0.61387
 C1561 C 0.06555 0.01776 0.65136
 C1562 C 0.07774 0.03077 0.66179
 H1563 H 0.01438 0.05446 0.57680
 H1564 H 0.04413 0.05991 0.59758
 H1565 H 0.06743 0.05051 0.62494
 H1566 H 0.03339 -0.00135 0.63856
 H1567 H 0.01026 0.00793 0.61086
 H1568 H 0.06546 0.00236 0.65604
 H1569 H -0.01265 0.03422 0.57083
 H1570 H 0.07774 0.04618 0.65713
 C1571 C 0.48732 0.53181 0.09495
 C1572 C 0.50552 0.54051 0.09898
 C1573 C 0.51847 0.53422 0.11650
 C1574 C 0.53187 0.54768 0.12454
 C1575 C 0.54430 0.54227 0.14110
 C1576 C 0.54361 0.52315 0.14991
 C1577 C 0.53062 0.50954 0.14145
 C1578 C 0.51818 0.51496 0.12495
 C1579 C 0.55643 0.51657 0.16744
 C1580 C 0.56575 0.52946 0.18086
 H1581 H 0.51048 0.55261 0.08940
 H1582 H 0.53265 0.56249 0.11804
 H1583 H 0.55456 0.55303 0.14662
 H1584 H 0.53003 0.49462 0.14768
 H1585 H 0.50868 0.50388 0.11867
 H1586 H 0.55819 0.50078 0.17001
 H1587 H 0.48241 0.52011 0.10514
 H1588 H 0.56433 0.54527 0.17826
 C1589 C 0.50059 -0.03537 0.09192
 C1590 C 0.50154 -0.02597 0.11106
 C1591 C 0.48484 -0.02531 0.12618
 C1592 C 0.48898 -0.02096 0.14688
 C1593 C 0.47378 -0.02035 0.16173
 C1594 C 0.45400 -0.02391 0.15612
 C1595 C 0.44982 -0.02821 0.13544
 C1596 C 0.46500 -0.02871 0.12056
 C1597 C 0.43760 -0.02376 0.17151
 C1598 C 0.43797 -0.01256 0.18953
 H1599 H 0.51550 -0.01997 0.11591
 H1600 H 0.50410 -0.01828 0.15167
 H1601 H 0.47768 -0.01750 0.17762
 H1602 H 0.43469 -0.03098 0.13073
 H1603 H 0.46097 -0.03153 0.10471
 H1604 H 0.42439 -0.03182 0.16787
 H1605 H 0.48732 -0.04319 0.08804
 H1606 H 0.45006 -0.00257 0.19176
 C1607 C 1.00493 0.48456 0.59082
 C1608 C 0.99338 0.47125 0.60202
 C1609 C 0.98013 0.47679 0.61959
 C1610 C 0.96587 0.46327 0.62610
 C1611 C 0.95290 0.46771 0.64247
 C1612 C 0.95408 0.48579 0.65294
 C1613 C 0.96832 0.49934 0.64644
 C1614 C 0.98130 0.49490 0.63004
 C1615 C 0.94043 0.49128 0.67018
 C1616 C 0.93015 0.47743 0.68205
 H1617 H 0.99371 0.45585 0.59756
 H1618 H 0.96455 0.44926 0.61829
 H1619 H 0.94177 0.45708 0.64647
 H1620 H 0.96952 0.51339 0.65420
 H1621 H 0.99227 0.50563 0.62591
 H1622 H 0.93870 0.50685 0.67361
 H1623 H 1.00536 0.49986 0.59545
 H1624 H 0.93221 0.46185 0.67873
 C1625 C 1.00387 0.51860 0.90895
 C1626 C 0.99005 0.53177 0.89971
 C1627 C 0.97582 0.52557 0.88373
 C1628 C 0.96832 0.53970 0.86949
 C1629 C 0.95535 0.53423 0.85380
 C1630 C 0.94940 0.51451 0.85226
 C1631 C 0.95666 0.50047 0.86672
 C1632 C 0.96958 0.50594 0.88239
 C1633 C 0.93643 0.50782 0.83538
 C1634 C 0.92301 0.52047 0.82474
 H1635 H 0.99062 0.54741 0.90300
 H1636 H 0.97286 0.55492 0.87021
 H1637 H 0.95049 0.54539 0.84266
 H1638 H 0.95226 0.48520 0.86592
 H1639 H 0.97448 0.49474 0.89348
 H1640 H 0.93698 0.49215 0.83224
 H1641 H 1.00474 0.50344 0.90369
 H1642 H 0.92122 0.53556 0.83008
 C1643 C 0.49958 0.04061 0.41674
 C1644 C 0.49585 0.02344 0.40568
 C1645 C 0.47989 0.02214 0.39009
 C1646 C 0.48238 0.00838 0.37414
 C1647 C 0.46770 0.00642 0.35914
 C1648 C 0.44986 0.01789 0.36007
 C1649 C 0.44742 0.03173 0.37603
 C1650 C 0.46223 0.03382 0.39094
 C1651 C 0.43385 0.01626 0.34445
 C1652 C 0.43212 -0.00023 0.33164
 H1653 H 0.50535 0.01040 0.40778
 H1654 H 0.49591 -0.00071 0.37309
 H1655 H 0.47068 -0.00386 0.34675
 H1656 H 0.43389 0.04082 0.37708
 H1657 H 0.45960 0.04428 0.40329
 H1658 H 0.42309 0.02843 0.34354
 H1659 H 0.48989 0.05353 0.41455
 H1660 H 0.44247 -0.01261 0.33400
   
