data_POSCAR
  _audit_creation_date              2014-09-24
  _audit_creation_method            'ToBaCCo'
  _symmetry_space_group_name_H-M    'P1'
  _symmetry_Int_Tables_number       1
  _symmetry_cell_setting            triclinic
  loop_
  _symmetry_equiv_pos_as_xyz
 x,y,z
_cell_length_a 60.7943
_cell_length_b 60.3392
_cell_length_c 59.9676
_cell_angle_alpha 89.980100
_cell_angle_beta 90.139400
_cell_angle_gamma 90.139100
loop_
  _atom_site_label
  _atom_site_type_symbol
  _atom_site_fract_x
  _atom_site_fract_y
  _atom_site_fract_z
C1 C 0.28885 0.37106 -0.00303
 C2 C 0.30128 0.36782 0.01629
 C3 C 0.32108 0.35627 0.01518
 C4 C 0.32795 0.34637 -0.00491
 C5 C 0.31550 0.35032 -0.02445
 C6 C 0.29602 0.36307 -0.02386
 C7 C 0.34735 0.33109 -0.00497
 C8 C 0.36003 0.32761 -0.02438
 C9 C 0.37800 0.31277 -0.02440
 C10 C 0.38331 0.30188 -0.00427
 C11 C 0.37092 0.30503 0.01504
 C12 C 0.35292 0.31932 0.01454
 H13 H 0.27426 0.38121 -0.00171
 H14 H 0.33071 0.35464 0.03028
 H15 H 0.32022 0.34247 -0.03990
 H16 H 0.35646 0.33711 -0.03923
 H17 H 0.39654 0.28992 -0.00360
 H18 H 0.34291 0.32054 0.02938
 C19 C 0.72456 0.63196 0.00951
 C20 C 0.71315 0.63613 0.02929
 C21 C 0.69494 0.65037 0.02892
 C22 C 0.68909 0.66204 0.00929
 C23 C 0.70122 0.65769 -0.01035
 C24 C 0.71854 0.64238 -0.01043
 C25 C 0.67152 0.67962 0.00962
 C26 C 0.66122 0.68682 -0.01032
 C27 C 0.64716 0.70542 -0.01063
 C28 C 0.64179 0.71535 0.00987
 C29 C 0.65057 0.70768 0.02998
 C30 C 0.66576 0.69030 0.02975
 H31 H 0.73813 0.62034 0.00963
 H32 H 0.68593 0.65267 0.04424
 H33 H 0.69803 0.66666 -0.02560
 H34 H 0.66499 0.67867 -0.02583
 H35 H 0.62970 0.72850 0.01051
 H36 H 0.67339 0.68583 0.04539
 C37 C 0.69178 0.38124 1.00024
 C38 C 0.68429 0.37331 0.97966
 C39 C 0.67124 0.35416 0.97914
 C40 C 0.66665 0.34209 0.99879
 C41 C 0.67472 0.35032 1.01932
 C42 C 0.68674 0.37022 1.02015
 C43 C 0.65358 0.32105 0.99762
 C44 C 0.64036 0.31401 1.01565
 C45 C 0.62720 0.29472 1.01415
 C46 C 0.62755 0.28265 0.99402
 C47 C 0.64046 0.28935 0.97597
 C48 C 0.65371 0.30819 0.97799
 H49 H 0.70230 0.39576 1.00077
 H50 H 0.66458 0.34890 0.96326
 H51 H 0.67174 0.34141 1.03468
 H52 H 0.63926 0.32432 1.03034
 H53 H 0.61806 0.26757 0.99224
 H54 H 0.66418 0.31258 0.96411
 C55 C 0.30080 0.62658 0.99240
 C56 C 0.30964 0.63378 0.97213
 C57 C 0.32886 0.64662 0.97219
 C58 C 0.33992 0.65170 0.99231
 C59 C 0.33123 0.64331 1.01247
 C60 C 0.31141 0.63132 1.01259
 C61 C 0.35958 0.66673 0.99215
 C62 C 0.36422 0.68071 1.01048
 C63 C 0.38106 0.69681 1.00946
 C64 C 0.39325 0.69863 0.98961
 C65 C 0.38931 0.68464 0.97139
 C66 C 0.37284 0.66847 0.97296
 H67 H 0.28582 0.61679 0.99245
 H68 H 0.33456 0.65319 0.95645
 H69 H 0.33948 0.64641 1.02818
 H70 H 0.35364 0.68030 1.02493
 H71 H 0.40627 0.71081 0.98827
 H72 H 0.37036 0.65740 0.95899
 C73 C -0.00255 0.30653 0.38770
 C74 C 0.01788 0.30705 0.37687
 C75 C 0.02046 0.32016 0.35765
 C76 C 0.00280 0.33285 0.34933
 C77 C -0.01726 0.33266 0.36108
 C78 C -0.02031 0.31903 0.37975
 C79 C 0.00453 0.34503 0.32767
 C80 C -0.01423 0.34725 0.31397
 C81 C -0.01360 0.35892 0.29364
 C82 C 0.00695 0.36695 0.28637
 C83 C 0.02597 0.36448 0.29940
 C84 C 0.02462 0.35403 0.32027
 H85 H -0.00478 0.29586 0.40206
 H86 H 0.03588 0.31953 0.34870
 H87 H -0.03084 0.34287 0.35556
 H88 H -0.02926 0.33895 0.31877
 H89 H 0.00827 0.37649 0.27115
 H90 H 0.03926 0.35284 0.33051
 C91 C -0.00024 0.71596 0.63302
 C92 C 0.01918 0.70826 0.64289
 C93 C 0.01890 0.68807 0.65448
 C94 C -0.00032 0.67491 0.65533
 C95 C -0.01944 0.68268 0.64444
 C96 C -0.01961 0.70341 0.63384
 C97 C -0.00035 0.65327 0.66759
 C98 C -0.01980 0.64509 0.67756
 C99 C -0.02012 0.62465 0.68904
 C100 C -0.00011 0.61312 0.69126
 C101 C 0.01945 0.62111 0.68199
 C102 C 0.01916 0.64086 0.66979
 H103 H -0.00011 0.73143 0.62382
 H104 H 0.03374 0.68291 0.66298
 H105 H -0.03430 0.67279 0.64415
 H106 H -0.03475 0.65454 0.67599
 H107 H 0.00084 0.59856 0.70175
 H108 H 0.03426 0.64636 0.66204
 C109 C 0.99195 0.71025 0.36359
 C110 C 0.97309 0.70114 0.35377
 C111 C 0.97459 0.68107 0.34224
 C112 C 0.99461 0.66941 0.34125
 C113 C 1.01317 0.67834 0.35238
 C114 C 1.01233 0.69923 0.36297
 C115 C 0.99624 0.64838 0.32807
 C116 C 1.01616 0.64245 0.31760
 C117 C 1.01803 0.62286 0.30487
 C118 C 0.99892 0.60989 0.30191
 C119 C 0.97888 0.61554 0.31183
 C120 C 0.97774 0.63449 0.32523
 H121 H 0.99017 0.72539 0.37311
 H122 H 0.96007 0.67492 0.33378
 H123 H 1.02849 0.66937 0.35205
 H124 H 1.03030 0.65303 0.31972
 H125 H 0.99900 0.59599 0.29053
 H126 H 0.96236 0.63825 0.33341
 C127 C 0.99840 0.27766 0.63775
 C128 C 0.97844 0.28861 0.64118
 C129 C 0.97782 0.30714 0.65532
 C130 C 0.99675 0.31395 0.66726
 C131 C 1.01665 0.30241 0.66354
 C132 C 1.01761 0.28464 0.64853
 C133 C 0.99556 0.33216 0.68431
 C134 C 1.01465 0.34407 0.69064
 C135 C 1.01451 0.35880 0.70889
 C136 C 0.99427 0.36309 0.71938
 C137 C 0.97485 0.35269 0.71247
 C138 C 0.97561 0.33696 0.69534
 H139 H 0.99910 0.26388 0.62617
 H140 H 0.96240 0.31580 0.65718
 H141 H 1.03145 0.30651 0.67269
 H142 H 1.02993 0.34099 0.68210
 H143 H 0.99323 0.37552 0.73236
 H144 H 0.96063 0.32812 0.69132
 C145 C 0.37062 -0.00326 0.28972
 C146 C 0.35879 0.01636 0.29280
 C147 C 0.34129 0.01672 0.30789
 C148 C 0.33574 -0.00226 0.32041
 C149 C 0.34824 -0.02174 0.31736
 C150 C 0.36550 -0.02275 0.30166
 C151 C 0.31652 -0.00190 0.33604
 C152 C 0.30456 -0.02148 0.34069
 C153 C 0.28606 -0.02111 0.35465
 C154 C 0.27883 -0.00083 0.36324
 C155 C 0.29035 0.01877 0.35889
 C156 C 0.30948 0.01812 0.34592
 H157 H 0.38332 -0.00325 0.27713
 H158 H 0.33166 0.03171 0.30915
 H159 H 0.34503 -0.03592 0.32787
 H160 H 0.30916 -0.03708 0.33316
 H161 H 0.26453 -0.00031 0.37399
 H162 H 0.31853 0.03337 0.34341
 C163 C 0.63436 0.00375 0.70105
 C164 C 0.64141 0.02404 0.69241
 C165 C 0.65850 0.02442 0.67684
 C166 C 0.66726 0.00454 0.66808
 C167 C 0.65852 -0.01583 0.67596
 C168 C 0.64306 -0.01643 0.69346
 C169 C 0.68593 0.00511 0.65155
 C170 C 0.69969 -0.01352 0.64840
 C171 C 0.71755 -0.01280 0.63363
 C172 C 0.72267 0.00714 0.62289
 C173 C 0.70962 0.02593 0.62590
 C174 C 0.69085 0.02460 0.63936
 H175 H 0.62142 0.00381 0.71343
 H176 H 0.66462 0.04042 0.67173
 H177 H 0.66447 -0.03131 0.66940
 H178 H 0.69720 -0.02865 0.65766
 H179 H 0.73659 0.00797 0.61166
 H180 H 0.68059 0.03912 0.64045
 C181 C 0.38880 0.99785 0.70362
 C182 C 0.38643 0.97780 0.69205
 C183 C 0.37063 0.97623 0.67499
 C184 C 0.35692 0.99438 0.66969
 C185 C 0.35977 1.01436 0.68162
 C186 C 0.37577 1.01621 0.69837
 C187 C 0.33934 0.99239 0.65225
 C188 C 0.33214 1.01122 0.64026
 C189 C 0.31470 1.00992 0.62470
 C190 C 0.30505 0.98900 0.62093
 C191 C 0.31223 0.97011 0.63226
 C192 C 0.32919 0.97179 0.64793
 H193 H 0.40089 0.99923 0.71687
 H194 H 0.36937 0.96091 0.66570
 H195 H 0.34921 1.02844 0.67849
 H196 H 0.34073 1.02676 0.64245
 H197 H 0.29109 0.98718 0.60984
 H198 H 0.33379 0.95711 0.65717
 C199 C 0.60646 1.00023 0.31025
 C200 C 0.61573 0.98108 0.31944
 C201 C 0.63416 0.98304 0.33330
 C202 C 0.64422 1.00380 0.33707
 C203 C 0.63468 1.02285 0.32736
 C204 C 0.61527 1.02147 0.31441
 C205 C 0.66473 1.00542 0.35092
 C206 C 0.66994 1.02492 0.36289
 C207 C 0.68921 1.02629 0.37576
 C208 C 0.70311 1.00786 0.37715
 C209 C 0.69819 0.98824 0.36575
 C210 C 0.67931 0.98728 0.35234
 H211 H 0.59310 0.99820 0.29849
 H212 H 0.64050 0.96822 0.34113
 H213 H 0.64219 1.03879 0.33031
 H214 H 0.65890 1.03894 0.36281
 H215 H 0.71783 1.00873 0.38735
 H216 H 0.67633 0.97235 0.34281
 O217 O 0.85299 0.82841 0.46738
 O218 O 0.82476 0.85591 0.51362
 O219 O 0.85613 0.82697 0.51049
 O220 O 0.82147 0.85693 0.47046
 O221 O 0.79709 0.82982 0.47131
 O222 O 0.83184 0.79980 0.51182
 O223 O 0.80015 0.82902 0.51466
 O224 O 0.82895 0.80099 0.46838
 Cu225 Cu 0.84126 0.84475 0.49042
 Cu226 Cu 0.81206 0.81215 0.49167
 C227 C 0.84593 0.81002 0.45995
 C228 C 0.80756 0.84736 0.52198
 C229 C 0.85002 0.80826 0.51800
 C230 C 0.80337 0.84856 0.46399
 O231 O 0.17333 0.13318 0.52562
 O232 O 0.13776 0.16584 0.48868
 O233 O 0.16871 0.13686 0.48299
 O234 O 0.14186 0.16163 0.53146
 O235 O 0.16587 0.18908 0.53144
 O236 O 0.19374 0.16338 0.48300
 O237 O 0.16235 0.19276 0.48816
 O238 O 0.19788 0.16015 0.52601
 Cu239 Cu 0.15297 0.14673 0.50722
 Cu240 Cu 0.18241 0.17911 0.50720
 C241 C 0.19180 0.14085 0.53192
 C242 C 0.14386 0.18489 0.48209
 C243 C 0.18594 0.14555 0.47484
 C244 C 0.14895 0.17969 0.53962
 O245 O 0.14415 0.82301 0.52722
 O246 O 0.16766 0.85513 0.48108
 O247 O 0.13819 0.82402 0.48451
 O248 O 0.17339 0.85393 0.52397
 O249 O 0.19936 0.82878 0.52008
 O250 O 0.16385 0.79867 0.47989
 O251 O 0.19369 0.83011 0.47682
 O252 O 0.16969 0.79746 0.52293
 Cu253 Cu 0.15331 0.84155 0.50455
 Cu254 Cu 0.18428 0.81123 0.49945
 C255 C 0.15275 0.80471 0.53294
 C256 C 0.18476 0.84830 0.47113
 C257 C 0.14476 0.80616 0.47558
 C258 C 0.19230 0.84653 0.52895
 O259 O 0.80608 0.17441 0.46328
 O260 O 0.84073 0.20212 0.50496
 O261 O 0.81287 0.16961 0.50534
 O262 O 0.83507 0.20622 0.46229
 O263 O 0.80945 0.23104 0.46956
 O264 O 0.78571 0.19293 0.51165
 O265 O 0.81400 0.22567 0.51223
 O266 O 0.77968 0.19873 0.46908
 Cu267 Cu 0.82634 0.18577 0.48322
 Cu268 Cu 0.79449 0.21455 0.49115
 C269 C 0.78679 0.18146 0.45936
 C270 C 0.83334 0.21856 0.51583
 C271 C 0.79539 0.17468 0.51565
 C272 C 0.82654 0.22509 0.45896
 O273 O 0.49178 0.84336 0.81201
 O274 O 0.53437 0.81919 0.84754
 O275 O 0.53368 0.84831 0.81592
 O276 O 0.49263 0.81366 0.84358
 O277 O 0.49784 0.78709 0.81892
 O278 O 0.53935 0.82236 0.79070
 O279 O 0.54003 0.79260 0.82299
 O280 O 0.49689 0.81728 0.78682
 Cu281 Cu 0.51251 0.83372 0.83218
 Cu282 Cu 0.51902 0.80217 0.80229
 C283 C 0.48730 0.83490 0.79317
 C284 C 0.54428 0.80165 0.84168
 C285 C 0.54341 0.84154 0.79851
 C286 C 0.48860 0.79425 0.83650
 O287 O 0.51931 0.18557 0.15728
 O288 O 0.47684 0.15339 0.18633
 O289 O 0.47719 0.18149 0.15373
 O290 O 0.51925 0.15666 0.18934
 O291 O 0.51561 0.18362 0.21387
 O292 O 0.47308 0.20896 0.17760
 O293 O 0.47282 0.18044 0.21070
 O294 O 0.51553 0.21289 0.18138
 Cu295 Cu 0.49858 0.16657 0.16931
 Cu296 Cu 0.49387 0.19920 0.19838
 C297 C 0.52449 0.20483 0.16408
 C298 C 0.46756 0.16132 0.20351
 C299 C 0.46807 0.19953 0.15929
 C300 C 0.52458 0.16560 0.20772
 O301 O 0.52342 0.14860 0.81750
 O302 O 0.48668 0.18342 0.85067
 O303 O 0.48139 0.15081 0.82285
 O304 O 0.52888 0.18059 0.84572
 O305 O 0.52678 0.20526 0.81864
 O306 O 0.47972 0.17423 0.79466
 O307 O 0.48420 0.20742 0.82305
 O308 O 0.52235 0.17289 0.79002
 Cu309 Cu 0.50523 0.16350 0.83695
 Cu310 Cu 0.50298 0.19240 0.80380
 C311 C 0.52920 0.15469 0.79811
 C312 C 0.47926 0.20143 0.84274
 C313 C 0.47270 0.15701 0.80464
 C314 C 0.53591 0.19806 0.83631
 O315 O 0.47957 0.81844 0.14997
 O316 O 0.51721 0.85197 0.18397
 O317 O 0.52202 0.82306 0.15222
 O318 O 0.47530 0.84803 0.18095
 O319 O 0.47669 0.82225 0.20701
 O320 O 0.52309 0.79596 0.17687
 O321 O 0.51906 0.82529 0.20906
 O322 O 0.48005 0.79205 0.17541
 Cu323 Cu 0.49845 0.83790 0.16418
 Cu324 Cu 0.49984 0.80608 0.19453
 C325 C 0.47322 0.79957 0.15684
 C326 C 0.52422 0.84466 0.20254
 C327 C 0.53054 0.80525 0.15938
 C328 C 0.46838 0.83997 0.19919
 O329 O 0.85561 0.51926 0.82662
 O330 O 0.81988 0.48307 0.85992
 O331 O 0.85182 0.47679 0.83173
 O332 O 0.82459 0.52533 0.85567
 O333 O 0.79952 0.52438 0.82902
 O334 O 0.82826 0.47645 0.80371
 O335 O 0.79590 0.48163 0.83229
 O336 O 0.83097 0.51948 0.79957
 Cu337 Cu 0.84042 0.50113 0.84616
 Cu338 Cu 0.81125 0.50039 0.81334
 C339 C 0.84944 0.52561 0.80741
 C340 C 0.80166 0.47638 0.85197
 C341 C 0.84507 0.46848 0.81351
 C342 C 0.80717 0.53292 0.84684
 O343 O 0.14679 0.52595 0.16946
 O344 O 0.17702 0.48216 0.14086
 O345 O 0.14682 0.48323 0.17110
 O346 O 0.17756 0.52498 0.13939
 O347 O 0.20308 0.52603 0.16556
 O348 O 0.17208 0.48381 0.19756
 O349 O 0.20271 0.48283 0.16690
 O350 O 0.17188 0.52695 0.19606
 Cu351 Cu 0.15956 0.50408 0.15258
 Cu352 Cu 0.19003 0.50507 0.18417
 C353 C 0.15378 0.53366 0.18784
 C354 C 0.19500 0.47498 0.14881
 C355 C 0.15404 0.47638 0.18976
 C356 C 0.19568 0.53249 0.14681
 O357 O 0.84042 0.46534 0.19077
 O358 O 0.80972 0.51077 0.16516
 O359 O 0.84032 0.50783 0.19554
 O360 O 0.80876 0.46801 0.16178
 O361 O 0.78443 0.46470 0.18882
 O362 O 0.81481 0.50659 0.22161
 O363 O 0.78387 0.50788 0.19075
 O364 O 0.81633 0.46355 0.21816
 Cu365 Cu 0.82725 0.48826 0.17566
 Cu366 Cu 0.79734 0.48550 0.20752
 C367 C 0.83399 0.45690 0.20900
 C368 C 0.79139 0.51685 0.17313
 C369 C 0.83308 0.51392 0.21442
 C370 C 0.79125 0.45946 0.16953
 O371 O 0.17856 0.52855 0.84379
 O372 O 0.14728 0.48354 0.81860
 O373 O 0.17706 0.48582 0.84919
 O374 O 0.15027 0.52535 0.81129
 O375 O 0.17736 0.52144 0.78721
 O376 O 0.20299 0.48002 0.82424
 O377 O 0.17277 0.47886 0.79292
 O378 O 0.20589 0.52315 0.82030
 Cu379 Cu 0.16077 0.50641 0.83321
 Cu380 Cu 0.19249 0.50041 0.80372
 C381 C 0.19761 0.53345 0.83680
 C382 C 0.15423 0.47372 0.80134
 C383 C 0.19445 0.47589 0.84310
 C384 C 0.15906 0.52995 0.79264
 C385 C 0.30484 0.39240 0.04972
 C386 C 0.29549 0.40230 0.06855
 C387 C 0.27429 0.39624 0.07564
 C388 C 0.26330 0.37890 0.06447
 C389 C 0.27246 0.36932 0.04550
 C390 C 0.29302 0.37636 0.03771
 C391 C 0.26368 0.40911 0.09374
 C392 C 0.24174 0.41106 0.09525
 C393 C 0.23022 0.42652 0.11042
 C394 C 0.20841 0.43203 0.10521
 C395 C 0.19697 0.44742 0.11796
 C396 C 0.20698 0.45761 0.13644
 C397 C 0.22856 0.45155 0.14226
 C398 C 0.24012 0.43612 0.12937
 H399 H 0.32081 0.39792 0.04397
 H400 H 0.30444 0.41538 0.07702
 H401 H 0.24746 0.37288 0.07001
 H402 H 0.26334 0.35662 0.03664
 H403 H 0.27422 0.41900 0.10437
 H404 H 0.23145 0.40254 0.08325
 H405 H 0.20029 0.42478 0.09085
 H406 H 0.18030 0.45154 0.11311
 H407 H 0.23664 0.45902 0.15653
 H408 H 0.25668 0.43186 0.13433
 C409 C 0.74387 0.62838 0.05565
 C410 C 0.75234 0.61871 0.07493
 C411 C 0.73868 0.60674 0.08942
 C412 C 0.71598 0.60548 0.08468
 C413 C 0.70743 0.61545 0.06538
 C414 C 0.72142 0.62659 0.05048
 C415 C 0.74927 0.59535 0.10856
 C416 C 0.74079 0.57776 0.11924
 C417 C 0.75419 0.56394 0.13460
 C418 C 0.74388 0.55160 0.15149
 C419 C 0.75605 0.53692 0.16480
 C420 C 0.77869 0.53405 0.16112
 C421 C 0.78901 0.54665 0.14445
 C422 C 0.77695 0.56135 0.13134
 H423 H 0.75495 0.63723 0.04464
 H424 H 0.76983 0.62010 0.07821
 H425 H 0.70481 0.59685 0.09569
 H426 H 0.69002 0.61399 0.06180
 H427 H 0.76578 0.60071 0.11277
 H428 H 0.72413 0.57240 0.11589
 H429 H 0.72632 0.55307 0.15415
 H430 H 0.74761 0.52727 0.17740
 H431 H 0.80640 0.54475 0.14110
 H432 H 0.78543 0.56987 0.11800
 C433 C 0.69871 0.37193 0.94046
 C434 C 0.70895 0.38234 0.92238
 C435 C 0.71236 0.40532 0.92251
 C436 C 0.70362 0.41800 0.94001
 C437 C 0.69323 0.40766 0.95795
 C438 C 0.69145 0.38445 0.95881
 C439 C 0.72628 0.41562 0.90515
 C440 C 0.74092 0.43141 0.91046
 C441 C 0.75672 0.44126 0.89457
 C442 C 0.77631 0.45022 0.90309
 C443 C 0.79122 0.46088 0.88907
 C444 C 0.78672 0.46315 0.86620
 C445 C 0.76722 0.45392 0.85754
 C446 C 0.75235 0.44300 0.87160
 H447 H 0.69761 0.35402 0.94065
 H448 H 0.71537 0.37230 0.90892
 H449 H 0.70534 0.43586 0.94013
 H450 H 0.68723 0.41780 0.97153
 H451 H 0.72605 0.40859 0.88854
 H452 H 0.74243 0.43648 0.92774
 H453 H 0.78001 0.44914 0.92074
 H454 H 0.80602 0.46789 0.89631
 H455 H 0.76324 0.45552 0.84000
 H456 H 0.73718 0.43665 0.86457
 C457 C 0.31084 0.61767 0.93367
 C458 C 0.30010 0.60947 0.91471
 C459 C 0.27714 0.61106 0.91262
 C460 C 0.26532 0.62239 0.92929
 C461 C 0.27601 0.63029 0.94833
 C462 C 0.29877 0.62756 0.95092
 C463 C 0.26611 0.59996 0.89347
 C464 C 0.24496 0.59357 0.89411
 C465 C 0.23365 0.58027 0.87671
 C466 C 0.21063 0.57925 0.87749
 C467 C 0.19901 0.56480 0.86371
 C468 C 0.21011 0.55086 0.84876
 C469 C 0.23310 0.55256 0.84706
 C470 C 0.24483 0.56709 0.86100
 H471 H 0.32845 0.61545 0.93529
 H472 H 0.30967 0.60111 0.90204
 H473 H 0.24781 0.62510 0.92792
 H474 H 0.26646 0.63834 0.96121
 H475 H 0.27611 0.59583 0.87917
 H476 H 0.23520 0.59743 0.90863
 H477 H 0.20157 0.58921 0.88936
 H478 H 0.18127 0.56405 0.86530
 H479 H 0.24208 0.54193 0.83576
 H480 H 0.26258 0.56707 0.86009
 C481 C 0.05726 0.30168 0.38846
 C482 C 0.07380 0.28866 0.39810
 C483 C 0.06946 0.26671 0.40465
 C484 C 0.04851 0.25768 0.40020
 C485 C 0.03200 0.27072 0.39077
 C486 C 0.03606 0.29295 0.38520
 C487 C 0.08698 0.25380 0.41608
 C488 C 0.08257 0.23663 0.42963
 C489 C 0.09938 0.22354 0.44180
 C490 C 0.09338 0.20246 0.44960
 C491 C 0.10800 0.18982 0.46224
 C492 C 0.12899 0.19803 0.46762
 C493 C 0.13517 0.21907 0.45968
 C494 C 0.12052 0.23174 0.44689
 H495 H 0.06081 0.31876 0.38421
 H496 H 0.08986 0.29593 0.40101
 H497 H 0.04471 0.24056 0.40386
 H498 H 0.01596 0.26342 0.38785
 H499 H 0.10381 0.25913 0.41369
 H500 H 0.06567 0.23166 0.43221
 H501 H 0.07719 0.19578 0.44603
 H502 H 0.10266 0.17371 0.46810
 H503 H 0.15119 0.22591 0.46364
 H504 H 0.12562 0.24811 0.44167
 C505 C 0.04024 0.74395 0.64088
 C506 C 0.05867 0.75592 0.63392
 C507 C 0.07708 0.74496 0.62522
 C508 C 0.07747 0.72163 0.62546
 C509 C 0.05905 0.70964 0.63254
 C510 C 0.03997 0.72072 0.63952
 C511 C 0.09451 0.75849 0.61457
 C512 C 0.10699 0.75106 0.59773
 C513 C 0.12029 0.76583 0.58329
 C514 C 0.13763 0.75677 0.57086
 C515 C 0.14878 0.76958 0.55503
 C516 C 0.14255 0.79164 0.55108
 C517 C 0.12553 0.80086 0.56386
 C518 C 0.11450 0.78813 0.57974
 H519 H 0.02588 0.75288 0.64657
 H520 H 0.05805 0.77386 0.63422
 H521 H 0.09167 0.71256 0.61966
 H522 H 0.05930 0.69173 0.63139
 H523 H 0.09534 0.77581 0.61918
 H524 H 0.10644 0.73374 0.59312
 H525 H 0.14223 0.73957 0.57308
 H526 H 0.16177 0.76198 0.54539
 H527 H 0.12030 0.81780 0.56118
 H528 H 0.10079 0.79559 0.58836
 C529 C 0.93376 0.70032 0.36589
 C530 C 0.91508 0.71154 0.37341
 C531 C 0.91403 0.73475 0.37230
 C532 C 0.93108 0.74636 0.36150
 C533 C 0.94978 0.73519 0.35418
 C534 C 0.95164 0.71220 0.35710
 C535 C 0.89601 0.74637 0.38410
 C536 C 0.89906 0.76634 0.39350
 C537 C 0.88341 0.77744 0.40879
 C538 C 0.88802 0.79940 0.41497
 C539 C 0.87548 0.81008 0.43113
 C540 C 0.85795 0.79906 0.44160
 C541 C 0.85276 0.77733 0.43496
 C542 C 0.86540 0.76656 0.41876
 H543 H 0.93483 0.68257 0.36830
 H544 H 0.90204 0.70219 0.38135
 H545 H 0.93038 0.76414 0.35932
 H546 H 0.96321 0.74461 0.34700
 H547 H 0.88091 0.73729 0.38682
 H548 H 0.91460 0.77476 0.39104
 H549 H 0.90176 0.80821 0.40763
 H550 H 0.87985 0.82688 0.43574
 H551 H 0.83935 0.76840 0.44275
 H552 H 0.86137 0.74956 0.41483
 C553 C 0.95371 0.25731 0.63069
 C554 C 0.93605 0.24863 0.61868
 C555 C 0.92254 0.26245 0.60577
 C556 C 0.92668 0.28547 0.60581
 C557 C 0.94436 0.29420 0.61803
 C558 C 0.95831 0.28010 0.63014
 C559 C 0.90574 0.25172 0.59136
 C560 C 0.89021 0.26243 0.57967
 C561 C 0.87554 0.25072 0.56374
 C562 C 0.85451 0.25921 0.55926
 C563 C 0.84060 0.24866 0.54391
 C564 C 0.84761 0.22956 0.53254
 C565 C 0.86877 0.22127 0.53686
 C566 C 0.88259 0.23175 0.55218
 H567 H 0.96407 0.24613 0.64014
 H568 H 0.93328 0.23088 0.61903
 H569 H 0.91695 0.29674 0.59588
 H570 H 0.94770 0.31182 0.61726
 H571 H 0.90645 0.23382 0.59021
 H572 H 0.88776 0.28002 0.58189
 H573 H 0.84881 0.27396 0.56773
 H574 H 0.82445 0.25556 0.54082
 H575 H 0.87479 0.20675 0.52821
 H576 H 0.89899 0.22520 0.55449
 C577 C 0.36860 0.03485 0.25683
 C578 C 0.37693 0.05292 0.24500
 C579 C 0.38200 0.07284 0.25595
 C580 C 0.37718 0.07480 0.27884
 C581 C 0.36865 0.05670 0.29066
 C582 C 0.36490 0.03639 0.27987
 C583 C 0.39313 0.09052 0.24297
 C584 C 0.40626 0.10601 0.25208
 C585 C 0.42052 0.12081 0.23860
 C586 C 0.42764 0.14105 0.24769
 C587 C 0.44249 0.15455 0.23610
 C588 C 0.45079 0.14790 0.21530
 C589 C 0.44355 0.12772 0.20615
 C590 C 0.42866 0.11431 0.21765
 H591 H 0.36550 0.01946 0.24805
 H592 H 0.38022 0.05103 0.22735
 H593 H 0.38017 0.09009 0.28774
 H594 H 0.36580 0.05830 0.30841
 H595 H 0.39179 0.08952 0.22500
 H596 H 0.40752 0.10744 0.27001
 H597 H 0.42185 0.14630 0.26392
 H598 H 0.44784 0.16995 0.24366
 H599 H 0.44972 0.12202 0.19023
 H600 H 0.42428 0.09850 0.21038
 C601 C 0.64243 0.06323 0.70698
 C602 C 0.63159 0.08145 0.71637
 C603 C 0.60863 0.08120 0.71886
 C604 C 0.59655 0.06324 0.71028
 C605 C 0.60730 0.04518 0.70089
 C606 C 0.63037 0.04464 0.69980
 C607 C 0.59749 0.09907 0.73136
 C608 C 0.58095 0.09432 0.74532
 C609 C 0.56926 0.11083 0.75904
 C610 C 0.55941 0.10358 0.77885
 C611 C 0.54690 0.11803 0.79172
 C612 C 0.54360 0.14004 0.78485
 C613 C 0.55357 0.14743 0.76505
 C614 C 0.56641 0.13297 0.75227
 H615 H 0.66023 0.06324 0.70623
 H616 H 0.64118 0.09527 0.72264
 H617 H 0.57876 0.06296 0.71122
 H618 H 0.59758 0.03133 0.69489
 H619 H 0.60399 0.11576 0.73037
 H620 H 0.57633 0.07712 0.74777
 H621 H 0.56126 0.08657 0.78433
 H622 H 0.53937 0.11177 0.80682
 H623 H 0.55126 0.16429 0.75933
 H624 H 0.57344 0.13891 0.73682
 C625 C 0.42252 0.96162 0.70374
 C626 C 0.43475 0.94455 0.71331
 C627 C 0.42507 0.92388 0.71770
 C628 C 0.40306 0.92026 0.71130
 C629 C 0.39074 0.93746 0.70175
 C630 C 0.40018 0.95852 0.69855
 C631 C 0.43768 0.90784 0.73135
 C632 C 0.43349 0.88605 0.73268
 C633 C 0.44572 0.87196 0.74867
 C634 C 0.45298 0.85078 0.74249
 C635 C 0.46603 0.83823 0.75712
 C636 C 0.47159 0.84656 0.77833
 C637 C 0.46318 0.86725 0.78484
 C638 C 0.45046 0.87979 0.77021
 H639 H 0.43035 0.97754 0.70110
 H640 H 0.45168 0.94776 0.71802
 H641 H 0.39494 0.90467 0.71478
 H642 H 0.37351 0.93466 0.69807
 H643 H 0.45119 0.91455 0.74109
 H644 H 0.42160 0.87834 0.72167
 H645 H 0.44926 0.84431 0.72606
 H646 H 0.47217 0.82231 0.75166
 H647 H 0.46694 0.87413 0.80109
 H648 H 0.44449 0.89578 0.77569
 C649 C 0.62092 0.94172 0.30673
 C650 C 0.61249 0.92253 0.29669
 C651 C 0.58987 0.92054 0.29250
 C652 C 0.57559 0.93703 0.30039
 C653 C 0.58395 0.95604 0.31060
 C654 C 0.60677 0.95904 0.31300
 C655 C 0.58151 0.90220 0.27845
 C656 C 0.56663 0.90616 0.26243
 C657 C 0.55816 0.88933 0.24667
 C658 C 0.55008 0.89662 0.22603
 C659 C 0.54004 0.88185 0.21131
 C660 C 0.53750 0.85941 0.21704
 C661 C 0.54611 0.85191 0.23749
 C662 C 0.55644 0.86673 0.25218
 H663 H 0.63858 0.94355 0.30834
 H664 H 0.62374 0.90989 0.29093
 H665 H 0.55798 0.93555 0.29800
 H666 H 0.57261 0.96883 0.31581
 H667 H 0.58911 0.88605 0.27988
 H668 H 0.56107 0.92305 0.25989
 H669 H 0.55118 0.91396 0.22143
 H670 H 0.53355 0.88822 0.19575
 H671 H 0.54431 0.83473 0.24242
 H672 H 0.56217 0.86066 0.26814
 C673 C 0.41192 0.30056 0.95705
 C674 C 0.42243 0.29174 0.93848
 C675 C 0.41126 0.28971 0.91809
 C676 C 0.39021 0.29893 0.91601
 C677 C 0.37960 0.30795 0.93466
 C678 C 0.38985 0.30774 0.95586
 C679 C 0.42093 0.27688 0.89947
 C680 C 0.43235 0.25831 0.90361
 C681 C 0.44237 0.24379 0.88655
 C682 C 0.44836 0.22231 0.89306
 C683 C 0.45962 0.20840 0.87852
 C684 C 0.46537 0.21567 0.85705
 C685 C 0.45887 0.23698 0.85019
 C686 C 0.44748 0.25097 0.86483
 H687 H 0.42124 0.30161 0.97241
 H688 H 0.43918 0.28593 0.94027
 H689 H 0.38144 0.29792 0.90030
 H690 H 0.36272 0.31326 0.93264
 H691 H 0.41716 0.28175 0.88253
 H692 H 0.43390 0.25281 0.92076
 H693 H 0.44465 0.21635 0.90968
 H694 H 0.46429 0.19209 0.88436
 H695 H 0.46316 0.24309 0.83378
 H696 H 0.44346 0.26756 0.85935
 C697 C 0.63466 0.70116 0.95015
 C698 C 0.62546 0.71037 0.93078
 C699 C 0.62042 0.73303 0.92971
 C700 C 0.62584 0.74650 0.94804
 C701 C 0.63459 0.73735 0.96743
 C702 C 0.63882 0.71442 0.96913
 C703 C 0.60958 0.74222 0.90943
 C704 C 0.59746 0.76079 0.91009
 C705 C 0.58600 0.77105 0.89083
 C706 C 0.57885 0.79299 0.89327
 C707 C 0.56617 0.80311 0.87683
 C708 C 0.56015 0.79152 0.85744
 C709 C 0.56794 0.76979 0.85447
 C710 C 0.58075 0.75958 0.87105
 H711 H 0.63732 0.68344 0.95047
 H712 H 0.62174 0.69963 0.91679
 H713 H 0.62367 0.76427 0.94752
 H714 H 0.63880 0.74863 0.98081
 H715 H 0.61125 0.73313 0.89399
 H716 H 0.59541 0.76925 0.92584
 H717 H 0.58270 0.80226 0.90826
 H718 H 0.56057 0.81990 0.87964
 H719 H 0.56345 0.76039 0.83976
 H720 H 0.58567 0.74255 0.86863
 C721 C 0.39337 0.73290 0.02396
 C722 C 0.39938 0.74655 0.04169
 C723 C 0.39832 0.73885 0.06365
 C724 C 0.38978 0.71758 0.06776
 C725 C 0.38314 0.70400 0.04998
 C726 C 0.38557 0.71115 0.02767
 C727 C 0.40678 0.75344 0.08153
 C728 C 0.41810 0.74586 0.09919
 C729 C 0.43078 0.76054 0.11446
 C730 C 0.43750 0.75237 0.13533
 C731 C 0.45094 0.76512 0.14939
 C732 C 0.45807 0.78629 0.14276
 C733 C 0.45119 0.79453 0.12198
 C734 C 0.43786 0.78183 0.10796
 H735 H 0.39443 0.73976 0.00732
 H736 H 0.40551 0.76306 0.03815
 H737 H 0.38833 0.71139 0.08463
 H738 H 0.37739 0.68744 0.05379
 H739 H 0.40546 0.77107 0.07866
 H740 H 0.41922 0.72815 0.10194
 H741 H 0.43255 0.73594 0.14066
 H742 H 0.45601 0.75825 0.16527
 H743 H 0.45653 0.81069 0.11624
 H744 H 0.43393 0.78859 0.09176
 C745 C 0.59462 0.27492 0.02820
 C746 C 0.58282 0.26550 0.04566
 C747 C 0.58965 0.26824 0.06779
 C748 C 0.60814 0.28161 0.07221
 C749 C 0.62001 0.29124 0.05464
 C750 C 0.61393 0.28737 0.03220
 C751 C 0.57780 0.25544 0.08513
 C752 C 0.57938 0.25869 0.10720
 C753 C 0.56715 0.24437 0.12299
 C754 C 0.55794 0.25348 0.14235
 C755 C 0.54461 0.24050 0.15625
 C756 C 0.54050 0.21811 0.15110
 C757 C 0.55084 0.20875 0.13244
 C758 C 0.56406 0.22168 0.11860
 H759 H 0.58821 0.27255 0.01152
 H760 H 0.56840 0.25564 0.04176
 H761 H 0.61412 0.28392 0.08905
 H762 H 0.63480 0.30038 0.05877
 H763 H 0.56674 0.24262 0.07916
 H764 H 0.58859 0.27259 0.11379
 H765 H 0.56036 0.27085 0.14623
 H766 H 0.53699 0.24816 0.17061
 H767 H 0.54833 0.19149 0.12818
 H768 H 0.57165 0.21393 0.10428
 C769 C 0.30727 0.05028 0.62372
 C770 C 0.29617 0.06834 0.61422
 C771 C 0.28385 0.06567 0.59463
 C772 C 0.28433 0.04516 0.58365
 C773 C 0.29532 0.02718 0.59301
 C774 C 0.30625 0.02904 0.61376
 C775 C 0.27011 0.08410 0.58609
 C776 C 0.25048 0.08011 0.57659
 C777 C 0.23557 0.09720 0.56732
 C778 C 0.21365 0.09114 0.56318
 C779 C 0.19929 0.10567 0.55248
 C780 C 0.20652 0.12667 0.54549
 C781 C 0.22830 0.13311 0.55023
 C782 C 0.24274 0.11850 0.56101
 H783 H 0.31522 0.05285 0.63966
 H784 H 0.29634 0.08414 0.62279
 H785 H 0.27601 0.04290 0.56782
 H786 H 0.29533 0.01186 0.58366
 H787 H 0.27560 0.10093 0.58895
 H788 H 0.24457 0.06316 0.57599
 H789 H 0.20768 0.07485 0.56783
 H790 H 0.18263 0.10016 0.54916
 H791 H 0.23440 0.14914 0.54494
 H792 H 0.25960 0.12365 0.56354
 C793 C 0.70374 0.04584 0.40943
 C794 C 0.71325 0.06443 0.41935
 C795 C 0.71452 0.08460 0.40781
 C796 C 0.70496 0.08617 0.38646
 C797 C 0.69542 0.06746 0.37647
 C798 C 0.69542 0.04695 0.38761
 C799 C 0.72817 0.10247 0.41762
 C800 C 0.72735 0.12390 0.41178
 C801 C 0.74309 0.13994 0.42155
 C802 C 0.73589 0.16076 0.42890
 C803 C 0.75031 0.17489 0.44043
 C804 C 0.77224 0.16850 0.44437
 C805 C 0.77970 0.14830 0.43556
 C806 C 0.76529 0.13419 0.42432
 H807 H 0.70364 0.03032 0.41852
 H808 H 0.72041 0.06280 0.43584
 H809 H 0.70593 0.10135 0.37692
 H810 H 0.68925 0.06869 0.35956
 H811 H 0.73978 0.09755 0.43046
 H812 H 0.71464 0.12992 0.40067
 H813 H 0.71889 0.16562 0.42666
 H814 H 0.74411 0.19040 0.44692
 H815 H 0.79651 0.14294 0.43807
 H816 H 0.77143 0.11849 0.41819
 C817 C 0.75351 0.96817 0.62671
 C818 C 0.76541 0.95003 0.61886
 C819 C 0.75460 0.93044 0.61250
 C820 C 0.73173 0.92877 0.61578
 C821 C 0.71982 0.94691 0.62376
 C822 C 0.73052 0.96701 0.62862
 C823 C 0.76766 0.91292 0.60139
 C824 C 0.75907 0.89837 0.58683
 C825 C 0.77269 0.88420 0.57213
 C826 C 0.76336 0.86499 0.56282
 C827 C 0.77492 0.85252 0.54706
 C828 C 0.79594 0.85924 0.54004
 C829 C 0.80542 0.87825 0.54964
 C830 C 0.79395 0.89061 0.56545
 H831 H 0.76222 0.98334 0.63073
 H832 H 0.78304 0.95168 0.61680
 H833 H 0.72288 0.91370 0.61185
 H834 H 0.70211 0.94555 0.62515
 H835 H 0.78530 0.91346 0.60382
 H836 H 0.74145 0.89750 0.58444
 H837 H 0.74692 0.85984 0.56748
 H838 H 0.76714 0.83800 0.53990
 H839 H 0.82155 0.88393 0.54454
 H840 H 0.80147 0.90569 0.57156
 C841 C 0.28684 0.93981 0.36886
 C842 C 0.27614 0.92161 0.37846
 C843 C 0.25316 0.92143 0.38077
 C844 C 0.24095 0.93905 0.37164
 C845 C 0.25163 0.95725 0.36215
 C846 C 0.27470 0.95813 0.36129
 C847 C 0.24264 0.90327 0.39366
 C848 C 0.22403 0.90632 0.40529
 C849 C 0.21395 0.88992 0.42073
 C850 C 0.19360 0.89530 0.43031
 C851 C 0.18397 0.88155 0.44626
 C852 C 0.19445 0.86197 0.45311
 C853 C 0.21455 0.85618 0.44317
 C854 C 0.22425 0.87000 0.42717
 H855 H 0.30464 0.94007 0.36842
 H856 H 0.28592 0.90813 0.38507
 H857 H 0.22316 0.93904 0.37209
 H858 H 0.24187 0.97092 0.35593
 H859 H 0.25148 0.88781 0.39483
 H860 H 0.21600 0.92229 0.40441
 H861 H 0.18524 0.91048 0.42573
 H862 H 0.16843 0.88649 0.45349
 H863 H 0.22304 0.84120 0.44811
 H864 H 0.23999 0.86515 0.42049
 C865 C 0.05203 0.37393 0.70295
 C866 C 0.07077 0.38471 0.71136
 C867 C 0.07223 0.39036 0.73400
 C868 C 0.05509 0.38392 0.74830
 C869 C 0.03629 0.37364 0.73995
 C870 C 0.03412 0.36878 0.71705
 C871 C 0.09162 0.40292 0.74241
 C872 C 0.09025 0.41588 0.76052
 C873 C 0.10860 0.42855 0.77064
 C874 C 0.10602 0.43536 0.79280
 C875 C 0.12144 0.44915 0.80288
 C876 C 0.13987 0.45672 0.79102
 C877 C 0.14308 0.44925 0.76905
 C878 C 0.12752 0.43525 0.75887
 H879 H 0.05125 0.37083 0.68521
 H880 H 0.08389 0.38917 0.70002
 H881 H 0.05611 0.38652 0.76612
 H882 H 0.02380 0.36876 0.75183
 H883 H 0.10692 0.40171 0.73332
 H884 H 0.07459 0.41746 0.76888
 H885 H 0.09169 0.43035 0.80229
 H886 H 0.11853 0.45439 0.81989
 H887 H 0.15709 0.45492 0.75948
 H888 H 0.12991 0.43055 0.74165
 C889 C 0.05484 0.63200 0.28925
 C890 C 0.07386 0.62545 0.27788
 C891 C 0.07663 0.60335 0.27146
 C892 C 0.06093 0.58760 0.27785
 C893 C 0.04216 0.59395 0.28942
 C894 C 0.03821 0.61643 0.29473
 C895 C 0.09547 0.59672 0.25751
 C896 C 0.09223 0.58349 0.23989
 C897 C 0.10989 0.57432 0.22582
 C898 C 0.10443 0.56767 0.20413
 C899 C 0.11929 0.55562 0.19135
 C900 C 0.13990 0.54962 0.20012
 C901 C 0.14586 0.55724 0.22147
 C902 C 0.13097 0.56955 0.23424
 H903 H 0.05288 0.64951 0.29238
 H904 H 0.08593 0.63783 0.27319
 H905 H 0.06316 0.57025 0.27382
 H906 H 0.03102 0.58090 0.29449
 H907 H 0.11165 0.60331 0.26123
 H908 H 0.07550 0.57903 0.23541
 H909 H 0.08827 0.57112 0.19732
 H910 H 0.11417 0.55013 0.17494
 H911 H 0.16160 0.55285 0.22869
 H912 H 0.13552 0.57414 0.25108
 C913 C 0.96738 0.36724 0.25812
 C914 C 0.94847 0.37359 0.24652
 C915 C 0.92845 0.37641 0.25767
 C916 C 0.92735 0.37129 0.28048
 C917 C 0.94621 0.36478 0.29213
 C918 C 0.96682 0.36326 0.28133
 C919 C 0.90953 0.38552 0.24505
 C920 C 0.89359 0.39767 0.25452
 C921 C 0.87715 0.41058 0.24161
 C922 C 0.85815 0.41821 0.25246
 C923 C 0.84354 0.43257 0.24165
 C924 C 0.84779 0.43977 0.21980
 C925 C 0.86645 0.43164 0.20873
 C926 C 0.88099 0.41731 0.21949
 H927 H 0.98232 0.36520 0.24860
 H928 H 0.94966 0.37696 0.22882
 H929 H 0.91204 0.37258 0.28954
 H930 H 0.94460 0.36235 0.30991
 H931 H 0.90993 0.38362 0.22713
 H932 H 0.89316 0.39946 0.27246
 H933 H 0.85489 0.41346 0.26957
 H934 H 0.82935 0.43861 0.25066
 H935 H 0.87026 0.43691 0.19191
 H936 H 0.89568 0.41251 0.21063
 C937 C 0.94307 0.62986 0.70616
 C938 C 0.92508 0.62111 0.71784
 C939 C 0.92401 0.59844 0.72270
 C940 C 0.94028 0.58436 0.71426
 C941 C 0.95808 0.59294 0.70252
 C942 C 0.96040 0.61599 0.69893
 C943 C 0.90626 0.58956 0.73699
 C944 C 0.91055 0.57391 0.75225
 C945 C 0.89386 0.56368 0.76689
 C946 C 0.90088 0.55441 0.78712
 C947 C 0.88623 0.54271 0.80059
 C948 C 0.86426 0.53968 0.79392
 C949 C 0.85708 0.54930 0.77382
 C950 C 0.87173 0.56128 0.76043
 H951 H 0.94382 0.64766 0.70422
 H952 H 0.91251 0.63222 0.72399
 H953 H 0.93930 0.56662 0.71683
 H954 H 0.96985 0.58121 0.69599
 H955 H 0.89003 0.59681 0.73580
 H956 H 0.92743 0.56864 0.75466
 H957 H 0.91788 0.55593 0.79237
 H958 H 0.89232 0.53546 0.81592
 H959 H 0.84025 0.54721 0.76824
 H960 H 0.86592 0.56784 0.74469
 C961 C 0.75364 0.63594 0.96886
 C962 C 0.76496 0.62851 0.95008
 C963 C 0.75350 0.62178 0.93089
 C964 C 0.73045 0.62404 0.93034
 C965 C 0.71912 0.63170 0.94912
 C966 C 0.73059 0.63711 0.96876
 C967 C 0.76625 0.61153 0.91253
 C968 C 0.75784 0.59655 0.89829
 C969 C 0.77165 0.58260 0.88348
 C970 C 0.76192 0.57216 0.86497
 C971 C 0.77373 0.55675 0.85230
 C972 C 0.79545 0.55125 0.85812
 C973 C 0.80538 0.56218 0.87623
 C974 C 0.79366 0.57760 0.88879
 H975 H 0.76290 0.64035 0.98367
 H976 H 0.78271 0.62718 0.95088
 H977 H 0.72108 0.61969 0.91562
 H978 H 0.70133 0.63255 0.94861
 H979 H 0.78371 0.61503 0.91220
 H980 H 0.74036 0.59316 0.89830
 H981 H 0.74494 0.57551 0.86065
 H982 H 0.76557 0.54851 0.83853
 H983 H 0.82206 0.55828 0.88121
 H984 H 0.80165 0.58461 0.90329
 C985 C 0.29514 0.37182 0.93591
 C986 C 0.28409 0.38121 0.91767
 C987 C 0.26193 0.38737 0.91940
 C988 C 0.25045 0.38200 0.93897
 C989 C 0.26144 0.37294 0.95722
 C990 C 0.28425 0.36866 0.95645
 C991 C 0.25143 0.40011 0.90107
 C992 C 0.23533 0.41482 0.90500
 C993 C 0.22494 0.42933 0.88801
 C994 C 0.20549 0.44035 0.89389
 C995 C 0.19552 0.45521 0.87922
 C996 C 0.20482 0.45955 0.85826
 C997 C 0.22419 0.44841 0.85218
 C998 C 0.23420 0.43345 0.86690
 H999 H 0.31260 0.36884 0.93427
 H1000 H 0.29320 0.38474 0.90257
 H1001 H 0.23298 0.38507 0.94042
 H1002 H 0.25185 0.36924 0.97194
 H1003 H 0.25804 0.39817 0.88448
 H1004 H 0.22950 0.41691 0.92191
 H1005 H 0.19802 0.43759 0.91005
 H1006 H 0.18060 0.46348 0.88444
 H1007 H 0.23180 0.45145 0.83616
 H1008 H 0.24939 0.42571 0.86182
 C1009 C 0.31251 0.61032 0.04871
 C1010 C 0.30157 0.60121 0.06713
 C1011 C 0.27918 0.60567 0.07081
 C1012 C 0.26837 0.62068 0.05653
 C1013 C 0.27918 0.62947 0.03803
 C1014 C 0.30115 0.62397 0.03367
 C1015 C 0.26743 0.59383 0.08903
 C1016 C 0.24562 0.59015 0.08848
 C1017 C 0.23325 0.57630 0.10467
 C1018 C 0.21184 0.56973 0.09881
 C1019 C 0.19958 0.55595 0.11272
 C1020 C 0.20835 0.54840 0.13303
 C1021 C 0.22954 0.55546 0.13935
 C1022 C 0.24188 0.56931 0.12534
 H1023 H 0.32950 0.60594 0.04567
 H1024 H 0.31039 0.58998 0.07803
 H1025 H 0.25150 0.62553 0.05934
 H1026 H 0.27027 0.64036 0.02686
 H1027 H 0.27736 0.58641 0.10200
 H1028 H 0.23625 0.59621 0.07440
 H1029 H 0.20465 0.57496 0.08312
 H1030 H 0.18329 0.55095 0.10736
 H1031 H 0.23670 0.55002 0.15496
 H1032 H 0.25807 0.57440 0.13083
 C1033 C 0.69311 0.40274 0.04494
 C1034 C 0.70383 0.41277 0.06284
 C1035 C 0.71617 0.40010 0.07791
 C1036 C 0.71673 0.37691 0.07535
 C1037 C 0.70604 0.36682 0.05723
 C1038 C 0.69475 0.37978 0.04146
 C1039 C 0.73011 0.41204 0.09421
 C1040 C 0.73735 0.40352 0.11349
 C1041 C 0.75211 0.41657 0.12810
 C1042 C 0.74867 0.41701 0.15121
 C1043 C 0.76156 0.43074 0.16485
 C1044 C 0.77843 0.44382 0.15561
 C1045 C 0.78248 0.44249 0.13260
 C1046 C 0.76942 0.42909 0.11899
 H1047 H 0.68422 0.41308 0.03324
 H1048 H 0.70308 0.43063 0.06449
 H1049 H 0.72640 0.36671 0.08649
 H1050 H 0.70769 0.34911 0.05482
 H1051 H 0.73441 0.42902 0.09015
 H1052 H 0.73161 0.38748 0.11915
 H1053 H 0.73554 0.40732 0.15857
 H1054 H 0.75818 0.43130 0.18256
 H1055 H 0.79540 0.45226 0.12498
 H1056 H 0.77275 0.42863 0.10126
 C1057 C 0.94804 0.69932 0.60800
 C1058 C 0.93054 0.70873 0.59610
 C1059 C 0.92498 0.73111 0.59915
 C1060 C 0.93632 0.74348 0.61544
 C1061 C 0.95385 0.73416 0.62714
 C1062 C 0.96022 0.71218 0.62316
 C1063 C 0.90784 0.74125 0.58475
 C1064 C 0.90807 0.76290 0.57952
 C1065 C 0.89254 0.77377 0.56387
 C1066 C 0.89831 0.79468 0.55545
 C1067 C 0.88448 0.80581 0.54065
 C1068 C 0.86440 0.79635 0.53395
 C1069 C 0.85840 0.77552 0.54255
 C1070 C 0.87229 0.76433 0.55742
 H1071 H 0.95264 0.68231 0.60468
 H1072 H 0.92187 0.69875 0.58389
 H1073 H 0.93187 0.76044 0.61909
 H1074 H 0.96270 0.74424 0.63914
 H1075 H 0.89603 0.73027 0.57696
 H1076 H 0.92125 0.77320 0.58592
 H1077 H 0.91371 0.80243 0.56022
 H1078 H 0.88960 0.82186 0.53442
 H1079 H 0.84295 0.76786 0.53782
 H1080 H 0.86693 0.74851 0.56394
 C1081 C 0.95472 0.31447 0.41281
 C1082 C 0.93420 0.30899 0.42179
 C1083 C 0.91616 0.30474 0.40777
 C1084 C 0.91860 0.30765 0.38465
 C1085 C 0.93906 0.31327 0.37568
 C1086 C 0.95748 0.31615 0.38962
 C1087 C 0.89558 0.29597 0.41766
 C1088 C 0.88284 0.28118 0.40700
 C1089 C 0.86573 0.26809 0.41857
 C1090 C 0.86325 0.24568 0.41289
 C1091 C 0.84956 0.23189 0.42540
 C1092 C 0.83759 0.24041 0.44343
 C1093 C 0.83872 0.26319 0.44809
 C1094 C 0.85285 0.27694 0.43586
 H1095 H 0.96855 0.31692 0.42397
 H1096 H 0.93267 0.30709 0.43969
 H1097 H 0.90486 0.30514 0.37341
 H1098 H 0.94067 0.31439 0.35773
 H1099 H 0.89261 0.29934 0.43514
 H1100 H 0.88721 0.27599 0.39030
 H1101 H 0.87286 0.23855 0.39951
 H1102 H 0.84889 0.21439 0.42145
 H1103 H 0.82970 0.27010 0.46199
 H1104 H 0.85409 0.29430 0.44026
 C1105 C 0.05695 0.28570 0.63628
 C1106 C 0.07553 0.27486 0.62791
 C1107 C 0.07612 0.25162 0.62661
 C1108 C 0.05844 0.23940 0.63555
 C1109 C 0.03981 0.25022 0.64363
 C1110 C 0.03864 0.27343 0.64346
 C1111 C 0.09471 0.24083 0.61478
 C1112 C 0.09267 0.22099 0.60482
 C1113 C 0.10943 0.21054 0.59027
 C1114 C 0.10635 0.18821 0.58453
 C1115 C 0.11979 0.17804 0.56878
 C1116 C 0.13672 0.18996 0.55827
 C1117 C 0.14052 0.21207 0.56464
 C1118 C 0.12696 0.22232 0.58044
 H1119 H 0.05641 0.30364 0.63602
 H1120 H 0.08903 0.28469 0.62146
 H1121 H 0.05863 0.22149 0.63601
 H1122 H 0.02604 0.24043 0.64953
 H1123 H 0.10975 0.25026 0.61295
 H1124 H 0.07735 0.21199 0.60641
 H1125 H 0.09304 0.17869 0.59180
 H1126 H 0.11649 0.16094 0.56439
 H1127 H 0.15338 0.22170 0.55675
 H1128 H 0.12975 0.23965 0.58406
 C1129 C 0.04841 0.69620 0.38214
 C1130 C 0.06609 0.70629 0.39328
 C1131 C 0.06720 0.72941 0.39545
 C1132 C 0.05093 0.74233 0.38508
 C1133 C 0.03319 0.73236 0.37425
 C1134 C 0.03121 0.70906 0.37297
 C1135 C 0.08530 0.73966 0.40863
 C1136 C 0.08287 0.75926 0.41894
 C1137 C 0.09973 0.77063 0.43284
 C1138 C 0.09383 0.79086 0.44268
 C1139 C 0.10857 0.80239 0.45623
 C1140 C 0.12971 0.79402 0.46038
 C1141 C 0.13587 0.77390 0.45038
 C1142 C 0.12106 0.76230 0.43670
 H1143 H 0.04777 0.67829 0.38198
 H1144 H 0.07859 0.69594 0.40086
 H1145 H 0.05185 0.76023 0.38510
 H1146 H 0.02136 0.74316 0.36626
 H1147 H 0.10027 0.73024 0.41061
 H1148 H 0.06712 0.76751 0.41777
 H1149 H 0.07762 0.79779 0.44000
 H1150 H 0.10324 0.81784 0.46362
 H1151 H 0.15207 0.76704 0.45326
 H1152 H 0.12646 0.74690 0.42939
 C1153 C 0.63459 0.94336 0.69181
 C1154 C 0.62615 0.92426 0.70214
 C1155 C 0.61978 0.92469 0.72463
 C1156 C 0.62347 0.94415 0.73696
 C1157 C 0.63129 0.96322 0.72665
 C1158 C 0.63643 0.96346 0.70373
 C1159 C 0.60916 0.90498 0.73495
 C1160 C 0.59532 0.90705 0.75224
 C1161 C 0.58425 0.88863 0.76407
 C1162 C 0.57622 0.89301 0.78550
 C1163 C 0.56380 0.87731 0.79690
 C1164 C 0.55886 0.85676 0.78710
 C1165 C 0.56750 0.85192 0.76590
 C1166 C 0.58012 0.86775 0.75443
 H1167 H 0.63829 0.94257 0.67418
 H1168 H 0.62391 0.90933 0.69236
 H1169 H 0.62040 0.94483 0.75470
 H1170 H 0.63390 0.97770 0.73700
 H1171 H 0.61244 0.88883 0.72787
 H1172 H 0.59167 0.92343 0.75851
 H1173 H 0.57921 0.90892 0.79335
 H1174 H 0.55755 0.88159 0.81323
 H1175 H 0.56387 0.83625 0.75788
 H1176 H 0.58579 0.86390 0.73779
 C1177 C 0.36660 0.93619 0.29989
 C1178 C 0.37661 0.91678 0.29205
 C1179 C 0.39691 0.91780 0.28112
 C1180 C 0.40801 0.93814 0.27997
 C1181 C 0.39823 0.95744 0.28789
 C1182 C 0.37681 0.95712 0.29701
 C1183 C 0.40602 0.89800 0.26992
 C1184 C 0.41454 0.89981 0.24940
 C1185 C 0.42513 0.88171 0.23675
 C1186 C 0.42761 0.88457 0.21369
 C1187 C 0.44051 0.87006 0.20131
 C1188 C 0.45143 0.85235 0.21171
 C1189 C 0.44792 0.84859 0.23458
 C1190 C 0.43489 0.86320 0.24706
 H1191 H 0.35018 0.93471 0.30660
 H1192 H 0.36790 0.90115 0.29337
 H1193 H 0.42420 0.93920 0.27254
 H1194 H 0.40772 0.97258 0.28680
 H1195 H 0.40462 0.88201 0.27797
 H1196 H 0.41363 0.91577 0.24111
 H1197 H 0.42022 0.89864 0.20533
 H1198 H 0.44272 0.87335 0.18370
 H1199 H 0.45623 0.83515 0.24307
 H1200 H 0.43357 0.86066 0.26486
 C1201 C 0.58226 0.04018 0.29992
 C1202 C 0.57233 0.05770 0.28871
 C1203 C 0.58444 0.07649 0.28276
 C1204 C 0.60668 0.07787 0.28900
 C1205 C 0.61682 0.06015 0.30011
 C1206 C 0.60496 0.04055 0.30512
 C1207 C 0.57376 0.09293 0.26810
 C1208 C 0.57913 0.11444 0.26700
 C1209 C 0.56755 0.12907 0.25108
 C1210 C 0.55955 0.14977 0.25788
 C1211 C 0.54609 0.16223 0.24357
 C1212 C 0.54079 0.15423 0.22218
 C1213 C 0.55012 0.13417 0.21500
 C1214 C 0.56331 0.12175 0.22927
 H1215 H 0.57182 0.02642 0.30461
 H1216 H 0.55506 0.05641 0.28436
 H1217 H 0.61654 0.09206 0.28427
 H1218 H 0.63429 0.06147 0.30324
 H1219 H 0.56024 0.08694 0.25790
 H1220 H 0.59096 0.12151 0.27851
 H1221 H 0.56282 0.15578 0.27458
 H1222 H 0.53929 0.17771 0.24950
 H1223 H 0.54667 0.12764 0.19854
 H1224 H 0.56980 0.10609 0.22343
 C1225 C 0.38356 0.05698 0.69858
 C1226 C 0.39018 0.07615 0.70993
 C1227 C 0.39265 0.07604 0.73324
 C1228 C 0.38675 0.05675 0.74509
 C1229 C 0.38045 0.03755 0.73374
 C1230 C 0.37936 0.03733 0.71038
 C1231 C 0.40244 0.09579 0.74434
 C1232 C 0.41280 0.09464 0.76411
 C1233 C 0.42554 0.11295 0.77451
 C1234 C 0.43146 0.11071 0.79702
 C1235 C 0.44594 0.12567 0.80702
 C1236 C 0.45496 0.14330 0.79474
 C1237 C 0.44827 0.14626 0.77248
 C1238 C 0.43375 0.13119 0.76240
 H1239 H 0.38278 0.05718 0.68054
 H1240 H 0.39429 0.09082 0.70038
 H1241 H 0.38725 0.05615 0.76310
 H1242 H 0.37681 0.02269 0.74319
 H1243 H 0.40237 0.11122 0.73516
 H1244 H 0.41305 0.07908 0.77305
 H1245 H 0.42542 0.09686 0.80677
 H1246 H 0.45063 0.12296 0.82424
 H1247 H 0.45504 0.15962 0.76255
 H1248 H 0.42997 0.13336 0.74492
 C1249 C 0.63482 0.70446 0.06845
 C1250 C 0.62442 0.71417 0.08683
 C1251 C 0.62218 0.73729 0.08823
 C1252 C 0.63218 0.75058 0.07179
 C1253 C 0.64234 0.74090 0.05338
 C1254 C 0.64317 0.71776 0.05120
 C1255 C 0.60849 0.74694 0.10629
 C1256 C 0.59756 0.76608 0.10360
 C1257 C 0.58185 0.77585 0.11977
 C1258 C 0.57443 0.79745 0.11558
 C1259 C 0.55826 0.80706 0.12882
 C1260 C 0.54896 0.79531 0.14671
 C1261 C 0.55675 0.77390 0.15145
 C1262 C 0.57302 0.76419 0.13808
 H1263 H 0.63529 0.68657 0.06714
 H1264 H 0.61718 0.70356 0.09942
 H1265 H 0.63185 0.76848 0.07280
 H1266 H 0.64909 0.75148 0.04049
 H1267 H 0.60631 0.73724 0.12128
 H1268 H 0.59947 0.77506 0.08810
 H1269 H 0.58090 0.80687 0.10166
 H1270 H 0.55277 0.82364 0.12475
 H1271 H 0.54985 0.76441 0.16509
 H1272 H 0.57799 0.74741 0.14181
 C1273 C 0.37956 0.30426 0.05591
 C1274 C 0.38698 0.29300 0.07488
 C1275 C 0.39160 0.27022 0.07397
 C1276 C 0.38735 0.25867 0.05399
 C1277 C 0.38021 0.26996 0.03502
 C1278 C 0.37668 0.29290 0.03568
 C1279 C 0.40137 0.25927 0.09384
 C1280 C 0.41363 0.24087 0.09232
 C1281 C 0.42533 0.23028 0.11121
 C1282 C 0.43256 0.20842 0.10836
 C1283 C 0.44570 0.19825 0.12441
 C1284 C 0.45209 0.20974 0.14375
 C1285 C 0.44427 0.23139 0.14708
 C1286 C 0.43104 0.24163 0.13093
 H1287 H 0.37683 0.32197 0.05680
 H1288 H 0.38980 0.30225 0.09011
 H1289 H 0.38956 0.24094 0.05279
 H1290 H 0.37753 0.26078 0.01972
 H1291 H 0.39928 0.26731 0.10981
 H1292 H 0.41593 0.23317 0.07622
 H1293 H 0.42844 0.19930 0.09335
 H1294 H 0.45133 0.18152 0.12134
 H1295 H 0.44902 0.24070 0.16177
 H1296 H 0.42620 0.25865 0.13359
 C1297 C 0.63914 0.25399 0.95420
 C1298 C 0.63347 0.24246 0.93484
 C1299 C 0.62695 0.25392 0.91557
 C1300 C 0.62819 0.27722 0.91539
 C1301 C 0.63406 0.28877 0.93475
 C1302 C 0.63873 0.27724 0.95455
 C1303 C 0.61720 0.24098 0.89701
 C1304 C 0.60143 0.24904 0.88358
 C1305 C 0.58705 0.23478 0.86961
 C1306 C 0.57550 0.24428 0.85170
 C1307 C 0.55948 0.23211 0.84016
 C1308 C 0.55448 0.21027 0.84657
 C1309 C 0.56650 0.20056 0.86405
 C1310 C 0.58255 0.21264 0.87546
 H1311 H 0.64301 0.24474 0.96919
 H1312 H 0.63292 0.22452 0.93534
 H1313 H 0.62403 0.28660 0.90061
 H1314 H 0.63372 0.30672 0.93459
 H1315 H 0.62123 0.22354 0.89628
 H1316 H 0.59744 0.26650 0.88406
 H1317 H 0.57846 0.26137 0.84704
 H1318 H 0.55044 0.24006 0.82680
 H1319 H 0.56303 0.18378 0.86941
 H1320 H 0.59047 0.20485 0.88958
 C1321 C 0.39013 0.68929 0.92976
 C1322 C 0.40067 0.69723 0.91060
 C1323 C 0.42252 0.70462 0.91175
 C1324 C 0.43435 0.70190 0.93171
 C1325 C 0.42393 0.69379 0.95074
 C1326 C 0.40145 0.68838 0.95025
 C1327 C 0.43214 0.71713 0.89293
 C1328 C 0.44277 0.73622 0.89681
 C1329 C 0.45187 0.75091 0.87938
 C1330 C 0.45441 0.77341 0.88454
 C1331 C 0.46520 0.78766 0.86992
 C1332 C 0.47406 0.77968 0.84985
 C1333 C 0.47077 0.75728 0.84418
 C1334 C 0.45969 0.74298 0.85882
 H1335 H 0.37278 0.68527 0.92887
 H1336 H 0.39133 0.69904 0.89530
 H1337 H 0.45144 0.70691 0.93282
 H1338 H 0.43323 0.69268 0.96613
 H1339 H 0.42858 0.71190 0.87603
 H1340 H 0.44398 0.74211 0.91386
 H1341 H 0.44850 0.77991 0.90026
 H1342 H 0.46738 0.80479 0.87484
 H1343 H 0.47750 0.75062 0.82889
 H1344 H 0.45824 0.72562 0.85453
 C1345 C 0.73533 0.97066 0.36910
 C1346 C 0.74859 0.95286 0.37537
 C1347 C 0.73916 0.93263 0.38190
 C1348 C 0.71619 0.93000 0.38035
 C1349 C 0.70291 0.94781 0.37393
 C1350 C 0.71233 0.96851 0.36896
 C1351 C 0.75378 0.91541 0.39140
 C1352 C 0.74703 0.90034 0.40638
 C1353 C 0.76238 0.88628 0.41938
 C1354 C 0.75457 0.86650 0.42886
 C1355 C 0.76802 0.85388 0.44292
 C1356 C 0.78948 0.86100 0.44803
 C1357 C 0.79736 0.88067 0.43835
 C1358 C 0.78399 0.89319 0.42424
 H1359 H 0.74303 0.98634 0.36496
 H1360 H 0.76625 0.95523 0.37612
 H1361 H 0.70834 0.91443 0.38446
 H1362 H 0.68521 0.94569 0.37388
 H1363 H 0.77109 0.91661 0.38740
 H1364 H 0.72974 0.89887 0.41035
 H1365 H 0.73791 0.86096 0.42562
 H1366 H 0.76144 0.83884 0.45019
 H1367 H 0.81378 0.88667 0.44202
 H1368 H 0.79042 0.90871 0.41796
 C1369 C 0.31236 0.93175 0.61659
 C1370 C 0.30066 0.91367 0.60789
 C1371 C 0.27768 0.91251 0.61009
 C1372 C 0.26691 0.92866 0.62300
 C1373 C 0.27854 0.94677 0.63144
 C1374 C 0.30118 0.94881 0.62766
 C1375 C 0.26524 0.89534 0.59756
 C1376 C 0.24498 0.89933 0.58955
 C1377 C 0.23199 0.88428 0.57499
 C1378 C 0.21017 0.89025 0.57034
 C1379 C 0.19735 0.87781 0.55567
 C1380 C 0.20600 0.85898 0.54514
 C1381 C 0.22773 0.85263 0.55000
 C1382 C 0.24066 0.86517 0.56476
 H1383 H 0.32986 0.93312 0.61349
 H1384 H 0.30938 0.90128 0.59832
 H1385 H 0.24939 0.92777 0.62601
 H1386 H 0.26971 0.95970 0.64016
 H1387 H 0.27365 0.88010 0.59355
 H1388 H 0.23745 0.91517 0.59313
 H1389 H 0.20301 0.90485 0.57792
 H1390 H 0.18065 0.88315 0.55242
 H1391 H 0.23486 0.83820 0.54213
 H1392 H 0.25745 0.86004 0.56760
 C1393 C 0.29424 0.05228 0.38326
 C1394 C 0.28474 0.07045 0.39409
 C1395 C 0.26282 0.07648 0.38969
 C1396 C 0.25115 0.06492 0.37300
 C1397 C 0.26051 0.04660 0.36251
 C1398 C 0.28189 0.03983 0.36794
 C1399 C 0.25236 0.09395 0.40355
 C1400 C 0.23052 0.09482 0.40683
 C1401 C 0.21940 0.10946 0.42317
 C1402 C 0.19787 0.10391 0.42946
 C1403 C 0.18691 0.11602 0.44577
 C1404 C 0.19712 0.13420 0.45615
 C1405 C 0.21835 0.14044 0.44928
 C1406 C 0.22943 0.12819 0.43292
 H1407 H 0.31081 0.04730 0.38760
 H1408 H 0.29422 0.07923 0.40661
 H1409 H 0.23467 0.06963 0.36818
 H1410 H 0.25089 0.03739 0.35041
 H1411 H 0.26314 0.10475 0.41296
 H1412 H 0.22010 0.08273 0.39867
 H1413 H 0.18963 0.08972 0.42213
 H1414 H 0.17050 0.11085 0.45051
 H1415 H 0.22660 0.15446 0.45689
 H1416 H 0.24576 0.13343 0.42813
 C1417 C 0.70179 0.05955 0.60243
 C1418 C 0.70904 0.07885 0.59168
 C1419 C 0.73093 0.08608 0.59400
 C1420 C 0.74509 0.07423 0.60827
 C1421 C 0.73795 0.05486 0.61870
 C1422 C 0.71639 0.04715 0.61559
 C1423 C 0.73861 0.10561 0.58103
 C1424 C 0.75981 0.10843 0.57541
 C1425 C 0.76831 0.12639 0.56087
 C1426 C 0.78932 0.12367 0.55167
 C1427 C 0.79814 0.13955 0.53738
 C1428 C 0.78624 0.15874 0.53198
 C1429 C 0.76542 0.16189 0.54162
 C1430 C 0.75651 0.14587 0.55597
 H1431 H 0.68503 0.05395 0.59993
 H1432 H 0.69771 0.08781 0.58105
 H1433 H 0.76173 0.07976 0.61149
 H1434 H 0.74931 0.04584 0.62926
 H1435 H 0.72625 0.11679 0.57461
 H1436 H 0.77165 0.09601 0.58037
 H1437 H 0.79889 0.10896 0.55528
 H1438 H 0.81428 0.13662 0.53037
 H1439 H 0.75589 0.17657 0.53784
 H1440 H 0.74051 0.14891 0.56315
 C1441 C 0.96036 0.57895 0.30562
 C1442 C 0.94319 0.56645 0.29657
 C1443 C 0.92414 0.57679 0.28846
 C1444 C 0.92211 0.59993 0.29069
 C1445 C 0.93938 0.61249 0.29972
 C1446 C 0.95898 0.60216 0.30656
 C1447 C 0.90827 0.56321 0.27554
 C1448 C 0.88738 0.56896 0.27129
 C1449 C 0.87329 0.55548 0.25632
 C1450 C 0.85087 0.55269 0.26107
 C1451 C 0.83762 0.53936 0.24737
 C1452 C 0.84649 0.52907 0.22837
 C1453 C 0.86875 0.53263 0.22321
 C1454 C 0.88201 0.54562 0.23705
 H1455 H 0.97516 0.57053 0.31103
 H1456 H 0.94517 0.54867 0.29511
 H1457 H 0.90785 0.60855 0.28428
 H1458 H 0.93797 0.63037 0.30003
 H1459 H 0.91427 0.54760 0.26901
 H1460 H 0.88022 0.58329 0.27931
 H1461 H 0.84375 0.56038 0.27568
 H1462 H 0.82049 0.53703 0.25169
 H1463 H 0.87609 0.52500 0.20868
 H1464 H 0.89910 0.54802 0.23258
 C1465 C 0.93603 0.36648 0.71031
 C1466 C 0.91773 0.37613 0.72060
 C1467 C 0.91692 0.37842 0.74391
 C1468 C 0.93401 0.36917 0.75680
 C1469 C 0.95234 0.35979 0.74652
 C1470 C 0.95382 0.35897 0.72319
 C1471 C 0.89873 0.39139 0.75409
 C1472 C 0.90105 0.40207 0.77362
 C1473 C 0.88463 0.41728 0.78367
 C1474 C 0.88810 0.42400 0.80581
 C1475 C 0.87475 0.44001 0.81562
 C1476 C 0.85752 0.44984 0.80355
 C1477 C 0.85343 0.44263 0.78162
 C1478 C 0.86689 0.42654 0.77172
 H1479 H 0.93682 0.36601 0.69227
 H1480 H 0.90467 0.38277 0.71028
 H1481 H 0.93356 0.36948 0.77482
 H1482 H 0.96570 0.35370 0.75679
 H1483 H 0.88380 0.39328 0.74446
 H1484 H 0.91635 0.40044 0.78271
 H1485 H 0.90158 0.41720 0.81545
 H1486 H 0.87832 0.44505 0.83258
 H1487 H 0.84033 0.44996 0.77186
 H1488 H 0.86376 0.42216 0.75453
 C1489 C 0.04108 0.58623 0.68666
 C1490 C 0.05863 0.57493 0.69640
 C1491 C 0.07591 0.58660 0.70661
 C1492 C 0.07607 0.60991 0.70550
 C1493 C 0.05841 0.62124 0.69576
 C1494 C 0.04033 0.60948 0.68711
 C1495 C 0.09135 0.57405 0.72092
 C1496 C 0.11096 0.58155 0.72788
 C1497 C 0.12360 0.56928 0.74495
 C1498 C 0.14641 0.56666 0.74281
 C1499 C 0.15816 0.55412 0.75848
 C1500 C 0.14732 0.54458 0.77684
 C1501 C 0.12465 0.54813 0.77942
 C1502 C 0.11291 0.56024 0.76360
 H1503 H 0.02746 0.57677 0.67987
 H1504 H 0.05814 0.55699 0.69698
 H1505 H 0.08892 0.61948 0.71349
 H1506 H 0.05814 0.63917 0.69651
 H1507 H 0.08586 0.55791 0.72668
 H1508 H 0.11797 0.59653 0.72095
 H1509 H 0.15499 0.57374 0.72868
 H1510 H 0.17566 0.55174 0.75614
 H1511 H 0.11583 0.54102 0.79338
 H1512 H 0.09540 0.56253 0.76595
 C1513 C 0.05899 0.38928 0.30325
 C1514 C 0.07681 0.40039 0.29349
 C1515 C 0.08289 0.39596 0.27133
 C1516 C 0.07187 0.37892 0.25974
 C1517 C 0.05398 0.36805 0.26937
 C1518 C 0.04699 0.37356 0.29094
 C1519 C 0.09991 0.40997 0.26044
 C1520 C 0.09982 0.41380 0.23836
 C1521 C 0.11466 0.42949 0.22659
 C1522 C 0.10875 0.43605 0.20495
 C1523 C 0.12165 0.45105 0.19305
 C1524 C 0.14098 0.45985 0.20241
 C1525 C 0.14726 0.45301 0.22393
 C1526 C 0.13425 0.43794 0.23593
 H1527 H 0.05387 0.39376 0.31993
 H1528 H 0.08522 0.41319 0.30291
 H1529 H 0.07670 0.37419 0.24307
 H1530 H 0.04518 0.35567 0.25975
 H1531 H 0.11129 0.41880 0.27112
 H1532 H 0.08705 0.40628 0.22828
 H1533 H 0.09386 0.42974 0.19724
 H1534 H 0.11634 0.45586 0.17649
 H1535 H 0.16214 0.45940 0.23155
 H1536 H 0.13971 0.43294 0.25234
   
