data_POSCAR
  _audit_creation_date              2014-09-24
  _audit_creation_method            'ToBaCCo'
  _symmetry_space_group_name_H-M    'P1'
  _symmetry_Int_Tables_number       1
  _symmetry_cell_setting            triclinic
  loop_
  _symmetry_equiv_pos_as_xyz
 x,y,z
_cell_length_a 50.8592
_cell_length_b 50.8591
_cell_length_c 50.8478
_cell_angle_alpha 90.046100
_cell_angle_beta 90.085200
_cell_angle_gamma 90.099900
loop_
  _atom_site_label
  _atom_site_type_symbol
  _atom_site_fract_x
  _atom_site_fract_y
  _atom_site_fract_z
C1 C 0.12687 -0.00128 0.25027
 C2 C 0.37390 0.00224 0.75035
 C3 C 0.87412 0.50009 0.25087
 C4 C 0.62703 0.50016 0.75041
 C5 C 0.24975 0.12668 0.99971
 C6 C 0.74930 0.37389 0.99999
 C7 C 0.24921 0.87371 0.49832
 C8 C 0.75038 0.62653 0.50140
 C9 C -0.00039 0.24981 0.12594
 C10 C -0.00002 0.74920 0.37322
 C11 C 0.49862 0.24968 0.87329
 C12 C 0.50187 0.74978 0.62622
 C13 C 0.87710 1.00063 0.74997
 C14 C 0.37671 0.49911 0.25001
 C15 C 0.62430 0.99960 0.25068
 C16 C 0.12437 0.50181 0.75119
 C17 C 0.74935 0.87671 0.00155
 C18 C 0.24985 0.37673 0.49977
 C19 C 0.24966 0.62368 -0.00180
 C20 C 0.74962 0.12367 0.49977
 C21 C 1.00216 0.74967 0.87614
 C22 C 0.49998 0.24963 0.37605
 C23 C 0.99812 0.24950 0.62343
 C24 C 0.49964 0.74980 0.12315
 O25 O -0.01283 0.98388 0.92606
 O26 O 0.03018 0.99761 0.92537
 O27 O -0.01394 0.92502 0.98780
 O28 O -0.00583 0.92288 1.03044
 O29 O -0.07425 0.98646 0.98528
 O30 O -0.07445 1.03121 0.99736
 O31 O 0.05249 0.99641 1.05807
 O32 O 0.05564 0.95517 1.03982
 O33 O 0.05817 1.05100 0.99774
 O34 O 0.03634 1.05749 0.95522
 O35 O -0.00284 1.05750 1.05186
 O36 O -0.04470 1.03554 1.05878
 O37 O 0.01564 1.01559 1.07469
 O38 O -0.03162 1.00255 1.07515
 O39 O 0.01633 1.07424 1.01514
 O40 O 0.00339 1.07415 0.96814
 O41 O 0.07479 1.01444 1.01736
 O42 O 0.07373 0.96967 0.99861
 O43 O -0.04895 1.00491 0.94213
 O44 O -0.05519 1.04621 0.96470
 O45 O -0.05808 0.94998 1.00542
 O46 O -0.03496 0.94624 1.04837
 O47 O 0.00505 0.94149 0.95081
 O48 O 0.04827 0.96395 0.94847
 Zr49 Zr 0.01193 0.98145 0.95912
 O50 O 0.03682 1.00571 0.98170
 Zr51 Zr -0.01805 0.95816 1.01225
 O52 O 0.00632 0.98074 1.03702
 Zr53 Zr -0.04124 1.01129 0.98238
 O54 O -0.01859 1.03630 1.00647
 Zr55 Zr 0.04249 0.98858 1.01878
 O56 O 0.01949 0.96284 0.99538
 Zr57 Zr 0.01863 1.04186 0.98949
 O58 O -0.00505 1.01891 0.96403
 Zr59 Zr -0.01066 1.01792 1.04265
 O60 O -0.03651 0.99435 1.01986
 O61 O -0.02493 0.97451 0.97549
 O62 O 0.02612 1.02546 1.02628
 C63 C -0.03560 0.99447 0.92334
 C64 C -0.00438 0.92251 0.96456
 C65 C -0.07692 0.96348 0.99538
 C66 C 0.03915 1.00662 1.07694
 C67 C 0.07705 1.03782 1.00816
 C68 C 0.00721 1.07646 1.03854
 H69 H 0.05372 1.00791 0.97237
 H70 H -0.02809 1.05307 1.00876
 H71 H -0.03616 0.96322 0.96423
 H72 H 0.00894 0.97124 1.05378
 H73 H 0.05157 0.93967 1.02874
 H74 H 0.01063 0.92695 1.03996
 H75 H -0.01305 1.07978 0.97684
 H76 H -0.04148 1.05200 0.95217
 H77 H 0.08958 0.97030 1.00998
 H78 H 0.04576 0.95368 0.93205
 H79 H -0.05104 1.04882 1.04608
 H80 H -0.07663 1.02519 1.01573
 H81 H 0.02450 1.01618 0.92426
 H82 H 0.05040 1.04528 0.94968
 H83 H -0.04930 0.95877 1.05233
 H84 H -0.02257 0.98637 1.08097
 O85 O 0.48775 0.48413 0.42588
 O86 O 0.53086 0.49743 0.42529
 O87 O 0.48636 0.42517 0.48779
 O88 O 0.49436 0.42310 0.53047
 O89 O 0.42619 0.48690 0.48526
 O90 O 0.42622 0.53173 0.49703
 O91 O 0.55279 0.49631 0.55809
 O92 O 0.55585 0.45505 0.53979
 O93 O 0.55884 0.55092 0.49779
 O94 O 0.53717 0.55726 0.45499
 O95 O 0.49803 0.55770 0.55166
 O96 O 0.45577 0.53598 0.55837
 O97 O 0.51599 0.51571 0.57459
 O98 O 0.46875 0.50307 0.57500
 O99 O 0.51706 0.57434 0.51482
 O100 O 0.50432 0.57422 0.46786
 O101 O 0.57527 0.51430 0.51747
 O102 O 0.57415 0.46955 0.49868
 O103 O 0.45145 0.50481 0.44200
 O104 O 0.44563 0.54643 0.46424
 O105 O 0.44228 0.45024 0.50513
 O106 O 0.46515 0.44659 0.54821
 O107 O 0.50524 0.44153 0.45070
 O108 O 0.54869 0.46374 0.44849
 Zr109 Zr 0.51242 0.48146 0.45902
 O110 O 0.53738 0.50564 0.48162
 Zr111 Zr 0.48227 0.45837 0.51216
 O112 O 0.50666 0.48090 0.53693
 Zr113 Zr 0.45932 0.51153 0.48217
 O114 O 0.48205 0.53652 0.50623
 Zr115 Zr 0.54289 0.48854 0.51875
 O116 O 0.51985 0.46287 0.49532
 Zr117 Zr 0.51932 0.54187 0.48929
 O118 O 0.49557 0.51898 0.46385
 Zr119 Zr 0.48983 0.51818 0.54246
 O120 O 0.46393 0.49464 0.51968
 O121 O 0.47552 0.47470 0.47537
 O122 O 0.52667 0.52551 0.52613
 C123 C 0.46485 0.49447 0.42320
 C124 C 0.49578 0.42260 0.46451
 C125 C 0.42347 0.46385 0.49518
 C126 C 0.53945 0.50660 0.57692
 C127 C 0.57762 0.53770 0.50832
 C128 C 0.50812 0.57660 0.53829
 H129 H 0.55432 0.50776 0.47234
 H130 H 0.47262 0.55334 0.50847
 H131 H 0.46426 0.46342 0.46412
 H132 H 0.50919 0.47142 0.55371
 H133 H 0.55174 0.43958 0.52867
 H134 H 0.51074 0.42718 0.54013
 H135 H 0.48774 0.57977 0.47635
 H136 H 0.45935 0.55198 0.45160
 H137 H 0.58996 0.47013 0.51011
 H138 H 0.54614 0.45340 0.43212
 H139 H 0.44983 0.54961 0.54585
 H140 H 0.42408 0.52591 0.51548
 H141 H 0.52543 0.51607 0.42423
 H142 H 0.55144 0.54517 0.44974
 H143 H 0.45085 0.45918 0.55209
 H144 H 0.47754 0.48670 0.58071
 O145 O 0.44134 -0.05179 0.49605
 O146 O 0.46114 -0.05626 0.45529
 O147 O 0.50472 -0.05844 0.55102
 O148 O 0.54269 -0.03823 0.55962
 O149 O 0.44846 0.00449 0.55839
 O150 O 0.44259 0.04533 0.53637
 O151 O 0.57387 0.01242 0.48381
 O152 O 0.57477 -0.02973 0.49855
 O153 O 0.51320 0.01548 0.42614
 O154 O 0.46750 0.00378 0.42496
 O155 O 0.51561 0.07368 0.48637
 O156 O 0.50456 0.07516 0.53164
 O157 O 0.55748 0.04932 0.50314
 O158 O 0.53461 0.05524 0.54713
 O159 O 0.49582 0.05729 0.44973
 O160 O 0.45219 0.03417 0.44445
 O161 O 0.55018 -0.00336 0.44276
 O162 O 0.55018 -0.04808 0.46281
 O163 O 0.42471 -0.01464 0.51476
 O164 O 0.42463 0.03099 0.50262
 O165 O 0.48510 -0.01496 0.57508
 O166 O 0.53141 -0.00063 0.57388
 O167 O 0.48428 -0.07504 0.51477
 O168 O 0.50001 -0.07369 0.46897
 Zr169 Zr 0.48105 -0.04254 0.48928
 O170 O 0.50441 -0.01958 0.46399
 Zr171 Zr 0.51044 -0.01839 0.54253
 O172 O 0.53567 0.00475 0.51932
 Zr173 Zr 0.45731 0.01082 0.51851
 O174 O 0.48026 0.03596 0.49493
 Zr175 Zr 0.54079 -0.01224 0.48205
 O176 O 0.51841 -0.03736 0.50657
 Zr177 Zr 0.48769 0.01771 0.45863
 O178 O 0.46247 -0.00640 0.48130
 Zr179 Zr 0.51772 0.04110 0.51173
 O180 O 0.49336 0.01890 0.53727
 O181 O 0.47386 -0.02573 0.52591
 O182 O 0.52472 0.02482 0.47479
 C183 C 0.42232 -0.03804 0.50541
 C184 C 0.49456 -0.07743 0.53773
 C185 C 0.46197 -0.00516 0.57744
 C186 C 0.57629 0.03586 0.49291
 C187 C 0.53673 0.00667 0.42387
 C188 C 0.50624 0.07610 0.46305
 H189 H 0.50667 -0.02902 0.44713
 H190 H 0.47092 0.05285 0.49284
 H191 H 0.46267 -0.03697 0.53721
 H192 H 0.55272 0.00673 0.52849
 H193 H 0.56895 -0.04628 0.50699
 H194 H 0.55813 -0.03446 0.54845
 H195 H 0.44825 0.04994 0.45513
 H196 H 0.42179 0.02382 0.48474
 H197 H 0.56744 -0.04585 0.45403
 H198 H 0.48958 -0.09005 0.47119
 H199 H 0.48619 0.07832 0.52609
 H200 H 0.45652 0.05175 0.54840
 H201 H 0.45003 -0.04161 0.44893
 H202 H 0.47405 -0.01413 0.42116
 H203 H 0.52235 0.01607 0.57804
 H204 H 0.55058 0.04476 0.55078
 O205 O -0.05881 0.44865 0.99646
 O206 O -0.03916 0.44435 0.95555
 O207 O 0.00473 0.44161 1.05111
 O208 O 0.04272 0.46174 1.05982
 O209 O -0.05139 0.50467 1.05894
 O210 O -0.05718 0.54565 1.03708
 O211 O 0.07381 0.51255 0.98403
 O212 O 0.07466 0.47035 0.99870
 O213 O 0.01306 0.51597 0.92658
 O214 O -0.03274 0.50434 0.92550
 O215 O 0.01583 0.57391 0.98696
 O216 O 0.00480 0.57532 1.03226
 O217 O 0.05759 0.54940 1.00363
 O218 O 0.03480 0.55523 1.04767
 O219 O -0.00405 0.55768 0.95031
 O220 O -0.04781 0.53484 0.94505
 O221 O 0.05001 0.49694 0.94306
 O222 O 0.04995 0.45216 0.96295
 O223 O -0.07530 0.48579 1.01533
 O224 O -0.07531 0.53145 1.00333
 O225 O -0.01480 0.48499 1.07544
 O226 O 0.03154 0.49929 1.07421
 O227 O -0.01596 0.42524 1.01491
 O228 O -0.00033 0.42668 0.96910
 Zr229 Zr -0.01912 0.45783 0.98956
 O230 O 0.00426 0.48079 0.96430
 Zr231 Zr 0.01048 0.48169 1.04283
 O232 O 0.03572 0.50485 1.01966
 Zr233 Zr -0.04263 0.51115 1.01906
 O234 O -0.01967 0.53630 0.99550
 Zr235 Zr 0.04069 0.48796 0.98232
 O236 O 0.01829 0.46282 1.00678
 Zr237 Zr -0.01238 0.51814 0.95913
 O238 O -0.03762 0.49405 0.98177
 Zr239 Zr 0.01783 0.54127 1.01225
 O240 O -0.00652 0.51905 1.03776
 O241 O -0.02616 0.47453 1.02627
 O242 O 0.02470 0.52508 0.97524
 C243 C -0.07776 0.46241 1.00596
 C244 C -0.00558 0.42272 1.03780
 C245 C -0.03789 0.49484 1.07790
 C246 C 0.07632 0.53595 0.99324
 C247 C 0.03656 0.50709 0.92424
 C248 C 0.00649 0.57640 0.96364
 H249 H 0.00646 0.47141 0.94741
 H250 H -0.02896 0.55323 0.99348
 H251 H -0.03734 0.46327 1.03755
 H252 H 0.05279 0.50675 1.02879
 H253 H 0.06883 0.45378 1.00710
 H254 H 0.05813 0.46548 1.04861
 H255 H -0.05168 0.55056 0.95582
 H256 H -0.07817 0.52439 0.98541
 H257 H 0.06720 0.45437 0.95415
 H258 H -0.01084 0.41036 0.97125
 H259 H -0.01356 0.57856 1.02674
 H260 H -0.04321 0.55196 1.04911
 H261 H -0.05031 0.45902 0.94934
 H262 H -0.02616 0.48648 0.92156
 H263 H 0.02248 0.51597 1.07848
 H264 H 0.05074 0.54470 1.05127
 O265 O 0.01543 0.42584 0.51417
 O266 O 0.00172 0.42501 0.47116
 O267 O 0.07438 0.48765 0.51522
 O268 O 0.07656 0.53029 0.50714
 O269 O 0.01289 0.48531 0.57561
 O270 O -0.03185 0.49722 0.57576
 O271 O 0.00326 0.55766 0.44882
 O272 O 0.04443 0.53936 0.44568
 O273 O -0.05146 0.49713 0.44306
 O274 O -0.05803 0.45470 0.46501
 O275 O -0.05795 0.55158 0.50374
 O276 O -0.03620 0.55850 0.54591
 O277 O -0.01591 0.57439 0.48566
 O278 O -0.00313 0.57492 0.53295
 O279 O -0.07477 0.51466 0.48489
 O280 O -0.07478 0.46777 0.49786
 O281 O -0.01493 0.51696 0.42654
 O282 O 0.02978 0.49817 0.42755
 O283 O -0.00549 0.44199 0.55035
 O284 O -0.04686 0.46449 0.55646
 O285 O 0.04950 0.50517 0.55934
 O286 O 0.05322 0.54816 0.53639
 O287 O 0.05791 0.45060 0.49619
 O288 O 0.03539 0.44806 0.45303
 Zr289 Zr 0.01793 0.45882 0.48939
 O290 O -0.00626 0.48131 0.46448
 Zr291 Zr 0.04128 0.51205 0.51936
 O292 O 0.01875 0.53674 0.49499
 Zr293 Zr -0.01190 0.48220 0.54257
 O294 O -0.03687 0.50619 0.51986
 Zr295 Zr 0.01093 0.51839 0.45882
 O296 O 0.03661 0.49507 0.48183
 Zr297 Zr -0.04240 0.48908 0.48265
 O298 O -0.01952 0.46373 0.50637
 Zr299 Zr -0.01846 0.54237 0.51191
 O300 O 0.00507 0.51968 0.53780
 O301 O 0.02487 0.47530 0.52625
 O302 O -0.02596 0.52587 0.47514
 C303 C 0.00490 0.42317 0.53698
 C304 C 0.07689 0.46442 0.50562
 C305 C 0.03596 0.49526 0.57822
 C306 C -0.00689 0.57658 0.46214
 C307 C -0.03827 0.50760 0.42423
 C308 C -0.07693 0.53818 0.49374
 H309 H -0.00845 0.47194 0.44757
 H310 H -0.05366 0.50850 0.52933
 H311 H 0.03615 0.46408 0.53746
 H312 H 0.02828 0.55349 0.49239
 H313 H 0.05989 0.52828 0.44978
 H314 H 0.07247 0.53985 0.49072
 H315 H -0.08033 0.47644 0.51436
 H316 H -0.05259 0.45185 0.54277
 H317 H 0.02918 0.50951 0.41170
 H318 H 0.04563 0.43166 0.45555
 H319 H -0.04972 0.54593 0.55204
 H320 H -0.02599 0.51569 0.57778
 H321 H -0.01684 0.42386 0.47689
 H322 H -0.04583 0.44915 0.45093
 H323 H 0.04069 0.55209 0.55075
 H324 H 0.01318 0.58064 0.52404
 O325 O 0.51480 0.92607 0.01344
 O326 O 0.50139 0.92546 -0.02965
 O327 O 0.57388 0.98792 0.01488
 O328 O 0.57604 1.03066 0.00719
 O329 O 0.51213 0.98535 0.07519
 O330 O 0.46736 0.99717 0.07520
 O331 O 0.50287 1.05816 -0.05133
 O332 O 0.54414 1.03996 -0.05434
 O333 O 0.44824 0.99782 -0.05751
 O334 O 0.44167 0.95514 -0.03582
 O335 O 0.44154 1.05185 0.00341
 O336 O 0.46324 1.05852 0.04574
 O337 O 0.48359 1.07473 -0.01447
 O338 O 0.49624 1.07513 0.03281
 O339 O 0.42480 1.01501 -0.01569
 O340 O 0.42474 0.96808 -0.00299
 O341 O 0.48489 1.01760 -0.07384
 O342 O 0.52960 0.99883 -0.07275
 O343 O 0.49407 0.94214 0.04977
 O344 O 0.45251 0.96443 0.05567
 O345 O 0.54894 1.00499 0.05907
 O346 O 0.55257 1.04826 0.03649
 O347 O 0.55742 0.95085 -0.00411
 O348 O 0.53514 0.94862 -0.04748
 Zr349 Zr 0.51750 0.95917 -0.01116
 O350 O 0.49339 0.98178 -0.03605
 Zr351 Zr 0.54074 1.01227 0.01915
 O352 O 0.51829 1.03707 -0.00517
 Zr353 Zr 0.48749 0.98232 0.04204
 O354 O 0.46258 1.00639 0.01936
 Zr355 Zr 0.51061 1.01888 -0.04145
 O356 O 0.53622 0.99546 -0.01847
 Zr357 Zr 0.45719 0.98946 -0.01795
 O358 O 0.47999 0.96401 0.00573
 Zr359 Zr 0.48102 1.04261 0.01166
 O360 O 0.50448 1.01981 0.03751
 O361 O 0.52430 0.97549 0.02580
 O362 O 0.47366 1.02627 -0.02522
 C363 C 0.50441 0.92336 0.03632
 C364 C 0.57639 0.96466 0.00536
 C365 C 0.53530 0.99506 0.07787
 C366 C 0.49263 1.07700 -0.03796
 C367 C 0.46151 1.00836 -0.07625
 C368 C 0.42260 1.03849 -0.00674
 H369 H 0.49126 0.97249 -0.05301
 H370 H 0.44576 1.00865 0.02878
 H371 H 0.53555 0.96422 0.03699
 H372 H 0.52782 1.05384 -0.00767
 H373 H 0.55959 1.02886 -0.05025
 H374 H 0.57201 1.04029 -0.00920
 H375 H 0.41921 0.97659 0.01360
 H376 H 0.44693 0.95180 0.04192
 H377 H 0.52906 1.01026 -0.08854
 H378 H 0.54540 0.93223 -0.04499
 H379 H 0.44956 1.04602 0.05165
 H380 H 0.47319 1.01563 0.07734
 H381 H 0.48278 0.92434 -0.02410
 H382 H 0.45381 0.94981 -0.05003
 H383 H 0.54002 1.05204 0.05087
 H384 H 0.51265 1.08080 0.02406
 O385 O 0.48649 0.51515 0.07388
 O386 O 0.52948 0.50170 0.07470
 O387 O 0.48549 0.57406 0.01201
 O388 O 0.49358 0.57615 -0.03063
 O389 O 0.42501 0.51247 0.01427
 O390 O 0.42481 0.46768 0.00244
 O391 O 0.55173 0.50294 -0.05797
 O392 O 0.55498 0.54412 -0.03962
 O393 O 0.55740 0.44828 0.00249
 O394 O 0.53548 0.44185 0.04502
 O395 O 0.49674 0.44160 -0.05191
 O396 O 0.45464 0.46323 -0.05889
 O397 O 0.51488 0.48364 -0.07473
 O398 O 0.46760 0.49633 -0.07525
 O399 O 0.51552 0.42489 -0.01495
 O400 O 0.50262 0.42499 0.03192
 O401 O 0.57400 0.48482 -0.01726
 O402 O 0.57309 0.52956 0.00157
 O403 O 0.45016 0.49442 0.05763
 O404 O 0.44412 0.45284 0.03525
 O405 O 0.44134 0.54908 -0.00554
 O406 O 0.46430 0.55272 -0.04852
 O407 O 0.50439 0.55771 0.04913
 O408 O 0.54760 0.53532 0.05162
 Zr409 Zr 0.51123 0.51774 0.04088
 O410 O 0.53610 0.49352 0.01839
 Zr411 Zr 0.48129 0.54089 -0.01239
 O412 O 0.50563 0.51835 -0.03706
 Zr413 Zr 0.45801 0.48777 0.01746
 O414 O 0.48066 0.46277 -0.00652
 Zr415 Zr 0.54177 0.51064 -0.01869
 O416 O 0.51881 0.53634 0.00462
 Zr417 Zr 0.51786 0.45733 0.01061
 O418 O 0.49419 0.48025 0.03595
 Zr419 Zr 0.48864 0.48110 -0.04271
 O420 O 0.46280 0.50465 -0.02003
 O421 O 0.47439 0.52457 0.02437
 O422 O 0.52540 0.47370 -0.02618
 C423 C 0.46359 0.50476 0.07648
 C424 C 0.49500 0.57664 0.03529
 C425 C 0.42244 0.53552 0.00433
 C426 C 0.53839 0.49274 -0.07691
 C427 C 0.57625 0.46148 -0.00796
 C428 C 0.50668 0.42266 -0.03849
 H429 H 0.55300 0.49137 0.02778
 H430 H 0.47116 0.44596 -0.00883
 H431 H 0.46319 0.53587 0.03557
 H432 H 0.50824 0.52785 -0.05381
 H433 H 0.55091 0.55959 -0.02853
 H434 H 0.50999 0.57207 -0.04016
 H435 H 0.48606 0.41945 0.02331
 H436 H 0.45777 0.44726 0.04796
 H437 H 0.58893 0.52895 -0.00977
 H438 H 0.54509 0.54565 0.06799
 H439 H 0.44846 0.44978 -0.04630
 H440 H 0.42278 0.47347 -0.01604
 H441 H 0.52387 0.48309 0.07578
 H442 H 0.54970 0.45399 0.05046
 H443 H 0.44992 0.54018 -0.05246
 H444 H 0.47655 0.51262 -0.08099
 O445 O -0.07508 0.01211 0.51482
 O446 O -0.07581 -0.03095 0.50142
 O447 O -0.01302 0.01342 0.57372
 O448 O 0.02967 0.00560 0.57578
 O449 O -0.01550 0.07379 0.51201
 O450 O -0.00398 0.07377 0.46713
 O451 O 0.05694 -0.05271 0.50264
 O452 O 0.03870 -0.05588 0.54385
 O453 O -0.00353 -0.05885 0.44797
 O454 O -0.04631 -0.03713 0.44164
 O455 O 0.05053 0.00185 0.44125
 O456 O 0.05726 0.04429 0.46282
 O457 O 0.07345 -0.01587 0.48323
 O458 O 0.07397 0.03136 0.49578
 O459 O 0.01354 -0.01696 0.42450
 O460 O -0.03333 -0.00434 0.42460
 O461 O 0.01625 -0.07524 0.48459
 O462 O -0.00245 -0.07420 0.52933
 O463 O -0.05889 0.04854 0.49432
 O464 O -0.03692 0.05432 0.45253
 O465 O 0.00425 0.05762 0.54873
 O466 O 0.04734 0.03486 0.55231
 O467 O -0.05018 -0.00553 0.55740
 O468 O -0.05258 -0.04886 0.53507
 Zr469 Zr -0.04200 -0.01253 0.51743
 O470 O -0.01951 -0.03742 0.49324
 Zr471 Zr 0.01125 0.01767 0.54053
 O472 O 0.03591 -0.00665 0.51799
 Zr473 Zr -0.01882 0.04066 0.48739
 O474 O 0.00512 0.01798 0.46237
 Zr475 Zr 0.01764 -0.04289 0.51035
 O476 O -0.00567 -0.01992 0.53603
 Zr477 Zr -0.01189 -0.01931 0.45700
 O478 O -0.03722 0.00439 0.47991
 Zr479 Zr 0.04137 0.01022 0.48070
 O480 O 0.01872 0.03607 0.50426
 O481 O -0.02556 0.02439 0.52422
 O482 O 0.02495 -0.02663 0.47337
 C483 C -0.07770 0.03509 0.50464
 C484 C -0.03628 0.00391 0.57632
 C485 C -0.00563 0.07646 0.53512
 C486 C 0.07577 -0.03932 0.49236
 C487 C 0.00702 -0.07761 0.46121
 C488 C 0.03710 -0.00818 0.42230
 H489 H -0.02883 -0.05437 0.49111
 H490 H 0.00735 0.02741 0.44554
 H491 H -0.03674 0.03559 0.53554
 H492 H 0.05271 -0.00916 0.52747
 H493 H 0.02764 -0.05178 0.55932
 H494 H 0.03925 -0.01079 0.57171
 H495 H -0.02495 0.01236 0.41920
 H496 H -0.04964 0.04060 0.44706
 H497 H 0.00893 -0.09000 0.52875
 H498 H -0.06893 -0.04636 0.54541
 H499 H 0.04482 0.05008 0.44903
 H500 H 0.01453 0.07585 0.47282
 H501 H -0.07690 -0.02545 0.48278
 H502 H -0.05152 -0.05146 0.45370
 H503 H 0.05119 0.04921 0.53973
 H504 H 0.07967 0.02262 0.51219
 O505 O 0.73636 0.17491 0.26588
 O506 O 0.77948 0.17440 0.25246
 O507 O 0.73537 0.23665 0.32512
 O508 O 0.74333 0.27938 0.32731
 O509 O 0.67476 0.23437 0.26348
 O510 O 0.67464 0.24613 0.21860
 O511 O 0.80123 0.30719 0.25434
 O512 O 0.80457 0.28869 0.29537
 O513 O 0.80727 0.24663 0.19943
 O514 O 0.78525 0.20404 0.19285
 O515 O 0.74602 0.30067 0.19266
 O516 O 0.70402 0.30740 0.21474
 O517 O 0.76447 0.32361 0.23472
 O518 O 0.71740 0.32413 0.24746
 O519 O 0.76538 0.26403 0.17600
 O520 O 0.75259 0.21721 0.17581
 O521 O 0.82372 0.26661 0.23596
 O522 O 0.82284 0.24771 0.28062
 O523 O 0.69986 0.19114 0.24555
 O524 O 0.69395 0.21327 0.20387
 O525 O 0.69116 0.25382 0.30032
 O526 O 0.71383 0.29704 0.30396
 O527 O 0.75396 0.19953 0.30851
 O528 O 0.79736 0.19747 0.28635
 Zr529 Zr 0.76105 0.20803 0.26864
 O530 O 0.78589 0.23070 0.24454
 Zr531 Zr 0.73103 0.26109 0.29202
 O532 O 0.75526 0.28592 0.26951
 Zr533 Zr 0.70778 0.23125 0.23877
 O534 O 0.73042 0.25531 0.21383
 Zr535 Zr 0.79146 0.26779 0.26176
 O536 O 0.76857 0.24428 0.28739
 Zr537 Zr 0.76767 0.23842 0.20836
 O538 O 0.74400 0.21294 0.23117
 Zr539 Zr 0.73827 0.29151 0.23226
 O540 O 0.71249 0.26870 0.25580
 O541 O 0.72419 0.22436 0.27554
 O542 O 0.77510 0.27524 0.22481
 C543 C 0.71333 0.17231 0.25576
 C544 C 0.74464 0.21329 0.32753
 C545 C 0.67224 0.24399 0.28669
 C546 C 0.78787 0.32600 0.24404
 C547 C 0.82607 0.25721 0.21266
 C548 C 0.75614 0.28737 0.17373
 H549 H 0.80282 0.22141 0.24239
 H550 H 0.72090 0.25757 0.19702
 H551 H 0.71301 0.21309 0.28680
 H552 H 0.75781 0.30268 0.27905
 H553 H 0.80049 0.27753 0.31079
 H554 H 0.75956 0.28923 0.32317
 H555 H 0.73586 0.22556 0.17049
 H556 H 0.70767 0.20067 0.19829
 H557 H 0.83865 0.25916 0.28007
 H558 H 0.79485 0.18104 0.29657
 H559 H 0.69798 0.29492 0.20107
 H560 H 0.67241 0.26451 0.22460
 H561 H 0.77371 0.17320 0.23390
 H562 H 0.79954 0.19870 0.20493
 H563 H 0.69947 0.30090 0.29137
 H564 H 0.72613 0.32963 0.26397
 O565 O 0.69391 0.75518 0.70091
 O566 O 0.71378 0.79600 0.69659
 O567 O 0.75769 0.70062 0.69380
 O568 O 0.79544 0.69184 0.71423
 O569 O 0.70125 0.69252 0.75698
 O570 O 0.69527 0.71455 0.79786
 O571 O 0.82649 0.76753 0.76506
 O572 O 0.82733 0.75303 0.72278
 O573 O 0.76572 0.82513 0.76824
 O574 O 0.71982 0.82594 0.75650
 O575 O 0.76807 0.76480 0.82638
 O576 O 0.75706 0.71936 0.82759
 O577 O 0.81004 0.74825 0.80197
 O578 O 0.78729 0.70422 0.80778
 O579 O 0.74859 0.80149 0.80996
 O580 O 0.70489 0.80662 0.78719
 O581 O 0.80284 0.80859 0.74969
 O582 O 0.80282 0.78885 0.70476
 O583 O 0.67736 0.73603 0.73789
 O584 O 0.67718 0.74815 0.78350
 O585 O 0.73776 0.67618 0.73707
 O586 O 0.78401 0.67748 0.75166
 O587 O 0.73669 0.73659 0.67754
 O588 O 0.75259 0.78236 0.67899
 Zr589 Zr 0.73363 0.76199 0.71012
 O590 O 0.75702 0.78731 0.73314
 Zr591 Zr 0.76311 0.70882 0.73399
 O592 O 0.78828 0.73205 0.75730
 Zr593 Zr 0.70994 0.73247 0.76336
 O594 O 0.73283 0.75615 0.78857
 Zr595 Zr 0.79340 0.76937 0.74045
 O596 O 0.77102 0.74487 0.71520
 Zr597 Zr 0.74026 0.79251 0.77044
 O598 O 0.71505 0.76976 0.74630
 Zr599 Zr 0.77030 0.73949 0.79369
 O600 O 0.74603 0.71389 0.77133
 O601 O 0.72650 0.72527 0.72675
 O602 O 0.77729 0.77647 0.77752
 C603 C 0.67493 0.74557 0.71458
 C604 C 0.74728 0.71384 0.67493
 C605 C 0.71472 0.67361 0.74705
 C606 C 0.82888 0.75846 0.78851
 C607 C 0.78934 0.82744 0.75965
 C608 C 0.75889 0.78818 0.82878
 H609 H 0.75928 0.80420 0.72377
 H610 H 0.72349 0.75819 0.80548
 H611 H 0.71533 0.71396 0.71545
 H612 H 0.80532 0.72294 0.75925
 H613 H 0.82148 0.74467 0.70617
 H614 H 0.81083 0.70313 0.71797
 H615 H 0.70091 0.79577 0.80283
 H616 H 0.67447 0.76611 0.77653
 H617 H 0.82008 0.79766 0.70706
 H618 H 0.74210 0.78020 0.66265
 H619 H 0.73878 0.72504 0.83093
 H620 H 0.70922 0.70258 0.80424
 H621 H 0.70261 0.80223 0.71123
 H622 H 0.72668 0.83007 0.73878
 H623 H 0.77491 0.67327 0.76834
 H624 H 0.80314 0.70054 0.79715
 O625 O 0.29873 0.19372 0.74482
 O626 O 0.30299 0.21357 0.70399
 O627 O 0.30603 0.25736 0.79956
 O628 O 0.28575 0.29516 0.80839
 O629 O 0.24276 0.20091 0.80749
 O630 O 0.20183 0.19493 0.78547
 O631 O 0.23481 0.32618 0.73282
 O632 O 0.27708 0.32710 0.74733
 O633 O 0.23153 0.26541 0.67504
 O634 O 0.24310 0.21952 0.67413
 O635 O 0.17343 0.26776 0.73541
 O636 O 0.17226 0.25663 0.78087
 O637 O 0.19793 0.30969 0.75215
 O638 O 0.19211 0.28691 0.79608
 O639 O 0.18976 0.24833 0.69864
 O640 O 0.21235 0.20462 0.69340
 O641 O 0.25017 0.30256 0.69169
 O642 O 0.29508 0.30261 0.71147
 O643 O 0.26174 0.17709 0.76390
 O644 O 0.21612 0.17685 0.75178
 O645 O 0.26274 0.23745 0.82394
 O646 O 0.24830 0.28368 0.82281
 O647 O 0.32220 0.23651 0.76343
 O648 O 0.32071 0.25239 0.71771
 Zr649 Zr 0.28957 0.23341 0.73806
 O650 O 0.26657 0.25678 0.71283
 Zr651 Zr 0.26586 0.26282 0.79137
 O652 O 0.24257 0.28798 0.76822
 Zr653 Zr 0.23634 0.20964 0.76756
 O654 O 0.21115 0.23251 0.74396
 Zr655 Zr 0.25937 0.29314 0.73090
 O656 O 0.28461 0.27078 0.75532
 Zr657 Zr 0.22925 0.23997 0.70761
 O658 O 0.25335 0.21478 0.73026
 Zr659 Zr 0.20614 0.26996 0.76074
 O660 O 0.22848 0.24570 0.78627
 O661 O 0.27298 0.22623 0.77478
 O662 O 0.22227 0.27698 0.72377
 C663 C 0.28505 0.17472 0.75440
 C664 C 0.32485 0.24701 0.78625
 C665 C 0.25275 0.21438 0.82644
 C666 C 0.21140 0.32854 0.74194
 C667 C 0.24020 0.28903 0.67278
 C668 C 0.17100 0.25864 0.71199
 H669 H 0.27594 0.25905 0.69595
 H670 H 0.19422 0.22316 0.74190
 H671 H 0.28427 0.21508 0.78605
 H672 H 0.24067 0.30501 0.77739
 H673 H 0.29368 0.32129 0.75569
 H674 H 0.28192 0.31058 0.79721
 H675 H 0.19671 0.20064 0.70423
 H676 H 0.22306 0.17418 0.73380
 H677 H 0.29280 0.31987 0.70270
 H678 H 0.33702 0.24190 0.71982
 H679 H 0.16882 0.23839 0.77505
 H680 H 0.19550 0.20887 0.79748
 H681 H 0.28834 0.20230 0.69779
 H682 H 0.26084 0.22636 0.67003
 H683 H 0.23159 0.27459 0.82697
 H684 H 0.20281 0.30273 0.79984
 O685 O 0.25462 0.79907 0.30635
 O686 O 0.29545 0.80349 0.28660
 O687 O 0.20001 0.80611 0.24247
 O688 O 0.19118 0.78568 0.20469
 O689 O 0.19200 0.74285 0.29891
 O690 O 0.21403 0.70203 0.30491
 O691 O 0.26686 0.73503 0.17379
 O692 O 0.25233 0.77726 0.17290
 O693 O 0.32452 0.73203 0.23471
 O694 O 0.32536 0.74368 0.28062
 O695 O 0.26418 0.67370 0.23219
 O696 O 0.21868 0.67243 0.24317
 O697 O 0.24762 0.69806 0.19022
 O698 O 0.20360 0.69214 0.21279
 O699 O 0.30091 0.69022 0.25168
 O700 O 0.30606 0.71290 0.29546
 O701 O 0.30792 0.75052 0.19753
 O702 O 0.28816 0.79539 0.19749
 O703 O 0.23553 0.76203 0.32287
 O704 O 0.24766 0.71646 0.32307
 O705 O 0.17560 0.76277 0.26238
 O706 O 0.17682 0.74820 0.21612
 O707 O 0.23607 0.82242 0.26347
 O708 O 0.28182 0.82107 0.24774
 Zr709 Zr 0.26143 0.78990 0.26664
 O710 O 0.28671 0.76696 0.24330
 Zr711 Zr 0.20819 0.76594 0.23706
 O712 O 0.23139 0.74271 0.21193
 Zr713 Zr 0.23194 0.73658 0.29027
 O714 O 0.25558 0.71145 0.26743
 Zr715 Zr 0.26871 0.75964 0.20688
 O716 O 0.24425 0.78481 0.22921
 Zr717 Zr 0.29192 0.72968 0.26008
 O718 O 0.26921 0.75373 0.28525
 Zr719 Zr 0.23886 0.70632 0.22992
 O720 O 0.21329 0.72860 0.25415
 O721 O 0.22472 0.77319 0.27371
 O722 O 0.27583 0.72259 0.22301
 C723 C 0.24504 0.78536 0.32531
 C724 C 0.21329 0.82500 0.25286
 C725 C 0.17307 0.75276 0.28542
 C726 C 0.25784 0.71155 0.17140
 C727 C 0.32680 0.74063 0.21109
 C728 C 0.28759 0.67138 0.24135
 H729 H 0.30359 0.77638 0.24108
 H730 H 0.25763 0.69454 0.27677
 H731 H 0.21342 0.78445 0.28485
 H732 H 0.22227 0.74074 0.19486
 H733 H 0.24396 0.79384 0.17872
 H734 H 0.20243 0.78194 0.18931
 H735 H 0.29525 0.69719 0.29937
 H736 H 0.26563 0.72347 0.32580
 H737 H 0.29696 0.79311 0.18025
 H738 H 0.27967 0.83740 0.25823
 H739 H 0.22450 0.66899 0.26141
 H740 H 0.20205 0.69562 0.29093
 H741 H 0.30166 0.78886 0.29782
 H742 H 0.32946 0.76142 0.27380
 H743 H 0.17265 0.73150 0.22520
 H744 H 0.19989 0.70281 0.19697
 O745 O 0.30202 0.80897 0.75398
 O746 O 0.30648 0.78917 0.79477
 O747 O 0.30922 0.74516 0.69931
 O748 O 0.28900 0.70721 0.69066
 O749 O 0.24593 0.80128 0.69123
 O750 O 0.20504 0.80716 0.71322
 O751 O 0.23817 0.67622 0.76623
 O752 O 0.28046 0.67544 0.75166
 O753 O 0.23495 0.73705 0.82381
 O754 O 0.24665 0.78297 0.82469
 O755 O 0.17680 0.73448 0.76339
 O756 O 0.17566 0.74554 0.71778
 O757 O 0.20118 0.69265 0.74703
 O758 O 0.19527 0.71501 0.70294
 O759 O 0.19322 0.75403 0.80013
 O760 O 0.21592 0.79783 0.80533
 O761 O 0.25357 0.69996 0.80722
 O762 O 0.29848 0.70003 0.78757
 O763 O 0.26495 0.82532 0.73481
 O764 O 0.21942 0.82543 0.74679
 O765 O 0.26581 0.76474 0.67488
 O766 O 0.25149 0.71850 0.67613
 O767 O 0.32552 0.76611 0.73539
 O768 O 0.32413 0.75038 0.78118
 Zr769 Zr 0.29295 0.76920 0.76075
 O770 O 0.27002 0.74579 0.78603
 Zr771 Zr 0.26909 0.73953 0.70753
 O772 O 0.24585 0.71435 0.73071
 Zr773 Zr 0.23962 0.79266 0.73118
 O774 O 0.21449 0.76978 0.75485
 Zr775 Zr 0.26277 0.70936 0.76804
 O776 O 0.28794 0.73176 0.74360
 Zr777 Zr 0.23270 0.76247 0.79121
 O778 O 0.25673 0.78769 0.76849
 Zr779 Zr 0.20945 0.73229 0.73812
 O780 O 0.23173 0.75653 0.71255
 O781 O 0.27626 0.77620 0.72401
 O782 O 0.22569 0.72542 0.77511
 C783 C 0.28824 0.82787 0.74439
 C784 C 0.32809 0.75556 0.71259
 C785 C 0.25580 0.78775 0.67232
 C786 C 0.21465 0.67385 0.75729
 C787 C 0.24356 0.71344 0.82608
 C788 C 0.17442 0.74364 0.78679
 H789 H 0.27941 0.74357 0.80292
 H790 H 0.19758 0.77909 0.75687
 H791 H 0.28750 0.78739 0.71271
 H792 H 0.24391 0.69728 0.72160
 H793 H 0.29706 0.68131 0.74335
 H794 H 0.28508 0.69178 0.70180
 H795 H 0.20020 0.80171 0.79453
 H796 H 0.22630 0.82814 0.76481
 H797 H 0.29621 0.68277 0.79634
 H798 H 0.34045 0.76090 0.77902
 H799 H 0.17204 0.76367 0.72379
 H800 H 0.19871 0.79318 0.70122
 H801 H 0.29180 0.80027 0.80104
 H802 H 0.26437 0.77614 0.82885
 H803 H 0.23468 0.72740 0.67204
 H804 H 0.20599 0.69922 0.69926
 O805 O 0.25462 0.19896 0.19280
 O806 O 0.29533 0.19454 0.21281
 O807 O 0.20009 0.19144 0.25697
 O808 O 0.19114 0.21193 0.29459
 O809 O 0.19175 0.25457 0.20036
 O810 O 0.21360 0.29569 0.19454
 O811 O 0.26689 0.26293 0.32554
 O812 O 0.25232 0.22061 0.32641
 O813 O 0.32439 0.26614 0.26470
 O814 O 0.32509 0.25444 0.21869
 O815 O 0.26398 0.32421 0.26708
 O816 O 0.21840 0.32520 0.25605
 O817 O 0.24769 0.29983 0.30900
 O818 O 0.20356 0.30552 0.28657
 O819 O 0.30074 0.30783 0.24772
 O820 O 0.30586 0.28526 0.20396
 O821 O 0.30791 0.24746 0.30182
 O822 O 0.28814 0.20260 0.30188
 O823 O 0.23528 0.23588 0.17640
 O824 O 0.24716 0.28145 0.17623
 O825 O 0.17544 0.23472 0.23695
 O826 O 0.17678 0.24928 0.28319
 O827 O 0.23588 0.17540 0.23552
 O828 O 0.28162 0.17686 0.25157
 Zr829 Zr 0.26129 0.20801 0.23262
 O830 O 0.28658 0.23104 0.25603
 Zr831 Zr 0.20812 0.23170 0.26224
 O832 O 0.23134 0.25506 0.28738
 Zr833 Zr 0.23166 0.26120 0.20905
 O834 O 0.25537 0.28642 0.23188
 Zr835 Zr 0.26866 0.23827 0.29245
 O836 O 0.24421 0.21299 0.27006
 Zr837 Zr 0.29174 0.26835 0.23927
 O838 O 0.26898 0.24423 0.21406
 Zr839 Zr 0.23872 0.29146 0.26936
 O840 O 0.21310 0.26906 0.24516
 O841 O 0.22453 0.22454 0.22557
 O842 O 0.27572 0.27536 0.27631
 C843 C 0.24497 0.21268 0.17387
 C844 C 0.21326 0.17267 0.24637
 C845 C 0.17286 0.24461 0.21387
 C846 C 0.25795 0.28643 0.32786
 C847 C 0.32674 0.25746 0.28829
 C848 C 0.28740 0.32662 0.25801
 H849 H 0.30347 0.22168 0.25826
 H850 H 0.25739 0.30334 0.22254
 H851 H 0.21325 0.21322 0.21440
 H852 H 0.22226 0.25699 0.30445
 H853 H 0.24399 0.20398 0.32059
 H854 H 0.20244 0.21566 0.30998
 H855 H 0.29499 0.30088 0.20001
 H856 H 0.26522 0.27473 0.17361
 H857 H 0.29691 0.20489 0.31916
 H858 H 0.27945 0.16054 0.24106
 H859 H 0.22424 0.32870 0.23784
 H860 H 0.20151 0.30187 0.20847
 H861 H 0.30161 0.20922 0.20170
 H862 H 0.32940 0.23683 0.22572
 H863 H 0.17261 0.26600 0.27414
 H864 H 0.19992 0.29483 0.30240
 O865 O 0.79954 0.69186 0.24580
 O866 O 0.80373 0.71167 0.20490
 O867 O 0.80701 0.75563 0.30039
 O868 O 0.78676 0.79342 0.30923
 O869 O 0.74359 0.69925 0.30855
 O870 O 0.70267 0.69324 0.28649
 O871 O 0.73564 0.82439 0.23377
 O872 O 0.77800 0.82528 0.24825
 O873 O 0.73236 0.76360 0.17599
 O874 O 0.74389 0.71766 0.17515
 O875 O 0.67431 0.76602 0.23647
 O876 O 0.67326 0.75478 0.28203
 O877 O 0.69881 0.80789 0.25320
 O878 O 0.69299 0.78520 0.29707
 O879 O 0.69062 0.74667 0.19965
 O880 O 0.71308 0.70286 0.19441
 O881 O 0.75089 0.80078 0.19267
 O882 O 0.79587 0.80081 0.21229
 O883 O 0.76255 0.67530 0.26494
 O884 O 0.71698 0.67506 0.25291
 O885 O 0.76375 0.73575 0.32488
 O886 O 0.74934 0.78195 0.32376
 O887 O 0.82309 0.73469 0.26429
 O888 O 0.82155 0.75048 0.21856
 Zr889 Zr 0.79041 0.73156 0.23899
 O890 O 0.76741 0.75496 0.21378
 Zr891 Zr 0.76682 0.76107 0.29229
 O892 O 0.74348 0.78621 0.26918
 Zr893 Zr 0.73720 0.70788 0.26859
 O894 O 0.71200 0.73073 0.24497
 Zr895 Zr 0.76023 0.79134 0.23184
 O896 O 0.78550 0.76897 0.25620
 Zr897 Zr 0.73007 0.73818 0.20860
 O898 O 0.75416 0.71297 0.23126
 Zr899 Zr 0.70704 0.76817 0.26178
 O900 O 0.72942 0.74396 0.28728
 O901 O 0.77388 0.72445 0.27574
 O902 O 0.72312 0.77518 0.22477
 C903 C 0.78583 0.67288 0.25541
 C904 C 0.82580 0.74526 0.28707
 C905 C 0.75364 0.71274 0.32746
 C906 C 0.71224 0.82674 0.24294
 C907 C 0.74093 0.78726 0.17377
 C908 C 0.67187 0.75699 0.21302
 H909 H 0.77675 0.75723 0.19688
 H910 H 0.69507 0.72140 0.24292
 H911 H 0.78517 0.71330 0.28702
 H912 H 0.74159 0.80325 0.27835
 H913 H 0.79464 0.81945 0.25653
 H914 H 0.78286 0.80884 0.29808
 H915 H 0.69742 0.69894 0.20524
 H916 H 0.72377 0.67246 0.23486
 H917 H 0.79357 0.81809 0.20355
 H918 H 0.83784 0.73995 0.22063
 H919 H 0.66962 0.73665 0.27597
 H920 H 0.69635 0.70720 0.29850
 H921 H 0.78908 0.70037 0.19878
 H922 H 0.76162 0.72451 0.17100
 H923 H 0.73261 0.77290 0.32792
 H924 H 0.70381 0.80093 0.30089
 O925 O 0.69131 0.24423 0.80067
 O926 O 0.71116 0.20351 0.80515
 O927 O 0.75520 0.29897 0.80804
 O928 O 0.79319 0.30749 0.78792
 O929 O 0.69903 0.30713 0.74472
 O930 O 0.69295 0.28506 0.70381
 O931 O 0.82395 0.23213 0.73694
 O932 O 0.82479 0.24655 0.77931
 O933 O 0.76295 0.17443 0.73361
 O934 O 0.71701 0.17365 0.74528
 O935 O 0.76548 0.23480 0.67553
 O936 O 0.75446 0.28044 0.67446
 O937 O 0.80740 0.25115 0.69991
 O938 O 0.78511 0.29523 0.69406
 O939 O 0.74582 0.19812 0.69184
 O940 O 0.70217 0.19292 0.71453
 O941 O 0.80019 0.19108 0.75206
 O942 O 0.80024 0.21060 0.79711
 O943 O 0.67492 0.26360 0.76373
 O944 O 0.67464 0.25154 0.71817
 O945 O 0.73564 0.32340 0.76472
 O946 O 0.78180 0.32211 0.75041
 O947 O 0.73420 0.26294 0.82428
 O948 O 0.74999 0.21718 0.82284
 Zr949 Zr 0.73108 0.23754 0.79167
 O950 O 0.75440 0.21226 0.76869
 Zr951 Zr 0.76078 0.29072 0.76792
 O952 O 0.78585 0.26753 0.74463
 Zr953 Zr 0.70752 0.26714 0.73837
 O954 O 0.73028 0.24343 0.71322
 Zr955 Zr 0.79084 0.23022 0.76147
 O956 O 0.76854 0.25466 0.78671
 Zr957 Zr 0.73759 0.20706 0.73136
 O958 O 0.71247 0.22982 0.75542
 Zr959 Zr 0.76779 0.26010 0.70821
 O960 O 0.74367 0.28571 0.73053
 O961 O 0.72409 0.27428 0.77504
 O962 O 0.77465 0.22312 0.72437
 C963 C 0.67239 0.25390 0.78694
 C964 C 0.74478 0.28574 0.82688
 C965 C 0.71262 0.32601 0.75467
 C966 C 0.82625 0.24100 0.71340
 C967 C 0.78663 0.17219 0.74212
 C968 C 0.75621 0.21144 0.67308
 H969 H 0.75662 0.19536 0.77805
 H970 H 0.72092 0.24140 0.69629
 H971 H 0.71294 0.28558 0.78629
 H972 H 0.80292 0.27664 0.74271
 H973 H 0.81895 0.25485 0.79593
 H974 H 0.80861 0.29640 0.78388
 H975 H 0.69817 0.20382 0.69893
 H976 H 0.67192 0.23354 0.72504
 H977 H 0.81748 0.20182 0.79479
 H978 H 0.73952 0.21934 0.83916
 H979 H 0.73634 0.27438 0.67077
 H980 H 0.70695 0.29702 0.69747
 H981 H 0.70002 0.19722 0.79044
 H982 H 0.72398 0.16943 0.76295
 H983 H 0.77289 0.32616 0.73357
 H984 H 0.80091 0.29894 0.70482
 C985 C 0.08704 1.00528 1.17727
 N986 N 0.11332 1.00132 1.17861
 N987 N 0.12533 0.99939 1.20172
 C988 C 0.11163 1.00105 1.22458
 N989 N 0.08525 1.00528 1.22329
 N990 N 0.07317 1.00733 1.20003
 C991 C 0.07431 1.00654 1.15134
 N992 N 0.04852 1.01292 1.14866
 N993 N 0.03736 1.01343 1.12490
 C994 C 0.05156 1.00750 1.10304
 N995 N 0.07730 1.00120 1.10579
 N996 N 0.08846 1.00083 1.12947
 C997 C 0.58702 0.50538 0.67742
 N998 N 0.57320 0.50799 0.70017
 N999 N 0.58532 0.50627 0.72345
 C1000 C 0.61166 0.50181 0.72476
 N1001 N 0.62529 0.49958 0.70191
 N1002 N 0.61325 0.50119 0.67879
 C1003 C 0.57432 0.50648 0.65147
 N1004 N 0.58847 0.50044 0.62967
 N1005 N 0.57740 0.50080 0.60596
 C1006 C 0.55175 0.50742 0.60307
 N1007 N 0.53756 0.51366 0.62484
 N1008 N 0.54863 0.51316 0.64865
 C1009 C 0.41462 -0.00154 0.67783
 N1010 N 0.38867 0.00418 0.67901
 N1011 N 0.37644 0.00557 0.70200
 C1012 C 0.38961 0.00164 0.72492
 N1013 N 0.41565 -0.00436 0.72379
 N1014 N 0.42796 -0.00585 0.70063
 C1015 C 0.42742 -0.00287 0.65199
 N1016 N 0.45275 -0.01084 0.64923
 N1017 N 0.46378 -0.01188 0.62545
 C1018 C 0.44989 -0.00496 0.60366
 N1019 N 0.42462 0.00298 0.60650
 N1020 N 0.41360 0.00392 0.63018
 C1021 C -0.08518 0.49732 1.17832
 N1022 N -0.11111 0.50306 1.17958
 N1023 N -0.12336 0.50412 1.20259
 C1024 C -0.11019 0.49982 1.22544
 N1025 N -0.08416 0.49379 1.22423
 N1026 N -0.07185 0.49263 1.20105
 C1027 C -0.07238 0.49635 1.15247
 N1028 N -0.04708 0.48834 1.14961
 N1029 N -0.03606 0.48758 1.12581
 C1030 C -0.04993 0.49484 1.10412
 N1031 N -0.07517 0.50284 1.10708
 N1032 N -0.08618 0.50349 1.13077
 C1033 C -0.08579 0.50464 0.32380
 N1034 N -0.11154 0.49802 0.32233
 N1035 N -0.12356 0.49629 0.29921
 C1036 C -0.11036 0.50077 0.27644
 N1037 N -0.08452 0.50766 0.27786
 N1038 N -0.07243 0.50947 0.30114
 C1039 C -0.07315 0.50627 0.34974
 N1040 N -0.04788 0.51446 0.35261
 N1041 N -0.03683 0.51541 0.37642
 C1042 C -0.05065 0.50820 0.39813
 N1043 N -0.07590 0.50012 0.39518
 N1044 N -0.08694 0.49926 0.37147
 C1045 C 0.41393 1.00680 -0.17668
 N1046 N 0.38795 1.00119 -0.17811
 N1047 N 0.37592 0.99960 -0.20124
 C1048 C 0.38933 1.00324 -0.22404
 N1049 N 0.41541 1.00913 -0.22266
 N1050 N 0.42752 1.01080 -0.19936
 C1051 C 0.42661 1.00807 -0.15074
 N1052 N 0.45208 1.01560 -0.14785
 N1053 N 0.46316 1.01620 -0.12405
 C1054 C 0.44916 1.00926 -0.10235
 N1055 N 0.42372 1.00183 -0.10531
 N1056 N 0.41265 1.00134 -0.12902
 C1057 C 0.58645 0.49477 -0.17703
 N1058 N 0.61267 0.49918 -0.17812
 N1059 N 0.62488 0.50091 -0.20111
 C1060 C 0.61143 0.49863 -0.22411
 N1061 N 0.58509 0.49396 -0.22308
 N1062 N 0.57281 0.49211 -0.19993
 C1063 C 0.57359 0.49344 -0.15120
 N1064 N 0.54788 0.48665 -0.14863
 N1065 N 0.53669 0.48594 -0.12491
 C1066 C 0.55079 0.49206 -0.10298
 N1067 N 0.57645 0.49878 -0.10563
 N1068 N 0.58764 0.49936 -0.12925
 C1069 C 0.08575 -0.00742 0.32250
 N1070 N 0.07208 -0.00851 0.29950
 N1071 N 0.08455 -0.00662 0.27645
 C1072 C 0.11112 -0.00353 0.27563
 N1073 N 0.12458 -0.00285 0.29872
 N1074 N 0.11220 -0.00462 0.32161
 C1075 C 0.07270 -0.00845 0.34823
 N1076 N 0.08686 -0.00329 0.37029
 N1077 N 0.07551 -0.00351 0.39384
 C1078 C 0.04957 -0.00912 0.39629
 N1079 N 0.03535 -0.01450 0.37425
 N1080 N 0.04670 -0.01411 0.35059
 C1081 C 0.17714 1.08610 1.00562
 N1082 N 0.17828 1.11220 1.00058
 N1083 N 0.20128 1.12440 0.99862
 C1084 C 0.22425 1.11106 1.00127
 N1085 N 0.22318 1.08486 1.00657
 N1086 N 0.20001 1.07257 1.00864
 C1087 C 0.15131 1.07322 1.00721
 N1088 N 0.14873 1.04762 1.01436
 N1089 N 0.12501 1.03638 1.01521
 C1090 C 0.10309 1.05033 1.00890
 N1091 N 0.10576 1.07589 1.00184
 N1092 N 0.12938 1.08713 1.00112
 C1093 C 0.67771 0.58606 0.50742
 N1094 N 0.67887 0.61234 0.50344
 N1095 N 0.70188 0.62453 0.50162
 C1096 C 0.72484 0.61102 0.50342
 N1097 N 0.72374 0.58463 0.50768
 N1098 N 0.70056 0.57236 0.50962
 C1099 C 0.65186 0.57316 0.50859
 N1100 N 0.64926 0.54738 0.51507
 N1101 N 0.62554 0.53611 0.51551
 C1102 C 0.60366 0.55019 0.50939
 N1103 N 0.60634 0.57593 0.50299
 N1104 N 0.62996 0.58719 0.50271
 C1105 C 0.67646 0.41383 -0.00533
 N1106 N 0.67779 0.38790 0.00046
 N1107 N 0.70086 0.37589 0.00232
 C1108 C 0.72372 0.38929 -0.00121
 N1109 N 0.72245 0.41531 -0.00728
 N1110 N 0.69921 0.42739 -0.00923
 C1111 C 0.65058 0.42650 -0.00692
 N1112 N 0.64785 0.45192 -0.01457
 N1113 N 0.62410 0.46301 -0.01544
 C1114 C 0.60230 0.44908 -0.00865
 N1115 N 0.60510 0.42368 -0.00110
 N1116 N 0.62875 0.41259 -0.00035
 C1117 C 0.17623 -0.08650 0.49393
 N1118 N 0.17766 -0.11258 0.49897
 N1119 N 0.20078 -0.12454 0.50045
 C1120 C 0.22359 -0.11096 0.49726
 N1121 N 0.22221 -0.08477 0.49196
 N1122 N 0.19892 -0.07274 0.49038
 C1123 C 0.15029 -0.07391 0.49278
 N1124 N 0.14741 -0.04837 0.48557
 N1125 N 0.12360 -0.03739 0.48499
 C1126 C 0.10189 -0.05154 0.49163
 N1127 N 0.10484 -0.07704 0.49877
 N1128 N 0.12856 -0.08802 0.49923
 C1129 C 0.32182 -0.08550 0.50235
 N1130 N 0.29902 -0.07204 0.50602
 N1131 N 0.27583 -0.08438 0.50452
 C1132 C 0.27468 -0.11059 0.49919
 N1133 N 0.29760 -0.12386 0.49587
 N1134 N 0.32061 -0.11160 0.49727
 C1135 C 0.34769 -0.07266 0.50358
 N1136 N 0.36949 -0.08666 0.49727
 N1137 N 0.39319 -0.07560 0.49807
 C1138 C 0.39607 -0.05013 0.50538
 N1139 N 0.37429 -0.03605 0.51182
 N1140 N 0.35048 -0.04712 0.51091
 C1141 C -0.17815 0.41476 1.00385
 N1142 N -0.17931 0.38859 0.99919
 N1143 N -0.20230 0.37628 0.99792
 C1144 C -0.22524 0.38958 1.00095
 N1145 N -0.22413 0.41587 1.00589
 N1146 N -0.20097 0.42826 1.00727
 C1147 C -0.15231 0.42766 1.00482
 N1148 N -0.14954 0.45328 1.01190
 N1149 N -0.12575 0.46440 1.01257
 C1150 C -0.10399 0.45031 1.00611
 N1151 N -0.10685 0.42476 0.99906
 N1152 N -0.13053 0.41366 0.99851
 C1153 C -0.17700 0.58619 0.49545
 N1154 N -0.19987 0.57241 0.49340
 N1155 N -0.22304 0.58464 0.49534
 C1156 C -0.22410 0.61105 0.49947
 N1157 N -0.20113 0.62464 0.50114
 N1158 N -0.17812 0.61249 0.49931
 C1159 C -0.15118 0.57336 0.49417
 N1160 N -0.12921 0.58752 0.49974
 N1161 N -0.10560 0.57634 0.49927
 C1162 C -0.10298 0.55057 0.49298
 N1163 N -0.12493 0.53637 0.48720
 N1164 N -0.14864 0.54755 0.48781
 C1165 C 0.32248 1.08645 -0.00551
 N1166 N 0.29965 1.07271 -0.00820
 N1167 N 0.27645 1.08490 -0.00647
 C1168 C 0.27531 1.11124 -0.00190
 N1169 N 0.29825 1.12480 0.00039
 N1170 N 0.32128 1.11268 -0.00123
 C1171 C 0.34833 1.07364 -0.00662
 N1172 N 0.37022 1.08773 -0.00062
 N1173 N 0.39385 1.07657 -0.00098
 C1174 C 0.39654 1.05088 -0.00756
 N1175 N 0.37467 1.03674 -0.01377
 N1176 N 0.35095 1.04792 -0.01328
 C1177 C 0.00369 1.17693 1.08584
 N1178 N 0.00889 1.19956 1.07257
 N1179 N 0.00717 1.22284 1.08465
 C1180 C -0.00002 1.22427 1.11039
 N1181 N -0.00488 1.20153 1.12351
 N1182 N -0.00324 1.17841 1.11149
 C1183 C 0.00537 1.15099 1.07324
 N1184 N -0.00162 1.12924 1.08703
 N1185 N -0.00063 1.10553 1.07604
 C1186 C 0.00757 1.10259 1.05085
 N1187 N 0.01474 1.12433 1.03702
 N1188 N 0.01367 1.14814 1.04803
 C1189 C 0.50641 0.67692 0.58603
 N1190 N 0.50998 0.69967 0.57242
 N1191 N 0.50835 0.72292 0.58458
 C1192 C 0.50295 0.72419 0.61076
 N1193 N 0.49974 0.70133 0.62420
 N1194 N 0.50128 0.67825 0.61211
 C1195 C 0.50762 0.65103 0.57329
 N1196 N 0.50128 0.62922 0.58729
 N1197 N 0.50178 0.60554 0.57618
 C1198 C 0.50885 0.60271 0.55064
 N1199 N 0.51539 0.62450 0.53659
 N1200 N 0.51477 0.64827 0.54771
 C1201 C -0.00538 0.67663 0.41385
 N1202 N -0.00135 0.67772 0.38758
 N1203 N 0.00032 0.70071 0.37534
 C1204 C -0.00167 0.72370 0.38881
 N1205 N -0.00597 0.72267 0.41520
 N1206 N -0.00775 0.69952 0.42751
 C1207 C -0.00655 0.65081 0.42677
 N1208 N -0.01309 0.64825 0.45253
 N1209 N -0.01366 0.62455 0.46378
 C1210 C -0.00765 0.60263 0.44969
 N1211 N -0.00118 0.60526 0.42397
 N1212 N -0.00075 0.62887 0.41273
 C1213 C 0.49335 1.17705 -0.08619
 N1214 N 0.49115 1.19992 -0.07247
 N1215 N 0.49284 1.22309 -0.08476
 C1216 C 0.49685 1.22416 -0.11119
 N1217 N 0.49864 1.20119 -0.12473
 N1218 N 0.49707 1.17818 -0.11251
 C1219 C 0.49239 1.15123 -0.07329
 N1220 N 0.49822 1.12933 -0.08738
 N1221 N 0.49800 1.10573 -0.07614
 C1222 C 0.49172 1.10306 -0.05038
 N1223 N 0.48569 1.12494 -0.03624
 N1224 N 0.48606 1.14864 -0.04748
 C1225 C 0.50459 0.32244 -0.08642
 N1226 N 0.50692 0.29962 -0.07267
 N1227 N 0.50494 0.27641 -0.08487
 C1228 C 0.50048 0.27524 -0.11124
 N1229 N 0.49852 0.29817 -0.12481
 N1230 N 0.50039 0.32121 -0.11268
 C1231 C 0.50597 0.34830 -0.07362
 N1232 N 0.50031 0.37020 -0.08777
 N1233 N 0.50088 0.39386 -0.07660
 C1234 C 0.50735 0.39657 -0.05087
 N1235 N 0.51322 0.37469 -0.03668
 N1236 N 0.51251 0.35094 -0.04785
 C1237 C 0.00579 -0.17791 0.41334
 N1238 N 0.00825 -0.20070 0.42714
 N1239 N 0.00636 -0.22395 0.41499
 C1240 C 0.00185 -0.22519 0.38863
 N1241 N -0.00022 -0.20230 0.37501
 N1242 N 0.00156 -0.17922 0.38709
 C1243 C 0.00699 -0.15200 0.42610
 N1244 N 0.00094 -0.13018 0.41199
 N1245 N 0.00131 -0.10651 0.42313
 C1246 C 0.00797 -0.10369 0.44880
 N1247 N 0.01424 -0.12549 0.46295
 N1248 N 0.01373 -0.14926 0.45181
 C1249 C 0.49782 -0.17771 0.58543
 N1250 N 0.49358 -0.20053 0.57209
 N1251 N 0.49508 -0.22368 0.58444
 C1252 C 0.50100 -0.22477 0.61054
 N1253 N 0.50483 -0.20182 0.62371
 N1254 N 0.50344 -0.17885 0.61142
 C1255 C 0.49661 -0.15190 0.57253
 N1256 N 0.50370 -0.13009 0.58624
 N1257 N 0.50287 -0.10645 0.57512
 C1258 C 0.49475 -0.10363 0.54988
 N1259 N 0.48753 -0.12542 0.53611
 N1260 N 0.48847 -0.14917 0.54723
 C1261 C -0.00292 0.32231 1.08511
 N1262 N -0.00826 0.29962 1.07193
 N1263 N -0.00715 0.27645 1.08428
 C1264 C -0.00052 0.27521 1.11019
 N1265 N 0.00442 0.29803 1.12321
 N1266 N 0.00341 0.32102 1.11093
 C1267 C -0.00388 0.34814 1.07228
 N1268 N 0.00386 0.36978 1.08589
 N1269 N 0.00317 0.39347 1.07487
 C1270 C -0.00546 0.39649 1.04983
 N1271 N -0.01331 0.37486 1.03614
 N1272 N -0.01252 0.35107 1.04716
 C1273 C 0.75242 0.33406 0.07301
 N1274 N 0.74468 0.35945 0.07129
 N1275 N 0.74323 0.37136 0.04811
 C1276 C 0.74910 0.35835 0.02552
 N1277 N 0.75709 0.33288 0.02720
 N1278 N 0.75860 0.32091 0.05055
 C1279 C 0.75408 0.32163 0.09903
 N1280 N 0.76297 0.29666 0.10209
 N1281 N 0.76409 0.28582 0.12595
 C1282 C 0.75640 0.29957 0.14755
 N1283 N 0.74762 0.32453 0.14443
 N1284 N 0.74656 0.33536 0.12064
 C1285 C 0.25185 0.83383 0.57133
 N1286 N 0.24440 0.85930 0.56960
 N1287 N 0.24320 0.87124 0.54643
 C1288 C 0.24905 0.85819 0.52386
 N1289 N 0.25678 0.83264 0.52556
 N1290 N 0.25805 0.82064 0.54890
 C1291 C 0.25324 0.82140 0.59735
 N1292 N 0.26231 0.79651 0.60056
 N1293 N 0.26342 0.78579 0.62449
 C1294 C 0.25552 0.79959 0.64598
 N1295 N 0.24649 0.82443 0.64270
 N1296 N 0.24544 0.83513 0.61886
 C1297 C 0.75028 0.66732 0.57401
 N1298 N 0.74216 0.67984 0.55181
 N1299 N 0.74275 0.66759 0.52856
 C1300 C 0.75172 0.64245 0.52669
 N1301 N 0.75950 0.63006 0.54904
 N1302 N 0.75898 0.64225 0.57212
 C1303 C 0.74938 0.67993 0.59999
 N1304 N 0.75851 0.66675 0.62132
 N1305 N 0.75768 0.67755 0.64514
 C1306 C 0.74757 0.70195 0.64859
 N1307 N 0.73837 0.71521 0.62727
 N1308 N 0.73924 0.70439 0.60337
 C1309 C 0.24848 0.16677 0.07269
 N1310 N 0.25660 0.14151 0.07078
 N1311 N 0.25748 0.12954 0.04759
 C1312 C 0.25064 0.14235 0.02517
 N1313 N 0.24226 0.16768 0.02705
 N1314 N 0.24132 0.17972 0.05040
 C1315 C 0.24726 0.17916 0.09876
 N1316 N 0.23794 0.20395 0.10211
 N1317 N 0.23693 0.21463 0.12607
 C1318 C 0.24515 0.20088 0.14749
 N1319 N 0.25441 0.17614 0.14406
 N1320 N 0.25538 0.16549 0.12019
 C1321 C 0.25037 0.16741 0.92711
 N1322 N 0.25718 0.18035 0.94955
 N1323 N 0.25651 0.16807 0.97277
 C1324 C 0.24880 0.14248 0.97436
 N1325 N 0.24233 0.12969 0.95179
 N1326 N 0.24292 0.14190 0.92873
 C1327 C 0.25121 0.18012 0.90119
 N1328 N 0.24297 0.16660 0.87967
 N1329 N 0.24364 0.17751 0.85592
 C1330 C 0.25272 0.20238 0.85271
 N1331 N 0.26105 0.21598 0.87422
 N1332 N 0.26031 0.20505 0.89806
 C1333 C 0.75068 0.66671 0.42853
 N1334 N 0.74235 0.64150 0.43050
 N1335 N 0.74175 0.62949 0.45366
 C1336 C 0.74910 0.64222 0.47600
 N1337 N 0.75768 0.66751 0.47406
 N1338 N 0.75834 0.67958 0.45073
 C1339 C 0.75167 0.67914 0.40248
 N1340 N 0.76135 0.70381 0.39909
 N1341 N 0.76223 0.71451 0.37515
 C1342 C 0.75350 0.70091 0.35380
 N1343 N 0.74386 0.67629 0.35727
 N1344 N 0.74303 0.66561 0.38112
 C1345 C 0.24746 0.83274 0.42581
 N1346 N 0.24192 0.81961 0.44844
 N1347 N 0.24286 0.83199 0.47163
 C1348 C 0.24955 0.85788 0.47295
 N1349 N 0.25475 0.87085 0.45019
 N1350 N 0.25389 0.85854 0.42719
 C1351 C 0.24652 0.81991 0.39995
 N1352 N 0.25388 0.83364 0.37830
 N1353 N 0.25321 0.82262 0.35459
 C1354 C 0.24500 0.79743 0.35156
 N1355 N 0.23753 0.78361 0.37319
 N1356 N 0.23828 0.79466 0.39701
 C1357 C 0.74768 0.33290 0.92749
 N1358 N 0.74124 0.32000 0.95002
 N1359 N 0.74216 0.33237 0.97321
 C1360 C 0.74974 0.35801 0.97465
 N1361 N 0.75579 0.37076 0.95199
 N1362 N 0.75496 0.35846 0.92897
 C1363 C 0.74672 0.32009 0.90161
 N1364 N 0.75506 0.33350 0.88011
 N1365 N 0.75429 0.32253 0.85637
 C1366 C 0.74500 0.29774 0.85316
 N1367 N 0.73657 0.28425 0.87466
 N1368 N 0.73742 0.29524 0.89849
 C1369 C 0.83452 0.42686 0.24706
 N1370 N 0.82103 0.44936 0.24192
 N1371 N 0.83295 0.47275 0.24353
 C1372 C 0.85874 0.47443 0.25052
 N1373 N 0.87208 0.45180 0.25532
 N1374 N 0.86022 0.42858 0.25379
 C1375 C 0.82209 0.40081 0.24554
 N1376 N 0.83603 0.37922 0.25267
 N1377 N 0.82520 0.35540 0.25181
 C1378 C 0.80002 0.35222 0.24360
 N1379 N 0.78605 0.37379 0.23629
 N1380 N 0.79689 0.39769 0.23724
 C1381 C 0.33428 0.92899 0.74766
 N1382 N 0.32082 0.95141 0.74207
 N1383 N 0.33277 0.97480 0.74330
 C1384 C 0.35854 0.97658 0.75034
 N1385 N 0.37184 0.95403 0.75559
 N1386 N 0.35996 0.93080 0.75445
 C1387 C 0.32188 0.90292 0.74642
 N1388 N 0.33586 0.88143 0.75376
 N1389 N 0.32515 0.85757 0.75289
 C1390 C 0.30006 0.85423 0.74448
 N1391 N 0.28602 0.87571 0.73702
 N1392 N 0.29674 0.89967 0.73797
 C1393 C 0.16713 0.92596 0.24995
 N1394 N 0.18009 0.94819 0.25739
 N1395 N 0.16796 0.97148 0.25694
 C1396 C 0.14251 0.97333 0.24887
 N1397 N 0.12970 0.95097 0.24170
 N1398 N 0.14178 0.92785 0.24206
 C1399 C 0.17964 0.89996 0.25076
 N1400 N 0.16619 0.87860 0.24197
 N1401 N 0.17691 0.85478 0.24277
 C1402 C 0.20148 0.85133 0.25254
 N1403 N 0.21500 0.87268 0.26140
 N1404 N 0.20427 0.89659 0.26053
 C1405 C 0.66691 0.42717 0.75150
 N1406 N 0.64156 0.42908 0.74363
 N1407 N 0.62964 0.45227 0.74286
 C1408 C 0.64259 0.47468 0.74956
 N1409 N 0.66803 0.47280 0.75769
 N1410 N 0.68001 0.44945 0.75853
 C1411 C 0.67927 0.40110 0.75257
 N1412 N 0.70405 0.39772 0.76195
 N1413 N 0.71467 0.37376 0.76288
 C1414 C 0.70089 0.35239 0.75449
 N1415 N 0.67616 0.35585 0.74514
 N1416 N 0.66555 0.37972 0.74427
 C1417 C 0.66787 0.57278 0.74976
 N1418 N 0.68071 0.55039 0.74278
 N1419 N 0.66842 0.52715 0.74349
 C1420 C 0.64292 0.52550 0.75143
 N1421 N 0.63023 0.54802 0.75809
 N1422 N 0.64246 0.57109 0.75744
 C1423 C 0.68057 0.59874 0.74883
 N1424 N 0.66708 0.62021 0.75711
 N1425 N 0.67796 0.64399 0.75635
 C1426 C 0.70275 0.64729 0.74714
 N1427 N 0.71631 0.62583 0.73877
 N1428 N 0.70541 0.60195 0.73959
 C1429 C 0.16768 0.07131 0.25037
 N1430 N 0.17916 0.04968 0.23965
 N1431 N 0.16700 0.02637 0.24032
 C1432 C 0.14309 0.02382 0.25206
 N1433 N 0.13172 0.04563 0.26245
 N1434 N 0.14380 0.06878 0.26181
 C1435 C 0.18001 0.09743 0.24914
 N1436 N 0.16733 0.11844 0.25958
 N1437 N 0.17788 0.14237 0.25848
 C1438 C 0.20153 0.14625 0.24682
 N1439 N 0.21428 0.12524 0.23633
 N1440 N 0.20369 0.10124 0.23741
 C1441 C 0.33270 0.07450 0.75222
 N1442 N 0.35857 0.07332 0.74612
 N1443 N 0.37095 0.05039 0.74527
 C1444 C 0.35801 0.02753 0.75015
 N1445 N 0.33205 0.02866 0.75651
 N1446 N 0.31959 0.05176 0.75745
 C1447 C 0.31978 0.10027 0.75309
 N1448 N 0.29448 0.10306 0.76112
 N1449 N 0.28336 0.12681 0.76181
 C1450 C 0.29715 0.14853 0.75446
 N1451 N 0.32239 0.14564 0.74645
 N1452 N 0.33348 0.12200 0.74585
 C1453 C 0.83318 0.57249 0.25327
 N1454 N 0.85914 0.57129 0.24763
 N1455 N 0.87144 0.54833 0.24669
 C1456 C 0.85833 0.52545 0.25101
 N1457 N 0.83226 0.52659 0.25691
 N1458 N 0.81988 0.54973 0.25796
 C1459 C 0.82033 0.59832 0.25415
 N1460 N 0.79496 0.60117 0.26194
 N1461 N 0.78393 0.62495 0.26262
 C1462 C 0.79787 0.64666 0.25550
 N1463 N 0.82317 0.64371 0.24773
 N1464 N 0.83419 0.62003 0.24715
 C1465 C 0.92664 0.25422 0.16570
 N1466 N 0.92816 0.24740 0.14002
 N1467 N 0.95130 0.24569 0.12811
 C1468 C 0.97404 0.25036 0.14138
 N1469 N 0.97257 0.25744 0.16716
 N1470 N 0.94926 0.25923 0.17913
 C1471 C 0.90066 0.25587 0.17819
 N1472 N 0.89771 0.26421 0.20339
 N1473 N 0.87388 0.26517 0.21430
 C1474 C 0.85220 0.25785 0.20039
 N1475 N 0.85522 0.24963 0.17521
 N1476 N 0.87896 0.24875 0.16431
 C1477 C 0.42896 0.75203 0.66627
 N1478 N 0.43068 0.74430 0.64086
 N1479 N 0.45381 0.74325 0.62885
 C1480 C 0.47637 0.74952 0.64178
 N1481 N 0.47469 0.75754 0.66727
 N1482 N 0.45138 0.75868 0.67933
 C1483 C 0.40298 0.75323 0.67878
 N1484 N 0.39976 0.76273 0.70354
 N1485 N 0.37587 0.76373 0.71432
 C1486 C 0.35441 0.75527 0.70072
 N1487 N 0.35770 0.74580 0.67602
 N1488 N 0.38150 0.74487 0.66526
 C1489 C 0.42582 0.24948 0.83278
 N1490 N 0.42769 0.25726 0.85817
 N1491 N 0.45082 0.25772 0.87031
 C1492 C 0.47321 0.25078 0.85755
 N1493 N 0.47136 0.24273 0.83207
 N1494 N 0.44807 0.24219 0.81988
 C1495 C 0.39982 0.24873 0.82017
 N1496 N 0.39643 0.23914 0.79546
 N1497 N 0.37251 0.23841 0.78463
 C1498 C 0.35120 0.24722 0.79813
 N1499 N 0.35468 0.25679 0.82279
 N1500 N 0.37850 0.25747 0.83360
 C1501 C 0.92698 0.74844 0.33310
 N1502 N 0.92899 0.75670 0.35833
 N1503 N 0.95218 0.75737 0.37034
 C1504 C 0.97450 0.75018 0.35758
 N1505 N 0.97251 0.74165 0.33228
 N1506 N 0.94915 0.74090 0.32021
 C1507 C 0.90091 0.74745 0.32064
 N1508 N 0.89742 0.73759 0.29605
 N1509 N 0.87346 0.73667 0.28535
 C1510 C 0.85219 0.74557 0.29886
 N1511 N 0.85576 0.75541 0.32339
 N1512 N 0.87963 0.75627 0.33408
 C1513 C 0.07242 0.74982 0.33230
 N1514 N 0.07078 0.74186 0.35764
 N1515 N 0.04776 0.74120 0.36990
 C1516 C 0.02524 0.74811 0.35730
 N1517 N 0.02684 0.75633 0.33188
 N1518 N 0.05003 0.75706 0.31957
 C1519 C 0.09833 0.75080 0.31960
 N1520 N 0.10148 0.76021 0.29481
 N1521 N 0.12532 0.76108 0.28389
 C1522 C 0.14680 0.75260 0.29739
 N1523 N 0.14356 0.74323 0.32213
 N1524 N 0.11982 0.74241 0.33302
 C1525 C 0.57137 0.25052 0.83296
 N1526 N 0.56951 0.24230 0.85820
 N1527 N 0.54638 0.24153 0.87024
 C1528 C 0.52396 0.24857 0.85752
 N1529 N 0.52579 0.25704 0.83219
 N1530 N 0.54909 0.25788 0.82009
 C1531 C 0.59739 0.25168 0.82052
 N1532 N 0.60071 0.26107 0.79574
 N1533 N 0.62464 0.26206 0.78504
 C1534 C 0.64605 0.25374 0.79875
 N1535 N 0.64265 0.24440 0.82348
 N1536 N 0.61881 0.24346 0.83415
 C1537 C 0.57440 0.74806 0.66719
 N1538 N 0.55178 0.74242 0.68029
 N1539 N 0.52859 0.74337 0.66791
 C1540 C 0.52725 0.75016 0.64205
 N1541 N 0.55001 0.75545 0.62912
 N1542 N 0.57302 0.75459 0.64143
 C1543 C 0.60028 0.74709 0.68002
 N1544 N 0.62194 0.75450 0.66633
 N1545 N 0.64565 0.75381 0.67735
 C1546 C 0.64868 0.74553 0.70251
 N1547 N 0.62703 0.73801 0.71628
 N1548 N 0.60322 0.73878 0.70524
 C1549 C 0.07224 0.24697 0.16669
 N1550 N 0.04953 0.24236 0.18004
 N1551 N 0.02632 0.24353 0.16773
 C1552 C 0.02506 0.24949 0.14166
 N1553 N 0.04790 0.25373 0.12849
 N1554 N 0.07093 0.25266 0.14074
 C1555 C 0.09814 0.24601 0.17948
 N1556 N 0.11979 0.25316 0.16564
 N1557 N 0.14353 0.25253 0.17661
 C1558 C 0.14659 0.24454 0.20185
 N1559 N 0.12495 0.23726 0.21577
 N1560 N 0.10110 0.23800 0.20478
 C1561 C -0.08147 0.99961 0.82220
 N1562 N -0.07096 0.98775 0.80067
 N1563 N -0.08327 0.98881 0.77747
 C1564 C -0.10633 1.00213 0.77488
 N1565 N -0.11675 1.01370 0.79658
 N1566 N -0.10452 1.01264 0.81965
 C1567 C -0.06908 0.99790 0.84825
 N1568 N -0.08138 1.00867 0.86932
 N1569 N -0.07076 1.00726 0.89319
 C1570 C -0.04742 0.99498 0.89697
 N1571 N -0.03504 0.98414 0.87590
 N1572 N -0.04573 0.98551 0.85195
 C1573 C 0.41776 0.49787 0.32250
 N1574 N 0.43025 0.49028 0.30012
 N1575 N 0.41789 0.49122 0.27693
 C1576 C 0.39268 0.50004 0.27530
 N1577 N 0.38031 0.50729 0.29782
 N1578 N 0.39261 0.50641 0.32085
 C1579 C 0.43052 0.49667 0.34842
 N1580 N 0.41732 0.50534 0.36990
 N1581 N 0.42827 0.50441 0.39365
 C1582 C 0.45285 0.49463 0.39689
 N1583 N 0.46613 0.48586 0.37542
 N1584 N 0.45515 0.48685 0.35157
 C1585 C 0.58426 0.00392 0.32355
 N1586 N 0.57090 0.00875 0.30086
 N1587 N 0.58299 0.00700 0.27761
 C1588 C 0.60881 0.00015 0.27624
 N1589 N 0.62202 -0.00434 0.29904
 N1590 N 0.61000 -0.00266 0.32214
 C1591 C 0.57161 0.00552 0.34946
 N1592 N 0.58547 -0.00119 0.37126
 N1593 N 0.57442 -0.00038 0.39493
 C1594 C 0.54908 0.00734 0.39778
 N1595 N 0.53518 0.01426 0.37599
 N1596 N 0.54625 0.01337 0.35222
 C1597 C 0.08412 0.50491 0.82395
 N1598 N 0.07096 0.51055 0.80134
 N1599 N 0.08311 0.50912 0.77811
 C1600 C 0.10880 0.50178 0.77668
 N1601 N 0.12181 0.49645 0.79940
 N1602 N 0.10972 0.49782 0.82248
 C1603 C 0.07144 0.50629 0.84984
 N1604 N 0.08518 0.49911 0.87157
 N1605 N 0.07412 0.49980 0.89524
 C1606 C 0.04890 0.50786 0.89815
 N1607 N 0.03511 0.51523 0.87645
 N1608 N 0.04619 0.51448 0.85268
 C1609 C 0.08327 0.49924 0.67876
 N1610 N 0.10854 0.50752 0.68022
 N1611 N 0.12086 0.50877 0.70322
 C1612 C 0.10840 0.50218 0.72589
 N1613 N 0.08307 0.49359 0.72446
 N1614 N 0.07068 0.49227 0.70129
 C1615 C 0.07046 0.49778 0.65289
 N1616 N 0.04561 0.48837 0.64990
 N1617 N 0.03457 0.48725 0.62608
 C1618 C 0.04802 0.49547 0.60449
 N1619 N 0.07281 0.50481 0.60757
 N1620 N 0.08381 0.50588 0.63128
 C1621 C 0.58314 0.99676 0.17822
 N1622 N 0.60912 1.00245 0.17940
 N1623 N 0.62152 1.00350 0.20236
 C1624 C 0.60848 0.99923 0.22526
 N1625 N 0.58241 0.99324 0.22414
 N1626 N 0.56993 0.99209 0.20100
 C1627 C 0.57015 0.99591 0.15241
 N1628 N 0.54475 0.98809 0.14958
 N1629 N 0.53357 0.98752 0.12581
 C1630 C 0.54741 0.99480 0.10411
 N1631 N 0.57274 1.00258 0.10705
 N1632 N 0.58390 1.00305 0.13071
 C1633 C 0.41718 0.50073 0.17733
 N1634 N 0.39225 0.49156 0.17916
 N1635 N 0.38015 0.49052 0.20226
 C1636 C 0.39253 0.49822 0.22468
 N1637 N 0.41752 0.50768 0.22286
 N1638 N 0.42968 0.50878 0.19960
 C1639 C 0.42971 0.50214 0.15135
 N1640 N 0.45420 0.51233 0.14810
 N1641 N 0.46500 0.51346 0.12422
 C1642 C 0.45168 0.50450 0.10279
 N1643 N 0.42723 0.49438 0.10613
 N1644 N 0.41645 0.49328 0.12991
 C1645 C -0.08264 0.00097 0.67719
 N1646 N -0.06946 0.00737 0.69961
 N1647 N -0.08163 0.00676 0.72287
 C1648 C -0.10737 -0.00042 0.72450
 N1649 N -0.12039 -0.00660 0.70197
 N1650 N -0.10827 -0.00607 0.67887
 C1651 C -0.07005 0.00188 0.65123
 N1652 N -0.08384 -0.00583 0.62970
 N1653 N -0.07305 -0.00501 0.60591
 C1654 C -0.04805 0.00369 0.60268
 N1655 N -0.03417 0.01148 0.62421
 N1656 N -0.04499 0.01060 0.64810
 C1657 C -0.17796 0.91731 0.99990
 N1658 N -0.20003 0.92933 0.99080
 N1659 N -0.22332 0.91718 0.99197
 C1660 C -0.22538 0.89271 1.00261
 N1661 N -0.20315 0.88078 1.01137
 N1662 N -0.18002 0.89286 1.01022
 C1663 C -0.15192 0.92976 0.99831
 N1664 N -0.13058 0.91667 1.00749
 N1665 N -0.10674 0.92738 1.00626
 C1666 C -0.10327 0.95161 0.99570
 N1667 N -0.12461 0.96478 0.98642
 N1668 N -0.14854 0.95402 0.98766
 C1669 C 0.32262 0.41722 0.49841
 N1670 N 0.30028 0.42999 0.49118
 N1671 N 0.27701 0.41779 0.49213
 C1672 C 0.27527 0.39245 0.50057
 N1673 N 0.29775 0.37981 0.50748
 N1674 N 0.32086 0.39195 0.50659
 C1675 C 0.34859 0.42983 0.49723
 N1676 N 0.37005 0.41636 0.50553
 N1677 N 0.39384 0.42721 0.50463
 C1678 C 0.39714 0.45195 0.49527
 N1679 N 0.37569 0.46550 0.48687
 N1680 N 0.35180 0.45462 0.48782
 C1681 C 0.32199 0.58265 0.00042
 N1682 N 0.29947 0.57006 0.00751
 N1683 N 0.27634 0.58243 0.00629
 C1684 C 0.27491 0.60772 -0.00233
 N1685 N 0.29756 0.62018 -0.00905
 N1686 N 0.32054 0.60789 -0.00789
 C1687 C 0.34783 0.56988 0.00182
 N1688 N 0.36944 0.58324 -0.00634
 N1689 N 0.39313 0.57227 -0.00529
 C1690 C 0.39619 0.54753 0.00410
 N1691 N 0.37460 0.53409 0.01238
 N1692 N 0.35080 0.54508 0.01128
 C1693 C -0.17799 0.08268 0.50234
 N1694 N -0.17922 0.10844 0.49584
 N1695 N -0.20217 0.12078 0.49479
 C1696 C -0.22502 0.10787 0.49984
 N1697 N -0.22382 0.08202 0.50665
 N1698 N -0.20070 0.06961 0.50779
 C1699 C -0.15219 0.06977 0.50332
 N1700 N -0.14931 0.04463 0.51186
 N1701 N -0.12555 0.03353 0.51257
 C1702 C -0.10391 0.04717 0.50476
 N1703 N -0.10688 0.07225 0.49626
 N1704 N -0.13053 0.08333 0.49563
 C1705 C 0.67675 0.08341 0.49572
 N1706 N 0.67821 0.10911 0.50252
 N1707 N 0.70132 0.12120 0.50412
 C1708 C 0.72407 0.10810 0.49933
 N1709 N 0.72264 0.08232 0.49226
 N1710 N 0.69938 0.07016 0.49059
 C1711 C 0.65082 0.07071 0.49418
 N1712 N 0.64794 0.04542 0.48605
 N1713 N 0.62414 0.03434 0.48515
 C1714 C 0.60244 0.04817 0.49234
 N1715 N 0.60540 0.07343 0.50035
 N1716 N 0.62910 0.08449 0.50117
 C1717 C 0.17683 0.58333 0.99554
 N1718 N 0.17843 0.60885 1.00297
 N1719 N 0.20154 0.62096 1.00423
 C1720 C 0.22417 0.60804 0.99844
 N1721 N 0.22260 0.58245 0.99075
 N1722 N 0.19933 0.57027 0.98943
 C1723 C 0.15089 0.57066 0.99421
 N1724 N 0.14787 0.54553 0.98563
 N1725 N 0.12405 0.53449 0.98486
 C1726 C 0.10247 0.54820 0.99261
 N1727 N 0.10557 0.57330 1.00108
 N1728 N 0.12929 0.58432 1.00179
 C1729 C 0.17754 0.41778 0.50112
 N1730 N 0.17917 0.39281 0.49204
 N1731 N 0.20217 0.38054 0.49103
 C1732 C 0.22467 0.39277 0.49870
 N1733 N 0.22306 0.41780 0.50808
 N1734 N 0.19991 0.43014 0.50912
 C1735 C 0.15165 0.43045 0.50258
 N1736 N 0.14860 0.45511 0.51239
 N1737 N 0.12476 0.46599 0.51362
 C1738 C 0.10320 0.45256 0.50515
 N1739 N 0.10635 0.42795 0.49542
 N1740 N 0.13009 0.41711 0.49420
 C1741 C 0.67694 0.91763 0.00233
 N1742 N 0.67842 0.89211 -0.00510
 N1743 N 0.70141 0.87981 -0.00577
 C1744 C 0.72404 0.89253 0.00062
 N1745 N 0.72260 0.91814 0.00827
 N1746 N 0.69945 0.93050 0.00902
 C1747 C 0.65108 0.93042 0.00333
 N1748 N 0.64810 0.95543 0.01222
 N1749 N 0.62429 0.96641 0.01310
 C1750 C 0.60268 0.95275 0.00515
 N1751 N 0.60575 0.92779 -0.00371
 N1752 N 0.62946 0.91684 -0.00454
 C1753 C -0.00022 0.82200 0.91734
 N1754 N -0.00681 0.79940 0.93002
 N1755 N -0.00556 0.77627 0.91760
 C1756 C 0.00256 0.77494 0.89213
 N1757 N 0.00879 0.79768 0.87959
 N1758 N 0.00760 0.82065 0.89194
 C1759 C -0.00165 0.84785 0.93017
 N1760 N 0.00605 0.86953 0.91669
 N1761 N 0.00495 0.89323 0.92768
 C1762 C -0.00403 0.89622 0.95259
 N1763 N -0.01184 0.87455 0.96616
 N1764 N -0.01069 0.85074 0.95514
 C1765 C 0.49829 0.32206 0.41719
 N1766 N 0.49260 0.29940 0.43022
 N1767 N 0.49352 0.27625 0.41779
 C1768 C 0.50035 0.27498 0.39194
 N1769 N 0.50568 0.29777 0.37907
 N1770 N 0.50484 0.32074 0.39144
 C1771 C 0.49736 0.34791 0.43007
 N1772 N 0.50476 0.36957 0.41637
 N1773 N 0.50408 0.39327 0.42739
 C1774 C 0.49582 0.39630 0.45254
 N1775 N 0.48831 0.37465 0.46634
 N1776 N 0.48907 0.35084 0.45529
 C1777 C -0.00018 0.32208 0.58280
 N1778 N -0.01196 0.31974 0.60654
 N1779 N -0.01318 0.29662 0.61858
 C1780 C -0.00304 0.27464 0.60729
 N1781 N 0.00908 0.27701 0.58354
 N1782 N 0.01031 0.30028 0.57142
 C1783 C 0.00155 0.34814 0.57046
 N1784 N 0.01320 0.35170 0.54670
 N1785 N 0.01456 0.37564 0.53604
 C1786 C 0.00443 0.39682 0.54881
 N1787 N -0.00711 0.39318 0.57255
 N1788 N -0.00849 0.36933 0.58317
 C1789 C 0.50090 0.82251 0.08271
 N1790 N 0.49202 0.82064 0.10773
 N1791 N 0.49113 0.79753 0.11983
 C1792 C 0.49871 0.77516 0.10737
 N1793 N 0.50787 0.77702 0.08230
 N1794 N 0.50882 0.80028 0.07014
 C1795 C 0.50212 0.84848 0.07016
 N1796 N 0.51215 0.85179 0.04564
 N1797 N 0.51315 0.87568 0.03483
 C1798 C 0.50420 0.89704 0.04818
 N1799 N 0.49423 0.89364 0.07265
 N1800 N 0.49326 0.86985 0.08344
 C1801 C 0.49871 0.67737 0.08211
 N1802 N 0.50689 0.67900 0.10741
 N1803 N 0.50769 0.70202 0.11971
 C1804 C 0.50070 0.72454 0.10720
 N1805 N 0.49226 0.72293 0.08182
 N1806 N 0.49141 0.69975 0.06946
 C1807 C 0.49752 0.65146 0.06938
 N1808 N 0.48823 0.64835 0.04451
 N1809 N 0.48718 0.62449 0.03358
 C1810 C 0.49535 0.60297 0.04717
 N1811 N 0.50460 0.60617 0.07198
 N1812 N 0.50561 0.62993 0.08288
 C1813 C -0.00277 0.17703 0.58241
 N1814 N -0.00931 0.19953 0.56954
 N1815 N -0.00853 0.22270 0.58194
 C1816 C -0.00101 0.22415 0.60761
 N1817 N 0.00524 0.20154 0.62033
 N1818 N 0.00455 0.17853 0.60798
 C1819 C -0.00376 0.15116 0.56957
 N1820 N 0.00421 0.12959 0.58307
 N1821 N 0.00341 0.10588 0.57206
 C1822 C -0.00554 0.10274 0.54713
 N1823 N -0.01361 0.12430 0.53354
 N1824 N -0.01274 0.14812 0.54457
 C1825 C 0.50325 0.17669 0.41603
 N1826 N 0.50938 0.19920 0.42916
 N1827 N 0.50787 0.22250 0.41712
 C1828 C 0.49994 0.22410 0.39159
 N1829 N 0.49415 0.20146 0.37860
 N1830 N 0.49560 0.17832 0.39058
 C1831 C 0.50478 0.15072 0.42857
 N1832 N 0.49716 0.12908 0.41488
 N1833 N 0.49803 0.10534 0.42580
 C1834 C 0.50672 0.10226 0.45083
 N1835 N 0.51452 0.12388 0.46456
 N1836 N 0.51358 0.14771 0.45362
 C1837 C 0.00474 0.67682 0.91630
 N1838 N 0.01070 0.69935 0.92947
 N1839 N 0.00946 0.72262 0.91735
 C1840 C 0.00199 0.72415 0.89168
 N1841 N -0.00363 0.70150 0.87864
 N1842 N -0.00246 0.67839 0.89071
 C1843 C 0.00590 0.65090 0.92895
 N1844 N -0.00175 0.62929 0.91525
 N1845 N -0.00119 0.60559 0.92626
 C1846 C 0.00722 0.60253 0.95139
 N1847 N 0.01505 0.62412 0.96513
 N1848 N 0.01441 0.64792 0.95410
 C1849 C 0.24488 0.66474 0.92587
 N1850 N 0.24161 0.67812 0.94881
 N1851 N 0.24334 0.66567 0.97189
 C1852 C 0.24855 0.63944 0.97280
 N1853 N 0.25146 0.62625 0.94975
 N1854 N 0.24981 0.63862 0.92683
 C1855 C 0.24363 0.67778 0.90013
 N1856 N 0.24960 0.66389 0.87815
 N1857 N 0.24917 0.67524 0.85461
 C1858 C 0.24256 0.70092 0.85207
 N1859 N 0.23637 0.71488 0.87403
 N1860 N 0.23691 0.70351 0.89768
 C1861 C 0.74678 0.16508 0.42756
 N1862 N 0.74235 0.17823 0.45043
 N1863 N 0.74349 0.16566 0.47348
 C1864 C 0.74923 0.13955 0.47443
 N1865 N 0.75327 0.12657 0.45144
 N1866 N 0.75222 0.13906 0.42856
 C1867 C 0.74590 0.17818 0.40185
 N1868 N 0.75267 0.16446 0.38000
 N1869 N 0.75211 0.17572 0.35642
 C1870 C 0.74462 0.20114 0.35371
 N1871 N 0.73774 0.21495 0.37555
 N1872 N 0.73839 0.20367 0.39924
 C1873 C 0.25580 0.33541 0.42759
 N1874 N 0.25101 0.36157 0.42842
 N1875 N 0.24903 0.37403 0.45128
 C1876 C 0.25145 0.36089 0.47440
 N1877 N 0.25653 0.33464 0.47364
 N1878 N 0.25860 0.32210 0.45062
 C1879 C 0.25732 0.32227 0.40190
 N1880 N 0.26406 0.29654 0.39955
 N1881 N 0.26481 0.28510 0.37592
 C1882 C 0.25878 0.29898 0.35387
 N1883 N 0.25215 0.32467 0.35631
 N1884 N 0.25153 0.33609 0.37983
 C1885 C 0.75581 0.83630 0.92892
 N1886 N 0.75029 0.86230 0.93004
 N1887 N 0.74813 0.87447 0.95303
 C1888 C 0.75108 0.86119 0.97601
 N1889 N 0.75690 0.83510 0.97495
 N1890 N 0.75915 0.82285 0.95180
 C1891 C 0.75758 0.82344 0.90309
 N1892 N 0.76488 0.79788 0.90053
 N1893 N 0.76584 0.78665 0.87680
 C1894 C 0.75950 0.80058 0.85488
 N1895 N 0.75232 0.82611 0.85753
 N1896 N 0.75148 0.83732 0.88114
 C1897 C 0.74300 0.83586 0.07391
 N1898 N 0.74752 0.86207 0.07298
 N1899 N 0.74958 0.87438 0.05006
 C1900 C 0.74753 0.86104 0.02699
 N1901 N 0.74274 0.83472 0.02787
 N1902 N 0.74058 0.82233 0.05094
 C1903 C 0.74143 0.82286 0.09967
 N1904 N 0.73502 0.79703 0.10205
 N1905 N 0.73429 0.78568 0.12571
 C1906 C 0.73999 0.79977 0.14775
 N1907 N 0.74628 0.82556 0.14528
 N1908 N 0.74688 0.83688 0.12173
 C1909 C 0.24315 0.33680 0.57258
 N1910 N 0.24854 0.36284 0.57135
 N1911 N 0.25078 0.37487 0.54830
 C1912 C 0.24803 0.36138 0.52538
 N1913 N 0.24236 0.33525 0.52655
 N1914 N 0.24004 0.32315 0.54976
 C1915 C 0.24130 0.32409 0.59845
 N1916 N 0.23433 0.29843 0.60104
 N1917 N 0.23339 0.28729 0.62478
 C1918 C 0.23942 0.30141 0.64671
 N1919 N 0.24626 0.32705 0.64404
 N1920 N 0.24709 0.33817 0.62040
 C1921 C 0.75385 0.16376 0.57272
 N1922 N 0.74730 0.13799 0.57126
 N1923 N 0.74572 0.12593 0.54815
 C1924 C 0.75027 0.13913 0.52538
 N1925 N 0.75711 0.16498 0.52681
 N1926 N 0.75877 0.17711 0.55007
 C1927 C 0.75526 0.17648 0.59863
 N1928 N 0.76331 0.20181 0.60147
 N1929 N 0.76408 0.21293 0.62525
 C1930 C 0.75683 0.19911 0.64696
 N1931 N 0.74890 0.17381 0.64403
 N1932 N 0.74821 0.16271 0.62036
 C1933 C 0.25519 0.66380 0.07107
 N1934 N 0.25906 0.67731 0.04831
 N1935 N 0.25706 0.66516 0.02507
 C1936 C 0.25096 0.63912 0.02380
 N1937 N 0.24747 0.62578 0.04667
 N1938 N 0.24938 0.63785 0.06975
 C1939 C 0.25680 0.67655 0.09696
 N1940 N 0.25043 0.66260 0.11879
 N1941 N 0.25118 0.67372 0.14246
 C1942 C 0.25851 0.69921 0.14528
 N1943 N 0.26510 0.71320 0.12347
 N1944 N 0.26424 0.70207 0.09969
 C1945 C 0.16578 0.57404 0.75573
 N1946 N 0.17900 0.55109 0.75939
 N1947 N 0.16645 0.52804 0.75771
 C1948 C 0.14027 0.52717 0.75214
 N1949 N 0.12723 0.55022 0.74885
 N1950 N 0.13971 0.57310 0.75045
 C1951 C 0.17891 0.59975 0.75699
 N1952 N 0.16514 0.62169 0.75069
 N1953 N 0.17653 0.64523 0.75118
 C1954 C 0.20214 0.64782 0.75816
 N1955 N 0.21598 0.62590 0.76467
 N1956 N 0.20456 0.60224 0.76407
 C1957 C 0.66542 0.07204 0.25342
 N1958 N 0.67847 0.04933 0.25875
 N1959 N 0.66601 0.02620 0.25757
 C1960 C 0.64012 0.02500 0.25086
 N1961 N 0.62722 0.04784 0.24594
 N1962 N 0.63961 0.07080 0.24702
 C1963 C 0.67840 0.09783 0.25441
 N1964 N 0.66487 0.11950 0.24681
 N1965 N 0.67604 0.14315 0.24743
 C1966 C 0.70118 0.14610 0.25583
 N1967 N 0.71480 0.12444 0.26356
 N1968 N 0.70361 0.10068 0.26284
 C1969 C 0.83561 0.07260 0.74357
 N1970 N 0.86200 0.07189 0.74693
 N1971 N 0.87450 0.04909 0.74894
 C1972 C 0.86120 0.02592 0.74799
 N1973 N 0.83469 0.02656 0.74435
 N1974 N 0.82210 0.04952 0.74223
 C1975 C 0.82245 0.09826 0.74218
 N1976 N 0.79645 0.10048 0.73647
 N1977 N 0.78501 0.12409 0.73587
 C1978 C 0.79916 0.14622 0.74105
 N1979 N 0.82511 0.14390 0.74666
 N1980 N 0.83653 0.12041 0.74711
 C1981 C 0.33603 0.57153 0.24388
 N1982 N 0.36213 0.57055 0.24905
 N1983 N 0.37440 0.54762 0.25108
 C1984 C 0.36111 0.52457 0.24834
 N1985 N 0.33493 0.52550 0.24287
 N1986 N 0.32259 0.54859 0.24075
 C1987 C 0.32308 0.59728 0.24228
 N1988 N 0.29743 0.59972 0.23518
 N1989 N 0.28612 0.62337 0.23436
 C1990 C 0.30005 0.64536 0.24065
 N1991 N 0.32565 0.64283 0.24764
 N1992 N 0.33695 0.61928 0.24834
 C1993 C 0.33595 0.42660 0.25600
 N1994 N 0.32249 0.44951 0.25892
 N1995 N 0.33486 0.47262 0.25688
 C1996 C 0.36110 0.47361 0.25173
 N1997 N 0.37439 0.45060 0.24921
 N1998 N 0.36209 0.42764 0.25115
 C1999 C 0.32295 0.40082 0.25745
 N2000 N 0.33684 0.37886 0.25147
 N2001 N 0.32551 0.35528 0.25204
 C2002 C 0.29987 0.35268 0.25880
 N2003 N 0.28593 0.37462 0.26501
 N2004 N 0.29727 0.39830 0.26432
 C2005 C 0.83728 0.92769 0.75714
 N2006 N 0.82364 0.95048 0.76021
 N2007 N 0.83573 0.97371 0.75783
 C2008 C 0.86184 0.97495 0.75216
 N2009 N 0.87532 0.95206 0.74947
 N2010 N 0.86330 0.92898 0.75177
 C2011 C 0.82454 0.90180 0.75892
 N2012 N 0.83858 0.87989 0.75312
 N2013 N 0.82741 0.85624 0.75382
 C2014 C 0.80176 0.85353 0.76053
 N2015 N 0.78768 0.87542 0.76658
 N2016 N 0.79886 0.89917 0.76576
 C2017 C 0.66463 0.92695 0.24632
 N2018 N 0.63904 0.92828 0.25348
 N2019 N 0.62693 0.95132 0.25522
 C2020 C 0.63991 0.97413 0.25023
 N2021 N 0.66557 0.97284 0.24278
 N2022 N 0.67775 0.94965 0.24098
 C2023 C 0.67734 0.90110 0.24459
 N2024 N 0.70256 0.89836 0.23627
 N2025 N 0.71366 0.87462 0.23523
 C2026 C 0.69992 0.85283 0.24247
 N2027 N 0.67473 0.85565 0.25066
 N2028 N 0.66365 0.87929 0.25163
 C2029 C 0.16417 0.42893 0.74558
 N2030 N 0.17759 0.45164 0.74108
 N2031 N 0.16557 0.47489 0.74320
 C2032 C 0.13975 0.47622 0.75008
 N2033 N 0.12647 0.45339 0.75421
 N2034 N 0.13843 0.43030 0.75217
 C2035 C 0.17675 0.40302 0.74370
 N2036 N 0.16285 0.38121 0.75030
 N2037 N 0.17384 0.35752 0.74929
 C2038 C 0.19915 0.35467 0.74147
 N2039 N 0.21309 0.37646 0.73465
 N2040 N 0.20209 0.40025 0.73575
 C2041 C 0.07451 0.74528 0.83516
 N2042 N 0.07350 0.75063 0.86122
 N2043 N 0.05057 0.75218 0.87356
 C2044 C 0.02756 0.74877 0.86039
 N2045 N 0.02851 0.74313 0.83423
 N2046 N 0.05160 0.74149 0.82182
 C2047 C 0.10026 0.74405 0.82218
 N2048 N 0.10281 0.73675 0.79660
 N2049 N 0.12649 0.73614 0.78532
 C2050 C 0.14838 0.74284 0.79921
 N2051 N 0.14574 0.75004 0.82474
 N2052 N 0.12217 0.75054 0.83601
 C2053 C 0.57222 0.24598 0.33482
 N2054 N 0.57124 0.25128 0.36089
 N2055 N 0.54835 0.25254 0.37332
 C2056 C 0.52533 0.24888 0.36024
 N2057 N 0.52625 0.24327 0.33407
 N2058 N 0.54931 0.24191 0.32157
 C2059 C 0.59794 0.24499 0.32177
 N2060 N 0.60054 0.23748 0.29626
 N2061 N 0.62424 0.23684 0.28501
 C2062 C 0.64608 0.24375 0.29887
 N2063 N 0.64337 0.25123 0.32432
 N2064 N 0.61980 0.25176 0.33555
 C2065 C 0.57201 0.75557 0.16423
 N2066 N 0.54905 0.75820 0.17768
 N2067 N 0.52598 0.75627 0.16521
 C2068 C 0.52507 0.75153 0.13887
 N2069 N 0.54813 0.74929 0.12560
 N2070 N 0.57105 0.75112 0.13800
 C2071 C 0.59775 0.75684 0.17732
 N2072 N 0.61972 0.75095 0.16341
 N2073 N 0.64327 0.75137 0.17479
 C2074 C 0.64583 0.75789 0.20052
 N2075 N 0.62389 0.76401 0.21449
 N2076 N 0.60023 0.76345 0.20309
 C2077 C 0.07087 0.25602 0.66374
 N2078 N 0.04804 0.25938 0.67723
 N2079 N 0.02486 0.25716 0.66499
 C2080 C 0.02372 0.25136 0.63888
 N2081 N 0.04666 0.24840 0.62555
 N2082 N 0.06969 0.25053 0.63771
 C2083 C 0.09671 0.25768 0.67662
 N2084 N 0.11861 0.25152 0.66273
 N2085 N 0.14222 0.25224 0.67398
 C2086 C 0.14491 0.25934 0.69955
 N2087 N 0.12303 0.26573 0.71349
 N2088 N 0.09931 0.26490 0.70223
 C2089 C 0.92597 0.24309 0.66463
 N2090 N 0.92678 0.24725 0.63835
 N2091 N 0.94963 0.24930 0.62594
 C2092 C 0.97276 0.24759 0.63922
 N2093 N 0.97201 0.24313 0.66560
 N2094 N 0.94900 0.24097 0.67810
 C2095 C 0.90027 0.24158 0.67772
 N2096 N 0.89795 0.23521 0.70356
 N2097 N 0.87432 0.23449 0.71495
 C2098 C 0.85226 0.24016 0.70091
 N2099 N 0.85468 0.24642 0.67512
 N2100 N 0.87820 0.24701 0.66374
 C2101 C 0.42693 0.74321 0.16325
 N2102 N 0.44977 0.74062 0.17696
 N2103 N 0.47295 0.74286 0.16481
 C2104 C 0.47407 0.74791 0.13855
 N2105 N 0.45113 0.75014 0.12502
 N2106 N 0.42811 0.74798 0.13710
 C2107 C 0.40109 0.74150 0.17601
 N2108 N 0.37914 0.74703 0.16187
 N2109 N 0.35551 0.74630 0.17301
 C2110 C 0.35286 0.73982 0.19872
 N2111 N 0.37479 0.73404 0.21291
 N2112 N 0.39852 0.73489 0.20175
 C2113 C 0.42708 0.25486 0.33599
 N2114 N 0.44980 0.25890 0.32250
 N2115 N 0.47305 0.25694 0.33462
 C2116 C 0.47436 0.25068 0.36061
 N2117 N 0.45153 0.24699 0.37394
 N2118 N 0.42843 0.24888 0.36189
 C2119 C 0.40117 0.25652 0.32329
 N2120 N 0.37933 0.25027 0.33726
 N2121 N 0.35566 0.25103 0.32616
 C2122 C 0.35285 0.25826 0.30066
 N2123 N 0.37467 0.26475 0.28664
 N2124 N 0.39844 0.26389 0.29776
 C2125 C 0.92931 0.75519 0.83603
 N2126 N 0.95205 0.75939 0.82260
 N2127 N 0.97529 0.75734 0.83472
 C2128 C 0.97658 0.75082 0.86065
 N2129 N 0.95373 0.74697 0.87392
 N2130 N 0.93064 0.74895 0.86186
 C2131 C 0.90339 0.75697 0.82334
 N2132 N 0.88157 0.75050 0.83725
 N2133 N 0.85788 0.75142 0.82620
 C2134 C 0.85503 0.75902 0.80081
 N2135 N 0.87683 0.76571 0.78685
 N2136 N 0.90062 0.76470 0.79792
   
