data_POSCAR
  _audit_creation_date              2014-09-24
  _audit_creation_method            'ToBaCCo'
  _symmetry_space_group_name_H-M    'P1'
  _symmetry_Int_Tables_number       1
  _symmetry_cell_setting            triclinic
  loop_
  _symmetry_equiv_pos_as_xyz
 x,y,z
_cell_length_a 51.3800
_cell_length_b 50.8287
_cell_length_c 48.8154
_cell_angle_alpha 90.069100
_cell_angle_beta 90.184600
_cell_angle_gamma 89.878100
loop_
  _atom_site_label
  _atom_site_type_symbol
  _atom_site_fract_x
  _atom_site_fract_y
  _atom_site_fract_z
C1 C 0.31225 0.44274 0.93765
 C2 C 0.33478 0.44174 0.95414
 C3 C 0.34053 0.41942 0.97050
 C4 C 0.32321 0.39794 0.96943
 C5 C 0.30076 0.39864 0.95301
 C6 C 0.29508 0.42138 0.93810
 H7 H 0.34796 0.45817 0.95368
 H8 H 0.32737 0.38016 0.98059
 H9 H 0.27720 0.42230 0.92650
 C10 C 0.45245 0.84918 0.43462
 C11 C 0.46039 0.82714 0.41925
 C12 C 0.44522 0.80417 0.41803
 C13 C 0.42192 0.80303 0.43298
 C14 C 0.41376 0.82456 0.44881
 C15 C 0.42903 0.84748 0.44929
 H16 H 0.47870 0.82742 0.40853
 H17 H 0.40997 0.78558 0.43215
 H18 H 0.42203 0.86448 0.46027
 C19 C 0.93302 0.91381 0.80419
 C20 C 0.93156 0.92524 0.83033
 C21 C 0.91213 0.94383 0.83656
 C22 C 0.89475 0.95131 0.81558
 C23 C 0.89608 0.94031 0.78919
 C24 C 0.91534 0.92144 0.78376
 H25 H 0.94484 0.91853 0.84608
 H26 H 0.88014 0.96593 0.81959
 H27 H 0.91693 0.91273 0.76362
 C28 C 0.43324 -0.08881 0.30592
 C29 C 0.43865 -0.06900 0.32528
 C30 C 0.42614 -0.04444 0.32424
 C31 C 0.40828 -0.03948 0.30303
 C32 C 0.40263 -0.05875 0.28324
 C33 C 0.41520 -0.08337 0.28486
 H34 H 0.45239 -0.07266 0.34157
 H35 H 0.39894 -0.02045 0.30165
 H36 H 0.41037 -0.09857 0.27022
 C37 C 0.82666 0.30092 0.33186
 C38 C 0.84115 0.29443 0.30852
 C39 C 0.84617 0.31318 0.28811
 C40 C 0.83588 0.33882 0.29097
 C41 C 0.82123 0.34562 0.31429
 C42 C 0.81637 0.32633 0.33420
 H43 H 0.84870 0.27469 0.30620
 H44 H 0.84028 0.35375 0.27591
 H45 H 0.80498 0.33129 0.35202
 C46 C -0.20454 0.83162 0.79082
 C47 C -0.17960 0.81999 0.79071
 C48 C -0.17357 0.79880 0.80792
 C49 C -0.19307 0.78827 0.82456
 C50 C -0.21824 0.79922 0.82543
 C51 C -0.22361 0.82128 0.80861
 H52 H -0.16420 0.82829 0.77844
 H53 H -0.18853 0.77100 0.83645
 H54 H -0.24264 0.83028 0.80886
 C55 C 0.97709 0.33083 0.44152
 C56 C 0.95839 0.32279 0.46060
 C57 C 0.93689 0.30764 0.45231
 C58 C 0.93426 0.30091 0.42449
 C59 C 0.95256 0.30925 0.40498
 C60 C 0.97406 0.32400 0.41384
 H61 H 0.96097 0.32805 0.48192
 H62 H 0.91776 0.28936 0.41806
 H63 H 0.98805 0.33103 0.39906
 C64 C 0.43550 0.44642 0.84564
 C65 C 0.45056 0.43093 0.82769
 C66 C 0.44609 0.43234 0.79910
 C67 C 0.42785 0.45053 0.78883
 C68 C 0.41424 0.46688 0.80657
 C69 C 0.41766 0.46446 0.83467
 H70 H 0.46430 0.41676 0.83589
 H71 H 0.42355 0.45169 0.76715
 H72 H 0.40645 0.47720 0.84805
 C73 C 0.77525 0.90351 0.94599
 C74 C 0.79303 0.91131 0.96645
 C75 C 0.81129 0.93138 0.96144
 C76 C 0.81136 0.94344 0.93551
 C77 C 0.79408 0.93552 0.91473
 C78 C 0.77589 0.91578 0.92032
 H79 H 0.79243 0.90170 0.98618
 H80 H 0.82509 0.95888 0.93130
 H81 H 0.76301 0.90903 0.90422
 C82 C 0.30238 0.82583 0.29225
 C83 C 0.28661 0.82304 0.31565
 C84 C 0.29169 0.80346 0.33528
 C85 C 0.31319 0.78673 0.33166
 C86 C 0.32934 0.78922 0.30868
 C87 C 0.32353 0.80846 0.28899
 H88 H 0.27033 0.83612 0.31878
 H89 H 0.31751 0.77198 0.34695
 H90 H 0.33613 0.81014 0.27147
 C91 C 0.82571 0.41079 0.45976
 C92 C 0.85166 0.41057 0.46908
 C93 C 0.86896 0.43144 0.46304
 C94 C 0.85959 0.45248 0.44693
 C95 C 0.83376 0.45311 0.43754
 C96 C 0.81695 0.43255 0.44459
 H97 H 0.85825 0.39370 0.48048
 H98 H 0.87242 0.46825 0.44109
 H99 H 0.79693 0.43370 0.43800
 C100 C 0.92882 0.83190 -0.04392
 C101 C 0.90554 0.81743 -0.04390
 C102 C 0.90129 0.79730 -0.06290
 C103 C 0.92129 0.79035 -0.08094
 C104 C 0.94469 0.80454 -0.08175
 C105 C 0.94811 0.82567 -0.06340
 H106 H 0.88980 0.82302 -0.03046
 H107 H 0.91852 0.77382 -0.09449
 H108 H 0.96589 0.83695 -0.06384
 C109 C 0.31160 0.34364 0.80628
 C110 C 0.30890 0.32396 0.82649
 C111 C 0.32092 0.29930 0.82384
 C112 C 0.33652 0.29449 0.80099
 C113 C 0.34030 0.31389 0.78106
 C114 C 0.32794 0.33855 0.78367
 H115 H 0.29774 0.32774 0.84475
 H116 H 0.34570 0.27545 0.79839
 H117 H 0.33048 0.35322 0.76784
 C118 C 0.18773 0.56754 0.55277
 C119 C 0.18678 0.55420 0.57801
 C120 C 0.20070 0.56321 0.60101
 C121 C 0.21649 0.58562 0.59828
 C122 C 0.21807 0.59904 0.57318
 C123 C 0.20372 0.58982 0.55061
 H124 H 0.17505 0.53677 0.57985
 H125 H 0.22684 0.59318 0.61591
 H126 H 0.20521 0.60012 0.53135
 C127 C 0.58272 0.67139 0.06050
 C128 C 0.57210 0.69363 0.07345
 C129 C 0.54639 0.69338 0.08319
 C130 C 0.53117 0.67073 0.07952
 C131 C 0.54138 0.64833 0.06664
 C132 C 0.56699 0.64901 0.05678
 H133 H 0.58428 0.71057 0.07727
 H134 H 0.51136 0.67054 0.08697
 H135 H 0.57479 0.63175 0.04683
 C136 C 0.70513 0.19665 0.67402
 C137 C 0.68737 0.21659 0.68056
 C138 C 0.67074 0.21388 0.70320
 C139 C 0.67194 0.19086 0.71910
 C140 C 0.68939 0.17036 0.71265
 C141 C 0.70576 0.17366 0.68986
 H142 H 0.68665 0.23413 0.66804
 H143 H 0.65899 0.18920 0.73636
 H144 H 0.71933 0.15839 0.68418
 C145 C 1.07460 0.04357 0.20438
 C146 C 1.07100 0.06784 0.21759
 C147 C 1.05944 0.08908 0.20396
 C148 C 1.05109 0.08566 0.17697
 C149 C 1.05396 0.06150 0.16316
 C150 C 1.06575 0.04026 0.17721
 H151 H 1.07790 0.07027 0.23838
 H152 H 1.04161 0.10199 0.16702
 H153 H 1.06879 0.02160 0.16697
 C154 C 0.04054 0.16296 1.03548
 C155 C 0.04158 0.17896 1.05900
 C156 C 0.06359 0.19450 1.06491
 C157 C 0.08478 0.19331 1.04669
 C158 C 0.08419 0.17730 1.02317
 C159 C 0.06197 0.16224 1.01771
 H160 H 0.02521 0.17908 1.07275
 H161 H 0.10240 0.20396 1.05120
 H162 H 0.06123 0.15022 0.99942
 C163 C 0.15989 0.71006 0.69871
 C164 C 0.18034 0.72149 0.68424
 C165 C 0.20580 0.71158 0.68618
 C166 C 0.21088 0.69068 0.70432
 C167 C 0.19072 0.68008 0.72020
 C168 C 0.16529 0.68968 0.71711
 H169 H 0.17628 0.73821 0.67135
 H170 H 0.23027 0.68260 0.70629
 H171 H 0.14960 0.68059 0.72838
 C172 C 1.18072 0.15634 0.19216
 C173 C 1.17026 0.17797 0.20660
 C174 C 1.16545 0.20192 0.19342
 C175 C 1.17129 0.20439 0.16559
 C176 C 1.18156 0.18319 0.15081
 C177 C 1.18673 0.15927 0.16416
 H178 H 1.16554 0.17636 0.22810
 H179 H 1.16642 0.22244 0.15491
 H180 H 1.19374 0.14264 0.15239
 C181 C 0.66233 1.07058 0.53328
 C182 C 0.65937 1.06168 0.56040
 C183 C 0.67874 1.06571 0.58037
 C184 C 0.70149 1.07943 0.57296
 C185 C 0.70578 1.08652 0.54551
 C186 C 0.68616 1.08197 0.52590
 H187 H 0.64169 1.05189 0.56613
 H188 H 0.71660 1.08305 0.58800
 H189 H 0.68944 1.08792 0.50492
 C190 C 0.56594 0.53586 0.18398
 C191 C 0.55217 0.55972 0.18290
 C192 C 0.55431 0.57849 0.20397
 C193 C 0.57096 0.57316 0.22626
 C194 C 0.58512 0.54940 0.22754
 C195 C 0.58220 0.53084 0.20645
 H196 H 0.54042 0.56397 0.16506
 H197 H 0.57318 0.58764 0.24232
 H198 H 0.59252 0.51230 0.20763
 C199 C 0.66594 0.70850 0.19761
 C200 C 0.67205 0.68982 0.21773
 C201 C 0.69427 0.67400 0.21547
 C202 C 0.71075 0.67706 0.19290
 C203 C 0.70523 0.69571 0.17253
 C204 C 0.68275 0.71147 0.17512
 H205 H 0.65917 0.68723 0.23496
 H206 H 0.72765 0.66451 0.19109
 H207 H 0.67810 0.72566 0.15938
 C208 C 0.14180 0.04693 1.02507
 C209 C 0.14537 0.03162 1.04890
 C210 C 0.16852 0.03268 1.06408
 C211 C 0.18863 0.04908 1.05528
 C212 C 0.18594 0.06440 1.03157
 C213 C 0.16253 0.06320 1.01655
 H214 H 0.12989 0.01943 1.05652
 H215 H 0.20628 0.05014 1.06729
 H216 H 0.16081 0.07498 0.99826
 C217 C 0.60499 0.19506 0.53636
 C218 C 0.59954 0.21632 0.55405
 C219 C 0.57459 0.21989 0.56506
 C220 C 0.55474 0.20240 0.55768
 C221 C 0.55972 0.18049 0.54112
 C222 C 0.58484 0.17712 0.53020
 H223 H 0.61484 0.22964 0.56005
 H224 H 0.53530 0.20571 0.56531
 H225 H 0.58873 0.16011 0.51763
 C226 C 0.08211 0.55598 0.71704
 C227 C 0.06371 0.57634 0.71938
 C228 C 0.04827 0.58380 0.69687
 C229 C 0.05160 0.57098 0.67159
 C230 C 0.07024 0.55093 0.66867
 C231 C 0.08479 0.54315 0.69168
 H232 H 0.06134 0.58666 0.73856
 H233 H 0.04049 0.57739 0.65394
 H234 H 0.09834 0.52701 0.68977
 C235 C 0.66508 0.54616 0.06030
 C236 C 0.68436 0.56294 0.05037
 C237 C 0.70538 0.57063 0.06677
 C238 C 0.70793 0.56006 0.09332
 C239 C 0.68927 0.54232 0.10356
 C240 C 0.66770 0.53581 0.08686
 H241 H 0.68308 0.57016 0.02960
 H242 H 0.72419 0.56585 0.10606
 H243 H 0.65245 0.52334 0.09469
 C244 C 0.04588 0.69401 0.58050
 C245 C 0.07020 0.70677 0.58199
 C246 C 0.09153 0.69825 0.56621
 C247 C 0.08801 0.67731 0.54789
 C248 C 0.06397 0.66430 0.54613
 C249 C 0.04318 0.67247 0.56261
 H250 H 0.07256 0.72355 0.59532
 H251 H 0.10423 0.67044 0.53567
 H252 H 0.02494 0.66205 0.56101
 C253 C 0.55644 1.06112 0.66141
 C254 C 0.56795 1.04818 0.68399
 C255 C 0.57574 1.06190 0.70735
 C256 C 0.57172 1.08899 0.70852
 C257 C 0.55945 1.10264 0.68699
 C258 C 0.55060 1.08840 0.66384
 H259 H 0.57122 1.02718 0.68369
 H260 H 0.57889 1.09976 0.72616
 H261 H 0.54224 1.09903 0.64672
 C262 C 0.45569 0.31706 0.94562
 C263 C 0.45568 0.31353 0.91711
 C264 C 0.43592 0.29865 0.90434
 C265 C 0.41568 0.28832 0.92061
 C266 C 0.41513 0.29251 0.94907
 C267 C 0.43567 0.30625 0.96133
 H268 H 0.47111 0.32221 0.90510
 H269 H 0.40018 0.27716 0.91125
 H270 H 0.43594 0.30923 0.98328
 C271 C 0.96394 0.44667 0.32346
 C272 C 0.94209 0.46348 0.32318
 C273 C 0.92329 0.46182 0.30212
 C274 C 0.92588 0.44254 0.28168
 C275 C 0.94726 0.42548 0.28174
 C276 C 0.96638 0.42829 0.30209
 H277 H 0.93957 0.47785 0.33927
 H278 H 0.91117 0.44072 0.26590
 H279 H 0.98287 0.41528 0.30144
 C280 C 0.30920 0.95220 0.40550
 C281 C 0.28957 0.93675 0.41739
 C282 C 0.29089 0.92953 0.44513
 C283 C 0.31195 0.93809 0.46111
 C284 C 0.33191 0.95332 0.44969
 C285 C 0.33014 0.96057 0.42202
 H286 H 0.27380 0.92941 0.40485
 H287 H 0.31269 0.93271 0.48252
 H288 H 0.34549 0.97228 0.41336
 O289 O 0.23279 0.58426 0.74569
 O290 O 0.27941 0.57784 0.74110
 O291 O 0.20377 0.51178 0.71156
 O292 O 0.20699 0.46877 0.72052
 O293 O 0.17345 0.54314 0.78793
 O294 O 0.18923 0.54128 0.83426
 O295 O 0.28355 0.44789 0.77776
 O296 O 0.27243 0.45524 0.73098
 O297 O 0.31707 0.52157 0.80236
 O298 O 0.30162 0.56720 0.80373
 O299 O 0.26050 0.48229 0.84998
 O300 O 0.21102 0.48204 0.84782
 O301 O 0.25576 0.44671 0.81384
 O302 O 0.20988 0.45280 0.82037
 O303 O 0.28872 0.51637 0.84537
 O304 O 0.28006 0.56344 0.83723
 O305 O 0.31554 0.48726 0.77241
 O306 O 0.30064 0.48709 0.72560
 O307 O 0.20720 0.58225 0.78364
 O308 O 0.21533 0.57283 0.83063
 O309 O 0.17206 0.51229 0.75411
 O310 O 0.18524 0.46560 0.75897
 O311 O 0.23148 0.54637 0.70713
 O312 O 0.27730 0.54902 0.71088
 Zr313 Zr 0.25174 0.54730 0.74467
 O314 O 0.28133 0.52648 0.76513
 Zr315 Zr 0.21043 0.49773 0.75150
 O316 O 0.23841 0.47472 0.77230
 Zr317 Zr 0.21300 0.54433 0.79915
 O318 O 0.24112 0.52372 0.82204
 Zr319 Zr 0.27616 0.48554 0.76046
 O320 O 0.24806 0.50657 0.73700
 Zr321 Zr 0.27833 0.53311 0.80748
 O322 O 0.25036 0.55629 0.78679
 Zr323 Zr 0.23719 0.48334 0.81441
 O324 O 0.20688 0.50379 0.79399
 O325 O 0.21433 0.53801 0.75703
 O326 O 0.27505 0.49239 0.80253
 C327 C 0.21649 0.59427 0.76277
 C328 C 0.21378 0.53086 0.69793
 C329 C 0.16144 0.52987 0.76942
 C330 C 0.27308 0.43626 0.79841
 C331 C 0.32776 0.50337 0.78812
 C332 C 0.27967 0.49645 0.85831
 H333 H 0.29819 0.53253 0.75782
 H334 H 0.23925 0.52787 0.84170
 H335 H 0.20128 0.54835 0.74666
 H336 H 0.23513 0.45590 0.76855
 H337 H 0.26135 0.46230 0.71605
 H338 H 0.21918 0.45434 0.72511
 H339 H 0.26698 0.55965 0.85150
 H340 H 0.23208 0.58207 0.82808
 H341 H 0.30861 0.50475 0.72486
 H342 H 0.27755 0.53118 0.70273
 H343 H 0.21551 0.49648 0.86056
 H344 H 0.18234 0.52311 0.83444
 H345 H 0.27896 0.58785 0.75851
 H346 H 0.31016 0.56654 0.78561
 H347 H 0.17687 0.46881 0.77691
 H348 H 0.20787 0.44351 0.80268
 O349 O 0.21983 0.05451 0.20180
 O350 O 0.26542 0.04917 0.19083
 O351 O 0.18964 -0.02058 0.17083
 O352 O 0.19455 -0.06321 0.18039
 O353 O 0.16697 0.00988 0.25099
 O354 O 0.18911 0.00968 0.29528
 O355 O 0.27637 -0.08054 0.22484
 O356 O 0.25938 -0.07212 0.17929
 O357 O 0.31184 -0.01213 0.25059
 O358 O 0.29803 0.03653 0.24593
 O359 O 0.26141 -0.04500 0.30282
 O360 O 0.21173 -0.04851 0.30440
 O361 O 0.25671 -0.08210 0.26653
 O362 O 0.21229 -0.07989 0.27854
 O363 O 0.28792 -0.01047 0.29312
 O364 O 0.27909 0.03591 0.28305
 O365 O 0.30680 -0.04377 0.21808
 O366 O 0.29068 -0.03933 0.17463
 O367 O 0.19801 0.05067 0.24210
 O368 O 0.21215 0.04235 0.28740
 O369 O 0.16245 -0.01989 0.21645
 O370 O 0.17747 -0.06611 0.22067
 O371 O 0.21381 0.01624 0.16366
 O372 O 0.26056 0.02174 0.16084
 Zr373 Zr 0.23924 0.01784 0.19763
 O374 O 0.27197 -0.00246 0.21334
 Zr375 Zr 0.20072 -0.03338 0.20995
 O376 O 0.23152 -0.05541 0.22699
 Zr377 Zr 0.20758 0.01323 0.25682
 O378 O 0.23922 -0.00612 0.27550
 Zr379 Zr 0.26675 -0.04322 0.20956
 O380 O 0.23571 -0.02299 0.19012
 Zr381 Zr 0.27418 0.00394 0.25573
 O382 O 0.24288 0.02634 0.23968
 Zr383 Zr 0.23541 -0.04678 0.26905
 O384 O 0.20214 -0.02751 0.25267
 O385 O 0.20399 0.00710 0.21490
 O386 O 0.27070 -0.03660 0.25144
 C387 C 0.20476 0.06352 0.22068
 C388 C 0.19653 -0.00070 0.15644
 C389 C 0.15322 -0.00328 0.23371
 C390 C 0.27128 -0.09184 0.24770
 C391 C 0.32054 -0.03101 0.23558
 C392 C 0.28062 -0.02960 0.30827
 H393 H 0.28798 0.00311 0.20380
 H394 H 0.23951 -0.00151 0.29518
 H395 H 0.18944 0.01701 0.20645
 H396 H 0.22842 -0.07435 0.22376
 H397 H 0.24904 -0.06352 0.16465
 H398 H 0.20907 -0.07589 0.18204
 H399 H 0.26685 0.03334 0.29842
 H400 H 0.22799 0.05237 0.28257
 H401 H 0.28064 -0.02890 0.16121
 H402 H 0.25720 0.00581 0.14971
 H403 H 0.21661 -0.03359 0.31638
 H404 H 0.18116 -0.00804 0.29579
 H405 H 0.26856 0.05750 0.20887
 H406 H 0.30904 0.03165 0.23012
 H407 H 0.17108 -0.06295 0.23951
 H408 H 0.20570 -0.08704 0.26101
 O409 O 0.56762 0.72212 0.23777
 O410 O 0.56262 0.71624 0.28629
 O411 O 0.49895 0.68230 0.20725
 O412 O 0.45632 0.68749 0.20705
 O413 O 0.52313 0.75996 0.17673
 O414 O 0.51629 0.80346 0.19445
 O415 O 0.43107 0.73469 0.29099
 O416 O 0.44354 0.69176 0.27815
 O417 O 0.49469 0.77011 0.32709
 O418 O 0.54227 0.77295 0.31473
 O419 O 0.45669 0.81135 0.26692
 O420 O 0.45322 0.80934 0.21833
 O421 O 0.42543 0.77179 0.26558
 O422 O 0.43077 0.77700 0.21363
 O423 O 0.49026 0.80913 0.29732
 O424 O 0.53797 0.80477 0.29033
 O425 O 0.46738 0.73506 0.32430
 O426 O 0.47646 0.68968 0.30734
 O427 O 0.56167 0.75886 0.21181
 O428 O 0.54730 0.80265 0.22302
 O429 O 0.49635 0.72447 0.17381
 O430 O 0.44922 0.72435 0.18787
 O431 O 0.53394 0.68088 0.23596
 O432 O 0.53708 0.68447 0.28446
 Zr433 Zr 0.53158 0.71674 0.25779
 O434 O 0.50891 0.73301 0.28958
 Zr435 Zr 0.48195 0.71936 0.21384
 O436 O 0.45704 0.73519 0.24387
 Zr437 Zr 0.52276 0.76956 0.21861
 O438 O 0.49955 0.78804 0.24843
 Zr439 Zr 0.46960 0.72360 0.28301
 O440 O 0.49251 0.70493 0.25284
 Zr441 Zr 0.51014 0.77424 0.28747
 O442 O 0.53553 0.75800 0.25782
 Zr443 Zr 0.46052 0.77645 0.24375
 O444 O 0.48338 0.76067 0.21150
 O445 O 0.52103 0.72864 0.21866
 O446 O 0.47101 0.76459 0.28300
 C447 C 0.57563 0.73979 0.22089
 C448 C 0.51891 0.67072 0.21767
 C449 C 0.51220 0.74121 0.16338
 C450 C 0.41753 0.75439 0.28275
 C451 C 0.47789 0.75425 0.33731
 C452 C 0.47007 0.82041 0.28712
 H453 H 0.51520 0.72658 0.30749
 H454 H 0.50161 0.80730 0.24681
 H455 H 0.53218 0.72000 0.20480
 H456 H 0.43899 0.72937 0.24036
 H457 H 0.45224 0.67877 0.26610
 H458 H 0.44340 0.68778 0.22201
 H459 H 0.53332 0.81828 0.27658
 H460 H 0.55781 0.79967 0.23976
 H461 H 0.49099 0.69337 0.32010
 H462 H 0.52027 0.67502 0.28504
 H463 H 0.46949 0.81966 0.21751
 H464 H 0.49882 0.80147 0.18609
 H465 H 0.56813 0.73475 0.28870
 H466 H 0.54129 0.75639 0.32529
 H467 H 0.45107 0.74168 0.17885
 H468 H 0.41974 0.76130 0.21636
 O469 O 0.05880 0.71865 0.73019
 O470 O 0.05850 0.71725 0.77859
 O471 O -0.01556 0.68107 0.71202
 O472 O -0.05764 0.68924 0.72079
 O473 O 0.01046 0.74845 0.66850
 O474 O 0.00718 0.79500 0.67795
 O475 O -0.06803 0.75149 0.79688
 O476 O -0.06093 0.70663 0.79185
 O477 O 0.00483 0.78425 0.81754
 O478 O 0.04867 0.78120 0.79695
 O479 O -0.04088 0.81945 0.75874
 O480 O -0.05017 0.81322 0.71175
 O481 O -0.07562 0.78322 0.76499
 O482 O -0.07491 0.78188 0.71273
 O483 O -0.00269 0.81899 0.78245
 O484 O 0.04286 0.80898 0.76819
 O485 O -0.02772 0.75467 0.82394
 O486 O -0.02361 0.70505 0.81421
 O487 O 0.05185 0.75065 0.69833
 O488 O 0.04136 0.79689 0.70228
 O489 O -0.02103 0.71760 0.67460
 O490 O -0.06539 0.72356 0.69527
 O491 O 0.02254 0.68059 0.73601
 O492 O 0.02962 0.68919 0.78428
 Zr493 Zr 0.02467 0.71838 0.75388
 O494 O 0.00837 0.74154 0.78521
 Zr495 Zr -0.02979 0.71958 0.71685
 O496 O -0.04888 0.74208 0.74714
 Zr497 Zr 0.01485 0.76554 0.70745
 O498 O -0.00243 0.79044 0.73661
 Zr499 Zr -0.03199 0.73554 0.78582
 O500 O -0.01542 0.71009 0.75621
 Zr501 Zr 0.01278 0.78148 0.77551
 O502 O 0.03210 0.75842 0.74596
 Zr503 Zr -0.04244 0.78226 0.73952
 O504 O -0.02565 0.75976 0.70735
 O505 O 0.01009 0.72565 0.71500
 O506 O -0.02728 0.77553 0.77843
 C507 C 0.06583 0.73280 0.70971
 C508 C 0.00534 0.66973 0.72048
 C509 C -0.00412 0.72968 0.65987
 C510 C -0.08192 0.76987 0.78632
 C511 C -0.01249 0.77307 0.83230
 C512 C -0.02387 0.83006 0.77467
 H513 H 0.01659 0.73717 0.80295
 H514 H 0.00070 0.80898 0.73151
 H515 H 0.01907 0.71440 0.70144
 H516 H -0.06760 0.73762 0.74713
 H517 H -0.05601 0.69135 0.78036
 H518 H -0.06898 0.69394 0.73638
 H519 H 0.03663 0.82153 0.75414
 H520 H 0.05406 0.79564 0.71752
 H521 H -0.00910 0.71076 0.82616
 H522 H 0.01244 0.68078 0.78676
 H523 H -0.03328 0.81874 0.70405
 H524 H -0.01107 0.79256 0.67188
 H525 H 0.06611 0.73512 0.77792
 H526 H 0.04868 0.76595 0.80952
 H527 H -0.06365 0.73904 0.68313
 H528 H -0.08633 0.76723 0.71838
 O529 O -0.02859 0.07361 0.03321
 O530 O -0.07036 0.05981 0.04729
 O531 O 0.02034 0.01123 0.06566
 O532 O 0.02092 -0.03309 0.06181
 O533 O 0.03300 0.03907 -0.01591
 O534 O 0.01086 0.03300 -0.05865
 O535 O -0.05658 -0.06988 0.01854
 O536 O -0.04207 -0.05799 0.06213
 O537 O -0.10425 -0.01098 -0.01032
 O538 O -0.09993 0.03932 -0.01011
 O539 O -0.04798 -0.03722 -0.06156
 O540 O -0.00026 -0.03248 -0.06453
 O541 O -0.03667 -0.07031 -0.02304
 O542 O 0.00882 -0.05818 -0.03491
 O543 O -0.08048 -0.00764 -0.05409
 O544 O -0.08159 0.03957 -0.04690
 O545 O -0.09319 -0.03938 0.02376
 O546 O -0.07292 -0.02835 0.06995
 O547 O -0.00417 0.07298 -0.00568
 O548 O -0.01962 0.06012 -0.05111
 O549 O 0.04438 0.01058 0.01805
 O550 O 0.03790 -0.03728 0.02018
 O551 O -0.01226 0.04124 0.07140
 O552 O -0.05888 0.03261 0.07725
 Zr553 Zr -0.03885 0.03412 0.03952
 O554 O -0.06714 0.00759 0.02510
 Zr555 Zr 0.00949 -0.00828 0.02912
 O556 O -0.01673 -0.03691 0.01441
 Zr557 Zr -0.00747 0.03393 -0.01995
 O558 O -0.03407 0.00707 -0.03696
 Zr559 Zr -0.05371 -0.03088 0.03159
 O560 O -0.02665 -0.00436 0.04910
 Zr561 Zr -0.07033 0.01113 -0.01752
 O562 O -0.04452 0.04022 -0.00271
 Zr563 Zr -0.02236 -0.03170 -0.02803
 O564 O 0.00616 -0.00476 -0.01380
 O565 O -0.00227 0.03015 0.02191
 O566 O -0.05901 -0.02762 -0.01062
 C567 C -0.01409 0.08467 0.01524
 C568 C 0.00970 0.03084 0.07800
 C569 C 0.04973 0.02832 0.00018
 C570 C -0.04946 -0.08135 -0.00360
 C571 C -0.10927 -0.03015 0.00597
 C572 C -0.06947 -0.02578 -0.06815
 H573 H -0.08397 0.01087 0.03420
 H574 H -0.03521 0.01033 -0.05688
 H575 H 0.01050 0.04312 0.02880
 H576 H -0.01008 -0.05467 0.01884
 H577 H -0.03021 -0.04843 0.07468
 H578 H 0.01118 -0.04975 0.05984
 H579 H -0.06820 0.03962 -0.06140
 H580 H -0.03574 0.06870 -0.04449
 H581 H -0.08852 -0.01709 0.06788
 H582 H -0.05268 0.01662 0.08685
 H583 H -0.00607 -0.01755 -0.07601
 H584 H 0.02091 0.01638 -0.05938
 H585 H -0.07725 0.06508 0.02915
 H586 H -0.10950 0.03402 0.00654
 H587 H 0.04213 -0.03554 0.00050
 H588 H 0.01167 -0.06833 -0.01789
 O589 O 0.03393 0.56264 0.52218
 O590 O -0.01067 0.54560 0.52578
 O591 O 0.07890 0.50083 0.55834
 O592 O 0.08611 0.45804 0.55144
 O593 O 0.10003 0.53594 0.48106
 O594 O 0.08477 0.52732 0.43415
 O595 O 0.01569 0.41765 0.49436
 O596 O 0.02820 0.42789 0.54148
 O597 O -0.03314 0.47455 0.46756
 O598 O -0.03201 0.52368 0.46683
 O599 O 0.03270 0.45458 0.42102
 O600 O 0.08080 0.46570 0.42529
 O601 O 0.04340 0.42105 0.45831
 O602 O 0.08647 0.43623 0.45223
 O603 O -0.00387 0.47961 0.42465
 O604 O -0.00960 0.52686 0.43325
 O605 O -0.02236 0.44565 0.50128
 O606 O -0.01013 0.45322 0.54545
 O607 O 0.05839 0.56516 0.48350
 O608 O 0.05230 0.55249 0.43746
 O609 O 0.10941 0.50721 0.51546
 O610 O 0.10834 0.45900 0.51298
 O611 O 0.04320 0.52717 0.56216
 O612 O -0.00305 0.52105 0.55755
 Zr613 Zr 0.02342 0.52225 0.52449
 O614 O -0.00006 0.49330 0.50572
 Zr615 Zr 0.07583 0.48396 0.51926
 O616 O 0.05472 0.45376 0.49975
 Zr617 Zr 0.06148 0.52641 0.46978
 O618 O 0.03909 0.49853 0.44839
 Zr619 Zr 0.01572 0.45560 0.51188
 O620 O 0.03727 0.48407 0.53412
 Zr621 Zr 0.00051 0.49831 0.46299
 O622 O 0.02218 0.52895 0.48192
 Zr623 Zr 0.05363 0.46090 0.45740
 O624 O 0.07784 0.48908 0.47656
 O625 O 0.06192 0.52173 0.51209
 O626 O 0.01478 0.46050 0.46955
 C627 C 0.04749 0.57548 0.50448
 C628 C 0.06435 0.51698 0.57156
 C629 C 0.11513 0.52660 0.49974
 C630 C 0.02760 0.40813 0.47344
 C631 C -0.03819 0.45499 0.48346
 C632 C 0.01099 0.46347 0.41178
 H633 H -0.01785 0.49437 0.51333
 H634 H 0.03994 0.50257 0.42862
 H635 H 0.07213 0.53524 0.52197
 H636 H 0.06237 0.43637 0.50400
 H637 H 0.03553 0.43808 0.55697
 H638 H 0.07845 0.44067 0.54721
 H639 H 0.00466 0.52753 0.41972
 H640 H 0.03383 0.55753 0.43990
 H641 H -0.00203 0.46307 0.56070
 H642 H 0.00163 0.50559 0.56880
 H643 H 0.07341 0.47849 0.41212
 H644 H 0.09798 0.51324 0.43617
 H645 H -0.01239 0.55403 0.50759
 H646 H -0.03986 0.52059 0.48502
 H647 H 0.11514 0.46284 0.49446
 H648 H 0.09147 0.42959 0.47054
 O649 O 0.56062 0.06195 0.47667
 O650 O 0.53894 0.06238 0.43104
 O651 O 0.49704 0.08376 0.52919
 O652 O 0.45585 0.06905 0.53644
 O653 O 0.54382 0.01649 0.54959
 O654 O 0.54710 -0.02800 0.53089
 O655 O 0.42404 0.00782 0.46707
 O656 O 0.42593 0.05362 0.47830
 O657 O 0.48222 -0.00732 0.41190
 O658 O 0.53057 0.00560 0.41034
 O659 O 0.47487 -0.05428 0.47797
 O660 O 0.48906 -0.04998 0.52842
 O661 O 0.43663 -0.02596 0.49466
 O662 O 0.45625 -0.03033 0.53814
 O663 O 0.49938 -0.04488 0.44056
 O664 O 0.54120 -0.02688 0.43165
 O665 O 0.44827 0.01892 0.42413
 O666 O 0.44782 0.06270 0.43745
 O667 O 0.57133 0.02821 0.50522
 O668 O 0.56930 -0.01763 0.49707
 O669 O 0.51091 0.04445 0.56096
 O670 O 0.46553 0.03301 0.56108
 O671 O 0.52137 0.09230 0.49130
 O672 O 0.51051 0.09112 0.44688
 Zr673 Zr 0.52028 0.05686 0.46923
 O674 O 0.49468 0.03374 0.44535
 Zr675 Zr 0.48700 0.04371 0.52585
 O676 O 0.46094 0.01890 0.50467
 Zr677 Zr 0.53718 0.00606 0.50829
 O678 O 0.51369 -0.01959 0.48523
 Zr679 Zr 0.45786 0.03125 0.46384
 O680 O 0.48216 0.05787 0.48558
 Zr681 Zr 0.50856 -0.00509 0.44519
 O682 O 0.53548 0.01848 0.46712
 Zr683 Zr 0.47620 -0.01955 0.50203
 O684 O 0.50043 0.00441 0.52679
 O685 O 0.52427 0.04467 0.50964
 O686 O 0.47129 -0.00738 0.46166
 C687 C 0.57686 0.04908 0.49171
 C688 C 0.51111 0.09893 0.51425
 C689 C 0.53186 0.03172 0.56652
 C690 C 0.41965 -0.01360 0.48033
 C691 C 0.45985 0.00332 0.40746
 C692 C 0.48554 -0.06048 0.45501
 H693 H 0.49319 0.04101 0.42664
 H694 H 0.52167 -0.03730 0.48531
 H695 H 0.53605 0.05609 0.52041
 H696 H 0.44382 0.01921 0.51385
 H697 H 0.43316 0.07010 0.48595
 H698 H 0.43944 0.06044 0.53079
 H699 H 0.54761 -0.03719 0.44747
 H700 H 0.57332 -0.01327 0.47778
 H701 H 0.45525 0.07883 0.44568
 H702 H 0.49672 0.08614 0.43370
 H703 H 0.50249 -0.06030 0.51866
 H704 H 0.53299 -0.03074 0.54433
 H705 H 0.55182 0.04801 0.42904
 H706 H 0.52053 0.01884 0.39985
 H707 H 0.47235 0.01577 0.56725
 H708 H 0.44623 -0.01476 0.54422
 O709 O 0.49915 0.53965 0.06235
 O710 O 0.45814 0.51913 0.07088
 O711 O 0.55213 0.47544 0.08041
 O712 O 0.55899 0.43453 0.06468
 O713 O 0.56290 0.52327 0.00859
 O714 O 0.54277 0.52451 -0.03540
 O715 O 0.48636 0.40063 0.01271
 O716 O 0.49773 0.40461 0.05891
 O717 O 0.43062 0.46262 0.00038
 O718 O 0.43128 0.51009 0.00772
 O719 O 0.48953 0.44865 -0.05639
 O720 O 0.53628 0.46185 -0.05832
 O721 O 0.50559 0.41172 -0.02762
 O722 O 0.54968 0.43179 -0.03436
 O723 O 0.45401 0.47135 -0.04183
 O724 O 0.45143 0.51943 -0.02648
 O725 O 0.44499 0.42671 0.02376
 O726 O 0.46366 0.42691 0.07130
 O727 O 0.52144 0.55052 0.02373
 O728 O 0.50905 0.54537 -0.02407
 O729 O 0.57701 0.48986 0.03593
 O730 O 0.57579 0.44240 0.02415
 O731 O 0.51718 0.50028 0.09291
 O732 O 0.47208 0.48772 0.09447
 Zr733 Zr 0.49226 0.49901 0.05871
 O734 O 0.46696 0.47373 0.03745
 Zr735 Zr 0.54438 0.46503 0.03945
 O736 O 0.52126 0.43789 0.01758
 Zr737 Zr 0.52342 0.51500 0.00141
 O738 O 0.49974 0.49007 -0.02253
 Zr739 Zr 0.48379 0.43610 0.03465
 O740 O 0.50799 0.46068 0.05881
 Zr741 Zr 0.46354 0.48640 -0.00325
 O742 O 0.48608 0.51373 0.01895
 Zr743 Zr 0.51524 0.45173 -0.02264
 O744 O 0.54083 0.47757 -0.00153
 O745 O 0.52895 0.50276 0.04157
 O746 O 0.47835 0.44829 -0.00558
 C747 C 0.51086 0.55623 0.04685
 C748 C 0.53954 0.48981 0.09756
 C749 C 0.58040 0.51159 0.02300
 C750 C 0.49489 0.39516 -0.01134
 C751 C 0.42743 0.43963 0.01050
 C752 C 0.46603 0.45690 -0.05923
 H753 H 0.44988 0.47342 0.04666
 H754 H 0.49798 0.49718 -0.04127
 H755 H 0.53997 0.51506 0.05220
 H756 H 0.52984 0.42048 0.01786
 H757 H 0.50886 0.41245 0.07336
 H758 H 0.55016 0.41809 0.05915
 H759 H 0.46077 0.51912 -0.04417
 H760 H 0.49140 0.54971 -0.01732
 H761 H 0.44847 0.43877 0.07292
 H762 H 0.47811 0.46974 0.09900
 H763 H 0.52771 0.47730 -0.06675
 H764 H 0.55329 0.50888 -0.04035
 H765 H 0.45234 0.52955 0.05486
 H766 H 0.42541 0.50443 0.02607
 H767 H 0.58054 0.44995 0.00617
 H768 H 0.55331 0.41811 -0.02047
 O769 O 0.80094 0.31267 0.50467
 O770 O 0.79156 0.30279 0.55257
 O771 O 0.84997 0.25093 0.47963
 O772 O 0.84968 0.20626 0.48282
 O773 O 0.78428 0.26992 0.43031
 O774 O 0.74089 0.26416 0.43188
 O775 O 0.77892 0.16958 0.54031
 O776 O 0.82435 0.18348 0.54083
 O777 O 0.73597 0.23157 0.57062
 O778 O 0.73227 0.27920 0.55894
 O779 O 0.71519 0.19517 0.49545
 O780 O 0.72948 0.20113 0.44927
 O781 O 0.75426 0.16555 0.50174
 O782 O 0.76221 0.17371 0.45433
 O783 O 0.70619 0.22618 0.52769
 O784 O 0.70850 0.27420 0.52680
 O785 O 0.77162 0.20540 0.57547
 O786 O 0.81642 0.21264 0.57372
 O787 O 0.77408 0.30755 0.46791
 O788 O 0.73010 0.29150 0.46492
 O789 O 0.81936 0.24314 0.43665
 O790 O 0.82224 0.19789 0.44805
 O791 O 0.84089 0.28138 0.51249
 O792 O 0.82473 0.27880 0.55827
 Zr793 Zr 0.80178 0.27467 0.52250
 O794 O 0.77920 0.24806 0.54542
 Zr795 Zr 0.81541 0.22865 0.47647
 O796 O 0.79299 0.20023 0.49704
 Zr797 Zr 0.76383 0.26762 0.46780
 O798 O 0.73929 0.24117 0.48857
 Zr799 Zr 0.79193 0.20915 0.53886
 O800 O 0.81695 0.23615 0.51888
 Zr801 Zr 0.74062 0.24837 0.53110
 O802 O 0.76267 0.27717 0.50984
 Zr803 Zr 0.75392 0.20290 0.48419
 O804 O 0.77701 0.22896 0.46097
 O805 O 0.80234 0.26714 0.48067
 O806 O 0.75310 0.20963 0.52633
 C807 C 0.78867 0.32152 0.48354
 C808 C 0.85613 0.27060 0.49497
 C809 C 0.80534 0.25862 0.42207
 C810 C 0.76458 0.15632 0.52361
 C811 C 0.75043 0.21551 0.58432
 C812 C 0.69991 0.20639 0.51267
 H813 H 0.78024 0.25310 0.56494
 H814 H 0.72142 0.24255 0.48114
 H815 H 0.81315 0.27969 0.47022
 H816 H 0.80040 0.18250 0.49406
 H817 H 0.83988 0.19400 0.53601
 H818 H 0.84451 0.18910 0.49063
 H819 H 0.70111 0.27157 0.50827
 H820 H 0.72823 0.30068 0.48271
 H821 H 0.81380 0.23038 0.58157
 H822 H 0.83622 0.26315 0.55910
 H823 H 0.73882 0.21006 0.43420
 H824 H 0.72610 0.25243 0.43609
 H825 H 0.77414 0.30960 0.54747
 H826 H 0.74635 0.27959 0.57280
 H827 H 0.80641 0.19641 0.43653
 H828 H 0.77940 0.16592 0.45856
 O829 O 0.72258 0.76341 -0.08012
 O830 O 0.68144 0.75288 -0.06271
 O831 O 0.76005 0.80569 -0.01701
 O832 O 0.76926 0.79919 0.02878
 O833 O 0.80117 0.74155 -0.05607
 O834 O 0.79966 0.69848 -0.05875
 O835 O 0.72011 0.72578 0.06788
 O836 O 0.71023 0.77001 0.05993
 O837 O 0.68283 0.68385 0.00628
 O838 O 0.68234 0.68300 -0.04125
 O839 O 0.75975 0.66588 0.02910
 O840 O 0.79973 0.68072 0.01618
 O841 O 0.75750 0.70212 0.06329
 O842 O 0.80135 0.71548 0.04313
 O843 O 0.72312 0.65780 0.00426
 O844 O 0.71822 0.66544 -0.04950
 O845 O 0.68021 0.71704 0.03746
 O846 O 0.68129 0.76770 0.03149
 O847 O 0.75920 0.73897 -0.08659
 O848 O 0.76248 0.68917 -0.07496
 O849 O 0.80217 0.77449 -0.02443
 O850 O 0.80012 0.77319 0.02647
 O851 O 0.72296 0.79956 -0.04184
 O852 O 0.68012 0.77963 -0.02987
 Zr853 Zr 0.71491 0.75885 -0.03823
 O854 O 0.69971 0.73118 -0.01040
 Zr855 Zr 0.76816 0.76859 -0.00053
 O856 O 0.75394 0.74357 0.03020
 Zr857 Zr 0.76695 0.72146 -0.04793
 O858 O 0.75582 0.69352 -0.01828
 Zr859 Zr 0.71295 0.74112 0.02887
 O860 O 0.72701 0.76992 0.00131
 Zr861 Zr 0.71514 0.69325 -0.01733
 O862 O 0.72621 0.72009 -0.04851
 Zr863 Zr 0.76697 0.70544 0.02136
 O864 O 0.78248 0.73066 -0.00879
 O865 O 0.75531 0.75979 -0.03974
 O866 O 0.72650 0.70307 0.02225
 C867 C 0.74136 0.75497 -0.09498
 C868 C 0.74147 0.81402 -0.03231
 C869 C 0.81167 0.76168 -0.04495
 C870 C 0.73835 0.71114 0.07739
 C871 C 0.67221 0.69532 0.02673
 C872 C 0.74100 0.65106 0.02152
 H873 H 0.68050 0.73129 -0.01170
 H874 H 0.76311 0.67602 -0.02276
 H875 H 0.76234 0.77266 -0.05295
 H876 H 0.76013 0.74981 0.04826
 H877 H 0.72804 0.77658 0.06335
 H878 H 0.75093 0.80305 0.03354
 H879 H 0.73168 0.65241 -0.04432
 H880 H 0.74629 0.69221 -0.08556
 H881 H 0.66672 0.76031 0.02067
 H882 H 0.68392 0.79179 -0.01452
 H883 H 0.81075 0.68913 0.00211
 H884 H 0.80328 0.68679 -0.04303
 H885 H 0.68336 0.73524 -0.07107
 H886 H 0.67230 0.69938 -0.04415
 H887 H 0.81301 0.75946 0.02164
 H888 H 0.79672 0.72805 0.05782
 O889 O 1.07722 0.23751 0.24462
 O890 O 1.05930 0.24611 0.29048
 O891 O 1.02074 0.19018 0.20713
 O892 O 0.97821 0.19218 0.19649
 O893 O 1.05162 0.25898 0.16598
 O894 O 1.04183 0.30560 0.16981
 O895 O 0.93288 0.26294 0.25305
 O896 O 0.94420 0.21605 0.25189
 O897 O 0.98780 0.30077 0.29757
 O898 O 1.03557 0.30560 0.29535
 O899 O 0.96564 0.32721 0.21672
 O900 O 0.97890 0.31208 0.16979
 O901 O 0.93560 0.29001 0.21613
 O902 O 0.95293 0.28166 0.16921
 O903 O 0.98821 0.33267 0.25649
 O904 O 1.03587 0.33132 0.26444
 O905 O 0.95943 0.26665 0.29359
 O906 O 0.96847 0.21958 0.29004
 O907 O 1.07979 0.26796 0.21057
 O908 O 1.06509 0.31186 0.20442
 O909 O 1.02453 0.22364 0.16348
 O910 O 0.97748 0.22219 0.16408
 O911 O 1.04489 0.19815 0.24542
 O912 O 1.03489 0.21277 0.28977
 Zr913 Zr 1.03727 0.23734 0.25497
 O914 O 1.00719 0.25910 0.27331
 Zr915 Zr 1.00154 0.22636 0.19913
 O916 O 0.96987 0.24840 0.21481
 Zr917 Zr 1.04095 0.27829 0.20243
 O918 O 1.01143 0.30239 0.21864
 Zr919 Zr 0.97076 0.24732 0.25771
 O920 O 1.00065 0.22280 0.24215
 Zr921 Zr 1.01060 0.29856 0.26158
 O922 O 1.04254 0.27727 0.24551
 Zr923 Zr 0.97507 0.28842 0.20520
 O924 O 1.00490 0.26591 0.18660
 O925 O 1.03792 0.23868 0.21245
 O926 O 0.97413 0.28687 0.24784
 C927 C 1.08998 0.25104 0.22691
 C928 C 1.03664 0.18310 0.22629
 C929 C 1.04285 0.23825 0.15404
 C930 C 0.92320 0.27991 0.23629
 C931 C 0.96859 0.28679 0.30608
 C932 C 0.97217 0.34052 0.23800
 H933 H 1.00843 0.25693 0.29338
 H934 H 1.01439 0.32077 0.21291
 H935 H 1.05191 0.22765 0.20456
 H936 H 0.95310 0.24161 0.20783
 H937 H 0.95471 0.20027 0.24743
 H938 H 0.96042 0.19707 0.20232
 H939 H 1.03537 0.34070 0.24671
 H940 H 1.06859 0.31504 0.22410
 H941 H 0.98125 0.22463 0.30428
 H942 H 1.01844 0.20281 0.28791
 H943 H 0.99139 0.32630 0.17408
 H944 H 1.02765 0.30061 0.15706
 H945 H 1.06797 0.26319 0.28715
 H946 H 1.03443 0.29017 0.30761
 H947 H 0.97875 0.23882 0.15365
 H948 H 0.94212 0.26585 0.17217
 O949 O 0.72355 1.07084 0.72475
 O950 O 0.76925 1.06248 0.71435
 O951 O 0.68543 1.00667 0.68572
 O952 O 0.68769 0.96186 0.68736
 O953 O 0.66641 1.02842 0.76817
 O954 O 0.68718 1.01941 0.81193
 O955 O 0.76794 0.93015 0.73198
 O956 O 0.75054 0.94274 0.68812
 O957 O 0.80795 0.99154 0.76359
 O958 O 0.79832 1.04091 0.76826
 O959 O 0.75284 0.95700 0.81275
 O960 O 0.70275 0.95813 0.81246
 O961 O 0.74668 0.92502 0.77242
 O962 O 0.70218 0.92950 0.78286
 O963 O 0.78367 0.98860 0.80734
 O964 O 0.78007 1.03598 0.80463
 O965 O 0.80032 0.96480 0.72706
 O966 O 0.78007 0.97423 0.68241
 O967 O 0.70133 1.06544 0.76466
 O968 O 0.71483 1.04983 0.80878
 O969 O 0.65889 1.00233 0.73106
 O970 O 0.66832 0.95536 0.72770
 O971 O 0.71615 1.03872 0.68189
 O972 O 0.76187 1.03850 0.68041
 Zr973 Zr 0.73988 1.03349 0.71654
 O974 O 0.76990 1.00823 0.72962
 Zr975 Zr 0.69554 0.98606 0.72173
 O976 O 0.72368 0.95872 0.73562
 Zr977 Zr 0.70688 1.02562 0.77452
 O978 O 0.73577 1.00054 0.79050
 Zr979 Zr 0.76026 0.96909 0.72011
 O980 O 0.73175 0.99469 0.70367
 Zr981 Zr 0.77187 1.00927 0.77247
 O982 O 0.74359 1.03678 0.75933
 Zr983 Zr 0.72795 0.96160 0.77846
 O984 O 0.69720 0.98646 0.76488
 O985 O 0.70340 1.02482 0.73213
 O986 O 0.76441 0.97020 0.76256
 C987 C 0.70918 1.07940 0.74442
 C988 C 0.69586 1.02641 0.67345
 C989 C 0.65147 1.01858 0.74967
 C990 C 0.76179 0.91674 0.75328
 C991 C 0.81512 0.97444 0.74570
 C992 C 0.77362 0.96920 0.82020
 H993 H 0.78654 1.01357 0.72123
 H994 H 0.73613 1.00259 0.81063
 H995 H 0.69009 1.03714 0.72500
 H996 H 0.71896 0.94065 0.72998
 H997 H 0.73876 0.95237 0.67553
 H998 H 0.69752 0.94526 0.68974
 H999 H 0.76666 1.03349 0.81888
 H1000 H 0.73114 1.05934 0.80462
 H1001 H 0.79198 0.98939 0.68428
 H1002 H 0.76072 1.02167 0.67026
 H1003 H 0.70878 0.97072 0.82659
 H1004 H 0.67725 1.00285 0.80985
 H1005 H 0.77185 1.06917 0.73321
 H1006 H 0.80798 1.03846 0.75095
 H1007 H 0.66311 0.95593 0.74720
 H1008 H 0.69439 0.92611 0.76467
 O1009 O 0.73541 0.57901 0.24419
 O1010 O 0.78108 0.57346 0.23610
 O1011 O 0.70691 0.50255 0.21791
 O1012 O 0.70944 0.46097 0.23152
 O1013 O 0.67981 0.54064 0.29333
 O1014 O 0.69767 0.54221 0.33835
 O1015 O 0.79129 0.44705 0.28261
 O1016 O 0.77909 0.45085 0.23682
 O1017 O 0.82405 0.52167 0.30285
 O1018 O 0.80922 0.56710 0.29909
 O1019 O 0.77115 0.48593 0.35463
 O1020 O 0.72289 0.48312 0.35590
 O1021 O 0.76795 0.44862 0.32211
 O1022 O 0.71981 0.45298 0.32891
 O1023 O 0.79767 0.52061 0.34566
 O1024 O 0.78656 0.56754 0.33265
 O1025 O 0.82177 0.48527 0.27582
 O1026 O 0.80403 0.48470 0.22701
 O1027 O 0.71249 0.57963 0.28406
 O1028 O 0.72342 0.57340 0.33125
 O1029 O 0.67693 0.50721 0.26242
 O1030 O 0.69230 0.46055 0.27119
 O1031 O 0.73229 0.53801 0.20852
 O1032 O 0.77876 0.54159 0.20934
 Zr1033 Zr 0.75498 0.54244 0.24458
 O1034 O 0.78654 0.52440 0.26501
 Zr1035 Zr 0.71545 0.49278 0.25874
 O1036 O 0.74558 0.47212 0.27897
 Zr1037 Zr 0.71977 0.54298 0.30191
 O1038 O 0.74950 0.52465 0.32458
 Zr1039 Zr 0.78219 0.48327 0.26381
 O1040 O 0.75183 0.50121 0.24082
 Zr1041 Zr 0.78545 0.53399 0.30690
 O1042 O 0.75590 0.55471 0.28590
 Zr1043 Zr 0.74635 0.48366 0.32034
 O1044 O 0.71432 0.50206 0.30071
 O1045 O 0.71868 0.53343 0.26038
 O1046 O 0.78292 0.49312 0.30517
 C1047 C 0.72029 0.59015 0.26173
 C1048 C 0.71503 0.52079 0.20188
 C1049 C 0.66695 0.52596 0.27676
 C1050 C 0.78424 0.43759 0.30583
 C1051 C 0.83430 0.50178 0.29090
 C1052 C 0.79017 0.50129 0.36057
 H1053 H 0.80303 0.53009 0.25655
 H1054 H 0.74858 0.53023 0.34395
 H1055 H 0.70488 0.54270 0.24997
 H1056 H 0.74285 0.45298 0.27679
 H1057 H 0.76634 0.45592 0.22250
 H1058 H 0.72454 0.44904 0.23359
 H1059 H 0.77627 0.56367 0.34925
 H1060 H 0.73909 0.58359 0.32622
 H1061 H 0.81657 0.49939 0.22827
 H1062 H 0.77918 0.52307 0.20309
 H1063 H 0.72536 0.50002 0.36560
 H1064 H 0.69168 0.52385 0.34070
 H1065 H 0.78307 0.58354 0.25334
 H1066 H 0.81651 0.56509 0.28048
 H1067 H 0.68418 0.46549 0.28884
 H1068 H 0.72048 0.44032 0.31353
 O1069 O 0.57419 0.24368 0.73874
 O1070 O 0.55465 0.24012 0.78439
 O1071 O 0.51785 0.20667 0.68712
 O1072 O 0.47426 0.21174 0.68025
 O1073 O 0.55055 0.28147 0.66573
 O1074 O 0.54146 0.32647 0.68062
 O1075 O 0.42939 0.26676 0.74487
 O1076 O 0.44321 0.22131 0.73867
 O1077 O 0.48399 0.29675 0.80235
 O1078 O 0.53262 0.29730 0.80338
 O1079 O 0.46938 0.34087 0.72970
 O1080 O 0.48050 0.33218 0.67895
 O1081 O 0.43491 0.30517 0.72177
 O1082 O 0.44862 0.30826 0.67663
 O1083 O 0.48973 0.33676 0.77095
 O1084 O 0.53610 0.32942 0.77950
 O1085 O 0.45434 0.26606 0.78916
 O1086 O 0.46297 0.22292 0.78084
 O1087 O 0.57789 0.27970 0.71137
 O1088 O 0.56482 0.32391 0.71584
 O1089 O 0.52258 0.24828 0.65504
 O1090 O 0.47522 0.24766 0.65438
 O1091 O 0.54248 0.20609 0.72597
 O1092 O 0.53034 0.20893 0.77420
 Zr1093 Zr 0.53384 0.24108 0.74697
 O1094 O 0.50391 0.25929 0.76961
 Zr1095 Zr 0.49889 0.24380 0.68975
 O1096 O 0.46785 0.26331 0.70962
 Zr1097 Zr 0.53954 0.29260 0.70569
 O1098 O 0.51082 0.31346 0.72716
 Zr1099 Zr 0.46758 0.25268 0.75103
 O1100 O 0.49708 0.23078 0.73074
 Zr1101 Zr 0.50880 0.30026 0.76804
 O1102 O 0.54028 0.28194 0.74744
 Zr1103 Zr 0.47432 0.30420 0.71030
 O1104 O 0.50339 0.28503 0.68686
 O1105 O 0.53528 0.25203 0.70613
 O1106 O 0.47209 0.29339 0.75131
 C1107 C 0.58751 0.26004 0.72435
 C1108 C 0.53481 0.19604 0.70318
 C1109 C 0.54160 0.26375 0.64947
 C1110 C 0.42084 0.28835 0.73447
 C1111 C 0.46340 0.28293 0.80625
 C1112 C 0.47637 0.34969 0.75326
 H1113 H 0.50402 0.25251 0.78860
 H1114 H 0.51506 0.33237 0.72577
 H1115 H 0.54943 0.24308 0.69605
 H1116 H 0.45115 0.25888 0.70063
 H1117 H 0.45474 0.20638 0.73381
 H1118 H 0.45680 0.21596 0.68751
 H1119 H 0.53752 0.34198 0.76412
 H1120 H 0.56874 0.32215 0.73562
 H1121 H 0.47777 0.21074 0.77847
 H1122 H 0.51729 0.19680 0.76624
 H1123 H 0.49227 0.34582 0.68643
 H1124 H 0.52864 0.32403 0.66565
 H1125 H 0.56287 0.25761 0.78655
 H1126 H 0.52870 0.28037 0.81244
 H1127 H 0.47793 0.26569 0.64730
 H1128 H 0.44580 0.29048 0.66901
 O1129 O 0.23907 0.79649 0.44394
 O1130 O 0.19553 0.78372 0.46205
 O1131 O 0.27020 0.84398 0.50715
 O1132 O 0.27327 0.84043 0.55381
 O1133 O 0.31696 0.78208 0.47579
 O1134 O 0.31535 0.73407 0.48031
 O1135 O 0.22983 0.76337 0.59366
 O1136 O 0.22461 0.80973 0.58447
 O1137 O 0.19173 0.72450 0.53079
 O1138 O 0.19783 0.72545 0.47828
 O1139 O 0.26829 0.70396 0.55666
 O1140 O 0.31271 0.72239 0.54447
 O1141 O 0.26788 0.74061 0.59060
 O1142 O 0.31090 0.75074 0.57356
 O1143 O 0.23336 0.69576 0.52925
 O1144 O 0.22751 0.69876 0.48189
 O1145 O 0.19136 0.75645 0.56342
 O1146 O 0.18847 0.80109 0.55675
 O1147 O 0.27688 0.77325 0.44123
 O1148 O 0.28505 0.72871 0.45221
 O1149 O 0.31262 0.81536 0.50667
 O1150 O 0.30895 0.81463 0.55479
 O1151 O 0.23498 0.83535 0.48020
 O1152 O 0.19510 0.81945 0.48574
 Zr1153 Zr 0.22838 0.79494 0.48559
 O1154 O 0.21169 0.76949 0.51469
 Zr1155 Zr 0.27786 0.80797 0.52703
 O1156 O 0.26430 0.78211 0.55739
 Zr1157 Zr 0.28265 0.75938 0.48138
 O1158 O 0.26772 0.73158 0.50932
 Zr1159 Zr 0.22374 0.77962 0.55449
 O1160 O 0.23694 0.80781 0.52581
 Zr1161 Zr 0.22666 0.73147 0.50868
 O1162 O 0.24177 0.75648 0.47770
 Zr1163 Zr 0.27750 0.74365 0.54917
 O1164 O 0.29422 0.77028 0.52112
 O1165 O 0.26874 0.79731 0.48706
 O1166 O 0.23696 0.74138 0.54859
 C1167 C 0.25853 0.78712 0.43060
 C1168 C 0.25273 0.85071 0.48953
 C1169 C 0.32516 0.80299 0.48805
 C1170 C 0.24796 0.74876 0.60377
 C1171 C 0.18161 0.73617 0.55168
 C1172 C 0.25023 0.68893 0.54738
 H1173 H 0.19252 0.77013 0.51291
 H1174 H 0.27479 0.71394 0.50511
 H1175 H 0.27616 0.80964 0.47351
 H1176 H 0.26980 0.78833 0.57571
 H1177 H 0.22622 0.82661 0.57454
 H1178 H 0.26931 0.83345 0.57224
 H1179 H 0.24561 0.69692 0.47539
 H1180 H 0.26703 0.72525 0.44596
 H1181 H 0.19118 0.81756 0.54638
 H1182 H 0.18418 0.81377 0.50128
 H1183 H 0.30948 0.70761 0.53171
 H1184 H 0.32617 0.73851 0.49647
 H1185 H 0.20091 0.76869 0.45044
 H1186 H 0.18258 0.73637 0.48320
 H1187 H 0.32073 0.79924 0.55346
 H1188 H 0.30769 0.76695 0.58427
 O1189 O 0.32448 0.23627 0.96491
 O1190 O 0.32058 0.18883 0.96920
 O1191 O 0.26609 0.25721 0.90863
 O1192 O 0.22315 0.24886 0.90317
 O1193 O 0.27287 0.29950 0.98294
 O1194 O 0.26020 0.29126 1.02940
 O1195 O 0.18793 0.18230 0.96776
 O1196 O 0.20630 0.18624 0.92283
 O1197 O 0.24882 0.15824 1.01860
 O1198 O 0.29185 0.17442 1.02999
 O1199 O 0.19946 0.22050 1.03939
 O1200 O 0.19961 0.26912 1.02814
 O1201 O 0.17623 0.21611 0.99570
 O1202 O 0.17994 0.26425 0.99263
 O1203 O 0.23337 0.19416 1.05162
 O1204 O 0.28157 0.20418 1.05487
 O1205 O 0.22439 0.15322 0.97997
 O1206 O 0.23966 0.15953 0.93232
 O1207 O 0.31241 0.26770 0.99570
 O1208 O 0.29138 0.26655 1.03942
 O1209 O 0.25061 0.29390 0.94293
 O1210 O 0.20719 0.27709 0.93391
 O1211 O 0.29939 0.22931 0.91910
 O1212 O 0.30018 0.18334 0.93176
 Zr1213 Zr 0.28998 0.21465 0.95819
 O1214 O 0.26509 0.18745 0.97738
 Zr1215 Zr 0.24059 0.25388 0.94215
 O1216 O 0.21341 0.22831 0.96028
 Zr1217 Zr 0.27228 0.26206 1.00129
 O1218 O 0.24652 0.23707 1.02218
 Zr1219 Zr 0.22766 0.18957 0.95977
 O1220 O 0.25350 0.21466 0.93822
 Zr1221 Zr 0.25965 0.19807 1.01861
 O1222 O 0.28719 0.22346 1.00031
 Zr1223 Zr 0.21034 0.23757 1.00211
 O1224 O 0.23516 0.26512 0.98326
 O1225 O 0.27724 0.25337 0.96010
 O1226 O 0.22270 0.19860 1.00100
 C1227 C 0.32928 0.25616 0.98045
 C1228 C 0.28810 0.24619 0.90346
 C1229 C 0.26316 0.30801 0.96032
 C1230 C 0.17136 0.19482 0.98260
 C1231 C 0.23435 0.14471 1.00242
 C1232 C 0.21063 0.20405 1.05551
 H1233 H 0.27270 0.16965 0.97578
 H1234 H 0.24507 0.24261 1.04152
 H1235 H 0.28933 0.26579 0.95118
 H1236 H 0.19649 0.22956 0.95066
 H1237 H 0.21704 0.19433 0.90830
 H1238 H 0.20777 0.23743 0.90561
 H1239 H 0.27302 0.21832 1.06551
 H1240 H 0.30154 0.25023 1.04244
 H1241 H 0.25486 0.15038 0.94036
 H1242 H 0.28555 0.18132 0.91869
 H1243 H 0.20982 0.26761 1.04529
 H1244 H 0.24256 0.29681 1.02358
 H1245 H 0.32488 0.19265 0.98858
 H1246 H 0.29725 0.16436 1.01360
 H1247 H 0.20364 0.28753 0.95062
 H1248 H 0.17348 0.25996 0.97404
 N1249 N 0.26665 0.39531 0.82450
 N1250 N 0.27622 0.37136 0.82653
 C1251 C 0.29636 0.36864 0.80904
 C1252 C 0.29933 0.39239 0.79479
 C1253 C 0.28002 0.40879 0.80549
 H1254 H 0.31342 0.39711 0.77914
 H1255 H 0.25077 0.40207 0.83584
 H1256 H 0.26826 0.35718 0.83942
 N1257 N 0.30039 -0.12912 0.23563
 N1258 N 0.30936 -0.15200 0.24823
 C1259 C 0.29755 -0.15405 0.27289
 C1260 C 0.28083 -0.13260 0.27618
 C1261 C 0.28339 -0.11756 0.25272
 H1262 H 0.26911 -0.12758 0.29379
 H1263 H 0.30668 -0.12214 0.21666
 H1264 H 0.32253 -0.16491 0.23909
 N1265 N 0.79444 0.88303 0.74055
 N1266 N 0.80448 0.85986 0.75152
 C1267 C 0.79015 0.85346 0.77370
 C1268 C 0.77065 0.87245 0.77710
 C1269 C 0.77434 0.89074 0.75623
 H1270 H 0.75677 0.87394 0.79366
 H1271 H 0.80256 0.89322 0.72410
 H1272 H 0.82001 0.84949 0.74298
 N1273 N 0.47032 0.85340 0.32463
 N1274 N 0.46072 0.87699 0.32974
 C1275 C 0.44622 0.88493 0.30809
 C1276 C 0.44644 0.86493 0.28848
 C1277 C 0.46209 0.84546 0.29979
 H1278 H 0.43737 0.86479 0.26845
 H1279 H 0.48239 0.84299 0.33807
 H1280 H 0.46425 0.88707 0.34799
 N1281 N -0.01296 0.86908 0.80310
 N1282 N -0.02429 0.89111 0.81108
 C1283 C -0.04766 0.89300 0.79863
 C1284 C -0.05132 0.87124 0.78189
 C1285 C -0.02893 0.85650 0.78552
 H1286 H -0.06842 0.86612 0.77003
 H1287 H 0.00512 0.86254 0.81023
 H1288 H -0.01615 0.90435 0.82504
 N1289 N -0.07517 -0.12028 0.00957
 N1290 N -0.08186 -0.14431 -0.00209
 C1291 C -0.06806 -0.14712 -0.02543
 C1292 C -0.05220 -0.12517 -0.02890
 C1293 C -0.05769 -0.10874 -0.00694
 H1294 H -0.03995 -0.12059 -0.04624
 H1295 H -0.08386 -0.11224 0.02701
 H1296 H -0.09505 -0.15745 0.00658
 N1297 N 0.03617 0.36770 0.44645
 N1298 N 0.02262 0.34735 0.43759
 C1299 C -0.00073 0.34739 0.45007
 C1300 C -0.00188 0.36847 0.46812
 C1301 C 0.02179 0.38109 0.46483
 H1302 H -0.01871 0.37552 0.47926
 H1303 H 0.05429 0.37318 0.43869
 H1304 H 0.02890 0.33448 0.42227
 N1305 N 0.49613 -0.09697 0.42316
 N1306 N 0.48710 -0.12223 0.41753
 C1307 C 0.46734 -0.12742 0.43493
 C1308 C 0.46379 -0.10562 0.45210
 C1309 C 0.48206 -0.08721 0.44402
 H1310 H 0.44974 -0.10305 0.46833
 H1311 H 0.51101 -0.08753 0.41249
 H1312 H 0.49394 -0.13368 0.40133
 N1313 N 0.49560 0.34710 -0.00384
 N1314 N 0.48575 0.32602 -0.01574
 C1315 C 0.47561 0.33291 -0.04021
 C1316 C 0.47969 0.35961 -0.04430
 C1317 C 0.49211 0.36785 -0.02052
 H1318 H 0.47129 0.37190 -0.06013
 H1319 H 0.50294 0.34752 0.01613
 H1320 H 0.48411 0.30770 -0.00622
 N1321 N 0.77543 0.36133 0.45791
 N1322 N 0.78505 0.38451 0.45139
 C1323 C 0.80799 0.38794 0.46454
 C1324 C 0.81285 0.36561 0.48047
 C1325 C 0.79176 0.34924 0.47544
 H1326 H 0.82991 0.36105 0.49263
 H1327 H 0.75833 0.35357 0.44958
 H1328 H 0.77627 0.39691 0.43708
 N1329 N 0.72567 0.85378 -0.05744
 N1330 N 0.73459 0.87754 -0.06307
 C1331 C 0.75729 0.88118 -0.04957
 C1332 C 0.76285 0.85884 -0.03450
 C1333 C 0.74251 0.84184 -0.04031
 H1334 H 0.78033 0.85464 -0.02285
 H1335 H 0.70890 0.84562 -0.06608
 H1336 H 0.72555 0.89063 -0.07657
 N1337 N 0.83498 0.25075 0.38291
 N1338 N 0.84050 0.26161 0.35910
 C1339 C 0.82405 0.28191 0.35473
 C1340 C 0.80710 0.28378 0.37687
 C1341 C 0.81489 0.26381 0.39428
 H1342 H 0.79210 0.29829 0.38061
 H1343 H 0.84546 0.23519 0.39155
 H1344 H 0.85621 0.25585 0.34698
 N1345 N 0.72589 0.78251 -0.13393
 N1346 N 0.73755 0.79591 -0.15559
 C1347 C 0.76278 0.78836 -0.15682
 C1348 C 0.76721 0.76960 -0.13633
 C1349 C 0.74397 0.76682 -0.12237
 H1350 H 0.78554 0.76097 -0.13008
 H1351 H 0.70712 0.78618 -0.12670
 H1352 H 0.72789 0.80979 -0.16763
 N1353 N 0.31164 0.50207 0.89674
 N1354 N 0.32028 0.48796 0.91768
 C1355 C 0.30698 0.46507 0.91860
 C1356 C 0.28899 0.46496 0.89727
 C1357 C 0.29261 0.48857 0.88396
 H1358 H 0.27598 0.44936 0.89099
 H1359 H 0.31908 0.52037 0.89107
 H1360 H 0.33528 0.49402 0.93067
 N1361 N 0.32014 -0.02443 0.33679
 N1362 N 0.32779 -0.02901 0.36214
 C1363 C 0.30829 -0.04095 0.37584
 C1364 C 0.28743 -0.04451 0.35785
 C1365 C 0.29579 -0.03357 0.33346
 H1366 H 0.26841 -0.05260 0.36206
 H1367 H 0.33142 -0.01481 0.32215
 H1368 H 0.34612 -0.02372 0.36950
 N1369 N -0.10568 -0.02292 -0.10140
 N1370 N -0.11057 -0.03069 -0.12824
 C1371 C -0.09021 -0.04544 -0.13681
 C1372 C -0.07218 -0.04747 -0.11537
 C1373 C -0.08247 -0.03287 -0.09393
 H1374 H -0.05328 -0.05687 -0.11559
 H1375 H -0.11774 -0.01059 -0.08991
 H1376 H -0.12748 -0.02561 -0.13882
 N1377 N 0.01816 0.43820 0.36927
 N1378 N 0.00537 0.43370 0.34459
 C1379 C -0.01730 0.44735 0.34482
 C1380 C -0.01905 0.46096 0.36971
 C1381 C 0.00335 0.45448 0.38430
 H1382 H -0.03470 0.47346 0.37681
 H1383 H 0.03618 0.43013 0.37465
 H1384 H 0.01336 0.42223 0.32902
 N1385 N 0.42318 0.00764 0.37427
 N1386 N 0.41424 -0.00491 0.35249
 C1387 C 0.43099 -0.02440 0.34589
 C1388 C 0.45168 -0.02391 0.36436
 C1389 C 0.44587 -0.00342 0.38204
 H1390 H 0.46808 -0.03724 0.36570
 H1391 H 0.41334 0.02293 0.38415
 H1392 H 0.39631 -0.00081 0.34330
 N1393 N 0.42445 0.45087 -0.08304
 N1394 N 0.41578 0.44793 -0.10976
 C1395 C 0.43675 0.44407 -0.12583
 C1396 C 0.45922 0.44368 -0.10967
 C1397 C 0.45057 0.44911 -0.08319
 H1398 H 0.47918 0.44340 -0.11669
 H1399 H 0.41256 0.45587 -0.06651
 H1400 H 0.39636 0.44982 -0.11585
 N1401 N 0.45255 0.74409 0.37948
 N1402 N 0.44349 0.75744 0.40069
 C1403 C 0.45338 0.78203 0.40008
 C1404 C 0.46984 0.78406 0.37772
 C1405 C 0.46857 0.75977 0.36511
 H1406 H 0.47928 0.80151 0.36992
 H1407 H 0.44682 0.72501 0.37431
 H1408 H 0.43013 0.74987 0.41466
 N1409 N 0.00010 0.79980 0.87315
 N1410 N -0.01129 0.80844 0.89570
 C1411 C -0.03526 0.79769 0.89744
 C1412 C -0.03887 0.78114 0.87506
 C1413 C -0.01619 0.78318 0.86020
 H1414 H -0.05625 0.77069 0.86891
 H1415 H 0.01834 0.80599 0.86633
 H1416 H -0.00278 0.82198 0.90906
 N1417 N 0.37999 0.74010 0.31135
 N1418 N 0.35680 0.74921 0.31826
 C1419 C 0.35280 0.77242 0.30550
 C1420 C 0.37450 0.77819 0.28973
 C1421 C 0.39121 0.75727 0.29406
 H1422 H 0.37815 0.79550 0.27747
 H1423 H 0.38795 0.72249 0.31856
 H1424 H 0.34407 0.73943 0.33137
 N1425 N -0.11330 0.76622 0.82464
 N1426 N -0.13730 0.77366 0.83033
 C1427 C -0.14678 0.78780 0.80912
 C1428 C -0.12762 0.78970 0.78916
 C1429 C -0.10683 0.77556 0.79980
 H1430 H -0.12885 0.79914 0.76934
 H1431 H -0.10165 0.75488 0.83765
 H1432 H -0.14670 0.76917 0.84865
 N1433 N 0.89135 0.30180 0.50787
 N1434 N 0.91246 0.31177 0.49658
 C1435 C 0.91673 0.29960 0.47241
 C1436 C 0.89750 0.28070 0.46850
 C1437 C 0.88175 0.28293 0.49132
 H1438 H 0.89429 0.26820 0.45087
 H1439 H 0.88309 0.30868 0.52605
 H1440 H 0.92276 0.32761 0.50481
 N1441 N 0.84349 0.76252 -0.08270
 N1442 N 0.86716 0.77130 -0.08737
 C1443 C 0.87551 0.78451 -0.06505
 C1444 C 0.85592 0.78442 -0.04540
 C1445 C 0.83612 0.77011 -0.05746
 H1446 H 0.85629 0.79262 -0.02494
 H1447 H 0.83267 0.75138 -0.09667
 H1448 H 0.87704 0.76838 -0.10577
 N1449 N -0.14233 -0.06452 0.01718
 N1450 N -0.16308 -0.07489 0.00525
 C1451 C -0.16890 -0.06094 -0.01752
 C1452 C -0.15107 -0.04046 -0.01964
 C1453 C -0.13447 -0.04359 0.00250
 H1454 H -0.14894 -0.02631 -0.03598
 H1455 H -0.13296 -0.07256 0.03426
 H1456 H -0.17202 -0.09210 0.01202
 N1457 N -0.06894 0.41914 0.49472
 N1458 N -0.09467 0.41243 0.48911
 C1459 C -0.10490 0.43115 0.47258
 C1460 C -0.08557 0.44996 0.46734
 C1461 C -0.06362 0.44172 0.48158
 H1462 H -0.08695 0.46763 0.45513
 H1463 H -0.05636 0.40825 0.50719
 H1464 H -0.10365 0.39589 0.49738
 N1465 N 0.38587 -0.04445 0.49670
 N1466 N 0.36286 -0.05314 0.48884
 C1467 C 0.35534 -0.03993 0.46618
 C1468 C 0.37457 -0.02170 0.45961
 C1469 C 0.39359 -0.02543 0.47939
 H1470 H 0.37543 -0.00858 0.44221
 H1471 H 0.39642 -0.05212 0.51320
 H1472 H 0.35335 -0.06882 0.49825
 N1473 N 0.39506 0.40325 0.01413
 N1474 N 0.37082 0.39755 0.00259
 C1475 C 0.36349 0.41820 -0.01325
 C1476 C 0.38280 0.43735 -0.01157
 C1477 C 0.40205 0.42723 0.00539
 H1478 H 0.38367 0.45604 -0.02205
 H1479 H 0.40594 0.39046 0.02639
 H1480 H 0.36110 0.37987 0.00593
 N1481 N 0.37118 0.52064 0.80031
 N1482 N 0.39475 0.51109 0.80430
 C1483 C 0.39498 0.48568 0.79651
 C1484 C 0.37060 0.47872 0.78688
 C1485 C 0.35603 0.50137 0.79013
 H1486 H 0.36359 0.45917 0.78209
 H1487 H 0.36528 0.53950 0.80616
 H1488 H 0.40972 0.52117 0.81429
 N1489 N 0.35913 -0.05905 0.22514
 N1490 N 0.38047 -0.06690 0.23797
 C1491 C 0.38282 -0.05338 0.26165
 C1492 C 0.36213 -0.03579 0.26358
 C1493 C 0.34743 -0.04021 0.24018
 H1494 H 0.35710 -0.02334 0.28074
 H1495 H 0.35211 -0.06743 0.20702
 H1496 H 0.39269 -0.08180 0.23078
 N1497 N 0.11920 0.55195 0.77982
 N1498 N 0.09823 0.55909 0.76588
 C1499 C 0.09971 0.54906 0.74027
 C1500 C 0.12247 0.53440 0.73830
 C1501 C 0.13429 0.53696 0.76358
 H1502 H 0.13088 0.52541 0.72028
 H1503 H 0.12357 0.55830 0.79966
 H1504 H 0.08386 0.57146 0.77377
 N1505 N 0.11053 0.00770 0.25435
 N1506 N 0.08904 0.01974 0.24628
 C1507 C 0.08978 0.02305 0.21885
 C1508 C 0.11256 0.01183 0.20902
 C1509 C 0.12531 0.00271 0.23227
 H1510 H 0.12073 0.01408 0.18874
 H1511 H 0.11581 0.00483 0.27482
 H1512 H 0.07524 0.02759 0.25968
 N1513 N 0.61320 0.75517 0.19300
 N1514 N 0.63686 0.74696 0.18667
 C1515 C 0.64161 0.72415 0.19989
 C1516 C 0.61987 0.71769 0.21538
 C1517 C 0.60237 0.73781 0.21039
 H1518 H 0.61675 0.70044 0.22789
 H1519 H 0.60465 0.77231 0.18531
 H1520 H 0.64940 0.75708 0.17363
 N1521 N 0.10005 0.73857 0.67460
 N1522 N 0.12493 0.73280 0.67176
 C1523 C 0.13294 0.71918 0.69400
 C1524 C 0.11208 0.71583 0.71152
 C1525 C 0.09177 0.72856 0.69852
 H1526 H 0.11186 0.70655 0.73146
 H1527 H 0.08911 0.74936 0.66044
 H1528 H 0.13595 0.73817 0.65475
 N1529 N 0.66412 0.17473 0.50202
 N1530 N 0.63923 0.17176 0.50809
 C1531 C 0.63182 0.19129 0.52524
 C1532 C 0.65331 0.20726 0.53023
 C1533 C 0.67323 0.19613 0.51513
 H1534 H 0.65453 0.22483 0.54266
 H1535 H 0.67454 0.16234 0.48895
 H1536 H 0.62780 0.15658 0.50022
 N1537 N 0.64730 0.65529 0.03761
 N1538 N 0.62385 0.64880 0.04606
 C1539 C 0.61047 0.67096 0.05200
 C1540 C 0.62664 0.69257 0.04766
 C1541 C 0.64969 0.68163 0.03831
 H1542 H 0.62186 0.71325 0.04924
 H1543 H 0.66127 0.64179 0.03097
 H1544 H 0.61743 0.62939 0.04747
 N1545 N 0.08559 0.05633 -0.01810
 N1546 N 0.11139 0.06165 -0.01094
 C1547 C 0.11778 0.04627 0.01070
 C1548 C 0.09626 0.03078 0.01722
 C1549 C 0.07675 0.03775 -0.00093
 H1550 H 0.09420 0.01667 0.03360
 H1551 H 0.07507 0.06607 -0.03338
 H1552 H 0.12261 0.07602 -0.02048
 N1553 N 0.14831 0.56151 0.49164
 N1554 N 0.16731 0.57259 0.50587
 C1555 C 0.17105 0.55891 0.52933
 C1556 C 0.15382 0.53789 0.52944
 C1557 C 0.13962 0.54045 0.50550
 H1558 H 0.15013 0.52395 0.54567
 H1559 H 0.14050 0.56924 0.47357
 H1560 H 0.17631 0.59005 0.49999
 N1561 N 0.61526 0.07673 0.47896
 N1562 N 0.63958 0.08220 0.49056
 C1563 C 0.64166 0.06840 0.51418
 C1564 C 0.61918 0.05356 0.51748
 C1565 C 0.60333 0.05933 0.49536
 H1566 H 0.61428 0.04041 0.53407
 H1567 H 0.60783 0.08525 0.46111
 H1568 H 0.65240 0.09626 0.48290
 N1569 N 0.61182 0.54699 0.01223
 N1570 N 0.63378 0.55635 0.02231
 C1571 C 0.64189 0.54067 0.04299
 C1572 C 0.62416 0.52028 0.04603
 C1573 C 0.60541 0.52513 0.02614
 H1574 H 0.62416 0.50482 0.06124
 H1575 H 0.60098 0.55608 -0.00325
 H1576 H 0.64216 0.57391 0.01572
 N1577 N 0.02693 0.07175 0.09661
 N1578 N 0.03949 0.08051 0.12006
 C1579 C 0.04462 0.05940 0.13604
 C1580 C 0.03639 0.03660 0.12242
 C1581 C 0.02482 0.04551 0.09829
 H1582 H 0.03645 0.01664 0.13011
 H1583 H 0.01974 0.08390 0.08107
 H1584 H 0.04419 0.10021 0.12347
 N1585 N 0.09639 0.51759 0.60971
 N1586 N 0.09798 0.52635 0.63511
 C1587 C 0.07553 0.53871 0.64159
 C1588 C 0.05902 0.53799 0.61895
 C1589 C 0.07301 0.52425 0.59929
 H1590 H 0.03947 0.54576 0.61715
 H1591 H 0.11123 0.50732 0.59973
 H1592 H 0.11449 0.52413 0.64741
 N1593 N 0.55980 0.01649 0.60449
 N1594 N 0.56606 0.02423 0.63101
 C1595 C 0.55331 0.04697 0.63656
 C1596 C 0.53862 0.05400 0.61350
 C1597 C 0.54315 0.03427 0.59413
 H1598 H 0.52619 0.07105 0.61104
 H1599 H 0.56691 -0.00040 0.59484
 H1600 H 0.58003 0.01457 0.64288
 N1601 N 0.57544 0.48654 0.13193
 N1602 N 0.58249 0.49884 0.15464
 C1603 C 0.56394 0.51657 0.16126
 C1604 C 0.54410 0.51517 0.14201
 C1605 C 0.55221 0.49604 0.12376
 H1606 H 0.52671 0.52716 0.14064
 H1607 H 0.58685 0.47261 0.12176
 H1608 H 0.60031 0.49585 0.16451
 N1609 N 0.18279 0.52357 0.65936
 N1610 N 0.17924 0.53206 0.63406
 C1611 C 0.19816 0.54950 0.62786
 C1612 C 0.21431 0.55228 0.65061
 C1613 C 0.20391 0.53543 0.67000
 H1614 H 0.23142 0.56447 0.65279
 H1615 H 0.17070 0.51006 0.66917
 H1616 H 0.16371 0.52613 0.62171
 N1617 N 0.16521 -0.01347 0.11980
 N1618 N 0.15786 -0.00482 0.09548
 C1619 C 0.17140 0.01717 0.08959
 C1620 C 0.18810 0.02268 0.11125
 C1621 C 0.18352 0.00281 0.12990
 H1622 H 0.20152 0.03894 0.11340
 H1623 H 0.15785 -0.03036 0.12915
 H1624 H 0.14414 -0.01426 0.08312
 N1625 N 0.75940 0.19341 0.62832
 N1626 N 0.74779 0.18855 0.65176
 C1627 C 0.72396 0.19964 0.65139
 C1628 C 0.72035 0.21254 0.62647
 C1629 C 0.74334 0.20777 0.61236
 H1630 H 0.70324 0.22294 0.61930
 H1631 H 0.77807 0.18678 0.62341
 H1632 H 0.75632 0.17787 0.66771
 N1633 N 0.75512 0.69138 0.12081
 N1634 N 0.74649 0.68755 0.14597
 C1635 C 0.72223 0.69775 0.14807
 C1636 C 0.71539 0.70871 0.12311
 C1637 C 0.73665 0.70415 0.10645
 H1638 H 0.69712 0.71780 0.11732
 H1639 H 0.77327 0.68516 0.11368
 H1640 H 0.75726 0.67809 0.16122
 N1641 N 0.53643 0.75306 0.12107
 N1642 N 0.54594 0.74017 0.09978
 C1643 C 0.53631 0.71550 0.09983
 C1644 C 0.51951 0.71287 0.12179
 C1645 C 0.52049 0.73690 0.13500
 H1646 H 0.51074 0.69495 0.12933
 H1647 H 0.54224 0.77193 0.12693
 H1648 H 0.55980 0.74787 0.08643
 N1649 N -0.01371 0.70180 0.61897
 N1650 N -0.00028 0.69194 0.59827
 C1651 C 0.02379 0.70269 0.59821
 C1652 C 0.02521 0.72069 0.61960
 C1653 C 0.00124 0.71934 0.63233
 H1654 H 0.04207 0.73133 0.62691
 H1655 H -0.03229 0.69555 0.62459
 H1656 H -0.00747 0.67731 0.58532
 N1657 N 0.50959 0.63142 0.18904
 N1658 N 0.51852 0.60728 0.18564
 C1659 C 0.53931 0.60358 0.20221
 C1660 C 0.54364 0.62671 0.21692
 C1661 C 0.52433 0.64381 0.20787
 H1662 H 0.55850 0.63060 0.23213
 H1663 H 0.49333 0.63903 0.17886
 H1664 H 0.50985 0.59359 0.17257
 N1665 N -0.00409 0.63057 0.69136
 N1666 N 0.00739 0.60817 0.68473
 C1667 C 0.02946 0.60574 0.69954
 C1668 C 0.03207 0.62761 0.71637
 C1669 C 0.01046 0.64292 0.71043
 H1670 H 0.04805 0.63236 0.72999
 H1671 H -0.02124 0.63752 0.68234
 H1672 H 0.00019 0.59495 0.67018
 N1673 N -0.02063 0.12872 0.03612
 N1674 N -0.00606 0.14940 0.04184
 C1675 C 0.01750 0.14614 0.03012
 C1676 C 0.01754 0.12259 0.01571
 C1677 C -0.00684 0.11208 0.02034
 H1678 H 0.03388 0.11296 0.00595
 H1679 H -0.03923 0.12557 0.04403
 H1680 H -0.01212 0.16491 0.05433
 N1681 N 0.06702 0.61801 0.49098
 N1682 N 0.07192 0.64115 0.50206
 C1683 C 0.06074 0.64214 0.52692
 C1684 C 0.04792 0.61855 0.53188
 C1685 C 0.05269 0.60367 0.50859
 H1686 H 0.03824 0.61246 0.55047
 H1687 H 0.07429 0.61187 0.47206
 H1688 H 0.08316 0.65575 0.49285
 N1689 N 0.50571 0.13583 0.54711
 N1690 N 0.51865 0.15716 0.55433
 C1691 C 0.53900 0.16042 0.53717
 C1692 C 0.53865 0.14025 0.51797
 C1693 C 0.51734 0.12508 0.52515
 H1694 H 0.55278 0.13606 0.50217
 H1695 H 0.48991 0.12821 0.55790
 H1696 H 0.51425 0.16820 0.57175
 N1697 N 0.49945 0.59293 0.07841
 N1698 N 0.50726 0.61720 0.08345
 C1699 C 0.52596 0.62369 0.06534
 C1700 C 0.52998 0.60250 0.04779
 C1701 C 0.51285 0.58343 0.05690
 H1702 H 0.54406 0.60070 0.03146
 H1703 H 0.48563 0.58289 0.09003
 H1704 H 0.50060 0.62849 0.09989
 N1705 N 0.75930 0.11115 0.50790
 N1706 N 0.74058 0.09206 0.51290
 C1707 C 0.72943 0.09757 0.53716
 C1708 C 0.74100 0.11997 0.54831
 C1709 C 0.75886 0.12851 0.52877
 H1710 H 0.73353 0.13147 0.56525
 H1711 H 0.76796 0.11414 0.48882
 H1712 H 0.73491 0.07765 0.49883
 N1713 N 0.75728 0.61613 0.05303
 N1714 N 0.74777 0.59526 0.06563
 C1715 C 0.72357 0.59073 0.05606
 C1716 C 0.71764 0.60947 0.03625
 C1717 C 0.73939 0.62529 0.03511
 H1718 H 0.69932 0.61259 0.02576
 H1719 H 0.77531 0.62456 0.05757
 H1720 H 0.75761 0.58484 0.08091
 N1721 N 0.18950 0.63307 0.77458
 N1722 N 0.18268 0.65567 0.76342
 C1723 C 0.19563 0.65855 0.73967
 C1724 C 0.21158 0.63686 0.73555
 C1725 C 0.20682 0.62106 0.75808
 H1726 H 0.22353 0.63245 0.71791
 H1727 H 0.18176 0.62576 0.79281
 H1728 H 0.16902 0.66860 0.77180
 N1729 N 0.17605 0.09975 0.23599
 N1730 N 0.16976 0.12390 0.22876
 C1731 C 0.18323 0.13048 0.20609
 C1732 C 0.19871 0.10913 0.19843
 C1733 C 0.19359 0.09013 0.21814
 H1734 H 0.21197 0.10770 0.18129
 H1735 H 0.16818 0.09005 0.25289
 H1736 H 0.15595 0.13521 0.23911
 N1737 N 0.68344 1.11763 0.76124
 N1738 N 0.67747 1.14291 0.75208
 C1739 C 0.69059 1.14706 0.72849
 C1740 C 0.70507 1.12450 0.72244
 C1741 C 0.69999 1.10676 0.74318
 H1742 H 0.71717 1.12063 0.70482
 H1743 H 0.67557 1.10880 0.77865
 H1744 H 0.66511 1.15572 0.76253
 N1745 N 0.69710 0.63136 0.27390
 N1746 N 0.69034 0.65359 0.26187
 C1747 C 0.69953 0.65340 0.23603
 C1748 C 0.71292 0.63009 0.23153
 C1749 C 0.71072 0.61668 0.25597
 H1750 H 0.72193 0.62324 0.21282
 H1751 H 0.69219 0.62634 0.29397
 H1752 H 0.67961 0.66844 0.27141
 N1753 N 0.57431 0.16924 0.70188
 N1754 N 0.58121 0.14316 0.69779
 C1755 C 0.56031 0.13030 0.68780
 C1756 C 0.53961 0.14816 0.68477
 C1757 C 0.54917 0.17217 0.69479
 H1758 H 0.51960 0.14353 0.67981
 H1759 H 0.58620 0.18321 0.71133
 H1760 H 0.59929 0.13517 0.70307
 N1761 N 1.06447 0.14752 0.24522
 N1762 N 1.07044 0.12285 0.23963
 C1763 C 1.05676 0.11514 0.21741
 C1764 C 1.04133 0.13607 0.20859
 C1765 C 1.04691 0.15614 0.22672
 H1766 H 1.02807 0.13693 0.19135
 H1767 H 1.07272 0.15835 0.26124
 H1768 H 1.08430 0.11203 0.25053
 N1769 N 0.26314 0.65296 0.57951
 N1770 N 0.25451 0.62944 0.58659
 C1771 C 0.23386 0.62332 0.57068
 C1772 C 0.22927 0.64392 0.55265
 C1773 C 0.24818 0.66231 0.55899
 H1774 H 0.21367 0.64585 0.53784
 H1775 H 0.27867 0.66258 0.58904
 H1776 H 0.26270 0.61797 0.60212
 N1777 N 0.24449 0.10258 1.02564
 N1778 N 0.23184 0.08122 1.03316
 C1779 C 0.20717 0.08259 1.02356
 C1780 C 0.20436 0.10564 1.00858
 C1781 C 0.22837 0.11777 1.01074
 H1782 H 0.18678 0.11375 0.99967
 H1783 H 0.26362 0.10695 1.03133
 H1784 H 0.24006 0.06644 1.04524
 N1785 N 0.26275 0.72547 0.64599
 N1786 N 0.25150 0.71526 0.66785
 C1787 C 0.22614 0.72230 0.66784
 C1788 C 0.22141 0.73809 0.64521
 C1789 C 0.24485 0.73936 0.63186
 H1790 H 0.20301 0.74537 0.63748
 H1791 H 0.28197 0.72179 0.64020
 H1792 H 0.26100 0.70283 0.68165
 N1793 N 0.16944 0.19876 1.08091
 N1794 N 0.16172 0.19259 1.10580
 C1795 C 0.18261 0.18550 1.12080
 C1796 C 0.20478 0.18706 1.10466
 C1797 C 0.19547 0.19589 1.07952
 H1798 H 0.22485 0.18460 1.11099
 H1799 H 0.15708 0.20571 1.06548
 H1800 H 0.14258 0.19447 1.11273
 N1801 N 0.68520 0.50407 0.16571
 N1802 N 0.67846 0.50948 0.14022
 C1803 C 0.69190 0.53069 0.13157
 C1804 C 0.70815 0.53899 0.15292
 C1805 C 0.70318 0.52152 0.17420
 H1806 H 0.72155 0.55538 0.15313
 H1807 H 0.67759 0.48843 0.17700
 H1808 H 0.66515 0.49827 0.12905
 N1809 N 0.65830 1.03196 0.64176
 N1810 N 0.65351 1.04295 0.61777
 C1811 C 0.67560 1.05417 0.60828
 C1812 C 0.69514 1.05040 0.62765
 C1813 C 0.68338 1.03605 0.64831
 H1814 H 0.71538 1.05609 0.62649
 H1815 H 0.64451 1.02189 0.65340
 H1816 H 0.63525 1.04242 0.60840
 N1817 N 0.57566 0.27294 0.61417
 N1818 N 0.58452 0.26126 0.59180
 C1819 C 0.56943 0.24019 0.58623
 C1820 C 0.55010 0.23866 0.60585
 C1821 C 0.55480 0.25953 0.62320
 H1822 H 0.53581 0.22328 0.60859
 H1823 H 0.58438 0.28918 0.62355
 H1824 H 0.60097 0.26743 0.58110
 N1825 N 1.07722 0.24122 0.11847
 N1826 N 1.08319 0.22883 0.09378
 C1827 C 1.06451 0.21073 0.08855
 C1828 C 1.04655 0.21129 0.11002
 C1829 C 1.05520 0.23047 0.12809
 H1830 H 1.02936 0.19933 0.11263
 H1831 H 1.08826 0.25610 0.12757
 H1832 H 1.09901 0.23412 0.08167
 N1833 N 0.63164 0.27232 0.70830
 N1834 N 0.65351 0.26005 0.70205
 C1835 C 0.65161 0.23471 0.70992
 C1836 C 0.62760 0.23093 0.72227
 C1837 C 0.61541 0.25514 0.72043
 H1838 H 0.61916 0.21261 0.72909
 H1839 H 0.62749 0.29180 0.70304
 H1840 H 0.66901 0.26887 0.69183
 N1841 N 1.13425 0.26231 0.21087
 N1842 N 1.15454 0.24907 0.20159
 C1843 C 1.15139 0.22339 0.20750
 C1844 C 1.12830 0.22030 0.22180
 C1845 C 1.11776 0.24540 0.22300
 H1846 H 1.11848 0.20198 0.22628
 H1847 H 1.13075 0.28217 0.20676
 H1848 H 1.16917 0.25726 0.18950
 N1849 N 0.14835 0.73390 0.58829
 N1850 N 0.12474 0.72446 0.59205
 C1851 C 0.11749 0.71085 0.56957
 C1852 C 0.13789 0.71139 0.55073
 C1853 C 0.15697 0.72649 0.56341
 H1854 H 0.13829 0.70321 0.53026
 H1855 H 0.15822 0.74560 0.60254
 H1856 H 0.11397 0.72740 0.60988
 N1857 N 0.13686 0.16024 0.97772
 N1858 N 0.11380 0.15555 0.98874
 C1859 C 0.10709 0.17619 1.00473
 C1860 C 0.12656 0.19486 1.00333
 C1861 C 0.14512 0.18399 0.98632
 H1862 H 0.12789 0.21330 1.01435
 H1863 H 0.14718 0.14683 0.96567
 H1864 H 0.10365 0.13791 0.98641
 N1865 N 0.62605 0.55020 0.28750
 N1866 N 0.60458 0.55695 0.27425
 C1867 C 0.60402 0.54427 0.24996
 C1868 C 0.62596 0.52837 0.24805
 C1869 C 0.63953 0.53293 0.27208
 H1870 H 0.63266 0.51736 0.23043
 H1871 H 0.63196 0.55840 0.30613
 H1872 H 0.59115 0.57071 0.28151
 N1873 N 0.61399 1.04521 0.76631
 N1874 N 0.59379 1.05710 0.75489
 C1875 C 0.59136 1.04860 0.72881
 C1876 C 0.61052 1.03003 0.72374
 C1877 C 0.62478 1.02884 0.74780
 H1878 H 0.61581 1.02172 0.70409
 H1879 H 0.62137 1.04983 0.78569
 H1880 H 0.58300 1.07195 0.76435
 N1881 N 0.87725 0.51455 0.31009
 N1882 N 0.90051 0.50398 0.31352
 C1883 C 0.90076 0.48002 0.30166
 C1884 C 0.87653 0.47528 0.28992
 C1885 C 0.86220 0.49762 0.29590
 H1886 H 0.86981 0.45764 0.27970
 H1887 H 0.87173 0.53288 0.31785
 H1888 H 0.91580 0.51321 0.32384
 N1889 N 0.85112 0.94416 0.73245
 N1890 N 0.87235 0.93469 0.74425
 C1891 C 0.87663 0.94788 0.76790
 C1892 C 0.85742 0.96695 0.77068
 C1893 C 0.84151 0.96365 0.74815
 H1894 H 0.85374 0.97993 0.78780
 H1895 H 0.84250 0.93615 0.71492
 H1896 H 0.88251 0.91840 0.73684
 N1897 N 0.37388 0.27821 0.72983
 N1898 N 0.35201 0.28589 0.74156
 C1899 C 0.35681 0.30706 0.75746
 C1900 C 0.38305 0.31319 0.75553
 C1901 C 0.39312 0.29436 0.73788
 H1902 H 0.39394 0.32667 0.76834
 H1903 H 0.37588 0.26108 0.71817
 H1904 H 0.33464 0.27525 0.74076
 N1905 N 0.88524 0.30938 0.22705
 N1906 N 0.86529 0.31886 0.24104
 C1907 C 0.86385 0.30613 0.26520
 C1908 C 0.88366 0.28750 0.26633
 C1909 C 0.89695 0.29035 0.24192
 H1910 H 0.88931 0.27543 0.28360
 H1911 H 0.89155 0.31694 0.20833
 H1912 H 0.85351 0.33436 0.23438
 N1913 N 0.36085 0.83454 0.49562
 N1914 N 0.38404 0.84008 0.48585
 C1915 C 0.38929 0.82361 0.46490
 C1916 C 0.36830 0.80650 0.46145
 C1917 C 0.35069 0.81430 0.48138
 H1918 H 0.36602 0.79085 0.44659
 H1919 H 0.35238 0.84438 0.51216
 H1920 H 0.39603 0.85463 0.49411
 N1921 N 0.36401 0.28509 0.99869
 N1922 N 0.38642 0.29482 0.99041
 C1923 C 0.39267 0.28396 0.96602
 C1924 C 0.37324 0.26621 0.95872
 C1925 C 0.35544 0.26770 0.97996
 H1926 H 0.37136 0.25503 0.93995
 H1927 H 0.35430 0.29116 1.01639
 H1928 H 0.39628 0.30974 1.00081
 N1929 N 0.82449 0.51071 0.39554
 N1930 N 0.83615 0.49798 0.41578
 C1931 C 0.82453 0.47439 0.41903
 C1932 C 0.80438 0.47231 0.40015
 C1933 C 0.80515 0.49560 0.38559
 H1934 H 0.79214 0.45545 0.39606
 H1935 H 0.83029 0.52907 0.38820
 H1936 H 0.85206 0.50535 0.42667
 N1937 N 0.81099 0.96912 0.85246
 N1938 N 0.81633 0.96066 0.87739
 C1939 C 0.79563 0.94726 0.88698
 C1940 C 0.77637 0.94695 0.86690
 C1941 C 0.78689 0.96118 0.84550
 H1942 H 0.75700 0.93872 0.86806
 H1943 H 0.82363 0.98043 0.84061
 H1944 H 0.83395 0.96413 0.88740
 N1945 N 0.24178 0.80623 0.38698
 N1946 N 0.25046 0.81061 0.36195
 C1947 C 0.27491 0.80101 0.35988
 C1948 C 0.28189 0.78979 0.38478
 C1949 C 0.26041 0.79367 0.40136
 H1950 H 0.30035 0.78109 0.39053
 H1951 H 0.22350 0.81207 0.39406
 H1952 H 0.23958 0.82000 0.34673
 N1953 N 0.32496 0.24442 0.87038
 N1954 N 0.33383 0.25861 0.84976
 C1955 C 0.31702 0.27850 0.84478
 C1956 C 0.29639 0.27659 0.86299
 C1957 C 0.30221 0.25476 0.87885
 H1958 H 0.27987 0.28967 0.86510
 H1959 H 0.33480 0.22840 0.87894
 H1960 H 0.35161 0.25514 0.84009
 N1961 N 0.42330 0.27997 0.83424
 N1962 N 0.41589 0.28429 0.85971
 C1963 C 0.43631 0.29361 0.87425
 C1964 C 0.45763 0.29572 0.85677
 C1965 C 0.44852 0.28660 0.83171
 H1966 H 0.47727 0.30172 0.86176
 H1967 H 0.41118 0.27249 0.81888
 H1968 H 0.39703 0.28076 0.86664
 N1969 N 0.93149 0.28702 0.33838
 N1970 N 0.92718 0.29265 0.36437
 C1971 C 0.94916 0.30264 0.37547
 C1972 C 0.96812 0.30390 0.35517
 C1973 C 0.95612 0.29359 0.33214
 H1974 H 0.98829 0.30964 0.35718
 H1975 H 0.91787 0.27825 0.32535
 H1976 H 0.90942 0.28926 0.37404
 N1977 N 0.46665 0.39565 0.74038
 N1978 N 0.45990 0.41780 0.75250
 C1979 C 0.45819 0.41361 0.77975
 C1980 C 0.46483 0.38764 0.78521
 C1981 C 0.46962 0.37697 0.75959
 H1982 H 0.46431 0.37745 0.80466
 H1983 H 0.46897 0.39341 0.71925
 H1984 H 0.45607 0.43526 0.74197
 N1985 N 0.94357 0.37899 0.22581
 N1986 N 0.93689 0.40155 0.23752
 C1987 C 0.94950 0.40361 0.26176
 C1988 C 0.96459 0.38139 0.26551
 C1989 C 0.96047 0.36646 0.24244
 H1990 H 0.97646 0.37608 0.28300
 H1991 H 0.93654 0.37237 0.20693
 H1992 H 0.92404 0.41515 0.22885
 N1993 N 0.23694 0.88696 0.45947
 N1994 N 0.24719 0.90766 0.44723
 C1995 C 0.27152 0.91129 0.45695
 C1996 C 0.27672 0.89229 0.47660
 C1997 C 0.25447 0.87704 0.47729
 H1998 H 0.29515 0.88820 0.48656
 H1999 H 0.21884 0.87893 0.45445
 H2000 H 0.23794 0.91832 0.43173
 N2001 N 0.25817 0.34695 0.93019
 N2002 N 0.26806 0.37080 0.92821
 C2003 C 0.28399 0.37510 0.94983
 C2004 C 0.28400 0.35289 0.96635
 C2005 C 0.26755 0.33556 0.95304
 H2006 H 0.29522 0.34921 0.98474
 H2007 H 0.24599 0.33839 0.91553
 H2008 H 0.26479 0.38314 0.91147
 N2009 N 0.79676 0.40627 0.34214
 N2010 N 0.80666 0.38246 0.34450
 C2011 C 0.81193 0.37291 0.31930
 C2012 C 0.80560 0.39205 0.29995
 C2013 C 0.79570 0.41274 0.31546
 H2014 H 0.80670 0.39063 0.27787
 H2015 H 0.79076 0.41783 0.35868
 H2016 H 0.80972 0.37318 0.36331
   
