data_POSCAR
  _audit_creation_date              2014-09-24
  _audit_creation_method            'ToBaCCo'
  _symmetry_space_group_name_H-M    'P1'
  _symmetry_Int_Tables_number       1
  _symmetry_cell_setting            triclinic
  loop_
  _symmetry_equiv_pos_as_xyz
 x,y,z
_cell_length_a 52.3608
_cell_length_b 52.3658
_cell_length_c 52.3573
_cell_angle_alpha 90.000000
_cell_angle_beta 90.000000
_cell_angle_gamma 90.000000
loop_
  _atom_site_label
  _atom_site_type_symbol
  _atom_site_fract_x
  _atom_site_fract_y
  _atom_site_fract_z
N1 N 0.33026 0.33029 0.33027
 N2 N 0.33027 0.83026 -0.16976
 N3 N 0.83028 0.33029 -0.16972
 N4 N 0.83028 0.83029 0.33027
 N5 N 0.66973 0.66975 0.33026
 N6 N 0.66973 0.16972 -0.16971
 N7 N 0.16973 0.66970 -0.16975
 N8 N 0.16973 0.16971 0.33026
 N9 N 0.66973 0.33028 0.66976
 N10 N 0.66973 0.83030 1.16973
 N11 N 0.16973 0.33028 1.16973
 N12 N 0.16973 0.83027 0.66972
 N13 N 0.33028 0.66970 0.66971
 N14 N 0.33029 0.16972 1.16974
 N15 N 0.83027 0.66973 1.16973
 N16 N 0.83027 0.16972 0.66974
 N17 N 0.33028 0.33026 0.66974
 N18 N 0.33027 0.83028 0.16971
 N19 N 0.83027 0.33030 0.16976
 N20 N 0.83027 0.83029 0.66974
 N21 N 0.66974 0.66971 0.66973
 N22 N 0.66973 0.16974 0.16976
 N23 N 0.16972 0.66972 0.16972
 N24 N 0.16972 0.16971 0.66973
 N25 N 0.33028 0.66972 0.33024
 N26 N 0.33027 0.16970 0.83027
 N27 N 0.83027 0.66972 0.83027
 N28 N 0.83027 0.16973 0.33028
 N29 N 0.66972 0.33031 0.33029
 N30 N 0.66972 0.83028 0.83026
 N31 N 0.16974 0.33027 0.83027
 N32 N 0.16974 0.83028 0.33025
 O33 O 0.24740 1.02497 0.28238
 O34 O 0.28239 0.97502 0.24738
 O35 O 0.28240 1.02498 0.24739
 O36 O 0.24740 0.97502 0.28238
 O37 O 0.21762 0.97502 0.25259
 O38 O 0.25261 1.02498 0.21760
 O39 O 0.25261 0.97502 0.21759
 O40 O 0.21762 1.02498 0.25259
 Cu41 Cu 0.26788 1.00000 0.26786
 Cu42 Cu 0.23213 1.00000 0.23211
 C43 C 0.22671 1.03381 0.27328
 C44 C 0.27330 0.96618 0.22669
 C45 C 0.27330 1.03382 0.22670
 C46 C 0.22671 0.96618 0.27328
 O47 O 0.24740 0.52496 0.78237
 O48 O 0.28240 0.47500 0.74739
 O49 O 0.28240 0.52496 0.74738
 O50 O 0.24740 0.47501 0.78238
 O51 O 0.21762 0.47500 0.75259
 O52 O 0.25261 0.52496 0.71760
 O53 O 0.25261 0.47500 0.71760
 O54 O 0.21762 0.52496 0.75259
 Cu55 Cu 0.26788 0.49998 0.76786
 Cu56 Cu 0.23214 0.49998 0.73211
 C57 C 0.22671 0.53380 0.77327
 C58 C 0.27330 0.46616 0.72670
 C59 C 0.27330 0.53380 0.72669
 C60 C 0.22672 0.46617 0.77328
 O61 O 0.74740 -0.02496 0.21762
 O62 O 0.78240 0.02499 0.25262
 O63 O 0.78240 -0.02496 0.25261
 O64 O 0.74740 0.02500 0.21762
 O65 O 0.71762 0.02499 0.24741
 O66 O 0.75262 -0.02497 0.28240
 O67 O 0.75261 0.02499 0.28240
 O68 O 0.71762 -0.02497 0.24741
 Cu69 Cu 0.76788 0.00002 0.23214
 Cu70 Cu 0.73214 0.00001 0.26789
 C71 C 0.72672 -0.03380 0.22672
 C72 C 0.77330 0.03383 0.27331
 C73 C 0.77330 -0.03380 0.27330
 C74 C 0.72671 0.03383 0.22672
 O75 O 0.78239 0.52498 0.75261
 O76 O 0.74740 0.47502 0.71763
 O77 O 0.74740 0.52497 0.71762
 O78 O 0.78239 0.47502 0.75261
 O79 O 0.75261 0.47502 0.78240
 O80 O 0.71762 0.52498 0.74741
 O81 O 0.71762 0.47502 0.74741
 O82 O 0.75261 0.52498 0.78240
 Cu83 Cu 0.76788 0.50000 0.73213
 Cu84 Cu 0.73213 0.50000 0.76789
 C85 C 0.77330 0.53382 0.77330
 C86 C 0.72671 0.46618 0.72673
 C87 C 0.72671 0.53381 0.72672
 C88 C 0.77330 0.46618 0.77330
 O89 O 0.28239 0.52498 0.25259
 O90 O 0.24739 0.47502 0.21760
 O91 O 0.24739 0.52498 0.21760
 O92 O 0.28238 0.47502 0.25259
 O93 O 0.25260 0.47503 0.28238
 O94 O 0.21761 0.52498 0.24739
 O95 O 0.21761 0.47502 0.24739
 O96 O 0.25260 0.52498 0.28238
 Cu97 Cu 0.26787 0.50000 0.23211
 Cu98 Cu 0.23212 0.50000 0.26787
 C99 C 0.27329 0.53382 0.27328
 C100 C 0.22670 0.46618 0.22670
 C101 C 0.22670 0.53382 0.22670
 C102 C 0.27329 0.46619 0.27328
 O103 O 0.71761 0.97503 0.75261
 O104 O 0.75260 1.02499 0.71762
 O105 O 0.75260 0.97503 0.71762
 O106 O 0.71761 1.02499 0.75262
 O107 O 0.74739 1.02498 0.78241
 O108 O 0.78238 0.97503 0.74741
 O109 O 0.78238 1.02498 0.74741
 O110 O 0.74739 0.97502 0.78240
 Cu111 Cu 0.73212 1.00001 0.73214
 Cu112 Cu 0.76787 1.00000 0.76789
 C113 C 0.72670 0.96619 0.77330
 C114 C 0.77329 1.03382 0.72672
 C115 C 0.77329 0.96619 0.72672
 C116 C 0.72671 1.03382 0.77331
 O117 O 0.74739 0.52500 0.28240
 O118 O 0.78238 0.47504 0.24742
 O119 O 0.78238 0.52500 0.24741
 O120 O 0.74739 0.47504 0.28241
 O121 O 0.71760 0.47504 0.25262
 O122 O 0.75260 0.52500 0.21762
 O123 O 0.75260 0.47504 0.21763
 O124 O 0.71761 0.52500 0.25261
 Cu125 Cu 0.76787 0.50002 0.26789
 Cu126 Cu 0.73212 0.50002 0.23214
 C127 C 0.72670 0.53384 0.27330
 C128 C 0.77329 0.46620 0.22673
 C129 C 0.77329 0.53384 0.22672
 C130 C 0.72670 0.46621 0.27331
 O131 O 0.21761 0.02497 0.74739
 O132 O 0.25260 -0.02500 0.78238
 O133 O 0.25260 0.02496 0.78238
 O134 O 0.21761 -0.02499 0.74739
 O135 O 0.24739 -0.02499 0.71760
 O136 O 0.28238 0.02497 0.75259
 O137 O 0.28238 -0.02499 0.75259
 O138 O 0.24739 0.02497 0.71760
 Cu139 Cu 0.23212 -0.00002 0.76786
 Cu140 Cu 0.26787 -0.00001 0.73211
 C141 C 0.22670 0.03380 0.72670
 C142 C 0.27329 -0.03383 0.77328
 C143 C 0.27329 0.03380 0.77328
 C144 C 0.22670 -0.03383 0.72670
 O145 O 0.21762 0.25260 1.02499
 O146 O 0.25260 0.21760 0.97502
 O147 O 0.25261 0.21761 1.02499
 O148 O 0.21762 0.25260 0.97502
 O149 O 0.24741 0.28237 0.97502
 O150 O 0.28240 0.24738 1.02498
 O151 O 0.28239 0.24738 0.97502
 O152 O 0.24741 0.28237 1.02498
 Cu153 Cu 0.23213 0.23212 1.00000
 Cu154 Cu 0.26788 0.26786 1.00000
 C155 C 0.22672 0.27328 1.03382
 C156 C 0.27329 0.22669 0.96618
 C157 C 0.27330 0.22670 1.03383
 C158 C 0.22672 0.27328 0.96618
 O159 O 0.25261 0.71761 0.47500
 O160 O 0.21762 0.75259 0.52497
 O161 O 0.21762 0.75260 0.47500
 O162 O 0.25261 0.71760 0.52497
 O163 O 0.28239 0.74738 0.52497
 O164 O 0.24741 0.78238 0.47500
 O165 O 0.24741 0.78237 0.52497
 O166 O 0.28240 0.74738 0.47500
 Cu167 Cu 0.23213 0.73212 0.49998
 Cu168 Cu 0.26788 0.76786 0.49999
 C169 C 0.27330 0.72670 0.46616
 C170 C 0.22672 0.77328 0.53381
 C171 C 0.22672 0.77328 0.46616
 C172 C 0.27330 0.72669 0.53381
 O173 O 0.21761 0.74738 -0.02500
 O174 O 0.25259 0.78237 0.02496
 O175 O 0.25259 0.78237 -0.02501
 O176 O 0.21761 0.74738 0.02496
 O177 O 0.24739 0.71760 0.02497
 O178 O 0.28238 0.75259 -0.02500
 O179 O 0.28238 0.75260 0.02496
 O180 O 0.24740 0.71760 -0.02500
 Cu181 Cu 0.23212 0.76786 -0.00002
 Cu182 Cu 0.26787 0.73212 -0.00002
 C183 C 0.22671 0.72669 -0.03384
 C184 C 0.27328 0.77328 0.03380
 C185 C 0.27328 0.77328 -0.03384
 C186 C 0.22671 0.72670 0.03380
 O187 O 0.21761 0.24738 0.47501
 O188 O 0.25260 0.28237 0.52498
 O189 O 0.25259 0.28238 0.47502
 O190 O 0.21761 0.24738 0.52498
 O191 O 0.24739 0.21760 0.52498
 O192 O 0.28238 0.25260 0.47501
 O193 O 0.28238 0.25259 0.52498
 O194 O 0.24740 0.21760 0.47501
 Cu195 Cu 0.23212 0.26786 0.50000
 Cu196 Cu 0.26787 0.23212 0.50000
 C197 C 0.22671 0.22670 0.46617
 C198 C 0.27329 0.27328 0.53382
 C199 C 0.27328 0.27328 0.46618
 C200 C 0.22671 0.22670 0.53382
 O201 O 0.74739 0.78239 0.97501
 O202 O 0.78238 0.74740 1.02498
 O203 O 0.78238 0.74740 0.97501
 O204 O 0.74740 0.78240 1.02498
 O205 O 0.71761 0.75262 1.02498
 O206 O 0.75260 0.71763 0.97502
 O207 O 0.75259 0.71763 1.02498
 O208 O 0.71761 0.75262 0.97502
 Cu209 Cu 0.76787 0.76788 1.00000
 Cu210 Cu 0.73212 0.73214 1.00000
 C211 C 0.72670 0.77330 0.96617
 C212 C 0.77328 0.72672 1.03382
 C213 C 0.77328 0.72672 0.96618
 C214 C 0.72671 0.77331 1.03382
 O215 O 0.74739 0.28240 0.47503
 O216 O 0.78238 0.24740 0.52500
 O217 O 0.78238 0.24741 0.47503
 O218 O 0.74740 0.28239 0.52500
 O219 O 0.71761 0.25262 0.52500
 O220 O 0.75259 0.21763 0.47503
 O221 O 0.75259 0.21762 0.52500
 O222 O 0.71761 0.25262 0.47503
 Cu223 Cu 0.76787 0.26788 0.50002
 Cu224 Cu 0.73212 0.23214 0.50001
 C225 C 0.72670 0.27331 0.46619
 C226 C 0.77328 0.22672 0.53383
 C227 C 0.77328 0.22672 0.46619
 C228 C 0.72671 0.27330 0.53384
 O229 O 0.78239 0.25262 -0.02496
 O230 O 0.74741 0.21763 0.02501
 O231 O 0.74741 0.21763 -0.02496
 O232 O 0.78239 0.25262 0.02501
 O233 O 0.75261 0.28240 0.02500
 O234 O 0.71762 0.24741 -0.02496
 O235 O 0.71762 0.24741 0.02500
 O236 O 0.75261 0.28240 -0.02496
 Cu237 Cu 0.76788 0.23214 0.00002
 Cu238 Cu 0.73213 0.26788 0.00002
 C239 C 0.77330 0.27330 -0.03380
 C240 C 0.72672 0.22672 0.03385
 C241 C 0.72672 0.22672 -0.03380
 C242 C 0.77329 0.27331 0.03384
 O243 O 0.78240 0.75262 0.47502
 O244 O 0.74741 0.71763 0.52498
 O245 O 0.74741 0.71763 0.47502
 O246 O 0.78239 0.75262 0.52499
 O247 O 0.75261 0.78240 0.52499
 O248 O 0.71762 0.74741 0.47502
 O249 O 0.71762 0.74740 0.52499
 O250 O 0.75261 0.78240 0.47502
 Cu251 Cu 0.76788 0.73214 0.50000
 Cu252 Cu 0.73213 0.76788 0.50000
 C253 C 0.77330 0.77331 0.46618
 C254 C 0.72672 0.72672 0.53382
 C255 C 0.72672 0.72673 0.46618
 C256 C 0.77329 0.77330 0.53383
 O257 O 0.97502 0.25262 0.21762
 O258 O 1.02498 0.21762 0.25260
 O259 O 0.97502 0.21762 0.25261
 O260 O 1.02498 0.25261 0.21762
 O261 O 1.02499 0.28239 0.24741
 O262 O 0.97502 0.24740 0.28240
 O263 O 1.02499 0.24739 0.28239
 O264 O 0.97502 0.28239 0.24741
 Cu265 Cu 1.00000 0.23214 0.23213
 Cu266 Cu 1.00000 0.26787 0.26789
 C267 C 0.96618 0.27330 0.22672
 C268 C 1.03382 0.22671 0.27329
 C269 C 0.96618 0.22671 0.27330
 C270 C 1.03382 0.27330 0.22672
 O271 O 0.52498 0.28237 0.74742
 O272 O 0.47502 0.24737 0.78241
 O273 O 0.52498 0.24738 0.78241
 O274 O 0.47502 0.28237 0.74742
 O275 O 0.47502 0.25259 0.71763
 O276 O 0.52498 0.21760 0.75262
 O277 O 0.47502 0.21760 0.75261
 O278 O 0.52499 0.25259 0.71763
 Cu279 Cu 0.50000 0.26785 0.76790
 Cu280 Cu 0.50000 0.23211 0.73214
 C281 C 0.53382 0.27328 0.72673
 C282 C 0.46618 0.22669 0.77330
 C283 C 0.53382 0.22669 0.77331
 C284 C 0.46618 0.27327 0.72673
 O285 O -0.02498 0.28238 0.75261
 O286 O 0.02498 0.24739 0.71762
 O287 O -0.02498 0.24739 0.71762
 O288 O 0.02498 0.28238 0.75260
 O289 O 0.02498 0.25261 0.78240
 O290 O -0.02498 0.21761 0.74741
 O291 O 0.02498 0.21761 0.74741
 O292 O -0.02498 0.25261 0.78240
 Cu293 Cu 0.00000 0.26787 0.73213
 Cu294 Cu 0.00000 0.23213 0.76789
 C295 C -0.03382 0.27329 0.77330
 C296 C 0.03382 0.22670 0.72672
 C297 C -0.03382 0.22671 0.72672
 C298 C 0.03382 0.27329 0.77329
 O299 O 0.52498 0.25263 0.28241
 O300 O 0.47502 0.21763 0.24742
 O301 O 0.52499 0.21763 0.24742
 O302 O 0.47502 0.25262 0.28240
 O303 O 0.47502 0.28240 0.25261
 O304 O 0.52499 0.24741 0.21763
 O305 O 0.47502 0.24740 0.21763
 O306 O 0.52498 0.28240 0.25261
 Cu307 Cu 0.50000 0.23215 0.26790
 Cu308 Cu 0.50000 0.26788 0.23214
 C309 C 0.53382 0.27331 0.27331
 C310 C 0.46618 0.22672 0.22673
 C311 C 0.53382 0.22672 0.22673
 C312 C 0.46618 0.27331 0.27330
 O313 O 0.97502 0.75261 0.71761
 O314 O 1.02498 0.71761 0.75259
 O315 O 0.97502 0.71761 0.75259
 O316 O 1.02498 0.75260 0.71760
 O317 O 1.02498 0.78238 0.74739
 O318 O 0.97502 0.74739 0.78238
 O319 O 1.02498 0.74738 0.78238
 O320 O 0.97502 0.78238 0.74740
 Cu321 Cu 1.00000 0.73213 0.73211
 Cu322 Cu 1.00000 0.76786 0.76787
 C323 C 0.96618 0.77329 0.72671
 C324 C 1.03382 0.72670 0.77328
 C325 C 0.96618 0.72670 0.77328
 C326 C 1.03382 0.77329 0.72670
 O327 O 0.52499 0.71764 0.25258
 O328 O 0.47502 0.75262 0.21759
 O329 O 0.52499 0.75263 0.21759
 O330 O 0.47502 0.71763 0.25258
 O331 O 0.47502 0.74741 0.28237
 O332 O 0.52498 0.78241 0.24739
 O333 O 0.47502 0.78240 0.24738
 O334 O 0.52498 0.74741 0.28237
 Cu335 Cu 0.50000 0.73215 0.23210
 Cu336 Cu 0.50000 0.76789 0.26786
 C337 C 0.53382 0.72673 0.27327
 C338 C 0.46618 0.77331 0.22669
 C339 C 0.53382 0.77331 0.22670
 C340 C 0.46618 0.72672 0.27327
 O341 O 0.02498 0.75261 0.28238
 O342 O -0.02498 0.71762 0.24740
 O343 O 0.02498 0.71762 0.24739
 O344 O -0.02498 0.75261 0.28238
 O345 O -0.02498 0.78239 0.25259
 O346 O 0.02498 0.74739 0.21760
 O347 O -0.02498 0.74740 0.21761
 O348 O 0.02498 0.78239 0.25259
 Cu349 Cu 0.00000 0.73213 0.26787
 Cu350 Cu 0.00000 0.76787 0.23212
 C351 C 0.03382 0.77329 0.27328
 C352 C -0.03382 0.72671 0.22671
 C353 C 0.03382 0.72671 0.22670
 C354 C -0.03382 0.77330 0.27328
 O355 O 0.52498 0.75260 0.78238
 O356 O 0.47502 0.71760 0.74739
 O357 O 0.52499 0.71760 0.74739
 O358 O 0.47502 0.75260 0.78237
 O359 O 0.47502 0.78237 0.75258
 O360 O 0.52499 0.74738 0.71760
 O361 O 0.47502 0.74737 0.71759
 O362 O 0.52498 0.78237 0.75258
 Cu363 Cu 0.50000 0.73212 0.76786
 Cu364 Cu 0.50000 0.76785 0.73210
 C365 C 0.53382 0.77328 0.77327
 C366 C 0.46618 0.72669 0.72670
 C367 C 0.53382 0.72669 0.72670
 C368 C 0.46618 0.77328 0.77327
 C369 C 0.40027 0.30773 0.30772
 C370 C 0.41159 0.31900 0.28629
 C371 C 0.43368 0.30841 0.27566
 C372 C 0.35485 0.32334 0.32332
 C373 C 0.43368 0.27568 0.30841
 C374 C 0.41159 0.28632 0.31900
 C375 C 0.37587 0.31668 0.31666
 C376 C 0.44467 0.28630 0.28629
 H377 H 0.40290 0.33549 0.27731
 H378 H 0.44165 0.31705 0.25864
 H379 H 0.44165 0.25867 0.31706
 H380 H 0.40290 0.27735 0.33550
 C381 C 0.40028 0.80771 0.80769
 C382 C 0.41159 0.81897 0.78626
 C383 C 0.43368 0.80838 0.77563
 C384 C 0.35486 0.82331 0.82329
 C385 C 0.43369 0.77566 0.80838
 C386 C 0.41160 0.78629 0.81897
 C387 C 0.37588 0.81665 0.81663
 C388 C 0.44468 0.78628 0.78626
 H389 H 0.40290 0.83547 0.77728
 H390 H 0.44165 0.81702 0.75861
 H391 H 0.44165 0.75865 0.81703
 H392 H 0.40291 0.77732 0.83547
 C393 C -0.09972 0.30773 0.80772
 C394 C -0.08840 0.31899 0.78630
 C395 C -0.06631 0.30840 0.77566
 C396 C -0.14513 0.32333 0.82333
 C397 C -0.06631 0.27567 0.80841
 C398 C -0.08840 0.28631 0.81900
 C399 C -0.12411 0.31667 0.81667
 C400 C -0.05532 0.28629 0.78629
 H401 H -0.09709 0.33549 0.77732
 H402 H -0.05835 0.31704 0.75864
 H403 H -0.05834 0.25866 0.81706
 H404 H -0.09709 0.27734 0.83550
 C405 C -0.09971 0.80773 0.30771
 C406 C -0.08840 0.81900 0.28628
 C407 C -0.06631 0.80840 0.27565
 C408 C -0.14513 0.82334 0.32332
 C409 C -0.06631 0.77568 0.30840
 C410 C -0.08839 0.78631 0.31899
 C411 C -0.12411 0.81668 0.31666
 C412 C -0.05532 0.78630 0.28628
 H413 H -0.09709 0.83549 0.27731
 H414 H -0.05834 0.81704 0.25863
 H415 H -0.05834 0.75867 0.31704
 H416 H -0.09708 0.77735 0.33549
 C417 C 0.59972 0.69230 0.30770
 C418 C 0.58840 0.68104 0.28628
 C419 C 0.56632 0.69163 0.27564
 C420 C 0.64514 0.67670 0.32331
 C421 C 0.56631 0.72436 0.30839
 C422 C 0.58840 0.71372 0.31898
 C423 C 0.62412 0.68336 0.31665
 C424 C 0.55532 0.71373 0.28627
 H425 H 0.59710 0.66454 0.27730
 H426 H 0.55835 0.68299 0.25862
 H427 H 0.55834 0.74137 0.31703
 H428 H 0.59709 0.72269 0.33548
 C429 C 0.59972 0.19227 0.80774
 C430 C 0.58840 0.21369 0.81901
 C431 C 0.56631 0.22432 0.80842
 C432 C 0.64514 0.17667 0.82334
 C433 C 0.56632 0.19159 0.77568
 C434 C 0.58841 0.18100 0.78631
 C435 C 0.62412 0.18333 0.81668
 C436 C 0.55532 0.21370 0.78631
 H437 H 0.59709 0.22266 0.83552
 H438 H 0.55834 0.24133 0.81707
 H439 H 0.55835 0.18295 0.75866
 H440 H 0.59710 0.16451 0.77734
 C441 C 1.09972 0.69226 0.80769
 C442 C 1.08840 0.68100 0.78626
 C443 C 1.06631 0.69159 0.77563
 C444 C 1.14514 0.67665 0.82329
 C445 C 1.06632 0.72431 0.80839
 C446 C 1.08840 0.71368 0.81897
 C447 C 1.12412 0.68331 0.81664
 C448 C 1.05532 0.71370 0.78627
 H449 H 1.09709 0.66450 0.77729
 H450 H 1.05835 0.68296 0.75861
 H451 H 1.05835 0.74132 0.81704
 H452 H 1.09709 0.72264 0.83548
 C453 C 1.09972 0.19227 0.30771
 C454 C 1.08840 0.18101 0.28628
 C455 C 1.06632 0.19160 0.27565
 C456 C 1.14514 0.17666 0.32331
 C457 C 1.06632 0.22433 0.30840
 C458 C 1.08840 0.21369 0.31899
 C459 C 1.12412 0.18332 0.31665
 C460 C 1.05532 0.21371 0.28628
 H461 H 1.09709 0.16451 0.27730
 H462 H 1.05835 0.18297 0.25863
 H463 H 1.05835 0.24134 0.31705
 H464 H 1.09710 0.22265 0.33549
 C465 C 0.59972 0.30771 0.69231
 C466 C 0.58840 0.28630 0.68103
 C467 C 0.56632 0.27566 0.69162
 C468 C 0.64514 0.32332 0.67671
 C469 C 0.56631 0.30839 0.72437
 C470 C 0.58840 0.31898 0.71374
 C471 C 0.62412 0.31666 0.68337
 C472 C 0.55532 0.28628 0.71374
 H473 H 0.59710 0.27733 0.66453
 H474 H 0.55835 0.25865 0.68298
 H475 H 0.55835 0.31702 0.74139
 H476 H 0.59709 0.33548 0.72272
 C477 C 0.59972 0.80775 0.19228
 C478 C 0.58840 0.78633 0.18100
 C479 C 0.56632 0.77569 0.19159
 C480 C 0.64514 0.82335 0.17668
 C481 C 0.56631 0.80842 0.22434
 C482 C 0.58840 0.81901 0.21371
 C483 C 0.62412 0.81669 0.18334
 C484 C 0.55532 0.78631 0.21370
 H485 H 0.59710 0.77736 0.16450
 H486 H 0.55835 0.75868 0.18294
 H487 H 0.55835 0.81706 0.24135
 H488 H 0.59709 0.83551 0.22268
 C489 C 1.09972 0.30772 0.19229
 C490 C 1.08840 0.28630 0.18101
 C491 C 1.06631 0.27567 0.19161
 C492 C 1.14514 0.32333 0.17668
 C493 C 1.06632 0.30840 0.22435
 C494 C 1.08841 0.31899 0.21372
 C495 C 1.12412 0.31667 0.18334
 C496 C 1.05532 0.28629 0.21372
 H497 H 1.09709 0.27734 0.16451
 H498 H 1.05834 0.25866 0.18296
 H499 H 1.05835 0.31704 0.24137
 H500 H 1.09710 0.33549 0.22269
 C501 C 1.09972 0.80771 0.69228
 C502 C 1.08840 0.81898 0.71370
 C503 C 1.06632 0.80839 0.72434
 C504 C 1.14514 0.82332 0.67667
 C505 C 1.06631 0.77566 0.69159
 C506 C 1.08840 0.78629 0.68100
 C507 C 1.12412 0.81666 0.68333
 C508 C 1.05532 0.78628 0.71371
 H509 H 1.09710 0.83547 0.72268
 H510 H 1.05835 0.81703 0.74136
 H511 H 1.05834 0.75865 0.68294
 H512 H 1.09709 0.77733 0.66450
 C513 C 0.40029 0.69226 0.69227
 C514 C 0.41160 0.68099 0.71370
 C515 C 0.43369 0.69159 0.72433
 C516 C 0.35487 0.67665 0.67667
 C517 C 0.43369 0.72431 0.69158
 C518 C 0.41161 0.71368 0.68099
 C519 C 0.37589 0.68331 0.68333
 C520 C 0.44468 0.71369 0.71370
 H521 H 0.40291 0.66450 0.72268
 H522 H 0.44166 0.68295 0.74135
 H523 H 0.44166 0.74132 0.68293
 H524 H 0.40292 0.72264 0.66449
 C525 C 0.40029 0.19228 0.19230
 C526 C 0.41161 0.18102 0.21373
 C527 C 0.43369 0.19161 0.22436
 C528 C 0.35487 0.17667 0.17669
 C529 C 0.43369 0.22434 0.19161
 C530 C 0.41161 0.21370 0.18102
 C531 C 0.37589 0.18333 0.18335
 C532 C 0.44468 0.21372 0.21373
 H533 H 0.40291 0.16452 0.22271
 H534 H 0.44166 0.18298 0.24138
 H535 H 0.44166 0.24135 0.18297
 H536 H 0.40292 0.22267 0.16452
 C537 C -0.09973 0.69229 0.19229
 C538 C -0.08840 0.71370 0.18101
 C539 C -0.06632 0.72434 0.19160
 C540 C -0.14514 0.67668 0.17668
 C541 C -0.06632 0.69161 0.22434
 C542 C -0.08841 0.68102 0.21371
 C543 C -0.12412 0.68334 0.18334
 C544 C -0.05532 0.71371 0.21371
 H545 H -0.09710 0.72267 0.16451
 H546 H -0.05835 0.74135 0.18295
 H547 H -0.05835 0.68297 0.24136
 H548 H -0.09710 0.66452 0.22269
 C549 C -0.09972 0.19228 0.69230
 C550 C -0.08840 0.21370 0.68102
 C551 C -0.06632 0.22433 0.69161
 C552 C -0.14514 0.17667 0.67669
 C553 C -0.06632 0.19160 0.72436
 C554 C -0.08841 0.18101 0.71373
 C555 C -0.12412 0.18333 0.68335
 C556 C -0.05533 0.21371 0.71373
 H557 H -0.09709 0.22266 0.66452
 H558 H -0.05835 0.24134 0.68296
 H559 H -0.05835 0.18296 0.74138
 H560 H -0.09710 0.16452 0.72270
 C561 C 0.30771 0.40029 0.30771
 C562 C 0.31898 0.41161 0.28629
 C563 C 0.30839 0.43369 0.27565
 C564 C 0.32331 0.35488 0.32332
 C565 C 0.27566 0.43370 0.30840
 C566 C 0.28629 0.41161 0.31899
 C567 C 0.31665 0.37589 0.31666
 C568 C 0.28628 0.44469 0.28628
 H569 H 0.33548 0.40291 0.27731
 H570 H 0.31704 0.44166 0.25864
 H571 H 0.25865 0.44167 0.31704
 H572 H 0.27732 0.40292 0.33549
 C573 C 0.30772 -0.09973 0.80770
 C574 C 0.28629 -0.08841 0.81897
 C575 C 0.27566 -0.06633 0.80838
 C576 C 0.32332 -0.14515 0.82329
 C577 C 0.30839 -0.06633 0.77564
 C578 C 0.31899 -0.08841 0.78627
 C579 C 0.31666 -0.12413 0.81664
 C580 C 0.28629 -0.05533 0.78627
 H581 H 0.27733 -0.09710 0.83547
 H582 H 0.25865 -0.05836 0.81703
 H583 H 0.31704 -0.05836 0.75862
 H584 H 0.33548 -0.09710 0.77729
 C585 C 0.80773 0.40029 0.80773
 C586 C 0.78630 0.41161 0.81901
 C587 C 0.77567 0.43369 0.80841
 C588 C 0.82333 0.35487 0.82333
 C589 C 0.80841 0.43369 0.77567
 C590 C 0.81900 0.41161 0.78631
 C591 C 0.81667 0.37589 0.81667
 C592 C 0.78630 0.44468 0.78630
 H593 H 0.77733 0.40292 0.83551
 H594 H 0.75866 0.44166 0.81706
 H595 H 0.81705 0.44166 0.75866
 H596 H 0.83550 0.40292 0.77733
 C597 C 0.80773 -0.09970 0.30772
 C598 C 0.81900 -0.08838 0.28630
 C599 C 0.80841 -0.06630 0.27566
 C600 C 0.82333 -0.14512 0.32332
 C601 C 0.77568 -0.06630 0.30841
 C602 C 0.78631 -0.08838 0.31900
 C603 C 0.81668 -0.12410 0.31666
 C604 C 0.78630 -0.05530 0.28630
 H605 H 0.83550 -0.09707 0.27732
 H606 H 0.81705 -0.05833 0.25865
 H607 H 0.75866 -0.05833 0.31706
 H608 H 0.77734 -0.09707 0.33550
 C609 C 0.30773 0.59969 0.69227
 C610 C 0.28631 0.58837 0.68099
 C611 C 0.27567 0.56629 0.69158
 C612 C 0.32333 0.64511 0.67666
 C613 C 0.30841 0.56629 0.72433
 C614 C 0.31900 0.58838 0.71369
 C615 C 0.31667 0.62409 0.68332
 C616 C 0.28630 0.55530 0.71370
 H617 H 0.27733 0.59706 0.66449
 H618 H 0.25866 0.55832 0.68294
 H619 H 0.31705 0.55832 0.74134
 H620 H 0.33550 0.59707 0.72267
 C621 C 0.30773 1.09971 0.19228
 C622 C 0.31900 1.08839 0.21371
 C623 C 0.30841 1.06631 0.22434
 C624 C 0.32334 1.14513 0.17669
 C625 C 0.27567 1.06631 0.19160
 C626 C 0.28631 1.08840 0.18101
 C627 C 0.31668 1.12411 0.18334
 C628 C 0.28630 1.05532 0.21371
 H629 H 0.33550 1.09708 0.22268
 H630 H 0.31705 1.05834 0.24135
 H631 H 0.25866 1.05835 0.18295
 H632 H 0.27734 1.09709 0.16451
 C633 C 0.80771 0.59973 0.19229
 C634 C 0.78629 0.58841 0.18101
 C635 C 0.77566 0.56632 0.19161
 C636 C 0.82332 0.64514 0.17668
 C637 C 0.80839 0.56633 0.22435
 C638 C 0.81898 0.58841 0.21372
 C639 C 0.81666 0.62412 0.18334
 C640 C 0.78628 0.55533 0.21372
 H641 H 0.77732 0.59710 0.16451
 H642 H 0.75865 0.55835 0.18296
 H643 H 0.81704 0.55836 0.24137
 H644 H 0.83548 0.59711 0.22269
 C645 C 0.80772 1.09972 0.69230
 C646 C 0.78630 1.08840 0.68102
 C647 C 0.77566 1.06631 0.69161
 C648 C 0.82332 1.14513 0.67669
 C649 C 0.80839 1.06632 0.72436
 C650 C 0.81899 1.08840 0.71373
 C651 C 0.81666 1.12412 0.68335
 C652 C 0.78629 1.05532 0.71373
 H653 H 0.77733 1.09709 0.66452
 H654 H 0.75865 1.05834 0.68296
 H655 H 0.81704 1.05835 0.74138
 H656 H 0.83548 1.09710 0.72270
 C657 C 0.69228 0.59974 0.30772
 C658 C 0.71370 0.58842 0.31900
 C659 C 0.72433 0.56634 0.30841
 C660 C 0.67668 0.64516 0.32332
 C661 C 0.69160 0.56634 0.27566
 C662 C 0.68101 0.58842 0.28629
 C663 C 0.68333 0.62414 0.31666
 C664 C 0.71370 0.55534 0.28629
 H665 H 0.72267 0.59711 0.33550
 H666 H 0.74134 0.55837 0.31705
 H667 H 0.68295 0.55837 0.25865
 H668 H 0.66451 0.59711 0.27732
 C669 C 0.69228 1.09972 0.80774
 C670 C 0.68101 1.08840 0.78631
 C671 C 0.69160 1.06632 0.77568
 C672 C 0.67668 1.14513 0.82334
 C673 C 0.72434 1.06631 0.80842
 C674 C 0.71371 1.08840 0.81901
 C675 C 0.68334 1.12411 0.81668
 C676 C 0.71371 1.05532 0.78631
 H677 H 0.66451 1.09710 0.77734
 H678 H 0.68296 1.05835 0.75866
 H679 H 0.74135 1.05834 0.81706
 H680 H 0.72268 1.09709 0.83551
 C681 C 0.19228 0.59970 0.80769
 C682 C 0.18101 0.58838 0.78627
 C683 C 0.19161 0.56629 0.77564
 C684 C 0.17668 0.64511 0.82330
 C685 C 0.22434 0.56629 0.80838
 C686 C 0.21371 0.58838 0.81897
 C687 C 0.18334 0.62409 0.81664
 C688 C 0.21372 0.55530 0.78627
 H689 H 0.16452 0.59707 0.77729
 H690 H 0.18296 0.55832 0.75862
 H691 H 0.24135 0.55833 0.81703
 H692 H 0.22268 0.59707 0.83547
 C693 C 0.19228 1.09971 0.30771
 C694 C 0.21371 1.08839 0.31898
 C695 C 0.22434 1.06631 0.30839
 C696 C 0.17668 1.14512 0.32331
 C697 C 0.19160 1.06630 0.27565
 C698 C 0.18101 1.08839 0.28628
 C699 C 0.18334 1.12410 0.31665
 C700 C 0.21371 1.05531 0.28628
 H701 H 0.22268 1.09708 0.33548
 H702 H 0.24136 1.05834 0.31703
 H703 H 0.18296 1.05834 0.25863
 H704 H 0.16451 1.09708 0.27731
 C705 C 0.69228 0.40028 0.69231
 C706 C 0.71370 0.41160 0.68103
 C707 C 0.72434 0.43368 0.69162
 C708 C 0.67668 0.35486 0.67671
 C709 C 0.69160 0.43369 0.72436
 C710 C 0.68101 0.41160 0.71373
 C711 C 0.68334 0.37588 0.68337
 C712 C 0.71371 0.44468 0.71373
 H713 H 0.72267 0.40290 0.66453
 H714 H 0.74135 0.44165 0.68297
 H715 H 0.68296 0.44166 0.74138
 H716 H 0.66451 0.40291 0.72271
 C717 C 0.69229 -0.09970 0.19229
 C718 C 0.68102 -0.08838 0.21372
 C719 C 0.69161 -0.06629 0.22435
 C720 C 0.67668 -0.14511 0.17668
 C721 C 0.72434 -0.06629 0.19161
 C722 C 0.71371 -0.08838 0.18102
 C723 C 0.68334 -0.12409 0.18334
 C724 C 0.71372 -0.05530 0.21372
 H725 H 0.66452 -0.09707 0.22269
 H726 H 0.68297 -0.05833 0.24137
 H727 H 0.74136 -0.05832 0.18296
 H728 H 0.72268 -0.09707 0.16451
 C729 C 0.19228 0.40028 0.19228
 C730 C 0.21370 0.41160 0.18100
 C731 C 0.22433 0.43369 0.19159
 C732 C 0.17668 0.35487 0.17668
 C733 C 0.19160 0.43369 0.22434
 C734 C 0.18101 0.41160 0.21371
 C735 C 0.18334 0.37589 0.18334
 C736 C 0.21371 0.44468 0.21371
 H737 H 0.22267 0.40291 0.16450
 H738 H 0.24134 0.44166 0.18294
 H739 H 0.18296 0.44166 0.24135
 H740 H 0.16451 0.40291 0.22268
 C741 C 0.19228 -0.09973 0.69227
 C742 C 0.18101 -0.08841 0.71370
 C743 C 0.19160 -0.06632 0.72433
 C744 C 0.17668 -0.14514 0.67667
 C745 C 0.22433 -0.06632 0.69159
 C746 C 0.21370 -0.08841 0.68099
 C747 C 0.18334 -0.12412 0.68333
 C748 C 0.21371 -0.05533 0.71370
 H749 H 0.16451 -0.09710 0.72267
 H750 H 0.18295 -0.05836 0.74134
 H751 H 0.24134 -0.05835 0.68294
 H752 H 0.22267 -0.09710 0.66449
 C753 C 0.30770 0.30772 0.40028
 C754 C 0.31898 0.28630 0.41159
 C755 C 0.30839 0.27566 0.43368
 C756 C 0.32331 0.32333 0.35486
 C757 C 0.27565 0.30839 0.43369
 C758 C 0.28628 0.31899 0.41160
 C759 C 0.31665 0.31667 0.37588
 C760 C 0.28628 0.28628 0.44467
 H761 H 0.33548 0.27733 0.40290
 H762 H 0.31703 0.25865 0.44164
 H763 H 0.25863 0.31703 0.44166
 H764 H 0.27731 0.33549 0.40291
 C765 C 0.30771 0.80770 -0.09975
 C766 C 0.31898 0.78628 -0.08843
 C767 C 0.30839 0.77565 -0.06634
 C768 C 0.32332 0.82331 -0.14517
 C769 C 0.27565 0.80838 -0.06634
 C770 C 0.28628 0.81897 -0.08843
 C771 C 0.31666 0.81665 -0.12415
 C772 C 0.28628 0.78627 -0.05535
 H773 H 0.33548 0.77732 -0.09712
 H774 H 0.31704 0.75864 -0.05837
 H775 H 0.25863 0.81702 -0.05837
 H776 H 0.27731 0.83547 -0.09712
 C777 C 0.80772 0.30773 -0.09971
 C778 C 0.78630 0.31900 -0.08839
 C779 C 0.77566 0.30841 -0.06630
 C780 C 0.82333 0.32333 -0.14513
 C781 C 0.80840 0.27568 -0.06630
 C782 C 0.81900 0.28631 -0.08838
 C783 C 0.81667 0.31667 -0.12410
 C784 C 0.78629 0.28630 -0.05530
 H785 H 0.77732 0.33549 -0.09708
 H786 H 0.75865 0.31705 -0.05833
 H787 H 0.81705 0.25867 -0.05833
 H788 H 0.83550 0.27734 -0.09707
 C789 C 0.80772 0.80774 0.40028
 C790 C 0.81900 0.78632 0.41160
 C791 C 0.80841 0.77568 0.43369
 C792 C 0.82333 0.82334 0.35486
 C793 C 0.77566 0.80841 0.43369
 C794 C 0.78630 0.81900 0.41160
 C795 C 0.81667 0.81668 0.37588
 C796 C 0.78629 0.78631 0.44468
 H797 H 0.83550 0.77735 0.40291
 H798 H 0.81706 0.75867 0.44166
 H799 H 0.75864 0.81705 0.44165
 H800 H 0.77732 0.83550 0.40290
 C801 C 0.69228 0.30772 0.59975
 C802 C 0.71371 0.31899 0.58843
 C803 C 0.72434 0.30840 0.56634
 C804 C 0.67668 0.32332 0.64517
 C805 C 0.69160 0.27567 0.56634
 C806 C 0.68101 0.28630 0.58843
 C807 C 0.68334 0.31667 0.62415
 C808 C 0.71371 0.28630 0.55535
 H809 H 0.72268 0.33549 0.59712
 H810 H 0.74136 0.31704 0.55837
 H811 H 0.68295 0.25866 0.55837
 H812 H 0.66451 0.27733 0.59712
 C813 C 0.69229 0.80774 1.09972
 C814 C 0.71372 0.81901 1.08840
 C815 C 0.72435 0.80841 1.06631
 C816 C 0.67669 0.82335 1.14514
 C817 C 0.69160 0.77568 1.06632
 C818 C 0.68101 0.78632 1.08840
 C819 C 0.68335 0.81669 1.12412
 C820 C 0.71372 0.78631 1.05532
 H821 H 0.72269 0.83550 1.09709
 H822 H 0.74136 0.81705 1.05834
 H823 H 0.68296 0.75867 1.05835
 H824 H 0.66451 0.77735 1.09710
 C825 C 0.19229 0.30771 1.09973
 C826 C 0.21372 0.31898 1.08841
 C827 C 0.22435 0.30839 1.06632
 C828 C 0.17668 0.32332 1.14514
 C829 C 0.19161 0.27566 1.06632
 C830 C 0.18102 0.28629 1.08840
 C831 C 0.18334 0.31666 1.12412
 C832 C 0.21372 0.28628 1.05533
 H833 H 0.22269 0.33548 1.09710
 H834 H 0.24137 0.31703 1.05835
 H835 H 0.18296 0.25865 1.05835
 H836 H 0.16451 0.27733 1.09710
 C837 C 0.19229 0.80771 0.59971
 C838 C 0.21372 0.81898 0.58839
 C839 C 0.22435 0.80838 0.56631
 C840 C 0.17668 0.82331 0.64513
 C841 C 0.19161 0.77565 0.56630
 C842 C 0.18102 0.78628 0.58839
 C843 C 0.18334 0.81665 0.62411
 C844 C 0.21372 0.78627 0.55531
 H845 H 0.22269 0.83547 0.59709
 H846 H 0.24137 0.81702 0.55834
 H847 H 0.18296 0.75864 0.55833
 H848 H 0.16452 0.77732 0.59708
 C849 C 0.30772 0.69226 0.59971
 C850 C 0.31900 0.71368 0.58839
 C851 C 0.30840 0.72432 0.56630
 C852 C 0.32333 0.67665 0.64512
 C853 C 0.27566 0.69159 0.56630
 C854 C 0.28629 0.68099 0.58839
 C855 C 0.31667 0.68331 0.62410
 C856 C 0.28629 0.71370 0.55531
 H857 H 0.33550 0.72265 0.59708
 H858 H 0.31705 0.74133 0.55833
 H859 H 0.25865 0.68295 0.55833
 H860 H 0.27732 0.66450 0.59708
 C861 C 0.30772 0.19228 1.09973
 C862 C 0.31900 0.21370 1.08841
 C863 C 0.30841 0.22433 1.06632
 C864 C 0.32333 0.17667 1.14515
 C865 C 0.27566 0.19160 1.06633
 C866 C 0.28630 0.18101 1.08841
 C867 C 0.31667 0.18333 1.12413
 C868 C 0.28629 0.21370 1.05533
 H869 H 0.33550 0.22266 1.09710
 H870 H 0.31705 0.24134 1.05835
 H871 H 0.25865 0.18296 1.05836
 H872 H 0.27732 0.16451 1.09711
 C873 C 0.80771 0.69229 1.09972
 C874 C 0.78628 0.68102 1.08840
 C875 C 0.77565 0.69161 1.06632
 C876 C 0.82331 0.67668 1.14514
 C877 C 0.80839 0.72435 1.06632
 C878 C 0.81898 0.71371 1.08840
 C879 C 0.81665 0.68334 1.12412
 C880 C 0.78628 0.71372 1.05532
 H881 H 0.77731 0.66452 1.09710
 H882 H 0.75863 0.68297 1.05835
 H883 H 0.81704 0.74136 1.05835
 H884 H 0.83548 0.72268 1.09710
 C885 C 0.80771 0.19228 0.59974
 C886 C 0.81898 0.21370 0.58842
 C887 C 0.80839 0.22434 0.56633
 C888 C 0.82332 0.17668 0.64515
 C889 C 0.77565 0.19161 0.56633
 C890 C 0.78628 0.18102 0.58842
 C891 C 0.81665 0.18334 0.62413
 C892 C 0.78628 0.21372 0.55534
 H893 H 0.83549 0.22267 0.59711
 H894 H 0.81704 0.24135 0.55836
 H895 H 0.75863 0.18297 0.55836
 H896 H 0.77731 0.16452 0.59711
 C897 C 0.69229 0.69230 0.40027
 C898 C 0.71372 0.68104 0.41159
 C899 C 0.72435 0.69163 0.43368
 C900 C 0.67668 0.67670 0.35485
 C901 C 0.69161 0.72435 0.43369
 C902 C 0.68101 0.71372 0.41160
 C903 C 0.68334 0.68336 0.37588
 C904 C 0.71372 0.71373 0.44467
 H905 H 0.72269 0.66454 0.40289
 H906 H 0.74137 0.68299 0.44164
 H907 H 0.68296 0.74137 0.44166
 H908 H 0.66451 0.72269 0.40291
 C909 C 0.69229 0.19229 -0.09970
 C910 C 0.68102 0.21371 -0.08838
 C911 C 0.69161 0.22434 -0.06629
 C912 C 0.67669 0.17668 -0.14512
 C913 C 0.72435 0.19161 -0.06629
 C914 C 0.71372 0.18102 -0.08838
 C915 C 0.68335 0.18334 -0.12410
 C916 C 0.71372 0.21372 -0.05530
 H917 H 0.66452 0.22267 -0.09707
 H918 H 0.68296 0.24135 -0.05833
 H919 H 0.74137 0.18297 -0.05833
 H920 H 0.72269 0.16452 -0.09707
 C921 C 0.19229 0.69226 -0.09975
 C922 C 0.18101 0.71368 -0.08843
 C923 C 0.19160 0.72432 -0.06634
 C924 C 0.17668 0.67665 -0.14516
 C925 C 0.22434 0.69159 -0.06634
 C926 C 0.21371 0.68099 -0.08843
 C927 C 0.18334 0.68332 -0.12414
 C928 C 0.21371 0.71370 -0.05535
 H929 H 0.16451 0.72265 -0.09712
 H930 H 0.18295 0.74133 -0.05837
 H931 H 0.24136 0.68295 -0.05837
 H932 H 0.22268 0.66450 -0.09712
 C933 C 0.19229 0.19227 0.40027
 C934 C 0.18101 0.21369 0.41159
 C935 C 0.19160 0.22432 0.43368
 C936 C 0.17668 0.17666 0.35485
 C937 C 0.22434 0.19159 0.43368
 C938 C 0.21371 0.18100 0.41159
 C939 C 0.18334 0.18332 0.37587
 C940 C 0.21371 0.21370 0.44467
 H941 H 0.16451 0.22266 0.40290
 H942 H 0.18296 0.24134 0.44164
 H943 H 0.24136 0.18295 0.44165
 H944 H 0.22268 0.16450 0.40290
 C945 C 0.30773 0.40026 0.69228
 C946 C 0.31900 0.41158 0.71371
 C947 C 0.30841 0.43367 0.72434
 C948 C 0.32333 0.35484 0.67668
 C949 C 0.27567 0.43367 0.69159
 C950 C 0.28631 0.41158 0.68100
 C951 C 0.31667 0.37586 0.68334
 C952 C 0.28630 0.44466 0.71370
 H953 H 0.33549 0.40289 0.72268
 H954 H 0.31705 0.44164 0.74135
 H955 H 0.25866 0.44164 0.68294
 H956 H 0.27734 0.40289 0.66450
 C957 C 0.30772 0.90028 0.19226
 C958 C 0.31899 0.91160 0.21369
 C959 C 0.30840 0.93368 0.22433
 C960 C 0.32332 0.85487 0.17666
 C961 C 0.27567 0.93369 0.19158
 C962 C 0.28630 0.91161 0.18099
 C963 C 0.31666 0.87589 0.18332
 C964 C 0.28629 0.94468 0.21370
 H965 H 0.33549 0.90291 0.22266
 H966 H 0.31704 0.94165 0.24134
 H967 H 0.25866 0.94166 0.18293
 H968 H 0.27733 0.90292 0.16449
 C969 C 0.80772 0.40030 0.19231
 C970 C 0.78630 0.41162 0.18103
 C971 C 0.77566 0.43371 0.19162
 C972 C 0.82332 0.35489 0.17671
 C973 C 0.80839 0.43371 0.22436
 C974 C 0.81899 0.41162 0.21373
 C975 C 0.81666 0.37591 0.18336
 C976 C 0.78629 0.44470 0.21373
 H977 H 0.77733 0.40293 0.16453
 H978 H 0.75865 0.44167 0.18297
 H979 H 0.81704 0.44168 0.24138
 H980 H 0.83548 0.40293 0.22271
 C981 C 0.80772 0.90029 0.69230
 C982 C 0.81899 0.91161 0.71372
 C983 C 0.80840 0.93370 0.72435
 C984 C 0.82332 0.85488 0.67669
 C985 C 0.77566 0.93370 0.69161
 C986 C 0.78629 0.91161 0.68102
 C987 C 0.81666 0.87590 0.68335
 C988 C 0.78629 0.94469 0.71373
 H989 H 0.83549 0.90292 0.72269
 H990 H 0.81704 0.94167 0.74137
 H991 H 0.75865 0.94166 0.68297
 H992 H 0.77732 0.90292 0.66452
 C993 C 0.69229 0.59971 0.69229
 C994 C 0.68102 0.58839 0.71371
 C995 C 0.69161 0.56631 0.72435
 C996 C 0.67669 0.64512 0.67668
 C997 C 0.72434 0.56630 0.69160
 C998 C 0.71371 0.58839 0.68101
 C999 C 0.68335 0.62410 0.68334
 C1000 C 0.71372 0.55531 0.71372
 H1001 H 0.66452 0.59709 0.72269
 H1002 H 0.68296 0.55834 0.74136
 H1003 H 0.74135 0.55833 0.68296
 H1004 H 0.72268 0.59708 0.66451
 C1005 C 0.69229 0.09973 0.19231
 C1006 C 0.68102 0.08841 0.21373
 C1007 C 0.69161 0.06632 0.22436
 C1008 C 0.67668 0.14515 0.17671
 C1009 C 0.72434 0.06633 0.19162
 C1010 C 0.71371 0.08841 0.18103
 C1011 C 0.68334 0.12413 0.18336
 C1012 C 0.71372 0.05533 0.21373
 H1013 H 0.66452 0.09710 0.22271
 H1014 H 0.68296 0.05836 0.24138
 H1015 H 0.74136 0.05836 0.18297
 H1016 H 0.72268 0.09711 0.16453
 C1017 C 0.19228 0.59971 0.19227
 C1018 C 0.21370 0.58840 0.18100
 C1019 C 0.22433 0.56631 0.19159
 C1020 C 0.17667 0.64513 0.17667
 C1021 C 0.19160 0.56631 0.22433
 C1022 C 0.18100 0.58839 0.21370
 C1023 C 0.18333 0.62411 0.18333
 C1024 C 0.21371 0.55532 0.21370
 H1025 H 0.22267 0.59709 0.16450
 H1026 H 0.24135 0.55834 0.18294
 H1027 H 0.18295 0.55834 0.24134
 H1028 H 0.16450 0.59708 0.22267
 C1029 C 0.19227 0.09970 0.69228
 C1030 C 0.18100 0.08838 0.71371
 C1031 C 0.19159 0.06630 0.72434
 C1032 C 0.17667 0.14512 0.67668
 C1033 C 0.22433 0.06630 0.69159
 C1034 C 0.21369 0.08838 0.68100
 C1035 C 0.18333 0.12410 0.68334
 C1036 C 0.21370 0.05531 0.71371
 H1037 H 0.16450 0.09707 0.72268
 H1038 H 0.18295 0.05833 0.74135
 H1039 H 0.24134 0.05833 0.68294
 H1040 H 0.22266 0.09708 0.66450
 C1041 C 0.30772 0.59972 0.30769
 C1042 C 0.31899 0.58840 0.28627
 C1043 C 0.30840 0.56631 0.27564
 C1044 C 0.32333 0.64513 0.32329
 C1045 C 0.27567 0.56632 0.30838
 C1046 C 0.28630 0.58840 0.31897
 C1047 C 0.31667 0.62411 0.31664
 C1048 C 0.28629 0.55532 0.28627
 H1049 H 0.33549 0.59709 0.27730
 H1050 H 0.31704 0.55834 0.25862
 H1051 H 0.25865 0.55835 0.31703
 H1052 H 0.27733 0.59709 0.33547
 C1053 C 0.30771 0.09970 0.80771
 C1054 C 0.31899 0.08838 0.78628
 C1055 C 0.30839 0.06629 0.77565
 C1056 C 0.32332 0.14511 0.82332
 C1057 C 0.27566 0.06629 0.80839
 C1058 C 0.28629 0.08838 0.81899
 C1059 C 0.31666 0.12409 0.81666
 C1060 C 0.28628 0.05530 0.78628
 H1061 H 0.33548 0.09707 0.77731
 H1062 H 0.31704 0.05833 0.75863
 H1063 H 0.25865 0.05832 0.81704
 H1064 H 0.27732 0.09707 0.83549
 C1065 C 0.80772 0.59972 0.80772
 C1066 C 0.81899 0.58840 0.78629
 C1067 C 0.80840 0.56631 0.77566
 C1068 C 0.82332 0.64514 0.82332
 C1069 C 0.77567 0.56631 0.80841
 C1070 C 0.78630 0.58840 0.81900
 C1071 C 0.81666 0.62412 0.81666
 C1072 C 0.78629 0.55532 0.78629
 H1073 H 0.83549 0.59709 0.77732
 H1074 H 0.81704 0.55835 0.75865
 H1075 H 0.75866 0.55834 0.81706
 H1076 H 0.77733 0.59709 0.83550
 C1077 C 0.80772 0.09973 0.30773
 C1078 C 0.78630 0.08841 0.31901
 C1079 C 0.77567 0.06632 0.30841
 C1080 C 0.82332 0.14515 0.32333
 C1081 C 0.80840 0.06632 0.27567
 C1082 C 0.81900 0.08841 0.28630
 C1083 C 0.81667 0.12413 0.31667
 C1084 C 0.78630 0.05533 0.28630
 H1085 H 0.77733 0.09710 0.33551
 H1086 H 0.75866 0.05835 0.31706
 H1087 H 0.81705 0.05836 0.25866
 H1088 H 0.83549 0.09710 0.27733
 C1089 C 0.69227 0.40031 0.30774
 C1090 C 0.71369 0.41163 0.31901
 C1091 C 0.72433 0.43372 0.30842
 C1092 C 0.67667 0.35490 0.32334
 C1093 C 0.69159 0.43371 0.27568
 C1094 C 0.68100 0.41163 0.28631
 C1095 C 0.68333 0.37592 0.31668
 C1096 C 0.71370 0.44471 0.28631
 H1097 H 0.72266 0.40294 0.33551
 H1098 H 0.74134 0.44168 0.31706
 H1099 H 0.68295 0.44168 0.25866
 H1100 H 0.66450 0.40294 0.27734
 C1101 C 0.69227 0.90029 0.80772
 C1102 C 0.68100 0.91161 0.78629
 C1103 C 0.69159 0.93370 0.77566
 C1104 C 0.67667 0.85487 0.82331
 C1105 C 0.72433 0.93369 0.80840
 C1106 C 0.71369 0.91160 0.81899
 C1107 C 0.68333 0.87589 0.81666
 C1108 C 0.71370 0.94469 0.78629
 H1109 H 0.66450 0.90292 0.77732
 H1110 H 0.68295 0.94167 0.75865
 H1111 H 0.74134 0.94166 0.81705
 H1112 H 0.72267 0.90291 0.83549
 C1113 C 0.19229 0.40027 0.80771
 C1114 C 0.18102 0.41159 0.78628
 C1115 C 0.19161 0.43367 0.77565
 C1116 C 0.17669 0.35486 0.82332
 C1117 C 0.22434 0.43368 0.80839
 C1118 C 0.21371 0.41159 0.81899
 C1119 C 0.18335 0.37588 0.81666
 C1120 C 0.21372 0.44467 0.78628
 H1121 H 0.16452 0.40290 0.77731
 H1122 H 0.18297 0.44164 0.75863
 H1123 H 0.24136 0.44165 0.81704
 H1124 H 0.22268 0.40290 0.83549
 C1125 C 0.19229 0.90028 0.30770
 C1126 C 0.18102 0.91160 0.28627
 C1127 C 0.19161 0.93368 0.27564
 C1128 C 0.17668 0.85487 0.32330
 C1129 C 0.22434 0.93369 0.30839
 C1130 C 0.21371 0.91160 0.31898
 C1131 C 0.18334 0.87589 0.31664
 C1132 C 0.21372 0.94468 0.28627
 H1133 H 0.16452 0.90290 0.27730
 H1134 H 0.18297 0.94165 0.25862
 H1135 H 0.24135 0.94166 0.31704
 H1136 H 0.22268 0.90291 0.33548
 C1137 C 0.40028 0.30770 0.69230
 C1138 C 0.41160 0.28628 0.68102
 C1139 C 0.43369 0.27565 0.69161
 C1140 C 0.35486 0.32330 0.67669
 C1141 C 0.43368 0.30838 0.72436
 C1142 C 0.41160 0.31897 0.71372
 C1143 C 0.37588 0.31664 0.68335
 C1144 C 0.44468 0.28627 0.71373
 H1145 H 0.40291 0.27731 0.66452
 H1146 H 0.44166 0.25863 0.68297
 H1147 H 0.44165 0.31702 0.74138
 H1148 H 0.40290 0.33546 0.72270
 C1149 C 0.40028 0.80773 0.19226
 C1150 C 0.41160 0.78631 0.18099
 C1151 C 0.43369 0.77568 0.19158
 C1152 C 0.35486 0.82333 0.17666
 C1153 C 0.43368 0.80841 0.22432
 C1154 C 0.41160 0.81900 0.21369
 C1155 C 0.37588 0.81667 0.18332
 C1156 C 0.44468 0.78630 0.21369
 H1157 H 0.40291 0.77734 0.16449
 H1158 H 0.44166 0.75867 0.18293
 H1159 H 0.44165 0.81705 0.24134
 H1160 H 0.40290 0.83549 0.22266
 C1161 C 0.90028 0.30774 0.19231
 C1162 C 0.91160 0.28632 0.18103
 C1163 C 0.93369 0.27569 0.19162
 C1164 C 0.85486 0.32335 0.17671
 C1165 C 0.93369 0.30841 0.22437
 C1166 C 0.91160 0.31900 0.21374
 C1167 C 0.87588 0.31669 0.18337
 C1168 C 0.94468 0.28630 0.21373
 H1169 H 0.90291 0.27736 0.16452
 H1170 H 0.94165 0.25868 0.18297
 H1171 H 0.94166 0.31705 0.24139
 H1172 H 0.90291 0.33550 0.22272
 C1173 C 0.90028 0.80773 0.69230
 C1174 C 0.91160 0.78631 0.68101
 C1175 C 0.93368 0.77567 0.69160
 C1176 C 0.85486 0.82334 0.67669
 C1177 C 0.93369 0.80840 0.72435
 C1178 C 0.91160 0.81899 0.71372
 C1179 C 0.87588 0.81668 0.68335
 C1180 C 0.94468 0.78629 0.71372
 H1181 H 0.90290 0.77735 0.66451
 H1182 H 0.94165 0.75866 0.68295
 H1183 H 0.94165 0.81704 0.74137
 H1184 H 0.90291 0.83549 0.72270
 C1185 C 0.59971 0.30775 0.30773
 C1186 C 0.58840 0.31901 0.28630
 C1187 C 0.56631 0.30842 0.27567
 C1188 C 0.64513 0.32336 0.32334
 C1189 C 0.56631 0.27569 0.30842
 C1190 C 0.58839 0.28633 0.31901
 C1191 C 0.62411 0.31669 0.31668
 C1192 C 0.55532 0.28631 0.28630
 H1193 H 0.59709 0.33551 0.27733
 H1194 H 0.55834 0.31706 0.25865
 H1195 H 0.55834 0.25868 0.31707
 H1196 H 0.59708 0.27736 0.33551
 C1197 C 0.59971 0.80772 0.80770
 C1198 C 0.58839 0.78630 0.81898
 C1199 C 0.56631 0.77566 0.80839
 C1200 C 0.64513 0.82333 0.82331
 C1201 C 0.56631 0.80839 0.77564
 C1202 C 0.58840 0.81898 0.78627
 C1203 C 0.62411 0.81667 0.81665
 C1204 C 0.55532 0.78628 0.78627
 H1205 H 0.59708 0.77734 0.83548
 H1206 H 0.55834 0.75865 0.81704
 H1207 H 0.55835 0.81703 0.75862
 H1208 H 0.59709 0.83548 0.77729
 C1209 C 0.09973 0.30772 0.80771
 C1210 C 0.08841 0.28630 0.81899
 C1211 C 0.06632 0.27566 0.80840
 C1212 C 0.14515 0.32332 0.82332
 C1213 C 0.06632 0.30839 0.77566
 C1214 C 0.08841 0.31898 0.78629
 C1215 C 0.12413 0.31666 0.81666
 C1216 C 0.05533 0.28629 0.78629
 H1217 H 0.09710 0.27733 0.83549
 H1218 H 0.05835 0.25865 0.81705
 H1219 H 0.05835 0.31703 0.75864
 H1220 H 0.09710 0.33548 0.77731
 C1221 C 0.09973 0.80772 0.30770
 C1222 C 0.08841 0.78630 0.31898
 C1223 C 0.06632 0.77567 0.30839
 C1224 C 0.14515 0.82333 0.32330
 C1225 C 0.06632 0.80840 0.27564
 C1226 C 0.08841 0.81899 0.28627
 C1227 C 0.12412 0.81667 0.31664
 C1228 C 0.05533 0.78629 0.28627
 H1229 H 0.09710 0.77734 0.33548
 H1230 H 0.05835 0.75866 0.31704
 H1231 H 0.05835 0.81704 0.25862
 H1232 H 0.09710 0.83548 0.27730
 C1233 C 0.59973 0.69227 0.69228
 C1234 C 0.58841 0.68100 0.71371
 C1235 C 0.56632 0.69159 0.72434
 C1236 C 0.64515 0.67666 0.67668
 C1237 C 0.56632 0.72432 0.69159
 C1238 C 0.58841 0.71368 0.68100
 C1239 C 0.62413 0.68332 0.68334
 C1240 C 0.55533 0.71370 0.71370
 H1241 H 0.59710 0.66450 0.72269
 H1242 H 0.55835 0.68295 0.74136
 H1243 H 0.55835 0.74133 0.68294
 H1244 H 0.59710 0.72265 0.66450
 C1245 C 0.59973 0.19229 0.19231
 C1246 C 0.58841 0.21371 0.18103
 C1247 C 0.56632 0.22434 0.19162
 C1248 C 0.64515 0.17669 0.17671
 C1249 C 0.56632 0.19162 0.22437
 C1250 C 0.58841 0.18103 0.21374
 C1251 C 0.62412 0.18335 0.18337
 C1252 C 0.55533 0.21372 0.21374
 H1253 H 0.59710 0.22268 0.16453
 H1254 H 0.55835 0.24135 0.18297
 H1255 H 0.55835 0.18298 0.24139
 H1256 H 0.59710 0.16453 0.22272
 C1257 C 0.09972 0.69228 0.19228
 C1258 C 0.08840 0.68101 0.21371
 C1259 C 0.06631 0.69160 0.22434
 C1260 C 0.14513 0.67667 0.17667
 C1261 C 0.06631 0.72433 0.19159
 C1262 C 0.08840 0.71370 0.18100
 C1263 C 0.12411 0.68333 0.18333
 C1264 C 0.05532 0.71371 0.21371
 H1265 H 0.09709 0.66451 0.22268
 H1266 H 0.05835 0.68296 0.24136
 H1267 H 0.05834 0.74134 0.18294
 H1268 H 0.09709 0.72266 0.16450
 C1269 C 0.09972 0.19227 0.69229
 C1270 C 0.08840 0.18100 0.71372
 C1271 C 0.06631 0.19160 0.72435
 C1272 C 0.14513 0.17666 0.67668
 C1273 C 0.06631 0.22432 0.69161
 C1274 C 0.08840 0.21369 0.68101
 C1275 C 0.12411 0.18332 0.68334
 C1276 C 0.05532 0.21370 0.71372
 H1277 H 0.09709 0.16451 0.72269
 H1278 H 0.05834 0.18296 0.74137
 H1279 H 0.05834 0.24134 0.68296
 H1280 H 0.09709 0.22266 0.66451
 C1281 C 0.40028 0.69229 0.30769
 C1282 C 0.41160 0.68102 0.28626
 C1283 C 0.43369 0.69162 0.27563
 C1284 C 0.35487 0.67668 0.32329
 C1285 C 0.43369 0.72434 0.30838
 C1286 C 0.41160 0.71370 0.31897
 C1287 C 0.37589 0.68334 0.31663
 C1288 C 0.44468 0.71372 0.28626
 H1289 H 0.40291 0.66452 0.27728
 H1290 H 0.44166 0.68298 0.25861
 H1291 H 0.44165 0.74135 0.31703
 H1292 H 0.40291 0.72267 0.33547
 C1293 C 0.40028 0.19225 0.80772
 C1294 C 0.41160 0.21367 0.81900
 C1295 C 0.43368 0.22431 0.80841
 C1296 C 0.35486 0.17665 0.82332
 C1297 C 0.43369 0.19158 0.77566
 C1298 C 0.41160 0.18099 0.78629
 C1299 C 0.37588 0.18331 0.81666
 C1300 C 0.44468 0.21369 0.78630
 H1301 H 0.40290 0.22264 0.83550
 H1302 H 0.44165 0.24132 0.81706
 H1303 H 0.44166 0.18294 0.75865
 H1304 H 0.40291 0.16449 0.77732
 C1305 C 0.90028 0.69228 0.80771
 C1306 C 0.91159 0.68101 0.78628
 C1307 C 0.93368 0.69160 0.77565
 C1308 C 0.85486 0.67668 0.82332
 C1309 C 0.93369 0.72433 0.80840
 C1310 C 0.91160 0.71370 0.81899
 C1311 C 0.87588 0.68333 0.81666
 C1312 C 0.94468 0.71371 0.78628
 H1313 H 0.90290 0.66452 0.77731
 H1314 H 0.94165 0.68296 0.75863
 H1315 H 0.94166 0.74134 0.81704
 H1316 H 0.90291 0.72266 0.83549
 C1317 C 0.90028 0.19229 0.30772
 C1318 C 0.91160 0.18102 0.28629
 C1319 C 0.93368 0.19161 0.27566
 C1320 C 0.85486 0.17669 0.32333
 C1321 C 0.93369 0.22434 0.30841
 C1322 C 0.91160 0.21371 0.31900
 C1323 C 0.87588 0.18335 0.31667
 C1324 C 0.94468 0.21372 0.28629
 H1325 H 0.90290 0.16453 0.27732
 H1326 H 0.94165 0.18297 0.25864
 H1327 H 0.94166 0.24135 0.31706
 H1328 H 0.90291 0.22268 0.33550
 C1329 C 0.30771 0.30770 0.59973
 C1330 C 0.31899 0.28628 0.58840
 C1331 C 0.30840 0.27565 0.56632
 C1332 C 0.32332 0.32330 0.64515
 C1333 C 0.27565 0.30838 0.56632
 C1334 C 0.28629 0.31897 0.58841
 C1335 C 0.31666 0.31664 0.62412
 C1336 C 0.28628 0.28627 0.55533
 H1337 H 0.33549 0.27731 0.59709
 H1338 H 0.31704 0.25864 0.55834
 H1339 H 0.25864 0.31702 0.55836
 H1340 H 0.27731 0.33546 0.59711
 C1341 C 0.30771 0.80772 0.09970
 C1342 C 0.28628 0.81898 0.08838
 C1343 C 0.27565 0.80839 0.06630
 C1344 C 0.32332 0.82333 0.14512
 C1345 C 0.30839 0.77566 0.06630
 C1346 C 0.31898 0.78630 0.08838
 C1347 C 0.31665 0.81667 0.12410
 C1348 C 0.28628 0.78628 0.05530
 H1349 H 0.27731 0.83548 0.09707
 H1350 H 0.25863 0.81703 0.05833
 H1351 H 0.31704 0.75865 0.05833
 H1352 H 0.33549 0.77733 0.09707
 C1353 C 0.80771 0.30774 0.09975
 C1354 C 0.81899 0.28632 0.08843
 C1355 C 0.80840 0.27568 0.06634
 C1356 C 0.82332 0.32335 0.14517
 C1357 C 0.77566 0.30841 0.06634
 C1358 C 0.78629 0.31901 0.08843
 C1359 C 0.81666 0.31669 0.12415
 C1360 C 0.78629 0.28631 0.05535
 H1361 H 0.83549 0.27735 0.09712
 H1362 H 0.81705 0.25867 0.05837
 H1363 H 0.75864 0.31705 0.05837
 H1364 H 0.77731 0.33550 0.09712
 C1365 C 0.80771 0.80773 0.59973
 C1366 C 0.78629 0.81900 0.58841
 C1367 C 0.77566 0.80841 0.56632
 C1368 C 0.82332 0.82334 0.64515
 C1369 C 0.80840 0.77568 0.56633
 C1370 C 0.81899 0.78631 0.58841
 C1371 C 0.81666 0.81668 0.62413
 C1372 C 0.78629 0.78630 0.55533
 H1373 H 0.77732 0.83550 0.59710
 H1374 H 0.75864 0.81705 0.55836
 H1375 H 0.81704 0.75866 0.55836
 H1376 H 0.83549 0.77734 0.59711
 C1377 C 0.30772 0.69228 0.40025
 C1378 C 0.28630 0.68101 0.41157
 C1379 C 0.27566 0.69160 0.43366
 C1380 C 0.32332 0.67667 0.35483
 C1381 C 0.30840 0.72433 0.43366
 C1382 C 0.31900 0.71370 0.41158
 C1383 C 0.31666 0.68333 0.37585
 C1384 C 0.28629 0.71370 0.44466
 H1385 H 0.27732 0.66451 0.40288
 H1386 H 0.25865 0.68296 0.44163
 H1387 H 0.31705 0.74134 0.44163
 H1388 H 0.33549 0.72267 0.40288
 C1389 C 0.30771 0.19226 0.90028
 C1390 C 0.31899 0.21368 0.91160
 C1391 C 0.30840 0.22432 0.93368
 C1392 C 0.32332 0.17665 0.85486
 C1393 C 0.27566 0.19159 0.93369
 C1394 C 0.28629 0.18099 0.91160
 C1395 C 0.31666 0.18331 0.87588
 C1396 C 0.28629 0.21369 0.94468
 H1397 H 0.33549 0.22265 0.90290
 H1398 H 0.31704 0.24133 0.94165
 H1399 H 0.25864 0.18295 0.94166
 H1400 H 0.27731 0.16449 0.90291
 C1401 C 0.80771 0.69229 0.90027
 C1402 C 0.81899 0.71371 0.91160
 C1403 C 0.80839 0.72434 0.93368
 C1404 C 0.82332 0.67668 0.85486
 C1405 C 0.77565 0.69161 0.93368
 C1406 C 0.78628 0.68102 0.91159
 C1407 C 0.81666 0.68334 0.87588
 C1408 C 0.78628 0.71372 0.94467
 H1409 H 0.83549 0.72267 0.90290
 H1410 H 0.81704 0.74135 0.94165
 H1411 H 0.75863 0.68298 0.94165
 H1412 H 0.77731 0.66453 0.90290
 C1413 C 0.80771 0.19230 0.40029
 C1414 C 0.78628 0.18103 0.41161
 C1415 C 0.77565 0.19162 0.43369
 C1416 C 0.82332 0.17669 0.35487
 C1417 C 0.80839 0.22435 0.43369
 C1418 C 0.81898 0.21372 0.41161
 C1419 C 0.81666 0.18335 0.37589
 C1420 C 0.78628 0.21373 0.44469
 H1421 H 0.77731 0.16453 0.40291
 H1422 H 0.75864 0.18298 0.44166
 H1423 H 0.81704 0.24136 0.44166
 H1424 H 0.83549 0.22269 0.40292
 C1425 C 0.69228 0.30774 0.40030
 C1426 C 0.71371 0.31901 0.41162
 C1427 C 0.72434 0.30841 0.43370
 C1428 C 0.67667 0.32335 0.35488
 C1429 C 0.69160 0.27569 0.43370
 C1430 C 0.68100 0.28632 0.41161
 C1431 C 0.68333 0.31669 0.37590
 C1432 C 0.71371 0.28631 0.44469
 H1433 H 0.72268 0.33551 0.40292
 H1434 H 0.74136 0.31705 0.44167
 H1435 H 0.68295 0.25867 0.44167
 H1436 H 0.66450 0.27736 0.40292
 C1437 C 0.69228 0.80772 0.90027
 C1438 C 0.68100 0.78631 0.91159
 C1439 C 0.69159 0.77567 0.93368
 C1440 C 0.67667 0.82333 0.85485
 C1441 C 0.72434 0.80840 0.93368
 C1442 C 0.71370 0.81899 0.91159
 C1443 C 0.68333 0.81667 0.87587
 C1444 C 0.71371 0.78630 0.94467
 H1445 H 0.66450 0.77734 0.90290
 H1446 H 0.68295 0.75866 0.94165
 H1447 H 0.74135 0.81704 0.94164
 H1448 H 0.72268 0.83549 0.90289
 C1449 C 0.19229 0.30771 0.90027
 C1450 C 0.21372 0.31898 0.91160
 C1451 C 0.22435 0.30839 0.93368
 C1452 C 0.17669 0.32332 0.85486
 C1453 C 0.19161 0.27565 0.93368
 C1454 C 0.18102 0.28629 0.91159
 C1455 C 0.18335 0.31666 0.87588
 C1456 C 0.21372 0.28628 0.94468
 H1457 H 0.22269 0.33548 0.90290
 H1458 H 0.24137 0.31703 0.94165
 H1459 H 0.18297 0.25864 0.94165
 H1460 H 0.16452 0.27732 0.90290
 C1461 C 0.19230 0.80772 0.40026
 C1462 C 0.21372 0.81898 0.41158
 C1463 C 0.22435 0.80839 0.43367
 C1464 C 0.17669 0.82332 0.35484
 C1465 C 0.19161 0.77566 0.43367
 C1466 C 0.18102 0.78629 0.41158
 C1467 C 0.18335 0.81666 0.37586
 C1468 C 0.21372 0.78628 0.44466
 H1469 H 0.22269 0.83548 0.40289
 H1470 H 0.24137 0.81703 0.44164
 H1471 H 0.18297 0.75865 0.44164
 H1472 H 0.16452 0.77733 0.40289
 C1473 C 0.69230 0.69228 0.59972
 C1474 C 0.68102 0.71370 0.58841
 C1475 C 0.69161 0.72434 0.56632
 C1476 C 0.67669 0.67667 0.64514
 C1477 C 0.72435 0.69161 0.56631
 C1478 C 0.71372 0.68101 0.58840
 C1479 C 0.68335 0.68333 0.62412
 C1480 C 0.71372 0.71372 0.55533
 H1481 H 0.66452 0.72267 0.59710
 H1482 H 0.68297 0.74135 0.55836
 H1483 H 0.74137 0.68297 0.55834
 H1484 H 0.72269 0.66451 0.59709
 C1485 C 0.69229 0.19230 0.09975
 C1486 C 0.71372 0.18103 0.08843
 C1487 C 0.72435 0.19162 0.06634
 C1488 C 0.67669 0.17669 0.14517
 C1489 C 0.69161 0.22435 0.06634
 C1490 C 0.68102 0.21372 0.08843
 C1491 C 0.68335 0.18335 0.12415
 C1492 C 0.71372 0.21373 0.05535
 H1493 H 0.72269 0.16453 0.09712
 H1494 H 0.74137 0.18298 0.05837
 H1495 H 0.68296 0.24136 0.05837
 H1496 H 0.66452 0.22269 0.09712
 C1497 C 0.19228 0.69227 0.09971
 C1498 C 0.21370 0.68100 0.08839
 C1499 C 0.22434 0.69159 0.06630
 C1500 C 0.17667 0.67667 0.14513
 C1501 C 0.19160 0.72432 0.06630
 C1502 C 0.18100 0.71369 0.08839
 C1503 C 0.18333 0.68333 0.12411
 C1504 C 0.21371 0.71370 0.05531
 H1505 H 0.22268 0.66451 0.09708
 H1506 H 0.24135 0.68295 0.05833
 H1507 H 0.18295 0.74134 0.05833
 H1508 H 0.16450 0.72266 0.09708
 C1509 C 0.19228 0.19227 0.59972
 C1510 C 0.18100 0.21368 0.58840
 C1511 C 0.19160 0.22432 0.56631
 C1512 C 0.17667 0.17666 0.64514
 C1513 C 0.22434 0.19159 0.56632
 C1514 C 0.21371 0.18100 0.58841
 C1515 C 0.18333 0.18332 0.62412
 C1516 C 0.21371 0.21370 0.55532
 H1517 H 0.16450 0.22265 0.59709
 H1518 H 0.18295 0.24133 0.55834
 H1519 H 0.24136 0.18295 0.55835
 H1520 H 0.22268 0.16450 0.59710
   
