data_POSCAR
  _audit_creation_date              2014-09-24
  _audit_creation_method            'ToBaCCo'
  _symmetry_space_group_name_H-M    'P1'
  _symmetry_Int_Tables_number       1
  _symmetry_cell_setting            triclinic
  loop_
  _symmetry_equiv_pos_as_xyz
 x,y,z
_cell_length_a 45.0189
_cell_length_b 44.9639
_cell_length_c 44.9927
_cell_angle_alpha 89.950000
_cell_angle_beta 89.893100
_cell_angle_gamma 90.203500
loop_
  _atom_site_label
  _atom_site_type_symbol
  _atom_site_fract_x
  _atom_site_fract_y
  _atom_site_fract_z
C1 C 0.13578 -0.04168 0.25626
 C2 C 0.12278 -0.01414 0.26224
 C3 C 0.11111 -0.00841 0.29045
 C4 C 0.11212 -0.03001 0.31298
 C5 C 0.12472 -0.05789 0.30638
 C6 C 0.13844 -0.06344 0.27865
 C7 C 0.12221 0.00915 0.23918
 C8 C 0.10936 0.00356 0.21146
 C9 C 0.10745 0.02619 0.18983
 C10 C 0.12256 0.05324 0.19534
 C11 C 0.13715 0.05854 0.22252
 C12 C 0.13507 0.03687 0.24492
 H13 H 0.14431 -0.04577 0.23411
 H14 H 0.10028 0.01270 0.29439
 H15 H 0.10037 -0.01839 0.20724
 H16 H 0.14432 0.04103 0.26672
 H17 H 0.12304 -0.07554 0.32256
 H18 H 0.12297 0.07029 0.17843
 C19 C 0.36631 -0.03950 0.74572
 C20 C 0.37760 -0.01115 0.73939
 C21 C 0.38986 -0.00529 0.71139
 C22 C 0.39181 -0.02773 0.68978
 C23 C 0.37872 -0.05557 0.69594
 C24 C 0.36694 -0.06217 0.72424
 C25 C 0.37742 0.01227 0.76232
 C26 C 0.38972 0.00666 0.79028
 C27 C 0.39177 0.02925 0.81186
 C28 C 0.37801 0.05676 0.80572
 C29 C 0.36609 0.06304 0.77745
 C30 C 0.36580 0.04036 0.75600
 H31 H 0.35599 -0.04343 0.76714
 H32 H 0.39835 0.01680 0.70672
 H33 H 0.39823 -0.01537 0.79485
 H34 H 0.35549 0.04408 0.73459
 H35 H 0.37692 -0.07181 0.67840
 H36 H 0.37580 0.07300 0.82321
 C37 C 0.86219 0.46630 0.24373
 C38 C 0.87508 0.49403 0.23769
 C39 C 0.88651 0.49994 0.20935
 C40 C 0.88544 0.47835 0.18685
 C41 C 0.87319 0.45029 0.19361
 C42 C 0.85991 0.44454 0.22140
 C43 C 0.87664 0.51709 0.26093
 C44 C 0.88916 0.51081 0.28864
 C45 C 0.89191 0.53307 0.31055
 C46 C 0.87877 0.56103 0.30489
 C47 C 0.86653 0.56786 0.27690
 C48 C 0.86557 0.54549 0.25518
 H49 H 0.85389 0.46195 0.26590
 H50 H 0.89738 0.52109 0.20534
 H51 H 0.89711 0.48848 0.29283
 H52 H 0.85488 0.54966 0.23404
 H53 H 0.87451 0.43257 0.17748
 H54 H 0.87710 0.57710 0.32259
 C55 C 0.63644 0.46016 0.75710
 C56 C 0.62500 0.48825 0.76361
 C57 C 0.61420 0.49423 0.79213
 C58 C 0.61535 0.47257 0.81463
 C59 C 0.62626 0.44412 0.80744
 C60 C 0.63653 0.43750 0.77859
 C61 C 0.62460 0.51151 0.74051
 C62 C 0.61219 0.50561 0.71264
 C63 C 0.61062 0.52796 0.69084
 C64 C 0.62508 0.55525 0.69630
 C65 C 0.63929 0.56089 0.72361
 C66 C 0.63717 0.53939 0.74619
 H67 H 0.64600 0.45630 0.73534
 H68 H 0.60418 0.51566 0.79643
 H69 H 0.60321 0.48367 0.70837
 H70 H 0.64620 0.54378 0.76803
 H71 H 0.62672 0.42712 0.82433
 H72 H 0.62526 0.57212 0.67922
 C73 C 0.24458 0.13435 1.03861
 C74 C 0.23813 0.12123 1.01121
 C75 C 0.20998 0.10899 1.00622
 C76 C 0.18866 0.10758 1.02915
 C77 C 0.19499 0.12263 1.05598
 C78 C 0.22254 0.13692 1.06061
 C79 C 0.26087 0.12021 0.98760
 C80 C 0.28862 0.10745 0.99312
 C81 C 0.31019 0.10531 0.97047
 C82 C 0.30418 0.11927 0.94299
 C83 C 0.27609 0.13156 0.93682
 C84 C 0.25468 0.13198 0.95954
 H85 H 0.26667 0.14312 1.04227
 H86 H 0.20522 0.09971 0.98453
 H87 H 0.29311 0.09896 1.01519
 H88 H 0.23350 0.14273 0.95596
 H89 H 0.17843 0.12353 1.07332
 H90 H 0.32170 0.12143 0.92673
 C91 C 0.75565 0.36159 1.03919
 C92 C 0.76118 0.37408 1.01120
 C93 C 0.78907 0.38636 1.00495
 C94 C 0.81165 0.38657 1.02642
 C95 C 0.80546 0.37456 1.05472
 C96 C 0.77819 0.36012 1.06088
 C97 C 0.73789 0.37399 0.98814
 C98 C 0.70976 0.38561 0.99422
 C99 C 0.68703 0.38498 0.97269
 C100 C 0.69406 0.37396 0.94409
 C101 C 0.72256 0.36283 0.93738
 C102 C 0.74398 0.36231 0.96001
 H103 H 0.73370 0.35275 1.04370
 H104 H 0.79269 0.39681 0.98354
 H105 H 0.70606 0.39585 1.01568
 H106 H 0.76546 0.35227 0.95604
 H107 H 0.82163 0.37702 1.07224
 H108 H 0.67734 0.37405 0.92697
 C109 C 0.25466 0.86428 0.53994
 C110 C 0.25990 0.87584 0.51158
 C111 C 0.28715 0.88948 0.50514
 C112 C 0.30912 0.89266 0.52724
 C113 C 0.30406 0.87889 0.55508
 C114 C 0.27647 0.86575 0.56211
 C115 C 0.23653 0.87364 0.48878
 C116 C 0.20821 0.88489 0.49475
 C117 C 0.18542 0.88296 0.47358
 C118 C 0.19183 0.86993 0.44587
 C119 C 0.21969 0.85688 0.44011
 C120 C 0.24229 0.86006 0.46142
 H121 H 0.23381 0.85296 0.54427
 H122 H 0.29091 0.89772 0.48282
 H123 H 0.20442 0.89624 0.51563
 H124 H 0.26440 0.85175 0.45699
 H125 H 0.32196 0.87766 0.57094
 H126 H 0.17547 0.87076 0.42840
 C127 C 0.74677 0.63683 0.53723
 C128 C 0.73990 0.62402 0.50978
 C129 C 0.71175 0.61169 0.50514
 C130 C 0.69096 0.60999 0.52841
 C131 C 0.69768 0.62433 0.55543
 C132 C 0.72518 0.63879 0.55975
 C133 C 0.76239 0.62276 0.48599
 C134 C 0.79004 0.60985 0.49146
 C135 C 0.81124 0.60685 0.46860
 C136 C 0.80507 0.62018 0.44084
 C137 C 0.77712 0.63282 0.43481
 C138 C 0.75599 0.63400 0.45779
 H139 H 0.76891 0.64559 0.54061
 H140 H 0.70658 0.60235 0.48358
 H141 H 0.79470 0.60170 0.51362
 H142 H 0.73488 0.64490 0.45424
 H143 H 0.68144 0.62460 0.57310
 H144 H 0.82237 0.62170 0.42428
 C145 C -0.03908 0.25810 0.13439
 C146 C -0.01141 0.26365 0.12137
 C147 C -0.00507 0.29178 0.10963
 C148 C -0.02621 0.31478 0.11067
 C149 C -0.05436 0.30833 0.12307
 C150 C -0.06040 0.28073 0.13666
 C151 C 0.01138 0.24019 0.12085
 C152 C 0.00510 0.21232 0.10853
 C153 C 0.02714 0.19017 0.10696
 C154 C 0.05425 0.19539 0.12191
 C155 C 0.06023 0.22278 0.13592
 C156 C 0.03920 0.24561 0.13346
 H157 H -0.04369 0.23613 0.14315
 H158 H 0.01612 0.29517 0.09869
 H159 H -0.01695 0.20840 0.09981
 H160 H 0.04389 0.26747 0.14243
 H161 H -0.07198 0.32448 0.12154
 H162 H 0.07081 0.17810 0.12246
 C163 C -0.04408 0.74413 0.36558
 C164 C -0.01571 0.73811 0.37660
 C165 C -0.00974 0.71031 0.38917
 C166 C -0.03221 0.68864 0.39180
 C167 C -0.06021 0.69456 0.37910
 C168 C -0.06677 0.72262 0.36678
 C169 C 0.00766 0.76114 0.37488
 C170 C 0.00246 0.78937 0.38680
 C171 C 0.02425 0.81178 0.38542
 C172 C 0.05181 0.80501 0.37219
 C173 C 0.05688 0.77721 0.35860
 C174 C 0.03492 0.75503 0.36127
 H175 H -0.04801 0.76532 0.35486
 H176 H 0.01247 0.70583 0.39716
 H177 H -0.01833 0.79338 0.39823
 H178 H 0.03878 0.73293 0.35259
 H179 H -0.07653 0.67697 0.37793
 H180 H 0.06967 0.82104 0.37321
 C181 C 0.46119 0.24503 0.86615
 C182 C 0.48929 0.23862 0.87762
 C183 C 0.49464 0.21084 0.89052
 C184 C 0.47176 0.18951 0.89313
 C185 C 0.44426 0.19570 0.87945
 C186 C 0.43825 0.22383 0.86709
 C187 C 0.51294 0.26138 0.87666
 C188 C 0.50746 0.28975 0.88801
 C189 C 0.52921 0.31230 0.88675
 C190 C 0.55746 0.30493 0.87526
 C191 C 0.56369 0.27612 0.86456
 C192 C 0.54082 0.25477 0.86471
 H193 H 0.45769 0.26626 0.85536
 H194 H 0.51670 0.20619 0.89882
 H195 H 0.48623 0.29385 0.89859
 H196 H 0.54431 0.23307 0.85492
 H197 H 0.42779 0.17830 0.87766
 H198 H 0.57479 0.32153 0.87471
 C199 C 0.46189 0.75520 0.63444
 C200 C 0.48989 0.76172 0.62256
 C201 C 0.49508 0.78936 0.60924
 C202 C 0.47224 0.81043 0.60688
 C203 C 0.44473 0.80416 0.62054
 C204 C 0.43885 0.77615 0.63338
 C205 C 0.51361 0.73926 0.62338
 C206 C 0.50847 0.71102 0.61149
 C207 C 0.53148 0.69011 0.60950
 C208 C 0.55885 0.69681 0.62314
 C209 C 0.56369 0.72439 0.63729
 C210 C 0.54138 0.74612 0.63551
 H211 H 0.45850 0.73406 0.64553
 H212 H 0.51693 0.79418 0.60031
 H213 H 0.48666 0.70584 0.60275
 H214 H 0.54512 0.76829 0.64408
 H215 H 0.42824 0.82144 0.62202
 H216 H 0.57634 0.68047 0.62317
 C217 C 0.86568 1.04153 0.75613
 C218 C 0.87854 1.01407 0.76241
 C219 C 0.89132 1.00896 0.79017
 C220 C 0.89263 1.03141 0.81186
 C221 C 0.87818 1.05873 0.80563
 C222 C 0.86405 1.06380 0.77793
 C223 C 0.87814 0.99008 0.74026
 C224 C 0.89119 0.99427 0.71241
 C225 C 0.89247 0.97100 0.69151
 C226 C 0.87890 0.94348 0.69921
 C227 C 0.86593 0.93887 0.72753
 C228 C 0.86540 0.96272 0.74759
 H229 H 0.85578 1.04513 0.73449
 H230 H 0.90099 0.98735 0.79464
 H231 H 0.90100 1.01573 0.70724
 H232 H 0.85434 0.96084 0.76881
 H233 H 0.87774 1.07584 0.82217
 H234 H 0.87773 0.92545 0.68352
 C235 C 0.35937 0.53778 0.25905
 C236 C 0.37265 0.51041 0.26503
 C237 C 0.38597 0.50536 0.29251
 C238 C 0.38756 0.52799 0.31391
 C239 C 0.37300 0.55525 0.30802
 C240 C 0.35821 0.56017 0.28070
 C241 C 0.37356 0.48747 0.24188
 C242 C 0.38716 0.49389 0.21475
 C243 C 0.38738 0.47299 0.19164
 C244 C 0.37445 0.44473 0.19689
 C245 C 0.36007 0.43808 0.22415
 C246 C 0.36055 0.45966 0.24670
 H247 H 0.34931 0.54142 0.23748
 H248 H 0.39626 0.48401 0.29676
 H249 H 0.39827 0.51510 0.21242
 H250 H 0.35012 0.45506 0.26796
 H251 H 0.37326 0.57250 0.32444
 H252 H 0.37615 0.42815 0.17969
 C253 C 0.63776 1.04366 0.24367
 C254 C 0.62438 1.01620 0.23811
 C255 C 0.61115 1.01069 0.21064
 C256 C 0.60999 1.03277 0.18867
 C257 C 0.62467 1.06012 0.19409
 C258 C 0.63917 1.06563 0.22148
 C259 C 0.62429 0.99278 0.26086
 C260 C 0.61050 0.99754 0.28822
 C261 C 0.60827 0.97464 0.30948
 C262 C 0.62196 0.94700 0.30282
 C263 C 0.63550 0.94176 0.27490
 C264 C 0.63694 0.96527 0.25444
 H265 H 0.64803 1.04758 0.26510
 H266 H 0.60097 0.98918 0.20664
 H267 H 0.60081 1.01914 0.29267
 H268 H 0.64856 0.96285 0.23355
 H269 H 0.62490 1.07680 0.17708
 H270 H 0.62286 0.92947 0.31913
 C271 C 0.13872 0.53898 0.74186
 C272 C 0.12542 0.51145 0.73641
 C273 C 0.11195 0.50589 0.70905
 C274 C 0.11046 0.52807 0.68713
 C275 C 0.12515 0.55551 0.69251
 C276 C 0.13991 0.56100 0.71978
 C277 C 0.12524 0.48856 0.75970
 C278 C 0.11189 0.49452 0.78706
 C279 C 0.11054 0.47277 0.80938
 C280 C 0.12537 0.44548 0.80451
 C281 C 0.14009 0.43957 0.77730
 C282 C 0.13864 0.46106 0.75467
 H283 H 0.14898 0.54296 0.76328
 H284 H 0.10168 0.48439 0.70519
 H285 H 0.10176 0.51605 0.79067
 H286 H 0.14893 0.45677 0.73330
 H287 H 0.12510 0.57239 0.67568
 H288 H 0.12552 0.42907 0.82179
 C289 C 0.74514 0.86347 -0.04103
 C290 C 0.73895 0.87668 -0.01367
 C291 C 0.71146 0.89006 -0.00878
 C292 C 0.69005 0.89142 -0.03131
 C293 C 0.69615 0.87701 -0.05859
 C294 C 0.72348 0.86221 -0.06343
 C295 C 0.76101 0.87627 0.01031
 C296 C 0.78871 0.88962 0.00623
 C297 C 0.80946 0.89123 0.02955
 C298 C 0.80178 0.87763 0.05706
 C299 C 0.77354 0.86432 0.06155
 C300 C 0.75369 0.86344 0.03757
 H301 H 0.76660 0.85316 -0.04448
 H302 H 0.70697 0.90013 0.01265
 H303 H 0.79386 0.89946 -0.01520
 H304 H 0.73258 0.85209 0.03933
 H305 H 0.67980 0.87728 -0.07587
 H306 H 0.81742 0.87673 0.07512
 C307 C 0.24394 0.36210 0.45984
 C308 C 0.23934 0.37572 0.48728
 C309 C 0.21217 0.38907 0.49366
 C310 C 0.18862 0.38801 0.47337
 C311 C 0.19361 0.37450 0.44543
 C312 C 0.22106 0.36069 0.43867
 C313 C 0.26210 0.37466 0.51054
 C314 C 0.28983 0.38784 0.50620
 C315 C 0.31066 0.38912 0.52939
 C316 C 0.30323 0.37568 0.55693
 C317 C 0.27503 0.36250 0.56164
 C318 C 0.25502 0.36168 0.53783
 H319 H 0.26519 0.35175 0.45530
 H320 H 0.20998 0.40064 0.51458
 H321 H 0.29490 0.39793 0.48489
 H322 H 0.23385 0.35048 0.53980
 H323 H 0.17600 0.37519 0.42928
 H324 H 0.31904 0.37500 0.57485
 C325 C 0.25669 0.63531 -0.04013
 C326 C 0.26204 0.62234 -0.01243
 C327 C 0.28940 0.60894 -0.00673
 C328 C 0.31137 0.60724 -0.02888
 C329 C 0.30605 0.62159 -0.05639
 C330 C 0.27887 0.63628 -0.06208
 C331 C 0.23870 0.62247 0.01050
 C332 C 0.21102 0.60976 0.00444
 C333 C 0.18866 0.60836 0.02629
 C334 C 0.19393 0.62314 0.05366
 C335 C 0.22145 0.63726 0.05968
 C336 C 0.24404 0.63545 0.03819
 H337 H 0.23533 0.64554 -0.04429
 H338 H 0.29325 0.59892 0.01484
 H339 H 0.20725 0.60007 -0.01730
 H340 H 0.26565 0.64516 0.04261
 H341 H 0.32289 0.62135 -0.07322
 H342 H 0.17673 0.62378 0.07013
 C343 C 0.75809 0.13777 0.46072
 C344 C 0.76240 0.12389 0.48810
 C345 C 0.78946 0.11016 0.49436
 C346 C 0.81222 0.10882 0.47290
 C347 C 0.80810 0.12473 0.44596
 C348 C 0.78109 0.13946 0.43969
 C349 C 0.73862 0.12416 0.51053
 C350 C 0.71096 0.11149 0.50420
 C351 C 0.68840 0.11052 0.52579
 C352 C 0.69339 0.12520 0.55321
 C353 C 0.72099 0.13906 0.55952
 C354 C 0.74368 0.13726 0.53818
 H355 H 0.73695 0.14832 0.45618
 H356 H 0.79246 0.09987 0.51595
 H357 H 0.70734 0.10152 0.48258
 H358 H 0.76525 0.14702 0.54275
 H359 H 0.82594 0.12583 0.43017
 H360 H 0.67588 0.12592 0.56935
 C361 C 1.04318 0.75745 0.86471
 C362 C 1.01564 0.76325 0.87757
 C363 C 1.01026 0.79073 0.89086
 C364 C 1.03251 0.81270 0.89244
 C365 C 1.05998 0.80693 0.87804
 C366 C 1.06528 0.77949 0.86350
 C367 C 0.99189 0.74083 0.87659
 C368 C 0.99619 0.71282 0.88914
 C369 C 0.97313 0.69161 0.88995
 C370 C 0.94586 0.69900 0.87597
 C371 C 0.94120 0.72745 0.86330
 C372 C 0.96476 0.74794 0.86356
 H373 H 1.04698 0.73597 0.85449
 H374 H 0.98861 0.79478 0.90064
 H375 H 1.01756 0.70780 0.89902
 H376 H 0.96291 0.76932 0.85284
 H377 H 1.07709 0.82353 0.87799
 H378 H 0.92813 0.68294 0.87421
 C379 C 0.53954 0.25556 0.36275
 C380 C 0.51213 0.26254 0.37536
 C381 C 0.50792 0.29001 0.38903
 C382 C 0.53106 0.31090 0.39077
 C383 C 0.55868 0.30373 0.37757
 C384 C 0.56340 0.27569 0.36409
 C385 C 0.48788 0.24066 0.37501
 C386 C 0.49216 0.21268 0.38761
 C387 C 0.46901 0.19179 0.38894
 C388 C 0.44135 0.19939 0.37608
 C389 C 0.43665 0.22782 0.36333
 C390 C 0.46046 0.24807 0.36275
 H391 H 0.54153 0.23463 0.35116
 H392 H 0.48651 0.29499 0.39888
 H393 H 0.51363 0.20736 0.39708
 H394 H 0.45855 0.26942 0.35196
 H395 H 0.57658 0.31969 0.37723
 H396 H 0.42342 0.18345 0.37540
 C397 C 1.04293 0.24374 0.63579
 C398 C 1.01547 0.23755 0.62285
 C399 C 1.01027 0.20985 0.60985
 C400 C 1.03264 0.18815 0.60840
 C401 C 1.05995 0.19431 0.62289
 C402 C 1.06507 0.22187 0.63734
 C403 C 0.99155 0.25970 0.62344
 C404 C 0.99541 0.28730 0.60975
 C405 C 0.97205 0.30802 0.60835
 C406 C 0.94492 0.30055 0.62277
 C407 C 0.94063 0.27246 0.63641
 C408 C 0.96450 0.25250 0.63685
 H409 H 1.04661 0.26536 0.64581
 H410 H 0.98866 0.20545 0.60014
 H411 H 1.01666 0.29238 0.59949
 H412 H 0.96288 0.23145 0.64829
 H413 H 1.07709 0.17785 0.62310
 H414 H 0.92698 0.31629 0.62408
 C415 C 0.53695 0.74307 0.13853
 C416 C 0.50931 0.73836 0.12535
 C417 C 0.50265 0.71094 0.11246
 C418 C 0.52306 0.68743 0.11322
 C419 C 0.55116 0.69258 0.12640
 C420 C 0.55818 0.72028 0.13977
 C421 C 0.48666 0.76181 0.12586
 C422 C 0.49233 0.78944 0.11285
 C423 C 0.47021 0.81136 0.11169
 C424 C 0.44281 0.80568 0.12621
 C425 C 0.43726 0.77820 0.14061
 C426 C 0.45914 0.75614 0.13911
 H427 H 0.54172 0.76448 0.14854
 H428 H 0.48159 0.70870 0.10122
 H429 H 0.51378 0.79350 0.10260
 H430 H 0.45502 0.73451 0.14899
 H431 H 0.56724 0.67490 0.12581
 H432 H 0.42590 0.82237 0.12622
 O433 O -0.02364 0.99073 0.91696
 O434 O 0.02473 1.01301 0.91586
 O435 O -0.00808 0.91625 0.97842
 O436 O 0.00305 0.90957 1.02562
 O437 O -0.08527 0.97730 0.99249
 O438 O -0.08779 1.02765 1.01003
 O439 O 0.06339 0.99615 1.05964
 O440 O 0.06802 0.95062 1.03368
 O441 O 0.05840 1.06361 0.99776
 O442 O 0.02636 1.06853 0.94906
 O443 O -0.00341 1.05913 1.06452
 O444 O -0.05038 1.02910 1.07246
 O445 O 0.02206 1.01363 1.08298
 O446 O -0.02867 0.99317 1.08859
 O447 O 0.01303 1.08271 1.02285
 O448 O -0.00591 1.08888 0.97404
 O449 O 0.08120 1.02261 1.01644
 O450 O 0.08418 0.97506 0.98842
 O451 O -0.06465 1.00718 0.94159
 O452 O -0.07454 1.04759 0.97153
 O453 O -0.06076 0.93578 1.00730
 O454 O -0.02992 0.92937 1.05086
 O455 O 0.00467 0.94115 0.93617
 O456 O 0.04935 0.96956 0.93282
 Zr457 Zr 0.00851 0.98527 0.95064
 O458 O 0.03720 1.01191 0.97650
 Zr459 Zr -0.01631 0.94958 1.01055
 O460 O 0.01073 0.97526 1.03895
 Zr461 Zr -0.05153 1.00950 0.98634
 O462 O -0.02551 1.03820 1.01277
 Zr463 Zr 0.04858 0.98950 1.01579
 O464 O 0.02299 0.96137 0.98836
 Zr465 Zr 0.01407 1.04963 0.99045
 O466 O -0.01396 1.02434 0.96268
 Zr467 Zr -0.01125 1.01489 1.05056
 O468 O -0.03986 0.98714 1.02551
 O469 O -0.03029 0.97101 0.97208
 O470 O 0.02738 1.02826 1.02909
 C471 C -0.05027 1.00113 0.91766
 C472 C 0.00056 0.91714 0.95108
 C473 C -0.08466 0.95028 1.00196
 C474 C 0.04960 1.00633 1.08253
 C475 C 0.08103 1.05003 1.00867
 C476 C 0.00633 1.08217 1.05053
 H477 H 0.05514 1.01719 0.96488
 H478 H -0.03716 1.05601 1.01808
 H479 H -0.04300 0.95828 0.95937
 H480 H 0.01633 0.96342 1.05659
 H481 H 0.06492 0.93463 1.01887
 H482 H 0.02181 0.91507 1.03560
 H483 H -0.02561 1.09067 0.98361
 H484 H -0.05980 1.05989 0.96070
 H485 H 0.10269 0.97623 1.00030
 H486 H 0.04612 0.96192 0.91240
 H487 H -0.05700 1.04775 1.06291
 H488 H -0.08794 1.01797 1.02980
 H489 H 0.02288 1.00248 0.89658
 H490 H 0.04710 1.06266 0.94479
 H491 H -0.04420 0.94313 1.06030
 H492 H -0.01653 0.97525 1.09225
 O493 O 0.47715 0.49026 0.41765
 O494 O 0.52547 0.51328 0.41599
 O495 O 0.49387 0.41608 0.47860
 O496 O 0.50572 0.40930 0.52569
 O497 O 0.41677 0.47682 0.49348
 O498 O 0.41415 0.52699 0.51149
 O499 O 0.56595 0.49619 0.55934
 O500 O 0.57055 0.45061 0.53318
 O501 O 0.55998 0.56360 0.49743
 O502 O 0.52740 0.56890 0.44952
 O503 O 0.49881 0.55861 0.56512
 O504 O 0.45206 0.52820 0.57339
 O505 O 0.52471 0.51334 0.58310
 O506 O 0.47430 0.49249 0.58929
 O507 O 0.51567 0.58219 0.52362
 O508 O 0.49498 0.58858 0.47493
 O509 O 0.58315 0.52279 0.51607
 O510 O 0.58616 0.47529 0.48786
 O511 O 0.43644 0.50640 0.44301
 O512 O 0.42728 0.54733 0.47282
 O513 O 0.44158 0.43529 0.50779
 O514 O 0.47277 0.42887 0.55130
 O515 O 0.50621 0.44113 0.43632
 O516 O 0.55062 0.46986 0.43232
 Zr517 Zr 0.50997 0.48524 0.45084
 O518 O 0.53881 0.51190 0.47648
 Zr519 Zr 0.48599 0.44925 0.51094
 O520 O 0.51321 0.47494 0.53914
 Zr521 Zr 0.45029 0.50915 0.48737
 O522 O 0.47641 0.53786 0.51361
 Zr523 Zr 0.55074 0.48945 0.51560
 O524 O 0.52499 0.46128 0.48833
 Zr525 Zr 0.51565 0.54948 0.49082
 O526 O 0.48746 0.52417 0.46323
 Zr527 Zr 0.49110 0.51439 0.55109
 O528 O 0.46238 0.48660 0.52630
 O529 O 0.47155 0.47080 0.47276
 O530 O 0.52942 0.52800 0.52923
 C531 C 0.45036 0.50020 0.41887
 C532 C 0.50213 0.41707 0.45116
 C533 C 0.41760 0.44970 0.50258
 C534 C 0.55230 0.50629 0.58236
 C535 C 0.58273 0.55019 0.50825
 C536 C 0.50891 0.58158 0.55128
 H537 H 0.55660 0.51729 0.46469
 H538 H 0.46475 0.55560 0.51916
 H539 H 0.45878 0.45800 0.46017
 H540 H 0.51906 0.46308 0.55668
 H541 H 0.56734 0.43464 0.51837
 H542 H 0.52449 0.41487 0.53562
 H543 H 0.47587 0.59072 0.48558
 H544 H 0.44191 0.55950 0.46170
 H545 H 0.60477 0.47657 0.49955
 H546 H 0.54710 0.46238 0.41189
 H547 H 0.44530 0.54694 0.56410
 H548 H 0.41413 0.51709 0.53115
 H549 H 0.52321 0.50290 0.39668
 H550 H 0.54781 0.56251 0.44454
 H551 H 0.45833 0.44244 0.56079
 H552 H 0.48645 0.47451 0.59261
 O553 O 0.43896 -0.06326 0.49412
 O554 O 0.46616 -0.06831 0.44834
 O555 O 0.50375 -0.05826 0.56126
 O556 O 0.54629 -0.03157 0.56913
 O557 O 0.43487 0.00559 0.55782
 O558 O 0.42805 0.05090 0.52806
 O559 O 0.58234 0.02382 0.48642
 O560 O 0.58620 -0.02166 0.50677
 O561 O 0.52110 0.01120 0.41372
 O562 O 0.46779 -0.00849 0.41255
 O563 O 0.50752 0.08494 0.47403
 O564 O 0.48924 0.08621 0.52776
 O565 O 0.55765 0.06512 0.50201
 O566 O 0.53017 0.07721 0.54212
 O567 O 0.49179 0.06025 0.43291
 O568 O 0.45176 0.03167 0.42231
 O569 O 0.56273 -0.00308 0.43835
 O570 O 0.56535 -0.04940 0.46674
 O571 O 0.41546 -0.02149 0.51045
 O572 O 0.41063 0.02802 0.49113
 O573 O 0.47640 -0.01152 0.58088
 O574 O 0.52543 0.01110 0.58388
 O575 O 0.48582 -0.08172 0.52015
 O576 O 0.50918 -0.08413 0.47091
 Zr577 Zr 0.48315 -0.04854 0.48756
 O578 O 0.51044 -0.02297 0.45941
 Zr579 Zr 0.50869 -0.01362 0.54748
 O580 O 0.53612 0.01385 0.52152
 Zr581 Zr 0.44856 0.01138 0.51315
 O582 O 0.47366 0.03913 0.48502
 Zr583 Zr 0.54833 -0.00825 0.48239
 O584 O 0.52296 -0.03721 0.50978
 Zr585 Zr 0.48828 0.01593 0.44715
 O586 O 0.45942 -0.01081 0.47335
 Zr587 Zr 0.51302 0.05158 0.50668
 O588 O 0.48641 0.02605 0.53638
 O589 O 0.47025 -0.02693 0.52614
 O590 O 0.52724 0.03057 0.46777
 C591 C 0.41584 -0.04919 0.50340
 C592 C 0.49392 -0.08137 0.54748
 C593 C 0.44895 -0.00397 0.58079
 C594 C 0.58161 0.05094 0.49563
 C595 C 0.54837 0.00264 0.41445
 C596 C 0.49792 0.08421 0.44711
 H597 H 0.51583 -0.03541 0.44212
 H598 H 0.46109 0.05633 0.47979
 H599 H 0.45770 -0.03970 0.53894
 H600 H 0.55361 0.01939 0.53357
 H601 H 0.58037 -0.03973 0.51796
 H602 H 0.56400 -0.02066 0.56190
 H603 H 0.43760 0.04026 0.43675
 H604 H 0.40909 0.01709 0.47210
 H605 H 0.58576 -0.04603 0.45906
 H606 H 0.49787 -0.10296 0.47345
 H607 H 0.47210 0.09121 0.51498
 H608 H 0.44034 0.05863 0.54459
 H609 H 0.44986 -0.05548 0.44114
 H610 H 0.48096 -0.02530 0.40741
 H611 H 0.51288 0.02903 0.58582
 H612 H 0.53846 0.06302 0.55668
 O613 O -0.06055 0.43784 0.99425
 O614 O -0.03319 0.43287 0.94803
 O615 O 0.00357 0.44224 1.06126
 O616 O 0.04635 0.46848 1.06955
 O617 O -0.06447 0.50687 1.05767
 O618 O -0.07093 0.55214 1.02778
 O619 O 0.08337 0.52370 0.98704
 O620 O 0.08674 0.47816 1.00748
 O621 O 0.02280 0.51228 0.91425
 O622 O -0.03101 0.48939 0.91486
 O623 O 0.00939 0.58531 0.97408
 O624 O -0.00935 0.58712 1.02767
 O625 O 0.05898 0.56515 1.00272
 O626 O 0.03110 0.57752 1.04271
 O627 O -0.00671 0.56098 0.93282
 O628 O -0.04583 0.53492 0.92225
 O629 O 0.06400 0.49710 0.93906
 O630 O 0.06566 0.45059 0.96725
 O631 O -0.08397 0.47962 1.01054
 O632 O -0.08843 0.52933 0.99097
 O633 O -0.02329 0.48945 1.08102
 O634 O 0.02595 0.51131 1.08424
 O635 O -0.01398 0.41898 1.01992
 O636 O 0.00937 0.41659 0.97079
 Zr637 Zr -0.01638 0.45236 0.98750
 O638 O 0.01129 0.47776 0.95954
 Zr639 Zr 0.00908 0.48689 1.04770
 O640 O 0.03691 0.51413 1.02197
 Zr641 Zr -0.05068 0.51240 1.01307
 O642 O -0.02512 0.53992 0.98517
 Zr643 Zr 0.04914 0.49194 0.98289
 O644 O 0.02336 0.46321 1.01006
 Zr645 Zr -0.01051 0.51680 0.94728
 O646 O -0.03984 0.49031 0.97326
 Zr647 Zr 0.01420 0.55206 1.00703
 O648 O -0.01283 0.52674 1.03653
 O649 O -0.02931 0.47394 1.02611
 O650 O 0.02843 0.53092 0.96826
 C651 C -0.08365 0.45190 1.00356
 C652 C -0.00619 0.41917 1.04735
 C653 C -0.05065 0.49732 1.08079
 C654 C 0.08282 0.55078 0.99633
 C655 C 0.04990 0.50323 0.91512
 C656 C -0.00015 0.58481 0.94711
 H657 H 0.01640 0.46545 0.94205
 H658 H -0.03748 0.55724 0.97983
 H659 H -0.04195 0.46128 1.03894
 H660 H 0.05438 0.51948 1.03413
 H661 H 0.08072 0.46003 1.01850
 H662 H 0.06423 0.47914 1.06236
 H663 H -0.06174 0.53967 0.93662
 H664 H -0.09048 0.51790 0.97228
 H665 H 0.08620 0.45369 0.95980
 H666 H -0.00210 0.39785 0.97319
 H667 H -0.02635 0.59220 1.01474
 H668 H -0.05859 0.55987 1.04426
 H669 H -0.05062 0.44466 0.94175
 H670 H -0.02213 0.49381 0.89516
 H671 H 0.01377 0.52952 1.08599
 H672 H 0.03974 0.56330 1.05704
 O673 O 0.00685 0.41327 0.52125
 O674 O -0.01689 0.41306 0.47313
 O675 O 0.08143 0.47299 0.50662
 O676 O 0.08864 0.51991 0.49228
 O677 O 0.02130 0.48863 0.58297
 O678 O -0.02899 0.50622 0.58602
 O679 O 0.00235 0.55692 0.43475
 O680 O 0.04793 0.53058 0.42972
 O681 O -0.06548 0.49613 0.43998
 O682 O -0.07110 0.44696 0.47164
 O683 O -0.05964 0.56202 0.50223
 O684 O -0.02921 0.56887 0.54924
 O685 O -0.01453 0.58000 0.47651
 O686 O 0.00672 0.58496 0.52703
 O687 O -0.08380 0.52092 0.48526
 O688 O -0.09092 0.47211 0.50447
 O689 O -0.02414 0.51411 0.41692
 O690 O 0.02290 0.48565 0.41336
 O691 O -0.00875 0.43789 0.56263
 O692 O -0.04930 0.46780 0.57262
 O693 O 0.06282 0.50300 0.55790
 O694 O 0.07064 0.54562 0.52759
 O695 O 0.05570 0.43193 0.49183
 O696 O 0.02696 0.42905 0.44787
 Zr697 Zr 0.01195 0.44708 0.48891
 O698 O -0.01415 0.47369 0.46057
 Zr699 Zr 0.04896 0.50622 0.51360
 O700 O 0.02365 0.53544 0.48717
 Zr701 Zr -0.01116 0.48269 0.54948
 O702 O -0.03954 0.50972 0.52386
 Zr703 Zr 0.00891 0.51282 0.44929
 O704 O 0.03654 0.48451 0.47434
 Zr705 Zr -0.05147 0.48793 0.48418
 O706 O -0.02667 0.45952 0.51193
 Zr707 Zr -0.01566 0.54733 0.50967
 O708 O 0.01185 0.52160 0.53770
 O709 O 0.02682 0.46806 0.52763
 O710 O -0.02945 0.52637 0.47102
 C711 C -0.00280 0.41395 0.54823
 C712 C 0.07997 0.44590 0.49726
 C713 C 0.04842 0.49784 0.58199
 C714 C -0.00770 0.57972 0.44880
 C715 C -0.05173 0.50706 0.41731
 C716 C -0.08278 0.54853 0.49215
 H717 H -0.01969 0.46234 0.44258
 H718 H -0.05720 0.51522 0.53569
 H719 H 0.03941 0.45516 0.54023
 H720 H 0.03564 0.55306 0.48160
 H721 H 0.06371 0.51555 0.43255
 H722 H 0.08293 0.53296 0.47557
 H723 H -0.09222 0.48130 0.52438
 H724 H -0.06150 0.45684 0.55795
 H725 H 0.02194 0.49776 0.39495
 H726 H 0.03355 0.40824 0.45094
 H727 H -0.04827 0.55990 0.55566
 H728 H -0.01908 0.52590 0.58625
 H729 H -0.00701 0.39348 0.47511
 H730 H -0.06564 0.44302 0.45070
 H731 H 0.05643 0.55628 0.54051
 H732 H 0.02425 0.58890 0.51431
 O733 O 0.52333 0.99124 0.08385
 O734 O 0.47475 1.01285 0.08521
 O735 O 0.50821 0.91636 0.02302
 O736 O 0.49544 0.90956 -0.02391
 O737 O 0.58444 0.97808 0.00794
 O738 O 0.58665 1.02853 -0.00985
 O739 O 0.43529 0.99571 -0.05830
 O740 O 0.43101 0.94993 -0.03234
 O741 O 0.44054 1.06308 0.00316
 O742 O 0.47270 1.06837 0.05175
 O743 O 0.50251 1.05904 -0.06371
 O744 O 0.54915 1.02901 -0.07185
 O745 O 0.47643 1.01389 -0.08169
 O746 O 0.52695 0.99317 -0.08787
 O747 O 0.48559 1.08243 -0.02224
 O748 O 0.50496 1.08893 0.02658
 O749 O 0.41765 1.02168 -0.01481
 O750 O 0.41508 0.97406 0.01310
 O751 O 0.56421 1.00765 0.05875
 O752 O 0.57371 1.04825 0.02887
 O753 O 0.55986 0.93637 -0.00665
 O754 O 0.52888 0.92928 -0.04967
 O755 O 0.49541 0.94129 0.06514
 O756 O 0.45033 0.96901 0.06854
 Zr757 Zr 0.49094 0.98527 0.05043
 O758 O 0.46201 1.01155 0.02464
 Zr759 Zr 0.51538 0.94965 -0.00949
 O760 O 0.48816 0.97505 -0.03786
 Zr761 Zr 0.55067 1.00999 0.01420
 O762 O 0.52443 1.03842 -0.01210
 Zr763 Zr 0.45042 0.98896 -0.01451
 O764 O 0.47622 0.96112 0.01293
 Zr765 Zr 0.48493 1.04950 0.01041
 O766 O 0.51323 1.02453 0.03808
 Zr767 Zr 0.51006 1.01484 -0.04968
 O768 O 0.53881 0.98737 -0.02476
 O769 O 0.52959 0.97137 0.02874
 O770 O 0.47151 1.02787 -0.02804
 C771 C 0.55003 1.00163 0.08283
 C772 C 0.49990 0.91726 0.05045
 C773 C 0.58376 0.95107 -0.00148
 C774 C 0.44891 1.00637 -0.08114
 C775 C 0.41785 1.04919 -0.00742
 C776 C 0.49253 1.08195 -0.04985
 H777 H 0.44412 1.01667 0.03635
 H778 H 0.53603 1.05632 -0.01755
 H779 H 0.54248 0.95882 0.04138
 H780 H 0.48247 0.96319 -0.05546
 H781 H 0.43424 0.93393 -0.01755
 H782 H 0.47728 0.91505 -0.03489
 H783 H 0.52449 1.09102 0.01668
 H784 H 0.55894 1.06052 0.03956
 H785 H 0.39649 0.97499 0.00135
 H786 H 0.45377 0.96140 0.08895
 H787 H 0.55596 1.04767 -0.06239
 H788 H 0.58699 1.01849 -0.02942
 H789 H 0.47684 1.00238 0.10450
 H790 H 0.45200 1.06231 0.05611
 H791 H 0.54247 0.94346 -0.05966
 H792 H 0.51448 0.97542 -0.09160
 O793 O 0.47535 0.50527 0.08569
 O794 O 0.52350 0.48092 0.08703
 O795 O 0.49169 0.57997 0.02730
 O796 O 0.50659 0.58780 -0.01918
 O797 O 0.41606 0.51910 0.00976
 O798 O 0.41380 0.46932 -0.00944
 O799 O 0.56610 0.50185 -0.05542
 O800 O 0.57035 0.54720 -0.02844
 O801 O 0.55935 0.43326 0.00391
 O802 O 0.52694 0.42699 0.05236
 O803 O 0.49946 0.43970 -0.06313
 O804 O 0.45230 0.46967 -0.07078
 O805 O 0.52491 0.48562 -0.07980
 O806 O 0.47456 0.50598 -0.08582
 O807 O 0.51446 0.41490 -0.02182
 O808 O 0.49449 0.40747 0.02665
 O809 O 0.58299 0.47497 -0.01230
 O810 O 0.58540 0.52194 0.01670
 O811 O 0.43529 0.48861 0.05966
 O812 O 0.42645 0.44818 0.02891
 O813 O 0.44107 0.56097 -0.00385
 O814 O 0.47279 0.56933 -0.04603
 O815 O 0.50575 0.55405 0.06839
 O816 O 0.54925 0.52507 0.07262
 Zr817 Zr 0.50889 0.51022 0.05299
 O818 O 0.53807 0.48445 0.02686
 Zr819 Zr 0.48563 0.54763 -0.00634
 O820 O 0.51309 0.52275 -0.03502
 Zr821 Zr 0.44961 0.48687 0.01540
 O822 O 0.47603 0.45895 -0.01125
 Zr823 Zr 0.55040 0.50792 -0.01163
 O824 O 0.52437 0.53522 0.01623
 Zr825 Zr 0.51507 0.44707 0.01149
 O826 O 0.48649 0.47147 0.03949
 Zr827 Zr 0.49111 0.48342 -0.04803
 O828 O 0.46219 0.51048 -0.02281
 O829 O 0.47075 0.52496 0.03110
 O830 O 0.52922 0.46956 -0.02628
 C831 C 0.44858 0.49508 0.08403
 C832 C 0.50050 0.57842 0.05453
 C833 C 0.41701 0.54634 0.00098
 C834 C 0.55258 0.49237 -0.07880
 C835 C 0.58239 0.44718 -0.00595
 C836 C 0.50872 0.41623 -0.04965
 H837 H 0.55574 0.47887 0.03863
 H838 H 0.46443 0.44126 -0.01727
 H839 H 0.45779 0.53741 0.04380
 H840 H 0.51909 0.53501 -0.05229
 H841 H 0.56699 0.56288 -0.01337
 H842 H 0.52433 0.58237 -0.03093
 H843 H 0.47481 0.40615 0.01701
 H844 H 0.44054 0.43640 0.04096
 H845 H 0.60416 0.52115 0.00515
 H846 H 0.54544 0.53134 0.09341
 H847 H 0.44588 0.45035 -0.06235
 H848 H 0.41403 0.47965 -0.02887
 H849 H 0.52064 0.49049 0.10667
 H850 H 0.54775 0.43258 0.05680
 H851 H 0.45915 0.55562 -0.05652
 H852 H 0.48667 0.52416 -0.08867
 O853 O -0.08417 0.02254 0.51240
 O854 O -0.08613 -0.02568 0.48943
 O855 O -0.02233 0.00675 0.58539
 O856 O 0.02452 -0.00602 0.59147
 O857 O -0.00788 0.08328 0.52391
 O858 O 0.00898 0.08595 0.47366
 O859 O 0.05705 -0.06640 0.50411
 O860 O 0.03173 -0.07107 0.55007
 O861 O -0.00462 -0.05995 0.43757
 O862 O -0.05311 -0.02800 0.43313
 O863 O 0.06255 0.00046 0.44184
 O864 O 0.07131 0.04749 0.47144
 O865 O 0.08090 -0.02509 0.48696
 O866 O 0.08721 0.02565 0.50746
 O867 O 0.02060 -0.01508 0.41844
 O868 O -0.02842 0.00506 0.41316
 O869 O 0.01314 -0.08364 0.47845
 O870 O -0.01423 -0.08632 0.52650
 O871 O -0.05922 0.06322 0.49516
 O872 O -0.02963 0.07254 0.45384
 O873 O 0.00745 0.05853 0.56514
 O874 O 0.05037 0.02672 0.57136
 O875 O -0.06475 -0.00645 0.56121
 O876 O -0.06912 -0.05092 0.53268
 Zr877 Zr -0.05090 -0.01017 0.51682
 O878 O -0.02572 -0.03897 0.48970
 Zr879 Zr 0.00965 0.01389 0.55164
 O880 O 0.03735 -0.01353 0.52568
 Zr881 Zr -0.01472 0.04960 0.49199
 O882 O 0.01125 0.02348 0.46307
 Zr883 Zr 0.01354 -0.05106 0.51161
 O884 O -0.01316 -0.02521 0.54019
 Zr885 Zr -0.01170 -0.01576 0.45184
 O886 O -0.03899 0.01233 0.47756
 Zr887 Zr 0.04894 0.00861 0.48604
 O888 O 0.02450 0.03745 0.51392
 O889 O -0.02878 0.02837 0.53067
 O890 O 0.02683 -0.02969 0.47284
 C891 C -0.08323 0.04923 0.50200
 C892 C -0.04970 -0.00179 0.58498
 C893 C 0.00207 0.08253 0.55069
 C894 C 0.08011 -0.05278 0.49389
 C895 C 0.00574 -0.08299 0.45095
 C896 C 0.04844 -0.00903 0.41887
 H897 H -0.03761 -0.05676 0.48451
 H898 H 0.01664 0.03517 0.44523
 H899 H -0.04112 0.04123 0.54358
 H900 H 0.05501 -0.01944 0.53730
 H901 H 0.01724 -0.06786 0.56634
 H902 H 0.03420 -0.02489 0.58584
 H903 H -0.01789 0.02426 0.41083
 H904 H -0.04137 0.05802 0.44219
 H905 H -0.00272 -0.10504 0.52512
 H906 H -0.08943 -0.04745 0.54051
 H907 H 0.06188 0.05415 0.45276
 H908 H 0.02907 0.08548 0.48255
 H909 H -0.10527 -0.02360 0.50017
 H910 H -0.05759 -0.04866 0.43928
 H911 H 0.05984 0.04111 0.55763
 H912 H 0.09105 0.01314 0.52513
 O913 O 0.66954 0.24321 0.27751
 O914 O 0.66687 0.26721 0.22940
 O915 O 0.72932 0.16949 0.25892
 O916 O 0.77604 0.16263 0.24558
 O917 O 0.74613 0.23021 0.33567
 O918 O 0.76512 0.28032 0.33777
 O919 O 0.80888 0.24910 0.18454
 O920 O 0.78230 0.20370 0.18071
 O921 O 0.74836 0.31702 0.19221
 O922 O 0.70061 0.32211 0.22586
 O923 O 0.81671 0.31187 0.25190
 O924 O 0.82593 0.28134 0.29813
 O925 O 0.83364 0.26653 0.22508
 O926 O 0.84102 0.24566 0.27527
 O927 O 0.77486 0.33577 0.23697
 O928 O 0.72682 0.34221 0.25748
 O929 O 0.76522 0.27575 0.16846
 O930 O 0.73675 0.22833 0.16647
 O931 O 0.69580 0.26020 0.31725
 O932 O 0.72634 0.30097 0.32584
 O933 O 0.75961 0.18869 0.31029
 O934 O 0.80254 0.18223 0.27818
 O935 O 0.68709 0.19476 0.24752
 O936 O 0.68189 0.22364 0.20350
 Zr937 Zr 0.70177 0.23884 0.24359
 O938 O 0.72691 0.26531 0.21399
 Zr939 Zr 0.76208 0.20262 0.26586
 O940 O 0.78979 0.22818 0.23789
 Zr941 Zr 0.73986 0.26266 0.30230
 O942 O 0.76561 0.29122 0.27541
 Zr943 Zr 0.76550 0.24265 0.20100
 O944 O 0.73863 0.21466 0.22750
 Zr945 Zr 0.74209 0.30291 0.23673
 O946 O 0.71499 0.27778 0.26579
 Zr947 Zr 0.80256 0.26764 0.25968
 O948 O 0.77828 0.23996 0.28909
 O949 O 0.72449 0.22436 0.28136
 O950 O 0.77997 0.28126 0.22190
 C951 C 0.67138 0.25339 0.30421
 C952 C 0.70174 0.17063 0.25130
 C953 C 0.75481 0.20299 0.33448
 C954 C 0.83224 0.25926 0.19754
 C955 C 0.75815 0.30331 0.16908
 C956 C 0.80268 0.33504 0.24284
 H957 H 0.71475 0.27071 0.19652
 H958 H 0.77151 0.30896 0.28698
 H959 H 0.71210 0.21159 0.29442
 H960 H 0.80710 0.21626 0.23155
 H961 H 0.76753 0.18775 0.18447
 H962 H 0.78603 0.16821 0.22680
 H963 H 0.73644 0.34342 0.27718
 H964 H 0.71391 0.31265 0.31198
 H965 H 0.74793 0.22946 0.14748
 H966 H 0.66148 0.21638 0.20769
 H967 H 0.81669 0.29988 0.30544
 H968 H 0.78451 0.27001 0.33740
 H969 H 0.64752 0.25701 0.23235
 H970 H 0.69576 0.31647 0.20517
 H971 H 0.81232 0.19575 0.29251
 H972 H 0.84378 0.22756 0.26311
 O973 O 0.75584 0.68409 0.69107
 O974 O 0.80080 0.67797 0.71986
 O975 O 0.68694 0.69187 0.75347
 O976 O 0.67835 0.71923 0.79540
 O977 O 0.69505 0.75470 0.68383
 O978 O 0.72640 0.79931 0.67773
 O979 O 0.76174 0.77206 0.83347
 O980 O 0.73928 0.72724 0.83715
 O981 O 0.83550 0.75816 0.77556
 O982 O 0.83645 0.73303 0.72305
 O983 O 0.77954 0.83177 0.75917
 O984 O 0.72684 0.83553 0.73843
 O985 O 0.74856 0.81360 0.80770
 O986 O 0.70963 0.82677 0.77832
 O987 O 0.81995 0.80572 0.74382
 O988 O 0.83050 0.77798 0.70530
 O989 O 0.80906 0.74331 0.81603
 O990 O 0.77920 0.69794 0.81781
 O991 O 0.74203 0.72616 0.66643
 O992 O 0.76301 0.77522 0.66150
 O993 O 0.66988 0.73920 0.72497
 O994 O 0.66593 0.76211 0.77360
 O995 O 0.72791 0.66700 0.73733
 O996 O 0.77615 0.66318 0.76207
 Zr997 Zr 0.76162 0.69910 0.73516
 O998 O 0.78962 0.72393 0.76314
 Zr999 Zr 0.70201 0.73612 0.75831
 O1000 O 0.72789 0.76294 0.78628
 Zr1001 Zr 0.73930 0.75943 0.69898
 O1002 O 0.76751 0.78636 0.72470
 Zr1003 Zr 0.76561 0.73951 0.80003
 O1004 O 0.73824 0.71135 0.77405
 Zr1005 Zr 0.80397 0.76210 0.74083
 O1006 O 0.77791 0.73613 0.71131
 Zr1007 Zr 0.74498 0.79991 0.76315
 O1008 O 0.71532 0.77520 0.73589
 O1009 O 0.72427 0.72179 0.72078
 O1010 O 0.78233 0.77756 0.77888
 C1011 C 0.74793 0.69823 0.66748
 C1012 C 0.70035 0.66825 0.74453
 C1013 C 0.67126 0.74616 0.69735
 C1014 C 0.75368 0.79949 0.83202
 C1015 C 0.83354 0.74946 0.80279
 C1016 C 0.80671 0.83009 0.75024
 H1017 H 0.80653 0.71122 0.76905
 H1018 H 0.77389 0.80331 0.71220
 H1019 H 0.71146 0.70929 0.70803
 H1020 H 0.71543 0.76904 0.80330
 H1021 H 0.72788 0.70934 0.83120
 H1022 H 0.68536 0.72999 0.81323
 H1023 H 0.81668 0.78462 0.68963
 H1024 H 0.78144 0.76335 0.66022
 H1025 H 0.78588 0.70108 0.83858
 H1026 H 0.77333 0.64435 0.75091
 H1027 H 0.74029 0.83947 0.72146
 H1028 H 0.70977 0.80759 0.68949
 H1029 H 0.80825 0.68948 0.70260
 H1030 H 0.85602 0.73803 0.73184
 H1031 H 0.66520 0.78011 0.76093
 H1032 H 0.69468 0.81320 0.78711
 O1033 O 0.31610 0.19172 0.74735
 O1034 O 0.32190 0.22041 0.70206
 O1035 O 0.31020 0.25422 0.81610
 O1036 O 0.28353 0.29659 0.82505
 O1037 O 0.24636 0.18538 0.80951
 O1038 O 0.20137 0.17954 0.77898
 O1039 O 0.22986 0.33508 0.74220
 O1040 O 0.27484 0.33841 0.76428
 O1041 O 0.24229 0.27690 0.66874
 O1042 O 0.26642 0.22400 0.66758
 O1043 O 0.16897 0.26068 0.72652
 O1044 O 0.16616 0.24063 0.77959
 O1045 O 0.18825 0.30972 0.75629
 O1046 O 0.17543 0.28095 0.79589
 O1047 O 0.19436 0.24592 0.68537
 O1048 O 0.22116 0.20708 0.67440
 O1049 O 0.25811 0.31726 0.69470
 O1050 O 0.30359 0.31876 0.72397
 O1051 O 0.27409 0.16752 0.76227
 O1052 O 0.22475 0.16306 0.74201
 O1053 O 0.26299 0.22621 0.83430
 O1054 O 0.24058 0.27504 0.83855
 O1055 O 0.33427 0.23795 0.77469
 O1056 O 0.33762 0.26253 0.72623
 Zr1057 Zr 0.30163 0.23602 0.74164
 O1058 O 0.27676 0.26425 0.71404
 Zr1059 Zr 0.26582 0.25959 0.80195
 O1060 O 0.23898 0.28784 0.77648
 Zr1061 Zr 0.24127 0.20045 0.76528
 O1062 O 0.21429 0.22643 0.73754
 Zr1063 Zr 0.26199 0.30134 0.73822
 O1064 O 0.29021 0.27507 0.76514
 Zr1065 Zr 0.23814 0.24232 0.70051
 O1066 O 0.26411 0.21252 0.72614
 Zr1067 Zr 0.20152 0.26505 0.76021
 O1068 O 0.22632 0.23755 0.78948
 O1069 O 0.27934 0.22189 0.77950
 O1070 O 0.22349 0.28054 0.72232
 C1071 C 0.30191 0.16824 0.75580
 C1072 C 0.33353 0.24504 0.80230
 C1073 C 0.25554 0.19867 0.83313
 C1074 C 0.20250 0.33390 0.75057
 C1075 C 0.25154 0.30399 0.67039
 C1076 C 0.17021 0.25187 0.69930
 H1077 H 0.28932 0.26999 0.69688
 H1078 H 0.19716 0.21400 0.73155
 H1079 H 0.29185 0.20903 0.79212
 H1080 H 0.23324 0.30500 0.78891
 H1081 H 0.29279 0.33235 0.77541
 H1082 H 0.27266 0.31448 0.81843
 H1083 H 0.21561 0.19103 0.68837
 H1084 H 0.23655 0.16147 0.72348
 H1085 H 0.30064 0.33958 0.71731
 H1086 H 0.35631 0.25115 0.72866
 H1087 H 0.16155 0.22378 0.76622
 H1088 H 0.19351 0.19130 0.79582
 H1089 H 0.31014 0.20318 0.69499
 H1090 H 0.26132 0.23280 0.64804
 H1091 H 0.22241 0.26260 0.83955
 H1092 H 0.18934 0.28946 0.81061
 O1093 O 0.18780 0.74394 0.31365
 O1094 O 0.21522 0.69843 0.31883
 O1095 O 0.25186 0.81196 0.30895
 O1096 O 0.29439 0.82060 0.28249
 O1097 O 0.18323 0.80744 0.24475
 O1098 O 0.17696 0.77764 0.19942
 O1099 O 0.33153 0.73829 0.22746
 O1100 O 0.33508 0.75865 0.27284
 O1101 O 0.27079 0.66458 0.24012
 O1102 O 0.21730 0.66272 0.25886
 O1103 O 0.25793 0.72481 0.16591
 O1104 O 0.23834 0.77792 0.16423
 O1105 O 0.30688 0.75381 0.18611
 O1106 O 0.27867 0.79373 0.17398
 O1107 O 0.24226 0.68349 0.19052
 O1108 O 0.20176 0.67233 0.21841
 O1109 O 0.31220 0.68983 0.25441
 O1110 O 0.31442 0.71846 0.30063
 O1111 O 0.16426 0.76000 0.27179
 O1112 O 0.15988 0.74019 0.22234
 O1113 O 0.22441 0.83117 0.26215
 O1114 O 0.27354 0.83499 0.23969
 O1115 O 0.23454 0.77044 0.33238
 O1116 O 0.25805 0.72141 0.33486
 Zr1117 Zr 0.23206 0.73790 0.29916
 O1118 O 0.25970 0.71018 0.27379
 Zr1119 Zr 0.25712 0.79829 0.26436
 O1120 O 0.28496 0.77276 0.23715
 Zr1121 Zr 0.19744 0.76299 0.23906
 O1122 O 0.22299 0.73531 0.21143
 Zr1123 Zr 0.29745 0.73375 0.25933
 O1124 O 0.27169 0.76077 0.28806
 Zr1125 Zr 0.23785 0.69764 0.23474
 O1126 O 0.20863 0.72334 0.26133
 Zr1127 Zr 0.26218 0.75763 0.19928
 O1128 O 0.23510 0.78687 0.22460
 O1129 O 0.21888 0.77629 0.27745
 O1130 O 0.27668 0.71888 0.22041
 C1131 C 0.16465 0.75301 0.29951
 C1132 C 0.24225 0.79795 0.33204
 C1133 C 0.19698 0.83061 0.25450
 C1134 C 0.33081 0.74762 0.20039
 C1135 C 0.29798 0.66568 0.24892
 C1136 C 0.24883 0.69766 0.16661
 H1137 H 0.26514 0.69296 0.28631
 H1138 H 0.21069 0.72983 0.19408
 H1139 H 0.20621 0.78891 0.29018
 H1140 H 0.30236 0.78510 0.23175
 H1141 H 0.32906 0.76989 0.29077
 H1142 H 0.31223 0.81362 0.27175
 H1143 H 0.18762 0.68656 0.20955
 H1144 H 0.15855 0.72117 0.23337
 H1145 H 0.33487 0.71098 0.29739
 H1146 H 0.24667 0.72378 0.35362
 H1147 H 0.22143 0.76476 0.15920
 H1148 H 0.18925 0.79423 0.19166
 H1149 H 0.19899 0.69107 0.30593
 H1150 H 0.23018 0.65794 0.27599
 H1151 H 0.26091 0.83684 0.22179
 H1152 H 0.28729 0.80808 0.18823
 O1153 O 0.31700 0.80830 0.75348
 O1154 O 0.32234 0.77973 0.79900
 O1155 O 0.31093 0.74509 0.68523
 O1156 O 0.28403 0.70253 0.67694
 O1157 O 0.24790 0.81410 0.69080
 O1158 O 0.20270 0.82046 0.72104
 O1159 O 0.22907 0.66520 0.75896
 O1160 O 0.27445 0.66139 0.73841
 O1161 O 0.24239 0.72478 0.83292
 O1162 O 0.26647 0.77805 0.83280
 O1163 O 0.16908 0.74023 0.77453
 O1164 O 0.16697 0.75989 0.72112
 O1165 O 0.18782 0.69071 0.74475
 O1166 O 0.17548 0.71920 0.70550
 O1167 O 0.19444 0.75516 0.81560
 O1168 O 0.22122 0.79395 0.82626
 O1169 O 0.25651 0.68352 0.80749
 O1170 O 0.30261 0.68136 0.77862
 O1171 O 0.27531 0.83242 0.73816
 O1172 O 0.22589 0.83733 0.75782
 O1173 O 0.26411 0.77286 0.66656
 O1174 O 0.24142 0.72393 0.66288
 O1175 O 0.33492 0.76181 0.72648
 O1176 O 0.33770 0.73745 0.77505
 Zr1177 Zr 0.30209 0.76403 0.75946
 O1178 O 0.27666 0.73624 0.78733
 Zr1179 Zr 0.26645 0.73991 0.69938
 O1180 O 0.23906 0.71217 0.72510
 Zr1181 Zr 0.24226 0.79958 0.73518
 O1182 O 0.21480 0.77412 0.76319
 Zr1183 Zr 0.26147 0.69888 0.76368
 O1184 O 0.29028 0.72469 0.73652
 Zr1185 Zr 0.23826 0.75860 0.80045
 O1186 O 0.26473 0.78791 0.77452
 Zr1187 Zr 0.20172 0.73530 0.74094
 O1188 O 0.22708 0.76225 0.71138
 O1189 O 0.28022 0.77784 0.72138
 O1190 O 0.22315 0.72013 0.77916
 C1191 C 0.30304 0.83176 0.74486
 C1192 C 0.33426 0.75447 0.69893
 C1193 C 0.25693 0.80044 0.66734
 C1194 C 0.20185 0.66644 0.75019
 C1195 C 0.25080 0.69748 0.83169
 C1196 C 0.17030 0.74928 0.80167
 H1197 H 0.28907 0.73066 0.80459
 H1198 H 0.19780 0.78671 0.76900
 H1199 H 0.29292 0.79057 0.70868
 H1200 H 0.23323 0.69499 0.71270
 H1201 H 0.29247 0.66733 0.72720
 H1202 H 0.27300 0.68476 0.68386
 H1203 H 0.21630 0.81007 0.81218
 H1204 H 0.23734 0.83900 0.77652
 H1205 H 0.29919 0.66079 0.78590
 H1206 H 0.35654 0.74873 0.77261
 H1207 H 0.16222 0.77668 0.73449
 H1208 H 0.19490 0.80858 0.70423
 H1209 H 0.31101 0.79731 0.80575
 H1210 H 0.26206 0.76904 0.85244
 H1211 H 0.22349 0.73654 0.66142
 H1212 H 0.18940 0.71125 0.69048
 O1213 O 0.25285 0.18365 0.19146
 O1214 O 0.29779 0.17844 0.22042
 O1215 O 0.18348 0.18958 0.25344
 O1216 O 0.17401 0.21648 0.29547
 O1217 O 0.19055 0.25335 0.18435
 O1218 O 0.22126 0.29825 0.17830
 O1219 O 0.25628 0.27109 0.33424
 O1220 O 0.23450 0.22584 0.33764
 O1221 O 0.33038 0.25912 0.27675
 O1222 O 0.33219 0.23459 0.22401
 O1223 O 0.27238 0.33173 0.25986
 O1224 O 0.21962 0.33397 0.23947
 O1225 O 0.24233 0.31250 0.30867
 O1226 O 0.20286 0.32468 0.27952
 O1227 O 0.31381 0.30680 0.24539
 O1228 O 0.32526 0.27963 0.20673
 O1229 O 0.30410 0.24326 0.31695
 O1230 O 0.27513 0.19740 0.31837
 O1231 O 0.23805 0.22543 0.16692
 O1232 O 0.25835 0.27488 0.16234
 O1233 O 0.16554 0.23647 0.22505
 O1234 O 0.16076 0.25924 0.27375
 O1235 O 0.22502 0.16568 0.23733
 O1236 O 0.27327 0.16296 0.26252
 Zr1237 Zr 0.25807 0.19860 0.23563
 O1238 O 0.28535 0.22400 0.26385
 Zr1239 Zr 0.19751 0.23412 0.25862
 O1240 O 0.22259 0.26136 0.28692
 Zr1241 Zr 0.23466 0.25858 0.19961
 O1242 O 0.26197 0.28607 0.22568
 Zr1243 Zr 0.26079 0.23877 0.30071
 O1244 O 0.23420 0.21010 0.27445
 Zr1245 Zr 0.29894 0.26270 0.24192
 O1246 O 0.27371 0.23616 0.21212
 Zr1247 Zr 0.23887 0.29886 0.26407
 O1248 O 0.21004 0.27359 0.23646
 O1249 O 0.22032 0.22051 0.22114
 O1250 O 0.27669 0.27736 0.27990
 C1251 C 0.24458 0.19763 0.16789
 C1252 C 0.19738 0.16630 0.24437
 C1253 C 0.16690 0.24404 0.19759
 C1254 C 0.24784 0.29841 0.33292
 C1255 C 0.32850 0.25003 0.30386
 C1256 C 0.29967 0.33084 0.25123
 H1257 H 0.30251 0.21165 0.26977
 H1258 H 0.26798 0.30321 0.21324
 H1259 H 0.20783 0.20784 0.20825
 H1260 H 0.20997 0.26709 0.30396
 H1261 H 0.22351 0.20773 0.33157
 H1262 H 0.18058 0.22738 0.31338
 H1263 H 0.31139 0.28520 0.19069
 H1264 H 0.27690 0.26318 0.16102
 H1265 H 0.28156 0.20055 0.33921
 H1266 H 0.27089 0.14410 0.25131
 H1267 H 0.23311 0.33862 0.22269
 H1268 H 0.20447 0.30630 0.19000
 H1269 H 0.30514 0.19029 0.20336
 H1270 H 0.35160 0.23999 0.23290
 H1271 H 0.15974 0.27727 0.26113
 H1272 H 0.18827 0.31069 0.28823
 O1273 O 0.72177 0.83540 0.24253
 O1274 O 0.76935 0.83712 0.26780
 O1275 O 0.73950 0.77774 0.16791
 O1276 O 0.75434 0.73147 0.15986
 O1277 O 0.66312 0.75842 0.22766
 O1278 O 0.66012 0.73947 0.27714
 O1279 O 0.81368 0.69570 0.24682
 O1280 O 0.81824 0.72288 0.20163
 O1281 O 0.80511 0.75384 0.31556
 O1282 O 0.77243 0.80181 0.32178
 O1283 O 0.74607 0.68608 0.30745
 O1284 O 0.69957 0.67788 0.27668
 O1285 O 0.77262 0.67030 0.26215
 O1286 O 0.72247 0.66379 0.24045
 O1287 O 0.76041 0.72733 0.33286
 O1288 O 0.73950 0.77566 0.34022
 O1289 O 0.82959 0.73870 0.27407
 O1290 O 0.83229 0.76827 0.22728
 O1291 O 0.68169 0.80891 0.25874
 O1292 O 0.67260 0.77740 0.29885
 O1293 O 0.68863 0.74555 0.18601
 O1294 O 0.72121 0.70388 0.17796
 O1295 O 0.75302 0.81879 0.19427
 O1296 O 0.79597 0.82330 0.22404
 Zr1297 Zr 0.75550 0.80311 0.23804
 O1298 O 0.78446 0.77720 0.26419
 Zr1299 Zr 0.73312 0.74376 0.19994
 O1300 O 0.76065 0.71530 0.22495
 Zr1301 Zr 0.69620 0.76461 0.26029
 O1302 O 0.72243 0.73786 0.28830
 Zr1303 Zr 0.79748 0.73916 0.24059
 O1304 O 0.77154 0.76676 0.21304
 Zr1305 Zr 0.76104 0.76108 0.30104
 O1306 O 0.73270 0.78900 0.27636
 Zr1307 Zr 0.73827 0.70152 0.26378
 O1308 O 0.70941 0.72669 0.23665
 O1309 O 0.71767 0.78088 0.22260
 O1310 O 0.77589 0.72378 0.27843
 C1311 C 0.69498 0.83347 0.25251
 C1312 C 0.74826 0.80504 0.16975
 C1313 C 0.66437 0.74975 0.20043
 C1314 C 0.80042 0.67199 0.25599
 C1315 C 0.82845 0.74453 0.30193
 C1316 C 0.75501 0.69940 0.33113
 H1317 H 0.80194 0.78917 0.27015
 H1318 H 0.71063 0.73145 0.30572
 H1319 H 0.70476 0.79350 0.21004
 H1320 H 0.76706 0.69825 0.21267
 H1321 H 0.81501 0.73801 0.18596
 H1322 H 0.77268 0.72083 0.16540
 H1323 H 0.72020 0.76515 0.34146
 H1324 H 0.68646 0.78963 0.31080
 H1325 H 0.85119 0.75706 0.22838
 H1326 H 0.79216 0.84412 0.21785
 H1327 H 0.69266 0.68613 0.29586
 H1328 H 0.66105 0.71979 0.26736
 H1329 H 0.76667 0.85681 0.25824
 H1330 H 0.79320 0.80667 0.31638
 H1331 H 0.70737 0.69316 0.19133
 H1332 H 0.73534 0.66096 0.22284
 O1333 O 0.69237 0.24539 0.81381
 O1334 O 0.72062 0.20006 0.81832
 O1335 O 0.75501 0.31421 0.80809
 O1336 O 0.79794 0.32243 0.78128
 O1337 O 0.68602 0.30912 0.74555
 O1338 O 0.67905 0.27949 0.70001
 O1339 O 0.83408 0.24060 0.72388
 O1340 O 0.83874 0.26186 0.76930
 O1341 O 0.77459 0.16702 0.73841
 O1342 O 0.72152 0.16472 0.75857
 O1343 O 0.75877 0.22735 0.66462
 O1344 O 0.73908 0.28055 0.66378
 O1345 O 0.80815 0.25626 0.68343
 O1346 O 0.77972 0.29632 0.67231
 O1347 O 0.74466 0.18570 0.68963
 O1348 O 0.70502 0.17404 0.71842
 O1349 O 0.81606 0.19266 0.75184
 O1350 O 0.81938 0.22126 0.79776
 O1351 O 0.66794 0.26121 0.77245
 O1352 O 0.66247 0.24212 0.72313
 O1353 O 0.72755 0.33322 0.76145
 O1354 O 0.77608 0.33752 0.73877
 O1355 O 0.73892 0.27237 0.83170
 O1356 O 0.76341 0.22376 0.83362
 Zr1357 Zr 0.73647 0.23984 0.79846
 O1358 O 0.76386 0.21249 0.77240
 Zr1359 Zr 0.76033 0.30050 0.76340
 O1360 O 0.78768 0.27535 0.73526
 Zr1361 Zr 0.70038 0.26481 0.73919
 O1362 O 0.72538 0.23732 0.71099
 Zr1363 Zr 0.80105 0.23643 0.75700
 O1364 O 0.77571 0.26303 0.78657
 Zr1365 Zr 0.74118 0.19977 0.73391
 O1366 O 0.71232 0.22519 0.76113
 Zr1367 Zr 0.76399 0.26010 0.69797
 O1368 O 0.73748 0.28908 0.72408
 O1369 O 0.72251 0.27816 0.77713
 O1370 O 0.77937 0.22145 0.71863
 C1371 C 0.66885 0.25424 0.80013
 C1372 C 0.74588 0.30007 0.83134
 C1373 C 0.69990 0.33248 0.75469
 C1374 C 0.83249 0.24971 0.69675
 C1375 C 0.80197 0.16839 0.74661
 C1376 C 0.75011 0.20005 0.66556
 H1377 H 0.76977 0.19533 0.78477
 H1378 H 0.71265 0.23178 0.69398
 H1379 H 0.70989 0.29062 0.79005
 H1380 H 0.80491 0.28773 0.72940
 H1381 H 0.83328 0.27273 0.78764
 H1382 H 0.81545 0.31640 0.76945
 H1383 H 0.69042 0.18814 0.71011
 H1384 H 0.66165 0.22283 0.73373
 H1385 H 0.83991 0.21427 0.79396
 H1386 H 0.75232 0.22583 0.85258
 H1387 H 0.72220 0.26725 0.65900
 H1388 H 0.69074 0.29657 0.69238
 H1389 H 0.70397 0.19272 0.80596
 H1390 H 0.73500 0.15987 0.77522
 H1391 H 0.76383 0.33874 0.72056
 H1392 H 0.78954 0.31025 0.68619
 C1393 C 0.09217 1.02109 1.16199
 C1394 C 0.07830 1.04901 1.14760
 C1395 C 0.06515 1.04380 1.12095
 C1396 C 0.06617 1.01112 1.11106
 C1397 C 0.09929 1.00303 1.11131
 C1398 C 0.11282 1.00823 1.13789
 C1399 C 0.06570 0.99910 1.16365
 C1400 C 0.05250 0.99371 1.13706
 H1401 H 0.07719 1.07073 1.15803
 H1402 H 0.05392 1.06119 1.10859
 H1403 H 0.11118 0.99414 1.09231
 H1404 H 0.13622 1.00371 1.14144
 H1405 H 0.05665 0.98995 1.18408
 H1406 H 0.03311 0.97943 1.13498
 C1407 C 0.59483 0.52214 0.66147
 C1408 C 0.61559 0.50903 0.63763
 C1409 C 0.60212 0.50342 0.61107
 C1410 C 0.56898 0.51142 0.61072
 C1411 C 0.55537 0.49429 0.63694
 C1412 C 0.56855 0.50007 0.66344
 C1413 C 0.58105 0.54982 0.64675
 C1414 C 0.56789 0.54423 0.62019
 H1415 H 0.63899 0.50466 0.64134
 H1416 H 0.61404 0.49431 0.59219
 H1417 H 0.53615 0.47976 0.63503
 H1418 H 0.55976 0.49098 0.68400
 H1419 H 0.58021 0.57172 0.65681
 H1420 H 0.55675 0.56147 0.60754
 C1421 C 0.40709 -0.02141 0.66015
 C1422 C 0.38655 -0.00624 0.63742
 C1423 C 0.39982 0.00003 0.61083
 C1424 C 0.43257 -0.00937 0.60937
 C1425 C 0.44735 0.00590 0.63602
 C1426 C 0.43434 -0.00061 0.66252
 C1427 C 0.41938 -0.04893 0.64385
 C1428 C 0.43235 -0.04261 0.61732
 H1429 H 0.36346 -0.00099 0.64188
 H1430 H 0.38805 0.01066 0.59269
 H1431 H 0.46699 0.01988 0.63432
 H1432 H 0.44351 0.00742 0.68332
 H1433 H 0.41962 -0.07130 0.65286
 H1434 H 0.44261 -0.05969 0.60370
 C1435 C -0.09860 0.48389 1.15755
 C1436 C -0.10921 0.46525 1.13076
 C1437 C -0.09308 0.46983 1.10554
 C1438 C -0.06805 0.49287 1.10901
 C1439 C -0.08354 0.52089 1.12063
 C1440 C -0.09971 0.51621 1.14588
 C1441 C -0.06544 0.47691 1.16055
 C1442 C -0.04948 0.48155 1.13541
 H1443 H -0.12873 0.45104 1.13084
 H1444 H -0.09845 0.45896 1.08467
 H1445 H -0.08270 0.54228 1.10946
 H1446 H -0.11304 0.53366 1.15579
 H1447 H -0.05530 0.46894 1.18093
 H1448 H -0.02573 0.47756 1.13465
 C1449 C -0.09355 0.52658 0.33850
 C1450 C -0.11437 0.51144 0.36123
 C1451 C -0.10118 0.50458 0.38765
 C1452 C -0.06823 0.51340 0.38904
 C1453 C -0.05388 0.49829 0.36208
 C1454 C -0.06669 0.50542 0.33574
 C1455 C -0.08046 0.55367 0.35515
 C1456 C -0.06763 0.54674 0.38154
 H1457 H -0.13763 0.50668 0.35694
 H1458 H -0.11318 0.49401 0.40576
 H1459 H -0.03446 0.48411 0.36345
 H1460 H -0.05743 0.49776 0.31482
 H1461 H -0.07942 0.57614 0.34641
 H1462 H -0.05682 0.56338 0.39527
 C1463 C 0.40651 1.02360 -0.16013
 C1464 C 0.38614 1.00827 -0.13714
 C1465 C 0.39955 1.00217 -0.11066
 C1466 C 0.43227 1.01188 -0.10947
 C1467 C 0.44698 0.99674 -0.13622
 C1468 C 0.43394 1.00314 -0.16263
 C1469 C 0.41891 1.05128 -0.14392
 C1470 C 0.43199 1.04510 -0.11746
 H1471 H 0.36300 1.00282 -0.14131
 H1472 H 0.38786 0.99155 -0.09238
 H1473 H 0.46679 0.98312 -0.13469
 H1474 H 0.44339 0.99545 -0.18345
 H1475 H 0.41933 1.07364 -0.15300
 H1476 H 0.44240 1.06224 -0.10400
 C1477 C 0.60015 0.47833 -0.15573
 C1478 C 0.56694 0.47140 -0.15834
 C1479 C 0.55129 0.47619 -0.13313
 C1480 C 0.57016 0.48762 -0.10691
 C1481 C 0.59501 0.46454 -0.10352
 C1482 C 0.61086 0.45978 -0.12891
 C1483 C 0.60168 0.51071 -0.14426
 C1484 C 0.58582 0.51553 -0.11887
 H1485 H 0.55651 0.46327 -0.17852
 H1486 H 0.52753 0.47206 -0.13221
 H1487 H 0.60047 0.45377 -0.08263
 H1488 H 0.63022 0.44550 -0.12913
 H1489 H 0.61518 0.52805 -0.15434
 H1490 H 0.58538 0.53695 -0.10777
 C1491 C 0.09621 -0.02432 0.34231
 C1492 C 0.06284 -0.03052 0.33929
 C1493 C 0.04696 -0.02540 0.36438
 C1494 C 0.06580 -0.01440 0.39075
 C1495 C 0.09011 -0.03802 0.39443
 C1496 C 0.10615 -0.04313 0.36924
 C1497 C 0.09830 0.00799 0.35384
 C1498 C 0.08221 0.01316 0.37898
 H1499 H 0.05252 -0.03845 0.31897
 H1500 H 0.02312 -0.02900 0.36517
 H1501 H 0.09507 -0.04891 0.41537
 H1502 H 0.12518 -0.05784 0.36930
 H1503 H 0.11221 0.02507 0.34388
 H1504 H 0.08202 0.03462 0.39001
 C1505 C 0.16055 1.09256 1.02430
 C1506 C 0.13754 1.11268 1.00894
 C1507 C 0.11092 1.09920 1.00346
 C1508 C 0.10957 1.06665 1.01375
 C1509 C 0.13604 1.05155 0.99854
 C1510 C 0.16261 1.06468 1.00432
 C1511 C 0.14456 1.08074 1.05241
 C1512 C 0.11791 1.06758 1.04683
 H1513 H 0.14181 1.13572 1.00303
 H1514 H 0.09263 1.11075 0.99289
 H1515 H 0.13421 1.03141 0.98536
 H1516 H 0.18326 1.05496 0.99658
 H1517 H 0.15395 1.08062 1.07459
 H1518 H 0.10460 1.05747 1.06430
 C1519 C 0.66154 0.59385 0.52355
 C1520 C 0.63830 0.61354 0.50809
 C1521 C 0.61190 0.59965 0.50271
 C1522 C 0.61106 0.56713 0.51321
 C1523 C 0.63774 0.55236 0.49805
 C1524 C 0.66408 0.56599 0.50370
 C1525 C 0.64581 0.58211 0.55175
 C1526 C 0.61942 0.56841 0.54629
 H1527 H 0.64229 0.63660 0.50205
 H1528 H 0.59343 0.61086 0.49208
 H1529 H 0.63620 0.53221 0.48485
 H1530 H 0.68491 0.55686 0.49577
 H1531 H 0.65514 0.58265 0.57394
 H1532 H 0.60622 0.55831 0.56386
 C1533 C 0.65906 0.39969 -0.02149
 C1534 C 0.66171 0.43304 -0.02828
 C1535 C 0.63661 0.44870 -0.02307
 C1536 C 0.61046 0.42979 -0.01140
 C1537 C 0.60668 0.40495 -0.03451
 C1538 C 0.63188 0.38901 -0.03966
 C1539 C 0.64777 0.39805 0.01102
 C1540 C 0.62261 0.41402 0.01624
 H1541 H 0.68181 0.44355 -0.03667
 H1542 H 0.63566 0.47249 -0.02710
 H1543 H 0.58560 0.39938 -0.04483
 H1544 H 0.63160 0.36945 -0.05375
 H1545 H 0.65759 0.38422 0.02814
 H1546 H 0.61163 0.41425 0.03774
 C1547 C 0.15618 -0.10111 0.47918
 C1548 C 0.12910 -0.11163 0.46091
 C1549 C 0.10403 -0.09543 0.46583
 C1550 C 0.10799 -0.07043 0.48875
 C1551 C 0.11987 -0.08605 0.51660
 C1552 C 0.14490 -0.10228 0.51162
 C1553 C 0.15933 -0.06791 0.47208
 C1554 C 0.13438 -0.05189 0.47701
 H1555 H 0.12886 -0.13110 0.44671
 H1556 H 0.08300 -0.10072 0.45527
 H1557 H 0.10901 -0.08523 0.53814
 H1558 H 0.15496 -0.11566 0.52896
 H1559 H 0.17963 -0.05779 0.46370
 H1560 H 0.13373 -0.02813 0.47279
 C1561 C 0.33682 -0.09208 0.52090
 C1562 C 0.36057 -0.11283 0.50763
 C1563 C 0.38697 -0.09919 0.50138
 C1564 C 0.38738 -0.06587 0.50891
 C1565 C 0.36090 -0.05270 0.49210
 C1566 C 0.33449 -0.06603 0.49853
 C1567 C 0.35197 -0.07757 0.54809
 C1568 C 0.37839 -0.06433 0.54183
 H1569 H 0.35691 -0.13636 0.50356
 H1570 H 0.40569 -0.11110 0.49201
 H1571 H 0.36256 -0.03363 0.47735
 H1572 H 0.31379 -0.05749 0.48971
 H1573 H 0.34222 -0.07613 0.57011
 H1574 H 0.39119 -0.05267 0.55866
 C1575 C -0.15941 0.40305 1.02004
 C1576 C -0.14784 0.40038 0.98778
 C1577 C -0.12301 0.41689 0.98206
 C1578 C -0.11160 0.43425 1.00908
 C1579 C -0.13832 0.45284 1.01953
 C1580 C -0.16309 0.43655 1.02521
 C1581 C -0.13233 0.39416 1.03904
 C1582 C -0.10751 0.41061 1.03341
 H1583 H -0.15756 0.38587 0.97115
 H1584 H -0.11199 0.41681 0.96058
 H1585 H -0.13802 0.47683 1.02218
 H1586 H -0.18364 0.44666 1.03274
 H1587 H -0.13185 0.37543 1.05424
 H1588 H -0.08649 0.40632 1.04439
 C1589 C -0.16100 0.59180 0.47435
 C1590 C -0.13778 0.61206 0.48939
 C1591 C -0.11154 0.59835 0.49570
 C1592 C -0.11082 0.56549 0.48647
 C1593 C -0.13780 0.55126 0.50181
 C1594 C -0.16398 0.56458 0.49520
 C1595 C -0.14492 0.57891 0.44687
 C1596 C -0.11870 0.56554 0.45326
 H1597 H -0.14163 0.63533 0.49449
 H1598 H -0.09313 0.60991 0.50616
 H1599 H -0.13659 0.53159 0.51576
 H1600 H -0.18495 0.55553 0.50307
 H1601 H -0.15394 0.57833 0.42454
 H1602 H -0.10537 0.55475 0.43631
 C1603 C 0.33830 1.09075 -0.02396
 C1604 C 0.36144 1.11157 -0.00958
 C1605 C 0.38808 1.09843 -0.00374
 C1606 C 0.38930 1.06552 -0.01275
 C1607 C 0.36290 1.05088 0.00324
 C1608 C 0.33631 1.06366 -0.00284
 C1609 C 0.35408 1.07794 -0.05167
 C1610 C 0.38072 1.06517 -0.04577
 H1611 H 0.35723 1.13479 -0.00455
 H1612 H 0.40647 1.11045 0.00623
 H1613 H 0.36480 1.03128 0.01722
 H1614 H 0.31570 1.05420 0.00548
 H1615 H 0.34459 1.07710 -0.07380
 H1616 H 0.39392 1.05455 -0.06295
 C1617 C 0.02157 1.16215 1.09211
 C1618 C 0.04915 1.14796 1.07742
 C1619 C 0.04380 1.12111 1.06470
 C1620 C 0.01129 1.11083 1.06688
 C1621 C 0.00413 1.11126 1.10025
 C1622 C 0.00951 1.13806 1.11340
 C1623 C -0.00115 1.16329 1.06637
 C1624 C -0.00669 1.13650 1.05359
 H1625 H 0.07076 1.15861 1.07566
 H1626 H 0.06098 1.10881 1.05307
 H1627 H -0.00429 1.09225 1.11257
 H1628 H 0.00560 1.14179 1.13692
 H1629 H -0.01058 1.18352 1.05730
 H1630 H -0.02141 1.13408 1.03465
 C1631 C 0.52594 0.66057 0.59384
 C1632 C 0.50551 0.66308 0.56645
 C1633 C 0.49924 0.63667 0.55325
 C1634 C 0.51444 0.60995 0.56791
 C1635 C 0.54761 0.61814 0.56833
 C1636 C 0.55367 0.64460 0.58162
 C1637 C 0.51067 0.63750 0.61411
 C1638 C 0.50468 0.61100 0.60062
 H1639 H 0.49762 0.68393 0.55728
 H1640 H 0.48555 0.63511 0.53346
 H1641 H 0.56478 0.60477 0.55797
 H1642 H 0.57596 0.65380 0.58155
 H1643 H 0.50519 0.64165 0.63724
 H1644 H 0.49409 0.59264 0.61223
 C1645 C -0.02571 0.65904 0.40707
 C1646 C -0.00395 0.66140 0.43345
 C1647 C 0.00264 0.63491 0.44636
 C1648 C -0.01347 0.60826 0.43241
 C1649 C -0.04654 0.61656 0.43351
 C1650 C -0.05295 0.64308 0.42058
 C1651 C -0.01163 0.63598 0.38607
 C1652 C -0.00525 0.60941 0.39926
 H1653 H 0.00462 0.68219 0.44223
 H1654 H 0.01723 0.63323 0.46548
 H1655 H -0.06340 0.60315 0.44449
 H1656 H -0.07517 0.65228 0.42153
 H1657 H -0.00722 0.64020 0.36272
 H1658 H 0.00460 0.59105 0.38715
 C1659 C 0.47701 1.16147 -0.09202
 C1660 C 0.49860 1.16329 -0.06540
 C1661 C 0.50432 1.13667 -0.05239
 C1662 C 0.48752 1.11047 -0.06637
 C1663 C 0.45472 1.11968 -0.06548
 C1664 C 0.44920 1.14635 -0.07847
 C1665 C 0.49052 1.13786 -0.11281
 C1666 C 0.49600 1.11121 -0.09945
 H1667 H 0.50746 1.18383 -0.05632
 H1668 H 0.51853 1.13466 -0.03302
 H1669 H 0.43744 1.10685 -0.05443
 H1670 H 0.42730 1.15629 -0.07737
 H1671 H 0.49526 1.14178 -0.13616
 H1672 H 0.50537 1.09250 -0.11141
 C1673 C 0.52389 0.34025 -0.09835
 C1674 C 0.54299 0.36729 -0.10800
 C1675 C 0.53793 0.39233 -0.09170
 C1676 C 0.51404 0.38848 -0.06756
 C1677 C 0.48661 0.37712 -0.08426
 C1678 C 0.49173 0.35215 -0.10061
 C1679 C 0.52967 0.33688 -0.06494
 C1680 C 0.52458 0.36179 -0.04891
 H1681 H 0.55756 0.36774 -0.12722
 H1682 H 0.54882 0.41337 -0.09658
 H1683 H 0.46535 0.38844 -0.08428
 H1684 H 0.47479 0.34273 -0.11497
 H1685 H 0.53735 0.31645 -0.05463
 H1686 H 0.52795 0.36221 -0.02504
 C1687 C 0.01922 -0.15903 0.40181
 C1688 C 0.03806 -0.13208 0.39168
 C1689 C 0.03355 -0.10707 0.40816
 C1690 C 0.01046 -0.11092 0.43308
 C1691 C -0.01752 -0.12229 0.41729
 C1692 C -0.01296 -0.14724 0.40074
 C1693 C 0.02611 -0.16258 0.43499
 C1694 C 0.02160 -0.13766 0.45131
 H1695 H 0.05238 -0.13188 0.37227
 H1696 H 0.04452 -0.08612 0.40314
 H1697 H -0.03884 -0.11111 0.41819
 H1698 H -0.03042 -0.15688 0.38719
 H1699 H 0.03403 -0.18311 0.44486
 H1700 H 0.02569 -0.13725 0.47507
 C1701 C 0.47792 -0.16022 0.59086
 C1702 C 0.45006 -0.14446 0.57875
 C1703 C 0.45590 -0.11810 0.56518
 C1704 C 0.48903 -0.10980 0.56427
 C1705 C 0.49904 -0.11055 0.59689
 C1706 C 0.49325 -0.13694 0.61073
 C1707 C 0.49820 -0.16290 0.56329
 C1708 C 0.50421 -0.13657 0.54968
 H1709 H 0.42780 -0.15374 0.57901
 H1710 H 0.43854 -0.10487 0.55494
 H1711 H 0.50973 -0.09208 0.60818
 H1712 H 0.49897 -0.14091 0.63382
 H1713 H 0.50625 -0.18381 0.55441
 H1714 H 0.51778 -0.13508 0.52975
 C1715 C -0.02056 0.34253 1.09543
 C1716 C -0.03840 0.36979 1.10632
 C1717 C -0.03357 0.39489 1.09008
 C1718 C -0.01098 0.39099 1.06476
 C1719 C 0.01695 0.37890 1.07994
 C1720 C 0.01200 0.35376 1.09622
 C1721 C -0.02804 0.33971 1.06230
 C1722 C -0.02309 0.36479 1.04631
 H1723 H -0.05208 0.37017 1.12620
 H1724 H -0.04379 0.41601 1.09568
 H1725 H 0.03847 0.38983 1.07903
 H1726 H 0.02938 0.34386 1.10961
 H1727 H -0.03660 0.31951 1.05216
 H1728 H -0.02744 0.36564 1.02261
 C1729 C 0.77298 0.34540 0.08911
 C1730 C 0.75149 0.31852 0.08772
 C1731 C 0.74599 0.30561 0.11448
 C1732 C 0.76287 0.31989 0.14042
 C1733 C 0.79561 0.31930 0.13080
 C1734 C 0.80092 0.33221 0.10400
 C1735 C 0.75950 0.36619 0.11276
 C1736 C 0.75423 0.35290 0.13957
 H1737 H 0.74264 0.30911 0.06737
 H1738 H 0.73193 0.28606 0.11674
 H1739 H 0.81303 0.30854 0.14350
 H1740 H 0.82279 0.33141 0.09386
 H1741 H 0.75462 0.38948 0.10877
 H1742 H 0.74491 0.36487 0.15831
 C1743 C 0.27123 0.84947 0.59134
 C1744 C 0.29109 0.85838 0.61786
 C1745 C 0.28615 0.84192 0.64283
 C1746 C 0.26167 0.81827 0.63940
 C1747 C 0.23437 0.83561 0.62887
 C1748 C 0.23937 0.85212 0.60391
 C1749 C 0.27623 0.81599 0.58742
 C1750 C 0.27127 0.79970 0.61230
 H1751 H 0.30630 0.87712 0.61797
 H1752 H 0.29773 0.84623 0.66355
 H1753 H 0.21321 0.83561 0.64049
 H1754 H 0.22246 0.86651 0.59461
 H1755 H 0.28313 0.80587 0.56662
 H1756 H 0.27389 0.77571 0.61240
 C1757 C 0.73173 0.65502 0.58874
 C1758 C 0.75538 0.67995 0.58675
 C1759 C 0.76129 0.69343 0.61313
 C1760 C 0.74279 0.68141 0.63917
 C1761 C 0.71037 0.68420 0.62889
 C1762 C 0.70465 0.67078 0.60249
 C1763 C 0.74298 0.63405 0.61330
 C1764 C 0.74879 0.64779 0.63967
 H1765 H 0.76533 0.68791 0.56626
 H1766 H 0.77675 0.71193 0.61499
 H1767 H 0.69349 0.69648 0.64098
 H1768 H 0.68305 0.67239 0.59197
 H1769 H 0.74608 0.61033 0.61016
 H1770 H 0.75680 0.63577 0.65896
 C1771 C 0.22879 0.15357 0.08946
 C1772 C 0.25207 0.17883 0.08719
 C1773 C 0.25786 0.19266 0.11342
 C1774 C 0.23962 0.18061 0.13964
 C1775 C 0.20714 0.18283 0.12942
 C1776 C 0.20152 0.16909 0.10316
 C1777 C 0.24042 0.13302 0.11418
 C1778 C 0.24610 0.14708 0.14040
 H1779 H 0.26192 0.18661 0.06657
 H1780 H 0.27309 0.21136 0.11509
 H1781 H 0.19015 0.19511 0.14137
 H1782 H 0.17992 0.17050 0.09262
 H1783 H 0.24385 0.10931 0.11126
 H1784 H 0.25435 0.13533 0.15976
 C1785 C 0.27023 0.14835 0.90806
 C1786 C 0.28914 0.13939 0.88086
 C1787 C 0.28408 0.15629 0.85628
 C1788 C 0.26036 0.18038 0.86071
 C1789 C 0.23284 0.16346 0.87180
 C1790 C 0.23799 0.14652 0.89641
 C1791 C 0.27625 0.18166 0.91229
 C1792 C 0.27113 0.19838 0.88778
 H1793 H 0.30383 0.12034 0.88013
 H1794 H 0.29504 0.15203 0.83519
 H1795 H 0.21144 0.16399 0.86073
 H1796 H 0.22095 0.13227 0.90592
 H1797 H 0.28393 0.19134 0.93301
 H1798 H 0.27442 0.22230 0.88792
 C1799 C 0.77110 0.64930 0.40593
 C1800 C 0.78972 0.64023 0.37855
 C1801 C 0.78430 0.65699 0.35391
 C1802 C 0.76060 0.68107 0.35854
 C1803 C 0.73327 0.66414 0.37005
 C1804 C 0.73874 0.64735 0.39467
 C1805 C 0.77714 0.68263 0.40990
 C1806 C 0.77172 0.69920 0.38539
 H1807 H 0.80447 0.62124 0.37775
 H1808 H 0.79498 0.65265 0.33271
 H1809 H 0.71174 0.66454 0.35923
 H1810 H 0.72184 0.63309 0.40445
 H1811 H 0.78522 0.69241 0.43042
 H1812 H 0.77524 0.72309 0.38533
 C1813 C 0.22583 0.84091 0.41089
 C1814 C 0.23972 0.86144 0.38721
 C1815 C 0.24565 0.84775 0.36083
 C1816 C 0.23717 0.81461 0.36047
 C1817 C 0.25355 0.80098 0.38704
 C1818 C 0.24746 0.81446 0.41339
 C1819 C 0.19828 0.82722 0.39573
 C1820 C 0.20421 0.81385 0.36937
 H1821 H 0.24442 0.88484 0.39091
 H1822 H 0.25540 0.85949 0.34211
 H1823 H 0.26796 0.78173 0.38542
 H1824 H 0.25631 0.80610 0.43418
 H1825 H 0.17622 0.82641 0.40543
 H1826 H 0.18708 0.80268 0.35652
 C1827 C 0.72914 0.34742 0.90792
 C1828 C 0.71022 0.35679 0.88092
 C1829 C 0.71602 0.34095 0.85578
 C1830 C 0.74039 0.31739 0.85950
 C1831 C 0.76729 0.33470 0.87133
 C1832 C 0.76143 0.35059 0.89649
 C1833 C 0.72407 0.31382 0.91093
 C1834 C 0.72990 0.29816 0.88591
 H1835 H 0.69506 0.37547 0.88069
 H1836 H 0.70519 0.34571 0.83477
 H1837 H 0.78879 0.33523 0.86036
 H1838 H 0.77796 0.36501 0.90655
 H1839 H 0.71650 0.30316 0.93126
 H1840 H 0.72732 0.27416 0.88526
 C1841 C 0.84450 0.41491 0.22741
 C1842 C 0.81930 0.41606 0.25068
 C1843 C 0.80637 0.38929 0.25625
 C1844 C 0.81915 0.36366 0.23778
 C1845 C 0.81654 0.37409 0.20538
 C1846 C 0.82942 0.40090 0.19999
 C1847 C 0.86585 0.39080 0.23886
 C1848 C 0.85264 0.36398 0.24429
 H1849 H 0.81098 0.43628 0.26078
 H1850 H 0.78785 0.38681 0.27157
 H1851 H 0.80477 0.36179 0.18826
 H1852 H 0.82780 0.41155 0.17840
 H1853 H 0.88943 0.39455 0.24229
 H1854 H 0.86496 0.34490 0.25231
 C1855 C 0.35105 0.90850 0.73023
 C1856 C 0.31774 0.91154 0.72405
 C1857 C 0.30181 0.88642 0.72911
 C1858 C 0.32054 0.85996 0.74002
 C1859 C 0.34497 0.85642 0.71640
 C1860 C 0.36108 0.88163 0.71140
 C1861 C 0.35293 0.89686 0.76252
 C1862 C 0.33681 0.87160 0.76761
 H1863 H 0.30746 0.93193 0.71629
 H1864 H 0.27797 0.88573 0.72564
 H1865 H 0.35000 0.83551 0.70545
 H1866 H 0.38025 0.88163 0.69677
 H1867 H 0.36669 0.90683 0.77962
 H1868 H 0.33646 0.86046 0.78902
 C1869 C 0.15366 0.90890 0.27255
 C1870 C 0.18103 0.91211 0.25193
 C1871 C 0.19447 0.88597 0.24518
 C1872 C 0.18013 0.85880 0.26010
 C1873 C 0.17975 0.86637 0.29340
 C1874 C 0.16632 0.89255 0.29995
 C1875 C 0.13360 0.88578 0.25710
 C1876 C 0.14739 0.85960 0.25062
 H1877 H 0.19009 0.93320 0.24435
 H1878 H 0.21428 0.88488 0.23142
 H1879 H 0.19040 0.85289 0.31033
 H1880 H 0.16675 0.90138 0.32237
 H1881 H 0.11042 0.88967 0.25180
 H1882 H 0.13597 0.84129 0.23979
 C1883 C 0.65205 0.40831 0.77179
 C1884 C 0.68557 0.41174 0.77658
 C1885 C 0.70140 0.38693 0.77064
 C1886 C 0.68238 0.36033 0.76034
 C1887 C 0.65897 0.35623 0.78492
 C1888 C 0.64295 0.38117 0.79083
 C1889 C 0.64885 0.39694 0.73952
 C1890 C 0.66492 0.37197 0.73354
 H1891 H 0.69606 0.43220 0.78402
 H1892 H 0.72539 0.38659 0.77298
 H1893 H 0.65447 0.33512 0.79583
 H1894 H 0.62437 0.38075 0.80619
 H1895 H 0.63424 0.40680 0.72312
 H1896 H 0.66440 0.36100 0.71206
 C1897 C 0.65582 0.58997 0.72919
 C1898 C 0.66940 0.60474 0.70133
 C1899 C 0.68328 0.63100 0.70688
 C1900 C 0.68303 0.64014 0.73978
 C1901 C 0.65005 0.64029 0.74859
 C1902 C 0.63588 0.61402 0.74306
 C1903 C 0.68249 0.58730 0.75056
 C1904 C 0.69639 0.61352 0.75630
 H1905 H 0.66976 0.59486 0.67936
 H1906 H 0.69446 0.64360 0.68951
 H1907 H 0.63877 0.65925 0.75828
 H1908 H 0.61250 0.61065 0.74802
 H1909 H 0.69089 0.56647 0.75928
 H1910 H 0.71589 0.61496 0.77040
 C1911 C 0.15362 0.08763 0.22832
 C1912 C 0.13347 0.11147 0.24223
 C1913 C 0.14744 0.13778 0.24797
 C1914 C 0.18048 0.13795 0.23931
 C1915 C 0.19395 0.11133 0.25573
 C1916 C 0.18023 0.08504 0.24979
 C1917 C 0.16722 0.10265 0.20060
 C1918 C 0.18093 0.12898 0.20635
 H1919 H 0.11010 0.10792 0.24708
 H1920 H 0.13596 0.15659 0.25773
 H1921 H 0.21341 0.11283 0.26987
 H1922 H 0.18875 0.06421 0.25840
 H1923 H 0.16769 0.09289 0.17857
 H1924 H 0.19210 0.14176 0.18911
 C1925 C 0.35002 0.09213 0.77128
 C1926 C 0.31660 0.08862 0.77692
 C1927 C 0.30059 0.11351 0.77156
 C1928 C 0.31936 0.14021 0.76092
 C1929 C 0.34329 0.14411 0.78493
 C1930 C 0.35948 0.11916 0.79023
 C1931 C 0.35247 0.10377 0.73901
 C1932 C 0.33626 0.12877 0.73362
 H1933 H 0.30633 0.06809 0.78455
 H1934 H 0.27667 0.11391 0.77462
 H1935 H 0.34797 0.16510 0.79592
 H1936 H 0.37838 0.11950 0.80513
 H1937 H 0.36663 0.09397 0.72214
 H1938 H 0.33624 0.13987 0.71218
 C1939 C 0.85019 0.59689 0.27127
 C1940 C 0.81679 0.59261 0.27645
 C1941 C 0.80034 0.61720 0.27123
 C1942 C 0.81865 0.64445 0.26119
 C1943 C 0.84221 0.64853 0.28554
 C1944 C 0.85883 0.62379 0.29077
 C1945 C 0.85281 0.60906 0.23922
 C1946 C 0.83612 0.63375 0.23396
 H1947 H 0.80685 0.57180 0.28375
 H1948 H 0.77639 0.61702 0.27408
 H1949 H 0.84630 0.66945 0.29684
 H1950 H 0.87746 0.62426 0.30601
 H1951 H 0.86739 0.59979 0.22241
 H1952 H 0.83615 0.64514 0.21267
 C1953 C 0.91039 0.27503 0.15292
 C1954 C 0.89555 0.30289 0.16625
 C1955 C 0.86931 0.29726 0.18012
 C1956 C 0.86022 0.26430 0.18008
 C1957 C 0.86014 0.25533 0.14713
 C1958 C 0.88641 0.26093 0.13298
 C1959 C 0.91303 0.25380 0.17974
 C1960 C 0.88684 0.24797 0.19360
 H1961 H 0.90531 0.32498 0.16634
 H1962 H 0.85663 0.31463 0.19106
 H1963 H 0.84119 0.24557 0.13584
 H1964 H 0.88982 0.25593 0.10962
 H1965 H 0.93383 0.24511 0.18818
 H1966 H 0.88539 0.23386 0.21315
 C1967 C 0.40992 0.76994 0.64979
 C1968 C 0.41341 0.77652 0.68303
 C1969 C 0.38866 0.77116 0.69938
 C1970 C 0.36212 0.75959 0.68111
 C1971 C 0.35783 0.78290 0.65651
 C1972 C 0.38265 0.78819 0.63998
 C1973 C 0.39877 0.73741 0.64836
 C1974 C 0.37390 0.73202 0.66492
 H1975 H 0.43381 0.78477 0.69293
 H1976 H 0.38827 0.77485 0.72321
 H1977 H 0.33669 0.79340 0.65166
 H1978 H 0.38205 0.80259 0.62064
 H1979 H 0.40880 0.72033 0.63464
 H1980 H 0.36314 0.71039 0.66566
 C1981 C 0.40926 0.22991 0.85093
 C1982 C 0.38203 0.21140 0.86085
 C1983 C 0.35716 0.21656 0.84450
 C1984 C 0.36139 0.24001 0.81998
 C1985 C 0.37319 0.26760 0.83620
 C1986 C 0.39810 0.26234 0.85257
 C1987 C 0.41267 0.22348 0.81766
 C1988 C 0.38789 0.22871 0.80149
 H1989 H 0.38154 0.19690 0.88012
 H1990 H 0.33605 0.20586 0.84943
 H1991 H 0.36239 0.28914 0.83564
 H1992 H 0.40812 0.27944 0.86633
 H1993 H 0.43306 0.21542 0.80759
 H1994 H 0.38745 0.22509 0.77765
 C1995 C 0.90407 0.72851 0.35075
 C1996 C 0.87700 0.70944 0.36003
 C1997 C 0.85209 0.71486 0.34373
 C1998 C 0.85618 0.73895 0.31980
 C1999 C 0.86768 0.76620 0.33680
 C2000 C 0.89253 0.76075 0.35316
 C2001 C 0.90766 0.72297 0.31732
 C2002 C 0.88289 0.72837 0.30118
 H2003 H 0.87661 0.69433 0.37882
 H2004 H 0.83107 0.70385 0.34826
 H2005 H 0.85668 0.78765 0.33677
 H2006 H 0.90231 0.77759 0.36742
 H2007 H 0.92812 0.71526 0.30715
 H2008 H 0.88256 0.72522 0.27727
 C2009 C 0.08603 0.77062 0.34259
 C2010 C 0.08321 0.74891 0.31614
 C2011 C 0.10945 0.74241 0.30266
 C2012 C 0.13628 0.75852 0.31621
 C2013 C 0.12794 0.79163 0.31544
 C2014 C 0.10168 0.79795 0.32888
 C2015 C 0.10943 0.75648 0.36306
 C2016 C 0.13571 0.75017 0.34934
 H2017 H 0.06229 0.74038 0.30770
 H2018 H 0.11081 0.72794 0.28341
 H2019 H 0.14112 0.80859 0.30429
 H2020 H 0.09243 0.82019 0.32825
 H2021 H 0.10563 0.75191 0.38646
 H2022 H 0.15423 0.74020 0.36106
 C2023 C 0.59283 0.26955 0.84869
 C2024 C 0.60360 0.23694 0.85002
 C2025 C 0.62864 0.23160 0.83375
 C2026 C 0.64093 0.25926 0.81791
 C2027 C 0.61471 0.27112 0.79942
 C2028 C 0.58986 0.27644 0.81549
 C2029 C 0.62019 0.28757 0.85899
 C2030 C 0.64517 0.28233 0.84273
 H2031 H 0.59340 0.21982 0.86369
 H2032 H 0.63929 0.20999 0.83313
 H2033 H 0.61537 0.27504 0.77562
 H2034 H 0.56967 0.28485 0.80536
 H2035 H 0.62064 0.30180 0.87844
 H2036 H 0.66636 0.29269 0.84793
 C2037 C 0.59276 0.73070 0.65351
 C2038 C 0.61739 0.74257 0.63281
 C2039 C 0.64373 0.74818 0.64671
 C2040 C 0.64311 0.74139 0.68018
 C2041 C 0.61705 0.75951 0.69248
 C2042 C 0.59073 0.75379 0.67885
 C2043 C 0.60645 0.70330 0.66879
 C2044 C 0.63280 0.70883 0.68232
 H2045 H 0.61432 0.74619 0.60916
 H2046 H 0.66308 0.75656 0.63491
 H2047 H 0.61889 0.77463 0.71119
 H2048 H 0.57024 0.76356 0.68686
 H2049 H 0.59587 0.68162 0.67014
 H2050 H 0.64478 0.69170 0.69434
 C2051 C 0.08916 0.22830 0.15260
 C2052 C 0.10412 0.20041 0.16571
 C2053 C 0.13019 0.20613 0.17976
 C2054 C 0.13898 0.23919 0.18014
 C2055 C 0.13926 0.24858 0.14731
 C2056 C 0.11319 0.24290 0.13297
 C2057 C 0.08608 0.24917 0.17967
 C2058 C 0.11211 0.25507 0.19374
 H2059 H 0.09446 0.17829 0.16581
 H2060 H 0.14283 0.18877 0.19074
 H2061 H 0.15817 0.25875 0.13624
 H2062 H 0.10994 0.24821 0.10966
 H2063 H 0.06511 0.25754 0.18806
 H2064 H 0.11327 0.26894 0.21346
 C2065 C -0.09230 1.02483 0.83963
 C2066 C -0.10923 1.00145 0.85829
 C2067 C -0.09518 0.99312 0.88375
 C2068 C -0.06535 1.00885 0.88870
 C2069 C -0.04725 1.00271 0.86037
 C2070 C -0.06111 1.01126 0.83491
 C2071 C -0.08641 1.05070 0.86145
 C2072 C -0.07251 1.04223 0.88690
 H2073 H -0.13065 0.99225 0.85199
 H2074 H -0.10449 0.97682 0.89899
 H2075 H -0.02519 0.99305 0.86021
 H2076 H -0.05050 1.00911 0.81333
 H2077 H -0.09025 1.07403 0.85699
 H2078 H -0.06568 1.05825 0.90361
 C2079 C 0.40481 0.52163 0.34244
 C2080 C 0.43601 0.50868 0.33648
 C2081 C 0.45123 0.50090 0.36143
 C2082 C 0.43419 0.50705 0.39038
 C2083 C 0.42613 0.54022 0.38847
 C2084 C 0.41091 0.54792 0.36358
 C2085 C 0.38924 0.49812 0.36199
 C2086 C 0.40455 0.49051 0.38692
 H2087 H 0.44555 0.50630 0.31443
 H2088 H 0.47346 0.49168 0.36048
 H2089 H 0.43310 0.55663 0.40474
 H2090 H 0.40586 0.57100 0.35907
 H2091 H 0.36785 0.48831 0.35661
 H2092 H 0.39633 0.47415 0.40271
 C2093 C 0.59251 -0.01920 0.33699
 C2094 C 0.56132 -0.00582 0.33176
 C2095 C 0.54670 0.00219 0.35703
 C2096 C 0.56415 -0.00420 0.38563
 C2097 C 0.57171 -0.03747 0.38358
 C2098 C 0.58633 -0.04543 0.35835
 C2099 C 0.60874 0.00407 0.35629
 C2100 C 0.59395 0.01190 0.38153
 H2101 H 0.55131 -0.00333 0.30996
 H2102 H 0.52458 0.01171 0.35655
 H2103 H 0.56471 -0.05379 0.39999
 H2104 H 0.59062 -0.06865 0.35379
 H2105 H 0.63023 0.01355 0.35058
 H2106 H 0.60269 0.02808 0.39716
 C2107 C 0.09383 0.48017 0.83806
 C2108 C 0.06298 0.49407 0.83252
 C2109 C 0.04839 0.50254 0.85768
 C2110 C 0.06564 0.49605 0.88640
 C2111 C 0.07261 0.46263 0.88462
 C2112 C 0.08716 0.45425 0.85953
 C2113 C 0.11041 0.50334 0.85710
 C2114 C 0.09572 0.51162 0.88227
 H2115 H 0.05318 0.49657 0.81064
 H2116 H 0.02647 0.51249 0.85704
 H2117 H 0.06523 0.44654 0.90110
 H2118 H 0.09110 0.43097 0.85497
 H2119 H 0.13199 0.51246 0.85121
 H2120 H 0.10466 0.52784 0.89774
 C2121 C 0.09340 0.52097 0.65854
 C2122 C 0.06205 0.50810 0.66446
 C2123 C 0.04702 0.49976 0.63952
 C2124 C 0.06437 0.50528 0.61058
 C2125 C 0.07265 0.53848 0.61184
 C2126 C 0.08767 0.54675 0.63670
 C2127 C 0.10899 0.49704 0.63970
 C2128 C 0.09388 0.48885 0.61478
 H2129 H 0.05231 0.50614 0.68647
 H2130 H 0.02473 0.49052 0.64045
 H2131 H 0.06592 0.55455 0.59517
 H2132 H 0.09281 0.56993 0.64072
 H2133 H 0.13026 0.48736 0.64553
 H2134 H 0.10216 0.47214 0.59949
 C2135 C 0.59354 1.02550 0.15985
 C2136 C 0.60985 1.00188 0.14122
 C2137 C 0.59527 0.99348 0.11606
 C2138 C 0.56556 1.00938 0.11149
 C2139 C 0.54787 1.00351 0.14017
 C2140 C 0.56235 1.01211 0.16531
 C2141 C 0.58770 1.05124 0.13798
 C2142 C 0.57320 1.04274 0.11288
 H2143 H 0.63120 0.99258 0.14735
 H2144 H 0.60408 0.97697 0.10085
 H2145 H 0.52573 0.99390 0.14080
 H2146 H 0.55226 1.01003 0.18715
 H2147 H 0.59235 1.07449 0.14216
 H2148 H 0.56645 1.05869 0.09609
 C2149 C 0.40313 0.47991 0.16231
 C2150 C 0.38712 0.46784 0.13465
 C2151 C 0.40200 0.47276 0.10875
 C2152 C 0.43169 0.48968 0.11255
 C2153 C 0.42324 0.51817 0.12905
 C2154 C 0.40808 0.51325 0.15482
 C2155 C 0.43427 0.46608 0.16109
 C2156 C 0.44911 0.47111 0.13520
 H2157 H 0.36552 0.45704 0.13520
 H2158 H 0.39299 0.46571 0.08753
 H2159 H 0.42708 0.54035 0.12024
 H2160 H 0.39835 0.53164 0.16691
 H2161 H 0.44381 0.45326 0.17914
 H2162 H 0.47126 0.46251 0.13118
 C2163 C -0.09250 -0.02331 0.66345
 C2164 C -0.08832 -0.04946 0.64155
 C2165 C -0.07409 -0.04174 0.61595
 C2166 C -0.06500 -0.00879 0.61407
 C2167 C -0.09386 0.00843 0.61929
 C2168 C -0.10823 0.00084 0.64489
 C2169 C -0.06060 -0.01128 0.66782
 C2170 C -0.04641 -0.00353 0.64221
 H2171 H -0.09412 -0.07246 0.64570
 H2172 H -0.06870 -0.05800 0.59896
 H2173 H -0.10236 0.02511 0.60409
 H2174 H -0.12911 0.01104 0.65133
 H2175 H -0.04985 -0.00941 0.68934
 H2176 H -0.02387 0.00511 0.64215
 C2177 C -0.16266 0.90661 1.02383
 C2178 C -0.16736 0.93838 1.01152
 C2179 C -0.14191 0.95284 1.00366
 C2180 C -0.11360 0.93467 1.00913
 C2181 C -0.11550 0.92592 1.04215
 C2182 C -0.14093 0.91138 1.04995
 C2183 C -0.14385 0.89085 0.99986
 C2184 C -0.11843 0.90550 0.99218
 H2185 H -0.18897 0.94886 1.00961
 H2186 H -0.14208 0.97534 0.99491
 H2187 H -0.09871 0.93181 1.05842
 H2188 H -0.14513 0.90578 1.07296
 H2189 H -0.14999 0.86974 0.98985
 H2190 H -0.10309 0.89702 0.97561
 C2191 C 0.33992 0.40543 0.52343
 C2192 C 0.36153 0.40975 0.54965
 C2193 C 0.38689 0.42453 0.54220
 C2194 C 0.38878 0.43386 0.50935
 C2195 C 0.38411 0.40498 0.49186
 C2196 C 0.35869 0.39013 0.49922
 C2197 C 0.33500 0.43727 0.51163
 C2198 C 0.36039 0.45201 0.50413
 H2199 H 0.35736 0.40332 0.57245
 H2200 H 0.40374 0.42998 0.55857
 H2201 H 0.39947 0.39686 0.47512
 H2202 H 0.35250 0.36925 0.48881
 H2203 H 0.31330 0.44753 0.50970
 H2204 H 0.36011 0.47461 0.49565
 C2205 C 0.34006 0.59047 -0.02178
 C2206 C 0.35905 0.60664 0.00169
 C2207 C 0.38414 0.59184 0.00978
 C2208 C 0.38834 0.56207 -0.00629
 C2209 C 0.35955 0.54457 -0.00018
 C2210 C 0.33445 0.55929 -0.00840
 C2211 C 0.36167 0.58442 -0.04772
 C2212 C 0.38672 0.56977 -0.03953
 H2213 H 0.35317 0.62803 0.01115
 H2214 H 0.39955 0.60052 0.02618
 H2215 H 0.35884 0.52242 0.00942
 H2216 H 0.31253 0.54942 -0.00600
 H2217 H 0.35734 0.58889 -0.07094
 H2218 H 0.40324 0.56282 -0.05568
 C2219 C -0.16068 0.09280 0.47981
 C2220 C -0.16596 0.06252 0.49542
 C2221 C -0.14064 0.04815 0.50357
 C2222 C -0.11201 0.06486 0.49503
 C2223 C -0.11507 0.07025 0.46144
 C2224 C -0.14036 0.08453 0.45338
 C2225 C -0.14046 0.11025 0.50127
 C2226 C -0.11518 0.09570 0.50920
 H2227 H -0.18774 0.05270 0.49898
 H2228 H -0.14112 0.02657 0.51438
 H2229 H -0.09957 0.06164 0.44508
 H2230 H -0.14617 0.08673 0.43013
 H2231 H -0.14566 0.13229 0.50959
 H2232 H -0.09896 0.10525 0.52429
 C2233 C 0.65942 0.09417 0.51834
 C2234 C 0.66443 0.06342 0.50389
 C2235 C 0.63903 0.04914 0.49556
 C2236 C 0.61054 0.06653 0.50270
 C2237 C 0.61283 0.07307 0.53617
 C2238 C 0.63819 0.08730 0.54441
 C2239 C 0.64027 0.11121 0.49570
 C2240 C 0.61482 0.09683 0.48756
 H2241 H 0.68615 0.05343 0.50094
 H2242 H 0.63934 0.02732 0.48527
 H2243 H 0.59654 0.06557 0.55237
 H2244 H 0.64314 0.09082 0.56768
 H2245 H 0.64629 0.13287 0.48682
 H2246 H 0.59925 0.10612 0.47170
 C2247 C 0.16106 0.59303 1.01933
 C2248 C 0.14177 0.61065 0.99720
 C2249 C 0.11621 0.59657 0.98896
 C2250 C 0.11186 0.56602 1.00352
 C2251 C 0.14015 0.54856 0.99583
 C2252 C 0.16571 0.56245 1.00428
 C2253 C 0.13995 0.58565 1.04546
 C2254 C 0.11442 0.57183 1.03709
 H2255 H 0.14776 0.63248 0.98871
 H2256 H 0.10056 0.60629 0.97344
 H2257 H 0.14022 0.52689 0.98522
 H2258 H 0.18728 0.55218 1.00117
 H2259 H 0.14521 0.58805 1.06881
 H2260 H 0.09831 0.56384 1.05325
 C2261 C 0.15899 0.40278 0.48072
 C2262 C 0.13152 0.38555 0.46982
 C2263 C 0.10531 0.39959 0.47524
 C2264 C 0.10869 0.42972 0.49137
 C2265 C 0.12621 0.42238 0.51951
 C2266 C 0.15226 0.40803 0.51415
 C2267 C 0.15642 0.43362 0.46629
 C2268 C 0.13026 0.44762 0.47176
 H2269 H 0.13243 0.36375 0.45953
 H2270 H 0.08419 0.38963 0.46919
 H2271 H 0.11789 0.42623 0.54184
 H2272 H 0.16506 0.39895 0.53237
 H2273 H 0.17378 0.44358 0.45272
 H2274 H 0.12532 0.46947 0.46280
 C2275 C 0.66109 0.90779 -0.02450
 C2276 C 0.63919 0.91291 -0.05030
 C2277 C 0.61400 0.92738 -0.04210
 C2278 C 0.61255 0.93569 -0.00896
 C2279 C 0.61732 0.90630 0.00764
 C2280 C 0.64255 0.89175 -0.00048
 C2281 C 0.66633 0.93930 -0.01186
 C2282 C 0.64109 0.95376 -0.00359
 H2283 H 0.64327 0.90762 -0.07340
 H2284 H 0.59715 0.93357 -0.05814
 H2285 H 0.60217 0.89767 0.02438
 H2286 H 0.64879 0.87060 0.00929
 H2287 H 0.68810 0.94957 -0.00998
 H2288 H 0.64154 0.97610 0.00550
 C2289 C 0.02555 0.84017 0.90789
 C2290 C 0.05081 0.86294 0.91309
 C2291 C 0.04190 0.88799 0.92745
 C2292 C 0.00873 0.88849 0.93570
 C2293 C -0.00760 0.88312 0.90633
 C2294 C 0.00118 0.85808 0.89181
 C2295 C 0.01295 0.83479 0.93947
 C2296 C 0.00399 0.85987 0.95381
 H2297 H 0.07411 0.85955 0.90826
 H2298 H 0.05750 0.90533 0.93378
 H2299 H -0.02460 0.89780 0.89763
 H2300 H -0.00832 0.85159 0.87060
 H2301 H 0.01165 0.81304 0.94991
 H2302 H -0.00513 0.85926 0.97614
 C2303 C 0.52466 0.34001 0.40703
 C2304 C 0.55035 0.36242 0.41105
 C2305 C 0.54236 0.38755 0.42584
 C2306 C 0.50954 0.38842 0.43543
 C2307 C 0.49199 0.38328 0.40671
 C2308 C 0.49992 0.35813 0.39187
 C2309 C 0.51318 0.33468 0.43894
 C2310 C 0.50515 0.35983 0.45367
 H2311 H 0.57311 0.35904 0.40413
 H2312 H 0.55827 0.40501 0.43097
 H2313 H 0.47486 0.39817 0.39868
 H2314 H 0.48958 0.35171 0.37104
 H2315 H 0.51180 0.31286 0.44922
 H2316 H 0.49676 0.35925 0.47630
 C2317 C -0.02274 0.33580 0.59259
 C2318 C -0.04940 0.35676 0.58744
 C2319 C -0.04223 0.38225 0.57270
 C2320 C -0.00926 0.38495 0.56405
 C2321 C 0.00769 0.38096 0.59330
 C2322 C 0.00066 0.35548 0.60818
 C2323 C -0.01020 0.33101 0.56092
 C2324 C -0.00297 0.35652 0.54621
 H2325 H -0.07236 0.35181 0.59267
 H2326 H -0.05891 0.39847 0.56645
 H2327 H 0.02384 0.39686 0.60164
 H2328 H 0.01079 0.34984 0.62932
 H2329 H -0.00770 0.30930 0.55067
 H2330 H 0.00586 0.35630 0.52375
 C2331 C 0.47718 0.84020 0.09494
 C2332 C 0.45144 0.86217 0.08979
 C2333 C 0.45961 0.88726 0.07497
 C2334 C 0.49263 0.88856 0.06630
 C2335 C 0.50946 0.88397 0.09554
 C2336 C 0.50139 0.85882 0.11048
 C2337 C 0.48955 0.83469 0.06339
 C2338 C 0.49776 0.85983 0.04853
 H2339 H 0.42834 0.85818 0.09519
 H2340 H 0.44359 0.90412 0.06870
 H2341 H 0.52633 0.89917 0.10378
 H2342 H 0.51133 0.85269 0.13156
 H2343 H 0.49131 0.81280 0.05339
 H2344 H 0.50672 0.85918 0.02614
 C2345 C 0.51590 0.65770 0.09824
 C2346 C 0.48266 0.65099 0.09195
 C2347 C 0.47768 0.62485 0.07748
 C2348 C 0.50595 0.60721 0.07099
 C2349 C 0.52616 0.62875 0.05372
 C2350 C 0.53126 0.65499 0.06786
 C2351 C 0.52618 0.63021 0.11576
 C2352 C 0.52112 0.60391 0.10158
 H2353 H 0.46418 0.66382 0.10044
 H2354 H 0.45547 0.61653 0.07298
 H2355 H 0.53577 0.62374 0.03216
 H2356 H 0.54516 0.67232 0.05829
 H2357 H 0.53589 0.63121 0.13780
 H2358 H 0.52685 0.58278 0.11167
 C2359 C 0.02599 0.16043 0.59316
 C2360 C 0.00243 0.14179 0.60987
 C2361 C -0.00595 0.11638 0.59566
 C2362 C 0.00991 0.11144 0.56591
 C2363 C 0.00405 0.13985 0.54785
 C2364 C 0.01264 0.16527 0.56188
 C2365 C 0.05174 0.13851 0.58738
 C2366 C 0.04321 0.11310 0.57333
 H2367 H -0.00684 0.14806 0.63125
 H2368 H -0.02237 0.10116 0.60480
 H2369 H -0.00545 0.14009 0.52570
 H2370 H 0.01064 0.18691 0.55134
 H2371 H 0.07504 0.14286 0.59137
 H2372 H 0.05915 0.09637 0.56653
 C2373 C 0.47543 0.16227 0.40451
 C2374 C 0.49952 0.14404 0.38836
 C2375 C 0.50744 0.11850 0.40259
 C2376 C 0.49061 0.11315 0.43176
 C2377 C 0.49588 0.14140 0.45025
 C2378 C 0.48779 0.16688 0.43616
 C2379 C 0.44955 0.14020 0.40899
 C2380 C 0.45754 0.11470 0.42318
 H2381 H 0.50941 0.15068 0.36734
 H2382 H 0.52412 0.10348 0.39383
 H2383 H 0.50479 0.14150 0.47265
 H2384 H 0.48965 0.18848 0.44678
 H2385 H 0.42665 0.14414 0.40291
 H2386 H 0.44148 0.09746 0.42861
 C2387 C -0.02121 0.66351 0.90479
 C2388 C -0.04758 0.64194 0.90966
 C2389 C -0.03997 0.61624 0.92366
 C2390 C -0.00689 0.61394 0.93185
 C2391 C 0.00977 0.61896 0.90253
 C2392 C 0.00230 0.64470 0.88841
 C2393 C -0.00850 0.66773 0.93643
 C2394 C -0.00081 0.64202 0.95035
 H2395 H -0.07063 0.64660 0.90481
 H2396 H -0.05642 0.59956 0.92970
 H2397 H 0.02601 0.60357 0.89359
 H2398 H 0.01218 0.65109 0.86730
 H2399 H -0.00626 0.68919 0.94726
 H2400 H 0.00818 0.64186 0.97271
 C2401 C 0.27222 0.65291 0.90896
 C2402 C 0.29836 0.65855 0.88744
 C2403 C 0.29056 0.67325 0.86224
 C2404 C 0.25747 0.68137 0.86037
 C2405 C 0.24090 0.65182 0.86463
 C2406 C 0.24858 0.63699 0.88992
 C2407 C 0.25937 0.68426 0.91429
 C2408 C 0.25151 0.69899 0.88905
 H2409 H 0.32144 0.65364 0.89189
 H2410 H 0.30688 0.67981 0.84565
 H2411 H 0.22449 0.64331 0.84913
 H2412 H 0.23875 0.61572 0.89589
 H2413 H 0.25705 0.69424 0.93612
 H2414 H 0.24225 0.72123 0.88963
 C2415 C 0.77528 0.15688 0.41103
 C2416 C 0.75104 0.14214 0.39185
 C2417 C 0.74380 0.15766 0.36690
 C2418 C 0.76144 0.18665 0.36300
 C2419 C 0.75625 0.20405 0.39194
 C2420 C 0.76362 0.18860 0.41692
 C2421 C 0.80154 0.16183 0.38946
 C2422 C 0.79420 0.17727 0.36455
 H2423 H 0.74048 0.12113 0.39746
 H2424 H 0.72702 0.14999 0.35136
 H2425 H 0.74790 0.22664 0.39284
 H2426 H 0.76169 0.19825 0.43894
 H2427 H 0.82436 0.15560 0.39346
 H2428 H 0.81064 0.18332 0.34791
 C2429 C 0.22716 0.34386 0.40978
 C2430 C 0.20093 0.33889 0.38832
 C2431 C 0.20839 0.32375 0.36326
 C2432 C 0.24126 0.31469 0.36148
 C2433 C 0.25863 0.34381 0.36549
 C2434 C 0.25126 0.35903 0.39062
 C2435 C 0.23911 0.31221 0.41537
 C2436 C 0.24664 0.29709 0.39027
 H2437 H 0.17808 0.34498 0.39251
 H2438 H 0.19201 0.31775 0.34661
 H2439 H 0.27530 0.35179 0.34991
 H2440 H 0.26161 0.38009 0.39636
 H2441 H 0.24112 0.30234 0.43730
 H2442 H 0.25525 0.27459 0.39101
 C2443 C 0.73078 0.84505 0.90814
 C2444 C 0.70504 0.83888 0.88642
 C2445 C 0.71333 0.82377 0.86165
 C2446 C 0.74650 0.81580 0.86040
 C2447 C 0.76287 0.84550 0.86430
 C2448 C 0.75467 0.86075 0.88916
 C2449 C 0.74368 0.81384 0.91428
 C2450 C 0.75205 0.79869 0.88944
 H2451 H 0.68184 0.84359 0.89056
 H2452 H 0.69730 0.81668 0.84508
 H2453 H 0.77955 0.85380 0.84890
 H2454 H 0.76431 0.88216 0.89485
 H2455 H 0.74563 0.80425 0.93634
 H2456 H 0.76137 0.77649 0.89053
 C2457 C 0.76566 0.84920 0.09105
 C2458 C 0.73223 0.84301 0.09700
 C2459 C 0.72658 0.82838 0.12294
 C2460 C 0.75441 0.82167 0.14117
 C2461 C 0.77491 0.80445 0.12002
 C2462 C 0.78068 0.81873 0.09398
 C2463 C 0.77553 0.86653 0.11883
 C2464 C 0.76979 0.85221 0.14493
 H2465 H 0.71411 0.85166 0.08380
 H2466 H 0.70416 0.82392 0.13074
 H2467 H 0.78423 0.78281 0.12515
 H2468 H 0.79486 0.80922 0.07694
 H2469 H 0.78546 0.88856 0.11815
 H2470 H 0.77515 0.86216 0.16622
 C2471 C 0.26740 0.34764 0.59126
 C2472 C 0.23411 0.34090 0.59744
 C2473 C 0.22886 0.32651 0.62360
 C2474 C 0.25694 0.32056 0.64171
 C2475 C 0.27762 0.30346 0.62065
 C2476 C 0.28299 0.31751 0.59444
 C2477 C 0.27709 0.36550 0.61876
 C2478 C 0.27176 0.35140 0.64506
 H2479 H 0.21575 0.34904 0.58424
 H2480 H 0.20657 0.32173 0.63159
 H2481 H 0.28740 0.28207 0.62599
 H2482 H 0.29725 0.30804 0.57744
 H2483 H 0.28659 0.38770 0.61775
 H2484 H 0.27701 0.36172 0.66621
 C2485 C 0.72772 0.15569 0.58845
 C2486 C 0.75152 0.13989 0.60726
 C2487 C 0.75949 0.15475 0.63243
 C2488 C 0.74299 0.18419 0.63685
 C2489 C 0.74867 0.20190 0.60814
 C2490 C 0.74055 0.18713 0.58299
 C2491 C 0.70180 0.16107 0.61024
 C2492 C 0.70987 0.17585 0.63533
 H2493 H 0.76124 0.11866 0.60126
 H2494 H 0.77605 0.14630 0.64775
 H2495 H 0.75793 0.22421 0.60751
 H2496 H 0.74272 0.19710 0.56110
 H2497 H 0.67873 0.15562 0.60624
 H2498 H 0.69375 0.18213 0.65215
 C2499 C 0.22801 0.65390 0.08868
 C2500 C 0.20143 0.66082 0.10921
 C2501 C 0.20904 0.67525 0.13462
 C2502 C 0.24240 0.68193 0.13765
 C2503 C 0.25762 0.65167 0.13410
 C2504 C 0.25011 0.63707 0.10863
 C2505 C 0.24262 0.68464 0.08368
 C2506 C 0.25028 0.69916 0.10914
 H2507 H 0.17828 0.65719 0.10383
 H2508 H 0.19247 0.68276 0.15047
 H2509 H 0.27305 0.64254 0.15019
 H2510 H 0.25910 0.61540 0.10311
 H2511 H 0.24621 0.69442 0.06189
 H2512 H 0.26062 0.72099 0.10885
 C2513 C 0.15678 0.58977 0.72690
 C2514 C 0.16224 0.61193 0.70128
 C2515 C 0.17724 0.63687 0.70963
 C2516 C 0.18571 0.63788 0.74274
 C2517 C 0.15632 0.63328 0.75944
 C2518 C 0.14126 0.60827 0.75118
 C2519 C 0.18822 0.58402 0.73933
 C2520 C 0.20318 0.60900 0.74777
 H2521 H 0.15681 0.60815 0.67818
 H2522 H 0.18370 0.65385 0.69369
 H2523 H 0.14808 0.64838 0.77635
 H2524 H 0.12005 0.60217 0.76102
 H2525 H 0.19807 0.56208 0.74096
 H2526 H 0.22551 0.60814 0.75677
 C2527 C 0.65623 0.09428 0.22842
 C2528 C 0.68795 0.08834 0.23998
 C2529 C 0.70318 0.11323 0.24823
 C2530 C 0.68558 0.14214 0.24396
 C2531 C 0.67624 0.14156 0.21111
 C2532 C 0.66103 0.11674 0.20290
 C2533 C 0.64134 0.11251 0.25329
 C2534 C 0.65665 0.13739 0.26141
 H2535 H 0.69775 0.06635 0.24123
 H2536 H 0.72571 0.11228 0.25669
 H2537 H 0.68220 0.15879 0.19524
 H2538 H 0.65492 0.11338 0.17991
 H2539 H 0.62039 0.10632 0.26361
 H2540 H 0.64887 0.15230 0.27870
 C2541 C 0.84708 0.09228 0.77035
 C2542 C 0.86297 0.11108 0.74642
 C2543 C 0.84788 0.13590 0.73790
 C2544 C 0.81813 0.13999 0.75402
 C2545 C 0.80097 0.11090 0.74857
 C2546 C 0.81596 0.08609 0.75725
 C2547 C 0.84088 0.11426 0.79589
 C2548 C 0.82592 0.13899 0.78727
 H2549 H 0.88439 0.10529 0.73699
 H2550 H 0.85633 0.15116 0.72117
 H2551 H 0.77885 0.10977 0.73907
 H2552 H 0.80632 0.06401 0.75536
 H2553 H 0.84558 0.11045 0.81915
 H2554 H 0.81892 0.15578 0.80313
 C2555 C 0.34172 0.58889 0.27306
 C2556 C 0.33584 0.61098 0.29855
 C2557 C 0.32134 0.63598 0.28987
 C2558 C 0.31368 0.63707 0.25657
 C2559 C 0.34339 0.63245 0.24055
 C2560 C 0.35801 0.60737 0.24915
 C2561 C 0.31054 0.58322 0.25988
 C2562 C 0.29603 0.60826 0.25111
 H2563 H 0.34043 0.60702 0.32182
 H2564 H 0.31457 0.65291 0.30567
 H2565 H 0.35217 0.64754 0.22384
 H2566 H 0.37935 0.60120 0.23979
 H2567 H 0.30050 0.56131 0.25804
 H2568 H 0.27391 0.60749 0.24158
 C2569 C 0.34383 0.40877 0.23042
 C2570 C 0.35928 0.38997 0.25450
 C2571 C 0.34456 0.36445 0.26191
 C2572 C 0.31559 0.35974 0.24464
 C2573 C 0.29747 0.38815 0.25007
 C2574 C 0.31209 0.41361 0.24248
 C2575 C 0.33930 0.38716 0.20420
 C2576 C 0.32466 0.36172 0.21171
 H2577 H 0.38017 0.39624 0.26479
 H2578 H 0.35278 0.34906 0.27856
 H2579 H 0.27496 0.38840 0.25874
 H2580 H 0.30177 0.43531 0.24448
 H2581 H 0.34521 0.39159 0.18130
 H2582 H 0.31895 0.34496 0.19532
 C2583 C 0.85081 0.90928 0.73507
 C2584 C 0.82100 0.90603 0.71886
 C2585 C 0.80680 0.87981 0.72399
 C2586 C 0.82343 0.85881 0.74507
 C2587 C 0.85450 0.85542 0.73089
 C2588 C 0.86875 0.88172 0.72581
 C2589 C 0.84341 0.90322 0.76824
 C2590 C 0.82889 0.87704 0.77325
 H2591 H 0.81184 0.92301 0.70438
 H2592 H 0.78561 0.87446 0.71379
 H2593 H 0.86481 0.83423 0.72584
 H2594 H 0.89107 0.88271 0.71670
 H2595 H 0.85112 0.91652 0.78676
 H2596 H 0.82364 0.86913 0.79546
 C2597 C 0.65057 0.91211 0.26802
 C2598 C 0.68164 0.91040 0.28193
 C2599 C 0.69603 0.88436 0.27682
 C2600 C 0.67827 0.86202 0.25805
 C2601 C 0.64852 0.85841 0.27483
 C2602 C 0.63407 0.88450 0.27989
 C2603 C 0.65541 0.90480 0.23469
 C2604 C 0.67014 0.87887 0.22965
 H2605 H 0.69146 0.92822 0.29493
 H2606 H 0.71805 0.88000 0.28554
 H2607 H 0.63917 0.83718 0.28164
 H2608 H 0.61244 0.88520 0.29056
 H2609 H 0.64596 0.91725 0.21639
 H2610 H 0.67387 0.87020 0.20745
 C2611 C 0.15719 0.41086 0.77105
 C2612 C 0.18849 0.41654 0.75806
 C2613 C 0.20358 0.39142 0.75055
 C2614 C 0.18631 0.36255 0.75695
 C2615 C 0.17805 0.36476 0.79004
 C2616 C 0.16300 0.38983 0.79751
 C2617 C 0.14163 0.39119 0.74771
 C2618 C 0.15681 0.36607 0.74035
 H2619 H 0.19816 0.43854 0.75540
 H2620 H 0.22584 0.39219 0.74127
 H2621 H 0.18480 0.34856 0.80660
 H2622 H 0.15797 0.39453 0.82055
 H2623 H 0.12036 0.39664 0.73782
 H2624 H 0.14858 0.35020 0.72414
 C2625 C 0.09388 0.77236 0.84659
 C2626 C 0.11569 0.79817 0.84051
 C2627 C 0.14057 0.78985 0.82558
 C2628 C 0.14183 0.75658 0.81774
 C2629 C 0.13762 0.74037 0.84745
 C2630 C 0.11266 0.74860 0.86249
 C2631 C 0.08803 0.75925 0.81539
 C2632 C 0.11296 0.75084 0.80046
 H2633 H 0.11162 0.82139 0.84525
 H2634 H 0.15725 0.80591 0.81858
 H2635 H 0.15291 0.72379 0.85591
 H2636 H 0.10678 0.73908 0.88389
 H2637 H 0.06608 0.75724 0.80563
 H2638 H 0.11207 0.74144 0.77826
 C2639 C 0.59288 0.26856 0.34890
 C2640 C 0.59950 0.23525 0.34299
 C2641 C 0.62544 0.23027 0.32819
 C2642 C 0.64289 0.25867 0.32105
 C2643 C 0.62115 0.27844 0.30382
 C2644 C 0.59515 0.28352 0.31829
 C2645 C 0.62053 0.27933 0.36589
 C2646 C 0.64659 0.27433 0.35137
 H2647 H 0.58663 0.21684 0.35180
 H2648 H 0.63368 0.20805 0.32377
 H2649 H 0.62587 0.28778 0.28205
 H2650 H 0.57769 0.29714 0.30881
 H2651 H 0.61983 0.28922 0.38788
 H2652 H 0.66783 0.28036 0.36106
 C2653 C 0.58735 0.72690 0.15599
 C2654 C 0.60537 0.75205 0.14105
 C2655 C 0.63053 0.76004 0.15591
 C2656 C 0.63578 0.74219 0.18447
 C2657 C 0.60718 0.74608 0.20277
 C2658 C 0.58206 0.73797 0.18802
 C2659 C 0.60984 0.70139 0.15975
 C2660 C 0.63495 0.70945 0.17457
 H2661 H 0.59889 0.76260 0.12035
 H2662 H 0.64536 0.77743 0.14800
 H2663 H 0.60658 0.75415 0.22549
 H2664 H 0.56029 0.73900 0.19837
 H2665 H 0.60654 0.67865 0.15262
 H2666 H 0.65242 0.69362 0.17948
 C2667 C 0.09362 0.22916 0.65436
 C2668 C 0.11311 0.25225 0.63806
 C2669 C 0.13812 0.26040 0.65307
 C2670 C 0.14168 0.24479 0.68318
 C2671 C 0.11277 0.25141 0.70012
 C2672 C 0.08777 0.24309 0.68520
 C2673 C 0.11477 0.20315 0.66122
 C2674 C 0.13971 0.21140 0.67608
 H2675 H 0.10762 0.26141 0.61643
 H2676 H 0.15386 0.27656 0.64435
 H2677 H 0.11188 0.26136 0.72207
 H2678 H 0.06577 0.24572 0.69476
 H2679 H 0.11009 0.17987 0.65724
 H2680 H 0.15589 0.19523 0.68363
 C2681 C 0.91128 0.26494 0.65200
 C2682 C 0.90829 0.28138 0.68176
 C2683 C 0.88224 0.27619 0.69625
 C2684 C 0.86114 0.25488 0.67992
 C2685 C 0.85746 0.26882 0.64875
 C2686 C 0.88355 0.27392 0.63424
 C2687 C 0.90537 0.23177 0.65970
 C2688 C 0.87937 0.22674 0.67448
 H2689 H 0.92532 0.29598 0.69070
 H2690 H 0.87709 0.28645 0.71747
 H2691 H 0.83621 0.27370 0.63853
 H2692 H 0.88428 0.28284 0.61183
 H2693 H 0.91866 0.21326 0.65205
 H2694 H 0.87160 0.20452 0.68001
 C2695 C 0.40834 0.77088 0.15705
 C2696 C 0.38695 0.79680 0.16350
 C2697 C 0.36169 0.78841 0.17786
 C2698 C 0.35966 0.75497 0.18485
 C2699 C 0.36398 0.73950 0.15480
 C2700 C 0.38931 0.74780 0.14032
 C2701 C 0.41351 0.75686 0.18797
 C2702 C 0.38819 0.74839 0.20236
 H2703 H 0.39162 0.82009 0.15946
 H2704 H 0.34524 0.80449 0.18504
 H2705 H 0.34849 0.72335 0.14572
 H2706 H 0.39532 0.73876 0.11877
 H2707 H 0.43528 0.75426 0.19795
 H2708 H 0.38860 0.73834 0.22429
 C2709 C 0.40718 0.23521 0.34823
 C2710 C 0.40103 0.26843 0.34120
 C2711 C 0.37501 0.27335 0.32659
 C2712 C 0.35702 0.24504 0.32069
 C2713 C 0.37829 0.22433 0.30391
 C2714 C 0.40434 0.21929 0.31819
 C2715 C 0.37953 0.22547 0.36593
 C2716 C 0.35339 0.23047 0.35160
 H2717 H 0.41412 0.28699 0.34924
 H2718 H 0.36704 0.29555 0.32155
 H2719 H 0.37321 0.21432 0.28256
 H2720 H 0.42147 0.20507 0.30895
 H2721 H 0.38035 0.21613 0.38817
 H2722 H 0.33215 0.22513 0.36177
 C2723 C 0.91193 0.73476 0.84777
 C2724 C 0.88414 0.72502 0.86524
 C2725 C 0.85812 0.72994 0.85067
 C2726 C 0.86198 0.74443 0.81975
 C2727 C 0.87988 0.77278 0.82571
 C2728 C 0.90577 0.76795 0.84057
 C2729 C 0.90937 0.71874 0.81774
 C2730 C 0.88342 0.72371 0.80321
 H2731 H 0.88478 0.71569 0.88748
 H2732 H 0.83681 0.72453 0.86066
 H2733 H 0.87192 0.79495 0.82056
 H2734 H 0.91870 0.78659 0.84868
 H2735 H 0.92660 0.70453 0.80869
 H2736 H 0.87853 0.71363 0.78184
   
