data_POSCAR
  _audit_creation_date              2014-09-24
  _audit_creation_method            'ToBaCCo'
  _symmetry_space_group_name_H-M    'P1'
  _symmetry_Int_Tables_number       1
  _symmetry_cell_setting            triclinic
  loop_
  _symmetry_equiv_pos_as_xyz
 x,y,z
_cell_length_a 53.4900
_cell_length_b 53.3353
_cell_length_c 55.2914
_cell_angle_alpha 89.973800
_cell_angle_beta 89.992100
_cell_angle_gamma 89.976800
loop_
  _atom_site_label
  _atom_site_type_symbol
  _atom_site_fract_x
  _atom_site_fract_y
  _atom_site_fract_z
C1 C 0.39082 -0.00030 0.24981
 C2 C 0.10931 -0.00080 0.74923
 C3 C 0.60922 0.49960 0.25032
 C4 C 0.89065 0.49912 0.75083
 C5 C 0.24967 0.36149 1.00040
 C6 C 0.74921 0.13796 0.99975
 C7 C 0.25068 0.63819 0.50021
 C8 C 0.75089 0.86159 0.49982
 C9 C -0.00026 0.24913 0.36894
 C10 C 0.00148 0.74909 0.13022
 C11 C 0.50064 0.24728 0.63122
 C12 C 0.50023 0.74736 0.86826
 C13 C -0.25076 0.64020 0.99981
 C14 C -0.24934 0.35999 0.50010
 C15 C 0.24904 -0.13990 -0.00006
 C16 C 0.25051 1.14020 0.49999
 C17 C 0.11096 0.50080 0.25005
 C18 C -0.11109 1.00044 0.24988
 C19 C 0.38896 0.50006 -0.24886
 C20 C 0.61110 0.00032 -0.25117
 C21 C -0.00126 0.25296 0.88037
 C22 C 0.49978 0.25114 0.11992
 C23 C 0.00032 0.75279 0.62040
 C24 C 0.49937 0.75105 0.38054
 Zr25 Zr 0.02129 -0.01721 1.03265
 O26 O 0.04648 -0.00128 1.05785
 O27 O 0.01888 -0.05418 1.04483
 O28 O 0.00562 -0.01636 1.06794
 O29 O 0.06580 -0.02815 0.98813
 O30 O -0.03276 0.00155 1.06229
 O31 O 0.05789 -0.03211 1.02858
 O32 O -0.00970 -0.07198 1.01935
 O33 O -0.01671 -0.02530 1.02752
 O34 O 0.01856 -0.03690 1.00002
 O35 O 0.00297 0.01769 1.03220
 O36 O 0.03744 0.00628 1.00617
 Zr37 Zr -0.02332 0.01355 0.96601
 Zr38 Zr -0.03465 0.00950 1.02517
 Zr39 Zr 0.03268 -0.01315 0.97348
 Zr40 Zr -0.01922 -0.04372 0.99434
 O41 O 0.06366 0.00823 0.96161
 O42 O -0.05300 -0.05652 1.01016
 O43 O -0.00495 -0.02151 0.96611
 O44 O -0.03901 -0.00992 0.99254
 O45 O -0.02077 0.03354 0.99852
 O46 O 0.01463 0.02143 0.97145
 C47 C 0.00553 -0.07254 1.03731
 C48 C 0.07194 -0.03461 1.00973
 C49 C -0.01571 -0.00827 1.07560
 O50 O -0.06712 -0.01075 1.03499
 O51 O -0.06624 0.02792 1.01111
 O52 O -0.05901 0.03049 0.97046
 C53 C -0.07239 0.03443 0.98954
 O54 O 0.04495 0.04783 1.03081
 Zr55 Zr 0.01719 0.04004 1.00436
 O56 O -0.02133 0.05068 0.95414
 O57 O -0.04080 0.04280 1.04511
 O58 O 0.00310 0.06913 1.02666
 O59 O 0.04933 0.05528 0.98736
 O60 O 0.00475 0.06913 0.98161
 C61 C -0.00987 0.06957 0.96319
 O62 O -0.04965 -0.00200 0.94170
 O63 O 0.04048 -0.04733 0.95556
 O64 O -0.00859 0.01069 0.93044
 O65 O 0.02915 -0.00864 0.93592
 O66 O -0.00487 -0.07447 0.97437
 O67 O -0.04366 -0.05280 0.96533
 C68 C 0.01209 0.00117 0.92260
 H69 H 0.02795 -0.05289 1.00003
 H70 H -0.05684 -0.01338 0.98907
 H71 H 0.02193 0.03180 0.95839
 H72 H 0.00504 0.02653 1.04781
 H73 H -0.05340 -0.07501 1.00846
 H74 H -0.07666 0.00000 1.04632
 H75 H -0.05694 0.04073 1.05368
 H76 H 0.01182 0.08482 1.02205
 H77 H -0.01436 -0.08959 0.97931
 H78 H 0.05659 -0.04507 0.94697
 H79 H 0.07327 -0.00255 0.95034
 H80 H 0.04898 0.07366 0.99000
 H81 H -0.05057 -0.06982 0.96785
 H82 H -0.05449 0.01152 0.93028
 H83 H 0.05140 -0.01483 1.06920
 H84 H 0.04870 0.06601 1.03082
 Zr85 Zr 0.52218 0.48130 0.53447
 O86 O 0.54744 0.49646 0.56005
 O87 O 0.51927 0.44416 0.54607
 O88 O 0.50641 0.48181 0.56973
 O89 O 0.56681 0.47093 0.48992
 O90 O 0.46818 0.50007 0.56421
 O91 O 0.55870 0.46620 0.53026
 O92 O 0.49062 0.42711 0.52019
 O93 O 0.48414 0.47363 0.52903
 O94 O 0.51944 0.46224 0.50150
 O95 O 0.50413 0.51635 0.53454
 O96 O 0.53863 0.50515 0.50846
 Zr97 Zr 0.47812 0.51367 0.46819
 Zr98 Zr 0.46648 0.50861 0.52722
 Zr99 Zr 0.53385 0.48639 0.47541
 Zr100 Zr 0.48164 0.45585 0.49553
 O101 O 0.56502 0.50775 0.46397
 O102 O 0.44760 0.44305 0.51084
 O103 O 0.49620 0.47846 0.46775
 O104 O 0.46212 0.48983 0.49424
 O105 O 0.48069 0.53301 0.50106
 O106 O 0.51610 0.52116 0.47391
 C107 C 0.50569 0.42610 0.53825
 C108 C 0.57283 0.46401 0.51142
 C109 C 0.48513 0.48998 0.57744
 O110 O 0.43386 0.48839 0.53662
 O111 O 0.43505 0.52746 0.51331
 O112 O 0.44250 0.53069 0.47275
 C113 C 0.42905 0.53436 0.49182
 O114 O 0.54651 0.54601 0.53377
 Zr115 Zr 0.51868 0.53909 0.50716
 O116 O 0.48033 0.55107 0.45716
 O117 O 0.46046 0.54164 0.54760
 O118 O 0.50495 0.56786 0.53007
 O119 O 0.55089 0.55446 0.49040
 O120 O 0.50633 0.56880 0.48514
 C121 C 0.49173 0.56973 0.46673
 O122 O 0.45182 0.49884 0.44343
 O123 O 0.54149 0.45246 0.45698
 O124 O 0.49299 0.51136 0.43263
 O125 O 0.53050 0.49155 0.43791
 O126 O 0.49591 0.42531 0.47520
 O127 O 0.45736 0.44752 0.46618
 C128 C 0.51358 0.50175 0.42470
 H129 H 0.52870 0.44618 0.50130
 H130 H 0.44429 0.48657 0.49062
 H131 H 0.52349 0.53174 0.46105
 H132 H 0.50622 0.52490 0.55030
 H133 H 0.44704 0.42461 0.50878
 H134 H 0.42433 0.49903 0.54806
 H135 H 0.44428 0.53954 0.55610
 H136 H 0.51389 0.58352 0.52582
 H137 H 0.48624 0.41020 0.47982
 H138 H 0.55764 0.45476 0.44848
 H139 H 0.57459 0.49710 0.45258
 H140 H 0.55068 0.57277 0.49340
 H141 H 0.45034 0.43049 0.46831
 H142 H 0.44715 0.51262 0.43225
 H143 H 0.55218 0.48265 0.57117
 H144 H 0.55058 0.56412 0.53404
 Zr145 Zr 0.48000 1.02170 0.53152
 O146 O 0.45537 1.00944 0.55907
 O147 O 0.48299 1.05996 0.53917
 O148 O 0.49645 1.02410 0.56642
 O149 O 0.43405 1.02738 0.48744
 O150 O 0.53455 1.00534 0.56167
 O151 O 0.44336 1.03621 0.52688
 O152 O 0.51042 1.07451 0.51075
 O153 O 0.51788 1.02886 0.52452
 O154 O 0.48181 1.03730 0.49683
 O155 O 0.49807 0.98679 0.53430
 O156 O 0.46287 0.99537 0.50829
 Zr157 Zr 0.52234 0.98285 0.46746
 Zr158 Zr 0.53551 0.99379 0.52544
 Zr159 Zr 0.46673 1.01071 0.47352
 Zr160 Zr 0.51943 1.04313 0.48937
 O161 O 0.43556 0.98805 0.46474
 O162 O 0.55354 1.05753 0.50308
 O163 O 0.50416 1.01784 0.46429
 O164 O 0.53898 1.00918 0.49076
 O165 O 0.52064 0.96693 0.50205
 O166 O 0.48453 0.97593 0.47469
 C167 C 0.49577 1.07732 0.52894
 C168 C 0.42867 1.03644 0.50835
 C169 C 0.51777 1.01633 0.57442
 O170 O 0.56816 1.01501 0.53228
 O171 O 0.56668 0.97375 0.51254
 O172 O 0.55807 0.96635 0.47272
 C173 C 0.57207 0.96466 0.49167
 O174 O 0.45554 0.95740 0.53725
 Zr175 Zr 0.48282 0.96146 0.50957
 O176 O 0.51990 0.94444 0.46020
 O177 O 0.54230 0.96276 0.54840
 O178 O 0.49685 0.93512 0.53494
 O179 O 0.45039 0.94447 0.49482
 O180 O 0.49498 0.92959 0.49057
 C181 C 0.50908 0.92679 0.47199
 O182 O 0.54816 0.99487 0.44084
 O183 O 0.45810 1.04268 0.45240
 O184 O 0.50684 0.98235 0.43209
 O185 O 0.46940 1.00252 0.43652
 O186 O 0.50480 1.07117 0.46612
 O187 O 0.54329 1.04840 0.45905
 C188 C 0.48620 0.99151 0.42379
 H189 H 0.47243 1.05322 0.49526
 H190 H 0.55671 1.01207 0.48644
 H191 H 0.47693 0.96416 0.46296
 H192 H 0.49636 0.97975 0.55078
 H193 H 0.55403 1.07567 0.49924
 H194 H 0.57805 1.00553 0.54437
 H195 H 0.55868 0.96570 0.55629
 H196 H 0.48767 0.91918 0.53249
 H197 H 0.51455 1.08671 0.46888
 H198 H 0.44175 1.03943 0.44456
 H199 H 0.42562 0.99750 0.45267
 H200 H 0.45068 0.92655 0.49955
 H201 H 0.55055 1.06547 0.45960
 H202 H 0.55247 0.98000 0.43089
 H203 H 0.45090 1.02435 0.56888
 H204 H 0.45116 0.93946 0.53909
 Zr205 Zr -0.02109 0.52198 1.03322
 O206 O -0.04576 0.51056 1.06108
 O207 O -0.01744 0.56031 1.04033
 O208 O -0.00444 0.52460 1.06803
 O209 O -0.06724 0.52744 0.98930
 O210 O 0.03339 0.50527 1.06334
 O211 O -0.05760 0.53685 1.02853
 O212 O 0.01006 0.57400 1.01157
 O213 O 0.01684 0.52851 1.02590
 O214 O -0.01930 0.53699 0.99829
 O215 O -0.00347 0.48686 1.03641
 O216 O -0.03869 0.49549 1.01047
 Zr217 Zr 0.02038 0.48154 0.96953
 Zr218 Zr 0.03402 0.49324 1.02726
 Zr219 Zr -0.03484 0.51020 0.97546
 Zr220 Zr 0.01835 0.54219 0.99054
 O221 O -0.06630 0.48778 0.96714
 O222 O 0.05280 0.55634 1.00370
 O223 O 0.00263 0.51671 0.96592
 O224 O 0.03747 0.50803 0.99234
 O225 O 0.01867 0.46620 1.00436
 O226 O -0.01748 0.47521 0.97704
 C227 C -0.00439 0.57730 1.02983
 C228 C -0.07240 0.53691 1.01009
 C229 C 0.01682 0.51665 1.07603
 O230 O 0.06692 0.51419 1.03371
 O231 O 0.06493 0.47275 1.01446
 O232 O 0.05601 0.46485 0.97479
 C233 C 0.07013 0.46335 0.99366
 O234 O -0.04645 0.45817 1.03996
 Zr235 Zr -0.01918 0.46134 1.01216
 O236 O 0.01749 0.44301 0.96299
 O237 O 0.04055 0.46241 1.05053
 O238 O -0.00551 0.43526 1.03795
 O239 O -0.05183 0.44449 0.99770
 O240 O -0.00739 0.42897 0.99375
 C241 C 0.00662 0.42568 0.97518
 O242 O 0.04614 0.49273 0.94252
 O243 O -0.04323 0.54198 0.95396
 O244 O 0.00468 0.48071 0.93424
 O245 O -0.03244 0.50149 0.93855
 O246 O 0.00387 0.57009 0.96704
 O247 O 0.04199 0.54662 0.95993
 C248 C -0.01586 0.49007 0.92590
 H249 H -0.02847 0.55301 0.99657
 H250 H 0.05520 0.51065 0.98788
 H251 H -0.02527 0.46335 0.96551
 H252 H -0.00518 0.48010 1.05300
 H253 H 0.05352 0.57440 0.99953
 H254 H 0.07677 0.50475 1.04587
 H255 H 0.05700 0.46525 1.05833
 H256 H -0.01496 0.41943 1.03581
 H257 H 0.01388 0.58552 0.96948
 H258 H -0.05965 0.53879 0.94624
 H259 H -0.07619 0.49717 0.95498
 H260 H -0.05175 0.42665 1.00272
 H261 H 0.04944 0.56362 0.96011
 H262 H 0.05020 0.47763 0.93280
 H263 H -0.04995 0.52570 1.07069
 H264 H -0.05118 0.44035 1.04202
 Zr265 Zr -0.02084 0.48146 0.46749
 O266 O -0.04609 0.49624 0.44167
 O267 O -0.01770 0.44419 0.45631
 O268 O -0.00497 0.48181 0.43227
 O269 O -0.06558 0.47114 0.51194
 O270 O 0.03306 0.50047 0.43773
 O271 O -0.05728 0.46622 0.47167
 O272 O 0.01089 0.42749 0.48248
 O273 O 0.01724 0.47408 0.47308
 O274 O -0.01807 0.46268 0.50062
 O275 O -0.00308 0.51664 0.46721
 O276 O -0.03757 0.50539 0.49326
 Zr277 Zr 0.02275 0.51465 0.53365
 Zr278 Zr 0.03461 0.50921 0.47469
 Zr279 Zr -0.03276 0.48690 0.52646
 Zr280 Zr 0.01977 0.45659 0.50675
 O281 O -0.06411 0.50812 0.53769
 O282 O 0.05385 0.44388 0.49147
 O283 O 0.00494 0.47931 0.53429
 O284 O 0.03901 0.49072 0.50783
 O285 O 0.02014 0.53373 0.50062
 O286 O -0.01528 0.52179 0.52776
 C287 C -0.00416 0.42623 0.46442
 C288 C -0.07147 0.46408 0.49046
 C289 C 0.01624 0.49014 0.42454
 O290 O 0.06738 0.48913 0.46552
 O291 O 0.06588 0.52832 0.48852
 O292 O 0.05826 0.53189 0.52903
 C293 C 0.07177 0.53545 0.50997
 O294 O -0.04557 0.54611 0.46753
 Zr295 Zr -0.01789 0.53948 0.49437
 O296 O 0.02005 0.55208 0.54450
 O297 O 0.04046 0.54215 0.45410
 O298 O -0.00415 0.56821 0.47141
 O299 O -0.05039 0.55462 0.51079
 O300 O -0.00609 0.56938 0.51637
 C301 C 0.00837 0.57055 0.53486
 O302 O 0.04915 0.50025 0.55857
 O303 O -0.04022 0.45303 0.54509
 O304 O 0.00783 0.51233 0.56919
 O305 O -0.02953 0.49226 0.56393
 O306 O 0.00575 0.42620 0.52745
 O307 O 0.04415 0.44867 0.53613
 C308 C -0.01270 0.50260 0.57713
 H309 H -0.02723 0.44656 0.50094
 H310 H 0.05685 0.48761 0.51151
 H311 H -0.02283 0.53237 0.54053
 H312 H -0.00518 0.52506 0.45138
 H313 H 0.05456 0.42546 0.49368
 H314 H 0.07686 0.49973 0.45400
 H315 H 0.05668 0.54010 0.44566
 H316 H -0.01321 0.58385 0.47552
 H317 H 0.01552 0.41109 0.52301
 H318 H -0.05643 0.45527 0.55352
 H319 H -0.07364 0.49747 0.54913
 H320 H -0.05035 0.57292 0.50769
 H321 H 0.05135 0.43170 0.53411
 H322 H 0.05364 0.51415 0.56967
 H323 H -0.05071 0.48231 0.43066
 H324 H -0.04970 0.56420 0.46709
 Zr325 Zr 0.47794 -0.01933 -0.03454
 O326 O 0.45266 -0.00481 -0.06048
 O327 O 0.48136 -0.05660 -0.04562
 O328 O 0.49388 -0.01901 -0.06974
 O329 O 0.43311 -0.02952 0.00987
 O330 O 0.53186 -0.00024 -0.06424
 O331 O 0.44154 -0.03468 -0.03035
 O332 O 0.51001 -0.07302 -0.01934
 O333 O 0.51603 -0.02652 -0.02880
 O334 O 0.48068 -0.03793 -0.00131
 O335 O 0.49558 0.01592 -0.03494
 O336 O 0.46106 0.00468 -0.00893
 Zr337 Zr 0.52123 0.01438 0.03156
 Zr338 Zr 0.53328 0.00867 -0.02733
 Zr339 Zr 0.46585 -0.01361 0.02439
 Zr340 Zr 0.51852 -0.04384 0.00495
 O341 O 0.43440 0.00756 0.03546
 O342 O 0.55278 -0.05648 -0.01002
 O343 O 0.50355 -0.02102 0.03234
 O344 O 0.53764 -0.00964 0.00591
 O345 O 0.51864 0.03326 -0.00157
 O346 O 0.48320 0.02136 0.02555
 C347 C 0.49508 -0.07442 -0.03748
 C348 C 0.42730 -0.03673 -0.01158
 C349 C 0.51509 -0.01065 -0.07744
 O350 O 0.56612 -0.01137 -0.03635
 O351 O 0.56447 0.02792 -0.01348
 O352 O 0.55672 0.03163 0.02699
 C353 C 0.57028 0.03513 0.00796
 O354 O 0.45288 0.04515 -0.03481
 Zr355 Zr 0.48061 0.03885 -0.00795
 O356 O 0.51848 0.05190 0.04209
 O357 O 0.53910 0.04155 -0.04802
 O358 O 0.49417 0.06747 -0.03113
 O359 O 0.44809 0.05402 0.00843
 O360 O 0.49240 0.06896 0.01377
 C361 C 0.50687 0.07030 0.03225
 O362 O 0.54755 0.00019 0.05667
 O363 O 0.45846 -0.04741 0.04315
 O364 O 0.50621 0.01227 0.06707
 O365 O 0.46896 -0.00802 0.06184
 O366 O 0.50448 -0.07423 0.02562
 O367 O 0.54274 -0.05152 0.03452
 C368 C 0.48572 0.00249 0.07502
 H369 H 0.47159 -0.05408 -0.00097
 H370 H 0.55549 -0.01268 0.00966
 H371 H 0.47560 0.03201 0.03824
 H372 H 0.49349 0.02426 -0.05082
 H373 H 0.55355 -0.07489 -0.00771
 H374 H 0.57562 -0.00078 -0.04787
 H375 H 0.55534 0.03950 -0.05641
 H376 H 0.48502 0.08309 -0.02713
 H377 H 0.51434 -0.08931 0.02127
 H378 H 0.44224 -0.04518 0.05154
 H379 H 0.42489 -0.00306 0.04692
 H380 H 0.44809 0.07230 0.00520
 H381 H 0.54997 -0.06850 0.03265
 H382 H 0.55198 0.01417 0.06770
 H383 H 0.44815 -0.01882 -0.07143
 H384 H 0.44861 0.06320 -0.03533
 Zr385 Zr 0.52072 0.52056 -0.03180
 O386 O 0.54531 0.50719 -0.05890
 O387 O 0.51845 0.55867 -0.04032
 O388 O 0.50449 0.52260 -0.06683
 O389 O 0.56644 0.52656 0.01244
 O390 O 0.46605 0.50462 -0.06190
 O391 O 0.55752 0.53464 -0.02724
 O392 O 0.49107 0.57432 -0.01239
 O393 O 0.48292 0.52853 -0.02518
 O394 O 0.51895 0.53695 0.00254
 O395 O 0.50209 0.48591 -0.03397
 O396 O 0.53728 0.49446 -0.00792
 Zr397 Zr 0.47736 0.48388 0.03280
 Zr398 Zr 0.46472 0.49376 -0.02548
 Zr399 Zr 0.53346 0.51062 0.02648
 Zr400 Zr 0.48139 0.54359 0.00963
 O401 O 0.56426 0.48768 0.03584
 O402 O 0.44760 0.55829 -0.00457
 O403 O 0.49609 0.51861 0.03535
 O404 O 0.46129 0.50996 0.00884
 O405 O 0.47901 0.46718 -0.00143
 O406 O 0.51510 0.47614 0.02594
 C407 C 0.50589 0.57648 -0.03055
 C408 C 0.57207 0.53511 -0.00861
 C409 C 0.48306 0.51510 -0.07476
 O410 O 0.43240 0.51532 -0.03287
 O411 O 0.43323 0.47439 -0.01238
 O412 O 0.44145 0.46777 0.02766
 C413 C 0.42759 0.46581 0.00864
 O414 O 0.54419 0.45572 -0.03599
 Zr415 Zr 0.51676 0.46087 -0.00862
 O416 O 0.47906 0.44562 0.04092
 O417 O 0.45761 0.46242 -0.04792
 O418 O 0.50247 0.43426 -0.03353
 O419 O 0.54877 0.44357 0.00671
 O420 O 0.50386 0.42966 0.01098
 C421 C 0.48960 0.42752 0.02954
 O422 O 0.45160 0.49701 0.05897
 O423 O 0.54239 0.54287 0.04706
 O424 O 0.49269 0.48375 0.06824
 O425 O 0.53049 0.50315 0.06362
 O426 O 0.49634 0.57190 0.03235
 O427 O 0.45744 0.54994 0.03969
 C428 C 0.51347 0.49264 0.07646
 H429 H 0.52856 0.55274 0.00383
 H430 H 0.44358 0.51323 0.01299
 H431 H 0.52243 0.46449 0.03794
 H432 H 0.50378 0.47851 -0.05031
 H433 H 0.44741 0.57652 -0.00111
 H434 H 0.42245 0.50575 -0.04484
 H435 H 0.44132 0.46545 -0.05595
 H436 H 0.51132 0.41820 -0.03066
 H437 H 0.48687 0.58754 0.02918
 H438 H 0.55864 0.53954 0.05505
 H439 H 0.57428 0.49722 0.04777
 H440 H 0.54817 0.42556 0.00235
 H441 H 0.45049 0.56712 0.03877
 H442 H 0.44695 0.48246 0.06921
 H443 H 0.55009 0.52179 -0.06903
 H444 H 0.54823 0.43767 -0.03747
 Zr445 Zr 0.02215 1.02039 0.46620
 O446 O 0.04677 1.00729 0.43901
 O447 O 0.01962 1.05852 0.45783
 O448 O 0.00582 1.02249 0.43121
 O449 O 0.06793 1.02635 0.51040
 O450 O -0.03253 1.00433 0.43616
 O451 O 0.05889 1.03465 0.47079
 O452 O -0.00779 1.07386 0.48588
 O453 O -0.01567 1.02814 0.47295
 O454 O 0.02038 1.03658 0.50063
 O455 O 0.00367 0.98567 0.46391
 O456 O 0.03888 0.99423 0.48992
 Zr457 Zr -0.02089 0.98316 0.53072
 Zr458 Zr -0.03372 0.99330 0.47253
 Zr459 Zr 0.03506 1.01018 0.52442
 Zr460 Zr -0.01719 1.04301 0.50784
 O461 O 0.06598 0.98733 0.53359
 O462 O -0.05112 1.05760 0.49385
 O463 O -0.00231 1.01796 0.53341
 O464 O -0.03713 1.00930 0.50694
 O465 O -0.01925 0.96666 0.49640
 O466 O 0.01686 0.97561 0.52374
 C467 C 0.00694 1.07619 0.46767
 C468 C 0.07347 1.03508 0.48939
 C469 C -0.01560 1.01494 0.42329
 O470 O -0.06613 1.01477 0.46528
 O471 O -0.06513 0.97379 0.48563
 O472 O -0.05678 0.96703 0.52562
 C473 C -0.07070 0.96513 0.50664
 O474 O 0.04594 0.95571 0.46168
 Zr475 Zr 0.01851 0.96055 0.48910
 O476 O -0.01907 0.94484 0.53855
 O477 O -0.04076 0.96201 0.45000
 O478 O 0.00436 0.93403 0.46401
 O479 O 0.05058 0.94328 0.50434
 O480 O 0.00570 0.92915 0.50846
 C481 C -0.00855 0.92684 0.52701
 O482 O -0.04661 0.99601 0.55706
 O483 O 0.04390 1.04236 0.54513
 O484 O -0.00548 0.98290 0.56613
 O485 O 0.03221 1.00252 0.56153
 O486 O -0.00228 1.07130 0.53061
 O487 O -0.04104 1.04911 0.53802
 C488 C 0.01526 0.99187 0.57436
 H489 H 0.02991 1.05242 0.50197
 H490 H -0.05485 1.01248 0.51115
 H491 H 0.02426 0.96392 0.53567
 H492 H 0.00535 0.97836 0.44754
 H493 H -0.05139 1.07581 0.49738
 H494 H -0.07608 1.00522 0.45330
 H495 H -0.05708 0.96501 0.44201
 H496 H 0.01330 0.91801 0.46678
 H497 H -0.01183 1.08691 0.52753
 H498 H 0.06018 1.03906 0.55308
 H499 H 0.07599 0.99684 0.54555
 H500 H 0.05004 0.92529 0.49989
 H501 H -0.04806 1.06627 0.53720
 H502 H -0.05117 0.98137 0.56723
 H503 H 0.05144 1.02197 0.42894
 H504 H 0.05013 0.93769 0.46015
 Zr505 Zr 0.73189 0.27203 0.21635
 O506 O 0.74726 0.29683 0.19041
 O507 O 0.69460 0.27008 0.20539
 O508 O 0.73159 0.25596 0.18118
 O509 O 0.72310 0.31733 0.26067
 O510 O 0.74891 0.21722 0.18677
 O511 O 0.71761 0.30894 0.22048
 O512 O 0.67717 0.24219 0.23189
 O513 O 0.72336 0.23412 0.22215
 O514 O 0.71335 0.26998 0.24963
 O515 O 0.76639 0.25310 0.21596
 O516 O 0.75643 0.28818 0.24188
 Zr517 Zr 0.76402 0.22761 0.28254
 Zr518 Zr 0.75784 0.21560 0.22367
 Zr519 Zr 0.73812 0.28409 0.27523
 Zr520 Zr 0.70610 0.23230 0.25595
 O521 O 0.76040 0.31490 0.28601
 O522 O 0.69227 0.19852 0.24080
 O523 O 0.72938 0.24659 0.28328
 O524 O 0.73951 0.21191 0.25694
 O525 O 0.78285 0.22948 0.24937
 O526 O 0.77236 0.26546 0.27644
 C527 C 0.67628 0.25724 0.21375
 C528 C 0.71592 0.32327 0.23923
 C529 C 0.73915 0.23438 0.17352
 O530 O 0.73680 0.18328 0.21489
 O531 O 0.77627 0.18385 0.23755
 O532 O 0.78025 0.19156 0.27801
 C533 C 0.78342 0.17790 0.25898
 O534 O 0.79693 0.29502 0.21609
 Zr535 Zr 0.78980 0.26736 0.24290
 O536 O 0.80152 0.22891 0.29299
 O537 O 0.79029 0.20860 0.20282
 O538 O 0.81777 0.25290 0.21956
 O539 O 0.80624 0.29925 0.25937
 O540 O 0.81945 0.25411 0.26440
 C541 C 0.82030 0.23958 0.28291
 O542 O 0.74895 0.20172 0.30763
 O543 O 0.70481 0.29279 0.29415
 O544 O 0.76246 0.24279 0.31802
 O545 O 0.74364 0.28088 0.31269
 O546 O 0.67639 0.24733 0.27682
 O547 O 0.69764 0.20817 0.28545
 C548 C 0.75346 0.26372 0.32591
 H549 H 0.69756 0.27965 0.25005
 H550 H 0.73592 0.19413 0.26074
 H551 H 0.78328 0.27267 0.28911
 H552 H 0.77473 0.25488 0.20007
 H553 H 0.67390 0.19844 0.24307
 H554 H 0.74700 0.17337 0.20338
 H555 H 0.78770 0.19235 0.19451
 H556 H 0.83365 0.26153 0.22352
 H557 H 0.66101 0.23798 0.27252
 H558 H 0.70765 0.30901 0.30246
 H559 H 0.75021 0.32487 0.29748
 H560 H 0.82445 0.29851 0.25611
 H561 H 0.68053 0.20140 0.28347
 H562 H 0.76272 0.19678 0.31867
 H563 H 0.73345 0.30184 0.17944
 H564 H 0.81505 0.29878 0.21562
 Zr565 Zr 0.77304 0.73017 0.71729
 O566 O 0.76242 0.70515 0.68941
 O567 O 0.81109 0.73517 0.71004
 O568 O 0.77508 0.74701 0.68250
 O569 O 0.77996 0.68401 0.76117
 O570 O 0.75453 0.78426 0.68723
 O571 O 0.78889 0.69397 0.72189
 O572 O 0.82385 0.76329 0.73868
 O573 O 0.77831 0.76840 0.72462
 O574 O 0.78808 0.73243 0.75216
 O575 O 0.73747 0.74670 0.71420
 O576 O 0.74729 0.71169 0.74014
 Zr577 Zr 0.73153 0.77040 0.78112
 Zr578 Zr 0.74260 0.78447 0.72335
 Zr579 Zr 0.76194 0.71600 0.77510
 Zr580 Zr 0.79201 0.77035 0.75993
 O581 O 0.74071 0.68371 0.78362
 O582 O 0.80492 0.80542 0.74688
 O583 O 0.76718 0.75376 0.78463
 O584 O 0.75733 0.78838 0.75823
 O585 O 0.71618 0.76822 0.74634
 O586 O 0.72651 0.73224 0.77360
 C587 C 0.82758 0.74895 0.72039
 C588 C 0.78938 0.67908 0.74031
 C589 C 0.76645 0.76806 0.67453
 O590 O 0.76246 0.81810 0.71680
 O591 O 0.72137 0.81488 0.73624
 O592 O 0.71383 0.80565 0.77592
 C593 C 0.71195 0.81982 0.75707
 O594 O 0.71014 0.70289 0.71058
 Zr595 Zr 0.71261 0.73011 0.73854
 O596 O 0.69329 0.76605 0.78789
 O597 O 0.71159 0.79007 0.70020
 O598 O 0.68602 0.74327 0.71305
 O599 O 0.69714 0.69661 0.75280
 O600 O 0.68007 0.74040 0.75736
 C601 C 0.67639 0.75427 0.77597
 O602 O 0.74187 0.79655 0.80813
 O603 O 0.79400 0.70870 0.79643
 O604 O 0.73128 0.75457 0.81638
 O605 O 0.75323 0.71807 0.81204
 O606 O 0.82038 0.75661 0.78325
 O607 O 0.79577 0.79410 0.79058
 C608 C 0.74127 0.73428 0.82470
 H609 H 0.80435 0.72374 0.75379
 H610 H 0.75940 0.80623 0.76269
 H611 H 0.71500 0.72398 0.78515
 H612 H 0.73074 0.74479 0.69763
 H613 H 0.82290 0.80674 0.75101
 H614 H 0.75272 0.82769 0.70468
 H615 H 0.71389 0.80665 0.69240
 H616 H 0.67054 0.73332 0.71524
 H617 H 0.83544 0.76711 0.78073
 H618 H 0.79144 0.69214 0.80417
 H619 H 0.75046 0.67412 0.79573
 H620 H 0.67934 0.69604 0.74787
 H621 H 0.81252 0.80198 0.79045
 H622 H 0.72671 0.80009 0.81789
 H623 H 0.77763 0.70146 0.67977
 H624 H 0.69249 0.69776 0.70846
 Zr625 Zr 0.22733 0.23011 0.78296
 O626 O 0.23835 0.20482 0.81050
 O627 O 0.18951 0.23547 0.79104
 O628 O 0.22604 0.24678 0.81784
 O629 O 0.21914 0.18432 0.73897
 O630 O 0.24682 0.28386 0.81293
 O631 O 0.21112 0.19406 0.77847
 O632 O 0.17648 0.26404 0.76290
 O633 O 0.22227 0.26843 0.77592
 O634 O 0.21158 0.23275 0.74840
 O635 O 0.26310 0.24629 0.78548
 O636 O 0.25245 0.21157 0.75952
 Zr637 Zr 0.26790 0.27039 0.71858
 Zr638 Zr 0.25812 0.28417 0.77661
 Zr639 Zr 0.23712 0.21625 0.72488
 Zr640 Zr 0.20786 0.27076 0.74090
 O641 O 0.25782 0.18378 0.71577
 O642 O 0.19556 0.30594 0.75423
 O643 O 0.23203 0.25412 0.71563
 O644 O 0.24271 0.28845 0.74205
 O645 O 0.28395 0.26785 0.75304
 O646 O 0.27271 0.23215 0.72582
 C647 C 0.17300 0.24963 0.78119
 C648 C 0.21016 0.17930 0.75998
 C649 C 0.23494 0.26773 0.82575
 O650 O 0.23870 0.31794 0.78372
 O651 O 0.27930 0.31449 0.76350
 O652 O 0.28595 0.30550 0.72362
 C653 C 0.28830 0.31953 0.74251
 O654 O 0.29016 0.20226 0.78839
 Zr655 Zr 0.28732 0.22965 0.76058
 O656 O 0.30594 0.26572 0.71103
 O657 O 0.28963 0.28930 0.79921
 O658 O 0.31455 0.24246 0.78556
 O659 O 0.30216 0.19604 0.74594
 O660 O 0.31952 0.23962 0.74108
 C661 C 0.32295 0.25359 0.72248
 O662 O 0.25720 0.29677 0.69187
 O663 O 0.20455 0.20952 0.70412
 O664 O 0.26746 0.25473 0.68326
 O665 O 0.24523 0.21843 0.68781
 O666 O 0.17880 0.25740 0.71821
 O667 O 0.20367 0.29463 0.71037
 C668 C 0.25719 0.23455 0.67503
 H669 H 0.19520 0.22424 0.74708
 H670 H 0.24070 0.30635 0.73772
 H671 H 0.28391 0.22383 0.71404
 H672 H 0.27013 0.24422 0.80192
 H673 H 0.17752 0.30746 0.75045
 H674 H 0.24876 0.32735 0.79572
 H675 H 0.28764 0.30583 0.80716
 H676 H 0.32991 0.23241 0.78301
 H677 H 0.16390 0.26805 0.72110
 H678 H 0.20678 0.19298 0.69623
 H679 H 0.24771 0.17438 0.70380
 H680 H 0.32005 0.19525 0.75052
 H681 H 0.18698 0.30263 0.71081
 H682 H 0.27219 0.30025 0.68185
 H683 H 0.22332 0.20121 0.82042
 H684 H 0.30783 0.19703 0.79020
 Zr685 Zr 0.26857 0.77221 0.28359
 O686 O 0.25368 0.79689 0.30988
 O687 O 0.30610 0.77029 0.29382
 O688 O 0.26945 0.75604 0.31872
 O689 O 0.27637 0.81773 0.23928
 O690 O 0.25212 0.71729 0.31331
 O691 O 0.28267 0.80915 0.27933
 O692 O 0.32312 0.74265 0.26686
 O693 O 0.27710 0.73433 0.27753
 O694 O 0.28646 0.77033 0.24998
 O695 O 0.23413 0.75323 0.28451
 O696 O 0.24351 0.78844 0.25854
 Zr697 Zr 0.23530 0.72803 0.21784
 Zr698 Zr 0.24263 0.71577 0.27655
 Zr699 Zr 0.26119 0.78452 0.22486
 Zr700 Zr 0.29371 0.73269 0.24341
 O701 O 0.23861 0.81529 0.21453
 O702 O 0.30793 0.69894 0.25831
 O703 O 0.26987 0.74707 0.21655
 O704 O 0.26033 0.71226 0.24295
 O705 O 0.21712 0.72973 0.25135
 O706 O 0.22697 0.76583 0.22418
 C707 C 0.32432 0.75763 0.28502
 C708 C 0.28396 0.82357 0.26061
 C709 C 0.26201 0.73445 0.32646
 O710 O 0.26395 0.68348 0.28489
 O711 O 0.22403 0.68405 0.26289
 O712 O 0.21925 0.69194 0.22254
 C713 C 0.21647 0.67819 0.24158
 O714 O 0.20357 0.79519 0.28499
 Zr715 Zr 0.21018 0.76756 0.25804
 O716 O 0.19758 0.72927 0.20812
 O717 O 0.21057 0.70859 0.29790
 O718 O 0.18270 0.75309 0.28192
 O719 O 0.19330 0.79941 0.24186
 O720 O 0.18012 0.75421 0.23718
 C721 C 0.17896 0.73975 0.21865
 O722 O 0.24992 0.70224 0.19240
 O723 O 0.29412 0.79342 0.20543
 O724 O 0.23628 0.74331 0.18236
 O725 O 0.25510 0.78141 0.18750
 O726 O 0.32292 0.74782 0.22197
 O727 O 0.30164 0.70865 0.21374
 C728 C 0.24515 0.76426 0.17438
 H729 H 0.30221 0.78004 0.24929
 H730 H 0.26390 0.69450 0.23904
 H731 H 0.21580 0.77304 0.21171
 H732 H 0.22606 0.75493 0.30054
 H733 H 0.32625 0.69890 0.25569
 H734 H 0.25397 0.67350 0.29653
 H735 H 0.21336 0.69231 0.30611
 H736 H 0.16674 0.76175 0.27829
 H737 H 0.33841 0.73847 0.22593
 H738 H 0.29108 0.80966 0.19722
 H739 H 0.24856 0.82535 0.20294
 H740 H 0.17517 0.79862 0.24547
 H741 H 0.31878 0.70184 0.21542
 H742 H 0.23594 0.69734 0.18160
 H743 H 0.26769 0.80188 0.32062
 H744 H 0.18547 0.79900 0.28576
 Zr745 Zr 0.23295 0.77214 0.71669
 O746 O 0.24919 0.79702 0.69133
 O747 O 0.19592 0.77068 0.70492
 O748 O 0.23320 0.75638 0.68141
 O749 O 0.22342 0.81706 0.76122
 O750 O 0.25009 0.71744 0.68700
 O751 O 0.21884 0.80911 0.72084
 O752 O 0.17765 0.74268 0.73076
 O753 O 0.22399 0.73424 0.72196
 O754 O 0.21363 0.76991 0.74954
 O755 O 0.26730 0.75292 0.71686
 O756 O 0.25703 0.78785 0.74290
 Zr757 Zr 0.26317 0.72682 0.78315
 Zr758 Zr 0.25827 0.71542 0.72404
 Zr759 Zr 0.23790 0.78358 0.77580
 Zr760 Zr 0.20593 0.73223 0.75535
 O761 O 0.26014 0.81414 0.78729
 O762 O 0.19219 0.69875 0.73953
 O763 O 0.22868 0.74608 0.78332
 O764 O 0.23915 0.71156 0.75688
 O765 O 0.28278 0.72885 0.75041
 O766 O 0.27196 0.76465 0.77756
 C767 C 0.17730 0.75795 0.71278
 C768 C 0.21678 0.82326 0.73968
 C769 C 0.24070 0.73479 0.67372
 O770 O 0.23723 0.68330 0.71459
 O771 O 0.27623 0.68345 0.73802
 O772 O 0.27930 0.69071 0.77863
 C773 C 0.28287 0.67724 0.75954
 O774 O 0.29819 0.79457 0.71805
 Zr775 Zr 0.29019 0.76672 0.74444
 O776 O 0.30041 0.72769 0.79447
 O777 O 0.29109 0.70841 0.70375
 O778 O 0.31858 0.75223 0.72159
 O779 O 0.30653 0.79831 0.76153
 O780 O 0.31920 0.75300 0.76650
 C781 C 0.31949 0.73830 0.78490
 O782 O 0.24725 0.70082 0.80763
 O783 O 0.20425 0.79232 0.79411
 O784 O 0.26099 0.74170 0.81872
 O785 O 0.24261 0.78000 0.81332
 O786 O 0.17585 0.74725 0.77572
 O787 O 0.19658 0.70787 0.78441
 C788 C 0.25203 0.76265 0.82659
 H789 H 0.19791 0.77970 0.74972
 H790 H 0.23534 0.69377 0.76043
 H791 H 0.28264 0.77166 0.79052
 H792 H 0.27600 0.75478 0.70116
 H793 H 0.17376 0.69882 0.74138
 H794 H 0.24762 0.67345 0.70319
 H795 H 0.28856 0.69225 0.69525
 H796 H 0.33444 0.76067 0.72600
 H797 H 0.16050 0.73807 0.77099
 H798 H 0.20700 0.80844 0.80262
 H799 H 0.24977 0.82408 0.79863
 H800 H 0.32480 0.79742 0.75868
 H801 H 0.17949 0.70121 0.78196
 H802 H 0.26071 0.69564 0.81893
 H803 H 0.23570 0.80228 0.68010
 H804 H 0.31635 0.79816 0.71799
 Zr805 Zr 0.27184 0.23000 0.21774
 O806 O 0.26005 0.20490 0.19036
 O807 O 0.30978 0.23421 0.20960
 O808 O 0.27347 0.24650 0.18279
 O809 O 0.27924 0.18419 0.26187
 O810 O 0.25364 0.28413 0.18761
 O811 O 0.28734 0.19365 0.22231
 O812 O 0.32368 0.26238 0.23769
 O813 O 0.27790 0.26820 0.22458
 O814 O 0.28773 0.23236 0.25224
 O815 O 0.23648 0.24708 0.21525
 O816 O 0.24635 0.21213 0.24130
 Zr817 Zr 0.23253 0.27148 0.28207
 Zr818 Zr 0.24243 0.28484 0.22395
 Zr819 Zr 0.26190 0.21654 0.27588
 Zr820 Zr 0.29246 0.27027 0.25955
 O821 O 0.24039 0.18463 0.28505
 O822 O 0.30561 0.30497 0.24581
 O823 O 0.26798 0.25430 0.28495
 O824 O 0.25804 0.28885 0.25845
 O825 O 0.21632 0.26922 0.24766
 O826 O 0.22671 0.23335 0.27500
 C827 C 0.32674 0.24776 0.21948
 C828 C 0.28813 0.17895 0.24086
 C829 C 0.26505 0.26764 0.17482
 O830 O 0.26257 0.31815 0.21673
 O831 O 0.22182 0.31562 0.23699
 O832 O 0.21512 0.30689 0.27692
 C833 C 0.21292 0.32087 0.25797
 O834 O 0.20837 0.20365 0.21265
 Zr835 Zr 0.21195 0.23112 0.24028
 O836 O 0.19441 0.26787 0.28976
 O837 O 0.21104 0.29067 0.20133
 O838 O 0.18498 0.24444 0.21526
 O839 O 0.19622 0.19804 0.25520
 O840 O 0.18005 0.24219 0.25973
 C841 C 0.17704 0.25630 0.27829
 O842 O 0.24402 0.29772 0.30855
 O843 O 0.29428 0.20896 0.29666
 O844 O 0.23275 0.25596 0.31746
 O845 O 0.25398 0.21905 0.31296
 O846 O 0.32117 0.25639 0.28238
 O847 O 0.29733 0.29429 0.28986
 C848 C 0.24254 0.23555 0.32573
 H849 H 0.30390 0.22343 0.25362
 H850 H 0.26047 0.30672 0.26270
 H851 H 0.21533 0.22538 0.28686
 H852 H 0.22935 0.24512 0.19884
 H853 H 0.32371 0.30602 0.24948
 H854 H 0.25270 0.32776 0.20472
 H855 H 0.21340 0.30714 0.19334
 H856 H 0.16939 0.23479 0.21791
 H857 H 0.33632 0.26664 0.27942
 H858 H 0.29164 0.19251 0.30459
 H859 H 0.25026 0.17499 0.29703
 H860 H 0.17830 0.19775 0.25066
 H861 H 0.31415 0.30199 0.28921
 H862 H 0.22917 0.30163 0.31863
 H863 H 0.27494 0.20084 0.18039
 H864 H 0.19059 0.19881 0.21096
 Zr865 Zr 0.72892 0.72960 0.28273
 O866 O 0.74132 0.70430 0.30971
 O867 O 0.69124 0.73400 0.29182
 O868 O 0.72810 0.74598 0.31774
 O869 O 0.72016 0.68414 0.23855
 O870 O 0.74804 0.78350 0.31265
 O871 O 0.71315 0.69334 0.27834
 O872 O 0.67684 0.76253 0.26428
 O873 O 0.72293 0.76788 0.27619
 O874 O 0.71216 0.73227 0.24863
 O875 O 0.76443 0.74645 0.28449
 O876 O 0.75371 0.71174 0.25849
 Zr877 Zr 0.76685 0.77125 0.21770
 Zr878 Zr 0.75848 0.78430 0.27609
 Zr879 Zr 0.73731 0.71646 0.22430
 Zr880 Zr 0.70748 0.77026 0.24160
 O881 O 0.75831 0.68442 0.21447
 O882 O 0.69489 0.80500 0.25571
 O883 O 0.73124 0.75432 0.21554
 O884 O 0.74203 0.78861 0.24199
 O885 O 0.78393 0.76869 0.25170
 O886 O 0.77260 0.73303 0.22448
 C887 C 0.67415 0.74781 0.28248
 C888 C 0.71182 0.67878 0.25973
 C889 C 0.73675 0.76705 0.32560
 O890 O 0.73873 0.81771 0.28389
 O891 O 0.77890 0.81504 0.26273
 O892 O 0.78456 0.80654 0.22261
 C893 C 0.78729 0.82040 0.24158
 O894 O 0.79246 0.70296 0.28630
 Zr895 Zr 0.78824 0.73051 0.25880
 O896 O 0.80471 0.76735 0.20900
 O897 O 0.79042 0.78977 0.29805
 O898 O 0.81593 0.74373 0.28312
 O899 O 0.80332 0.69730 0.24355
 O900 O 0.81965 0.74124 0.23844
 C901 C 0.82226 0.75542 0.21985
 O902 O 0.75481 0.79769 0.19161
 O903 O 0.70435 0.70937 0.20424
 O904 O 0.76580 0.75589 0.18228
 O905 O 0.74447 0.71908 0.18707
 O906 O 0.67809 0.75664 0.21947
 O907 O 0.70196 0.79444 0.21149
 C908 C 0.75578 0.73554 0.17414
 H909 H 0.69591 0.72347 0.24761
 H910 H 0.73959 0.80652 0.23788
 H911 H 0.78362 0.72502 0.21234
 H912 H 0.77193 0.74437 0.30073
 H913 H 0.67670 0.80618 0.25248
 H914 H 0.74893 0.82718 0.29574
 H915 H 0.78834 0.80621 0.30616
 H916 H 0.83143 0.73406 0.28003
 H917 H 0.66306 0.76694 0.22289
 H918 H 0.70665 0.69294 0.19617
 H919 H 0.74806 0.67493 0.20267
 H920 H 0.82136 0.69685 0.24764
 H921 H 0.68515 0.80215 0.21252
 H922 H 0.76942 0.80158 0.18120
 H923 H 0.72666 0.70027 0.32001
 H924 H 0.81030 0.69818 0.28767
 Zr925 Zr 0.76721 0.27232 0.78346
 O926 O 0.75113 0.29703 0.80906
 O927 O 0.80442 0.27111 0.79475
 O928 O 0.76743 0.25648 0.81873
 O929 O 0.77585 0.31745 0.73893
 O930 O 0.75079 0.21744 0.81323
 O931 O 0.78102 0.30938 0.77923
 O932 O 0.82261 0.24341 0.76857
 O933 O 0.77641 0.23450 0.77801
 O934 O 0.78612 0.27033 0.75037
 O935 O 0.73301 0.25287 0.78364
 O936 O 0.74268 0.28796 0.75758
 Zr937 Zr 0.73650 0.22702 0.71726
 Zr938 Zr 0.74224 0.21546 0.77627
 Zr939 Zr 0.76141 0.28393 0.72444
 Zr940 Zr 0.79405 0.23273 0.74440
 O941 O 0.73877 0.31435 0.71329
 O942 O 0.80826 0.19935 0.76008
 O943 O 0.77084 0.24652 0.71674
 O944 O 0.76097 0.21184 0.74321
 O945 O 0.71731 0.22882 0.75023
 O946 O 0.72748 0.26477 0.72302
 C947 C 0.82307 0.25863 0.78658
 C948 C 0.78275 0.32360 0.76040
 C949 C 0.76014 0.23484 0.82645
 O950 O 0.76365 0.18346 0.78541
 O951 O 0.72432 0.18342 0.76243
 O952 O 0.72068 0.19082 0.72189
 C953 C 0.71743 0.17726 0.74098
 O954 O 0.70181 0.29436 0.78288
 Zr955 Zr 0.70967 0.26661 0.75637
 O956 O 0.69911 0.22765 0.70641
 O957 O 0.70972 0.20812 0.79692
 O958 O 0.68170 0.25190 0.77958
 O959 O 0.69284 0.29809 0.73949
 O960 O 0.68046 0.25267 0.73471
 C961 C 0.68005 0.23802 0.71629
 O962 O 0.75228 0.20118 0.69254
 O963 O 0.79475 0.29301 0.70575
 O964 O 0.73820 0.24200 0.68169
 O965 O 0.75632 0.28042 0.68697
 O966 O 0.82370 0.24799 0.72360
 O967 O 0.80322 0.20845 0.71524
 C968 C 0.74694 0.26302 0.67376
 H969 H 0.80175 0.28024 0.75001
 H970 H 0.76487 0.19408 0.73957
 H971 H 0.71658 0.27173 0.71020
 H972 H 0.72448 0.25462 0.79944
 H973 H 0.82666 0.19956 0.75802
 H974 H 0.75348 0.17349 0.79690
 H975 H 0.71249 0.19195 0.80534
 H976 H 0.66572 0.26024 0.77538
 H977 H 0.83919 0.23893 0.72813
 H978 H 0.79175 0.30914 0.69732
 H979 H 0.74892 0.32441 0.70187
 H980 H 0.67461 0.29706 0.74257
 H981 H 0.82038 0.20189 0.71750
 H982 H 0.73871 0.19596 0.68139
 H983 H 0.76472 0.30234 0.82013
 H984 H 0.68363 0.29784 0.78315
 C985 C 0.40698 0.99950 0.27135
 C986 C 0.42013 0.99812 0.28909
 C987 C 0.43544 0.99556 0.31047
 C988 C 0.44831 1.01625 0.31988
 C989 C 0.46185 1.01397 0.34146
 C990 C 0.46268 0.99097 0.35376
 C991 C 0.45029 0.97013 0.34404
 C992 C 0.43676 0.97241 0.32245
 C993 C 0.47351 0.98965 0.37766
 C994 C 0.48067 0.98965 0.39839
 H995 H 0.44741 1.03426 0.31085
 H996 H 0.47102 1.03033 0.34895
 H997 H 0.45044 0.95234 0.35351
 H998 H 0.42686 0.95627 0.31541
 C999 C -0.09357 0.49870 0.77262
 C1000 C -0.08074 0.49713 0.79058
 C1001 C -0.06583 0.49434 0.81220
 C1002 C -0.05211 0.51461 0.82133
 C1003 C -0.03886 0.51215 0.84307
 C1004 C -0.03917 0.48938 0.85579
 C1005 C -0.05245 0.46895 0.84636
 C1006 C -0.06568 0.47141 0.82463
 C1007 C -0.02852 0.48802 0.87976
 C1008 C -0.02143 0.48806 0.90052
 H1009 H -0.05209 0.53245 0.81195
 H1010 H -0.02900 0.52822 0.85031
 H1011 H -0.05318 0.45137 0.85616
 H1012 H -0.07625 0.45560 0.81780
 C1013 C 0.09312 -0.00205 0.77072
 C1014 C 0.07976 -0.00203 0.78837
 C1015 C 0.06405 -0.00115 0.80962
 C1016 C 0.05591 -0.02335 0.82067
 C1017 C 0.04202 -0.02236 0.84214
 C1018 C 0.03610 0.00082 0.85267
 C1019 C 0.04375 0.02302 0.84131
 C1020 C 0.05763 0.02204 0.81984
 C1021 C 0.02494 0.00166 0.87646
 C1022 C 0.01762 0.00186 0.89714
 H1023 H 0.06078 -0.04139 0.81301
 H1024 H 0.03655 -0.03969 0.85091
 H1025 H 0.03964 0.04105 0.84941
 H1026 H 0.06384 0.03935 0.81152
 C1027 C 0.59337 0.49854 0.27205
 C1028 C 0.58028 0.49871 0.28990
 C1029 C 0.56488 0.49974 0.31136
 C1030 C 0.55949 0.52293 0.32210
 C1031 C 0.54584 0.52399 0.34371
 C1032 C 0.53740 0.50187 0.35469
 C1033 C 0.54233 0.47870 0.34365
 C1034 C 0.55598 0.47764 0.32204
 C1035 C 0.52640 0.50264 0.37855
 C1036 C 0.51913 0.50270 0.39925
 H1037 H 0.56630 0.54016 0.31407
 H1038 H 0.54251 0.54199 0.35220
 H1039 H 0.53624 0.46142 0.35210
 H1040 H 0.56006 0.45959 0.31397
 C1041 C 0.59307 0.49967 0.22878
 C1042 C 0.57986 0.49855 0.21105
 C1043 C 0.56446 0.49630 0.18970
 C1044 C 0.56228 0.47307 0.17801
 C1045 C 0.54866 0.47103 0.15646
 C1046 C 0.53701 0.49220 0.14649
 C1047 C 0.53870 0.51531 0.15850
 C1048 C 0.55234 0.51734 0.18005
 C1049 C 0.52612 0.49099 0.12262
 C1050 C 0.51894 0.49098 0.10189
 H1051 H 0.57160 0.45666 0.18524
 H1052 H 0.54785 0.45315 0.14721
 H1053 H 0.53012 0.53190 0.15082
 H1054 H 0.55390 0.53541 0.18886
 C1055 C 0.09349 0.99911 0.72745
 C1056 C 0.08057 0.99790 0.70954
 C1057 C 0.06549 0.99556 0.68798
 C1058 C 0.06401 0.97244 0.67599
 C1059 C 0.05064 0.97035 0.65430
 C1060 C 0.03856 0.99134 0.64448
 C1061 C 0.03957 1.01433 0.65677
 C1062 C 0.05295 1.01642 0.67846
 C1063 C 0.02783 0.99014 0.62053
 C1064 C 0.02074 0.99015 0.59978
 H1065 H 0.07365 0.95617 0.68311
 H1066 H 0.05035 0.95257 0.64483
 H1067 H 0.03065 1.03081 0.64922
 H1068 H 0.05398 1.03441 0.68751
 C1069 C -0.09318 0.49815 0.72931
 C1070 C -0.07989 0.49845 0.71160
 C1071 C -0.06432 0.49973 0.69028
 C1072 C -0.05513 0.47777 0.67956
 C1073 C -0.04137 0.47907 0.65803
 C1074 C -0.03663 0.50234 0.64709
 C1075 C -0.04533 0.52433 0.65813
 C1076 C -0.05908 0.52303 0.67966
 C1077 C -0.02557 0.50332 0.62327
 C1078 C -0.01827 0.50351 0.60257
 H1079 H -0.05908 0.45964 0.68753
 H1080 H -0.03508 0.46189 0.64953
 H1081 H -0.04214 0.54240 0.64972
 H1082 H -0.06612 0.54015 0.68772
 C1083 C 0.40662 -0.00118 0.22804
 C1084 C 0.41962 -0.00088 0.21013
 C1085 C 0.43486 0.00032 0.18859
 C1086 C 0.44430 -0.02165 0.17810
 C1087 C 0.45780 -0.02047 0.15640
 C1088 C 0.46201 0.00269 0.14507
 C1089 C 0.45303 0.02471 0.15585
 C1090 C 0.43955 0.02353 0.17755
 C1091 C 0.47290 0.00350 0.12117
 C1092 C 0.48012 0.00354 0.10045
 H1093 H 0.44078 -0.03971 0.18640
 H1094 H 0.46432 -0.03767 0.14811
 H1095 H 0.45583 0.04269 0.14715
 H1096 H 0.43231 0.04065 0.18542
 C1097 C 0.27223 0.37742 0.00018
 C1098 C 0.29132 0.38959 0.00139
 C1099 C 0.31456 0.40330 0.00389
 C1100 C 0.33303 0.39463 0.01988
 C1101 C 0.35571 0.40758 0.02229
 C1102 C 0.36013 0.42938 0.00877
 C1103 C 0.34160 0.43814 -0.00711
 C1104 C 0.31891 0.42518 -0.00953
 C1105 C 0.38397 0.44219 0.01031
 C1106 C 0.40393 0.45293 0.01047
 H1107 H 0.32996 0.37776 0.03039
 H1108 H 0.36986 0.40048 0.03452
 H1109 H 0.34478 0.45487 -0.01780
 H1110 H 0.30486 0.43213 -0.02195
 C1111 C -0.22649 0.87742 0.49940
 C1112 C -0.20734 0.88951 0.50043
 C1113 C -0.18401 0.90310 0.50269
 C1114 C -0.16575 0.89481 0.51908
 C1115 C -0.14298 0.90764 0.52126
 C1116 C -0.13826 0.92892 0.50710
 C1117 C -0.15658 0.93730 0.49080
 C1118 C -0.17936 0.92447 0.48862
 C1119 C -0.11436 0.94162 0.50847
 C1120 C -0.09437 0.95229 0.50852
 H1121 H -0.16906 0.87833 0.53009
 H1122 H -0.12900 0.90083 0.53383
 H1123 H -0.15318 0.95364 0.47963
 H1124 H -0.19325 0.93112 0.47589
 C1125 C -0.22810 0.12218 0.99910
 C1126 C -0.20896 0.11011 0.99733
 C1127 C -0.18569 0.09648 0.99435
 C1128 C -0.18227 0.07296 1.00519
 C1129 C -0.15957 0.06006 1.00241
 C1130 C -0.14008 0.07052 0.98871
 C1131 C -0.14357 0.09396 0.97772
 C1132 C -0.16627 0.10685 0.98049
 C1133 C -0.11615 0.05780 0.98716
 C1134 C -0.09612 0.04716 0.98719
 H1135 H -0.19705 0.06466 1.01593
 H1136 H -0.15712 0.04206 1.01118
 H1137 H -0.12868 0.10240 0.96723
 H1138 H -0.16861 0.12499 0.97196
 C1139 C 0.27334 0.62236 0.49983
 C1140 C 0.29248 0.61026 0.49833
 C1141 C 0.31577 0.59660 0.49569
 C1142 C 0.31954 0.57379 0.50777
 C1143 C 0.34227 0.56089 0.50533
 C1144 C 0.36145 0.57063 0.49075
 C1145 C 0.35761 0.59335 0.47854
 C1146 C 0.33488 0.60625 0.48097
 C1147 C 0.38537 0.55789 0.48939
 C1148 C 0.40537 0.54720 0.48950
 H1149 H 0.30500 0.56606 0.51920
 H1150 H 0.34499 0.54344 0.51502
 H1151 H 0.37226 0.60123 0.46735
 H1152 H 0.33227 0.62384 0.47150
 C1153 C 0.22780 0.62269 0.50075
 C1154 C 0.20854 0.61082 0.50240
 C1155 C 0.18514 0.59738 0.50523
 C1156 C 0.16553 0.60810 0.51858
 C1157 C 0.14276 0.59535 0.52127
 C1158 C 0.13936 0.57170 0.51068
 C1159 C 0.15903 0.56091 0.49747
 C1160 C 0.18181 0.57367 0.49478
 C1161 C 0.11541 0.55904 0.51222
 C1162 C 0.09541 0.54836 0.51222
 H1163 H 0.16780 0.62639 0.52680
 H1164 H 0.12773 0.60404 0.53138
 H1165 H 0.15667 0.54274 0.48903
 H1166 H 0.19674 0.56510 0.48443
 C1167 C 0.72637 0.12241 0.00012
 C1168 C 0.70711 0.11050 0.00159
 C1169 C 0.68370 0.09705 0.00418
 C1170 C 0.68022 0.07371 -0.00699
 C1171 C 0.65742 0.06096 -0.00457
 C1172 C 0.63786 0.07138 0.00908
 C1173 C 0.64141 0.09464 0.02038
 C1174 C 0.66422 0.10739 0.01796
 C1175 C 0.61390 0.05872 0.01041
 C1176 C 0.59390 0.04805 0.01028
 H1177 H 0.69506 0.06544 -0.01768
 H1178 H 0.65494 0.04308 -0.01354
 H1179 H 0.62648 0.10304 0.03085
 H1180 H 0.66660 0.12539 0.02673
 C1181 C 0.72804 0.87711 0.50005
 C1182 C 0.70875 0.88899 0.49888
 C1183 C 0.68531 0.90241 0.49648
 C1184 C 0.68129 0.92497 0.50889
 C1185 C 0.65848 0.93774 0.50650
 C1186 C 0.63950 0.92811 0.49164
 C1187 C 0.64358 0.90561 0.47913
 C1188 C 0.66638 0.89285 0.48152
 C1189 C 0.61560 0.94083 0.49009
 C1190 C 0.59565 0.95160 0.48991
 H1191 H 0.69571 0.93263 0.52049
 H1192 H 0.65558 0.95503 0.51639
 H1193 H 0.62908 0.89784 0.46769
 H1194 H 0.66920 0.87545 0.47178
 C1195 C 0.22675 0.37690 1.00085
 C1196 C 0.20737 0.38864 0.99988
 C1197 C 0.18380 0.40184 0.99770
 C1198 C 0.17918 0.42358 1.01123
 C1199 C 0.15622 0.43612 1.00908
 C1200 C 0.13769 0.42706 0.99337
 C1201 C 0.14236 0.40539 0.97977
 C1202 C 0.16532 0.39286 0.98191
 C1203 C 0.11368 0.43959 0.99196
 C1204 C 0.09369 0.45027 0.99187
 H1205 H 0.19324 0.43078 1.02349
 H1206 H 0.15286 0.45277 1.01981
 H1207 H 0.12823 0.39808 0.96764
 H1208 H 0.16861 0.37609 0.97131
 C1209 C -0.00494 0.27181 0.38262
 C1210 C -0.00807 0.29077 0.39378
 C1211 C -0.01063 0.31363 0.40681
 C1212 C -0.00402 0.31448 0.43126
 C1213 C -0.00392 0.33736 0.44338
 C1214 C -0.01040 0.35927 0.43096
 C1215 C -0.01763 0.35833 0.40668
 C1216 C -0.01773 0.33544 0.39456
 C1217 C -0.00842 0.38287 0.44281
 C1218 C -0.00643 0.40272 0.45268
 H1219 H 0.00167 0.29762 0.44073
 H1220 H 0.00175 0.33808 0.46218
 H1221 H -0.02258 0.37530 0.39701
 H1222 H -0.02266 0.33484 0.37556
 C1223 C 0.49617 -0.22944 -0.11869
 C1224 C 0.49337 -0.21015 -0.10798
 C1225 C 0.49094 -0.18702 -0.09537
 C1226 C 0.49513 -0.18627 -0.07041
 C1227 C 0.49486 -0.16333 -0.05839
 C1228 C 0.49043 -0.14127 -0.07139
 C1229 C 0.48573 -0.14208 -0.09625
 C1230 C 0.48599 -0.16502 -0.10828
 C1231 C 0.49180 -0.11770 -0.05939
 C1232 C 0.49328 -0.09789 -0.04937
 H1233 H 0.49913 -0.20328 -0.06041
 H1234 H 0.49859 -0.16272 -0.03913
 H1235 H 0.48236 -0.12500 -0.10636
 H1236 H 0.48290 -0.16556 -0.12764
 C1237 C 0.00679 -0.22756 1.11786
 C1238 C 0.01035 -0.20807 1.10770
 C1239 C 0.01325 -0.18468 1.09564
 C1240 C 0.01355 -0.18394 1.07037
 C1241 C 0.01342 -0.16090 1.05851
 C1242 C 0.01295 -0.13873 1.07200
 C1243 C 0.01337 -0.13946 1.09728
 C1244 C 0.01351 -0.16251 1.10913
 C1245 C 0.01062 -0.11529 1.05990
 C1246 C 0.00826 -0.09569 1.04964
 H1247 H 0.01312 -0.20111 1.05989
 H1248 H 0.01300 -0.16036 1.03892
 H1249 H 0.01292 -0.12230 1.10775
 H1250 H 0.01305 -0.16305 1.12872
 C1251 C 0.50514 0.27088 0.61900
 C1252 C 0.50822 0.29046 0.60886
 C1253 C 0.51085 0.31386 0.59675
 C1254 C 0.51155 0.31450 0.57147
 C1255 C 0.51175 0.33750 0.55953
 C1256 C 0.51123 0.35972 0.57294
 C1257 C 0.51111 0.35908 0.59822
 C1258 C 0.51091 0.33608 0.61016
 C1259 C 0.50958 0.38317 0.56074
 C1260 C 0.50782 0.40282 0.55047
 H1261 H 0.51132 0.29730 0.56105
 H1262 H 0.51175 0.33797 0.53994
 H1263 H 0.51062 0.37628 0.60864
 H1264 H 0.51019 0.33560 0.62974
 C1265 C 0.49483 1.22817 0.61347
 C1266 C 0.49096 1.21178 0.59918
 C1267 C 0.48780 1.19126 0.58304
 C1268 C 0.50469 1.18805 0.56398
 C1269 C 0.50474 1.16571 0.55095
 C1270 C 0.48791 1.14669 0.55708
 C1271 C 0.47022 1.15037 0.57537
 C1272 C 0.47017 1.17271 0.58840
 C1273 C 0.49047 1.12253 0.54644
 C1274 C 0.49298 1.10193 0.53826
 H1275 H 0.51856 1.20227 0.55999
 H1276 H 0.51857 1.16282 0.53691
 H1277 H 0.45727 1.13559 0.58026
 H1278 H 0.45728 1.17502 0.60336
 C1279 C -0.00338 0.72963 1.11255
 C1280 C -0.00671 0.71296 1.09843
 C1281 C -0.00959 0.69213 1.08261
 C1282 C -0.02852 0.67464 1.08706
 C1283 C -0.02881 0.65212 1.07434
 C1284 C -0.01016 0.64719 1.05726
 C1285 C 0.00812 0.66514 1.05205
 C1286 C 0.00841 0.68767 1.06478
 C1287 C -0.00835 0.62282 1.04690
 C1288 C -0.00650 0.60206 1.03894
 H1289 H -0.04231 0.67793 1.10107
 H1290 H -0.04289 0.63817 1.07852
 H1291 H 0.02268 0.66128 1.03895
 H1292 H 0.02326 0.70106 1.06150
 C1293 C 0.50685 0.72772 -0.11478
 C1294 C 0.51131 0.71092 -0.10109
 C1295 C 0.51499 0.68999 -0.08552
 C1296 C 0.50061 0.68786 -0.06449
 C1297 C 0.50059 0.66542 -0.05160
 C1298 C 0.51493 0.64523 -0.05984
 C1299 C 0.53022 0.64776 -0.08021
 C1300 C 0.53024 0.67019 -0.09310
 C1301 C 0.51204 0.62123 -0.04891
 C1302 C 0.50916 0.60082 -0.04037
 H1303 H 0.48855 0.70307 -0.05875
 H1304 H 0.48861 0.66345 -0.03591
 H1305 H 0.54122 0.63208 -0.08671
 H1306 H 0.54115 0.67169 -0.10956
 C1307 C 0.00603 1.22894 0.38541
 C1308 C 0.01037 1.21173 0.39866
 C1309 C 0.01412 1.19040 0.41369
 C1310 C -0.00004 1.18778 0.43481
 C1311 C 0.00029 1.16512 0.44734
 C1312 C 0.01474 1.14521 0.43866
 C1313 C 0.02975 1.14820 0.41814
 C1314 C 0.02942 1.17086 0.40561
 C1315 C 0.01237 1.12107 0.44940
 C1316 C 0.00988 1.10058 0.45787
 H1317 H -0.01212 1.20280 0.44094
 H1318 H -0.01146 1.16279 0.46314
 H1319 H 0.04084 1.13275 0.41131
 H1320 H 0.04017 1.17275 0.38910
 C1321 C 0.74901 0.65605 0.97801
 C1322 C 0.74761 0.66892 0.96005
 C1323 C 0.74504 0.68388 0.93840
 C1324 C 0.72212 0.68448 0.92608
 C1325 C 0.71985 0.69774 0.90432
 C1326 C 0.74046 0.71059 0.89475
 C1327 C 0.76322 0.71044 0.90735
 C1328 C 0.76550 0.69717 0.92912
 C1329 C 0.73919 0.72131 0.87078
 C1330 C 0.73927 0.72851 0.85005
 H1331 H 0.70616 0.67424 0.93303
 H1332 H 0.70225 0.69737 0.89462
 H1333 H 0.77941 0.71998 0.90000
 H1334 H 0.78333 0.69682 0.93841
 C1335 C 0.25038 0.15642 0.47845
 C1336 C 0.24909 0.16958 0.46068
 C1337 C 0.24663 0.18486 0.43923
 C1338 C 0.22350 0.18647 0.42738
 C1339 C 0.22130 0.19992 0.40573
 C1340 C 0.24221 0.21196 0.39579
 C1341 C 0.26521 0.21084 0.40794
 C1342 C 0.26741 0.19737 0.42960
 C1343 C 0.24089 0.22276 0.37186
 C1344 C 0.24084 0.22993 0.35112
 H1345 H 0.20730 0.17682 0.43459
 H1346 H 0.20351 0.20030 0.39637
 H1347 H 0.28161 0.21974 0.40030
 H1348 H 0.28541 0.19623 0.43852
 C1349 C 0.74981 0.34406 0.47838
 C1350 C 0.75014 0.33092 0.46055
 C1351 C 0.75137 0.31547 0.43912
 C1352 C 0.72949 0.30575 0.42878
 C1353 C 0.73069 0.29201 0.40721
 C1354 C 0.75378 0.28780 0.39586
 C1355 C 0.77570 0.29706 0.40649
 C1356 C 0.77450 0.31079 0.42805
 C1357 C 0.75457 0.27669 0.37203
 C1358 C 0.75458 0.26935 0.35135
 H1359 H 0.71149 0.30926 0.43709
 H1360 H 0.71356 0.28529 0.39903
 H1361 H 0.79362 0.29428 0.39776
 H1362 H 0.79155 0.31823 0.43581
 C1363 C 0.24803 0.84385 0.97845
 C1364 C 0.24825 0.83045 0.96080
 C1365 C 0.24938 0.81471 0.93956
 C1366 C 0.22739 0.80576 0.92882
 C1367 C 0.22856 0.79182 0.90737
 C1368 C 0.25172 0.78666 0.89654
 C1369 C 0.27373 0.79513 0.90759
 C1370 C 0.27257 0.80905 0.92904
 C1371 C 0.25262 0.77548 0.87275
 C1372 C 0.25281 0.76815 0.85206
 H1373 H 0.20935 0.81004 0.93671
 H1374 H 0.21137 0.78573 0.89885
 H1375 H 0.29173 0.79162 0.89925
 H1376 H 0.28971 0.81591 0.93710
 C1377 C 0.24968 0.84420 0.02170
 C1378 C 0.24912 0.83110 0.03957
 C1379 C 0.24759 0.81573 0.06105
 C1380 C 0.22446 0.81208 0.07247
 C1381 C 0.22303 0.79841 0.09407
 C1382 C 0.24471 0.78820 0.10438
 C1383 C 0.26776 0.79138 0.09266
 C1384 C 0.26920 0.80506 0.07106
 C1385 C 0.24384 0.77716 0.12824
 C1386 C 0.24385 0.76986 0.14894
 H1387 H 0.20762 0.82026 0.06497
 H1388 H 0.20516 0.79644 0.10309
 H1389 H 0.28473 0.78392 0.10059
 H1390 H 0.28720 0.80777 0.06246
 C1391 C 0.75142 0.34378 0.52163
 C1392 C 0.75102 0.33043 0.53933
 C1393 C 0.74970 0.31478 0.56063
 C1394 C 0.77156 0.30521 0.57115
 C1395 C 0.77026 0.29135 0.59265
 C1396 C 0.74709 0.28689 0.60376
 C1397 C 0.72520 0.29598 0.59293
 C1398 C 0.72649 0.30982 0.57143
 C1399 C 0.74616 0.27578 0.62758
 C1400 C 0.74601 0.26850 0.64829
 H1401 H 0.78962 0.30894 0.56305
 H1402 H 0.78737 0.28478 0.60100
 H1403 H 0.70721 0.29302 0.60147
 H1404 H 0.70946 0.31716 0.56353
 C1405 C 0.25041 0.15600 0.52180
 C1406 C 0.25152 0.16888 0.53978
 C1407 C 0.25379 0.18389 0.56141
 C1408 C 0.23299 0.19652 0.57086
 C1409 C 0.23503 0.20985 0.59261
 C1410 C 0.25789 0.21071 0.60503
 C1411 C 0.27881 0.19852 0.59529
 C1412 C 0.27678 0.18520 0.57355
 C1413 C 0.25904 0.22151 0.62896
 C1414 C 0.25899 0.22875 0.64967
 H1415 H 0.21511 0.19562 0.56171
 H1416 H 0.21861 0.21888 0.60009
 H1417 H 0.29650 0.19870 0.60484
 H1418 H 0.29300 0.17548 0.56648
 C1419 C 0.74902 0.65637 0.02136
 C1420 C 0.74999 0.66952 0.03916
 C1421 C 0.75207 0.68481 0.06062
 C1422 C 0.73086 0.69623 0.07064
 C1423 C 0.73277 0.70970 0.09231
 C1424 C 0.75589 0.71190 0.10409
 C1425 C 0.77720 0.70095 0.09377
 C1426 C 0.77529 0.68750 0.07209
 C1427 C 0.75711 0.72271 0.12801
 C1428 C 0.75721 0.72990 0.14874
 H1429 H 0.71279 0.69425 0.06201
 H1430 H 0.71608 0.71775 0.10025
 H1431 H 0.79511 0.70218 0.10283
 H1432 H 0.79182 0.67871 0.06459
 C1433 C 0.12722 0.52315 0.25001
 C1434 C 0.13965 0.54209 0.24863
 C1435 C 0.15363 0.56519 0.24596
 C1436 C 0.17538 0.56943 0.25950
 C1437 C 0.18854 0.59204 0.25701
 C1438 C 0.18011 0.61059 0.24094
 C1439 C 0.15846 0.60626 0.22728
 C1440 C 0.14531 0.58366 0.22976
 C1441 C 0.19300 0.63444 0.23947
 C1442 C 0.20373 0.65443 0.23945
 H1443 H 0.18206 0.55537 0.27209
 H1444 H 0.20514 0.59516 0.26782
 H1445 H 0.15159 0.62044 0.21492
 H1446 H 0.12854 0.58067 0.21917
 C1447 C 0.62750 0.02257 0.74887
 C1448 C 0.64009 0.04142 0.74755
 C1449 C 0.65428 0.06440 0.74495
 C1450 C 0.67575 0.06866 0.75891
 C1451 C 0.68908 0.09118 0.75650
 C1452 C 0.68111 0.10963 0.74010
 C1453 C 0.65975 0.10527 0.72601
 C1454 C 0.64644 0.08276 0.72841
 C1455 C 0.69411 0.13343 0.73872
 C1456 C 0.70484 0.15343 0.73878
 H1457 H 0.68206 0.05470 0.77176
 H1458 H 0.70544 0.09433 0.76764
 H1459 H 0.65324 0.11936 0.71339
 H1460 H 0.62989 0.07975 0.71749
 C1461 C 0.87263 0.02278 0.25025
 C1462 C 0.86019 0.04172 0.25182
 C1463 C 0.84618 0.06480 0.25463
 C1464 C 0.82402 0.06883 0.24166
 C1465 C 0.81087 0.09144 0.24422
 C1466 C 0.81971 0.11022 0.25981
 C1467 C 0.84177 0.10610 0.27293
 C1468 C 0.85491 0.08350 0.27037
 C1469 C 0.80684 0.13410 0.26127
 C1470 C 0.79613 0.15412 0.26123
 H1471 H 0.81702 0.05461 0.22943
 H1472 H 0.79395 0.09439 0.23383
 H1473 H 0.84896 0.12046 0.28491
 H1474 H 0.87200 0.08068 0.28054
 C1475 C 0.37258 0.52235 0.75130
 C1476 C 0.36004 0.54123 0.75275
 C1477 C 0.34590 0.56425 0.75547
 C1478 C 0.32417 0.56846 0.74187
 C1479 C 0.31090 0.59101 0.74435
 C1480 C 0.31918 0.60956 0.76049
 C1481 C 0.34080 0.60525 0.77422
 C1482 C 0.35406 0.58271 0.77174
 C1483 C 0.30622 0.63339 0.76190
 C1484 C 0.29550 0.65341 0.76183
 H1485 H 0.31761 0.55442 0.72922
 H1486 H 0.29433 0.59411 0.73348
 H1487 H 0.34756 0.61942 0.78663
 H1488 H 0.37081 0.57975 0.78239
 C1489 C 0.37412 0.47672 0.75100
 C1490 C 0.36275 0.45710 0.74968
 C1491 C 0.34986 0.43333 0.74721
 C1492 C 0.36144 0.41330 0.73513
 C1493 C 0.34909 0.39024 0.73263
 C1494 C 0.32500 0.38699 0.74213
 C1495 C 0.31338 0.40707 0.75411
 C1496 C 0.32573 0.43013 0.75662
 C1497 C 0.31253 0.36291 0.74059
 C1498 C 0.30174 0.34293 0.74051
 H1499 H 0.38006 0.41548 0.72771
 H1500 H 0.35840 0.37491 0.72346
 H1501 H 0.29483 0.40484 0.76168
 H1502 H 0.31649 0.44540 0.76595
 C1503 C 0.87395 0.97717 0.24972
 C1504 C 0.86243 0.95764 0.24840
 C1505 C 0.84930 0.93399 0.24595
 C1506 C 0.82528 0.93091 0.25568
 C1507 C 0.81272 0.90796 0.25322
 C1508 C 0.82400 0.88787 0.24096
 C1509 C 0.84797 0.89100 0.23113
 C1510 C 0.86053 0.91395 0.23358
 C1511 C 0.81137 0.86386 0.23951
 C1512 C 0.80056 0.84389 0.23949
 H1513 H 0.81631 0.94619 0.26524
 H1514 H 0.79428 0.90582 0.26105
 H1515 H 0.85702 0.87566 0.22174
 H1516 H 0.87905 0.91603 0.22591
 C1517 C 0.62594 0.97698 0.74880
 C1518 C 0.63733 0.95736 0.75002
 C1519 C 0.65025 0.93360 0.75238
 C1520 C 0.67422 0.93033 0.74260
 C1521 C 0.68661 0.90728 0.74503
 C1522 C 0.67521 0.88728 0.75731
 C1523 C 0.65128 0.89058 0.76718
 C1524 C 0.63889 0.91363 0.76475
 C1525 C 0.68772 0.86322 0.75883
 C1526 C 0.69852 0.84324 0.75895
 H1527 H 0.68329 0.94555 0.73303
 H1528 H 0.70503 0.90500 0.73718
 H1529 H 0.64214 0.87531 0.77660
 H1530 H 0.62040 0.91587 0.77247
 C1531 C 0.12596 0.47756 0.24997
 C1532 C 0.13753 0.45804 0.25115
 C1533 C 0.15069 0.43440 0.25348
 C1534 C 0.13994 0.41462 0.26663
 C1535 C 0.15255 0.39168 0.26901
 C1536 C 0.17608 0.38830 0.25831
 C1537 C 0.18688 0.40812 0.24525
 C1538 C 0.17427 0.43106 0.24287
 C1539 C 0.18877 0.36432 0.25979
 C1540 C 0.19961 0.34436 0.25987
 H1541 H 0.12176 0.41691 0.27499
 H1542 H 0.14388 0.37655 0.27903
 H1543 H 0.20498 0.40577 0.23675
 H1544 H 0.18286 0.44613 0.23270
 C1545 C 0.01966 0.25084 0.86384
 C1546 C 0.03731 0.24943 0.85061
 C1547 C 0.05892 0.24823 0.83565
 C1548 C 0.07372 0.22661 0.83576
 C1549 C 0.09630 0.22641 0.82323
 C1550 C 0.10398 0.24783 0.81067
 C1551 C 0.08885 0.26921 0.81001
 C1552 C 0.06627 0.26941 0.82254
 C1553 C 0.12810 0.24843 0.79981
 C1554 C 0.14860 0.24902 0.79119
 H1555 H 0.06814 0.21025 0.84606
 H1556 H 0.10806 0.20986 0.82386
 H1557 H 0.09482 0.28587 0.80038
 H1558 H 0.05491 0.28624 0.82258
 C1559 C 0.52055 0.74738 0.36459
 C1560 C 0.53844 0.74497 0.35180
 C1561 C 0.56034 0.74302 0.33732
 C1562 C 0.56421 0.76011 0.31850
 C1563 C 0.58693 0.76020 0.30619
 C1564 C 0.60565 0.74322 0.31278
 C1565 C 0.60150 0.72564 0.33112
 C1566 C 0.57879 0.72555 0.34343
 C1567 C 0.62964 0.74479 0.30175
 C1568 C 0.64998 0.74626 0.29288
 H1569 H 0.55002 0.77380 0.31388
 H1570 H 0.59015 0.77389 0.29204
 H1571 H 0.61602 0.71253 0.33632
 H1572 H 0.57590 0.71244 0.35815
 C1573 C 0.52226 0.25761 0.13312
 C1574 C 0.54110 0.26200 0.14399
 C1575 C 0.56388 0.26567 0.15678
 C1576 C 0.58581 0.27079 0.14392
 C1577 C 0.60869 0.27082 0.15594
 C1578 C 0.60951 0.26570 0.18074
 C1579 C 0.58750 0.26145 0.19374
 C1580 C 0.56461 0.26141 0.18173
 C1581 C 0.63304 0.26309 0.19248
 C1582 C 0.65283 0.26039 0.20222
 H1583 H 0.58530 0.27383 0.12455
 H1584 H 0.62574 0.27402 0.14581
 H1585 H 0.58811 0.25737 0.21294
 H1586 H 0.54767 0.25718 0.19167
 C1587 C 0.02307 0.75974 0.63293
 C1588 C 0.04217 0.76440 0.64325
 C1589 C 0.06524 0.76822 0.65549
 C1590 C 0.06600 0.76680 0.68074
 C1591 C 0.08898 0.76660 0.69257
 C1592 C 0.11108 0.76776 0.67909
 C1593 C 0.11029 0.77012 0.65391
 C1594 C 0.08731 0.77033 0.64208
 C1595 C 0.13450 0.76467 0.69092
 C1596 C 0.15411 0.76156 0.70087
 H1597 H 0.04894 0.76488 0.69114
 H1598 H 0.08956 0.76466 0.71207
 H1599 H 0.12739 0.77091 0.64342
 H1600 H 0.08677 0.77114 0.62250
 C1601 C 0.98028 0.74977 0.63779
 C1602 C 0.96324 0.74773 0.65169
 C1603 C 0.94215 0.74603 0.66728
 C1604 C 0.93580 0.76646 0.68189
 C1605 C 0.91328 0.76631 0.69453
 C1606 C 0.89723 0.74573 0.69247
 C1607 C 0.90400 0.72491 0.67857
 C1608 C 0.92652 0.72506 0.66592
 C1609 C 0.87294 0.74683 0.70294
 C1610 C 0.85224 0.74787 0.71106
 H1611 H 0.94778 0.78282 0.68277
 H1612 H 0.90799 0.78252 0.70518
 H1613 H 0.89152 0.70901 0.67684
 H1614 H 0.93130 0.70932 0.65443
 C1615 C 0.47948 0.24717 0.13684
 C1616 C 0.46222 0.24455 0.15037
 C1617 C 0.44089 0.24243 0.16562
 C1618 C 0.43645 0.26075 0.18320
 C1619 C 0.41387 0.26083 0.19574
 C1620 C 0.39586 0.24260 0.19061
 C1621 C 0.40067 0.22375 0.17366
 C1622 C 0.42324 0.22368 0.16111
 C1623 C 0.37172 0.24435 0.20131
 C1624 C 0.35119 0.24600 0.20973
 H1625 H 0.45000 0.27544 0.18653
 H1626 H 0.41012 0.27552 0.20878
 H1627 H 0.38667 0.20969 0.16957
 H1628 H 0.42654 0.20962 0.14733
 C1629 C 0.47764 0.75789 0.36636
 C1630 C 0.45933 0.76253 0.35475
 C1631 C 0.43702 0.76642 0.34125
 C1632 C 0.43610 0.75901 0.31700
 C1633 C 0.41333 0.75908 0.30479
 C1634 C 0.39161 0.76653 0.31691
 C1635 C 0.39270 0.77485 0.34087
 C1636 C 0.41547 0.77478 0.35308
 C1637 C 0.36796 0.76376 0.30541
 C1638 C 0.34802 0.76093 0.29603
 H1639 H 0.45273 0.75227 0.30789
 H1640 H 0.41249 0.75251 0.28626
 H1641 H 0.37587 0.78050 0.35032
 H1642 H 0.41610 0.78026 0.37194
 C1643 C 0.97661 0.26049 0.86711
 C1644 C 0.95793 0.26556 0.85624
 C1645 C 0.93520 0.26972 0.84349
 C1646 C 0.91314 0.27384 0.85649
 C1647 C 0.89026 0.27362 0.84449
 C1648 C 0.88955 0.26924 0.81956
 C1649 C 0.91168 0.26616 0.80641
 C1650 C 0.93457 0.26638 0.81842
 C1651 C 0.86610 0.26588 0.80784
 C1652 C 0.84641 0.26252 0.79812
 H1653 H 0.91357 0.27613 0.87596
 H1654 H 0.87313 0.27589 0.85472
 H1655 H 0.91116 0.26265 0.78711
 H1656 H 0.95161 0.26288 0.80836
 C1657 C 0.59524 1.00183 0.72713
 C1658 C 0.58248 1.00452 0.70926
 C1659 C 0.56777 1.00881 0.68774
 C1660 C 0.55125 0.99042 0.67926
 C1661 C 0.53813 0.99419 0.65762
 C1662 C 0.54138 1.01639 0.64436
 C1663 C 0.55746 1.03501 0.65316
 C1664 C 0.57056 1.03125 0.67479
 C1665 C 0.53079 1.01855 0.62042
 C1666 C 0.52363 1.01875 0.59969
 H1667 H 0.54893 0.97298 0.68906
 H1668 H 0.52607 0.97947 0.65086
 H1669 H 0.56047 1.05208 0.64293
 H1670 H 0.58330 1.04561 0.68113
 C1671 C 0.09499 0.50223 1.22842
 C1672 C 0.08217 0.50493 1.21059
 C1673 C 0.06740 0.50926 1.18911
 C1674 C 0.05057 0.49106 1.18084
 C1675 C 0.03736 0.49487 1.15926
 C1676 C 0.04082 0.51695 1.14585
 C1677 C 0.05723 0.53539 1.15443
 C1678 C 0.07042 0.53158 1.17601
 C1679 C 0.03011 0.51910 1.12195
 C1680 C 0.02282 0.51924 1.10126
 H1681 H 0.04807 0.47372 1.19076
 H1682 H 0.02504 0.48028 1.15266
 H1683 H 0.06041 0.55234 1.14408
 H1684 H 0.08340 0.54580 1.18218
 C1685 C -0.09521 0.00042 1.22814
 C1686 C -0.08222 -0.00083 1.21027
 C1687 C -0.06705 -0.00330 1.18879
 C1688 C -0.05484 0.01759 1.17895
 C1689 C -0.04132 0.01531 1.15735
 C1690 C -0.03985 -0.00789 1.14547
 C1691 C -0.05162 -0.02889 1.15561
 C1692 C -0.06512 -0.02662 1.17720
 C1693 C -0.02890 -0.00939 1.12163
 C1694 C -0.02156 -0.00965 1.10096
 H1695 H -0.05621 0.03572 1.18768
 H1696 H -0.03263 0.03178 1.14955
 H1697 H -0.05096 -0.04685 1.14647
 H1698 H -0.07450 -0.04291 1.18459
 C1699 C 0.40499 0.49993 0.72950
 C1700 C 0.41809 0.49848 0.71172
 C1701 C 0.43338 0.49569 0.69035
 C1702 C 0.43491 0.47234 0.67879
 C1703 C 0.44853 0.46976 0.65729
 C1704 C 0.46081 0.49050 0.64724
 C1705 C 0.45975 0.51373 0.65910
 C1706 C 0.44612 0.51631 0.68061
 C1707 C 0.47184 0.48880 0.62344
 C1708 C 0.47924 0.48848 0.60279
 H1709 H 0.42512 0.45625 0.68610
 H1710 H 0.44886 0.45180 0.64815
 H1711 H 0.46884 0.53001 0.65136
 H1712 H 0.44506 0.53447 0.68932
 C1713 C 0.40489 0.50133 -0.22721
 C1714 C 0.41776 0.50380 -0.20938
 C1715 C 0.43265 0.50783 -0.18794
 C1716 C 0.43070 0.53053 -0.17529
 C1717 C 0.44396 0.53409 -0.15372
 C1718 C 0.45937 0.51500 -0.14469
 C1719 C 0.46179 0.49252 -0.15766
 C1720 C 0.44851 0.48895 -0.17923
 C1721 C 0.47007 0.51709 -0.12079
 C1722 C 0.47727 0.51733 -0.10008
 H1723 H 0.41848 0.54527 -0.18180
 H1724 H 0.44159 0.55139 -0.14372
 H1725 H 0.47332 0.47745 -0.15070
 H1726 H 0.45018 0.47131 -0.18879
 C1727 C -0.09500 1.00154 0.27144
 C1728 C -0.08197 1.00394 0.28917
 C1729 C -0.06689 1.00790 0.31050
 C1730 C -0.06862 1.03062 0.32315
 C1731 C -0.05515 1.03414 0.34461
 C1732 C -0.03974 1.01499 0.35352
 C1733 C -0.03754 0.99248 0.34055
 C1734 C -0.05103 0.98896 0.31909
 C1735 C -0.02883 1.01704 0.37734
 C1736 C -0.02150 1.01724 0.39801
 H1737 H -0.08083 1.04541 0.31673
 H1738 H -0.05735 1.05146 0.35461
 H1739 H -0.02601 0.97737 0.34742
 H1740 H -0.04953 0.97130 0.30953
 C1741 C 0.09503 0.50043 0.27175
 C1742 C 0.08210 0.49882 0.28963
 C1743 C 0.06708 0.49590 0.31117
 C1744 C 0.06634 0.47269 0.32308
 C1745 C 0.05301 0.47005 0.34474
 C1746 C 0.04023 0.49058 0.35461
 C1747 C 0.04050 0.51365 0.34241
 C1748 C 0.05385 0.51630 0.32074
 C1749 C 0.02941 0.48889 0.37850
 C1750 C 0.02213 0.48859 0.39919
 H1751 H 0.07653 0.45678 0.31591
 H1752 H 0.05328 0.45222 0.35413
 H1753 H 0.03101 0.52978 0.35000
 H1754 H 0.05429 0.53435 0.31176
 C1755 C 0.59504 0.00001 -0.22956
 C1756 C 0.58197 -0.00162 -0.21178
 C1757 C 0.56674 -0.00462 -0.19039
 C1758 C 0.56590 -0.02788 -0.17856
 C1759 C 0.55235 -0.03061 -0.15704
 C1760 C 0.53945 -0.01013 -0.14723
 C1761 C 0.53983 0.01299 -0.15935
 C1762 C 0.55339 0.01573 -0.18087
 C1763 C 0.52846 -0.01189 -0.12342
 C1764 C 0.52106 -0.01222 -0.10277
 H1765 H 0.57616 -0.04375 -0.18570
 H1766 H 0.55254 -0.04847 -0.14771
 H1767 H 0.53026 0.02909 -0.15179
 H1768 H 0.55391 0.03381 -0.18979
 C1769 C 0.72680 0.62416 -0.00076
 C1770 C 0.70796 0.61165 -0.00232
 C1771 C 0.68510 0.59736 -0.00496
 C1772 C 0.68081 0.57597 0.00918
 C1773 C 0.65838 0.56258 0.00684
 C1774 C 0.64006 0.57042 -0.00969
 C1775 C 0.64446 0.59168 -0.02399
 C1776 C 0.66689 0.60506 -0.02165
 C1777 C 0.61627 0.55751 -0.01090
 C1778 C 0.59618 0.54705 -0.01076
 H1779 H 0.69467 0.56978 0.02216
 H1780 H 0.65518 0.54630 0.01815
 H1781 H 0.63044 0.59810 -0.03671
 H1782 H 0.66992 0.62156 -0.03271
 C1783 C 0.22798 1.12429 0.49913
 C1784 C 0.20911 1.11186 0.49731
 C1785 C 0.18626 1.09764 0.49432
 C1786 C 0.18237 1.07539 0.50731
 C1787 C 0.15998 1.06199 0.50460
 C1788 C 0.14131 1.07067 0.48884
 C1789 C 0.14530 1.09280 0.47570
 C1790 C 0.16768 1.10619 0.47840
 C1791 C 0.11757 1.05770 0.48735
 C1792 C 0.09752 1.04716 0.48732
 H1793 H 0.19652 1.06852 0.51966
 H1794 H 0.15710 1.04504 0.51502
 H1795 H 0.13101 1.09988 0.46361
 H1796 H 0.17041 1.12335 0.46823
 C1797 C 0.22657 -0.12388 1.00124
 C1798 C 0.20778 -0.11132 1.00322
 C1799 C 0.18501 -0.09691 1.00619
 C1800 C 0.16704 -0.10437 1.02324
 C1801 C 0.14465 -0.09092 1.02576
 C1802 C 0.14003 -0.06981 1.01131
 C1803 C 0.15812 -0.06218 0.99444
 C1804 C 0.18051 -0.07565 0.99191
 C1805 C 0.11620 -0.05691 1.01256
 C1806 C 0.09608 -0.04647 1.01229
 H1807 H 0.17022 -0.12076 1.03440
 H1808 H 0.13081 -0.09719 1.03873
 H1809 H 0.15476 -0.04604 0.98299
 H1810 H 0.19416 -0.06963 0.97866
 C1811 C 0.72806 0.37582 0.50159
 C1812 C 0.70917 0.38822 0.50369
 C1813 C 0.68632 0.40250 0.50672
 C1814 C 0.67119 0.39869 0.52715
 C1815 C 0.64866 0.41190 0.52980
 C1816 C 0.64106 0.42909 0.51205
 C1817 C 0.65632 0.43306 0.49175
 C1818 C 0.67883 0.41985 0.48910
 C1819 C 0.61713 0.44174 0.51382
 C1820 C 0.59696 0.45209 0.51383
 H1821 H 0.67669 0.38532 0.54092
 H1822 H 0.63703 0.40848 0.54550
 H1823 H 0.65064 0.44614 0.47779
 H1824 H 0.69024 0.42298 0.47320
 C1825 C -0.22663 0.37568 0.49880
 C1826 C -0.20766 0.38794 0.49686
 C1827 C -0.18467 0.40202 0.49395
 C1828 C -0.18115 0.42479 0.50616
 C1829 C -0.15865 0.43803 0.50365
 C1830 C -0.13945 0.42868 0.48887
 C1831 C -0.14307 0.40603 0.47648
 C1832 C -0.16558 0.39279 0.47899
 C1833 C -0.11560 0.44154 0.48768
 C1834 C -0.09551 0.45203 0.48795
 H1835 H -0.19570 0.43218 0.51779
 H1836 H -0.15608 0.45539 0.51351
 H1837 H -0.12838 0.39844 0.46515
 H1838 H -0.16799 0.37523 0.46943
 C1839 C 0.27187 -0.12442 -0.00162
 C1840 C 0.29092 -0.11232 -0.00381
 C1841 C 0.31398 -0.09843 -0.00703
 C1842 C 0.31719 -0.07489 0.00382
 C1843 C 0.33974 -0.06178 0.00098
 C1844 C 0.35928 -0.07204 -0.01278
 C1845 C 0.35597 -0.09548 -0.02382
 C1846 C 0.33342 -0.10858 -0.02099
 C1847 C 0.38316 -0.05927 -0.01420
 C1848 C 0.40327 -0.04881 -0.01404
 H1849 H 0.30237 -0.06678 0.01464
 H1850 H 0.34206 -0.04380 0.00980
 H1851 H 0.37093 -0.10378 -0.03433
 H1852 H 0.33125 -0.12674 -0.02950
 C1853 C 0.27329 1.12461 0.50053
 C1854 C 0.29234 1.11241 0.50204
 C1855 C 0.31541 1.09844 0.50462
 C1856 C 0.33402 1.10694 0.52051
 C1857 C 0.35658 1.09376 0.52284
 C1858 C 0.36073 1.07190 0.50934
 C1859 C 0.34203 1.06329 0.49359
 C1860 C 0.31947 1.07647 0.49126
 C1861 C 0.38457 1.05907 0.51057
 C1862 C 0.40465 1.04858 0.51046
 H1863 H 0.33117 1.12388 0.53097
 H1864 H 0.37088 1.10077 0.53495
 H1865 H 0.34502 1.04653 0.48290
 H1866 H 0.30529 1.06966 0.47891
 C1867 C -0.22789 0.62475 1.00063
 C1868 C -0.20876 0.61270 1.00238
 C1869 C -0.18561 0.59891 1.00525
 C1870 C -0.16650 0.60856 1.01993
 C1871 C -0.14391 0.59549 1.02258
 C1872 C -0.14023 0.57261 1.01062
 C1873 C -0.15942 0.56286 0.99609
 C1874 C -0.18202 0.57593 0.99344
 C1875 C -0.11639 0.55980 1.01209
 C1876 C -0.09634 0.54924 1.01213
 H1877 H -0.16899 0.62628 1.02920
 H1878 H -0.12922 0.60337 1.03371
 H1879 H -0.15681 0.54530 0.98658
 H1880 H -0.19659 0.56822 0.98206
 C1881 C 0.00441 0.72937 0.60777
 C1882 C 0.00784 0.70978 0.59775
 C1883 C 0.01146 0.68617 0.58632
 C1884 C 0.01846 0.66542 0.60023
 C1885 C 0.01994 0.64184 0.58951
 C1886 C 0.01443 0.63917 0.56493
 C1887 C 0.00809 0.66004 0.55088
 C1888 C 0.00660 0.68361 0.56160
 C1889 C 0.01332 0.61481 0.55451
 C1890 C 0.01143 0.59445 0.54566
 H1891 H 0.02213 0.66736 0.61941
 H1892 H 0.02468 0.62567 0.60046
 H1893 H 0.00365 0.65797 0.53186
 H1894 H 0.00108 0.69966 0.55083
 C1895 C 0.50420 0.22838 0.10629
 C1896 C 0.50776 0.20924 0.09554
 C1897 C 0.51138 0.18602 0.08340
 C1898 C 0.52179 0.16577 0.09595
 C1899 C 0.52293 0.14230 0.08500
 C1900 C 0.51367 0.13921 0.06154
 C1901 C 0.50397 0.15963 0.04872
 C1902 C 0.50281 0.18310 0.05968
 C1903 C 0.51223 0.11478 0.05132
 C1904 C 0.51011 0.09433 0.04272
 H1905 H 0.52830 0.16798 0.11439
 H1906 H 0.53031 0.12647 0.09501
 H1907 H 0.49664 0.15723 0.03060
 H1908 H 0.49461 0.19873 0.04999
 C1909 C -0.00589 0.22890 0.89167
 C1910 C -0.00969 0.20884 0.90065
 C1911 C -0.01367 0.18477 0.91104
 C1912 C -0.01341 0.16354 0.89619
 C1913 C -0.01505 0.13978 0.90652
 C1914 C -0.01696 0.13739 0.93164
 C1915 C -0.01795 0.15864 0.94642
 C1916 C -0.01631 0.18240 0.93609
 C1917 C -0.01557 0.11320 0.94242
 C1918 C -0.01335 0.09310 0.95175
 H1919 H -0.01127 0.16535 0.87678
 H1920 H -0.01406 0.12333 0.89506
 H1921 H -0.01923 0.15681 0.96590
 H1922 H -0.01642 0.19883 0.94762
 C1923 C 0.49420 0.72802 0.39347
 C1924 C 0.49012 0.70868 0.40371
 C1925 C 0.48606 0.68525 0.41536
 C1926 C 0.49100 0.68281 0.44008
 C1927 C 0.48981 0.65925 0.45087
 C1928 C 0.48369 0.63828 0.43689
 C1929 C 0.47795 0.64086 0.41235
 C1930 C 0.47913 0.66442 0.40156
 C1931 C 0.48552 0.61393 0.44725
 C1932 C 0.48804 0.59359 0.45603
 H1933 H 0.49653 0.69891 0.45076
 H1934 H 0.49444 0.65725 0.46986
 H1935 H 0.47338 0.62460 0.40146
 H1936 H 0.47545 0.66627 0.38237
 C1937 C 0.50513 0.77091 0.39751
 C1938 C 0.50973 0.78802 0.41078
 C1939 C 0.51440 0.80949 0.42533
 C1940 C 0.49900 0.81446 0.44519
 C1941 C 0.50037 0.83768 0.45662
 C1942 C 0.51711 0.85580 0.44810
 C1943 C 0.53341 0.85035 0.42904
 C1944 C 0.53205 0.82713 0.41763
 C1945 C 0.51536 0.88079 0.45692
 C1946 C 0.51284 0.90190 0.46380
 H1947 H 0.48513 0.80094 0.45101
 H1948 H 0.48759 0.84195 0.47125
 H1949 H 0.54624 0.86443 0.42229
 H1950 H 0.54380 0.82341 0.40206
 C1951 C 0.00446 0.27155 0.89865
 C1952 C 0.00888 0.28777 0.91297
 C1953 C 0.01319 0.30847 0.92864
 C1954 C 0.03211 0.32559 0.92295
 C1955 C 0.03304 0.34860 0.93481
 C1956 C 0.01503 0.35435 0.95228
 C1957 C -0.00299 0.33665 0.95896
 C1958 C -0.00392 0.31365 0.94709
 C1959 C 0.01295 0.37939 0.96096
 C1960 C 0.01031 0.40059 0.96751
 H1961 H 0.04519 0.32175 0.90844
 H1962 H 0.04687 0.36236 0.92945
 H1963 H -0.01709 0.34116 0.97235
 H1964 H -0.01879 0.30056 0.95131
 C1965 C 0.49317 0.27139 0.10366
 C1966 C 0.48799 0.28882 0.09097
 C1967 C 0.48283 0.31061 0.07699
 C1968 C 0.46745 0.32931 0.08667
 C1969 C 0.46609 0.35261 0.07538
 C1970 C 0.48010 0.35708 0.05448
 C1971 C 0.49444 0.33796 0.04410
 C1972 C 0.49583 0.31466 0.05540
 C1973 C 0.48229 0.38195 0.04541
 C1974 C 0.48528 0.40288 0.03819
 H1975 H 0.45759 0.32629 0.10354
 H1976 H 0.45514 0.36746 0.08357
 H1977 H 0.50549 0.34146 0.02802
 H1978 H 0.50797 0.30030 0.04802
 C1979 C -0.00640 0.77226 0.60331
 C1980 C -0.01153 0.78910 0.58988
 C1981 C -0.01649 0.81033 0.57506
 C1982 C -0.00215 0.81430 0.55427
 C1983 C -0.00321 0.83739 0.54254
 C1984 C -0.01859 0.85636 0.55168
 C1985 C -0.03398 0.85191 0.57167
 C1986 C -0.03293 0.82882 0.58339
 C1987 C -0.01610 0.88119 0.54255
 C1988 C -0.01295 0.90213 0.53543
 H1989 H 0.01082 0.80013 0.54796
 H1990 H 0.00889 0.84088 0.52718
 H1991 H -0.04574 0.86665 0.57891
 H1992 H -0.04383 0.82588 0.59967
 C1993 C 0.25107 0.34539 0.02197
 C1994 C 0.25364 0.33251 0.03981
 C1995 C 0.25775 0.31773 0.06134
 C1996 C 0.23909 0.30167 0.07008
 C1997 C 0.24269 0.28858 0.09177
 C1998 C 0.26500 0.29138 0.10485
 C1999 C 0.28388 0.30699 0.09580
 C2000 C 0.28029 0.32007 0.07411
 C2001 C 0.26710 0.28081 0.12882
 C2002 C 0.26733 0.27362 0.14955
 H2003 H 0.22157 0.29973 0.06043
 H2004 H 0.22777 0.27688 0.09873
 H2005 H 0.30105 0.30965 0.10588
 H2006 H 0.29486 0.33246 0.06758
 C2007 C 0.75227 0.84576 0.52158
 C2008 C 0.75490 0.83306 0.53953
 C2009 C 0.75913 0.81845 0.56116
 C2010 C 0.78139 0.82152 0.57424
 C2011 C 0.78512 0.80848 0.59594
 C2012 C 0.76666 0.79218 0.60468
 C2013 C 0.74464 0.78868 0.59130
 C2014 C 0.74091 0.80173 0.56959
 C2015 C 0.76880 0.78154 0.62862
 C2016 C 0.76896 0.77423 0.64931
 H2017 H 0.79563 0.83440 0.56794
 H2018 H 0.80204 0.81168 0.60625
 H2019 H 0.73004 0.77644 0.59801
 H2020 H 0.72361 0.79920 0.55970
 C2021 C 0.25048 0.65434 0.52178
 C2022 C 0.24902 0.66755 0.53951
 C2023 C 0.24628 0.68295 0.56083
 C2024 C 0.26686 0.69575 0.57049
 C2025 C 0.26435 0.70946 0.59196
 C2026 C 0.24122 0.71055 0.60390
 C2027 C 0.22051 0.69821 0.59393
 C2028 C 0.22302 0.68451 0.57246
 C2029 C 0.23958 0.72162 0.62769
 C2030 C 0.23927 0.72900 0.64835
 H2031 H 0.28495 0.69467 0.56173
 H2032 H 0.28060 0.71859 0.59964
 H2033 H 0.20262 0.69856 0.60313
 H2034 H 0.20697 0.67467 0.56522
 C2035 C 0.74897 0.15385 0.02151
 C2036 C 0.74744 0.16689 0.03935
 C2037 C 0.74457 0.18216 0.06076
 C2038 C 0.72149 0.18288 0.07280
 C2039 C 0.71887 0.19657 0.09427
 C2040 C 0.73928 0.20974 0.10382
 C2041 C 0.76221 0.20945 0.09149
 C2042 C 0.76484 0.19575 0.07001
 C2043 C 0.73765 0.22091 0.12757
 C2044 C 0.73744 0.22840 0.14820
 H2045 H 0.70567 0.17244 0.06587
 H2046 H 0.70116 0.19630 0.10377
 H2047 H 0.77825 0.21923 0.09884
 H2048 H 0.78278 0.19533 0.06093
 C2049 C 0.74956 0.15420 0.97823
 C2050 C 0.75118 0.16746 0.96054
 C2051 C 0.75414 0.18291 0.93927
 C2052 C 0.77741 0.18414 0.92763
 C2053 C 0.78011 0.19788 0.90619
 C2054 C 0.75959 0.21059 0.89628
 C2055 C 0.73646 0.20983 0.90823
 C2056 C 0.73375 0.19608 0.92967
 C2057 C 0.76134 0.22167 0.87249
 C2058 C 0.76167 0.22905 0.85182
 H2059 H 0.79332 0.17401 0.93482
 H2060 H 0.79799 0.19796 0.89697
 H2061 H 0.72033 0.21924 0.90059
 H2062 H 0.71566 0.19526 0.93844
 C2063 C 0.25117 0.65416 0.47850
 C2064 C 0.25295 0.66722 0.46068
 C2065 C 0.25613 0.68245 0.43928
 C2066 C 0.27909 0.68240 0.42703
 C2067 C 0.28197 0.69604 0.40555
 C2068 C 0.26193 0.70994 0.39621
 C2069 C 0.23913 0.71044 0.40876
 C2070 C 0.23625 0.69678 0.43024
 C2071 C 0.26367 0.72104 0.37242
 C2072 C 0.26388 0.72849 0.35178
 H2073 H 0.29461 0.67137 0.43379
 H2074 H 0.29956 0.69515 0.39588
 H2075 H 0.22336 0.72078 0.40156
 H2076 H 0.21840 0.69697 0.43949
 C2077 C 0.74982 0.84549 0.47824
 C2078 C 0.74755 0.83256 0.46042
 C2079 C 0.74378 0.81766 0.43892
 C2080 C 0.76300 0.80244 0.42990
 C2081 C 0.75966 0.78923 0.40824
 C2082 C 0.73706 0.79106 0.39549
 C2083 C 0.71764 0.80584 0.40480
 C2084 C 0.72097 0.81904 0.42646
 C2085 C 0.73502 0.78036 0.37157
 C2086 C 0.73474 0.77308 0.35088
 H2087 H 0.78073 0.80124 0.43930
 H2088 H 0.77496 0.77818 0.40108
 H2089 H 0.70022 0.80775 0.39498
 H2090 H 0.70597 0.83077 0.43320
 C2091 C 0.24858 0.34566 0.97864
 C2092 C 0.24617 0.33293 0.96069
 C2093 C 0.24217 0.31827 0.93907
 C2094 C 0.26076 0.30204 0.93048
 C2095 C 0.25720 0.28894 0.90879
 C2096 C 0.23499 0.29191 0.89557
 C2097 C 0.21619 0.30773 0.90445
 C2098 C 0.21974 0.32081 0.92614
 C2099 C 0.23290 0.28122 0.87166
 C2100 C 0.23267 0.27390 0.85098
 H2101 H 0.27819 0.29993 0.94025
 H2102 H 0.27205 0.27708 0.90196
 H2103 H 0.19910 0.31051 0.89428
 H2104 H 0.20522 0.33332 0.93256
 C2105 C 0.87403 0.47707 0.75169
 C2106 C 0.86101 0.45857 0.75350
 C2107 C 0.84613 0.43610 0.75646
 C2108 C 0.82526 0.43172 0.74171
 C2109 C 0.81137 0.40957 0.74428
 C2110 C 0.81819 0.39162 0.76165
 C2111 C 0.83889 0.39614 0.77658
 C2112 C 0.85276 0.41829 0.77401
 C2113 C 0.80499 0.36794 0.76295
 C2114 C 0.79447 0.34784 0.76277
 H2115 H 0.81989 0.44527 0.72806
 H2116 H 0.79556 0.40626 0.73246
 H2117 H 0.84454 0.38239 0.78993
 H2118 H 0.86885 0.42139 0.78554
 C2119 C 0.37444 0.97748 0.25097
 C2120 C 0.36165 0.95885 0.25297
 C2121 C 0.34704 0.93622 0.25610
 C2122 C 0.35488 0.91781 0.27258
 C2123 C 0.34120 0.89556 0.27531
 C2124 C 0.31950 0.89154 0.26163
 C2125 C 0.31151 0.91007 0.24534
 C2126 C 0.32519 0.93233 0.24260
 C2127 C 0.30640 0.86782 0.26303
 C2128 C 0.29585 0.84774 0.26293
 H2129 H 0.37173 0.92053 0.28313
 H2130 H 0.34776 0.88136 0.28780
 H2131 H 0.29491 0.90716 0.23448
 H2132 H 0.31889 0.94634 0.22979
 C2133 C 0.12590 0.97711 0.74815
 C2134 C 0.13885 0.95856 0.74625
 C2135 C 0.15366 0.93602 0.74328
 C2136 C 0.14666 0.91799 0.72608
 C2137 C 0.16044 0.89577 0.72356
 C2138 C 0.18142 0.89138 0.73818
 C2139 C 0.18859 0.90953 0.75519
 C2140 C 0.17479 0.93176 0.75772
 C2141 C 0.19454 0.86764 0.73695
 C2142 C 0.20504 0.84751 0.73721
 H2143 H 0.13036 0.92098 0.71481
 H2144 H 0.15451 0.88187 0.71049
 H2145 H 0.20461 0.90633 0.76677
 H2146 H 0.18044 0.94546 0.77110
 C2147 C 0.62556 0.47734 0.24900
 C2148 C 0.63832 0.45868 0.24690
 C2149 C 0.65292 0.43604 0.24369
 C2150 C 0.67494 0.43220 0.25693
 C2151 C 0.68861 0.40993 0.25415
 C2152 C 0.68042 0.39131 0.23806
 C2153 C 0.65853 0.39527 0.22463
 C2154 C 0.64488 0.41754 0.22741
 C2155 C 0.69350 0.36756 0.23666
 C2156 C 0.70404 0.34745 0.23681
 H2157 H 0.68141 0.44628 0.26958
 H2158 H 0.70535 0.40707 0.26482
 H2159 H 0.65181 0.38101 0.21230
 H2160 H 0.62789 0.42021 0.21705
 C2161 C 0.62430 0.52275 0.25139
 C2162 C 0.63615 0.54203 0.25319
 C2163 C 0.64982 0.56530 0.25596
 C2164 C 0.67357 0.56822 0.24559
 C2165 C 0.68657 0.59091 0.24811
 C2166 C 0.67598 0.61089 0.26107
 C2167 C 0.65231 0.60791 0.27160
 C2168 C 0.63932 0.58521 0.26909
 C2169 C 0.68879 0.63480 0.26230
 C2170 C 0.69939 0.65487 0.26210
 H2171 H 0.68196 0.55304 0.23541
 H2172 H 0.70475 0.59297 0.23970
 H2173 H 0.64378 0.62320 0.28150
 H2174 H 0.62100 0.58326 0.27723
 C2175 C 0.12409 0.02252 0.75054
 C2176 C 0.13564 0.04197 0.75252
 C2177 C 0.14891 0.06545 0.75549
 C2178 C 0.13703 0.08597 0.76645
 C2179 C 0.14968 0.10883 0.76918
 C2180 C 0.17439 0.11137 0.76103
 C2181 C 0.18633 0.09078 0.75024
 C2182 C 0.17368 0.06792 0.74751
 C2183 C 0.18700 0.13538 0.76240
 C2184 C 0.19756 0.15547 0.76228
 H2185 H 0.11792 0.08436 0.77274
 H2186 H 0.14011 0.12458 0.77737
 H2187 H 0.20534 0.09248 0.74367
 H2188 H 0.18314 0.05226 0.73903
 C2189 C 0.37576 0.02288 0.24894
 C2190 C 0.36392 0.04218 0.24728
 C2191 C 0.35024 0.06547 0.24464
 C2192 C 0.32679 0.06856 0.25560
 C2193 C 0.31377 0.09126 0.25317
 C2194 C 0.32403 0.11107 0.23972
 C2195 C 0.34739 0.10791 0.22861
 C2196 C 0.36041 0.08521 0.23104
 C2197 C 0.31119 0.13497 0.23849
 C2198 C 0.30057 0.15504 0.23865
 H2199 H 0.31866 0.05351 0.26614
 H2200 H 0.29582 0.09346 0.26201
 H2201 H 0.35567 0.12307 0.21831
 H2202 H 0.37849 0.08312 0.22244
 C2203 C 0.87587 0.52246 0.74976
 C2204 C 0.86427 0.54190 0.74790
 C2205 C 0.85091 0.56535 0.74501
 C2206 C 0.86225 0.58554 0.73299
 C2207 C 0.84950 0.60836 0.73029
 C2208 C 0.82524 0.61118 0.73952
 C2209 C 0.81383 0.59092 0.75139
 C2210 C 0.82659 0.56811 0.75409
 C2211 C 0.81257 0.63516 0.73809
 C2212 C 0.80198 0.65524 0.73814
 H2213 H 0.88102 0.58370 0.72583
 H2214 H 0.85866 0.62386 0.72124
 H2215 H 0.79517 0.59285 0.75878
 H2216 H 0.81754 0.55270 0.76339
 C2217 C 0.97970 0.75242 0.14546
 C2218 C 0.96128 0.75525 0.15742
 C2219 C 0.93871 0.75826 0.17071
 C2220 C 0.92103 0.77585 0.16296
 C2221 C 0.89772 0.77687 0.17412
 C2222 C 0.89221 0.76030 0.19297
 C2223 C 0.91017 0.74326 0.20124
 C2224 C 0.93349 0.74223 0.19007
 C2225 C 0.86756 0.75939 0.20261
 C2226 C 0.84678 0.75787 0.21045
 H2227 H 0.92500 0.78817 0.14785
 H2228 H 0.88378 0.78999 0.16760
 H2229 H 0.90588 0.73030 0.21576
 H2230 H 0.94710 0.72847 0.19599
 C2231 C 0.47981 0.25019 0.64772
 C2232 C 0.46204 0.25266 0.66066
 C2233 C 0.44006 0.25533 0.67489
 C2234 C 0.43286 0.23597 0.69046
 C2235 C 0.40961 0.23695 0.70176
 C2236 C 0.39369 0.25726 0.69740
 C2237 C 0.40126 0.27707 0.68254
 C2238 C 0.42452 0.27609 0.67125
 C2239 C 0.36883 0.25670 0.70655
 C2240 C 0.34781 0.25555 0.71381
 H2241 H 0.44477 0.21976 0.69312
 H2242 H 0.40371 0.22152 0.71316
 H2243 H 0.38889 0.29274 0.67903
 H2244 H 0.42997 0.29100 0.65901
 C2245 C 0.47750 0.74031 0.85577
 C2246 C 0.45830 0.73491 0.84595
 C2247 C 0.43491 0.72971 0.83482
 C2248 C 0.41414 0.72444 0.84933
 C2249 C 0.39046 0.72320 0.83894
 C2250 C 0.38770 0.72723 0.81410
 C2251 C 0.40860 0.73139 0.79943
 C2252 C 0.43228 0.73264 0.80982
 C2253 C 0.36335 0.72995 0.80408
 C2254 C 0.34312 0.73343 0.79550
 H2255 H 0.41612 0.72237 0.86873
 H2256 H 0.37426 0.72020 0.85036
 H2257 H 0.40647 0.73472 0.78021
 H2258 H 0.44832 0.73694 0.79859
 C2259 C 0.97753 0.24234 0.35548
 C2260 C 0.95876 0.23710 0.34486
 C2261 C 0.93580 0.23199 0.33286
 C2262 C 0.93316 0.23809 0.30840
 C2263 C 0.90967 0.23678 0.29761
 C2264 C 0.88898 0.22939 0.31135
 C2265 C 0.89183 0.22225 0.33552
 C2266 C 0.91532 0.22354 0.34631
 C2267 C 0.86457 0.23184 0.30140
 C2268 C 0.84420 0.23505 0.29307
 H2269 H 0.94896 0.24484 0.29802
 H2270 H 0.90746 0.24252 0.27893
 H2271 H 0.87579 0.21672 0.34624
 H2272 H 0.91730 0.21902 0.36532
 C2273 C 0.02036 0.25343 0.35247
 C2274 C 0.03801 0.25689 0.33960
 C2275 C 0.05994 0.26043 0.32546
 C2276 C 0.07706 0.27900 0.33211
 C2277 C 0.10034 0.28000 0.32088
 C2278 C 0.10636 0.26241 0.30306
 C2279 C 0.08883 0.24452 0.29569
 C2280 C 0.06556 0.24351 0.30693
 C2281 C 0.13123 0.26111 0.29403
 C2282 C 0.15224 0.25920 0.28687
 H2283 H 0.07283 0.29197 0.34663
 H2284 H 0.11396 0.29376 0.32673
 H2285 H 0.09353 0.23077 0.28200
 H2286 H 0.05241 0.22896 0.30193
 C2287 C 0.52031 0.75086 0.85102
 C2288 C 0.53755 0.75378 0.83751
 C2289 C 0.55909 0.75688 0.82272
 C2290 C 0.56590 0.73791 0.80657
 C2291 C 0.58905 0.73894 0.79508
 C2292 C 0.60526 0.75891 0.79985
 C2293 C 0.59799 0.77843 0.81518
 C2294 C 0.57484 0.77741 0.82666
 C2295 C 0.63021 0.75803 0.79097
 C2296 C 0.65136 0.75658 0.78408
 H2297 H 0.55384 0.72187 0.80369
 H2298 H 0.59473 0.72371 0.78333
 H2299 H 0.61059 0.79382 0.81903
 H2300 H 0.56970 0.79199 0.83937
 C2301 C 0.52283 0.23988 0.64443
 C2302 C 0.54165 0.23423 0.65479
 C2303 C 0.56470 0.22878 0.66648
 C2304 C 0.56725 0.23336 0.69125
 C2305 C 0.59081 0.23212 0.70190
 C2306 C 0.61168 0.22634 0.68770
 C2307 C 0.60896 0.22062 0.66317
 C2308 C 0.58539 0.22183 0.65253
 C2309 C 0.63604 0.22926 0.69764
 C2310 C 0.65632 0.23292 0.70601
 H2311 H 0.55128 0.23897 0.70204
 H2312 H 0.59292 0.23678 0.72086
 H2313 H 0.62513 0.21636 0.65210
 H2314 H 0.58349 0.21852 0.63329
 C2315 C 0.02279 0.74190 0.14483
 C2316 C 0.04094 0.73643 0.15632
 C2317 C 0.06336 0.73116 0.16919
 C2318 C 0.06614 0.73983 0.19290
 C2319 C 0.08948 0.73867 0.20400
 C2320 C 0.10990 0.72889 0.19132
 C2321 C 0.10684 0.71912 0.16805
 C2322 C 0.08350 0.72026 0.15696
 C2323 C 0.13437 0.73161 0.20105
 C2324 C 0.15486 0.73502 0.20902
 H2325 H 0.05062 0.74852 0.20232
 H2326 H 0.09186 0.74644 0.22196
 H2327 H 0.12268 0.71173 0.15812
 H2328 H 0.08144 0.71377 0.13849
   
