data_POSCAR
  _audit_creation_date              2014-09-24
  _audit_creation_method            'ToBaCCo'
  _symmetry_space_group_name_H-M    'P1'
  _symmetry_Int_Tables_number       1
  _symmetry_cell_setting            triclinic
  loop_
  _symmetry_equiv_pos_as_xyz
 x,y,z
_cell_length_a 59.6527
_cell_length_b 60.6563
_cell_length_c 61.3660
_cell_angle_alpha 89.285400
_cell_angle_beta 89.968900
_cell_angle_gamma 89.846400
loop_
  _atom_site_label
  _atom_site_type_symbol
  _atom_site_fract_x
  _atom_site_fract_y
  _atom_site_fract_z
N1 N 0.30129 0.44737 0.89262
 N2 N 0.32056 0.45789 0.89235
 C3 C 0.32071 0.47268 0.87586
 C4 C 0.30043 0.47122 0.86541
 C5 C 0.28844 0.45500 0.87618
 H6 H 0.33479 0.48295 0.87130
 H7 H 0.27220 0.44856 0.87179
 Cu8 Cu 0.34391 0.45089 0.91294
 Cu9 Cu 0.29506 0.42335 0.91298
 Cu10 Cu 0.33649 0.41152 0.95092
 N11 N 0.36094 0.45046 0.93969
 N12 N 0.35787 0.43508 0.95469
 C13 C 0.36963 0.44016 0.97261
 C14 C 0.38050 0.45966 0.96829
 C15 C 0.37467 0.46601 0.94750
 H16 H 0.36874 0.43137 0.98804
 H17 H 0.37846 0.48150 0.93939
 N18 N 0.30835 0.39523 0.94933
 N19 N 0.29239 0.39962 0.93498
 C20 C 0.27569 0.38489 0.93766
 C21 C 0.28153 0.37110 0.95469
 C22 C 0.30224 0.37791 0.96175
 H23 H 0.26087 0.38382 0.92759
 H24 H 0.31245 0.37036 0.97436
 H25 H 0.31601 0.43493 0.93700
 H26 H 0.32746 0.41406 0.91785
 N27 N 0.44610 0.85115 0.45711
 N28 N 0.45741 0.85336 0.43877
 C29 C 0.47339 0.86877 0.44135
 C30 C 0.47150 0.87668 0.46222
 C31 C 0.45437 0.86509 0.47195
 H32 H 0.48641 0.87257 0.42962
 H33 H 0.44958 0.86542 0.48895
 Cu34 Cu 0.45255 0.83388 0.41429
 Cu35 Cu 0.42385 0.82824 0.46166
 Cu36 Cu 0.41863 0.79041 0.42040
 N37 N 0.45335 0.80946 0.39398
 N38 N 0.44031 0.79220 0.39690
 C39 C 0.44317 0.77818 0.38033
 C40 C 0.45879 0.78717 0.36642
 C41 C 0.46504 0.80706 0.37532
 H42 H 0.43391 0.76308 0.37810
 H43 H 0.47652 0.81907 0.36849
 N44 N 0.40111 0.78874 0.44745
 N45 N 0.40244 0.80362 0.46294
 C46 C 0.38653 0.79943 0.47805
 C47 C 0.37509 0.78087 0.47166
 C48 C 0.38458 0.77450 0.45235
 H49 H 0.38277 0.80970 0.49186
 H50 H 0.37873 0.76148 0.44193
 H51 H 0.43996 0.80679 0.44101
 H52 H 0.41611 0.82333 0.42967
 N53 N 0.94263 0.89019 0.79920
 N54 N 0.95498 0.88845 0.81691
 C55 C 0.96802 0.87033 0.81553
 C56 C 0.96338 0.86055 0.79589
 C57 C 0.94731 0.87343 0.78585
 H58 H 0.97952 0.86451 0.82796
 H59 H 0.93922 0.87059 0.77037
 Cu60 Cu 0.95231 0.91000 0.83992
 Cu61 Cu 0.92098 0.91361 0.79468
 Cu62 Cu 0.90660 0.94228 0.84104
 N63 N 0.95032 0.93491 0.85945
 N64 N 0.93212 0.94722 0.86021
 C65 C 0.93556 0.96405 0.87389
 C66 C 0.95697 0.96195 0.88205
 C67 C 0.96612 0.94360 0.87244
 H68 H 0.92411 0.97768 0.87621
 H69 H 0.98329 0.93794 0.87353
 N70 N 0.88804 0.94227 0.81457
 N71 N 0.89376 0.93156 0.79678
 C72 C 0.87788 0.93463 0.78145
 C73 C 0.86177 0.94820 0.79003
 C74 C 0.86852 0.95287 0.81099
 H75 H 0.87806 0.92755 0.76536
 H76 H 0.85992 0.96307 0.82269
 H77 H 0.93023 0.93628 0.81850
 H78 H 0.91363 0.91153 0.82689
 N79 N 0.45441 -0.09757 0.28241
 N80 N 0.47254 -0.09644 0.29457
 C81 C 0.48708 -0.11216 0.28848
 C82 C 0.47745 -0.12391 0.27196
 C83 C 0.45667 -0.11438 0.26839
 H84 H 0.50214 -0.11673 0.29726
 H85 H 0.44340 -0.12057 0.25816
 Cu86 Cu 0.47253 -0.07983 0.32136
 Cu87 Cu 0.42773 -0.08006 0.28881
 Cu88 Cu 0.43476 -0.03965 0.32800
 N89 N 0.47173 -0.06284 0.34786
 N90 N 0.45652 -0.04737 0.35067
 C91 C 0.45904 -0.03877 0.37065
 C92 C 0.47671 -0.04968 0.38068
 C93 C 0.48445 -0.06476 0.36594
 H94 H 0.44876 -0.02580 0.37734
 H95 H 0.49795 -0.07646 0.36836
 N96 N 0.40928 -0.03985 0.30747
 N97 N 0.40656 -0.05528 0.29267
 C98 C 0.38744 -0.05125 0.28160
 C99 C 0.37778 -0.03249 0.29004
 C100 C 0.39182 -0.02569 0.30644
 H101 H 0.38080 -0.06143 0.26880
 H102 H 0.38926 -0.01186 0.31712
 H103 H 0.44750 -0.05580 0.30049
 H104 H 0.43228 -0.07218 0.32169
 N105 N 0.78828 0.30536 0.35368
 N106 N 0.80527 0.29145 0.35353
 C107 C 0.80348 0.27767 0.37093
 C108 C 0.78428 0.28326 0.38221
 C109 C 0.77505 0.30089 0.37097
 H110 H 0.81560 0.26518 0.37554
 H111 H 0.76056 0.31047 0.37569
 Cu112 Cu 0.82865 0.29386 0.33112
 Cu113 Cu 0.78582 0.32987 0.33304
 Cu114 Cu 0.82697 0.33463 0.29334
 N115 N 0.85168 0.29619 0.30839
 N116 N 0.85082 0.31210 0.29358
 C117 C 0.86857 0.31017 0.28006
 C118 C 0.88110 0.29213 0.28676
 C119 C 0.87006 0.28360 0.30481
 H120 H 0.87229 0.32122 0.26657
 H121 H 0.87516 0.26955 0.31464
 N122 N 0.80142 0.35576 0.29580
 N123 N 0.78577 0.35377 0.31098
 C124 C 0.77137 0.37092 0.30932
 C125 C 0.77818 0.38421 0.29227
 C126 C 0.79730 0.37431 0.28399
 H127 H 0.75741 0.37396 0.32012
 H128 H 0.80775 0.38054 0.27091
 H129 H 0.80313 0.31503 0.30778
 H130 H 0.81978 0.33296 0.32610
 N131 N -0.19547 0.85806 0.79602
 N132 N -0.20563 0.85780 0.81507
 C133 C -0.21950 0.87528 0.81615
 C134 C -0.21764 0.88717 0.79692
 C135 C -0.20263 0.87566 0.78428
 H136 H -0.23160 0.87794 0.82899
 H137 H -0.19857 0.87885 0.76736
 Cu138 Cu -0.20315 0.83289 0.83532
 Cu139 Cu -0.17522 0.83456 0.78728
 Cu140 Cu -0.17024 0.79018 0.82307
 N141 N -0.20635 0.80433 0.85006
 N142 N -0.19334 0.78763 0.84496
 C143 C -0.19686 0.77075 0.85894
 C144 C -0.21312 0.77714 0.87339
 C145 C -0.21885 0.79856 0.86752
 H146 H -0.18723 0.75562 0.85947
 H147 H -0.22987 0.80956 0.87622
 N148 N -0.15376 0.79228 0.79568
 N149 N -0.15539 0.80914 0.78193
 C150 C -0.13990 0.80675 0.76611
 C151 C -0.12839 0.78743 0.77025
 C152 C -0.13751 0.77861 0.78898
 H153 H -0.13606 0.81892 0.75365
 H154 H -0.13152 0.76432 0.79795
 H155 H -0.19140 0.81018 0.80510
 H156 H -0.16713 0.82443 0.81794
 N157 N 0.95064 0.35786 0.43153
 N158 N 0.93516 0.35870 0.44681
 C159 C 0.93990 0.37553 0.46026
 C160 C 0.95900 0.38597 0.45262
 C161 C 0.96552 0.37420 0.43460
 H162 H 0.93154 0.37854 0.47558
 H163 H 0.98129 0.37576 0.42601
 Cu164 Cu 0.91253 0.33544 0.44948
 Cu165 Cu 0.95359 0.33294 0.41181
 Cu166 Cu 0.91464 0.29106 0.41749
 N167 N 0.88965 0.31232 0.45133
 N168 N 0.89120 0.29481 0.43894
 C169 C 0.87352 0.28157 0.44249
 C170 C 0.86023 0.29122 0.45790
 C171 C 0.87068 0.31077 0.46332
 H172 H 0.87011 0.26647 0.43393
 H173 H 0.86466 0.32308 0.47453
 N174 N 0.93931 0.28996 0.39649
 N175 N 0.95383 0.30617 0.39370
 C176 C 0.96737 0.30125 0.37680
 C177 C 0.96087 0.28100 0.36893
 C178 C 0.94313 0.27433 0.38155
 H179 H 0.98024 0.31191 0.37016
 H180 H 0.93305 0.25977 0.37921
 H181 H 0.92026 0.32443 0.41215
 H182 H 0.93895 0.31029 0.43237
 N183 N 0.46137 0.43726 0.86325
 N184 N 0.44550 0.45234 0.86149
 C185 C 0.44569 0.46485 0.87961
 C186 C 0.46269 0.45691 0.89296
 C187 C 0.47221 0.43960 0.88223
 H188 H 0.43424 0.47824 0.88297
 H189 H 0.48562 0.42909 0.88812
 Cu190 Cu 0.42600 0.45311 0.83573
 Cu191 Cu 0.46615 0.41434 0.84206
 Cu192 Cu 0.43315 0.41598 0.79590
 N193 N 0.40825 0.45422 0.80880
 N194 N 0.41149 0.43971 0.79331
 C195 C 0.39636 0.44292 0.77731
 C196 C 0.38305 0.46038 0.78302
 C197 C 0.39082 0.46729 0.80309
 H198 H 0.39441 0.43262 0.76319
 H199 H 0.38362 0.48000 0.81315
 N200 N 0.45589 0.39316 0.80128
 N201 N 0.46857 0.39247 0.81892
 C202 C 0.48101 0.37388 0.81881
 C203 C 0.47571 0.36258 0.80026
 C204 C 0.45981 0.37505 0.78945
 H205 H 0.49206 0.36838 0.83174
 H206 H 0.45098 0.37066 0.77476
 H207 H 0.45470 0.43291 0.81604
 H208 H 0.43395 0.41419 0.82967
 N209 N 0.79358 0.89556 0.94574
 N210 N 0.81189 0.89641 0.95770
 C211 C 0.81259 0.87851 0.97102
 C212 C 0.79368 0.86609 0.96715
 C213 C 0.78198 0.87722 0.95101
 H214 H 0.82610 0.87441 0.98209
 H215 H 0.76672 0.87195 0.94315
 Cu216 Cu 0.83351 0.92037 0.95366
 Cu217 Cu 0.78683 0.91738 0.92304
 Cu218 Cu 0.82450 0.96039 0.91633
 N219 N 0.85465 0.94477 0.94979
 N220 N 0.85085 0.96047 0.93522
 C221 C 0.86799 0.97494 0.93534
 C222 C 0.88322 0.96790 0.95079
 C223 C 0.87442 0.94871 0.95971
 H224 H 0.86949 0.98920 0.92469
 H225 H 0.88202 0.93831 0.97211
 N226 N 0.79698 0.95757 0.89866
 N227 N 0.78277 0.94101 0.90096
 C228 C 0.76696 0.94258 0.88526
 C229 C 0.77145 0.96107 0.87276
 C230 C 0.79055 0.97019 0.88154
 H231 H 0.75391 0.93062 0.88239
 H232 H 0.79977 0.98414 0.87509
 H233 H 0.81954 0.92663 0.91668
 H234 H 0.80389 0.94292 0.93734
 N235 N 0.28116 0.84349 0.30581
 N236 N 0.29765 0.84364 0.29154
 C237 C 0.29496 0.86121 0.27799
 C238 C 0.27565 0.87219 0.28427
 C239 C 0.26738 0.86063 0.30183
 H240 H 0.30679 0.86639 0.26560
 H241 H 0.25351 0.86547 0.31207
 Cu242 Cu 0.32195 0.82186 0.29377
 Cu243 Cu 0.28091 0.82438 0.33135
 Cu244 Cu 0.32437 0.78698 0.33696
 N245 N 0.34584 0.79975 0.29672
 N246 N 0.34645 0.78623 0.31369
 C247 C 0.36473 0.77326 0.31243
 C248 C 0.37606 0.77886 0.29369
 C249 C 0.36386 0.79578 0.28399
 H250 H 0.36977 0.76112 0.32453
 H251 H 0.36814 0.80485 0.26929
 N252 N 0.30040 0.79009 0.35878
 N253 N 0.28349 0.80401 0.35629
 C254 C 0.27062 0.80341 0.37432
 C255 C 0.27998 0.78848 0.38864
 C256 C 0.29879 0.78021 0.37852
 H257 H 0.25622 0.81380 0.37730
 H258 H 0.31078 0.76865 0.38533
 H259 H 0.31535 0.81969 0.33296
 H260 H 0.29889 0.79881 0.31758
 N261 N 0.78276 0.41045 0.44588
 N262 N 0.79876 0.41012 0.46067
 C263 C 0.79520 0.39337 0.47478
 C264 C 0.77612 0.38262 0.46847
 C265 C 0.76851 0.39361 0.44999
 H266 H 0.80627 0.38866 0.48800
 H267 H 0.75432 0.38929 0.43996
 Cu268 Cu 0.82433 0.42970 0.45928
 Cu269 Cu 0.78251 0.43246 0.42219
 Cu270 Cu 0.82207 0.47400 0.42614
 N271 N 0.84543 0.45376 0.46183
 N272 N 0.84365 0.47158 0.44953
 C273 C 0.86133 0.48475 0.45305
 C274 C 0.87480 0.47450 0.46820
 C275 C 0.86445 0.45485 0.47358
 H276 H 0.86519 0.49958 0.44385
 H277 H 0.87097 0.44184 0.48400
 N278 N 0.79974 0.47319 0.40290
 N279 N 0.78528 0.45690 0.40056
 C280 C 0.77478 0.45955 0.38120
 C281 C 0.78327 0.47838 0.37130
 C282 C 0.79892 0.48658 0.38529
 H283 H 0.76281 0.44817 0.37443
 H284 H 0.80991 0.50040 0.38216
 H285 H 0.81609 0.44039 0.42172
 H286 H 0.79778 0.45468 0.44197
 N287 N 0.95002 0.85339 -0.04918
 N288 N 0.96335 0.85537 -0.06616
 C289 C 0.97677 0.87298 -0.06324
 C290 C 0.97139 0.88194 -0.04325
 C291 C 0.95453 0.86923 -0.03479
 H292 H 0.98844 0.87949 -0.07517
 H293 H 0.94495 0.87246 -0.02020
 Cu294 Cu 0.96004 0.83595 -0.09116
 Cu295 Cu 0.92443 0.83431 -0.04893
 Cu296 Cu 0.92370 0.79304 -0.08724
 N297 N 0.95992 0.81200 -0.11214
 N298 N 0.94597 0.79523 -0.11055
 C299 C 0.94926 0.78170 -0.12759
 C300 C 0.96625 0.79055 -0.14024
 C301 C 0.97261 0.80969 -0.13015
 H302 H 0.93964 0.76701 -0.13082
 H303 H 0.98512 0.82130 -0.13580
 N304 N 0.90259 0.79423 -0.06231
 N305 N 0.90331 0.81003 -0.04771
 C306 C 0.88649 0.80741 -0.03334
 C307 C 0.87454 0.78927 -0.03929
 C308 C 0.88490 0.78113 -0.05773
 H309 H 0.88253 0.81846 -0.02019
 H310 H 0.87942 0.76745 -0.06750
 H311 H 0.94266 0.81052 -0.06527
 H312 H 0.92139 0.82581 -0.08198
 N313 N 0.28208 0.35152 0.80189
 N314 N 0.29966 0.35333 0.78907
 C315 C 0.29733 0.37135 0.77628
 C316 C 0.27722 0.38124 0.78155
 C317 C 0.26790 0.36837 0.79777
 H318 H 0.31009 0.37787 0.76548
 H319 H 0.25313 0.37217 0.80725
 Cu320 Cu 0.32574 0.33469 0.79305
 Cu321 Cu 0.28129 0.33043 0.82590
 Cu322 Cu 0.32511 0.29280 0.82983
 N323 N 0.34753 0.31110 0.79199
 N324 N 0.34771 0.29477 0.80635
 C325 C 0.36547 0.28158 0.80211
 C326 C 0.37660 0.29034 0.78412
 C327 C 0.36491 0.30896 0.77817
 H328 H 0.37023 0.26722 0.81166
 H329 H 0.36910 0.32040 0.76516
 N330 N 0.30003 0.29409 0.85141
 N331 N 0.28317 0.30818 0.84924
 C332 C 0.26944 0.30633 0.86656
 C333 C 0.27791 0.29036 0.88022
 C334 C 0.29736 0.28278 0.87039
 H335 H 0.25496 0.31658 0.86962
 H336 H 0.30903 0.27075 0.87693
 H337 H 0.31568 0.32523 0.83054
 H338 H 0.30167 0.30730 0.81013
 N339 N 0.15199 0.55014 0.53947
 N340 N 0.15477 0.53429 0.55407
 C341 C 0.13886 0.51885 0.55126
 C342 C 0.12565 0.52549 0.53400
 C343 C 0.13425 0.54539 0.52684
 H344 H 0.13611 0.50472 0.56182
 H345 H 0.12722 0.55628 0.51453
 Cu346 Cu 0.17707 0.53675 0.57700
 Cu347 Cu 0.16931 0.57721 0.54009
 Cu348 Cu 0.21280 0.57958 0.57741
 N349 N 0.20041 0.53917 0.59888
 N350 N 0.21449 0.55585 0.59893
 C351 C 0.22809 0.55402 0.61640
 C352 C 0.22207 0.53510 0.62759
 C353 C 0.20455 0.52608 0.61629
 H354 H 0.24059 0.56594 0.62108
 H355 H 0.19502 0.51164 0.62092
 N356 N 0.20804 0.60198 0.55440
 N357 N 0.19148 0.60115 0.54013
 C358 C 0.19211 0.61933 0.52728
 C359 C 0.20979 0.63203 0.53402
 C360 C 0.21957 0.62078 0.55118
 H361 H 0.18019 0.62341 0.51457
 H362 H 0.23349 0.62625 0.56099
 H363 H 0.19719 0.56186 0.55290
 H364 H 0.17899 0.57678 0.57266
 N365 N 0.60580 0.69198 0.04652
 N366 N 0.60288 0.70808 0.06041
 C367 C 0.62110 0.72115 0.06046
 C368 C 0.63605 0.71272 0.04569
 C369 C 0.62599 0.69429 0.03698
 H370 H 0.62320 0.73559 0.07040
 H371 H 0.63276 0.68345 0.02474
 Cu372 Cu 0.57567 0.71022 0.07720
 Cu373 Cu 0.58285 0.66960 0.04182
 Cu374 Cu 0.54347 0.66529 0.08355
 N375 N 0.55506 0.70748 0.10119
 N376 N 0.54281 0.68969 0.10429
 C377 C 0.53166 0.69156 0.12335
 C378 C 0.53757 0.71159 0.13227
 C379 C 0.55233 0.72124 0.11796
 H380 H 0.52079 0.67915 0.13040
 H381 H 0.56115 0.73662 0.12003
 N382 N 0.54699 0.64280 0.06052
 N383 N 0.56196 0.64454 0.04465
 C384 C 0.56045 0.62681 0.03169
 C385 C 0.54367 0.61348 0.03975
 C386 C 0.53543 0.62391 0.05800
 H387 H 0.57084 0.62376 0.01760
 H388 H 0.52218 0.61812 0.06863
 H389 H 0.55435 0.68268 0.05677
 H390 H 0.57649 0.67034 0.07449
 N391 N 0.70013 0.21591 0.65302
 N392 N 0.71548 0.20027 0.65351
 C393 C 0.72926 0.20297 0.63626
 C394 C 0.72196 0.22122 0.62465
 C395 C 0.70352 0.22908 0.63559
 H396 H 0.74252 0.19176 0.63167
 H397 H 0.69250 0.24231 0.63040
 Cu398 Cu 0.71407 0.17652 0.67518
 Cu399 Cu 0.67468 0.21605 0.67254
 Cu400 Cu 0.67480 0.17788 0.71473
 N401 N 0.71299 0.15412 0.69817
 N402 N 0.69797 0.15528 0.71387
 C403 C 0.69993 0.13749 0.72700
 C404 C 0.71699 0.12462 0.71910
 C405 C 0.72503 0.13538 0.70075
 H406 H 0.68893 0.13353 0.74049
 H407 H 0.73780 0.12956 0.68969
 N408 N 0.65266 0.20196 0.71236
 N409 N 0.65270 0.21659 0.69623
 C410 C 0.63452 0.22967 0.69794
 C411 C 0.62254 0.22271 0.71583
 C412 C 0.63427 0.20514 0.72469
 H413 H 0.62957 0.24230 0.68631
 H414 H 0.62910 0.19472 0.73819
 H415 H 0.69257 0.20165 0.69763
 H416 H 0.67416 0.18277 0.68182
 N417 N 1.10409 0.05371 0.19992
 N418 N 1.10433 0.03997 0.18344
 C419 C 1.12238 0.02661 0.18524
 C420 C 1.13392 0.03221 0.20379
 C421 C 1.12203 0.04951 0.21282
 H422 H 1.12704 0.01401 0.17378
 H423 H 1.12628 0.05851 0.22735
 Cu424 Cu 1.08132 0.04102 0.16072
 Cu425 Cu 1.08058 0.07637 0.20287
 Cu426 Cu 1.03897 0.07724 0.16334
 N427 N 1.05788 0.04195 0.13836
 N428 N 1.04113 0.05601 0.13987
 C429 C 1.02764 0.05404 0.12242
 C430 C 1.03638 0.03790 0.10934
 C431 C 1.05563 0.03047 0.11971
 H432 H 1.01301 0.06409 0.11907
 H433 H 1.06734 0.01827 0.11385
 N434 N 1.03920 0.09767 0.18804
 N435 N 1.05523 0.09791 0.20294
 C436 C 1.05142 0.11502 0.21644
 C437 C 1.03203 0.12567 0.20959
 C438 C 1.02481 0.11439 0.19166
 H439 H 1.06229 0.11985 0.22964
 H440 H 1.01070 0.11878 0.18143
 H441 H 1.05648 0.05902 0.18672
 H442 H 1.07305 0.07921 0.17030
 N443 N 0.04304 0.15167 1.04079
 N444 N 0.03176 0.15061 1.05921
 C445 C 0.01853 0.13257 1.05918
 C446 C 0.02179 0.12207 1.03966
 C447 C 0.03738 0.13451 1.02835
 H448 H 0.00842 0.12687 1.07274
 H449 H 0.04515 0.13048 1.01298
 Cu450 Cu 0.03716 0.17151 1.08232
 Cu451 Cu 0.06684 0.17288 1.03561
 Cu452 Cu 0.07312 0.21374 1.07377
 N453 N 0.03839 0.19656 1.10165
 N454 N 0.05240 0.21301 1.09837
 C455 C 0.05074 0.22717 1.11506
 C456 C 0.03479 0.21907 1.12928
 C457 C 0.02725 0.19967 1.12046
 H458 H 0.06099 0.24166 1.11718
 H459 H 0.01535 0.18827 1.12762
 N460 N 0.09240 0.21144 1.04769
 N461 N 0.09008 0.19571 1.03317
 C462 C 0.10694 0.19708 1.01856
 C463 C 0.12027 0.21459 1.02414
 C464 C 0.11075 0.22338 1.04265
 H465 H 0.11002 0.18553 1.00561
 H466 H 0.11747 0.23654 1.05241
 H467 H 0.07423 0.18037 1.06773
 H468 H 0.05119 0.19664 1.05437
 N469 N 0.15103 0.71314 0.70293
 N470 N 0.15406 0.70174 0.72108
 C471 C 0.13668 0.70512 0.73463
 C472 C 0.12208 0.71926 0.72423
 C473 C 0.13153 0.72418 0.70419
 H474 H 0.13381 0.69637 0.74985
 H475 H 0.12402 0.73346 0.69089
 Cu476 Cu 0.17767 0.68009 0.72329
 Cu477 Cu 0.17065 0.70977 0.67769
 Cu478 Cu 0.22234 0.68559 0.69094
 N479 N 0.20204 0.65921 0.72470
 N480 N 0.21970 0.66124 0.71197
 C481 C 0.23273 0.64322 0.71444
 C482 C 0.22234 0.62943 0.72934
 C483 C 0.20300 0.63984 0.73557
 H484 H 0.24757 0.63963 0.70496
 H485 H 0.19007 0.63324 0.74615
 N486 N 0.21711 0.70327 0.66429
 N487 N 0.19738 0.71171 0.65883
 C488 C 0.19877 0.72066 0.63869
 C489 C 0.22038 0.71744 0.63133
 C490 C 0.23160 0.70648 0.64774
 H491 H 0.18509 0.72848 0.62996
 H492 H 0.24859 0.70025 0.64725
 H493 H 0.18889 0.68097 0.68489
 H494 H 0.19577 0.70700 0.69915
 N495 N 1.20519 0.14798 0.21181
 N496 N 1.21886 0.14875 0.19500
 C497 C 1.23420 0.13254 0.19694
 C498 C 1.22971 0.12104 0.21586
 C499 C 1.21122 0.13111 0.22501
 H500 H 1.24625 0.12809 0.18457
 H501 H 1.20174 0.12542 0.23901
 Cu502 Cu 1.21256 0.16744 0.16997
 Cu503 Cu 1.17832 0.16615 0.21298
 Cu504 Cu 1.17358 0.20754 0.17364
 N505 N 1.21064 0.19117 0.14879
 N506 N 1.19531 0.20677 0.14990
 C507 C 1.19705 0.22005 0.13218
 C508 C 1.21453 0.21213 0.11972
 C509 C 1.22279 0.19398 0.13055
 H510 H 1.18611 0.23381 0.12837
 H511 H 1.23610 0.18321 0.12515
 N512 N 1.15336 0.20506 0.19904
 N513 N 1.15528 0.18936 0.21408
 C514 C 1.13822 0.19109 0.22836
 C515 C 1.12506 0.20857 0.22184
 C516 C 1.13489 0.21713 0.20324
 H517 H 1.13490 0.17980 0.24173
 H518 H 1.12846 0.23032 0.19299
 H519 H 1.17351 0.17456 0.18030
 H520 H 1.19402 0.19122 0.19597
 N521 N 0.65680 1.03848 0.55606
 N522 N 0.65400 1.05442 0.54154
 C523 C 0.63592 1.04994 0.52912
 C524 C 0.62722 1.03011 0.53635
 C525 C 0.64066 1.02327 0.55340
 H526 H 0.62902 1.06066 0.51660
 H527 H 0.63823 1.00890 0.56373
 Cu528 Cu 0.67319 1.08028 0.54183
 Cu529 Cu 0.67989 1.03965 0.57865
 Cu530 Cu 0.71388 1.08611 0.57903
 N531 N 0.69213 1.10629 0.54184
 N532 N 0.70804 1.10864 0.55650
 C533 C 0.71793 1.12843 0.55342
 C534 C 0.70754 1.13873 0.53589
 C535 C 0.69130 1.12441 0.52892
 H536 H 0.73123 1.13497 0.56341
 H537 H 0.67951 1.12729 0.51581
 N538 N 0.71713 1.06143 0.60040
 N539 N 0.70416 1.04377 0.60022
 C540 C 0.70932 1.03074 0.61751
 C541 C 0.72640 1.04067 0.62892
 C542 C 0.73095 1.06006 0.61781
 H543 H 0.70062 1.01577 0.62208
 H544 H 0.74259 1.07269 0.62269
 H545 H 0.68174 1.07366 0.58031
 H546 H 0.70198 1.05974 0.56180
 N547 N 0.53900 0.53178 0.16097
 N548 N 0.52329 0.54689 0.16293
 C549 C 0.50807 0.54436 0.14699
 C550 C 0.51471 0.52672 0.13467
 C551 C 0.53429 0.51899 0.14388
 H552 H 0.49457 0.55574 0.14325
 H553 H 0.54544 0.50668 0.13726
 Cu554 Cu 0.52671 0.57055 0.18351
 Cu555 Cu 0.56686 0.53290 0.17703
 Cu556 Cu 0.57384 0.57651 0.21275
 N557 N 0.53013 0.59484 0.20330
 N558 N 0.54855 0.59742 0.21484
 C559 C 0.54681 0.61637 0.22612
 C560 C 0.52621 0.62576 0.22114
 C561 C 0.51618 0.61189 0.20665
 H562 H 0.55981 0.62316 0.23632
 H563 H 0.50033 0.61460 0.19848
 N564 N 0.59700 0.55325 0.20793
 N565 N 0.59399 0.53667 0.19444
 C566 C 0.61263 0.52411 0.19389
 C567 C 0.62799 0.53313 0.20769
 C568 C 0.61781 0.55156 0.21647
 H569 H 0.61504 0.50970 0.18396
 H570 H 0.62510 0.56295 0.22786
 H571 H 0.55502 0.54992 0.20405
 H572 H 0.56729 0.56688 0.18154
 N573 N 0.65321 0.70681 0.20765
 N574 N 0.65360 0.71998 0.19047
 C575 C 0.63418 0.73137 0.18938
 C576 C 0.62127 0.72493 0.20696
 C577 C 0.63370 0.70941 0.21831
 H578 H 0.62974 0.74314 0.17671
 H579 H 0.62879 0.70035 0.23283
 Cu580 Cu 0.67955 0.72065 0.17134
 Cu581 Cu 0.67771 0.68677 0.21450
 Cu582 Cu 0.71541 0.67778 0.17210
 N583 N 0.70097 0.71631 0.14801
 N584 N 0.71499 0.69949 0.14803
 C585 C 0.72701 0.70004 0.12932
 C586 C 0.71988 0.71820 0.11727
 C587 C 0.70340 0.72806 0.12944
 H588 H 0.73936 0.68791 0.12463
 H589 H 0.69343 0.74226 0.12477
 N590 N 0.71300 0.65814 0.19821
 N591 N 0.69869 0.66180 0.21425
 C592 C 0.69972 0.64505 0.22885
 C593 C 0.71563 0.63038 0.22181
 C594 C 0.72379 0.63896 0.20236
 H595 H 0.68902 0.64320 0.24298
 H596 H 0.73581 0.63129 0.19163
 H597 H 0.70428 0.69867 0.19532
 H598 H 0.68235 0.68202 0.18165
 N599 N 0.15647 0.05350 1.03553
 N600 N 0.15803 0.03602 1.04839
 C601 C 0.14165 0.02173 1.04342
 C602 C 0.12939 0.03079 1.02656
 C603 C 0.13903 0.05094 1.02185
 H604 H 0.13802 0.00665 1.05230
 H605 H 0.13302 0.06331 1.01042
 Cu606 Cu 0.17955 0.03469 1.07201
 Cu607 Cu 0.17533 0.07935 1.03934
 Cu608 Cu 0.21025 0.07891 1.08456
 N609 N 0.19620 0.03587 1.09910
 N610 N 0.20875 0.05306 1.10350
 C611 C 0.21845 0.05006 1.12308
 C612 C 0.21137 0.03001 1.13128
 C613 C 0.19727 0.02132 1.11586
 H614 H 0.22929 0.06178 1.13096
 H615 H 0.18830 0.00586 1.11687
 N616 N 0.20913 0.10352 1.06348
 N617 N 0.19575 0.10376 1.04630
 C618 C 0.19835 0.12303 1.03545
 C619 C 0.21407 0.13518 1.04648
 C620 C 0.22063 0.12258 1.06408
 H621 H 0.18941 0.12791 1.02083
 H622 H 0.23262 0.12707 1.07644
 H623 H 0.20182 0.06417 1.05534
 H624 H 0.17830 0.07465 1.07247
 N625 N 0.59234 0.20112 0.55742
 N626 N 0.59217 0.18486 0.54334
 C627 C 0.61020 0.18668 0.53012
 C628 C 0.62209 0.20511 0.53612
 C629 C 0.61039 0.21398 0.55348
 H630 H 0.61444 0.17543 0.51721
 H631 H 0.61477 0.22845 0.56267
 Cu632 Cu 0.56834 0.16267 0.54358
 Cu633 Cu 0.56879 0.20423 0.57978
 Cu634 Cu 0.53754 0.15688 0.58832
 N635 N 0.54384 0.14111 0.54529
 N636 N 0.53158 0.13952 0.56306
 C637 C 0.51775 0.12215 0.56181
 C638 C 0.52140 0.11232 0.54216
 C639 C 0.53812 0.12453 0.53193
 H640 H 0.50730 0.11607 0.57497
 H641 H 0.54663 0.12059 0.51690
 N642 N 0.53714 0.18140 0.60832
 N643 N 0.54872 0.19977 0.60552
 C644 C 0.54436 0.21314 0.62252
 C645 C 0.52907 0.20240 0.63600
 C646 C 0.52493 0.18253 0.62664
 H647 H 0.55184 0.22914 0.62499
 H648 H 0.51403 0.16970 0.63287
 H649 H 0.56914 0.17171 0.58223
 H650 H 0.54404 0.18336 0.56803
 N651 N 0.11226 0.55506 0.69709
 N652 N 0.10886 0.53853 0.68380
 C653 C 0.12712 0.52535 0.68374
 C654 C 0.14252 0.53419 0.69787
 C655 C 0.13271 0.55297 0.70610
 H656 H 0.12897 0.51053 0.67428
 H657 H 0.13989 0.56421 0.71771
 Cu658 Cu 0.08086 0.53607 0.66796
 Cu659 Cu 0.09004 0.57820 0.70173
 Cu660 Cu 0.04042 0.57433 0.67254
 N661 N 0.05683 0.53844 0.64673
 N662 N 0.04096 0.55342 0.64861
 C663 C 0.02670 0.55179 0.63170
 C664 C 0.03419 0.53496 0.61868
 C665 C 0.05337 0.52680 0.62847
 H666 H 0.01241 0.56244 0.62880
 H667 H 0.06424 0.51389 0.62254
 N668 N 0.04654 0.59841 0.69310
 N669 N 0.06545 0.59991 0.70422
 C670 C 0.06497 0.61846 0.71611
 C671 C 0.04492 0.62901 0.71213
 C672 C 0.03356 0.61606 0.69746
 H673 H 0.07841 0.62422 0.72637
 H674 H 0.01744 0.61950 0.69010
 H675 H 0.06232 0.55977 0.69490
 H676 H 0.07463 0.57545 0.67154
 N677 N 0.64663 0.53596 0.05158
 N678 N 0.64672 0.55166 0.03658
 C679 C 0.62919 0.54898 0.02310
 C680 C 0.61754 0.53074 0.03013
 C681 C 0.62884 0.52276 0.04827
 H682 H 0.62428 0.56037 0.01027
 H683 H 0.62358 0.50958 0.05913
 Cu684 Cu 0.66731 0.57616 0.03795
 Cu685 Cu 0.66742 0.53647 0.07610
 Cu686 Cu 0.70875 0.57659 0.07486
 N687 N 0.69313 0.59503 0.03431
 N688 N 0.70938 0.59552 0.04881
 C689 C 0.72354 0.61205 0.04352
 C690 C 0.71557 0.62205 0.02464
 C691 C 0.69638 0.61097 0.01924
 H692 H 0.73749 0.61732 0.05339
 H693 H 0.68484 0.61525 0.00627
 N694 N 0.70778 0.55280 0.09730
 N695 N 0.69213 0.53736 0.09751
 C696 C 0.69494 0.52437 0.11526
 C697 C 0.71309 0.53203 0.12666
 C698 C 0.72096 0.55006 0.11504
 H699 H 0.68396 0.51107 0.12019
 H700 H 0.73447 0.56089 0.11966
 H701 H 0.67527 0.56943 0.07682
 H702 H 0.69242 0.55212 0.05836
 N703 N 0.04058 0.71148 0.59117
 N704 N 0.02730 0.69428 0.58955
 C705 C 0.01278 0.69411 0.60643
 C706 C 0.01729 0.71227 0.61896
 C707 C 0.03496 0.72295 0.60896
 H708 H 0.00100 0.68108 0.61015
 H709 H 0.04416 0.73689 0.61512
 Cu710 Cu 0.03267 0.67265 0.56705
 Cu711 Cu 0.06682 0.71570 0.57275
 Cu712 Cu 0.07740 0.67543 0.53418
 N713 N 0.03849 0.64973 0.54596
 N714 N 0.05596 0.65105 0.53286
 C715 C 0.05679 0.63289 0.52043
 C716 C 0.03895 0.61966 0.52621
 C717 C 0.02766 0.63063 0.54247
 H718 H 0.06978 0.62923 0.50871
 H719 H 0.01315 0.62486 0.55141
 N720 N 0.09686 0.70149 0.53829
 N721 N 0.09259 0.71692 0.55277
 C722 C 0.10962 0.73148 0.55293
 C723 C 0.12519 0.72485 0.53788
 C724 C 0.11680 0.70583 0.52882
 H725 H 0.11124 0.74512 0.56399
 H726 H 0.12511 0.69542 0.51713
 H727 H 0.05556 0.69848 0.54602
 H728 H 0.07218 0.68255 0.56654
 N729 N 0.56396 1.04855 0.63937
 N730 N 0.54777 1.06283 0.63539
 C731 C 0.53550 1.05559 0.61840
 C732 C 0.54521 1.03618 0.61131
 C733 C 0.56286 1.03201 0.62511
 H734 H 0.52003 1.06301 0.61270
 H735 H 0.57286 1.01711 0.62600
 Cu736 Cu 0.54377 1.08818 0.65459
 Cu737 Cu 0.58250 1.04991 0.66526
 Cu738 Cu 0.58940 1.10296 0.68326
 N739 N 0.54299 1.11269 0.67508
 N740 N 0.56150 1.11952 0.68451
 C741 C 0.55648 1.13530 0.69889
 C742 C 0.53366 1.13821 0.69886
 C743 C 0.52539 1.12352 0.68377
 H744 H 0.56813 1.14171 0.71073
 H745 H 0.50799 1.11945 0.68094
 N746 N 0.61046 1.07909 0.69048
 N747 N 0.60694 1.05854 0.68453
 C748 C 0.62258 1.04541 0.69360
 C749 C 0.63636 1.05844 0.70597
 C750 C 0.62852 1.07970 0.70365
 H751 H 0.62387 1.02780 0.69127
 H752 H 0.63506 1.09434 0.71124
 H753 H 0.56910 1.07585 0.68331
 H754 H 0.58410 1.08155 0.65710
 N755 N 0.44815 0.35705 0.94016
 N756 N 0.42970 0.35646 0.95193
 C757 C 0.42905 0.37426 0.96477
 C758 C 0.44819 0.38650 0.96120
 C759 C 0.46012 0.37501 0.94563
 H760 H 0.41745 0.37639 0.97813
 H761 H 0.47728 0.37794 0.94071
 Cu762 Cu 0.41240 0.32935 0.95462
 Cu763 Cu 0.45711 0.33202 0.92209
 Cu764 Cu 0.41480 0.29335 0.91441
 N765 N 0.39451 0.30250 0.95545
 N766 N 0.39576 0.28829 0.93948
 C767 C 0.38043 0.27232 0.94252
 C768 C 0.36926 0.27665 0.96159
 C769 C 0.37839 0.29594 0.96944
 H770 H 0.37666 0.25954 0.93096
 H771 H 0.37258 0.30525 0.98326
 N772 N 0.44155 0.29512 0.89613
 N773 N 0.45787 0.30955 0.89885
 C774 C 0.47351 0.30637 0.88328
 C775 C 0.46657 0.28895 0.87071
 C776 C 0.44635 0.28222 0.87913
 H777 H 0.48839 0.31626 0.88095
 H778 H 0.43570 0.26928 0.87306
 H779 H 0.42449 0.32664 0.91690
 H780 H 0.43839 0.30576 0.93495
 N781 N 0.95321 0.43549 0.35998
 N782 N 0.93491 0.44768 0.35962
 C783 C 0.93521 0.46127 0.37681
 C784 C 0.95457 0.45726 0.38853
 C785 C 0.96582 0.44107 0.37728
 H786 H 0.92373 0.47486 0.37918
 H787 H 0.98284 0.43554 0.38007
 Cu788 Cu 0.91516 0.44813 0.33423
 Cu789 Cu 0.96125 0.41643 0.33579
 Cu790 Cu 0.92278 0.41263 0.29354
 N791 N 0.89524 0.44790 0.30897
 N792 N 0.89835 0.43369 0.29321
 C793 C 0.88236 0.43644 0.27793
 C794 C 0.86872 0.45336 0.28446
 C795 C 0.87713 0.46038 0.30419
 H796 H 0.88069 0.42677 0.26334
 H797 H 0.87036 0.47325 0.31434
 N798 N 0.94864 0.39293 0.29661
 N799 N 0.96343 0.39425 0.31258
 C800 C 0.97826 0.37754 0.31075
 C801 C 0.97236 0.36553 0.29276
 C802 C 0.95360 0.37553 0.28416
 H803 H 0.99156 0.37377 0.32218
 H804 H 0.94377 0.36991 0.27053
 H805 H 0.94402 0.43246 0.31083
 H806 H 0.92856 0.41118 0.32714
 N807 N 0.29777 0.94558 0.39844
 N808 N 0.31532 0.95867 0.39931
 C809 C 0.31603 0.97114 0.38095
 C810 C 0.29797 0.96532 0.36826
 C811 C 0.28671 0.94914 0.37966
 H812 H 0.32886 0.98308 0.37693
 H813 H 0.27190 0.94038 0.37454
 Cu814 Cu 0.33594 0.95693 0.42396
 Cu815 Cu 0.29077 0.92409 0.42101
 Cu816 Cu 0.32114 0.92783 0.46876
 N817 N 0.35525 0.95581 0.44962
 N818 N 0.34858 0.94551 0.46747
 C819 C 0.36525 0.94575 0.48219
 C820 C 0.38344 0.95649 0.47309
 C821 C 0.37673 0.96235 0.45223
 H822 H 0.36524 0.93623 0.49722
 H823 H 0.38729 0.96885 0.43935
 N824 N 0.29745 0.90547 0.46422
 N825 N 0.28610 0.90402 0.44581
 C826 C 0.27305 0.88596 0.44651
 C827 C 0.27643 0.87554 0.46621
 C828 C 0.29203 0.88812 0.47717
 H829 H 0.26297 0.88002 0.43319
 H830 H 0.29989 0.88420 0.49262
 H831 H 0.30317 0.94434 0.44422
 H832 H 0.32221 0.92128 0.43586
 O833 O 0.29044 0.44788 0.74591
 O834 O 0.29782 0.45723 0.71195
 O835 O 0.31981 0.50470 0.77980
 O836 O 0.31276 0.54007 0.78290
 O837 O 0.25803 0.47473 0.80246
 O838 O 0.22044 0.47703 0.79124
 O839 O 0.26600 0.56637 0.72095
 O840 O 0.30355 0.55891 0.72648
 O841 O 0.23938 0.51278 0.68765
 O842 O 0.24156 0.47475 0.69144
 O843 O 0.20574 0.53692 0.74117
 O844 O 0.20847 0.53448 0.77902
 O845 O 0.23668 0.56533 0.74460
 O846 O 0.23548 0.55362 0.78528
 O847 O 0.20702 0.51175 0.71408
 O848 O 0.21481 0.47099 0.71572
 O849 O 0.26625 0.53903 0.69081
 O850 O 0.30707 0.53295 0.70162
 O851 O 0.26138 0.44642 0.76991
 O852 O 0.22187 0.45603 0.76463
 O853 O 0.28543 0.50033 0.80649
 O854 O 0.28154 0.54165 0.79968
 O855 O 0.32236 0.47844 0.75380
 O856 O 0.31761 0.48598 0.71282
 Zr857 Zr 0.29182 0.48108 0.73609
 O858 O 0.27354 0.50128 0.71417
 Zr859 Zr 0.28729 0.51696 0.77621
 O860 O 0.27067 0.53959 0.75559
 Zr861 Zr 0.24820 0.47865 0.76986
 O862 O 0.22889 0.50014 0.75040
 Zr863 Zr 0.27889 0.53426 0.72271
 O864 O 0.29858 0.51408 0.74375
 Zr865 Zr 0.23882 0.49661 0.71787
 O866 O 0.25716 0.47367 0.73711
 Zr867 Zr 0.23623 0.53311 0.75763
 O868 O 0.25272 0.51150 0.77971
 O869 O 0.28256 0.48404 0.76848
 O870 O 0.24436 0.52964 0.72489
 C871 C 0.27764 0.43756 0.75935
 C872 C 0.33023 0.48919 0.77013
 C873 C 0.27310 0.48444 0.81363
 C874 C 0.24937 0.57528 0.73071
 C875 C 0.25079 0.52911 0.68018
 C876 C 0.19726 0.52722 0.72473
 H877 H 0.27817 0.49825 0.69903
 H878 H 0.21282 0.49686 0.75261
 H879 H 0.29102 0.47364 0.77796
 H880 H 0.27446 0.55476 0.75999
 H881 H 0.31573 0.55222 0.73533
 H882 H 0.31164 0.55178 0.77161
 H883 H 0.20306 0.47354 0.72680
 H884 H 0.22510 0.44865 0.75067
 H885 H 0.30357 0.52306 0.68940
 H886 H 0.32734 0.49787 0.71834
 H887 H 0.20198 0.51952 0.77979
 H888 H 0.21979 0.49138 0.79872
 H889 H 0.28662 0.45989 0.70035
 H890 H 0.24950 0.46150 0.69704
 H891 H 0.26839 0.53700 0.80844
 H892 H 0.24708 0.56509 0.78328
 O893 O 0.28193 -0.06165 0.24451
 O894 O 0.27918 -0.04904 0.20734
 O895 O 0.31403 -0.00840 0.27621
 O896 O 0.30843 0.02832 0.27875
 O897 O 0.25518 -0.03672 0.30481
 O898 O 0.21593 -0.03476 0.29694
 O899 O 0.25186 0.05776 0.22800
 O900 O 0.29129 0.05051 0.23049
 O901 O 0.22505 0.00528 0.19301
 O902 O 0.22473 -0.03463 0.19741
 O903 O 0.19556 0.02715 0.25138
 O904 O 0.20408 0.01888 0.29097
 O905 O 0.22600 0.05517 0.25511
 O906 O 0.22801 0.04218 0.29319
 O907 O 0.19502 0.00464 0.22208
 O908 O 0.20185 -0.03686 0.22159
 O909 O 0.25148 0.03200 0.19594
 O910 O 0.29117 0.02892 0.20184
 O911 O 0.25543 -0.06438 0.27109
 O912 O 0.21584 -0.05602 0.27038
 O913 O 0.28300 -0.01124 0.30677
 O914 O 0.28019 0.02840 0.30260
 O915 O 0.31314 -0.03165 0.24741
 O916 O 0.30425 -0.02460 0.20937
 Zr917 Zr 0.28049 -0.02828 0.23473
 O918 O 0.26048 -0.00630 0.21637
 Zr919 Zr 0.28163 0.00563 0.27674
 O920 O 0.26174 0.02921 0.26019
 Zr921 Zr 0.24162 -0.03241 0.27330
 O922 O 0.21986 -0.01045 0.25668
 Zr923 Zr 0.26635 0.02617 0.22647
 O924 O 0.28848 0.00437 0.24308
 Zr925 Zr 0.22636 -0.01172 0.22308
 O926 O 0.24632 -0.03568 0.23949
 Zr927 Zr 0.22758 0.02206 0.26525
 O928 O 0.24754 -0.00008 0.28389
 O929 O 0.27551 -0.02678 0.26815
 O930 O 0.23227 0.02085 0.23165
 C931 C 0.27104 -0.07258 0.25909
 C932 C 0.32308 -0.02278 0.26366
 C933 C 0.27118 -0.02699 0.31488
 C934 C 0.23638 0.06589 0.24011
 C935 C 0.23592 0.02203 0.18560
 C936 C 0.18612 0.01938 0.23430
 H937 H 0.26385 -0.00829 0.20076
 H938 H 0.20411 -0.01412 0.26005
 H939 H 0.28506 -0.03730 0.27642
 H940 H 0.26570 0.04417 0.26508
 H941 H 0.30485 0.04284 0.23605
 H942 H 0.30312 0.04258 0.27267
 H943 H 0.19085 -0.03442 0.23338
 H944 H 0.21603 -0.06086 0.25503
 H945 H 0.29037 0.01565 0.19270
 H946 H 0.31229 -0.01064 0.21208
 H947 H 0.19300 0.00757 0.28686
 H948 H 0.21607 -0.02069 0.30494
 H949 H 0.26443 -0.05648 0.20786
 H950 H 0.23891 -0.03351 0.18912
 H951 H 0.26594 0.02569 0.31046
 H952 H 0.24169 0.05134 0.29246
 O953 O 0.46792 0.80715 0.23935
 O954 O 0.46918 0.79139 0.20334
 O955 O 0.43925 0.75576 0.27783
 O956 O 0.44611 0.71943 0.28386
 O957 O 0.49816 0.78829 0.30024
 O958 O 0.53713 0.78584 0.29098
 O959 O 0.50194 0.68789 0.23231
 O960 O 0.46204 0.69363 0.23753
 O961 O 0.52433 0.73739 0.19221
 O962 O 0.52218 0.77829 0.19210
 O963 O 0.55781 0.72343 0.25109
 O964 O 0.54972 0.73263 0.29012
 O965 O 0.52960 0.69348 0.25705
 O966 O 0.52764 0.70781 0.29441
 O967 O 0.55599 0.74384 0.21984
 O968 O 0.54681 0.78295 0.21351
 O969 O 0.49821 0.71082 0.19833
 O970 O 0.45924 0.71296 0.20660
 O971 O 0.49596 0.81246 0.26382
 O972 O 0.53550 0.80502 0.26245
 O973 O 0.47217 0.76158 0.30649
 O974 O 0.47546 0.72183 0.30594
 O975 O 0.43774 0.77669 0.24683
 O976 O 0.44456 0.76706 0.20952
 Zr977 Zr 0.46976 0.77311 0.23289
 O978 O 0.48940 0.75030 0.21568
 Zr979 Zr 0.47205 0.74251 0.27807
 O980 O 0.49186 0.71824 0.26281
 Zr981 Zr 0.51044 0.78123 0.26886
 O982 O 0.53187 0.75886 0.25320
 Zr983 Zr 0.48543 0.71851 0.22922
 O984 O 0.46346 0.74093 0.24480
 Zr985 Zr 0.52351 0.75743 0.21999
 O986 O 0.50381 0.78193 0.23517
 Zr987 Zr 0.52591 0.72684 0.26529
 O988 O 0.50623 0.74966 0.28284
 O989 O 0.47654 0.77431 0.26605
 O990 O 0.51950 0.72542 0.23196
 C991 C 0.47955 0.81939 0.25198
 C992 C 0.42903 0.76887 0.26442
 C993 C 0.48343 0.77861 0.31223
 C994 C 0.51901 0.68139 0.24353
 C995 C 0.51334 0.72013 0.18661
 C996 C 0.56634 0.73108 0.23336
 H997 H 0.48510 0.75089 0.20014
 H998 H 0.54757 0.76347 0.25545
 H999 H 0.46713 0.78521 0.27371
 H1000 H 0.48882 0.70352 0.26923
 H1001 H 0.44834 0.70120 0.24270
 H1002 H 0.45150 0.70490 0.27887
 H1003 H 0.55649 0.78439 0.22649
 H1004 H 0.53402 0.80927 0.24689
 H1005 H 0.45854 0.72577 0.19653
 H1006 H 0.43731 0.75302 0.21388
 H1007 H 0.55953 0.74481 0.28512
 H1008 H 0.53697 0.77301 0.30110
 H1009 H 0.48368 0.79924 0.20237
 H1010 H 0.50853 0.77454 0.18381
 H1011 H 0.49043 0.72479 0.31220
 H1012 H 0.51453 0.69786 0.29480
 O1013 O 0.05504 0.72423 0.73875
 O1014 O 0.04676 0.72029 0.77651
 O1015 O -0.00287 0.68997 0.71140
 O1016 O -0.04001 0.69453 0.71165
 O1017 O 0.02061 0.75142 0.68327
 O1018 O 0.01612 0.78943 0.69374
 O1019 O -0.06469 0.74337 0.77046
 O1020 O -0.05564 0.70545 0.76500
 O1021 O -0.00964 0.77170 0.80005
 O1022 O 0.03174 0.77135 0.79187
 O1023 O -0.03831 0.80255 0.74725
 O1024 O -0.03652 0.79714 0.70675
 O1025 O -0.06645 0.77176 0.74598
 O1026 O -0.05975 0.77312 0.70670
 O1027 O -0.01109 0.80211 0.77314
 O1028 O 0.03020 0.79648 0.76995
 O1029 O -0.03495 0.74382 0.79925
 O1030 O -0.02960 0.70463 0.79033
 O1031 O 0.05250 0.75170 0.71329
 O1032 O 0.04188 0.78903 0.71699
 O1033 O -0.00406 0.72294 0.68221
 O1034 O -0.04430 0.72403 0.69130
 O1035 O 0.02576 0.69021 0.73587
 O1036 O 0.02352 0.69488 0.77474
 Zr1037 Zr 0.02240 0.72089 0.75152
 O1038 O 0.00202 0.73768 0.77401
 Zr1039 Zr -0.01759 0.72137 0.71392
 O1040 O -0.03983 0.73808 0.73477
 Zr1041 Zr 0.01920 0.76236 0.71560
 O1042 O -0.00122 0.78095 0.73640
 Zr1043 Zr -0.03187 0.73110 0.76750
 O1044 O -0.01136 0.71210 0.74661
 Zr1045 Zr 0.00520 0.77180 0.76895
 O1046 O 0.02764 0.75509 0.74823
 Zr1047 Zr -0.03481 0.77227 0.73122
 O1048 O -0.01449 0.75557 0.70849
 O1049 O 0.01608 0.72835 0.71899
 O1050 O -0.02858 0.76509 0.76392
 C1051 C 0.06348 0.73704 0.72403
 C1052 C 0.01406 0.68096 0.72090
 C1053 C 0.01049 0.73584 0.67335
 C1054 C -0.07490 0.75952 0.76105
 C1055 C -0.02526 0.75999 0.80874
 C1056 C -0.02782 0.81108 0.76332
 H1057 H 0.00625 0.73339 0.78903
 H1058 H 0.00147 0.79681 0.73368
 H1059 H 0.02624 0.72023 0.70914
 H1060 H -0.05543 0.73381 0.73148
 H1061 H -0.04816 0.69323 0.75725
 H1062 H -0.05295 0.69772 0.72119
 H1063 H 0.02709 0.80724 0.75809
 H1064 H 0.04899 0.78822 0.73155
 H1065 H -0.01588 0.70660 0.79912
 H1066 H 0.00889 0.68727 0.77391
 H1067 H -0.02441 0.80785 0.70953
 H1068 H 0.00145 0.78788 0.68640
 H1069 H 0.05207 0.73564 0.77797
 H1070 H 0.02944 0.75867 0.80192
 H1071 H -0.04272 0.73847 0.68376
 H1072 H -0.06774 0.75886 0.70722
 O1073 O 0.00403 0.05794 0.02157
 O1074 O -0.03446 0.04480 0.02253
 O1075 O 0.04042 0.00023 0.04300
 O1076 O 0.04245 -0.03535 0.03257
 O1077 O 0.06233 0.03723 -0.01273
 O1078 O 0.04999 0.03852 -0.05059
 O1079 O -0.01493 -0.05721 -0.01884
 O1080 O -0.00791 -0.05413 0.02061
 O1081 O -0.05461 -0.00352 -0.03538
 O1082 O -0.05190 0.03687 -0.02805
 O1083 O 0.00174 -0.01673 -0.07244
 O1084 O 0.04338 -0.01100 -0.06647
 O1085 O 0.00811 -0.05030 -0.04759
 O1086 O 0.04638 -0.03908 -0.04874
 O1087 O -0.02747 0.00663 -0.06673
 O1088 O -0.03100 0.04405 -0.05251
 O1089 O -0.04863 -0.03235 -0.01212
 O1090 O -0.03961 -0.03484 0.02361
 O1091 O 0.02756 0.06382 -0.00709
 O1092 O 0.02356 0.06041 -0.04519
 O1093 O 0.06777 0.00784 0.01004
 O1094 O 0.06360 -0.03123 0.00311
 O1095 O 0.01158 0.02420 0.04825
 O1096 O -0.02827 0.01858 0.04438
 Zr1097 Zr -0.00585 0.02466 0.01829
 O1098 O -0.02703 0.00505 -0.00100
 Zr1099 Zr 0.03714 -0.00908 0.01013
 O1100 O 0.01808 -0.02981 -0.00998
 Zr1101 Zr 0.02884 0.03372 -0.02328
 O1102 O 0.00887 0.01519 -0.04441
 Zr1103 Zr -0.01574 -0.02778 -0.00101
 O1104 O 0.00357 -0.00884 0.02092
 Zr1105 Zr -0.02470 0.01518 -0.03376
 O1106 O -0.00516 0.03636 -0.01418
 Zr1107 Zr 0.01889 -0.01797 -0.04239
 O1108 O 0.04049 0.00100 -0.02272
 O1109 O 0.02761 0.02386 0.00919
 O1110 O -0.01490 -0.01783 -0.03364
 C1111 C 0.01716 0.07017 0.00998
 C1112 C 0.02914 0.01365 0.05483
 C1113 C 0.07445 0.02552 0.00032
 C1114 C -0.00506 -0.06280 -0.03660
 C1115 C -0.06079 -0.02149 -0.02573
 C1116 C -0.01559 -0.00587 -0.07888
 H1117 H -0.04258 0.00597 0.00449
 H1118 H 0.01051 0.02144 -0.05928
 H1119 H 0.03701 0.03324 0.01856
 H1120 H 0.02369 -0.04512 -0.00870
 H1121 H -0.00253 -0.04752 0.03432
 H1122 H 0.03510 -0.04858 0.02663
 H1123 H -0.01823 0.04607 -0.06263
 H1124 H 0.00802 0.06560 -0.04275
 H1125 H -0.04274 -0.02085 0.03109
 H1126 H -0.02384 0.00428 0.05105
 H1127 H 0.03823 0.00200 -0.07500
 H1128 H 0.06007 0.02555 -0.05120
 H1129 H -0.03610 0.05362 0.00894
 H1130 H -0.06011 0.03145 -0.01505
 H1131 H 0.06976 -0.02679 -0.01127
 H1132 H 0.04873 -0.04846 -0.03564
 O1133 O 0.00068 0.55298 0.53106
 O1134 O -0.03789 0.54107 0.53345
 O1135 O 0.03551 0.49476 0.55408
 O1136 O 0.03721 0.45901 0.54464
 O1137 O 0.05813 0.52900 0.49632
 O1138 O 0.04535 0.53026 0.45943
 O1139 O -0.02248 0.43649 0.49696
 O1140 O -0.01552 0.44193 0.53510
 O1141 O -0.06040 0.49285 0.47812
 O1142 O -0.05547 0.53300 0.48273
 O1143 O -0.00591 0.47463 0.44000
 O1144 O 0.03473 0.47755 0.44373
 O1145 O 0.00030 0.44115 0.46760
 O1146 O 0.03965 0.45295 0.46468
 O1147 O -0.03313 0.50030 0.44517
 O1148 O -0.03527 0.53760 0.45770
 O1149 O -0.05557 0.46392 0.50151
 O1150 O -0.04588 0.46258 0.53761
 O1151 O 0.02519 0.55720 0.50292
 O1152 O 0.01868 0.55251 0.46426
 O1153 O 0.06297 0.50073 0.52054
 O1154 O 0.05712 0.46129 0.51459
 O1155 O 0.00779 0.52008 0.55879
 O1156 O -0.03206 0.51533 0.55583
 Zr1157 Zr -0.01000 0.51999 0.52919
 O1158 O -0.03215 0.50068 0.51089
 Zr1159 Zr 0.03172 0.48464 0.52152
 O1160 O 0.01128 0.46379 0.50280
 Zr1161 Zr 0.02434 0.52660 0.48699
 O1162 O 0.00364 0.50764 0.46687
 Zr1163 Zr -0.02235 0.46740 0.51215
 O1164 O -0.00166 0.48636 0.53286
 Zr1165 Zr -0.02964 0.50955 0.47783
 O1166 O -0.00932 0.53077 0.49646
 Zr1167 Zr 0.01181 0.47397 0.46988
 O1168 O 0.03452 0.49333 0.48825
 O1169 O 0.02332 0.51781 0.51972
 O1170 O -0.02179 0.47592 0.47902
 C1171 C 0.01459 0.56442 0.51967
 C1172 C 0.02494 0.50905 0.56552
 C1173 C 0.07005 0.51766 0.50978
 C1174 C -0.01235 0.42932 0.48000
 C1175 C -0.06746 0.47561 0.48836
 C1176 C -0.02225 0.48678 0.43323
 H1177 H -0.04756 0.50266 0.51646
 H1178 H 0.00534 0.51321 0.45176
 H1179 H 0.03323 0.52712 0.52866
 H1180 H 0.01650 0.44843 0.50482
 H1181 H -0.00901 0.44894 0.54814
 H1182 H 0.02829 0.44618 0.54001
 H1183 H -0.02188 0.53952 0.44836
 H1184 H 0.00422 0.55943 0.46827
 H1185 H -0.04999 0.47726 0.54312
 H1186 H -0.02820 0.50089 0.56257
 H1187 H 0.03197 0.49210 0.43677
 H1188 H 0.05363 0.51618 0.45799
 H1189 H -0.03944 0.54976 0.51977
 H1190 H -0.06346 0.52899 0.49633
 H1191 H 0.06360 0.46552 0.50028
 H1192 H 0.04085 0.44287 0.47743
 O1193 O 0.50302 0.04796 0.52754
 O1194 O 0.46304 0.03281 0.52798
 O1195 O 0.53707 -0.00867 0.55637
 O1196 O 0.54810 -0.04206 0.54665
 O1197 O 0.56054 0.02657 0.49559
 O1198 O 0.54770 0.02143 0.45737
 O1199 O 0.49092 -0.07313 0.50285
 O1200 O 0.49601 -0.06358 0.54060
 O1201 O 0.44527 -0.02349 0.47990
 O1202 O 0.44703 0.01905 0.48407
 O1203 O 0.50116 -0.03756 0.44321
 O1204 O 0.54296 -0.02794 0.44703
 O1205 O 0.51220 -0.06785 0.47249
 O1206 O 0.54799 -0.05426 0.46694
 O1207 O 0.47068 -0.01544 0.44732
 O1208 O 0.46461 0.02179 0.45574
 O1209 O 0.45555 -0.05082 0.50346
 O1210 O 0.46187 -0.04568 0.53969
 O1211 O 0.52511 0.05178 0.49754
 O1212 O 0.52082 0.04363 0.46080
 O1213 O 0.56698 0.00158 0.52278
 O1214 O 0.56619 -0.03860 0.51821
 O1215 O 0.50853 0.01610 0.55870
 O1216 O 0.47068 0.01413 0.55458
 Zr1217 Zr 0.49314 0.01428 0.52795
 O1218 O 0.47303 -0.00939 0.51222
 Zr1219 Zr 0.53801 -0.01800 0.52339
 O1220 O 0.52038 -0.04196 0.50598
 Zr1221 Zr 0.52726 0.01989 0.48553
 O1222 O 0.50754 -0.00192 0.46724
 Zr1223 Zr 0.48668 -0.04124 0.51542
 O1224 O 0.50451 -0.01830 0.53434
 Zr1225 Zr 0.47413 -0.00283 0.47864
 O1226 O 0.49310 0.02190 0.49448
 Zr1227 Zr 0.51968 -0.03404 0.47244
 O1228 O 0.54060 -0.01192 0.48957
 O1229 O 0.52670 0.01412 0.51908
 O1230 O 0.48622 -0.03501 0.48199
 C1231 C 0.51540 0.05943 0.51439
 C1232 C 0.52457 0.00470 0.56706
 C1233 C 0.57293 0.01791 0.51061
 C1234 C 0.50135 -0.08014 0.48596
 C1235 C 0.44180 -0.04197 0.48997
 C1236 C 0.48278 -0.02871 0.43631
 H1237 H 0.45756 -0.00902 0.51802
 H1238 H 0.50832 0.00260 0.45173
 H1239 H 0.53534 0.02465 0.52794
 H1240 H 0.52747 -0.05644 0.50898
 H1241 H 0.50053 -0.05466 0.55326
 H1242 H 0.53799 -0.05481 0.54505
 H1243 H 0.47813 0.02561 0.44719
 H1244 H 0.50488 0.04790 0.46232
 H1245 H 0.46548 -0.03526 0.55140
 H1246 H 0.47080 -0.00102 0.56066
 H1247 H 0.53618 -0.01707 0.43682
 H1248 H 0.55932 0.00985 0.45908
 H1249 H 0.46377 0.04317 0.51540
 H1250 H 0.43744 0.01262 0.49565
 H1251 H 0.57293 -0.03402 0.50412
 H1252 H 0.55379 -0.05872 0.48142
 O1253 O 0.55236 0.51870 0.01251
 O1254 O 0.54226 0.52074 -0.02554
 O1255 O 0.49727 0.55207 0.04293
 O1256 O 0.46009 0.54878 0.04388
 O1257 O 0.52091 0.49007 0.06890
 O1258 O 0.51683 0.45261 0.05832
 O1259 O 0.42998 0.50249 -0.01092
 O1260 O 0.44294 0.53991 -0.00821
 O1261 O 0.48329 0.47156 -0.04589
 O1262 O 0.52263 0.46912 -0.04194
 O1263 O 0.45879 0.43972 0.01033
 O1264 O 0.46065 0.44604 0.04893
 O1265 O 0.42960 0.47280 0.01206
 O1266 O 0.43977 0.47095 0.05107
 O1267 O 0.48393 0.43929 -0.01746
 O1268 O 0.52572 0.44672 -0.01771
 O1269 O 0.45778 0.49922 -0.04323
 O1270 O 0.46456 0.53491 -0.03812
 O1271 O 0.55132 0.49065 0.03740
 O1272 O 0.54015 0.45290 0.03282
 O1273 O 0.49601 0.51835 0.07143
 O1274 O 0.45577 0.51993 0.06401
 O1275 O 0.52383 0.55198 0.01636
 O1276 O 0.52009 0.54687 -0.02310
 Zr1277 Zr 0.51929 0.52133 0.00069
 O1278 O 0.49707 0.50476 -0.02027
 Zr1279 Zr 0.48161 0.52130 0.04036
 O1280 O 0.45784 0.50512 0.02116
 Zr1281 Zr 0.51791 0.47982 0.03647
 O1282 O 0.49556 0.46171 0.01734
 Zr1283 Zr 0.46376 0.51189 -0.01197
 O1284 O 0.48597 0.53073 0.00738
 Zr1285 Zr 0.49973 0.47042 -0.01565
 O1286 O 0.52410 0.48694 0.00332
 Zr1287 Zr 0.46239 0.47087 0.02446
 O1288 O 0.48471 0.48708 0.04565
 O1289 O 0.51481 0.51382 0.03349
 O1290 O 0.46624 0.47761 -0.00874
 C1291 C 0.56159 0.50596 0.02686
 C1292 C 0.51347 0.56106 0.03238
 C1293 C 0.51078 0.50519 0.07953
 C1294 C 0.41999 0.48678 -0.00074
 C1295 C 0.46733 0.48357 -0.05365
 C1296 C 0.46898 0.43010 -0.00532
 H1297 H 0.50008 0.50921 -0.03555
 H1298 H 0.49847 0.44589 0.02020
 H1299 H 0.52536 0.52171 0.04307
 H1300 H 0.44277 0.51003 0.02575
 H1301 H 0.45272 0.55233 -0.00400
 H1302 H 0.44797 0.54720 0.03305
 H1303 H 0.52332 0.43569 -0.00593
 H1304 H 0.54768 0.45496 0.01857
 H1305 H 0.47841 0.54354 -0.03634
 H1306 H 0.50814 0.55752 -0.01930
 H1307 H 0.47420 0.43672 0.04758
 H1308 H 0.50255 0.45381 0.06646
 H1309 H 0.54856 0.50562 -0.02585
 H1310 H 0.52477 0.48436 -0.04743
 H1311 H 0.45696 0.50537 0.07140
 H1312 H 0.43097 0.48478 0.05026
 O1313 O 0.73648 0.28495 0.44250
 O1314 O 0.69716 0.27885 0.45153
 O1315 O 0.75960 0.32308 0.49538
 O1316 O 0.75877 0.32035 0.53225
 O1317 O 0.79765 0.26787 0.47512
 O1318 O 0.79333 0.22808 0.47998
 O1319 O 0.71115 0.26185 0.56076
 O1320 O 0.71023 0.30064 0.54964
 O1321 O 0.68328 0.22730 0.50961
 O1322 O 0.69064 0.22754 0.46893
 O1323 O 0.74424 0.20679 0.53599
 O1324 O 0.78367 0.21962 0.53222
 O1325 O 0.74065 0.23810 0.56218
 O1326 O 0.78061 0.24433 0.55367
 O1327 O 0.71700 0.20153 0.51074
 O1328 O 0.71656 0.20617 0.47099
 O1329 O 0.68067 0.25597 0.53295
 O1330 O 0.68181 0.29397 0.52741
 O1331 O 0.76699 0.26243 0.44467
 O1332 O 0.76885 0.22442 0.45542
 O1333 O 0.79422 0.29653 0.49847
 O1334 O 0.78620 0.29558 0.53702
 O1335 O 0.73291 0.31795 0.46947
 O1336 O 0.69454 0.30579 0.47296
 Zr1337 Zr 0.72291 0.28485 0.47434
 O1338 O 0.70397 0.26486 0.49591
 Zr1339 Zr 0.76208 0.29260 0.51191
 O1340 O 0.74512 0.27275 0.53495
 Zr1341 Zr 0.76669 0.25102 0.47725
 O1342 O 0.74957 0.22938 0.49862
 Zr1343 Zr 0.71064 0.27350 0.52832
 O1344 O 0.72726 0.29553 0.50666
 Zr1345 Zr 0.71468 0.23194 0.49386
 O1346 O 0.73204 0.25155 0.47037
 Zr1347 Zr 0.75453 0.23960 0.53082
 O1348 O 0.77366 0.25985 0.50958
 O1349 O 0.75723 0.28377 0.47971
 O1350 O 0.71992 0.24045 0.52620
 C1351 C 0.75390 0.27570 0.43419
 C1352 C 0.74768 0.32977 0.47909
 C1353 C 0.80521 0.28524 0.48452
 C1354 C 0.72377 0.24786 0.57076
 C1355 C 0.67305 0.23826 0.52453
 C1356 C 0.72933 0.19492 0.52675
 H1357 H 0.68786 0.26633 0.49245
 H1358 H 0.75503 0.21418 0.49638
 H1359 H 0.76573 0.29336 0.46953
 H1360 H 0.74829 0.27799 0.54982
 H1361 H 0.71393 0.31393 0.54081
 H1362 H 0.75172 0.31531 0.54602
 H1363 H 0.73178 0.19972 0.47194
 H1364 H 0.75382 0.22292 0.44878
 H1365 H 0.67641 0.29455 0.51221
 H1366 H 0.69516 0.31513 0.48607
 H1367 H 0.78259 0.20858 0.52054
 H1368 H 0.80120 0.23135 0.49376
 H1369 H 0.69992 0.26393 0.44575
 H1370 H 0.67883 0.23885 0.47069
 H1371 H 0.79571 0.28220 0.53657
 H1372 H 0.77712 0.25778 0.56198
 O1373 O 0.74719 0.77334 -0.06176
 O1374 O 0.70967 0.76933 -0.04964
 O1375 O 0.78063 0.80290 -0.00902
 O1376 O 0.78547 0.79633 0.02647
 O1377 O 0.81042 0.74630 -0.03978
 O1378 O 0.80392 0.70887 -0.03959
 O1379 O 0.73250 0.73794 0.05468
 O1380 O 0.73259 0.77597 0.04944
 O1381 O 0.69874 0.71087 0.00186
 O1382 O 0.70124 0.71190 -0.03588
 O1383 O 0.76053 0.68479 0.02298
 O1384 O 0.79971 0.69503 0.01679
 O1385 O 0.76117 0.71342 0.05182
 O1386 O 0.80130 0.71946 0.03895
 O1387 O 0.73055 0.68362 0.00021
 O1388 O 0.72929 0.69336 -0.04144
 O1389 O 0.69956 0.73655 0.02851
 O1390 O 0.70504 0.77745 0.02585
 O1391 O 0.77550 0.74852 -0.06595
 O1392 O 0.77438 0.70775 -0.05831
 O1393 O 0.81280 0.77237 -0.01355
 O1394 O 0.80841 0.76851 0.02701
 O1395 O 0.75000 0.80244 -0.03108
 O1396 O 0.71093 0.79164 -0.02363
 Zr1397 Zr 0.73800 0.76978 -0.02897
 O1398 O 0.72024 0.74806 -0.00840
 Zr1399 Zr 0.78214 0.77053 0.00387
 O1400 O 0.76553 0.75013 0.02686
 Zr1401 Zr 0.77863 0.73282 -0.03502
 O1402 O 0.76363 0.71014 -0.01327
 Zr1403 Zr 0.73049 0.75307 0.02384
 O1404 O 0.74715 0.77631 0.00341
 Zr1405 Zr 0.72896 0.71512 -0.01471
 O1406 O 0.74380 0.73674 -0.03784
 Zr1407 Zr 0.77231 0.71713 0.01921
 O1408 O 0.79029 0.73756 -0.00290
 O1409 O 0.77257 0.76572 -0.02814
 O1410 O 0.73756 0.72011 0.01773
 C1411 C 0.76248 0.76404 -0.07309
 C1412 C 0.76694 0.81215 -0.02254
 C1413 C 0.82079 0.76159 -0.02982
 C1414 C 0.74530 0.72275 0.06254
 C1415 C 0.69020 0.72060 0.01825
 C1416 C 0.74371 0.67496 0.01459
 H1417 H 0.70400 0.75060 -0.01043
 H1418 H 0.76786 0.69496 -0.01731
 H1419 H 0.78063 0.77583 -0.03817
 H1420 H 0.77036 0.75382 0.04178
 H1421 H 0.73950 0.78946 0.04319
 H1422 H 0.77658 0.79208 0.03946
 H1423 H 0.74045 0.68164 -0.03837
 H1424 H 0.76004 0.71078 -0.06590
 H1425 H 0.69359 0.77439 0.01464
 H1426 H 0.71436 0.79971 -0.01012
 H1427 H 0.79730 0.68591 0.00376
 H1428 H 0.81149 0.70705 -0.02533
 H1429 H 0.71004 0.75501 -0.05720
 H1430 H 0.69412 0.72660 -0.03712
 H1431 H 0.81791 0.75580 0.02295
 H1432 H 0.79846 0.73075 0.05012
 O1433 O 1.06220 0.22229 0.24619
 O1434 O 1.05769 0.22634 0.28516
 O1435 O 1.00480 0.18556 0.22845
 O1436 O 0.96706 0.18877 0.23419
 O1437 O 1.02300 0.24184 0.19122
 O1438 O 1.01875 0.28071 0.19586
 O1439 O 0.94564 0.24725 0.28619
 O1440 O 0.95442 0.20891 0.28527
 O1441 O 1.00392 0.27934 0.30569
 O1442 O 1.04333 0.27884 0.29357
 O1443 O 0.96874 0.30200 0.25156
 O1444 O 0.96657 0.28996 0.21242
 O1445 O 0.94110 0.27193 0.25839
 O1446 O 0.94374 0.26600 0.21859
 O1447 O 0.99801 0.30544 0.27496
 O1448 O 1.03914 0.29987 0.26799
 O1449 O 0.97822 0.25219 0.31091
 O1450 O 0.98341 0.21148 0.30752
 O1451 O 1.05733 0.24674 0.21814
 O1452 O 1.04580 0.28483 0.21725
 O1453 O 0.99802 0.21397 0.19630
 O1454 O 0.95936 0.21474 0.20904
 O1455 O 1.03400 0.18937 0.25193
 O1456 O 1.03495 0.20007 0.28942
 Zr1457 Zr 1.03122 0.22212 0.26272
 O1458 O 1.01255 0.24210 0.28395
 Zr1459 Zr 0.98810 0.21640 0.22919
 O1460 O 0.96727 0.23605 0.24912
 Zr1461 Zr 1.02403 0.25766 0.22149
 O1462 O 1.00494 0.27907 0.24083
 Zr1463 Zr 0.97828 0.23442 0.28159
 O1464 O 0.99731 0.21240 0.26219
 Zr1465 Zr 1.01477 0.27509 0.27350
 O1466 O 1.03568 0.25548 0.25383
 Zr1467 Zr 0.97109 0.26946 0.24025
 O1468 O 0.98987 0.24957 0.21867
 O1469 O 1.02181 0.22458 0.23022
 O1470 O 0.98073 0.26749 0.27275
 C1471 C 1.06919 0.23293 0.22923
 C1472 C 1.02252 0.17823 0.23823
 C1473 C 1.01183 0.22516 0.18450
 C1474 C 0.93431 0.26216 0.27591
 C1475 C 0.98908 0.26930 0.31714
 C1476 C 0.98033 0.31279 0.26543
 H1477 H 1.01823 0.24017 0.29897
 H1478 H 1.00697 0.29439 0.23553
 H1479 H 1.03114 0.21526 0.22067
 H1480 H 0.95150 0.23122 0.24805
 H1481 H 0.96112 0.19556 0.27877
 H1482 H 0.95408 0.19371 0.24291
 H1483 H 1.03408 0.30915 0.25555
 H1484 H 1.05490 0.28570 0.23069
 H1485 H 0.99710 0.21572 0.31549
 H1486 H 1.02036 0.19253 0.29123
 H1487 H 0.97867 0.30108 0.21233
 H1488 H 1.00325 0.27841 0.19063
 H1489 H 1.06406 0.24112 0.28217
 H1490 H 1.04356 0.26646 0.30422
 H1491 H 0.95882 0.22866 0.20047
 H1492 H 0.93542 0.25256 0.22291
 O1493 O 0.69144 1.03594 0.74119
 O1494 O 0.69546 1.03740 0.78038
 O1495 O 0.75457 1.05628 0.71739
 O1496 O 0.79064 1.04497 0.72024
 O1497 O 0.72146 0.99838 0.69251
 O1498 O 0.71941 0.96065 0.70576
 O1499 O 0.80245 0.99736 0.78455
 O1500 O 0.80114 1.03505 0.77419
 O1501 O 0.74466 0.97834 0.81163
 O1502 O 0.70675 0.98583 0.80636
 O1503 O 0.76696 0.94074 0.76341
 O1504 O 0.76923 0.94559 0.72192
 O1505 O 0.80116 0.96741 0.76267
 O1506 O 0.79786 0.96351 0.72453
 O1507 O 0.73671 0.94692 0.78501
 O1508 O 0.69806 0.96426 0.78134
 O1509 O 0.77185 1.00448 0.81038
 O1510 O 0.77379 1.04300 0.79718
 O1511 O 0.68925 1.00509 0.72061
 O1512 O 0.69312 0.96615 0.72750
 O1513 O 0.75019 1.02291 0.69069
 O1514 O 0.78933 1.01420 0.70094
 O1515 O 0.72621 1.06218 0.74146
 O1516 O 0.72345 1.05830 0.78052
 Zr1517 Zr 0.72198 1.03212 0.75815
 O1518 O 0.73803 1.01375 0.78292
 Zr1519 Zr 0.76332 1.02287 0.72275
 O1520 O 0.78117 1.00391 0.74615
 Zr1521 Zr 0.71994 0.98885 0.72567
 O1522 O 0.73574 0.96846 0.74902
 Zr1523 Zr 0.77277 1.01445 0.77757
 O1524 O 0.75696 1.03512 0.75424
 Zr1525 Zr 0.72944 0.98042 0.78049
 O1526 O 0.71098 0.99922 0.75726
 Zr1527 Zr 0.77071 0.97074 0.74546
 O1528 O 0.75477 0.98928 0.72016
 O1529 O 0.72887 1.02185 0.72675
 O1530 O 0.76409 0.98114 0.77693
 C1531 C 0.68156 1.02355 0.72732
 C1532 C 0.73958 1.06857 0.72622
 C1533 C 0.73375 1.01236 0.68211
 C1534 C 0.81048 0.97926 0.77736
 C1535 C 0.76083 0.98927 0.82025
 C1536 C 0.75203 0.93443 0.77733
 H1537 H 0.73391 1.01949 0.79739
 H1538 H 0.73007 0.95334 0.74690
 H1539 H 0.72113 1.03126 0.71583
 H1540 H 0.79747 1.00521 0.74358
 H1541 H 0.79660 1.04757 0.76465
 H1542 H 0.80296 1.03905 0.72939
 H1543 H 0.69886 0.95201 0.77087
 H1544 H 0.68409 0.97015 0.74040
 H1545 H 0.76020 1.04322 0.80642
 H1546 H 0.73898 1.06398 0.78000
 H1547 H 0.75546 0.93697 0.72476
 H1548 H 0.73436 0.95964 0.69883
 H1549 H 0.68533 1.02456 0.77930
 H1550 H 0.70102 1.00104 0.80454
 H1551 H 0.78502 1.00004 0.69428
 H1552 H 0.80481 0.97770 0.72030
 O1553 O 0.69482 0.53760 0.24526
 O1554 O 0.70039 0.53575 0.28239
 O1555 O 0.75690 0.56561 0.22188
 O1556 O 0.79289 0.55754 0.22281
 O1557 O 0.72732 0.51127 0.18886
 O1558 O 0.72581 0.47327 0.19477
 O1559 O 0.80807 0.50081 0.28170
 O1560 O 0.80440 0.53814 0.27998
 O1561 O 0.74741 0.47476 0.30415
 O1562 O 0.70963 0.47616 0.29348
 O1563 O 0.77983 0.44727 0.24868
 O1564 O 0.78285 0.45635 0.21184
 O1565 O 0.80969 0.47544 0.25480
 O1566 O 0.80473 0.48241 0.21272
 O1567 O 0.75260 0.44697 0.27455
 O1568 O 0.71019 0.45663 0.26646
 O1569 O 0.77527 0.49997 0.30757
 O1570 O 0.77430 0.54151 0.30025
 O1571 O 0.69414 0.51179 0.21870
 O1572 O 0.70195 0.47138 0.21944
 O1573 O 0.75595 0.53584 0.19076
 O1574 O 0.79625 0.52896 0.20274
 O1575 O 0.72755 0.56640 0.24553
 O1576 O 0.72852 0.55619 0.28542
 Zr1577 Zr 0.72648 0.53402 0.25916
 O1578 O 0.74260 0.51173 0.28056
 Zr1579 Zr 0.76792 0.53288 0.22316
 O1580 O 0.78711 0.51253 0.24417
 Zr1581 Zr 0.72636 0.49660 0.22004
 O1582 O 0.74482 0.47355 0.23896
 Zr1583 Zr 0.77717 0.51618 0.27687
 O1584 O 0.76106 0.53958 0.25626
 Zr1585 Zr 0.73709 0.47862 0.27179
 O1586 O 0.71747 0.50094 0.25284
 Zr1587 Zr 0.77953 0.47973 0.23691
 O1588 O 0.76123 0.50008 0.21483
 O1589 O 0.73344 0.52933 0.22641
 O1590 O 0.77153 0.48319 0.26969
 C1591 C 0.68504 0.52734 0.22992
 C1592 C 0.74058 0.57547 0.23124
 C1593 C 0.74003 0.52620 0.18046
 C1594 C 0.81766 0.48497 0.27178
 C1595 C 0.76268 0.48440 0.31510
 C1596 C 0.76894 0.43786 0.26413
 H1597 H 0.73745 0.51457 0.29557
 H1598 H 0.74121 0.45840 0.23439
 H1599 H 0.72478 0.53950 0.21688
 H1600 H 0.80325 0.51579 0.24240
 H1601 H 0.80063 0.55136 0.27109
 H1602 H 0.80324 0.55400 0.23493
 H1603 H 0.71582 0.44425 0.25763
 H1604 H 0.69230 0.47343 0.23239
 H1605 H 0.76176 0.53784 0.31018
 H1606 H 0.74220 0.56513 0.28311
 H1607 H 0.76755 0.45141 0.20816
 H1608 H 0.74139 0.47219 0.18930
 H1609 H 0.69340 0.52097 0.28287
 H1610 H 0.70804 0.49064 0.30053
 H1611 H 0.79248 0.51749 0.19202
 H1612 H 0.81729 0.49099 0.21881
 O1613 O 0.55598 0.21325 0.75419
 O1614 O 0.54735 0.21240 0.79126
 O1615 O 0.49699 0.18584 0.72453
 O1616 O 0.46135 0.19400 0.72042
 O1617 O 0.52873 0.24577 0.69810
 O1618 O 0.52741 0.28274 0.70780
 O1619 O 0.43751 0.24236 0.78198
 O1620 O 0.44385 0.20524 0.77733
 O1621 O 0.49343 0.26879 0.81257
 O1622 O 0.53308 0.26711 0.80753
 O1623 O 0.46893 0.30082 0.75733
 O1624 O 0.46899 0.29541 0.71953
 O1625 O 0.43862 0.27161 0.75852
 O1626 O 0.44766 0.26934 0.71666
 O1627 O 0.49491 0.29917 0.78438
 O1628 O 0.53662 0.28939 0.78282
 O1629 O 0.46620 0.24275 0.81080
 O1630 O 0.47079 0.20175 0.80166
 O1631 O 0.55789 0.24197 0.73008
 O1632 O 0.54927 0.28164 0.73447
 O1633 O 0.50219 0.21913 0.69552
 O1634 O 0.46016 0.22426 0.70277
 O1635 O 0.52203 0.18307 0.75239
 O1636 O 0.52123 0.19050 0.79124
 Zr1637 Zr 0.52309 0.21475 0.76625
 O1638 O 0.50342 0.23360 0.78757
 Zr1639 Zr 0.48567 0.21853 0.72617
 O1640 O 0.46340 0.23601 0.74649
 Zr1641 Zr 0.52557 0.25616 0.73033
 O1642 O 0.50460 0.27624 0.74925
 Zr1643 Zr 0.46965 0.22892 0.77957
 O1644 O 0.48920 0.20864 0.75921
 Zr1645 Zr 0.50910 0.26744 0.78212
 O1646 O 0.53147 0.24843 0.76330
 Zr1647 Zr 0.47049 0.26970 0.74307
 O1648 O 0.49168 0.25232 0.72134
 O1649 O 0.51938 0.22251 0.73338
 O1650 O 0.47514 0.26265 0.77595
 C1651 C 0.56655 0.22542 0.74041
 C1652 C 0.51078 0.17492 0.73655
 C1653 C 0.51840 0.23081 0.68761
 C1654 C 0.42884 0.25960 0.77320
 C1655 C 0.47664 0.25829 0.82054
 C1656 C 0.47958 0.30918 0.77333
 H1657 H 0.50663 0.22927 0.80282
 H1658 H 0.50841 0.29184 0.74625
 H1659 H 0.52909 0.21318 0.72419
 H1660 H 0.44770 0.23258 0.74269
 H1661 H 0.44989 0.19304 0.76850
 H1662 H 0.44997 0.19540 0.73204
 H1663 H 0.53391 0.30111 0.77177
 H1664 H 0.55785 0.27803 0.74786
 H1665 H 0.48080 0.20549 0.81391
 H1666 H 0.50659 0.18308 0.78961
 H1667 H 0.48419 0.30180 0.71853
 H1668 H 0.51258 0.28367 0.70062
 H1669 H 0.55373 0.22735 0.79282
 H1670 H 0.53320 0.25212 0.81405
 H1671 H 0.46490 0.23704 0.69372
 H1672 H 0.43493 0.25973 0.72079
 O1673 O 0.25955 0.77922 0.45209
 O1674 O 0.22020 0.77837 0.45556
 O1675 O 0.27712 0.81384 0.51192
 O1676 O 0.27464 0.80791 0.54736
 O1677 O 0.31458 0.75730 0.49002
 O1678 O 0.30894 0.71854 0.49346
 O1679 O 0.21524 0.75233 0.56354
 O1680 O 0.21739 0.79013 0.55618
 O1681 O 0.19539 0.72251 0.50550
 O1682 O 0.20865 0.72261 0.46844
 O1683 O 0.24966 0.69703 0.54138
 O1684 O 0.28801 0.70563 0.54562
 O1685 O 0.24398 0.72822 0.56896
 O1686 O 0.28635 0.73224 0.56490
 O1687 O 0.22643 0.69478 0.51217
 O1688 O 0.23482 0.70202 0.47200
 O1689 O 0.19001 0.74926 0.53057
 O1690 O 0.19611 0.78982 0.52700
 O1691 O 0.28728 0.75374 0.45651
 O1692 O 0.28675 0.71528 0.46726
 O1693 O 0.31035 0.78456 0.51478
 O1694 O 0.29636 0.78025 0.55357
 O1695 O 0.25561 0.81183 0.48142
 O1696 O 0.21589 0.80218 0.47929
 Zr1697 Zr 0.24262 0.77936 0.48219
 O1698 O 0.21957 0.75902 0.49887
 Zr1699 Zr 0.27655 0.78176 0.52496
 O1700 O 0.25432 0.76253 0.54392
 Zr1701 Zr 0.28317 0.74210 0.48868
 O1702 O 0.26227 0.72067 0.50652
 Zr1703 Zr 0.22125 0.76553 0.53233
 O1704 O 0.24296 0.78751 0.51544
 Zr1705 Zr 0.22905 0.72574 0.49643
 O1706 O 0.25021 0.74582 0.47703
 Zr1707 Zr 0.26243 0.72917 0.53965
 O1708 O 0.28607 0.74851 0.52219
 O1709 O 0.27570 0.77540 0.49176
 O1710 O 0.22914 0.73220 0.52973
 C1711 C 0.27630 0.76794 0.44507
 C1712 C 0.26851 0.82228 0.49460
 C1713 C 0.32197 0.77373 0.50085
 C1714 C 0.22614 0.73828 0.57519
 C1715 C 0.18322 0.73290 0.51916
 C1716 C 0.23572 0.68668 0.52940
 H1717 H 0.20440 0.76160 0.49289
 H1718 H 0.26722 0.70529 0.50435
 H1719 H 0.28572 0.78502 0.48302
 H1720 H 0.25536 0.76699 0.55933
 H1721 H 0.22541 0.80335 0.55068
 H1722 H 0.26215 0.80448 0.55743
 H1723 H 0.24642 0.69163 0.47741
 H1724 H 0.27331 0.71535 0.45781
 H1725 H 0.18817 0.78641 0.51332
 H1726 H 0.21523 0.81024 0.49320
 H1727 H 0.29178 0.69885 0.53151
 H1728 H 0.31434 0.72032 0.50858
 H1729 H 0.22106 0.76322 0.44980
 H1730 H 0.19956 0.73621 0.46705
 H1731 H 0.30746 0.76828 0.55160
 H1732 H 0.28144 0.74439 0.57440
 O1733 O 0.30695 0.25189 0.97888
 O1734 O 0.29635 0.21286 0.98303
 O1735 O 0.25359 0.27901 0.94258
 O1736 O 0.21583 0.28173 0.94561
 O1737 O 0.27727 0.31056 1.00083
 O1738 O 0.27111 0.30372 1.03924
 O1739 O 0.18472 0.22914 1.00114
 O1740 O 0.19428 0.23273 0.96256
 O1741 O 0.23710 0.19740 1.03110
 O1742 O 0.27761 0.20228 1.03328
 O1743 O 0.21165 0.25651 1.05645
 O1744 O 0.21773 0.29654 1.04605
 O1745 O 0.18444 0.25722 1.02530
 O1746 O 0.19444 0.29601 1.02223
 O1747 O 0.23639 0.22808 1.05920
 O1748 O 0.27803 0.22683 1.05466
 O1749 O 0.21267 0.19823 1.00270
 O1750 O 0.21764 0.20423 0.96456
 O1751 O 0.30622 0.27829 1.00489
 O1752 O 0.29459 0.27798 1.04212
 O1753 O 0.25339 0.31133 0.97191
 O1754 O 0.21300 0.30617 0.97195
 O1755 O 0.27888 0.25108 0.94634
 O1756 O 0.27426 0.21323 0.95603
 Zr1757 Zr 0.27384 0.23949 0.97835
 O1758 O 0.25080 0.22042 0.99639
 Zr1759 Zr 0.23718 0.28054 0.97314
 O1760 O 0.21260 0.26337 0.99137
 Zr1761 Zr 0.27272 0.27926 1.01503
 O1762 O 0.25005 0.26186 1.03489
 Zr1763 Zr 0.21766 0.22934 0.98830
 O1764 O 0.24075 0.24643 0.96795
 Zr1765 Zr 0.25374 0.22792 1.02952
 O1766 O 0.27861 0.24524 1.01176
 Zr1767 Zr 0.21725 0.26931 1.02480
 O1768 O 0.23996 0.28869 1.00635
 O1769 O 0.26993 0.27322 0.98187
 O1770 O 0.22062 0.23531 1.02151
 C1771 C 0.31622 0.26715 0.99018
 C1772 C 0.26942 0.26657 0.93527
 C1773 C 0.26848 0.31998 0.98407
 C1774 C 0.17506 0.24114 1.01558
 C1775 C 0.22172 0.18879 1.01929
 C1776 C 0.22068 0.24027 1.06683
 H1777 H 0.25380 0.20466 0.99372
 H1778 H 0.25267 0.26573 1.05028
 H1779 H 0.28078 0.28168 0.97291
 H1780 H 0.19740 0.26760 0.98643
 H1781 H 0.20273 0.23813 0.94967
 H1782 H 0.20134 0.27510 0.94994
 H1783 H 0.27586 0.23999 1.06380
 H1784 H 0.30089 0.26287 1.04267
 H1785 H 0.23176 0.19579 0.96609
 H1786 H 0.26017 0.21440 0.94756
 H1787 H 0.22889 0.29340 1.05760
 H1788 H 0.25737 0.31245 1.03632
 H1789 H 0.30344 0.21492 0.99744
 H1790 H 0.27778 0.19378 1.01963
 H1791 H 0.21411 0.31416 0.98587
 H1792 H 0.18689 0.29506 1.00793
 N1793 N 0.27079 0.40331 0.77635
 N1794 N 0.28262 0.41493 0.76342
 N1795 N 0.26842 -0.10614 0.27817
 N1796 N 0.27779 -0.09489 0.26314
 N1797 N 0.76679 0.90046 0.78955
 N1798 N 0.75070 0.91175 0.78363
 N1799 N 0.48423 0.85429 0.26658
 N1800 N 0.47291 0.84188 0.25422
 N1801 N -0.02804 0.84009 0.78833
 N1802 N -0.03569 0.83175 0.77095
 N1803 N -0.02251 -0.09713 -0.03493
 N1804 N -0.00943 -0.08412 -0.04507
 N1805 N -0.02707 0.39712 0.46469
 N1806 N -0.01301 0.40614 0.47626
 N1807 N 0.48707 -0.11269 0.47262
 N1808 N 0.50205 -0.10327 0.48257
 N1809 N 0.45737 0.39801 -0.02333
 N1810 N 0.46528 0.40699 -0.00719
 N1811 N 0.76890 0.36200 0.47745
 N1812 N 0.75239 0.35114 0.47011
 N1813 N 0.78898 0.84457 -0.02417
 N1814 N 0.77136 0.83425 -0.02972
 N1815 N 0.77772 0.27517 0.40330
 N1816 N 0.75982 0.28198 0.41237
 N1817 N 0.78177 0.76604 -0.10659
 N1818 N 0.76630 0.77312 -0.09430
 N1819 N 0.29508 0.48126 0.84502
 N1820 N 0.27749 0.47579 0.83482
 N1821 N 0.29281 -0.02665 0.34691
 N1822 N 0.27643 -0.03461 0.33633
 N1823 N -0.03171 -0.02214 -0.10904
 N1824 N -0.02130 -0.00659 -0.10137
 N1825 N -0.03579 0.47211 0.40056
 N1826 N -0.02718 0.48742 0.41050
 N1827 N 0.48517 -0.04636 0.40215
 N1828 N 0.47508 -0.03329 0.41486
 N1829 N 0.46898 0.46345 -0.08564
 N1830 N 0.45964 0.47894 -0.07520
 N1831 N 0.46473 0.77845 0.34572
 N1832 N 0.47878 0.78778 0.33308
 N1833 N -0.02572 0.78321 0.83909
 N1834 N -0.03304 0.76591 0.82997
 N1835 N 0.39752 0.77045 0.28751
 N1836 N 0.40699 0.77635 0.26982
 N1837 N -0.10746 0.78129 0.76098
 N1838 N -0.09676 0.76476 0.76861
 N1839 N 0.83881 0.28320 0.46464
 N1840 N 0.82695 0.29315 0.47864
 N1841 N 0.85357 0.78293 -0.03011
 N1842 N 0.84229 0.76734 -0.03817
 N1843 N -0.09556 -0.02213 -0.04461
 N1844 N -0.08238 -0.03055 -0.03047
 N1845 N -0.10284 0.48086 0.47301
 N1846 N -0.08999 0.46893 0.48474
 N1847 N 0.40404 -0.04797 0.47902
 N1848 N 0.42234 -0.05484 0.48549
 N1849 N 0.38882 0.47263 -0.01711
 N1850 N 0.39648 0.48508 -0.00341
 N1851 N 0.36286 0.46696 0.77219
 N1852 N 0.35136 0.48298 0.77926
 N1853 N 0.35633 -0.02332 0.28468
 N1854 N 0.34517 -0.03052 0.26860
 N1855 N 0.16414 0.52548 0.70328
 N1856 N 0.17552 0.53455 0.71818
 N1857 N 0.15484 0.02272 0.21078
 N1858 N 0.16469 0.02843 0.22823
 N1859 N 0.59895 0.73198 0.21164
 N1860 N 0.58880 0.72473 0.22848
 N1861 N 0.09939 0.72269 0.73042
 N1862 N 0.08651 0.73454 0.71869
 N1863 N 0.64279 0.21266 0.52664
 N1864 N 0.65205 0.23035 0.53297
 N1865 N 0.65744 0.72167 0.04013
 N1866 N 0.66880 0.71282 0.02508
 N1867 N 0.10820 0.02291 0.01939
 N1868 N 0.09631 0.03336 0.00549
 N1869 N 0.10438 0.51641 0.52856
 N1870 N 0.09213 0.52542 0.51402
 N1871 N 0.60649 0.02020 0.53026
 N1872 N 0.59417 0.02783 0.51496
 N1873 N 0.59537 0.52535 0.02341
 N1874 N 0.58441 0.50984 0.03250
 N1875 N 0.02809 0.03231 0.08823
 N1876 N 0.03740 0.01790 0.07631
 N1877 N 0.02509 0.52910 0.59803
 N1878 N 0.03359 0.51379 0.58665
 N1879 N 0.53564 0.02093 0.59971
 N1880 N 0.52740 0.00521 0.59010
 N1881 N 0.50717 0.52236 0.11321
 N1882 N 0.51711 0.50817 0.10159
 N1883 N 0.22966 0.52767 0.64842
 N1884 N 0.24527 0.53709 0.65887
 N1885 N 0.21658 0.02074 0.15213
 N1886 N 0.23048 0.03037 0.16447
 N1887 N 0.72875 0.22743 0.60318
 N1888 N 0.71813 0.24235 0.59269
 N1889 N 0.72587 0.72472 0.09556
 N1890 N 0.74125 0.71549 0.08451
 N1891 N 0.53177 0.72026 0.15301
 N1892 N 0.51819 0.71068 0.16594
 N1893 N 0.00911 0.71618 0.64042
 N1894 N 0.01690 0.73210 0.65134
 N1895 N 0.51788 0.64712 0.22647
 N1896 N 0.52743 0.65961 0.24007
 N1897 N 0.03846 0.65017 0.72011
 N1898 N 0.02051 0.65954 0.71365
 N1899 N 0.01463 0.10038 0.03422
 N1900 N 0.02174 0.09209 0.01661
 N1901 N 0.03453 0.59800 0.51840
 N1902 N 0.01897 0.58633 0.52674
 N1903 N 0.51402 0.09070 0.53684
 N1904 N 0.52036 0.08178 0.51930
 N1905 N 0.53689 0.59266 0.03121
 N1906 N 0.52061 0.58217 0.03977
 N1907 N 0.71129 0.16044 0.52735
 N1908 N 0.72618 0.17304 0.53515
 N1909 N 0.72199 0.64283 0.01556
 N1910 N 0.73881 0.65334 0.02263
 N1911 N 0.22808 0.60726 0.73462
 N1912 N 0.24456 0.59772 0.72562
 N1913 N 0.23800 0.09952 0.22085
 N1914 N 0.22950 0.08808 0.23621
 N1915 N 0.72197 1.10284 0.72665
 N1916 N 0.73686 1.09061 0.71812
 N1917 N 0.72012 0.60909 0.23112
 N1918 N 0.73619 0.59750 0.22391
 N1919 N 0.52271 0.14560 0.71570
 N1920 N 0.51345 0.15203 0.73239
 N1921 N 1.02284 0.14621 0.21676
 N1922 N 1.03109 0.15694 0.23252
 N1923 N 0.21516 0.65370 0.52644
 N1924 N 0.23014 0.66481 0.53607
 N1925 N 0.22186 0.15677 1.04119
 N1926 N 0.21406 0.16723 1.02480
 N1927 N 0.22911 0.72250 0.61024
 N1928 N 0.21774 0.73370 0.59652
 N1929 N 0.22159 0.21914 1.09861
 N1930 N 0.21266 0.23513 1.08820
 N1931 N 0.71941 0.52475 0.14803
 N1932 N 0.73544 0.53335 0.15860
 N1933 N 0.73465 1.03460 0.65010
 N1934 N 0.72727 1.01762 0.66017
 N1935 N 0.52042 0.20871 0.65669
 N1936 N 0.52656 0.22609 0.66628
 N1937 N 1.02992 0.22733 0.15045
 N1938 N 1.01575 0.21777 0.16284
 N1939 N 0.60033 0.22952 0.72111
 N1940 N 0.58913 0.21945 0.73573
 N1941 N 1.10349 0.21380 0.23041
 N1942 N 1.09125 0.22851 0.22146
 N1943 N 0.14712 0.73386 0.53510
 N1944 N 0.16083 0.72516 0.52188
 N1945 N 0.14181 0.21970 1.01518
 N1946 N 0.15277 0.23600 1.02238
 N1947 N 0.65020 0.52505 0.21144
 N1948 N 0.66270 0.53438 0.22524
 N1949 N 0.65571 1.05141 0.71774
 N1950 N 0.66153 1.03126 0.71727
 N1951 N 0.84893 0.46092 0.27361
 N1952 N 0.83817 0.47726 0.28105
 N1953 N 0.84194 0.95571 0.77928
 N1954 N 0.83088 0.97175 0.78695
 N1955 N 0.39751 0.28356 0.77487
 N1956 N 0.40728 0.26600 0.78121
 N1957 N 0.90194 0.28494 0.27737
 N1958 N 0.91310 0.26863 0.28504
 N1959 N 0.35421 0.77289 0.47968
 N1960 N 0.34387 0.78153 0.49557
 N1961 N 0.34846 0.26705 0.96803
 N1962 N 0.33838 0.27395 0.98485
 N1963 N 0.77967 0.48622 0.34957
 N1964 N 0.76577 0.47696 0.33703
 N1965 N 0.76137 0.96680 0.85228
 N1966 N 0.76834 0.98358 0.84169
 N1967 N 0.27281 0.78458 0.41051
 N1968 N 0.28346 0.77151 0.42314
 N1969 N 0.26934 0.28543 0.90150
 N1970 N 0.27779 0.27053 0.91372
 N1971 N 0.47661 0.28133 0.85110
 N1972 N 0.46818 0.26507 0.84111
 N1973 N 0.96779 0.27076 0.34925
 N1974 N 0.98359 0.27863 0.33768
 N1975 N 0.48258 0.34076 0.79509
 N1976 N 0.47373 0.33109 0.77902
 N1977 N 0.98139 0.34479 0.28654
 N1978 N 0.97245 0.33410 0.27113
 N1979 N 0.26877 0.85388 0.47176
 N1980 N 0.27477 0.84444 0.48941
 N1981 N 0.27032 0.35146 0.96131
 N1982 N 0.27743 0.34079 0.97786
 N1983 N 0.76877 0.40527 0.28637
 N1984 N 0.77648 0.41618 0.27021
   
