data_POSCAR
  _audit_creation_date              2014-09-24
  _audit_creation_method            'ToBaCCo'
  _symmetry_space_group_name_H-M    'P1'
  _symmetry_Int_Tables_number       1
  _symmetry_cell_setting            triclinic
  loop_
  _symmetry_equiv_pos_as_xyz
 x,y,z
_cell_length_a 50.5389
_cell_length_b 50.5475
_cell_length_c 50.5531
_cell_angle_alpha 90.010600
_cell_angle_beta 89.985300
_cell_angle_gamma 90.006200
loop_
  _atom_site_label
  _atom_site_type_symbol
  _atom_site_fract_x
  _atom_site_fract_y
  _atom_site_fract_z
C1 C 0.33559 1.37017 0.33636
 C2 C 0.34693 1.38167 0.31379
 C3 C 0.37012 1.37113 0.30222
 C4 C 0.38198 1.34890 0.31433
 C5 C 0.37051 1.33689 0.33657
 C6 C 0.34716 1.34747 0.34755
 C7 C 0.31256 1.38086 0.34759
 C8 C 0.30018 1.36874 0.36955
 C9 C 0.31187 1.34569 0.38023
 C10 C 0.33524 1.33519 0.36956
 C11 C 0.34674 1.31240 0.38045
 C12 C 0.36990 1.30158 0.36950
 C13 C 0.38173 1.31404 0.34763
 H14 H 0.33794 1.39939 0.30578
 H15 H 0.39932 1.33976 0.30566
 H16 H 0.30362 1.39791 0.33819
 H17 H 0.30349 1.33632 0.39757
 H18 H 0.33730 1.30269 0.39709
 H19 H 0.39972 1.30593 0.33922
 C20 C 0.33589 0.87083 0.83723
 C21 C 0.34738 0.88241 0.81476
 C22 C 0.36976 0.87102 0.80275
 C23 C 0.38100 0.84814 0.81387
 C24 C 0.36971 0.83632 0.83629
 C25 C 0.34693 0.84757 0.84788
 C26 C 0.31317 0.88185 0.84875
 C27 C 0.30060 0.86959 0.87054
 C28 C 0.31200 0.84626 0.88094
 C29 C 0.33504 0.83538 0.86993
 C30 C 0.34619 0.81226 0.88052
 C31 C 0.36895 0.80099 0.86917
 C32 C 0.38059 0.81318 0.84703
 H33 H 0.33884 0.90026 0.80652
 H34 H 0.39808 0.83906 0.80459
 H35 H 0.30455 0.89920 0.83962
 H36 H 0.30359 0.83687 0.89826
 H37 H 0.33683 0.80271 0.89728
 H38 H 0.39823 0.80471 0.83825
 C39 C 0.83550 1.36998 0.83629
 C40 C 0.84686 1.38123 0.81356
 C41 C 0.86875 1.36923 0.80089
 C42 C 0.87943 1.34598 0.81216
 C43 C 0.86858 1.33485 0.83512
 C44 C 0.84646 1.34676 0.84715
 C45 C 0.81290 1.38122 0.84791
 C46 C 0.80109 1.36952 0.87024
 C47 C 0.81258 1.34672 0.88131
 C48 C 0.83511 1.33526 0.86992
 C49 C 0.84620 1.31221 0.88068
 C50 C 0.86840 1.30031 0.86887
 C51 C 0.87948 1.31182 0.84610
 H52 H 0.83758 1.39856 0.80506
 H53 H 0.89685 1.33682 0.80369
 H54 H 0.80404 1.39864 0.83910
 H55 H 0.80390 1.33784 0.89879
 H56 H 0.83720 1.30320 0.89794
 H57 H 0.89673 1.30290 0.83699
 C58 C 0.83589 0.86993 0.33636
 C59 C 0.84725 0.88118 0.31364
 C60 C 0.86915 0.86919 0.30099
 C61 C 0.87985 0.84596 0.31227
 C62 C 0.86901 0.83484 0.33523
 C63 C 0.84687 0.84673 0.34725
 C64 C 0.81327 0.88114 0.34796
 C65 C 0.80144 0.86943 0.37028
 C66 C 0.81295 0.84666 0.38137
 C67 C 0.83552 0.83522 0.37002
 C68 C 0.84665 0.81220 0.38080
 C69 C 0.86888 0.80033 0.36900
 C70 C 0.87995 0.81184 0.34623
 H71 H 0.83796 0.89849 0.30512
 H72 H 0.89728 0.83681 0.30380
 H73 H 0.80439 0.89854 0.33913
 H74 H 0.80425 0.83777 0.39884
 H75 H 0.83767 0.80318 0.39806
 H76 H 0.89722 0.80295 0.33713
 C77 C 0.66490 0.63076 0.33539
 C78 C 0.65393 0.61972 0.31244
 C79 C 0.63060 0.63013 0.30108
 C80 C 0.61836 0.65194 0.31364
 C81 C 0.62941 0.66345 0.33637
 C82 C 0.65272 0.65279 0.34733
 C83 C 0.68805 0.62019 0.34644
 C84 C 0.69942 0.63151 0.36917
 C85 C 0.68721 0.65358 0.38091
 C86 C 0.66403 0.66434 0.37008
 C87 C 0.65228 0.68678 0.38136
 C88 C 0.62939 0.69797 0.37018
 C89 C 0.61789 0.68596 0.34787
 H90 H 0.66330 0.60238 0.30404
 H91 H 0.60099 0.66106 0.30505
 H92 H 0.69719 0.60303 0.33739
 H93 H 0.69610 0.66276 0.39813
 H94 H 0.66103 0.69563 0.39882
 H95 H 0.60041 0.69461 0.33896
 C96 C 0.66397 0.12927 0.83688
 C97 C 0.65264 0.11764 0.81437
 C98 C 0.63038 0.12902 0.80216
 C99 C 0.61908 0.15196 0.81313
 C100 C 0.63018 0.16382 0.83562
 C101 C 0.65288 0.15259 0.84738
 C102 C 0.68658 0.11824 0.84864
 C103 C 0.69897 0.13055 0.87049
 C104 C 0.68752 0.15393 0.88071
 C105 C 0.66464 0.16485 0.86945
 C106 C 0.65347 0.18801 0.87988
 C107 C 0.63081 0.19931 0.86836
 C108 C 0.61926 0.18704 0.84622
 H109 H 0.66123 0.09974 0.80624
 H110 H 0.60208 0.16102 0.80370
 H111 H 0.69524 0.10083 0.83964
 H112 H 0.69579 0.16337 0.89808
 H113 H 0.66235 0.19719 0.89710
 H114 H 0.60209 0.19587 0.83690
 C115 C 1.16418 0.62940 0.83678
 C116 C 1.15274 0.61774 0.81434
 C117 C 1.13044 0.62913 0.80221
 C118 C 1.11922 0.65211 0.81317
 C119 C 1.13044 0.66400 0.83559
 C120 C 1.15317 0.65276 0.84728
 C121 C 1.18681 0.61836 0.84846
 C122 C 1.19932 0.63067 0.87024
 C123 C 1.18796 0.65410 0.88047
 C124 C 1.16505 0.66504 0.86928
 C125 C 1.15394 0.68825 0.87970
 C126 C 1.13124 0.69955 0.86826
 C127 C 1.11960 0.68725 0.84619
 H128 H 1.16126 0.59982 0.80622
 H129 H 1.10220 0.66117 0.80380
 H130 H 1.19540 0.60093 0.83944
 H131 H 1.19632 0.66356 0.89777
 H132 H 1.16291 0.69746 0.89687
 H133 H 1.10239 0.69608 0.83692
 C134 C 1.16469 0.13012 0.33589
 C135 C 1.15337 0.11866 0.31327
 C136 C 1.13026 0.12931 0.30164
 C137 C 1.11846 0.15160 0.31372
 C138 C 1.12989 0.16356 0.33600
 C139 C 1.15317 0.15287 0.34703
 C140 C 1.18763 0.11932 0.34723
 C141 C 1.19996 0.13140 0.36924
 C142 C 1.18831 0.15450 0.37985
 C143 C 1.16508 0.16512 0.36904
 C144 C 1.15367 0.18797 0.37988
 C145 C 1.13061 0.19896 0.36886
 C146 C 1.11875 0.18650 0.34700
 H147 H 1.16232 0.10091 0.30528
 H148 H 1.10119 0.16080 0.30499
 H149 H 1.19654 0.10222 0.33788
 H150 H 1.19663 0.16384 0.39724
 H151 H 1.16275 0.19721 0.39697
 H152 H 1.10120 0.19504 0.33812
 C153 C 0.66363 1.37101 0.66313
 C154 C 0.65202 1.38241 0.68562
 C155 C 0.62970 1.37080 0.69754
 C156 C 0.61862 1.34789 0.68631
 C157 C 0.63001 1.33626 0.66384
 C158 C 0.65276 1.34770 0.65237
 C159 C 0.68631 1.38223 0.65167
 C160 C 0.69899 1.37011 0.62988
 C161 C 0.68776 1.34675 0.61938
 C162 C 0.66483 1.33565 0.63034
 C163 C 0.65391 1.31248 0.61967
 C164 C 0.63121 1.30096 0.63090
 C165 C 0.61936 1.31303 0.65300
 H166 H 0.66043 1.40028 0.69396
 H167 H 0.60159 1.33867 0.69552
 H168 H 0.69479 1.39963 0.66086
 H169 H 0.69625 1.33747 0.60204
 H170 H 0.66303 1.30345 0.60249
 H171 H 0.60214 1.30403 0.66209
 C172 C 0.66485 0.86953 1.16490
 C173 C 0.65377 0.88026 1.18794
 C174 C 0.63048 0.86958 1.19917
 C175 C 0.61843 0.84778 1.18640
 C176 C 0.62965 0.83651 1.16363
 C177 C 0.65290 0.84745 1.15280
 C178 C 0.68795 0.88040 1.15396
 C179 C 0.69944 0.86931 1.13118
 C180 C 0.68748 0.84717 1.11932
 C181 C 0.66439 0.83613 1.13003
 C182 C 0.65286 0.81369 1.11854
 C183 C 0.63003 0.80222 1.12957
 C184 C 0.61835 0.81398 1.15194
 H185 H 0.66297 0.89762 1.19650
 H186 H 0.60109 0.83848 1.19488
 H187 H 0.69732 0.89717 1.16349
 H188 H 0.69611 0.83859 1.10166
 H189 H 0.66174 0.80504 1.10104
 H190 H 0.60091 0.80511 1.16073
 C191 C 1.16406 1.37095 1.16303
 C192 C 1.15233 1.38228 1.18548
 C193 C 1.12999 1.37063 1.19728
 C194 C 1.11897 1.34774 1.18594
 C195 C 1.13048 1.33617 1.16349
 C196 C 1.15327 1.34766 1.15215
 C197 C 1.18679 1.38222 1.15173
 C198 C 1.19959 1.37018 1.12997
 C199 C 1.18843 1.34684 1.11934
 C200 C 1.16545 1.33568 1.13015
 C201 C 1.15460 1.31253 1.11936
 C202 C 1.13185 1.30097 1.13045
 C203 C 1.11989 1.31297 1.15253
 H204 H 1.16069 1.40015 1.19390
 H205 H 1.10191 1.33848 1.19505
 H206 H 1.19521 1.39959 1.16102
 H207 H 1.19702 1.33762 1.10201
 H208 H 1.16381 1.30355 1.10220
 H209 H 1.10264 1.30393 1.16152
 C210 C 1.16367 0.87055 0.66325
 C211 C 1.15186 0.88180 0.68574
 C212 C 1.12948 0.87006 0.69742
 C213 C 1.11857 0.84720 0.68592
 C214 C 1.13016 0.83571 0.66350
 C215 C 1.15295 0.84726 0.65228
 C216 C 1.18645 0.88184 0.65205
 C217 C 1.19931 0.86987 0.63027
 C218 C 1.18818 0.84655 0.61955
 C219 C 1.16518 0.83534 0.63027
 C220 C 1.15435 0.81221 0.61938
 C221 C 1.13155 0.80064 0.63037
 C222 C 1.11956 0.81258 0.65244
 H223 H 1.16056 0.89927 0.69463
 H224 H 1.10105 0.83827 0.69449
 H225 H 1.19483 0.89920 0.66139
 H226 H 1.19680 0.83738 0.60221
 H227 H 1.16361 0.80326 0.60223
 H228 H 1.10230 0.80352 0.66139
 C229 C 0.33635 0.62974 0.66346
 C230 C 0.34784 0.61890 0.68627
 C231 C 0.37031 0.63062 0.69777
 C232 C 0.38145 0.65321 0.68594
 C233 C 0.37019 0.66425 0.66312
 C234 C 0.34753 0.65252 0.65184
 C235 C 0.31357 0.61844 0.65238
 C236 C 0.30168 0.62962 0.62985
 C237 C 0.31307 0.65220 0.61824
 C238 C 0.33583 0.66376 0.62913
 C239 C 0.34681 0.68667 0.61796
 C240 C 0.36931 0.69859 0.62922
 C241 C 0.38098 0.68712 0.65171
 H242 H 0.33889 0.60173 0.69548
 H243 H 0.39894 0.66219 0.69450
 H244 H 0.30507 0.60087 0.66128
 H245 H 0.30381 0.66119 0.60112
 H246 H 0.33786 0.69523 0.60046
 H247 H 0.39806 0.69640 0.66075
 C248 C 0.33680 0.12909 1.16350
 C249 C 0.34850 0.11814 1.18617
 C250 C 0.37031 0.13050 1.19858
 C251 C 0.38055 0.15387 1.18711
 C252 C 0.36939 0.16467 1.16414
 C253 C 0.34732 0.15237 1.15237
 C254 C 0.31433 0.11739 1.15214
 C255 C 0.30219 0.12867 1.12979
 C256 C 0.31317 0.15158 1.11846
 C257 C 0.33559 0.16353 1.12963
 C258 C 0.34622 0.18671 1.11867
 C259 C 0.36838 0.19898 1.13017
 C260 C 0.37984 0.18779 1.15291
 H261 H 0.33949 0.10075 1.19485
 H262 H 0.39788 0.16334 1.19541
 H263 H 0.30619 0.09952 1.16076
 H264 H 0.30379 0.16057 1.10140
 H265 H 0.33734 0.19513 1.10106
 H266 H 0.39661 0.19742 1.16219
 C267 C 0.83563 0.63002 1.16402
 C268 C 0.84704 0.61914 1.18685
 C269 C 0.86960 0.63070 1.19834
 C270 C 0.88091 0.65320 1.18649
 C271 C 0.86974 0.66431 1.16368
 C272 C 0.84697 0.65274 1.15242
 C273 C 0.81274 0.61890 1.15294
 C274 C 0.80092 0.63024 1.13045
 C275 C 0.81251 0.65273 1.11887
 C276 C 0.83536 0.66410 1.12974
 C277 C 0.84653 0.68688 1.11852
 C278 C 0.86911 0.69865 1.12974
 C279 C 0.88069 0.68710 1.15224
 H280 H 0.83797 0.60203 1.19607
 H281 H 0.89848 0.66205 1.19505
 H282 H 0.80373 0.60179 1.16221
 H283 H 0.80371 0.66141 1.10135
 H284 H 0.83764 0.69548 1.10100
 H285 H 0.89785 0.69627 1.16127
 C286 C 0.83590 0.13010 0.66447
 C287 C 0.84724 0.11940 0.68745
 C288 C 0.86925 0.13154 0.69973
 C289 C 0.87983 0.15463 0.68803
 C290 C 0.86905 0.16513 0.66473
 C291 C 0.84702 0.15282 0.65288
 C292 C 0.81331 0.11855 0.65319
 C293 C 0.80169 0.12904 0.63002
 C294 C 0.81373 0.15132 0.61814
 C295 C 0.83596 0.16339 0.62957
 C296 C 0.84695 0.18628 0.61834
 C297 C 0.86884 0.19878 0.63011
 C298 C 0.87987 0.18796 0.65323
 H299 H 0.83790 0.10232 0.69641
 H300 H 0.89721 0.16402 0.69632
 H301 H 0.80535 0.10081 0.66220
 H302 H 0.80501 0.16042 0.60082
 H303 H 0.83850 0.19437 0.60037
 H304 H 0.89651 0.19769 0.66262
 C305 C 1.37054 0.33641 0.66328
 C306 C 1.38191 0.34839 0.68564
 C307 C 1.36961 0.37016 0.69822
 C308 C 1.34608 0.38030 0.68704
 C309 C 1.33482 0.36884 0.66446
 C310 C 1.34684 0.34658 0.65277
 C311 C 1.38213 0.31389 0.65180
 C312 C 1.37005 0.30083 0.63020
 C313 C 1.34652 0.31168 0.61971
 C314 C 1.33501 0.33438 0.63070
 C315 C 1.31169 0.34495 0.61998
 C316 C 1.29984 0.36745 0.63122
 C317 C 1.31150 0.37922 0.65355
 H318 H 1.39955 0.33958 0.69401
 H319 H 1.33675 0.39773 0.69531
 H320 H 1.39977 0.30580 0.66087
 H321 H 1.33736 0.30304 0.60238
 H322 H 1.30288 0.33579 0.60270
 H323 H 1.30216 0.39621 0.66271
 C324 C 1.36975 0.83606 1.16379
 C325 C 1.38107 0.84788 1.18623
 C326 C 1.36937 0.87028 1.19793
 C327 C 1.34648 0.88119 1.18649
 C328 C 1.33493 0.86959 1.16411
 C329 C 1.34645 0.84678 1.15287
 C330 C 1.38102 0.81329 1.15255
 C331 C 1.36901 0.80045 1.13079
 C332 C 1.34566 0.81157 1.12013
 C333 C 1.33448 0.83456 1.13088
 C334 C 1.31135 0.84540 1.12002
 C335 C 1.29981 0.86820 1.13102
 C336 C 1.31178 0.88019 1.15308
 H337 H 1.39856 0.83918 1.19508
 H338 H 1.33759 0.89871 1.19507
 H339 H 1.39841 0.80491 1.16184
 H340 H 1.33647 0.80296 1.10280
 H341 H 1.30239 0.83615 1.10288
 H342 H 1.30276 0.89747 1.16202
 C343 C 0.86910 0.33580 1.16416
 C344 C 0.87965 0.34707 1.18721
 C345 C 0.86815 0.36975 1.19849
 C346 C 0.84584 0.38114 1.18639
 C347 C 0.83511 0.37012 1.16329
 C348 C 0.84688 0.34745 1.15203
 C349 C 0.88031 0.31289 1.15326
 C350 C 0.86998 0.30136 1.12998
 C351 C 0.84802 0.31366 1.11776
 C352 C 0.83626 0.33626 1.12881
 C353 C 0.81363 0.34751 1.11730
 C354 C 0.80145 0.36979 1.12870
 C355 C 0.81254 0.38116 1.15153
 H356 H 0.89653 0.33787 1.19671
 H357 H 0.83693 0.39871 1.19487
 H358 H 0.89776 0.30468 1.16261
 H359 H 0.83896 0.30493 1.10043
 H360 H 0.80541 0.33886 1.09948
 H361 H 0.80313 0.39816 1.16061
 C362 C 0.87024 0.83641 0.66391
 C363 C 0.88100 0.84802 0.68671
 C364 C 0.86926 0.87055 0.69806
 C365 C 0.84670 0.88162 0.68611
 C366 C 0.83573 0.87026 0.66330
 C367 C 0.84751 0.84754 0.65216
 C368 C 0.88160 0.81359 0.65295
 C369 C 0.87051 0.80163 0.63040
 C370 C 0.84796 0.81296 0.61868
 C371 C 0.83636 0.83575 0.62945
 C372 C 0.81350 0.84668 0.61813
 C373 C 0.80154 0.86922 0.62923
 C374 C 0.81291 0.88099 0.65173
 H375 H 0.89814 0.83911 0.69601
 H376 H 0.83769 0.89916 0.69456
 H377 H 0.89914 0.80515 0.66194
 H378 H 0.83904 0.80364 0.60155
 H379 H 0.80503 0.83766 0.60062
 H380 H 0.80359 0.89812 0.66066
 C381 C 0.62981 0.66392 0.66398
 C382 C 0.61892 0.65257 0.68684
 C383 C 0.63049 0.63006 0.69839
 C384 C 0.65300 0.61873 0.68658
 C385 C 0.66413 0.62986 0.66374
 C386 C 0.65255 0.65257 0.65241
 C387 C 0.61868 0.68678 0.65283
 C388 C 0.63003 0.69854 0.63031
 C389 C 0.65253 0.68693 0.61876
 C390 C 0.66391 0.66414 0.62971
 C391 C 0.68672 0.65297 0.61853
 C392 C 0.69852 0.63046 0.62984
 C393 C 0.68695 0.61890 0.65235
 H394 H 0.60180 0.66166 0.69603
 H395 H 0.66187 0.60120 0.69518
 H396 H 0.60157 0.69580 0.66209
 H397 H 0.66122 0.69568 0.60121
 H398 H 0.69534 0.66184 0.60101
 H399 H 0.69613 0.60178 0.66143
 C400 C 0.62931 1.16359 1.16345
 C401 C 0.61807 1.15197 1.18604
 C402 C 0.62983 1.12970 1.19789
 C403 C 0.65267 1.11868 1.18645
 C404 C 0.66415 1.13009 1.16395
 C405 C 0.65260 1.15279 1.15255
 C406 C 0.61802 1.18626 1.15206
 C407 C 0.63000 1.19895 1.13019
 C408 C 0.65333 1.18775 1.11957
 C409 C 0.66454 1.16485 1.13046
 C410 C 0.68769 1.15395 1.11968
 C411 C 0.69925 1.13125 1.13086
 C412 C 0.68729 1.11942 1.15299
 H413 H 0.60061 1.16075 1.19487
 H414 H 0.66159 1.10124 1.19516
 H415 H 0.60065 1.19472 1.16134
 H416 H 0.66251 1.19625 1.10217
 H417 H 0.69667 1.16308 1.10248
 H418 H 0.69635 1.10223 1.16207
 C419 C 0.13008 0.66430 1.16400
 C420 C 0.11884 0.65293 1.18667
 C421 C 0.12971 0.62991 1.19825
 C422 C 0.15200 0.61822 1.18605
 C423 C 0.16377 0.62974 1.16369
 C424 C 0.15286 0.65295 1.15273
 C425 C 0.11905 0.68717 1.15274
 C426 C 0.13091 0.69958 1.13066
 C427 C 0.15403 0.68810 1.11990
 C428 C 0.16490 0.66495 1.13065
 C429 C 0.18778 0.65373 1.11969
 C430 C 0.19901 0.63076 1.13064
 C431 C 0.18674 0.61878 1.15255
 H432 H 0.10107 0.66175 1.19476
 H433 H 0.16134 0.60101 1.19472
 H434 H 0.10195 0.69595 1.16220
 H435 H 0.16322 0.69649 1.10246
 H436 H 0.19687 0.66289 1.10256
 H437 H 0.19546 0.60129 1.16138
 C438 C 0.12974 1.16408 0.66402
 C439 C 0.11867 1.15266 0.68679
 C440 C 0.13084 1.13084 0.69939
 C441 C 0.15415 1.12033 0.68803
 C442 C 0.16512 1.13125 0.66502
 C443 C 0.15301 1.15331 0.65307
 C444 C 0.11827 1.18658 0.65245
 C445 C 0.12977 1.19847 0.63006
 C446 C 0.15263 1.18718 0.61892
 C447 C 0.16436 1.16479 0.63030
 C448 C 0.18748 1.15392 0.61946
 C449 C 0.19959 1.13180 0.63118
 C450 C 0.18823 1.12056 0.65394
 H451 H 0.10132 1.16185 0.69536
 H452 H 0.16346 1.10298 0.69645
 H453 H 0.10080 1.19530 0.66133
 H454 H 0.16138 1.19591 0.60139
 H455 H 0.19600 1.16262 0.60181
 H456 H 0.19773 1.10379 0.66336
 C457 C 1.37026 0.66446 0.33667
 C458 C 1.38180 0.65325 0.31405
 C459 C 1.37136 0.63006 0.30242
 C460 C 1.34918 0.61805 0.31451
 C461 C 1.33711 0.62941 0.33679
 C462 C 1.34761 0.65276 0.34784
 C463 C 1.38087 0.68749 0.34798
 C464 C 1.36872 0.69973 0.37000
 C465 C 1.34570 0.68793 0.38064
 C466 C 1.33528 0.66456 0.36989
 C467 C 1.31252 0.65294 0.38075
 C468 C 1.30178 0.62977 0.36972
 C469 C 1.31430 0.61806 0.34782
 H470 H 1.39948 0.66235 0.30606
 H471 H 1.34012 0.60071 0.30580
 H472 H 1.39788 0.69653 0.33858
 H473 H 1.33630 0.69622 0.39802
 H474 H 1.30276 0.66229 0.39741
 H475 H 1.30627 0.60006 0.33936
 C476 C 1.37111 1.16356 0.83763
 C477 C 1.38279 1.15218 0.81516
 C478 C 1.37152 1.12980 0.80306
 C479 C 1.34865 1.11844 0.81409
 C480 C 1.33674 1.12961 0.83652
 C481 C 1.34787 1.15239 0.84820
 C482 C 1.38202 1.18629 0.84924
 C483 C 1.36966 1.19874 0.87104
 C484 C 1.34633 1.18722 0.88135
 C485 C 1.33556 1.16417 0.87027
 C486 C 1.31247 1.15288 0.88077
 C487 C 1.30132 1.13011 0.86931
 C488 C 1.31360 1.11860 0.84717
 H489 H 1.40064 1.16082 0.80697
 H490 H 1.33965 1.10137 0.80474
 H491 H 1.39936 1.19500 0.84016
 H492 H 1.33685 1.19556 0.89866
 H493 H 1.30283 1.16213 0.89755
 H494 H 1.30523 1.10096 0.83831
 C495 C 0.86994 0.66414 0.83650
 C496 C 0.88118 0.65305 0.81368
 C497 C 0.87001 0.63047 0.80187
 C498 C 0.84750 0.61882 0.81337
 C499 C 0.83602 0.62970 0.83618
 C500 C 0.84725 0.65246 0.84779
 C501 C 0.88078 0.68699 0.84793
 C502 C 0.86914 0.69848 0.87044
 C503 C 0.84662 0.68660 0.88169
 C504 C 0.83558 0.66373 0.87051
 C505 C 0.81280 0.65222 0.88141
 C506 C 0.80135 0.62966 0.86982
 C507 C 0.81321 0.61844 0.84728
 H508 H 0.89870 0.66199 0.80512
 H509 H 0.83851 0.60165 0.80418
 H510 H 0.89789 0.69623 0.83888
 H511 H 0.83769 0.69516 0.89921
 H512 H 0.80357 0.66123 0.89855
 H513 H 0.80469 0.60089 0.83838
 C514 C 0.87038 1.16403 0.33626
 C515 C 0.88164 1.15283 0.31347
 C516 C 0.86972 1.13097 0.30071
 C517 C 0.84649 1.12016 0.31195
 C518 C 0.83533 1.13087 0.33496
 C519 C 0.84718 1.15297 0.34709
 C520 C 0.88157 1.18660 0.34797
 C521 C 0.86986 1.19827 0.37036
 C522 C 0.84709 1.18669 0.38139
 C523 C 0.83567 1.16418 0.36991
 C524 C 0.81263 1.15300 0.38063
 C525 C 0.80077 1.13083 0.36873
 C526 C 0.81231 1.11987 0.34591
 H527 H 0.89894 1.16222 0.30500
 H528 H 0.83738 1.10276 0.30340
 H529 H 0.89896 1.19555 0.33917
 H530 H 0.83819 1.19528 0.39892
 H531 H 0.80360 1.16191 0.39793
 H532 H 0.80342 1.10265 0.33673
 C533 C 0.62937 0.33635 0.33665
 C534 C 0.61814 0.34763 0.31390
 C535 C 0.63015 0.36947 0.30118
 C536 C 0.65339 0.38021 0.31244
 C537 C 0.66449 0.36947 0.33545
 C538 C 0.65259 0.34734 0.34750
 C539 C 0.61813 0.31376 0.34830
 C540 C 0.62985 0.30200 0.37064
 C541 C 0.65263 0.31352 0.38169
 C542 C 0.66410 0.33601 0.37025
 C543 C 0.68716 0.34708 0.38097
 C544 C 0.69907 0.36926 0.36915
 C545 C 0.68755 0.38037 0.34641
 H546 H 0.60082 0.33830 0.30541
 H547 H 0.66256 0.39760 0.30391
 H548 H 0.60073 0.30486 0.33950
 H549 H 0.66153 0.30488 0.39918
 H550 H 0.69582 0.33849 0.39860
 H551 H 0.69689 0.39718 0.33691
 C552 C 0.63018 0.83604 0.83625
 C553 C 0.61916 0.84722 0.81336
 C554 C 0.63060 0.86973 0.80166
 C555 C 0.65308 0.88124 0.81335
 C556 C 0.66431 0.87030 0.83622
 C557 C 0.65288 0.84757 0.84769
 C558 C 0.61921 0.81317 0.84753
 C559 C 0.63069 0.80157 0.87007
 C560 C 0.65315 0.81336 0.88150
 C561 C 0.66436 0.83618 0.87042
 C562 C 0.68712 0.84754 0.88149
 C563 C 0.69876 0.87008 0.87005
 C564 C 0.68709 0.88145 0.84751
 H565 H 0.60206 0.83801 0.80426
 H566 H 0.66183 0.89877 0.80462
 H567 H 0.60212 0.80400 0.83838
 H568 H 0.66194 0.80473 0.89905
 H569 H 0.69581 0.83882 0.89904
 H570 H 0.69615 0.89859 0.83833
 C571 C 0.13126 0.33466 0.83534
 C572 C 0.12046 0.34558 0.81224
 C573 C 0.13158 0.36834 0.80072
 C574 C 0.15370 0.38023 0.81270
 C575 C 0.16466 0.36957 0.83587
 C576 C 0.15330 0.34678 0.84732
 C577 C 0.12042 0.31169 0.84646
 C578 C 0.13103 0.30046 0.86977
 C579 C 0.15282 0.31321 0.88182
 C580 C 0.16417 0.33594 0.87058
 C581 C 0.18664 0.34763 0.88193
 C582 C 0.19846 0.37000 0.87032
 C583 C 0.18712 0.38103 0.84744
 H584 H 0.10327 0.33643 0.80327
 H585 H 0.16271 0.39748 0.80370
 H586 H 0.10306 0.30316 0.83724
 H587 H 0.16209 0.30476 0.89918
 H588 H 0.19504 0.33925 0.89979
 H589 H 0.19625 0.39810 0.83821
 C590 C 0.12977 0.83601 0.33666
 C591 C 0.11819 0.84767 0.31424
 C592 C 0.13028 0.86939 0.30138
 C593 C 0.15377 0.87983 0.31236
 C594 C 0.16523 0.86870 0.33499
 C595 C 0.15344 0.84646 0.34695
 C596 C 0.11841 0.81352 0.34841
 C597 C 0.13069 0.80075 0.37007
 C598 C 0.15422 0.81187 0.38032
 C599 C 0.16549 0.83456 0.36907
 C600 C 0.18878 0.84544 0.37956
 C601 C 0.20039 0.86795 0.36805
 C602 C 0.18851 0.87938 0.34567
 H603 H 0.10057 0.83865 0.30604
 H604 H 0.16292 0.89725 0.30387
 H605 H 0.10079 0.80521 0.33950
 H606 H 0.16355 0.80344 0.39767
 H607 H 0.19775 0.83654 0.39688
 H608 H 0.19766 0.89636 0.33630
 O609 O 0.97334 0.90479 0.86780
 O610 O 0.97300 0.87402 0.83687
 C611 C 0.96414 0.89558 0.84631
 C612 C 0.94250 0.90980 0.83257
 C613 C 0.93290 0.90078 0.80810
 H614 H 0.94176 0.88355 0.79892
 O615 O 1.02645 1.09593 0.86839
 O616 O 1.02660 1.12691 0.83768
 C617 C 1.03562 1.10536 0.84697
 C618 C 1.05733 1.09137 0.83309
 C619 C 1.06715 1.10086 0.80888
 H620 H 1.05861 1.11852 0.80028
 O621 O 0.86824 0.97525 0.90450
 O622 O 0.83719 0.97531 0.87386
 C623 C 0.84666 0.96622 0.89531
 C624 C 0.83291 0.94447 0.90936
 C625 C 0.80850 0.93484 0.90016
 H626 H 0.79935 0.94377 0.88296
 O627 O 1.13143 1.02506 0.90389
 O628 O 1.16237 1.02493 0.87312
 C629 C 1.15303 1.03398 0.89464
 C630 C 1.16700 1.05561 0.90868
 C631 C 1.19141 1.06505 0.89934
 H632 H 1.20070 1.05559 0.88250
 O633 O 0.90437 0.86887 0.97426
 O634 O 0.87337 0.83816 0.97430
 C635 C 0.89491 0.84740 0.96522
 C636 C 0.90872 0.83347 0.94345
 C637 C 0.89942 0.80898 0.93420
 H638 H 0.88276 0.79961 0.94391
 O639 O 1.09642 1.13120 0.97412
 O640 O 1.12749 1.16183 0.97404
 C641 C 1.10589 1.15263 0.96503
 C642 C 1.09188 1.16660 0.94339
 C643 C 1.10136 1.19087 0.93366
 H644 H 1.11899 1.19948 0.94226
 O645 O 0.90441 1.02688 0.86826
 O646 O 0.87350 1.02711 0.83748
 C647 C 0.89505 1.03608 0.84684
 C648 C 0.90911 1.05782 0.83307
 C649 C 0.89965 1.06777 0.80891
 H650 H 0.88199 1.05928 0.80028
 O651 O 1.09490 0.97383 0.86739
 O652 O 1.12570 0.97367 0.83648
 C653 C 1.10411 0.96479 0.84582
 C654 C 1.08990 0.94327 0.83191
 C655 C 1.09893 0.93385 0.80737
 H656 H 1.11611 0.94282 0.79821
 O657 O 1.02506 0.86841 0.90367
 O658 O 1.02488 0.83749 0.87289
 C659 C 1.03407 0.84689 0.89433
 C660 C 1.05594 0.83314 0.90819
 C661 C 1.06581 0.80895 0.89866
 H662 H 1.05695 0.79993 0.88136
 O663 O 0.97454 1.13174 0.90467
 O664 O 0.97457 1.16278 0.87403
 C665 C 0.96544 1.15326 0.89543
 C666 C 0.94354 1.16693 0.90934
 C667 C 0.93376 1.19114 0.89985
 H668 H 0.94310 1.20048 0.88297
 O669 O 0.86832 1.09582 0.97493
 O670 O 0.83744 1.12665 0.97505
 C671 C 0.84673 1.10510 0.96602
 C672 C 0.83278 1.09116 0.94433
 C673 C 0.80814 1.10022 0.93523
 H674 H 0.79856 1.11648 0.94536
 O675 O 1.13087 0.90437 0.97416
 O676 O 1.16177 0.87357 0.97416
 C677 C 1.15246 0.89512 0.96519
 C678 C 1.16638 0.90908 0.94349
 C679 C 1.19103 0.90003 0.93442
 H680 H 1.20063 0.88383 0.94460
 O681 O 0.97480 1.09575 0.86819
 O682 O 0.97491 1.12668 0.83744
 C683 C 0.96582 1.10514 0.84668
 C684 C 0.94397 1.09133 0.83283
 C685 C 0.93459 1.10063 0.80838
 H686 H 0.94464 1.11695 0.79883
 O687 O 1.02492 0.90457 0.86744
 O688 O 1.02468 0.87381 0.83650
 C689 C 1.03382 0.89528 0.84586
 C690 C 1.05553 0.90924 0.83196
 C691 C 1.06484 0.90009 0.80744
 H692 H 1.05525 0.88341 0.79800
 O693 O 1.13102 0.97344 0.90374
 O694 O 1.16197 0.97323 0.87299
 C695 C 1.15250 0.96424 0.89448
 C696 C 1.16624 0.94255 0.90863
 C697 C 1.19064 0.93285 0.89948
 H698 H 1.19946 0.94145 0.88196
 O699 O 0.86825 1.02686 0.90452
 O700 O 0.83719 1.02700 0.87388
 C701 C 0.84669 1.03597 0.89536
 C702 C 0.83291 1.05760 0.90955
 C703 C 0.80853 1.06729 0.90038
 H704 H 0.79973 1.05868 0.88286
 O705 O 0.90483 1.13183 0.97460
 O706 O 0.87407 1.16277 0.97464
 C707 C 0.89551 1.15332 0.96550
 C708 C 0.90939 1.16701 0.94361
 C709 C 0.89990 1.19123 0.93382
 H710 H 0.88265 1.20029 0.94275
 O711 O 1.09451 0.86823 0.97366
 O712 O 1.12532 0.83734 0.97355
 C713 C 1.10387 0.84680 0.96445
 C714 C 1.09009 0.83317 0.94246
 C715 C 1.09965 0.80901 0.93264
 H716 H 1.11651 0.79967 0.94202
 O717 O 1.09518 1.02542 0.86769
 O718 O 1.12598 1.02532 0.83678
 C719 C 1.10454 1.03448 0.84620
 C720 C 1.09077 1.05647 0.83257
 C721 C 1.09997 1.06590 0.80811
 H722 H 1.11622 1.05584 0.79843
 O723 O 0.90425 0.97520 0.86807
 O724 O 0.87336 0.97536 0.83727
 C725 C 0.89485 0.96621 0.84657
 C726 C 0.90865 0.94437 0.83271
 C727 C 0.89936 0.93506 0.80824
 H728 H 0.88273 0.94476 0.79883
 O729 O 1.02620 1.13185 0.90495
 O730 O 1.02626 1.16295 0.87437
 C731 C 1.03524 1.15345 0.89584
 C732 C 1.05706 1.16714 0.90986
 C733 C 1.06646 1.19165 0.90080
 H734 H 1.05643 1.20135 0.88456
 O735 O 0.97344 0.86846 0.90394
 O736 O 0.97314 0.83751 0.87319
 C737 C 0.96428 0.84694 0.89475
 C738 C 0.94265 0.83319 0.90898
 C739 C 0.93304 0.80870 0.89999
 H740 H 0.94192 0.79947 0.88280
 O741 O 1.13221 1.09456 0.97403
 O742 O 1.16342 1.12505 0.97399
 C743 C 1.15380 1.10367 0.96491
 C744 C 1.16739 1.08964 0.94305
 C745 C 1.19177 1.09884 0.93337
 H746 H 1.20097 1.11598 0.94236
 O747 O 0.86847 0.90548 0.97436
 O748 O 0.83739 0.87486 0.97439
 C749 C 0.84688 0.89631 0.96534
 C750 C 0.83307 0.91032 0.94361
 C751 C 0.80866 0.90103 0.93416
 H752 H 0.79928 0.88428 0.94368
 Cu753 Cu 0.99920 0.88963 0.88880
 Cu754 Cu 0.99888 0.85260 0.85177
 Cu755 Cu 1.00050 1.11071 0.88961
 Cu756 Cu 1.00060 1.14796 0.85281
 Cu757 Cu 0.88939 1.00104 0.88940
 Cu758 Cu 0.85221 1.00120 0.85253
 Cu759 Cu 1.11004 0.99943 0.88876
 Cu760 Cu 1.14711 0.99927 0.85175
 C761 C 0.93039 0.93177 0.84458
 H762 H 0.93741 0.93859 0.86364
 C763 C 0.91132 0.91326 0.79580
 C764 C 1.06922 1.06911 0.84470
 H765 H 1.06214 1.06204 0.86365
 C766 C 1.08846 1.08824 0.79613
 C767 C 0.84491 0.93221 0.93125
 H768 H 0.86392 0.93924 0.93819
 C769 C 0.79627 0.91307 0.91239
 C770 C 1.15529 1.06787 0.93071
 H771 H 1.13628 1.06094 0.93779
 C772 C 1.20392 1.08670 0.91150
 C773 C 0.93051 0.84528 0.93087
 H774 H 0.93753 0.86435 0.93766
 C775 C 0.91140 0.79646 0.91246
 C776 C 1.06966 1.15498 0.93141
 H777 H 1.06262 1.13597 0.93837
 C778 C 1.08878 1.20363 0.91236
 C779 C 0.93134 1.06967 0.84479
 H780 H 0.93836 1.06252 0.86372
 C781 C 0.91228 1.08915 0.79629
 C782 C 1.06803 0.93100 0.84390
 H783 H 1.06121 0.93790 0.86301
 C784 C 1.08656 0.91223 0.79502
 C785 C 1.06808 0.84495 0.93025
 H786 H 1.06085 0.86378 0.93747
 C787 C 1.08771 0.79679 0.91071
 C788 C 0.93136 1.15515 0.93137
 H789 H 0.93855 1.13628 0.93855
 C790 C 0.91192 1.20340 0.91191
 C791 C 0.84480 1.06959 0.93161
 H792 H 0.86390 1.06263 0.93840
 C793 C 0.79588 1.08858 0.91311
 C794 C 1.15434 0.93059 0.93071
 H795 H 1.13524 0.93755 0.93750
 C796 C 1.20329 0.91160 0.91226
 O797 O 1.02576 0.90390 1.13242
 O798 O 1.02568 0.87301 1.16322
 C799 C 1.03479 0.89450 1.15390
 C800 C 1.05648 0.90849 1.16776
 C801 C 1.06618 0.89915 1.19207
 H802 H 1.05752 0.88161 1.20080
 O803 O 0.97470 1.09627 1.13178
 O804 O 0.97478 1.12716 1.16259
 C805 C 0.96562 1.10567 1.15325
 C806 C 0.94384 1.09173 1.16711
 C807 C 0.93401 1.10126 1.19131
 H808 H 0.94258 1.11891 1.19991
 O809 O 0.86887 1.02625 1.09653
 O810 O 0.83797 1.02639 1.12733
 C811 C 0.84738 1.03540 1.10584
 C812 C 0.83365 1.05718 1.09185
 C813 C 0.80928 1.06686 1.10112
 H814 H 0.80013 1.05794 1.11833
 O815 O 1.13076 0.97351 1.09601
 O816 O 1.16178 0.97334 1.12668
 C817 C 1.15225 0.96432 1.10523
 C818 C 1.16587 0.94246 1.09121
 C819 C 1.19018 0.93268 1.10049
 H820 H 1.19934 0.94156 1.11770
 O821 O 1.09429 0.86773 1.02534
 O822 O 1.12505 0.83679 1.02521
 C823 C 1.10354 0.84613 1.03427
 C824 C 1.08967 0.83230 1.05608
 C825 C 1.09899 0.80786 1.06546
 H826 H 1.11528 0.79829 1.05537
 O827 O 0.90490 1.13217 1.02627
 O828 O 0.87416 1.16314 1.02634
 C829 C 0.89567 1.15373 1.03533
 C830 C 0.90979 1.16761 1.05695
 C831 C 0.90047 1.19195 1.06663
 H832 H 0.88291 1.20064 1.05799
 O833 O 0.90477 0.97425 1.13256
 O834 O 0.87400 0.97437 1.16349
 C835 C 0.89539 0.96515 1.15403
 C836 C 0.90919 0.94322 1.16772
 C837 C 0.89965 0.93339 1.19192
 H838 H 0.88215 0.94214 1.20063
 O839 O 1.09497 1.02545 1.13223
 O840 O 1.12587 1.02535 1.16303
 C841 C 1.10435 1.03445 1.15374
 C842 C 1.09050 1.05625 1.16759
 C843 C 1.09951 1.06528 1.19226
 H844 H 1.11563 1.05499 1.20190
 O845 O 0.97397 0.86822 1.09603
 O846 O 0.97377 0.83712 1.12662
 C847 C 0.96480 0.84668 1.10517
 C848 C 0.94304 0.83306 1.09101
 C849 C 0.93338 0.80859 1.10001
 H850 H 0.94228 0.79932 1.11715
 O851 O 1.02668 1.13194 1.09552
 O852 O 1.02690 1.16298 1.12619
 C853 C 1.03590 1.15342 1.10474
 C854 C 1.05779 1.16698 1.09071
 C855 C 1.06754 1.19133 1.09989
 H856 H 1.05858 1.20058 1.11703
 O857 O 0.86849 0.90533 1.02603
 O858 O 0.83741 0.87470 1.02604
 C859 C 0.84693 0.89612 1.03512
 C860 C 0.83325 0.91002 1.05699
 C861 C 0.80894 0.90063 1.06662
 H862 H 0.79951 0.88392 1.05709
 O863 O 1.13230 1.09459 1.02570
 O864 O 1.16353 1.12506 1.02571
 C865 C 1.15391 1.10366 1.03477
 C866 C 1.16753 1.08954 1.05656
 C867 C 1.19212 1.09844 1.06603
 H868 H 1.20146 1.11545 1.05695
 O869 O 1.02637 1.09607 1.13203
 O870 O 1.02656 1.12694 1.16286
 C871 C 1.03549 1.10537 1.15353
 C872 C 1.05708 1.09117 1.16739
 C873 C 1.06678 1.10033 1.19180
 H874 H 1.05821 1.11789 1.20057
 O875 O 0.97421 0.90436 1.13238
 O876 O 0.97402 0.87345 1.16315
 C877 C 0.96515 0.89508 1.15390
 C878 C 0.94351 0.90917 1.16779
 C879 C 0.93408 0.90002 1.19226
 H880 H 0.94394 0.88356 1.20177
 O881 O 1.13125 1.02515 1.09593
 O882 O 1.16227 1.02501 1.12660
 C883 C 1.15291 1.03403 1.10509
 C884 C 1.16698 1.05552 1.09094
 C885 C 1.19160 1.06464 1.10004
 H886 H 1.20092 1.05504 1.11677
 O887 O 0.86877 0.97465 1.09619
 O888 O 0.83786 0.97471 1.12699
 C889 C 0.84720 0.96567 1.10546
 C890 C 0.83333 0.94400 1.09141
 C891 C 0.80904 0.93426 1.10081
 H892 H 0.80005 0.94307 1.11816
 O893 O 1.09640 1.13114 1.02574
 O894 O 1.12749 1.16176 1.02574
 C895 C 1.10590 1.15258 1.03480
 C896 C 1.09206 1.16652 1.05656
 C897 C 1.10153 1.19087 1.06604
 H898 H 1.11840 1.20011 1.05658
 O899 O 0.90455 0.86891 1.02592
 O900 O 0.87355 0.83820 1.02592
 C901 C 0.89512 0.84743 1.03495
 C902 C 0.90899 0.83346 1.05666
 C903 C 0.89965 0.80899 1.06592
 H904 H 0.88293 0.79968 1.05628
 O905 O 1.09483 0.97387 1.13255
 O906 O 1.12574 0.97377 1.16334
 C907 C 1.10414 0.96485 1.15409
 C908 C 1.09015 0.94316 1.16798
 C909 C 1.09923 0.93390 1.19254
 H910 H 1.11556 0.94393 1.20212
 O911 O 0.90548 1.02594 1.13240
 O912 O 0.87472 1.02611 1.16335
 C913 C 0.89626 1.03506 1.15393
 C914 C 0.91025 1.05691 1.16760
 C915 C 0.90111 1.06638 1.19206
 H916 H 0.88482 1.05636 1.20172
 O917 O 0.97508 1.13243 1.09548
 O918 O 0.97523 1.16348 1.12612
 C919 C 0.96618 1.15408 1.10463
 C920 C 0.94449 1.16793 1.09060
 C921 C 0.93525 1.19253 1.09962
 H922 H 0.94529 1.20216 1.11590
 O923 O 1.02560 0.86798 1.09599
 O924 O 1.02553 0.83693 1.12662
 C925 C 1.03461 0.84640 1.10517
 C926 C 1.05628 0.83259 1.09104
 C927 C 1.06626 0.80843 1.10050
 H928 H 1.05784 0.79982 1.11821
 O929 O 1.13048 0.90403 1.02583
 O930 O 1.16133 0.87317 1.02579
 C931 C 1.15193 0.89461 1.03495
 C932 C 1.16566 0.90837 1.05689
 C933 C 1.18995 0.89887 1.06647
 H934 H 1.19928 0.88207 1.05698
 O935 O 0.86889 1.09577 1.02653
 O936 O 0.83804 1.12662 1.02666
 C937 C 0.84745 1.10513 1.03569
 C938 C 0.83374 1.09127 1.05755
 C939 C 0.80940 1.10064 1.06710
 H940 H 0.80001 1.11739 1.05758
 Cu941 Cu 0.99989 0.88920 1.11113
 Cu942 Cu 0.99971 0.85200 1.14798
 Cu943 Cu 1.00068 1.11108 1.11065
 Cu944 Cu 1.00087 1.14825 1.14753
 Cu945 Cu 0.88958 0.89022 1.00013
 Cu946 Cu 0.85230 0.85341 1.00016
 Cu947 Cu 1.10945 0.88917 0.99975
 Cu948 Cu 1.14645 0.85212 0.99966
 Cu949 Cu 0.88983 1.11082 1.00056
 Cu950 Cu 0.85284 1.14790 1.00068
 Cu951 Cu 1.11123 1.10982 0.99990
 Cu952 Cu 1.14862 1.14648 0.99987
 Cu953 Cu 0.89006 1.00027 1.11134
 Cu954 Cu 0.85306 1.00043 1.14841
 Cu955 Cu 1.10986 0.99952 1.11110
 Cu956 Cu 1.14703 0.99938 1.14799
 C957 C 1.06853 0.93057 1.15597
 H958 H 1.06155 0.93750 1.13693
 C959 C 1.08757 0.91173 1.20470
 C960 C 0.93187 1.06948 1.15549
 H961 H 0.93892 1.06240 1.13653
 C962 C 0.91263 1.08872 1.20402
 C963 C 0.84558 1.06938 1.06990
 H964 H 0.86455 1.06230 1.06288
 C965 C 0.79705 1.08863 1.08890
 C966 C 1.15390 0.93032 1.06925
 H967 H 1.13498 0.93750 1.06222
 C968 C 1.20234 0.91086 1.08828
 C969 C 1.06806 0.84428 1.06875
 H970 H 1.06091 0.86323 1.06174
 C971 C 1.08762 0.79582 1.08784
 C972 C 0.93188 1.15584 1.06900
 H973 H 0.93878 1.13677 1.06207
 C974 C 0.91307 1.20467 1.08795
 C975 C 0.93118 0.93103 1.15589
 H976 H 0.93824 0.93809 1.13693
 C977 C 0.91197 0.91180 1.20445
 C978 C 1.06903 1.06907 1.15553
 H979 H 1.06210 1.06229 1.13642
 C980 C 1.08798 1.08748 1.20450
 C981 C 0.93086 0.84520 1.06917
 H982 H 0.93792 0.86425 1.06237
 C983 C 0.91166 0.79643 1.08761
 C984 C 1.07003 1.15487 1.06888
 H985 H 1.06286 1.13591 1.06193
 C986 C 1.08942 1.20340 1.08771
 C987 C 0.84514 0.93188 1.06935
 H988 H 0.86408 0.93898 1.06226
 C989 C 0.79673 0.91253 1.08858
 C990 C 1.15525 1.06792 1.06902
 H991 H 1.13610 1.06123 1.06212
 C992 C 1.20429 1.08614 1.08779
 O993 O 0.97354 0.40461 0.36744
 O994 O 0.97328 0.37380 0.33656
 C995 C 0.96433 0.39532 0.34598
 C996 C 0.94255 0.40940 0.33232
 C997 C 0.93273 0.40017 0.30801
 H998 H 0.94153 0.38290 0.29887
 O999 O 1.02609 0.59509 0.36781
 O1000 O 1.02614 0.62595 0.33698
 C1001 C 1.03506 0.60434 0.34624
 C1002 C 1.05667 0.59028 0.33230
 C1003 C 1.06578 0.59926 0.30765
 H1004 H 1.05562 0.61548 0.29805
 O1005 O 0.86816 0.47482 0.40419
 O1006 O 0.83710 0.47498 0.37356
 C1007 C 0.84657 0.46584 0.39497
 C1008 C 0.83282 0.44405 0.40894
 C1009 C 0.80853 0.43430 0.39957
 H1010 H 0.79946 0.44319 0.38231
 O1011 O 1.13171 0.52509 0.40414
 O1012 O 1.16271 0.52495 0.37344
 C1013 C 1.15334 0.53400 0.39494
 C1014 C 1.16724 0.55566 0.40898
 C1015 C 1.19174 0.56500 0.39979
 H1016 H 1.20118 0.55537 0.38313
 O1017 O 0.90441 0.36882 0.47410
 O1018 O 0.87351 0.33801 0.47408
 C1019 C 0.89506 0.34731 0.46506
 C1020 C 0.90901 0.33338 0.44335
 C1021 C 0.89987 0.30881 0.43417
 H1022 H 0.88323 0.29939 0.44386
 O1023 O 1.09583 0.63126 0.47407
 O1024 O 1.12673 0.66205 0.47410
 C1025 C 1.10515 0.65280 0.46510
 C1026 C 1.09118 0.66673 0.44341
 C1027 C 1.10024 0.69136 0.43427
 H1028 H 1.11655 0.70092 0.44434
 O1029 O 0.90446 0.52630 0.36789
 O1030 O 0.87355 0.52653 0.33711
 C1031 C 0.89514 0.53543 0.34642
 C1032 C 0.90922 0.55710 0.33261
 C1033 C 0.90003 0.56671 0.30821
 H1034 H 0.88280 0.55779 0.29910
 O1035 O 1.09501 0.47404 0.36756
 O1036 O 1.12585 0.47391 0.33670
 C1037 C 1.10423 0.46504 0.34599
 C1038 C 1.09009 0.44349 0.33203
 C1039 C 1.09923 0.43420 0.30751
 H1040 H 1.11594 0.44380 0.29813
 O1041 O 1.02525 0.36838 0.40346
 O1042 O 1.02514 0.33742 0.37272
 C1043 C 1.03423 0.34682 0.39419
 C1044 C 1.05593 0.33298 0.40822
 C1045 C 1.06560 0.30863 0.39890
 H1046 H 1.05671 0.29955 0.38164
 O1047 O 0.97487 0.63152 0.40444
 O1048 O 0.97488 0.66251 0.37374
 C1049 C 0.96586 0.65309 0.39524
 C1050 C 0.94414 0.66692 0.40928
 C1051 C 0.93445 0.69118 0.39985
 H1052 H 0.94376 0.70048 0.38294
 O1053 O 0.86875 0.59597 0.47448
 O1054 O 0.83798 0.62691 0.47453
 C1055 C 0.84727 0.60539 0.46543
 C1056 C 0.83343 0.59154 0.44361
 C1057 C 0.80914 0.60102 0.43395
 H1058 H 0.80011 0.61825 0.44295
 O1059 O 1.13096 0.40420 0.47394
 O1060 O 1.16171 0.37325 0.47393
 C1061 C 1.15247 0.39483 0.46493
 C1062 C 1.16638 0.40869 0.44316
 C1063 C 1.19090 0.39944 0.43391
 H1064 H 1.20042 0.38314 0.44401
 O1065 O 0.97450 0.59558 0.36794
 O1066 O 0.97454 0.62645 0.33712
 C1067 C 0.96542 0.60498 0.34647
 C1068 C 0.94358 0.59114 0.33269
 C1069 C 0.93413 0.60044 0.30829
 H1070 H 0.94370 0.61715 0.29888
 O1071 O 1.02516 0.40455 0.36720
 O1072 O 1.02503 0.37377 0.33628
 C1073 C 1.03414 0.39527 0.34564
 C1074 C 1.05585 0.40931 0.33181
 C1075 C 1.06537 0.40022 0.30731
 H1076 H 1.05636 0.38308 0.29812
 O1077 O 1.13131 0.47343 0.40369
 O1078 O 1.16230 0.47322 0.37297
 C1079 C 1.15275 0.46416 0.39439
 C1080 C 1.16635 0.44229 0.40840
 C1081 C 1.19058 0.43236 0.39906
 H1082 H 1.19935 0.44091 0.38150
 O1083 O 0.86854 0.52645 0.40444
 O1084 O 0.83750 0.52667 0.37379
 C1085 C 0.84703 0.53563 0.39526
 C1086 C 0.83339 0.55745 0.40928
 C1087 C 0.80912 0.56721 0.39994
 H1088 H 0.79972 0.55788 0.38309
 O1089 O 0.90532 0.63184 0.47452
 O1090 O 0.87468 0.66289 0.47457
 C1091 C 0.89611 0.65340 0.46547
 C1092 C 0.91008 0.66710 0.44365
 C1093 C 0.90068 0.69138 0.43392
 H1094 H 0.88347 0.70048 0.44288
 O1095 O 1.09456 0.36811 0.47366
 O1096 O 1.12522 0.33707 0.47362
 C1097 C 1.10381 0.34659 0.46452
 C1098 C 1.08995 0.33294 0.44261
 C1099 C 1.09933 0.30864 0.43298
 H1100 H 1.11610 0.29922 0.44244
 O1101 O 1.09581 0.52564 0.36764
 O1102 O 1.12667 0.52558 0.33679
 C1103 C 1.10522 0.53475 0.34618
 C1104 C 1.09130 0.55657 0.33242
 C1105 C 1.10057 0.56626 0.30806
 H1106 H 1.11807 0.55757 0.29929
 O1107 O 0.90431 0.47469 0.36792
 O1108 O 0.87337 0.47487 0.33716
 C1109 C 0.89486 0.46570 0.34645
 C1110 C 0.90860 0.44384 0.33258
 C1111 C 0.89910 0.43437 0.30826
 H1112 H 0.88236 0.44398 0.29895
 O1113 O 1.02655 0.63141 0.40398
 O1114 O 1.02662 0.66241 0.37329
 C1115 C 1.03570 0.65292 0.39472
 C1116 C 1.05747 0.66665 0.40877
 C1117 C 1.06715 0.69104 0.39957
 H1118 H 1.05845 0.69987 0.38211
 O1119 O 0.97368 0.36851 0.40377
 O1120 O 0.97345 0.33751 0.37307
 C1121 C 0.96457 0.34696 0.39462
 C1122 C 0.94299 0.33317 0.40890
 C1123 C 0.93354 0.30859 0.40001
 H1124 H 0.94249 0.29934 0.38287
 O1125 O 1.13198 0.59486 0.47384
 O1126 O 1.16302 0.62552 0.47383
 C1127 C 1.15354 0.60407 0.46477
 C1128 C 1.16732 0.58999 0.44304
 C1129 C 1.19178 0.59913 0.43348
 H1130 H 1.20089 0.61636 0.44241
 O1131 O 0.86826 0.40518 0.47398
 O1132 O 0.83727 0.37445 0.47392
 C1133 C 0.84673 0.39592 0.46489
 C1134 C 0.83297 0.40986 0.44312
 C1135 C 0.80866 0.40046 0.43353
 H1136 H 0.79931 0.38366 0.44299
 Cu1137 Cu 0.99943 0.38961 0.38853
 Cu1138 Cu 0.99920 0.35252 0.35155
 Cu1139 Cu 1.00051 0.61032 0.38913
 Cu1140 Cu 1.00056 0.64745 0.35221
 Cu1141 Cu 0.88947 0.50055 0.38919
 Cu1142 Cu 0.85226 0.50079 0.35232
 Cu1143 Cu 1.11037 0.49957 0.38884
 Cu1144 Cu 1.14750 0.49939 0.35189
 C1145 C 0.93049 0.43139 0.34431
 H1146 H 0.93768 0.43836 0.36325
 C1147 C 0.91098 0.41251 0.29585
 C1148 C 1.06930 0.56868 0.34431
 H1149 H 1.06244 0.56175 0.36339
 C1150 C 1.08791 0.58760 0.29540
 C1151 C 0.84475 0.43184 0.43086
 H1152 H 0.86369 0.43896 0.43793
 C1153 C 0.79634 0.41245 0.41170
 C1154 C 1.15534 0.56811 0.43079
 H1155 H 1.13627 0.56123 0.43775
 C1156 C 1.20414 0.58679 0.41183
 C1157 C 0.93075 0.34527 0.43075
 H1158 H 0.93766 0.36441 0.43747
 C1159 C 0.91195 0.29628 0.41249
 C1160 C 1.06955 0.65474 0.43076
 H1161 H 1.06258 0.63566 0.43759
 C1162 C 1.08853 0.70365 0.41220
 C1163 C 0.93116 0.56930 0.34455
 H1164 H 0.93811 0.56227 0.36356
 C1165 C 0.91233 0.58840 0.29592
 C1166 C 1.06821 0.43111 0.34387
 H1167 H 1.06130 0.43795 0.36296
 C1168 C 1.08710 0.41251 0.29504
 C1169 C 1.06809 0.34484 0.43024
 H1170 H 1.06101 0.36379 0.43731
 C1171 C 1.08735 0.29638 0.41110
 C1172 C 0.93198 0.65517 0.43135
 H1173 H 0.93908 0.63625 0.43847
 C1174 C 0.91268 0.70352 0.41199
 C1175 C 0.84525 0.56959 0.43129
 H1176 H 0.86417 0.56242 0.43835
 C1177 C 0.79689 0.58903 0.41206
 C1178 C 1.15447 0.43036 0.43052
 H1179 H 1.13549 0.43750 0.43745
 C1180 C 1.20314 0.41097 0.41171
 O1181 O 1.02551 0.40418 0.63202
 O1182 O 1.02550 0.37327 0.66280
 C1183 C 1.03465 0.39473 0.65343
 C1184 C 1.05661 0.40850 0.66711
 C1185 C 1.06636 0.39902 0.69134
 H1186 H 1.05696 0.38219 0.70070
 O1187 O 0.97472 0.59521 0.63210
 O1188 O 0.97486 0.62602 0.66300
 C1189 C 0.96570 0.60456 0.65361
 C1190 C 0.94385 0.59070 0.66742
 C1191 C 0.93443 0.60002 0.69184
 H1192 H 0.94402 0.61672 0.70123
 O1193 O 0.86841 0.52600 0.59602
 O1194 O 0.83737 0.52617 0.62668
 C1195 C 0.84688 0.53515 0.60521
 C1196 C 0.83320 0.55690 0.59110
 C1197 C 0.80870 0.56647 0.60013
 H1198 H 0.79944 0.55749 0.61725
 O1199 O 1.13151 0.47341 0.59548
 O1200 O 1.16257 0.47325 0.62611
 C1201 C 1.15302 0.46424 0.60468
 C1202 C 1.16658 0.44235 0.59068
 C1203 C 1.19080 0.43243 0.60004
 H1204 H 1.19995 0.44127 0.61728
 O1205 O 1.09432 0.36796 0.52536
 O1206 O 1.12494 0.33688 0.52529
 C1207 C 1.10349 0.34636 0.53435
 C1208 C 1.08947 0.33256 0.55610
 C1209 C 1.09869 0.30811 0.56552
 H1210 H 1.11539 0.29867 0.55596
 O1211 O 0.90519 0.63193 0.52617
 O1212 O 0.87457 0.66300 0.52626
 C1213 C 0.89602 0.65349 0.53527
 C1214 C 0.91012 0.66721 0.55701
 C1215 C 0.90104 0.69169 0.56658
 H1216 H 0.88390 0.70090 0.55759
 O1217 O 0.90424 0.47421 0.63235
 O1218 O 0.87337 0.47430 0.66319
 C1219 C 0.89483 0.46514 0.65382
 C1220 C 0.90871 0.44331 0.66761
 C1221 C 0.89919 0.43348 0.69181
 H1222 H 0.88163 0.44216 0.70048
 O1223 O 1.09563 0.52512 0.63190
 O1224 O 1.12655 0.52500 0.66267
 C1225 C 1.10502 0.53409 0.65341
 C1226 C 1.09111 0.55578 0.66736
 C1227 C 1.10028 0.56498 0.69191
 H1228 H 1.11692 0.55528 0.70130
 O1229 O 0.97339 0.36849 0.59601
 O1230 O 0.97327 0.33745 0.62665
 C1231 C 0.96423 0.34698 0.60522
 C1232 C 0.94244 0.33332 0.59114
 C1233 C 0.93275 0.30890 0.60023
 H1234 H 0.94160 0.29974 0.61746
 O1235 O 1.02658 0.63119 0.59590
 O1236 O 1.02678 0.66212 0.62666
 C1237 C 1.03575 0.65267 0.60516
 C1238 C 1.05753 0.66637 0.59109
 C1239 C 1.06725 0.69074 0.60030
 H1240 H 1.05835 0.69991 0.61751
 O1241 O 0.86811 0.40531 0.52560
 O1242 O 0.83708 0.37464 0.52552
 C1243 C 0.84650 0.39613 0.53456
 C1244 C 0.83266 0.41011 0.55630
 C1245 C 0.80807 0.40103 0.56552
 H1246 H 0.79846 0.38476 0.55544
 O1247 O 1.13207 0.59470 0.52548
 O1248 O 1.16313 0.62534 0.52551
 C1249 C 1.15365 0.60387 0.53453
 C1250 C 1.16740 0.58980 0.55626
 C1251 C 1.19186 0.59893 0.56581
 H1252 H 1.20105 0.61607 0.55680
 O1253 O 1.02636 0.59509 0.63226
 O1254 O 1.02655 0.62587 0.66317
 C1255 C 1.03546 0.60432 0.65379
 C1256 C 1.05709 0.59014 0.66759
 C1257 C 1.06660 0.59913 0.69212
 H1258 H 1.05766 0.61630 0.70132
 O1259 O 0.97389 0.40466 0.63234
 O1260 O 0.97380 0.37377 0.66314
 C1261 C 0.96488 0.39538 0.65389
 C1262 C 0.94321 0.40944 0.66778
 C1263 C 0.93378 0.40026 0.69225
 H1264 H 0.94369 0.38385 0.70179
 O1265 O 1.13166 0.52505 0.59541
 O1266 O 1.16272 0.52494 0.62605
 C1267 C 1.15328 0.53400 0.60459
 C1268 C 1.16715 0.55567 0.59054
 C1269 C 1.19162 0.56506 0.59975
 H1270 H 1.20099 0.55556 0.61651
 O1271 O 0.86826 0.47438 0.59598
 O1272 O 0.83724 0.47445 0.62666
 C1273 C 0.84669 0.46537 0.60519
 C1274 C 0.83287 0.44370 0.59107
 C1275 C 0.80853 0.43397 0.60036
 H1276 H 0.79978 0.44258 0.61792
 O1277 O 1.09596 0.63101 0.52571
 O1278 O 1.12690 0.66177 0.52576
 C1279 C 1.10539 0.65244 0.53484
 C1280 C 1.09159 0.66621 0.55672
 C1281 C 1.10101 0.69055 0.56623
 H1282 H 1.11777 0.69990 0.55669
 O1283 O 0.90417 0.36885 0.52579
 O1284 O 0.87324 0.33808 0.52573
 C1285 C 0.89474 0.34739 0.53484
 C1286 C 0.90853 0.33353 0.55667
 C1287 C 0.89920 0.30906 0.56597
 H1288 H 0.88258 0.29967 0.55624
 O1289 O 1.09549 0.47352 0.63185
 O1290 O 1.12642 0.47336 0.66261
 C1291 C 1.10486 0.46439 0.65330
 C1292 C 1.09089 0.44264 0.66711
 C1293 C 1.10033 0.43288 0.69135
 H1294 H 1.11762 0.44178 0.70038
 O1295 O 0.90461 0.52584 0.63228
 O1296 O 0.87375 0.52605 0.66313
 C1297 C 0.89532 0.53498 0.65377
 C1298 C 0.90945 0.55667 0.66755
 C1299 C 0.90029 0.56631 0.69197
 H1300 H 0.88307 0.55741 0.70112
 O1301 O 0.97495 0.63146 0.59592
 O1302 O 0.97509 0.66241 0.62668
 C1303 C 0.96601 0.65305 0.60519
 C1304 C 0.94433 0.66696 0.59120
 C1305 C 0.93499 0.69144 0.60044
 H1306 H 0.94455 0.70080 0.61718
 O1307 O 1.02499 0.36812 0.59565
 O1308 O 1.02495 0.33706 0.62628
 C1309 C 1.03393 0.34648 0.60476
 C1310 C 1.05547 0.33256 0.59053
 C1311 C 1.06500 0.30810 0.59967
 H1312 H 1.05611 0.29899 0.61691
 O1313 O 1.13089 0.40389 0.52558
 O1314 O 1.16159 0.37290 0.52555
 C1315 C 1.15232 0.39441 0.53465
 C1316 C 1.16619 0.40817 0.55648
 C1317 C 1.19041 0.39854 0.56611
 H1318 H 1.19962 0.38164 0.55669
 O1319 O 0.86895 0.59568 0.52612
 O1320 O 0.83818 0.62661 0.52620
 C1321 C 0.84746 0.60504 0.53518
 C1322 C 0.83353 0.59107 0.55687
 C1323 C 0.80903 0.60031 0.56615
 H1324 H 0.79968 0.61703 0.55656
 Cu1325 Cu 0.99945 0.38946 0.61094
 Cu1326 Cu 0.99936 0.35229 0.64781
 Cu1327 Cu 1.00065 0.61015 0.61097
 Cu1328 Cu 1.00084 0.64721 0.64797
 Cu1329 Cu 0.88935 0.39011 0.49987
 Cu1330 Cu 0.85217 0.35321 0.49981
 Cu1331 Cu 1.10960 0.38914 0.49964
 Cu1332 Cu 1.14643 0.35190 0.49959
 Cu1333 Cu 0.89012 0.61076 0.50032
 Cu1334 Cu 0.85327 0.64797 0.50041
 Cu1335 Cu 1.11087 0.60988 0.49975
 Cu1336 Cu 1.14806 0.64676 0.49978
 Cu1337 Cu 0.88947 0.50010 0.61109
 Cu1338 Cu 0.85232 0.50028 0.64801
 Cu1339 Cu 1.11047 0.49930 0.61059
 Cu1340 Cu 1.14769 0.49915 0.64744
 C1341 C 1.06887 0.43047 0.65529
 H1342 H 1.06172 0.43764 0.63641
 C1343 C 1.08823 0.41105 0.70358
 C1344 C 0.93139 0.56886 0.65558
 H1345 H 0.93832 0.56182 0.63656
 C1346 C 0.91263 0.58801 0.70424
 C1347 C 0.84532 0.56920 0.56930
 H1348 H 0.86440 0.56221 0.56248
 C1349 C 0.79649 0.58820 0.58781
 C1350 C 1.15457 0.43024 0.56874
 H1351 H 1.13570 0.43753 0.56167
 C1352 C 1.20283 0.41049 0.58792
 C1353 C 1.06768 0.34449 0.56857
 H1354 H 1.06073 0.36355 0.56168
 C1355 C 1.08666 0.29577 0.58734
 C1356 C 0.93193 0.65514 0.56932
 H1357 H 0.93878 0.63608 0.56232
 C1358 C 0.91332 0.70393 0.58831
 C1359 C 0.93079 0.43121 0.65584
 H1360 H 0.93784 0.43827 0.63688
 C1361 C 0.91160 0.41196 0.70439
 C1362 C 1.06934 0.56831 0.65551
 H1363 H 1.06239 0.56154 0.63640
 C1364 C 1.08822 0.58669 0.70442
 C1365 C 0.93031 0.34535 0.56921
 H1366 H 0.93739 0.36438 0.56235
 C1367 C 0.91112 0.29662 0.58778
 C1368 C 1.06969 0.65440 0.56913
 H1369 H 1.06257 0.63544 0.56215
 C1370 C 1.08902 0.70294 0.58803
 C1371 C 0.84469 0.43170 0.56897
 H1372 H 0.86375 0.43868 0.56208
 C1373 C 0.79589 0.41263 0.58771
 C1374 C 1.15534 0.56800 0.56862
 H1375 H 1.13628 0.56111 0.56165
 C1376 C 1.20409 0.58673 0.58758
 O1377 O 0.47377 0.90485 0.36753
 O1378 O 0.47355 0.87408 0.33660
 C1379 C 0.46472 0.89569 0.34595
 C1380 C 0.44321 0.90998 0.33208
 C1381 C 0.43368 0.90093 0.30758
 H1382 H 0.44259 0.88373 0.29841
 O1383 O 0.52627 1.09561 0.36810
 O1384 O 0.52653 1.12649 0.33728
 C1385 C 0.53539 1.10489 0.34660
 C1386 C 0.55695 1.09072 0.33273
 C1387 C 0.56634 1.09973 0.30817
 H1388 H 0.55737 1.11690 0.29901
 O1389 O 0.36843 0.97507 0.40396
 O1390 O 0.33744 0.97512 0.37326
 C1391 C 0.34690 0.96600 0.39470
 C1392 C 0.33320 0.94414 0.40863
 C1393 C 0.30911 0.93410 0.39903
 H1394 H 0.30013 0.94283 0.38164
 O1395 O 0.63152 1.02539 0.40442
 O1396 O 0.66246 1.02529 0.37366
 C1397 C 0.65308 1.03439 0.39514
 C1398 C 0.66693 1.05615 0.40907
 C1399 C 0.69123 1.06576 0.39960
 H1400 H 0.70051 1.05637 0.38272
 O1401 O 0.40422 0.86903 0.47439
 O1402 O 0.37325 0.83830 0.47449
 C1403 C 0.39480 0.84752 0.46542
 C1404 C 0.40857 0.83361 0.44359
 C1405 C 0.39931 0.80907 0.43440
 H1406 H 0.38307 0.79952 0.44460
 O1407 O 0.59596 1.13142 0.47446
 O1408 O 0.62682 1.16226 0.47440
 C1409 C 0.60526 1.15294 0.46542
 C1410 C 0.59122 1.16684 0.44376
 C1411 C 0.60030 1.19143 0.43455
 H1412 H 0.61698 1.20086 0.44414
 O1413 O 0.40459 1.02673 0.36776
 O1414 O 0.37372 1.02693 0.33693
 C1415 C 0.39526 1.03590 0.34631
 C1416 C 0.40934 1.05761 0.33253
 C1417 C 0.40011 1.06733 0.30820
 H1418 H 0.38259 1.05869 0.29941
 O1419 O 0.59508 0.97392 0.36809
 O1420 O 0.62594 0.97378 0.33724
 C1421 C 0.60436 0.96485 0.34656
 C1422 C 0.59034 0.94314 0.33271
 C1423 C 0.59951 0.93379 0.30821
 H1424 H 0.61589 0.94376 0.29868
 O1425 O 0.52468 0.86799 0.40406
 O1426 O 0.52452 0.83700 0.37335
 C1427 C 0.53354 0.84634 0.39487
 C1428 C 0.55509 0.83239 0.40903
 C1429 C 0.56456 0.80788 0.39990
 H1430 H 0.55559 0.79873 0.38272
 O1431 O 0.47467 1.13181 0.40432
 O1432 O 0.47483 1.16281 0.37364
 C1433 C 0.46570 1.15338 0.39508
 C1434 C 0.44394 1.16720 0.40904
 C1435 C 0.43450 1.19162 0.39978
 H1436 H 0.44407 1.20103 0.38307
 O1437 O 0.36874 1.09584 0.47445
 O1438 O 0.33795 1.12675 0.47456
 C1439 C 0.34719 1.10519 0.46551
 C1440 C 0.33326 1.09130 0.44374
 C1441 C 0.30877 1.10056 0.43443
 H1442 H 0.29925 1.11691 0.44447
 O1443 O 0.63073 0.90389 0.47385
 O1444 O 0.66145 0.87291 0.47376
 C1445 C 0.65221 0.89449 0.46478
 C1446 C 0.66619 0.90848 0.44313
 C1447 C 0.69072 0.89928 0.43386
 H1448 H 0.70004 0.88251 0.44340
 O1449 O 0.47471 1.09577 0.36790
 O1450 O 0.47492 1.12664 0.33707
 C1451 C 0.46580 1.10512 0.34634
 C1452 C 0.44406 1.09124 0.33243
 C1453 C 0.43490 1.10034 0.30783
 H1454 H 0.44500 1.11663 0.29827
 O1455 O 0.52539 0.90421 0.36791
 O1456 O 0.52529 0.87340 0.33702
 C1457 C 0.53453 0.89479 0.34647
 C1458 C 0.55648 0.90863 0.33280
 C1459 C 0.56632 0.89918 0.30857
 H1460 H 0.55762 0.88167 0.29982
 O1461 O 0.63141 0.97372 0.40425
 O1462 O 0.66241 0.97359 0.37354
 C1463 C 0.65293 0.96458 0.39501
 C1464 C 0.66661 0.94279 0.40906
 C1465 C 0.69114 0.93330 0.40005
 H1466 H 0.70045 0.94237 0.38301
 O1467 O 0.36857 1.02674 0.40413
 O1468 O 0.33756 1.02689 0.37345
 C1469 C 0.34706 1.03590 0.39491
 C1470 C 0.33336 1.05767 0.40900
 C1471 C 0.30915 1.06759 0.39962
 H1472 H 0.30045 1.05904 0.38202
 O1473 O 0.40503 1.13207 0.47412
 O1474 O 0.37436 1.16309 0.47420
 C1475 C 0.39577 1.15360 0.46505
 C1476 C 0.40972 1.16733 0.44322
 C1477 C 0.40047 1.19171 0.43358
 H1478 H 0.38325 1.20081 0.44253
 O1479 O 0.59421 0.86786 0.47398
 O1480 O 0.62482 0.83678 0.47391
 C1481 C 0.60334 0.84627 0.46494
 C1482 C 0.58924 0.83245 0.44328
 C1483 C 0.59839 0.80797 0.43389
 H1484 H 0.61510 0.79854 0.44342
 O1485 O 0.59546 1.02552 0.36805
 O1486 O 0.62628 1.02541 0.33716
 C1487 C 0.60481 1.03453 0.34653
 C1488 C 0.59092 1.05631 0.33272
 C1489 C 0.60004 1.06560 0.30818
 H1490 H 0.61669 1.05598 0.29870
 O1491 O 0.40461 0.97511 0.36767
 O1492 O 0.37377 0.97524 0.33682
 C1493 C 0.39528 0.96614 0.34613
 C1494 C 0.40920 0.94440 0.33222
 C1495 C 0.39997 0.93506 0.30774
 H1496 H 0.38327 0.94466 0.29835
 O1497 O 0.52629 1.13171 0.40448
 O1498 O 0.52651 1.16275 0.37382
 C1499 C 0.53542 1.15327 0.39533
 C1500 C 0.55705 1.16704 0.40953
 C1501 C 0.56643 1.19164 0.40060
 H1502 H 0.55738 1.20089 0.38352
 O1503 O 0.47308 0.86873 0.40383
 O1504 O 0.47280 0.83778 0.37308
 C1505 C 0.46379 0.84731 0.39454
 C1506 C 0.44197 0.83370 0.40863
 C1507 C 0.43205 0.80944 0.39937
 H1508 H 0.44055 0.80068 0.38176
 O1509 O 0.63206 1.09505 0.47435
 O1510 O 0.66306 1.12574 0.47425
 C1511 C 0.65357 1.10428 0.46521
 C1512 C 0.66723 1.09029 0.44336
 C1513 C 0.69153 1.09960 0.43358
 H1514 H 0.70069 1.11679 0.44252
 O1515 O 0.36836 0.90563 0.47413
 O1516 O 0.33732 0.87496 0.47414
 C1517 C 0.34686 0.89635 0.46500
 C1518 C 0.33324 0.91011 0.44301
 C1519 C 0.30916 0.90041 0.43314
 H1520 H 0.29986 0.88354 0.44253
 Cu1521 Cu 0.49925 0.88953 0.38890
 Cu1522 Cu 0.49901 0.85247 0.35191
 Cu1523 Cu 0.50047 1.11063 0.38928
 Cu1524 Cu 0.50072 1.14780 0.35238
 Cu1525 Cu 0.38963 1.00089 0.38896
 Cu1526 Cu 0.35250 1.00105 0.35204
 Cu1527 Cu 0.61029 0.99964 0.38929
 Cu1528 Cu 0.64739 0.99950 0.35231
 C1529 C 0.43100 0.93189 0.34408
 H1530 H 0.43796 0.93871 0.36317
 C1531 C 0.41203 0.91331 0.29530
 C1532 C 0.56920 1.06884 0.34469
 H1533 H 0.56231 1.06203 0.36380
 C1534 C 0.58791 1.08733 0.29579
 C1535 C 0.34498 0.93213 0.43077
 H1536 H 0.36376 0.93947 0.43804
 C1537 C 0.29700 0.91218 0.41111
 C1538 C 0.65522 1.06839 0.43111
 H1539 H 0.63629 1.06135 0.43827
 C1540 C 0.70364 1.08751 0.41167
 C1541 C 0.43015 0.84555 0.43081
 H1542 H 0.43729 0.86455 0.43770
 C1543 C 0.41076 0.79684 0.41216
 C1544 C 0.56943 1.15494 0.43128
 H1545 H 0.56256 1.13579 0.43802
 C1546 C 0.58807 1.20396 0.41295
 C1547 C 0.43139 1.06963 0.34441
 H1548 H 0.43825 1.06263 0.36346
 C1549 C 0.41279 1.08867 0.29557
 C1550 C 0.56858 0.93066 0.34464
 H1551 H 0.56151 0.93768 0.36362
 C1552 C 0.58783 0.91164 0.29603
 C1553 C 0.56741 0.84436 0.43089
 H1554 H 0.56052 0.86345 0.43778
 C1555 C 0.58627 0.79558 0.41216
 C1556 C 0.43159 1.15536 0.43093
 H1557 H 0.43856 1.13635 0.43796
 C1558 C 0.41271 1.20400 0.41184
 C1559 C 0.34518 1.06960 0.43114
 H1560 H 0.36416 1.06247 0.43810
 C1561 C 0.29657 1.08900 0.41221
 C1562 C 0.65443 0.93040 0.43076
 H1563 H 0.63533 0.93736 0.43756
 C1564 C 0.70333 0.91152 0.41230
 O1565 O 0.52550 0.90442 0.63226
 O1566 O 0.52546 0.87360 0.66313
 C1567 C 0.53460 0.89506 0.65372
 C1568 C 0.55649 0.90896 0.66739
 C1569 C 0.56612 0.89975 0.69178
 H1570 H 0.55708 0.88264 0.70099
 O1571 O 0.47489 1.09543 0.63233
 O1572 O 0.47510 1.12619 0.66327
 C1573 C 0.46599 1.10471 0.65392
 C1574 C 0.44430 1.09077 0.66785
 C1575 C 0.43521 1.09985 0.69247
 H1576 H 0.44500 1.11640 0.70193
 O1577 O 0.36872 1.02649 0.59618
 O1578 O 0.33774 1.02667 0.62691
 C1579 C 0.34724 1.03568 0.60544
 C1580 C 0.33359 1.05752 0.59142
 C1581 C 0.30928 1.06730 0.60072
 H1582 H 0.30016 1.05843 0.61796
 O1583 O 0.63177 0.97342 0.59525
 O1584 O 0.66281 0.97319 0.62590
 C1585 C 0.65328 0.96423 0.60444
 C1586 C 0.66690 0.94246 0.59032
 C1587 C 0.69141 0.93287 0.59928
 H1588 H 0.70071 0.94185 0.61637
 O1589 O 0.59437 0.86795 0.52565
 O1590 O 0.62499 0.83687 0.52556
 C1591 C 0.60359 0.84639 0.53470
 C1592 C 0.58969 0.83269 0.55658
 C1593 C 0.59899 0.80831 0.56608
 H1594 H 0.61567 0.79885 0.55649
 O1595 O 0.40554 1.13205 0.52579
 O1596 O 0.37489 1.16309 0.52587
 C1597 C 0.39640 1.15364 0.53484
 C1598 C 0.41044 1.16739 0.55661
 C1599 C 0.40138 1.19194 0.56594
 H1600 H 0.38510 1.20159 0.55591
 O1601 O 0.40466 0.97471 0.63243
 O1602 O 0.37384 0.97485 0.66332
 C1603 C 0.39533 0.96574 0.65397
 C1604 C 0.40925 0.94401 0.66784
 C1605 C 0.40010 0.93480 0.69239
 H1606 H 0.38350 0.94453 0.70184
 O1607 O 0.59597 1.02531 0.63150
 O1608 O 0.62686 1.02515 0.66230
 C1609 C 0.60536 1.03430 0.65301
 C1610 C 0.59148 1.05605 0.66693
 C1611 C 0.60063 1.06520 0.69151
 H1612 H 0.61725 1.05547 0.70091
 O1613 O 0.47358 0.86865 0.59612
 O1614 O 0.47339 0.83762 0.62678
 C1615 C 0.46440 0.84714 0.60532
 C1616 C 0.44262 0.83353 0.59119
 C1617 C 0.43303 0.80901 0.60012
 H1618 H 0.44198 0.79970 0.61721
 O1619 O 0.52641 1.13160 0.59590
 O1620 O 0.52661 1.16251 0.62668
 C1621 C 0.53555 1.15310 0.60516
 C1622 C 0.55729 1.16685 0.59111
 C1623 C 0.56695 1.19121 0.60036
 H1624 H 0.55799 1.20035 0.61756
 O1625 O 0.36805 0.90579 0.52583
 O1626 O 0.33696 0.87517 0.52580
 C1627 C 0.34643 0.89664 0.53482
 C1628 C 0.33265 0.91062 0.55662
 C1629 C 0.30814 0.90146 0.56596
 H1630 H 0.29852 0.88518 0.55589
 O1631 O 0.63228 1.09518 0.52601
 O1632 O 0.66331 1.12585 0.52599
 C1633 C 0.65385 1.10440 0.53506
 C1634 C 0.66766 1.09028 0.55673
 C1635 C 0.69207 1.09945 0.56642
 H1636 H 0.70086 1.11697 0.55779
 O1637 O 0.52651 1.09533 0.63206
 O1638 O 0.52677 1.12608 0.66300
 C1639 C 0.53570 1.10456 0.65355
 C1640 C 0.55742 1.09040 0.66724
 C1641 C 0.56692 1.09933 0.69179
 H1642 H 0.55796 1.11645 0.70105
 O1643 O 0.47389 0.90463 0.63257
 O1644 O 0.47372 0.87380 0.66343
 C1645 C 0.46482 0.89538 0.65410
 C1646 C 0.44322 0.90958 0.66797
 C1647 C 0.43373 0.90059 0.69251
 H1648 H 0.44265 0.88341 0.70169
 O1649 O 0.63216 1.02502 0.59516
 O1650 O 0.66319 1.02481 0.62582
 C1651 C 0.65382 1.03388 0.60433
 C1652 C 0.66777 1.05553 0.59032
 C1653 C 0.69246 1.06457 0.59930
 H1654 H 0.70205 1.05437 0.61550
 O1655 O 0.36838 0.97483 0.59630
 O1656 O 0.33741 0.97490 0.62703
 C1657 C 0.34682 0.96581 0.60556
 C1658 C 0.33296 0.94414 0.59146
 C1659 C 0.30870 0.93431 0.60087
 H1660 H 0.30002 0.94285 0.61849
 O1661 O 0.59603 1.13136 0.52607
 O1662 O 0.62693 1.16218 0.52606
 C1663 C 0.60541 1.15285 0.53512
 C1664 C 0.59150 1.16667 0.55691
 C1665 C 0.60088 1.19102 0.56646
 H1666 H 0.61770 1.20036 0.55702
 O1667 O 0.40417 0.86934 0.52606
 O1668 O 0.37316 0.83865 0.52608
 C1669 C 0.39471 0.84790 0.53513
 C1670 C 0.40855 0.83396 0.55687
 C1671 C 0.39928 0.80944 0.56605
 H1672 H 0.38260 0.80010 0.55635
 O1673 O 0.59565 0.97368 0.63160
 O1674 O 0.62656 0.97350 0.66238
 C1675 C 0.60496 0.96459 0.65310
 C1676 C 0.59089 0.94297 0.66703
 C1677 C 0.60018 0.93353 0.69144
 H1678 H 0.61702 0.94298 0.70074
 O1679 O 0.40476 1.02626 0.63259
 O1680 O 0.37394 1.02648 0.66349
 C1681 C 0.39553 1.03535 0.65413
 C1682 C 0.40979 1.05689 0.66799
 C1683 C 0.40091 1.06631 0.69260
 H1684 H 0.38374 1.05739 0.70182
 O1685 O 0.47477 1.13163 0.59610
 O1686 O 0.47488 1.16254 0.62688
 C1687 C 0.46575 1.15316 0.60541
 C1688 C 0.44406 1.16704 0.59137
 C1689 C 0.43435 1.19135 0.60075
 H1690 H 0.44298 1.20006 0.61831
 O1691 O 0.52517 0.86824 0.59604
 O1692 O 0.52512 0.83723 0.62672
 C1693 C 0.53414 0.84663 0.60522
 C1694 C 0.55575 0.83276 0.59107
 C1695 C 0.56538 0.80836 0.60030
 H1696 H 0.55653 0.79931 0.61759
 O1697 O 0.63093 0.90386 0.52546
 O1698 O 0.66165 0.87287 0.52535
 C1699 C 0.65244 0.89443 0.53442
 C1700 C 0.66646 0.90833 0.55607
 C1701 C 0.69098 0.89905 0.56528
 H1702 H 0.70029 0.88232 0.55565
 O1703 O 0.36903 1.09604 0.52611
 O1704 O 0.33827 1.12698 0.52623
 C1705 C 0.34760 1.10546 0.53527
 C1706 C 0.33381 1.09163 0.55713
 C1707 C 0.30948 1.10106 0.56667
 H1708 H 0.30014 1.11782 0.55714
 Cu1709 Cu 0.49954 0.88958 0.61119
 Cu1710 Cu 0.49941 0.85245 0.64811
 Cu1711 Cu 0.50063 1.11042 0.61101
 Cu1712 Cu 0.50086 1.14744 0.64806
 Cu1713 Cu 0.38931 0.89052 0.50011
 Cu1714 Cu 0.35204 0.85371 0.50015
 Cu1715 Cu 0.60949 0.88900 0.49973
 Cu1716 Cu 0.64629 0.85173 0.49962
 Cu1717 Cu 0.39016 1.11091 0.50009
 Cu1718 Cu 0.35329 1.14809 0.50023
 Cu1719 Cu 0.61100 1.11016 0.50023
 Cu1720 Cu 0.64814 1.14709 0.50016
 Cu1721 Cu 0.38970 1.00056 0.61128
 Cu1722 Cu 0.35261 1.00074 0.64826
 Cu1723 Cu 0.61079 0.99938 0.61030
 Cu1724 Cu 0.64796 0.99916 0.64719
 C1725 C 0.56888 0.93073 0.65531
 H1726 H 0.56184 0.93768 0.63631
 C1727 C 0.58800 0.91188 0.70393
 C1728 C 0.43165 1.06911 0.65592
 H1729 H 0.43834 1.06225 0.63675
 C1730 C 0.41348 1.08782 0.70497
 C1731 C 0.34557 1.06969 0.56948
 H1732 H 0.36452 1.06253 0.56246
 C1733 C 0.29709 1.08910 0.58850
 C1734 C 0.65473 0.93020 0.56855
 H1735 H 0.63565 0.93722 0.56178
 C1736 C 0.70358 0.91115 0.58690
 C1737 C 0.56790 0.84463 0.56905
 H1738 H 0.56088 0.86363 0.56207
 C1739 C 0.58704 0.79603 0.58797
 C1740 C 0.43203 1.15529 0.56923
 H1741 H 0.43898 1.13626 0.56227
 C1742 C 0.41299 1.20403 0.58817
 C1743 C 0.43099 0.93144 0.65594
 H1744 H 0.43791 0.93822 0.63682
 C1745 C 0.41213 0.91306 0.70485
 C1746 C 0.56970 1.06861 0.65510
 H1747 H 0.56276 1.06187 0.63598
 C1748 C 0.58854 1.08687 0.70407
 C1749 C 0.43039 0.84571 0.56940
 H1750 H 0.43741 0.86480 0.56265
 C1751 C 0.41134 0.79683 0.58768
 C1752 C 0.56954 1.15488 0.56921
 H1753 H 0.56245 1.13590 0.56221
 C1754 C 0.58877 1.20341 0.58821
 C1755 C 0.34470 0.93221 0.56927
 H1756 H 0.36371 0.93924 0.56229
 C1757 C 0.29606 0.91295 0.58825
 C1758 C 0.65575 1.06825 0.56878
 H1759 H 0.63663 1.06147 0.56186
 C1760 C 0.70474 1.08670 0.58770
 O1761 O 0.59515 0.52535 1.13220
 O1762 O 0.62607 0.52520 1.16298
 C1763 C 0.60458 0.53436 1.15368
 C1764 C 0.59084 0.55629 1.16746
 C1765 C 0.60001 0.56554 1.19200
 H1766 H 0.61623 0.55539 1.20162
 O1767 O 0.40521 0.47498 1.13279
 O1768 O 0.37437 0.47506 1.16366
 C1769 C 0.39592 0.46603 1.15435
 C1770 C 0.40984 0.44429 1.16823
 C1771 C 0.40089 0.43531 1.19294
 H1772 H 0.38481 0.44562 1.20262
 O1773 O 0.52601 0.63215 1.09575
 O1774 O 0.52615 0.66319 1.12641
 C1775 C 0.53505 0.65375 1.10488
 C1776 C 0.55665 0.66754 1.09065
 C1777 C 0.56610 0.69211 1.09957
 H1778 H 0.55707 0.70140 1.11665
 O1779 O 0.47350 0.36822 1.09605
 O1780 O 0.47326 0.33717 1.12668
 C1781 C 0.46429 0.34672 1.10523
 C1782 C 0.44245 0.33317 1.09113
 C1783 C 0.43264 0.30881 1.10022
 H1784 H 0.44148 0.29957 1.11741
 O1785 O 0.63136 0.59497 1.02600
 O1786 O 0.66246 0.62557 1.02605
 C1787 C 0.65292 0.60413 1.03508
 C1788 C 0.66664 0.59010 1.05686
 C1789 C 0.69102 0.59937 1.06641
 H1790 H 0.70044 0.61613 1.05694
 O1791 O 0.36847 0.40576 1.02575
 O1792 O 0.33729 0.37524 1.02574
 C1793 C 0.34686 0.39666 1.03479
 C1794 C 0.33318 0.41060 1.05666
 C1795 C 0.30862 0.40152 1.06593
 H1796 H 0.29892 0.38534 1.05578
 O1797 O 0.47492 0.59574 1.13253
 O1798 O 0.47510 0.62656 1.16342
 C1799 C 0.46607 0.60499 1.15415
 C1800 C 0.44446 0.59098 1.16814
 C1801 C 0.43550 0.59989 1.19287
 H1802 H 0.44573 0.61606 1.20250
 O1803 O 0.52539 0.40392 1.13230
 O1804 O 0.52530 0.37307 1.16314
 C1805 C 0.53447 0.39452 1.15376
 C1806 C 0.55630 0.40843 1.16751
 C1807 C 0.56610 0.39902 1.19176
 H1808 H 0.55742 0.38150 1.20049
 O1809 O 0.63094 0.47349 1.09583
 O1810 O 0.66203 0.47329 1.12642
 C1811 C 0.65247 0.46432 1.10497
 C1812 C 0.66612 0.44256 1.09079
 C1813 C 0.69073 0.43309 1.09963
 H1814 H 0.70005 0.44210 1.11669
 O1815 O 0.36889 0.52635 1.09630
 O1816 O 0.33787 0.52641 1.12698
 C1817 C 0.34731 0.53538 1.10547
 C1818 C 0.33350 0.55704 1.09135
 C1819 C 0.30905 0.56659 1.10051
 H1820 H 0.29987 0.55762 1.11767
 O1821 O 0.40519 0.63197 1.02590
 O1822 O 0.37442 0.66290 1.02593
 C1823 C 0.39593 0.65352 1.03494
 C1824 C 0.40984 0.66731 1.05677
 C1825 C 0.40059 0.69176 1.06618
 H1826 H 0.38426 0.70133 1.05616
 O1827 O 0.59399 0.36757 1.02552
 O1828 O 0.62471 0.33660 1.02544
 C1829 C 0.60321 0.34597 1.03448
 C1830 C 0.58927 0.33214 1.05626
 C1831 C 0.59845 0.30762 1.06555
 H1832 H 0.61473 0.29803 1.05546
 O1833 O 0.40490 0.52659 1.13272
 O1834 O 0.37403 0.52673 1.16356
 C1835 C 0.39556 0.53574 1.15419
 C1836 C 0.40967 0.55742 1.16800
 C1837 C 0.40058 0.56701 1.19246
 H1838 H 0.38308 0.55835 1.20128
 O1839 O 0.59483 0.47375 1.13225
 O1840 O 0.62577 0.47355 1.16300
 C1841 C 0.60415 0.46467 1.15375
 C1842 C 0.59012 0.44298 1.16762
 C1843 C 0.59925 0.43367 1.19214
 H1844 H 0.61561 0.44367 1.20169
 O1845 O 0.52512 0.36781 1.09606
 O1846 O 0.52502 0.33679 1.12671
 C1847 C 0.53410 0.34623 1.10525
 C1848 C 0.55575 0.33238 1.09111
 C1849 C 0.56559 0.30812 1.10047
 H1850 H 0.55705 0.29943 1.11809
 O1851 O 0.47437 0.63186 1.09621
 O1852 O 0.47442 0.66283 1.12693
 C1853 C 0.46525 0.65334 1.10553
 C1854 C 0.44342 0.66707 1.09156
 C1855 C 0.43351 0.69126 1.10103
 H1856 H 0.44206 0.69995 1.11864
 O1857 O 0.36888 0.59577 1.02614
 O1858 O 0.33800 0.62659 1.02623
 C1859 C 0.34740 0.60510 1.03527
 C1860 C 0.33362 0.59118 1.05709
 C1861 C 0.30920 0.60046 1.06657
 H1862 H 0.29981 0.61722 1.05708
 O1863 O 0.63026 0.40386 1.02578
 O1864 O 0.66109 0.37299 1.02572
 C1865 C 0.65178 0.39451 1.03480
 C1866 C 0.66572 0.40845 1.05649
 C1867 C 0.69035 0.39934 1.06556
 H1868 H 0.69974 0.38273 1.05581
 O1869 O 0.47377 0.40421 1.13248
 O1870 O 0.47354 0.37336 1.16331
 C1871 C 0.46466 0.39496 1.15399
 C1872 C 0.44315 0.40924 1.16791
 C1873 C 0.43351 0.40015 1.19236
 H1874 H 0.44204 0.38257 1.20112
 O1875 O 0.52649 0.59598 1.13200
 O1876 O 0.52675 0.62686 1.16282
 C1877 C 0.53573 0.60534 1.15341
 C1878 C 0.55745 0.59126 1.16716
 C1879 C 0.56724 0.60055 1.19145
 H1880 H 0.55870 0.61815 1.20017
 O1881 O 0.36897 0.47473 1.09655
 O1882 O 0.33798 0.47469 1.12727
 C1883 C 0.34744 0.46563 1.10580
 C1884 C 0.33361 0.44397 1.09166
 C1885 C 0.30929 0.43421 1.10099
 H1886 H 0.30059 0.44272 1.11862
 O1887 O 0.63126 0.52516 1.09586
 O1888 O 0.66232 0.52502 1.12649
 C1889 C 0.65287 0.53414 1.10506
 C1890 C 0.66668 0.55588 1.09105
 C1891 C 0.69107 0.56549 1.10034
 H1892 H 0.70017 0.55653 1.11754
 O1893 O 0.40423 0.36902 1.02589
 O1894 O 0.37312 0.33843 1.02590
 C1895 C 0.39469 0.34761 1.03497
 C1896 C 0.40843 0.33365 1.05676
 C1897 C 0.39895 0.30926 1.06609
 H1898 H 0.38221 0.29999 1.05644
 O1899 O 0.59551 0.63164 1.02587
 O1900 O 0.62650 0.66236 1.02588
 C1901 C 0.60489 0.65315 1.03487
 C1902 C 0.59088 0.66717 1.05646
 C1903 C 0.60003 0.69174 1.06566
 H1904 H 0.61677 0.70108 1.05608
 Cu1905 Cu 0.60996 0.49944 1.11096
 Cu1906 Cu 0.64716 0.49923 1.14780
 Cu1907 Cu 0.39008 0.50066 1.11152
 Cu1908 Cu 0.35295 0.50072 1.14845
 Cu1909 Cu 0.50043 0.61085 1.11104
 Cu1910 Cu 0.50062 0.64798 1.14798
 Cu1911 Cu 0.49945 0.38913 1.11116
 Cu1912 Cu 0.49925 0.35198 1.14805
 C1913 C 0.56932 0.56906 1.15540
 H1914 H 0.56226 0.56213 1.13638
 C1915 C 0.58849 0.58780 1.20413
 C1916 C 0.43123 0.43138 1.15609
 H1917 H 0.43811 0.43812 1.13694
 C1918 C 0.41239 0.41308 1.20513
 C1919 C 0.56901 0.65538 1.06891
 H1920 H 0.56210 0.63624 1.06218
 C1921 C 0.58782 0.70434 1.08724
 C1922 C 0.43035 0.34530 1.06924
 H1923 H 0.43753 0.36429 1.06237
 C1924 C 0.41087 0.29670 1.08784
 C1925 C 0.65476 0.56819 1.06915
 H1926 H 0.63576 0.56117 1.06213
 C1927 C 0.70334 0.58729 1.08819
 C1928 C 0.34533 0.43207 1.06943
 H1929 H 0.36437 0.43906 1.06249
 C1930 C 0.29657 0.41296 1.08826
 C1931 C 0.43168 0.56948 1.15608
 H1932 H 0.43841 0.56261 1.13693
 C1933 C 0.41339 0.58824 1.20517
 C1934 C 0.56840 0.43048 1.15568
 H1935 H 0.56137 0.43745 1.13668
 C1936 C 0.58757 0.41152 1.20433
 C1937 C 0.65391 0.43023 1.06907
 H1938 H 0.63475 0.43714 1.06239
 C1939 C 0.70299 0.41146 1.08715
 C1940 C 0.34548 0.56931 1.06947
 H1941 H 0.36452 0.56231 1.06253
 C1942 C 0.29679 0.58834 1.08829
 C1943 C 0.43150 0.65532 1.06937
 H1944 H 0.43862 0.63637 1.06233
 C1945 C 0.41209 0.70385 1.08847
 C1946 C 0.56767 0.34415 1.06893
 H1947 H 0.56062 0.36316 1.06199
 C1948 C 0.58695 0.29550 1.08782
 O1949 O 0.59485 0.47390 0.86818
 O1950 O 0.62576 0.47379 0.83738
 C1951 C 0.60416 0.46487 0.84665
 C1952 C 0.59008 0.44330 0.83265
 C1953 C 0.59924 0.43409 0.80811
 H1954 H 0.61596 0.44371 0.79877
 O1955 O 0.40462 0.52649 0.86752
 O1956 O 0.37373 0.52673 0.83672
 C1957 C 0.39531 0.53563 0.84606
 C1958 C 0.40943 0.55731 0.83228
 C1959 C 0.40037 0.56686 0.80782
 H1960 H 0.38320 0.55792 0.79862
 O1961 O 0.47448 0.63184 0.90437
 O1962 O 0.47457 0.66283 0.87367
 C1963 C 0.46545 0.65338 0.89512
 C1964 C 0.44362 0.66711 0.90905
 C1965 C 0.43396 0.69140 0.89967
 H1966 H 0.44342 0.70079 0.88288
 O1967 O 0.52480 0.36820 0.90364
 O1968 O 0.52474 0.33726 0.87288
 C1969 C 0.53381 0.34665 0.89437
 C1970 C 0.55556 0.33285 0.90835
 C1971 C 0.56539 0.30863 0.89886
 H1972 H 0.55656 0.29963 0.88153
 O1973 O 0.63056 0.40394 0.97414
 O1974 O 0.66140 0.37308 0.97412
 C1975 C 0.65211 0.39464 0.96514
 C1976 C 0.66608 0.40866 0.94352
 C1977 C 0.69062 0.39948 0.93424
 H1978 H 0.69998 0.38274 0.94379
 O1979 O 0.36867 0.59558 0.97448
 O1980 O 0.33776 0.62638 0.97459
 C1981 C 0.34708 0.60485 0.96554
 C1982 C 0.33318 0.59093 0.94379
 C1983 C 0.30856 0.60004 0.93469
 H1984 H 0.29898 0.61628 0.94484
 O1985 O 0.52608 0.59567 0.86811
 O1986 O 0.52631 0.62653 0.83728
 C1987 C 0.53522 0.60496 0.84663
 C1988 C 0.55689 0.59084 0.83283
 C1989 C 0.56650 0.59998 0.80840
 H1990 H 0.55761 0.61721 0.79927
 O1991 O 0.47331 0.40455 0.86742
 O1992 O 0.47314 0.37375 0.83652
 C1993 C 0.46419 0.39529 0.84591
 C1994 C 0.44258 0.40945 0.83208
 C1995 C 0.43295 0.40027 0.80768
 H1996 H 0.44160 0.38275 0.79890
 O1997 O 0.63126 0.52531 0.90461
 O1998 O 0.66227 0.52519 0.87391
 C1999 C 0.65287 0.53426 0.89539
 C2000 C 0.66677 0.55593 0.90940
 C2001 C 0.69123 0.56530 0.90015
 H2002 H 0.70060 0.55575 0.88340
 O2003 O 0.36840 0.47495 0.90379
 O2004 O 0.33733 0.47503 0.87317
 C2005 C 0.34679 0.46595 0.89462
 C2006 C 0.33300 0.44428 0.90877
 C2007 C 0.30851 0.43470 0.89969
 H2008 H 0.29936 0.44357 0.88247
 O2009 O 0.59554 0.63147 0.97426
 O2010 O 0.62655 0.66216 0.97427
 C2011 C 0.60499 0.65293 0.96522
 C2012 C 0.59111 0.66685 0.94349
 C2013 C 0.60042 0.69130 0.93414
 H2014 H 0.61716 0.70064 0.94371
 O2015 O 0.40441 0.36892 0.97423
 O2016 O 0.37334 0.33827 0.97431
 C2017 C 0.39495 0.34741 0.96528
 C2018 C 0.40880 0.33338 0.94357
 C2019 C 0.39972 0.30869 0.93462
 H2020 H 0.38349 0.29916 0.94486
 O2021 O 0.40446 0.47492 0.86734
 O2022 O 0.37356 0.47507 0.83655
 C2023 C 0.39510 0.46598 0.84580
 C2024 C 0.40900 0.44422 0.83190
 C2025 C 0.39996 0.43508 0.80726
 H2026 H 0.38370 0.44518 0.79767
 O2027 O 0.59524 0.52552 0.86820
 O2028 O 0.62614 0.52543 0.83738
 C2029 C 0.60466 0.53456 0.84672
 C2030 C 0.59085 0.55641 0.83291
 C2031 C 0.60016 0.56581 0.80849
 H2032 H 0.61684 0.55619 0.79908
 O2033 O 0.47319 0.36848 0.90372
 O2034 O 0.47298 0.33750 0.87301
 C2035 C 0.46401 0.34699 0.89450
 C2036 C 0.44231 0.33330 0.90871
 C2037 C 0.43259 0.30886 0.89970
 H2038 H 0.44121 0.29995 0.88223
 O2039 O 0.52611 0.63190 0.90433
 O2040 O 0.52628 0.66291 0.87366
 C2041 C 0.53524 0.65343 0.89514
 C2042 C 0.55697 0.66714 0.90925
 C2043 C 0.56658 0.69159 0.90015
 H2044 H 0.55764 0.70079 0.88300
 O2045 O 0.36846 0.40554 0.97405
 O2046 O 0.33732 0.37498 0.97410
 C2047 C 0.34687 0.39638 0.96501
 C2048 C 0.33310 0.41033 0.94322
 C2049 C 0.30860 0.40112 0.93392
 H2050 H 0.29915 0.38451 0.94361
 O2051 O 0.63165 0.59510 0.97435
 O2052 O 0.66279 0.62568 0.97436
 C2053 C 0.65326 0.60424 0.96531
 C2054 C 0.66701 0.59014 0.94359
 C2055 C 0.69147 0.59926 0.93401
 H2056 H 0.70067 0.61641 0.94298
 O2057 O 0.52492 0.40443 0.86747
 O2058 O 0.52488 0.37368 0.83652
 C2059 C 0.53398 0.39515 0.84595
 C2060 C 0.55579 0.40917 0.83224
 C2061 C 0.56533 0.40016 0.80772
 H2062 H 0.55630 0.38307 0.79845
 O2063 O 0.47448 0.59588 0.86791
 O2064 O 0.47465 0.62674 0.83707
 C2065 C 0.46553 0.60524 0.84638
 C2066 C 0.44379 0.59136 0.83248
 C2067 C 0.43447 0.60061 0.80802
 H2068 H 0.44408 0.61731 0.79863
 O2069 O 0.36855 0.52659 0.90387
 O2070 O 0.33749 0.52678 0.87325
 C2071 C 0.34702 0.53575 0.89472
 C2072 C 0.33329 0.55743 0.90893
 C2073 C 0.30891 0.56717 0.89978
 H2074 H 0.30009 0.55859 0.88225
 O2075 O 0.63112 0.47369 0.90443
 O2076 O 0.66215 0.47355 0.87376
 C2077 C 0.65266 0.46457 0.89523
 C2078 C 0.66638 0.44286 0.90933
 C2079 C 0.69093 0.43338 0.90033
 H2080 H 0.70019 0.44242 0.88324
 O2081 O 0.59410 0.36792 0.97383
 O2082 O 0.62485 0.33697 0.97377
 C2083 C 0.60342 0.34645 0.96467
 C2084 C 0.58960 0.33281 0.94271
 C2085 C 0.59913 0.30862 0.93293
 H2086 H 0.61595 0.29926 0.94234
 O2087 O 0.40486 0.63191 0.97422
 O2088 O 0.37406 0.66281 0.97424
 C2089 C 0.39552 0.65339 0.96512
 C2090 C 0.40941 0.66713 0.94326
 C2091 C 0.39999 0.69141 0.93353
 H2092 H 0.38272 0.70044 0.94245
 Cu2093 Cu 0.61002 0.49960 0.88943
 Cu2094 Cu 0.64719 0.49946 0.85251
 Cu2095 Cu 0.38959 0.50071 0.88870
 Cu2096 Cu 0.35240 0.50091 0.85185
 Cu2097 Cu 0.61041 0.61022 1.00012
 Cu2098 Cu 0.64771 0.64701 1.00015
 Cu2099 Cu 0.60914 0.38891 0.99983
 Cu2100 Cu 0.64609 0.35179 0.99977
 Cu2101 Cu 0.38999 0.61073 1.00017
 Cu2102 Cu 0.35297 0.64777 1.00026
 Cu2103 Cu 0.38951 0.39037 0.99997
 Cu2104 Cu 0.35213 0.35368 1.00001
 Cu2105 Cu 0.50029 0.61073 0.88926
 Cu2106 Cu 0.50047 0.64787 0.85234
 Cu2107 Cu 0.49906 0.38950 0.88864
 Cu2108 Cu 0.49892 0.35244 0.85163
 C2109 C 0.56817 0.43090 0.84441
 H2110 H 0.56123 0.43769 0.86351
 C2111 C 0.58709 0.41247 0.79552
 C2112 C 0.43131 0.56953 0.84431
 H2113 H 0.43815 0.56254 0.86337
 C2114 C 0.41274 0.58854 0.79555
 C2115 C 0.43137 0.65527 0.93101
 H2116 H 0.43849 0.63636 0.93813
 C2117 C 0.41211 0.70367 0.91171
 C2118 C 0.56766 0.34464 0.93044
 H2119 H 0.56046 0.36350 0.93762
 C2120 C 0.58722 0.29643 0.91097
 C2121 C 0.65426 0.43052 0.93109
 H2122 H 0.63516 0.43745 0.93789
 C2123 C 0.70317 0.41167 0.91262
 C2124 C 0.34518 0.56938 0.93102
 H2125 H 0.36426 0.56238 0.93783
 C2126 C 0.29629 0.58847 0.91253
 C2127 C 0.56904 0.56889 0.84478
 H2128 H 0.56200 0.56198 0.86381
 C2129 C 0.58816 0.58761 0.79611
 C2130 C 0.43056 0.43151 0.84393
 H2131 H 0.43750 0.43833 0.86303
 C2132 C 0.41166 0.41296 0.79502
 C2133 C 0.65495 0.56831 0.93129
 H2134 H 0.63589 0.56144 0.93829
 C2135 C 0.70371 0.58699 0.91225
 C2136 C 0.34500 0.43208 0.93069
 H2137 H 0.36408 0.43905 0.93755
 C2138 C 0.29620 0.41307 0.91210
 C2139 C 0.56922 0.65507 0.93108
 H2140 H 0.56217 0.63603 0.93794
 C2141 C 0.58833 0.70380 0.91245
 C2142 C 0.43034 0.34531 0.93073
 H2143 H 0.43733 0.36444 0.93743
 C2144 C 0.41132 0.29628 0.91256
 C2145 C 1.13618 1.10616 1.25917
 C2146 C 1.11961 1.11833 1.27807
 C2147 C 1.09227 1.11975 1.27243
 C2148 C 1.08201 1.10939 1.24892
 C2149 C 1.09873 1.09776 1.23000
 C2150 C 1.12595 1.09636 1.23546
 H2151 H 1.15741 1.10540 1.26181
 H2152 H 1.07843 1.12793 1.28656
 H2153 H 1.06084 1.11023 1.24577
 H2154 H 1.13964 1.08830 1.22109
 C2155 C 1.09200 0.61569 0.77365
 C2156 C 1.11948 0.61760 0.77752
 C2157 C 1.13653 0.60898 0.75733
 C2158 C 1.12637 0.59883 0.73374
 C2159 C 1.09890 0.59701 0.72978
 C2160 C 1.08182 0.60549 0.75003
 H2161 H 1.07838 0.62190 0.78898
 H2162 H 1.15778 0.61065 0.75953
 H2163 H 1.14005 0.59295 0.71833
 H2164 H 1.06057 0.60402 0.74769
 C2165 C 0.63666 1.10897 0.75725
 C2166 C 0.61952 1.11752 0.77741
 C2167 C 0.59206 1.11560 0.77343
 C2168 C 0.58198 1.10547 0.74974
 C2169 C 0.59914 1.09708 0.72952
 C2170 C 0.62659 1.09890 0.73359
 H2171 H 0.65790 1.11065 0.75954
 H2172 H 0.57839 1.12175 0.78873
 H2173 H 0.56074 1.10399 0.74733
 H2174 H 0.64033 1.09307 0.71821
 C2175 C 0.59266 0.62022 1.27194
 C2176 C 0.62005 0.61927 1.27740
 C2177 C 0.63672 0.60744 1.25835
 C2178 C 0.62651 0.59739 1.23475
 C2179 C 0.59923 0.59828 1.22951
 C2180 C 0.58243 0.60967 1.24851
 H2181 H 0.57875 0.62812 1.28617
 H2182 H 0.65798 0.60708 1.26083
 H2183 H 0.64020 0.58951 1.22029
 H2184 H 0.56124 0.61014 1.24548
 C2185 C 0.89172 0.86329 1.25820
 C2186 C 0.87989 0.87987 1.27732
 C2187 C 0.87893 0.90727 1.27200
 C2188 C 0.88967 0.91763 1.24870
 C2189 C 0.90117 0.90094 1.22966
 C2190 C 0.90189 0.87362 1.23470
 H2191 H 0.89203 0.84202 1.26056
 H2192 H 0.87095 0.92108 1.28628
 H2193 H 0.88928 0.93885 1.24583
 H2194 H 0.90977 0.85998 1.22020
 C2195 C 0.89140 0.36340 0.75813
 C2196 C 0.87951 0.37994 0.77724
 C2197 C 0.87850 0.40735 0.77191
 C2198 C 0.88923 0.41773 0.74862
 C2199 C 0.90080 0.40107 0.72959
 C2200 C 0.90158 0.37376 0.73464
 H2201 H 0.89175 0.34213 0.76047
 H2202 H 0.87048 0.42114 0.78619
 H2203 H 0.88879 0.43895 0.74574
 H2204 H 0.90951 0.36014 0.72014
 C2205 C 0.40826 0.88429 0.77416
 C2206 C 0.38077 0.88243 0.77803
 C2207 C 0.36375 0.89093 0.75777
 C2208 C 0.37395 0.90096 0.73414
 C2209 C 0.40143 0.90276 0.73021
 C2210 C 0.41848 0.89436 0.75050
 H2211 H 0.42185 0.87816 0.78954
 H2212 H 0.34250 0.88927 0.75995
 H2213 H 0.36030 0.90678 0.71870
 H2214 H 0.43973 0.89581 0.74817
 C2215 C 0.40813 0.38079 1.27304
 C2216 C 0.38078 0.38214 1.27866
 C2217 C 0.36420 0.39429 1.25976
 C2218 C 0.37443 0.40414 1.23607
 C2219 C 0.40166 0.40280 1.23063
 C2220 C 0.41839 0.39120 1.24954
 H2221 H 0.42198 0.37264 1.28717
 H2222 H 0.34296 0.39498 1.26237
 H2223 H 0.36075 0.41219 1.22171
 H2224 H 0.43956 0.39039 1.24639
 C2225 C 0.89242 1.13758 0.74223
 C2226 C 0.88024 1.12099 0.72335
 C2227 C 0.87916 1.09362 0.72883
 C2228 C 0.88993 1.08331 0.75212
 C2229 C 0.90162 1.10002 0.77101
 C2230 C 0.90265 1.12729 0.76575
 H2231 H 0.89294 1.15882 0.73970
 H2232 H 0.87103 1.07976 0.71469
 H2233 H 0.88937 1.06212 0.75511
 H2234 H 0.91078 1.14094 0.78011
 C2235 C 0.88316 0.59228 0.22682
 C2236 C 0.88094 0.61975 0.22312
 C2237 C 0.88930 0.63678 0.24344
 C2238 C 0.89960 0.62659 0.26695
 C2239 C 0.90179 0.59913 0.27070
 C2240 C 0.89348 0.58208 0.25037
 H2241 H 0.87718 0.57868 0.21138
 H2242 H 0.88738 0.65801 0.24138
 H2243 H 0.90537 0.64022 0.28244
 H2244 H 0.89522 0.56084 0.25257
 C2245 C 0.38050 1.09265 0.22770
 C2246 C 0.38132 1.12003 0.22222
 C2247 C 0.39311 1.13677 0.24122
 C2248 C 0.40318 1.12662 0.26485
 C2249 C 0.40237 1.09935 0.27014
 C2250 C 0.39109 1.08249 0.25114
 H2251 H 0.37267 1.07869 0.21348
 H2252 H 0.39340 1.15802 0.23871
 H2253 H 0.41099 1.14037 0.27930
 H2254 H 0.39071 1.06130 0.25418
 C2255 C 0.38990 0.63681 0.74290
 C2256 C 0.38168 0.61974 0.72256
 C2257 C 0.38399 0.59227 0.72629
 C2258 C 0.39421 0.58212 0.74989
 C2259 C 0.40235 0.59922 0.77026
 C2260 C 0.40012 0.62667 0.76647
 H2261 H 0.38792 0.65803 0.74082
 H2262 H 0.37813 0.57864 0.71083
 H2263 H 0.39600 0.56089 0.75213
 H2264 H 0.40576 0.64033 0.78198
 C2265 C 1.10985 0.86400 0.74254
 C2266 C 1.11803 0.88104 0.72215
 C2267 C 1.11556 0.90850 0.72580
 C2268 C 1.10520 0.91866 0.74936
 C2269 C 1.09706 0.90158 0.76974
 C2270 C 1.09948 0.87414 0.76604
 H2271 H 1.11199 0.84277 0.74056
 H2272 H 1.12140 0.92211 0.71033
 H2273 H 1.10330 0.93989 0.75156
 H2274 H 1.09387 0.86049 0.78157
 C2275 C 1.13572 0.39019 0.24244
 C2276 C 1.11881 0.38178 0.22205
 C2277 C 1.09130 0.38361 0.22577
 C2278 C 1.08096 0.39367 0.24939
 C2279 C 1.09791 0.40207 0.26978
 C2280 C 1.12540 0.40018 0.26602
 H2281 H 1.15698 0.38853 0.24037
 H2282 H 1.07780 0.37752 0.21030
 H2283 H 1.05970 0.39516 0.25160
 H2284 H 1.13898 0.40596 0.28154
 C2285 C 0.59239 0.87914 0.22824
 C2286 C 0.61980 0.88018 0.22289
 C2287 C 0.63637 0.89190 0.24209
 C2288 C 0.62602 0.90185 0.26568
 C2289 C 0.59871 0.90102 0.27075
 C2290 C 0.58202 0.88964 0.25164
 H2291 H 0.57857 0.87128 0.21390
 H2292 H 0.65764 0.89227 0.23971
 H2293 H 0.63966 0.90965 0.28023
 H2294 H 0.56080 0.88918 0.25454
 C2295 C 0.63558 0.39040 0.74267
 C2296 C 0.61862 0.38202 0.72233
 C2297 C 0.59112 0.38385 0.72613
 C2298 C 0.58084 0.39384 0.74980
 C2299 C 0.59785 0.40216 0.77018
 C2300 C 0.62533 0.40032 0.76632
 H2301 H 0.65684 0.38874 0.74053
 H2302 H 0.57757 0.37779 0.71068
 H2303 H 0.55959 0.39532 0.75207
 H2304 H 0.63896 0.40605 0.78182
 C2305 C 1.27363 1.11498 1.09144
 C2306 C 1.27749 1.11708 1.11890
 C2307 C 1.25727 1.10861 1.13599
 C2308 C 1.23365 1.09844 1.12588
 C2309 C 1.22971 1.09643 1.09843
 C2310 C 1.25000 1.10474 1.08131
 H2311 H 1.28899 1.12108 1.07780
 H2312 H 1.25945 1.11043 1.15722
 H2313 H 1.21822 1.09269 1.13959
 H2314 H 1.24769 1.10312 1.06008
 C2315 C 1.27326 0.61586 0.59145
 C2316 C 1.27693 0.61817 0.61891
 C2317 C 1.25659 0.60985 0.63594
 C2318 C 1.23308 0.59953 0.62576
 C2319 C 1.22934 0.59726 0.59830
 C2320 C 1.24971 0.60551 0.58125
 H2321 H 1.28871 0.62181 0.57785
 H2322 H 1.25864 0.61183 0.65717
 H2323 H 1.21757 0.59382 0.63940
 H2324 H 1.24752 0.60371 0.56002
 C2325 C 0.75927 1.10574 0.63593
 C2326 C 0.77817 1.11794 0.61936
 C2327 C 0.77258 1.11921 0.59201
 C2328 C 0.74914 1.10869 0.58173
 C2329 C 0.73021 1.09706 0.59845
 C2330 C 0.73562 1.09580 0.62569
 H2331 H 0.76187 1.10509 0.65716
 H2332 H 0.78672 1.12738 0.57817
 H2333 H 0.74604 1.10944 0.56056
 H2334 H 0.72125 1.08775 0.63937
 C2335 C 0.75558 0.63596 1.11121
 C2336 C 0.77607 0.61908 1.11946
 C2337 C 0.77248 0.59158 1.11735
 C2338 C 0.74893 0.58121 1.10716
 C2339 C 0.72848 0.59814 1.09886
 C2340 C 0.73208 0.62562 1.10105
 H2341 H 0.75754 0.65721 1.11306
 H2342 H 0.78803 0.57808 1.12327
 H2343 H 0.74683 0.55996 1.10545
 H2344 H 0.71649 0.63916 1.09533
 C2345 C 1.27136 0.90749 0.88032
 C2346 C 1.27687 0.88012 0.88133
 C2347 C 1.25779 0.86343 0.89308
 C2348 C 1.23408 0.87362 0.90293
 C2349 C 1.22877 0.90088 0.90195
 C2350 C 1.24783 0.91769 0.89069
 H2351 H 1.28562 0.92141 0.87251
 H2352 H 1.26032 0.84218 0.89350
 H2353 H 1.21959 0.85991 0.91073
 H2354 H 1.24476 0.93888 0.89017
 C2355 C 1.25749 0.36263 0.39236
 C2356 C 1.27646 0.37925 0.38035
 C2357 C 1.27092 0.40662 0.37921
 C2358 C 1.24750 0.41688 0.38974
 C2359 C 1.22852 0.40014 0.40125
 C2360 C 1.23384 0.37287 0.40233
 H2361 H 1.26008 0.34139 0.39292
 H2362 H 1.28512 0.42049 0.37120
 H2363 H 1.24447 0.43807 0.38915
 H2364 H 1.21942 0.35920 0.41032
 C2365 C 0.77283 0.90784 0.38387
 C2366 C 0.77656 0.88038 0.38148
 C2367 C 0.75611 0.86332 0.38947
 C2368 C 0.73248 0.87344 0.39958
 C2369 C 0.72870 0.90088 0.40195
 C2370 C 0.74915 0.91798 0.39399
 H2371 H 0.78835 0.92147 0.37816
 H2372 H 0.75816 0.84209 0.38739
 H2373 H 0.71691 0.85977 0.40505
 H2374 H 0.74692 0.93921 0.39586
 C2375 C 0.77256 0.40795 0.88392
 C2376 C 0.77625 0.38049 0.88151
 C2377 C 0.75581 0.36344 0.88959
 C2378 C 0.73224 0.37358 0.89982
 C2379 C 0.72850 0.40102 0.90220
 C2380 C 0.74893 0.41811 0.89415
 H2381 H 0.78806 0.42157 0.87815
 H2382 H 0.75783 0.34222 0.88749
 H2383 H 0.71669 0.35992 0.90535
 H2384 H 0.74672 0.43934 0.89603
 C2385 C 0.74459 0.86365 1.11145
 C2386 C 0.72424 0.88049 1.12010
 C2387 C 0.72786 0.90800 1.11829
 C2388 C 0.75133 0.91844 1.10800
 C2389 C 0.77167 0.90157 1.09933
 C2390 C 0.76804 0.87407 1.10121
 H2391 H 0.74257 0.84238 1.11305
 H2392 H 0.71239 0.92145 1.12451
 H2393 H 0.75343 0.93970 1.10651
 H2394 H 0.78354 0.86056 1.09519
 C2395 C 0.74183 0.36419 0.60736
 C2396 C 0.72268 0.38078 0.61914
 C2397 C 0.72805 0.40818 0.62014
 C2398 C 0.75147 0.41851 0.60963
 C2399 C 0.77055 0.40180 0.59825
 C2400 C 0.76543 0.37450 0.59738
 H2401 H 0.73945 0.34292 0.60700
 H2402 H 0.71374 0.42202 0.62802
 H2403 H 0.75442 0.43972 0.61011
 H2404 H 0.77996 0.36086 0.58954
 C2405 C 0.22831 0.90809 0.62088
 C2406 C 0.22302 0.88067 0.61970
 C2407 C 0.24225 0.86421 0.60788
 C2408 C 0.26581 0.87466 0.59794
 C2409 C 0.27082 0.90197 0.59890
 C2410 C 0.25170 0.91856 0.61041
 H2411 H 0.21396 0.92183 0.62883
 H2412 H 0.23994 0.84294 0.60740
 H2413 H 0.28038 0.86110 0.59003
 H2414 H 0.25458 0.93977 0.61100
 C2415 C 0.22869 0.40832 1.12056
 C2416 C 0.22333 0.38092 1.11938
 C2417 C 0.24254 0.36440 1.10762
 C2418 C 0.26616 0.37477 1.09777
 C2419 C 0.27126 0.40207 1.09878
 C2420 C 0.25215 0.41872 1.11020
 H2421 H 0.21435 0.42212 1.12845
 H2422 H 0.24017 0.34313 1.10714
 H2423 H 0.28073 0.36118 1.08991
 H2424 H 0.25510 0.43992 1.11081
 C2425 C 0.74156 1.13673 0.89342
 C2426 C 0.72257 1.12003 0.88155
 C2427 C 0.72804 1.09264 0.88071
 C2428 C 0.75145 1.08245 0.89135
 C2429 C 0.77044 1.09928 0.90269
 C2430 C 0.76517 1.12655 0.90353
 H2431 H 0.73908 1.15799 0.89372
 H2432 H 0.71383 1.07872 0.87282
 H2433 H 0.75448 1.06126 0.89093
 H2434 H 0.77961 1.14028 0.91139
 C2435 C 0.72778 0.61817 0.40777
 C2436 C 0.72433 0.62059 0.38028
 C2437 C 0.74494 0.61263 0.36340
 C2438 C 0.76841 0.60238 0.37374
 C2439 C 0.77185 0.59986 0.40121
 C2440 C 0.75131 0.60792 0.41813
 H2441 H 0.71213 0.62384 0.42126
 H2442 H 0.74309 0.61473 0.34217
 H2443 H 0.78408 0.59682 0.36022
 H2444 H 0.75329 0.60595 0.43936
 C2445 C 0.24250 1.13743 0.39234
 C2446 C 0.22359 1.12084 0.38019
 C2447 C 0.22907 1.09347 0.37912
 C2448 C 0.25236 1.08316 0.38990
 C2449 C 0.27127 1.09986 0.40158
 C2450 C 0.26602 1.12714 0.40257
 H2451 H 0.23999 1.15868 0.39283
 H2452 H 0.21491 1.07962 0.37099
 H2453 H 0.25533 1.06196 0.38936
 H2454 H 0.28040 1.14079 0.41066
 C2455 C 0.22836 0.59270 0.88033
 C2456 C 0.22294 0.62010 0.88121
 C2457 C 0.24202 0.63675 0.89302
 C2458 C 0.26564 0.62652 0.90304
 C2459 C 0.27086 0.59923 0.90215
 C2460 C 0.25180 0.58245 0.89085
 H2461 H 0.21410 0.57880 0.87249
 H2462 H 0.23957 0.65801 0.89336
 H2463 H 0.28013 0.64020 0.91087
 H2464 H 0.25480 0.56125 0.89040
 C2465 C 1.09344 1.27260 1.11661
 C2466 C 1.12090 1.27611 1.11924
 C2467 C 1.13790 1.25561 1.11123
 C2468 C 1.12768 1.23213 1.10085
 C2469 C 1.10022 1.22859 1.09826
 C2470 C 1.08321 1.24909 1.10624
 H2471 H 1.07986 1.28818 1.12227
 H2472 H 1.15912 1.25752 1.11345
 H2473 H 1.14127 1.21651 1.09534
 H2474 H 1.06198 1.24704 1.10419
 C2475 C 1.13756 0.75526 0.61115
 C2476 C 1.12059 0.77578 0.61916
 C2477 C 1.09311 0.77223 0.61668
 C2478 C 1.08284 0.74864 0.60651
 C2479 C 1.09983 0.72814 0.59854
 C2480 C 1.12730 0.73173 0.60094
 H2481 H 1.15879 0.75720 0.61325
 H2482 H 1.07954 0.78781 0.62235
 H2483 H 1.06160 0.74655 0.60458
 H2484 H 1.14087 0.71610 0.59541
 C2485 C 0.59277 1.27254 0.61727
 C2486 C 0.62024 1.27607 0.61982
 C2487 C 0.63722 1.25557 0.61180
 C2488 C 0.62700 1.23210 0.60143
 C2489 C 0.59955 1.22856 0.59886
 C2490 C 0.58253 1.24902 0.60691
 H2491 H 0.57920 1.28811 0.62296
 H2492 H 0.65845 1.25749 0.61397
 H2493 H 0.64059 1.21649 0.59587
 H2494 H 0.56130 1.24695 0.60490
 C2495 C 0.63608 0.75697 1.11021
 C2496 C 0.61904 0.77741 1.11827
 C2497 C 0.59157 0.77374 1.11586
 C2498 C 0.58140 0.75011 1.10564
 C2499 C 0.59848 0.72968 1.09761
 C2500 C 0.62593 0.73340 1.09999
 H2501 H 0.65731 0.75897 1.11231
 H2502 H 0.57796 0.78924 1.12162
 H2503 H 0.56017 0.74791 1.10377
 H2504 H 0.63958 0.71784 1.09447
 C2505 C 0.88791 1.25505 0.86313
 C2506 C 0.87972 1.27559 0.87999
 C2507 C 0.88231 1.27226 0.90747
 C2508 C 0.89284 1.24889 0.91786
 C2509 C 0.90103 1.22838 0.90098
 C2510 C 0.89845 1.23172 0.87350
 H2511 H 0.88573 1.25682 0.84190
 H2512 H 0.87649 1.28788 0.92094
 H2513 H 0.89487 1.24699 0.93910
 H2514 H 0.90413 1.21607 0.86002
 C2515 C 0.88847 0.75511 0.36325
 C2516 C 0.88027 0.77564 0.38011
 C2517 C 0.88293 0.77234 0.40759
 C2518 C 0.89357 0.74901 0.41796
 C2519 C 0.90179 0.72850 0.40107
 C2520 C 0.89911 0.73182 0.37360
 H2521 H 0.88622 0.75686 0.34202
 H2522 H 0.87711 0.78795 0.42106
 H2523 H 0.89567 0.74712 0.43919
 H2524 H 0.90479 0.71618 0.36011
 C2525 C 0.39018 1.25675 0.36343
 C2526 C 0.38132 1.27685 0.38045
 C2527 C 0.38306 1.27295 0.40792
 C2528 C 0.39340 1.24941 0.41814
 C2529 C 0.40215 1.22925 0.40110
 C2530 C 0.40043 1.23321 0.37362
 H2531 H 0.38866 1.25900 0.34218
 H2532 H 0.37667 1.28823 0.42151
 H2533 H 0.39479 1.24710 0.43938
 H2534 H 0.40651 1.21787 0.35996
 C2535 C 0.38234 0.77252 0.90761
 C2536 C 0.38029 0.77622 0.88013
 C2537 C 0.38892 0.75598 0.86315
 C2538 C 0.39931 0.73253 0.87341
 C2539 C 0.40136 0.72879 0.90089
 C2540 C 0.39278 0.74906 0.91788
 H2541 H 0.37616 0.78792 0.92117
 H2542 H 0.38717 0.75808 0.84191
 H2543 H 0.40528 0.71709 0.85980
 H2544 H 0.39442 0.74689 0.93913
 C2545 C 1.13674 0.74509 0.88721
 C2546 C 1.11998 0.72443 0.87912
 C2547 C 1.09245 0.72777 0.88144
 C2548 C 1.08195 0.75123 0.89168
 C2549 C 1.09874 0.77182 0.89987
 C2550 C 1.12624 0.76850 0.89746
 H2551 H 1.15800 0.74333 0.88521
 H2552 H 1.07905 0.71208 0.87569
 H2553 H 1.06069 0.75312 0.89356
 H2554 H 1.13967 0.78421 0.90313
 C2555 C 1.13617 0.24456 0.38760
 C2556 C 1.11937 0.22382 0.37980
 C2557 C 1.09186 0.22713 0.38235
 C2558 C 1.08142 0.25066 0.39251
 C2559 C 1.09827 0.27132 0.40040
 C2560 C 1.12575 0.26801 0.39780
 H2561 H 1.15741 0.24284 0.38539
 H2562 H 1.07842 0.21140 0.37681
 H2563 H 1.06017 0.25258 0.39453
 H2564 H 1.13920 0.28377 0.40325
 C2565 C 0.63498 0.74340 0.38921
 C2566 C 0.61813 0.72277 0.38124
 C2567 C 0.59062 0.72624 0.38350
 C2568 C 0.58022 0.74984 0.39356
 C2569 C 0.59712 0.77041 0.40161
 C2570 C 0.62460 0.76692 0.39928
 H2571 H 0.65623 0.74156 0.38720
 H2572 H 0.57716 0.71060 0.37777
 H2573 H 0.55896 0.75188 0.39537
 H2574 H 0.63811 0.78260 0.40480
 C2575 C 0.63627 0.24480 0.88739
 C2576 C 0.61952 0.22417 0.87923
 C2577 C 0.59199 0.22749 0.88151
 C2578 C 0.58147 0.25091 0.89182
 C2579 C 0.59826 0.27148 0.90010
 C2580 C 0.62576 0.26817 0.89772
 H2581 H 0.65753 0.24305 0.88542
 H2582 H 0.57860 0.21182 0.87569
 H2583 H 0.56021 0.25280 0.89368
 H2584 H 0.63918 0.28387 0.90344
 C2585 C 0.90760 0.72710 1.11624
 C2586 C 0.88012 0.72343 1.11844
 C2587 C 0.86314 0.74384 1.11019
 C2588 C 0.87339 0.76741 1.10007
 C2589 C 0.90086 0.77114 1.09794
 C2590 C 0.91787 0.75071 1.10610
 H2591 H 0.92117 0.71160 1.12212
 H2592 H 0.84189 0.74180 1.11209
 H2593 H 0.85979 0.78296 1.09442
 H2594 H 0.93911 0.75289 1.10439
 C2595 C 0.90724 0.22751 0.61703
 C2596 C 0.87976 0.22353 0.61869
 C2597 C 0.86272 0.24361 0.60983
 C2598 C 0.87290 0.26722 0.59971
 C2599 C 0.90038 0.27128 0.59812
 C2600 C 0.91744 0.25111 0.60683
 H2601 H 0.92085 0.21225 0.62341
 H2602 H 0.84146 0.24130 0.61128
 H2603 H 0.85923 0.28255 0.59363
 H2604 H 0.93869 0.25350 0.60553
 C2605 C 0.36307 0.74382 0.60985
 C2606 C 0.38016 0.72347 0.61798
 C2607 C 0.40763 0.72730 0.61581
 C2608 C 0.41777 0.75103 0.60586
 C2609 C 0.40066 0.77142 0.59785
 C2610 C 0.37320 0.76752 0.59991
 H2611 H 0.34184 0.74165 0.61172
 H2612 H 0.42128 0.71184 0.62161
 H2613 H 0.43901 0.75333 0.60418
 H2614 H 0.35952 0.78304 0.59435
 C2615 C 0.40678 0.22752 1.11677
 C2616 C 0.37930 0.22376 1.11879
 C2617 C 0.36229 0.24401 1.11024
 C2618 C 0.37254 0.26758 1.10008
 C2619 C 0.40003 0.27142 1.09818
 C2620 C 0.41704 0.25109 1.10657
 H2621 H 0.42036 0.21211 1.12287
 H2622 H 0.34104 0.24186 1.11195
 H2623 H 0.35893 0.28305 1.09422
 H2624 H 0.43829 0.25331 1.10501
 C2625 C 1.13685 1.10814 0.74211
 C2626 C 1.12023 1.12003 0.72306
 C2627 C 1.09284 1.12105 0.72851
 C2628 C 1.08254 1.11043 0.75189
 C2629 C 1.09928 1.09892 0.77086
 C2630 C 1.12657 1.09803 0.76566
 H2631 H 1.15811 1.10774 0.73966
 H2632 H 1.07897 1.12901 0.71429
 H2633 H 1.06134 1.11093 0.75489
 H2634 H 1.14022 1.09007 0.78011
 C2635 C 1.12037 0.59192 0.22753
 C2636 C 1.11891 0.61925 0.22190
 C2637 C 1.10680 0.63582 0.24084
 C2638 C 1.09701 0.62559 0.26454
 C2639 C 1.09832 0.59835 0.26995
 C2640 C 1.10997 0.58164 0.25102
 H2641 H 1.12855 0.57810 0.21337
 H2642 H 1.10608 0.65705 0.23822
 H2643 H 1.08899 0.63927 0.27893
 H2644 H 1.11077 0.56047 0.25414
 C2645 C 0.59145 1.11600 0.22646
 C2646 C 0.61890 1.11847 0.22273
 C2647 C 0.63600 1.11045 0.24314
 C2648 C 0.62592 1.10020 0.26670
 C2649 C 0.59849 1.09775 0.27046
 C2650 C 0.58135 1.10576 0.25009
 H2651 H 0.57779 1.12172 0.21098
 H2652 H 0.65722 1.11260 0.24110
 H2653 H 0.63961 1.09468 0.28223
 H2654 H 0.56012 1.10384 0.25235
 C2655 C 0.63655 0.61046 0.74354
 C2656 C 0.61953 0.61879 0.72320
 C2657 C 0.59205 0.61660 0.72693
 C2658 C 0.58184 0.60636 0.75051
 C2659 C 0.59889 0.59808 0.77085
 C2660 C 0.62636 0.60023 0.76708
 H2661 H 0.65780 0.61236 0.74146
 H2662 H 0.57846 0.62254 0.71149
 H2663 H 0.56060 0.60464 0.75274
 H2664 H 0.63999 0.59450 0.78258
 C2665 C 0.86304 0.89049 0.74307
 C2666 C 0.88012 0.88208 0.72281
 C2667 C 0.90759 0.88432 0.72659
 C2668 C 0.91773 0.89461 0.75018
 C2669 C 0.90063 0.90289 0.77048
 C2670 C 0.87317 0.90078 0.76663
 H2671 H 0.84180 0.88858 0.74095
 H2672 H 0.92124 0.87833 0.71120
 H2673 H 0.93897 0.89631 0.75245
 H2674 H 0.85950 0.90655 0.78208
 C2675 C 0.86224 0.38975 0.24351
 C2676 C 0.87916 0.38118 0.22320
 C2677 C 0.90666 0.38326 0.22682
 C2678 C 0.91700 0.39355 0.25031
 C2679 C 0.90007 0.40200 0.27068
 C2680 C 0.87257 0.40002 0.26699
 H2681 H 0.84098 0.38799 0.24148
 H2682 H 0.92019 0.37715 0.21137
 H2683 H 0.93826 0.39516 0.25244
 H2684 H 0.85901 0.40592 0.28250
 C2685 C 0.36353 0.89003 0.24305
 C2686 C 0.38047 0.88177 0.22260
 C2687 C 0.40796 0.88418 0.22614
 C2688 C 0.41824 0.89456 0.24964
 C2689 C 0.40125 0.90278 0.27008
 C2690 C 0.37379 0.90043 0.26648
 H2691 H 0.34229 0.88795 0.24115
 H2692 H 0.42151 0.87828 0.21063
 H2693 H 0.43948 0.89641 0.25175
 H2694 H 0.36021 0.90610 0.28206
 C2695 C 0.40761 0.38049 0.72719
 C2696 C 0.38020 0.38122 0.72180
 C2697 C 0.36350 0.39298 0.74087
 C2698 C 0.37369 0.40316 0.76443
 C2699 C 0.40098 0.40247 0.76961
 C2700 C 0.41782 0.39118 0.75058
 H2701 H 0.42153 0.37265 0.71294
 H2702 H 0.34223 0.39315 0.73848
 H2703 H 0.35997 0.41095 0.77891
 H2704 H 0.43902 0.39085 0.75358
 C2705 C 1.09208 0.87922 1.27249
 C2706 C 1.11951 0.88013 1.27775
 C2707 C 1.13608 0.89179 1.25851
 C2708 C 1.12573 0.90184 1.23498
 C2709 C 1.09841 0.90111 1.22998
 C2710 C 1.08171 0.88978 1.24911
 H2711 H 1.07827 0.87138 1.28684
 H2712 H 1.15736 0.89204 1.26077
 H2713 H 1.13935 0.90960 1.22039
 H2714 H 1.06049 0.88938 1.24623
 C2715 C 1.11215 0.36244 0.75544
 C2716 C 1.12033 0.37937 0.77593
 C2717 C 1.11775 0.40685 0.77249
 C2718 C 1.10725 0.41715 0.74907
 C2719 C 1.09906 0.40019 0.72862
 C2720 C 1.10163 0.37273 0.73207
 H2721 H 1.11433 0.34121 0.75728
 H2722 H 1.12354 0.42037 0.78806
 H2723 H 1.10522 0.43838 0.74708
 H2724 H 1.09595 0.35919 0.71646
 C2725 C 0.59207 0.88300 0.77317
 C2726 C 0.61955 0.88080 0.77680
 C2727 C 0.63652 0.88896 0.75635
 C2728 C 0.62626 0.89910 0.73280
 C2729 C 0.59878 0.90134 0.72914
 C2730 C 0.58179 0.89317 0.74959
 H2731 H 0.57852 0.87715 0.78871
 H2732 H 0.65776 0.88705 0.75836
 H2733 H 0.63986 0.90473 0.71723
 H2734 H 0.56054 0.89495 0.74746
 C2735 C 0.63605 0.39183 1.25830
 C2736 C 0.61947 0.38008 1.27746
 C2737 C 0.59207 0.37900 1.27209
 C2738 C 0.58172 0.38950 1.24869
 C2739 C 0.59842 0.40091 1.22961
 C2740 C 0.62573 0.40178 1.23471
 H2741 H 0.65732 0.39223 1.26069
 H2742 H 0.57825 0.37109 1.28640
 H2743 H 0.56051 0.38901 1.24577
 H2744 H 0.63937 0.40961 1.22017
 C2745 C 0.90788 1.12161 1.27163
 C2746 C 0.88048 1.12039 1.27700
 C2747 C 0.86398 1.10850 1.25785
 C2748 C 0.87438 1.09850 1.23430
 C2749 C 0.90170 1.09948 1.22922
 C2750 C 0.91831 1.11107 1.24826
 H2751 H 0.92165 1.12963 1.28592
 H2752 H 0.84271 1.10800 1.26022
 H2753 H 0.86080 1.09053 1.21979
 H2754 H 0.93952 1.11167 1.24533
 C2755 C 0.88362 0.59200 0.77342
 C2756 C 0.88140 0.61948 0.77711
 C2757 C 0.88974 0.63648 0.75675
 C2758 C 0.89998 0.62625 0.73322
 C2759 C 0.90214 0.59878 0.72948
 C2760 C 0.89387 0.58176 0.74986
 H2761 H 0.87767 0.57843 0.78888
 H2762 H 0.88783 0.65772 0.75879
 H2763 H 0.90572 0.63986 0.71770
 H2764 H 0.89560 0.56052 0.74767
 C2765 C 0.39150 1.13599 0.75812
 C2766 C 0.38301 1.11890 0.77832
 C2767 C 0.38492 1.09143 0.77437
 C2768 C 0.39496 1.08130 0.75066
 C2769 C 0.40330 1.09843 0.73041
 C2770 C 0.40150 1.12589 0.73444
 H2771 H 0.38981 1.15723 0.76037
 H2772 H 0.37881 1.07778 0.78971
 H2773 H 0.39642 1.06007 0.74825
 H2774 H 0.40729 1.13959 0.71903
 C2775 C 0.38123 0.59218 1.27317
 C2776 C 0.38242 0.61951 1.27883
 C2777 C 0.39446 0.63620 1.25995
 C2778 C 0.40434 0.62608 1.23622
 C2779 C 0.40314 0.59886 1.23073
 C2780 C 0.39166 0.58202 1.24964
 H2781 H 0.37317 0.57826 1.28729
 H2782 H 0.39504 0.65743 1.26261
 H2783 H 0.41228 0.63984 1.22187
 H2784 H 0.39098 0.56086 1.24646
 C2785 C 1.12149 1.27134 0.90784
 C2786 C 1.12038 1.27674 0.88045
 C2787 C 1.10856 1.25760 0.86389
 C2788 C 1.09856 1.23402 0.87422
 C2789 C 1.09948 1.22889 0.90151
 C2790 C 1.11098 1.24792 0.91819
 H2791 H 1.12944 1.28562 0.92166
 H2792 H 1.10812 1.26000 0.84263
 H2793 H 1.09065 1.21952 0.86059
 H2794 H 1.11153 1.24495 0.93939
 C2795 C 1.13676 0.75790 0.39252
 C2796 C 1.12008 0.77707 0.38091
 C2797 C 1.09267 0.77166 0.38008
 C2798 C 1.08244 0.74819 0.39057
 C2799 C 1.09925 0.72908 0.40176
 C2800 C 1.12654 0.73426 0.40250
 H2801 H 1.15803 0.76029 0.39275
 H2802 H 1.07876 0.78596 0.37233
 H2803 H 1.06123 0.74520 0.39020
 H2804 H 1.14025 0.71973 0.41020
 C2805 C 0.63609 1.25676 0.38993
 C2806 C 0.61896 1.27714 0.38190
 C2807 C 0.59151 1.27336 0.38434
 C2808 C 0.58145 1.24970 0.39458
 C2809 C 0.59862 1.22934 0.40258
 C2810 C 0.62604 1.23316 0.40016
 H2811 H 0.65731 1.25884 0.38780
 H2812 H 0.57784 1.28881 0.37860
 H2813 H 0.56022 1.24741 0.39648
 H2814 H 0.63976 1.21765 0.40566
 C2815 C 0.63673 0.75638 0.88958
 C2816 C 0.61971 0.77673 0.88127
 C2817 C 0.59223 0.77301 0.88347
 C2818 C 0.58202 0.74943 0.89372
 C2819 C 0.59907 0.72907 0.90199
 C2820 C 0.62653 0.73283 0.89980
 H2821 H 0.65797 0.75845 0.88768
 H2822 H 0.57864 0.78846 0.87753
 H2823 H 0.56078 0.74722 0.89545
 H2824 H 0.64017 0.71733 0.90552
 C2825 C 0.88019 1.27229 1.09206
 C2826 C 0.88107 1.27778 1.11944
 C2827 C 0.89306 1.25886 1.13612
 C2828 C 0.90330 1.23531 1.12593
 C2829 C 0.90247 1.23003 1.09866
 C2830 C 0.89096 1.24894 1.08185
 H2831 H 0.87218 1.28644 1.07816
 H2832 H 0.89339 1.26136 1.15737
 H2833 H 0.91125 1.22092 1.13964
 H2834 H 0.89053 1.24590 1.06066
 C2835 C 0.89034 0.75658 0.63660
 C2836 C 0.88203 0.77688 0.61953
 C2837 C 0.88436 0.77314 0.59207
 C2838 C 0.89468 0.74957 0.58192
 C2839 C 0.90287 0.72923 0.59901
 C2840 C 0.90063 0.73303 0.62646
 H2841 H 0.88835 0.75868 0.65782
 H2842 H 0.87844 0.78857 0.57844
 H2843 H 0.89647 0.74733 0.56069
 H2844 H 0.90632 0.71755 0.64012
 C2845 C 0.40831 1.27189 0.62059
 C2846 C 0.38088 1.27713 0.61962
 C2847 C 0.36436 1.25779 0.60804
 C2848 C 0.37476 1.23424 0.59808
 C2849 C 0.40209 1.22929 0.59883
 C2850 C 0.41874 1.24847 0.61014
 H2851 H 0.42210 1.28629 0.62838
 H2852 H 0.34307 1.26002 0.60776
 H2853 H 0.36117 1.21960 0.59034
 H2854 H 0.43996 1.24561 0.61057
 C2855 C 0.36333 0.75754 1.10833
 C2856 C 0.37980 0.77677 1.12015
 C2857 C 0.40723 0.77151 1.12123
 C2858 C 0.41770 0.74817 1.11067
 C2859 C 0.40111 0.72906 1.09916
 C2860 C 0.37378 0.73403 1.09829
 H2861 H 0.34205 0.75983 1.10792
 H2862 H 0.42098 0.78586 1.12917
 H2863 H 0.43892 0.74533 1.11118
 H2864 H 0.36022 0.71946 1.09038
 C2865 C 0.90754 0.72710 0.88387
 C2866 C 0.88006 0.72331 0.88174
 C2867 C 0.86302 0.74365 0.89005
 C2868 C 0.87320 0.76727 0.90014
 C2869 C 0.90067 0.77111 0.90217
 C2870 C 0.91773 0.75075 0.89397
 H2871 H 0.92116 0.71165 0.87794
 H2872 H 0.84178 0.74152 0.88822
 H2873 H 0.85956 0.78277 0.90585
 H2874 H 0.93898 0.75302 0.89560
 C2875 C 0.86374 0.24348 0.38982
 C2876 C 0.88081 0.22309 0.38168
 C2877 C 0.90828 0.22685 0.38398
 C2878 C 0.91842 0.25052 0.39412
 C2879 C 0.90131 0.27090 0.40220
 C2880 C 0.87387 0.26709 0.39997
 H2881 H 0.84251 0.24141 0.38782
 H2882 H 0.92191 0.21139 0.37816
 H2883 H 0.93966 0.25279 0.39588
 H2884 H 0.86020 0.28261 0.40555
 C2885 C 0.40653 0.72905 0.37970
 C2886 C 0.37918 0.72344 0.38088
 C2887 C 0.36253 0.74232 0.39299
 C2888 C 0.37273 0.76599 0.40297
 C2889 C 0.39998 0.77140 0.40179
 C2890 C 0.41675 0.75249 0.39022
 H2891 H 0.42044 0.71491 0.37164
 H2892 H 0.34130 0.73966 0.39361
 H2893 H 0.35904 0.78035 0.41103
 H2894 H 0.43793 0.75559 0.38957
 C2895 C 0.36333 0.24150 0.89364
 C2896 C 0.38009 0.22247 0.88190
 C2897 C 0.40746 0.22807 0.88093
 C2898 C 0.41757 0.25165 0.89125
 C2899 C 0.40068 0.27070 0.90242
 C2900 C 0.37343 0.26528 0.90344
 H2901 H 0.34209 0.23889 0.89406
 H2902 H 0.42144 0.21384 0.87316
 H2903 H 0.43875 0.25478 0.89073
 H2904 H 0.35966 0.27973 0.91120
 C2905 C 1.13651 0.74217 1.10758
 C2906 C 1.12012 0.72315 1.11981
 C2907 C 1.09271 0.72845 1.12108
 C2908 C 1.08218 0.75168 1.11037
 C2909 C 1.09869 0.77066 1.09856
 C2910 C 1.12601 0.76561 1.09743
 H2911 H 1.15778 0.73980 1.10696
 H2912 H 1.07900 0.71421 1.12929
 H2913 H 1.06096 0.75454 1.11105
 H2914 H 1.13952 0.78007 1.08925
 C2915 C 1.13538 0.24372 0.61058
 C2916 C 1.11853 0.22318 0.61881
 C2917 C 1.09102 0.22666 0.61655
 C2918 C 1.08062 0.25015 0.60625
 C2919 C 1.09753 0.27063 0.59797
 C2920 C 1.12501 0.26714 0.60027
 H2921 H 1.15663 0.24188 0.61257
 H2922 H 1.07754 0.21108 0.62245
 H2923 H 1.05937 0.25219 0.60446
 H2924 H 1.13852 0.28276 0.59458
 C2925 C 0.59135 0.72696 0.61722
 C2926 C 0.61886 0.72336 0.61924
 C2927 C 0.63574 0.74380 0.61087
 C2928 C 0.62539 0.76728 0.60067
 C2929 C 0.59790 0.77089 0.59860
 C2930 C 0.58098 0.75049 0.60701
 H2931 H 0.57786 0.71144 0.62323
 H2932 H 0.65701 0.74183 0.61265
 H2933 H 0.63893 0.78283 0.59485
 H2934 H 0.55972 0.75261 0.60538
 C2935 C 0.59178 0.22785 1.12057
 C2936 C 0.61921 0.22257 1.11945
 C2937 C 0.63568 0.24174 1.10753
 C2938 C 0.62523 0.26524 1.09749
 C2939 C 0.59792 0.27027 1.09845
 C2940 C 0.58132 0.25118 1.11000
 H2941 H 0.57803 0.21354 1.12858
 H2942 H 0.65695 0.23942 1.10708
 H2943 H 0.63880 0.27979 1.08954
 H2944 H 0.56010 0.25405 1.11057
 C2945 C 1.27286 1.11635 0.90763
 C2946 C 1.27658 1.11861 0.88018
 C2947 C 1.25638 1.11001 0.86312
 C2948 C 1.23292 1.09952 0.87329
 C2949 C 1.22914 1.09732 0.90075
 C2950 C 1.24940 1.10579 0.91781
 H2951 H 1.28823 1.12248 0.92124
 H2952 H 1.25850 1.11191 0.84189
 H2953 H 1.21750 1.09364 0.85963
 H2954 H 1.24721 1.10402 0.93905
 C2955 C 1.25703 0.60931 0.36354
 C2956 C 1.27707 0.61823 0.38061
 C2957 C 1.27310 0.61646 0.40807
 C2958 C 1.24956 0.60607 0.41823
 C2959 C 1.22944 0.59728 0.40115
 C2960 C 1.23348 0.59900 0.37368
 H2961 H 1.25933 0.61085 0.34230
 H2962 H 1.28833 0.62289 0.42170
 H2963 H 1.24718 0.60468 0.43948
 H2964 H 1.21819 0.59289 0.35999
 C2965 C 0.75550 1.11129 0.36293
 C2966 C 0.77604 1.11944 0.37981
 C2967 C 0.77267 1.11682 0.40729
 C2968 C 0.74925 1.10635 0.41765
 C2969 C 0.72872 1.09824 0.40075
 C2970 C 0.73212 1.10080 0.37328
 H2971 H 0.75730 1.11349 0.34170
 H2972 H 0.78828 1.12260 0.42078
 H2973 H 0.74730 1.10432 0.43889
 H2974 H 0.71647 1.09518 0.35978
 C2975 C 0.77291 0.61602 0.90827
 C2976 C 0.77659 0.61826 0.88080
 C2977 C 0.75623 0.60993 0.86380
 C2978 C 0.73270 0.59968 0.87402
 C2979 C 0.72896 0.59749 0.90149
 C2980 C 0.74935 0.60574 0.91851
 H2981 H 0.78838 0.62197 0.92185
 H2982 H 0.75827 0.61186 0.84257
 H2983 H 0.71718 0.59396 0.86041
 H2984 H 0.74716 0.60400 0.93975
 C2985 C 1.25446 0.86226 1.11171
 C2986 C 1.27498 0.87920 1.11977
 C2987 C 1.27150 0.90668 1.11722
 C2988 C 1.24799 0.91697 1.10691
 C2989 C 1.22748 0.90001 1.09888
 C2990 C 1.23099 0.87254 1.10137
 H2991 H 1.25634 0.84103 1.11386
 H2992 H 1.28710 0.92022 1.12291
 H2993 H 1.24597 0.93820 1.10492
 H2994 H 1.21535 0.85899 1.09579
 C2995 C 1.25465 0.36163 0.61150
 C2996 C 1.27512 0.37850 0.61985
 C2997 C 1.27173 0.40599 0.61739
 C2998 C 1.24836 0.41638 0.60689
 C2999 C 1.22787 0.39950 0.59862
 C3000 C 1.23129 0.37201 0.60101
 H3001 H 1.25651 0.34038 0.61354
 H3002 H 1.28730 0.41946 0.62330
 H3003 H 1.24641 0.43763 0.60498
 H3004 H 1.21568 0.35852 0.59525
 C3005 C 0.75643 0.86294 0.60954
 C3006 C 0.77674 0.88005 0.61778
 C3007 C 0.77296 0.90750 0.61546
 C3008 C 0.74932 0.91761 0.60526
 C3009 C 0.72896 0.90049 0.59717
 C3010 C 0.73282 0.87304 0.59937
 H3011 H 0.75856 0.84172 0.61152
 H3012 H 0.78839 0.92116 0.62132
 H3013 H 0.74705 0.93884 0.60349
 H3014 H 0.71732 0.85935 0.59375
 C3015 C 0.77255 0.40805 1.11545
 C3016 C 0.77660 0.38060 1.11733
 C3017 C 0.75641 0.36343 1.10893
 C3018 C 0.73265 0.37347 1.09903
 C3019 C 0.72852 0.40091 1.09724
 C3020 C 0.74877 0.41809 1.10549
 H3021 H 0.78787 0.42175 1.12148
 H3022 H 0.75874 0.34220 1.11059
 H3023 H 0.71726 0.35970 1.09330
 H3024 H 0.74631 0.43932 1.10403
 C3025 C 0.74470 1.13720 1.11185
 C3026 C 0.72415 1.12025 1.11980
 C3027 C 0.72772 1.09276 1.11744
 C3028 C 0.75134 1.08247 1.10738
 C3029 C 0.77187 1.09944 1.09943
 C3030 C 0.76828 1.12691 1.10178
 H3031 H 0.74275 1.15843 1.11389
 H3032 H 0.71210 1.07922 1.12309
 H3033 H 0.75343 1.06123 1.10550
 H3034 H 0.78393 1.14047 1.09626
 C3035 C 0.74375 0.63654 0.61042
 C3036 C 0.72337 0.61951 0.61861
 C3037 C 0.72711 0.59204 0.61642
 C3038 C 0.75076 0.58184 0.60630
 C3039 C 0.77117 0.59891 0.59817
 C3040 C 0.76737 0.62637 0.60032
 H3041 H 0.74166 0.65778 0.61232
 H3042 H 0.71163 0.57844 0.62228
 H3043 H 0.75300 0.56061 0.60458
 H3044 H 0.78290 0.64001 0.59470
 C3045 C 0.22811 1.09330 0.61799
 C3046 C 0.22440 1.12079 0.61995
 C3047 C 0.24468 1.13774 0.61134
 C3048 C 0.26818 1.12744 0.60107
 C3049 C 0.27192 1.09996 0.59910
 C3050 C 0.25161 1.08299 0.60766
 H3051 H 0.21268 1.07976 0.62416
 H3052 H 0.24258 1.15899 0.61303
 H3053 H 0.28364 1.14103 0.59512
 H3054 H 0.25378 1.06174 0.60609
 C3055 C 0.24451 0.63672 1.11175
 C3056 C 0.22392 0.61974 1.11957
 C3057 C 0.22744 0.59227 1.11694
 C3058 C 0.25104 0.58205 1.10672
 C3059 C 0.27158 0.59907 1.09886
 C3060 C 0.26804 0.62651 1.10149
 H3061 H 0.24263 0.65794 1.11400
 H3062 H 0.21182 0.57870 1.12249
 H3063 H 0.25312 0.56082 1.10466
 H3064 H 0.28370 0.64010 1.09607
 C3065 C 0.72711 0.90874 0.88333
 C3066 C 0.72354 0.88124 0.88121
 C3067 C 0.74401 0.86436 0.88949
 C3068 C 0.76751 0.87471 0.89966
 C3069 C 0.77110 0.90220 0.90181
 C3070 C 0.75065 0.91911 0.89353
 H3071 H 0.71156 0.92222 0.87739
 H3072 H 0.74206 0.84310 0.88763
 H3073 H 0.78310 0.86118 0.90538
 H3074 H 0.75274 0.94037 0.89522
 C3075 C 0.74426 0.36359 0.38870
 C3076 C 0.72386 0.38043 0.38021
 C3077 C 0.72741 0.40794 0.38218
 C3078 C 0.75087 0.41837 0.39247
 C3079 C 0.77127 0.40150 0.40098
 C3080 C 0.76771 0.37400 0.39894
 H3081 H 0.74229 0.34232 0.38698
 H3082 H 0.71189 0.42138 0.37608
 H3083 H 0.75293 0.43963 0.39409
 H3084 H 0.78326 0.36050 0.40483
 C3085 C 0.24569 0.86271 0.38762
 C3086 C 0.22508 0.87933 0.37917
 C3087 C 0.22828 0.90688 0.38132
 C3088 C 0.25158 0.91757 0.39169
 C3089 C 0.27217 0.90093 0.40017
 C3090 C 0.26897 0.87339 0.39798
 H3091 H 0.24401 0.84144 0.38578
 H3092 H 0.21259 0.92017 0.37530
 H3093 H 0.25336 0.93885 0.39342
 H3094 H 0.28468 0.86008 0.40389
 C3095 C 0.22693 0.40872 0.88323
 C3096 C 0.22320 0.38121 0.88151
 C3097 C 0.24359 0.36434 0.89001
 C3098 C 0.26717 0.37471 0.89996
 C3099 C 0.27094 0.40221 0.90170
 C3100 C 0.25056 0.41911 0.89323
 H3101 H 0.21146 0.42220 0.87708
 H3102 H 0.24152 0.34308 0.88845
 H3103 H 0.28270 0.36116 0.90583
 H3104 H 0.25277 0.44038 0.89461
   
