data_POSCAR
  _audit_creation_date              2014-09-24
  _audit_creation_method            'ToBaCCo'
  _symmetry_space_group_name_H-M    'P1'
  _symmetry_Int_Tables_number       1
  _symmetry_cell_setting            triclinic
  loop_
  _symmetry_equiv_pos_as_xyz
 x,y,z
_cell_length_a 105.7773
_cell_length_b 105.8634
_cell_length_c 106.0085
_cell_angle_alpha 89.959000
_cell_angle_beta 89.985400
_cell_angle_gamma 89.948900
loop_
  _atom_site_label
  _atom_site_type_symbol
  _atom_site_fract_x
  _atom_site_fract_y
  _atom_site_fract_z
N1 N 0.35198 0.31692 0.32578
 N2 N 0.35212 0.32600 0.31731
 C3 C 0.36247 0.32468 0.31001
 C4 C 0.36909 0.31421 0.31415
 C5 C 0.36216 0.30948 0.32413
 H6 H 0.36510 0.33091 0.30237
 H7 H 0.36449 0.30137 0.32989
 Cu8 Cu 0.33891 0.33879 0.31678
 Cu9 Cu 0.33915 0.31585 0.33886
 Cu10 Cu 0.31581 0.33880 0.33867
 N11 N 0.32595 0.35184 0.31716
 N12 N 0.31681 0.35160 0.32556
 C13 C 0.30930 0.36173 0.32388
 C14 C 0.31404 0.36872 0.31396
 C15 C 0.32459 0.36219 0.30988
 H16 H 0.30114 0.36398 0.32961
 H17 H 0.33089 0.36491 0.30231
 N18 N 0.31648 0.32512 0.35124
 N19 N 0.32541 0.31641 0.35136
 C20 C 0.32387 0.30905 0.36162
 C21 C 0.31351 0.31338 0.36826
 C22 C 0.30902 0.32353 0.36142
 H23 H 0.33007 0.30139 0.36434
 H24 H 0.30118 0.32958 0.36396
 H25 H 0.32504 0.32475 0.32871
 H26 H 0.33501 0.33496 0.33911
 N27 N 0.35194 0.81698 -0.17462
 N28 N 0.35197 0.82597 -0.18319
 C29 C 0.36230 0.82466 -0.19051
 C30 C 0.36906 0.81431 -0.18626
 C31 C 0.36219 0.80962 -0.17621
 H32 H 0.36488 0.83092 -0.19815
 H33 H 0.36464 0.80164 -0.17030
 Cu34 Cu 0.33900 0.83899 -0.18339
 Cu35 Cu 0.33918 0.81601 -0.16144
 Cu36 Cu 0.31586 0.83904 -0.16158
 N37 N 0.32586 0.85185 -0.18331
 N38 N 0.31679 0.85174 -0.17482
 C39 C 0.30938 0.86195 -0.17644
 C40 C 0.31414 0.86889 -0.18642
 C41 C 0.32456 0.86220 -0.19061
 H42 H 0.30137 0.86435 -0.17056
 H43 H 0.33088 0.86485 -0.19817
 N44 N 0.31660 0.82542 -0.14895
 N45 N 0.32548 0.81665 -0.14889
 C46 C 0.32390 0.80924 -0.13868
 C47 C 0.31358 0.81359 -0.13201
 C48 C 0.30914 0.82382 -0.13877
 H49 H 0.33004 0.80150 -0.13604
 H50 H 0.30131 0.82987 -0.13622
 H51 H 0.32512 0.82507 -0.17142
 H52 H 0.33509 0.83521 -0.16100
 N53 N 0.85163 0.31727 -0.17443
 N54 N 0.85169 0.32629 -0.18296
 C55 C 0.86202 0.32497 -0.19028
 C56 C 0.86872 0.31457 -0.18611
 C57 C 0.86185 0.30987 -0.17608
 H58 H 0.86461 0.33120 -0.19795
 H59 H 0.86426 0.30183 -0.17025
 Cu60 Cu 0.83852 0.33911 -0.18347
 Cu61 Cu 0.83887 0.31627 -0.16127
 Cu62 Cu 0.81566 0.33939 -0.16129
 N63 N 0.82567 0.35227 -0.18292
 N64 N 0.81664 0.35219 -0.17440
 C65 C 0.80925 0.36242 -0.17601
 C66 C 0.81397 0.36933 -0.18602
 C67 C 0.82437 0.36261 -0.19022
 H68 H 0.80121 0.36481 -0.17016
 H69 H 0.83062 0.36519 -0.19787
 N70 N 0.81633 0.32569 -0.14874
 N71 N 0.82519 0.31691 -0.14870
 C72 C 0.82362 0.30950 -0.13847
 C73 C 0.81331 0.31388 -0.13178
 C74 C 0.80888 0.32410 -0.13856
 H75 H 0.82975 0.30176 -0.13583
 H76 H 0.80106 0.33017 -0.13600
 H77 H 0.82472 0.32527 -0.17122
 H78 H 0.83488 0.33546 -0.16101
 N79 N 0.85154 0.81713 0.32558
 N80 N 0.85167 0.82622 0.31711
 C81 C 0.86194 0.82484 0.30973
 C82 C 0.86855 0.81435 0.31382
 C83 C 0.86169 0.80966 0.32386
 H84 H 0.86460 0.83112 0.30213
 H85 H 0.86407 0.80160 0.32966
 Cu86 Cu 0.83869 0.83923 0.31710
 Cu87 Cu 0.83882 0.81615 0.33882
 Cu88 Cu 0.81551 0.83925 0.33870
 N89 N 0.82563 0.85216 0.31707
 N90 N 0.81648 0.85197 0.32547
 C91 C 0.80897 0.86208 0.32374
 C92 C 0.81374 0.86903 0.31377
 C93 C 0.82429 0.86246 0.30972
 H94 H 0.80086 0.86439 0.32951
 H95 H 0.83063 0.86515 0.30218
 N96 N 0.81624 0.82561 0.35133
 N97 N 0.82514 0.81685 0.35141
 C98 C 0.82364 0.80954 0.36172
 C99 C 0.81334 0.81394 0.36840
 C100 C 0.80886 0.82409 0.36156
 H101 H 0.82982 0.80187 0.36443
 H102 H 0.80107 0.83019 0.36414
 H103 H 0.82475 0.82520 0.32885
 H104 H 0.83467 0.83525 0.33939
 N105 N 0.64838 0.68323 0.32562
 N106 N 0.64818 0.67410 0.31722
 C107 C 0.63784 0.67544 0.30991
 C108 C 0.63125 0.68594 0.31401
 C109 C 0.63821 0.69067 0.32395
 H110 H 0.63515 0.66914 0.30235
 H111 H 0.63591 0.69880 0.32969
 Cu112 Cu 0.66125 0.66116 0.31696
 Cu113 Cu 0.66116 0.68423 0.33876
 Cu114 Cu 0.68423 0.66094 0.33892
 N115 N 0.67415 0.64806 0.31731
 N116 N 0.68323 0.64818 0.32578
 C117 C 0.69062 0.63796 0.32415
 C118 C 0.68589 0.63107 0.31416
 C119 C 0.67546 0.63774 0.30999
 H120 H 0.69870 0.63559 0.32993
 H121 H 0.66920 0.63511 0.30238
 N122 N 0.68359 0.67464 0.35145
 N123 N 0.67483 0.68354 0.35134
 C124 C 0.67641 0.69100 0.36150
 C125 C 0.68659 0.68655 0.36833
 C126 C 0.69096 0.67621 0.36170
 H127 H 0.67035 0.69883 0.36403
 H128 H 0.69866 0.67006 0.36440
 H129 H 0.67524 0.67502 0.32891
 H130 H 0.66507 0.66504 0.33934
 N131 N 0.64860 0.18294 -0.17448
 N132 N 0.64842 0.17388 -0.18296
 C133 C 0.63804 0.17524 -0.19020
 C134 C 0.63144 0.18571 -0.18602
 C135 C 0.63842 0.19039 -0.17607
 H136 H 0.63527 0.16892 -0.19771
 H137 H 0.63606 0.19842 -0.17021
 Cu138 Cu 0.66125 0.16067 -0.18319
 Cu139 Cu 0.66134 0.18382 -0.16135
 Cu140 Cu 0.68434 0.16061 -0.16118
 N141 N 0.67439 0.14778 -0.18285
 N142 N 0.68341 0.14788 -0.17432
 C143 C 0.69081 0.13766 -0.17588
 C144 C 0.68610 0.13072 -0.18587
 C145 C 0.67571 0.13742 -0.19011
 H146 H 0.69881 0.13527 -0.16997
 H147 H 0.66944 0.13477 -0.19771
 N148 N 0.68371 0.17426 -0.14865
 N149 N 0.67496 0.18316 -0.14877
 C150 C 0.67654 0.19064 -0.13862
 C151 C 0.68673 0.18621 -0.13180
 C152 C 0.69108 0.17584 -0.13840
 H153 H 0.67048 0.19847 -0.13611
 H154 H 0.69878 0.16969 -0.13570
 H155 H 0.67524 0.17446 -0.17144
 H156 H 0.66505 0.16446 -0.16090
 N157 N 0.14854 0.68334 -0.17451
 N158 N 0.14867 0.67452 -0.18324
 C159 C 0.13837 0.67585 -0.19060
 C160 C 0.13148 0.68604 -0.18623
 C161 C 0.13821 0.69060 -0.17606
 H162 H 0.13592 0.66973 -0.19839
 H163 H 0.13562 0.69845 -0.17006
 Cu164 Cu 0.16189 0.66176 -0.18389
 Cu165 Cu 0.16114 0.68414 -0.16123
 Cu166 Cu 0.18400 0.66074 -0.16091
 N167 N 0.17449 0.64840 -0.18301
 N168 N 0.18313 0.64806 -0.17410
 C169 C 0.19027 0.63763 -0.17556
 C170 C 0.18581 0.63107 -0.18590
 C171 C 0.17582 0.63816 -0.19043
 H172 H 0.19799 0.63490 -0.16946
 H173 H 0.16983 0.63588 -0.19837
 N174 N 0.18332 0.67437 -0.14832
 N175 N 0.17463 0.68333 -0.14849
 C176 C 0.17620 0.69078 -0.13832
 C177 C 0.18631 0.68626 -0.13144
 C178 C 0.19064 0.67589 -0.13803
 H179 H 0.17020 0.69867 -0.13585
 H180 H 0.19832 0.66971 -0.13531
 H181 H 0.17550 0.67515 -0.17097
 H182 H 0.16483 0.66489 -0.16129
 N183 N 0.14845 0.18335 0.32551
 N184 N 0.14830 0.17426 0.31705
 C185 C 0.13797 0.17562 0.30973
 C186 C 0.13134 0.18607 0.31389
 C187 C 0.13827 0.19078 0.32387
 H188 H 0.13526 0.16932 0.30218
 H189 H 0.13585 0.19877 0.32975
 Cu190 Cu 0.16119 0.16117 0.31709
 Cu191 Cu 0.16113 0.18425 0.33879
 Cu192 Cu 0.18421 0.16096 0.33889
 N193 N 0.17423 0.14822 0.31709
 N194 N 0.18328 0.14831 0.32560
 C195 C 0.19068 0.13811 0.32397
 C196 C 0.18599 0.13124 0.31396
 C197 C 0.17558 0.13792 0.30975
 H198 H 0.19865 0.13565 0.32988
 H199 H 0.16931 0.13527 0.30215
 N200 N 0.18349 0.17456 0.35153
 N201 N 0.17474 0.18347 0.35144
 C202 C 0.17634 0.19091 0.36162
 C203 C 0.18652 0.18642 0.36843
 C204 C 0.19087 0.17609 0.36177
 H205 H 0.17031 0.19876 0.36415
 H206 H 0.19860 0.16995 0.36442
 H207 H 0.17511 0.17496 0.32897
 H208 H 0.16499 0.16501 0.33946
 N209 N 0.64827 0.31690 0.67408
 N210 N 0.64809 0.32599 0.68252
 C211 C 0.63772 0.32467 0.68979
 C212 C 0.63114 0.31419 0.68568
 C213 C 0.63811 0.30944 0.67574
 H214 H 0.63502 0.33096 0.69737
 H215 H 0.63584 0.30130 0.67002
 Cu216 Cu 0.66118 0.33888 0.68298
 Cu217 Cu 0.66106 0.31591 0.66098
 Cu218 Cu 0.68407 0.33917 0.66084
 N219 N 0.67399 0.35204 0.68246
 N220 N 0.68303 0.35195 0.67395
 C221 C 0.69045 0.36213 0.67560
 C222 C 0.68574 0.36902 0.68561
 C223 C 0.67531 0.36237 0.68978
 H224 H 0.69856 0.36446 0.66984
 H225 H 0.66908 0.36498 0.69743
 N226 N 0.68348 0.32547 0.64832
 N227 N 0.67474 0.31658 0.64842
 C228 C 0.67633 0.30913 0.63824
 C229 C 0.68651 0.31358 0.63143
 C230 C 0.69085 0.32392 0.63806
 H231 H 0.67026 0.30132 0.63570
 H232 H 0.69854 0.33008 0.63536
 H233 H 0.67516 0.32503 0.67098
 H234 H 0.66491 0.33509 0.66065
 N235 N 0.64782 0.81704 1.17380
 N236 N 0.64793 0.82591 1.18248
 C237 C 0.63772 0.82454 1.18994
 C238 C 0.63089 0.81428 1.18568
 C239 C 0.63756 0.80971 1.17545
 H240 H 0.63525 0.83067 1.19771
 H241 H 0.63499 0.80182 1.16951
 Cu242 Cu 0.66109 0.83872 1.18265
 Cu243 Cu 0.66054 0.81606 1.16055
 Cu244 Cu 0.68416 0.83883 1.16099
 N245 N 0.67422 0.85156 1.18282
 N246 N 0.68332 0.85140 1.17436
 C247 C 0.69084 0.86149 1.17610
 C248 C 0.68617 0.86836 1.18614
 C249 C 0.67563 0.86181 1.19021
 H250 H 0.69888 0.86386 1.17027
 H251 H 0.66931 0.86453 1.19776
 N252 N 0.68328 0.82536 1.14822
 N253 N 0.67424 0.81676 1.14797
 C254 C 0.67571 0.80955 1.13760
 C255 C 0.68615 0.81384 1.13107
 C256 C 0.69073 0.82383 1.13804
 H257 H 0.66944 0.80201 1.13477
 H258 H 0.69866 0.82980 1.13561
 H259 H 0.67476 0.82471 1.17059
 H260 H 0.66492 0.83509 1.16027
 N261 N 0.14846 0.31691 1.17407
 N262 N 0.14828 0.32600 1.18251
 C263 C 0.13798 0.32463 1.18986
 C264 C 0.13141 0.31413 1.18579
 C265 C 0.13832 0.30942 1.17579
 H266 H 0.13533 0.33090 1.19746
 H267 H 0.13598 0.30133 1.17002
 Cu268 Cu 0.16132 0.33896 1.18293
 Cu269 Cu 0.16117 0.31600 1.16088
 Cu270 Cu 0.18395 0.33948 1.16051
 N271 N 0.17400 0.35225 1.18221
 N272 N 0.18294 0.35228 1.17359
 C273 C 0.19028 0.36254 1.17519
 C274 C 0.18566 0.36930 1.18533
 C275 C 0.17534 0.36252 1.18958
 H276 H 0.19825 0.36501 1.16929
 H277 H 0.16921 0.36500 1.19735
 N278 N 0.18339 0.32575 1.14801
 N279 N 0.17476 0.31676 1.14821
 C280 C 0.17635 0.30929 1.13806
 C281 C 0.18642 0.31384 1.13114
 C282 C 0.19068 0.32425 1.13769
 H283 H 0.17037 0.30139 1.13559
 H284 H 0.19828 0.33049 1.13490
 H285 H 0.17528 0.32522 1.17071
 H286 H 0.16483 0.33518 1.16052
 N287 N 0.14834 0.81679 0.67412
 N288 N 0.14836 0.82575 0.68271
 C289 C 0.13818 0.82433 0.69020
 C290 C 0.13146 0.81395 0.68605
 C291 C 0.13817 0.80936 0.67586
 H292 H 0.13562 0.83053 0.69789
 H293 H 0.13567 0.80140 0.66998
 Cu294 Cu 0.16131 0.83877 0.68264
 Cu295 Cu 0.16095 0.81592 0.66076
 Cu296 Cu 0.18404 0.83925 0.66061
 N297 N 0.17422 0.85182 0.68257
 N298 N 0.18315 0.85188 0.67392
 C299 C 0.19056 0.86206 0.67563
 C300 C 0.18602 0.86873 0.68586
 C301 C 0.17565 0.86199 0.69005
 H302 H 0.19851 0.86457 0.66972
 H303 H 0.16949 0.86450 0.69780
 N304 N 0.18326 0.82566 0.64795
 N305 N 0.17451 0.81678 0.64804
 C306 C 0.17599 0.80944 0.63777
 C307 C 0.18612 0.81395 0.63092
 C308 C 0.19054 0.82421 0.63762
 H309 H 0.16991 0.80166 0.63520
 H310 H 0.19822 0.83038 0.63492
 H311 H 0.17518 0.82499 0.67052
 H312 H 0.16495 0.83504 0.66026
 N313 N 0.35192 0.68300 0.67395
 N314 N 0.35204 0.67395 0.68246
 C315 C 0.36239 0.67525 0.68974
 C316 C 0.36902 0.68570 0.68557
 C317 C 0.36210 0.69042 0.67559
 H318 H 0.36504 0.66901 0.69737
 H319 H 0.36439 0.69856 0.66985
 Cu320 Cu 0.33888 0.66113 0.68297
 Cu321 Cu 0.33908 0.68404 0.66089
 Cu322 Cu 0.31581 0.66105 0.66106
 N323 N 0.32598 0.64805 0.68257
 N324 N 0.31685 0.64824 0.67415
 C325 C 0.30941 0.63808 0.67583
 C326 C 0.31420 0.63110 0.68574
 C327 C 0.32471 0.63767 0.68982
 H328 H 0.30123 0.63582 0.67013
 H329 H 0.33104 0.63497 0.69737
 N330 N 0.31644 0.67474 0.64850
 N331 N 0.32534 0.68347 0.64840
 C332 C 0.32377 0.69085 0.63815
 C333 C 0.31342 0.68652 0.63152
 C334 C 0.30897 0.67635 0.63834
 H335 H 0.32994 0.69853 0.63544
 H336 H 0.30115 0.67029 0.63579
 H337 H 0.32496 0.67513 0.67105
 H338 H 0.33499 0.66492 0.66067
 N339 N 0.35219 0.18301 1.17375
 N340 N 0.35212 0.17409 1.18239
 C341 C 0.36231 0.17548 1.18989
 C342 C 0.36909 0.18581 1.18566
 C343 C 0.36241 0.19038 1.17544
 H344 H 0.36480 0.16933 1.19767
 H345 H 0.36493 0.19832 1.16953
 Cu346 Cu 0.33902 0.16124 1.18252
 Cu347 Cu 0.33950 0.18400 1.16049
 Cu348 Cu 0.31593 0.16115 1.16087
 N349 N 0.32594 0.14837 1.18264
 N350 N 0.31681 0.14854 1.17422
 C351 C 0.30930 0.13844 1.17601
 C352 C 0.31401 0.13157 1.18604
 C353 C 0.32456 0.13812 1.19007
 H354 H 0.30122 0.13609 1.17023
 H355 H 0.33089 0.13543 1.19763
 N356 N 0.31681 0.17467 1.14813
 N357 N 0.32584 0.18328 1.14790
 C358 C 0.32438 0.19052 1.13755
 C359 C 0.31396 0.18625 1.13099
 C360 C 0.30936 0.17623 1.13795
 H361 H 0.33064 0.19810 1.13476
 H362 H 0.30143 0.17027 1.13552
 H363 H 0.32526 0.17528 1.17050
 H364 H 0.33511 0.16498 1.16016
 N365 N 0.85146 0.68332 1.17434
 N366 N 0.85158 0.67425 1.18284
 C367 C 0.86187 0.67560 1.19019
 C368 C 0.86850 0.68606 1.18606
 C369 C 0.86162 0.69076 1.17603
 H370 H 0.86454 0.66932 1.19779
 H371 H 0.86405 0.69877 1.17018
 Cu372 Cu 0.83869 0.66117 1.18273
 Cu373 Cu 0.83882 0.68421 1.16102
 Cu374 Cu 0.81590 0.66077 1.16076
 N375 N 0.82581 0.64809 1.18264
 N376 N 0.81687 0.64806 1.17401
 C377 C 0.80953 0.63781 1.17564
 C378 C 0.81416 0.63105 1.18579
 C379 C 0.82447 0.63783 1.19003
 H380 H 0.80161 0.63527 1.16972
 H381 H 0.83065 0.63531 1.19776
 N382 N 0.81657 0.67444 1.14816
 N383 N 0.82527 0.68339 1.14830
 C384 C 0.82367 0.69085 1.13814
 C385 C 0.81355 0.68636 1.13129
 C386 C 0.80922 0.67599 1.13790
 H387 H 0.82966 0.69875 1.13566
 H388 H 0.80153 0.66985 1.13520
 H389 H 0.82473 0.67498 1.17073
 H390 H 0.83499 0.66511 1.16038
 N391 N 0.85193 0.18308 0.67388
 N392 N 0.85183 0.17418 0.68254
 C393 C 0.86208 0.17551 0.68998
 C394 C 0.86890 0.18578 0.68570
 C395 C 0.86219 0.19039 0.67552
 H396 H 0.86454 0.16941 0.69778
 H397 H 0.86476 0.19827 0.66956
 Cu398 Cu 0.83858 0.16148 0.68268
 Cu399 Cu 0.83926 0.18407 0.66055
 Cu400 Cu 0.81582 0.16107 0.66080
 N401 N 0.82573 0.14838 0.68270
 N402 N 0.81673 0.14844 0.67415
 C403 C 0.80930 0.13827 0.67583
 C404 C 0.81393 0.13145 0.68592
 C405 C 0.82435 0.13811 0.69010
 H406 H 0.80134 0.13582 0.66993
 H407 H 0.83055 0.13550 0.69779
 N408 N 0.81666 0.17461 0.64808
 N409 N 0.82561 0.18331 0.64791
 C410 C 0.82406 0.19063 0.63762
 C411 C 0.81369 0.18628 0.63103
 C412 C 0.80919 0.17618 0.63792
 H413 H 0.83019 0.19833 0.63491
 H414 H 0.80128 0.17020 0.63547
 H415 H 0.82498 0.17531 0.67036
 H416 H 0.83504 0.16497 0.66023
 N417 N 0.31655 0.35162 0.67406
 N418 N 0.32565 0.35183 0.68250
 C419 C 0.32429 0.36219 0.68976
 C420 C 0.31378 0.36876 0.68562
 C421 C 0.30907 0.36178 0.67568
 H422 H 0.33061 0.36494 0.69728
 H423 H 0.30102 0.36412 0.66984
 Cu424 Cu 0.33888 0.33902 0.68273
 Cu425 Cu 0.31568 0.33889 0.66092
 Cu426 Cu 0.33897 0.31595 0.66081
 N427 N 0.35183 0.32593 0.68246
 N428 N 0.35173 0.31689 0.67396
 C429 C 0.36194 0.30949 0.67558
 C430 C 0.36884 0.31418 0.68559
 C431 C 0.36217 0.32460 0.68976
 H432 H 0.36436 0.30148 0.66972
 H433 H 0.36483 0.33086 0.69736
 N434 N 0.32530 0.31655 0.64825
 N435 N 0.31638 0.32527 0.64834
 C436 C 0.30892 0.32366 0.63818
 C437 C 0.31340 0.31348 0.63138
 C438 C 0.32376 0.30917 0.63802
 H439 H 0.30107 0.32969 0.63564
 H440 H 0.32993 0.30148 0.63534
 H441 H 0.32506 0.32506 0.67102
 H442 H 0.33504 0.33524 0.66044
 N443 N 0.31695 0.85211 0.17372
 N444 N 0.32594 0.85217 0.18228
 C445 C 0.32460 0.86248 0.18960
 C446 C 0.31423 0.86919 0.18535
 C447 C 0.30958 0.86234 0.17530
 H448 H 0.33083 0.86510 0.19724
 H449 H 0.30161 0.86480 0.16939
 Cu450 Cu 0.33896 0.83919 0.18253
 Cu451 Cu 0.31598 0.83937 0.16057
 Cu452 Cu 0.33897 0.81601 0.16084
 N453 N 0.35183 0.82606 0.18250
 N454 N 0.35166 0.81696 0.17407
 C455 C 0.36185 0.80954 0.17571
 C456 C 0.36880 0.81428 0.18566
 C457 C 0.36218 0.82475 0.18979
 H458 H 0.36424 0.80150 0.16989
 H459 H 0.36490 0.83108 0.19731
 N460 N 0.32536 0.81674 0.14820
 N461 N 0.31664 0.82567 0.14805
 C462 C 0.30926 0.82410 0.13781
 C463 C 0.31359 0.81372 0.13123
 C464 C 0.32375 0.80925 0.13807
 H465 H 0.30156 0.83025 0.13511
 H466 H 0.32977 0.80137 0.13559
 H467 H 0.32497 0.82537 0.17062
 H468 H 0.33517 0.83526 0.16015
 N469 N 0.81683 0.35207 0.17368
 N470 N 0.82593 0.35220 0.18214
 C471 C 0.82456 0.36247 0.18951
 C472 C 0.81405 0.36906 0.18542
 C473 C 0.80935 0.36220 0.17540
 H474 H 0.83084 0.36513 0.19710
 H475 H 0.80127 0.36457 0.16961
 Cu476 Cu 0.83894 0.33922 0.18219
 Cu477 Cu 0.81581 0.33933 0.16050
 Cu478 Cu 0.83881 0.31592 0.16074
 N479 N 0.85179 0.32608 0.18230
 N480 N 0.85153 0.31688 0.17397
 C481 C 0.86160 0.30932 0.17576
 C482 C 0.86856 0.31407 0.18569
 C483 C 0.86209 0.32469 0.18965
 H484 H 0.86388 0.30117 0.17004
 H485 H 0.86486 0.33106 0.19713
 N486 N 0.82518 0.31669 0.14809
 N487 N 0.81646 0.32563 0.14795
 C488 C 0.80915 0.32412 0.13766
 C489 C 0.81350 0.31378 0.13104
 C490 C 0.82363 0.30927 0.13790
 H491 H 0.80149 0.33032 0.13492
 H492 H 0.82968 0.30143 0.13537
 H493 H 0.82482 0.32528 0.17058
 H494 H 0.83492 0.33508 0.15995
 N495 N 0.81679 0.85226 0.67385
 N496 N 0.82571 0.85217 0.68250
 C497 C 0.82435 0.86240 0.68993
 C498 C 0.81403 0.86920 0.68570
 C499 C 0.80943 0.86251 0.67551
 H500 H 0.83055 0.86493 0.69763
 H501 H 0.80149 0.86504 0.66961
 Cu502 Cu 0.83867 0.83912 0.68258
 Cu503 Cu 0.81586 0.83960 0.66057
 Cu504 Cu 0.83885 0.81615 0.66083
 N505 N 0.85157 0.82600 0.68268
 N506 N 0.85150 0.81699 0.67415
 C507 C 0.86166 0.80953 0.67585
 C508 C 0.86849 0.81416 0.68593
 C509 C 0.86184 0.82461 0.69006
 H510 H 0.86408 0.80152 0.67000
 H511 H 0.86452 0.83089 0.69765
 N512 N 0.82529 0.81699 0.64811
 N513 N 0.81658 0.82594 0.64796
 C514 C 0.80929 0.82445 0.63764
 C515 C 0.81364 0.81410 0.63103
 C516 C 0.82375 0.80958 0.63791
 H517 H 0.80163 0.83064 0.63490
 H518 H 0.82978 0.80172 0.63540
 H519 H 0.82470 0.82539 0.67050
 H520 H 0.83496 0.83531 0.66019
 N521 N 0.68332 0.64851 0.67421
 N522 N 0.67432 0.64845 0.68278
 C523 C 0.67569 0.63815 0.69011
 C524 C 0.68608 0.63145 0.68590
 C525 C 0.69072 0.63829 0.67582
 H526 H 0.66943 0.63551 0.69773
 H527 H 0.69866 0.63581 0.66988
 Cu528 Cu 0.66111 0.66126 0.68298
 Cu529 Cu 0.68410 0.66114 0.66095
 Cu530 Cu 0.66082 0.68412 0.66080
 N531 N 0.64818 0.67435 0.68268
 N532 N 0.64816 0.68328 0.67404
 C533 C 0.63791 0.69064 0.67563
 C534 C 0.63113 0.68603 0.68577
 C535 C 0.63790 0.67572 0.69004
 H536 H 0.63537 0.69854 0.66966
 H537 H 0.63534 0.66953 0.69773
 N538 N 0.67441 0.68341 0.64816
 N539 N 0.68331 0.67467 0.64826
 C540 C 0.69076 0.67625 0.63808
 C541 C 0.68629 0.68641 0.63125
 C542 C 0.67595 0.69077 0.63790
 H543 H 0.69863 0.67022 0.63556
 H544 H 0.66982 0.69850 0.63523
 H545 H 0.67482 0.67509 0.67092
 H546 H 0.66474 0.66482 0.66057
 N547 N 0.68345 0.14820 0.17409
 N548 N 0.67456 0.14831 0.18277
 C549 C 0.67594 0.13809 0.19023
 C550 C 0.68625 0.13129 0.18599
 C551 C 0.69081 0.13796 0.17576
 H552 H 0.66972 0.13555 0.19792
 H553 H 0.69868 0.13536 0.16979
 Cu554 Cu 0.66152 0.16123 0.18273
 Cu555 Cu 0.68424 0.16074 0.16067
 Cu556 Cu 0.66084 0.18380 0.16052
 N557 N 0.64849 0.17417 0.18269
 N558 N 0.64828 0.18297 0.17393
 C559 C 0.63798 0.19026 0.17555
 C560 C 0.63138 0.18576 0.18585
 C561 C 0.63829 0.17555 0.19017
 H562 H 0.63532 0.19807 0.16953
 H563 H 0.63582 0.16940 0.19794
 N564 N 0.67440 0.18297 0.14778
 N565 N 0.68332 0.17423 0.14788
 C566 C 0.69073 0.17577 0.13766
 C567 C 0.68620 0.18590 0.13079
 C568 C 0.67590 0.19029 0.13748
 H569 H 0.69862 0.16978 0.13518
 H570 H 0.66978 0.19804 0.13483
 H571 H 0.67517 0.17497 0.17030
 H572 H 0.66507 0.16467 0.16024
 N573 N 0.18310 0.64837 0.17393
 N574 N 0.17400 0.64819 0.18238
 C575 C 0.17531 0.63781 0.18963
 C576 C 0.18578 0.63120 0.18548
 C577 C 0.19053 0.63818 0.17555
 H578 H 0.16896 0.63505 0.19712
 H579 H 0.19858 0.63581 0.16970
 Cu580 Cu 0.16080 0.66101 0.18259
 Cu581 Cu 0.18403 0.66110 0.16078
 Cu582 Cu 0.16078 0.68407 0.16058
 N583 N 0.14791 0.67414 0.18225
 N584 N 0.14802 0.68315 0.17371
 C585 C 0.13780 0.69056 0.17529
 C586 C 0.13090 0.68589 0.18531
 C587 C 0.13756 0.67549 0.18954
 H588 H 0.13539 0.69855 0.16940
 H589 H 0.13488 0.66923 0.19713
 N590 N 0.17447 0.68345 0.14805
 N591 N 0.18338 0.67472 0.14818
 C592 C 0.19087 0.67631 0.13803
 C593 C 0.18643 0.68648 0.13119
 C594 C 0.17606 0.69083 0.13780
 H595 H 0.19872 0.67026 0.13552
 H596 H 0.16990 0.69852 0.13509
 H597 H 0.17467 0.67497 0.17084
 H598 H 0.16470 0.66480 0.16029
 N599 N 0.18301 0.14773 0.67397
 N600 N 0.17404 0.14771 0.68257
 C601 C 0.17539 0.13740 0.68992
 C602 C 0.18573 0.13065 0.68565
 C603 C 0.19037 0.13748 0.67557
 H604 H 0.16917 0.13482 0.69759
 H605 H 0.19833 0.13499 0.66965
 Cu606 Cu 0.16103 0.16071 0.68275
 Cu607 Cu 0.18395 0.16043 0.66074
 Cu608 Cu 0.16098 0.18382 0.66097
 N609 N 0.14815 0.17384 0.68271
 N610 N 0.14830 0.18292 0.67423
 C611 C 0.13813 0.19037 0.67589
 C612 C 0.13121 0.18568 0.68589
 C613 C 0.13783 0.17521 0.69003
 H614 H 0.13574 0.19841 0.67004
 H615 H 0.13514 0.16891 0.69761
 N616 N 0.17457 0.18305 0.64829
 N617 N 0.18327 0.17410 0.64815
 C618 C 0.19064 0.17566 0.63789
 C619 C 0.18633 0.18605 0.63130
 C620 C 0.17619 0.19054 0.63815
 H621 H 0.19834 0.16951 0.63519
 H622 H 0.17020 0.19845 0.63567
 H623 H 0.17499 0.17451 0.67070
 H624 H 0.16478 0.16462 0.66032
 N625 N 0.31660 0.64834 0.32556
 N626 N 0.32542 0.64852 0.31682
 C627 C 0.32409 0.63829 0.30941
 C628 C 0.31392 0.63137 0.31375
 C629 C 0.30934 0.63802 0.32399
 H630 H 0.33021 0.63591 0.30160
 H631 H 0.30159 0.63531 0.33008
 Cu632 Cu 0.33818 0.66171 0.31616
 Cu633 Cu 0.31588 0.66088 0.33891
 Cu634 Cu 0.33902 0.68396 0.33891
 N635 N 0.35139 0.67445 0.31682
 N636 N 0.35157 0.68325 0.32556
 C637 C 0.36191 0.69050 0.32399
 C638 C 0.36857 0.68593 0.31375
 C639 C 0.36164 0.67578 0.30941
 H640 H 0.36462 0.69824 0.33008
 H641 H 0.36402 0.66967 0.30159
 N642 N 0.32556 0.68313 0.35167
 N643 N 0.31673 0.67433 0.35168
 C644 C 0.30929 0.67593 0.36188
 C645 C 0.31374 0.68615 0.36862
 C646 C 0.32399 0.69055 0.36187
 H647 H 0.30139 0.66996 0.36439
 H648 H 0.32999 0.69843 0.36437
 H649 H 0.32472 0.67512 0.32914
 H650 H 0.33516 0.66467 0.33882
 N651 N 0.31653 0.14834 0.82542
 N652 N 0.32568 0.14814 0.81703
 C653 C 0.32431 0.13788 0.80963
 C654 C 0.31374 0.13135 0.81365
 C655 C 0.30900 0.13827 0.82363
 H656 H 0.33065 0.13517 0.80210
 H657 H 0.30090 0.13592 0.82938
 Cu658 Cu 0.33879 0.16100 0.81718
 Cu659 Cu 0.31567 0.16091 0.83881
 Cu660 Cu 0.33934 0.18367 0.83925
 N661 N 0.35195 0.17379 0.81734
 N662 N 0.35206 0.18269 0.82598
 C663 C 0.36231 0.19002 0.82429
 C664 C 0.36898 0.18543 0.81407
 C665 C 0.36215 0.17515 0.80984
 H666 H 0.36487 0.19795 0.83017
 H667 H 0.36459 0.16903 0.80205
 N668 N 0.32564 0.18297 0.85183
 N669 N 0.31659 0.17438 0.85159
 C670 C 0.30912 0.17596 0.86175
 C671 C 0.31373 0.18596 0.86871
 C672 C 0.32418 0.19021 0.86217
 H673 H 0.30115 0.17004 0.86415
 H674 H 0.33043 0.19778 0.86495
 H675 H 0.32505 0.17502 0.82924
 H676 H 0.33482 0.16466 0.83957
 N677 N 0.81687 0.64827 0.82558
 N678 N 0.82598 0.64807 0.81712
 C679 C 0.82463 0.63771 0.80987
 C680 C 0.81414 0.63114 0.81403
 C681 C 0.80942 0.63811 0.82396
 H682 H 0.83095 0.63497 0.80234
 H683 H 0.80136 0.63577 0.82980
 Cu684 Cu 0.83917 0.66088 0.81691
 Cu685 Cu 0.81595 0.66099 0.83874
 Cu686 Cu 0.83917 0.68396 0.83885
 N687 N 0.85208 0.67397 0.81721
 N688 N 0.85192 0.68302 0.82571
 C689 C 0.86211 0.69045 0.82411
 C690 C 0.86906 0.68576 0.81413
 C691 C 0.86245 0.67532 0.80994
 H692 H 0.86447 0.69847 0.82996
 H693 H 0.86514 0.66906 0.80236
 N694 N 0.82551 0.68334 0.85142
 N695 N 0.81663 0.67460 0.85135
 C696 C 0.80915 0.67620 0.86152
 C697 C 0.81359 0.68640 0.86830
 C698 C 0.82392 0.69074 0.86164
 H699 H 0.80132 0.67016 0.86406
 H700 H 0.83005 0.69847 0.86430
 H701 H 0.82526 0.67486 0.82877
 H702 H 0.83522 0.66474 0.83929
 N703 N 0.81713 0.14770 0.32597
 N704 N 0.82616 0.14765 0.31744
 C705 C 0.82488 0.13732 0.31013
 C706 C 0.81450 0.13061 0.31433
 C707 C 0.80977 0.13747 0.32435
 H708 H 0.83109 0.13476 0.30245
 H709 H 0.80171 0.13507 0.33015
 Cu710 Cu 0.83889 0.16088 0.31687
 Cu711 Cu 0.81604 0.16049 0.33906
 Cu712 Cu 0.83891 0.18390 0.33880
 N713 N 0.85190 0.17385 0.31724
 N714 N 0.85167 0.18297 0.32565
 C715 C 0.86179 0.19048 0.32395
 C716 C 0.86877 0.18575 0.31401
 C717 C 0.86224 0.17522 0.30993
 H718 H 0.86406 0.19861 0.32968
 H719 H 0.86495 0.16894 0.30236
 N720 N 0.82528 0.18316 0.35141
 N721 N 0.81660 0.17421 0.35157
 C722 C 0.80926 0.17574 0.36185
 C723 C 0.81356 0.18612 0.36844
 C724 C 0.82368 0.19062 0.36157
 H725 H 0.80161 0.16955 0.36459
 H726 H 0.82969 0.19849 0.36406
 H727 H 0.82483 0.17465 0.32891
 H728 H 0.83516 0.16470 0.33923
 N729 N 0.68306 0.35168 0.32559
 N730 N 0.67394 0.35189 0.31716
 C731 C 0.67525 0.36226 0.30991
 C732 C 0.68576 0.36882 0.31403
 C733 C 0.69052 0.36182 0.32394
 H734 H 0.66894 0.36498 0.30236
 H735 H 0.69875 0.36401 0.32960
 Cu736 Cu 0.66105 0.33882 0.31668
 Cu737 Cu 0.68407 0.33887 0.33865
 Cu738 Cu 0.66077 0.31594 0.33881
 N739 N 0.64784 0.32606 0.31725
 N740 N 0.64794 0.31701 0.32576
 C741 C 0.63774 0.30962 0.32413
 C742 C 0.63081 0.31438 0.31416
 C743 C 0.63748 0.32478 0.30998
 H744 H 0.63547 0.30144 0.32983
 H745 H 0.63486 0.33104 0.30234
 N746 N 0.67450 0.31648 0.35130
 N747 N 0.68341 0.32519 0.35119
 C748 C 0.69085 0.32361 0.36137
 C749 C 0.68637 0.31346 0.36821
 C750 C 0.67602 0.30913 0.36158
 H751 H 0.69866 0.32967 0.36393
 H752 H 0.66983 0.30149 0.36431
 H753 H 0.67496 0.32480 0.32853
 H754 H 0.66491 0.33506 0.33890
 N755 N 0.68303 0.85195 0.82569
 N756 N 0.67396 0.85210 0.81720
 C757 C 0.67526 0.86248 0.80996
 C758 C 0.68569 0.86911 0.81414
 C759 C 0.69042 0.86216 0.82411
 H760 H 0.66895 0.86518 0.80241
 H761 H 0.69842 0.86456 0.82998
 Cu762 Cu 0.66086 0.83921 0.81690
 Cu763 Cu 0.68398 0.83922 0.83886
 Cu764 Cu 0.66101 0.81601 0.83876
 N765 N 0.64806 0.82602 0.81714
 N766 N 0.64828 0.81692 0.82559
 C767 C 0.63810 0.80948 0.82400
 C768 C 0.63110 0.81422 0.81407
 C769 C 0.63767 0.82469 0.80991
 H770 H 0.63575 0.80144 0.82986
 H771 H 0.63491 0.83102 0.80240
 N772 N 0.67462 0.81669 0.85136
 N773 N 0.68337 0.82556 0.85145
 C774 C 0.69075 0.82399 0.86169
 C775 C 0.68639 0.81367 0.86835
 C776 C 0.67620 0.80923 0.86154
 H777 H 0.69848 0.83012 0.86436
 H778 H 0.67015 0.80140 0.86408
 H779 H 0.67487 0.82534 0.82876
 H780 H 0.66475 0.83529 0.83928
 N781 N 0.18287 0.35201 0.82588
 N782 N 0.17388 0.35208 0.81732
 C783 C 0.17522 0.36242 0.81001
 C784 C 0.18560 0.36910 0.81424
 C785 C 0.19026 0.36222 0.82428
 H786 H 0.16902 0.36501 0.80232
 H787 H 0.19834 0.36455 0.83007
 Cu788 Cu 0.16110 0.33887 0.81674
 Cu789 Cu 0.18388 0.33921 0.83897
 Cu790 Cu 0.16096 0.31590 0.83878
 N791 N 0.14800 0.32597 0.81722
 N792 N 0.14819 0.31687 0.82566
 C793 C 0.13803 0.30942 0.82401
 C794 C 0.13105 0.31417 0.81407
 C795 C 0.13764 0.32466 0.80994
 H796 H 0.13576 0.30126 0.82973
 H797 H 0.13494 0.33095 0.80237
 N798 N 0.17460 0.31658 0.85137
 N799 N 0.18330 0.32551 0.85149
 C800 C 0.19064 0.32398 0.86178
 C801 C 0.18632 0.31362 0.86840
 C802 C 0.17619 0.30912 0.86155
 H803 H 0.19829 0.33017 0.86450
 H804 H 0.17017 0.30128 0.86408
 H805 H 0.17508 0.32502 0.82878
 H806 H 0.16475 0.33507 0.83905
 N807 N 0.18313 0.85177 0.32545
 N808 N 0.17408 0.85192 0.31695
 C809 C 0.17541 0.86226 0.30967
 C810 C 0.18585 0.86888 0.31385
 C811 C 0.19055 0.86196 0.32385
 H812 H 0.16912 0.86496 0.30210
 H813 H 0.19854 0.86436 0.32973
 Cu814 Cu 0.16096 0.83905 0.31672
 Cu815 Cu 0.18405 0.83907 0.33865
 Cu816 Cu 0.16095 0.81598 0.33867
 N817 N 0.14810 0.82593 0.31696
 N818 N 0.14823 0.81689 0.32548
 C819 C 0.13803 0.80948 0.32389
 C820 C 0.13112 0.81416 0.31388
 C821 C 0.13776 0.82458 0.30967
 H822 H 0.13563 0.80149 0.32979
 H823 H 0.13507 0.83085 0.30208
 N824 N 0.17457 0.81665 0.35128
 N825 N 0.18339 0.82547 0.35127
 C826 C 0.19081 0.82389 0.36147
 C827 C 0.18642 0.81363 0.36821
 C828 C 0.17616 0.80923 0.36149
 H829 H 0.19860 0.82997 0.36406
 H830 H 0.17008 0.80145 0.36409
 H831 H 0.17487 0.82516 0.32864
 H832 H 0.16480 0.83524 0.33911
 C833 C 0.25061 1.03407 0.25019
 C834 C 0.25841 1.02752 0.24191
 C835 C 0.25799 1.01431 0.24146
 C836 C 0.24967 1.00732 0.24938
 C837 C 0.24161 1.01438 0.25749
 C838 C 0.24220 1.02760 0.25793
 C839 C 0.24957 0.99295 0.24935
 C840 C 0.24173 0.98595 0.25774
 C841 C 0.24196 0.97271 0.25791
 C842 C 0.24997 0.96617 0.24980
 C843 C 0.25769 0.97268 0.24141
 C844 C 0.25749 0.98590 0.24109
 H845 H 0.25094 1.04432 0.25049
 H846 H 0.26430 1.00983 0.23486
 H847 H 0.23488 1.00996 0.26369
 H848 H 0.23548 0.99043 0.26438
 H849 H 0.25014 0.95592 0.24998
 H850 H 0.26364 0.99034 0.23433
 C851 C 0.24852 0.53387 0.74855
 C852 C 0.25762 0.52747 0.74153
 C853 C 0.25887 0.51434 0.74272
 C854 C 0.25057 0.50727 0.75058
 C855 C 0.24167 0.51420 0.75790
 C856 C 0.24080 0.52738 0.75695
 C857 C 0.25085 0.49292 0.75077
 C858 C 0.24333 0.48589 0.75939
 C859 C 0.24287 0.47267 0.75887
 C860 C 0.25022 0.46617 0.75013
 C861 C 0.25802 0.47271 0.74182
 C862 C 0.25826 0.48595 0.74199
 H863 H 0.24771 0.54406 0.74775
 H864 H 0.26624 0.50993 0.73727
 H865 H 0.23509 0.50967 0.76418
 H866 H 0.23765 0.49035 0.76654
 H867 H 0.24991 0.45593 0.74984
 H868 H 0.26409 0.49048 0.73500
 C869 C 0.75058 -0.03411 0.24946
 C870 C 0.75843 -0.02757 0.25769
 C871 C 0.75852 -0.01433 0.25764
 C872 C 0.75082 -0.00733 0.24912
 C873 C 0.74307 -0.01438 0.24070
 C874 C 0.74288 -0.02762 0.24102
 C875 C 0.75055 0.00704 0.24932
 C876 C 0.74185 0.01403 0.24181
 C877 C 0.74101 0.02721 0.24274
 C878 C 0.74873 0.03369 0.25115
 C879 C 0.75765 0.02724 0.25834
 C880 C 0.75874 0.01408 0.25732
 H881 H 0.75045 -0.04436 0.24963
 H882 H 0.76453 -0.00983 0.26448
 H883 H 0.73702 -0.00992 0.23385
 H884 H 0.73546 0.00955 0.23530
 H885 H 0.74803 0.04389 0.25186
 H886 H 0.76594 0.00966 0.26298
 C887 C 0.75104 0.46604 0.74919
 C888 C 0.75872 0.47259 0.75759
 C889 C 0.75834 0.48581 0.75796
 C890 C 0.75020 0.49280 0.74985
 C891 C 0.74228 0.48574 0.74161
 C892 C 0.74278 0.47251 0.74129
 C893 C 0.74992 0.50718 0.75005
 C894 C 0.74173 0.51416 0.74198
 C895 C 0.74131 0.52739 0.74240
 C896 C 0.74896 0.53393 0.75082
 C897 C 0.75727 0.52746 0.75868
 C898 C 0.75784 0.51424 0.75829
 H899 H 0.75137 0.45579 0.74894
 H900 H 0.76450 0.49029 0.76468
 H901 H 0.73568 0.49015 0.73527
 H902 H 0.73557 0.50969 0.73526
 H903 H 0.74858 0.54417 0.75112
 H904 H 0.76448 0.50982 0.76458
 C905 C 0.24839 0.46624 0.25131
 C906 C 0.25654 0.47269 0.25932
 C907 C 0.25707 0.48591 0.25897
 C908 C 0.24955 0.49297 0.25034
 C909 C 0.24170 0.48600 0.24197
 C910 C 0.24103 0.47279 0.24261
 C911 C 0.25005 0.50732 0.24992
 C912 C 0.24183 0.51442 0.24198
 C913 C 0.24296 0.52758 0.24096
 C914 C 0.25193 0.53396 0.24813
 C915 C 0.25964 0.52742 0.25652
 C916 C 0.25881 0.51424 0.25739
 H917 H 0.24796 0.45600 0.25166
 H918 H 0.26338 0.49034 0.26558
 H919 H 0.23603 0.49050 0.23482
 H920 H 0.23454 0.51004 0.23641
 H921 H 0.25265 0.54416 0.24745
 H922 H 0.26522 0.50973 0.26386
 C923 C 0.74993 1.03413 0.75004
 C924 C 0.75741 1.02763 0.74141
 C925 C 0.75684 1.01442 0.74078
 C926 C 0.74894 1.00739 0.74908
 C927 C 0.74128 1.01439 0.75762
 C928 C 0.74177 1.02762 0.75801
 C929 C 0.74910 0.99302 0.74920
 C930 C 0.74099 0.98597 0.75729
 C931 C 0.74208 0.97281 0.75829
 C932 C 0.75093 0.96638 0.75100
 C933 C 0.75853 0.97287 0.74248
 C934 C 0.75770 0.98604 0.74159
 H935 H 0.75037 1.04436 0.75045
 H936 H 0.76277 1.00998 0.73382
 H937 H 0.73503 1.00991 0.76426
 H938 H 0.73390 0.99039 0.76308
 H939 H 0.75168 0.95618 0.75174
 H940 H 0.76408 0.99052 0.73505
 C941 C 0.75062 0.53391 0.25050
 C942 C 0.75836 0.52739 0.24215
 C943 C 0.75783 0.51418 0.24155
 C944 C 0.74945 0.50718 0.24939
 C945 C 0.74139 0.51423 0.25752
 C946 C 0.74211 0.52743 0.25812
 C947 C 0.74934 0.49282 0.24933
 C948 C 0.74162 0.48581 0.25782
 C949 C 0.74194 0.47257 0.25806
 C950 C 0.74994 0.46605 0.24993
 C951 C 0.75752 0.47256 0.24141
 C952 C 0.75720 0.48578 0.24100
 H953 H 0.75107 0.54415 0.25092
 H954 H 0.76415 0.50972 0.23496
 H955 H 0.73456 0.50980 0.26360
 H956 H 0.73541 0.49029 0.26451
 H957 H 0.75019 0.45580 0.25018
 H958 H 0.76323 0.49022 0.23414
 C959 C 0.24927 -0.03416 0.75090
 C960 C 0.25817 -0.02774 0.75812
 C961 C 0.25913 -0.01456 0.75724
 C962 C 0.25080 -0.00749 0.74940
 C963 C 0.24206 -0.01443 0.74193
 C964 C 0.24141 -0.02763 0.74265
 C965 C 0.25097 0.00687 0.74932
 C966 C 0.24330 0.01392 0.74083
 C967 C 0.24279 0.02713 0.74141
 C968 C 0.25022 0.03361 0.75007
 C969 C 0.25821 0.02707 0.75819
 C970 C 0.25847 0.01383 0.75801
 H971 H 0.24865 -0.04437 0.75150
 H972 H 0.26633 -0.01014 0.76289
 H973 H 0.23548 -0.00991 0.73563
 H974 H 0.23755 0.00949 0.73373
 H975 H 0.24984 0.04385 0.75044
 H976 H 0.26438 0.00931 0.76494
 C977 C 0.24893 0.24900 1.03355
 C978 C 0.24163 0.25785 1.02715
 C979 C 0.24277 0.25908 1.01403
 C980 C 0.25117 0.25125 1.00701
 C981 C 0.25899 0.24284 1.01403
 C982 C 0.25776 0.24168 1.02715
 C983 C 0.25117 0.25127 0.99265
 C984 C 0.25896 0.24283 0.98563
 C985 C 0.25775 0.24174 0.97250
 C986 C 0.24897 0.24912 0.96610
 C987 C 0.24169 0.25797 0.97252
 C988 C 0.24281 0.25916 0.98564
 H989 H 0.24798 0.24805 1.04371
 H990 H 0.23674 0.26598 1.00961
 H991 H 0.26588 0.23681 1.00960
 H992 H 0.26579 0.23674 0.99006
 H993 H 0.24802 0.24821 0.95594
 H994 H 0.23681 0.26607 0.99007
 C995 C 0.24888 0.74884 0.53370
 C996 C 0.24144 0.75755 0.52726
 C997 C 0.24229 0.75852 0.51410
 C998 C 0.25054 0.75057 0.50706
 C999 C 0.25838 0.74216 0.51406
 C1000 C 0.25748 0.74132 0.52722
 C1001 C 0.25074 0.75082 0.49271
 C1002 C 0.25886 0.74273 0.48568
 C1003 C 0.25861 0.74260 0.47247
 C1004 C 0.25040 0.75053 0.46596
 C1005 C 0.24241 0.75866 0.47247
 C1006 C 0.24252 0.75885 0.48570
 H1007 H 0.24820 0.74814 0.54389
 H1008 H 0.23626 0.76542 0.50969
 H1009 H 0.26515 0.73600 0.50962
 H1010 H 0.26540 0.73633 0.49012
 H1011 H 0.25024 0.75036 0.45572
 H1012 H 0.23601 0.76526 0.49016
 C1013 C 0.24922 0.75115 -0.03415
 C1014 C 0.25766 0.75881 -0.02764
 C1015 C 0.25803 0.75849 -0.01442
 C1016 C 0.24973 0.75057 -0.00741
 C1017 C 0.24129 0.74282 -0.01443
 C1018 C 0.24115 0.74310 -0.02765
 C1019 C 0.25005 0.75021 0.00694
 C1020 C 0.24237 0.74166 0.01393
 C1021 C 0.24319 0.74093 0.02711
 C1022 C 0.25167 0.74857 0.03358
 C1023 C 0.25901 0.75735 0.02714
 C1024 C 0.25813 0.75832 0.01398
 H1025 H 0.24906 0.75135 -0.04438
 H1026 H 0.26493 0.76447 -0.00996
 H1027 H 0.23472 0.73647 -0.00999
 H1028 H 0.23579 0.73533 0.00948
 H1029 H 0.25230 0.74792 0.04378
 H1030 H 0.26394 0.76540 0.00956
 C1031 C 0.24924 0.25067 0.46611
 C1032 C 0.25790 0.25813 0.47255
 C1033 C 0.25889 0.25724 0.48571
 C1034 C 0.25104 0.24886 0.49273
 C1035 C 0.24274 0.24095 0.48571
 C1036 C 0.24183 0.24196 0.47255
 C1037 C 0.25099 0.24888 0.50709
 C1038 C 0.24261 0.24103 0.51411
 C1039 C 0.24163 0.24208 0.52726
 C1040 C 0.24904 0.25080 0.53369
 C1041 C 0.25779 0.25818 0.52726
 C1042 C 0.25887 0.25721 0.51411
 H1043 H 0.24847 0.25144 0.45593
 H1044 H 0.26564 0.26340 0.49015
 H1045 H 0.23666 0.23411 0.49014
 H1046 H 0.23650 0.23423 0.50967
 H1047 H 0.24822 0.25161 0.54386
 H1048 H 0.26572 0.26327 0.50969
 C1049 C 0.75192 0.75187 1.03362
 C1050 C 0.74339 0.75952 1.02719
 C1051 C 0.74244 0.75874 1.01402
 C1052 C 0.75006 0.75015 1.00701
 C1053 C 0.75818 0.74203 1.01401
 C1054 C 0.75916 0.74303 1.02715
 C1055 C 0.74959 0.74967 0.99267
 C1056 C 0.75776 0.74160 0.98565
 C1057 C 0.75703 0.74094 0.97246
 C1058 C 0.74839 0.74842 0.96599
 C1059 C 0.74060 0.75677 0.97247
 C1060 C 0.74110 0.75740 0.98567
 H1061 H 0.75263 0.75252 1.04381
 H1062 H 0.73580 0.76505 1.00959
 H1063 H 0.76391 0.73489 1.00959
 H1064 H 0.76477 0.73572 0.99008
 H1065 H 0.74794 0.74797 0.95577
 H1066 H 0.73472 0.76395 0.99012
 C1067 C 0.74782 0.24799 0.53358
 C1068 C 0.74047 0.25676 0.52712
 C1069 C 0.74134 0.25769 0.51395
 C1070 C 0.74951 0.24961 0.50694
 C1071 C 0.75723 0.24112 0.51395
 C1072 C 0.75634 0.24036 0.52712
 C1073 C 0.75008 0.25015 0.49260
 C1074 C 0.75858 0.24240 0.48560
 C1075 C 0.75944 0.24335 0.47244
 C1076 C 0.75191 0.25197 0.46598
 C1077 C 0.74312 0.25931 0.47241
 C1078 C 0.74208 0.25836 0.48556
 H1079 H 0.74718 0.24737 0.54378
 H1080 H 0.73551 0.26475 0.50952
 H1081 H 0.76395 0.23490 0.50953
 H1082 H 0.76473 0.23563 0.49004
 H1083 H 0.75261 0.25268 0.45579
 H1084 H 0.73501 0.26420 0.48997
 C1085 C 0.74812 0.25191 -0.03414
 C1086 C 0.75670 0.25945 -0.02768
 C1087 C 0.75753 0.25873 -0.01450
 C1088 C 0.74963 0.25042 -0.00749
 C1089 C 0.74133 0.24249 -0.01449
 C1090 C 0.74060 0.24331 -0.02767
 C1091 C 0.75013 0.24993 0.00685
 C1092 C 0.74226 0.24158 0.01386
 C1093 C 0.74318 0.24075 0.02702
 C1094 C 0.75181 0.24823 0.03348
 C1095 C 0.75926 0.25691 0.02703
 C1096 C 0.75844 0.25784 0.01387
 H1097 H 0.74756 0.25248 -0.04435
 H1098 H 0.76437 0.26479 -0.01008
 H1099 H 0.73527 0.23564 -0.01006
 H1100 H 0.73539 0.23555 0.00944
 H1101 H 0.75244 0.24758 0.04368
 H1102 H 0.76445 0.26474 0.00945
 C1103 C 0.74820 0.75186 0.46602
 C1104 C 0.75670 0.75947 0.47248
 C1105 C 0.75748 0.75881 0.48567
 C1106 C 0.74965 0.75043 0.49269
 C1107 C 0.74144 0.74242 0.48567
 C1108 C 0.74071 0.74323 0.47250
 C1109 C 0.75013 0.74995 0.50703
 C1110 C 0.74216 0.74171 0.51405
 C1111 C 0.74307 0.74087 0.52721
 C1112 C 0.75175 0.74830 0.53367
 C1113 C 0.75929 0.75689 0.52721
 C1114 C 0.75852 0.75777 0.51404
 H1115 H 0.74764 0.75240 0.45581
 H1116 H 0.76422 0.76498 0.49009
 H1117 H 0.73547 0.73549 0.49010
 H1118 H 0.73521 0.73576 0.50963
 H1119 H 0.75237 0.74766 0.54387
 H1120 H 0.76464 0.76457 0.50961
 C1121 C 1.03397 0.25017 0.24986
 C1122 C 1.02745 0.24215 0.25795
 C1123 C 1.01421 0.24200 0.25790
 C1124 C 1.00716 0.25010 0.24979
 C1125 C 1.01419 0.25822 0.24170
 C1126 C 1.02744 0.25815 0.24172
 C1127 C 0.99278 0.25008 0.24978
 C1128 C 0.98574 0.25795 0.24145
 C1129 C 0.97250 0.25793 0.24152
 C1130 C 0.96597 0.25013 0.24982
 C1131 C 0.97250 0.24228 0.25810
 C1132 C 0.98575 0.24221 0.25812
 H1133 H 1.04423 0.25021 0.24989
 H1134 H 1.00975 0.23551 0.26433
 H1135 H 1.00972 0.26468 0.23525
 H1136 H 0.99020 0.26414 0.23474
 H1137 H 0.95571 0.25014 0.24984
 H1138 H 0.99022 0.23599 0.26480
 C1139 C 0.53396 0.25056 0.75052
 C1140 C 0.52747 0.24301 0.75910
 C1141 C 0.51422 0.24315 0.75936
 C1142 C 0.50716 0.25064 0.75071
 C1143 C 0.51414 0.25813 0.74200
 C1144 C 0.52739 0.25817 0.74206
 C1145 C 0.49280 0.25030 0.75046
 C1146 C 0.48572 0.25862 0.74262
 C1147 C 0.47255 0.25747 0.74154
 C1148 C 0.46616 0.24842 0.74860
 C1149 C 0.47268 0.24060 0.75689
 C1150 C 0.48587 0.24143 0.75779
 H1151 H 0.54422 0.25048 0.75041
 H1152 H 0.50975 0.23733 0.76639
 H1153 H 0.50959 0.26386 0.73493
 H1154 H 0.49013 0.26597 0.73714
 H1155 H 0.45594 0.24772 0.74791
 H1156 H 0.49040 0.23489 0.76413
 C1157 C -0.03400 0.24912 0.75070
 C1158 C -0.02754 0.25789 0.75804
 C1159 C -0.01434 0.25871 0.75731
 C1160 C -0.00727 0.25033 0.74953
 C1161 C -0.01422 0.24162 0.74204
 C1162 C -0.02745 0.24118 0.74254
 C1163 C 0.00710 0.25050 0.74942
 C1164 C 0.01414 0.24293 0.74084
 C1165 C 0.02739 0.24274 0.74113
 C1166 C 0.03389 0.25030 0.74966
 C1167 C 0.02733 0.25800 0.75804
 C1168 C 0.01408 0.25803 0.75807
 H1169 H -0.04424 0.24863 0.75116
 H1170 H -0.00990 0.26586 0.76300
 H1171 H -0.00970 0.23496 0.73584
 H1172 H 0.00968 0.23710 0.73382
 H1173 H 0.04415 0.25019 0.74977
 H1174 H 0.00955 0.26387 0.76505
 C1175 C 0.46630 0.24909 0.25054
 C1176 C 0.47275 0.25773 0.25802
 C1177 C 0.48593 0.25876 0.25706
 C1178 C 0.49293 0.25111 0.24849
 C1179 C 0.48588 0.24296 0.24048
 C1180 C 0.47273 0.24181 0.24171
 C1181 C 0.50731 0.25104 0.24850
 C1182 C 0.51431 0.24237 0.24096
 C1183 C 0.52747 0.24128 0.24216
 C1184 C 0.53391 0.24882 0.25075
 C1185 C 0.52749 0.25781 0.25786
 C1186 C 0.51435 0.25908 0.25664
 H1187 H 0.45610 0.24827 0.25137
 H1188 H 0.49041 0.26533 0.26337
 H1189 H 0.49030 0.23717 0.23339
 H1190 H 0.50985 0.23610 0.23433
 H1191 H 0.54410 0.24795 0.25164
 H1192 H 0.50994 0.26621 0.26238
 C1193 C 1.03390 0.75098 0.75080
 C1194 C 1.02746 0.74197 0.75786
 C1195 C 1.01429 0.74088 0.75678
 C1196 C 1.00725 0.74921 0.74891
 C1197 C 1.01424 0.75803 0.74155
 C1198 C 1.02743 0.75879 0.74247
 C1199 C 0.99288 0.74914 0.74884
 C1200 C 0.98585 0.75694 0.74043
 C1201 C 0.97266 0.75785 0.74134
 C1202 C 0.96618 0.75070 0.75025
 C1203 C 0.97266 0.74246 0.75818
 C1204 C 0.98588 0.74172 0.75759
 H1205 H 1.04411 0.75170 0.75158
 H1206 H 1.00985 0.73362 0.76234
 H1207 H 1.00974 0.76463 0.73526
 H1208 H 0.99031 0.76256 0.73324
 H1209 H 0.95596 0.75137 0.75085
 H1210 H 0.99038 0.73555 0.76429
 C1211 C 0.53371 0.75216 0.25204
 C1212 C 0.52726 0.74357 0.25959
 C1213 C 0.51407 0.74265 0.25880
 C1214 C 0.50703 0.75040 0.25035
 C1215 C 0.51404 0.75861 0.24234
 C1216 C 0.52722 0.75953 0.24331
 C1217 C 0.49268 0.74980 0.24978
 C1218 C 0.48562 0.75780 0.24160
 C1219 C 0.47245 0.75668 0.24058
 C1220 C 0.46604 0.74779 0.24782
 C1221 C 0.47254 0.74027 0.25642
 C1222 C 0.48570 0.74124 0.25745
 H1223 H 0.54393 0.75282 0.25267
 H1224 H 0.50966 0.73588 0.26495
 H1225 H 0.50960 0.76444 0.23531
 H1226 H 0.49001 0.76492 0.23582
 H1227 H 0.45583 0.74703 0.24708
 H1228 H 0.49015 0.73512 0.26423
 C1229 C -0.03418 0.75039 0.24968
 C1230 C -0.02763 0.75831 0.25783
 C1231 C -0.01439 0.75821 0.25798
 C1232 C -0.00738 0.74997 0.25000
 C1233 C -0.01443 0.74185 0.24195
 C1234 C -0.02767 0.74215 0.24179
 C1235 C 0.00700 0.74991 0.25003
 C1236 C 0.01403 0.74208 0.24166
 C1237 C 0.02727 0.74217 0.24165
 C1238 C 0.03381 0.75004 0.24987
 C1239 C 0.02729 0.75781 0.25821
 C1240 C 0.01404 0.75776 0.25837
 H1241 H -0.04444 0.75060 0.24951
 H1242 H -0.00992 0.76467 0.26440
 H1243 H -0.00998 0.73527 0.23561
 H1244 H 0.00956 0.73589 0.23498
 H1245 H 0.04407 0.75010 0.24980
 H1246 H 0.00958 0.76390 0.26512
 C1247 C 0.46585 0.75110 0.74938
 C1248 C 0.47240 0.75881 0.75773
 C1249 C 0.48564 0.75847 0.75808
 C1250 C 0.49264 0.75032 0.74998
 C1251 C 0.48556 0.74240 0.74175
 C1252 C 0.47233 0.74287 0.74146
 C1253 C 0.50702 0.75006 0.75015
 C1254 C 0.51400 0.74186 0.74211
 C1255 C 0.52724 0.74152 0.74244
 C1256 C 0.53380 0.74927 0.75075
 C1257 C 0.52733 0.75755 0.75863
 C1258 C 0.51409 0.75804 0.75832
 H1259 H 0.45559 0.75139 0.74915
 H1260 H 0.49013 0.76464 0.76477
 H1261 H 0.48998 0.73583 0.73539
 H1262 H 0.50952 0.73562 0.73547
 H1263 H 0.54406 0.74896 0.75099
 H1264 H 0.50967 0.76467 0.76462
 C1265 C 0.40355 0.30035 0.30066
 N1266 N 0.39832 0.31089 0.29553
 N1267 N 0.38731 0.31530 0.29979
 C1268 C 0.38115 0.30933 0.30932
 N1269 N 0.38639 0.29881 0.31444
 N1270 N 0.39737 0.29439 0.31017
 C1271 C 0.41548 0.29518 0.29579
 N1272 N 0.41998 0.28405 0.30030
 N1273 N 0.43043 0.27894 0.29551
 C1274 C 0.43685 0.28480 0.28610
 N1275 N 0.43246 0.29603 0.28168
 N1276 N 0.42196 0.30113 0.28645
 C1277 C 0.44759 0.27843 0.28002
 N1278 N 0.45440 0.28423 0.27081
 N1279 N 0.46312 0.27785 0.26432
 C1280 C 0.46535 0.26546 0.26683
 N1281 N 0.45867 0.25974 0.27614
 N1282 N 0.45004 0.26613 0.28268
 C1283 C 0.40301 0.80105 0.80036
 N1284 N 0.39744 0.81130 0.79502
 N1285 N 0.38643 0.81561 0.79935
 C1286 C 0.38056 0.80981 0.80917
 N1287 N 0.38614 0.79956 0.81451
 N1288 N 0.39715 0.79525 0.81017
 C1289 C 0.41495 0.79605 0.79535
 N1290 N 0.42032 0.78559 0.80049
 N1291 N 0.43081 0.78068 0.79556
 C1292 C 0.43634 0.78606 0.78533
 N1293 N 0.43104 0.79659 0.78026
 N1294 N 0.42055 0.80151 0.78520
 C1295 C 0.44715 0.77992 0.77913
 N1296 N 0.45188 0.78463 0.76819
 N1297 N 0.46062 0.77826 0.76174
 C1298 C 0.46504 0.76703 0.76608
 N1299 N 0.46046 0.76241 0.77711
 N1300 N 0.45171 0.76878 0.78356
 C1301 C -0.09680 0.30079 0.80032
 N1302 N -0.10216 0.31122 0.79510
 N1303 N -0.11314 0.31563 0.79941
 C1304 C -0.11918 0.30976 0.80908
 N1305 N -0.11381 0.29935 0.81431
 N1306 N -0.10285 0.29494 0.80999
 C1307 C -0.08489 0.29564 0.79540
 N1308 N -0.08011 0.28474 0.80017
 N1309 N -0.06966 0.27966 0.79534
 C1310 C -0.06353 0.28533 0.78561
 N1311 N -0.06822 0.29632 0.78092
 N1312 N -0.07871 0.30139 0.78574
 C1313 C -0.05277 0.27898 0.77955
 N1314 N -0.04656 0.28442 0.76973
 N1315 N -0.03782 0.27798 0.76333
 C1316 C -0.03497 0.26590 0.76656
 N1317 N -0.04105 0.26054 0.77648
 N1318 N -0.04971 0.26699 0.78291
 C1319 C -0.09692 0.80078 0.30025
 N1320 N -0.10244 0.81106 0.29492
 N1321 N -0.11346 0.81539 0.29922
 C1322 C -0.11937 0.80956 0.30899
 N1323 N -0.11386 0.79927 0.31431
 N1324 N -0.10284 0.79495 0.31001
 C1325 C -0.08496 0.79578 0.29532
 N1326 N -0.07970 0.78525 0.30044
 N1327 N -0.06920 0.78031 0.29557
 C1328 C -0.06352 0.78575 0.28544
 N1329 N -0.06870 0.79636 0.28042
 N1330 N -0.07921 0.80130 0.28528
 C1331 C -0.05274 0.77954 0.27929
 N1332 N -0.04778 0.78435 0.26849
 N1333 N -0.03909 0.77793 0.26203
 C1334 C -0.03498 0.76652 0.26620
 N1335 N -0.03981 0.76179 0.27708
 N1336 N -0.04849 0.76821 0.28354
 C1337 C 0.59667 0.69982 0.30082
 N1338 N 0.60196 0.68942 0.29549
 N1339 N 0.61301 0.68498 0.29965
 C1340 C 0.61915 0.69082 0.30926
 N1341 N 0.61385 0.70120 0.31459
 N1342 N 0.60283 0.70563 0.31043
 C1343 C 0.58473 0.70506 0.29606
 N1344 N 0.58007 0.71594 0.30097
 N1345 N 0.56961 0.72116 0.29629
 C1346 C 0.56336 0.71565 0.28657
 N1347 N 0.56793 0.70468 0.28173
 N1348 N 0.57843 0.69947 0.28639
 C1349 C 0.55260 0.72216 0.28068
 N1350 N 0.54616 0.71683 0.27096
 N1351 N 0.53738 0.72339 0.26473
 C1352 C 0.53472 0.73549 0.26804
 N1353 N 0.54104 0.74076 0.27783
 N1354 N 0.54974 0.73418 0.28410
 C1355 C 0.59688 0.19952 0.80065
 N1356 N 0.60291 0.20527 0.81037
 N1357 N 0.61391 0.20085 0.81462
 C1358 C 0.61930 0.19052 0.80928
 N1359 N 0.61328 0.18474 0.79956
 N1360 N 0.60227 0.18917 0.79530
 C1361 C 0.58494 0.20469 0.79579
 N1362 N 0.57896 0.19926 0.78584
 N1363 N 0.56848 0.20440 0.78109
 C1364 C 0.56358 0.21514 0.78614
 N1365 N 0.56949 0.22047 0.79616
 N1366 N 0.57995 0.21533 0.80092
 C1367 C 0.55278 0.22154 0.78017
 N1368 N 0.54894 0.23305 0.78435
 N1369 N 0.54021 0.23960 0.77805
 C1370 C 0.53490 0.23480 0.76744
 N1371 N 0.53860 0.22323 0.76336
 N1372 N 0.54734 0.21668 0.76964
 C1373 C 1.09676 0.69940 0.80041
 N1374 N 1.10266 0.70519 0.81019
 N1375 N 1.11372 0.70092 0.81443
 C1376 C 1.11930 0.69073 0.80902
 N1377 N 1.11341 0.68493 0.79924
 N1378 N 1.10234 0.68919 0.79499
 C1379 C 1.08479 0.70445 0.79549
 N1380 N 1.07871 0.69872 0.78577
 N1381 N 1.06820 0.70373 0.78094
 C1382 C 1.06340 0.71465 0.78567
 N1383 N 1.06942 0.72030 0.79546
 N1384 N 1.07989 0.71527 0.80031
 C1385 C 1.05265 0.72098 0.77955
 N1386 N 1.04965 0.73301 0.78278
 N1387 N 1.04100 0.73943 0.77630
 C1388 C 1.03486 0.73400 0.76647
 N1389 N 1.03765 0.72188 0.76336
 N1390 N 1.04639 0.71547 0.76981
 C1391 C 1.09670 0.19960 0.30054
 N1392 N 1.10211 0.18922 0.29529
 N1393 N 1.11315 0.18489 0.29956
 C1394 C 1.11917 0.19080 0.30920
 N1395 N 1.11374 0.20114 0.31447
 N1396 N 1.10271 0.20548 0.31020
 C1397 C 1.08476 0.20466 0.29559
 N1398 N 1.07976 0.21541 0.30046
 N1399 N 1.06930 0.22042 0.29557
 C1400 C 1.06342 0.21484 0.28565
 N1401 N 1.06835 0.20401 0.28086
 N1402 N 1.07882 0.19900 0.28575
 C1403 C 1.05265 0.22109 0.27951
 N1404 N 1.04715 0.21595 0.26914
 N1405 N 1.03843 0.22236 0.26269
 C1406 C 1.03485 0.23408 0.26643
 N1407 N 1.04022 0.23914 0.27689
 N1408 N 1.04890 0.23273 0.28335
 C1409 C 0.59667 0.30044 0.69923
 N1410 N 0.60277 0.29450 0.68965
 N1411 N 0.61376 0.29888 0.68536
 C1412 C 0.61907 0.30934 0.69051
 N1413 N 0.61299 0.31527 0.70012
 N1414 N 0.60199 0.31089 0.70441
 C1415 C 0.58472 0.29536 0.70415
 N1416 N 0.57859 0.30113 0.71382
 N1417 N 0.56811 0.29611 0.71867
 C1418 C 0.56336 0.28514 0.71401
 N1419 N 0.56942 0.27945 0.70426
 N1420 N 0.57988 0.28448 0.69940
 C1421 C 0.55257 0.27891 0.72015
 N1422 N 0.54909 0.26708 0.71663
 N1423 N 0.54040 0.26074 0.72317
 C1424 C 0.53475 0.26606 0.73336
 N1425 N 0.53807 0.27795 0.73677
 N1426 N 0.54679 0.28429 0.73025
 C1427 C 0.59640 0.80116 0.19980
 N1428 N 0.60186 0.79551 0.18966
 N1429 N 0.61286 0.79967 0.18517
 C1430 C 0.61882 0.80960 0.19067
 N1431 N 0.61337 0.81523 0.20080
 N1432 N 0.60238 0.81107 0.20530
 C1433 C 0.58445 0.79640 0.20501
 N1434 N 0.57959 0.80148 0.21571
 N1435 N 0.56912 0.79677 0.22086
 C1436 C 0.56306 0.78686 0.21545
 N1437 N 0.56782 0.78188 0.20464
 N1438 N 0.57833 0.78657 0.19950
 C1439 C 0.55234 0.78087 0.22191
 N1440 N 0.54620 0.77090 0.21666
 N1441 N 0.53750 0.76456 0.22321
 C1442 C 0.53461 0.76800 0.23520
 N1443 N 0.54064 0.77804 0.24038
 N1444 N 0.54927 0.78441 0.23382
 C1445 C 1.09688 0.30052 0.19936
 N1446 N 1.10289 0.29464 0.18969
 N1447 N 1.11390 0.29897 0.18539
 C1448 C 1.11933 0.30932 0.19064
 N1449 N 1.11333 0.31520 0.20032
 N1450 N 1.10231 0.31087 0.20461
 C1451 C 1.08491 0.29550 0.20428
 N1452 N 1.07895 0.30116 0.21412
 N1453 N 1.06843 0.29620 0.21895
 C1454 C 1.06347 0.28542 0.21409
 N1455 N 1.06935 0.27985 0.20417
 N1456 N 1.07986 0.28481 0.19934
 C1457 C 1.05267 0.27920 0.22022
 N1458 N 1.04882 0.26763 0.21628
 N1459 N 1.04011 0.26123 0.22272
 C1460 C 1.03482 0.26624 0.23325
 N1461 N 1.03852 0.27789 0.23710
 N1462 N 1.04725 0.28428 0.23067
 C1463 C 1.09688 0.80088 0.69997
 N1464 N 1.10295 0.81064 0.70563
 N1465 N 1.11398 0.81478 0.70120
 C1466 C 1.11938 0.80925 0.69099
 N1467 N 1.11335 0.79945 0.68534
 N1468 N 1.10229 0.79533 0.68976
 C1469 C 1.08489 0.79618 0.70511
 N1470 N 1.07849 0.78670 0.69931
 N1471 N 1.06795 0.78204 0.70439
 C1472 C 1.06342 0.78670 0.71544
 N1473 N 1.06975 0.79626 0.72115
 N1474 N 1.08026 0.80095 0.71605
 C1475 C 1.05265 0.78070 0.72180
 N1476 N 1.05005 0.78354 0.73401
 N1477 N 1.04139 0.77703 0.74040
 C1478 C 1.03485 0.76759 0.73474
 N1479 N 1.03726 0.76489 0.72246
 N1480 N 1.04600 0.77134 0.71609
 C1481 C 0.40337 0.69961 0.69919
 N1482 N 0.39805 0.68919 0.70444
 N1483 N 0.38708 0.68475 0.70013
 C1484 C 0.38105 0.69059 0.69043
 N1485 N 0.38637 0.70102 0.68521
 N1486 N 0.39731 0.70546 0.68953
 C1487 C 0.41525 0.70481 0.70413
 N1488 N 0.41999 0.71569 0.69930
 N1489 N 0.43040 0.72084 0.70413
 C1490 C 0.43651 0.71526 0.71392
 N1491 N 0.43185 0.70429 0.71867
 N1492 N 0.42141 0.69915 0.71385
 C1493 C 0.44720 0.72168 0.71999
 N1494 N 0.45327 0.71635 0.72996
 N1495 N 0.46196 0.72284 0.73636
 C1496 C 0.46491 0.73485 0.73297
 N1497 N 0.45896 0.74011 0.72293
 N1498 N 0.45033 0.73361 0.71650
 C1499 C 0.40360 0.19907 0.19947
 N1500 N 0.39759 0.18930 0.20520
 N1501 N 0.38658 0.18509 0.20081
 C1502 C 0.38115 0.19055 0.19057
 N1503 N 0.38714 0.20034 0.18485
 N1504 N 0.39817 0.20453 0.18922
 C1505 C 0.41557 0.20387 0.20456
 N1506 N 0.42189 0.21337 0.19869
 N1507 N 0.43242 0.21811 0.20372
 C1508 C 0.43700 0.21352 0.21478
 N1509 N 0.43075 0.20392 0.22054
 N1510 N 0.42027 0.19915 0.21550
 C1511 C 0.44770 0.21966 0.22110
 N1512 N 0.45040 0.21681 0.23329
 N1513 N 0.45899 0.22343 0.23964
 C1514 C 0.46536 0.23301 0.23398
 N1515 N 0.46287 0.23569 0.22170
 N1516 N 0.45420 0.22913 0.21537
 C1517 C -0.09680 0.69957 0.19925
 N1518 N -0.10222 0.68924 0.20459
 N1519 N -0.11328 0.68493 0.20041
 C1520 C -0.11934 0.69081 0.19076
 N1521 N -0.11391 0.70112 0.18542
 N1522 N -0.10286 0.70543 0.18960
 C1523 C -0.08483 0.70461 0.20412
 N1524 N -0.07991 0.71541 0.19929
 N1525 N -0.06945 0.72042 0.20416
 C1526 C -0.06348 0.71477 0.21400
 N1527 N -0.06830 0.70387 0.21873
 N1528 N -0.07878 0.69887 0.21387
 C1529 C -0.05277 0.72106 0.22018
 N1530 N -0.04707 0.71582 0.23041
 N1531 N -0.03839 0.72225 0.23688
 C1532 C -0.03508 0.73411 0.23331
 N1533 N -0.04066 0.73928 0.22302
 N1534 N -0.04929 0.73285 0.21652
 C1535 C -0.09657 0.19901 0.69957
 N1536 N -0.10242 0.18901 0.70506
 N1537 N -0.11341 0.18479 0.70063
 C1538 C -0.11898 0.19045 0.69058
 N1539 N -0.11313 0.20044 0.68506
 N1540 N -0.10213 0.20465 0.68948
 C1541 C -0.08467 0.20389 0.70474
 N1542 N -0.07884 0.21397 0.69936
 N1543 N -0.06838 0.21878 0.70445
 C1544 C -0.06336 0.21368 0.71508
 N1545 N -0.06912 0.20352 0.72038
 N1546 N -0.07956 0.19870 0.71529
 C1547 C -0.05261 0.21974 0.72140
 N1548 N -0.04886 0.21577 0.73300
 N1549 N -0.04018 0.22219 0.73945
 C1550 C -0.03480 0.23269 0.73447
 N1551 N -0.03837 0.23655 0.72279
 N1552 N -0.04710 0.23016 0.71636
 C1553 C 0.30007 0.40322 0.30068
 N1554 N 0.29425 0.39706 0.31029
 N1555 N 0.29871 0.38607 0.31448
 C1556 C 0.30913 0.38080 0.30920
 N1557 N 0.31497 0.38694 0.29957
 N1558 N 0.31051 0.39796 0.29537
 C1559 C 0.29485 0.41517 0.29589
 N1560 N 0.30046 0.42143 0.28621
 N1561 N 0.29529 0.43192 0.28153
 C1562 C 0.28433 0.43654 0.28638
 N1563 N 0.27881 0.43034 0.29614
 N1564 N 0.28399 0.41988 0.30083
 C1565 C 0.27787 0.44732 0.28046
 N1566 N 0.26593 0.45041 0.28404
 N1567 N 0.25939 0.45913 0.27775
 C1568 C 0.26460 0.46523 0.26777
 N1569 N 0.27662 0.46232 0.26431
 N1570 N 0.28315 0.45354 0.27056
 C1571 C 0.30084 -0.09708 0.80049
 N1572 N 0.29495 -0.10312 0.81013
 N1573 N 0.29928 -0.11415 0.81437
 C1574 C 0.30964 -0.11958 0.80909
 N1575 N 0.31555 -0.11353 0.79945
 N1576 N 0.31122 -0.10248 0.79521
 C1577 C 0.29575 -0.08513 0.79559
 N1578 N 0.30151 -0.07901 0.78590
 N1579 N 0.29647 -0.06852 0.78106
 C1580 C 0.28550 -0.06377 0.78576
 N1581 N 0.27984 -0.06983 0.79553
 N1582 N 0.28488 -0.08029 0.80037
 C1583 C 0.27919 -0.05301 0.77966
 N1584 N 0.26723 -0.04986 0.78305
 N1585 N 0.26081 -0.04118 0.77661
 C1586 C 0.26617 -0.03517 0.76665
 N1587 N 0.27823 -0.03813 0.76337
 N1588 N 0.28464 -0.04689 0.76979
 C1589 C 0.80069 0.40320 0.80048
 N1590 N 0.79485 0.39735 0.81028
 N1591 N 0.79916 0.38637 0.81465
 C1592 C 0.80945 0.38080 0.80938
 N1593 N 0.81529 0.38666 0.79958
 N1594 N 0.81098 0.39764 0.79520
 C1595 C 0.79573 0.41515 0.79544
 N1596 N 0.80122 0.42068 0.78526
 N1597 N 0.79636 0.43118 0.78029
 C1598 C 0.78586 0.43655 0.78534
 N1599 N 0.78045 0.43109 0.79560
 N1600 N 0.78531 0.42059 0.80057
 C1601 C 0.77978 0.44736 0.77910
 N1602 N 0.76877 0.45217 0.78362
 N1603 N 0.76244 0.46091 0.77713
 C1604 C 0.76695 0.46523 0.76595
 N1605 N 0.77804 0.46057 0.76151
 N1606 N 0.78438 0.45184 0.76801
 C1607 C 0.80039 -0.09708 0.30039
 N1608 N 0.79443 -0.10309 0.31001
 N1609 N 0.79875 -0.11409 0.31433
 C1610 C 0.80917 -0.11952 0.30916
 N1611 N 0.81512 -0.11351 0.29952
 N1612 N 0.81080 -0.10250 0.29520
 C1613 C 0.79540 -0.08511 0.29545
 N1614 N 0.80110 -0.07921 0.28559
 N1615 N 0.79618 -0.06869 0.28072
 C1616 C 0.78540 -0.06366 0.28556
 N1617 N 0.77979 -0.06949 0.29550
 N1618 N 0.78471 -0.08000 0.30037
 C1619 C 0.77925 -0.05284 0.27940
 N1620 N 0.76768 -0.04887 0.28331
 N1621 N 0.76136 -0.04014 0.27681
 C1622 C 0.76644 -0.03494 0.26627
 N1623 N 0.77808 -0.03875 0.26246
 N1624 N 0.78440 -0.04751 0.26894
 C1625 C 0.30054 0.59656 0.69915
 N1626 N 0.31102 0.60185 0.70432
 N1627 N 0.31537 0.61288 0.70008
 C1628 C 0.30938 0.61902 0.69054
 N1629 N 0.29890 0.61374 0.68540
 N1630 N 0.29454 0.60273 0.68965
 C1631 C 0.29542 0.58462 0.70401
 N1632 N 0.28440 0.58001 0.69937
 N1633 N 0.27931 0.56956 0.70415
 C1634 C 0.28509 0.56325 0.71370
 N1635 N 0.29621 0.56776 0.71825
 N1636 N 0.30129 0.57826 0.71348
 C1637 C 0.27868 0.55255 0.71979
 N1638 N 0.28428 0.54599 0.72929
 N1639 N 0.27782 0.53731 0.73575
 C1640 C 0.26554 0.53489 0.73291
 N1641 N 0.26002 0.54132 0.72330
 N1642 N 0.26649 0.54991 0.71680
 C1643 C 0.30046 1.09705 0.19960
 N1644 N 0.31068 1.10262 0.20498
 N1645 N 0.31499 1.11363 0.20069
 C1646 C 0.30920 1.11950 0.19088
 N1647 N 0.29897 1.11395 0.18549
 N1648 N 0.29467 1.10293 0.18979
 C1649 C 0.29557 1.08505 0.20454
 N1650 N 0.28528 1.07951 0.19926
 N1651 N 0.28049 1.06894 0.20414
 C1652 C 0.28585 1.06351 0.21444
 N1653 N 0.29623 1.06896 0.21962
 N1654 N 0.30102 1.07952 0.21474
 C1655 C 0.27976 1.05269 0.22064
 N1656 N 0.28419 1.04828 0.23184
 N1657 N 0.27778 1.03958 0.23828
 C1658 C 0.26678 1.03486 0.23368
 N1659 N 0.26246 1.03910 0.22240
 N1660 N 0.26886 1.04782 0.21597
 C1661 C 0.80080 0.59649 0.19944
 N1662 N 0.81083 0.60225 0.20497
 N1663 N 0.81509 0.61327 0.20063
 C1664 C 0.80945 0.61894 0.19062
 N1665 N 0.79942 0.61318 0.18508
 N1666 N 0.79516 0.60217 0.18942
 C1667 C 0.79589 0.58454 0.20448
 N1668 N 0.78571 0.57888 0.19912
 N1669 N 0.78085 0.56840 0.20413
 C1670 C 0.78602 0.56319 0.21464
 N1671 N 0.79628 0.56879 0.21991
 N1672 N 0.80115 0.57925 0.21490
 C1673 C 0.77988 0.55247 0.22094
 N1674 N 0.78402 0.54844 0.23238
 N1675 N 0.77755 0.53980 0.23884
 C1676 C 0.76680 0.53475 0.23401
 N1677 N 0.76275 0.53863 0.22250
 N1678 N 0.76920 0.54730 0.21606
 C1679 C 0.80037 1.09691 0.69942
 N1680 N 0.81046 1.10255 0.70495
 N1681 N 0.81479 1.11356 0.70066
 C1682 C 0.80915 1.11935 0.69071
 N1683 N 0.79907 1.11369 0.68516
 N1684 N 0.79475 1.10268 0.68944
 C1685 C 0.79536 1.08497 0.70438
 N1686 N 0.78520 1.07938 0.69892
 N1687 N 0.78025 1.06889 0.70380
 C1688 C 0.78531 1.06359 0.71432
 N1689 N 0.79556 1.06909 0.71970
 N1690 N 0.80052 1.07957 0.71480
 C1691 C 0.77908 1.05281 0.72046
 N1692 N 0.78314 1.04867 0.73188
 N1693 N 0.77662 1.03998 0.73822
 C1694 C 0.76588 1.03501 0.73331
 N1695 N 0.76190 1.03899 0.72180
 N1696 N 0.76841 1.04771 0.71547
 C1697 C 0.69954 0.59655 0.30071
 N1698 N 0.70546 0.60262 0.31031
 N1699 N 0.70110 0.61361 0.31458
 C1700 C 0.69069 0.61898 0.30936
 N1701 N 0.68474 0.61292 0.29977
 N1702 N 0.68910 0.60190 0.29551
 C1703 C 0.70466 0.58464 0.29580
 N1704 N 0.69885 0.57845 0.28620
 N1705 N 0.70390 0.56796 0.28139
 C1706 C 0.71492 0.56328 0.28602
 N1707 N 0.72066 0.56942 0.29568
 N1708 N 0.71561 0.57988 0.30051
 C1709 C 0.72122 0.55253 0.27992
 N1710 N 0.73326 0.54950 0.28314
 N1711 N 0.73967 0.54087 0.27662
 C1712 C 0.73421 0.53482 0.26676
 N1713 N 0.72209 0.53765 0.26366
 N1714 N 0.71569 0.54635 0.27015
 C1715 C 0.69942 1.09682 0.80081
 N1716 N 0.70531 1.10278 0.81050
 N1717 N 0.70098 1.11376 0.81483
 C1718 C 0.69061 1.11923 0.80960
 N1719 N 0.68471 1.11326 0.79991
 N1720 N 0.68904 1.10226 0.79559
 C1721 C 0.70449 1.08489 0.79585
 N1722 N 0.69871 1.07880 0.78618
 N1723 N 0.70373 1.06832 0.78132
 C1724 C 0.71471 1.06355 0.78598
 N1725 N 0.72041 1.06959 0.79572
 N1726 N 0.71538 1.08004 0.80059
 C1727 C 0.72098 1.05279 0.77986
 N1728 N 0.73293 1.04953 0.78322
 N1729 N 0.73931 1.04087 0.77669
 C1730 C 0.73390 1.03500 0.76669
 N1731 N 0.72186 1.03807 0.76346
 N1732 N 0.71551 1.04679 0.76994
 C1733 C 0.19862 0.59645 0.80009
 N1734 N 0.20404 0.60163 0.81049
 N1735 N 0.19997 0.61268 0.81496
 C1736 C 0.19037 0.61893 0.80919
 N1737 N 0.18496 0.61374 0.79881
 N1738 N 0.18903 0.60272 0.79433
 C1739 C 0.20335 0.58451 0.79483
 N1740 N 0.19868 0.58008 0.78377
 N1741 N 0.20341 0.56965 0.77857
 C1742 C 0.21292 0.56320 0.78428
 N1743 N 0.21749 0.56754 0.79544
 N1744 N 0.21279 0.57801 0.80062
 C1745 C 0.21895 0.55250 0.77782
 N1746 N 0.22826 0.54572 0.78349
 N1747 N 0.23469 0.53700 0.77706
 C1748 C 0.23201 0.53475 0.76474
 N1749 N 0.22261 0.54142 0.75912
 N1750 N 0.21613 0.55005 0.76557
 C1751 C 0.19950 1.09661 0.30064
 N1752 N 0.20539 1.10264 0.31029
 N1753 N 0.20105 1.11365 0.31454
 C1754 C 0.19069 1.11907 0.30927
 N1755 N 0.18477 1.11304 0.29965
 N1756 N 0.18910 1.10201 0.29540
 C1757 C 0.20461 1.08471 0.29570
 N1758 N 0.19887 1.07862 0.28600
 N1759 N 0.20394 1.06818 0.28112
 C1760 C 0.21492 1.06345 0.28578
 N1761 N 0.22059 1.06948 0.29555
 N1762 N 0.21551 1.07989 0.30044
 C1763 C 0.22124 1.05272 0.27965
 N1764 N 0.23321 1.04956 0.28301
 N1765 N 0.23963 1.04093 0.27650
 C1766 C 0.23425 1.03500 0.26652
 N1767 N 0.22220 1.03798 0.26328
 N1768 N 0.21579 1.04667 0.26975
 C1769 C 0.69962 0.40337 0.69923
 N1770 N 0.68922 0.39801 0.70451
 N1771 N 0.68480 0.38704 0.70019
 C1772 C 0.69062 0.38105 0.69047
 N1773 N 0.70102 0.38641 0.68522
 N1774 N 0.70544 0.39735 0.68953
 C1775 C 0.70478 0.41527 0.70414
 N1776 N 0.71562 0.42008 0.69926
 N1777 N 0.72074 0.43050 0.70408
 C1778 C 0.71519 0.43654 0.71391
 N1779 N 0.70427 0.43182 0.71872
 N1780 N 0.69914 0.42138 0.71391
 C1781 C 0.72158 0.44728 0.71994
 N1782 N 0.71628 0.45331 0.72995
 N1783 N 0.72276 0.46203 0.73630
 C1784 C 0.73473 0.46507 0.73283
 N1785 N 0.73996 0.45917 0.72274
 N1786 N 0.73347 0.45051 0.71636
 C1787 C 0.69992 -0.09719 0.19963
 N1788 N 0.70562 -0.10308 0.18978
 N1789 N 0.70125 -0.11407 0.18552
 C1790 C 0.69103 -0.11959 0.19096
 N1791 N 0.68533 -0.11371 0.20081
 N1792 N 0.68971 -0.10271 0.20509
 C1793 C 0.70494 -0.08520 0.20446
 N1794 N 0.69962 -0.07951 0.21464
 N1795 N 0.70459 -0.06897 0.21938
 C1796 C 0.71502 -0.06369 0.21408
 N1797 N 0.72023 -0.06930 0.20381
 N1798 N 0.71527 -0.07984 0.19907
 C1799 C 0.72130 -0.05287 0.22009
 N1800 N 0.73241 -0.04841 0.21547
 N1801 N 0.73894 -0.03969 0.22176
 C1802 C 0.73453 -0.03503 0.23283
 N1803 N 0.72335 -0.03936 0.23738
 N1804 N 0.71681 -0.04807 0.23110
 C1805 C 0.19914 0.40364 0.19937
 N1806 N 0.20485 0.39801 0.18937
 N1807 N 0.20056 0.38706 0.18490
 C1808 C 0.19043 0.38133 0.19029
 N1809 N 0.18474 0.38695 0.20030
 N1810 N 0.18902 0.39789 0.20477
 C1811 C 0.20406 0.41555 0.20450
 N1812 N 0.19870 0.42087 0.21486
 N1813 N 0.20354 0.43133 0.21989
 C1814 C 0.21388 0.43689 0.21473
 N1815 N 0.21915 0.43166 0.20429
 N1816 N 0.21432 0.42119 0.19926
 C1817 C 0.21996 0.44765 0.22106
 N1818 N 0.23074 0.45278 0.21635
 N1819 N 0.23707 0.46149 0.22287
 C1820 C 0.23278 0.46545 0.23427
 N1821 N 0.22193 0.46044 0.23889
 N1822 N 0.21558 0.45176 0.23237
 C1823 C 0.19933 -0.09688 0.69990
 N1824 N 0.18944 -0.10284 0.70548
 N1825 N 0.18523 -0.11381 0.70101
 C1826 C 0.19079 -0.11926 0.69084
 N1827 N 0.20071 -0.11333 0.68528
 N1828 N 0.20492 -0.10234 0.68974
 C1829 C 0.20411 -0.08493 0.70505
 N1830 N 0.21388 -0.07878 0.69945
 N1831 N 0.21859 -0.06828 0.70454
 C1832 C 0.21371 -0.06355 0.71540
 N1833 N 0.20386 -0.06963 0.72092
 N1834 N 0.19912 -0.08010 0.71582
 C1835 C 0.21973 -0.05280 0.72175
 N1836 N 0.21633 -0.04968 0.73370
 N1837 N 0.22279 -0.04101 0.74012
 C1838 C 0.23275 -0.03499 0.73476
 N1839 N 0.23604 -0.03794 0.72274
 N1840 N 0.22962 -0.04667 0.71634
 C1841 C 0.30006 0.30045 0.40305
 N1842 N 0.31037 0.29505 0.39765
 N1843 N 0.31465 0.29914 0.38655
 C1844 C 0.30876 0.30876 0.38044
 N1845 N 0.29846 0.31416 0.38584
 N1846 N 0.29417 0.31007 0.39692
 C1847 C 0.29504 0.29572 0.41507
 N1848 N 0.28408 0.30043 0.41979
 N1849 N 0.27906 0.29566 0.43028
 C1850 C 0.28486 0.28607 0.43651
 N1851 N 0.29593 0.28147 0.43191
 N1852 N 0.30093 0.28622 0.42138
 C1853 C 0.27856 0.27997 0.44726
 N1854 N 0.28425 0.27042 0.45369
 N1855 N 0.27792 0.26396 0.46246
 C1856 C 0.26570 0.26685 0.46512
 N1857 N 0.26007 0.27647 0.45878
 N1858 N 0.26641 0.28297 0.45009
 C1859 C 0.30030 0.80045 -0.09724
 N1860 N 0.31029 0.79479 -0.10295
 N1861 N 0.31451 0.79895 -0.11405
 C1862 C 0.30885 0.80890 -0.11985
 N1863 N 0.29885 0.81456 -0.11414
 N1864 N 0.29464 0.81039 -0.10305
 C1865 C 0.29540 0.79564 -0.08519
 N1866 N 0.28510 0.80102 -0.07976
 N1867 N 0.28018 0.79621 -0.06923
 C1868 C 0.28540 0.78587 -0.06372
 N1869 N 0.29581 0.78059 -0.06906
 N1870 N 0.30073 0.78540 -0.07959
 C1871 C 0.27915 0.77978 -0.05294
 N1872 N 0.28371 0.76880 -0.04810
 N1873 N 0.27723 0.76249 -0.03935
 C1874 C 0.26602 0.76699 -0.03504
 N1875 N 0.26151 0.77802 -0.03978
 N1876 N 0.26800 0.78434 -0.04851
 C1877 C 0.79995 0.30105 -0.09693
 N1878 N 0.81005 0.29541 -0.10249
 N1879 N 0.81430 0.29947 -0.11361
 C1880 C 0.80858 0.30928 -0.11959
 N1881 N 0.79850 0.31492 -0.11402
 N1882 N 0.79425 0.31086 -0.10291
 C1883 C 0.79490 0.29633 -0.08492
 N1884 N 0.78424 0.30146 -0.07995
 N1885 N 0.77913 0.29671 -0.06949
 C1886 C 0.78453 0.28670 -0.06356
 N1887 N 0.79531 0.28168 -0.06841
 N1888 N 0.80040 0.28642 -0.07890
 C1889 C 0.77809 0.28067 -0.05286
 N1890 N 0.78325 0.27052 -0.04695
 N1891 N 0.77672 0.26420 -0.03823
 C1892 C 0.76482 0.26785 -0.03510
 N1893 N 0.75971 0.27805 -0.04093
 N1894 N 0.76625 0.28441 -0.04958
 C1895 C 0.79990 0.80106 0.40318
 N1896 N 0.81005 0.79547 0.39767
 N1897 N 0.81435 0.79956 0.38657
 C1898 C 0.80862 0.80936 0.38059
 N1899 N 0.79848 0.81494 0.38611
 N1900 N 0.79419 0.81085 0.39718
 C1901 C 0.79484 0.79633 0.41518
 N1902 N 0.78416 0.80143 0.42012
 N1903 N 0.77905 0.79668 0.43058
 C1904 C 0.78448 0.78671 0.43654
 N1905 N 0.79529 0.78173 0.43172
 N1906 N 0.80039 0.78646 0.42123
 C1907 C 0.77804 0.78068 0.44724
 N1908 N 0.78322 0.77055 0.45317
 N1909 N 0.77671 0.76424 0.46191
 C1910 C 0.76481 0.76789 0.46505
 N1911 N 0.75967 0.77806 0.45919
 N1912 N 0.76620 0.78440 0.45051
 C1913 C 0.69939 0.30005 0.59666
 N1914 N 0.70500 0.31019 0.60216
 N1915 N 0.70093 0.31450 0.61325
 C1916 C 0.69112 0.30881 0.61926
 N1917 N 0.68552 0.29869 0.61376
 N1918 N 0.68960 0.29438 0.60269
 C1919 C 0.70407 0.29498 0.58464
 N1920 N 0.69892 0.28433 0.57973
 N1921 N 0.70358 0.27924 0.56923
 C1922 C 0.71353 0.28464 0.56320
 N1923 N 0.71857 0.29541 0.56800
 N1924 N 0.71392 0.30050 0.57853
 C1925 C 0.71946 0.27820 0.55245
 N1926 N 0.72954 0.28335 0.54640
 N1927 N 0.73577 0.27682 0.53763
 C1928 C 0.73210 0.26492 0.53455
 N1929 N 0.72198 0.25982 0.54052
 N1930 N 0.71571 0.26637 0.54923
 C1931 C 0.69999 0.80104 1.09643
 N1932 N 0.70578 0.81065 1.10263
 N1933 N 0.70134 0.81471 1.11366
 C1934 C 0.69099 0.80928 1.11893
 N1935 N 0.68520 0.79966 1.11275
 N1936 N 0.68963 0.79560 1.10169
 C1937 C 0.70518 0.79638 1.08446
 N1938 N 0.69947 0.78684 1.07808
 N1939 N 0.70465 0.78219 1.06759
 C1940 C 0.71571 0.78692 1.06312
 N1941 N 0.72131 0.79657 1.06942
 N1942 N 0.71612 0.80124 1.07986
 C1943 C 0.72222 0.78093 1.05244
 N1944 N 0.73437 0.78407 1.04978
 N1945 N 0.74089 0.77769 1.04113
 C1946 C 0.73545 0.76808 1.03466
 N1947 N 0.72324 0.76503 1.03718
 N1948 N 0.71673 0.77136 1.04591
 C1949 C 0.19923 0.30027 1.09637
 N1950 N 0.18975 0.29433 1.10263
 N1951 N 0.18569 0.29866 1.11371
 C1952 C 0.19101 0.30905 1.11897
 N1953 N 0.20051 0.31500 1.11273
 N1954 N 0.20456 0.31068 1.10163
 C1955 C 0.20392 0.29519 1.08437
 N1956 N 0.21323 0.30116 1.07787
 N1957 N 0.21797 0.29608 1.06737
 C1958 C 0.21355 0.28486 1.06301
 N1959 N 0.20414 0.27899 1.06944
 N1960 N 0.19938 0.28408 1.07989
 C1961 C 0.21966 0.27849 1.05232
 N1962 N 0.21702 0.26619 1.04992
 N1963 N 0.22356 0.25982 1.04128
 C1964 C 0.23284 0.26557 1.03457
 N1965 N 0.23535 0.27795 1.03679
 N1966 N 0.22886 0.28430 1.04552
 C1967 C 0.19904 0.80053 0.59616
 N1968 N 0.20456 0.81073 0.60162
 N1969 N 0.20045 0.81502 0.61271
 C1970 C 0.19071 0.80925 0.61873
 N1971 N 0.18520 0.79906 0.61326
 N1972 N 0.18931 0.79476 0.60219
 C1973 C 0.20382 0.79546 0.58419
 N1974 N 0.19893 0.78464 0.57938
 N1975 N 0.20374 0.77954 0.56896
 C1976 C 0.21357 0.78511 0.56290
 N1977 N 0.21834 0.79605 0.56758
 N1978 N 0.21354 0.80114 0.57804
 C1979 C 0.21973 0.77867 0.55227
 N1980 N 0.22961 0.78408 0.54611
 N1981 N 0.23608 0.77760 0.53747
 C1982 C 0.23287 0.76551 0.53467
 N1983 N 0.22295 0.76015 0.54076
 N1984 N 0.21644 0.76664 0.54933
 C1985 C 0.30004 0.69938 0.59669
 N1986 N 0.29422 0.68970 0.60276
 N1987 N 0.29848 0.68563 0.61386
 C1988 C 0.30869 0.69113 0.61933
 N1989 N 0.31451 0.70081 0.61327
 N1990 N 0.31026 0.70488 0.60215
 C1991 C 0.29503 0.70408 0.58465
 N1992 N 0.30077 0.71374 0.57846
 N1993 N 0.29574 0.71847 0.56793
 C1994 C 0.28481 0.71368 0.56321
 N1995 N 0.27918 0.70392 0.56932
 N1996 N 0.28422 0.69918 0.57982
 C1997 C 0.27846 0.71973 0.55246
 N1998 N 0.26645 0.71640 0.54942
 N1999 N 0.26002 0.72283 0.54074
 C2000 C 0.26543 0.73271 0.53463
 N2001 N 0.27750 0.73595 0.53751
 N2002 N 0.28392 0.72955 0.54626
 C2003 C 0.30035 0.19908 1.09626
 N2004 N 0.31080 0.20437 1.10149
 N2005 N 0.31514 0.20031 1.11258
 C2006 C 0.30918 0.19083 1.11883
 N2007 N 0.29874 0.18555 1.11360
 N2008 N 0.29439 0.18962 1.10253
 C2009 C 0.29524 0.20379 1.08426
 N2010 N 0.28408 0.19929 1.07982
 N2011 N 0.27898 0.20405 1.06937
 C2012 C 0.28488 0.21340 1.06288
 N2013 N 0.29615 0.21777 1.06720
 N2014 N 0.30124 0.21304 1.07770
 C2015 C 0.27846 0.21955 1.05222
 N2016 N 0.28430 0.22866 1.04533
 N2017 N 0.27792 0.23520 1.03665
 C2018 C 0.26547 0.23285 1.03458
 N2019 N 0.25969 0.22366 1.04138
 N2020 N 0.26609 0.21707 1.04996
 C2021 C 0.80064 0.69992 1.09655
 N2022 N 0.81036 0.70567 1.10261
 N2023 N 0.81445 0.70134 1.11368
 C2024 C 0.80893 0.69115 1.11913
 N2025 N 0.79920 0.68539 1.11309
 N2026 N 0.79511 0.68971 1.10200
 C2027 C 0.79593 0.70499 1.08454
 N2028 N 0.78618 0.69938 1.07839
 N2029 N 0.78148 0.70445 1.06787
 C2030 C 0.78639 0.71530 1.06312
 N2031 N 0.79623 0.72082 1.06920
 N2032 N 0.80094 0.71575 1.07969
 C2033 C 0.78042 0.72171 1.05237
 N2034 N 0.78400 0.73361 1.04923
 N2035 N 0.77766 0.74012 1.04055
 C2036 C 0.76762 0.73492 1.03454
 N2037 N 0.76414 0.72294 1.03750
 N2038 N 0.77044 0.71643 1.04626
 C2039 C 0.80000 0.19900 0.59628
 N2040 N 0.79428 0.18931 0.60242
 N2041 N 0.79865 0.18529 0.61350
 C2042 C 0.80886 0.19085 0.61887
 N2043 N 0.81459 0.20056 0.61275
 N2044 N 0.81023 0.20457 0.60165
 C2045 C 0.79483 0.20365 0.58430
 N2046 N 0.80040 0.21336 0.57804
 N2047 N 0.79521 0.21803 0.56756
 C2048 C 0.78427 0.21313 0.56298
 N2049 N 0.77881 0.20332 0.56916
 N2050 N 0.78401 0.19864 0.57960
 C2051 C 0.77773 0.21910 0.55230
 N2052 N 0.76570 0.21570 0.54946
 N2053 N 0.75912 0.22204 0.54082
 C2054 C 0.76439 0.23188 0.53456
 N2055 N 0.77649 0.23519 0.53724
 N2056 N 0.78306 0.22890 0.54596
 C2057 C 0.69941 0.70005 0.40310
 N2058 N 0.70501 0.68989 0.39762
 N2059 N 0.70096 0.68559 0.38652
 C2060 C 0.69118 0.69131 0.38050
 N2061 N 0.68557 0.70145 0.38598
 N2062 N 0.68963 0.70575 0.39707
 C2063 C 0.70409 0.70511 0.41512
 N2064 N 0.69897 0.71579 0.42003
 N2065 N 0.70367 0.72088 0.43050
 C2066 C 0.71362 0.71545 0.43651
 N2067 N 0.71862 0.70465 0.43172
 N2068 N 0.71394 0.69956 0.42121
 C2069 C 0.71959 0.72187 0.44724
 N2070 N 0.72970 0.71669 0.45323
 N2071 N 0.73597 0.72321 0.46198
 C2072 C 0.73231 0.73510 0.46508
 N2073 N 0.72216 0.74023 0.45918
 N2074 N 0.71585 0.73370 0.45049
 C2075 C 0.69950 0.19983 -0.09705
 N2076 N 0.68973 0.20551 -0.10312
 N2077 N 0.68570 0.20117 -0.11420
 C2078 C 0.69132 0.19102 -0.11964
 N2079 N 0.70110 0.18533 -0.11358
 N2080 N 0.70513 0.18967 -0.10249
 C2081 C 0.70416 0.20495 -0.08504
 N2082 N 0.71399 0.19944 -0.07889
 N2083 N 0.71864 0.20459 -0.06840
 C2084 C 0.71363 0.21541 -0.06368
 N2085 N 0.70370 0.22081 -0.06975
 N2086 N 0.69903 0.21566 -0.08021
 C2087 C 0.71956 0.22189 -0.05295
 N2088 N 0.71589 0.23378 -0.04984
 N2089 N 0.72216 0.24034 -0.04115
 C2090 C 0.73221 0.23518 -0.03509
 N2091 N 0.73579 0.22322 -0.03805
 N2092 N 0.72956 0.21668 -0.04680
 C2093 C 0.19936 0.69990 -0.09680
 N2094 N 0.18955 0.70559 -0.10279
 N2095 N 0.18542 0.70125 -0.11383
 C2096 C 0.19096 0.69107 -0.11930
 N2097 N 0.20078 0.68537 -0.11333
 N2098 N 0.20492 0.68972 -0.10228
 C2099 C 0.20416 0.70499 -0.08484
 N2100 N 0.21419 0.69956 -0.07895
 N2101 N 0.21898 0.70465 -0.06851
 C2102 C 0.21391 0.71535 -0.06356
 N2103 N 0.20378 0.72067 -0.06936
 N2104 N 0.19898 0.71557 -0.07979
 C2105 C 0.21999 0.72174 -0.05286
 N2106 N 0.21584 0.73326 -0.04903
 N2107 N 0.22218 0.73976 -0.04035
 C2108 C 0.23281 0.73492 -0.03506
 N2109 N 0.23690 0.72335 -0.03878
 N2110 N 0.23057 0.71685 -0.04749
 C2111 C 0.19947 0.19977 0.40320
 N2112 N 0.20490 0.18949 0.39777
 N2113 N 0.20081 0.18525 0.38667
 C2114 C 0.19117 0.19115 0.38059
 N2115 N 0.18575 0.20142 0.38602
 N2116 N 0.18984 0.20567 0.39710
 C2117 C 0.20421 0.20477 0.41522
 N2118 N 0.19947 0.21571 0.41994
 N2119 N 0.20424 0.22072 0.43043
 C2120 C 0.21387 0.21494 0.43663
 N2121 N 0.21849 0.20389 0.43202
 N2122 N 0.21374 0.19889 0.42150
 C2123 C 0.21998 0.22125 0.44735
 N2124 N 0.22957 0.21560 0.45376
 N2125 N 0.23604 0.22194 0.46249
 C2126 C 0.23312 0.23415 0.46514
 N2127 N 0.22347 0.23975 0.45882
 N2128 N 0.21696 0.23339 0.45016
 C2129 C 0.30015 0.40332 0.69902
 N2130 N 0.29415 0.39719 0.68951
 N2131 N 0.29850 0.38619 0.68524
 C2132 C 0.30900 0.38088 0.69036
 N2133 N 0.31502 0.38701 0.69986
 N2134 N 0.31067 0.39803 0.70413
 C2135 C 0.29504 0.41526 0.70394
 N2136 N 0.30094 0.42153 0.71343
 N2137 N 0.29592 0.43203 0.71824
 C2138 C 0.28481 0.43665 0.71372
 N2139 N 0.27899 0.43043 0.70416
 N2140 N 0.28403 0.41996 0.69934
 C2141 C 0.27856 0.44745 0.71984
 N2142 N 0.26653 0.45059 0.71667
 N2143 N 0.26022 0.45929 0.72321
 C2144 C 0.26578 0.46532 0.73304
 N2145 N 0.27789 0.46235 0.73608
 N2146 N 0.28418 0.45359 0.72958
 C2147 C 0.30056 0.90368 0.19884
 N2148 N 0.29483 0.89780 0.18901
 N2149 N 0.29920 0.88681 0.18472
 C2150 C 0.30944 0.88129 0.19011
 N2151 N 0.31520 0.88717 0.19993
 N2152 N 0.31083 0.89817 0.20422
 C2153 C 0.29548 0.91558 0.20382
 N2154 N 0.30093 0.92127 0.21392
 N2155 N 0.29590 0.93171 0.21884
 C2156 C 0.28527 0.93685 0.21383
 N2157 N 0.27990 0.93123 0.20365
 N2158 N 0.28492 0.92080 0.19872
 C2159 C 0.27900 0.94756 0.22002
 N2160 N 0.26767 0.95183 0.21573
 N2161 N 0.26121 0.96049 0.22217
 C2162 C 0.26590 0.96529 0.23307
 N2163 N 0.27730 0.96117 0.23728
 N2164 N 0.28376 0.95250 0.23084
 C2165 C 0.80039 0.40349 0.19905
 N2166 N 0.79461 0.39761 0.18925
 N2167 N 0.79895 0.38663 0.18493
 C2168 C 0.80922 0.38110 0.19028
 N2169 N 0.81501 0.38697 0.20008
 N2170 N 0.81066 0.39796 0.20440
 C2171 C 0.79537 0.41543 0.20400
 N2172 N 0.80079 0.42108 0.21413
 N2173 N 0.79580 0.43156 0.21902
 C2174 C 0.78524 0.43678 0.21392
 N2175 N 0.77992 0.43120 0.20369
 N2176 N 0.78490 0.42073 0.19881
 C2177 C 0.77896 0.44749 0.22010
 N2178 N 0.76778 0.45195 0.21563
 N2179 N 0.76128 0.46060 0.22206
 C2180 C 0.76580 0.46519 0.23312
 N2181 N 0.77704 0.46087 0.23751
 N2182 N 0.78354 0.45222 0.23108
 C2183 C 0.80079 0.90366 0.69972
 N2184 N 0.79522 0.89823 0.68954
 N2185 N 0.79941 0.88723 0.68509
 C2186 C 0.80931 0.88126 0.69066
 N2187 N 0.81488 0.88669 0.70083
 N2188 N 0.81068 0.89768 0.70529
 C2189 C 0.79599 0.91561 0.70488
 N2190 N 0.80091 0.92040 0.71569
 N2191 N 0.79615 0.93087 0.72077
 C2192 C 0.78637 0.93701 0.71519
 N2193 N 0.78155 0.93232 0.70428
 N2194 N 0.78629 0.92181 0.69921
 C2195 C 0.78031 0.94775 0.72155
 N2196 N 0.77054 0.95402 0.71607
 N2197 N 0.76409 0.96273 0.72248
 C2198 C 0.76720 0.96549 0.73459
 N2199 N 0.77706 0.95933 0.74001
 N2200 N 0.78355 0.95070 0.73358
 C2201 C 0.69927 0.59678 0.69951
 N2202 N 0.70510 0.60255 0.68966
 N2203 N 0.70089 0.61359 0.68531
 C2204 C 0.69073 0.61928 0.69068
 N2205 N 0.68488 0.61350 0.70052
 N2206 N 0.68909 0.60246 0.70487
 C2207 C 0.70418 0.58481 0.70456
 N2208 N 0.69873 0.57933 0.71479
 N2209 N 0.70359 0.56883 0.71977
 C2210 C 0.71405 0.56340 0.71467
 N2211 N 0.71941 0.56881 0.70436
 N2212 N 0.71455 0.57931 0.69939
 C2213 C 0.72014 0.55259 0.72092
 N2214 N 0.73111 0.54772 0.71634
 N2215 N 0.73747 0.53900 0.72282
 C2216 C 0.73304 0.53475 0.73406
 N2217 N 0.72200 0.53948 0.73856
 N2218 N 0.71563 0.54818 0.73207
 C2219 C 0.69933 0.09671 0.19991
 N2220 N 0.70489 0.10211 0.18969
 N2221 N 0.70075 0.11316 0.18527
 C2222 C 0.69093 0.11919 0.19091
 N2223 N 0.68538 0.11379 0.20111
 N2224 N 0.68953 0.10277 0.20555
 C2225 C 0.70402 0.08472 0.20507
 N2226 N 0.69912 0.08008 0.21596
 N2227 N 0.70373 0.06955 0.22107
 C2228 C 0.71334 0.06320 0.21543
 N2229 N 0.71814 0.06774 0.20444
 N2230 N 0.71355 0.07831 0.19934
 C2231 C 0.71929 0.05242 0.22184
 N2232 N 0.72882 0.04587 0.21627
 N2233 N 0.73522 0.03713 0.22269
 C2234 C 0.73229 0.03461 0.23490
 N2235 N 0.72267 0.04104 0.24042
 N2236 N 0.71621 0.04971 0.23397
 C2237 C 0.19947 0.59664 0.19886
 N2238 N 0.20537 0.60274 0.18925
 N2239 N 0.20098 0.61373 0.18498
 C2240 C 0.19055 0.61906 0.19020
 N2241 N 0.18462 0.61296 0.19980
 N2242 N 0.18901 0.60195 0.20406
 C2243 C 0.20466 0.58473 0.20375
 N2244 N 0.19893 0.57844 0.21335
 N2245 N 0.20410 0.56799 0.21814
 C2246 C 0.21517 0.56345 0.21348
 N2247 N 0.22081 0.56968 0.20381
 N2248 N 0.21564 0.58009 0.19901
 C2249 C 0.22165 0.55274 0.21951
 N2250 N 0.23377 0.55002 0.21633
 N2251 N 0.24032 0.54141 0.22274
 C2252 C 0.23493 0.53504 0.23246
 N2253 N 0.22272 0.53755 0.23550
 N2254 N 0.21618 0.54625 0.22913
 C2255 C 0.19946 0.09614 0.69913
 N2256 N 0.20507 0.10197 0.68919
 N2257 N 0.20066 0.11295 0.68490
 C2258 C 0.19051 0.11853 0.69041
 N2259 N 0.18487 0.11269 0.70033
 N2260 N 0.18928 0.10170 0.70462
 C2261 C 0.20463 0.08427 0.70413
 N2262 N 0.19941 0.07872 0.71443
 N2263 N 0.20449 0.06830 0.71934
 C2264 C 0.21495 0.06301 0.71411
 N2265 N 0.22009 0.06849 0.70372
 N2266 N 0.21501 0.07892 0.69881
 C2267 C 0.22125 0.05228 0.72026
 N2268 N 0.23229 0.04765 0.71561
 N2269 N 0.23880 0.03896 0.72199
 C2270 C 0.23445 0.03452 0.73319
 N2271 N 0.22334 0.03902 0.73775
 N2272 N 0.21682 0.04769 0.73137
 C2273 C 0.30106 0.59677 0.29973
 N2274 N 0.31088 0.60286 0.29416
 N2275 N 0.31501 0.61384 0.29868
 C2276 C 0.30943 0.61918 0.30890
 N2277 N 0.29965 0.61307 0.31452
 N2278 N 0.29554 0.60206 0.31002
 C2279 C 0.29635 0.58482 0.29448
 N2280 N 0.28673 0.57847 0.30011
 N2281 N 0.28215 0.56793 0.29497
 C2282 C 0.28703 0.56337 0.28403
 N2283 N 0.29671 0.56967 0.27848
 N2284 N 0.30132 0.58017 0.28363
 C2285 C 0.28117 0.55255 0.27762
 N2286 N 0.28448 0.54969 0.26559
 N2287 N 0.27809 0.54102 0.25910
 C2288 C 0.26829 0.53476 0.26447
 N2289 N 0.26515 0.53740 0.27660
 N2290 N 0.27149 0.54613 0.28308
 C2291 C 0.30002 0.09677 0.80042
 N2292 N 0.29407 0.10295 0.80994
 N2293 N 0.29845 0.11397 0.81412
 C2294 C 0.30890 0.11925 0.80890
 N2295 N 0.31486 0.11308 0.79938
 N2296 N 0.31049 0.10204 0.79520
 C2297 C 0.29499 0.08476 0.79565
 N2298 N 0.30091 0.07850 0.78615
 N2299 N 0.29599 0.06793 0.78142
 C2300 C 0.28499 0.06321 0.78605
 N2301 N 0.27915 0.06940 0.79563
 N2302 N 0.28408 0.07995 0.80037
 C2303 C 0.27883 0.05235 0.78000
 N2304 N 0.26685 0.04914 0.78328
 N2305 N 0.26055 0.04042 0.77679
 C2306 C 0.26605 0.03444 0.76690
 N2307 N 0.27812 0.03747 0.76374
 N2308 N 0.28441 0.04625 0.77020
 C2309 C 0.80042 0.59659 0.80076
 N2310 N 0.81087 0.60188 0.79552
 N2311 N 0.81527 0.61289 0.79974
 C2312 C 0.80935 0.61901 0.80933
 N2313 N 0.79893 0.61370 0.81458
 N2314 N 0.79454 0.60271 0.81036
 C2315 C 0.79523 0.58469 0.79587
 N2316 N 0.78433 0.57996 0.80068
 N2317 N 0.77921 0.56953 0.79588
 C2318 C 0.78483 0.56339 0.78614
 N2319 N 0.79582 0.56804 0.78141
 N2320 N 0.80094 0.57850 0.78620
 C2321 C 0.77843 0.55267 0.78010
 N2322 N 0.78379 0.54655 0.77018
 N2323 N 0.77731 0.53783 0.76381
 C2324 C 0.76528 0.53489 0.76718
 N2325 N 0.76000 0.54089 0.77718
 N2326 N 0.76649 0.54955 0.78358
 C2327 C 0.80078 0.09619 0.30072
 N2328 N 0.79494 0.10220 0.31041
 N2329 N 0.79933 0.11315 0.31473
 C2330 C 0.80971 0.11854 0.30949
 N2331 N 0.81558 0.11255 0.29979
 N2332 N 0.81119 0.10157 0.29547
 C2333 C 0.79560 0.08432 0.29578
 N2334 N 0.80133 0.07811 0.28613
 N2335 N 0.79619 0.06767 0.28131
 C2336 C 0.78515 0.06308 0.28598
 N2337 N 0.77950 0.06924 0.29569
 N2338 N 0.78465 0.07963 0.30052
 C2339 C 0.77873 0.05237 0.27993
 N2340 N 0.76662 0.04958 0.28309
 N2341 N 0.76015 0.04095 0.27665
 C2342 C 0.76561 0.03464 0.26693
 N2343 N 0.77781 0.03723 0.26390
 N2344 N 0.78427 0.04595 0.27030
 C2345 C 0.69944 0.40333 0.30061
 N2346 N 0.70544 0.39717 0.31012
 N2347 N 0.70110 0.38615 0.31436
 C2348 C 0.69063 0.38086 0.30920
 N2349 N 0.68466 0.38697 0.29964
 N2350 N 0.68900 0.39801 0.29541
 C2351 C 0.70452 0.41529 0.29575
 N2352 N 0.69871 0.42151 0.28616
 N2353 N 0.70376 0.43201 0.28136
 C2354 C 0.71478 0.43667 0.28600
 N2355 N 0.72050 0.43050 0.29567
 N2356 N 0.71545 0.42003 0.30048
 C2357 C 0.72109 0.44742 0.27988
 N2358 N 0.73304 0.45064 0.28325
 N2359 N 0.73943 0.45929 0.27673
 C2360 C 0.73404 0.46519 0.26672
 N2361 N 0.72202 0.46215 0.26346
 N2362 N 0.71564 0.45344 0.26995
 C2363 C 0.69928 0.90368 0.80076
 N2364 N 0.70524 0.89755 0.81031
 N2365 N 0.70088 0.88656 0.81458
 C2366 C 0.69042 0.88125 0.80942
 N2367 N 0.68443 0.88738 0.79988
 N2368 N 0.68879 0.89839 0.79561
 C2369 C 0.70442 0.91559 0.79586
 N2370 N 0.69854 0.92195 0.78639
 N2371 N 0.70362 0.93244 0.78160
 C2372 C 0.71475 0.93694 0.78612
 N2373 N 0.72056 0.93063 0.79565
 N2374 N 0.71547 0.92019 0.80045
 C2375 C 0.72113 0.94766 0.78005
 N2376 N 0.73334 0.95027 0.78297
 N2377 N 0.73978 0.95889 0.77648
 C2378 C 0.73421 0.96538 0.76695
 N2379 N 0.72191 0.96299 0.76417
 N2380 N 0.71547 0.95428 0.77062
 C2381 C 0.19945 0.40350 0.80065
 N2382 N 0.20509 0.39763 0.81055
 N2383 N 0.20068 0.38666 0.81485
 C2384 C 0.19048 0.38114 0.80939
 N2385 N 0.18484 0.38699 0.79948
 N2386 N 0.18926 0.39797 0.79517
 C2387 C 0.20458 0.41542 0.79574
 N2388 N 0.19932 0.42110 0.78552
 N2389 N 0.20441 0.43156 0.78070
 C2390 C 0.21490 0.43675 0.78595
 N2391 N 0.22007 0.43113 0.79625
 N2392 N 0.21499 0.42068 0.80107
 C2393 C 0.22125 0.44751 0.77990
 N2394 N 0.23239 0.45193 0.78450
 N2395 N 0.23894 0.46063 0.77819
 C2396 C 0.23453 0.46530 0.76711
 N2397 N 0.22333 0.46101 0.76259
 N2398 N 0.21677 0.45232 0.76890
 C2399 C 0.19944 0.90344 0.30044
 N2400 N 0.18902 0.89808 0.29522
 N2401 N 0.18467 0.88707 0.29949
 C2402 C 0.19060 0.88101 0.30911
 N2403 N 0.20099 0.88638 0.31435
 N2404 N 0.20534 0.89738 0.31007
 C2405 C 0.20454 0.91536 0.29551
 N2406 N 0.21540 0.92020 0.30029
 N2407 N 0.22043 0.93066 0.29545
 C2408 C 0.21476 0.93672 0.28568
 N2409 N 0.20381 0.93196 0.28097
 N2410 N 0.19879 0.92147 0.28581
 C2411 C 0.22103 0.94750 0.27957
 N2412 N 0.21568 0.95337 0.26951
 N2413 N 0.22206 0.96211 0.26307
 C2414 C 0.23399 0.96533 0.26651
 N2415 N 0.23928 0.95957 0.27665
 N2416 N 0.23288 0.95088 0.28312
 C2417 C 0.40340 0.30056 0.69913
 N2418 N 0.39805 0.31102 0.70428
 N2419 N 0.38703 0.31538 0.69997
 C2420 C 0.38098 0.30942 0.69038
 N2421 N 0.38635 0.29899 0.68522
 N2422 N 0.39734 0.29463 0.68953
 C2423 C 0.41531 0.29540 0.70408
 N2424 N 0.41996 0.28440 0.69943
 N2425 N 0.43040 0.27928 0.70425
 C2426 C 0.43665 0.28500 0.71385
 N2427 N 0.43209 0.29609 0.71843
 N2428 N 0.42161 0.30121 0.71363
 C2429 C 0.44737 0.27859 0.71992
 N2430 N 0.45389 0.28414 0.72947
 N2431 N 0.46261 0.27767 0.73589
 C2432 C 0.46511 0.26543 0.73296
 N2433 N 0.45872 0.25996 0.72332
 N2434 N 0.45009 0.26644 0.71686
 C2435 C 0.40341 0.80046 0.19881
 N2436 N 0.39814 0.81089 0.20411
 N2437 N 0.38710 0.81533 0.19993
 C2438 C 0.38096 0.80949 0.19033
 N2439 N 0.38626 0.79910 0.18502
 N2440 N 0.39727 0.79466 0.18919
 C2441 C 0.41531 0.79519 0.20364
 N2442 N 0.41993 0.78425 0.19882
 N2443 N 0.43035 0.77903 0.20356
 C2444 C 0.43660 0.78459 0.21326
 N2445 N 0.43207 0.79562 0.21801
 N2446 N 0.42161 0.80083 0.21328
 C2447 C 0.44730 0.77807 0.21924
 N2448 N 0.45382 0.78349 0.22886
 N2449 N 0.46253 0.77693 0.23518
 C2450 C 0.46501 0.76473 0.23209
 N2451 N 0.45861 0.75939 0.22239
 N2452 N 0.44999 0.76597 0.21601
 C2453 C 0.90311 0.30038 0.19912
 N2454 N 0.89701 0.29444 0.18956
 N2455 N 0.88599 0.29879 0.18530
 C2456 C 0.88065 0.30923 0.19049
 N2457 N 0.88673 0.31517 0.20007
 N2458 N 0.89776 0.31082 0.20432
 C2459 C 0.91509 0.29533 0.20400
 N2460 N 0.92111 0.30104 0.21376
 N2461 N 0.93164 0.29606 0.21857
 C2462 C 0.93654 0.28521 0.21377
 N2463 N 0.93058 0.27960 0.20392
 N2464 N 0.92007 0.28458 0.19910
 C2465 C 0.94731 0.27897 0.21991
 N2466 N 0.95109 0.26733 0.21606
 N2467 N 0.95978 0.26093 0.22253
 C2468 C 0.96511 0.26598 0.23301
 N2469 N 0.96148 0.27769 0.23677
 N2470 N 0.95277 0.28409 0.23031
 C2471 C 0.90306 0.80062 0.69953
 N2472 N 0.89736 0.79503 0.68951
 N2473 N 0.88633 0.79932 0.68521
 C2474 C 0.88059 0.80935 0.69077
 N2475 N 0.88628 0.81494 0.70079
 N2476 N 0.89730 0.81063 0.70511
 C2477 C 0.91506 0.79569 0.70448
 N2478 N 0.92026 0.80069 0.71506
 N2479 N 0.93080 0.79581 0.71994
 C2480 C 0.93658 0.78580 0.71437
 N2481 N 0.93147 0.78090 0.70370
 N2482 N 0.92091 0.78576 0.69884
 C2483 C 0.94740 0.77963 0.72052
 N2484 N 0.95305 0.76939 0.71522
 N2485 N 0.96181 0.76289 0.72153
 C2486 C 0.96527 0.76643 0.73333
 N2487 N 0.95974 0.77675 0.73856
 N2488 N 0.95104 0.78328 0.73224
 C2489 C 0.59633 0.30070 0.30065
 N2490 N 0.60248 0.29472 0.31018
 N2491 N 0.61347 0.29907 0.31445
 C2492 C 0.61877 0.30955 0.30931
 N2493 N 0.61266 0.31552 0.29974
 N2494 N 0.60164 0.31117 0.29548
 C2495 C 0.58443 0.29554 0.29575
 N2496 N 0.57801 0.30143 0.28633
 N2497 N 0.56756 0.29629 0.28152
 C2498 C 0.56317 0.28508 0.28597
 N2499 N 0.56954 0.27927 0.29544
 N2500 N 0.57995 0.28442 0.30027
 C2501 C 0.55249 0.27866 0.27985
 N2502 N 0.55011 0.26635 0.28253
 N2503 N 0.54154 0.25992 0.27597
 C2504 C 0.53487 0.26560 0.26662
 N2505 N 0.53703 0.27799 0.26410
 N2506 N 0.54570 0.28441 0.27061
 C2507 C 0.59654 0.80052 0.80076
 N2508 N 0.60265 0.79463 0.81037
 N2509 N 0.61364 0.79902 0.81462
 C2510 C 0.61896 0.80945 0.80939
 N2511 N 0.61285 0.81537 0.79979
 N2512 N 0.60184 0.81098 0.79554
 C2513 C 0.58463 0.79537 0.79586
 N2514 N 0.57847 0.80108 0.78616
 N2515 N 0.56799 0.79600 0.78136
 C2516 C 0.56329 0.78504 0.78610
 N2517 N 0.56939 0.77942 0.79587
 N2518 N 0.57984 0.78450 0.80068
 C2519 C 0.55254 0.77870 0.78006
 N2520 N 0.54930 0.76682 0.78362
 N2521 N 0.54064 0.76034 0.77721
 C2522 C 0.53477 0.76557 0.76711
 N2523 N 0.53783 0.77754 0.76365
 N2524 N 0.54654 0.78400 0.77003
 C2525 C 0.09654 0.30044 0.80062
 N2526 N 0.10265 0.29452 0.81022
 N2527 N 0.11365 0.29889 0.81447
 C2528 C 0.11898 0.30932 0.80926
 N2529 N 0.11289 0.31524 0.79965
 N2530 N 0.10188 0.31087 0.79540
 C2531 C 0.08459 0.29535 0.79574
 N2532 N 0.07846 0.30110 0.78605
 N2533 N 0.06797 0.29607 0.78124
 C2534 C 0.06322 0.28513 0.78595
 N2535 N 0.06928 0.27947 0.79573
 N2536 N 0.07975 0.28450 0.80055
 C2537 C 0.05246 0.27885 0.77983
 N2538 N 0.04902 0.26702 0.78339
 N2539 N 0.04035 0.26064 0.77688
 C2540 C 0.03469 0.26592 0.76668
 N2541 N 0.03797 0.27782 0.76322
 N2542 N 0.04668 0.28419 0.76970
 C2543 C 0.09652 0.80059 0.30051
 N2544 N 0.10252 0.79477 0.31023
 N2545 N 0.11353 0.79911 0.31449
 C2546 C 0.11897 0.80941 0.30916
 N2547 N 0.11298 0.81527 0.29946
 N2548 N 0.10196 0.81092 0.29520
 C2549 C 0.08460 0.79550 0.29558
 N2550 N 0.07868 0.80107 0.28566
 N2551 N 0.06821 0.79603 0.28081
 C2552 C 0.06326 0.78527 0.28572
 N2553 N 0.06911 0.77978 0.29571
 N2554 N 0.07957 0.78481 0.30057
 C2555 C 0.05249 0.77898 0.27961
 N2556 N 0.04862 0.76744 0.28364
 N2557 N 0.03993 0.76099 0.27722
 C2558 C 0.03468 0.76593 0.26664
 N2559 N 0.03839 0.77755 0.26270
 N2560 N 0.04710 0.78399 0.26911
 C2561 C 0.59655 0.69933 0.69953
 N2562 N 0.60227 0.70510 0.68962
 N2563 N 0.61329 0.70086 0.68523
 C2564 C 0.61898 0.69070 0.69060
 N2565 N 0.61325 0.68491 0.70049
 N2566 N 0.60224 0.68915 0.70489
 C2567 C 0.58460 0.70427 0.70461
 N2568 N 0.57908 0.69882 0.71481
 N2569 N 0.56859 0.70372 0.71979
 C2570 C 0.56323 0.71422 0.71473
 N2571 N 0.56869 0.71959 0.70445
 N2572 N 0.57917 0.71469 0.69947
 C2573 C 0.55243 0.72035 0.72096
 N2574 N 0.54780 0.73147 0.71651
 N2575 N 0.53909 0.73785 0.72299
 C2576 C 0.53460 0.73328 0.73408
 N2577 N 0.53908 0.72209 0.73844
 N2578 N 0.54778 0.71570 0.73196
 C2579 C 0.59682 0.19885 0.19981
 N2580 N 0.60207 0.20421 0.18942
 N2581 N 0.61311 0.20007 0.18498
 C2582 C 0.61929 0.19043 0.19078
 N2583 N 0.61403 0.18508 0.20116
 N2584 N 0.60302 0.18923 0.20561
 C2585 C 0.58484 0.20357 0.20498
 N2586 N 0.58043 0.19902 0.21611
 N2587 N 0.56992 0.20369 0.22122
 C2588 C 0.56336 0.21301 0.21533
 N2589 N 0.56768 0.21745 0.20411
 N2590 N 0.57823 0.21282 0.19902
 C2591 C 0.55261 0.21906 0.22169
 N2592 N 0.54573 0.22817 0.21582
 N2593 N 0.53700 0.23471 0.22214
 C2594 C 0.53487 0.23236 0.23455
 N2595 N 0.54163 0.22314 0.24036
 N2596 N 0.55026 0.21654 0.23402
 C2597 C 0.09641 0.69955 0.19894
 N2598 N 0.10237 0.70540 0.18922
 N2599 N 0.11335 0.70103 0.18487
 C2600 C 0.11879 0.69068 0.19011
 N2601 N 0.11284 0.68481 0.19983
 N2602 N 0.10185 0.68917 0.20418
 C2603 C 0.08449 0.70463 0.20392
 N2604 N 0.07853 0.69897 0.21375
 N2605 N 0.06806 0.70400 0.21864
 C2606 C 0.06317 0.71486 0.21385
 N2607 N 0.06907 0.72043 0.20393
 N2608 N 0.07952 0.71540 0.19904
 C2609 C 0.05242 0.72114 0.22000
 N2610 N 0.04877 0.73285 0.21624
 N2611 N 0.04011 0.73927 0.22273
 C2612 C 0.03466 0.73414 0.23312
 N2613 N 0.03813 0.72235 0.23677
 N2614 N 0.04683 0.71594 0.23030
 C2615 C 0.09663 0.19951 0.69914
 N2616 N 0.10269 0.20526 0.68942
 N2617 N 0.11370 0.20084 0.68522
 C2618 C 0.11908 0.19051 0.69060
 N2619 N 0.11302 0.18472 0.70030
 N2620 N 0.10199 0.18916 0.70451
 C2621 C 0.08471 0.20470 0.70402
 N2622 N 0.07876 0.19922 0.71396
 N2623 N 0.06830 0.20434 0.71877
 C2624 C 0.06339 0.21510 0.71379
 N2625 N 0.06929 0.22051 0.70378
 N2626 N 0.07973 0.21539 0.69896
 C2627 C 0.05263 0.22145 0.71985
 N2628 N 0.04877 0.23299 0.71576
 N2629 N 0.04006 0.23947 0.72213
 C2630 C 0.03479 0.23459 0.73273
 N2631 N 0.03850 0.22298 0.73672
 N2632 N 0.04722 0.21650 0.73037
 C2633 C 0.40321 0.69880 0.29976
 N2634 N 0.39712 0.68900 0.29417
 N2635 N 0.38612 0.68487 0.29868
 C2636 C 0.38078 0.69042 0.30891
 N2637 N 0.38689 0.70017 0.31455
 N2638 N 0.39791 0.70429 0.31005
 C2639 C 0.41515 0.70353 0.29450
 N2640 N 0.42153 0.71311 0.30015
 N2641 N 0.43206 0.71772 0.29500
 C2642 C 0.43660 0.71289 0.28403
 N2643 N 0.43028 0.70324 0.27846
 N2644 N 0.41979 0.69861 0.28362
 C2645 C 0.44740 0.71876 0.27759
 N2646 N 0.45017 0.71553 0.26551
 N2647 N 0.45882 0.72192 0.25900
 C2648 C 0.46517 0.73165 0.26438
 N2649 N 0.46264 0.73471 0.27655
 N2650 N 0.45391 0.72837 0.28306
 C2651 C 0.40346 0.19865 0.79999
 N2652 N 0.39805 0.20419 0.81021
 N2653 N 0.38705 0.20000 0.81468
 C2654 C 0.38106 0.19013 0.80910
 N2655 N 0.38647 0.18460 0.79890
 N2656 N 0.39746 0.18880 0.79441
 C2657 C 0.41539 0.20343 0.79477
 N2658 N 0.42008 0.19853 0.78391
 N2659 N 0.43053 0.20324 0.77873
 C2660 C 0.43675 0.21297 0.78427
 N2661 N 0.43216 0.21779 0.79523
 N2662 N 0.42166 0.21310 0.80039
 C2663 C 0.44752 0.21892 0.77785
 N2664 N 0.45397 0.22853 0.78336
 N2665 N 0.46271 0.23491 0.77692
 C2666 C 0.46532 0.23189 0.76475
 N2667 N 0.45899 0.22218 0.75930
 N2668 N 0.45033 0.21575 0.76576
 C2669 C 0.90355 0.69962 0.80076
 N2670 N 0.89835 0.68909 0.79561
 N2671 N 0.88735 0.68465 0.79986
 C2672 C 0.88117 0.69059 0.80939
 N2673 N 0.88640 0.70108 0.81456
 N2674 N 0.89737 0.70552 0.81030
 C2675 C 0.91543 0.70486 0.79585
 N2676 N 0.91989 0.71599 0.80039
 N2677 N 0.93031 0.72115 0.79559
 C2678 C 0.93672 0.71535 0.78613
 N2679 N 0.93235 0.70414 0.78168
 N2680 N 0.92189 0.69899 0.78646
 C2681 C 0.94745 0.72175 0.78007
 N2682 N 0.95421 0.71600 0.77081
 N2683 N 0.96295 0.72239 0.76436
 C2684 C 0.96524 0.73473 0.76697
 N2685 N 0.95860 0.74042 0.77633
 N2686 N 0.94994 0.73401 0.78283
 C2687 C 0.90326 0.19958 0.30055
 N2688 N 0.89795 0.18914 0.29532
 N2689 N 0.88694 0.18474 0.29958
 C2690 C 0.88085 0.19062 0.30920
 N2691 N 0.88616 0.20105 0.31442
 N2692 N 0.89715 0.20545 0.31016
 C2693 C 0.91519 0.20471 0.29564
 N2694 N 0.92006 0.21553 0.30049
 N2695 N 0.93051 0.22059 0.29565
 C2696 C 0.93653 0.21500 0.28582
 N2697 N 0.93175 0.20409 0.28106
 N2698 N 0.92128 0.19903 0.28590
 C2699 C 0.94729 0.22129 0.27970
 N2700 N 0.95296 0.21607 0.26945
 N2701 N 0.96168 0.22247 0.26301
 C2702 C 0.96511 0.23427 0.26664
 N2703 N 0.95957 0.23942 0.27697
 N2704 N 0.95088 0.23302 0.28343
 C2705 C 0.29998 0.30054 0.59661
 N2706 N 0.31028 0.29513 0.60203
 N2707 N 0.31455 0.29922 0.61313
 C2708 C 0.30865 0.30885 0.61921
 N2709 N 0.29836 0.31425 0.61379
 N2710 N 0.29408 0.31015 0.60271
 C2711 C 0.29497 0.29581 0.58459
 N2712 N 0.28400 0.30051 0.57989
 N2713 N 0.27898 0.29574 0.56940
 C2714 C 0.28478 0.28615 0.56318
 N2715 N 0.29587 0.28157 0.56777
 N2716 N 0.30087 0.28632 0.57829
 C2717 C 0.27847 0.28004 0.55246
 N2718 N 0.28416 0.27052 0.54601
 N2719 N 0.27782 0.26405 0.53727
 C2720 C 0.26558 0.26690 0.53468
 N2721 N 0.25994 0.27648 0.54105
 N2722 N 0.26630 0.28300 0.54970
 C2723 C 0.30074 0.80023 0.09646
 N2724 N 0.31042 0.79443 0.10256
 N2725 N 0.31448 0.79872 0.11365
 C2726 C 0.30897 0.80894 0.11907
 N2727 N 0.29928 0.81475 0.11299
 N2728 N 0.29523 0.81046 0.10189
 C2729 C 0.29605 0.79519 0.08444
 N2730 N 0.28636 0.80089 0.07824
 N2731 N 0.28165 0.79583 0.06773
 C2732 C 0.28647 0.78490 0.06305
 N2733 N 0.29627 0.77931 0.06916
 N2734 N 0.30099 0.78438 0.07964
 C2735 C 0.28042 0.77850 0.05234
 N2736 N 0.28384 0.76652 0.04932
 N2737 N 0.27744 0.76004 0.04067
 C2738 C 0.26751 0.76536 0.03457
 N2739 N 0.26418 0.77741 0.03743
 N2740 N 0.27054 0.78388 0.04615
 C2741 C 0.80063 0.30019 0.09633
 N2742 N 0.81036 0.29446 0.10240
 N2743 N 0.81445 0.29880 0.11345
 C2744 C 0.80891 0.30901 0.11887
 N2745 N 0.79916 0.31475 0.11282
 N2746 N 0.79508 0.31041 0.10174
 C2747 C 0.79594 0.29509 0.08433
 N2748 N 0.78620 0.30070 0.07813
 N2749 N 0.78153 0.29559 0.06763
 C2750 C 0.78644 0.28469 0.06296
 N2751 N 0.79629 0.27920 0.06908
 N2752 N 0.80097 0.28432 0.07954
 C2753 C 0.78047 0.27823 0.05225
 N2754 N 0.78401 0.26628 0.04924
 N2755 N 0.77768 0.25974 0.04058
 C2756 C 0.76770 0.26498 0.03447
 N2757 N 0.76425 0.27699 0.03733
 N2758 N 0.77054 0.28352 0.04606
 C2759 C 0.80073 0.80038 0.59638
 N2760 N 0.81048 0.79467 0.60246
 N2761 N 0.81457 0.79906 0.61349
 C2762 C 0.80905 0.80929 0.61888
 N2763 N 0.79929 0.81502 0.61281
 N2764 N 0.79520 0.81063 0.60175
 C2765 C 0.79602 0.79522 0.58442
 N2766 N 0.78627 0.80080 0.57820
 N2767 N 0.78158 0.79564 0.56774
 C2768 C 0.78647 0.78471 0.56312
 N2769 N 0.79631 0.77923 0.56925
 N2770 N 0.80102 0.78441 0.57968
 C2771 C 0.78049 0.77822 0.55244
 N2772 N 0.78399 0.76624 0.54948
 N2773 N 0.77767 0.75969 0.54082
 C2774 C 0.76774 0.76495 0.53464
 N2775 N 0.76432 0.77699 0.53746
 N2776 N 0.77060 0.78352 0.54619
 C2777 C 0.30067 0.69938 0.40341
 N2778 N 0.29490 0.68950 0.39763
 N2779 N 0.29904 0.68530 0.38653
 C2780 C 0.30906 0.69087 0.38077
 N2781 N 0.31484 0.70073 0.38656
 N2782 N 0.31071 0.70493 0.39767
 C2783 C 0.29574 0.70439 0.41536
 N2784 N 0.30122 0.71457 0.42089
 N2785 N 0.29628 0.71961 0.43130
 C2786 C 0.28569 0.71465 0.43657
 N2787 N 0.28031 0.70437 0.43112
 N2788 N 0.28525 0.69932 0.42072
 C2789 C 0.27953 0.72095 0.44727
 N2790 N 0.26820 0.71678 0.45161
 N2791 N 0.26187 0.72331 0.46030
 C2792 C 0.26671 0.73416 0.46508
 N2793 N 0.27810 0.73826 0.46087
 N2794 N 0.28443 0.73175 0.45216
 C2795 C 0.30012 0.19887 0.90341
 N2796 N 0.29413 0.18943 0.89715
 N2797 N 0.29847 0.18533 0.88610
 C2798 C 0.30894 0.19056 0.88086
 N2799 N 0.31494 0.20001 0.88710
 N2800 N 0.31060 0.20410 0.89818
 C2801 C 0.29501 0.20362 0.91539
 N2802 N 0.30105 0.21287 0.92191
 N2803 N 0.29598 0.21765 0.93239
 C2804 C 0.28468 0.21335 0.93672
 N2805 N 0.27875 0.20400 0.93028
 N2806 N 0.28384 0.19920 0.91984
 C2807 C 0.27831 0.21953 0.94739
 N2808 N 0.26594 0.21706 0.94973
 N2809 N 0.25960 0.22368 0.95832
 C2810 C 0.26542 0.23287 0.96507
 N2811 N 0.27786 0.23521 0.96292
 N2812 N 0.28420 0.22865 0.95423
 C2813 C 0.80012 0.69938 0.90304
 N2814 N 0.81024 0.70497 0.89748
 N2815 N 0.81452 0.70086 0.88639
 C2816 C 0.80882 0.69104 0.88045
 N2817 N 0.79870 0.68546 0.88601
 N2818 N 0.79442 0.68957 0.89708
 C2819 C 0.79508 0.70412 0.91505
 N2820 N 0.78447 0.69899 0.92009
 N2821 N 0.77941 0.70374 0.93057
 C2822 C 0.78481 0.71377 0.93645
 N2823 N 0.79554 0.71879 0.93152
 N2824 N 0.80060 0.71405 0.92101
 C2825 C 0.77842 0.71980 0.94719
 N2826 N 0.78350 0.73009 0.95291
 N2827 N 0.77699 0.73639 0.96166
 C2828 C 0.76522 0.73257 0.96504
 N2829 N 0.76021 0.72222 0.95941
 N2830 N 0.76672 0.71590 0.95072
 C2831 C 0.80078 0.19979 0.40318
 N2832 N 0.79523 0.18956 0.39781
 N2833 N 0.79927 0.18519 0.38672
 C2834 C 0.80898 0.19093 0.38060
 N2835 N 0.81452 0.20115 0.38598
 N2836 N 0.81048 0.20551 0.39705
 C2837 C 0.79612 0.20495 0.41517
 N2838 N 0.80111 0.21578 0.41986
 N2839 N 0.79643 0.22097 0.43030
 C2840 C 0.78665 0.21549 0.43651
 N2841 N 0.78177 0.20454 0.43194
 N2842 N 0.78643 0.19936 0.42145
 C2843 C 0.78069 0.22201 0.44720
 N2844 N 0.77094 0.21666 0.45361
 N2845 N 0.76466 0.22320 0.46235
 C2846 C 0.76794 0.23531 0.46500
 N2847 N 0.77773 0.24061 0.45867
 N2848 N 0.78406 0.23405 0.45002
 C2849 C 0.69982 0.30070 0.40305
 N2850 N 0.68963 0.29513 0.39760
 N2851 N 0.68534 0.29918 0.38648
 C2852 C 0.69110 0.30890 0.38042
 N2853 N 0.70127 0.31446 0.38588
 N2854 N 0.70557 0.31041 0.39697
 C2855 C 0.70489 0.29604 0.41508
 N2856 N 0.71566 0.30106 0.41988
 N2857 N 0.72078 0.29637 0.43036
 C2858 C 0.71528 0.28655 0.43649
 N2859 N 0.70439 0.28165 0.43180
 N2860 N 0.69928 0.28632 0.42129
 C2861 C 0.72175 0.28057 0.44720
 N2862 N 0.71643 0.27071 0.45346
 N2863 N 0.72297 0.26441 0.46219
 C2864 C 0.73504 0.26777 0.46498
 N2865 N 0.74030 0.27767 0.45879
 N2866 N 0.73375 0.28402 0.45014
 C2867 C 0.69921 0.80015 0.90314
 N2868 N 0.68940 0.79450 0.89714
 N2869 N 0.68534 0.79880 0.88605
 C2870 C 0.69099 0.80889 0.88052
 N2871 N 0.70081 0.81456 0.88651
 N2872 N 0.70486 0.81025 0.89762
 C2873 C 0.70390 0.79507 0.91516
 N2874 N 0.71383 0.80052 0.92117
 N2875 N 0.71853 0.79541 0.93167
 C2876 C 0.71346 0.78467 0.93653
 N2877 N 0.70343 0.77934 0.93061
 N2878 N 0.69872 0.78446 0.92013
 C2879 C 0.71945 0.77822 0.94725
 N2880 N 0.71557 0.76649 0.95069
 N2881 N 0.72189 0.75993 0.95936
 C2882 C 0.73221 0.76493 0.96506
 N2883 N 0.73601 0.77673 0.96177
 N2884 N 0.72973 0.78327 0.95304
 C2885 C 0.19915 0.30024 0.90325
 N2886 N 0.18960 0.29431 0.89708
 N2887 N 0.18553 0.29858 0.88598
 C2888 C 0.19091 0.30890 0.88060
 N2889 N 0.20047 0.31483 0.88675
 N2890 N 0.20452 0.31057 0.89787
 C2891 C 0.20386 0.29521 0.91527
 N2892 N 0.21326 0.30115 0.92167
 N2893 N 0.21801 0.29612 0.93218
 C2894 C 0.21352 0.28498 0.93668
 N2895 N 0.20402 0.27914 0.93037
 N2896 N 0.19925 0.28418 0.91989
 C2897 C 0.21965 0.27864 0.94739
 N2898 N 0.21690 0.26639 0.94996
 N2899 N 0.22347 0.26003 0.95858
 C2900 C 0.23289 0.26573 0.96512
 N2901 N 0.23551 0.27805 0.96274
 N2902 N 0.22899 0.28441 0.95402
 C2903 C 0.19966 0.80044 0.40297
 N2904 N 0.18977 0.79470 0.39716
 N2905 N 0.18557 0.79889 0.38607
 C2906 C 0.19114 0.80894 0.38037
 N2907 N 0.20103 0.81467 0.38617
 N2908 N 0.20523 0.81048 0.39726
 C2909 C 0.20454 0.79558 0.41500
 N2910 N 0.21463 0.80112 0.42065
 N2911 N 0.21954 0.79627 0.43117
 C2912 C 0.21451 0.78572 0.43645
 N2913 N 0.20431 0.78028 0.43089
 N2914 N 0.19940 0.78514 0.42038
 C2915 C 0.22076 0.77957 0.44721
 N2916 N 0.21661 0.76822 0.45150
 N2917 N 0.22312 0.76190 0.46021
 C2918 C 0.23394 0.76676 0.46506
 N2919 N 0.23803 0.77817 0.46089
 N2920 N 0.23152 0.78449 0.45216
 C2921 C 0.69983 0.69933 0.59651
 N2922 N 0.70555 0.68956 0.60254
 N2923 N 0.70124 0.68547 0.61361
 C2924 C 0.69107 0.69104 0.61909
 N2925 N 0.68533 0.70081 0.61308
 N2926 N 0.68965 0.70490 0.60198
 C2927 C 0.70491 0.70405 0.58451
 N2928 N 0.69933 0.71385 0.57839
 N2929 N 0.70444 0.71857 0.56790
 C2930 C 0.71530 0.71364 0.56315
 N2931 N 0.72077 0.70373 0.56918
 N2932 N 0.71565 0.69900 0.57964
 C2933 C 0.72175 0.71965 0.55244
 N2934 N 0.73366 0.71605 0.54931
 N2935 N 0.74019 0.72239 0.54064
 C2936 C 0.73498 0.73244 0.53463
 N2937 N 0.72300 0.73595 0.53762
 N2938 N 0.71648 0.72965 0.54636
 C2939 C 0.69976 0.19885 0.09606
 N2940 N 0.70548 0.18907 0.10208
 N2941 N 0.70114 0.18496 0.11313
 C2942 C 0.69095 0.19050 0.11861
 N2943 N 0.68520 0.20025 0.11258
 N2944 N 0.68953 0.20437 0.10151
 C2945 C 0.70492 0.20366 0.08412
 N2946 N 0.69935 0.21347 0.07801
 N2947 N 0.70452 0.21826 0.06757
 C2948 C 0.71543 0.21339 0.06288
 N2949 N 0.72091 0.20350 0.06893
 N2950 N 0.71573 0.19870 0.07933
 C2951 C 0.72190 0.21942 0.05220
 N2952 N 0.73386 0.21592 0.04915
 N2953 N 0.74039 0.22229 0.04050
 C2954 C 0.73513 0.23226 0.03442
 N2955 N 0.72309 0.23567 0.03730
 N2956 N 0.71658 0.22934 0.04602
 C2957 C 0.20005 0.69932 0.09644
 N2958 N 0.20579 0.68961 0.10253
 N2959 N 0.20145 0.68554 0.11361
 C2960 C 0.19124 0.69109 0.11903
 N2961 N 0.18549 0.70082 0.11296
 N2962 N 0.18982 0.70488 0.10187
 C2963 C 0.20515 0.70402 0.08444
 N2964 N 0.19952 0.71374 0.07823
 N2965 N 0.20463 0.71843 0.06773
 C2966 C 0.21555 0.71356 0.06305
 N2967 N 0.22108 0.70373 0.06918
 N2968 N 0.21596 0.69903 0.07965
 C2969 C 0.22200 0.71956 0.05234
 N2970 N 0.23398 0.71611 0.04932
 N2971 N 0.24049 0.72248 0.04065
 C2972 C 0.23518 0.73240 0.03452
 N2973 N 0.22313 0.73577 0.03739
 N2974 N 0.21664 0.72944 0.04613
 C2975 C 0.19928 0.19963 0.59658
 N2976 N 0.20467 0.18928 0.60193
 N2977 N 0.20058 0.18497 0.61301
 C2978 C 0.19098 0.19086 0.61916
 N2979 N 0.18560 0.20120 0.61381
 N2980 N 0.18970 0.20552 0.60274
 C2981 C 0.20401 0.20470 0.58457
 N2982 N 0.19935 0.21572 0.57996
 N2983 N 0.20411 0.22079 0.56949
 C2984 C 0.21366 0.21499 0.56318
 N2985 N 0.21820 0.20386 0.56768
 N2986 N 0.21346 0.19880 0.57819
 C2987 C 0.21977 0.22135 0.55247
 N2988 N 0.22921 0.21564 0.54590
 N2989 N 0.23567 0.22201 0.53716
 C2990 C 0.23290 0.23429 0.53468
 N2991 N 0.22339 0.23994 0.54117
 N2992 N 0.21688 0.23356 0.54983
   
