data_POSCAR
  _audit_creation_date              2014-09-24
  _audit_creation_method            'ToBaCCo'
  _symmetry_space_group_name_H-M    'P1'
  _symmetry_Int_Tables_number       1
  _symmetry_cell_setting            triclinic
  loop_
  _symmetry_equiv_pos_as_xyz
 x,y,z
_cell_length_a 63.3276
_cell_length_b 63.4684
_cell_length_c 63.3541
_cell_angle_alpha 90.001400
_cell_angle_beta 90.002400
_cell_angle_gamma 89.995900
loop_
  _atom_site_label
  _atom_site_type_symbol
  _atom_site_fract_x
  _atom_site_fract_y
  _atom_site_fract_z
C1 C 0.24585 0.95634 -0.01916
 C2 C 0.24357 0.94614 0.00039
 C3 C 0.24623 0.95679 0.01948
 C4 C 0.25020 0.97870 0.01943
 C5 C 0.25104 0.98978 0.00001
 C6 C 0.24901 0.97860 -0.01935
 C7 C 0.24922 0.99017 -0.03827
 C8 C 0.25280 1.01175 -0.03835
 C9 C 0.25457 1.02327 -0.01945
 C10 C 0.25394 1.01210 -0.00002
 C11 C 0.25332 0.98978 0.03832
 C12 C 0.25709 1.01132 0.03824
 C13 C 0.25656 1.02307 0.01939
 C14 C 0.26001 1.04524 0.01932
 C15 C 0.26185 1.05563 -0.00016
 C16 C 0.25820 1.04541 -0.01948
 H17 H 0.24647 0.98278 -0.05337
 H18 H 0.25444 1.01914 -0.05361
 H19 H 0.25310 0.98189 0.05345
 H20 H 0.26077 1.01854 0.05324
 H21 H 0.24141 0.92918 0.00092
 H22 H 0.26369 1.07263 -0.00020
 C23 C 0.74744 0.45572 0.48150
 C24 C 0.74623 0.44507 0.50077
 C25 C 0.74723 0.45584 0.52000
 C26 C 0.74902 0.47807 0.52009
 C27 C 0.74983 0.48916 0.50065
 C28 C 0.74909 0.47796 0.48128
 C29 C 0.74972 0.48929 0.46223
 C30 C 0.75140 0.51115 0.46216
 C31 C 0.75206 0.52260 0.48114
 C32 C 0.75135 0.51151 0.50058
 C33 C 0.74973 0.48952 0.53907
 C34 C 0.75156 0.51136 0.53900
 C35 C 0.75220 0.52270 0.51995
 C36 C 0.75398 0.54493 0.51972
 C37 C 0.75496 0.55560 0.50043
 C38 C 0.75372 0.54484 0.48121
 H39 H 0.74884 0.48140 0.44712
 H40 H 0.75225 0.51894 0.44700
 H41 H 0.74884 0.48172 0.55422
 H42 H 0.75250 0.51925 0.55410
 H43 H 0.74511 0.42801 0.50082
 H44 H 0.75608 0.57266 0.50039
 C45 C 0.74929 1.01950 0.95636
 C46 C 0.75078 1.00044 0.94539
 C47 C 0.75321 0.98126 0.95597
 C48 C 0.75445 0.98103 0.97827
 C49 C 0.75238 1.00014 0.98969
 C50 C 0.74974 1.01945 0.97870
 C51 C 0.74730 1.03814 0.99033
 C52 C 0.74829 1.03802 1.01225
 C53 C 0.75161 1.01918 1.02344
 C54 C 0.75311 0.99996 1.01214
 C55 C 0.75845 0.96233 0.98941
 C56 C 0.75926 0.96217 1.01134
 C57 C 0.75557 0.98060 1.02318
 C58 C 0.75575 0.98049 1.04569
 C59 C 0.75522 0.99991 1.05638
 C60 C 0.75319 1.01905 1.04568
 H61 H 0.74450 1.05308 0.98260
 H62 H 0.74627 1.05290 1.02033
 H63 H 0.76139 0.94764 0.98126
 H64 H 0.76334 0.94743 1.01885
 H65 H 0.75013 1.00056 0.92828
 H66 H 0.75540 1.00025 1.07349
 C67 C 0.25004 0.48103 0.45554
 C68 C 0.24872 0.50015 0.44465
 C69 C 0.24749 0.51940 0.45532
 C70 C 0.24733 0.51968 0.47766
 C71 C 0.24890 0.50043 0.48896
 C72 C 0.25039 0.48105 0.47788
 C73 C 0.25261 0.46226 0.48942
 C74 C 0.25262 0.46240 0.51139
 C75 C 0.25044 0.48133 0.52271
 C76 C 0.24898 0.50058 0.51141
 C77 C 0.24521 0.53861 0.48899
 C78 C 0.24536 0.53875 0.51095
 C79 C 0.24758 0.51997 0.52249
 C80 C 0.24802 0.51998 0.54484
 C81 C 0.24909 0.50083 0.55572
 C82 C 0.25010 0.48157 0.54505
 H83 H 0.25455 0.44724 0.48160
 H84 H 0.25457 0.44747 0.51939
 H85 H 0.24323 0.55353 0.48099
 H86 H 0.24348 0.55378 0.51879
 H87 H 0.24865 0.50004 0.42753
 H88 H 0.24912 0.50092 0.57285
 C89 C 0.95476 0.23264 -0.01860
 C90 C 0.94451 0.23266 0.00107
 C91 C 0.95567 0.23272 0.02007
 C92 C 0.97797 0.23244 0.01980
 C93 C 0.98886 0.23219 0.00025
 C94 C 0.97726 0.23162 -0.01898
 C95 C 0.98842 0.22794 -0.03780
 C96 C 1.01033 0.22713 -0.03809
 C97 C 1.02227 0.23013 -0.01960
 C98 C 1.01139 0.23166 -0.00005
 C99 C 0.98961 0.23124 0.03860
 C100 C 1.01152 0.23064 0.03831
 C101 C 1.02289 0.23177 0.01924
 C102 C 1.04535 0.23108 0.01891
 C103 C 1.05565 0.22927 -0.00064
 C104 C 1.04473 0.22955 -0.01993
 H105 H 0.98034 0.22476 -0.05249
 H106 H 1.01774 0.22335 -0.05298
 H107 H 0.98189 0.23016 0.05379
 H108 H 1.01935 0.22852 0.05331
 H109 H 0.92744 0.23386 0.00180
 H110 H 1.07277 0.22983 -0.00091
 C111 C 0.45504 0.74692 0.48087
 C112 C 0.44436 0.74680 0.50018
 C113 C 0.45522 0.74567 0.51936
 C114 C 0.47755 0.74463 0.51936
 C115 C 0.48865 0.74498 0.49989
 C116 C 0.47737 0.74608 0.48057
 C117 C 0.48871 0.74647 0.46150
 C118 C 0.51065 0.74534 0.46134
 C119 C 0.52218 0.74430 0.48027
 C120 C 0.51108 0.74412 0.49974
 C121 C 0.48904 0.74275 0.53824
 C122 C 0.51099 0.74191 0.53810
 C123 C 0.52235 0.74289 0.51906
 C124 C 0.54469 0.74215 0.51878
 C125 C 0.55536 0.74191 0.49946
 C126 C 0.54450 0.74307 0.48028
 H127 H 0.48074 0.74762 0.44644
 H128 H 0.51846 0.74523 0.44616
 H129 H 0.48118 0.74169 0.55336
 H130 H 0.51895 0.74019 0.55311
 H131 H 0.42724 0.74752 0.50028
 H132 H 0.57248 0.74135 0.49935
 C133 C 0.01921 0.76929 -0.04543
 C134 C -0.00016 0.77117 -0.05604
 C135 C -0.01965 0.77092 -0.04545
 C136 C -0.01969 0.77029 -0.02300
 C137 C -0.00032 0.76871 -0.01180
 C138 C 0.01917 0.76858 -0.02297
 C139 C 0.03806 0.76965 -0.01129
 C140 C 0.03799 0.76903 0.01061
 C141 C 0.01899 0.76787 0.02193
 C142 C -0.00039 0.76816 0.01073
 C143 C -0.03838 0.77330 -0.01136
 C144 C -0.03845 0.77247 0.01054
 C145 C -0.01981 0.76876 0.02200
 C146 C -0.01980 0.76773 0.04449
 C147 C -0.00029 0.76767 0.05506
 C148 C 0.01889 0.76758 0.04422
 H149 H 0.05320 0.77174 -0.01887
 H150 H 0.05306 0.77007 0.01858
 H151 H -0.05315 0.77712 -0.01901
 H152 H -0.05327 0.77565 0.01838
 H153 H -0.00016 0.77064 -0.07316
 H154 H 0.00015 0.76647 0.07214
 C155 C 0.51877 0.25373 0.45552
 C156 C 0.49945 0.25285 0.44488
 C157 C 0.48025 0.25284 0.45578
 C158 C 0.48025 0.25341 0.47811
 C159 C 0.49973 0.25438 0.48916
 C160 C 0.51905 0.25477 0.47784
 C161 C 0.53809 0.25668 0.48909
 C162 C 0.53823 0.25755 0.51103
 C163 C 0.51934 0.25646 0.52263
 C164 C 0.49987 0.25510 0.51159
 C165 C 0.46132 0.25284 0.48969
 C166 C 0.46146 0.25365 0.51163
 C167 C 0.48055 0.25465 0.52292
 C168 C 0.48084 0.25559 0.54524
 C169 C 0.50013 0.25705 0.55586
 C170 C 0.51933 0.25723 0.54497
 H171 H 0.55311 0.25778 0.48104
 H172 H 0.55334 0.25932 0.51879
 H173 H 0.44616 0.25174 0.48190
 H174 H 0.44637 0.25361 0.51963
 H175 H 0.49935 0.25224 0.42776
 H176 H 0.50022 0.25751 0.57298
 C177 C 0.95550 -0.01963 0.25090
 C178 C 0.94470 -0.00044 0.25167
 C179 C 0.95527 0.01875 0.24941
 C180 C 0.97748 0.01894 0.24687
 C181 C 0.98878 -0.00035 0.24669
 C182 C 0.97773 -0.01973 0.24853
 C183 C 0.98921 -0.03866 0.24814
 C184 C 1.01100 -0.03863 0.24553
 C185 C 1.02231 -0.01963 0.24384
 C186 C 1.01116 -0.00027 0.24458
 C187 C 0.98866 0.03789 0.24448
 C188 C 1.01047 0.03795 0.24204
 C189 C 1.02227 0.01915 0.24294
 C190 C 1.04471 0.01908 0.24087
 C191 C 1.05514 -0.00039 0.23913
 C192 C 1.04442 -0.01954 0.24098
 H193 H 0.98146 -0.05376 0.24983
 H194 H 1.01887 -0.05373 0.24476
 H195 H 0.98065 0.05294 0.24430
 H196 H 1.01786 0.05299 0.23903
 H197 H 0.92765 -0.00046 0.25337
 H198 H 1.07222 -0.00084 0.23787
 C199 C 0.45481 0.48062 0.75129
 C200 C 0.44405 0.49982 0.74993
 C201 C 0.45486 0.51898 0.74856
 C202 C 0.47721 0.51908 0.74832
 C203 C 0.48838 0.49975 0.74992
 C204 C 0.47717 0.48046 0.75153
 C205 C 0.48858 0.46159 0.75374
 C206 C 0.51056 0.46155 0.75366
 C207 C 0.52201 0.48039 0.75143
 C208 C 0.51083 0.49972 0.74994
 C209 C 0.48867 0.53791 0.74609
 C210 C 0.51064 0.53789 0.74621
 C211 C 0.52205 0.51902 0.74849
 C212 C 0.54440 0.51888 0.74893
 C213 C 0.55516 0.49968 0.75002
 C214 C 0.54437 0.48049 0.75108
 H215 H 0.48065 0.44663 0.75574
 H216 H 0.51847 0.44657 0.75560
 H217 H 0.48078 0.55289 0.74407
 H218 H 0.51859 0.55285 0.74427
 H219 H 0.42692 0.49984 0.74994
 H220 H 0.57230 0.49967 0.75006
 C221 C 1.01910 0.95540 0.75066
 C222 C 0.99958 0.94492 0.74967
 C223 C 0.98047 0.95550 0.75255
 C224 C 0.98045 0.97750 0.75588
 C225 C 0.99977 0.98879 0.75563
 C226 C 1.01918 0.97775 0.75318
 C227 C 1.03797 0.98950 0.75244
 C228 C 1.03797 1.01114 0.75565
 C229 C 1.01902 1.02252 0.75787
 C230 C 0.99968 1.01116 0.75804
 C231 C 0.96165 0.98838 0.76017
 C232 C 0.96161 1.01006 0.76307
 C233 C 0.98025 1.02199 0.76107
 C234 C 0.98013 1.04427 0.76366
 C235 C 0.99956 1.05487 0.76487
 C236 C 1.01892 1.04471 0.76126
 H237 H 1.05305 0.98222 0.74931
 H238 H 1.05322 1.01866 0.75664
 H239 H 0.94675 0.98020 0.76174
 H240 H 0.94677 1.01727 0.76739
 H241 H 0.99916 0.92792 0.74787
 H242 H 0.99953 1.07191 0.76625
 C243 C 0.51860 0.45457 0.24309
 C244 C 0.49925 0.44398 0.24309
 C245 C 0.48007 0.45490 0.24341
 C246 C 0.48012 0.47720 0.24329
 C247 C 0.49963 0.48821 0.24331
 C248 C 0.51895 0.47687 0.24313
 C249 C 0.53806 0.48812 0.24236
 C250 C 0.53825 0.51004 0.24232
 C251 C 0.51934 0.52161 0.24298
 C252 C 0.49983 0.51061 0.24317
 C253 C 0.46121 0.48877 0.24251
 C254 C 0.46140 0.51069 0.24227
 C255 C 0.48051 0.52194 0.24287
 C256 C 0.48086 0.54424 0.24253
 C257 C 0.50022 0.55483 0.24238
 C258 C 0.51939 0.54392 0.24281
 H259 H 0.55310 0.48010 0.24150
 H260 H 0.55343 0.51780 0.24142
 H261 H 0.44603 0.48100 0.24174
 H262 H 0.44636 0.51870 0.24133
 H263 H 0.49912 0.42688 0.24327
 H264 H 0.50035 0.57193 0.24235
 O265 O 0.25021 0.19563 0.22056
 O266 O 0.27445 0.19092 0.25058
 O267 O 0.19486 0.22018 0.25054
 O268 O 0.18639 0.24748 0.27120
 O269 O 0.22041 0.25022 0.19505
 O270 O 0.24945 0.27370 0.18942
 O271 O 0.24934 0.27909 0.30482
 O272 O 0.22487 0.25111 0.31034
 O273 O 0.30382 0.25143 0.27923
 O274 O 0.30906 0.22631 0.25292
 O275 O 0.27767 0.30479 0.25115
 O276 O 0.24770 0.31110 0.22706
 O277 O 0.24918 0.30438 0.27947
 O278 O 0.22495 0.31061 0.24929
 O279 O 0.30325 0.27972 0.25207
 O280 O 0.30828 0.25190 0.22531
 O281 O 0.27833 0.25143 0.30453
 O282 O 0.24955 0.22683 0.31134
 O283 O 0.25055 0.22107 0.19532
 O284 O 0.27324 0.25092 0.18965
 O285 O 0.19475 0.24964 0.22012
 O286 O 0.18933 0.27418 0.24961
 O287 O 0.22044 0.19499 0.24967
 O288 O 0.24789 0.19007 0.27425
 Zr289 Zr 0.24871 0.21233 0.24932
 O290 O 0.26807 0.23066 0.26909
 Zr291 Zr 0.21129 0.24902 0.24899
 O292 O 0.22901 0.26875 0.26914
 Zr293 Zr 0.24877 0.24947 0.21231
 O294 O 0.26803 0.26932 0.23065
 Zr295 Zr 0.24953 0.25064 0.28783
 O296 O 0.22982 0.23071 0.26963
 Zr297 Zr 0.28670 0.25103 0.25091
 O298 O 0.26917 0.23089 0.23082
 Zr299 Zr 0.24918 0.28767 0.25080
 O300 O 0.22968 0.26960 0.23052
 O301 O 0.22918 0.22970 0.22955
 O302 O 0.26904 0.27058 0.27058
 C303 C 0.25105 0.20168 0.20120
 C304 C 0.20100 0.20082 0.25049
 C305 C 0.20093 0.25025 0.20079
 C306 C 0.24930 0.29845 0.29886
 C307 C 0.29778 0.25165 0.29861
 C308 C 0.29712 0.29902 0.25181
 H309 H 0.27710 0.22123 0.27763
 H310 H 0.27693 0.27800 0.22121
 H311 H 0.22035 0.22059 0.22044
 H312 H 0.21940 0.27722 0.27803
 H313 H 0.21432 0.24055 0.30570
 H314 H 0.19088 0.25554 0.28378
 H315 H 0.32256 0.25472 0.23110
 H316 H 0.28453 0.24135 0.19465
 H317 H 0.26043 0.21630 0.30760
 H318 H 0.23802 0.19559 0.28503
 H319 H 0.25895 0.30807 0.21667
 H320 H 0.23955 0.28473 0.19436
 H321 H 0.26942 0.17674 0.24627
 H322 H 0.30514 0.21594 0.24193
 H323 H 0.19365 0.28425 0.23848
 H324 H 0.21478 0.30760 0.26075
 O325 O 0.74960 0.80356 0.21991
 O326 O 0.72507 0.80831 0.24964
 O327 O 0.80452 0.77873 0.25021
 O328 O 0.81291 0.75122 0.27051
 O329 O 0.77916 0.74903 0.19423
 O330 O 0.75005 0.72566 0.18843
 O331 O 0.74965 0.71998 0.30380
 O332 O 0.77406 0.74785 0.30961
 O333 O 0.69525 0.74787 0.27809
 O334 O 0.69026 0.77301 0.25176
 O335 O 0.72143 0.69444 0.25003
 O336 O 0.75136 0.68800 0.22611
 O337 O 0.74988 0.69465 0.27849
 O338 O 0.77422 0.68854 0.24824
 O339 O 0.69593 0.71958 0.25084
 O340 O 0.69115 0.74748 0.22409
 O341 O 0.72071 0.74766 0.30342
 O342 O 0.74952 0.77218 0.31047
 O343 O 0.74930 0.77832 0.19447
 O344 O 0.72626 0.74861 0.18871
 O345 O 0.80462 0.74938 0.21951
 O346 O 0.80983 0.72469 0.24897
 O347 O 0.77904 0.80402 0.24927
 O348 O 0.75137 0.80895 0.27360
 Zr349 Zr 0.75072 0.78679 0.24859
 O350 O 0.73117 0.76850 0.26816
 Zr351 Zr 0.78799 0.74996 0.24830
 O352 O 0.77011 0.73027 0.26831
 Zr353 Zr 0.75072 0.74982 0.21140
 O354 O 0.73131 0.72996 0.22961
 Zr355 Zr 0.74958 0.74843 0.28691
 O356 O 0.76947 0.76830 0.26890
 Zr357 Zr 0.71256 0.74822 0.24984
 O358 O 0.73028 0.76838 0.22990
 Zr359 Zr 0.74997 0.71146 0.24983
 O360 O 0.76961 0.72952 0.22966
 O361 O 0.77030 0.76943 0.22885
 O362 O 0.73007 0.72858 0.26955
 C363 C 0.74895 0.79767 0.20050
 C364 C 0.79845 0.79811 0.25027
 C365 C 0.79859 0.74888 0.20012
 C366 C 0.74972 0.70062 0.29788
 C367 C 0.70127 0.74757 0.29748
 C368 C 0.70200 0.70026 0.25059
 H369 H 0.72214 0.77794 0.27668
 H370 H 0.72242 0.72133 0.22011
 H371 H 0.77926 0.77853 0.21986
 H372 H 0.77967 0.72175 0.27723
 H373 H 0.78472 0.75831 0.30502
 H374 H 0.80823 0.74340 0.28317
 H375 H 0.67682 0.74467 0.22978
 H376 H 0.71511 0.75837 0.19362
 H377 H 0.73858 0.78267 0.30681
 H378 H 0.76118 0.80340 0.28442
 H379 H 0.74034 0.69125 0.21555
 H380 H 0.75985 0.71457 0.19341
 H381 H 0.73020 0.82249 0.24546
 H382 H 0.69430 0.78341 0.24084
 H383 H 0.80560 0.71473 0.23770
 H384 H 0.78426 0.69137 0.25987
 O385 O 0.74972 0.19563 0.78007
 O386 O 0.72555 0.19070 0.75014
 O387 O 0.80485 0.22051 0.75019
 O388 O 0.81311 0.24781 0.72938
 O389 O 0.77934 0.25033 0.80564
 O390 O 0.75015 0.27357 0.81144
 O391 O 0.74988 0.27908 0.69604
 O392 O 0.77442 0.25126 0.69031
 O393 O 0.69562 0.25125 0.72173
 O394 O 0.69059 0.22603 0.74802
 O395 O 0.72161 0.30459 0.74970
 O396 O 0.75156 0.31113 0.77371
 O397 O 0.74999 0.30442 0.72134
 O398 O 0.77434 0.31067 0.75150
 O399 O 0.69609 0.27947 0.74898
 O400 O 0.69138 0.25151 0.77572
 O401 O 0.72104 0.25137 0.69637
 O402 O 0.74990 0.22682 0.68947
 O403 O 0.74941 0.22094 0.80546
 O404 O 0.72644 0.25066 0.81116
 O405 O 0.80490 0.25000 0.78046
 O406 O 0.81008 0.27454 0.75093
 O407 O 0.77949 0.19511 0.75114
 O408 O 0.75205 0.19020 0.72633
 Zr409 Zr 0.75110 0.21233 0.75137
 O410 O 0.73151 0.23057 0.73174
 Zr411 Zr 0.78827 0.24925 0.75166
 O412 O 0.77038 0.26887 0.73157
 Zr413 Zr 0.75090 0.24940 0.78848
 O414 O 0.73150 0.26920 0.77022
 Zr415 Zr 0.74989 0.25064 0.71297
 O416 O 0.76983 0.23083 0.73105
 Zr417 Zr 0.71284 0.25085 0.75001
 O418 O 0.73058 0.23074 0.76998
 Zr419 Zr 0.75018 0.28766 0.75000
 O420 O 0.76982 0.26968 0.77023
 O421 O 0.77056 0.22981 0.77113
 O422 O 0.73035 0.27048 0.73029
 C423 C 0.74898 0.20158 0.79947
 C424 C 0.79889 0.20110 0.75038
 C425 C 0.79879 0.25053 0.79982
 C426 C 0.74983 0.29845 0.70196
 C427 C 0.70161 0.25156 0.70234
 C428 C 0.70217 0.29878 0.74915
 H429 H 0.72250 0.22111 0.72323
 H430 H 0.72258 0.27783 0.77969
 H431 H 0.77946 0.22076 0.78023
 H432 H 0.77992 0.27739 0.72265
 H433 H 0.78507 0.24079 0.69490
 H434 H 0.80852 0.25580 0.71680
 H435 H 0.67706 0.25430 0.77002
 H436 H 0.71528 0.24090 0.80624
 H437 H 0.73908 0.21625 0.69323
 H438 H 0.76207 0.19570 0.71568
 H439 H 0.74040 0.30799 0.78417
 H440 H 0.75988 0.28471 0.80644
 H441 H 0.73074 0.17654 0.75432
 H442 H 0.69469 0.21558 0.75888
 H443 H 0.80576 0.28457 0.76209
 H444 H 0.78440 0.30783 0.73990
 O445 O 0.25035 0.80491 0.78041
 O446 O 0.27492 0.80984 0.75071
 O447 O 0.19564 0.77993 0.74992
 O448 O 0.18744 0.75260 0.72927
 O449 O 0.22088 0.75009 0.80568
 O450 O 0.25009 0.72676 0.81144
 O451 O 0.25080 0.72158 0.69603
 O452 O 0.22627 0.74948 0.69037
 O453 O 0.30506 0.74963 0.72205
 O454 O 0.30987 0.77466 0.74853
 O455 O 0.27896 0.69602 0.74973
 O456 O 0.24905 0.68933 0.77363
 O457 O 0.25061 0.69625 0.72134
 O458 O 0.22625 0.68988 0.75148
 O459 O 0.30447 0.72116 0.74912
 O460 O 0.30903 0.74896 0.77606
 O461 O 0.27966 0.74943 0.69666
 O462 O 0.25086 0.77381 0.68957
 O463 O 0.25073 0.77946 0.80564
 O464 O 0.27374 0.74981 0.81142
 O465 O 0.19552 0.75040 0.78030
 O466 O 0.19047 0.72592 0.75069
 O467 O 0.22091 0.80540 0.75110
 O468 O 0.24860 0.81049 0.72670
 Zr469 Zr 0.24934 0.78824 0.75163
 O470 O 0.26900 0.77007 0.73201
 Zr471 Zr 0.21225 0.75123 0.75159
 O472 O 0.23024 0.73169 0.73155
 Zr473 Zr 0.24940 0.75105 0.78861
 O474 O 0.26895 0.73135 0.77037
 Zr475 Zr 0.25075 0.75000 0.71308
 O476 O 0.23075 0.76976 0.73114
 Zr477 Zr 0.28768 0.74977 0.75026
 O478 O 0.26981 0.76978 0.77025
 Zr479 Zr 0.25038 0.71291 0.75004
 O480 O 0.23061 0.73079 0.77021
 O481 O 0.22979 0.77067 0.77121
 O482 O 0.27027 0.73016 0.73042
 C483 C 0.25102 0.79885 0.79978
 C484 C 0.20154 0.79935 0.75010
 C485 C 0.20147 0.74987 0.79970
 C486 C 0.25079 0.70221 0.70195
 C487 C 0.29908 0.74940 0.70264
 C488 C 0.29839 0.70184 0.74919
 H489 H 0.27803 0.77958 0.72356
 H490 H 0.27785 0.72271 0.77984
 H491 H 0.22080 0.77968 0.78025
 H492 H 0.22073 0.72317 0.72258
 H493 H 0.21564 0.75999 0.69494
 H494 H 0.19215 0.74478 0.71662
 H495 H 0.32338 0.74625 0.77039
 H496 H 0.28494 0.75952 0.80652
 H497 H 0.26151 0.78449 0.69350
 H498 H 0.23875 0.80498 0.71589
 H499 H 0.26008 0.69254 0.78420
 H500 H 0.24031 0.71568 0.80640
 H501 H 0.26973 0.82398 0.75492
 H502 H 0.30576 0.78498 0.75950
 H503 H 0.19471 0.71589 0.76189
 H504 H 0.21622 0.69270 0.73984
 O505 O 0.24883 0.30451 0.72063
 O506 O 0.22410 0.30943 0.75015
 O507 O 0.30335 0.27934 0.75128
 O508 O 0.31130 0.25189 0.77189
 O509 O 0.27830 0.24963 0.69526
 O510 O 0.24904 0.22661 0.68916
 O511 O 0.24775 0.22099 0.80456
 O512 O 0.27218 0.24878 0.81056
 O513 O 0.19365 0.24894 0.77833
 O514 O 0.18907 0.27435 0.75207
 O515 O 0.21970 0.19558 0.75068
 O516 O 0.24977 0.18893 0.72689
 O517 O 0.24797 0.19562 0.77928
 O518 O 0.27247 0.18932 0.74920
 O519 O 0.19436 0.22091 0.75106
 O520 O 0.19003 0.24887 0.72430
 O521 O 0.21889 0.24860 0.80387
 O522 O 0.24769 0.27319 0.81118
 O523 O 0.24865 0.27926 0.69519
 O524 O 0.22543 0.24970 0.68924
 O525 O 0.30352 0.24984 0.72078
 O526 O 0.30836 0.22530 0.75032
 O527 O 0.27804 0.30479 0.75018
 O528 O 0.25021 0.30990 0.77434
 Zr529 Zr 0.24961 0.28774 0.74932
 O530 O 0.22977 0.26958 0.76873
 Zr531 Zr 0.28664 0.25067 0.74939
 O532 O 0.26847 0.23109 0.76924
 Zr533 Zr 0.24970 0.25075 0.71214
 O534 O 0.23001 0.23101 0.73020
 Zr535 Zr 0.24790 0.24941 0.78764
 O536 O 0.26807 0.26916 0.76980
 Zr537 Zr 0.21121 0.24942 0.75024
 O538 O 0.22923 0.26946 0.73045
 Zr539 Zr 0.24837 0.21240 0.75059
 O540 O 0.26830 0.23034 0.73060
 O541 O 0.26925 0.27023 0.72976
 O542 O 0.22843 0.22968 0.77011
 C543 C 0.24833 0.29861 0.70122
 C544 C 0.29741 0.29876 0.75126
 C545 C 0.29767 0.24929 0.70135
 C546 C 0.24774 0.20162 0.79866
 C547 C 0.19951 0.24845 0.79776
 C548 C 0.20030 0.20155 0.75103
 H549 H 0.22070 0.27906 0.77717
 H550 H 0.22114 0.22243 0.72063
 H551 H 0.27835 0.27925 0.72082
 H552 H 0.27790 0.22253 0.77824
 H553 H 0.28290 0.25922 0.80607
 H554 H 0.30649 0.24403 0.78448
 H555 H 0.17563 0.24618 0.72985
 H556 H 0.21433 0.25958 0.69403
 H557 H 0.23672 0.28364 0.80749
 H558 H 0.25985 0.30425 0.78526
 H559 H 0.23874 0.19216 0.71632
 H560 H 0.25859 0.21537 0.69429
 H561 H 0.22936 0.32358 0.74602
 H562 H 0.19323 0.28473 0.74117
 H563 H 0.30412 0.21529 0.73911
 H564 H 0.28243 0.19208 0.76091
 O565 O 0.75034 0.69560 0.72165
 O566 O 0.77483 0.69111 0.75147
 O567 O 0.69529 0.72047 0.75175
 O568 O 0.68696 0.74795 0.77221
 O569 O 0.72050 0.74999 0.69585
 O570 O 0.74951 0.77337 0.68978
 O571 O 0.75017 0.77974 0.80513
 O572 O 0.72575 0.75185 0.81110
 O573 O 0.80445 0.75205 0.77942
 O574 O 0.80954 0.72658 0.75337
 O575 O 0.77811 0.80503 0.75107
 O576 O 0.74798 0.81114 0.72714
 O577 O 0.74990 0.80484 0.77959
 O578 O 0.72537 0.81082 0.74954
 O579 O 0.80370 0.77997 0.75194
 O580 O 0.80853 0.75182 0.72545
 O581 O 0.77912 0.75228 0.80487
 O582 O 0.75041 0.72752 0.81204
 O583 O 0.75056 0.72082 0.69618
 O584 O 0.77330 0.75059 0.69010
 O585 O 0.69500 0.74967 0.72108
 O586 O 0.68979 0.77447 0.75041
 O587 O 0.72084 0.69525 0.75096
 O588 O 0.74851 0.69056 0.77542
 Zr589 Zr 0.74913 0.71255 0.75026
 O590 O 0.76865 0.73104 0.76971
 Zr591 Zr 0.71172 0.74928 0.74984
 O592 O 0.72959 0.76916 0.76970
 Zr593 Zr 0.74897 0.74937 0.71291
 O594 O 0.76834 0.76939 0.73093
 Zr595 Zr 0.75022 0.75118 0.78839
 O596 O 0.73036 0.73112 0.77051
 Zr597 Zr 0.78715 0.75126 0.75121
 O598 O 0.76947 0.73094 0.73144
 Zr599 Zr 0.74963 0.78791 0.75105
 O600 O 0.73000 0.76968 0.73106
 O601 O 0.72948 0.72978 0.73046
 O602 O 0.76960 0.77096 0.77083
 C603 C 0.75103 0.70149 0.70223
 C604 C 0.70141 0.70111 0.75183
 C605 C 0.70107 0.75010 0.70170
 C606 C 0.75017 0.79905 0.79902
 C607 C 0.79853 0.75256 0.79882
 C608 C 0.79756 0.79926 0.75161
 H609 H 0.77775 0.72170 0.77827
 H610 H 0.77718 0.77798 0.72136
 H611 H 0.72057 0.72061 0.72150
 H612 H 0.72004 0.77771 0.77859
 H613 H 0.71515 0.74128 0.80662
 H614 H 0.69156 0.75605 0.78472
 H615 H 0.82285 0.75474 0.73108
 H616 H 0.78457 0.74098 0.69506
 H617 H 0.76148 0.71713 0.80848
 H618 H 0.73869 0.69617 0.78620
 H619 H 0.75914 0.80802 0.71668
 H620 H 0.73969 0.78447 0.69469
 H621 H 0.76974 0.67690 0.74737
 H622 H 0.80552 0.71605 0.74257
 H623 H 0.69403 0.78443 0.73916
 H624 H 0.71535 0.80798 0.76117
 O625 O 0.24945 0.69523 0.27820
 O626 O 0.22501 0.69050 0.24840
 O627 O 0.30429 0.72039 0.24804
 O628 O 0.31269 0.74795 0.22787
 O629 O 0.27882 0.74989 0.30401
 O630 O 0.24960 0.77297 0.30999
 O631 O 0.24924 0.77913 0.19458
 O632 O 0.27381 0.75136 0.18867
 O633 O 0.19506 0.75110 0.22021
 O634 O 0.19007 0.72577 0.24643
 O635 O 0.22107 0.80434 0.24824
 O636 O 0.25091 0.81083 0.27237
 O637 O 0.24940 0.80434 0.22001
 O638 O 0.27384 0.81038 0.25026
 O639 O 0.19556 0.77921 0.24738
 O640 O 0.19089 0.75124 0.27419
 O641 O 0.22045 0.75150 0.19482
 O642 O 0.24935 0.72686 0.18779
 O643 O 0.24905 0.72041 0.30370
 O644 O 0.22591 0.75003 0.30954
 O645 O 0.30436 0.74964 0.27882
 O646 O 0.30945 0.77444 0.24939
 O647 O 0.27898 0.69493 0.24891
 O648 O 0.25136 0.69006 0.22446
 Zr649 Zr 0.25059 0.71210 0.24957
 O650 O 0.23097 0.73042 0.23006
 Zr651 Zr 0.28772 0.74908 0.25002
 O652 O 0.26981 0.76876 0.23003
 Zr653 Zr 0.25040 0.74896 0.28687
 O654 O 0.23098 0.76886 0.26873
 Zr655 Zr 0.24933 0.75060 0.21136
 O656 O 0.26928 0.73074 0.22934
 Zr657 Zr 0.21231 0.75059 0.24846
 O658 O 0.23007 0.73038 0.26830
 Zr659 Zr 0.24963 0.78743 0.24859
 O660 O 0.26927 0.76937 0.26873
 O661 O 0.27008 0.72948 0.26939
 O662 O 0.22980 0.77031 0.22883
 C663 C 0.24873 0.70108 0.29762
 C664 C 0.29836 0.70098 0.24795
 C665 C 0.29826 0.75014 0.29818
 C666 C 0.24916 0.79846 0.20060
 C667 C 0.20103 0.75162 0.20083
 C668 C 0.20165 0.79852 0.24753
 H669 H 0.22195 0.72100 0.22150
 H670 H 0.22205 0.77745 0.27823
 H671 H 0.27905 0.72039 0.27837
 H672 H 0.27934 0.77734 0.22114
 H673 H 0.28449 0.74089 0.19320
 H674 H 0.30796 0.75568 0.21517
 H675 H 0.17657 0.75404 0.26851
 H676 H 0.21482 0.74020 0.30461
 H677 H 0.23826 0.71647 0.19130
 H678 H 0.26115 0.69570 0.21367
 H679 H 0.23975 0.80763 0.28281
 H680 H 0.25920 0.78423 0.30499
 H681 H 0.23019 0.67633 0.25252
 H682 H 0.19414 0.71533 0.25731
 H683 H 0.30522 0.78432 0.26072
 H684 H 0.28379 0.80772 0.23853
 O685 O 0.75068 0.30481 0.27987
 O686 O 0.77548 0.30959 0.25036
 O687 O 0.69624 0.27960 0.24914
 O688 O 0.68807 0.25212 0.22877
 O689 O 0.72121 0.24996 0.30528
 O690 O 0.75045 0.22689 0.31139
 O691 O 0.75173 0.22107 0.19598
 O692 O 0.72724 0.24889 0.18998
 O693 O 0.80580 0.24903 0.22217
 O694 O 0.81048 0.27439 0.24844
 O695 O 0.77954 0.19578 0.24993
 O696 O 0.74950 0.18919 0.27372
 O697 O 0.75145 0.19586 0.22141
 O698 O 0.72682 0.18963 0.25142
 O699 O 0.80506 0.22091 0.24940
 O700 O 0.80946 0.24891 0.27620
 O701 O 0.78055 0.24873 0.19663
 O702 O 0.75177 0.27331 0.18931
 O703 O 0.75093 0.27949 0.30523
 O704 O 0.77404 0.24994 0.31129
 O705 O 0.69597 0.25020 0.27979
 O706 O 0.69110 0.22559 0.25022
 O707 O 0.72148 0.30511 0.25027
 O708 O 0.74938 0.31007 0.22611
 Zr709 Zr 0.74991 0.28798 0.25118
 O710 O 0.76971 0.26972 0.23178
 Zr711 Zr 0.71283 0.25094 0.25115
 O712 O 0.73093 0.23132 0.23130
 Zr713 Zr 0.74979 0.25099 0.28837
 O714 O 0.76943 0.23119 0.27036
 Zr715 Zr 0.75155 0.24955 0.21287
 O716 O 0.73143 0.26937 0.23071
 Zr717 Zr 0.78827 0.24952 0.25027
 O718 O 0.77029 0.26964 0.27003
 Zr719 Zr 0.75097 0.21266 0.25002
 O720 O 0.73111 0.23062 0.26999
 O721 O 0.73025 0.27050 0.27076
 O722 O 0.77096 0.22982 0.23045
 C723 C 0.75122 0.29885 0.29926
 C724 C 0.70213 0.29902 0.24914
 C725 C 0.70184 0.24965 0.29921
 C726 C 0.75177 0.20174 0.20200
 C727 C 0.79993 0.24858 0.20274
 C728 C 0.79897 0.20159 0.24948
 H729 H 0.77880 0.27917 0.22333
 H730 H 0.77828 0.22260 0.27993
 H731 H 0.72117 0.27954 0.27968
 H732 H 0.72149 0.22275 0.22232
 H733 H 0.71656 0.25939 0.19443
 H734 H 0.69292 0.24443 0.21609
 H735 H 0.82383 0.24614 0.27064
 H736 H 0.78520 0.25973 0.30644
 H737 H 0.76273 0.28377 0.19302
 H738 H 0.73968 0.30446 0.21522
 H739 H 0.76054 0.19240 0.28429
 H740 H 0.74084 0.21568 0.30632
 H741 H 0.77023 0.32376 0.25444
 H742 H 0.80631 0.28480 0.25931
 H743 H 0.69526 0.21563 0.26151
 H744 H 0.71693 0.19233 0.23964
 C745 C 0.24410 0.06864 0.07118
 C746 C 0.25905 0.08471 0.07335
 C747 C 0.27454 0.08743 0.05786
 C748 C 0.27507 0.07420 0.04024
 C749 C 0.26026 0.05774 0.03790
 C750 C 0.24460 0.05535 0.05358
 C751 C 0.25808 0.09893 0.09104
 C752 C 0.25725 0.11115 0.10559
 C753 C 0.25626 0.12581 0.12232
 C754 C 0.25540 0.13865 0.13633
 C755 C 0.25437 0.15435 0.15270
 C756 C 0.25406 0.17572 0.14731
 C757 C 0.25302 0.19109 0.16307
 C758 C 0.25227 0.18531 0.18452
 C759 C 0.25259 0.16374 0.18978
 C760 C 0.25363 0.14839 0.17396
 H761 H 0.23181 0.06662 0.08290
 H762 H 0.28612 0.09991 0.05931
 H763 H 0.28733 0.07665 0.02857
 H764 H 0.23221 0.04371 0.05186
 H765 H 0.25461 0.18052 0.13091
 H766 H 0.25278 0.20751 0.15841
 H767 H 0.25201 0.15871 0.20610
 H768 H 0.25385 0.13188 0.17830
 C769 C 0.73664 0.57188 0.57014
 C770 C 0.75450 0.58399 0.57490
 C771 C 0.77235 0.58291 0.56189
 C772 C 0.77229 0.56989 0.54410
 C773 C 0.75442 0.55775 0.53923
 C774 C 0.73656 0.55886 0.55233
 C775 C 0.75427 0.59814 0.59264
 C776 C 0.75405 0.61035 0.60721
 C777 C 0.75377 0.62504 0.62391
 C778 C 0.75348 0.63794 0.63787
 C779 C 0.75309 0.65376 0.65413
 C780 C 0.75311 0.67508 0.64856
 C781 C 0.75255 0.69059 0.66420
 C782 C 0.75194 0.68498 0.68569
 C783 C 0.75198 0.66346 0.69113
 C784 C 0.75254 0.64797 0.67543
 H785 H 0.72269 0.57272 0.58000
 H786 H 0.78620 0.59231 0.56536
 H787 H 0.78610 0.56937 0.53403
 H788 H 0.72254 0.54983 0.54860
 H789 H 0.75352 0.67974 0.63211
 H790 H 0.75252 0.70696 0.65940
 H791 H 0.75149 0.65856 0.70750
 H792 H 0.75250 0.63149 0.67990
 C793 C 0.76684 0.94240 0.08928
 C794 C 0.75324 0.92584 0.08411
 C795 C 0.74074 0.92714 0.06596
 C796 C 0.74178 0.94499 0.05304
 C797 C 0.75554 0.96180 0.05796
 C798 C 0.76789 0.96025 0.07645
 C799 C 0.75176 0.90787 0.09788
 C800 C 0.75069 0.89317 0.10987
 C801 C 0.74965 0.87636 0.12441
 C802 C 0.74896 0.86234 0.13722
 C803 C 0.74838 0.84601 0.15297
 C804 C 0.74859 0.82477 0.14704
 C805 C 0.74856 0.80900 0.16246
 C806 C 0.74834 0.81429 0.18406
 C807 C 0.74796 0.83572 0.18981
 C808 C 0.74799 0.85143 0.17436
 H809 H 0.77655 0.94158 0.10334
 H810 H 0.72991 0.91454 0.06199
 H811 H 0.73121 0.94596 0.03964
 H812 H 0.77875 0.97270 0.08080
 H813 H 0.74892 0.82041 0.13051
 H814 H 0.74888 0.79269 0.15746
 H815 H 0.74780 0.84040 0.20624
 H816 H 0.74785 0.86783 0.17913
 C817 C 0.26683 0.44076 0.58524
 C818 C 0.25003 0.42645 0.58419
 C819 C 0.23349 0.42990 0.56993
 C820 C 0.23367 0.44767 0.55688
 C821 C 0.25047 0.46209 0.55792
 C822 C 0.26703 0.45852 0.57221
 C823 C 0.24944 0.40869 0.59830
 C824 C 0.24898 0.39410 0.61047
 C825 C 0.24851 0.37735 0.62512
 C826 C 0.24817 0.36335 0.63797
 C827 C 0.24787 0.34701 0.65372
 C828 C 0.24799 0.32578 0.64777
 C829 C 0.24798 0.30998 0.66319
 C830 C 0.24788 0.31526 0.68478
 C831 C 0.24767 0.33669 0.69055
 C832 C 0.24766 0.35241 0.67512
 H833 H 0.27965 0.43831 0.59630
 H834 H 0.22034 0.41901 0.56909
 H835 H 0.22061 0.45036 0.54617
 H836 H 0.28001 0.46959 0.57334
 H837 H 0.24816 0.32142 0.63124
 H838 H 0.24818 0.29367 0.65817
 H839 H 0.24760 0.34136 0.70699
 H840 H 0.24759 0.36880 0.67990
 C841 C 0.76339 0.07181 0.93134
 C842 C 0.74639 0.07471 0.91749
 C843 C 0.73000 0.05991 0.91691
 C844 C 0.73072 0.04215 0.92994
 C845 C 0.74779 0.03910 0.94375
 C846 C 0.76412 0.05405 0.94438
 C847 C 0.74621 0.09233 0.90320
 C848 C 0.74617 0.10678 0.89086
 C849 C 0.74627 0.12335 0.87602
 C850 C 0.74646 0.13722 0.86303
 C851 C 0.74681 0.15345 0.84717
 C852 C 0.74715 0.14792 0.82580
 C853 C 0.74776 0.16356 0.81029
 C854 C 0.74803 0.18502 0.81595
 C855 C 0.74761 0.19041 0.83752
 C856 C 0.74701 0.17471 0.85300
 H857 H 0.77623 0.08308 0.93180
 H858 H 0.71685 0.06193 0.90617
 H859 H 0.71810 0.03066 0.92912
 H860 H 0.77756 0.05176 0.95470
 H861 H 0.74703 0.13151 0.82112
 H862 H 0.74808 0.15881 0.79388
 H863 H 0.74783 0.20674 0.84245
 H864 H 0.74678 0.17916 0.86951
 C865 C 0.22945 0.55968 0.41518
 C866 C 0.24612 0.57417 0.41572
 C867 C 0.26296 0.57108 0.42972
 C868 C 0.26324 0.55345 0.44297
 C869 C 0.24660 0.53883 0.44239
 C870 C 0.22971 0.54207 0.42841
 C871 C 0.24628 0.59171 0.40132
 C872 C 0.24642 0.60610 0.38891
 C873 C 0.24660 0.62263 0.37402
 C874 C 0.24678 0.63650 0.36102
 C875 C 0.24706 0.65276 0.34519
 C876 C 0.24715 0.67401 0.35108
 C877 C 0.24759 0.68976 0.33564
 C878 C 0.24795 0.68444 0.31405
 C879 C 0.24780 0.66300 0.30833
 C880 C 0.24736 0.64731 0.32380
 H881 H 0.21640 0.56186 0.40433
 H882 H 0.27601 0.58211 0.43016
 H883 H 0.27654 0.55101 0.45343
 H884 H 0.21685 0.53084 0.42763
 H885 H 0.24694 0.67841 0.36760
 H886 H 0.24772 0.70607 0.34063
 H887 H 0.24809 0.65830 0.29190
 H888 H 0.24730 0.63090 0.31906
 C889 C 0.23211 0.91379 0.94246
 C890 C 0.24791 0.91633 0.92727
 C891 C 0.26287 0.93238 0.92960
 C892 C 0.26204 0.94584 0.94706
 C893 C 0.24603 0.94364 0.96241
 C894 C 0.23125 0.92718 0.95994
 C895 C 0.24908 0.90202 0.90968
 C896 C 0.24991 0.88971 0.89521
 C897 C 0.25071 0.87493 0.87857
 C898 C 0.25124 0.86203 0.86462
 C899 C 0.25167 0.84628 0.84827
 C900 C 0.25129 0.85220 0.82700
 C901 C 0.25126 0.83681 0.81118
 C902 C 0.25160 0.81525 0.81646
 C903 C 0.25212 0.80951 0.83793
 C904 C 0.25215 0.82492 0.85368
 H905 H 0.22051 0.90134 0.94088
 H906 H 0.27539 0.93427 0.91810
 H907 H 0.27441 0.95747 0.94894
 H908 H 0.21873 0.92488 0.97137
 H909 H 0.25088 0.86870 0.82263
 H910 H 0.25083 0.84181 0.79485
 H911 H 0.25238 0.79310 0.84260
 H912 H 0.25242 0.82015 0.87011
 C913 C 0.73042 0.41723 0.43922
 C914 C 0.74848 0.41645 0.42648
 C915 C 0.76600 0.42898 0.43142
 C916 C 0.76554 0.44209 0.44915
 C917 C 0.74749 0.44287 0.46200
 C918 C 0.72995 0.43033 0.45694
 C919 C 0.74926 0.40222 0.40883
 C920 C 0.74989 0.38995 0.39433
 C921 C 0.75056 0.37520 0.37769
 C922 C 0.75105 0.36228 0.36377
 C923 C 0.75150 0.34648 0.34749
 C924 C 0.75121 0.35231 0.32620
 C925 C 0.75129 0.33685 0.31046
 C926 C 0.75165 0.31532 0.31586
 C927 C 0.75207 0.30967 0.33735
 C928 C 0.75199 0.32515 0.35302
 H929 H 0.71683 0.40751 0.43562
 H930 H 0.78010 0.42838 0.42175
 H931 H 0.77933 0.45142 0.45303
 H932 H 0.71600 0.43060 0.46683
 H933 H 0.75081 0.36879 0.32176
 H934 H 0.75094 0.34178 0.29410
 H935 H 0.75233 0.29329 0.34210
 H936 H 0.75220 0.32047 0.36947
 C937 C 0.06720 0.25169 0.06984
 C938 C 0.08491 0.23877 0.07240
 C939 C 0.08937 0.22323 0.05741
 C940 C 0.07620 0.22057 0.03993
 C941 C 0.05807 0.23323 0.03724
 C942 C 0.05396 0.24905 0.05236
 C943 C 0.09886 0.24164 0.09011
 C944 C 0.11092 0.24376 0.10468
 C945 C 0.12544 0.24591 0.12144
 C946 C 0.13818 0.24746 0.13549
 C947 C 0.15378 0.24896 0.15196
 C948 C 0.17519 0.25022 0.14670
 C949 C 0.19050 0.25092 0.16256
 C950 C 0.18461 0.25034 0.18399
 C951 C 0.16298 0.24931 0.18911
 C952 C 0.14769 0.24861 0.17319
 H953 H 0.06379 0.26399 0.08119
 H954 H 0.10309 0.21319 0.05919
 H955 H 0.07997 0.20824 0.02872
 H956 H 0.04088 0.25986 0.05034
 H957 H 0.18008 0.25046 0.13031
 H958 H 0.20697 0.25170 0.15801
 H959 H 0.15786 0.24882 0.20541
 H960 H 0.13115 0.24759 0.17743
 C961 C 0.58453 0.72630 0.56037
 C962 C 0.58399 0.74378 0.57385
 C963 C 0.57017 0.76048 0.56963
 C964 C 0.55706 0.75978 0.55189
 C965 C 0.55758 0.74231 0.53829
 C966 C 0.57143 0.72559 0.54263
 C967 C 0.59819 0.74491 0.59154
 C968 C 0.61041 0.74589 0.60610
 C969 C 0.62508 0.74704 0.62281
 C970 C 0.63792 0.74796 0.63681
 C971 C 0.65364 0.74895 0.65318
 C972 C 0.64767 0.74880 0.67444
 C973 C 0.66305 0.74938 0.69027
 C974 C 0.68465 0.75011 0.68501
 C975 C 0.69044 0.75041 0.66355
 C976 C 0.67504 0.74984 0.64778
 H977 H 0.59526 0.71336 0.56343
 H978 H 0.56973 0.77414 0.57987
 H979 H 0.54671 0.77296 0.54857
 H980 H 0.57218 0.71210 0.53219
 H981 H 0.63113 0.74810 0.67878
 H982 H 0.65802 0.74910 0.70661
 H983 H 0.70688 0.75096 0.65889
 H984 H 0.67983 0.74996 0.63136
 C985 C 0.05844 0.77709 0.91121
 C986 C 0.07330 0.76148 0.91585
 C987 C 0.07044 0.74856 0.93351
 C988 C 0.05277 0.75125 0.94649
 C989 C 0.03775 0.76712 0.94216
 C990 C 0.04077 0.77980 0.92411
 C991 C 0.09116 0.75851 0.90211
 C992 C 0.10582 0.75632 0.89017
 C993 C 0.12263 0.75410 0.87571
 C994 C 0.13667 0.75251 0.86296
 C995 C 0.15303 0.75099 0.84726
 C996 C 0.17432 0.75112 0.85318
 C997 C 0.19013 0.75045 0.83776
 C998 C 0.18482 0.74967 0.81618
 C999 C 0.16333 0.74930 0.81045
 C1000 C 0.14759 0.74996 0.82588
 H1001 H 0.06045 0.78713 0.89752
 H1002 H 0.08169 0.73620 0.93707
 H1003 H 0.05051 0.74043 0.95952
 H1004 H 0.02965 0.79217 0.92018
 H1005 H 0.17871 0.75197 0.86968
 H1006 H 0.20648 0.75079 0.84274
 H1007 H 0.15863 0.74871 0.79403
 H1008 H 0.13116 0.74989 0.82112
 C1009 C 0.55995 0.26916 0.41517
 C1010 C 0.57392 0.25210 0.41634
 C1011 C 0.57014 0.23578 0.43073
 C1012 C 0.55235 0.23645 0.44380
 C1013 C 0.53827 0.25350 0.44262
 C1014 C 0.54217 0.26983 0.42821
 C1015 C 0.59170 0.25109 0.40223
 C1016 C 0.60628 0.25039 0.39004
 C1017 C 0.62301 0.24973 0.37535
 C1018 C 0.63700 0.24932 0.36246
 C1019 C 0.65335 0.24900 0.34670
 C1020 C 0.67463 0.24916 0.35264
 C1021 C 0.69045 0.24922 0.33723
 C1022 C 0.68515 0.24914 0.31563
 C1023 C 0.66368 0.24888 0.30987
 C1024 C 0.64792 0.24881 0.32530
 H1025 H 0.56266 0.28181 0.40401
 H1026 H 0.58079 0.22245 0.43167
 H1027 H 0.54939 0.22358 0.45463
 H1028 H 0.53136 0.28301 0.42699
 H1029 H 0.67900 0.24934 0.36918
 H1030 H 0.70679 0.24945 0.34224
 H1031 H 0.65900 0.24882 0.29343
 H1032 H 0.63149 0.24871 0.32053
 C1033 C 0.92750 0.74935 0.06409
 C1034 C 0.92583 0.76065 0.08298
 C1035 C 0.94191 0.77454 0.08886
 C1036 C 0.95964 0.77708 0.07603
 C1037 C 0.96157 0.76595 0.05683
 C1038 C 0.94524 0.75189 0.05116
 C1039 C 0.90797 0.75772 0.09673
 C1040 C 0.89339 0.75556 0.10876
 C1041 C 0.87674 0.75336 0.12340
 C1042 C 0.86285 0.75177 0.13632
 C1043 C 0.84665 0.75024 0.15219
 C1044 C 0.85227 0.74939 0.17352
 C1045 C 0.83667 0.74867 0.18909
 C1046 C 0.81514 0.74880 0.18354
 C1047 C 0.80964 0.74943 0.16200
 C1048 C 0.82531 0.75016 0.14645
 H1049 H 0.91527 0.73832 0.05953
 H1050 H 0.94080 0.78334 0.10347
 H1051 H 0.97169 0.78816 0.08096
 H1052 H 0.94652 0.74223 0.03713
 H1053 H 0.86875 0.74948 0.17815
 H1054 H 0.84150 0.74820 0.20548
 H1055 H 0.79325 0.74958 0.15714
 H1056 H 0.82078 0.75086 0.12997
 C1057 C 0.43123 0.23549 0.57185
 C1058 C 0.42581 0.25276 0.58451
 C1059 C 0.43812 0.27108 0.58393
 C1060 C 0.45587 0.27209 0.57087
 C1061 C 0.46139 0.25483 0.55817
 C1062 C 0.44899 0.23649 0.55877
 C1063 C 0.40806 0.25152 0.59863
 C1064 C 0.39346 0.25063 0.61079
 C1065 C 0.37670 0.24978 0.62543
 C1066 C 0.36266 0.24923 0.63826
 C1067 C 0.34626 0.24877 0.65397
 C1068 C 0.35164 0.24844 0.67538
 C1069 C 0.33585 0.24844 0.69078
 C1070 C 0.31439 0.24878 0.68496
 C1071 C 0.30914 0.24896 0.66335
 C1072 C 0.32500 0.24897 0.64798
 H1073 H 0.42189 0.22120 0.57229
 H1074 H 0.43414 0.28448 0.59375
 H1075 H 0.46539 0.28626 0.57073
 H1076 H 0.45323 0.22293 0.54930
 H1077 H 0.36806 0.24830 0.68019
 H1078 H 0.34049 0.24829 0.70723
 H1079 H 0.29281 0.24925 0.65830
 H1080 H 0.32067 0.24925 0.63143
 C1081 C 0.93440 0.25103 0.92901
 C1082 C 0.91552 0.23969 0.92759
 C1083 C 0.90984 0.22584 0.94376
 C1084 C 0.92290 0.22333 0.96133
 C1085 C 0.94213 0.23447 0.96298
 C1086 C 0.94756 0.24854 0.94659
 C1087 C 0.90162 0.24250 0.90983
 C1088 C 0.88952 0.24456 0.89528
 C1089 C 0.87487 0.24664 0.87862
 C1090 C 0.86201 0.24812 0.86467
 C1091 C 0.84628 0.24952 0.84833
 C1092 C 0.82488 0.25053 0.85375
 C1093 C 0.80945 0.25114 0.83799
 C1094 C 0.81521 0.25072 0.81652
 C1095 C 0.83681 0.24994 0.81125
 C1096 C 0.85222 0.24933 0.82706
 H1097 H 0.93881 0.26204 0.91671
 H1098 H 0.89522 0.21700 0.94283
 H1099 H 0.91813 0.21226 0.97344
 H1100 H 0.96161 0.25820 0.94767
 H1101 H 0.82011 0.25065 0.87017
 H1102 H 0.79301 0.25172 0.84266
 H1103 H 0.84183 0.24958 0.79491
 H1104 H 0.86874 0.24851 0.82270
 C1105 C 0.42824 0.73115 0.42983
 C1106 C 0.41571 0.74891 0.42587
 C1107 C 0.41649 0.76617 0.43960
 C1108 C 0.42960 0.76564 0.45733
 C1109 C 0.44215 0.74787 0.46141
 C1110 C 0.44137 0.73061 0.44757
 C1111 C 0.40146 0.74916 0.40819
 C1112 C 0.38917 0.74943 0.39367
 C1113 C 0.37441 0.74978 0.37700
 C1114 C 0.36149 0.75006 0.36304
 C1115 C 0.34573 0.75035 0.34669
 C1116 C 0.32432 0.75070 0.35210
 C1117 C 0.30889 0.75077 0.33634
 C1118 C 0.31467 0.75048 0.31488
 C1119 C 0.33628 0.75023 0.30960
 C1120 C 0.35168 0.75016 0.32542
 H1121 H 0.42764 0.71765 0.41939
 H1122 H 0.40677 0.77993 0.43675
 H1123 H 0.42988 0.77900 0.46797
 H1124 H 0.45073 0.71666 0.45069
 H1125 H 0.31954 0.75085 0.36852
 H1126 H 0.29244 0.75095 0.34100
 H1127 H 0.34131 0.74998 0.29327
 H1128 H 0.36823 0.74988 0.32107
 C1129 C 0.08778 0.05758 0.22914
 C1130 C 0.08412 0.07298 0.24448
 C1131 C 0.06716 0.07076 0.25845
 C1132 C 0.05391 0.05317 0.25709
 C1133 C 0.05726 0.03758 0.24155
 C1134 C 0.07461 0.03999 0.22777
 C1135 C 0.09821 0.09070 0.24620
 C1136 C 0.11038 0.10525 0.24745
 C1137 C 0.12503 0.12195 0.24870
 C1138 C 0.13788 0.13594 0.24958
 C1139 C 0.15360 0.15230 0.25037
 C1140 C 0.14761 0.17352 0.25054
 C1141 C 0.16299 0.18934 0.25080
 C1142 C 0.18461 0.18412 0.25086
 C1143 C 0.19043 0.16271 0.25084
 C1144 C 0.17503 0.14694 0.25060
 H1145 H 0.10093 0.05910 0.21830
 H1146 H 0.06439 0.08243 0.27062
 H1147 H 0.04152 0.05141 0.26874
 H1148 H 0.07778 0.02843 0.21559
 H1149 H 0.13106 0.17784 0.25034
 H1150 H 0.15792 0.20564 0.25077
 H1151 H 0.20689 0.15808 0.25088
 H1152 H 0.17985 0.13056 0.25044
 C1153 C 0.58481 0.55964 0.73259
 C1154 C 0.58368 0.57390 0.74942
 C1155 C 0.56919 0.57052 0.76578
 C1156 C 0.55604 0.55282 0.76542
 C1157 C 0.55721 0.53841 0.74862
 C1158 C 0.57168 0.54195 0.73222
 C1159 C 0.59797 0.59151 0.75024
 C1160 C 0.61029 0.60596 0.75089
 C1161 C 0.62511 0.62255 0.75156
 C1162 C 0.63807 0.63645 0.75203
 C1163 C 0.65387 0.65274 0.75244
 C1164 C 0.64795 0.67398 0.75259
 C1165 C 0.66338 0.68975 0.75259
 C1166 C 0.68499 0.68446 0.75242
 C1167 C 0.69074 0.66302 0.75242
 C1168 C 0.67528 0.64731 0.75242
 H1169 H 0.59604 0.56204 0.71991
 H1170 H 0.56829 0.58137 0.77894
 H1171 H 0.54520 0.55014 0.77836
 H1172 H 0.57291 0.53089 0.71925
 H1173 H 0.63141 0.67836 0.75258
 H1174 H 0.65837 0.70606 0.75256
 H1175 H 0.70718 0.65834 0.75228
 H1176 H 0.68004 0.63091 0.75229
 C1177 C 0.92786 0.06629 0.74708
 C1178 C 0.92592 0.08344 0.76079
 C1179 C 0.94156 0.08720 0.77590
 C1180 C 0.95919 0.07402 0.77718
 C1181 C 0.96141 0.05659 0.76349
 C1182 C 0.94546 0.05303 0.74833
 C1183 C 0.90835 0.09772 0.75885
 C1184 C 0.89394 0.11003 0.75722
 C1185 C 0.87738 0.12482 0.75536
 C1186 C 0.86350 0.13774 0.75388
 C1187 C 0.84722 0.15351 0.75230
 C1188 C 0.85273 0.17481 0.75094
 C1189 C 0.83703 0.19027 0.75001
 C1190 C 0.81553 0.18463 0.75043
 C1191 C 0.81016 0.16312 0.75157
 C1192 C 0.82591 0.14769 0.75251
 H1193 H 0.91599 0.06341 0.73510
 H1194 H 0.94026 0.10049 0.78656
 H1195 H 0.97098 0.07732 0.78911
 H1196 H 0.94700 0.04055 0.73678
 H1197 H 0.86918 0.17950 0.75078
 H1198 H 0.84178 0.20663 0.74916
 H1199 H 0.79379 0.15819 0.75198
 H1200 H 0.82147 0.13124 0.75358
 C1201 C 0.43933 0.58363 0.22578
 C1202 C 0.42587 0.58361 0.24332
 C1203 C 0.43011 0.57028 0.26042
 C1204 C 0.44785 0.55715 0.26006
 C1205 C 0.46141 0.55718 0.24252
 C1206 C 0.45705 0.57053 0.22540
 C1207 C 0.40818 0.59781 0.24400
 C1208 C 0.39365 0.61006 0.24451
 C1209 C 0.37698 0.62480 0.24504
 C1210 C 0.36303 0.63770 0.24547
 C1211 C 0.34672 0.65348 0.24597
 C1212 C 0.32544 0.64759 0.24671
 C1213 C 0.30966 0.66301 0.24727
 C1214 C 0.31500 0.68455 0.24710
 C1215 C 0.33647 0.69026 0.24632
 C1216 C 0.35218 0.67483 0.24575
 H1217 H 0.43626 0.59397 0.21252
 H1218 H 0.41988 0.57024 0.27413
 H1219 H 0.45118 0.54717 0.27352
 H1220 H 0.46747 0.57087 0.21184
 H1221 H 0.32104 0.63109 0.24689
 H1222 H 0.29332 0.65803 0.24790
 H1223 H 0.34118 0.70666 0.24619
 H1224 H 0.36862 0.67955 0.24518
 C1225 C 0.07158 0.93225 0.76492
 C1226 C 0.07328 0.91614 0.74995
 C1227 C 0.05721 0.91325 0.73510
 C1228 C 0.03950 0.92637 0.73519
 C1229 C 0.03766 0.94292 0.74997
 C1230 C 0.05388 0.94545 0.76504
 C1231 C 0.09113 0.90209 0.75013
 C1232 C 0.10578 0.88995 0.75013
 C1233 C 0.12257 0.87532 0.75001
 C1234 C 0.13661 0.86249 0.74985
 C1235 C 0.15300 0.84677 0.74965
 C1236 C 0.14761 0.82541 0.74882
 C1237 C 0.16338 0.81001 0.74881
 C1238 C 0.18485 0.81576 0.74963
 C1239 C 0.19011 0.83731 0.75037
 C1240 C 0.17427 0.85269 0.75038
 H1241 H 0.08376 0.93440 0.77673
 H1242 H 0.05829 0.90074 0.72351
 H1243 H 0.02740 0.92382 0.72338
 H1244 H 0.05255 0.95717 0.77740
 H1245 H 0.13119 0.82064 0.74826
 H1246 H 0.15871 0.79361 0.74826
 H1247 H 0.20644 0.84232 0.75104
 H1248 H 0.17862 0.86919 0.75102
 C1249 C 0.56951 0.42893 0.26112
 C1250 C 0.57380 0.41548 0.24412
 C1251 C 0.56027 0.41518 0.22663
 C1252 C 0.54245 0.42816 0.22620
 C1253 C 0.53807 0.44165 0.24319
 C1254 C 0.55168 0.44193 0.26069
 C1255 C 0.59164 0.40146 0.24484
 C1256 C 0.60630 0.38937 0.24538
 C1257 C 0.62312 0.37480 0.24595
 C1258 C 0.63718 0.36202 0.24641
 C1259 C 0.65358 0.34633 0.24695
 C1260 C 0.64822 0.32496 0.24655
 C1261 C 0.66400 0.30960 0.24717
 C1262 C 0.68544 0.31539 0.24821
 C1263 C 0.69067 0.33696 0.24855
 C1264 C 0.67483 0.35231 0.24793
 H1265 H 0.57980 0.42918 0.27478
 H1266 H 0.56337 0.40475 0.21345
 H1267 H 0.53200 0.42763 0.21267
 H1268 H 0.54834 0.45203 0.27406
 H1269 H 0.63182 0.32016 0.24580
 H1270 H 0.65935 0.29318 0.24690
 H1271 H 0.70699 0.34200 0.24937
 H1272 H 0.67914 0.36883 0.24825
 C1273 C 0.92842 0.92964 0.23485
 C1274 C 0.91628 0.92533 0.25282
 C1275 C 0.91750 0.93867 0.27039
 C1276 C 0.93063 0.95637 0.26992
 C1277 C 0.94276 0.96081 0.25192
 C1278 C 0.94155 0.94735 0.23437
 C1279 C 0.90194 0.90773 0.25292
 C1280 C 0.88959 0.89327 0.25290
 C1281 C 0.87478 0.87666 0.25277
 C1282 C 0.86183 0.86273 0.25257
 C1283 C 0.84602 0.84644 0.25223
 C1284 C 0.82463 0.85188 0.25169
 C1285 C 0.80917 0.83618 0.25115
 C1286 C 0.81490 0.81474 0.25112
 C1287 C 0.83649 0.80943 0.25172
 C1288 C 0.85193 0.82519 0.25227
 H1289 H 0.92747 0.91952 0.22111
 H1290 H 0.90807 0.93555 0.28431
 H1291 H 0.93120 0.96673 0.28350
 H1292 H 0.95053 0.95076 0.22022
 H1293 H 0.81988 0.86828 0.25164
 H1294 H 0.79274 0.84088 0.25068
 H1295 H 0.84149 0.79312 0.25170
 H1296 H 0.86846 0.82080 0.25266
 C1297 C 0.42952 0.42868 0.73619
 C1298 C 0.41560 0.42558 0.75309
 C1299 C 0.41498 0.44017 0.76965
 C1300 C 0.42807 0.45790 0.76924
 C1301 C 0.44199 0.46113 0.75230
 C1302 C 0.44263 0.44641 0.73576
 C1303 C 0.40134 0.40793 0.75309
 C1304 C 0.38902 0.39345 0.75308
 C1305 C 0.37419 0.37686 0.75305
 C1306 C 0.36119 0.36299 0.75298
 C1307 C 0.34528 0.34678 0.75282
 C1308 C 0.32392 0.35236 0.75232
 C1309 C 0.30836 0.33676 0.75194
 C1310 C 0.31396 0.31528 0.75205
 C1311 C 0.33551 0.30984 0.75263
 C1312 C 0.35106 0.32550 0.75301
 H1313 H 0.43002 0.41757 0.72322
 H1314 H 0.40419 0.43800 0.78274
 H1315 H 0.42725 0.46920 0.78203
 H1316 H 0.45305 0.44885 0.72243
 H1317 H 0.31928 0.36879 0.75217
 H1318 H 0.29196 0.34156 0.75148
 H1319 H 0.34041 0.29349 0.75270
 H1320 H 0.36756 0.32101 0.75338
 C1321 C 0.06467 0.24690 0.92720
 C1322 C 0.08273 0.23439 0.92516
 C1323 C 0.08792 0.21999 0.94102
 C1324 C 0.07520 0.21815 0.95893
 C1325 C 0.05682 0.23053 0.96123
 C1326 C 0.05187 0.24508 0.94510
 C1327 C 0.09646 0.23679 0.90722
 C1328 C 0.10842 0.23871 0.89256
 C1329 C 0.12296 0.24083 0.87581
 C1330 C 0.13580 0.24254 0.86188
 C1331 C 0.15162 0.24442 0.84569
 C1332 C 0.17294 0.24563 0.85134
 C1333 C 0.18848 0.24710 0.83577
 C1334 C 0.18292 0.24740 0.81425
 C1335 C 0.16140 0.24628 0.80873
 C1336 C 0.14587 0.24480 0.82437
 H1337 H 0.06069 0.25835 0.91516
 H1338 H 0.10192 0.21028 0.93963
 H1339 H 0.07959 0.20673 0.97086
 H1340 H 0.03855 0.25567 0.94669
 H1341 H 0.17757 0.24532 0.86780
 H1342 H 0.20486 0.24790 0.84062
 H1343 H 0.15654 0.24640 0.79234
 H1344 H 0.12940 0.24384 0.81982
 C1345 C 0.57126 0.76159 0.43012
 C1346 C 0.58354 0.74395 0.42500
 C1347 C 0.58255 0.72588 0.43764
 C1348 C 0.56951 0.72549 0.45542
 C1349 C 0.55722 0.74314 0.46067
 C1350 C 0.55819 0.76122 0.44792
 C1351 C 0.59777 0.74460 0.40729
 C1352 C 0.61005 0.74504 0.39276
 C1353 C 0.62483 0.74547 0.37608
 C1354 C 0.63778 0.74580 0.36213
 C1355 C 0.65360 0.74618 0.34582
 C1356 C 0.67500 0.74637 0.35130
 C1357 C 0.69049 0.74680 0.33560
 C1358 C 0.68479 0.74705 0.31411
 C1359 C 0.66319 0.74679 0.30876
 C1360 C 0.64773 0.74636 0.32453
 H1361 H 0.57201 0.77571 0.42054
 H1362 H 0.59208 0.71220 0.43390
 H1363 H 0.56910 0.71151 0.46522
 H1364 H 0.54905 0.77507 0.45195
 H1365 H 0.67973 0.74621 0.36774
 H1366 H 0.70692 0.74695 0.34033
 H1367 H 0.65822 0.74693 0.29241
 H1368 H 0.63120 0.74619 0.32011
 C1369 C 0.94203 0.78072 0.91077
 C1370 C 0.92603 0.76636 0.91566
 C1371 C 0.92775 0.75379 0.93370
 C1372 C 0.94545 0.75551 0.94679
 C1373 C 0.96171 0.77002 0.94214
 C1374 C 0.95975 0.78246 0.92377
 C1375 C 0.90826 0.76410 0.90168
 C1376 C 0.89370 0.76229 0.88957
 C1377 C 0.87703 0.76028 0.87493
 C1378 C 0.86310 0.75865 0.86208
 C1379 C 0.84683 0.75682 0.84633
 C1380 C 0.82554 0.75618 0.85223
 C1381 C 0.80980 0.75466 0.83682
 C1382 C 0.81516 0.75376 0.81526
 C1383 C 0.83664 0.75436 0.80953
 C1384 C 0.85232 0.75588 0.82497
 H1385 H 0.94090 0.79048 0.89678
 H1386 H 0.91559 0.74238 0.93746
 H1387 H 0.94679 0.74488 0.96010
 H1388 H 0.97179 0.79385 0.91962
 H1389 H 0.82112 0.75693 0.86873
 H1390 H 0.79345 0.75429 0.84180
 H1391 H 0.84137 0.75376 0.79312
 H1392 H 0.86876 0.75640 0.82022
 C1393 C 0.43851 0.23512 0.41695
 C1394 C 0.42491 0.25252 0.41679
 C1395 C 0.42907 0.26980 0.42990
 C1396 C 0.44689 0.26976 0.44296
 C1397 C 0.46061 0.25238 0.44309
 C1398 C 0.45631 0.23507 0.42999
 C1399 C 0.40720 0.25290 0.40255
 C1400 C 0.39268 0.25311 0.39024
 C1401 C 0.37604 0.25323 0.37541
 C1402 C 0.36213 0.25322 0.36241
 C1403 C 0.34589 0.25308 0.34651
 C1404 C 0.32457 0.25254 0.35227
 C1405 C 0.30888 0.25213 0.33673
 C1406 C 0.31434 0.25222 0.31517
 C1407 C 0.33585 0.25287 0.30959
 C1408 C 0.35148 0.25328 0.32515
 H1409 H 0.43551 0.22172 0.40678
 H1410 H 0.41874 0.28340 0.42979
 H1411 H 0.45017 0.28338 0.45274
 H1412 H 0.46685 0.22163 0.42975
 H1413 H 0.32007 0.25238 0.36877
 H1414 H 0.29250 0.25168 0.34161
 H1415 H 0.34066 0.25302 0.29319
 H1416 H 0.36794 0.25371 0.32051
 C1417 C 0.06946 0.74733 0.06889
 C1418 C 0.07407 0.76351 0.08321
 C1419 C 0.06099 0.78126 0.08429
 C1420 C 0.04324 0.78276 0.07127
 C1421 C 0.03848 0.76655 0.05696
 C1422 C 0.05170 0.74881 0.05585
 C1423 C 0.09171 0.76158 0.09739
 C1424 C 0.10617 0.76003 0.10965
 C1425 C 0.12276 0.75830 0.12441
 C1426 C 0.13663 0.75689 0.13735
 C1427 C 0.15286 0.75530 0.15317
 C1428 C 0.14730 0.75444 0.17451
 C1429 C 0.16294 0.75312 0.19000
 C1430 C 0.18444 0.75264 0.18434
 C1431 C 0.18987 0.75346 0.16279
 C1432 C 0.17416 0.75478 0.14733
 H1433 H 0.07939 0.73346 0.06804
 H1434 H 0.06435 0.79380 0.09539
 H1435 H 0.03310 0.79645 0.07246
 H1436 H 0.04806 0.73603 0.04513
 H1437 H 0.13085 0.75486 0.17920
 H1438 H 0.15817 0.75258 0.20641
 H1439 H 0.20623 0.75318 0.15786
 H1440 H 0.17863 0.75547 0.13084
 C1441 C 0.57073 0.24036 0.57046
 C1442 C 0.57459 0.25729 0.58410
 C1443 C 0.56076 0.27450 0.58439
 C1444 C 0.54300 0.27468 0.57128
 C1445 C 0.53898 0.25769 0.55766
 C1446 C 0.55297 0.24052 0.55734
 C1447 C 0.59222 0.25666 0.59844
 C1448 C 0.60668 0.25609 0.61081
 C1449 C 0.62327 0.25537 0.62568
 C1450 C 0.63716 0.25473 0.63868
 C1451 C 0.65341 0.25394 0.65456
 C1452 C 0.64785 0.25362 0.67592
 C1453 C 0.66350 0.25281 0.69145
 C1454 C 0.68501 0.25230 0.68582
 C1455 C 0.69044 0.25266 0.66426
 C1456 C 0.67472 0.25346 0.64875
 H1457 H 0.58125 0.22689 0.57022
 H1458 H 0.56352 0.28763 0.59497
 H1459 H 0.53226 0.28795 0.57188
 H1460 H 0.54991 0.22713 0.54719
 H1461 H 0.63140 0.25399 0.68060
 H1462 H 0.65872 0.25261 0.70786
 H1463 H 0.70681 0.25233 0.65934
 H1464 H 0.67920 0.25372 0.63225
 C1465 C 0.91625 0.21898 0.06275
 C1466 C 0.91752 0.23673 0.07582
 C1467 C 0.93178 0.25290 0.07102
 C1468 C 0.94456 0.25143 0.05308
 C1469 C 0.94325 0.23371 0.03986
 C1470 C 0.92901 0.21750 0.04482
 C1471 C 0.90353 0.23867 0.09360
 C1472 C 0.89138 0.24023 0.10816
 C1473 C 0.87669 0.24198 0.12480
 C1474 C 0.86376 0.24340 0.13868
 C1475 C 0.84788 0.24499 0.15485
 C1476 C 0.85361 0.24541 0.17617
 C1477 C 0.83806 0.24670 0.19180
 C1478 C 0.81653 0.24760 0.18626
 C1479 C 0.81099 0.24723 0.16474
 C1480 C 0.82656 0.24594 0.14918
 H1481 H 0.90518 0.20644 0.06624
 H1482 H 0.93277 0.26677 0.08094
 H1483 H 0.95523 0.26422 0.04929
 H1484 H 0.92767 0.20382 0.03468
 H1485 H 0.87009 0.24465 0.18073
 H1486 H 0.84290 0.24689 0.20819
 H1487 H 0.79461 0.24786 0.15987
 H1488 H 0.82195 0.24560 0.13271
 C1489 C 0.41544 0.72925 0.56072
 C1490 C 0.41648 0.74617 0.57487
 C1491 C 0.43065 0.76272 0.57115
 C1492 C 0.44358 0.76243 0.55325
 C1493 C 0.44252 0.74552 0.53899
 C1494 C 0.42835 0.72895 0.54284
 C1495 C 0.40244 0.74682 0.59272
 C1496 C 0.39027 0.74725 0.60735
 C1497 C 0.37558 0.74767 0.62409
 C1498 C 0.36266 0.74797 0.63807
 C1499 C 0.34683 0.74830 0.65437
 C1500 C 0.35268 0.74839 0.67567
 C1501 C 0.33718 0.74874 0.69142
 C1502 C 0.31560 0.74901 0.68604
 C1503 C 0.30993 0.74886 0.66454
 C1504 C 0.32544 0.74852 0.64886
 H1505 H 0.40447 0.71643 0.56337
 H1506 H 0.43148 0.77595 0.58192
 H1507 H 0.45422 0.77547 0.55035
 H1508 H 0.42721 0.71589 0.53189
 H1509 H 0.36920 0.74820 0.68012
 H1510 H 0.34213 0.74880 0.70778
 H1511 H 0.29351 0.74902 0.65979
 H1512 H 0.32074 0.74842 0.63242
 C1513 C 0.27070 0.08725 0.94097
 C1514 C 0.25386 0.08511 0.92686
 C1515 C 0.23851 0.06967 0.93037
 C1516 C 0.24002 0.05635 0.94791
 C1517 C 0.25712 0.05807 0.96210
 C1518 C 0.27224 0.07400 0.95851
 C1519 C 0.25211 0.09919 0.90913
 C1520 C 0.25085 0.11130 0.89452
 C1521 C 0.24960 0.12585 0.87771
 C1522 C 0.24874 0.13861 0.86364
 C1523 C 0.24796 0.15427 0.84723
 C1524 C 0.24855 0.14831 0.82596
 C1525 C 0.24832 0.16367 0.81011
 C1526 C 0.24755 0.18522 0.81535
 C1527 C 0.24678 0.19100 0.83680
 C1528 C 0.24700 0.17563 0.85259
 H1529 H 0.28261 0.09926 0.93847
 H1530 H 0.22519 0.06811 0.91975
 H1531 H 0.22741 0.04516 0.95073
 H1532 H 0.28555 0.07596 0.96908
 H1533 H 0.24931 0.13181 0.82164
 H1534 H 0.24890 0.15865 0.79379
 H1535 H 0.24611 0.20740 0.84145
 H1536 H 0.24654 0.18042 0.86900
 C1537 C 0.73523 0.57126 0.43090
 C1538 C 0.75276 0.58375 0.42589
 C1539 C 0.77079 0.58306 0.43868
 C1540 C 0.77123 0.57009 0.45650
 C1541 C 0.75368 0.55758 0.46162
 C1542 C 0.73565 0.55828 0.44873
 C1543 C 0.75203 0.59783 0.40810
 C1544 C 0.75144 0.60998 0.39348
 C1545 C 0.75082 0.62459 0.37670
 C1546 C 0.75037 0.63742 0.36267
 C1547 C 0.74993 0.65315 0.34631
 C1548 C 0.74928 0.67450 0.35174
 C1549 C 0.74913 0.68991 0.33600
 C1550 C 0.74966 0.68419 0.31453
 C1551 C 0.75019 0.66264 0.30922
 C1552 C 0.75034 0.64724 0.32503
 H1553 H 0.72115 0.57178 0.42120
 H1554 H 0.78439 0.59275 0.43502
 H1555 H 0.78517 0.56990 0.46641
 H1556 H 0.72186 0.54898 0.45265
 H1557 H 0.74895 0.67924 0.36816
 H1558 H 0.74866 0.70631 0.34070
 H1559 H 0.75057 0.65766 0.29288
 H1560 H 0.75084 0.63075 0.32065
 C1561 C 0.73615 0.05945 0.08611
 C1562 C 0.75250 0.07423 0.08469
 C1563 C 0.76881 0.07126 0.07005
 C1564 C 0.76888 0.05346 0.05703
 C1565 C 0.75256 0.03855 0.05850
 C1566 C 0.73620 0.04166 0.07312
 C1567 C 0.75285 0.09199 0.09879
 C1568 C 0.75303 0.10655 0.11100
 C1569 C 0.75313 0.12322 0.12572
 C1570 C 0.75312 0.13716 0.13864
 C1571 C 0.75297 0.15345 0.15444
 C1572 C 0.75297 0.17469 0.14853
 C1573 C 0.75261 0.19044 0.16398
 C1574 C 0.75222 0.18512 0.18556
 C1575 C 0.75232 0.16368 0.19128
 C1576 C 0.75268 0.14799 0.17582
 H1577 H 0.72351 0.06154 0.09745
 H1578 H 0.78161 0.08254 0.06891
 H1579 H 0.78175 0.05114 0.04602
 H1580 H 0.72359 0.03022 0.07455
 H1581 H 0.75320 0.17908 0.13201
 H1582 H 0.75260 0.20676 0.15899
 H1583 H 0.75208 0.15898 0.20771
 H1584 H 0.75269 0.13159 0.18056
 C1585 C 0.23145 0.56091 0.58500
 C1586 C 0.24824 0.57521 0.58387
 C1587 C 0.26466 0.57181 0.56944
 C1588 C 0.26438 0.55405 0.55636
 C1589 C 0.24762 0.53959 0.55754
 C1590 C 0.23116 0.54316 0.57194
 C1591 C 0.24898 0.59288 0.59812
 C1592 C 0.24954 0.60736 0.61043
 C1593 C 0.25011 0.62396 0.62526
 C1594 C 0.25050 0.63785 0.63825
 C1595 C 0.25085 0.65408 0.65413
 C1596 C 0.25091 0.67536 0.64833
 C1597 C 0.25097 0.69105 0.66385
 C1598 C 0.25095 0.68565 0.68542
 C1599 C 0.25100 0.66418 0.69104
 C1600 C 0.25095 0.64855 0.67550
 H1601 H 0.21873 0.56332 0.59618
 H1602 H 0.27780 0.58269 0.56854
 H1603 H 0.27738 0.55136 0.54558
 H1604 H 0.21822 0.53207 0.57319
 H1605 H 0.25084 0.67983 0.63182
 H1606 H 0.25097 0.70739 0.65893
 H1607 H 0.25103 0.65941 0.70745
 H1608 H 0.25091 0.63212 0.68017
 C1609 C 0.73842 0.92873 0.93178
 C1610 C 0.75425 0.92639 0.91652
 C1611 C 0.77008 0.94167 0.91463
 C1612 C 0.76997 0.95934 0.92779
 C1613 C 0.75408 0.96184 0.94303
 C1614 C 0.73829 0.94641 0.94495
 C1615 C 0.75383 0.90877 0.90224
 C1616 C 0.75343 0.89431 0.88992
 C1617 C 0.75291 0.87771 0.87512
 C1618 C 0.75243 0.86379 0.86219
 C1619 C 0.75183 0.84748 0.84643
 C1620 C 0.75118 0.85288 0.82503
 C1621 C 0.75059 0.83715 0.80962
 C1622 C 0.75063 0.81573 0.81541
 C1623 C 0.75130 0.81047 0.83700
 C1624 C 0.75189 0.82626 0.85239
 H1625 H 0.72601 0.91707 0.93327
 H1626 H 0.78234 0.94007 0.90281
 H1627 H 0.78216 0.97118 0.92598
 H1628 H 0.72574 0.94825 0.95641
 H1629 H 0.75114 0.86928 0.82025
 H1630 H 0.75013 0.84180 0.79318
 H1631 H 0.75140 0.79416 0.84203
 H1632 H 0.75240 0.82191 0.86892
 C1633 C 0.23439 0.42900 0.43073
 C1634 C 0.25110 0.42575 0.41661
 C1635 C 0.26775 0.44025 0.41574
 C1636 C 0.26759 0.45803 0.42875
 C1637 C 0.25083 0.46143 0.44285
 C1638 C 0.23422 0.44680 0.44376
 C1639 C 0.25083 0.40803 0.40242
 C1640 C 0.25062 0.39351 0.39015
 C1641 C 0.25040 0.37685 0.37538
 C1642 C 0.25021 0.36293 0.36243
 C1643 C 0.24998 0.34667 0.34658
 C1644 C 0.24965 0.35216 0.32520
 C1645 C 0.24942 0.33650 0.30970
 C1646 C 0.24948 0.31504 0.31536
 C1647 C 0.24984 0.30968 0.33694
 C1648 C 0.25007 0.32540 0.35242
 H1649 H 0.22136 0.41796 0.43144
 H1650 H 0.28069 0.43796 0.40479
 H1651 H 0.28042 0.46927 0.42770
 H1652 H 0.22102 0.44935 0.45432
 H1653 H 0.24959 0.36857 0.32050
 H1654 H 0.24919 0.34124 0.29328
 H1655 H 0.24995 0.29335 0.34189
 H1656 H 0.25034 0.32097 0.36894
 C1657 C 0.26433 0.92755 0.06830
 C1658 C 0.24570 0.91732 0.07437
 C1659 C 0.22709 0.92058 0.06288
 C1660 C 0.22715 0.93384 0.04526
 C1661 C 0.24581 0.94406 0.03906
 C1662 C 0.26441 0.94081 0.05068
 C1663 C 0.24589 0.90279 0.09182
 C1664 C 0.24614 0.89030 0.10615
 C1665 C 0.24653 0.87532 0.12261
 C1666 C 0.24692 0.86225 0.13641
 C1667 C 0.24745 0.84634 0.15259
 C1668 C 0.24756 0.82503 0.14695
 C1669 C 0.24815 0.80946 0.16255
 C1670 C 0.24866 0.81501 0.18406
 C1671 C 0.24851 0.83651 0.18957
 C1672 C 0.24792 0.85205 0.17392
 H1673 H 0.27885 0.92501 0.07698
 H1674 H 0.21263 0.91263 0.06735
 H1675 H 0.21275 0.93598 0.03629
 H1676 H 0.27901 0.94829 0.04588
 H1677 H 0.24719 0.82042 0.13049
 H1678 H 0.24818 0.79310 0.15771
 H1679 H 0.24884 0.84136 0.20595
 H1680 H 0.24784 0.86851 0.17845
 C1681 C 0.76474 0.42884 0.57035
 C1682 C 0.74698 0.41656 0.57504
 C1683 C 0.72909 0.41766 0.56209
 C1684 C 0.72903 0.43082 0.54440
 C1685 C 0.74683 0.44309 0.53957
 C1686 C 0.76470 0.44201 0.55265
 C1687 C 0.74736 0.40219 0.59261
 C1688 C 0.74767 0.38980 0.60703
 C1689 C 0.74802 0.37493 0.62359
 C1690 C 0.74832 0.36194 0.63746
 C1691 C 0.74868 0.34609 0.65371
 C1692 C 0.74868 0.32476 0.64818
 C1693 C 0.74907 0.30927 0.66385
 C1694 C 0.74948 0.31491 0.68534
 C1695 C 0.74944 0.33645 0.69074
 C1696 C 0.74905 0.35191 0.67501
 H1697 H 0.77872 0.42799 0.58018
 H1698 H 0.71531 0.40813 0.56550
 H1699 H 0.71521 0.43130 0.53434
 H1700 H 0.77868 0.45112 0.54894
 H1701 H 0.74838 0.32008 0.63173
 H1702 H 0.74903 0.29288 0.65909
 H1703 H 0.74971 0.34137 0.70710
 H1704 H 0.74904 0.36839 0.67947
 C1705 C 0.05832 0.08653 0.77410
 C1706 C 0.07243 0.08463 0.75723
 C1707 C 0.06891 0.06940 0.74167
 C1708 C 0.05140 0.05602 0.74302
 C1709 C 0.03726 0.05747 0.76018
 C1710 C 0.04082 0.07323 0.77549
 C1711 C 0.09015 0.09875 0.75572
 C1712 C 0.10474 0.11090 0.75471
 C1713 C 0.12149 0.12553 0.75377
 C1714 C 0.13551 0.13836 0.75313
 C1715 C 0.15187 0.15409 0.75250
 C1716 C 0.17315 0.14817 0.75186
 C1717 C 0.18895 0.16357 0.75137
 C1718 C 0.18365 0.18512 0.75151
 C1719 C 0.16217 0.19086 0.75218
 C1720 C 0.14643 0.17545 0.75267
 H1721 H 0.06080 0.09838 0.78616
 H1722 H 0.07953 0.06805 0.72833
 H1723 H 0.04858 0.04498 0.73030
 H1724 H 0.03025 0.07498 0.78882
 H1725 H 0.17752 0.13167 0.75176
 H1726 H 0.20530 0.15858 0.75089
 H1727 H 0.15748 0.20727 0.75235
 H1728 H 0.13001 0.18020 0.75320
 C1729 C 0.56166 0.58327 0.22780
 C1730 C 0.57483 0.58260 0.24555
 C1731 C 0.57021 0.56879 0.26216
 C1732 C 0.55236 0.55584 0.26112
 C1733 C 0.53906 0.55654 0.24339
 C1734 C 0.54383 0.57034 0.22675
 C1735 C 0.59258 0.59669 0.24698
 C1736 C 0.60713 0.60889 0.24805
 C1737 C 0.62379 0.62361 0.24914
 C1738 C 0.63771 0.63654 0.24991
 C1739 C 0.65395 0.65239 0.25061
 C1740 C 0.67528 0.64667 0.24986
 C1741 C 0.69096 0.66220 0.25002
 C1742 C 0.68548 0.68370 0.25090
 C1743 C 0.66396 0.68923 0.25184
 C1744 C 0.64835 0.67368 0.25168
 H1745 H 0.56502 0.59398 0.21492
 H1746 H 0.58021 0.56825 0.27602
 H1747 H 0.54872 0.54551 0.27423
 H1748 H 0.53362 0.57122 0.21305
 H1749 H 0.67979 0.63023 0.24902
 H1750 H 0.70734 0.65736 0.24931
 H1751 H 0.65914 0.70558 0.25258
 H1752 H 0.63188 0.67829 0.25227
 C1753 C 0.07233 0.93103 0.25941
 C1754 C 0.08387 0.92559 0.24136
 C1755 C 0.08199 0.93774 0.22300
 C1756 C 0.06878 0.95538 0.22275
 C1757 C 0.05724 0.96095 0.24083
 C1758 C 0.05912 0.94868 0.25918
 C1759 C 0.09827 0.90806 0.24193
 C1760 C 0.11065 0.89365 0.24248
 C1761 C 0.12549 0.87709 0.24322
 C1762 C 0.13843 0.86319 0.24391
 C1763 C 0.15421 0.84690 0.24480
 C1764 C 0.17559 0.85232 0.24580
 C1765 C 0.19101 0.83661 0.24672
 C1766 C 0.18525 0.81518 0.24667
 C1767 C 0.16367 0.80989 0.24563
 C1768 C 0.14827 0.82566 0.24471
 H1769 H 0.07379 0.92183 0.27374
 H1770 H 0.09096 0.93374 0.20900
 H1771 H 0.06769 0.96484 0.20856
 H1772 H 0.05059 0.95298 0.27336
 H1773 H 0.18036 0.86872 0.24587
 H1774 H 0.20744 0.84128 0.24746
 H1775 H 0.15866 0.79358 0.24551
 H1776 H 0.13175 0.82129 0.24393
 C1777 C 0.56939 0.42885 0.73450
 C1778 C 0.58384 0.42558 0.75092
 C1779 C 0.58481 0.43987 0.76773
 C1780 C 0.57158 0.45750 0.76801
 C1781 C 0.55717 0.46095 0.75153
 C1782 C 0.55614 0.44649 0.73477
 C1783 C 0.59827 0.40806 0.75018
 C1784 C 0.61071 0.39370 0.74963
 C1785 C 0.62566 0.37720 0.74909
 C1786 C 0.63870 0.36336 0.74874
 C1787 C 0.65456 0.34711 0.74848
 C1788 C 0.67596 0.35257 0.74880
 C1789 C 0.69145 0.33688 0.74890
 C1790 C 0.68573 0.31543 0.74871
 C1791 C 0.66414 0.31012 0.74824
 C1792 C 0.64868 0.32586 0.74814
 H1793 H 0.56860 0.41797 0.72135
 H1794 H 0.59600 0.43756 0.78046
 H1795 H 0.57272 0.46860 0.78095
 H1796 H 0.54535 0.44909 0.72176
 H1797 H 0.68069 0.36897 0.74905
 H1798 H 0.70788 0.34157 0.74922
 H1799 H 0.65915 0.29380 0.74804
 H1800 H 0.63215 0.32145 0.74788
 C1801 C 0.92700 0.06787 0.23067
 C1802 C 0.91598 0.07372 0.24892
 C1803 C 0.91822 0.06186 0.26743
 C1804 C 0.93131 0.04414 0.26766
 C1805 C 0.94237 0.03820 0.24942
 C1806 C 0.94010 0.05013 0.23089
 C1807 C 0.90179 0.09142 0.24852
 C1808 C 0.88958 0.10599 0.24828
 C1809 C 0.87491 0.12272 0.24812
 C1810 C 0.86206 0.13672 0.24811
 C1811 C 0.84634 0.15309 0.24822
 C1812 C 0.82492 0.14773 0.24857
 C1813 C 0.80953 0.16349 0.24894
 C1814 C 0.81535 0.18491 0.24898
 C1815 C 0.83697 0.19013 0.24853
 C1816 C 0.85234 0.17431 0.24816
 H1817 H 0.92526 0.07685 0.21624
 H1818 H 0.90966 0.06618 0.28160
 H1819 H 0.93274 0.03495 0.28200
 H1820 H 0.94829 0.04555 0.21660
 H1821 H 0.82011 0.13135 0.24861
 H1822 H 0.79307 0.15887 0.24922
 H1823 H 0.84203 0.20643 0.24850
 H1824 H 0.86889 0.17862 0.24789
 C1825 C 0.41500 0.55954 0.73042
 C1826 C 0.41574 0.57413 0.74699
 C1827 C 0.42976 0.57100 0.76381
 C1828 C 0.44283 0.55323 0.76415
 C1829 C 0.44207 0.53851 0.74761
 C1830 C 0.42806 0.54179 0.73076
 C1831 C 0.40153 0.59184 0.74707
 C1832 C 0.38927 0.60638 0.74714
 C1833 C 0.37453 0.62307 0.74727
 C1834 C 0.36163 0.63704 0.74742
 C1835 C 0.34586 0.65338 0.74768
 C1836 C 0.35181 0.67461 0.74765
 C1837 C 0.33641 0.69041 0.74809
 C1838 C 0.31480 0.68516 0.74859
 C1839 C 0.30902 0.66374 0.74853
 C1840 C 0.32444 0.64800 0.74809
 H1841 H 0.40414 0.56175 0.71740
 H1842 H 0.43036 0.58211 0.77677
 H1843 H 0.45332 0.55077 0.77743
 H1844 H 0.42713 0.53049 0.71797
 H1845 H 0.36835 0.67896 0.74733
 H1846 H 0.34144 0.70672 0.74808
 H1847 H 0.29257 0.65908 0.74886
 H1848 H 0.31965 0.63161 0.74811
 C1849 C 0.94014 0.91449 0.76830
 C1850 C 0.92494 0.91682 0.75243
 C1851 C 0.92766 0.93217 0.73676
 C1852 C 0.94561 0.94504 0.73691
 C1853 C 0.96092 0.94268 0.75277
 C1854 C 0.95806 0.92732 0.76845
 C1855 C 0.90698 0.90293 0.75195
 C1856 C 0.89232 0.89083 0.75176
 C1857 C 0.87558 0.87615 0.75172
 C1858 C 0.86164 0.86321 0.75177
 C1859 C 0.84545 0.84730 0.75187
 C1860 C 0.82411 0.85295 0.75118
 C1861 C 0.80848 0.83737 0.75117
 C1862 C 0.81403 0.81588 0.75184
 C1863 C 0.83557 0.81041 0.75263
 C1864 C 0.85113 0.82601 0.75264
 H1865 H 0.93825 0.90260 0.78043
 H1866 H 0.91605 0.93403 0.72434
 H1867 H 0.94770 0.95667 0.72457
 H1868 H 0.96979 0.92521 0.78072
 H1869 H 0.81954 0.86940 0.75061
 H1870 H 0.79208 0.84216 0.75059
 H1871 H 0.84045 0.79407 0.75321
 H1872 H 0.86761 0.82146 0.75321
 C1873 C 0.43771 0.41549 0.22882
 C1874 C 0.42452 0.41639 0.24655
 C1875 C 0.42919 0.43035 0.26302
 C1876 C 0.44709 0.44321 0.26186
 C1877 C 0.46040 0.44229 0.24414
 C1878 C 0.45559 0.42833 0.22765
 C1879 C 0.40669 0.40241 0.24808
 C1880 C 0.39207 0.39030 0.24924
 C1881 C 0.37533 0.37567 0.25040
 C1882 C 0.36137 0.36278 0.25122
 C1883 C 0.34512 0.34694 0.25196
 C1884 C 0.35073 0.32566 0.25319
 C1885 C 0.33512 0.31011 0.25332
 C1886 C 0.31361 0.31561 0.25220
 C1887 C 0.30812 0.33710 0.25119
 C1888 C 0.32379 0.35264 0.25105
 H1889 H 0.43431 0.40466 0.21604
 H1890 H 0.41918 0.43107 0.27687
 H1891 H 0.45076 0.45367 0.27487
 H1892 H 0.46579 0.42728 0.21397
 H1893 H 0.36719 0.32107 0.25390
 H1894 H 0.33996 0.29376 0.25417
 H1895 H 0.29174 0.34192 0.25034
 H1896 H 0.31928 0.36908 0.25009
   
