data_POSCAR
  _audit_creation_date              2014-09-24
  _audit_creation_method            'ToBaCCo'
  _symmetry_space_group_name_H-M    'P1'
  _symmetry_Int_Tables_number       1
  _symmetry_cell_setting            triclinic
  loop_
  _symmetry_equiv_pos_as_xyz
 x,y,z
_cell_length_a 87.6519
_cell_length_b 88.7615
_cell_length_c 87.0587
_cell_angle_alpha 89.992000
_cell_angle_beta 90.169800
_cell_angle_gamma 90.022000
loop_
  _atom_site_label
  _atom_site_type_symbol
  _atom_site_fract_x
  _atom_site_fract_y
  _atom_site_fract_z
C1 C 0.34207 0.42586 0.90680
 C2 C 0.33500 0.43250 0.89400
 C3 C 0.32147 0.42642 0.88804
 C4 C 0.31504 0.41351 0.89464
 C5 C 0.32197 0.40671 0.90743
 C6 C 0.33554 0.41291 0.91357
 C7 C 0.35525 0.43224 0.91326
 C8 C 0.36186 0.42589 0.92645
 C9 C 0.35549 0.41296 0.93309
 C10 C 0.34232 0.40643 0.92676
 C11 C 0.33549 0.39386 0.93369
 C12 C 0.32197 0.38783 0.92766
 C13 C 0.31530 0.39415 0.91452
 H14 H 0.33979 0.44259 0.88890
 H15 H 0.30448 0.40899 0.89003
 H16 H 0.36015 0.44234 0.90827
 H17 H 0.36057 0.40819 0.94338
 H18 H 0.34046 0.38899 0.94398
 H19 H 0.30474 0.38949 0.91005
 C20 C 0.43337 0.83805 0.41474
 C21 C 0.43927 0.85130 0.42123
 C22 C 0.43228 0.85776 0.43410
 C23 C 0.41925 0.85111 0.44049
 C24 C 0.41321 0.83786 0.43413
 C25 C 0.42030 0.83127 0.42122
 C26 C 0.44045 0.83133 0.40204
 C27 C 0.43464 0.81794 0.39584
 C28 C 0.42166 0.81121 0.40220
 C29 C 0.41443 0.81779 0.41489
 C30 C 0.40159 0.81102 0.42152
 C31 C 0.39462 0.81753 0.43435
 C32 C 0.40036 0.83093 0.44061
 H33 H 0.44941 0.85646 0.41640
 H34 H 0.41396 0.85613 0.45051
 H35 H 0.45054 0.83641 0.39705
 H36 H 0.41729 0.80081 0.39734
 H37 H 0.39708 0.80060 0.41681
 H38 H 0.39491 0.83584 0.45060
 C39 C 0.92625 0.90425 0.84253
 C40 C 0.93245 0.89130 0.83574
 C41 C 0.92588 0.88527 0.82239
 C42 C 0.91289 0.89196 0.81590
 C43 C 0.90655 0.90491 0.82254
 C44 C 0.91326 0.91112 0.83590
 C45 C 0.93314 0.91078 0.85549
 C46 C 0.92724 0.92410 0.86177
 C47 C 0.91427 0.93083 0.85531
 C48 C 0.90725 0.92446 0.84236
 C49 C 0.89468 0.93149 0.83541
 C50 C 0.88817 0.92540 0.82208
 C51 C 0.89397 0.91209 0.81574
 H52 H 0.94260 0.88615 0.84061
 H53 H 0.90796 0.88732 0.80547
 H54 H 0.94329 0.90572 0.86045
 H55 H 0.90986 0.94123 0.86013
 H56 H 0.89019 0.94189 0.84012
 H57 H 0.88893 0.90757 0.80532
 C58 C 0.42919 -0.09235 0.33903
 C59 C 0.43610 -0.10433 0.33118
 C60 C 0.42937 -0.11016 0.31783
 C61 C 0.41562 -0.10419 0.31231
 C62 C 0.40856 -0.09220 0.32001
 C63 C 0.41536 -0.08623 0.33344
 C64 C 0.43607 -0.08610 0.35213
 C65 C 0.42932 -0.07382 0.35959
 C66 C 0.41555 -0.06782 0.35415
 C67 C 0.40852 -0.07392 0.34107
 C68 C 0.39503 -0.06764 0.33518
 C69 C 0.38841 -0.07349 0.32178
 C70 C 0.39507 -0.08579 0.31429
 H71 H 0.44679 -0.10898 0.33530
 H72 H 0.41056 -0.10873 0.30191
 H73 H 0.44681 -0.09056 0.35635
 H74 H 0.41051 -0.05821 0.35992
 H75 H 0.38986 -0.05801 0.34079
 H76 H 0.38993 -0.09012 0.30384
 C77 C 0.84354 0.32475 0.34475
 C78 C 0.83610 0.31824 0.35735
 C79 C 0.82272 0.32472 0.36313
 C80 C 0.81681 0.33788 0.35653
 C81 C 0.82409 0.34453 0.34391
 C82 C 0.83752 0.33795 0.33796
 C83 C 0.85657 0.31800 0.33844
 C84 C 0.86351 0.32424 0.32544
 C85 C 0.85767 0.33741 0.31880
 C86 C 0.84465 0.34430 0.32494
 C87 C 0.83831 0.35708 0.31796
 C88 C 0.82491 0.36347 0.32377
 C89 C 0.81790 0.35732 0.33677
 H90 H 0.84048 0.30796 0.36245
 H91 H 0.80635 0.34270 0.36099
 H92 H 0.86109 0.30770 0.34338
 H93 H 0.86303 0.34204 0.30862
 H94 H 0.84355 0.36185 0.30778
 H95 H 0.80744 0.36226 0.34108
 C96 C -0.17480 0.84643 0.84377
 C97 C -0.18133 0.85904 0.83658
 C98 C -0.17486 0.86495 0.82316
 C99 C -0.16164 0.85847 0.81699
 C100 C -0.15497 0.84586 0.82403
 C101 C -0.16158 0.83978 0.83746
 C102 C -0.18161 0.83997 0.85677
 C103 C -0.17542 0.82695 0.86339
 C104 C -0.16221 0.82044 0.85727
 C105 C -0.15526 0.82674 0.84428
 C106 C -0.14248 0.81987 0.83761
 C107 C -0.13608 0.82582 0.82419
 C108 C -0.14220 0.83885 0.81751
 H109 H -0.19167 0.86400 0.84119
 H110 H -0.15679 0.86298 0.80649
 H111 H -0.19195 0.84481 0.86149
 H112 H -0.15762 0.81025 0.86237
 H113 H -0.13775 0.80968 0.84258
 H114 H -0.13727 0.84325 0.80701
 C115 C 0.91149 0.34106 0.43211
 C116 C 0.91860 0.35362 0.43879
 C117 C 0.93154 0.35999 0.43196
 C118 C 0.93734 0.35399 0.41828
 C119 C 0.93037 0.34142 0.41146
 C120 C 0.91740 0.33490 0.41840
 C121 C 0.89885 0.33427 0.43914
 C122 C 0.89218 0.32140 0.43267
 C123 C 0.89795 0.31533 0.41902
 C124 C 0.91057 0.32198 0.41183
 C125 C 0.91677 0.31568 0.39847
 C126 C 0.92972 0.32209 0.39170
 C127 C 0.93642 0.33498 0.39809
 H128 H 0.91425 0.35825 0.44945
 H129 H 0.94744 0.35891 0.41312
 H130 H 0.89437 0.33880 0.44979
 H131 H 0.89278 0.30528 0.41419
 H132 H 0.91177 0.30561 0.39351
 H133 H 0.94654 0.33976 0.39284
 C134 C 0.40499 0.42486 0.84181
 C135 C 0.41185 0.43129 0.85482
 C136 C 0.42456 0.42443 0.86164
 C137 C 0.43036 0.41095 0.85567
 C138 C 0.42364 0.40436 0.84266
 C139 C 0.41091 0.41134 0.83566
 C140 C 0.39268 0.43199 0.83449
 C141 C 0.38634 0.42582 0.82111
 C142 C 0.39208 0.41234 0.81507
 C143 C 0.40440 0.40506 0.82223
 C144 C 0.41070 0.39193 0.81590
 C145 C 0.42343 0.38515 0.82277
 C146 C 0.42979 0.39125 0.83618
 H147 H 0.40756 0.44182 0.85943
 H148 H 0.44032 0.40582 0.86093
 H149 H 0.38825 0.44252 0.83897
 H150 H 0.38720 0.40775 0.80461
 H151 H 0.40598 0.38721 0.80542
 H152 H 0.43976 0.38601 0.84129
 C153 C 0.84416 0.90516 0.92663
 C154 C 0.83787 0.89228 0.93347
 C155 C 0.82444 0.88590 0.92757
 C156 C 0.81738 0.89218 0.91461
 C157 C 0.82351 0.90506 0.90763
 C158 C 0.83694 0.91163 0.91367
 C159 C 0.85719 0.91203 0.93286
 C160 C 0.86298 0.92529 0.92636
 C161 C 0.85594 0.93164 0.91341
 C162 C 0.84289 0.92491 0.90704
 C163 C 0.83536 0.93154 0.89451
 C164 C 0.82196 0.92508 0.88865
 C165 C 0.81613 0.91183 0.89509
 H166 H 0.84319 0.88745 0.94361
 H167 H 0.80690 0.88728 0.91020
 H168 H 0.86260 0.90728 0.94299
 H169 H 0.86038 0.94200 0.90854
 H170 H 0.83967 0.94190 0.88954
 H171 H 0.80567 0.90702 0.89057
 C172 C 0.33659 0.83685 0.31469
 C173 C 0.33076 0.85017 0.30828
 C174 C 0.31789 0.85709 0.31470
 C175 C 0.31086 0.85083 0.32766
 C176 C 0.31654 0.83752 0.33420
 C177 C 0.32944 0.83047 0.32769
 C178 C 0.34926 0.82964 0.30817
 C179 C 0.35477 0.81617 0.31447
 C180 C 0.34774 0.80986 0.32739
 C181 C 0.33506 0.81690 0.33404
 C182 C 0.32774 0.81050 0.34678
 C183 C 0.31491 0.81748 0.35315
 C184 C 0.30936 0.83097 0.34694
 H185 H 0.33608 0.85502 0.29819
 H186 H 0.30083 0.85619 0.33249
 H187 H 0.35475 0.83440 0.29813
 H188 H 0.35206 0.79939 0.33213
 H189 H 0.33190 0.80001 0.35163
 H190 H 0.29937 0.83623 0.35192
 C191 C 0.84347 0.40776 0.42943
 C192 C 0.83672 0.39523 0.43651
 C193 C 0.82377 0.38849 0.43003
 C194 C 0.81758 0.39406 0.41630
 C195 C 0.82418 0.40658 0.40907
 C196 C 0.83718 0.41349 0.41566
 C197 C 0.85607 0.41497 0.43616
 C198 C 0.86235 0.42785 0.42932
 C199 C 0.85623 0.43346 0.41557
 C200 C 0.84362 0.42639 0.40871
 C201 C 0.83700 0.43231 0.39532
 C202 C 0.82402 0.42555 0.38892
 C203 C 0.81771 0.41266 0.39567
 H204 H 0.84131 0.39093 0.44723
 H205 H 0.80745 0.38886 0.41148
 H206 H 0.86078 0.41077 0.44688
 H207 H 0.86106 0.44351 0.41041
 H208 H 0.84169 0.44239 0.39009
 H209 H 0.80755 0.40762 0.39072
 C210 C 0.92545 0.84579 -0.09471
 C211 C 0.93167 0.85865 -0.08772
 C212 C 0.92490 0.86473 -0.07456
 C213 C 0.91170 0.85820 -0.06843
 C214 C 0.90532 0.84534 -0.07529
 C215 C 0.91223 0.83907 -0.08847
 C216 C 0.93255 0.83921 -0.10748
 C217 C 0.92663 0.82597 -0.11396
 C218 C 0.91341 0.81939 -0.10789
 C219 C 0.90619 0.82583 -0.09513
 C220 C 0.89337 0.81894 -0.08856
 C221 C 0.88665 0.82508 -0.07540
 C222 C 0.89250 0.83830 -0.06886
 H223 H 0.94198 0.86370 -0.09226
 H224 H 0.90666 0.86290 -0.05813
 H225 H 0.94287 0.84416 -0.11214
 H226 H 0.90898 0.80906 -0.11287
 H227 H 0.88884 0.80861 -0.09342
 H228 H 0.88731 0.84286 -0.05856
 C229 C 0.33775 0.34078 0.81798
 C230 C 0.33123 0.35341 0.81086
 C231 C 0.31776 0.35971 0.81664
 C232 C 0.31082 0.35356 0.82968
 C233 C 0.31718 0.34092 0.83694
 C234 C 0.33070 0.33447 0.83107
 C235 C 0.35096 0.33408 0.81201
 C236 C 0.35708 0.32116 0.81892
 C237 C 0.35018 0.31495 0.83196
 C238 C 0.33697 0.32150 0.83808
 C239 C 0.32967 0.31509 0.85083
 C240 C 0.31622 0.32146 0.85655
 C241 C 0.31004 0.33438 0.84970
 H242 H 0.33645 0.35820 0.80069
 H243 H 0.30033 0.35846 0.83398
 H244 H 0.35631 0.33871 0.80183
 H245 H 0.35493 0.30486 0.83713
 H246 H 0.33428 0.30501 0.85614
 H247 H 0.29955 0.33914 0.85415
 C248 C 0.15380 0.57916 0.59491
 C249 C 0.14110 0.57224 0.58808
 C250 C 0.13446 0.57844 0.57487
 C251 C 0.14025 0.59178 0.56855
 C252 C 0.15295 0.59886 0.57524
 C253 C 0.15980 0.59252 0.58847
 C254 C 0.16100 0.57264 0.60769
 C255 C 0.17412 0.57923 0.61397
 C256 C 0.18000 0.59256 0.60772
 C257 C 0.17295 0.59925 0.59494
 C258 C 0.17915 0.61219 0.58813
 C259 C 0.17244 0.61835 0.57492
 C260 C 0.15932 0.61180 0.56858
 H261 H 0.13664 0.56181 0.59276
 H262 H 0.13513 0.59638 0.55821
 H263 H 0.15665 0.56222 0.61250
 H264 H 0.19028 0.59747 0.61257
 H265 H 0.18943 0.61725 0.59283
 H266 H 0.15433 0.61654 0.55824
 C267 C 0.58558 0.68256 0.08395
 C268 C 0.59857 0.68929 0.07755
 C269 C 0.60537 0.68310 0.06445
 C270 C 0.59930 0.67007 0.05771
 C271 C 0.58632 0.66318 0.06396
 C272 C 0.57940 0.66944 0.07715
 C273 C 0.57849 0.68884 0.09689
 C274 C 0.56536 0.68217 0.10302
 C275 C 0.55926 0.66913 0.09634
 C276 C 0.56619 0.66271 0.08340
 C277 C 0.56001 0.64983 0.07643
 C278 C 0.56684 0.64369 0.06332
 C279 C 0.57997 0.65029 0.05714
 H280 H 0.60331 0.69943 0.08263
 H281 H 0.60460 0.66541 0.04751
 H282 H 0.58307 0.69898 0.10211
 H283 H 0.54905 0.66410 0.10113
 H284 H 0.54979 0.64467 0.08107
 H285 H 0.58512 0.64549 0.04694
 C286 C 0.68393 0.16327 0.66691
 C287 C 0.69019 0.16979 0.65367
 C288 C 0.68372 0.18284 0.64737
 C289 C 0.67088 0.18941 0.65417
 C290 C 0.66447 0.18303 0.66741
 C291 C 0.67102 0.16991 0.67384
 C292 C 0.69050 0.15036 0.67349
 C293 C 0.68430 0.14410 0.68688
 C294 C 0.67145 0.15063 0.69372
 C295 C 0.66476 0.16354 0.68730
 C296 C 0.65207 0.17033 0.69422
 C297 C 0.64565 0.18338 0.68787
 C298 C 0.65179 0.18968 0.67449
 H299 H 0.70019 0.16485 0.64837
 H300 H 0.66601 0.19956 0.64925
 H301 H 0.70049 0.14529 0.66829
 H302 H 0.66675 0.14576 0.70412
 H303 H 0.64726 0.16558 0.70461
 H304 H 0.64677 0.19983 0.66970
 C305 C 1.08632 0.06894 0.16213
 C306 C 1.09932 0.06227 0.16866
 C307 C 1.10610 0.06856 0.18176
 C308 C 1.10006 0.08164 0.18835
 C309 C 1.08707 0.08847 0.18197
 C310 C 1.08014 0.08209 0.16881
 C311 C 1.07918 0.06249 0.14928
 C312 C 1.06595 0.06901 0.14310
 C313 C 1.05987 0.08212 0.14964
 C314 C 1.06686 0.08871 0.16250
 C315 C 1.06062 0.10157 0.16940
 C316 C 1.06744 0.10779 0.18251
 C317 C 1.08066 0.10133 0.18873
 H318 H 1.10403 0.05207 0.16372
 H319 H 1.10533 0.08635 0.19857
 H320 H 1.08377 0.05228 0.14423
 H321 H 1.04957 0.08706 0.14486
 H322 H 1.05031 0.10660 0.16476
 H323 H 1.08579 0.10617 0.19896
 C324 C 0.06656 0.16049 1.08632
 C325 C 0.06029 0.14770 1.07924
 C326 C 0.06729 0.14143 1.06627
 C327 C 0.08070 0.14779 1.06039
 C328 C 0.08712 0.16058 1.06734
 C329 C 0.08002 0.16699 1.08035
 C330 C 0.05941 0.16712 1.09904
 C331 C 0.06553 0.18014 1.10575
 C332 C 0.07893 0.18654 1.09992
 C333 C 0.08623 0.18006 1.08722
 C334 C 0.09941 0.18662 1.08103
 C335 C 0.10635 0.18032 1.06807
 C336 C 0.10029 0.16730 1.06129
 H337 H 0.04985 0.14278 1.08366
 H338 H 0.08600 0.14295 1.05028
 H339 H 0.04898 0.16231 1.10358
 H340 H 0.08351 0.19668 1.10514
 H341 H 0.10413 0.19677 1.08611
 H342 H 0.10568 0.16259 1.05118
 C343 C 0.15782 0.65885 0.67881
 C344 C 0.14531 0.66601 0.68567
 C345 C 0.13922 0.67915 0.67918
 C346 C 0.14544 0.68511 0.66568
 C347 C 0.15795 0.67809 0.65867
 C348 C 0.16420 0.66490 0.66526
 C349 C 0.16437 0.64601 0.68553
 C350 C 0.17720 0.63927 0.67889
 C351 C 0.18346 0.64516 0.66537
 C352 C 0.17707 0.65799 0.65851
 C353 C 0.18361 0.66435 0.64532
 C354 C 0.17748 0.67751 0.63892
 C355 C 0.16464 0.68429 0.64549
 H356 H 0.14048 0.66156 0.69619
 H357 H 0.14071 0.69535 0.66082
 H358 H 0.15972 0.64145 0.69608
 H359 H 0.19349 0.63993 0.66041
 H360 H 0.19365 0.65928 0.64023
 H361 H 0.16008 0.69456 0.64053
 C362 C 1.18330 0.16250 0.16510
 C363 C 1.18992 0.14989 0.17219
 C364 C 1.18355 0.14392 0.18564
 C365 C 1.17045 0.15044 0.19201
 C366 C 1.16371 0.16306 0.18507
 C367 C 1.17015 0.16914 0.17156
 C368 C 1.18975 0.16876 0.15181
 C369 C 1.18323 0.18155 0.14502
 C370 C 1.17016 0.18811 0.15136
 C371 C 1.16356 0.18200 0.16464
 C372 C 1.15068 0.18869 0.17128
 C373 C 1.14437 0.18268 0.18472
 C374 C 1.15081 0.16988 0.19155
 H375 H 1.20010 0.14483 0.16736
 H376 H 1.16562 0.14581 0.20246
 H377 H 1.19994 0.16383 0.14687
 H378 H 1.16527 0.19807 0.14607
 H379 H 1.14565 0.19865 0.16613
 H380 H 1.14588 0.16537 0.20200
 C381 C 0.66494 1.08759 0.56473
 C382 C 0.65206 1.08079 0.55808
 C383 C 0.64606 1.06752 0.56434
 C384 C 0.65279 1.06100 0.57734
 C385 C 0.66565 1.06765 0.58414
 C386 C 0.67179 1.08100 0.57782
 C387 C 0.67124 1.10072 0.55839
 C388 C 0.68428 1.10724 0.56496
 C389 C 0.69104 1.10077 0.57799
 C390 C 0.68488 1.08765 0.58448
 C391 C 0.69170 1.08093 0.59736
 C392 C 0.68562 1.06768 0.60357
 C393 C 0.67263 1.06108 0.59702
 H394 H 0.64680 1.08571 0.54796
 H395 H 0.64809 1.05068 0.58205
 H396 H 0.66610 1.10575 0.54825
 H397 H 0.70118 1.10583 0.58297
 H398 H 0.70181 1.08592 0.60249
 H399 H 0.66805 1.05077 0.60188
 C400 C 0.56503 0.58471 0.16695
 C401 C 0.55780 0.57843 0.15405
 C402 C 0.56348 0.56522 0.14740
 C403 C 0.57647 0.55822 0.15351
 C404 C 0.58384 0.56434 0.16640
 C405 C 0.57811 0.57764 0.17318
 C406 C 0.55931 0.59780 0.17388
 C407 C 0.56648 0.60383 0.18690
 C408 C 0.57947 0.59688 0.19306
 C409 C 0.58535 0.58378 0.18628
 C410 C 0.59823 0.57660 0.19248
 C411 C 0.60386 0.56340 0.18575
 C412 C 0.59673 0.55731 0.17274
 H413 H 0.54770 0.58373 0.14926
 H414 H 0.58074 0.54796 0.14830
 H415 H 0.54920 0.60323 0.16925
 H416 H 0.58489 0.60159 0.20319
 H417 H 0.60380 0.58118 0.20259
 H418 H 0.60116 0.54706 0.16765
 C419 C 0.67302 0.69018 0.17177
 C420 C 0.66002 0.69688 0.17817
 C421 C 0.65330 0.69073 0.19133
 C422 C 0.65952 0.67785 0.19822
 C423 C 0.67252 0.67101 0.19199
 C424 C 0.67932 0.67718 0.17870
 C425 C 0.67982 0.69621 0.15857
 C426 C 0.69278 0.68939 0.15227
 C427 C 0.69906 0.67652 0.15911
 C428 C 0.69241 0.67035 0.17232
 C429 C 0.69858 0.65744 0.17925
 C430 C 0.69182 0.65135 0.19241
 C431 C 0.67884 0.65809 0.19877
 H432 H 0.65510 0.70685 0.17292
 H433 H 0.65421 0.67318 0.20840
 H434 H 0.67505 0.70617 0.15316
 H435 H 0.70910 0.67133 0.15413
 H436 H 0.70861 0.65212 0.17441
 H437 H 0.67368 0.65326 0.20895
 C438 C 0.16392 0.06683 1.08400
 C439 C 0.15114 0.06013 1.07709
 C440 C 0.14442 0.06667 1.06408
 C441 C 0.15036 0.08004 1.05794
 C442 C 0.16315 0.08688 1.06470
 C443 C 0.16998 0.08026 1.07778
 C444 C 0.17091 0.06023 1.09685
 C445 C 0.18385 0.06687 1.10348
 C446 C 0.18986 0.08022 1.09737
 C447 C 0.18301 0.08696 1.08452
 C448 C 0.18911 0.10015 1.07812
 C449 C 0.18236 0.10663 1.06510
 C450 C 0.16939 0.10007 1.05845
 H451 H 0.14652 0.04974 1.08174
 H452 H 0.14514 0.08500 1.04781
 H453 H 0.16636 0.04985 1.10160
 H454 H 0.19993 0.08526 1.10252
 H455 H 0.19920 0.10528 1.08311
 H456 H 0.16431 0.10514 1.04832
 C457 C 0.58848 0.16152 0.56839
 C458 C 0.60160 0.16829 0.56229
 C459 C 0.60776 0.18121 0.56917
 C460 C 0.60097 0.18736 0.58229
 C461 C 0.58784 0.18075 0.58853
 C462 C 0.58154 0.16777 0.58157
 C463 C 0.58196 0.14882 0.56136
 C464 C 0.56862 0.14241 0.56731
 C465 C 0.56179 0.14852 0.58043
 C466 C 0.56814 0.16121 0.58760
 C467 C 0.56114 0.16768 0.60048
 C468 C 0.56735 0.18061 0.60729
 C469 C 0.58069 0.18707 0.60140
 H470 H 0.60688 0.16369 0.55206
 H471 H 0.60576 0.19744 0.58746
 H472 H 0.58710 0.14407 0.55113
 H473 H 0.55140 0.14353 0.58488
 H474 H 0.55076 0.16282 0.60508
 H475 H 0.58534 0.19714 0.60670
 C476 C 0.09357 0.57699 0.65625
 C477 C 0.10685 0.57090 0.66278
 C478 C 0.11292 0.57701 0.67632
 C479 C 0.10593 0.58944 0.68328
 C480 C 0.09264 0.59567 0.67691
 C481 C 0.08638 0.58942 0.66335
 C482 C 0.08702 0.57055 0.64308
 C483 C 0.07339 0.57632 0.63704
 C484 C 0.06632 0.58873 0.64397
 C485 C 0.07271 0.59531 0.65715
 C486 C 0.06540 0.60734 0.66455
 C487 C 0.07157 0.61343 0.67806
 C488 C 0.08519 0.60771 0.68414
 H489 H 0.11226 0.56117 0.65758
 H490 H 0.11063 0.59398 0.69385
 H491 H 0.09230 0.56083 0.63773
 H492 H 0.05568 0.59300 0.63930
 H493 H 0.05477 0.61177 0.66002
 H494 H 0.08979 0.61241 0.69469
 C495 C 0.66821 0.58199 0.06049
 C496 C 0.65515 0.57522 0.05420
 C497 C 0.64898 0.56225 0.06094
 C498 C 0.65577 0.55599 0.07405
 C499 C 0.66882 0.56263 0.08051
 C500 C 0.67509 0.57569 0.07371
 C501 C 0.67457 0.59488 0.05374
 C502 C 0.68770 0.60147 0.06004
 C503 C 0.69453 0.59528 0.07316
 C504 C 0.68831 0.58239 0.08007
 C505 C 0.69512 0.57602 0.09314
 C506 C 0.68889 0.56307 0.09985
 C507 C 0.67579 0.55640 0.09358
 H508 H 0.64983 0.57995 0.04403
 H509 H 0.65092 0.54592 0.07916
 H510 H 0.66940 0.59975 0.04356
 H511 H 0.70471 0.60045 0.07792
 H512 H 0.70528 0.58107 0.09806
 H513 H 0.67109 0.54634 0.09885
 C514 C 0.07104 0.65860 0.59027
 C515 C 0.06374 0.66532 0.60283
 C516 C 0.06957 0.67860 0.60926
 C517 C 0.08286 0.68513 0.60336
 C518 C 0.09032 0.67855 0.59081
 C519 C 0.08438 0.66523 0.58419
 C520 C 0.06496 0.64565 0.58334
 C521 C 0.07200 0.63937 0.57042
 C522 C 0.08531 0.64583 0.56446
 C523 C 0.09155 0.65878 0.57124
 C524 C 0.10453 0.66569 0.56501
 C525 C 0.11030 0.67896 0.57151
 C526 C 0.10331 0.68531 0.58443
 H527 H 0.05335 0.66044 0.60740
 H528 H 0.08720 0.69549 0.60835
 H529 H 0.05457 0.64064 0.58777
 H530 H 0.09058 0.64096 0.55436
 H531 H 0.10994 0.66097 0.55491
 H532 H 0.10778 0.69567 0.58927
 C533 C 0.56516 1.08692 0.66597
 C534 C 0.55803 1.08067 0.65300
 C535 C 0.56392 1.06762 0.64618
 C536 C 0.57707 1.06080 0.65218
 C537 C 0.58434 1.06691 0.66514
 C538 C 0.57837 1.08001 0.67210
 C539 C 0.55916 1.09978 0.67310
 C540 C 0.56617 1.10572 0.68624
 C541 C 0.57931 1.09895 0.69230
 C542 C 0.58547 1.08609 0.68531
 C543 C 0.59844 1.07902 0.69145
 C544 C 0.60431 1.06601 0.68456
 C545 C 0.59733 1.06000 0.67142
 H546 H 0.54780 1.08586 0.64833
 H547 H 0.58153 1.05065 0.64689
 H548 H 0.54893 1.10506 0.66856
 H549 H 0.58459 1.10359 0.70254
 H550 H 0.60389 1.08353 0.70167
 H551 H 0.60192 1.04987 0.66622
 C552 C 0.40480 0.34506 0.92698
 C553 C 0.41135 0.35792 0.93365
 C554 C 0.42423 0.36462 0.92703
 C555 C 0.43049 0.35868 0.91353
 C556 C 0.42408 0.34582 0.90671
 C557 C 0.41120 0.33894 0.91346
 C558 C 0.39232 0.33788 0.93389
 C559 C 0.38630 0.32466 0.92751
 C560 C 0.39252 0.31865 0.91404
 C561 C 0.40499 0.32569 0.90697
 C562 C 0.41173 0.31940 0.89386
 C563 C 0.42460 0.32615 0.88729
 C564 C 0.43068 0.33938 0.89359
 H565 H 0.40666 0.36248 0.94420
 H566 H 0.44057 0.36383 0.90856
 H567 H 0.38750 0.34236 0.94441
 H568 H 0.38788 0.30831 0.90930
 H569 H 0.40722 0.30906 0.88899
 H570 H 0.44075 0.34441 0.88851
 C571 C 0.90700 0.42394 0.34522
 C572 C 0.91447 0.43048 0.35783
 C573 C 0.92779 0.42395 0.36379
 C574 C 0.93357 0.41066 0.35736
 C575 C 0.92624 0.40396 0.34474
 C576 C 0.91291 0.41063 0.33860
 C577 C 0.89408 0.43078 0.33873
 C578 C 0.88712 0.42454 0.32570
 C579 C 0.89284 0.41126 0.31921
 C580 C 0.90575 0.40426 0.32556
 C581 C 0.91200 0.39134 0.31874
 C582 C 0.92531 0.38485 0.32475
 C583 C 0.93232 0.39104 0.33778
 H584 H 0.91015 0.44087 0.36275
 H585 H 0.94398 0.40575 0.36192
 H586 H 0.88967 0.44117 0.34354
 H587 H 0.88747 0.40662 0.30902
 H588 H 0.90677 0.38656 0.30854
 H589 H 0.94271 0.38603 0.34223
 C590 C 0.34400 0.92524 0.40629
 C591 C 0.33756 0.93120 0.39283
 C592 C 0.32428 0.92487 0.38658
 C593 C 0.31747 0.91236 0.39359
 C594 C 0.32375 0.90624 0.40706
 C595 C 0.33706 0.91271 0.41348
 C596 C 0.35692 0.93189 0.41300
 C597 C 0.36289 0.92622 0.42680
 C598 C 0.35612 0.91371 0.43385
 C599 C 0.34319 0.90692 0.42730
 C600 C 0.33598 0.89476 0.43459
 C601 C 0.32272 0.88845 0.42828
 C602 C 0.31668 0.89409 0.41451
 H603 H 0.34264 0.94100 0.38741
 H604 H 0.30709 0.90765 0.38876
 H605 H 0.36213 0.94168 0.40767
 H606 H 0.36069 0.90947 0.44462
 H607 H 0.34048 0.89040 0.44532
 H608 H 0.30633 0.88922 0.40981
 O609 O 0.26867 0.46129 0.74836
 O610 O 0.26677 0.46786 0.72134
 O611 O 0.29043 0.49893 0.76850
 O612 O 0.28681 0.52429 0.76877
 O613 O 0.25093 0.48024 0.78891
 O614 O 0.22371 0.48287 0.78361
 O615 O 0.24822 0.54158 0.73086
 O616 O 0.27565 0.53683 0.73358
 O617 O 0.22912 0.50546 0.70950
 O618 O 0.23128 0.47724 0.71315
 O619 O 0.21078 0.52261 0.74785
 O620 O 0.21479 0.51619 0.77562
 O621 O 0.22983 0.54096 0.74936
 O622 O 0.23427 0.53615 0.77587
 O623 O 0.21003 0.50474 0.72906
 O624 O 0.21472 0.47663 0.73010
 O625 O 0.24731 0.52378 0.71048
 O626 O 0.27371 0.51970 0.71273
 O627 O 0.25046 0.46078 0.76704
 O628 O 0.22336 0.46664 0.76560
 O629 O 0.26987 0.49786 0.78944
 O630 O 0.26754 0.52596 0.78471
 O631 O 0.28976 0.48122 0.74953
 O632 O 0.28404 0.48415 0.72168
 Zr633 Zr 0.26787 0.48344 0.73967
 O634 O 0.25451 0.49758 0.72561
 Zr635 Zr 0.26855 0.50872 0.76791
 O636 O 0.25517 0.52393 0.75506
 Zr637 Zr 0.24116 0.48267 0.76690
 O638 O 0.22664 0.49673 0.75400
 Zr639 Zr 0.25849 0.52016 0.73154
 O640 O 0.27350 0.50614 0.74428
 Zr641 Zr 0.23133 0.49394 0.73052
 O642 O 0.24463 0.47850 0.74332
 Zr643 Zr 0.23196 0.51931 0.75880
 O644 O 0.24533 0.50525 0.77323
 O645 O 0.26415 0.48633 0.76296
 O646 O 0.23557 0.51637 0.73549
 C647 C 0.26135 0.45481 0.75930
 C648 C 0.29627 0.48802 0.76081
 C649 C 0.26229 0.48690 0.79533
 C650 C 0.23684 0.54724 0.73812
 C651 C 0.23583 0.51721 0.70421
 C652 C 0.20454 0.51614 0.73623
 H653 H 0.25691 0.49583 0.71466
 H654 H 0.21585 0.49455 0.75647
 H655 H 0.27058 0.47950 0.76916
 H656 H 0.25768 0.53444 0.75789
 H657 H 0.28517 0.53153 0.73647
 H658 H 0.28375 0.53312 0.76257
 H659 H 0.20764 0.47836 0.73874
 H660 H 0.22399 0.46203 0.75526
 H661 H 0.28285 0.51416 0.71622
 H662 H 0.29165 0.49196 0.72438
 H663 H 0.20832 0.52535 0.77560
 H664 H 0.22487 0.49239 0.78941
 H665 H 0.25659 0.46306 0.72189
 H666 H 0.23965 0.47957 0.70594
 H667 H 0.25986 0.52289 0.79240
 H668 H 0.23614 0.53087 0.78571
 O669 O 0.24856 0.04081 0.23164
 O670 O 0.27567 0.03591 0.23347
 O671 O 0.23155 0.00238 0.20796
 O672 O 0.23241 -0.02288 0.21095
 O673 O 0.20936 0.01863 0.24812
 O674 O 0.21440 0.01541 0.27545
 O675 O 0.27088 -0.03893 0.24953
 O676 O 0.26829 -0.03331 0.22209
 O677 O 0.28949 -0.00204 0.27033
 O678 O 0.28396 0.02584 0.26918
 O679 O 0.25245 -0.02245 0.28763
 O680 O 0.22456 -0.01762 0.28354
 O681 O 0.25223 -0.04016 0.26772
 O682 O 0.22571 -0.03680 0.26320
 O683 O 0.26986 -0.00344 0.28927
 O684 O 0.26685 0.02477 0.28555
 O685 O 0.28992 -0.01982 0.25146
 O686 O 0.28780 -0.01502 0.22502
 O687 O 0.22984 0.03949 0.24975
 O688 O 0.23115 0.03267 0.27671
 O689 O 0.21025 0.00170 0.22844
 O690 O 0.21677 -0.02613 0.23004
 O691 O 0.24900 0.02138 0.20951
 O692 O 0.27667 0.02028 0.21569
 Zr693 Zr 0.25856 0.01921 0.23167
 O694 O 0.27327 0.00556 0.24485
 Zr695 Zr 0.23227 -0.00781 0.22976
 O696 O 0.24587 -0.02260 0.24287
 Zr697 Zr 0.23120 0.01729 0.25818
 O698 O 0.24474 0.00360 0.27251
 Zr699 Zr 0.26897 -0.01721 0.24000
 O700 O 0.25557 -0.00355 0.22521
 Zr701 Zr 0.26788 0.00806 0.26823
 O702 O 0.25434 0.02308 0.25517
 Zr703 Zr 0.24157 -0.01905 0.26633
 O704 O 0.22650 -0.00550 0.25315
 O705 O 0.23560 0.01473 0.23494
 O706 O 0.26451 -0.01449 0.26314
 C707 C 0.23735 0.04640 0.23922
 C708 C 0.23856 0.01389 0.20249
 C709 C 0.20357 0.01194 0.23639
 C710 C 0.26383 -0.04550 0.26058
 C711 C 0.29557 -0.01321 0.26328
 C712 C 0.26347 -0.01548 0.29428
 H713 H 0.28403 0.00812 0.24266
 H714 H 0.24202 0.00523 0.28340
 H715 H 0.22913 0.02139 0.22858
 H716 H 0.24378 -0.03317 0.23993
 H717 H 0.26520 -0.02786 0.21266
 H718 H 0.23945 -0.03118 0.21364
 H719 H 0.25850 0.02204 0.29265
 H720 H 0.24114 0.03786 0.27652
 H721 H 0.28413 -0.00937 0.21597
 H722 H 0.27470 0.01252 0.20777
 H723 H 0.22510 -0.02700 0.28971
 H724 H 0.20938 0.00553 0.27392
 H725 H 0.27482 0.04021 0.24392
 H726 H 0.29128 0.02439 0.26069
 H727 H 0.20878 -0.02376 0.23767
 H728 H 0.21565 -0.03206 0.26139
 O729 O 0.54229 0.73291 0.24920
 O730 O 0.53746 0.73569 0.27627
 O731 O 0.50333 0.70865 0.23332
 O732 O 0.47776 0.71142 0.23444
 O733 O 0.51919 0.74698 0.20881
 O734 O 0.51617 0.77391 0.21256
 O735 O 0.46160 0.75098 0.27104
 O736 O 0.46741 0.72420 0.27000
 O737 O 0.49960 0.77216 0.28873
 O738 O 0.52738 0.77145 0.28262
 O739 O 0.47840 0.78785 0.24995
 O740 O 0.48259 0.78201 0.22242
 O741 O 0.46005 0.76784 0.25131
 O742 O 0.46322 0.76226 0.22513
 O743 O 0.49767 0.79029 0.26739
 O744 O 0.52602 0.78642 0.26476
 O745 O 0.48180 0.75354 0.29044
 O746 O 0.48597 0.72788 0.28918
 O747 O 0.54075 0.74958 0.22932
 O748 O 0.53372 0.77599 0.22917
 O749 O 0.50208 0.72774 0.21087
 O750 O 0.47406 0.72934 0.21777
 O751 O 0.52277 0.71108 0.25059
 O752 O 0.52165 0.71832 0.27816
 Zr753 Zr 0.52046 0.73318 0.25919
 O754 O 0.50679 0.74680 0.27337
 Zr755 Zr 0.49287 0.72995 0.23311
 O756 O 0.47803 0.74342 0.24624
 Zr757 Zr 0.51820 0.75779 0.23033
 O758 O 0.50440 0.77242 0.24329
 Zr759 Zr 0.48369 0.74180 0.26958
 O760 O 0.49741 0.72666 0.25675
 Zr761 Zr 0.50914 0.76947 0.26676
 O762 O 0.52425 0.75602 0.25372
 Zr763 Zr 0.48144 0.76619 0.24065
 O764 O 0.49506 0.75260 0.22608
 O765 O 0.51574 0.73524 0.23594
 O766 O 0.48619 0.76436 0.26397
 C767 C 0.54788 0.73983 0.23755
 C768 C 0.51512 0.70369 0.24050
 C769 C 0.51225 0.73530 0.20358
 C770 C 0.45469 0.76121 0.26325
 C771 C 0.48881 0.76516 0.29565
 C772 C 0.48570 0.79508 0.26040
 H773 H 0.50956 0.74514 0.28426
 H774 H 0.50602 0.78294 0.23991
 H775 H 0.52246 0.72879 0.22966
 H776 H 0.46732 0.74037 0.24437
 H777 H 0.47289 0.71483 0.26726
 H778 H 0.46939 0.71437 0.24141
 H779 H 0.52347 0.79265 0.25569
 H780 H 0.53911 0.77628 0.23917
 H781 H 0.49199 0.71903 0.28595
 H782 H 0.51390 0.71037 0.27651
 H783 H 0.47305 0.78801 0.22258
 H784 H 0.50607 0.77228 0.20773
 H785 H 0.54182 0.74589 0.27491
 H786 H 0.52653 0.76306 0.29004
 H787 H 0.47626 0.73645 0.20931
 H788 H 0.46786 0.75988 0.21507
 O789 O 0.03944 0.73141 0.74821
 O790 O 0.03481 0.73425 0.77552
 O791 O -0.00001 0.70916 0.73179
 O792 O -0.02563 0.71269 0.73329
 O793 O 0.01707 0.74745 0.70840
 O794 O 0.01492 0.77445 0.71281
 O795 O -0.04039 0.75226 0.77074
 O796 O -0.03572 0.72510 0.76882
 O797 O -0.00235 0.77192 0.78851
 O798 O 0.02584 0.76966 0.78289
 O799 O -0.02260 0.78854 0.75075
 O800 O -0.01824 0.78351 0.72281
 O801 O -0.04120 0.76967 0.75145
 O802 O -0.03834 0.76427 0.72487
 O803 O -0.00315 0.79000 0.76812
 O804 O 0.02518 0.78529 0.76522
 O805 O -0.02085 0.75392 0.78968
 O806 O -0.01686 0.72778 0.78823
 O807 O 0.03848 0.74861 0.72874
 O808 O 0.03264 0.77540 0.72952
 O809 O -0.00067 0.72871 0.70996
 O810 O -0.02865 0.73108 0.71675
 O811 O 0.01928 0.71054 0.74936
 O812 O 0.01836 0.71723 0.77710
 Zr813 Zr 0.01771 0.73250 0.75845
 O814 O 0.00446 0.74623 0.77295
 Zr815 Zr -0.00994 0.73076 0.73221
 O816 O -0.02436 0.74446 0.74558
 Zr817 Zr 0.01637 0.75782 0.73014
 O818 O 0.00310 0.77265 0.74341
 Zr819 Zr -0.01878 0.74209 0.76889
 O820 O -0.00555 0.72679 0.75577
 Zr821 Zr 0.00769 0.76891 0.76681
 O822 O 0.02236 0.75529 0.75347
 Zr823 Zr -0.02005 0.76722 0.74053
 O824 O -0.00690 0.75347 0.72569
 O825 O 0.01304 0.73528 0.73528
 O826 O -0.01532 0.76456 0.76369
 C827 C 0.04515 0.73820 0.73653
 C828 C 0.01159 0.70369 0.73890
 C829 C 0.00986 0.73603 0.70294
 C830 C -0.04669 0.76320 0.76342
 C831 C -0.01378 0.76548 0.79495
 C832 C -0.01520 0.79515 0.76157
 H833 H 0.00706 0.74428 0.78383
 H834 H 0.00508 0.78319 0.74032
 H835 H 0.01949 0.72872 0.72884
 H836 H -0.03518 0.74187 0.74365
 H837 H -0.03056 0.71558 0.76598
 H838 H -0.03407 0.71592 0.74004
 H839 H 0.02275 0.79195 0.75644
 H840 H 0.03807 0.77514 0.73950
 H841 H -0.01147 0.71864 0.78474
 H842 H 0.01032 0.70960 0.77528
 H843 H -0.02753 0.78987 0.72322
 H844 H 0.00483 0.77319 0.70785
 H845 H 0.03955 0.74430 0.77425
 H846 H 0.02409 0.76164 0.79058
 H847 H -0.02622 0.73841 0.70855
 H848 H -0.03374 0.76208 0.71474
 O849 O 0.00079 0.04059 0.01695
 O850 O -0.02634 0.03565 0.01491
 O851 O 0.01819 0.00244 0.04008
 O852 O 0.01746 -0.02286 0.03708
 O853 O 0.03995 0.01877 -0.00040
 O854 O 0.03452 0.01602 -0.02762
 O855 O -0.02136 -0.03903 -0.00172
 O856 O -0.01832 -0.03391 0.02579
 O857 O -0.04022 -0.00230 -0.02185
 O858 O -0.03492 0.02554 -0.02079
 O859 O -0.00285 -0.02221 -0.03964
 O860 O 0.02494 -0.01730 -0.03549
 O861 O -0.00272 -0.04002 -0.01993
 O862 O 0.02383 -0.03663 -0.01523
 O863 O -0.02064 -0.00355 -0.04101
 O864 O -0.01784 0.02472 -0.03719
 O865 O -0.04046 -0.02005 -0.00293
 O866 O -0.03790 -0.01550 0.02352
 O867 O 0.01946 0.03955 -0.00123
 O868 O 0.01757 0.03313 -0.02838
 O869 O 0.03939 0.00187 0.01932
 O870 O 0.03299 -0.02599 0.01785
 O871 O 0.00036 0.02110 0.03876
 O872 O -0.02733 0.01982 0.03258
 Zr873 Zr -0.00919 0.01899 0.01662
 O874 O -0.02386 0.00527 0.00347
 Zr875 Zr 0.01737 -0.00778 0.01827
 O876 O 0.00380 -0.02264 0.00517
 Zr877 Zr 0.01797 0.01750 -0.01007
 O878 O 0.00450 0.00371 -0.02437
 Zr879 Zr -0.01933 -0.01748 0.00820
 O880 O -0.00595 -0.00377 0.02298
 Zr881 Zr -0.01866 0.00793 -0.01993
 O882 O -0.00519 0.02304 -0.00688
 Zr883 Zr 0.00793 -0.01892 -0.01829
 O884 O 0.02295 -0.00527 -0.00517
 O885 O 0.01379 0.01472 0.01319
 O886 O -0.01504 -0.01459 -0.01496
 C887 C 0.01206 0.04625 0.00951
 C888 C 0.01099 0.01378 0.04567
 C889 C 0.04594 0.01209 0.01122
 C890 C -0.01438 -0.04540 -0.01294
 C891 C -0.04624 -0.01345 -0.01470
 C892 C -0.01402 -0.01540 -0.04618
 H893 H -0.03462 0.00772 0.00576
 H894 H 0.00716 0.00542 -0.03527
 H895 H 0.02032 0.02132 0.01956
 H896 H 0.00597 -0.03322 0.00803
 H897 H -0.01512 -0.02861 0.03527
 H898 H 0.01059 -0.03129 0.03437
 H899 H -0.00949 0.02212 -0.04432
 H900 H 0.00761 0.03834 -0.02785
 H901 H -0.03401 -0.01021 0.03271
 H902 H -0.02528 0.01209 0.04051
 H903 H 0.02450 -0.02668 -0.04166
 H904 H 0.03960 0.00614 -0.02635
 H905 H -0.02543 0.04009 0.00453
 H906 H -0.04195 0.02421 -0.01203
 H907 H 0.04087 -0.02358 0.01013
 H908 H 0.03390 -0.03188 -0.01352
 O909 O -0.03858 0.49796 0.47913
 O910 O -0.03318 0.52475 0.47976
 O911 O 0.00091 0.47891 0.45928
 O912 O 0.02655 0.48049 0.46346
 O913 O -0.01783 0.45984 0.49931
 O914 O -0.01624 0.46631 0.52652
 O915 O 0.04117 0.51998 0.50117
 O916 O 0.03736 0.51580 0.47357
 O917 O 0.00318 0.53973 0.51825
 O918 O -0.02511 0.53467 0.51548
 O919 O 0.02173 0.50367 0.53908
 O920 O 0.01688 0.47604 0.53594
 O921 O 0.04092 0.50265 0.52053
 O922 O 0.03768 0.47626 0.51702
 O923 O 0.00286 0.52131 0.53839
 O924 O -0.02539 0.51872 0.53287
 O925 O 0.02213 0.53900 0.50040
 O926 O 0.01890 0.53536 0.47389
 O927 O -0.03867 0.48030 0.49820
 O928 O -0.03354 0.48311 0.52554
 O929 O 0.00058 0.45941 0.48085
 O930 O 0.02863 0.46561 0.48366
 O931 O -0.01793 0.49661 0.45855
 O932 O -0.01615 0.52434 0.46287
 Zr933 Zr -0.01658 0.50748 0.48006
 O934 O -0.00335 0.52251 0.49326
 Zr935 Zr 0.01037 0.48111 0.48142
 O936 O 0.02476 0.49501 0.49472
 Zr937 Zr -0.01677 0.48191 0.50818
 O938 O -0.00357 0.49585 0.52258
 Zr939 Zr 0.01988 0.51769 0.49017
 O940 O 0.00675 0.50388 0.47526
 Zr941 Zr -0.00740 0.51850 0.51669
 O942 O -0.02202 0.50464 0.50346
 Zr943 Zr 0.01963 0.49208 0.51810
 O944 O 0.00649 0.47670 0.50492
 O945 O -0.01263 0.48500 0.48501
 O946 O 0.01562 0.51459 0.51330
 C947 C -0.04482 0.48724 0.48679
 C948 C -0.01044 0.48553 0.45280
 C949 C -0.01043 0.45342 0.48840
 C950 C 0.04689 0.51371 0.51317
 C951 C 0.01491 0.54527 0.51149
 C952 C 0.01448 0.51497 0.54463
 H953 H -0.00560 0.53303 0.49027
 H954 H -0.00595 0.49375 0.53347
 H955 H -0.01911 0.47830 0.47872
 H956 H 0.03560 0.49268 0.49264
 H957 H 0.03244 0.51231 0.46396
 H958 H 0.03522 0.48692 0.46662
 H959 H -0.02341 0.51062 0.54043
 H960 H -0.03866 0.49297 0.52431
 H961 H 0.01372 0.53125 0.46472
 H962 H -0.00804 0.52158 0.45551
 H963 H 0.02596 0.47677 0.54273
 H964 H -0.00631 0.46104 0.52588
 H965 H -0.03822 0.52451 0.48992
 H966 H -0.02288 0.54150 0.50680
 H967 H 0.02577 0.45829 0.49172
 H968 H 0.03295 0.46627 0.51539
 O969 O 0.54013 0.01942 0.50091
 O970 O 0.53524 0.01674 0.47374
 O971 O 0.50047 0.04151 0.51740
 O972 O 0.47489 0.03774 0.51573
 O973 O 0.51793 0.00360 0.54105
 O974 O 0.51620 -0.02340 0.53683
 O975 O 0.46041 -0.00231 0.47852
 O976 O 0.46470 0.02487 0.48031
 O977 O 0.49871 -0.02149 0.46096
 O978 O 0.52679 -0.01907 0.46674
 O979 O 0.47884 -0.03836 0.49911
 O980 O 0.48298 -0.03280 0.52690
 O981 O 0.45985 -0.01964 0.49786
 O982 O 0.46259 -0.01394 0.52435
 O983 O 0.49813 -0.03964 0.48167
 O984 O 0.52635 -0.03451 0.48447
 O985 O 0.48011 -0.00363 0.45955
 O986 O 0.48357 0.02245 0.46104
 O987 O 0.53945 0.00244 0.52058
 O988 O 0.53376 -0.02433 0.52021
 O989 O 0.49992 0.02206 0.53934
 O990 O 0.47203 0.01943 0.53239
 O991 O 0.51976 0.04024 0.49994
 O992 O 0.51859 0.03350 0.47220
 Zr993 Zr 0.51828 0.01825 0.49089
 O994 O 0.50517 0.00425 0.47646
 Zr995 Zr 0.49074 0.01983 0.51703
 O996 O 0.47642 0.00587 0.50370
 Zr997 Zr 0.51735 -0.00690 0.51936
 O998 O 0.50419 -0.02196 0.50615
 Zr999 Zr 0.48189 0.00815 0.48040
 O1000 O 0.49498 0.02370 0.49345
 Zr1001 Zr 0.50866 -0.01836 0.48274
 O1002 O 0.52320 -0.00446 0.49601
 Zr1003 Zr 0.48098 -0.01680 0.50891
 O1004 O 0.49403 -0.00281 0.52370
 O1005 O 0.51378 0.01557 0.51409
 O1006 O 0.48559 -0.01429 0.48571
 C1007 C 0.54605 0.01268 0.51254
 C1008 C 0.51202 0.04706 0.51034
 C1009 C 0.51050 0.01486 0.54648
 C1010 C 0.45423 -0.01326 0.48587
 C1011 C 0.48734 -0.01508 0.45433
 C1012 C 0.48633 -0.04501 0.48843
 H1013 H 0.50774 0.00618 0.46558
 H1014 H 0.50631 -0.03245 0.50934
 H1015 H 0.52024 0.02218 0.52052
 H1016 H 0.46558 0.00835 0.50557
 H1017 H 0.46971 0.03447 0.48314
 H1018 H 0.46643 0.03436 0.50903
 H1019 H 0.52411 -0.04106 0.49337
 H1020 H 0.53913 -0.02416 0.51022
 H1021 H 0.48885 0.03167 0.46453
 H1022 H 0.51053 0.04107 0.47407
 H1023 H 0.47377 -0.03928 0.52656
 H1024 H 0.50608 -0.02229 0.54171
 H1025 H 0.54003 0.00671 0.47492
 H1026 H 0.52505 -0.01100 0.45909
 H1027 H 0.47450 0.01213 0.54061
 H1028 H 0.46711 -0.01155 0.53449
 O1029 O 0.50072 0.53999 0.01705
 O1030 O 0.47358 0.53520 0.01509
 O1031 O 0.51778 0.50166 0.04036
 O1032 O 0.51704 0.47642 0.03732
 O1033 O 0.53978 0.51782 -0.00021
 O1034 O 0.53429 0.51506 -0.02742
 O1035 O 0.47809 0.46044 -0.00135
 O1036 O 0.48110 0.46567 0.02614
 O1037 O 0.45944 0.49724 -0.02164
 O1038 O 0.46492 0.52513 -0.02047
 O1039 O 0.49653 0.47708 -0.03934
 O1040 O 0.52439 0.48186 -0.03531
 O1041 O 0.49671 0.45930 -0.01958
 O1042 O 0.52327 0.46259 -0.01501
 O1043 O 0.47898 0.49598 -0.04077
 O1044 O 0.48191 0.52416 -0.03696
 O1045 O 0.45911 0.47950 -0.00272
 O1046 O 0.46161 0.48416 0.02374
 O1047 O 0.51935 0.53879 -0.00116
 O1048 O 0.51756 0.53229 -0.02821
 O1049 O 0.53909 0.50094 0.01952
 O1050 O 0.53245 0.47315 0.01813
 O1051 O 0.50010 0.52046 0.03900
 O1052 O 0.47249 0.51952 0.03278
 Zr1053 Zr 0.49062 0.51844 0.01682
 O1054 O 0.47584 0.50480 0.00372
 Zr1055 Zr 0.51698 0.49150 0.01851
 O1056 O 0.50331 0.47671 0.00544
 Zr1057 Zr 0.51777 0.51670 -0.00985
 O1058 O 0.50417 0.50302 -0.02413
 Zr1059 Zr 0.48021 0.48202 0.00847
 O1060 O 0.49369 0.49567 0.02321
 Zr1061 Zr 0.48105 0.50740 -0.01968
 O1062 O 0.49465 0.52242 -0.00668
 Zr1063 Zr 0.50744 0.48037 -0.01804
 O1064 O 0.52257 0.49391 -0.00493
 O1065 O 0.51359 0.51404 0.01342
 O1066 O 0.48450 0.48485 -0.01469
 C1067 C 0.51196 0.54559 0.00952
 C1068 C 0.51059 0.51300 0.04596
 C1069 C 0.54575 0.51105 0.01137
 C1070 C 0.48504 0.45399 -0.01254
 C1071 C 0.45336 0.48611 -0.01450
 C1072 C 0.48544 0.48403 -0.04590
 H1073 H 0.46509 0.50732 0.00601
 H1074 H 0.50682 0.50470 -0.03504
 H1075 H 0.52016 0.52060 0.01979
 H1076 H 0.50541 0.46612 0.00831
 H1077 H 0.48430 0.47100 0.03561
 H1078 H 0.50999 0.46811 0.03469
 H1079 H 0.49031 0.52157 -0.04404
 H1080 H 0.50759 0.53751 -0.02780
 H1081 H 0.46550 0.48946 0.03292
 H1082 H 0.47437 0.51169 0.04065
 H1083 H 0.52385 0.47248 -0.04148
 H1084 H 0.53930 0.50515 -0.02614
 H1085 H 0.47447 0.53959 0.00467
 H1086 H 0.45772 0.52368 -0.01187
 H1087 H 0.54033 0.47547 0.01037
 H1088 H 0.53336 0.46730 -0.01332
 O1089 O 0.77090 0.29161 0.50220
 O1090 O 0.76904 0.28549 0.52942
 O1091 O 0.79086 0.25322 0.48232
 O1092 O 0.78635 0.22805 0.48201
 O1093 O 0.75133 0.27302 0.46234
 O1094 O 0.72421 0.27133 0.46823
 O1095 O 0.74833 0.21198 0.52051
 O1096 O 0.77568 0.21610 0.51757
 O1097 O 0.73099 0.24918 0.54245
 O1098 O 0.73346 0.27705 0.53836
 O1099 O 0.71081 0.23230 0.50414
 O1100 O 0.71454 0.23827 0.47640
 O1101 O 0.72963 0.21304 0.50226
 O1102 O 0.73328 0.21780 0.47593
 O1103 O 0.71106 0.25022 0.52287
 O1104 O 0.71670 0.27802 0.52179
 O1105 O 0.74853 0.23030 0.54124
 O1106 O 0.77473 0.23314 0.53830
 O1107 O 0.75224 0.29258 0.48389
 O1108 O 0.72496 0.28770 0.48618
 O1109 O 0.76982 0.25497 0.46159
 O1110 O 0.76671 0.22694 0.46649
 O1111 O 0.79118 0.27097 0.50126
 O1112 O 0.78577 0.26867 0.52916
 Zr1113 Zr 0.76938 0.26964 0.51130
 O1114 O 0.75592 0.25594 0.52563
 Zr1115 Zr 0.76865 0.24420 0.48319
 O1116 O 0.75509 0.22948 0.49635
 Zr1117 Zr 0.74212 0.27106 0.48454
 O1118 O 0.72747 0.25748 0.49775
 Zr1119 Zr 0.75903 0.23321 0.51980
 O1120 O 0.77418 0.24674 0.50673
 Zr1121 Zr 0.73275 0.26022 0.52114
 O1122 O 0.74623 0.27523 0.50803
 Zr1123 Zr 0.73194 0.23474 0.49300
 O1124 O 0.74542 0.24832 0.47827
 O1125 O 0.76508 0.26672 0.48809
 O1126 O 0.73608 0.23758 0.51630
 C1127 C 0.76361 0.29820 0.49126
 C1128 C 0.79726 0.26389 0.48997
 C1129 C 0.76237 0.26607 0.45577
 C1130 C 0.73685 0.20646 0.51321
 C1131 C 0.73765 0.23744 0.54784
 C1132 C 0.70492 0.23915 0.51567
 H1133 H 0.75866 0.25770 0.53651
 H1134 H 0.71672 0.25999 0.49543
 H1135 H 0.77165 0.27323 0.48173
 H1136 H 0.75724 0.21891 0.49349
 H1137 H 0.78526 0.22113 0.51441
 H1138 H 0.78320 0.21938 0.48839
 H1139 H 0.70962 0.27671 0.51303
 H1140 H 0.72616 0.29245 0.49640
 H1141 H 0.78385 0.23864 0.53473
 H1142 H 0.79308 0.26058 0.52653
 H1143 H 0.70778 0.22932 0.47654
 H1144 H 0.72490 0.26175 0.46245
 H1145 H 0.75912 0.29078 0.52873
 H1146 H 0.74240 0.27502 0.54499
 H1147 H 0.75900 0.23025 0.45887
 H1148 H 0.73525 0.22299 0.46607
 O1149 O 0.71072 0.73108 0.00075
 O1150 O 0.71498 0.73400 -0.02652
 O1151 O 0.75032 0.70828 0.01633
 O1152 O 0.77579 0.71167 0.01506
 O1153 O 0.73395 0.74691 0.04044
 O1154 O 0.73594 0.77377 0.03597
 O1155 O 0.79048 0.75136 -0.02266
 O1156 O 0.78563 0.72422 -0.02082
 O1157 O 0.75237 0.77134 -0.03991
 O1158 O 0.72432 0.76948 -0.03387
 O1159 O 0.77342 0.78757 -0.00226
 O1160 O 0.76925 0.78254 0.02566
 O1161 O 0.79176 0.76851 -0.00317
 O1162 O 0.78904 0.76299 0.02341
 O1163 O 0.75387 0.78932 -0.01947
 O1164 O 0.72542 0.78496 -0.01606
 O1165 O 0.77069 0.75320 -0.04136
 O1166 O 0.76649 0.72711 -0.03997
 O1167 O 0.71207 0.74816 0.02028
 O1168 O 0.71814 0.77483 0.01953
 O1169 O 0.75140 0.72796 0.03858
 O1170 O 0.77927 0.72991 0.03126
 O1171 O 0.73086 0.70992 -0.00101
 O1172 O 0.73117 0.71701 -0.02858
 Zr1173 Zr 0.73234 0.73202 -0.00973
 O1174 O 0.74557 0.74570 -0.02432
 Zr1175 Zr 0.76027 0.72987 0.01615
 O1176 O 0.77468 0.74348 0.00267
 Zr1177 Zr 0.73426 0.75715 0.01866
 O1178 O 0.74756 0.77193 0.00532
 Zr1179 Zr 0.76881 0.74132 -0.02059
 O1180 O 0.75557 0.72609 -0.00738
 Zr1181 Zr 0.74267 0.76839 -0.01804
 O1182 O 0.72801 0.75482 -0.00462
 Zr1183 Zr 0.77067 0.76625 0.00791
 O1184 O 0.75754 0.75257 0.02282
 O1185 O 0.73727 0.73455 0.01344
 O1186 O 0.76566 0.76378 -0.01522
 C1187 C 0.70515 0.73794 0.01245
 C1188 C 0.73875 0.70286 0.00913
 C1189 C 0.74125 0.73554 0.04586
 C1190 C 0.79701 0.76214 -0.01528
 C1191 C 0.76365 0.76483 -0.04651
 C1192 C 0.76605 0.79430 -0.01301
 H1193 H 0.74280 0.74383 -0.03517
 H1194 H 0.74574 0.78248 0.00849
 H1195 H 0.73088 0.72797 0.01995
 H1196 H 0.78550 0.74077 0.00445
 H1197 H 0.78043 0.71472 -0.01798
 H1198 H 0.78395 0.71463 0.00785
 H1199 H 0.72821 0.79171 -0.00746
 H1200 H 0.71269 0.77474 0.00956
 H1201 H 0.76122 0.71793 -0.03640
 H1202 H 0.73925 0.70935 -0.02710
 H1203 H 0.77865 0.78874 0.02523
 H1204 H 0.74617 0.77263 0.04067
 H1205 H 0.71042 0.74411 -0.02518
 H1206 H 0.72573 0.76133 -0.04148
 H1207 H 0.77710 0.73725 0.03952
 H1208 H 0.78451 0.76098 0.03360
 O1209 O 1.00017 0.20919 0.23170
 O1210 O 0.97304 0.21407 0.23383
 O1211 O 1.01731 0.24761 0.20887
 O1212 O 1.01635 0.27293 0.21214
 O1213 O 1.03946 0.23099 0.24903
 O1214 O 1.03434 0.23349 0.27631
 O1215 O 0.97797 0.28854 0.25129
 O1216 O 0.98073 0.28369 0.22372
 O1217 O 0.95951 0.25156 0.27118
 O1218 O 0.96482 0.22367 0.26956
 O1219 O 0.99693 0.27126 0.28900
 O1220 O 1.02473 0.26663 0.28458
 O1221 O 0.99670 0.28936 0.26952
 O1222 O 1.02321 0.28624 0.26465
 O1223 O 0.97930 0.25242 0.29023
 O1224 O 0.98200 0.22432 0.28595
 O1225 O 0.95900 0.26950 0.25246
 O1226 O 0.96123 0.26519 0.22591
 O1227 O 1.01902 0.21013 0.24981
 O1228 O 1.01750 0.21629 0.27700
 O1229 O 1.03865 0.24812 0.22952
 O1230 O 1.03218 0.27592 0.23131
 O1231 O 0.99955 0.22887 0.21007
 O1232 O 0.97193 0.23004 0.21628
 Zr1233 Zr 0.99016 0.23077 0.23224
 O1234 O 0.97557 0.24427 0.24561
 Zr1235 Zr 1.01661 0.25766 0.23079
 O1236 O 1.00312 0.27232 0.24413
 Zr1237 Zr 1.01760 0.23210 0.25884
 O1238 O 1.00421 0.24563 0.27335
 Zr1239 Zr 0.97998 0.26709 0.24114
 O1240 O 0.99325 0.25360 0.22614
 Zr1241 Zr 0.98103 0.24134 0.26895
 O1242 O 0.99444 0.22646 0.25568
 Zr1243 Zr 1.00748 0.26835 0.26753
 O1244 O 1.02243 0.25494 0.25418
 O1245 O 1.01317 0.23509 0.23564
 O1246 O 0.98450 0.26395 0.26424
 C1247 C 1.01152 0.20350 0.23906
 C1248 C 1.01012 0.23627 0.20321
 C1249 C 1.04532 0.23782 0.23746
 C1250 C 0.98498 0.29479 0.26260
 C1251 C 0.95340 0.26279 0.26422
 C1252 C 0.98593 0.26423 0.29555
 H1253 H 0.96479 0.24181 0.24334
 H1254 H 1.00698 0.24380 0.28421
 H1255 H 1.01965 0.22857 0.22919
 H1256 H 1.00522 0.28294 0.24139
 H1257 H 0.98383 0.27850 0.21416
 H1258 H 1.00957 0.28135 0.21504
 H1259 H 0.99056 0.22672 0.29296
 H1260 H 1.00757 0.21102 0.27647
 H1261 H 0.96502 0.25998 0.21666
 H1262 H 0.97389 0.23789 0.20846
 H1263 H 1.02427 0.27590 0.29092
 H1264 H 1.03941 0.24338 0.27508
 H1265 H 0.97403 0.20952 0.24416
 H1266 H 0.95752 0.22527 0.26103
 H1267 H 1.04012 0.27348 0.23902
 H1268 H 1.03327 0.28159 0.26272
 O1269 O 0.79018 0.99790 0.77123
 O1270 O 0.78404 1.02465 0.77065
 O1271 O 0.75050 0.97770 0.78963
 O1272 O 0.72512 0.97786 0.78435
 O1273 O 0.77168 0.95987 0.74994
 O1274 O 0.77009 0.96655 0.72264
 O1275 O 0.71012 1.01740 0.74742
 O1276 O 0.71362 1.01319 0.77490
 O1277 O 0.74838 1.03942 0.73202
 O1278 O 0.77647 1.03504 0.73495
 O1279 O 0.73169 1.00267 0.70939
 O1280 O 0.73721 0.97527 0.71246
 O1281 O 0.71151 1.00040 0.72782
 O1282 O 0.71588 0.97450 0.73048
 O1283 O 0.74987 1.02096 0.71100
 O1284 O 0.77776 1.01963 0.71747
 O1285 O 0.72895 1.03765 0.74923
 O1286 O 0.73097 1.03337 0.77538
 O1287 O 0.79143 0.98092 0.75160
 O1288 O 0.78686 0.98395 0.72424
 O1289 O 0.75287 0.95846 0.76793
 O1290 O 0.72455 0.96339 0.76385
 O1291 O 0.76877 0.99594 0.79121
 O1292 O 0.76668 1.02359 0.78707
 Zr1293 Zr 0.76795 1.00694 0.76973
 O1294 O 0.75450 1.02169 0.75646
 Zr1295 Zr 0.74197 0.97965 0.76711
 O1296 O 0.72750 0.99328 0.75364
 Zr1297 Zr 0.76976 0.98192 0.74119
 O1298 O 0.75650 0.99568 0.72670
 Zr1299 Zr 0.73136 1.01603 0.75872
 O1300 O 0.74461 1.00244 0.77374
 Zr1301 Zr 0.75932 1.01834 0.73308
 O1302 O 0.77409 1.00473 0.74643
 Zr1303 Zr 0.73333 0.99100 0.73037
 O1304 O 0.74663 0.97582 0.74366
 O1305 O 0.76490 0.98445 0.76431
 O1306 O 0.73626 1.01366 0.73557
 C1307 C 0.79699 0.98762 0.76343
 C1308 C 0.76132 0.98467 0.79663
 C1309 C 0.76444 0.95309 0.76074
 C1310 C 0.70474 1.01081 0.73543
 C1311 C 0.73650 1.04458 0.73880
 C1312 C 0.73892 1.01412 0.70411
 H1313 H 0.75631 1.03221 0.75975
 H1314 H 0.75930 0.99384 0.71586
 H1315 H 0.77142 0.97799 0.77081
 H1316 H 0.71672 0.99047 0.75539
 H1317 H 0.71845 1.00955 0.78450
 H1318 H 0.71639 0.98415 0.78109
 H1319 H 0.77661 1.01131 0.71000
 H1320 H 0.79167 0.99393 0.72580
 H1321 H 0.73645 1.02945 0.78447
 H1322 H 0.75832 1.02067 0.79407
 H1323 H 0.72839 0.97580 0.70532
 H1324 H 0.76051 0.96067 0.72323
 H1325 H 0.78959 1.02448 0.76077
 H1326 H 0.77428 1.04113 0.74419
 H1327 H 0.72821 0.95617 0.75603
 H1328 H 0.72088 0.96471 0.73251
 O1329 O 0.71121 0.51806 0.24827
 O1330 O 0.71562 0.51543 0.27550
 O1331 O 0.75092 0.54126 0.23290
 O1332 O 0.77633 0.53780 0.23380
 O1333 O 0.73422 0.50257 0.20869
 O1334 O 0.73674 0.47568 0.21305
 O1335 O 0.79112 0.49830 0.27203
 O1336 O 0.78633 0.52542 0.26988
 O1337 O 0.75322 0.47834 0.28911
 O1338 O 0.72513 0.48000 0.28296
 O1339 O 0.77420 0.46202 0.25152
 O1340 O 0.76998 0.46707 0.22354
 O1341 O 0.79245 0.48113 0.25257
 O1342 O 0.78976 0.48665 0.22597
 O1343 O 0.75474 0.46027 0.26872
 O1344 O 0.72629 0.46443 0.26525
 O1345 O 0.77136 0.49668 0.29062
 O1346 O 0.76713 0.52275 0.28894
 O1347 O 0.71257 0.50082 0.22890
 O1348 O 0.71902 0.47431 0.22944
 O1349 O 0.75157 0.52163 0.21055
 O1350 O 0.77958 0.51949 0.21772
 O1351 O 0.73140 0.53952 0.25005
 O1352 O 0.73166 0.53241 0.27760
 Zr1353 Zr 0.73291 0.51740 0.25875
 O1354 O 0.74626 0.50385 0.27341
 Zr1355 Zr 0.76074 0.51963 0.23292
 O1356 O 0.77528 0.50614 0.24650
 Zr1357 Zr 0.73490 0.49221 0.23043
 O1358 O 0.74830 0.47754 0.24386
 Zr1359 Zr 0.76947 0.50835 0.26973
 O1360 O 0.75611 0.52345 0.25643
 Zr1361 Zr 0.74344 0.48113 0.26720
 O1362 O 0.72870 0.49456 0.25368
 Zr1363 Zr 0.77137 0.48334 0.24133
 O1364 O 0.75813 0.49690 0.22632
 O1365 O 0.73775 0.51486 0.23560
 O1366 O 0.76641 0.48585 0.26444
 C1367 C 0.70559 0.51096 0.23670
 C1368 C 0.73937 0.54666 0.24008
 C1369 C 0.74134 0.51404 0.20330
 C1370 C 0.79766 0.48750 0.26474
 C1371 C 0.76440 0.48502 0.29579
 C1372 C 0.76689 0.45531 0.26229
 H1373 H 0.74351 0.50574 0.28425
 H1374 H 0.74651 0.46698 0.24072
 H1375 H 0.73125 0.52142 0.22916
 H1376 H 0.78608 0.50889 0.24474
 H1377 H 0.78116 0.53489 0.26687
 H1378 H 0.78451 0.53492 0.24107
 H1379 H 0.72908 0.45768 0.25667
 H1380 H 0.71365 0.47424 0.23943
 H1381 H 0.76203 0.53197 0.28522
 H1382 H 0.73975 0.54007 0.27620
 H1383 H 0.77939 0.46087 0.22405
 H1384 H 0.74689 0.47705 0.20830
 H1385 H 0.71117 0.50525 0.27428
 H1386 H 0.72656 0.48814 0.29058
 H1387 H 0.77723 0.51225 0.20941
 H1388 H 0.78523 0.48874 0.21577
 O1389 O 0.53981 0.23055 0.75190
 O1390 O 0.53417 0.23307 0.77894
 O1391 O 0.50068 0.20864 0.73397
 O1392 O 0.47514 0.21234 0.73427
 O1393 O 0.51896 0.24682 0.71122
 O1394 O 0.51693 0.27374 0.71558
 O1395 O 0.45961 0.25200 0.77197
 O1396 O 0.46346 0.22518 0.77001
 O1397 O 0.49719 0.27111 0.79080
 O1398 O 0.52558 0.26894 0.78579
 O1399 O 0.47800 0.28801 0.75245
 O1400 O 0.48326 0.28312 0.72468
 O1401 O 0.45936 0.26924 0.75251
 O1402 O 0.46304 0.26388 0.72599
 O1403 O 0.49681 0.28929 0.77052
 O1404 O 0.52526 0.28464 0.76827
 O1405 O 0.47873 0.25304 0.79145
 O1406 O 0.48197 0.22490 0.78809
 O1407 O 0.53972 0.24785 0.73250
 O1408 O 0.53389 0.27468 0.73297
 O1409 O 0.50100 0.22825 0.71208
 O1410 O 0.47285 0.23106 0.71784
 O1411 O 0.51919 0.20968 0.75242
 O1412 O 0.51704 0.21610 0.77952
 Zr1413 Zr 0.51770 0.23174 0.76122
 O1414 O 0.50422 0.24558 0.77536
 Zr1415 Zr 0.49098 0.23032 0.73398
 O1416 O 0.47624 0.24397 0.74704
 Zr1417 Zr 0.51758 0.25713 0.73297
 O1418 O 0.50392 0.27201 0.74582
 Zr1419 Zr 0.48107 0.24146 0.77052
 O1420 O 0.49454 0.22627 0.75762
 Zr1421 Zr 0.50776 0.26823 0.76933
 O1422 O 0.52272 0.25449 0.75648
 Zr1423 Zr 0.48084 0.26672 0.74223
 O1424 O 0.49441 0.25303 0.72772
 O1425 O 0.51391 0.23458 0.73788
 O1426 O 0.48483 0.26394 0.76553
 C1427 C 0.54607 0.23745 0.74058
 C1428 C 0.51184 0.20297 0.74162
 C1429 C 0.51178 0.23554 0.70543
 C1430 C 0.45354 0.26289 0.76438
 C1431 C 0.48567 0.26457 0.79696
 C1432 C 0.48499 0.29450 0.76360
 H1433 H 0.50671 0.24373 0.78627
 H1434 H 0.50605 0.28255 0.74283
 H1435 H 0.52055 0.22797 0.73170
 H1436 H 0.46546 0.24147 0.74477
 H1437 H 0.46803 0.21579 0.76596
 H1438 H 0.46623 0.21571 0.74029
 H1439 H 0.52296 0.29146 0.75958
 H1440 H 0.53893 0.27442 0.74316
 H1441 H 0.48993 0.22784 0.79558
 H1442 H 0.50701 0.21100 0.77889
 H1443 H 0.47396 0.28947 0.72478
 H1444 H 0.50688 0.27278 0.71047
 H1445 H 0.53895 0.24314 0.77806
 H1446 H 0.52356 0.26104 0.79354
 H1447 H 0.47573 0.23832 0.70973
 H1448 H 0.46793 0.26188 0.71597
 O1449 O 0.28847 0.75194 0.47882
 O1450 O 0.28214 0.72537 0.47965
 O1451 O 0.24905 0.77186 0.45912
 O1452 O 0.22380 0.77262 0.46399
 O1453 O 0.26980 0.79071 0.49916
 O1454 O 0.26812 0.78451 0.52630
 O1455 O 0.20826 0.73291 0.50141
 O1456 O 0.21156 0.73663 0.47423
 O1457 O 0.24573 0.71181 0.51849
 O1458 O 0.27427 0.71595 0.51556
 O1459 O 0.22858 0.74839 0.53917
 O1460 O 0.23459 0.77582 0.53617
 O1461 O 0.20930 0.75039 0.52062
 O1462 O 0.21372 0.77661 0.51723
 O1463 O 0.24688 0.73017 0.53850
 O1464 O 0.27512 0.73178 0.53297
 O1465 O 0.22657 0.71323 0.50081
 O1466 O 0.22940 0.71843 0.47219
 O1467 O 0.28959 0.76935 0.49808
 O1468 O 0.28454 0.76691 0.52547
 O1469 O 0.25136 0.79188 0.48068
 O1470 O 0.22296 0.78706 0.48433
 O1471 O 0.26699 0.75326 0.45819
 O1472 O 0.26452 0.72643 0.46289
 Zr1473 Zr 0.26615 0.74317 0.48008
 O1474 O 0.25259 0.72863 0.49343
 Zr1475 Zr 0.24036 0.77072 0.48160
 O1476 O 0.22560 0.75728 0.49488
 Zr1477 Zr 0.26775 0.76877 0.50809
 O1478 O 0.25415 0.75541 0.52262
 Zr1479 Zr 0.22952 0.73439 0.49035
 O1480 O 0.24296 0.74783 0.47554
 Zr1481 Zr 0.25705 0.73263 0.51680
 O1482 O 0.27203 0.74586 0.50341
 Zr1483 Zr 0.23105 0.76002 0.51824
 O1484 O 0.24469 0.77492 0.50505
 O1485 O 0.26324 0.76585 0.48488
 O1486 O 0.23415 0.73737 0.51346
 C1487 C 0.29530 0.76226 0.48659
 C1488 C 0.25963 0.76440 0.45234
 C1489 C 0.26268 0.79741 0.48821
 C1490 C 0.20283 0.73955 0.51331
 C1491 C 0.23367 0.70675 0.51190
 C1492 C 0.23548 0.73685 0.54472
 H1493 H 0.25461 0.71804 0.49062
 H1494 H 0.25671 0.75744 0.53349
 H1495 H 0.26986 0.77214 0.47832
 H1496 H 0.21484 0.76002 0.49285
 H1497 H 0.21603 0.74124 0.46492
 H1498 H 0.21495 0.76642 0.46707
 H1499 H 0.27350 0.73994 0.54053
 H1500 H 0.28931 0.75688 0.52420
 H1501 H 0.23670 0.71031 0.47475
 H1502 H 0.25425 0.72747 0.45825
 H1503 H 0.22553 0.77543 0.54295
 H1504 H 0.25830 0.78999 0.52586
 H1505 H 0.28728 0.72539 0.48980
 H1506 H 0.27158 0.70895 0.50715
 H1507 H 0.22658 0.79444 0.49205
 H1508 H 0.21888 0.78639 0.51563
 O1509 O 0.28824 0.25303 0.97877
 O1510 O 0.28276 0.22621 0.97963
 O1511 O 0.24817 0.27197 0.95950
 O1512 O 0.22284 0.27155 0.96453
 O1513 O 0.26870 0.29096 0.99933
 O1514 O 0.26716 0.28459 1.02664
 O1515 O 0.20860 0.23186 1.00195
 O1516 O 0.21200 0.23594 0.97443
 O1517 O 0.24710 0.21118 1.01812
 O1518 O 0.27513 0.21615 1.01549
 O1519 O 0.22924 0.24772 1.03980
 O1520 O 0.23431 0.27522 1.03654
 O1521 O 0.20940 0.24923 1.02125
 O1522 O 0.21314 0.27533 1.01807
 O1523 O 0.24779 0.22978 1.03872
 O1524 O 0.27588 0.23195 1.03277
 O1525 O 0.22775 0.21225 1.00063
 O1526 O 0.23003 0.21620 0.97432
 O1527 O 0.28897 0.27033 0.99815
 O1528 O 0.28427 0.26752 1.02550
 O1529 O 0.25006 0.29168 0.98101
 O1530 O 0.22181 0.28613 0.98481
 O1531 O 0.26687 0.25414 0.95845
 O1532 O 0.26547 0.22651 0.96311
 Zr1533 Zr 0.26621 0.24352 0.98013
 O1534 O 0.25302 0.22865 0.99345
 Zr1535 Zr 0.23962 0.27025 0.98199
 O1536 O 0.22534 0.25647 0.99544
 Zr1537 Zr 0.26726 0.26897 1.00830
 O1538 O 0.25418 0.25515 1.02284
 Zr1539 Zr 0.22978 0.23374 0.99076
 O1540 O 0.24282 0.24743 0.97573
 Zr1541 Zr 0.25758 0.23247 1.01684
 O1542 O 0.27213 0.24620 1.00346
 Zr1543 Zr 0.23094 0.25923 1.01875
 O1544 O 0.24402 0.27452 1.00544
 O1545 O 0.26264 0.26602 0.98515
 O1546 O 0.23448 0.23661 1.01390
 C1547 C 0.29478 0.26357 0.98650
 C1548 C 0.25913 0.26509 0.95272
 C1549 C 0.26140 0.29742 0.98835
 C1550 C 0.20303 0.23842 1.01384
 C1551 C 0.23533 0.20569 1.01134
 C1552 C 0.23654 0.23639 1.04528
 H1553 H 0.25510 0.21812 0.99036
 H1554 H 0.25682 0.25719 1.03370
 H1555 H 0.26904 0.27253 0.97861
 H1556 H 0.21451 0.25898 0.99351
 H1557 H 0.21675 0.23960 0.96482
 H1558 H 0.21429 0.26497 0.96767
 H1559 H 0.27424 0.24012 1.04031
 H1560 H 0.28928 0.25762 1.02416
 H1561 H 0.23513 0.22028 0.96512
 H1562 H 0.25709 0.22910 0.95593
 H1563 H 0.22540 0.27460 1.04351
 H1564 H 0.25739 0.29014 1.02594
 H1565 H 0.28815 0.22657 0.98964
 H1566 H 0.27314 0.20985 1.00633
 H1567 H 0.22526 0.29357 0.99255
 H1568 H 0.21797 0.28523 1.01614
 C1569 C 0.28110 0.41774 0.77826
 C1570 C 0.27845 0.40258 0.77409
 C1571 C 0.28625 0.39081 0.78192
 C1572 C 0.29667 0.39431 0.79388
 C1573 C 0.29944 0.40951 0.79796
 C1574 C 0.29162 0.42126 0.79014
 C1575 C 0.29469 0.43639 0.79434
 C1576 C 0.30531 0.43978 0.80576
 C1577 C 0.31287 0.42829 0.81348
 C1578 C 0.30999 0.41329 0.80969
 C1579 C 0.28339 0.37571 0.77755
 C1580 C 0.27313 0.37234 0.76578
 C1581 C 0.26552 0.38386 0.75812
 C1582 C 0.26810 0.39883 0.76219
 C1583 C 0.30441 0.38226 0.80203
 C1584 C 0.31063 0.37209 0.80875
 C1585 C 0.27315 0.42986 0.77043
 C1586 C 0.26718 0.44072 0.76470
 H1587 H 0.28915 0.44577 0.78869
 H1588 H 0.30780 0.45140 0.80850
 H1589 H 0.32111 0.43101 0.82234
 H1590 H 0.31623 0.40474 0.81595
 H1591 H 0.28905 0.36636 0.78315
 H1592 H 0.27109 0.36073 0.76258
 H1593 H 0.25756 0.38118 0.74899
 H1594 H 0.26192 0.40741 0.75591
 C1595 C 0.28400 -0.08266 0.27927
 C1596 C 0.28050 -0.09759 0.27484
 C1597 C 0.28789 -0.10988 0.28221
 C1598 C 0.29874 -0.10714 0.29398
 C1599 C 0.30235 -0.09219 0.29832
 C1600 C 0.29494 -0.07990 0.29096
 C1601 C 0.29869 -0.06504 0.29555
 C1602 C 0.30949 -0.06242 0.30703
 C1603 C 0.31675 -0.07444 0.31420
 C1604 C 0.31326 -0.08918 0.30995
 C1605 C 0.28418 -0.12473 0.27760
 C1606 C 0.27348 -0.12736 0.26603
 C1607 C 0.26627 -0.11534 0.25882
 C1608 C 0.26969 -0.10060 0.26313
 C1609 C 0.30601 -0.11976 0.30167
 C1610 C 0.31174 -0.13050 0.30789
 C1611 C 0.27630 -0.07009 0.27193
 C1612 C 0.27023 -0.05924 0.26630
 H1613 H 0.29337 -0.05530 0.29033
 H1614 H 0.31223 -0.05100 0.31039
 H1615 H 0.32512 -0.07232 0.32310
 H1616 H 0.31920 -0.09816 0.31586
 H1617 H 0.28949 -0.13447 0.28284
 H1618 H 0.27079 -0.13879 0.26264
 H1619 H 0.25797 -0.11744 0.24983
 H1620 H 0.26378 -0.09161 0.25718
 C1621 C 0.78646 0.91855 0.78200
 C1622 C 0.79666 0.92337 0.79370
 C1623 C 0.80503 0.91256 0.80233
 C1624 C 0.80308 0.89701 0.79929
 C1625 C 0.79296 0.89222 0.78754
 C1626 C 0.78463 0.90303 0.77887
 C1627 C 0.77459 0.89798 0.76720
 C1628 C 0.77281 0.88267 0.76417
 C1629 C 0.78094 0.87208 0.77264
 C1630 C 0.79091 0.87674 0.78421
 C1631 C 0.81521 0.91763 0.81387
 C1632 C 0.81705 0.93295 0.81685
 C1633 C 0.80882 0.94352 0.80848
 C1634 C 0.79873 0.93886 0.79703
 C1635 C 0.81135 0.88588 0.80826
 C1636 C 0.81796 0.87626 0.81543
 C1637 C 0.77786 0.92966 0.77335
 C1638 C 0.77122 0.93972 0.76690
 H1639 H 0.76803 0.90580 0.76031
 H1640 H 0.76509 0.87900 0.75520
 H1641 H 0.77953 0.86020 0.77024
 H1642 H 0.79698 0.86807 0.79046
 H1643 H 0.82184 0.90982 0.82071
 H1644 H 0.82487 0.93663 0.82573
 H1645 H 0.81026 0.95541 0.81085
 H1646 H 0.79262 0.94754 0.79082
 C1647 C 0.46544 0.83297 0.27729
 C1648 C 0.44962 0.83196 0.28040
 C1649 C 0.44223 0.84362 0.28873
 C1650 C 0.45065 0.85634 0.29367
 C1651 C 0.46637 0.85757 0.29015
 C1652 C 0.47379 0.84584 0.28193
 C1653 C 0.48954 0.84721 0.27872
 C1654 C 0.49775 0.85984 0.28348
 C1655 C 0.49050 0.87131 0.29151
 C1656 C 0.47500 0.87025 0.29485
 C1657 C 0.42648 0.84220 0.29199
 C1658 C 0.41820 0.82975 0.28693
 C1659 C 0.42537 0.81849 0.27854
 C1660 C 0.44091 0.81943 0.27542
 C1661 C 0.44314 0.86816 0.30234
 C1662 C 0.43685 0.87799 0.30947
 C1663 C 0.47326 0.82022 0.27046
 C1664 C 0.47932 0.80908 0.26545
 H1665 H 0.49565 0.83859 0.27248
 H1666 H 0.50979 0.86071 0.28092
 H1667 H 0.49693 0.88109 0.29519
 H1668 H 0.46988 0.87945 0.30115
 H1669 H 0.42038 0.85072 0.29840
 H1670 H 0.40614 0.82887 0.28942
 H1671 H 0.41883 0.80902 0.27437
 H1672 H 0.44596 0.81033 0.26891
 C1673 C -0.03623 0.83030 0.78283
 C1674 C -0.04906 0.83748 0.77615
 C1675 C -0.05751 0.84818 0.78478
 C1676 C -0.05305 0.85167 0.80001
 C1677 C -0.04066 0.84399 0.80693
 C1678 C -0.03218 0.83332 0.79829
 C1679 C -0.02004 0.82554 0.80556
 C1680 C -0.01655 0.82807 0.82097
 C1681 C -0.02487 0.83849 0.82941
 C1682 C -0.03674 0.84646 0.82251
 C1683 C -0.07043 0.85504 0.77795
 C1684 C -0.07491 0.85137 0.76304
 C1685 C -0.06663 0.84093 0.75459
 C1686 C -0.05383 0.83403 0.76101
 C1687 C -0.06096 0.86341 0.80841
 C1688 C -0.06728 0.87350 0.81512
 C1689 C -0.02811 0.81877 0.77434
 C1690 C -0.02181 0.80848 0.76795
 H1691 H -0.01328 0.81727 0.79950
 H1692 H -0.00737 0.82187 0.82640
 H1693 H -0.02215 0.84037 0.84140
 H1694 H -0.04296 0.85436 0.82958
 H1695 H -0.07729 0.86317 0.78410
 H1696 H -0.08489 0.85665 0.75803
 H1697 H -0.07017 0.83811 0.74302
 H1698 H -0.04779 0.82594 0.75400
 C1699 C -0.03603 -0.08026 -0.03420
 C1700 C -0.04882 -0.08739 -0.02748
 C1701 C -0.05749 -0.09795 -0.03613
 C1702 C -0.05328 -0.10135 -0.05143
 C1703 C -0.04093 -0.09371 -0.05838
 C1704 C -0.03223 -0.08316 -0.04973
 C1705 C -0.02015 -0.07541 -0.05704
 C1706 C -0.01689 -0.07784 -0.07250
 C1707 C -0.02541 -0.08813 -0.08095
 C1708 C -0.03724 -0.09608 -0.07401
 C1709 C -0.07038 -0.10476 -0.02925
 C1710 C -0.07461 -0.10120 -0.01427
 C1711 C -0.06611 -0.09090 -0.00580
 C1712 C -0.05335 -0.08404 -0.01226
 C1713 C -0.06140 -0.11297 -0.05986
 C1714 C -0.06784 -0.12295 -0.06669
 C1715 C -0.02765 -0.06889 -0.02568
 C1716 C -0.02116 -0.05870 -0.01927
 H1717 H -0.01324 -0.06722 -0.05098
 H1718 H -0.00774 -0.07166 -0.07796
 H1719 H -0.02287 -0.08994 -0.09297
 H1720 H -0.04362 -0.10389 -0.08109
 H1721 H -0.07740 -0.11279 -0.03542
 H1722 H -0.08456 -0.10644 -0.00922
 H1723 H -0.06945 -0.08816 0.00583
 H1724 H -0.04713 -0.07606 -0.00524
 C1725 C -0.02930 0.41593 0.46926
 C1726 C -0.02801 0.41455 0.45310
 C1727 C -0.03650 0.40332 0.44518
 C1728 C -0.04601 0.39336 0.45349
 C1729 C -0.04722 0.39467 0.46966
 C1730 C -0.03886 0.40601 0.47756
 C1731 C -0.04035 0.40721 0.49369
 C1732 C -0.04984 0.39746 0.50181
 C1733 C -0.05801 0.38635 0.49409
 C1734 C -0.05676 0.38492 0.47820
 C1735 C -0.03536 0.40243 0.42898
 C1736 C -0.02605 0.41233 0.42085
 C1737 C -0.01761 0.42320 0.42860
 C1738 C -0.01851 0.42434 0.44454
 C1739 C -0.05431 0.38157 0.44550
 C1740 C -0.06105 0.37156 0.43903
 C1741 C -0.02179 0.42832 0.47708
 C1742 C -0.01614 0.43932 0.48287
 H1743 H -0.03419 0.41564 0.50020
 H1744 H -0.05085 0.39852 0.51415
 H1745 H -0.06536 0.37881 0.50044
 H1746 H -0.06337 0.37614 0.47271
 H1747 H -0.04172 0.39417 0.42244
 H1748 H -0.02541 0.41158 0.40846
 H1749 H -0.01042 0.43089 0.42222
 H1750 H -0.01179 0.43304 0.45003
 C1751 C 0.46699 -0.08255 0.46969
 C1752 C 0.47457 -0.09053 0.45788
 C1753 C 0.46698 -0.10247 0.45012
 C1754 C 0.45183 -0.10631 0.45416
 C1755 C 0.44411 -0.09806 0.46567
 C1756 C 0.45176 -0.08625 0.47357
 C1757 C 0.44383 -0.07819 0.48508
 C1758 C 0.42874 -0.08165 0.48861
 C1759 C 0.42120 -0.09309 0.48077
 C1760 C 0.42875 -0.10128 0.46945
 C1761 C 0.47480 -0.11029 0.43836
 C1762 C 0.48966 -0.10639 0.43436
 C1763 C 0.49707 -0.09469 0.44193
 C1764 C 0.48966 -0.08681 0.45357
 C1765 C 0.44441 -0.11902 0.44678
 C1766 C 0.43856 -0.12982 0.44077
 C1767 C 0.47447 -0.06990 0.47710
 C1768 C 0.48026 -0.05889 0.48272
 H1769 H 0.44917 -0.06913 0.49145
 H1770 H 0.42289 -0.07544 0.49751
 H1771 H 0.40944 -0.09565 0.48350
 H1772 H 0.42242 -0.11008 0.46366
 H1773 H 0.46950 -0.11944 0.43209
 H1774 H 0.49546 -0.11247 0.42532
 H1775 H 0.50861 -0.09170 0.43877
 H1776 H 0.49591 -0.07781 0.45914
 C1777 C 0.46332 0.41905 -0.03356
 C1778 C 0.45061 0.41189 -0.02672
 C1779 C 0.44189 0.40130 -0.03530
 C1780 C 0.44598 0.39792 -0.05063
 C1781 C 0.45825 0.40559 -0.05770
 C1782 C 0.46700 0.41614 -0.04912
 C1783 C 0.47902 0.42392 -0.05653
 C1784 C 0.48215 0.42148 -0.07201
 C1785 C 0.47357 0.41118 -0.08040
 C1786 C 0.46180 0.40323 -0.07336
 C1787 C 0.42909 0.39445 -0.02830
 C1788 C 0.42496 0.39803 -0.01329
 C1789 C 0.43350 0.40836 -0.00490
 C1790 C 0.44620 0.41523 -0.01147
 C1791 C 0.43781 0.38628 -0.05899
 C1792 C 0.43129 0.37628 -0.06570
 C1793 C 0.47173 0.43045 -0.02512
 C1794 C 0.47823 0.44067 -0.01878
 H1795 H 0.48596 0.43212 -0.05052
 H1796 H 0.49126 0.42766 -0.07754
 H1797 H 0.47602 0.40937 -0.09244
 H1798 H 0.45536 0.39542 -0.08039
 H1799 H 0.42205 0.38640 -0.03440
 H1800 H 0.41507 0.39277 -0.00816
 H1801 H 0.43024 0.41111 0.00675
 H1802 H 0.45246 0.42323 -0.00450
 C1803 C 0.78498 0.33340 0.47056
 C1804 C 0.79576 0.32886 0.45935
 C1805 C 0.80401 0.33990 0.45096
 C1806 C 0.80137 0.35539 0.45374
 C1807 C 0.79062 0.35990 0.46496
 C1808 C 0.78241 0.34887 0.47340
 C1809 C 0.77173 0.35363 0.48454
 C1810 C 0.76922 0.36889 0.48728
 C1811 C 0.77724 0.37970 0.47903
 C1812 C 0.78782 0.37533 0.46799
 C1813 C 0.81475 0.33511 0.43987
 C1814 C 0.81725 0.31984 0.43712
 C1815 C 0.80915 0.30904 0.44528
 C1816 C 0.79851 0.31343 0.45627
 C1817 C 0.80960 0.36673 0.44505
 C1818 C 0.81620 0.37646 0.43805
 C1819 C 0.77654 0.32204 0.47899
 C1820 C 0.77009 0.31176 0.48526
 H1821 H 0.76523 0.34563 0.49124
 H1822 H 0.76101 0.37235 0.49585
 H1823 H 0.77525 0.39155 0.48120
 H1824 H 0.79377 0.38416 0.46188
 H1825 H 0.82131 0.34310 0.43322
 H1826 H 0.82550 0.31638 0.42860
 H1827 H 0.81111 0.29720 0.44309
 H1828 H 0.79252 0.30458 0.46231
 C1829 C 0.78754 0.82960 -0.03367
 C1830 C 0.78505 0.84491 -0.02997
 C1831 C 0.79304 0.85636 -0.03804
 C1832 C 0.80349 0.85241 -0.04975
 C1833 C 0.80609 0.83709 -0.05337
 C1834 C 0.79807 0.82564 -0.04532
 C1835 C 0.80081 0.81039 -0.04920
 C1836 C 0.81120 0.80660 -0.06065
 C1837 C 0.81906 0.81779 -0.06848
 C1838 C 0.81657 0.83289 -0.06494
 C1839 C 0.79034 0.87161 -0.03415
 C1840 C 0.78004 0.87543 -0.02262
 C1841 C 0.77223 0.86422 -0.01474
 C1842 C 0.77466 0.84912 -0.01833
 C1843 C 0.81140 0.86417 -0.05815
 C1844 C 0.81769 0.87421 -0.06496
 C1845 C 0.77929 0.81787 -0.02559
 C1846 C 0.77282 0.80757 -0.01936
 H1847 H 0.79500 0.80125 -0.04345
 H1848 H 0.81316 0.79489 -0.06347
 H1849 H 0.82712 0.81476 -0.07735
 H1850 H 0.82295 0.84121 -0.07135
 H1851 H 0.79614 0.88074 -0.03994
 H1852 H 0.77812 0.88715 -0.01979
 H1853 H 0.76425 0.86724 -0.00579
 H1854 H 0.76832 0.84079 -0.01188
 C1855 C 0.78159 0.28667 0.41876
 C1856 C 0.79082 0.27871 0.40821
 C1857 C 0.79945 0.28673 0.39710
 C1858 C 0.79882 0.30267 0.39663
 C1859 C 0.78961 0.31064 0.40720
 C1860 C 0.78088 0.30261 0.41823
 C1861 C 0.77173 0.31082 0.42867
 C1862 C 0.77137 0.32651 0.42834
 C1863 C 0.78001 0.33436 0.41763
 C1864 C 0.78901 0.32657 0.40712
 C1865 C 0.80866 0.27852 0.38671
 C1866 C 0.80932 0.26285 0.38730
 C1867 C 0.80088 0.25501 0.39818
 C1868 C 0.79171 0.26279 0.40854
 C1869 C 0.80746 0.31080 0.38509
 C1870 C 0.81451 0.31730 0.37524
 C1871 C 0.77384 0.27860 0.43096
 C1872 C 0.76808 0.27240 0.44180
 H1873 H 0.76487 0.30522 0.43727
 H1874 H 0.76445 0.33261 0.43652
 H1875 H 0.77979 0.34655 0.41751
 H1876 H 0.79556 0.33318 0.39903
 H1877 H 0.81546 0.28411 0.37806
 H1878 H 0.81643 0.25676 0.37928
 H1879 H 0.80144 0.24284 0.39860
 H1880 H 0.78532 0.25620 0.41677
 C1881 C 0.78443 0.78729 -0.08150
 C1882 C 0.79653 0.78042 -0.08964
 C1883 C 0.80525 0.78901 -0.10023
 C1884 C 0.80177 0.80440 -0.10268
 C1885 C 0.79011 0.81144 -0.09406
 C1886 C 0.78139 0.80285 -0.08346
 C1887 C 0.77006 0.81022 -0.07466
 C1888 C 0.76757 0.82565 -0.07616
 C1889 C 0.77611 0.83404 -0.08652
 C1890 C 0.78720 0.82706 -0.09547
 C1891 C 0.81748 0.78197 -0.10802
 C1892 C 0.82104 0.76689 -0.10536
 C1893 C 0.81248 0.75848 -0.09504
 C1894 C 0.80035 0.76510 -0.08725
 C1895 C 0.81002 0.81287 -0.11426
 C1896 C 0.81675 0.81952 -0.12424
 C1897 C 0.77612 0.77873 -0.07004
 C1898 C 0.76989 0.77200 -0.05981
 H1899 H 0.76318 0.80419 -0.06639
 H1900 H 0.75900 0.83114 -0.06919
 H1901 H 0.77416 0.84604 -0.08761
 H1902 H 0.79363 0.83407 -0.10330
 H1903 H 0.82453 0.78806 -0.11610
 H1904 H 0.83049 0.76171 -0.11133
 H1905 H 0.81529 0.74677 -0.09301
 H1906 H 0.79406 0.75810 -0.07929
 C1907 C 0.28230 0.46617 0.83197
 C1908 C 0.27464 0.45515 0.84082
 C1909 C 0.28286 0.44653 0.85184
 C1910 C 0.29871 0.44892 0.85389
 C1911 C 0.30643 0.45975 0.84485
 C1912 C 0.29817 0.46853 0.83400
 C1913 C 0.30611 0.47941 0.82521
 C1914 C 0.32178 0.48141 0.82695
 C1915 C 0.32990 0.47266 0.83738
 C1916 C 0.32236 0.46198 0.84631
 C1917 C 0.27495 0.43558 0.86055
 C1918 C 0.25937 0.43318 0.85840
 C1919 C 0.25135 0.44159 0.84760
 C1920 C 0.25884 0.45248 0.83888
 C1921 C 0.30696 0.44063 0.86566
 C1922 C 0.31367 0.43400 0.87570
 C1923 C 0.27422 0.47422 0.81993
 C1924 C 0.26820 0.48043 0.80919
 H1925 H 0.30033 0.48644 0.81687
 H1926 H 0.32764 0.48981 0.82019
 H1927 H 0.34210 0.47421 0.83862
 H1928 H 0.32916 0.45546 0.85429
 H1929 H 0.28071 0.42871 0.86905
 H1930 H 0.25351 0.42474 0.86514
 H1931 H 0.23925 0.43969 0.84597
 H1932 H 0.25211 0.45877 0.83065
 C1933 C 0.28545 -0.03745 0.32901
 C1934 C 0.29755 -0.03031 0.33699
 C1935 C 0.30625 -0.03855 0.34793
 C1936 C 0.30278 -0.05387 0.35085
 C1937 C 0.29119 -0.06120 0.34231
 C1938 C 0.28245 -0.05295 0.33140
 C1939 C 0.27108 -0.06059 0.32283
 C1940 C 0.26858 -0.07597 0.32482
 C1941 C 0.27715 -0.08403 0.33547
 C1942 C 0.28827 -0.07677 0.34422
 C1943 C 0.31837 -0.03121 0.35569
 C1944 C 0.32180 -0.01617 0.35271
 C1945 C 0.31325 -0.00809 0.34206
 C1946 C 0.30127 -0.01503 0.33424
 C1947 C 0.31070 -0.06184 0.36306
 C1948 C 0.31703 -0.06811 0.37358
 C1949 C 0.27682 -0.02913 0.31756
 C1950 C 0.27022 -0.02254 0.30743
 H1951 H 0.26418 -0.05482 0.31434
 H1952 H 0.25998 -0.08167 0.31802
 H1953 H 0.27519 -0.09598 0.33694
 H1954 H 0.29472 -0.08353 0.35229
 H1955 H 0.32540 -0.03705 0.36402
 H1956 H 0.33115 -0.01075 0.35869
 H1957 H 0.31596 0.00359 0.33978
 H1958 H 0.29500 -0.00830 0.32600
 C1959 C -0.03469 -0.03765 -0.08157
 C1960 C -0.04621 -0.04805 -0.07733
 C1961 C -0.05409 -0.05635 -0.08883
 C1962 C -0.05040 -0.05422 -0.10450
 C1963 C -0.03880 -0.04391 -0.10872
 C1964 C -0.03092 -0.03560 -0.09721
 C1965 C -0.01939 -0.02536 -0.10170
 C1966 C -0.01573 -0.02337 -0.11713
 C1967 C -0.02343 -0.03149 -0.12839
 C1968 C -0.03484 -0.04165 -0.12430
 C1969 C -0.06556 -0.06667 -0.08435
 C1970 C -0.06911 -0.06878 -0.06891
 C1971 C -0.06137 -0.06071 -0.05766
 C1972 C -0.05008 -0.05042 -0.06173
 C1973 C -0.05862 -0.06243 -0.11632
 C1974 C -0.06533 -0.06894 -0.12644
 C1975 C -0.02674 -0.02911 -0.06978
 C1976 C -0.02053 -0.02243 -0.05947
 H1977 H -0.01308 -0.01879 -0.09335
 H1978 H -0.00688 -0.01549 -0.12037
 H1979 H -0.02054 -0.02991 -0.14037
 H1980 H -0.04048 -0.04771 -0.13349
 H1981 H -0.07186 -0.07324 -0.09269
 H1982 H -0.07788 -0.07675 -0.06565
 H1983 H -0.06414 -0.06243 -0.04568
 H1984 H -0.04442 -0.04441 -0.05253
 C1985 C -0.03141 0.46308 0.41789
 C1986 C -0.02864 0.46504 0.40203
 C1987 C -0.03711 0.45655 0.39110
 C1988 C -0.04831 0.44614 0.39611
 C1989 C -0.05098 0.44407 0.41199
 C1990 C -0.04253 0.45257 0.42292
 C1991 C -0.04545 0.45034 0.43876
 C1992 C -0.05638 0.44000 0.44363
 C1993 C -0.06463 0.43168 0.43293
 C1994 C -0.06201 0.43365 0.41728
 C1995 C -0.03414 0.45874 0.37527
 C1996 C -0.02313 0.46901 0.37041
 C1997 C -0.01487 0.47730 0.38112
 C1998 C -0.01755 0.47539 0.39676
 C1999 C -0.05715 0.43776 0.38485
 C2000 C -0.06433 0.43111 0.37516
 C2001 C -0.02299 0.47186 0.42913
 C2002 C -0.01665 0.47863 0.43931
 H2003 H -0.03934 0.45651 0.44755
 H2004 H -0.05846 0.43843 0.45578
 H2005 H -0.07311 0.42367 0.43678
 H2006 H -0.06871 0.42693 0.40939
 H2007 H -0.04026 0.45255 0.36650
 H2008 H -0.02101 0.47053 0.35827
 H2009 H -0.00633 0.48526 0.37728
 H2010 H -0.01083 0.48209 0.40467
 C2011 C 0.46781 -0.03704 0.41816
 C2012 C 0.47073 -0.03366 0.40257
 C2013 C 0.46280 -0.04156 0.39080
 C2014 C 0.45198 -0.05277 0.39471
 C2015 C 0.44913 -0.05623 0.41032
 C2016 C 0.45709 -0.04836 0.42208
 C2017 C 0.45389 -0.05186 0.43762
 C2018 C 0.44299 -0.06266 0.44139
 C2019 C 0.43530 -0.07043 0.42990
 C2020 C 0.43831 -0.06733 0.41451
 C2021 C 0.46590 -0.03795 0.37528
 C2022 C 0.47651 -0.02686 0.37150
 C2023 C 0.48425 -0.01914 0.38302
 C2024 C 0.48144 -0.02245 0.39840
 C2025 C 0.44371 -0.06058 0.38264
 C2026 C 0.43703 -0.06678 0.37230
 C2027 C 0.47551 -0.02869 0.43023
 C2028 C 0.48138 -0.02210 0.44080
 H2029 H 0.45955 -0.04613 0.44701
 H2030 H 0.44035 -0.06484 0.45330
 H2031 H 0.42685 -0.07882 0.43292
 H2032 H 0.43198 -0.07361 0.40595
 H2033 H 0.46017 -0.04363 0.36590
 H2034 H 0.47873 -0.02425 0.35957
 H2035 H 0.49248 -0.01055 0.38003
 H2036 H 0.48775 -0.01616 0.40696
 C2037 C 0.46404 0.46228 -0.08117
 C2038 C 0.46728 0.46476 -0.09687
 C2039 C 0.45903 0.45675 -0.10834
 C2040 C 0.44761 0.44630 -0.10402
 C2041 C 0.44442 0.44375 -0.08831
 C2042 C 0.45266 0.45177 -0.07684
 C2043 C 0.44924 0.44904 -0.06120
 C2044 C 0.43806 0.43866 -0.05704
 C2045 C 0.43003 0.43082 -0.06825
 C2046 C 0.43312 0.43329 -0.08373
 C2047 C 0.46247 0.45945 -0.12398
 C2048 C 0.47372 0.46975 -0.12816
 C2049 C 0.48177 0.47757 -0.11694
 C2050 C 0.47863 0.47516 -0.10145
 C2051 C 0.43915 0.43825 -0.11580
 C2052 C 0.43234 0.43180 -0.12589
 C2053 C 0.47234 0.47054 -0.06943
 C2054 C 0.47878 0.47707 -0.05915
 H2055 H 0.45517 0.45484 -0.05203
 H2056 H 0.43561 0.43670 -0.04503
 H2057 H 0.42136 0.42277 -0.06492
 H2058 H 0.42657 0.42692 -0.09204
 H2059 H 0.45652 0.45364 -0.13314
 H2060 H 0.47620 0.47166 -0.14018
 H2061 H 0.49050 0.48556 -0.12024
 H2062 H 0.48520 0.48151 -0.09314
 C2063 C 0.47172 0.78432 0.33460
 C2064 C 0.46736 0.79966 0.33373
 C2065 C 0.45960 0.80650 0.34623
 C2066 C 0.45644 0.79802 0.35961
 C2067 C 0.46098 0.78273 0.36057
 C2068 C 0.46864 0.77586 0.34802
 C2069 C 0.47296 0.76055 0.34919
 C2070 C 0.46983 0.75225 0.36240
 C2071 C 0.46235 0.75897 0.37468
 C2072 C 0.45795 0.77403 0.37384
 C2073 C 0.45507 0.82176 0.34496
 C2074 C 0.45825 0.83008 0.33178
 C2075 C 0.46599 0.82343 0.31965
 C2076 C 0.47044 0.80840 0.32049
 C2077 C 0.44862 0.80505 0.37242
 C2078 C 0.44220 0.81093 0.38307
 C2079 C 0.47848 0.77707 0.32132
 C2080 C 0.48356 0.77135 0.30987
 H2081 H 0.47883 0.75485 0.33994
 H2082 H 0.47322 0.74054 0.36311
 H2083 H 0.45994 0.75247 0.38491
 H2084 H 0.45214 0.77875 0.38368
 H2085 H 0.44905 0.82743 0.35412
 H2086 H 0.45476 0.84175 0.33100
 H2087 H 0.46862 0.82998 0.30956
 H2088 H 0.47638 0.80375 0.31069
 C2089 C -0.03436 0.78793 0.83012
 C2090 C -0.03071 0.78595 0.84582
 C2091 C -0.03877 0.79419 0.85720
 C2092 C -0.05042 0.80438 0.85280
 C2093 C -0.05396 0.80650 0.83708
 C2094 C -0.04594 0.79822 0.82570
 C2095 C -0.04975 0.80048 0.81006
 C2096 C -0.06107 0.81070 0.80580
 C2097 C -0.06887 0.81881 0.81692
 C2098 C -0.06543 0.81676 0.83241
 C2099 C -0.03493 0.79198 0.87285
 C2100 C -0.02347 0.78193 0.87712
 C2101 C -0.01558 0.77389 0.86598
 C2102 C -0.01912 0.77583 0.85049
 C2103 C -0.05886 0.81249 0.86449
 C2104 C -0.06576 0.81897 0.87445
 C2105 C -0.02631 0.77940 0.81846
 C2106 C -0.02011 0.77266 0.80821
 H2107 H -0.04401 0.79446 0.80095
 H2108 H -0.06379 0.81234 0.79379
 H2109 H -0.07764 0.82674 0.81352
 H2110 H -0.07181 0.82333 0.84065
 H2111 H -0.04072 0.79798 0.88194
 H2112 H -0.02068 0.78038 0.88914
 H2113 H -0.00669 0.76610 0.86936
 H2114 H -0.01267 0.76933 0.84224
 C2115 C 0.41559 0.77834 0.28161
 C2116 C 0.40227 0.78111 0.27283
 C2117 C 0.38983 0.78901 0.27949
 C2118 C 0.39080 0.79407 0.29489
 C2119 C 0.40407 0.79118 0.30371
 C2120 C 0.41646 0.78318 0.29709
 C2121 C 0.42954 0.78028 0.30620
 C2122 C 0.43033 0.78511 0.32140
 C2123 C 0.41832 0.79313 0.32781
 C2124 C 0.40531 0.79616 0.31912
 C2125 C 0.37668 0.79176 0.27045
 C2126 C 0.37585 0.78686 0.25526
 C2127 C 0.38802 0.77915 0.24876
 C2128 C 0.40112 0.77628 0.25739
 C2129 C 0.37808 0.80208 0.30173
 C2130 C 0.36749 0.80860 0.30750
 C2131 C 0.42883 0.77148 0.27449
 C2132 C 0.44033 0.76639 0.26899
 H2133 H 0.43922 0.77414 0.30174
 H2134 H 0.44026 0.78254 0.32828
 H2135 H 0.41906 0.79693 0.33960
 H2136 H 0.39623 0.80239 0.32462
 H2137 H 0.36694 0.79775 0.27500
 H2138 H 0.36571 0.78907 0.24851
 H2139 H 0.38732 0.77536 0.23695
 H2140 H 0.41028 0.77021 0.25184
 C2141 C -0.08173 0.78469 0.78484
 C2142 C -0.08946 0.79672 0.77751
 C2143 C -0.09995 0.80567 0.78593
 C2144 C -0.10271 0.80248 0.80162
 C2145 C -0.09455 0.79083 0.80910
 C2146 C -0.08406 0.78187 0.80068
 C2147 C -0.07574 0.77053 0.80850
 C2148 C -0.07761 0.76824 0.82422
 C2149 C -0.08787 0.77700 0.83244
 C2150 C -0.09635 0.78812 0.82501
 C2151 C -0.10733 0.81781 0.77843
 C2152 C -0.10440 0.82104 0.76306
 C2153 C -0.09416 0.81226 0.75481
 C2154 C -0.08675 0.80022 0.76189
 C2155 C -0.11412 0.81102 0.80994
 C2156 C -0.12393 0.81791 0.81661
 C2157 C -0.07029 0.77619 0.77651
 C2158 C -0.06004 0.76975 0.77009
 H2159 H -0.06758 0.76347 0.80261
 H2160 H -0.07103 0.75964 0.83005
 H2161 H -0.08925 0.77520 0.84466
 H2162 H -0.10411 0.79473 0.83192
 H2163 H -0.11533 0.82500 0.78439
 H2164 H -0.11007 0.83042 0.75753
 H2165 H -0.09191 0.81483 0.74288
 H2166 H -0.07885 0.79376 0.75501
 C2167 C 0.83505 0.28343 0.47153
 C2168 C 0.84545 0.27548 0.46214
 C2169 C 0.85694 0.28346 0.45400
 C2170 C 0.85791 0.29934 0.45526
 C2171 C 0.84747 0.30730 0.46462
 C2172 C 0.83611 0.29930 0.47290
 C2173 C 0.82588 0.30749 0.48229
 C2174 C 0.82670 0.32314 0.48326
 C2175 C 0.83769 0.33097 0.47500
 C2176 C 0.84803 0.32319 0.46582
 C2177 C 0.86718 0.27527 0.44464
 C2178 C 0.86609 0.25966 0.44334
 C2179 C 0.85485 0.25187 0.45129
 C2180 C 0.84461 0.25963 0.46060
 C2181 C 0.86980 0.30743 0.44712
 C2182 C 0.87987 0.31394 0.44046
 C2183 C 0.82253 0.27550 0.47882
 C2184 C 0.81145 0.26960 0.48433
 H2185 H 0.81706 0.30193 0.48886
 H2186 H 0.81868 0.32924 0.49036
 H2187 H 0.83820 0.34314 0.47570
 H2188 H 0.85638 0.32978 0.45961
 H2189 H 0.87610 0.28082 0.43819
 H2190 H 0.87401 0.25357 0.43612
 H2191 H 0.85405 0.23974 0.45025
 H2192 H 0.83609 0.25308 0.46660
 C2193 C 0.83196 0.78392 -0.03653
 C2194 C 0.83910 0.77780 -0.04970
 C2195 C 0.84961 0.78667 -0.05821
 C2196 C 0.85296 0.80156 -0.05347
 C2197 C 0.84531 0.80791 -0.04072
 C2198 C 0.83482 0.79904 -0.03218
 C2199 C 0.82704 0.80574 -0.01970
 C2200 C 0.82940 0.82082 -0.01590
 C2201 C 0.83965 0.82948 -0.02426
 C2202 C 0.84762 0.82313 -0.03648
 C2203 C 0.85639 0.78041 -0.07149
 C2204 C 0.85284 0.76584 -0.07626
 C2205 C 0.84259 0.75716 -0.06792
 C2206 C 0.83577 0.76301 -0.05477
 C2207 C 0.86449 0.81023 -0.06151
 C2208 C 0.87439 0.81718 -0.06797
 C2209 C 0.82057 0.77521 -0.02836
 C2210 C 0.81034 0.76866 -0.02201
 H2211 H 0.81890 0.79950 -0.01289
 H2212 H 0.82321 0.82581 -0.00644
 H2213 H 0.84141 0.84120 -0.02129
 H2214 H 0.85539 0.83035 -0.04271
 H2215 H 0.86437 0.78675 -0.07841
 H2216 H 0.85805 0.76126 -0.08651
 H2217 H 0.83986 0.74585 -0.07168
 H2218 H 0.82784 0.75584 -0.04868
 C2219 C -0.08162 -0.03494 -0.03580
 C2220 C -0.08929 -0.04691 -0.02836
 C2221 C -0.10009 -0.05573 -0.03661
 C2222 C -0.10319 -0.05248 -0.05223
 C2223 C -0.09504 -0.04092 -0.05985
 C2224 C -0.08425 -0.03209 -0.05160
 C2225 C -0.07599 -0.02083 -0.05955
 C2226 C -0.07818 -0.01851 -0.07523
 C2227 C -0.08872 -0.02716 -0.08329
 C2228 C -0.09716 -0.03819 -0.07573
 C2229 C -0.10744 -0.06780 -0.02900
 C2230 C -0.10419 -0.07108 -0.01368
 C2231 C -0.09366 -0.06243 -0.00560
 C2232 C -0.08627 -0.05047 -0.01280
 C2233 C -0.11501 -0.06076 -0.06031
 C2234 C -0.12517 -0.06743 -0.06673
 C2235 C -0.07000 -0.02647 -0.02762
 C2236 C -0.05965 -0.02003 -0.02129
 H2237 H -0.06761 -0.01386 -0.05380
 H2238 H -0.07163 -0.00997 -0.08117
 H2239 H -0.09035 -0.02534 -0.09548
 H2240 H -0.10515 -0.04471 -0.08251
 H2241 H -0.11566 -0.07490 -0.03482
 H2242 H -0.10985 -0.08041 -0.00806
 H2243 H -0.09117 -0.06504 0.00629
 H2244 H -0.07813 -0.04410 -0.00604
 C2245 C -0.08204 0.46776 0.46692
 C2246 C -0.09256 0.45888 0.47527
 C2247 C -0.10381 0.45036 0.46732
 C2248 C -0.10445 0.45073 0.45107
 C2249 C -0.09389 0.45956 0.44271
 C2250 C -0.08273 0.46820 0.45066
 C2251 C -0.07233 0.47699 0.44205
 C2252 C -0.07281 0.47709 0.42605
 C2253 C -0.08363 0.46852 0.41828
 C2254 C -0.09411 0.45987 0.42645
 C2255 C -0.11418 0.44152 0.47592
 C2256 C -0.11342 0.44111 0.49191
 C2257 C -0.10241 0.44944 0.49967
 C2258 C -0.09206 0.45825 0.49151
 C2259 C -0.11616 0.44226 0.44300
 C2260 C -0.12612 0.43539 0.43647
 C2261 C -0.06977 0.47550 0.47490
 C2262 C -0.05886 0.48133 0.48090
 H2263 H -0.06364 0.48378 0.44757
 H2264 H -0.06466 0.48374 0.41965
 H2265 H -0.08387 0.46853 0.40585
 H2266 H -0.10229 0.45337 0.41989
 H2267 H -0.12293 0.43481 0.47040
 H2268 H -0.12143 0.43428 0.49830
 H2269 H -0.10187 0.44908 0.51209
 H2270 H -0.08372 0.46456 0.49805
 C2271 C 0.41853 -0.03433 0.46478
 C2272 C 0.40835 -0.04375 0.47294
 C2273 C 0.39740 -0.05250 0.46482
 C2274 C 0.39661 -0.05168 0.44859
 C2275 C 0.40687 -0.04236 0.44041
 C2276 C 0.41781 -0.03359 0.44854
 C2277 C 0.42790 -0.02429 0.44011
 C2278 C 0.42731 -0.02380 0.42412
 C2279 C 0.41671 -0.03248 0.41618
 C2280 C 0.40654 -0.04164 0.42417
 C2281 C 0.38742 -0.06193 0.47322
 C2282 C 0.38814 -0.06258 0.48920
 C2283 C 0.39875 -0.05391 0.49715
 C2284 C 0.40882 -0.04464 0.48916
 C2285 C 0.38481 -0.05994 0.44040
 C2286 C 0.37468 -0.06655 0.43387
 C2287 C 0.43034 -0.02612 0.47297
 C2288 C 0.44079 -0.01982 0.47930
 H2289 H 0.43643 -0.01741 0.44576
 H2290 H 0.43522 -0.01675 0.41785
 H2291 H 0.41639 -0.03216 0.40375
 H2292 H 0.39853 -0.04823 0.41749
 H2293 H 0.37897 -0.06890 0.46756
 H2294 H 0.38042 -0.06985 0.49545
 H2295 H 0.39927 -0.05446 0.50956
 H2296 H 0.41692 -0.03816 0.49585
 C2297 C 0.41798 0.46469 -0.03571
 C2298 C 0.41028 0.45270 -0.02832
 C2299 C 0.39936 0.44402 -0.03656
 C2300 C 0.39618 0.44741 -0.05213
 C2301 C 0.40441 0.45891 -0.05974
 C2302 C 0.41532 0.46761 -0.05150
 C2303 C 0.42366 0.47882 -0.05943
 C2304 C 0.42145 0.48121 -0.07510
 C2305 C 0.41080 0.47269 -0.08315
 C2306 C 0.40227 0.46172 -0.07560
 C2307 C 0.39197 0.43195 -0.02899
 C2308 C 0.39532 0.42852 -0.01373
 C2309 C 0.40597 0.43703 -0.00566
 C2310 C 0.41339 0.44900 -0.01281
 C2311 C 0.38417 0.43933 -0.06018
 C2312 C 0.37386 0.43288 -0.06660
 C2313 C 0.42962 0.47311 -0.02751
 C2314 C 0.43997 0.47954 -0.02114
 H2315 H 0.43214 0.48569 -0.05369
 H2316 H 0.42808 0.48969 -0.08103
 H2317 H 0.40915 0.47456 -0.09533
 H2318 H 0.39419 0.45530 -0.08237
 H2319 H 0.38366 0.42495 -0.03482
 H2320 H 0.38965 0.41918 -0.00815
 H2321 H 0.40854 0.43430 0.00618
 H2322 H 0.42163 0.45526 -0.00606
 C2323 C 0.33273 0.46665 0.77996
 C2324 C 0.34321 0.47406 0.78977
 C2325 C 0.35378 0.46549 0.79859
 C2326 C 0.35391 0.44958 0.79739
 C2327 C 0.34354 0.44218 0.78744
 C2328 C 0.33298 0.45074 0.77863
 C2329 C 0.32275 0.44309 0.76871
 C2330 C 0.32290 0.42743 0.76761
 C2331 C 0.33314 0.41905 0.77632
 C2332 C 0.34339 0.42628 0.78612
 C2333 C 0.36399 0.47315 0.80851
 C2334 C 0.36386 0.48881 0.80958
 C2335 C 0.35363 0.49718 0.80083
 C2336 C 0.34338 0.48995 0.79104
 C2337 C 0.36505 0.44090 0.80602
 C2338 C 0.37458 0.43388 0.81300
 C2339 C 0.32084 0.47519 0.77227
 C2340 C 0.31015 0.48163 0.76652
 H2341 H 0.31452 0.44910 0.76175
 H2342 H 0.31492 0.42175 0.76005
 H2343 H 0.33311 0.40688 0.77554
 H2344 H 0.35112 0.41928 0.79270
 H2345 H 0.37216 0.46713 0.81554
 H2346 H 0.37174 0.49448 0.81723
 H2347 H 0.35358 0.50935 0.80169
 H2348 H 0.33561 0.49693 0.78449
 C2349 C 0.33055 -0.03480 0.28491
 C2350 C 0.33798 -0.02827 0.29774
 C2351 C 0.34897 -0.03673 0.30612
 C2352 C 0.35247 -0.05165 0.30159
 C2353 C 0.34446 -0.05844 0.28927
 C2354 C 0.33353 -0.04997 0.28084
 C2355 C 0.32553 -0.05705 0.26867
 C2356 C 0.32809 -0.07215 0.26510
 C2357 C 0.33875 -0.08044 0.27338
 C2358 C 0.34695 -0.07370 0.28527
 C2359 C 0.35619 -0.03002 0.31897
 C2360 C 0.35263 -0.01536 0.32343
 C2361 C 0.34192 -0.00707 0.31520
 C2362 C 0.33463 -0.01340 0.30251
 C2363 C 0.36476 -0.05974 0.30915
 C2364 C 0.37535 -0.06617 0.31509
 C2365 C 0.31905 -0.02633 0.27659
 C2366 C 0.30884 -0.01983 0.27010
 H2367 H 0.31706 -0.05110 0.26194
 H2368 H 0.32172 -0.07744 0.25590
 H2369 H 0.34066 -0.09217 0.27060
 H2370 H 0.35506 -0.08063 0.29145
 H2371 H 0.36454 -0.03605 0.32577
 H2372 H 0.35820 -0.01041 0.33333
 H2373 H 0.33920 0.00431 0.31871
 H2374 H 0.32633 -0.00653 0.29652
 C2375 C 0.16965 0.53830 0.71502
 C2376 C 0.16700 0.53522 0.69926
 C2377 C 0.15622 0.54393 0.69088
 C2378 C 0.14807 0.55558 0.69833
 C2379 C 0.15132 0.55918 0.71384
 C2380 C 0.16213 0.55050 0.72222
 C2381 C 0.16534 0.55443 0.73765
 C2382 C 0.15811 0.56663 0.74459
 C2383 C 0.14754 0.57512 0.73639
 C2384 C 0.14410 0.57146 0.72121
 C2385 C 0.15410 0.54097 0.67505
 C2386 C 0.16252 0.52983 0.66765
 C2387 C 0.17304 0.52128 0.67585
 C2388 C 0.17523 0.52383 0.69149
 C2389 C 0.13605 0.56354 0.69020
 C2390 C 0.12570 0.56985 0.68370
 C2391 C 0.18110 0.52977 0.72338
 C2392 C 0.19129 0.52313 0.72976
 H2393 H 0.17351 0.54820 0.74448
 H2394 H 0.16075 0.56953 0.75637
 H2395 H 0.14201 0.58463 0.74182
 H2396 H 0.13587 0.57846 0.71527
 H2397 H 0.14612 0.54741 0.66817
 H2398 H 0.16090 0.52784 0.65549
 H2399 H 0.17959 0.51267 0.67004
 H2400 H 0.18361 0.51694 0.69734
 C2401 C 0.16547 0.03058 0.21736
 C2402 C 0.16502 0.03144 0.20111
 C2403 C 0.15320 0.03965 0.19369
 C2404 C 0.14181 0.04684 0.20256
 C2405 C 0.14227 0.04599 0.21880
 C2406 C 0.15409 0.03777 0.22621
 C2407 C 0.15434 0.03710 0.24246
 C2408 C 0.14324 0.04440 0.25113
 C2409 C 0.13170 0.05248 0.24389
 C2410 C 0.13116 0.05329 0.22791
 C2411 C 0.15308 0.04048 0.17745
 C2412 C 0.16426 0.03330 0.16878
 C2413 C 0.17574 0.02514 0.17602
 C2414 C 0.17622 0.02424 0.19199
 C2415 C 0.12941 0.05477 0.19500
 C2416 C 0.11890 0.06117 0.18887
 C2417 C 0.17819 0.02314 0.22490
 C2418 C 0.18936 0.01756 0.23063
 H2419 H 0.16309 0.03096 0.24861
 H2420 H 0.14361 0.04380 0.26355
 H2421 H 0.12313 0.05816 0.25068
 H2422 H 0.12198 0.05974 0.22281
 H2423 H 0.14438 0.04670 0.17130
 H2424 H 0.16403 0.03408 0.15637
 H2425 H 0.18441 0.01960 0.16923
 H2426 H 0.18544 0.01785 0.19709
 C2427 C 0.58866 0.72364 0.22228
 C2428 C 0.59028 0.70776 0.22232
 C2429 C 0.60353 0.70104 0.21591
 C2430 C 0.61517 0.71026 0.20969
 C2431 C 0.61362 0.72614 0.20981
 C2432 C 0.60031 0.73285 0.21611
 C2433 C 0.59897 0.74874 0.21603
 C2434 C 0.61047 0.75775 0.20991
 C2435 C 0.62350 0.75119 0.20377
 C2436 C 0.62511 0.73558 0.20368
 C2437 C 0.60479 0.68514 0.21586
 C2438 C 0.59335 0.67613 0.22210
 C2439 C 0.58049 0.68270 0.22855
 C2440 C 0.57887 0.69831 0.22863
 C2441 C 0.62871 0.70339 0.20317
 C2442 C 0.63993 0.69764 0.19777
 C2443 C 0.57473 0.73037 0.22807
 C2444 C 0.56274 0.73525 0.23260
 H2445 H 0.58906 0.75435 0.22071
 H2446 H 0.60927 0.76989 0.20995
 H2447 H 0.63240 0.75825 0.19903
 H2448 H 0.63544 0.73100 0.19876
 H2449 H 0.61461 0.67950 0.21103
 H2450 H 0.59448 0.66399 0.22194
 H2451 H 0.57165 0.67565 0.23340
 H2452 H 0.56860 0.70287 0.23368
 C2453 C 0.08187 0.71817 0.71659
 C2454 C 0.07792 0.70726 0.70537
 C2455 C 0.08956 0.69913 0.69763
 C2456 C 0.10507 0.70195 0.70117
 C2457 C 0.10901 0.71282 0.71242
 C2458 C 0.09736 0.72096 0.72015
 C2459 C 0.10155 0.73174 0.73136
 C2460 C 0.11684 0.73443 0.73484
 C2461 C 0.12824 0.72649 0.72729
 C2462 C 0.12444 0.71580 0.71620
 C2463 C 0.08534 0.68820 0.68656
 C2464 C 0.07004 0.68524 0.68335
 C2465 C 0.05867 0.69310 0.69100
 C2466 C 0.06247 0.70408 0.70177
 C2467 C 0.11698 0.69368 0.69327
 C2468 C 0.12701 0.68695 0.68678
 C2469 C 0.06987 0.72629 0.72451
 C2470 C 0.05912 0.73233 0.73051
 H2471 H 0.09308 0.73819 0.73754
 H2472 H 0.11986 0.74272 0.74345
 H2473 H 0.14010 0.72862 0.73004
 H2474 H 0.13371 0.70991 0.71064
 H2475 H 0.09379 0.68172 0.68039
 H2476 H 0.06699 0.67672 0.67499
 H2477 H 0.04683 0.69056 0.68872
 H2478 H 0.05317 0.70985 0.70740
 C2479 C 0.66726 0.21979 0.53478
 C2480 C 0.66632 0.21935 0.55101
 C2481 C 0.65455 0.21092 0.55821
 C2482 C 0.64369 0.20313 0.54914
 C2483 C 0.64459 0.20363 0.53290
 C2484 C 0.65635 0.21208 0.52571
 C2485 C 0.65694 0.21254 0.50947
 C2486 C 0.64630 0.20473 0.50058
 C2487 C 0.63489 0.19635 0.50762
 C2488 C 0.63398 0.19579 0.52359
 C2489 C 0.65396 0.21049 0.57445
 C2490 C 0.66459 0.21830 0.58333
 C2491 C 0.67598 0.22670 0.57629
 C2492 C 0.67693 0.22721 0.56032
 C2493 C 0.63125 0.19507 0.55644
 C2494 C 0.62067 0.18861 0.56234
 C2495 C 0.67997 0.22740 0.52747
 C2496 C 0.69101 0.23317 0.52174
 H2497 H 0.66562 0.21888 0.50347
 H2498 H 0.64695 0.20516 0.48818
 H2499 H 0.62669 0.19028 0.50067
 H2500 H 0.62489 0.18911 0.52852
 H2501 H 0.64531 0.20410 0.58045
 H2502 H 0.66401 0.21781 0.59574
 H2503 H 0.68423 0.23273 0.58324
 H2504 H 0.68606 0.23382 0.55539
 C2505 C 0.66642 0.72010 0.03088
 C2506 C 0.66678 0.71688 0.04683
 C2507 C 0.65450 0.70892 0.05373
 C2508 C 0.64185 0.70440 0.04469
 C2509 C 0.64148 0.70765 0.02876
 C2510 C 0.65381 0.71551 0.02184
 C2511 C 0.65323 0.71856 0.00589
 C2512 C 0.64080 0.71398 -0.00297
 C2513 C 0.62874 0.70630 0.00379
 C2514 C 0.62901 0.70314 0.01947
 C2515 C 0.65523 0.70563 0.06962
 C2516 C 0.66764 0.71023 0.07850
 C2517 C 0.67954 0.71818 0.07179
 C2518 C 0.67924 0.72140 0.05613
 C2519 C 0.62908 0.69667 0.05180
 C2520 C 0.61835 0.69040 0.05763
 C2521 C 0.67946 0.72730 0.02371
 C2522 C 0.69082 0.73265 0.01819
 H2523 H 0.66233 0.72452 0.00013
 H2524 H 0.64054 0.71640 -0.01516
 H2525 H 0.61912 0.70276 -0.00315
 H2526 H 0.61937 0.69711 0.02419
 H2527 H 0.64622 0.69950 0.07536
 H2528 H 0.66801 0.70765 0.09065
 H2529 H 0.68907 0.72188 0.07877
 H2530 H 0.68883 0.72754 0.05145
 C2531 C 0.08490 0.03083 0.02833
 C2532 C 0.08588 0.04676 0.02773
 C2533 C 0.09802 0.05431 0.03537
 C2534 C 0.10926 0.04588 0.04331
 C2535 C 0.10838 0.02995 0.04372
 C2536 C 0.09614 0.02241 0.03624
 C2537 C 0.09543 0.00649 0.03690
 C2538 C 0.10652 -0.00175 0.04474
 C2539 C 0.11850 0.00562 0.05205
 C2540 C 0.11948 0.02128 0.05159
 C2541 C 0.09856 0.07025 0.03493
 C2542 C 0.08751 0.07848 0.02703
 C2543 C 0.07577 0.07109 0.01936
 C2544 C 0.07489 0.05542 0.01969
 C2545 C 0.12181 0.05355 0.05089
 C2546 C 0.13236 0.05979 0.05713
 C2547 C 0.07180 0.02328 0.02162
 C2548 C 0.06036 0.01763 0.01652
 H2549 H 0.08634 0.00026 0.03136
 H2550 H 0.10581 -0.01392 0.04513
 H2551 H 0.12709 -0.00084 0.05813
 H2552 H 0.12901 0.02650 0.05748
 H2553 H 0.10750 0.07650 0.04069
 H2554 H 0.08806 0.09067 0.02686
 H2555 H 0.06721 0.07754 0.01324
 H2556 H 0.06547 0.05020 0.01364
 C2557 C 0.08114 0.53648 0.53471
 C2558 C 0.08349 0.55176 0.53066
 C2559 C 0.09367 0.56081 0.53943
 C2560 C 0.10150 0.55449 0.55213
 C2561 C 0.09867 0.53940 0.55655
 C2562 C 0.08848 0.53035 0.54779
 C2563 C 0.08571 0.51535 0.55253
 C2564 C 0.09276 0.50947 0.56558
 C2565 C 0.10269 0.51833 0.57417
 C2566 C 0.10569 0.53312 0.56974
 C2567 C 0.09548 0.57617 0.53548
 C2568 C 0.08732 0.58247 0.52332
 C2569 C 0.07737 0.57363 0.51472
 C2570 C 0.07550 0.55843 0.51823
 C2571 C 0.11273 0.56337 0.56042
 C2572 C 0.12242 0.57045 0.56712
 C2573 C 0.07004 0.52754 0.52631
 C2574 C 0.06004 0.52069 0.51986
 H2575 H 0.07803 0.50803 0.54626
 H2576 H 0.09046 0.49799 0.56908
 H2577 H 0.10808 0.51372 0.58434
 H2578 H 0.11345 0.53959 0.57683
 H2579 H 0.10299 0.58353 0.54191
 H2580 H 0.08869 0.59429 0.52057
 H2581 H 0.07103 0.57859 0.50531
 H2582 H 0.06758 0.55204 0.51125
 C2583 C 0.58517 0.03135 0.52936
 C2584 C 0.59658 0.02293 0.53703
 C2585 C 0.60898 0.03048 0.54425
 C2586 C 0.60985 0.04641 0.54378
 C2587 C 0.59845 0.05483 0.53608
 C2588 C 0.58615 0.04727 0.52872
 C2589 C 0.57500 0.05592 0.52090
 C2590 C 0.57588 0.07160 0.52052
 C2591 C 0.58778 0.07899 0.52793
 C2592 C 0.59899 0.07076 0.53560
 C2593 C 0.62025 0.02181 0.55188
 C2594 C 0.61928 0.00615 0.55238
 C2595 C 0.60714 -0.00122 0.54534
 C2596 C 0.59588 0.00701 0.53774
 C2597 C 0.62255 0.05408 0.55111
 C2598 C 0.63320 0.06031 0.55716
 C2599 C 0.57198 0.02378 0.52285
 C2600 C 0.56049 0.01816 0.51785
 H2601 H 0.56545 0.05070 0.51505
 H2602 H 0.56720 0.07804 0.51456
 H2603 H 0.58833 0.09118 0.52772
 H2604 H 0.60805 0.07702 0.54116
 H2605 H 0.62990 0.02704 0.55755
 H2606 H 0.62799 -0.00030 0.55827
 H2607 H 0.60644 -0.01339 0.54576
 H2608 H 0.58667 0.00078 0.53240
 C2609 C 0.58578 0.52844 0.02758
 C2610 C 0.58722 0.54434 0.02745
 C2611 C 0.60006 0.55129 0.03450
 C2612 C 0.61150 0.54230 0.04144
 C2613 C 0.61014 0.52640 0.04143
 C2614 C 0.59723 0.51945 0.03450
 C2615 C 0.59607 0.50355 0.03470
 C2616 C 0.60736 0.49475 0.04155
 C2617 C 0.61999 0.50153 0.04831
 C2618 C 0.62143 0.51717 0.04829
 C2619 C 0.60110 0.56721 0.03448
 C2620 C 0.58985 0.57601 0.02755
 C2621 C 0.57741 0.56921 0.02047
 C2622 C 0.57602 0.55357 0.02042
 C2623 C 0.62472 0.54938 0.04847
 C2624 C 0.63575 0.55525 0.05422
 C2625 C 0.57216 0.52146 0.02128
 C2626 C 0.56039 0.51623 0.01645
 H2627 H 0.58646 0.49776 0.02956
 H2628 H 0.60630 0.48260 0.04160
 H2629 H 0.62873 0.49465 0.05362
 H2630 H 0.63146 0.52192 0.05372
 H2631 H 0.61059 0.57302 0.03980
 H2632 H 0.59081 0.58817 0.02767
 H2633 H 0.56871 0.57609 0.01509
 H2634 H 0.56606 0.54882 0.01486
 C2635 C 0.02855 0.03329 0.08426
 C2636 C 0.02884 0.04925 0.08466
 C2637 C 0.03678 0.05682 0.09665
 C2638 C 0.04418 0.04839 0.10829
 C2639 C 0.04372 0.03243 0.10799
 C2640 C 0.03590 0.02487 0.09593
 C2641 C 0.03569 0.00893 0.09581
 C2642 C 0.04298 0.00068 0.10730
 C2643 C 0.05062 0.00807 0.11911
 C2644 C 0.05102 0.02376 0.11951
 C2645 C 0.03717 0.07276 0.09663
 C2646 C 0.02982 0.08100 0.08518
 C2647 C 0.02189 0.07361 0.07356
 C2648 C 0.02139 0.05792 0.07323
 C2649 C 0.05213 0.05607 0.12066
 C2650 C 0.05867 0.06226 0.13111
 C2651 C 0.02155 0.02562 0.07131
 C2652 C 0.01630 0.01975 0.05999
 H2653 H 0.02986 0.00268 0.08688
 H2654 H 0.04270 -0.01151 0.10704
 H2655 H 0.05627 0.00162 0.12801
 H2656 H 0.05714 0.02899 0.12893
 H2657 H 0.04318 0.07901 0.10544
 H2658 H 0.03029 0.09319 0.08530
 H2659 H 0.01621 0.08006 0.06467
 H2660 H 0.01516 0.05270 0.06390
 C2661 C 0.03507 0.53700 0.58017
 C2662 C 0.03155 0.55238 0.58262
 C2663 C 0.04001 0.56088 0.59356
 C2664 C 0.05187 0.55392 0.60204
 C2665 C 0.05581 0.53872 0.59912
 C2666 C 0.04737 0.53023 0.58817
 C2667 C 0.05162 0.51510 0.58534
 C2668 C 0.06388 0.50856 0.59308
 C2669 C 0.07215 0.51687 0.60376
 C2670 C 0.06819 0.53177 0.60682
 C2671 C 0.03661 0.57635 0.59548
 C2672 C 0.02527 0.58327 0.58672
 C2673 C 0.01698 0.57497 0.57604
 C2674 C 0.01997 0.55968 0.57404
 C2675 C 0.05975 0.56223 0.61404
 C2676 C 0.06609 0.56883 0.62434
 C2677 C 0.02696 0.52855 0.56844
 C2678 C 0.02078 0.52195 0.55805
 H2679 H 0.04556 0.50819 0.57710
 H2680 H 0.06701 0.49699 0.59073
 H2681 H 0.08171 0.51176 0.60968
 H2682 H 0.07502 0.53781 0.61517
 H2683 H 0.04283 0.58329 0.60357
 H2684 H 0.02294 0.59516 0.58821
 H2685 H 0.00822 0.58041 0.56924
 H2686 H 0.01326 0.55372 0.56553
 C2687 C 0.52704 0.03385 0.58581
 C2688 C 0.53345 0.02507 0.59777
 C2689 C 0.54104 0.03225 0.61023
 C2690 C 0.54222 0.04816 0.61062
 C2691 C 0.53571 0.05695 0.59871
 C2692 C 0.52799 0.04978 0.58634
 C2693 C 0.52142 0.05880 0.57465
 C2694 C 0.52256 0.07446 0.57512
 C2695 C 0.53030 0.08146 0.58711
 C2696 C 0.53679 0.07286 0.59882
 C2697 C 0.54740 0.02323 0.62203
 C2698 C 0.54629 0.00757 0.62154
 C2699 C 0.53887 0.00056 0.60935
 C2700 C 0.53250 0.00916 0.59757
 C2701 C 0.55009 0.05544 0.62330
 C2702 C 0.55661 0.06127 0.63397
 C2703 C 0.52036 0.02652 0.57250
 C2704 C 0.51542 0.02082 0.56095
 H2705 H 0.51538 0.05388 0.56502
 H2706 H 0.51754 0.08118 0.56605
 H2707 H 0.53127 0.09361 0.58734
 H2708 H 0.54266 0.07882 0.60793
 H2709 H 0.55330 0.02815 0.63175
 H2710 H 0.55122 0.00085 0.63066
 H2711 H 0.53804 -0.01160 0.60902
 H2712 H 0.52681 0.00320 0.58835
 C2713 C 0.52702 0.53148 0.08562
 C2714 C 0.52826 0.54739 0.08610
 C2715 C 0.53569 0.55447 0.09872
 C2716 C 0.54164 0.54562 0.11086
 C2717 C 0.54014 0.52973 0.11050
 C2718 C 0.53283 0.52264 0.09783
 C2719 C 0.53156 0.50675 0.09766
 C2720 C 0.53735 0.49809 0.10969
 C2721 C 0.54450 0.50501 0.12209
 C2722 C 0.54592 0.52064 0.12256
 C2723 C 0.53704 0.57037 0.09882
 C2724 C 0.53109 0.57903 0.08687
 C2725 C 0.52366 0.57213 0.07464
 C2726 C 0.52228 0.55649 0.07416
 C2727 C 0.54934 0.55280 0.12371
 C2728 C 0.55578 0.55857 0.13446
 C2729 C 0.52051 0.52424 0.07216
 C2730 C 0.51562 0.51869 0.06051
 H2731 H 0.52606 0.50086 0.08828
 H2732 H 0.53627 0.48594 0.10939
 H2733 H 0.54898 0.49823 0.13141
 H2734 H 0.55158 0.52550 0.13244
 H2735 H 0.54269 0.57625 0.10812
 H2736 H 0.53226 0.59117 0.08711
 H2737 H 0.51905 0.57891 0.06539
 H2738 H 0.51649 0.55165 0.06434
 C2739 C 0.21423 0.53988 0.66966
 C2740 C 0.20346 0.55083 0.67440
 C2741 C 0.19517 0.55920 0.66324
 C2742 C 0.19771 0.55659 0.64742
 C2743 C 0.20852 0.54569 0.64269
 C2744 C 0.21680 0.53731 0.65385
 C2745 C 0.22753 0.52646 0.64885
 C2746 C 0.23000 0.52396 0.63326
 C2747 C 0.22191 0.53215 0.62234
 C2748 C 0.21128 0.54290 0.62693
 C2749 C 0.18444 0.57005 0.66823
 C2750 C 0.18195 0.57255 0.68382
 C2751 C 0.19004 0.56437 0.69473
 C2752 C 0.20069 0.55363 0.69016
 C2753 C 0.18915 0.56497 0.63596
 C2754 C 0.18219 0.57166 0.62614
 C2755 C 0.22256 0.53124 0.68110
 C2756 C 0.22905 0.52443 0.69116
 H2757 H 0.23409 0.51981 0.65692
 H2758 H 0.23825 0.51561 0.62963
 H2759 H 0.22388 0.53016 0.61023
 H2760 H 0.20528 0.54897 0.61799
 H2761 H 0.17787 0.57669 0.66017
 H2762 H 0.17369 0.58088 0.68746
 H2763 H 0.18805 0.56635 0.70682
 H2764 H 0.20670 0.54758 0.69911
 C2765 C 0.22009 0.03283 0.16407
 C2766 C 0.20925 0.04434 0.16690
 C2767 C 0.20155 0.05133 0.15441
 C2768 C 0.20485 0.04689 0.13916
 C2769 C 0.21573 0.03542 0.13633
 C2770 C 0.22336 0.02836 0.14884
 C2771 C 0.23415 0.01691 0.14575
 C2772 C 0.23733 0.01255 0.13072
 C2773 C 0.22988 0.01946 0.11848
 C2774 C 0.21919 0.03077 0.12119
 C2775 C 0.19061 0.06265 0.15752
 C2776 C 0.18734 0.06693 0.17256
 C2777 C 0.19489 0.06012 0.18477
 C2778 C 0.20577 0.04900 0.18205
 C2779 C 0.19714 0.05415 0.12637
 C2780 C 0.19084 0.06015 0.11568
 C2781 C 0.22757 0.02547 0.17692
 C2782 C 0.23312 0.01979 0.18819
 H2783 H 0.24023 0.01123 0.15490
 H2784 H 0.24562 0.00378 0.12856
 H2785 H 0.23239 0.01603 0.10683
 H2786 H 0.21369 0.03579 0.11130
 H2787 H 0.18442 0.06826 0.14840
 H2788 H 0.17888 0.07553 0.17476
 H2789 H 0.19224 0.06339 0.19641
 H2790 H 0.21128 0.04403 0.19197
 C2791 C 0.71872 0.21773 0.58562
 C2792 C 0.72207 0.22220 0.60085
 C2793 C 0.71470 0.21495 0.61336
 C2794 C 0.70401 0.20329 0.61054
 C2795 C 0.70060 0.19887 0.59528
 C2796 C 0.70805 0.20605 0.58278
 C2797 C 0.70445 0.20144 0.56762
 C2798 C 0.69364 0.19024 0.56490
 C2799 C 0.68634 0.18324 0.57712
 C2800 C 0.68978 0.18742 0.59217
 C2801 C 0.71825 0.21961 0.62851
 C2802 C 0.72875 0.23110 0.63121
 C2803 C 0.73594 0.23819 0.61898
 C2804 C 0.73268 0.23384 0.60394
 C2805 C 0.69659 0.19586 0.62336
 C2806 C 0.69062 0.18983 0.63420
 C2807 C 0.72604 0.22525 0.57280
 C2808 C 0.73171 0.23115 0.56174
 H2809 H 0.70977 0.20656 0.55771
 H2810 H 0.69080 0.18707 0.55326
 H2811 H 0.67794 0.17456 0.57492
 H2812 H 0.68378 0.18168 0.60130
 H2813 H 0.71295 0.21444 0.63841
 H2814 H 0.73132 0.23452 0.64287
 H2815 H 0.74409 0.24712 0.62114
 H2816 H 0.73856 0.23968 0.59480
 C2817 C 0.72590 0.71863 0.08656
 C2818 C 0.71663 0.70558 0.08564
 C2819 C 0.70974 0.69969 0.09913
 C2820 C 0.71238 0.70674 0.11348
 C2821 C 0.72182 0.71966 0.11442
 C2822 C 0.72858 0.72564 0.10091
 C2823 C 0.73790 0.73861 0.10211
 C2824 C 0.74050 0.74547 0.11627
 C2825 C 0.73391 0.73962 0.12949
 C2826 C 0.72466 0.72687 0.12865
 C2827 C 0.70025 0.68683 0.09788
 C2828 C 0.69771 0.67993 0.08373
 C2829 C 0.70455 0.68560 0.07057
 C2830 C 0.71390 0.69827 0.07143
 C2831 C 0.70542 0.70068 0.12726
 C2832 C 0.69965 0.69557 0.13868
 C2833 C 0.73216 0.72507 0.07262
 C2834 C 0.73675 0.73013 0.06066
 H2835 H 0.74330 0.74355 0.09214
 H2836 H 0.74767 0.75538 0.11699
 H2837 H 0.73596 0.74499 0.14047
 H2838 H 0.71978 0.72275 0.13925
 H2839 H 0.69469 0.68199 0.10780
 H2840 H 0.69042 0.67011 0.08297
 H2841 H 0.70260 0.68016 0.05964
 H2842 H 0.71891 0.70227 0.06084
 C2843 C 0.52890 0.71636 0.16434
 C2844 C 0.53014 0.70045 0.16395
 C2845 C 0.53768 0.69331 0.15148
 C2846 C 0.54377 0.70211 0.13939
 C2847 C 0.54230 0.71800 0.13967
 C2848 C 0.53486 0.72515 0.15219
 C2849 C 0.53362 0.74104 0.15226
 C2850 C 0.53956 0.74965 0.14030
 C2851 C 0.54683 0.74267 0.12805
 C2852 C 0.54822 0.72703 0.12768
 C2853 C 0.53899 0.67741 0.15147
 C2854 C 0.53291 0.66880 0.16336
 C2855 C 0.52541 0.67577 0.17546
 C2856 C 0.52405 0.69141 0.17585
 C2857 C 0.55148 0.69486 0.12664
 C2858 C 0.55785 0.68899 0.11594
 C2859 C 0.52225 0.72368 0.17765
 C2860 C 0.51728 0.72936 0.18916
 H2861 H 0.52803 0.74698 0.16153
 H2862 H 0.53850 0.76180 0.14053
 H2863 H 0.55142 0.74940 0.11878
 H2864 H 0.55399 0.72213 0.11791
 H2865 H 0.54471 0.67148 0.14228
 H2866 H 0.53405 0.65666 0.16319
 H2867 H 0.52072 0.66903 0.18468
 H2868 H 0.51819 0.69630 0.18557
 C2869 C 0.02836 0.71611 0.66520
 C2870 C 0.02742 0.70021 0.66423
 C2871 C 0.03628 0.69233 0.65319
 C2872 C 0.04568 0.70043 0.64290
 C2873 C 0.04642 0.71635 0.64370
 C2874 C 0.03776 0.72421 0.65491
 C2875 C 0.03881 0.74011 0.65561
 C2876 C 0.04812 0.74803 0.64549
 C2877 C 0.05657 0.74036 0.63450
 C2878 C 0.05578 0.72470 0.63356
 C2879 C 0.03559 0.67640 0.65283
 C2880 C 0.02629 0.66848 0.66297
 C2881 C 0.01741 0.67621 0.67356
 C2882 C 0.01794 0.69188 0.67426
 C2883 C 0.05434 0.69246 0.63128
 C2884 C 0.06139 0.68602 0.62139
 C2885 C 0.02079 0.72392 0.67767
 C2886 C 0.01525 0.72990 0.68875
 H2887 H 0.03240 0.74657 0.66392
 H2888 H 0.04878 0.76019 0.64616
 H2889 H 0.06380 0.74656 0.62667
 H2890 H 0.06260 0.71924 0.62485
 H2891 H 0.04225 0.66990 0.64474
 H2892 H 0.02590 0.65630 0.66256
 H2893 H 0.01007 0.67004 0.68128
 H2894 H 0.01087 0.69736 0.68276
 C2895 C 0.53416 0.66548 0.22312
 C2896 C 0.53041 0.65067 0.22775
 C2897 C 0.53731 0.63815 0.22034
 C2898 C 0.54793 0.64054 0.20835
 C2899 C 0.55181 0.65538 0.20382
 C2900 C 0.54488 0.66789 0.21120
 C2901 C 0.54884 0.68263 0.20639
 C2902 C 0.55940 0.68492 0.19468
 C2903 C 0.56621 0.67268 0.18751
 C2904 C 0.56250 0.65805 0.19197
 C2905 C 0.53333 0.62343 0.22514
 C2906 C 0.52285 0.62115 0.23692
 C2907 C 0.51611 0.63341 0.24416
 C2908 C 0.51980 0.64803 0.23967
 C2909 C 0.55472 0.62771 0.20061
 C2910 C 0.56018 0.61691 0.19428
 C2911 C 0.52686 0.67832 0.23032
 C2912 C 0.52115 0.68952 0.23558
 H2913 H 0.54387 0.69253 0.21161
 H2914 H 0.56230 0.69626 0.19117
 H2915 H 0.57440 0.67452 0.17842
 H2916 H 0.56808 0.64889 0.18603
 H2917 H 0.53827 0.61354 0.21987
 H2918 H 0.51994 0.60982 0.24045
 H2919 H 0.50798 0.63158 0.25330
 H2920 H 0.51428 0.65721 0.24565
 C2921 C 0.03204 0.66703 0.71988
 C2922 C 0.04820 0.66690 0.72020
 C2923 C 0.05635 0.65621 0.71127
 C2924 C 0.04829 0.64563 0.70217
 C2925 C 0.03213 0.64562 0.70204
 C2926 C 0.02399 0.65628 0.71101
 C2927 C 0.00785 0.65597 0.71082
 C2928 C -0.00004 0.64548 0.70191
 C2929 C 0.00792 0.63515 0.69301
 C2930 C 0.02382 0.63515 0.69304
 C2931 C 0.07250 0.65643 0.71161
 C2932 C 0.08037 0.66688 0.72057
 C2933 C 0.07241 0.67728 0.72938
 C2934 C 0.05651 0.67736 0.72922
 C2935 C 0.05661 0.63449 0.69331
 C2936 C 0.06347 0.62503 0.68620
 C2937 C 0.02384 0.67902 0.72762
 C2938 C 0.01768 0.68977 0.73333
 H2939 H 0.00117 0.66380 0.71755
 H2940 H -0.01238 0.64541 0.70187
 H2941 H 0.00175 0.62707 0.68606
 H2942 H 0.02950 0.62689 0.68593
 H2943 H 0.07920 0.64860 0.70492
 H2944 H 0.09272 0.66695 0.72063
 H2945 H 0.07858 0.68542 0.73626
 H2946 H 0.05084 0.68572 0.73622
 C2947 C 0.03195 0.08329 0.02853
 C2948 C 0.04287 0.07994 0.04008
 C2949 C 0.05049 0.09183 0.04790
 C2950 C 0.04709 0.10699 0.04417
 C2951 C 0.03623 0.11032 0.03257
 C2952 C 0.02865 0.09843 0.02472
 C2953 C 0.01784 0.10202 0.01319
 C2954 C 0.01461 0.11696 0.00949
 C2955 C 0.02202 0.12860 0.01716
 C2956 C 0.03271 0.12539 0.02858
 C2957 C 0.06138 0.08821 0.05935
 C2958 C 0.06464 0.07326 0.06301
 C2959 C 0.05717 0.06163 0.05540
 C2960 C 0.04640 0.06486 0.04407
 C2961 C 0.05462 0.11918 0.05233
 C2962 C 0.06068 0.12952 0.05896
 C2963 C 0.02410 0.07107 0.02075
 C2964 C 0.01811 0.06023 0.01500
 H2965 H 0.01180 0.09334 0.00691
 H2966 H 0.00631 0.11952 0.00064
 H2967 H 0.01946 0.14019 0.01425
 H2968 H 0.03817 0.13483 0.03421
 H2969 H 0.06747 0.09687 0.06560
 H2970 H 0.07300 0.07069 0.07180
 H2971 H 0.05974 0.05003 0.05829
 H2972 H 0.04092 0.05540 0.03848
 C2973 C 0.03561 0.58122 0.53195
 C2974 C 0.03279 0.59643 0.52805
 C2975 C 0.04055 0.60815 0.53598
 C2976 C 0.05110 0.60457 0.54779
 C2977 C 0.05402 0.58935 0.55164
 C2978 C 0.04626 0.57763 0.54369
 C2979 C 0.04940 0.56249 0.54772
 C2980 C 0.05990 0.55905 0.55925
 C2981 C 0.06744 0.57051 0.56704
 C2982 C 0.06458 0.58551 0.56333
 C2983 C 0.03752 0.62329 0.53187
 C2984 C 0.02712 0.62674 0.52025
 C2985 C 0.01953 0.61527 0.51250
 C2986 C 0.02229 0.60027 0.51630
 C2987 C 0.05883 0.61659 0.55602
 C2988 C 0.06499 0.62682 0.56270
 C2989 C 0.02761 0.56922 0.52398
 C2990 C 0.02137 0.55873 0.51782
 H2991 H 0.04383 0.55315 0.54202
 H2992 H 0.06220 0.54742 0.56214
 H2993 H 0.07557 0.56775 0.57599
 H2994 H 0.07075 0.59404 0.56969
 H2995 H 0.04315 0.63261 0.53755
 H2996 H 0.02495 0.63838 0.51725
 H2997 H 0.01147 0.61801 0.50348
 H2998 H 0.01611 0.59174 0.50995
 C2999 C 0.53199 0.08400 0.52944
 C3000 C 0.52890 0.09916 0.52557
 C3001 C 0.53670 0.11098 0.53332
 C3002 C 0.54756 0.10754 0.54489
 C3003 C 0.55073 0.09235 0.54869
 C3004 C 0.54290 0.08054 0.54097
 C3005 C 0.54621 0.06543 0.54503
 C3006 C 0.55698 0.06210 0.55634
 C3007 C 0.56465 0.07366 0.56386
 C3008 C 0.56160 0.08863 0.56014
 C3009 C 0.53339 0.12608 0.52927
 C3010 C 0.52269 0.12939 0.51788
 C3011 C 0.51507 0.11782 0.51032
 C3012 C 0.51809 0.10286 0.51407
 C3013 C 0.55531 0.11966 0.55295
 C3014 C 0.56152 0.12991 0.55956
 C3015 C 0.52402 0.07185 0.52168
 C3016 C 0.51800 0.06103 0.51591
 H3017 H 0.54057 0.05602 0.53952
 H3018 H 0.55937 0.05048 0.55928
 H3019 H 0.57300 0.07101 0.57264
 H3020 H 0.56785 0.09723 0.56631
 H3021 H 0.53903 0.13547 0.53481
 H3022 H 0.52030 0.14100 0.51493
 H3023 H 0.50677 0.12046 0.50148
 H3024 H 0.51188 0.09423 0.50787
 C3025 C 0.53158 0.58336 0.02731
 C3026 C 0.54260 0.58053 0.03891
 C3027 C 0.55016 0.59276 0.04622
 C3028 C 0.54662 0.60774 0.04191
 C3029 C 0.53569 0.61055 0.03023
 C3030 C 0.52815 0.59831 0.02291
 C3031 C 0.51727 0.60138 0.01129
 C3032 C 0.51392 0.61614 0.00701
 C3033 C 0.52128 0.62812 0.01415
 C3034 C 0.53205 0.62543 0.02564
 C3035 C 0.56113 0.58967 0.05776
 C3036 C 0.56455 0.57489 0.06197
 C3037 C 0.55716 0.56292 0.05485
 C3038 C 0.54630 0.56564 0.04346
 C3039 C 0.55405 0.62029 0.04959
 C3040 C 0.56000 0.63087 0.05590
 C3041 C 0.52381 0.57079 0.02006
 C3042 C 0.51791 0.55972 0.01469
 H3043 H 0.51125 0.59242 0.00540
 H3044 H 0.50557 0.61829 -0.00191
 H3045 H 0.51865 0.63957 0.01078
 H3046 H 0.53748 0.63512 0.03085
 H3047 H 0.56718 0.59861 0.06363
 H3048 H 0.57297 0.57273 0.07081
 H3049 H 0.55984 0.55147 0.05816
 H3050 H 0.54088 0.55593 0.03827
 C3051 C 0.71816 0.16789 0.53037
 C3052 C 0.70207 0.16645 0.52991
 C3053 C 0.69488 0.15419 0.53749
 C3054 C 0.70385 0.14326 0.54519
 C3055 C 0.71994 0.14466 0.54556
 C3056 C 0.72711 0.15703 0.53815
 C3057 C 0.74321 0.15825 0.53876
 C3058 C 0.75197 0.14753 0.54646
 C3059 C 0.74496 0.13541 0.55369
 C3060 C 0.72913 0.13393 0.55328
 C3061 C 0.67876 0.15319 0.53722
 C3062 C 0.67000 0.16392 0.52953
 C3063 C 0.67705 0.17576 0.52190
 C3064 C 0.69289 0.17711 0.52208
 C3065 C 0.69657 0.13043 0.55246
 C3066 C 0.69070 0.11962 0.55838
 C3067 C 0.72538 0.18101 0.52358
 C3068 C 0.73097 0.19233 0.51845
 H3069 H 0.74918 0.16746 0.53328
 H3070 H 0.76426 0.14862 0.54680
 H3071 H 0.75181 0.12711 0.55965
 H3072 H 0.72421 0.12433 0.55911
 H3073 H 0.67277 0.14414 0.54295
 H3074 H 0.65769 0.16300 0.52943
 H3075 H 0.67022 0.18393 0.51578
 H3076 H 0.69782 0.18658 0.51604
 C3077 C 0.72061 0.66354 0.02501
 C3078 C 0.72917 0.65020 0.02720
 C3079 C 0.72231 0.63750 0.03436
 C3080 C 0.70696 0.63826 0.03932
 C3081 C 0.69836 0.65158 0.03704
 C3082 C 0.70517 0.66422 0.02974
 C3083 C 0.69630 0.67738 0.02745
 C3084 C 0.68120 0.67806 0.03236
 C3085 C 0.67461 0.66577 0.03966
 C3086 C 0.68302 0.65264 0.04197
 C3087 C 0.73111 0.62429 0.03646
 C3088 C 0.74625 0.62365 0.03163
 C3089 C 0.75294 0.63607 0.02465
 C3090 C 0.74456 0.64923 0.02244
 C3091 C 0.70002 0.62531 0.04673
 C3092 C 0.69435 0.61449 0.05283
 C3093 C 0.72780 0.67685 0.01859
 C3094 C 0.73326 0.68840 0.01384
 H3095 H 0.70092 0.68727 0.02187
 H3096 H 0.67459 0.68818 0.03050
 H3097 H 0.66289 0.66640 0.04351
 H3098 H 0.67738 0.64335 0.04766
 H3099 H 0.72642 0.61433 0.04184
 H3100 H 0.75281 0.61345 0.03333
 H3101 H 0.76470 0.63552 0.02092
 H3102 H 0.75024 0.65860 0.01692
 C3103 C 0.21606 0.58313 0.71784
 C3104 C 0.20366 0.59057 0.72495
 C3105 C 0.19513 0.60148 0.71663
 C3106 C 0.19906 0.60490 0.70126
 C3107 C 0.21102 0.59700 0.69393
 C3108 C 0.21959 0.58612 0.70226
 C3109 C 0.23127 0.57811 0.69459
 C3110 C 0.23426 0.58064 0.67909
 C3111 C 0.22585 0.59125 0.67095
 C3112 C 0.21441 0.59944 0.67824
 C3113 C 0.18262 0.60858 0.72389
 C3114 C 0.17861 0.60494 0.73892
 C3115 C 0.18698 0.59429 0.74706
 C3116 C 0.19939 0.58717 0.74023
 C3117 C 0.19099 0.61674 0.69309
 C3118 C 0.18455 0.62685 0.68649
 C3119 C 0.22420 0.57135 0.72600
 C3120 C 0.23043 0.56084 0.73210
 H3121 H 0.23807 0.56967 0.70040
 H3122 H 0.24311 0.57428 0.67336
 H3123 H 0.22818 0.59314 0.65890
 H3124 H 0.20810 0.60749 0.67139
 H3125 H 0.17573 0.61689 0.71800
 H3126 H 0.16894 0.61040 0.74426
 H3127 H 0.18380 0.59150 0.75873
 H3128 H 0.20553 0.57894 0.74702
 C3129 C 0.21856 0.08516 0.22269
 C3130 C 0.20246 0.08528 0.22118
 C3131 C 0.19514 0.09728 0.21325
 C3132 C 0.20393 0.10924 0.20716
 C3133 C 0.22001 0.10925 0.20891
 C3134 C 0.22734 0.09715 0.21667
 C3135 C 0.24342 0.09733 0.21817
 C3136 C 0.25202 0.10915 0.21219
 C3137 C 0.24486 0.12099 0.20461
 C3138 C 0.22904 0.12110 0.20296
 C3139 C 0.17907 0.09694 0.21153
 C3140 C 0.17047 0.08518 0.21763
 C3141 C 0.17760 0.07359 0.22561
 C3142 C 0.19341 0.07355 0.22738
 C3143 C 0.19646 0.12163 0.19925
 C3144 C 0.19035 0.13203 0.19279
 C3145 C 0.22605 0.07216 0.22946
 C3146 C 0.23169 0.06078 0.23441
 H3147 H 0.24949 0.08838 0.22401
 H3148 H 0.26431 0.10911 0.21344
 H3149 H 0.25159 0.13014 0.19998
 H3150 H 0.22400 0.13055 0.19695
 H3151 H 0.17300 0.10575 0.20547
 H3152 H 0.15819 0.08509 0.21622
 H3153 H 0.17087 0.06458 0.23047
 H3154 H 0.19842 0.06424 0.23363
 C3155 C 0.71777 1.08328 0.72183
 C3156 C 0.72656 1.09623 0.71846
 C3157 C 0.71966 1.10874 0.71097
 C3158 C 0.70401 1.10821 0.70690
 C3159 C 0.69522 1.09525 0.71028
 C3160 C 0.70209 1.08279 0.71786
 C3161 C 0.69302 1.07002 0.72126
 C3162 C 0.67762 1.06960 0.71729
 C3163 C 0.67095 1.08169 0.70968
 C3164 C 0.67959 1.09440 0.70619
 C3165 C 0.72870 1.12154 0.70763
 C3166 C 0.74412 1.12196 0.71158
 C3167 C 0.75086 1.10973 0.71889
 C3168 C 0.74223 1.09698 0.72232
 C3169 C 0.69691 1.12108 0.69948
 C3170 C 0.69098 1.13184 0.69347
 C3171 C 0.72498 1.07010 0.72854
 C3172 C 0.73059 1.05873 0.73359
 H3173 H 0.69767 1.06029 0.72710
 H3174 H 0.67080 1.05988 0.72020
 H3175 H 0.65900 1.08123 0.70654
 H3176 H 0.67389 1.10355 0.70030
 H3177 H 0.72398 1.13132 0.70193
 H3178 H 0.75086 1.13184 0.70894
 H3179 H 0.76284 1.11012 0.72193
 H3180 H 0.74797 1.08775 0.72804
 C3181 C 0.72240 0.58688 0.22512
 C3182 C 0.70837 0.58617 0.21702
 C3183 C 0.70215 0.59942 0.21031
 C3184 C 0.70986 0.61335 0.21197
 C3185 C 0.72378 0.61409 0.22025
 C3186 C 0.73008 0.60080 0.22681
 C3187 C 0.74405 0.60179 0.23494
 C3188 C 0.75158 0.61553 0.23657
 C3189 C 0.74541 0.62853 0.23017
 C3190 C 0.73168 0.62789 0.22209
 C3191 C 0.68830 0.59837 0.20196
 C3192 C 0.68076 0.58463 0.20036
 C3193 C 0.68676 0.57171 0.20705
 C3194 C 0.70039 0.57239 0.21528
 C3195 C 0.70350 0.62687 0.20512
 C3196 C 0.69818 0.63806 0.19936
 C3197 C 0.72908 0.57315 0.23118
 C3198 C 0.73416 0.56132 0.23565
 H3199 H 0.74927 0.59198 0.24014
 H3200 H 0.76225 0.61609 0.24283
 H3201 H 0.75131 0.63918 0.23146
 H3202 H 0.72734 0.63830 0.21731
 H3203 H 0.68317 0.60812 0.19658
 H3204 H 0.67019 0.58402 0.19394
 H3205 H 0.68081 0.56112 0.20586
 H3206 H 0.70460 0.56199 0.22021
 C3207 C 0.53142 0.16545 0.72344
 C3208 C 0.54256 0.16850 0.71208
 C3209 C 0.55004 0.15640 0.70453
 C3210 C 0.54630 0.14134 0.70835
 C3211 C 0.53526 0.13831 0.71979
 C3212 C 0.52780 0.15042 0.72737
 C3213 C 0.51679 0.14714 0.73874
 C3214 C 0.51323 0.13230 0.74254
 C3215 C 0.52052 0.12045 0.73514
 C3216 C 0.53141 0.12335 0.72389
 C3217 C 0.56113 0.15970 0.69323
 C3218 C 0.56472 0.17455 0.68947
 C3219 C 0.55738 0.18639 0.69682
 C3220 C 0.54642 0.18347 0.70799
 C3221 C 0.55363 0.12894 0.70040
 C3222 C 0.55948 0.11846 0.69389
 C3223 C 0.52367 0.17788 0.73090
 C3224 C 0.51777 0.18887 0.73639
 H3225 H 0.51083 0.15599 0.74481
 H3226 H 0.50478 0.12999 0.75127
 H3227 H 0.51772 0.10894 0.73813
 H3228 H 0.53677 0.11375 0.71847
 H3229 H 0.56713 0.15087 0.68719
 H3230 H 0.57322 0.17688 0.68080
 H3231 H 0.56020 0.19791 0.69386
 H3232 H 0.54106 0.19308 0.71338
 C3233 C 1.03134 0.16655 0.22000
 C3234 C 1.04223 0.16994 0.20849
 C3235 C 1.04992 0.15807 0.20078
 C3236 C 1.04663 0.14291 0.20456
 C3237 C 1.03579 0.13954 0.21610
 C3238 C 1.02812 0.15141 0.22385
 C3239 C 1.01733 0.14779 0.23533
 C3240 C 1.01419 0.13285 0.23906
 C3241 C 1.02167 0.12123 0.23150
 C3242 C 1.03236 0.12446 0.22014
 C3243 C 1.06078 0.16172 0.18935
 C3244 C 1.06394 0.17667 0.18564
 C3245 C 1.05640 0.18828 0.19316
 C3246 C 1.04566 0.18503 0.20445
 C3247 C 1.05428 0.13074 0.19656
 C3248 C 1.06042 0.12041 0.19006
 C3249 C 1.02348 0.17874 0.22773
 C3250 C 1.01751 0.18956 0.23349
 H3251 H 1.01122 0.15646 0.24152
 H3252 H 1.00590 0.13028 0.24788
 H3253 H 1.01920 0.10963 0.23444
 H3254 H 1.03789 0.11503 0.21460
 H3255 H 1.06693 0.15307 0.18318
 H3256 H 1.07227 0.17926 0.17688
 H3257 H 1.05888 0.19988 0.19023
 H3258 H 1.04012 0.19447 0.20996
 C3259 C 0.21147 0.67285 0.53410
 C3260 C 0.21551 0.67002 0.54960
 C3261 C 0.20680 0.65970 0.55847
 C3262 C 0.19420 0.65219 0.55174
 C3263 C 0.18972 0.65558 0.53649
 C3264 C 0.19840 0.66593 0.52763
 C3265 C 0.19362 0.66925 0.51246
 C3266 C 0.18060 0.66259 0.50624
 C3267 C 0.17209 0.65250 0.51492
 C3268 C 0.17657 0.64895 0.52986
 C3269 C 0.21075 0.65738 0.57406
 C3270 C 0.22288 0.66515 0.58076
 C3271 C 0.23142 0.67522 0.57210
 C3272 C 0.22789 0.67761 0.55667
 C3273 C 0.18614 0.64066 0.56031
 C3274 C 0.17973 0.63070 0.56715
 C3275 C 0.21999 0.68388 0.52529
 C3276 C 0.22663 0.69377 0.51860
 H3277 H 0.19984 0.67707 0.50528
 H3278 H 0.17708 0.66530 0.49464
 H3279 H 0.16195 0.64740 0.51005
 H3280 H 0.16955 0.64109 0.53618
 H3281 H 0.20436 0.64976 0.58130
 H3282 H 0.22562 0.66339 0.59276
 H3283 H 0.24079 0.68128 0.57737
 H3284 H 0.23481 0.68563 0.55044
 C3285 C 0.21668 0.16757 1.02951
 C3286 C 0.22555 0.15714 1.03799
 C3287 C 0.21833 0.14493 1.04564
 C3288 C 0.20228 0.14328 1.04483
 C3289 C 0.19339 0.15382 1.03652
 C3290 C 0.20062 0.16591 1.02869
 C3291 C 0.19151 0.17618 1.02026
 C3292 C 0.17570 0.17465 1.01975
 C3293 C 0.16860 0.16299 1.02761
 C3294 C 0.17729 0.15262 1.03588
 C3295 C 0.22744 0.13464 1.05404
 C3296 C 0.24323 0.13638 1.05487
 C3297 C 0.25028 0.14833 1.04740
 C3298 C 0.24159 0.15863 1.03904
 C3299 C 0.19499 0.13051 1.05221
 C3300 C 0.18912 0.11973 1.05818
 C3301 C 0.22391 0.18049 1.02238
 C3302 C 0.22950 0.19168 1.01695
 H3303 H 0.19648 0.18550 1.01401
 H3304 H 0.16892 0.18255 1.01319
 H3305 H 0.15630 0.16193 1.02725
 H3306 H 0.17126 0.14370 1.04178
 H3307 H 0.22249 0.12519 1.06008
 H3308 H 0.25002 0.12841 1.06136
 H3309 H 0.26254 0.14963 1.04808
 H3310 H 0.24760 0.16773 1.03340
 C3311 C 0.21505 0.71518 0.58052
 C3312 C 0.20299 0.70524 0.57658
 C3313 C 0.19523 0.69714 0.58828
 C3314 C 0.19959 0.69901 0.60383
 C3315 C 0.21175 0.70882 0.60774
 C3316 C 0.21949 0.71693 0.59604
 C3317 C 0.23158 0.72669 0.60022
 C3318 C 0.23592 0.72838 0.61553
 C3319 C 0.22837 0.72044 0.62698
 C3320 C 0.21641 0.71076 0.62319
 C3321 C 0.18323 0.68727 0.58409
 C3322 C 0.17907 0.68538 0.56875
 C3323 C 0.18670 0.69323 0.55731
 C3324 C 0.19848 0.70311 0.56110
 C3325 C 0.19152 0.69101 0.61587
 C3326 C 0.18500 0.68467 0.62619
 C3327 C 0.22290 0.72348 0.56854
 C3328 C 0.22905 0.72999 0.55811
 H3329 H 0.23780 0.73311 0.59172
 H3330 H 0.24520 0.73589 0.61852
 H3331 H 0.23179 0.72178 0.63886
 H3332 H 0.21090 0.70484 0.63252
 H3333 H 0.17700 0.68087 0.59259
 H3334 H 0.16991 0.67774 0.56572
 H3335 H 0.18348 0.69164 0.54541
 H3336 H 0.20404 0.70897 0.55176
 C3337 C 0.21833 0.21617 1.08314
 C3338 C 0.22223 0.22016 1.09838
 C3339 C 0.21498 0.21284 1.11091
 C3340 C 0.20384 0.20159 1.10812
 C3341 C 0.19994 0.19758 1.09287
 C3342 C 0.20726 0.20484 1.08033
 C3343 C 0.20314 0.20066 1.06517
 C3344 C 0.19195 0.18982 1.06250
 C3345 C 0.18480 0.18272 1.07474
 C3346 C 0.18874 0.18648 1.08979
 C3347 C 0.21907 0.21704 1.12606
 C3348 C 0.23000 0.22814 1.12875
 C3349 C 0.23708 0.23530 1.11648
 C3350 C 0.23328 0.23140 1.10145
 C3351 C 0.19638 0.19424 1.12097
 C3352 C 0.19031 0.18833 1.13183
 C3353 C 0.22545 0.22383 1.07030
 C3354 C 0.23092 0.22989 1.05921
 H3355 H 0.20833 0.20587 1.05524
 H3356 H 0.18869 0.18702 1.05087
 H3357 H 0.17611 0.17432 1.07258
 H3358 H 0.18283 0.18069 1.09895
 H3359 H 0.21389 0.21180 1.13599
 H3360 H 0.23300 0.23121 1.14041
 H3361 H 0.24556 0.24392 1.11862
 H3362 H 0.23910 0.23727 1.09228
 C3363 C 0.72472 0.53170 0.16332
 C3364 C 0.72234 0.52292 0.14996
 C3365 C 0.71489 0.52933 0.13699
 C3366 C 0.70981 0.54447 0.13749
 C3367 C 0.71219 0.55326 0.15085
 C3368 C 0.71978 0.54689 0.16376
 C3369 C 0.72213 0.55594 0.17696
 C3370 C 0.71713 0.57083 0.17737
 C3371 C 0.70953 0.57699 0.16483
 C3372 C 0.70707 0.56836 0.15168
 C3373 C 0.71262 0.52032 0.12377
 C3374 C 0.71757 0.50541 0.12337
 C3375 C 0.72484 0.49914 0.13606
 C3376 C 0.72723 0.50775 0.14924
 C3377 C 0.70227 0.55104 0.12420
 C3378 C 0.69611 0.55651 0.11313
 C3379 C 0.73146 0.52495 0.17693
 C3380 C 0.73644 0.51967 0.18867
 H3381 H 0.72791 0.55166 0.18705
 H3382 H 0.71920 0.57764 0.18745
 H3383 H 0.70559 0.58854 0.16527
 H3384 H 0.70114 0.57366 0.14220
 H3385 H 0.70700 0.52468 0.11362
 H3386 H 0.71574 0.49867 0.11317
 H3387 H 0.72866 0.48755 0.13570
 H3388 H 0.73297 0.50240 0.15881
 C3389 C 0.72188 1.03352 0.66518
 C3390 C 0.71834 1.02505 0.65187
 C3391 C 0.71079 1.03207 0.63930
 C3392 C 0.70681 1.04751 0.64013
 C3393 C 0.71038 1.05599 0.65344
 C3394 C 0.71803 1.04900 0.66596
 C3395 C 0.72156 1.05774 0.67911
 C3396 C 0.71766 1.07294 0.67982
 C3397 C 0.71001 1.07972 0.66766
 C3398 C 0.70639 1.07140 0.65458
 C3399 C 0.70731 1.02336 0.62613
 C3400 C 0.71116 1.00814 0.62541
 C3401 C 0.71854 1.00128 0.63771
 C3402 C 0.72211 1.00959 0.65082
 C3403 C 0.69918 1.05469 0.62726
 C3404 C 0.69294 1.06064 0.61650
 C3405 C 0.72862 1.02616 0.67845
 C3406 C 0.73369 1.02036 0.68988
 H3407 H 0.72745 1.05297 0.68891
 H3408 H 0.72066 1.07950 0.68982
 H3409 H 0.70694 1.09152 0.66834
 H3410 H 0.70047 1.07719 0.64539
 H3411 H 0.70155 1.02818 0.61628
 H3412 H 0.70841 1.00165 0.61525
 H3413 H 0.72151 0.98946 0.63710
 H3414 H 0.72788 1.00376 0.66009
 C3415 C 0.52966 0.21622 0.66697
 C3416 C 0.53700 0.22474 0.65541
 C3417 C 0.54479 0.21727 0.64331
 C3418 C 0.54523 0.20132 0.64287
 C3419 C 0.53784 0.19280 0.65441
 C3420 C 0.52993 0.20027 0.66643
 C3421 C 0.52249 0.19150 0.67775
 C3422 C 0.52296 0.17582 0.67728
 C3423 C 0.53085 0.16852 0.66563
 C3424 C 0.53821 0.17685 0.65428
 C3425 C 0.55209 0.22604 0.63190
 C3426 C 0.55169 0.24172 0.63243
 C3427 C 0.54408 0.24902 0.64427
 C3428 C 0.53679 0.24068 0.65566
 C3429 C 0.55316 0.19374 0.63046
 C3430 C 0.55968 0.18763 0.62000
 C3431 C 0.52261 0.22379 0.67991
 C3432 C 0.51728 0.22960 0.69119
 H3433 H 0.51629 0.19665 0.68711
 H3434 H 0.51728 0.16929 0.68608
 H3435 H 0.53130 0.15633 0.66540
 H3436 H 0.54418 0.17067 0.64544
 H3437 H 0.55818 0.22089 0.62247
 H3438 H 0.55734 0.24825 0.62361
 H3439 H 0.54380 0.26121 0.64463
 H3440 H 0.53098 0.24686 0.66462
 C3441 C 1.02758 0.21669 0.16470
 C3442 C 1.03502 0.22501 0.15306
 C3443 C 1.04281 0.21734 0.14109
 C3444 C 1.04316 0.20139 0.14086
 C3445 C 1.03565 0.19306 0.15247
 C3446 C 1.02774 0.20072 0.16436
 C3447 C 1.02019 0.19214 0.17575
 C3448 C 1.02057 0.17645 0.17549
 C3449 C 1.02848 0.16896 0.16398
 C3450 C 1.03593 0.17711 0.15255
 C3451 C 1.05022 0.22592 0.12960
 C3452 C 1.04993 0.24162 0.12994
 C3453 C 1.04232 0.24911 0.14166
 C3454 C 1.03493 0.24095 0.15312
 C3455 C 1.05113 0.19360 0.12861
 C3456 C 1.05773 0.18733 0.11828
 C3457 C 1.02063 0.22445 0.17759
 C3458 C 1.01541 0.23035 0.18888
 H3459 H 1.01397 0.19745 0.18501
 H3460 H 1.01482 0.17007 0.18435
 H3461 H 1.02886 0.15677 0.16391
 H3462 H 1.04191 0.17078 0.14382
 H3463 H 1.05631 0.22062 0.12026
 H3464 H 1.05566 0.24800 0.12107
 H3465 H 1.04214 0.26130 0.14187
 H3466 H 1.02913 0.24728 0.16198
 C3467 C 0.58536 0.21902 0.72412
 C3468 C 0.58637 0.20309 0.72449
 C3469 C 0.59860 0.19568 0.71693
 C3470 C 0.60989 0.20425 0.70928
 C3471 C 0.60902 0.22019 0.70914
 C3472 C 0.59669 0.22759 0.71656
 C3473 C 0.59598 0.24351 0.71616
 C3474 C 0.60714 0.25190 0.70865
 C3475 C 0.61921 0.24467 0.70141
 C3476 C 0.62019 0.22900 0.70161
 C3477 C 0.59919 0.17974 0.71716
 C3478 C 0.58808 0.17136 0.72477
 C3479 C 0.57624 0.17861 0.73234
 C3480 C 0.57531 0.19428 0.73220
 C3481 C 0.62245 0.19671 0.70164
 C3482 C 0.63297 0.19056 0.69532
 C3483 C 0.57213 0.22644 0.73067
 C3484 C 0.56060 0.23199 0.73558
 H3485 H 0.58683 0.24964 0.72166
 H3486 H 0.60643 0.26407 0.70846
 H3487 H 0.62785 0.25123 0.69559
 H3488 H 0.62978 0.22389 0.69579
 H3489 H 0.60821 0.17359 0.71147
 H3490 H 0.58867 0.15918 0.72478
 H3491 H 0.56763 0.17205 0.73822
 H3492 H 0.56581 0.19939 0.73817
 C3493 C 1.08407 0.21911 0.22009
 C3494 C 1.08508 0.20319 0.22083
 C3495 C 1.09719 0.19559 0.21327
 C3496 C 1.10838 0.20398 0.20526
 C3497 C 1.10744 0.21990 0.20465
 C3498 C 1.09523 0.22748 0.21206
 C3499 C 1.09446 0.24338 0.21121
 C3500 C 1.10547 0.25158 0.20326
 C3501 C 1.11743 0.24417 0.19602
 C3502 C 1.11846 0.22852 0.19667
 C3503 C 1.09776 0.17966 0.21386
 C3504 C 1.08676 0.17147 0.22182
 C3505 C 1.07505 0.17890 0.22941
 C3506 C 1.07414 0.19457 0.22894
 C3507 C 1.12097 0.19627 0.19786
 C3508 C 1.13156 0.18999 0.19180
 C3509 C 1.07105 0.22669 0.22684
 C3510 C 1.05967 0.23234 0.23202
 H3511 H 1.08539 0.24964 0.21669
 H3512 H 1.10472 0.26374 0.20272
 H3513 H 1.12595 0.25059 0.18986
 H3514 H 1.12796 0.22327 0.19083
 H3515 H 1.10668 0.17338 0.20816
 H3516 H 1.08733 0.15929 0.22210
 H3517 H 1.06653 0.17249 0.23558
 H3518 H 1.06475 0.19982 0.23494
 C3519 C 0.16683 0.71889 0.53398
 C3520 C 0.16414 0.72167 0.54976
 C3521 C 0.15317 0.71295 0.55782
 C3522 C 0.14490 0.70156 0.55003
 C3523 C 0.14798 0.69842 0.53440
 C3524 C 0.15895 0.70714 0.52634
 C3525 C 0.16193 0.70371 0.51076
 C3526 C 0.15431 0.69198 0.50336
 C3527 C 0.14361 0.68343 0.51126
 C3528 C 0.14041 0.68658 0.52659
 C3529 C 0.15100 0.71561 0.57369
 C3530 C 0.15955 0.72648 0.58142
 C3531 C 0.17028 0.73502 0.57355
 C3532 C 0.17253 0.73275 0.55788
 C3533 C 0.13301 0.69329 0.55797
 C3534 C 0.12283 0.68663 0.56430
 C3535 C 0.17870 0.72715 0.52602
 C3536 C 0.18924 0.73335 0.51982
 H3537 H 0.17019 0.71000 0.50414
 H3538 H 0.15677 0.68947 0.49146
 H3539 H 0.13779 0.67428 0.50549
 H3540 H 0.13205 0.67956 0.53227
 H3541 H 0.14287 0.70918 0.58033
 H3542 H 0.15787 0.72826 0.59360
 H3543 H 0.17692 0.74342 0.57961
 H3544 H 0.18105 0.73964 0.55227
 C3545 C 0.16568 0.21878 1.03328
 C3546 C 0.16485 0.21841 1.04953
 C3547 C 0.15316 0.20996 1.05684
 C3548 C 0.14228 0.20208 1.04787
 C3549 C 0.14313 0.20245 1.03163
 C3550 C 0.15480 0.21092 1.02432
 C3551 C 0.15532 0.21127 1.00807
 C3552 C 0.14470 0.20333 0.99929
 C3553 C 0.13338 0.19493 1.00644
 C3554 C 0.13253 0.19447 1.02241
 C3555 C 0.15268 0.20959 1.07309
 C3556 C 0.16337 0.21745 1.08186
 C3557 C 0.17469 0.22584 1.07471
 C3558 C 0.17550 0.22634 1.05874
 C3559 C 0.12986 0.19408 1.05528
 C3560 C 0.11929 0.18767 1.06123
 C3561 C 0.17826 0.22650 1.02586
 C3562 C 0.18921 0.23237 1.02003
 H3563 H 0.16394 0.21762 1.00199
 H3564 H 0.14530 0.20367 0.98688
 H3565 H 0.12519 0.18874 0.99957
 H3566 H 0.12352 0.18777 1.02744
 H3567 H 0.14409 0.20320 1.07917
 H3568 H 0.16288 0.21698 1.09428
 H3569 H 0.18299 0.23189 1.08158
 H3570 H 0.18458 0.23295 1.05371
 C3571 C 0.66595 0.52710 0.21843
 C3572 C 0.66683 0.53233 0.20308
 C3573 C 0.65417 0.53987 0.19634
 C3574 C 0.64060 0.54185 0.20489
 C3575 C 0.63961 0.53632 0.22012
 C3576 C 0.65235 0.52895 0.22692
 C3577 C 0.65116 0.52363 0.24219
 C3578 C 0.63774 0.52551 0.25052
 C3579 C 0.62527 0.53270 0.24387
 C3580 C 0.62613 0.53807 0.22886
 C3581 C 0.65546 0.54537 0.18113
 C3582 C 0.66884 0.54336 0.17277
 C3583 C 0.68114 0.53581 0.17928
 C3584 C 0.68024 0.53037 0.19426
 C3585 C 0.62765 0.54955 0.19803
 C3586 C 0.61684 0.55590 0.19239
 C3587 C 0.67935 0.52057 0.22563
 C3588 C 0.69100 0.51575 0.23112
 H3589 H 0.66054 0.51794 0.24783
 H3590 H 0.63701 0.52136 0.26218
 H3591 H 0.61487 0.53413 0.25039
 H3592 H 0.61614 0.54360 0.22419
 H3593 H 0.64617 0.55126 0.17555
 H3594 H 0.66965 0.54762 0.16114
 H3595 H 0.69143 0.53413 0.17268
 H3596 H 0.69015 0.52463 0.19882
 C3597 C 0.66586 1.02853 0.71689
 C3598 C 0.66649 1.03316 0.70132
 C3599 C 0.65401 1.04110 0.69472
 C3600 C 0.64091 1.04420 0.70365
 C3601 C 0.64023 1.03945 0.71916
 C3602 C 0.65275 1.03159 0.72580
 C3603 C 0.65186 1.02705 0.74135
 C3604 C 0.63895 1.03016 0.75011
 C3605 C 0.62671 1.03784 0.74362
 C3606 C 0.62728 1.04246 0.72833
 C3607 C 0.65501 1.04585 0.67923
 C3608 C 0.66789 1.04269 0.67046
 C3609 C 0.67999 1.03477 0.67687
 C3610 C 0.67942 1.03011 0.69213
 C3611 C 0.62806 1.05210 0.69684
 C3612 C 0.61730 1.05853 0.69121
 C3613 C 0.67910 1.02150 0.72393
 C3614 C 0.69051 1.01622 0.72947
 H3615 H 0.66109 1.02102 0.74689
 H3616 H 0.63846 1.02660 0.76199
 H3617 H 0.61672 1.04024 0.75047
 H3618 H 0.61748 1.04842 0.72381
 H3619 H 0.64585 1.05202 0.67373
 H3620 H 0.66845 1.04635 0.65861
 H3621 H 0.68985 1.03215 0.66994
 H3622 H 0.68917 1.02403 0.69659
 C3623 C 0.83231 0.46559 0.28657
 C3624 C 0.83948 0.47176 0.29974
 C3625 C 0.84995 0.46290 0.30838
 C3626 C 0.85321 0.44795 0.30378
 C3627 C 0.84547 0.44154 0.29107
 C3628 C 0.83505 0.45040 0.28239
 C3629 C 0.82722 0.44364 0.26992
 C3630 C 0.82945 0.42852 0.26628
 C3631 C 0.83962 0.41985 0.27479
 C3632 C 0.84765 0.42626 0.28699
 C3633 C 0.85679 0.46923 0.32164
 C3634 C 0.85333 0.48385 0.32627
 C3635 C 0.84313 0.49252 0.31781
 C3636 C 0.83626 0.48660 0.30468
 C3637 C 0.86479 0.43933 0.31186
 C3638 C 0.87477 0.43242 0.31831
 C3639 C 0.82104 0.47433 0.27820
 C3640 C 0.81091 0.48092 0.27167
 H3641 H 0.81912 0.44988 0.26300
 H3642 H 0.82322 0.42348 0.25683
 H3643 H 0.84128 0.40810 0.27195
 H3644 H 0.85535 0.41904 0.29335
 H3645 H 0.86474 0.46289 0.32865
 H3646 H 0.85859 0.48848 0.33651
 H3647 H 0.84047 0.50387 0.32147
 H3648 H 0.82835 0.49376 0.29850
 C3649 C 0.83350 0.96670 0.78296
 C3650 C 0.84316 0.97373 0.79385
 C3651 C 0.85398 0.96499 0.80216
 C3652 C 0.85502 0.94927 0.79955
 C3653 C 0.84523 0.94222 0.78878
 C3654 C 0.83453 0.95098 0.78035
 C3655 C 0.82487 0.94366 0.76962
 C3656 C 0.82561 0.92812 0.76747
 C3657 C 0.83596 0.91954 0.77584
 C3658 C 0.84574 0.92646 0.78634
 C3659 C 0.86349 0.97226 0.81304
 C3660 C 0.86232 0.98771 0.81566
 C3661 C 0.85172 0.99624 0.80754
 C3662 C 0.84223 0.98939 0.79674
 C3663 C 0.86640 0.94047 0.80770
 C3664 C 0.87614 0.93342 0.81434
 C3665 C 0.82159 0.97532 0.77538
 C3666 C 0.81089 0.98166 0.76955
 H3667 H 0.81656 0.94982 0.76290
 H3668 H 0.81800 0.92269 0.75936
 H3669 H 0.83639 0.90746 0.77423
 H3670 H 0.85357 0.91931 0.79262
 H3671 H 0.87187 0.96610 0.81968
 H3672 H 0.86966 0.99308 0.82404
 H3673 H 0.85086 1.00823 0.80961
 H3674 H 0.83419 0.99649 0.79067
 C3675 C 0.41686 0.28363 0.78389
 C3676 C 0.42025 0.29485 0.79498
 C3677 C 0.40821 0.30271 0.80238
 C3678 C 0.39287 0.29933 0.79861
 C3679 C 0.38949 0.28814 0.78750
 C3680 C 0.40153 0.28027 0.78012
 C3681 C 0.39789 0.26915 0.76906
 C3682 C 0.38276 0.26588 0.76538
 C3683 C 0.37098 0.27357 0.77259
 C3684 C 0.37423 0.28458 0.78353
 C3685 C 0.41186 0.31385 0.81343
 C3686 C 0.42698 0.31716 0.81705
 C3687 C 0.43875 0.30952 0.80980
 C3688 C 0.43551 0.29846 0.79890
 C3689 C 0.38051 0.30733 0.80610
 C3690 C 0.36998 0.31377 0.81208
 C3691 C 0.42919 0.27563 0.77637
 C3692 C 0.43990 0.26938 0.77050
 H3693 H 0.40666 0.26287 0.76314
 H3694 H 0.38017 0.25734 0.75689
 H3695 H 0.35924 0.27100 0.76970
 H3696 H 0.36466 0.29025 0.78882
 H3697 H 0.40308 0.32011 0.81936
 H3698 H 0.42958 0.32573 0.82552
 H3699 H 0.45048 0.31217 0.81263
 H3700 H 0.44509 0.29284 0.79360
 C3701 C 0.91873 0.28427 0.28623
 C3702 C 0.91102 0.29641 0.27910
 C3703 C 0.90046 0.30517 0.28765
 C3704 C 0.89764 0.30167 0.30325
 C3705 C 0.90584 0.28995 0.31056
 C3706 C 0.91640 0.28118 0.30202
 C3707 C 0.92473 0.26974 0.30965
 C3708 C 0.92283 0.26718 0.32532
 C3709 C 0.91251 0.27576 0.33368
 C3710 C 0.90401 0.28697 0.32642
 C3711 C 0.89304 0.31740 0.28034
 C3712 C 0.89598 0.32088 0.26503
 C3713 C 0.90627 0.31229 0.25665
 C3714 C 0.91374 0.30019 0.26355
 C3715 C 0.88600 0.30987 0.31160
 C3716 C 0.87595 0.31652 0.31815
 C3717 C 0.93006 0.27581 0.27772
 C3718 C 0.94018 0.26937 0.27110
 H3719 H 0.93294 0.26281 0.30367
 H3720 H 0.92943 0.25851 0.33102
 H3721 H 0.91112 0.27376 0.34586
 H3722 H 0.89621 0.29344 0.33342
 H3723 H 0.88500 0.32446 0.28640
 H3724 H 0.89027 0.33032 0.25964
 H3725 H 0.90852 0.31505 0.24476
 H3726 H 0.92168 0.29387 0.25657
 C3727 C 0.33367 0.78066 0.46814
 C3728 C 0.34877 0.77756 0.47295
 C3729 C 0.36119 0.78528 0.46604
 C3730 C 0.35841 0.79607 0.45436
 C3731 C 0.34330 0.79918 0.44956
 C3732 C 0.33089 0.79143 0.45643
 C3733 C 0.31586 0.79479 0.45148
 C3734 C 0.31318 0.80560 0.44018
 C3735 C 0.32531 0.81317 0.43346
 C3736 C 0.34023 0.81003 0.43802
 C3737 C 0.37620 0.78200 0.47105
 C3738 C 0.37886 0.77140 0.48256
 C3739 C 0.36670 0.76386 0.48932
 C3740 C 0.35180 0.76686 0.48462
 C3741 C 0.37112 0.80387 0.44725
 C3742 C 0.38177 0.81020 0.44135
 C3743 C 0.32089 0.77311 0.47537
 C3744 C 0.30964 0.76756 0.48092
 H3745 H 0.30601 0.78925 0.45637
 H3746 H 0.30163 0.80816 0.43670
 H3747 H 0.32315 0.82158 0.42471
 H3748 H 0.34930 0.81625 0.43249
 H3749 H 0.38603 0.78758 0.46615
 H3750 H 0.39041 0.76903 0.48626
 H3751 H 0.36883 0.75564 0.49826
 H3752 H 0.34271 0.76071 0.49020
 C3753 C 0.33141 0.28430 0.96713
 C3754 C 0.34140 0.27691 0.95685
 C3755 C 0.35233 0.28539 0.94847
 C3756 C 0.35316 0.30122 0.95038
 C3757 C 0.34312 0.30862 0.96059
 C3758 C 0.33230 0.30013 0.96910
 C3759 C 0.32242 0.30778 0.97929
 C3760 C 0.32307 0.32339 0.98088
 C3761 C 0.33354 0.33171 0.97243
 C3762 C 0.34352 0.32446 0.96243
 C3763 C 0.36216 0.27775 0.93822
 C3764 C 0.36120 0.26219 0.93630
 C3765 C 0.35050 0.25391 0.94449
 C3766 C 0.34068 0.26113 0.95467
 C3767 C 0.36458 0.30979 0.94208
 C3768 C 0.37432 0.31671 0.93534
 C3769 C 0.31941 0.27589 0.97473
 C3770 C 0.30868 0.26962 0.98052
 H3771 H 0.31401 0.30183 0.98604
 H3772 H 0.31531 0.32908 0.98860
 H3773 H 0.33391 0.34385 0.97361
 H3774 H 0.35145 0.33142 0.95609
 H3775 H 0.37065 0.28370 0.93156
 H3776 H 0.36880 0.25654 0.92840
 H3777 H 0.34981 0.24183 0.94295
 H3778 H 0.33257 0.25421 0.96082
 C3779 C 0.78506 0.46333 0.33147
 C3780 C 0.79709 0.47045 0.33958
 C3781 C 0.80567 0.46220 0.35060
 C3782 C 0.80211 0.44690 0.35351
 C3783 C 0.79058 0.43959 0.34488
 C3784 C 0.78199 0.44783 0.33385
 C3785 C 0.77077 0.44020 0.32509
 C3786 C 0.76824 0.42482 0.32704
 C3787 C 0.77664 0.41676 0.33783
 C3788 C 0.78763 0.42402 0.34675
 C3789 C 0.81780 0.46948 0.35838
 C3790 C 0.82141 0.48447 0.35531
 C3791 C 0.81300 0.49255 0.34455
 C3792 C 0.80096 0.48568 0.33675
 C3793 C 0.81008 0.43885 0.36562
 C3794 C 0.81654 0.43255 0.37604
 C3795 C 0.77681 0.47156 0.31969
 C3796 C 0.77061 0.47806 0.30925
 H3797 H 0.76400 0.44596 0.31650
 H3798 H 0.75975 0.41911 0.32011
 H3799 H 0.77466 0.40480 0.33928
 H3800 H 0.79396 0.41726 0.35492
 H3801 H 0.82473 0.46364 0.36680
 H3802 H 0.83080 0.48983 0.36128
 H3803 H 0.81586 0.50418 0.34218
 H3804 H 0.79479 0.49242 0.32845
 C3805 C 0.78025 0.96367 0.83362
 C3806 C 0.77963 0.94772 0.83392
 C3807 C 0.78845 0.93959 0.84486
 C3808 C 0.79767 0.94746 0.85554
 C3809 C 0.79821 0.96341 0.85531
 C3810 C 0.78948 0.97153 0.84431
 C3811 C 0.79030 0.98746 0.84420
 C3812 C 0.79949 0.99515 0.85466
 C3813 C 0.80803 0.98721 0.86543
 C3814 C 0.80744 0.97153 0.86581
 C3815 C 0.78796 0.92365 0.84468
 C3816 C 0.77903 0.91595 0.83398
 C3817 C 0.77033 0.92390 0.82335
 C3818 C 0.77055 0.93960 0.82329
 C3819 C 0.80645 0.93922 0.86694
 C3820 C 0.81363 0.93263 0.87666
 C3821 C 0.77249 0.97185 0.82147
 C3822 C 0.76681 0.97818 0.81063
 H3823 H 0.78383 0.99413 0.83606
 H3824 H 0.79999 1.00733 0.85442
 H3825 H 0.81516 0.99323 0.87354
 H3826 H 0.81432 0.96586 0.87438
 H3827 H 0.79457 0.91698 0.85269
 H3828 H 0.77890 0.90376 0.83390
 H3829 H 0.76346 0.91787 0.81502
 H3830 H 0.76365 0.94527 0.81474
 C3831 C 0.27673 0.78282 0.41311
 C3832 C 0.27801 0.79873 0.41284
 C3833 C 0.28607 0.80592 0.40074
 C3834 C 0.29249 0.79718 0.38879
 C3835 C 0.29095 0.78129 0.38891
 C3836 C 0.28308 0.77409 0.40113
 C3837 C 0.28181 0.75820 0.40109
 C3838 C 0.28812 0.74965 0.38929
 C3839 C 0.29581 0.75668 0.37732
 C3840 C 0.29724 0.77232 0.37707
 C3841 C 0.28757 0.82180 0.40095
 C3842 C 0.28113 0.83036 0.41267
 C3843 C 0.27301 0.82334 0.42434
 C3844 C 0.27147 0.80772 0.42452
 C3845 C 0.30053 0.80452 0.37630
 C3846 C 0.30713 0.81050 0.36582
 C3847 C 0.26982 0.77549 0.42626
 C3848 C 0.26470 0.76996 0.43779
 H3849 H 0.27590 0.75223 0.41014
 H3850 H 0.28704 0.73750 0.38943
 H3851 H 0.30069 0.74999 0.36818
 H3852 H 0.30334 0.77726 0.36754
 H3853 H 0.29372 0.82777 0.39206
 H3854 H 0.28237 0.84249 0.41267
 H3855 H 0.26785 0.83003 0.43330
 H3856 H 0.26510 0.80281 0.43390
 C3857 C 0.27685 0.28494 0.91452
 C3858 C 0.28493 0.27662 0.90333
 C3859 C 0.29313 0.28429 0.89164
 C3860 C 0.29324 0.30024 0.89125
 C3861 C 0.28514 0.30857 0.90243
 C3862 C 0.27681 0.30090 0.91403
 C3863 C 0.26871 0.30947 0.92503
 C3864 C 0.26901 0.32516 0.92471
 C3865 C 0.27730 0.33266 0.91348
 C3866 C 0.28526 0.32452 0.90241
 C3867 C 0.30118 0.27571 0.88060
 C3868 C 0.30113 0.26002 0.88112
 C3869 C 0.29312 0.25253 0.89256
 C3870 C 0.28509 0.26068 0.90357
 C3871 C 0.30152 0.30802 0.87921
 C3872 C 0.30830 0.31427 0.86901
 C3873 C 0.26962 0.27720 0.92725
 C3874 C 0.26431 0.27122 0.93845
 H3875 H 0.26216 0.30416 0.93405
 H3876 H 0.26288 0.33154 0.93331
 H3877 H 0.27760 0.34485 0.91336
 H3878 H 0.29155 0.33085 0.89390
 H3879 H 0.30761 0.28102 0.87149
 H3880 H 0.30736 0.25364 0.87259
 H3881 H 0.29312 0.24034 0.89291
 H3882 H 0.27898 0.25435 0.91222
 C3883 C 0.46414 0.28684 0.83159
 C3884 C 0.44863 0.28335 0.83440
 C3885 C 0.44011 0.29213 0.84498
 C3886 C 0.44718 0.30426 0.85279
 C3887 C 0.46250 0.30813 0.84952
 C3888 C 0.47102 0.29938 0.83890
 C3889 C 0.48629 0.30351 0.83574
 C3890 C 0.49295 0.31594 0.84287
 C3891 C 0.48461 0.32453 0.85322
 C3892 C 0.46957 0.32070 0.85657
 C3893 C 0.42450 0.28872 0.84727
 C3894 C 0.41747 0.27706 0.83920
 C3895 C 0.42581 0.26845 0.82887
 C3896 C 0.44123 0.27144 0.82652
 C3897 C 0.43890 0.31241 0.86457
 C3898 C 0.43224 0.31886 0.87472
 C3899 C 0.47260 0.27829 0.82025
 C3900 C 0.47907 0.27162 0.81013
 H3901 H 0.49322 0.29722 0.82772
 H3902 H 0.50463 0.31897 0.84029
 H3903 H 0.48982 0.33422 0.85866
 H3904 H 0.46352 0.32776 0.86465
 H3905 H 0.41752 0.29517 0.85511
 H3906 H 0.40548 0.27472 0.84095
 H3907 H 0.42028 0.25942 0.82260
 H3908 H 0.44720 0.26446 0.81831
 C3909 C 0.96581 0.28506 0.33200
 C3910 C 0.96959 0.28201 0.34750
 C3911 C 0.96197 0.28980 0.35948
 C3912 C 0.95061 0.30061 0.35590
 C3913 C 0.94683 0.30367 0.34039
 C3914 C 0.95444 0.29586 0.32840
 C3915 C 0.95043 0.29910 0.31298
 C3916 C 0.93926 0.30975 0.30954
 C3917 C 0.93183 0.31738 0.32126
 C3918 C 0.93553 0.31442 0.33654
 C3919 C 0.96594 0.28654 0.37491
 C3920 C 0.97712 0.27590 0.37837
 C3921 C 0.98458 0.26829 0.36663
 C3922 C 0.98090 0.27127 0.35135
 C3923 C 0.94289 0.30852 0.36821
 C3924 C 0.93672 0.31486 0.37874
 C3925 C 0.97357 0.27712 0.31973
 C3926 C 0.97963 0.27087 0.30910
 H3927 H 0.95587 0.29347 0.30343
 H3928 H 0.93634 0.31209 0.29769
 H3929 H 0.92317 0.32564 0.31850
 H3930 H 0.92944 0.32064 0.34528
 H3931 H 0.96047 0.29215 0.38445
 H3932 H 0.98002 0.27355 0.39023
 H3933 H 0.99325 0.26004 0.36938
 H3934 H 0.98701 0.26506 0.34262
 C3935 C 0.46286 0.32931 0.78430
 C3936 C 0.46971 0.33709 0.79672
 C3937 C 0.46110 0.34778 0.80521
 C3938 C 0.44571 0.35066 0.80118
 C3939 C 0.43867 0.34240 0.78919
 C3940 C 0.44728 0.33172 0.78069
 C3941 C 0.43990 0.32336 0.76897
 C3942 C 0.42442 0.32535 0.76591
 C3943 C 0.41600 0.33578 0.77424
 C3944 C 0.42301 0.34432 0.78570
 C3945 C 0.46813 0.35529 0.81770
 C3946 C 0.48323 0.35231 0.82171
 C3947 C 0.49166 0.34190 0.81338
 C3948 C 0.48504 0.33433 0.80103
 C3949 C 0.43733 0.36244 0.80906
 C3950 C 0.43075 0.37259 0.81542
 C3951 C 0.47143 0.31789 0.77611
 C3952 C 0.47808 0.30772 0.76989
 H3953 H 0.44594 0.31506 0.76223
 H3954 H 0.41892 0.31872 0.75705
 H3955 H 0.40397 0.33725 0.77185
 H3956 H 0.41597 0.35222 0.79195
 H3957 H 0.46201 0.36344 0.82458
 H3958 H 0.48841 0.35810 0.83135
 H3959 H 0.50339 0.33962 0.81654
 H3960 H 0.49205 0.32629 0.79493
 C3961 C 0.96351 0.32950 0.28422
 C3962 C 0.96745 0.33232 0.29976
 C3963 C 0.95893 0.34291 0.30847
 C3964 C 0.94660 0.35070 0.30157
 C3965 C 0.94227 0.34742 0.28625
 C3966 C 0.95076 0.33680 0.27754
 C3967 C 0.94614 0.33361 0.26230
 C3968 C 0.93346 0.34068 0.25585
 C3969 C 0.92512 0.35103 0.26437
 C3970 C 0.92945 0.35443 0.27939
 C3971 C 0.96276 0.34520 0.32410
 C3972 C 0.97458 0.33713 0.33098
 C3973 C 0.98294 0.32680 0.32247
 C3974 C 0.97953 0.32444 0.30701
 C3975 C 0.93868 0.36240 0.31005
 C3976 C 0.93241 0.37244 0.31689
 C3977 C 0.97178 0.31815 0.27560
 C3978 C 0.97822 0.30801 0.26909
 H3979 H 0.95222 0.32560 0.25523
 H3980 H 0.93004 0.33807 0.24419
 H3981 H 0.91524 0.35643 0.25933
 H3982 H 0.92256 0.36250 0.28559
 H3983 H 0.95651 0.35303 0.33122
 H3984 H 0.97724 0.33888 0.34300
 H3985 H 0.99208 0.32053 0.32788
 H3986 H 0.98631 0.31622 0.30090
 C3987 C 0.28361 0.83401 0.46946
 C3988 C 0.29977 0.83392 0.46943
 C3989 C 0.30790 0.84481 0.46071
 C3990 C 0.29981 0.85578 0.45213
 C3991 C 0.28366 0.85597 0.45230
 C3992 C 0.27554 0.84512 0.46109
 C3993 C 0.25940 0.84556 0.46113
 C3994 C 0.25149 0.85633 0.45260
 C3995 C 0.25942 0.86687 0.44392
 C3996 C 0.27532 0.86676 0.44374
 C3997 C 0.32404 0.84440 0.46075
 C3998 C 0.33194 0.83361 0.46925
 C3999 C 0.32401 0.82302 0.47784
 C4000 C 0.30811 0.82308 0.47793
 C4001 C 0.30809 0.86709 0.44344
 C4002 C 0.31484 0.87669 0.43640
 C4003 C 0.27538 0.82195 0.47706
 C4004 C 0.26908 0.81122 0.48267
 H4005 H 0.25274 0.83758 0.46770
 H4006 H 0.23914 0.85648 0.45272
 H4007 H 0.25322 0.87519 0.43729
 H4008 H 0.28097 0.87518 0.43680
 H4009 H 0.33072 0.85238 0.45420
 H4010 H 0.34429 0.83342 0.46910
 H4011 H 0.33020 0.81462 0.48437
 H4012 H 0.30246 0.81456 0.48475
 C4013 C 0.28279 0.33262 0.96764
 C4014 C 0.28078 0.34806 0.97104
 C4015 C 0.28909 0.35911 0.96273
 C4016 C 0.29938 0.35464 0.95106
 C4017 C 0.30147 0.33918 0.94771
 C4018 C 0.29315 0.32812 0.95602
 C4019 C 0.29545 0.31271 0.95246
 C4020 C 0.30566 0.30837 0.94105
 C4021 C 0.31378 0.31919 0.93294
 C4022 C 0.31176 0.33443 0.93618
 C4023 C 0.28687 0.37450 0.96634
 C4024 C 0.27673 0.37883 0.97783
 C4025 C 0.26861 0.36801 0.98594
 C4026 C 0.27056 0.35277 0.98263
 C4027 C 0.30770 0.36601 0.94249
 C4028 C 0.31436 0.37577 0.93559
 C4029 C 0.27431 0.32124 0.97600
 C4030 C 0.26784 0.31097 0.98227
 H4031 H 0.28942 0.30385 0.95845
 H4032 H 0.30727 0.29654 0.93850
 H4033 H 0.32170 0.31575 0.92410
 H4034 H 0.31835 0.34243 0.92958
 H4035 H 0.29292 0.38335 0.96036
 H4036 H 0.27518 0.39066 0.98044
 H4037 H 0.26075 0.37143 0.99486
 H4038 H 0.26400 0.34476 0.98925
 C4039 C 0.78822 0.42013 0.28341
 C4040 C 0.78584 0.40480 0.27971
 C4041 C 0.79364 0.39340 0.28807
 C4042 C 0.80380 0.39742 0.30007
 C4043 C 0.80632 0.41277 0.30368
 C4044 C 0.79848 0.42416 0.29535
 C4045 C 0.80114 0.43944 0.29921
 C4046 C 0.81131 0.44331 0.31089
 C4047 C 0.81899 0.43216 0.31900
 C4048 C 0.81655 0.41704 0.31551
 C4049 C 0.79104 0.37813 0.28417
 C4050 C 0.78103 0.37424 0.27235
 C4051 C 0.77341 0.38540 0.26418
 C4052 C 0.77573 0.40053 0.26777
 C4053 C 0.81155 0.38573 0.30873
 C4054 C 0.81778 0.37575 0.31574
 C4055 C 0.78010 0.43181 0.27508
 C4056 C 0.77369 0.44207 0.26871
 H4057 H 0.79546 0.44855 0.29324
 H4058 H 0.81324 0.45504 0.31366
 H4059 H 0.82688 0.43526 0.32806
 H4060 H 0.82279 0.40877 0.32214
 H4061 H 0.79671 0.36904 0.29018
 H4062 H 0.77918 0.36250 0.26952
 H4063 H 0.76564 0.38232 0.25501
 H4064 H 0.76955 0.40881 0.26108
   
