data_POSCAR
  _audit_creation_date              2014-09-24
  _audit_creation_method            'ToBaCCo'
  _symmetry_space_group_name_H-M    'P1'
  _symmetry_Int_Tables_number       1
  _symmetry_cell_setting            triclinic
  loop_
  _symmetry_equiv_pos_as_xyz
 x,y,z
_cell_length_a 70.8082
_cell_length_b 70.3654
_cell_length_c 70.6526
_cell_angle_alpha 89.588000
_cell_angle_beta 89.829800
_cell_angle_gamma 89.802700
loop_
  _atom_site_label
  _atom_site_type_symbol
  _atom_site_fract_x
  _atom_site_fract_y
  _atom_site_fract_z
C1 C 0.74901 0.61402 1.02387
 C2 C 0.75879 0.62164 1.00836
 C3 C 0.77628 0.63041 1.01105
 C4 C 0.78401 0.63218 1.02932
 C5 C 0.77405 0.62396 1.04469
 C6 C 0.75649 0.61480 1.04231
 C7 C 0.75014 0.62121 0.98936
 C8 C 0.73203 0.62885 0.98657
 C9 C 0.72349 0.62837 0.96868
 C10 C 0.73324 0.61988 0.95357
 C11 C 0.75134 0.61203 0.95617
 C12 C 0.75978 0.61294 0.97412
 H13 H 0.73519 0.60804 1.02135
 H14 H 0.78303 0.63696 0.99890
 H15 H 0.72457 0.63510 0.99842
 H16 H 0.77379 0.60708 0.97632
 H17 H 0.78076 0.62347 1.05839
 H18 H 0.72669 0.61930 0.93975
 C19 C 0.74486 0.39666 0.47160
 C20 C 0.75442 0.38815 0.48685
 C21 C 0.77208 0.37958 0.48380
 C22 C 0.78010 0.37919 0.46560
 C23 C 0.77050 0.38806 0.45055
 C24 C 0.75284 0.39677 0.45338
 C25 C 0.74557 0.38740 0.50582
 C26 C 0.72727 0.38016 0.50805
 C27 C 0.71903 0.37836 0.52611
 C28 C 0.72924 0.38476 0.54191
 C29 C 0.74736 0.39266 0.53984
 C30 C 0.75555 0.39353 0.52173
 H31 H 0.73108 0.40299 0.47394
 H32 H 0.77913 0.37245 0.49545
 H33 H 0.71960 0.37572 0.49562
 H34 H 0.76971 0.39907 0.51992
 H35 H 0.77687 0.38828 0.43660
 H36 H 0.72310 0.38363 0.55591
 C37 C 0.24975 -0.10737 -0.02202
 C38 C 0.25956 -0.11599 -0.00706
 C39 C 0.27692 -0.12501 -0.01053
 C40 C 0.28439 -0.12615 -0.02906
 C41 C 0.27425 -0.11713 -0.04385
 C42 C 0.25708 -0.10766 -0.04046
 C43 C 0.25116 -0.11623 0.01211
 C44 C 0.23313 -0.12397 0.01492
 C45 C 0.22477 -0.12468 0.03309
 C46 C 0.23494 -0.11666 0.04826
 C47 C 0.25306 -0.10891 0.04565
 C48 C 0.26115 -0.10900 0.02750
 H49 H 0.23652 -0.10014 -0.01915
 H50 H 0.28374 -0.13225 0.00118
 H51 H 0.22632 -0.13038 0.00288
 H52 H 0.27520 -0.10335 0.02524
 H53 H 0.27979 -0.11706 -0.05812
 H54 H 0.22850 -0.11550 0.06209
 C55 C 0.24356 0.11447 0.52980
 C56 C 0.25335 0.12213 0.51424
 C57 C 0.27144 0.12978 0.51683
 C58 C 0.27969 0.13002 0.53489
 C59 C 0.26984 0.12192 0.55024
 C60 C 0.25181 0.11411 0.54783
 C61 C 0.24456 0.12223 0.49530
 C62 C 0.22638 0.12981 0.49280
 C63 C 0.21776 0.12975 0.47493
 C64 C 0.22744 0.12162 0.45958
 C65 C 0.24558 0.11379 0.46189
 C66 C 0.25414 0.11438 0.47979
 H67 H 0.22971 0.10833 0.52773
 H68 H 0.27878 0.13611 0.50488
 H69 H 0.21897 0.13576 0.50483
 H70 H 0.26801 0.10815 0.48185
 H71 H 0.27618 0.12180 0.56417
 H72 H 0.22105 0.12180 0.44567
 C73 C 0.11067 0.52551 0.24334
 C74 C 0.11768 0.50965 0.25322
 C75 C 0.12655 0.51205 0.27071
 C76 C 0.12886 0.53025 0.27822
 C77 C 0.12151 0.54604 0.26837
 C78 C 0.11217 0.54402 0.25084
 C79 C 0.11611 0.49052 0.24498
 C80 C 0.12424 0.48675 0.22728
 C81 C 0.12343 0.46844 0.21955
 C82 C 0.11376 0.45408 0.22949
 C83 C 0.10541 0.45770 0.24717
 C84 C 0.10688 0.47594 0.25495
 H85 H 0.10323 0.52300 0.23026
 H86 H 0.13234 0.49979 0.27806
 H87 H 0.13184 0.49792 0.21991
 H88 H 0.10048 0.47897 0.26855
 H89 H 0.12381 0.55997 0.27427
 H90 H 0.11294 0.43995 0.22356
 C91 C -0.10808 -0.02780 0.24681
 C92 C -0.11575 -0.01197 0.25593
 C93 C -0.12375 -0.01410 0.27402
 C94 C -0.12487 -0.03211 0.28304
 C95 C -0.11715 -0.04786 0.27327
 C96 C -0.10856 -0.04575 0.25544
 C97 C -0.11567 0.00685 0.24642
 C98 C -0.12270 0.00884 0.22795
 C99 C -0.12345 0.02676 0.21874
 C100 C -0.11616 0.04254 0.22866
 C101 C -0.10861 0.04060 0.24693
 C102 C -0.10869 0.02276 0.25582
 H103 H -0.10173 -0.02613 0.23291
 H104 H -0.12878 -0.00140 0.28094
 H105 H -0.12728 -0.00391 0.22091
 H106 H -0.10284 0.02113 0.26990
 H107 H -0.11803 -0.06206 0.27908
 H108 H -0.11707 0.05675 0.22285
 C109 C 0.38645 0.47117 0.74186
 C110 C 0.37813 0.48671 0.75088
 C111 C 0.36914 0.48418 0.76843
 C112 C 0.36822 0.46608 0.77726
 C113 C 0.37715 0.45071 0.76792
 C114 C 0.38618 0.45311 0.75032
 C115 C 0.37890 0.50573 0.74192
 C116 C 0.37221 0.50847 0.72342
 C117 C 0.37318 0.52645 0.71471
 C118 C 0.38133 0.54159 0.72461
 C119 C 0.38814 0.53903 0.74310
 C120 C 0.38666 0.52107 0.75175
 H121 H 0.39365 0.47331 0.72846
 H122 H 0.36206 0.49636 0.77444
 H123 H 0.36619 0.49661 0.71586
 H124 H 0.39208 0.51884 0.76593
 H125 H 0.37758 0.43675 0.77434
 H126 H 0.38184 0.55559 0.71814
 C127 C 0.60927 1.02225 0.74613
 C128 C 0.61644 1.00657 0.75612
 C129 C 0.62481 1.00919 0.77389
 C130 C 0.62668 1.02754 0.78164
 C131 C 0.61886 1.04303 0.77147
 C132 C 0.61011 1.04049 0.75388
 C133 C 0.61596 0.98748 0.74759
 C134 C 0.62423 0.98446 0.72978
 C135 C 0.62471 0.96621 0.72191
 C136 C 0.61626 0.95106 0.73181
 C137 C 0.60769 0.95391 0.74954
 C138 C 0.60778 0.97218 0.75742
 H139 H 0.60265 1.02016 0.73249
 H140 H 0.63105 0.99695 0.78085
 H141 H 0.63095 0.99620 0.72243
 H142 H 0.60155 0.97454 0.77124
 H143 H 0.61919 1.05721 0.77727
 H144 H 0.61608 0.93708 0.72551
 C145 C -0.02571 0.24435 -0.10791
 C146 C -0.01085 0.25446 -0.11630
 C147 C -0.01420 0.27268 -0.12384
 C148 C -0.03247 0.28088 -0.12344
 C149 C -0.04707 0.27043 -0.11451
 C150 C -0.04382 0.25231 -0.10675
 C151 C 0.00822 0.24586 -0.11704
 C152 C 0.01070 0.22742 -0.12411
 C153 C 0.02849 0.21833 -0.12357
 C154 C 0.04376 0.22831 -0.11559
 C155 C 0.04155 0.24692 -0.10887
 C156 C 0.02375 0.25566 -0.10979
 H157 H -0.02301 0.23046 -0.10174
 H158 H -0.00262 0.27978 -0.13093
 H159 H -0.00157 0.21999 -0.12935
 H160 H 0.02182 0.26983 -0.10417
 H161 H -0.06107 0.27643 -0.11306
 H162 H 0.05779 0.22215 -0.11553
 C163 C 0.52616 0.24432 0.10726
 C164 C 0.51087 0.25493 0.11418
 C165 C 0.51372 0.27365 0.12017
 C166 C 0.53174 0.28184 0.11940
 C167 C 0.54686 0.27121 0.11202
 C168 C 0.54424 0.25242 0.10589
 C169 C 0.49186 0.24647 0.11548
 C170 C 0.48888 0.23001 0.12633
 C171 C 0.47060 0.22271 0.12874
 C172 C 0.45533 0.23197 0.11990
 C173 C 0.45811 0.24822 0.10847
 C174 C 0.47656 0.25533 0.10642
 H175 H 0.52389 0.22976 0.10295
 H176 H 0.50187 0.28176 0.12562
 H177 H 0.50072 0.22333 0.13347
 H178 H 0.47927 0.26764 0.09755
 H179 H 0.56074 0.27756 0.11118
 H180 H 0.44123 0.22646 0.12203
 C181 C 1.02381 0.74759 0.61054
 C182 C 1.00892 0.75782 0.61871
 C183 C 1.01224 0.77594 0.62612
 C184 C 1.03036 0.78421 0.62529
 C185 C 1.04499 0.77382 0.61643
 C186 C 1.04191 0.75552 0.60921
 C187 C 0.98972 0.74972 0.61921
 C188 C 0.98642 0.73209 0.62802
 C189 C 0.96807 0.72463 0.62898
 C190 C 0.95315 0.73474 0.62048
 C191 C 0.95628 0.75229 0.61143
 C192 C 0.97463 0.75976 0.61101
 H193 H 1.02119 0.73347 0.60514
 H194 H 1.00041 0.78367 0.63205
 H195 H 0.99804 0.72455 0.63465
 H196 H 0.97723 0.77341 0.60431
 H197 H 1.05911 0.77957 0.61566
 H198 H 0.93909 0.72873 0.62058
 C199 C 0.47535 0.74406 0.39031
 C200 C 0.49041 0.75301 0.38098
 C201 C 0.48761 0.77080 0.37234
 C202 C 0.46982 0.77976 0.37295
 C203 C 0.45499 0.77077 0.38284
 C204 C 0.45759 0.75289 0.39143
 C205 C 0.50913 0.74372 0.38045
 C206 C 0.51106 0.72530 0.37322
 C207 C 0.52868 0.71613 0.37327
 C208 C 0.54438 0.72547 0.38091
 C209 C 0.54269 0.74396 0.38816
 C210 C 0.52499 0.75305 0.38769
 H211 H 0.47764 0.73040 0.39713
 H212 H 0.49919 0.77731 0.36466
 H213 H 0.49880 0.71810 0.36760
 H214 H 0.52344 0.76733 0.39312
 H215 H 0.44129 0.77759 0.38371
 H216 H 0.55794 0.71831 0.38119
 C217 C 0.39452 -0.01917 0.28478
 H218 H 0.38471 -0.01138 0.29351
 C219 C 0.40482 -0.03407 0.29284
 H220 H 0.40223 -0.03775 0.30752
 C221 C 0.40915 -0.02422 0.25509
 H222 H 0.41083 -0.02034 0.24038
 C223 C 0.41998 -0.03908 0.26266
 H224 H 0.42998 -0.04633 0.25360
 N225 N 0.39637 -0.01487 0.26607
 C226 C 0.38371 0.03623 0.23328
 H227 H 0.36872 0.03403 0.23137
 C228 C 0.39241 0.05204 0.22518
 H229 H 0.38405 0.06189 0.21682
 C230 C 0.41274 0.02591 0.24655
 H231 H 0.42049 0.01578 0.25512
 C232 C 0.42208 0.04155 0.23857
 H233 H 0.43703 0.04340 0.24108
 Zn234 Zn 0.37994 0.00362 0.25499
 N235 N 0.39385 0.02370 0.24391
 C236 C 0.36587 0.03256 0.27864
 N237 N 0.36379 0.01393 0.27408
 C238 C 0.35139 0.00265 0.28370
 C239 C 0.34064 0.01002 0.29860
 C240 C 0.35546 0.04046 0.29342
 C241 C 0.37551 -0.01187 0.21906
 C242 C 0.36631 -0.01987 0.20362
 C243 C 0.33719 -0.01915 0.22146
 C244 C 0.34692 -0.01095 0.23651
 N245 N 0.36584 -0.00774 0.23519
 H246 H 0.37597 0.04130 0.27117
 H247 H 0.35031 -0.01225 0.28023
 H248 H 0.33123 0.00071 0.30639
 H249 H 0.35741 0.05531 0.29682
 H250 H 0.39037 -0.00861 0.21801
 H251 H 0.37431 -0.02316 0.19097
 H252 H 0.32214 -0.02158 0.22272
 H253 H 0.33925 -0.00705 0.24910
 C254 C 0.41179 0.05498 0.22794
 C255 C 0.41757 -0.04453 0.28170
 C256 C 0.34691 -0.02370 0.20474
 C257 C 0.34279 0.02912 0.30376
 C258 C 0.08889 1.01392 0.77965
 H259 H 0.08943 0.99938 0.78472
 C260 C 0.07789 1.02731 0.78923
 H261 H 0.06982 1.02299 0.80156
 C262 C 0.09970 1.03758 0.75821
 H263 H 0.10867 1.04173 0.74652
 C264 C 0.08862 1.05131 0.76711
 H265 H 0.08920 1.06590 0.76217
 N266 N 0.09996 1.01935 0.76479
 C267 C 0.11619 0.97039 0.73105
 H268 H 0.13097 0.97363 0.72913
 C269 C 0.10826 0.95546 0.72103
 H270 H 0.11729 0.94689 0.71209
 C271 C 0.08650 0.97808 0.74453
 H272 H 0.07800 0.98716 0.75342
 C273 C 0.07792 0.96326 0.73466
 H274 H 0.06285 0.96110 0.73608
 Zn275 Zn 0.11773 1.00191 0.75447
 N276 N 0.10537 0.98127 0.74267
 C277 C 0.14650 0.97858 0.77036
 N278 N 0.13397 0.99279 0.77409
 C279 C 0.13278 1.00045 0.79170
 C280 C 0.14374 0.99325 0.80651
 C281 C 0.15783 0.97103 0.78474
 C282 C 0.12345 1.01804 0.71880
 C283 C 0.13332 1.02680 0.70406
 C284 C 0.16092 1.02779 0.72406
 C285 C 0.15051 1.01892 0.73844
 N286 N 0.13212 1.01429 0.73555
 H287 H 0.14772 0.97297 0.75626
 H288 H 0.12329 1.01214 0.79440
 H289 H 0.14203 0.99918 0.82050
 H290 H 0.16768 0.95974 0.78140
 H291 H 0.10883 1.01408 0.71688
 H292 H 0.12622 1.02932 0.69072
 H293 H 0.17547 1.03162 0.72668
 H294 H 0.15708 1.01583 0.75191
 C295 C 0.08885 0.95177 0.72263
 C296 C 0.07796 1.04632 0.78313
 C297 C 0.15233 1.03183 0.70656
 C298 C 0.15633 0.97816 0.80320
 C299 C 0.58989 0.51418 0.27080
 H300 H 0.59073 0.49955 0.27554
 C301 C 0.57918 0.52731 0.28104
 H302 H 0.57158 0.52266 0.29355
 C303 C 0.59958 0.53826 0.24928
 H304 H 0.60805 0.54266 0.23732
 C305 C 0.58890 0.55178 0.25895
 H306 H 0.58927 0.56646 0.25425
 N307 N 0.60003 0.51989 0.25541
 C308 C 0.61545 0.47114 0.22105
 H309 H 0.63057 0.47330 0.22072
 C310 C 0.60748 0.45653 0.21058
 H311 H 0.61662 0.44731 0.20241
 C312 C 0.58529 0.48054 0.23232
 H313 H 0.57674 0.49010 0.24067
 C314 C 0.57670 0.46596 0.22211
 H315 H 0.56150 0.46440 0.22266
 Zn316 Zn 0.61710 0.50240 0.24440
 N317 N 0.60437 0.48274 0.23167
 C318 C 0.63217 0.47299 0.26746
 N319 N 0.63193 0.49206 0.26423
 C320 C 0.64125 0.50421 0.27579
 C321 C 0.65151 0.49725 0.29123
 C322 C 0.64219 0.46543 0.28276
 C323 C 0.62374 0.52063 0.20997
 C324 C 0.63406 0.52945 0.19557
 C325 C 0.66217 0.52598 0.21460
 C326 C 0.65130 0.51715 0.22864
 N327 N 0.63241 0.51483 0.22617
 H328 H 0.62439 0.46358 0.25837
 H329 H 0.64049 0.51935 0.27313
 H330 H 0.65861 0.50715 0.30044
 H331 H 0.64231 0.45020 0.28502
 H332 H 0.60876 0.51828 0.20823
 H333 H 0.62690 0.53369 0.18269
 H334 H 0.67714 0.52798 0.21695
 H335 H 0.65800 0.51212 0.24145
 C336 C 0.58786 0.45380 0.21098
 C337 C 0.57884 0.54645 0.27527
 C338 C 0.65356 0.53228 0.19779
 C339 C 0.65196 0.47762 0.29493
 C340 C 0.90716 0.48393 0.77343
 H341 H 0.90795 0.49836 0.77855
 C342 C 0.91649 0.46928 0.78314
 H343 H 0.92451 0.47252 0.79573
 C344 C 0.89449 0.46192 0.75168
 H345 H 0.88548 0.45895 0.73977
 C346 C 0.90351 0.44690 0.76095
 H347 H 0.90159 0.43257 0.75582
 N348 N 0.89616 0.47997 0.75821
 C349 C 0.88325 0.53186 0.72678
 H350 H 0.86818 0.52964 0.72567
 C351 C 0.89140 0.54786 0.71854
 H352 H 0.88252 0.55782 0.71088
 C353 C 0.91303 0.52135 0.73807
 H354 H 0.92132 0.51096 0.74577
 C355 C 0.92184 0.53725 0.72993
 H356 H 0.93692 0.53910 0.73157
 Zn357 Zn 0.88028 0.49910 0.74795
 N358 N 0.89399 0.51921 0.73663
 C359 C 0.86569 0.52775 0.77183
 N360 N 0.86532 0.50883 0.76803
 C361 C 0.85517 0.49660 0.77901
 C362 C 0.84455 0.50335 0.79429
 C363 C 0.85524 0.53510 0.78685
 C364 C 0.87385 0.48428 0.71223
 C365 C 0.86372 0.47676 0.69715
 C366 C 0.83543 0.47818 0.71631
 C367 C 0.84609 0.48591 0.73098
 N368 N 0.86498 0.48862 0.72874
 H369 H 0.87429 0.53723 0.76340
 H370 H 0.85540 0.48156 0.77592
 H371 H 0.83640 0.49345 0.80277
 H372 H 0.85592 0.55018 0.78974
 H373 H 0.88887 0.48669 0.71080
 H374 H 0.87106 0.47325 0.68417
 H375 H 0.82040 0.47611 0.71825
 H376 H 0.83923 0.48973 0.74410
 C377 C 0.91088 0.55091 0.72032
 C378 C 0.91425 0.45042 0.77720
 C379 C 0.84427 0.47357 0.69912
 C380 C 0.84445 0.52288 0.79830
 C381 C 0.27812 0.39939 -0.02113
 H382 H 0.28721 0.39112 -0.01200
 C383 C 0.28611 0.41002 -0.03583
 H384 H 0.30121 0.40912 -0.03806
 C385 C 0.24751 0.40990 -0.02961
 H386 H 0.23243 0.40964 -0.02728
 C387 C 0.25493 0.42102 -0.04430
 H388 H 0.24539 0.42943 -0.05291
 N389 N 0.25906 0.39884 -0.01879
 C390 C 0.22419 0.38310 0.02956
 H391 H 0.22202 0.36827 0.02632
 C392 C 0.21534 0.39108 0.04524
 H393 H 0.20617 0.38232 0.05393
 C394 C 0.23883 0.41247 0.02204
 H395 H 0.24818 0.42062 0.01301
 C396 C 0.23016 0.42108 0.03762
 H397 H 0.23297 0.43588 0.04058
 Zn398 Zn 0.24807 0.38103 -0.00162
 N399 N 0.23591 0.39373 0.01852
 C400 C 0.26865 0.36258 0.02753
 N401 N 0.26704 0.36450 0.00844
 C402 C 0.27924 0.35541 -0.00339
 C403 C 0.29430 0.34477 0.00389
 C404 C 0.28306 0.35156 0.03540
 C405 C 0.21223 0.37548 -0.01675
 C406 C 0.19729 0.36570 -0.02496
 C407 C 0.21780 0.33847 -0.02866
 C408 C 0.23234 0.34872 -0.02016
 N409 N 0.22933 0.36691 -0.01443
 H410 H 0.25890 0.36977 0.03682
 H411 H 0.27775 0.35711 -0.01854
 H412 H 0.30435 0.33867 -0.00591
 H413 H 0.28360 0.35008 0.05063
 H414 H 0.21004 0.38982 -0.01179
 H415 H 0.18376 0.37274 -0.02658
 H416 H 0.22031 0.32392 -0.03292
 H417 H 0.24590 0.34203 -0.01797
 C418 C 0.21847 0.41023 0.04961
 C419 C 0.27445 0.42064 -0.04806
 C420 C 0.19996 0.34692 -0.03094
 C421 C 0.29655 0.34286 0.02362
 C422 C 0.77421 0.08460 1.01534
 H423 H 0.77833 0.08259 1.00073
 C424 C 0.78312 0.07413 1.02967
 H425 H 0.79369 0.06370 1.02582
 C426 C 0.75566 0.10094 1.03797
 H427 H 0.74538 0.11182 1.04123
 C428 C 0.76443 0.09108 1.05271
 H429 H 0.76070 0.09469 1.06711
 N430 N 0.76070 0.09765 1.01970
 C431 C 0.73015 0.11043 0.96763
 H432 H 0.72963 0.12571 0.96923
 C433 C 0.72168 0.10203 0.95204
 H434 H 0.71445 0.11097 0.94183
 C435 C 0.73988 0.08035 0.97940
 H436 H 0.74686 0.07197 0.99018
 C437 C 0.73164 0.07131 0.96390
 H438 H 0.73268 0.05601 0.96274
 Zn439 Zn 0.75062 0.11354 1.00049
 N440 N 0.73931 0.09963 0.98073
 C441 C 0.77559 0.12693 0.97205
 N442 N 0.77077 0.12827 0.99065
 C443 C 0.78087 0.13926 1.00270
 C444 C 0.79627 0.14977 0.99607
 C445 C 0.79091 0.13711 0.96486
 C446 C 0.71542 0.12005 1.01648
 C447 C 0.70025 0.13030 1.02386
 C448 C 0.71820 0.15916 1.01950
 C449 C 0.73299 0.14835 1.01198
 N450 N 0.73140 0.12913 1.01079
 H451 H 0.76773 0.11779 0.96276
 H452 H 0.77700 0.13974 1.01751
 H453 H 0.80424 0.15832 1.00588
 H454 H 0.79440 0.13598 0.94997
 H455 H 0.71451 0.10477 1.01523
 H456 H 0.68770 0.12281 1.02845
 H457 H 0.71961 0.17446 1.02032
 H458 H 0.74564 0.15535 1.00704
 C459 C 0.72262 0.08223 0.94982
 C460 C 0.77847 0.07749 1.04874
 C461 C 0.70155 0.15011 1.02547
 C462 C 0.80150 0.14870 0.97691
 C463 C 0.27309 0.59476 0.51379
 H464 H 0.27891 0.59433 0.49962
 C465 C 0.28230 0.58527 0.52859
 H466 H 0.29524 0.57757 0.52567
 C467 C 0.24993 0.60654 0.53499
 H468 H 0.23762 0.61524 0.53758
 C469 C 0.25862 0.59725 0.55015
 H470 H 0.25259 0.59860 0.56418
 N471 N 0.25738 0.60535 0.51728
 C472 C 0.22878 0.61645 0.46383
 H473 H 0.22788 0.63176 0.46482
 C474 C 0.22124 0.60725 0.44822
 H475 H 0.21437 0.61558 0.43727
 C476 C 0.23864 0.58705 0.47717
 H477 H 0.24544 0.57929 0.48854
 C478 C 0.23114 0.57721 0.46178
 H479 H 0.23240 0.56188 0.46129
 Zn480 Zn 0.24764 0.62088 0.49763
 N481 N 0.23757 0.60635 0.47773
 C482 C 0.27333 0.63444 0.46995
 N483 N 0.26790 0.63590 0.48838
 C484 C 0.27761 0.64697 0.50068
 C485 C 0.29327 0.65739 0.49449
 C486 C 0.28893 0.64450 0.46322
 C487 C 0.21138 0.62703 0.51144
 C488 C 0.19599 0.63708 0.51864
 C489 C 0.21438 0.66588 0.51657
 C490 C 0.22939 0.65529 0.50918
 N491 N 0.22773 0.63617 0.50706
 H492 H 0.26583 0.62520 0.46047
 H493 H 0.27332 0.64751 0.51537
 H494 H 0.30097 0.66596 0.50451
 H495 H 0.29295 0.64320 0.44848
 H496 H 0.21041 0.61183 0.50946
 H497 H 0.18320 0.62950 0.52237
 H498 H 0.21592 0.68108 0.51830
 H499 H 0.24234 0.66238 0.50526
 C500 C 0.22254 0.58740 0.44694
 C501 C 0.27529 0.58681 0.54714
 C502 C 0.19744 0.65673 0.52144
 C503 C 0.29917 0.65610 0.47555
 C504 C 0.76922 0.90979 0.48490
 H505 H 0.77274 0.91203 0.49960
 C506 C 0.77820 0.92048 0.47076
 H507 H 0.78823 0.93128 0.47482
 C508 C 0.75218 0.89269 0.46185
 H509 H 0.74252 0.88142 0.45834
 C510 C 0.76101 0.90279 0.44731
 H511 H 0.75794 0.89899 0.43283
 N512 N 0.75640 0.89628 0.48024
 C513 C 0.72457 0.88275 0.53159
 H514 H 0.72455 0.86748 0.52996
 C515 C 0.71579 0.89090 0.54723
 H516 H 0.70883 0.88177 0.55747
 C517 C 0.73360 0.91308 0.52001
 H518 H 0.74051 0.92165 0.50932
 C519 C 0.72494 0.92188 0.53551
 H520 H 0.72554 0.93719 0.53677
 Zn521 Zn 0.74608 0.88017 0.49920
 N522 N 0.73364 0.89380 0.51862
 C523 C 0.77024 0.86733 0.52849
 N524 N 0.76628 0.86591 0.50973
 C525 C 0.77724 0.85520 0.49806
 C526 C 0.79268 0.84508 0.50527
 C527 C 0.78548 0.85744 0.53627
 C528 C 0.71206 0.87294 0.48143
 C529 C 0.69776 0.86243 0.47301
 C530 C 0.71575 0.83382 0.47921
 C531 C 0.72975 0.84492 0.48756
 N532 N 0.72776 0.86414 0.48829
 H533 H 0.76182 0.87639 0.53746
 H534 H 0.77399 0.85458 0.48313
 H535 H 0.80113 0.83645 0.49582
 H536 H 0.78852 0.85900 0.55119
 H537 H 0.71074 0.88822 0.48246
 H538 H 0.68533 0.86974 0.46778
 H539 H 0.71772 0.81859 0.47842
 H540 H 0.74218 0.83817 0.49339
 C541 C 0.71622 0.91068 0.54956
 C542 C 0.77431 0.91689 0.45159
 C543 C 0.69953 0.84260 0.47168
 C544 C 0.79693 0.84610 0.52465
 C545 C -0.01920 0.27399 0.40651
 H546 H -0.00528 0.28028 0.40688
 C547 C -0.03436 0.28300 0.41552
 H548 H -0.03198 0.29627 0.42279
 C549 C -0.03943 0.24982 0.39531
 H550 H -0.04153 0.23718 0.38704
 C551 C -0.05489 0.25824 0.40420
 H552 H -0.06862 0.25164 0.40298
 N553 N -0.02205 0.25788 0.39638
 C554 C 0.03058 0.22746 0.38638
 H555 H 0.02973 0.22668 0.37112
 C556 C 0.04519 0.21823 0.39590
 H557 H 0.05572 0.21055 0.38783
 C558 C 0.01783 0.23861 0.41533
 H559 H 0.00697 0.24640 0.42279
 C560 C 0.03235 0.22966 0.42547
 H561 H 0.03259 0.23060 0.44075
 Zn562 Zn -0.00213 0.24824 0.38129
 N563 N 0.01730 0.23739 0.39613
 C564 C 0.02612 0.27352 0.36829
 N565 N 0.00759 0.26872 0.36676
 C566 C -0.00446 0.27914 0.35586
 C567 C 0.00209 0.29491 0.34568
 C568 C 0.03322 0.28922 0.35847
 C569 C -0.01547 0.21189 0.37436
 C570 C -0.02247 0.19666 0.36404
 C571 C -0.02078 0.21607 0.33574
 C572 C -0.01360 0.23091 0.34660
 N573 N -0.01137 0.22865 0.36560
 H574 H 0.03541 0.26535 0.37733
 H575 H -0.01922 0.27530 0.35525
 H576 H -0.00773 0.30316 0.33722
 H577 H 0.04803 0.29273 0.35978
 H578 H -0.01343 0.21045 0.38947
 H579 H -0.02596 0.18354 0.37134
 H580 H -0.02257 0.21807 0.32064
 H581 H -0.00993 0.24419 0.33982
 C582 C 0.04618 0.21919 0.41570
 C583 C -0.05260 0.27534 0.41405
 C584 C -0.02533 0.19869 0.34449
 C585 C 0.02115 0.30017 0.34702
 C586 C 1.02633 0.78400 0.10395
 H587 H 1.01942 0.79140 0.11536
 C588 C 1.04069 0.79312 0.09389
 H589 H 1.04479 0.80729 0.09805
 C590 C 1.02995 0.75639 0.08533
 H591 H 1.02569 0.74204 0.08207
 C592 C 1.04438 0.76501 0.07483
 H593 H 1.05109 0.75719 0.06350
 N594 N 1.02164 0.76573 0.09997
 C595 C 0.97300 0.72961 0.11224
 H596 H 0.97561 0.72698 0.12708
 C597 C 0.95734 0.72148 0.10366
 H598 H 0.94822 0.71233 0.11198
 C599 C 0.98163 0.74495 0.08354
 H600 H 0.99091 0.75449 0.07591
 C601 C 0.96604 0.73707 0.07435
 H602 H 0.96346 0.74058 0.05963
 Zn603 Zn 1.00420 0.75290 0.11617
 N604 N 0.98469 0.74122 0.10222
 C605 C 0.97471 0.77592 0.13025
 N606 N 0.99301 0.77062 0.13295
 C607 C 1.00345 0.77805 0.14722
 C608 C 0.99565 0.79172 0.15920
 C609 C 0.96632 0.78941 0.14199
 C610 C 1.03235 0.72483 0.12382
 C611 C 1.04088 0.71018 0.13418
 C612 C 1.01745 0.71451 0.15868
 C613 C 1.00939 0.72909 0.14787
 N614 N 1.01679 0.73387 0.13069
 H615 H 0.96669 0.76998 0.11875
 H616 H 1.01795 0.77354 0.14909
 H617 H 1.00419 0.79761 0.17040
 H618 H 0.95187 0.79376 0.13935
 H619 H 1.03809 0.72869 0.11020
 H620 H 1.05298 0.70288 0.12823
 H621 H 1.01133 0.71094 0.17230
 H622 H 0.99704 0.73647 0.15311
 C623 C 0.95350 0.72540 0.08456
 C624 C 1.05026 0.78348 0.07939
 C625 C 1.03334 0.70474 0.15179
 C626 C 0.97687 0.79762 0.15657
 C627 C 0.51783 0.27212 0.58658
 H628 H 0.50321 0.27582 0.58412
 C629 C 0.53201 0.28092 0.57586
 H630 H 0.52799 0.29080 0.56477
 C631 C 0.54072 0.25520 0.60438
 H632 H 0.54417 0.24555 0.61581
 C633 C 0.55529 0.26393 0.59431
 H634 H 0.56970 0.26085 0.59841
 N635 N 0.52238 0.25948 0.60052
 C636 C 0.47250 0.22541 0.61393
 H637 H 0.47485 0.22396 0.62896
 C638 C 0.45784 0.21539 0.60558
 H639 H 0.44865 0.20684 0.61445
 C640 C 0.48200 0.23777 0.58415
 H641 H 0.49168 0.24610 0.57573
 C642 C 0.46734 0.22806 0.57519
 H643 H 0.46581 0.22917 0.55998
 Zn644 Zn 0.50365 0.24894 0.61686
 N645 N 0.48410 0.23656 0.60328
 C646 C 0.47998 0.26408 0.64556
 N647 N 0.49312 0.26853 0.63216
 C648 C 0.49871 0.28684 0.62943
 C649 C 0.49063 0.30151 0.63995
 C650 C 0.47160 0.27830 0.65646
 C651 C 0.51968 0.21355 0.62365
 C652 C 0.52803 0.19879 0.63390
 C653 C 0.52722 0.21856 0.66173
 C654 C 0.51873 0.23295 0.65093
 N655 N 0.51516 0.23017 0.63225
 H656 H 0.47605 0.24947 0.64796
 H657 H 0.50935 0.29021 0.61899
 H658 H 0.49495 0.31600 0.63713
 H659 H 0.46129 0.27438 0.66712
 H660 H 0.51663 0.21175 0.60878
 H661 H 0.53110 0.18554 0.62681
 H662 H 0.53024 0.22111 0.67650
 H663 H 0.51518 0.24637 0.65741
 C664 C 0.45505 0.21667 0.58598
 C665 C 0.55112 0.27709 0.57985
 C666 C 0.53197 0.20116 0.65322
 C667 C 0.47676 0.29736 0.65359
 C668 C 0.48287 0.76826 0.90660
 H669 H 0.49703 0.77393 0.90738
 C670 C 0.46800 0.77743 0.91598
 H671 H 0.47083 0.79016 0.92399
 C672 C 0.46175 0.74555 0.89411
 H673 H 0.45918 0.73345 0.88521
 C674 C 0.44656 0.75420 0.90323
 H675 H 0.43256 0.74833 0.90153
 N676 N 0.47946 0.75277 0.89572
 C677 C 0.53121 0.72105 0.88468
 H678 H 0.52979 0.72003 0.86948
 C679 C 0.54611 0.71187 0.89379
 H680 H 0.55626 0.70397 0.88545
 C681 C 0.51974 0.73292 0.91387
 H682 H 0.50930 0.74102 0.92159
 C683 C 0.53458 0.72403 0.92359
 H684 H 0.53547 0.72532 0.93883
 Zn685 Zn 0.49896 0.74270 0.88030
 N686 N 0.51847 0.73139 0.89473
 C687 C 0.52768 0.76681 0.86613
 N688 N 0.50890 0.76291 0.86552
 C689 C 0.49683 0.77392 0.85522
 C690 C 0.50361 0.78941 0.84476
 C691 C 0.53506 0.78209 0.85585
 C692 C 0.48435 0.70680 0.87361
 C693 C 0.47649 0.69190 0.86345
 C694 C 0.47855 0.71118 0.83509
 C695 C 0.48650 0.72571 0.84581
 N696 N 0.48895 0.72338 0.86478
 H697 H 0.53700 0.75826 0.87477
 H698 H 0.48190 0.77072 0.85524
 H699 H 0.49384 0.79790 0.83649
 H700 H 0.55002 0.78508 0.85674
 H701 H 0.48669 0.70524 0.88867
 H702 H 0.47305 0.67880 0.87079
 H703 H 0.47622 0.71349 0.82011
 H704 H 0.49048 0.73889 0.83900
 C705 C 0.54796 0.71329 0.91349
 C706 C 0.44949 0.77063 0.91397
 C707 C 0.47327 0.69403 0.84394
 C708 C 0.52299 0.79363 0.84497
 C709 C 0.46011 -0.16715 0.34323
 C710 C 0.44593 -0.18106 0.34443
 C711 C 0.44915 -0.19822 0.35394
 C712 C 0.46652 -0.20186 0.36286
 C713 C 0.48068 -0.18791 0.36182
 C714 C 0.47756 -0.17082 0.35205
 C715 C 0.45654 -0.14890 0.33298
 C716 C 0.46420 -0.13172 0.33948
 C717 C 0.46002 -0.11451 0.33035
 C718 C 0.44786 -0.11398 0.31462
 C719 C 0.44053 -0.13122 0.30793
 C720 C 0.44495 -0.14843 0.31686
 C721 C 0.44206 -0.09556 0.30578
 C722 C 0.43808 -0.09434 0.28630
 C723 C 0.43068 -0.07765 0.27840
 C724 C 0.42734 -0.06159 0.28969
 C725 C 0.43229 -0.06249 0.30895
 C726 C 0.43939 -0.07928 0.31691
 H727 H 0.43219 -0.17867 0.33816
 H728 H 0.43801 -0.20871 0.35409
 H729 H 0.49417 -0.19011 0.36869
 H730 H 0.48890 -0.16057 0.35127
 H731 H 0.47306 -0.13146 0.35193
 H732 H 0.46621 -0.10161 0.33574
 H733 H 0.43091 -0.13146 0.29606
 H734 H 0.43911 -0.16137 0.31116
 H735 H 0.44036 -0.10641 0.27715
 H736 H 0.42693 -0.07764 0.26357
 H737 H 0.43036 -0.05031 0.31802
 H738 H 0.44211 -0.07963 0.33197
 C739 C 0.95590 0.33487 0.85110
 C740 C 0.94170 0.32115 0.85306
 C741 C 0.94553 0.30353 0.86136
 C742 C 0.96379 0.29891 0.86803
 C743 C 0.97809 0.31275 0.86575
 C744 C 0.97417 0.33045 0.85743
 C745 C 0.95148 0.35356 0.84219
 C746 C 0.96397 0.36205 0.82914
 C747 C 0.95883 0.37873 0.81949
 C748 C 0.94110 0.38717 0.82268
 C749 C 0.92901 0.37915 0.83633
 C750 C 0.93415 0.36258 0.84600
 C751 C 0.93458 0.40352 0.81103
 C752 C 0.91628 0.40345 0.80346
 C753 C 0.90986 0.41862 0.79242
 C754 C 0.92156 0.43430 0.78870
 C755 C 0.93989 0.43447 0.79630
 C756 C 0.94641 0.41912 0.80725
 H757 H 0.92761 0.32388 0.84777
 H758 H 0.93416 0.29333 0.86164
 H759 H 0.99222 0.31042 0.87106
 H760 H 0.98537 0.34084 0.85629
 H761 H 0.97736 0.35538 0.82582
 H762 H 0.96837 0.38458 0.80897
 H763 H 0.91542 0.38557 0.83933
 H764 H 0.92442 0.35667 0.85630
 H765 H 0.90694 0.39153 0.80595
 H766 H 0.89558 0.41821 0.78698
 H767 H 0.94919 0.44637 0.79361
 H768 H 0.96057 0.41953 0.81298
 C769 C 0.03751 1.16338 0.85294
 C770 C 0.04787 1.16942 0.86872
 C771 C 0.04487 1.18738 0.87647
 C772 C 0.03106 1.19981 0.86899
 C773 C 0.02016 1.19336 0.85363
 C774 C 0.02350 1.17555 0.84561
 C775 C 0.04178 1.14479 0.84380
 C776 C 0.02751 1.13423 0.83487
 C777 C 0.03183 1.11723 0.82561
 C778 C 0.05040 1.11024 0.82545
 C779 C 0.06459 1.12051 0.83461
 C780 C 0.06038 1.13766 0.84351
 C781 C 0.05533 1.09269 0.81516
 C782 C 0.06595 1.07836 0.82410
 C783 C 0.07241 1.06271 0.81386
 C784 C 0.06865 1.06132 0.79441
 C785 C 0.05752 1.07536 0.78559
 C786 C 0.05074 1.09083 0.79594
 H787 H 0.05831 1.16023 0.87523
 H788 H 0.05305 1.19115 0.88879
 H789 H 0.00975 1.20244 0.84693
 H790 H 0.01548 1.17164 0.83323
 H791 H 0.01298 1.13902 0.83506
 H792 H 0.02067 1.10946 0.81867
 H793 H 0.07908 1.11552 0.83439
 H794 H 0.07187 1.14553 0.84974
 H795 H 0.06961 1.07951 0.83893
 H796 H 0.08113 1.05217 0.82091
 H797 H 0.05446 1.07455 0.77061
 H798 H 0.04267 1.10180 0.78876
 C799 C 0.53676 0.66098 0.34842
 C800 C 0.54375 0.66489 0.36661
 C801 C 0.54091 0.68270 0.37478
 C802 C 0.53083 0.69692 0.36507
 C803 C 0.52334 0.69290 0.34717
 C804 C 0.52635 0.67516 0.33889
 C805 C 0.54102 0.64254 0.33910
 C806 C 0.52779 0.63391 0.32710
 C807 C 0.53233 0.61719 0.31748
 C808 C 0.55012 0.60863 0.31982
 C809 C 0.56318 0.61696 0.33213
 C810 C 0.55873 0.63375 0.34159
 C811 C 0.55555 0.59161 0.30878
 C812 C 0.56543 0.57655 0.31742
 C813 C 0.57223 0.56142 0.30664
 C814 C 0.56945 0.56114 0.28696
 C815 C 0.55898 0.57586 0.27842
 C816 C 0.55201 0.59090 0.28924
 H817 H 0.55148 0.65420 0.37453
 H818 H 0.54660 0.68538 0.38872
 H819 H 0.51568 0.70370 0.33932
 H820 H 0.52103 0.67279 0.32476
 H821 H 0.51391 0.64009 0.32511
 H822 H 0.52195 0.61095 0.30820
 H823 H 0.57712 0.61084 0.33394
 H824 H 0.56942 0.64016 0.35038
 H825 H 0.56821 0.57668 0.33249
 H826 H 0.58039 0.55035 0.31357
 H827 H 0.55655 0.57592 0.26329
 H828 H 0.54454 0.60238 0.28220
 C829 C 0.54315 0.33706 0.14267
 C830 C 0.53079 0.32447 0.15196
 C831 C 0.52675 0.30674 0.14417
 C832 C 0.53498 0.30121 0.12693
 C833 C 0.54693 0.31400 0.11739
 C834 C 0.55096 0.33173 0.12516
 C835 C 0.54856 0.35529 0.15161
 C836 C 0.56740 0.36144 0.15097
 C837 C 0.57278 0.37816 0.15994
 C838 C 0.55944 0.38919 0.16978
 C839 C 0.54054 0.38314 0.17033
 C840 C 0.53516 0.36636 0.16133
 C841 C 0.56546 0.40665 0.17978
 C842 C 0.55844 0.41090 0.19791
 C843 C 0.56528 0.42655 0.20787
 C844 C 0.57931 0.43822 0.19991
 C845 C 0.58583 0.43435 0.18153
 C846 C 0.57898 0.41878 0.17157
 H847 H 0.52475 0.32804 0.16558
 H848 H 0.51769 0.29709 0.15198
 H849 H 0.55321 0.31027 0.10392
 H850 H 0.56026 0.34126 0.11750
 H851 H 0.57814 0.35304 0.14393
 H852 H 0.58751 0.38221 0.15958
 H853 H 0.52990 0.39145 0.17760
 H854 H 0.52049 0.36210 0.16189
 H855 H 0.54816 0.40172 0.20469
 H856 H 0.56011 0.42910 0.22206
 H857 H 0.59637 0.44333 0.17488
 H858 H 0.58436 0.41614 0.15747
 C859 C 0.04291 0.83705 0.65151
 C860 C 0.05273 0.83124 0.63525
 C861 C 0.04842 0.81410 0.62645
 C862 C 0.03394 0.80223 0.63349
 C863 C 0.02355 0.80861 0.64935
 C864 C 0.02808 0.82566 0.65828
 C865 C 0.04862 0.85457 0.66168
 C866 C 0.03513 0.86636 0.67044
 C867 C 0.04073 0.88264 0.68019
 C868 C 0.05990 0.88755 0.68120
 C869 C 0.07336 0.87579 0.67250
 C870 C 0.06781 0.85946 0.66295
 C871 C 0.06607 0.90481 0.69134
 C872 C 0.07964 0.91683 0.68315
 C873 C 0.08657 0.93235 0.69311
 C874 C 0.08024 0.93613 0.71159
 C875 C 0.06619 0.92444 0.71957
 C876 C 0.05912 0.90895 0.70950
 H877 H 0.06380 0.83999 0.62922
 H878 H 0.05622 0.81056 0.61376
 H879 H 0.01264 0.79995 0.65577
 H880 H 0.02038 0.82955 0.67095
 H881 H 0.02022 0.86315 0.66956
 H882 H 0.03007 0.89156 0.68668
 H883 H 0.08827 0.87906 0.67336
 H884 H 0.07864 0.85049 0.65683
 H885 H 0.08496 0.91416 0.66903
 H886 H 0.09700 0.94135 0.68634
 H887 H 0.06111 0.92687 0.73382
 H888 H 0.04874 0.89982 0.71617
 C889 C 0.95563 0.67171 0.65735
 C890 C 0.97198 0.67344 0.64615
 C891 C 0.97625 0.69069 0.63711
 C892 C 0.96423 0.70650 0.63913
 C893 C 0.94819 0.70487 0.65075
 C894 C 0.94395 0.68770 0.65976
 C895 C 0.95034 0.65328 0.66622
 C896 C 0.93137 0.64750 0.66629
 C897 C 0.92599 0.63069 0.67532
 C898 C 0.93943 0.61920 0.68453
 C899 C 0.95851 0.62462 0.68400
 C900 C 0.96392 0.64153 0.67492
 C901 C 0.93323 0.60187 0.69488
 C902 C 0.94327 0.58466 0.69345
 C903 C 0.93638 0.56811 0.70216
 C904 C 0.91934 0.56853 0.71242
 C905 C 0.90980 0.58593 0.71448
 C906 C 0.91666 0.60238 0.70583
 H907 H 0.98118 0.66132 0.64394
 H908 H 0.98865 0.69152 0.62815
 H909 H 0.93891 0.71692 0.65294
 H910 H 0.93150 0.68696 0.66867
 H911 H 0.92064 0.65599 0.65929
 H912 H 0.91125 0.62666 0.67508
 H913 H 0.96916 0.61606 0.69104
 H914 H 0.97863 0.64567 0.67517
 H915 H 0.95607 0.58386 0.68505
 H916 H 0.94398 0.55487 0.70031
 H917 H 0.89689 0.58679 0.72269
 H918 H 0.90888 0.61553 0.70759
 C919 C 0.46044 0.17265 0.16276
 C920 C 0.47604 0.17346 0.15043
 C921 C 0.47949 0.18978 0.13955
 C922 C 0.46736 0.20559 0.14072
 C923 C 0.45192 0.20486 0.15323
 C924 C 0.44849 0.18858 0.16410
 C925 C 0.45618 0.15510 0.17376
 C926 C 0.44940 0.15626 0.19244
 C927 C 0.44383 0.13990 0.20224
 C928 C 0.44492 0.12200 0.19362
 C929 C 0.45239 0.12073 0.17521
 C930 C 0.45794 0.13712 0.16538
 C931 C 0.43717 0.10493 0.20330
 C932 C 0.44654 0.08730 0.20244
 C933 C 0.43855 0.07110 0.21080
 C934 C 0.42096 0.07221 0.21999
 C935 C 0.41180 0.08990 0.22113
 C936 C 0.41981 0.10606 0.21291
 H937 H 0.48558 0.16148 0.14920
 H938 H 0.49144 0.18990 0.12995
 H939 H 0.44248 0.21690 0.15463
 H940 H 0.43623 0.18834 0.17329
 H941 H 0.44824 0.16986 0.19942
 H942 H 0.43845 0.14128 0.21654
 H943 H 0.45320 0.10716 0.16812
 H944 H 0.46291 0.13577 0.15094
 H945 H 0.46001 0.08604 0.19524
 H946 H 0.44588 0.05762 0.20965
 H947 H 0.39834 0.09123 0.22833
 H948 H 0.41214 0.11938 0.21363
 C949 C 0.33838 0.45786 -0.17053
 C950 C 0.34187 0.44259 -0.18273
 C951 C 0.35154 0.44527 -0.19978
 C952 C 0.35845 0.46335 -0.20522
 C953 C 0.35507 0.47860 -0.19267
 C954 C 0.34514 0.47590 -0.17571
 C955 C 0.32775 0.45486 -0.15251
 C956 C 0.33246 0.46490 -0.13604
 C957 C 0.32289 0.46147 -0.11901
 C958 C 0.30850 0.44774 -0.11794
 C959 C 0.30365 0.43793 -0.13450
 C960 C 0.31300 0.44156 -0.15155
 C961 C 0.29914 0.44297 -0.09958
 C962 C 0.28016 0.43714 -0.09907
 C963 C 0.27200 0.43052 -0.08226
 C964 C 0.28245 0.42989 -0.06537
 C965 C 0.30108 0.43681 -0.06564
 C966 C 0.30936 0.44310 -0.08254
 H967 H 0.33714 0.42840 -0.17913
 H968 H 0.35279 0.43304 -0.20885
 H969 H 0.36051 0.49268 -0.19539
 H970 H 0.34265 0.48805 -0.16673
 H971 H 0.34384 0.47514 -0.13617
 H972 H 0.32685 0.46952 -0.10665
 H973 H 0.29290 0.42703 -0.13426
 H974 H 0.30868 0.43383 -0.16399
 H975 H 0.27166 0.43727 -0.11178
 H976 H 0.25770 0.42518 -0.08278
 H977 H 0.30947 0.43698 -0.05287
 H978 H 0.32403 0.44737 -0.08232
 C979 C 0.84784 0.96036 0.33680
 C980 C 0.84432 0.97660 0.32568
 C981 C 0.85324 0.97913 0.30816
 C982 C 0.86636 0.96563 0.30118
 C983 C 0.87020 0.94964 0.31282
 C984 C 0.86098 0.94698 0.33013
 C985 C 0.83747 0.95704 0.35493
 C986 C 0.84606 0.94718 0.37003
 C987 C 0.83585 0.94268 0.38640
 C988 C 0.81684 0.94825 0.38835
 C989 C 0.80851 0.95886 0.37361
 C990 C 0.81860 0.96302 0.35707
 C991 C 0.80552 0.94207 0.40514
 C992 C 0.78627 0.93763 0.40324
 C993 C 0.77598 0.93034 0.41852
 C994 C 0.78472 0.92685 0.43606
 C995 C 0.80380 0.93190 0.43818
 C996 C 0.81401 0.93955 0.42298
 H997 H 0.83450 0.98740 0.33040
 H998 H 0.84899 0.99141 0.29997
 H999 H 0.88069 0.93914 0.30907
 H1000 H 0.86401 0.93417 0.33814
 H1001 H 0.86067 0.94270 0.36917
 H1002 H 0.84277 0.93430 0.39727
 H1003 H 0.79405 0.96379 0.37469
 H1004 H 0.81136 0.97046 0.34575
 H1005 H 0.77919 0.93912 0.38975
 H1006 H 0.76121 0.92709 0.41642
 H1007 H 0.81111 0.92932 0.45138
 H1008 H 0.82867 0.94320 0.42517
 C1009 C 0.85072 0.03436 1.16442
 C1010 C 0.84711 0.01805 1.17538
 C1011 C 0.85561 0.01546 1.19304
 C1012 C 0.86840 0.02897 1.20035
 C1013 C 0.87245 0.04498 1.18881
 C1014 C 0.86361 0.04771 1.17136
 C1015 C 0.84062 0.03782 1.14619
 C1016 C 0.84931 0.04794 1.13131
 C1017 C 0.83932 0.05254 1.11487
 C1018 C 0.82045 0.04678 1.11261
 C1019 C 0.81203 0.03593 1.12713
 C1020 C 0.82189 0.03170 1.14376
 C1021 C 0.80936 0.05294 1.09569
 C1022 C 0.78994 0.05697 1.09729
 C1023 C 0.77980 0.06409 1.08186
 C1024 C 0.78883 0.06783 1.06448
 C1025 C 0.80812 0.06328 1.06269
 C1026 C 0.81819 0.05576 1.07803
 H1027 H 0.83751 0.00724 1.17043
 H1028 H 0.85123 0.00314 1.20110
 H1029 H 0.88276 0.05547 1.19282
 H1030 H 0.86673 0.06057 1.16348
 H1031 H 0.86383 0.05254 1.13239
 H1032 H 0.84630 0.06111 1.10419
 H1033 H 0.79769 0.03085 1.12582
 H1034 H 0.81455 0.02408 1.15490
 H1035 H 0.78260 0.05524 1.11064
 H1036 H 0.76488 0.06695 1.08371
 H1037 H 0.81568 0.06608 1.04964
 H1038 H 0.83299 0.05244 1.07605
 C1039 C 0.34836 0.53857 0.66036
 C1040 C 0.36641 0.54545 0.66484
 C1041 C 0.37469 0.54108 0.68227
 C1042 C 0.36514 0.52969 0.69558
 C1043 C 0.34741 0.52222 0.69084
 C1044 C 0.33910 0.52663 0.67342
 C1045 C 0.33876 0.54475 0.64267
 C1046 C 0.32758 0.53208 0.63228
 C1047 C 0.31766 0.53838 0.61630
 C1048 C 0.31865 0.55748 0.61046
 C1049 C 0.33018 0.57001 0.62059
 C1050 C 0.34009 0.56374 0.63651
 C1051 C 0.30725 0.56460 0.59426
 C1052 C 0.29813 0.58231 0.59539
 C1053 C 0.28765 0.58933 0.58018
 C1054 C 0.28595 0.57880 0.56344
 C1055 C 0.29494 0.56100 0.56233
 C1056 C 0.30544 0.55393 0.57762
 H1057 H 0.37406 0.55438 0.65494
 H1058 H 0.38852 0.54677 0.68542
 H1059 H 0.33964 0.51357 0.70090
 H1060 H 0.32508 0.52130 0.67051
 H1061 H 0.32643 0.51733 0.63656
 H1062 H 0.30881 0.52842 0.60884
 H1063 H 0.33146 0.58475 0.61628
 H1064 H 0.34839 0.57392 0.64430
 H1065 H 0.29902 0.59075 0.60811
 H1066 H 0.28115 0.60322 0.58141
 H1067 H 0.29380 0.55251 0.54966
 H1068 H 0.31241 0.54028 0.57630
 C1069 C 0.16021 0.53856 0.32963
 C1070 C 0.14670 0.52401 0.32852
 C1071 C 0.13658 0.52118 0.31180
 C1072 C 0.13966 0.53296 0.29594
 C1073 C 0.15323 0.54741 0.29705
 C1074 C 0.16339 0.55017 0.31369
 C1075 C 0.17064 0.54211 0.34744
 C1076 C 0.18991 0.54679 0.34689
 C1077 C 0.19933 0.55207 0.36335
 C1078 C 0.18970 0.55281 0.38075
 C1079 C 0.17065 0.54729 0.38147
 C1080 C 0.16121 0.54198 0.36497
 C1081 C 0.19909 0.56070 0.39771
 C1082 C 0.19623 0.55267 0.41578
 C1083 C 0.20424 0.56101 0.43179
 C1084 C 0.21508 0.57762 0.43003
 C1085 C 0.21825 0.58537 0.41192
 C1086 C 0.21036 0.57701 0.39597
 H1087 H 0.14405 0.51478 0.34056
 H1088 H 0.12616 0.50997 0.31133
 H1089 H 0.15608 0.55653 0.28497
 H1090 H 0.17351 0.56165 0.31418
 H1091 H 0.19764 0.54664 0.33364
 H1092 H 0.21411 0.55589 0.36242
 H1093 H 0.16280 0.54790 0.39463
 H1094 H 0.14632 0.53860 0.36580
 H1095 H 0.18771 0.54002 0.41752
 H1096 H 0.20152 0.55479 0.44559
 H1097 H 0.22674 0.59803 0.41012
 H1098 H 0.21264 0.58368 0.38230
 C1099 C 0.65753 0.03638 0.83247
 C1100 C 0.64788 0.01927 0.82968
 C1101 C 0.63776 0.01625 0.81298
 C1102 C 0.63669 0.03049 0.79878
 C1103 C 0.64627 0.04775 0.80198
 C1104 C 0.65660 0.05055 0.81849
 C1105 C 0.66851 0.03972 0.84992
 C1106 C 0.68683 0.04716 0.84869
 C1107 C 0.69662 0.05213 0.86502
 C1108 C 0.68821 0.05002 0.88297
 C1109 C 0.67014 0.04182 0.88422
 C1110 C 0.66041 0.03664 0.86783
 C1111 C 0.69774 0.05755 0.90007
 C1112 C 0.69643 0.04816 0.91767
 C1113 C 0.70473 0.05595 0.93382
 C1114 C 0.71447 0.07330 0.93270
 C1115 C 0.71608 0.08244 0.91502
 C1116 C 0.70776 0.07473 0.89897
 H1117 H 0.64834 0.00815 0.84035
 H1118 H 0.63026 0.00296 0.81164
 H1119 H 0.64667 0.05893 0.79141
 H1120 H 0.66388 0.06392 0.82036
 H1121 H 0.69348 0.04937 0.83503
 H1122 H 0.71070 0.05792 0.86356
 H1123 H 0.66316 0.04017 0.89778
 H1124 H 0.64625 0.03101 0.86911
 H1125 H 0.68897 0.03480 0.91897
 H1126 H 0.70315 0.04861 0.94725
 H1127 H 0.72377 0.09565 0.91357
 H1128 H 0.70882 0.08253 0.88575
 C1129 C 0.65393 0.95612 0.66936
 C1130 C 0.65613 0.94365 0.68483
 C1131 C 0.64655 0.94692 0.70179
 C1132 C 0.63461 0.96276 0.70372
 C1133 C 0.63242 0.97529 0.68828
 C1134 C 0.64191 0.97193 0.67122
 C1135 C 0.66403 0.95233 0.65135
 C1136 C 0.65466 0.95386 0.63389
 C1137 C 0.66380 0.94868 0.61711
 C1138 C 0.68252 0.94195 0.61745
 C1139 C 0.69211 0.94122 0.63484
 C1140 C 0.68296 0.94631 0.65158
 C1141 C 0.69168 0.93459 0.60001
 C1142 C 0.70261 0.91791 0.60087
 C1143 C 0.71071 0.91039 0.58453
 C1144 C 0.70805 0.91930 0.56688
 C1145 C 0.69737 0.93616 0.56599
 C1146 C 0.68920 0.94370 0.58240
 H1147 H 0.66511 0.93122 0.68373
 H1148 H 0.64867 0.93714 0.71351
 H1149 H 0.62321 0.98756 0.68936
 H1150 H 0.64003 0.98181 0.65954
 H1151 H 0.64002 0.95833 0.63332
 H1152 H 0.65598 0.94923 0.60397
 H1153 H 0.70666 0.93650 0.63552
 H1154 H 0.69065 0.94536 0.66479
 H1155 H 0.70459 0.91039 0.61414
 H1156 H 0.71910 0.89755 0.58574
 H1157 H 0.69501 0.94329 0.55257
 H1158 H 0.68097 0.95666 0.58133
 C1159 C 0.15347 0.45601 0.16793
 C1160 C 0.14292 0.47288 0.16954
 C1161 C 0.13305 0.47691 0.18624
 C1162 C 0.13344 0.46409 0.20159
 C1163 C 0.14387 0.44717 0.19988
 C1164 C 0.15376 0.44318 0.18326
 C1165 C 0.16411 0.45161 0.15034
 C1166 C 0.18215 0.44329 0.15138
 C1167 C 0.19169 0.43790 0.13496
 C1168 C 0.18344 0.44072 0.11709
 C1169 C 0.16569 0.44966 0.11598
 C1170 C 0.15611 0.45505 0.13245
 C1171 C 0.19290 0.43339 0.09984
 C1172 C 0.19316 0.44404 0.08292
 C1173 C 0.20170 0.43670 0.06662
 C1174 C 0.20996 0.41851 0.06691
 C1175 C 0.20983 0.40799 0.08388
 C1176 C 0.20142 0.41534 0.10014
 H1177 H 0.14253 0.48309 0.15801
 H1178 H 0.12502 0.49000 0.18710
 H1179 H 0.14466 0.43713 0.21154
 H1180 H 0.16153 0.42993 0.18235
 H1181 H 0.18885 0.44085 0.16494
 H1182 H 0.20551 0.43139 0.13624
 H1183 H 0.15891 0.45184 0.10242
 H1184 H 0.14217 0.46130 0.13121
 H1185 H 0.18681 0.45806 0.08232
 H1186 H 0.20153 0.44508 0.05370
 H1187 H 0.21630 0.39403 0.08460
 H1188 H 0.20126 0.40670 0.11288
 C1189 C -0.16865 0.34755 0.45547
 C1190 C -0.18381 0.34676 0.44270
 C1191 C -0.20029 0.35716 0.44596
 C1192 C -0.20205 0.36864 0.46206
 C1193 C -0.18687 0.36955 0.47481
 C1194 C -0.17030 0.35915 0.47151
 C1195 C -0.15128 0.33626 0.45187
 C1196 C -0.13328 0.34415 0.45459
 C1197 C -0.11700 0.33389 0.44974
 C1198 C -0.11845 0.31558 0.44208
 C1199 C -0.13642 0.30745 0.44008
 C1200 C -0.15263 0.31766 0.44492
 C1201 C -0.10146 0.30528 0.43522
 C1202 C -0.10205 0.29570 0.41788
 C1203 C -0.08622 0.28604 0.41113
 C1204 C -0.06936 0.28561 0.42158
 C1205 C -0.06867 0.29532 0.43890
 C1206 C -0.08457 0.30510 0.44564
 H1207 H -0.18287 0.33818 0.43008
 H1208 H -0.21181 0.35595 0.43600
 H1209 H -0.18778 0.37837 0.48728
 H1210 H -0.15889 0.35997 0.48164
 H1211 H -0.13180 0.35850 0.45980
 H1212 H -0.10335 0.34056 0.45131
 H1213 H -0.13795 0.29321 0.43459
 H1214 H -0.16628 0.31103 0.44308
 H1215 H -0.11471 0.29595 0.40931
 H1216 H -0.08710 0.27918 0.39749
 H1217 H -0.05593 0.29517 0.44734
 H1218 H -0.08375 0.31228 0.45912
 C1219 C 0.33453 0.84216 0.95942
 C1220 C 0.33188 0.85063 0.97714
 C1221 C 0.31543 0.86102 0.98102
 C1222 C 0.30126 0.86350 0.96712
 C1223 C 0.30428 0.85503 0.94928
 C1224 C 0.32059 0.84453 0.94556
 C1225 C 0.35169 0.83080 0.95519
 C1226 C 0.35009 0.81350 0.94554
 C1227 C 0.36618 0.80344 0.94008
 C1228 C 0.38430 0.81047 0.94403
 C1229 C 0.38592 0.82740 0.95434
 C1230 C 0.36975 0.83746 0.95990
 C1231 C 0.40127 0.80054 0.93653
 C1232 C 0.41782 0.79863 0.94737
 C1233 C 0.43359 0.78902 0.94010
 C1234 C 0.43307 0.78113 0.92188
 C1235 C 0.41664 0.78337 0.91099
 C1236 C 0.40098 0.79295 0.91820
 H1237 H 0.34246 0.84904 0.98809
 H1238 H 0.31429 0.86763 0.99475
 H1239 H 0.29374 0.85564 0.93825
 H1240 H 0.32231 0.83824 0.93171
 H1241 H 0.33633 0.80783 0.94208
 H1242 H 0.36444 0.79020 0.93258
 H1243 H 0.39968 0.83324 0.95748
 H1244 H 0.37137 0.85081 0.96725
 H1245 H 0.41844 0.80425 0.96158
 H1246 H 0.44605 0.78745 0.94883
 H1247 H 0.41597 0.77791 0.89672
 H1248 H 0.38866 0.79462 0.90929
 C1249 C 1.17178 0.84772 0.04200
 C1250 C 1.18468 0.84974 0.05688
 C1251 C 1.20191 0.85892 0.05402
 C1252 C 1.20689 0.86652 0.03611
 C1253 C 1.19363 0.86466 0.02130
 C1254 C 1.17640 0.85541 0.02422
 C1255 C 1.15366 0.83751 0.04510
 C1256 C 1.13681 0.84407 0.03678
 C1257 C 1.11971 0.83477 0.04030
 C1258 C 1.11905 0.81870 0.05225
 C1259 C 1.13596 0.81198 0.06029
 C1260 C 1.15304 0.82122 0.05671
 C1261 C 1.10078 0.80943 0.05707
 C1262 C 1.09974 0.78962 0.05961
 C1263 C 1.08312 0.78113 0.06613
 C1264 C 1.06707 0.79221 0.07016
 C1265 C 1.06781 0.81191 0.06671
 C1266 C 1.08448 0.82042 0.06030
 H1267 H 1.18148 0.84417 0.07085
 H1268 H 1.21155 0.85915 0.06585
 H1269 H 1.19609 0.87080 0.00744
 H1270 H 1.16677 0.85409 0.01242
 H1271 H 1.13676 0.85666 0.02788
 H1272 H 1.10699 0.84020 0.03371
 H1273 H 1.13597 0.79983 0.06977
 H1274 H 1.16578 0.81559 0.06309
 H1275 H 1.11192 0.78069 0.05692
 H1276 H 1.08312 0.76595 0.06876
 H1277 H 1.05562 0.82083 0.06937
 H1278 H 1.08478 0.83572 0.05861
 C1279 C 0.66497 0.35081 0.53433
 C1280 C 0.67690 0.34567 0.51924
 C1281 C 0.69429 0.35462 0.51655
 C1282 C 0.70009 0.36937 0.52854
 C1283 C 0.68783 0.37501 0.54318
 C1284 C 0.67067 0.36571 0.54619
 C1285 C 0.64707 0.34023 0.53815
 C1286 C 0.63151 0.34925 0.54673
 C1287 C 0.61537 0.33896 0.55169
 C1288 C 0.61407 0.31942 0.54778
 C1289 C 0.62927 0.31061 0.53839
 C1290 C 0.64561 0.32078 0.53389
 C1291 C 0.59743 0.30812 0.55434
 C1292 C 0.59959 0.28899 0.55988
 C1293 C 0.58439 0.27873 0.56726
 C1294 C 0.56666 0.28741 0.56987
 C1295 C 0.56432 0.30637 0.56384
 C1296 C 0.57943 0.31651 0.55600
 H1297 H 0.67293 0.33460 0.50949
 H1298 H 0.70335 0.34960 0.50527
 H1299 H 0.69149 0.38658 0.55247
 H1300 H 0.66213 0.36999 0.55815
 H1301 H 0.63180 0.36428 0.54985
 H1302 H 0.60416 0.34631 0.55910
 H1303 H 0.62873 0.29574 0.53467
 H1304 H 0.65727 0.31315 0.52754
 H1305 H 0.61319 0.28197 0.55912
 H1306 H 0.58671 0.26403 0.57124
 H1307 H 0.55098 0.31368 0.56572
 H1308 H 0.57699 0.33104 0.55149
 C1309 C 0.33406 0.15532 0.54497
 C1310 C 0.33097 0.14468 0.52851
 C1311 C 0.31327 0.13661 0.52506
 C1312 C 0.29833 0.13909 0.53798
 C1313 C 0.30134 0.15017 0.55415
 C1314 C 0.31899 0.15815 0.55762
 C1315 C 0.35298 0.16311 0.54933
 C1316 C 0.36006 0.16187 0.56784
 C1317 C 0.37755 0.16965 0.57231
 C1318 C 0.38844 0.17887 0.55838
 C1319 C 0.38148 0.17997 0.53978
 C1320 C 0.36395 0.17207 0.53527
 C1321 C 0.40666 0.18776 0.56361
 C1322 C 0.41142 0.20601 0.55694
 C1323 C 0.42757 0.21517 0.56363
 C1324 C 0.43923 0.20626 0.57711
 C1325 C 0.43495 0.18766 0.58303
 C1326 C 0.41887 0.17852 0.57635
 H1327 H 0.34237 0.14217 0.51858
 H1328 H 0.31140 0.12805 0.51253
 H1329 H 0.29000 0.15274 0.56414
 H1330 H 0.32083 0.16662 0.57021
 H1331 H 0.35203 0.15484 0.57892
 H1332 H 0.38239 0.16879 0.58682
 H1333 H 0.38962 0.18690 0.52874
 H1334 H 0.35878 0.17331 0.52091
 H1335 H 0.40220 0.21354 0.54723
 H1336 H 0.43047 0.22955 0.55891
 H1337 H 0.44391 0.18029 0.59310
 H1338 H 0.41581 0.16429 0.58141
 C1339 C 0.83475 0.66320 0.03851
 C1340 C 0.83174 0.65406 0.02122
 C1341 C 0.81509 0.64388 0.01809
 C1342 C 0.80109 0.64230 0.03234
 C1343 C 0.80446 0.65146 0.04974
 C1344 C 0.82096 0.66177 0.05271
 C1345 C 0.85227 0.67409 0.04205
 C1346 C 0.85131 0.69179 0.05105
 C1347 C 0.86778 0.70128 0.05615
 C1348 C 0.88560 0.69324 0.05249
 C1349 C 0.88658 0.67593 0.04270
 C1350 C 0.87006 0.66645 0.03749
 C1351 C 0.90294 0.70223 0.06007
 C1352 C 0.91985 0.70263 0.04959
 C1353 C 0.93626 0.71044 0.05733
 C1354 C 0.93608 0.71786 0.07575
 C1355 C 0.91908 0.71773 0.08605
 C1356 C 0.90275 0.70999 0.07834
 H1357 H 0.84221 0.65491 0.01004
 H1358 H 0.81366 0.63673 0.00467
 H1359 H 0.79405 0.65149 0.06098
 H1360 H 0.82298 0.66858 0.06625
 H1361 H 0.83778 0.69817 0.05439
 H1362 H 0.86655 0.71481 0.06327
 H1363 H 0.90009 0.66928 0.03981
 H1364 H 0.87118 0.65277 0.03065
 H1365 H 0.92039 0.69689 0.03541
 H1366 H 0.94918 0.71029 0.04909
 H1367 H 0.91839 0.72360 0.10016
 H1368 H 0.89005 0.70968 0.08691
 C1369 C 0.66836 0.65301 0.95966
 C1370 C 0.68170 0.66223 0.97104
 C1371 C 0.69952 0.65417 0.97408
 C1372 C 0.70441 0.63672 0.96578
 C1373 C 0.69100 0.62741 0.95457
 C1374 C 0.67319 0.63546 0.95155
 C1375 C 0.64969 0.66189 0.95577
 C1376 C 0.63328 0.65073 0.95501
 C1377 C 0.61594 0.65890 0.95011
 C1378 C 0.61460 0.67841 0.94589
 C1379 C 0.63090 0.68966 0.94720
 C1380 C 0.64825 0.68149 0.95208
 C1381 C 0.59660 0.68678 0.93897
 C1382 C 0.59072 0.70496 0.94473
 C1383 C 0.57453 0.71336 0.93696
 C1384 C 0.56400 0.70378 0.92319
 C1385 C 0.56955 0.68538 0.91789
 C1386 C 0.58565 0.67697 0.92570
 H1387 H 0.67835 0.67567 0.97763
 H1388 H 0.70959 0.66176 0.98266
 H1389 H 0.69426 0.61384 0.94818
 H1390 H 0.66331 0.62810 0.94253
 H1391 H 0.63387 0.63565 0.95812
 H1392 H 0.60357 0.64992 0.94951
 H1393 H 0.63039 0.70468 0.94375
 H1394 H 0.66066 0.69043 0.95229
 H1395 H 0.59878 0.71278 0.95507
 H1396 H 0.57063 0.72759 0.94123
 H1397 H 0.56158 0.67758 0.90747
 H1398 H 0.58988 0.66303 0.92084
 C1399 C 0.16314 0.15547 0.46583
 C1400 C 0.17641 0.16412 0.47772
 C1401 C 0.19402 0.15565 0.48089
 C1402 C 0.19876 0.13836 0.47221
 C1403 C 0.18538 0.12956 0.46057
 C1404 C 0.16778 0.13801 0.45742
 C1405 C 0.14482 0.16490 0.46159
 C1406 C 0.12820 0.15418 0.45995
 C1407 C 0.11127 0.16286 0.45450
 C1408 C 0.11057 0.18246 0.45059
 C1409 C 0.12702 0.19330 0.45286
 C1410 C 0.14397 0.18462 0.45828
 C1411 C 0.09312 0.19134 0.44293
 C1412 C 0.08728 0.20951 0.44877
 C1413 C 0.07165 0.21837 0.44038
 C1414 C 0.06167 0.20928 0.42588
 C1415 C 0.06719 0.19091 0.42045
 C1416 C 0.08271 0.18204 0.42889
 H1417 H 0.17319 0.17748 0.48456
 H1418 H 0.20409 0.16287 0.48980
 H1419 H 0.18852 0.11611 0.45387
 H1420 H 0.15797 0.13109 0.44800
 H1421 H 0.12832 0.13903 0.46275
 H1422 H 0.09874 0.15419 0.45316
 H1423 H 0.12699 0.20838 0.44969
 H1424 H 0.15656 0.19324 0.45917
 H1425 H 0.09494 0.21694 0.45969
 H1426 H 0.06775 0.23256 0.44478
 H1427 H 0.05962 0.18348 0.40947
 H1428 H 0.08695 0.16813 0.42394
 C1429 C 0.58693 0.08891 0.72443
 C1430 C 0.59839 0.07576 0.71482
 C1431 C 0.60572 0.05989 0.72432
 C1432 C 0.60192 0.05699 0.74364
 C1433 C 0.59043 0.07012 0.75323
 C1434 C 0.58294 0.08587 0.74370
 C1435 C 0.57923 0.10581 0.71442
 C1436 C 0.56028 0.11123 0.71691
 C1437 C 0.55299 0.12708 0.70737
 C1438 C 0.56452 0.13798 0.69525
 C1439 C 0.58355 0.13262 0.69295
 C1440 C 0.59079 0.11667 0.70236
 C1441 C 0.55665 0.15461 0.68478
 C1442 C 0.56234 0.15845 0.66607
 C1443 C 0.55460 0.17373 0.65600
 C1444 C 0.54084 0.18549 0.66432
 C1445 C 0.53531 0.18181 0.68311
 C1446 C 0.54316 0.16658 0.69324
 H1447 H 0.60154 0.07769 0.69993
 H1448 H 0.61463 0.05003 0.71664
 H1449 H 0.58716 0.06811 0.76809
 H1450 H 0.57426 0.09585 0.75147
 H1451 H 0.55101 0.10297 0.72596
 H1452 H 0.53820 0.13057 0.70921
 H1453 H 0.59293 0.14088 0.68401
 H1454 H 0.60553 0.11296 0.70042
 H1455 H 0.57253 0.14941 0.65902
 H1456 H 0.55942 0.17632 0.64166
 H1457 H 0.52462 0.19047 0.68990
 H1458 H 0.53865 0.16421 0.70771
 C1459 C 1.08927 0.59218 0.22174
 C1460 C 1.09474 0.57591 0.21174
 C1461 C 1.10223 0.56011 0.22122
 C1462 C 1.10458 0.56009 0.24110
 C1463 C 1.09904 0.57662 0.25098
 C1464 C 1.09151 0.59235 0.24145
 C1465 C 1.08118 0.60892 0.21168
 C1466 C 1.06577 0.61888 0.21939
 C1467 C 1.05813 0.63461 0.20994
 C1468 C 1.06573 0.64076 0.19256
 C1469 C 1.08117 0.63083 0.18486
 C1470 C 1.08880 0.61507 0.19430
 C1471 C 1.05748 0.65737 0.18241
 C1472 C 1.06918 0.67069 0.17327
 C1473 C 1.06137 0.68615 0.16349
 C1474 C 1.04169 0.68864 0.16263
 C1475 C 1.03000 0.67539 0.17190
 C1476 C 1.03780 0.65994 0.18167
 H1477 H 1.09311 0.57532 0.19652
 H1478 H 1.10679 0.54827 0.21266
 H1479 H 1.09970 0.57736 0.26624
 H1480 H 1.08750 0.60473 0.24956
 H1481 H 1.05946 0.61437 0.23266
 H1482 H 1.04636 0.64207 0.21633
 H1483 H 1.08721 0.63509 0.17139
 H1484 H 1.10079 0.60781 0.18809
 H1485 H 1.08440 0.66927 0.17385
 H1486 H 1.07076 0.69626 0.15673
 H1487 H 1.01477 0.67674 0.17123
 H1488 H 1.02840 0.64977 0.18831
 C1489 C 0.91675 0.90604 0.22791
 C1490 C 0.89857 0.90469 0.23582
 C1491 C 0.89032 0.92032 0.24478
 C1492 C 0.90004 0.93766 0.24583
 C1493 C 0.91815 0.93905 0.23780
 C1494 C 0.92646 0.92338 0.22900
 C1495 C 0.92556 0.88948 0.21844
 C1496 C 0.94458 0.88483 0.22173
 C1497 C 0.95298 0.86942 0.21254
 C1498 C 0.94258 0.85841 0.19975
 C1499 C 0.92350 0.86304 0.19657
 C1500 C 0.91507 0.87835 0.20587
 C1501 C 0.95167 0.84242 0.18945
 C1502 C 0.94157 0.82570 0.18568
 C1503 C 0.94984 0.81104 0.17526
 C1504 C 0.96844 0.81270 0.16850
 C1505 C 0.97870 0.82920 0.17261
 C1506 C 0.97039 0.84392 0.18291
 H1507 H 0.89083 0.89146 0.23528
 H1508 H 0.87628 0.91892 0.25072
 H1509 H 0.92599 0.95221 0.23854
 H1510 H 0.94041 0.92487 0.22285
 H1511 H 0.95291 0.89301 0.23156
 H1512 H 0.96760 0.86606 0.21558
 H1513 H 0.91516 0.85509 0.18656
 H1514 H 0.90045 0.88177 0.20289
 H1515 H 0.92726 0.82390 0.19082
 H1516 H 0.94170 0.79836 0.17251
 H1517 H 0.99297 0.83097 0.16735
 H1518 H 0.97848 0.85671 0.18528
 C1519 C 0.41312 0.40573 0.72256
 C1520 C 0.41484 0.40814 0.74222
 C1521 C 0.40614 0.42349 0.75122
 C1522 C 0.39544 0.43676 0.74079
 C1523 C 0.39371 0.43434 0.72114
 C1524 C 0.40246 0.41903 0.71213
 C1525 C 0.42243 0.38945 0.71295
 C1526 C 0.41331 0.37995 0.69813
 C1527 C 0.42213 0.36481 0.68892
 C1528 C 0.44027 0.35873 0.69435
 C1529 C 0.44935 0.36814 0.70925
 C1530 C 0.44054 0.38333 0.71842
 C1531 C 0.44973 0.34277 0.68436
 C1532 C 0.46918 0.34341 0.68035
 C1533 C 0.47799 0.32861 0.67058
 C1534 C 0.46755 0.31282 0.66453
 C1535 C 0.44814 0.31210 0.66870
 C1536 C 0.43935 0.32687 0.67852
 H1537 H 0.42277 0.39805 0.75070
 H1538 H 0.40796 0.42508 0.76633
 H1539 H 0.38542 0.44421 0.71274
 H1540 H 0.40105 0.41775 0.69694
 H1541 H 0.39926 0.38414 0.69372
 H1542 H 0.41483 0.35803 0.67736
 H1543 H 0.46323 0.36368 0.71393
 H1544 H 0.44805 0.39046 0.72963
 H1545 H 0.47756 0.35553 0.68447
 H1546 H 0.49301 0.32951 0.66782
 H1547 H 0.43963 0.30027 0.66407
 H1548 H 0.42440 0.32580 0.68160
 C1549 C 0.41343 0.58584 0.77254
 C1550 C 0.40052 0.57383 0.78185
 C1551 C 0.39238 0.55857 0.77234
 C1552 C 0.39687 0.55511 0.75329
 C1553 C 0.40975 0.56713 0.74398
 C1554 C 0.41801 0.58229 0.75353
 C1555 C 0.42209 0.60201 0.78263
 C1556 C 0.44148 0.60578 0.78077
 C1557 C 0.44967 0.62091 0.79043
 C1558 C 0.43863 0.63270 0.80208
 C1559 C 0.41918 0.62900 0.80377
 C1560 C 0.41103 0.61379 0.79421
 C1561 C 0.44738 0.64860 0.81264
 C1562 C 0.44146 0.65278 0.83115
 C1563 C 0.44976 0.66758 0.84119
 C1564 C 0.46429 0.67850 0.83303
 C1565 C 0.47017 0.67439 0.81448
 C1566 C 0.46180 0.65962 0.80440
 H1567 H 0.39687 0.57614 0.79655
 H1568 H 0.38239 0.54960 0.77981
 H1569 H 0.41359 0.56468 0.72935
 H1570 H 0.42780 0.59141 0.74598
 H1571 H 0.45038 0.59678 0.77211
 H1572 H 0.46474 0.62315 0.78906
 H1573 H 0.41020 0.63800 0.81233
 H1574 H 0.39599 0.61138 0.79567
 H1575 H 0.43056 0.64445 0.83802
 H1576 H 0.44467 0.67054 0.85534
 H1577 H 0.48144 0.68240 0.80784
 H1578 H 0.46654 0.65693 0.79008
 C1579 C -0.08445 0.08872 0.27528
 C1580 C -0.09683 0.07639 0.28495
 C1581 C -0.10471 0.06080 0.27577
 C1582 C -0.10053 0.05728 0.25667
 C1583 C -0.08833 0.06967 0.24693
 C1584 C -0.08032 0.08517 0.25615
 C1585 C -0.07569 0.10506 0.28515
 C1586 C -0.07290 0.12249 0.27569
 C1587 C -0.06442 0.13774 0.28491
 C1588 C -0.05860 0.13598 0.30385
 C1589 C -0.06151 0.11859 0.31334
 C1590 C -0.06988 0.10332 0.30410
 C1591 C -0.04961 0.15219 0.31374
 C1592 C -0.03484 0.14901 0.32665
 C1593 C -0.02682 0.16413 0.33645
 C1594 C -0.03327 0.18280 0.33344
 C1595 C -0.04775 0.18608 0.32027
 C1596 C -0.05589 0.17093 0.31057
 H1597 H -0.10058 0.07890 0.29959
 H1598 H -0.11426 0.05160 0.28353
 H1599 H -0.08467 0.06712 0.23227
 H1600 H -0.07059 0.09415 0.24836
 H1601 H -0.07742 0.12441 0.26118
 H1602 H -0.06222 0.15085 0.27711
 H1603 H -0.05747 0.11682 0.32802
 H1604 H -0.07158 0.09004 0.31174
 H1605 H -0.02938 0.13482 0.32913
 H1606 H -0.01549 0.16124 0.34633
 H1607 H -0.05313 0.20031 0.31786
 H1608 H -0.06742 0.17387 0.30094
 C1609 C 0.07701 0.41239 0.27700
 C1610 C 0.07400 0.41534 0.25753
 C1611 C 0.08311 0.43011 0.24791
 C1612 C 0.09538 0.44233 0.25753
 C1613 C 0.09821 0.43959 0.27702
 C1614 C 0.08917 0.42475 0.28665
 C1615 C 0.06780 0.39629 0.28711
 C1616 C 0.06106 0.39844 0.30572
 C1617 C 0.05286 0.38314 0.31538
 C1618 C 0.05114 0.36536 0.30663
 C1619 C 0.05765 0.36325 0.28796
 C1620 C 0.06592 0.37852 0.27833
 C1621 C 0.04300 0.34895 0.31708
 C1622 C 0.03043 0.33648 0.30815
 C1623 C 0.02315 0.32076 0.31792
 C1624 C 0.02842 0.31711 0.33676
 C1625 C 0.04087 0.32966 0.34572
 C1626 C 0.04805 0.34543 0.33601
 H1627 H 0.06446 0.40630 0.24975
 H1628 H 0.08044 0.43209 0.23293
 H1629 H 0.10777 0.44865 0.28475
 H1630 H 0.09204 0.42269 0.30156
 H1631 H 0.06199 0.41201 0.31278
 H1632 H 0.04773 0.38525 0.32967
 H1633 H 0.05676 0.34965 0.28096
 H1634 H 0.07125 0.37628 0.26414
 H1635 H 0.02617 0.33894 0.29363
 H1636 H 0.01367 0.31126 0.31063
 H1637 H 0.04500 0.32733 0.36030
 H1638 H 0.05783 0.35469 0.34320
 C1639 C 0.58099 0.90666 0.77798
 C1640 C 0.59858 0.90439 0.76899
 C1641 C 0.60731 0.91975 0.75996
 C1642 C 0.59867 0.93776 0.75972
 C1643 C 0.58121 0.94011 0.76892
 C1644 C 0.57245 0.92473 0.77795
 C1645 C 0.57159 0.89018 0.78726
 C1646 C 0.56224 0.89226 0.80470
 C1647 C 0.55375 0.87663 0.81357
 C1648 C 0.55442 0.85858 0.80519
 C1649 C 0.56356 0.85656 0.78763
 C1650 C 0.57204 0.87218 0.77877
 C1651 C 0.54601 0.84183 0.81491
 C1652 C 0.55556 0.82429 0.81505
 C1653 C 0.54797 0.80862 0.82460
 C1654 C 0.53063 0.81011 0.83422
 C1655 C 0.52094 0.82758 0.83387
 C1656 C 0.52857 0.84328 0.82436
 H1657 H 0.60569 0.89074 0.76909
 H1658 H 0.62093 0.91757 0.75329
 H1659 H 0.57409 0.95376 0.76876
 H1660 H 0.55880 0.92688 0.78456
 H1661 H 0.56185 0.90589 0.81171
 H1662 H 0.54704 0.87859 0.82721
 H1663 H 0.56404 0.84291 0.78067
 H1664 H 0.57881 0.87018 0.76516
 H1665 H 0.56911 0.82276 0.80807
 H1666 H 0.55567 0.79531 0.82443
 H1667 H 0.50764 0.82922 0.84130
 H1668 H 0.52079 0.85656 0.82434
 C1669 C 0.72677 0.59068 0.08928
 C1670 C 0.72387 0.58388 0.07092
 C1671 C 0.73364 0.59170 0.05555
 C1672 C 0.74664 0.60670 0.05801
 C1673 C 0.74944 0.61338 0.07664
 C1674 C 0.73969 0.60545 0.09198
 C1675 C 0.71624 0.58244 0.10554
 C1676 C 0.72544 0.57847 0.12272
 C1677 C 0.71550 0.57058 0.13798
 C1678 C 0.69613 0.56665 0.13640
 C1679 C 0.68693 0.57070 0.11924
 C1680 C 0.69688 0.57846 0.10396
 C1681 C 0.68553 0.55825 0.15253
 C1682 C 0.66739 0.56494 0.15711
 C1683 C 0.65715 0.55671 0.17195
 C1684 C 0.66478 0.54151 0.18250
 C1685 C 0.68304 0.53497 0.17805
 C1686 C 0.69332 0.54329 0.16325
 H1687 H 0.71426 0.57222 0.06847
 H1688 H 0.73140 0.58528 0.04189
 H1689 H 0.75851 0.62533 0.07951
 H1690 H 0.74194 0.61122 0.10596
 H1691 H 0.74039 0.58125 0.12428
 H1692 H 0.72292 0.56774 0.15108
 H1693 H 0.67205 0.56764 0.11756
 H1694 H 0.68939 0.58153 0.09095
 H1695 H 0.66116 0.57667 0.14929
 H1696 H 0.64329 0.56233 0.17525
 H1697 H 0.68922 0.52312 0.18570
 H1698 H 0.70719 0.53769 0.15988
 C1699 C 0.22249 1.08982 0.59565
 C1700 C 0.21293 1.10177 0.58281
 C1701 C 0.22240 1.10953 0.56719
 C1702 C 0.24164 1.10561 0.56418
 C1703 C 0.25117 1.09365 0.57700
 C1704 C 0.24169 1.08579 0.59254
 C1705 C 0.21248 1.08162 0.61226
 C1706 C 0.21525 1.06250 0.61745
 C1707 C 0.20577 1.05475 0.63305
 C1708 C 0.19338 1.06596 0.64388
 C1709 C 0.19072 1.08513 0.63873
 C1710 C 0.20012 1.09285 0.62306
 C1711 C 0.18307 1.05762 0.66029
 C1712 C 0.16418 1.06265 0.66387
 C1713 C 0.15432 1.05449 0.67901
 C1714 C 0.16308 1.04103 0.69091
 C1715 C 0.18205 1.03615 0.68748
 C1716 C 0.19193 1.04437 0.67236
 H1717 H 0.19809 1.10497 0.58476
 H1718 H 0.21474 1.11882 0.55761
 H1719 H 0.26596 1.09025 0.57493
 H1720 H 0.24944 1.07675 0.60228
 H1721 H 0.22449 1.05345 0.60922
 H1722 H 0.20788 1.03986 0.63641
 H1723 H 0.18153 1.09424 0.64695
 H1724 H 0.19795 1.10770 0.61956
 H1725 H 0.15686 1.07265 0.65474
 H1726 H 0.13981 1.05877 0.68141
 H1727 H 0.18916 1.02570 0.69626
 H1728 H 0.20655 1.04037 0.67016
 C1729 C 0.22721 0.91913 0.91325
 C1730 C 0.21733 0.90916 0.92746
 C1731 C 0.22699 0.90055 0.94248
 C1732 C 0.24675 0.90177 0.94373
 C1733 C 0.25661 0.91192 0.92964
 C1734 C 0.24697 0.92044 0.91456
 C1735 C 0.21698 0.92797 0.89705
 C1736 C 0.22273 0.94559 0.88953
 C1737 C 0.21325 0.95376 0.87415
 C1738 C 0.19771 0.94457 0.86597
 C1739 C 0.19190 0.92700 0.87356
 C1740 C 0.20145 0.91878 0.88885
 C1741 C 0.18755 0.95327 0.84964
 C1742 C 0.18062 0.94187 0.83497
 C1743 C 0.17067 0.94996 0.81986
 C1744 C 0.16749 0.96968 0.81897
 C1745 C 0.17466 0.98112 0.83351
 C1746 C 0.18451 0.97301 0.84868
 H1747 H 0.20209 0.90809 0.92704
 H1748 H 0.21898 0.89269 0.95299
 H1749 H 0.27181 0.91338 0.93031
 H1750 H 0.25505 0.92782 0.90377
 H1751 H 0.23449 0.95318 0.89563
 H1752 H 0.21823 0.96720 0.86854
 H1753 H 0.17983 0.91965 0.86779
 H1754 H 0.19678 0.90509 0.89412
 H1755 H 0.18294 0.92665 0.83511
 H1756 H 0.16517 0.94068 0.80906
 H1757 H 0.17269 0.99638 0.83316
 H1758 H 0.18948 0.98220 0.85982
 C1759 C 0.72281 0.42191 0.40639
 C1760 C 0.73266 0.40468 0.40426
 C1761 C 0.74239 0.39657 0.41948
 C1762 C 0.74255 0.40552 0.43720
 C1763 C 0.73275 0.42278 0.43934
 C1764 C 0.72300 0.43090 0.42410
 C1765 C 0.71229 0.43038 0.39022
 C1766 C 0.71255 0.45009 0.38687
 C1767 C 0.70272 0.45799 0.37156
 C1768 C 0.69240 0.44634 0.35928
 C1769 C 0.69214 0.42663 0.36265
 C1770 C 0.70196 0.41875 0.37794
 C1771 C 0.68194 0.45465 0.34299
 C1772 C 0.66402 0.44771 0.33811
 C1773 C 0.65431 0.45521 0.32258
 C1774 C 0.66226 0.46986 0.31156
 C1775 C 0.68008 0.47697 0.31654
 C1776 C 0.68983 0.46942 0.33207
 H1777 H 0.73297 0.39752 0.39074
 H1778 H 0.74961 0.38315 0.41742
 H1779 H 0.73275 0.43010 0.45277
 H1780 H 0.71539 0.44408 0.42625
 H1781 H 0.72053 0.45941 0.39596
 H1782 H 0.70304 0.47324 0.36945
 H1783 H 0.68452 0.41725 0.35334
 H1784 H 0.70130 0.40354 0.38026
 H1785 H 0.65740 0.43660 0.34645
 H1786 H 0.64045 0.44970 0.31932
 H1787 H 0.68664 0.48810 0.30819
 H1788 H 0.70371 0.47490 0.33530
 C1789 C 0.77578 0.41604 0.58837
 C1790 C 0.76541 0.39910 0.59004
 C1791 C 0.75646 0.39132 0.57428
 C1792 C 0.75753 0.40037 0.55650
 C1793 C 0.76804 0.41722 0.55482
 C1794 C 0.77711 0.42490 0.57052
 C1795 C 0.78508 0.42455 0.60516
 C1796 C 0.78574 0.44441 0.60729
 C1797 C 0.79485 0.45246 0.62279
 C1798 C 0.80332 0.44087 0.63663
 C1799 C 0.80242 0.42104 0.63473
 C1800 C 0.79347 0.41297 0.61912
 C1801 C 0.81344 0.44947 0.65276
 C1802 C 0.81075 0.44258 0.67128
 C1803 C 0.82052 0.45061 0.68642
 C1804 C 0.83334 0.46550 0.68325
 C1805 C 0.83598 0.47241 0.66474
 C1806 C 0.82605 0.46455 0.64966
 H1807 H 0.76394 0.39198 0.60359
 H1808 H 0.74872 0.37818 0.57604
 H1809 H 0.76898 0.42471 0.54141
 H1810 H 0.78524 0.43777 0.56862
 H1811 H 0.77907 0.45376 0.59706
 H1812 H 0.79512 0.46779 0.62405
 H1813 H 0.80904 0.41179 0.64510
 H1814 H 0.79349 0.39765 0.61781
 H1815 H 0.80101 0.43105 0.67405
 H1816 H 0.81833 0.44495 0.70054
 H1817 H 0.84567 0.48397 0.66194
 H1818 H 0.82848 0.47003 0.63550
 C1819 C 0.28191 -0.08382 0.09309
 C1820 C 0.27127 -0.10052 0.09544
 C1821 C 0.26217 -0.10877 0.08003
 C1822 C 0.26332 -0.10046 0.06191
 C1823 C 0.27406 -0.08384 0.05953
 C1824 C 0.28329 -0.07567 0.07491
 C1825 C 0.29137 -0.07488 0.10957
 C1826 C 0.29227 -0.05498 0.11112
 C1827 C 0.30112 -0.04657 0.12660
 C1828 C 0.30910 -0.05786 0.14098
 C1829 C 0.30813 -0.07773 0.13954
 C1830 C 0.29945 -0.08614 0.12397
 C1831 C 0.31854 -0.04894 0.15737
 C1832 C 0.31515 -0.05559 0.17587
 C1833 C 0.32417 -0.04724 0.19129
 C1834 C 0.33692 -0.03222 0.18848
 C1835 C 0.34028 -0.02556 0.16998
 C1836 C 0.33111 -0.03376 0.15460
 H1837 H 0.26970 -0.10708 0.10925
 H1838 H 0.25425 -0.12172 0.08234
 H1839 H 0.27509 -0.07693 0.04583
 H1840 H 0.29159 -0.06298 0.07251
 H1841 H 0.28588 -0.04585 0.10051
 H1842 H 0.30146 -0.03122 0.12748
 H1843 H 0.31441 -0.08676 0.15031
 H1844 H 0.29933 -0.10150 0.12310
 H1845 H 0.30541 -0.06717 0.17841
 H1846 H 0.32142 -0.05272 0.20538
 H1847 H 0.34992 -0.01389 0.16743
 H1848 H 0.33407 -0.02845 0.14048
 C1849 C 0.27408 0.08725 0.41491
 C1850 C 0.28401 0.09908 0.42735
 C1851 C 0.27479 0.10771 0.44257
 C1852 C 0.25541 0.10474 0.44567
 C1853 C 0.24547 0.09295 0.43323
 C1854 C 0.25470 0.08429 0.41804
 C1855 C 0.28390 0.07805 0.39875
 C1856 C 0.27502 0.07659 0.38104
 C1857 C 0.28436 0.06814 0.36578
 C1858 C 0.30281 0.06101 0.36788
 C1859 C 0.31161 0.06231 0.38562
 C1860 C 0.30226 0.07072 0.40088
 C1861 C 0.31299 0.05260 0.35153
 C1862 C 0.33213 0.05681 0.34838
 C1863 C 0.34174 0.04916 0.33292
 C1864 C 0.33246 0.03708 0.32023
 C1865 C 0.31336 0.03273 0.32343
 C1866 C 0.30370 0.04047 0.33889
 H1867 H 0.29888 0.10191 0.42515
 H1868 H 0.28276 0.11693 0.45177
 H1869 H 0.23059 0.09015 0.43544
 H1870 H 0.24671 0.07501 0.40892
 H1871 H 0.26099 0.08233 0.37885
 H1872 H 0.27732 0.06758 0.35222
 H1873 H 0.32570 0.05666 0.38775
 H1874 H 0.30936 0.07129 0.41442
 H1875 H 0.33963 0.06625 0.35775
 H1876 H 0.35652 0.05257 0.33098
 H1877 H 0.30582 0.02355 0.31384
 H1878 H 0.28900 0.03684 0.34105
 C1879 C 0.77870 0.58370 0.90959
 C1880 C 0.76943 0.60120 0.90680
 C1881 C 0.76076 0.61049 0.92194
 C1882 C 0.76119 0.60252 0.94023
 C1883 C 0.77066 0.58516 0.94308
 C1884 C 0.77931 0.57584 0.92793
 C1885 C 0.78760 0.57368 0.89339
 C1886 C 0.80513 0.56446 0.89547
 C1887 C 0.81364 0.55538 0.88010
 C1888 C 0.80484 0.55534 0.86229
 C1889 C 0.78721 0.56434 0.86028
 C1890 C 0.77869 0.57339 0.87564
 C1891 C 0.81429 0.54649 0.84574
 C1892 C 0.81407 0.55566 0.82802
 C1893 C 0.82358 0.54781 0.81258
 C1894 C 0.83350 0.53058 0.81449
 C1895 C 0.83342 0.52118 0.83210
 C1896 C 0.82396 0.52908 0.84759
 H1897 H 0.76903 0.60781 0.89292
 H1898 H 0.75383 0.62400 0.91937
 H1899 H 0.77098 0.57854 0.95696
 H1900 H 0.78612 0.56227 0.93049
 H1901 H 0.81247 0.56463 0.90889
 H1902 H 0.82736 0.54880 0.88203
 H1903 H 0.77994 0.56429 0.84681
 H1904 H 0.76501 0.58004 0.87366
 H1905 H 0.80691 0.56917 0.82618
 H1906 H 0.82322 0.55528 0.79913
 H1907 H 0.84106 0.50795 0.83403
 H1908 H 0.82421 0.52159 0.86103
 C1909 C 0.08795 0.72510 0.58288
 C1910 C 0.06960 0.72419 0.57537
 C1911 C 0.05466 0.73395 0.58395
 C1912 C 0.05768 0.74475 0.60032
 C1913 C 0.07597 0.74541 0.60798
 C1914 C 0.09092 0.73580 0.59932
 C1915 C 0.10397 0.71508 0.57354
 C1916 C 0.11838 0.70662 0.58441
 C1917 C 0.13362 0.69756 0.57565
 C1918 C 0.13472 0.69658 0.55584
 C1919 C 0.12027 0.70485 0.54494
 C1920 C 0.10511 0.71408 0.55369
 C1921 C 0.15084 0.68684 0.54660
 C1922 C 0.14775 0.67404 0.53177
 C1923 C 0.16291 0.66438 0.52349
 C1924 C 0.18145 0.66750 0.52973
 C1925 C 0.18458 0.68057 0.54431
 C1926 C 0.16940 0.69006 0.55275
 H1927 H 0.06673 0.71586 0.56288
 H1928 H 0.04079 0.73327 0.57758
 H1929 H 0.07874 0.75333 0.62076
 H1930 H 0.10488 0.73701 0.60538
 H1931 H 0.11778 0.70677 0.59972
 H1932 H 0.14443 0.69104 0.58438
 H1933 H 0.12089 0.70445 0.52963
 H1934 H 0.09446 0.72073 0.54487
 H1935 H 0.13357 0.67122 0.52686
 H1936 H 0.16014 0.65447 0.51218
 H1937 H 0.19872 0.68312 0.54947
 H1938 H 0.17217 0.69998 0.56404
 C1939 C 0.59130 0.22132 1.08226
 C1940 C 0.57304 0.21932 1.07477
 C1941 C 0.55779 0.22928 1.08250
 C1942 C 0.56037 0.24138 1.09802
 C1943 C 0.57857 0.24315 1.10570
 C1944 C 0.59385 0.23332 1.09787
 C1945 C 0.60764 0.21110 1.07373
 C1946 C 0.62222 0.20382 1.08520
 C1947 C 0.63764 0.19438 1.07715
 C1948 C 0.63874 0.19183 1.05749
 C1949 C 0.62419 0.19902 1.04601
 C1950 C 0.60886 0.20863 1.05402
 C1951 C 0.65490 0.18148 1.04900
 C1952 C 0.65182 0.16756 1.03522
 C1953 C 0.66698 0.15745 1.02753
 C1954 C 0.68555 0.16120 1.03332
 C1955 C 0.68868 0.17532 1.04690
 C1956 C 0.67348 0.18529 1.05476
 H1957 H 0.57049 0.20999 1.06294
 H1958 H 0.54401 0.22773 1.07610
 H1959 H 0.58104 0.25210 1.11783
 H1960 H 0.60773 0.23538 1.10388
 H1961 H 0.62159 0.20515 1.10044
 H1962 H 0.64855 0.18873 1.08634
 H1963 H 0.62482 0.19745 1.03078
 H1964 H 0.59810 0.21437 1.04472
 H1965 H 0.63763 0.16426 1.03063
 H1966 H 0.66420 0.14674 1.01697
 H1967 H 0.70285 0.17839 1.05169
 H1968 H 0.67624 0.19606 1.06525
 C1969 C 0.91097 0.22161 0.92054
 C1970 C 0.92331 0.21236 0.90795
 C1971 C 0.93801 0.22230 0.89917
 C1972 C 0.94066 0.24172 0.90271
 C1973 C 0.92838 0.25097 0.91532
 C1974 C 0.91371 0.24103 0.92415
 C1975 C 0.89521 0.21108 0.92972
 C1976 C 0.87741 0.21969 0.93205
 C1977 C 0.86249 0.20966 0.94036
 C1978 C 0.86501 0.19078 0.94646
 C1979 C 0.88283 0.18221 0.94429
 C1980 C 0.89777 0.19225 0.93604
 C1981 C 0.84899 0.17991 0.95467
 C1982 C 0.84594 0.16095 0.94943
 C1983 C 0.83061 0.15082 0.95674
 C1984 C 0.81800 0.15939 0.96951
 C1985 C 0.82116 0.17829 0.97495
 C1986 C 0.83646 0.18847 0.96755
 H1987 H 0.92140 0.19750 0.90462
 H1988 H 0.94713 0.21487 0.88934
 H1989 H 0.93027 0.26587 0.91855
 H1990 H 0.90465 0.24849 0.93401
 H1991 H 0.87488 0.23405 0.92707
 H1992 H 0.84884 0.21654 0.94159
 H1993 H 0.88527 0.16777 0.94912
 H1994 H 0.91138 0.18533 0.93477
 H1995 H 0.85525 0.15403 0.93940
 H1996 H 0.82866 0.13621 0.95246
 H1997 H 0.81161 0.18530 0.98467
 H1998 H 0.83855 0.20301 0.97197
 C1999 C 0.41147 0.72509 0.42026
 C2000 C 0.42356 0.71482 0.40823
 C2001 C 0.43853 0.72384 0.39895
 C2002 C 0.44174 0.74335 0.40143
 C2003 C 0.42968 0.75365 0.41344
 C2004 C 0.41472 0.74462 0.42277
 C2005 C 0.39542 0.71547 0.42991
 C2006 C 0.37778 0.72455 0.43156
 C2007 C 0.36248 0.71516 0.43995
 C2008 C 0.36449 0.69648 0.44682
 C2009 C 0.38222 0.68754 0.44551
 C2010 C 0.39751 0.69693 0.43718
 C2011 C 0.34801 0.68609 0.45470
 C2012 C 0.34489 0.66705 0.44978
 C2013 C 0.32912 0.65733 0.45666
 C2014 C 0.31613 0.66640 0.46868
 C2015 C 0.31936 0.68536 0.47384
 C2016 C 0.33511 0.69514 0.46685
 H2017 H 0.42124 0.69986 0.40570
 H2018 H 0.44742 0.71560 0.38956
 H2019 H 0.43198 0.76865 0.41582
 H2020 H 0.40583 0.75287 0.43214
 H2021 H 0.37563 0.73872 0.42589
 H2022 H 0.34894 0.72232 0.44056
 H2023 H 0.38426 0.67326 0.45096
 H2024 H 0.41100 0.68969 0.43648
 H2025 H 0.35448 0.65976 0.44029
 H2026 H 0.32712 0.64266 0.45262
 H2027 H 0.30952 0.69272 0.48300
 H2028 H 0.33724 0.70976 0.47100
 C2029 C 0.59107 0.77158 0.41257
 C2030 C 0.59293 0.76088 0.39594
 C2031 C 0.57724 0.75202 0.38796
 C2032 C 0.55933 0.75362 0.39645
 C2033 C 0.55746 0.76434 0.41307
 C2034 C 0.57314 0.77323 0.42102
 C2035 C 0.60772 0.78107 0.42104
 C2036 C 0.61007 0.78151 0.44078
 C2037 C 0.62549 0.79083 0.44876
 C2038 C 0.63894 0.79990 0.43719
 C2039 C 0.63672 0.79924 0.41743
 C2040 C 0.62129 0.78995 0.40946
 C2041 C 0.65492 0.81045 0.44570
 C2042 C 0.66067 0.82797 0.43799
 C2043 C 0.67528 0.83823 0.44628
 C2044 C 0.68448 0.83126 0.46252
 C2045 C 0.67892 0.81362 0.47010
 C2046 C 0.66429 0.80333 0.46179
 H2047 H 0.60657 0.75918 0.38918
 H2048 H 0.57911 0.74403 0.37505
 H2049 H 0.54391 0.76567 0.42007
 H2050 H 0.57118 0.78156 0.43370
 H2051 H 0.60000 0.77459 0.45009
 H2052 H 0.62667 0.79124 0.46403
 H2053 H 0.64694 0.80590 0.40812
 H2054 H 0.61980 0.79003 0.39421
 H2055 H 0.65362 0.83396 0.42573
 H2056 H 0.67940 0.85164 0.43993
 H2057 H 0.68561 0.80793 0.48270
 H2058 H 0.66034 0.78977 0.46794
 C2059 C 0.08934 0.27632 -0.08578
 C2060 C 0.07731 0.28550 -0.09874
 C2061 C 0.06166 0.27603 -0.10611
 C2062 C 0.05790 0.25713 -0.10082
 C2063 C 0.06997 0.24795 -0.08790
 C2064 C 0.08547 0.25747 -0.08038
 C2065 C 0.10584 0.28637 -0.07782
 C2066 C 0.10970 0.28530 -0.05836
 C2067 C 0.12515 0.29490 -0.05080
 C2068 C 0.13716 0.30559 -0.06258
 C2069 C 0.13342 0.30650 -0.08208
 C2070 C 0.11784 0.29707 -0.08962
 C2071 C 0.15335 0.31600 -0.05447
 C2072 C 0.17122 0.31535 -0.06317
 C2073 C 0.18645 0.32522 -0.05543
 C2074 C 0.18400 0.33613 -0.03903
 C2075 C 0.16613 0.33678 -0.03037
 C2076 C 0.15099 0.32675 -0.03796
 H2077 H 0.07989 0.30007 -0.10301
 H2078 H 0.05264 0.28338 -0.11614
 H2079 H 0.06729 0.23343 -0.08349
 H2080 H 0.09460 0.25003 -0.07051
 H2081 H 0.10060 0.27726 -0.04894
 H2082 H 0.12780 0.29386 -0.03573
 H2083 H 0.14238 0.31477 -0.09144
 H2084 H 0.11525 0.29799 -0.10470
 H2085 H 0.17344 0.30705 -0.07583
 H2086 H 0.20006 0.32457 -0.06242
 H2087 H 0.16391 0.34494 -0.01761
 H2088 H 0.13733 0.32761 -0.03106
 C2089 C 0.41065 0.27604 0.08104
 C2090 C 0.41054 0.25633 0.08455
 C2091 C 0.42598 0.24730 0.09305
 C2092 C 0.44181 0.25778 0.09888
 C2093 C 0.44187 0.27751 0.09549
 C2094 C 0.42669 0.28644 0.08644
 C2095 C 0.39407 0.28575 0.07210
 C2096 C 0.38973 0.30478 0.07635
 C2097 C 0.37425 0.31390 0.06807
 C2098 C 0.36216 0.30412 0.05574
 C2099 C 0.36642 0.28505 0.05154
 C2100 C 0.38227 0.27610 0.05938
 C2101 C 0.34517 0.31375 0.04752
 C2102 C 0.33807 0.30861 0.02968
 C2103 C 0.32215 0.31769 0.02210
 C2104 C 0.31313 0.33254 0.03190
 C2105 C 0.32036 0.33775 0.04965
 C2106 C 0.33587 0.32830 0.05746
 H2107 H 0.39843 0.24776 0.08098
 H2108 H 0.42545 0.23205 0.09495
 H2109 H 0.45354 0.28624 0.10000
 H2110 H 0.42767 0.30154 0.08367
 H2111 H 0.39812 0.31273 0.08630
 H2112 H 0.37188 0.32870 0.07137
 H2113 H 0.35742 0.27685 0.04238
 H2114 H 0.38523 0.26159 0.05535
 H2115 H 0.34490 0.29771 0.02135
 H2116 H 0.31695 0.31294 0.00857
 H2117 H 0.31427 0.34936 0.05757
 H2118 H 0.34047 0.33247 0.07141
 C2119 C 0.90970 0.78157 0.58484
 C2120 C 0.92744 0.78076 0.57590
 C2121 C 0.94262 0.77145 0.58461
 C2122 C 0.94036 0.76269 0.60241
 C2123 C 0.92265 0.76362 0.61140
 C2124 C 0.90751 0.77296 0.60272
 C2125 C 0.89346 0.79120 0.57555
 C2126 C 0.88092 0.80242 0.58617
 C2127 C 0.86534 0.81107 0.57758
 C2128 C 0.86191 0.80871 0.55815
 C2129 C 0.87457 0.79768 0.54746
 C2130 C 0.89018 0.78902 0.55607
 C2131 C 0.84513 0.81768 0.54917
 C2132 C 0.84642 0.82618 0.53114
 C2133 C 0.83072 0.83513 0.52301
 C2134 C 0.81339 0.83578 0.53275
 C2135 C 0.81202 0.82696 0.55061
 C2136 C 0.82769 0.81802 0.55871
 H2137 H 0.92962 0.78743 0.56221
 H2138 H 0.95605 0.77083 0.57726
 H2139 H 0.92053 0.75718 0.62520
 H2140 H 0.89397 0.77317 0.60989
 H2141 H 0.88325 0.80465 0.60113
 H2142 H 0.85606 0.81979 0.58612
 H2143 H 0.87219 0.79541 0.53252
 H2144 H 0.89945 0.78026 0.54756
 H2145 H 0.85971 0.82634 0.52352
 H2146 H 0.83227 0.84200 0.50934
 H2147 H 0.79877 0.82691 0.55831
 H2148 H 0.82613 0.81126 0.57244
   
