data_POSCAR
  _audit_creation_date              2014-09-24
  _audit_creation_method            'ToBaCCo'
  _symmetry_space_group_name_H-M    'P1'
  _symmetry_Int_Tables_number       1
  _symmetry_cell_setting            triclinic
  loop_
  _symmetry_equiv_pos_as_xyz
 x,y,z
_cell_length_a 50.8234
_cell_length_b 50.8904
_cell_length_c 50.6180
_cell_angle_alpha 89.920800
_cell_angle_beta 90.251600
_cell_angle_gamma 90.295700
loop_
  _atom_site_label
  _atom_site_type_symbol
  _atom_site_fract_x
  _atom_site_fract_y
  _atom_site_fract_z
C1 C 0.72688 0.66727 0.96614
 H2 H 0.74601 0.66776 0.95685
 C3 C 0.70586 0.68100 0.95485
 H4 H 0.70881 0.69227 0.93693
 C5 C 0.69909 0.65069 0.99988
 H6 H 0.69622 0.63820 1.01687
 C7 C 0.67763 0.66413 0.98929
 H8 H 0.65846 0.66212 0.99837
 N9 N 0.72310 0.65231 0.98813
 C10 C 0.79968 0.63535 1.02338
 H11 H 0.79744 0.61426 1.02512
 C12 C 0.82249 0.64756 1.03269
 H13 H 0.83791 0.63587 1.04165
 C14 C 0.78226 0.67634 1.00961
 H15 H 0.76643 0.68742 1.00074
 C16 C 0.80486 0.68939 1.01873
 H17 H 0.80648 0.71054 1.01680
 Zn18 Zn 0.75070 0.63029 0.99997
 N19 N 0.78028 0.64973 1.01185
 C20 C 0.78550 0.61004 0.96176
 N21 N 0.76044 0.60890 0.97107
 C22 C 0.74157 0.59433 0.95861
 C23 C 0.74769 0.58011 0.93584
 C24 C 0.79243 0.59613 0.93914
 C25 C 0.73435 0.62346 1.05161
 C26 C 0.72524 0.61043 1.07403
 C27 C 0.72652 0.56954 1.04975
 C28 C 0.73567 0.58341 1.02770
 N29 N 0.73902 0.60994 1.02896
 H30 H 0.80006 0.62226 0.97138
 H31 H 0.72166 0.59423 0.96608
 H32 H 0.73252 0.56887 0.92579
 H33 H 0.81234 0.59747 0.93167
 H34 H 0.73742 0.64450 1.05207
 H35 H 0.72127 0.62155 1.09183
 H36 H 0.72356 0.54846 1.04849
 H37 H 0.73990 0.57301 1.00964
 C38 C 0.82517 0.67478 1.03027
 C39 C 0.68094 0.67911 0.96639
 C40 C 0.72113 0.58325 1.07308
 C41 C 0.77335 0.58117 0.92599
 C42 C 0.72813 0.33483 0.52370
 H43 H 0.74734 0.33295 0.53278
 C44 C 0.70655 0.32134 0.53428
 H45 H 0.70913 0.30889 0.55147
 C46 C 0.70085 0.35445 0.49113
 H47 H 0.69843 0.36798 0.47488
 C48 C 0.67883 0.34135 0.50106
 H49 H 0.65967 0.34464 0.49221
 N50 N 0.72491 0.35105 0.50254
 C51 C 0.80226 0.36471 0.46777
 H52 H 0.80165 0.38594 0.46697
 C53 C 0.82402 0.35142 0.45794
 H54 H 0.84028 0.36242 0.44955
 C55 C 0.78174 0.32442 0.47962
 H56 H 0.76511 0.31404 0.48791
 C57 C 0.80321 0.31031 0.46993
 H58 H 0.80317 0.28904 0.47088
 Zn59 Zn 0.75373 0.37190 0.49118
 N60 N 0.78183 0.35117 0.47861
 C61 C 0.79010 0.38923 0.52996
 N62 N 0.76513 0.39203 0.52056
 C63 C 0.74742 0.40760 0.53309
 C64 C 0.75467 0.42127 0.55596
 C65 C 0.79813 0.40252 0.55271
 C66 C 0.73677 0.38089 0.43994
 C67 C 0.72784 0.39494 0.41805
 C68 C 0.73266 0.43508 0.44314
 C69 C 0.74155 0.42023 0.46466
 N70 N 0.74299 0.39358 0.46278
 H71 H 0.80369 0.37623 0.52026
 H72 H 0.72753 0.40903 0.52553
 H73 H 0.74042 0.43342 0.56599
 H74 H 0.81795 0.39993 0.56022
 H75 H 0.73833 0.35972 0.43896
 H76 H 0.72247 0.38459 0.40011
 H77 H 0.73110 0.45623 0.44482
 H78 H 0.74701 0.42996 0.48284
 C79 C 0.82456 0.32400 0.45909
 C80 C 0.68166 0.32484 0.52294
 C81 C 0.72555 0.42223 0.41972
 C82 C 0.78025 0.41858 0.56588
 C83 C 0.22954 -0.16464 0.02429
 H84 H 0.24883 -0.16577 0.03333
 C85 C 0.20840 -0.17850 0.03526
 H86 H 0.21139 -0.19048 0.05271
 C87 C 0.20160 -0.14659 -0.00864
 H88 H 0.19877 -0.13357 -0.02524
 C89 C 0.18001 -0.16010 0.00166
 H90 H 0.16074 -0.15763 -0.00724
 N91 N 0.22579 -0.14901 0.00277
 C92 C 0.30216 -0.13466 -0.03372
 H93 H 0.30108 -0.11348 -0.03520
 C94 C 0.32403 -0.14781 -0.04352
 H95 H 0.33989 -0.13676 -0.05258
 C96 C 0.28278 -0.17496 -0.02013
 H97 H 0.26656 -0.18541 -0.01115
 C98 C 0.30438 -0.18892 -0.02972
 H99 H 0.30485 -0.21014 -0.02801
 Zn100 Zn 0.25408 -0.12780 -0.00923
 N101 N 0.28227 -0.14827 -0.02200
 C102 C 0.29103 -0.10921 0.02833
 N103 N 0.26570 -0.10721 0.01974
 C104 C 0.24796 -0.09204 0.03273
 C105 C 0.25558 -0.07796 0.05524
 C106 C 0.29943 -0.09546 0.05066
 C107 C 0.23654 -0.11944 -0.06039
 C108 C 0.22725 -0.10567 -0.08232
 C109 C 0.23136 -0.06532 -0.05738
 C110 C 0.24062 -0.07992 -0.03585
 N111 N 0.24260 -0.10653 -0.03764
 H112 H 0.30468 -0.12187 0.01827
 H113 H 0.22782 -0.09121 0.02580
 H114 H 0.24134 -0.06610 0.06564
 H115 H 0.31958 -0.09735 0.05746
 H116 H 0.23857 -0.14057 -0.06130
 H117 H 0.22208 -0.11632 -0.10017
 H118 H 0.22944 -0.04418 -0.05566
 H119 H 0.24598 -0.07002 -0.01774
 C120 C 0.32523 -0.17515 -0.04138
 C121 C 0.18338 -0.17600 0.02392
 C122 C 0.22442 -0.07839 -0.08077
 C123 C 0.28155 -0.07980 0.06428
 C124 C 0.22564 0.16561 0.46433
 H125 H 0.24478 0.16629 0.45508
 C126 C 0.20454 0.17926 0.45309
 H127 H 0.20744 0.19064 0.43524
 C128 C 0.19792 0.14865 0.49794
 H129 H 0.19511 0.13604 0.51485
 C130 C 0.17638 0.16199 0.48739
 H131 H 0.15721 0.15980 0.49643
 N132 N 0.22194 0.15051 0.48625
 C133 C 0.29857 0.13386 0.52161
 H134 H 0.29645 0.11275 0.52317
 C135 C 0.32119 0.14615 0.53127
 H136 H 0.33658 0.13450 0.54033
 C137 C 0.28098 0.17484 0.50803
 H138 H 0.26514 0.18589 0.49913
 C139 C 0.30340 0.18798 0.51748
 H140 H 0.30487 0.20915 0.51578
 Zn141 Zn 0.24968 0.12864 0.49808
 N142 N 0.27915 0.14821 0.51005
 C143 C 0.28459 0.10870 0.45980
 N144 N 0.25955 0.10732 0.46915
 C145 C 0.24081 0.09259 0.45671
 C146 C 0.24703 0.07844 0.43391
 C147 C 0.29162 0.09487 0.43716
 C148 C 0.23332 0.12173 0.54971
 C149 C 0.22438 0.10864 0.57217
 C150 C 0.22607 0.06775 0.54801
 C151 C 0.23504 0.08164 0.52591
 N152 N 0.23812 0.10821 0.52708
 H153 H 0.29904 0.12105 0.46942
 H154 H 0.22091 0.09230 0.46421
 H155 H 0.23194 0.06707 0.42387
 H156 H 0.31150 0.09643 0.42966
 H157 H 0.23620 0.14280 0.55014
 H158 H 0.22030 0.11964 0.58999
 H159 H 0.22332 0.04665 0.54694
 H160 H 0.23938 0.07123 0.50788
 C161 C 0.32369 0.17342 0.52913
 C162 C 0.17962 0.17714 0.46459
 C163 C 0.22058 0.08146 0.57128
 C164 C 0.27266 0.07976 0.42401
 C165 C 0.16778 0.46721 0.22753
 H166 H 0.16797 0.45816 0.24688
 C167 C 0.18132 0.45554 0.20666
 H168 H 0.19216 0.43755 0.20995
 C169 C 0.15208 0.50078 0.19906
 H170 H 0.13998 0.51787 0.19589
 C171 C 0.16536 0.48979 0.17771
 H172 H 0.16365 0.49866 0.15831
 N173 N 0.15336 0.48931 0.22335
 C174 C 0.13755 0.52513 0.29987
 H175 H 0.11647 0.52722 0.29776
 C176 C 0.15013 0.53409 0.32267
 H177 H 0.13873 0.54315 0.33821
 C178 C 0.17814 0.51068 0.28218
 H179 H 0.18892 0.50165 0.26628
 C180 C 0.19155 0.51944 0.30476
 H181 H 0.21267 0.51708 0.30628
 Zn182 Zn 0.13167 0.50160 0.25098
 N183 N 0.15155 0.51338 0.28037
 C184 C 0.11118 0.46398 0.28656
 N185 N 0.10990 0.47311 0.26130
 C186 C 0.09511 0.46061 0.24262
 C187 C 0.08092 0.43789 0.24908
 C188 C 0.09729 0.44143 0.29384
 C189 C 0.12544 0.55288 0.23378
 C190 C 0.11252 0.57525 0.22467
 C191 C 0.07129 0.55148 0.22712
 C192 C 0.08501 0.52947 0.23624
 N193 N 0.11166 0.53050 0.23904
 H194 H 0.12358 0.47362 0.30097
 H195 H 0.09492 0.46793 0.22254
 H196 H 0.06959 0.42773 0.23403
 H197 H 0.09885 0.43403 0.31387
 H198 H 0.14656 0.55320 0.23648
 H199 H 0.12371 0.59289 0.22026
 H200 H 0.05012 0.55053 0.22465
 H201 H 0.07441 0.51164 0.24097
 C202 C 0.17732 0.53111 0.32522
 C203 C 0.17980 0.46678 0.18146
 C204 C 0.08525 0.57450 0.22117
 C205 C 0.08222 0.42815 0.27491
 C206 C -0.16506 0.02506 0.23031
 H207 H -0.16599 0.03443 0.24946
 C208 C -0.17857 0.03586 0.20878
 H209 H -0.19011 0.05350 0.21143
 C210 C -0.14763 -0.00846 0.20308
 H211 H -0.13490 -0.02518 0.20064
 C212 C -0.16082 0.00165 0.18110
 H213 H -0.15837 -0.00759 0.16199
 N214 N -0.14985 0.00337 0.22708
 C215 C -0.13516 -0.03041 0.30504
 H216 H -0.11395 -0.03169 0.30392
 C217 C -0.14824 -0.03978 0.32731
 H218 H -0.13710 -0.04832 0.34345
 C219 C -0.17562 -0.01790 0.28524
 H220 H -0.18617 -0.00957 0.26868
 C221 C -0.18952 -0.02712 0.30723
 H222 H -0.21078 -0.02578 0.30765
 Zn223 Zn -0.12856 -0.00797 0.25568
 N224 N -0.14889 -0.01952 0.28470
 C225 C -0.10867 0.03065 0.29083
 N226 N -0.10728 0.02097 0.26582
 C227 C -0.09240 0.03304 0.24703
 C228 C -0.07811 0.05579 0.25315
 C229 C -0.09468 0.05328 0.29776
 C230 C -0.12134 -0.05941 0.23954
 C231 C -0.10808 -0.08146 0.23033
 C232 C -0.06725 -0.05700 0.23315
 C233 C -0.08132 -0.03533 0.24236
 N234 N -0.10795 -0.03680 0.24487
 H235 H -0.12112 0.02128 0.30531
 H236 H -0.09209 0.02525 0.22716
 H237 H -0.06661 0.06553 0.23801
 H238 H -0.09621 0.06106 0.31761
 H239 H -0.14247 -0.06006 0.24198
 H240 H -0.11900 -0.09918 0.22557
 H241 H -0.04613 -0.05561 0.23062
 H242 H -0.07100 -0.01733 0.24713
 C243 C -0.17564 -0.03809 0.32846
 C244 C -0.17616 0.02419 0.18388
 C245 C -0.08084 -0.08016 0.22687
 C246 C -0.07940 0.06604 0.27873
 C247 C 0.33662 0.52535 0.73124
 H248 H 0.33601 0.53466 0.75043
 C249 C 0.32224 0.53586 0.71015
 H250 H 0.31037 0.55322 0.71311
 C251 C 0.35406 0.49234 0.70339
 H252 H 0.36712 0.47594 0.70054
 C253 C 0.33999 0.50217 0.68185
 H254 H 0.34207 0.49312 0.66261
 N255 N 0.35224 0.50405 0.72749
 C256 C 0.36944 0.47014 0.80491
 H257 H 0.39065 0.46944 0.80347
 C258 C 0.35696 0.46035 0.82737
 H259 H 0.36856 0.45210 0.84332
 C260 C 0.32835 0.48155 0.78576
 H261 H 0.31732 0.48960 0.76938
 C262 C 0.31504 0.47190 0.80793
 H263 H 0.29376 0.47264 0.80867
 Zn264 Zn 0.37450 0.49319 0.75550
 N265 N 0.35510 0.48073 0.78482
 C266 C 0.39377 0.53211 0.79062
 N267 N 0.39498 0.52276 0.76547
 C268 C 0.40916 0.53548 0.74656
 C269 C 0.42302 0.55849 0.75273
 C270 C 0.40734 0.55498 0.79760
 C271 C 0.38333 0.44211 0.73894
 C272 C 0.39733 0.42051 0.72976
 C273 C 0.43724 0.44648 0.73201
 C274 C 0.42245 0.46767 0.74122
 N275 N 0.39593 0.46520 0.74407
 H276 H 0.38184 0.52223 0.80520
 H277 H 0.40932 0.52795 0.72658
 H278 H 0.43405 0.56866 0.73753
 H279 H 0.40604 0.56242 0.81760
 H280 H 0.36226 0.44066 0.74163
 H281 H 0.38705 0.40233 0.72531
 H282 H 0.45828 0.44863 0.72934
 H283 H 0.43214 0.48605 0.74583
 C284 C 0.32954 0.46130 0.82893
 C285 C 0.32417 0.52428 0.68518
 C286 C 0.42447 0.42278 0.72606
 C287 C 0.42200 0.56834 0.77848
 C288 C 0.66833 0.96970 0.72869
 H289 H 0.66860 0.96074 0.74808
 C290 C 0.68189 0.95800 0.70784
 H291 H 0.69280 0.94007 0.71119
 C292 C 0.65244 1.00307 0.70009
 H293 H 0.64026 1.02009 0.69686
 C294 C 0.66573 0.99206 0.67877
 H295 H 0.66395 1.00082 0.65933
 N296 N 0.65381 0.99173 0.72444
 C297 C 0.63810 1.02793 0.80079
 H298 H 0.61699 1.02983 0.79878
 C299 C 0.65076 1.03740 0.82335
 H300 H 0.63933 1.04666 0.83876
 C301 C 0.67870 1.01363 0.78301
 H302 H 0.68946 1.00451 0.76714
 C303 C 0.69221 1.02287 0.80534
 H304 H 0.71338 1.02077 0.80663
 Zn305 Zn 0.63215 1.00409 0.75207
 N306 N 0.65208 1.01609 0.78133
 C307 C 0.61182 0.96658 0.78788
 N308 N 0.61046 0.97561 0.76258
 C309 C 0.59567 0.96300 0.74398
 C310 C 0.58157 0.94025 0.75056
 C311 C 0.59804 0.94401 0.79526
 C312 C 0.62590 1.05525 0.73456
 C313 C 0.61303 1.07749 0.72510
 C314 C 0.57178 1.05376 0.72765
 C315 C 0.58547 1.03186 0.73711
 N316 N 0.61211 1.03292 0.73998
 H317 H 0.62423 0.97633 0.80222
 H318 H 0.59541 0.97024 0.72388
 H319 H 0.57027 0.92999 0.73556
 H320 H 0.59967 0.93668 0.81531
 H321 H 0.64702 1.05559 0.73731
 H322 H 0.62424 1.09506 0.72048
 H323 H 0.55063 1.05277 0.72506
 H324 H 0.57485 1.01407 0.74197
 C325 C 0.67804 1.03478 0.82572
 C326 C 0.68029 0.96914 0.68260
 C327 C 0.58577 1.07669 0.72146
 C328 C 0.58297 0.93061 0.77642
 C329 C 0.02480 0.23037 -0.16184
 H330 H 0.03395 0.24959 -0.16287
 C331 C 0.03564 0.20928 -0.17564
 H332 H 0.05309 0.21226 -0.18752
 C333 C -0.00814 0.20251 -0.14385
 H334 H -0.02464 0.19968 -0.13078
 C335 C 0.00203 0.18096 -0.15733
 H336 H -0.00687 0.16174 -0.15480
 N337 N 0.00338 0.22662 -0.14620
 C338 C -0.03110 0.30331 -0.13030
 H339 H -0.03200 0.30184 -0.10900
 C340 C -0.04094 0.32550 -0.14303
 H341 H -0.04946 0.34123 -0.13152
 C342 C -0.01903 0.28450 -0.17134
 H343 H -0.01065 0.26835 -0.18224
 C344 C -0.02870 0.30645 -0.18491
 H345 H -0.02765 0.30726 -0.20626
 Zn346 Zn -0.00785 0.25463 -0.12446
 N347 N -0.02018 0.28350 -0.14448
 C348 C 0.03094 0.29007 -0.10559
 N349 N 0.02148 0.26507 -0.10376
 C350 C 0.03405 0.24659 -0.08894
 C351 C 0.05711 0.25305 -0.07518
 C352 C 0.05387 0.29733 -0.09216
 C353 C -0.05903 0.23781 -0.11606
 C354 C -0.08099 0.22899 -0.10217
 C355 C -0.05575 0.23225 -0.06165
 C356 C -0.03421 0.24108 -0.07637
 N357 N -0.03615 0.24330 -0.10312
 H358 H 0.02118 0.30429 -0.11802
 H359 H 0.02644 0.22671 -0.08830
 H360 H 0.06723 0.23817 -0.06373
 H361 H 0.06147 0.31716 -0.09408
 H362 H -0.06006 0.24004 -0.13729
 H363 H -0.09899 0.22435 -0.11282
 H364 H -0.05394 0.23020 -0.04039
 H365 H -0.01599 0.24601 -0.06644
 C366 C -0.03967 0.32714 -0.17054
 C367 C 0.02429 0.18430 -0.17310
 C368 C -0.07932 0.22602 -0.07473
 C369 C 0.06715 0.27863 -0.07697
 C370 C 0.46885 0.22994 0.16956
 H371 H 0.45933 0.24891 0.16941
 C372 C 0.45757 0.20896 0.18344
 H373 H 0.43942 0.21179 0.19419
 C374 C 0.50318 0.20248 0.15439
 H375 H 0.52042 0.19969 0.14236
 C376 C 0.49261 0.18107 0.16800
 H377 H 0.50193 0.16202 0.16661
 N378 N 0.49115 0.22631 0.15524
 C379 C 0.52562 0.30313 0.13781
 H380 H 0.52794 0.30066 0.11672
 C381 C 0.53419 0.32622 0.14992
 H382 H 0.54316 0.34163 0.13817
 C383 C 0.51110 0.28600 0.17889
 H384 H 0.50222 0.27019 0.19005
 C385 C 0.51945 0.30889 0.19185
 H386 H 0.51692 0.31074 0.21301
 Zn387 Zn 0.50304 0.25383 0.13295
 N388 N 0.51404 0.28374 0.15227
 C389 C 0.46506 0.28780 0.11067
 N390 N 0.47459 0.26285 0.11047
 C391 C 0.46269 0.24359 0.09601
 C392 C 0.44027 0.24916 0.08092
 C393 C 0.44279 0.29419 0.09586
 C394 C 0.55482 0.23796 0.12756
 C395 C 0.57737 0.22883 0.11506
 C396 C 0.55387 0.22976 0.07344
 C397 C 0.53167 0.23891 0.08676
 N398 N 0.53245 0.24239 0.11342
 H399 H 0.47425 0.30269 0.12280
 H400 H 0.47033 0.22380 0.09664
 H401 H 0.43066 0.23368 0.06975
 H402 H 0.43515 0.31402 0.09644
 H403 H 0.55493 0.24117 0.14868
 H404 H 0.59495 0.22489 0.12657
 H405 H 0.55307 0.22659 0.05230
 H406 H 0.51384 0.24299 0.07584
 C407 C 0.53097 0.32920 0.17714
 C408 C 0.46943 0.18424 0.18236
 C409 C 0.57684 0.22450 0.08782
 C410 C 0.43019 0.27468 0.08101
 C411 C 0.96795 0.72800 0.67030
 H412 H 0.95861 0.74705 0.67055
 C413 C 0.95679 0.70698 0.68421
 H414 H 0.93890 0.70985 0.69538
 C415 C 1.00172 0.70042 0.65413
 H416 H 1.01869 0.69762 0.64171
 C417 C 0.99126 0.67895 0.66774
 H418 H 1.00038 0.65985 0.66595
 N419 N 0.98992 0.72434 0.65548
 C420 C 1.02469 0.80107 0.63840
 H421 H 1.02663 0.79885 0.61725
 C422 C 1.03356 0.82398 0.65065
 H423 H 1.04237 0.83950 0.63891
 C424 C 1.01078 0.78353 0.67953
 H425 H 1.00199 0.76764 0.69064
 C426 C 1.01945 0.80623 0.69262
 H427 H 1.01727 0.80785 0.71383
 Zn428 Zn 1.00168 0.75202 0.63332
 N429 N 1.01327 0.78158 0.65283
 C430 C 0.96350 0.78662 0.61264
 N431 N 0.97291 0.76165 0.61153
 C432 C 0.96056 0.74282 0.59687
 C433 C 0.93771 0.74884 0.58262
 C434 C 0.94082 0.79344 0.59871
 C435 C 1.05321 0.73592 0.62697
 C436 C 1.07559 0.72694 0.61406
 C437 C 1.05157 0.72848 0.57276
 C438 C 1.02955 0.73750 0.58648
 N439 N 1.03069 0.74061 0.61318
 H440 H 0.97304 0.80114 0.62494
 H441 H 0.96811 0.72299 0.59679
 H442 H 0.92769 0.73368 0.57139
 H443 H 0.93322 0.81324 0.60013
 H444 H 1.05362 0.73888 0.64813
 H445 H 1.09331 0.72286 0.62529
 H446 H 1.05050 0.72563 0.55157
 H447 H 1.01160 0.74181 0.57586
 C448 C 1.03081 0.82666 0.67795
 C449 C 0.96843 0.68217 0.68264
 C450 C 1.07471 0.72300 0.58677
 C451 C 0.92770 0.77437 0.58375
 C452 C 0.52562 0.73323 0.33735
 H453 H 0.53498 0.75236 0.33700
 C454 C 0.53671 0.71230 0.32348
 H455 H 0.55456 0.71535 0.31224
 C456 C 0.49187 0.70534 0.35372
 H457 H 0.47495 0.70240 0.36621
 C458 C 0.50226 0.68396 0.34013
 H459 H 0.49309 0.66478 0.34198
 N460 N 0.50369 0.72937 0.35223
 C461 C 0.46945 0.80603 0.36881
 H462 H 0.46799 0.80412 0.39005
 C463 C 0.46005 0.82854 0.35631
 H464 H 0.45133 0.84404 0.36799
 C465 C 0.48239 0.78794 0.32772
 H466 H 0.49089 0.77193 0.31671
 C467 C 0.47319 0.81021 0.31435
 H468 H 0.47474 0.81135 0.29304
 Zn469 Zn 0.49212 0.75705 0.37422
 N470 N 0.48056 0.78643 0.35451
 C471 C 0.53068 0.79175 0.39501
 N472 N 0.52099 0.76678 0.39592
 C473 C 0.53305 0.74782 0.41054
 C474 C 0.55579 0.75372 0.42506
 C475 C 0.55330 0.79846 0.40922
 C476 C 0.44056 0.74037 0.38107
 C477 C 0.41828 0.73133 0.39432
 C478 C 0.44262 0.73380 0.43540
 C479 C 0.46451 0.74285 0.42134
 N480 N 0.46318 0.74554 0.39460
 H481 H 0.52134 0.80637 0.38272
 H482 H 0.52527 0.72799 0.41045
 H483 H 0.56551 0.73846 0.43633
 H484 H 0.56109 0.81829 0.40805
 H485 H 0.44000 0.74298 0.35986
 H486 H 0.40048 0.72687 0.38332
 H487 H 0.44386 0.73128 0.45662
 H488 H 0.48252 0.74753 0.43177
 C489 C 0.46197 0.83071 0.32885
 C490 C 0.52504 0.68739 0.32514
 C491 C 0.41939 0.72785 0.42168
 C492 C 0.56605 0.77926 0.42423
 C493 C 0.36624 0.00439 0.24627
 C494 C 0.12377 1.00791 0.75049
 C495 C 0.62397 0.51042 0.24924
 C496 C 0.86444 0.50310 0.74775
 C497 C 0.24975 0.36216 0.00447
 C498 C 0.75122 0.12556 1.00736
 C499 C 0.24945 0.62447 0.50697
 C500 C 0.74783 0.86340 0.50551
 C501 C 0.00146 0.24777 0.36225
 C502 C 1.00558 0.75051 0.12416
 C503 C 0.50389 0.25122 0.62292
 C504 C 0.50313 0.74949 0.86321
 C505 C 0.40928 -0.05772 0.27504
 C506 C 0.42096 -0.07617 0.25783
 C507 C 0.43286 -0.09918 0.26834
 C508 C 0.43287 -0.10362 0.29597
 C509 C 0.42156 -0.08492 0.31321
 C510 C 0.40981 -0.06186 0.30271
 C511 C 0.39857 -0.04348 0.32031
 C512 C 0.39881 -0.04782 0.34750
 C513 C 0.41020 -0.07041 0.35777
 C514 C 0.42150 -0.08880 0.34094
 C515 C 0.44432 -0.11739 0.25075
 C516 C 0.44396 -0.11305 0.22355
 C517 C 0.43225 -0.09061 0.21327
 C518 C 0.42087 -0.07230 0.23012
 C519 C 0.44392 -0.12763 0.30677
 C520 C 0.45263 -0.14737 0.31661
 C521 C 0.39537 -0.03525 0.26433
 C522 C 0.38282 -0.01701 0.25592
 H523 H 0.38954 -0.02556 0.31329
 H524 H 0.39011 -0.03358 0.36068
 H525 H 0.41030 -0.07370 0.37891
 H526 H 0.43013 -0.10604 0.34993
 H527 H 0.45367 -0.13514 0.25782
 H528 H 0.45281 -0.12718 0.21035
 H529 H 0.43203 -0.08739 0.19213
 H530 H 0.41208 -0.05510 0.22121
 C531 C 0.90676 0.44016 0.77573
 C532 C 0.91688 0.42109 0.75821
 C533 C 0.92857 0.39784 0.76841
 C534 C 0.93010 0.39385 0.79606
 C535 C 0.92024 0.41310 0.81358
 C536 C 0.90856 0.43633 0.80337
 C537 C 0.89865 0.45519 0.82125
 C538 C 0.90016 0.45119 0.84844
 C539 C 0.91155 0.42847 0.85844
 C540 C 0.92155 0.40960 0.84132
 C541 C 0.93829 0.37893 0.75052
 C542 C 0.93648 0.38285 0.72332
 C543 C 0.92511 0.40561 0.71335
 C544 C 0.91541 0.42459 0.73050
 C545 C 0.94127 0.36979 0.80664
 C546 C 0.95017 0.35010 0.81640
 C547 C 0.89314 0.46298 0.76541
 C548 C 0.88083 0.48149 0.75725
 H549 H 0.88967 0.47322 0.81444
 H550 H 0.89244 0.46581 0.86182
 H551 H 0.91265 0.42544 0.87959
 H552 H 0.93026 0.39228 0.85007
 H553 H 0.94734 0.36094 0.75735
 H554 H 0.94396 0.36815 0.70990
 H555 H 0.92376 0.40857 0.69220
 H556 H 0.90679 0.44200 0.72183
 C557 C 0.08355 1.07267 0.77699
 C558 C 0.09030 1.08252 0.80229
 C559 C 0.07814 1.10571 0.81184
 C560 C 0.05928 1.11891 0.79605
 C561 C 0.05245 1.10897 0.77080
 C562 C 0.06462 1.08576 0.76125
 C563 C 0.05751 1.07620 0.73596
 C564 C 0.03888 1.08919 0.72053
 C565 C 0.02696 1.11186 0.72987
 C566 C 0.03361 1.12174 0.75470
 C567 C 0.08526 1.11519 0.83719
 C568 C 0.10383 1.10214 0.85264
 C569 C 0.11573 1.07948 0.84328
 C570 C 0.10910 1.06968 0.81844
 C571 C 0.04672 1.14246 0.80602
 C572 C 0.03643 1.16176 0.81503
 C573 C 0.09667 1.04946 0.76704
 C574 C 0.10838 1.03046 0.75926
 H575 H 0.06621 1.05860 0.72789
 H576 H 0.03367 1.08162 0.70122
 H577 H 0.01248 1.12186 0.71781
 H578 H 0.02384 1.13945 0.76110
 H579 H 0.07658 1.13276 0.84533
 H580 H 0.10900 1.10965 0.87198
 H581 H 0.13016 1.06941 0.85535
 H582 H 0.11883 1.05193 0.81209
 C583 C 0.58443 0.57575 0.27542
 C584 C 0.59293 0.58710 0.29953
 C585 C 0.58088 0.61041 0.30890
 C586 C 0.56035 0.62223 0.29414
 C587 C 0.55182 0.61083 0.27005
 C588 C 0.56390 0.58751 0.26066
 C589 C 0.55506 0.57648 0.23654
 C590 C 0.53484 0.58815 0.22209
 C591 C 0.52300 0.61092 0.23128
 C592 C 0.53132 0.62223 0.25497
 C593 C 0.58975 0.62139 0.33306
 C594 C 0.60992 0.60967 0.34754
 C595 C 0.62172 0.58688 0.33836
 C596 C 0.61339 0.57562 0.31467
 C597 C 0.54771 0.64574 0.30412
 C598 C 0.53733 0.66496 0.31319
 C599 C 0.59728 0.55231 0.26566
 C600 C 0.60879 0.53314 0.25799
 H601 H 0.56362 0.55874 0.22864
 H602 H 0.52833 0.57947 0.20366
 H603 H 0.50727 0.61988 0.22001
 H604 H 0.52155 0.63997 0.26130
 H605 H 0.58123 0.63912 0.34102
 H606 H 0.61642 0.61831 0.36599
 H607 H 0.63740 0.57786 0.34966
 H608 H 0.62311 0.55783 0.30842
 C609 C 0.57958 0.44644 0.22674
 C610 C 0.56899 0.44485 0.20090
 C611 C 0.55761 0.42090 0.19188
 C612 C 0.55697 0.39867 0.20876
 C613 C 0.56695 0.40049 0.23486
 C614 C 0.57825 0.42447 0.24389
 C615 C 0.58838 0.42575 0.26996
 C616 C 0.58749 0.40392 0.28658
 C617 C 0.57644 0.38047 0.27774
 C618 C 0.56623 0.37866 0.25220
 C619 C 0.54742 0.41971 0.16583
 C620 C 0.54851 0.44151 0.14917
 C621 C 0.55971 0.46490 0.15798
 C622 C 0.56984 0.46668 0.18354
 C623 C 0.54720 0.37370 0.19877
 C624 C 0.53957 0.35319 0.18954
 C625 C 0.59367 0.46992 0.23497
 C626 C 0.60658 0.48875 0.24152
 H627 H 0.59704 0.44361 0.27777
 H628 H 0.59543 0.40521 0.30642
 H629 H 0.57576 0.36358 0.29074
 H630 H 0.55780 0.36002 0.24621
 H631 H 0.53852 0.40195 0.15807
 H632 H 0.54063 0.44024 0.12931
 H633 H 0.56056 0.48176 0.14495
 H634 H 0.57826 0.48532 0.18954
 C635 C 0.08001 0.94351 0.72795
 C636 C 0.06848 0.94225 0.70250
 C637 C 0.05713 0.91831 0.69343
 C638 C 0.05744 0.89575 0.70987
 C639 C 0.06841 0.89721 0.73558
 C640 C 0.07970 0.92117 0.74467
 C641 C 0.09081 0.92209 0.77035
 C642 C 0.09086 0.89993 0.78654
 C643 C 0.07982 0.87650 0.77766
 C644 C 0.06868 0.87504 0.75249
 C645 C 0.04595 0.91748 0.66777
 C646 C 0.04603 0.93963 0.65155
 C647 C 0.05721 0.96301 0.66041
 C648 C 0.06831 0.96443 0.68558
 C649 C 0.04752 0.87088 0.69979
 C650 C 0.03970 0.85047 0.69047
 C651 C 0.09389 0.96710 0.73619
 C652 C 0.10660 0.98606 0.74276
 H653 H 0.09951 0.93992 0.77819
 H654 H 0.09952 0.90096 0.80610
 H655 H 0.07987 0.85935 0.79033
 H656 H 0.06029 0.85639 0.74645
 H657 H 0.03703 0.89974 0.65998
 H658 H 0.03737 0.93864 0.63200
 H659 H 0.05727 0.98015 0.64772
 H660 H 0.07669 0.98308 0.69163
 C661 C 0.90745 0.56904 0.72817
 C662 C 0.93035 0.56775 0.71244
 C663 C 0.94341 0.59128 0.70468
 C664 C 0.93346 0.61597 0.71270
 C665 C 0.91095 0.61721 0.72900
 C666 C 0.89792 0.59367 0.73679
 C667 C 0.87537 0.59541 0.75303
 C668 C 0.86596 0.61970 0.76130
 C669 C 0.87868 0.64271 0.75363
 C670 C 0.90092 0.64160 0.73766
 C671 C 0.96618 0.58947 0.68880
 C672 C 0.97577 0.56514 0.68084
 C673 C 0.96299 0.54215 0.68844
 C674 C 0.94052 0.54332 0.70406
 C675 C 0.94581 0.63999 0.70323
 C676 C 0.95607 0.65954 0.69444
 C677 C 0.89323 0.54517 0.73490
 C678 C 0.88071 0.52579 0.74054
 H679 H 0.86484 0.57807 0.75956
 H680 H 0.84873 0.62067 0.77374
 H681 H 0.87130 0.66153 0.76012
 H682 H 0.91018 0.66002 0.73226
 H683 H 0.97685 0.60679 0.68243
 H684 H 0.99323 0.56413 0.66871
 H685 H 0.97052 0.52330 0.68221
 H686 H 0.93128 0.52490 0.70952
 C687 C 0.40877 0.07088 0.22764
 C688 C 0.43120 0.06977 0.21124
 C689 C 0.44413 0.09337 0.20352
 C690 C 0.43450 0.11796 0.21222
 C691 C 0.41242 0.11901 0.22913
 C692 C 0.39953 0.09540 0.23690
 C693 C 0.37740 0.09694 0.25373
 C694 C 0.36825 0.12112 0.26258
 C695 C 0.38084 0.14422 0.25495
 C696 C 0.40267 0.14330 0.23841
 C697 C 0.46645 0.09176 0.18696
 C698 C 0.47568 0.06754 0.17827
 C699 C 0.46299 0.04447 0.18579
 C700 C 0.44100 0.04545 0.20209
 C701 C 0.44673 0.14207 0.20284
 C702 C 0.45699 0.16163 0.19411
 C703 C 0.39465 0.04695 0.23428
 C704 C 0.38228 0.02740 0.23967
 H705 H 0.36699 0.07952 0.26025
 H706 H 0.35131 0.12195 0.27544
 H707 H 0.37365 0.16295 0.26190
 H708 H 0.41183 0.16178 0.23303
 H709 H 0.47701 0.10914 0.18059
 H710 H 0.49278 0.06667 0.16563
 H711 H 0.47021 0.02571 0.17895
 H712 H 0.43182 0.02697 0.20744
 C713 C 0.27542 0.40688 -0.05817
 C714 C 0.25902 0.41039 -0.08056
 C715 C 0.26924 0.42250 -0.10370
 C716 C 0.29577 0.43112 -0.10424
 C717 C 0.31199 0.42815 -0.08159
 C718 C 0.30176 0.41600 -0.05850
 C719 C 0.31838 0.41301 -0.03619
 C720 C 0.34441 0.42171 -0.03670
 C721 C 0.35443 0.43359 -0.05928
 C722 C 0.33851 0.43683 -0.08152
 C723 C 0.25257 0.42547 -0.12596
 C724 C 0.22654 0.41672 -0.12537
 C725 C 0.21654 0.40492 -0.10272
 C726 C 0.23250 0.40178 -0.08050
 C727 C 0.30673 0.44224 -0.12825
 C728 C 0.31663 0.45112 -0.14797
 C729 C 0.26578 0.39238 -0.03548
 C730 C 0.25827 0.37935 -0.01707
 H731 H 0.31145 0.40399 -0.01812
 H732 H 0.35685 0.41919 -0.01948
 H733 H 0.37467 0.44033 -0.05956
 H734 H 0.34722 0.44621 -0.09860
 H735 H 0.25946 0.43456 -0.14401
 H736 H 0.21404 0.41912 -0.14256
 H737 H 0.19631 0.39817 -0.10234
 H738 H 0.22381 0.39262 -0.06330
 C739 C 0.77024 0.90759 0.44119
 C740 C 0.75920 0.90106 0.41630
 C741 C 0.76866 0.91354 0.39305
 C742 C 0.78908 0.93249 0.39484
 C743 C 0.79935 0.93979 0.41986
 C744 C 0.78988 0.92730 0.44310
 C745 C 0.80057 0.93475 0.46787
 C746 C 0.82008 0.95401 0.46962
 C747 C 0.82936 0.96623 0.44689
 C748 C 0.81920 0.95928 0.42224
 C749 C 0.75751 0.90651 0.36837
 C750 C 0.73753 0.88771 0.36671
 C751 C 0.72825 0.87552 0.38946
 C752 C 0.73889 0.88203 0.41402
 C753 C 0.80050 0.94345 0.37097
 C754 C 0.81085 0.95209 0.35138
 C755 C 0.76228 0.89308 0.46454
 C756 C 0.75580 0.88018 0.48343
 H757 H 0.79388 0.92587 0.48610
 H758 H 0.82802 0.95950 0.48872
 H759 H 0.84450 0.98120 0.44837
 H760 H 0.82698 0.96941 0.40514
 H761 H 0.76400 0.91555 0.35014
 H762 H 0.72917 0.88260 0.34768
 H763 H 0.71267 0.86100 0.38807
 H764 H 0.73092 0.87212 0.43116
 C765 C 0.77648 0.08251 1.07136
 C766 C 0.75824 0.07357 1.09047
 C767 C 0.76740 0.06115 1.11393
 C768 C 0.79475 0.05792 1.11819
 C769 C 0.81299 0.06685 1.09902
 C770 C 0.80382 0.07915 1.07553
 C771 C 0.82240 0.08808 1.05674
 C772 C 0.84930 0.08503 1.06107
 C773 C 0.85829 0.07300 1.08404
 C774 C 0.84044 0.06394 1.10284
 C775 C 0.74881 0.05239 1.13275
 C776 C 0.72192 0.05593 1.12859
 C777 C 0.71298 0.06820 1.10573
 C778 C 0.73084 0.07695 1.08681
 C779 C 0.80427 0.04567 1.14233
 C780 C 0.81296 0.03558 1.16208
 C781 C 0.76727 0.09638 1.04807
 C782 C 0.75989 0.10886 1.02922
 H783 H 0.81638 0.09750 1.03853
 H784 H 0.86324 0.09204 1.04653
 H785 H 0.87921 0.07069 1.08732
 H786 H 0.84842 0.05472 1.12038
 H787 H 0.75483 0.04279 1.15087
 H788 H 0.70796 0.04914 1.14321
 H789 H 0.69208 0.07094 1.10262
 H790 H 0.72293 0.08636 1.06933
 C791 C 0.27383 0.58385 0.57299
 C792 C 0.27743 0.59861 0.59645
 C793 C 0.28613 0.58597 0.61994
 C794 C 0.29138 0.55868 0.61979
 C795 C 0.28740 0.54384 0.59644
 C796 C 0.27856 0.55647 0.57297
 C797 C 0.27481 0.54128 0.54986
 C798 C 0.27966 0.51435 0.54991
 C799 C 0.28829 0.50200 0.57286
 C800 C 0.29217 0.51648 0.59591
 C801 C 0.28953 0.60112 0.64315
 C802 C 0.28452 0.62802 0.64314
 C803 C 0.27618 0.64042 0.62013
 C804 C 0.27266 0.62600 0.59700
 C805 C 0.30202 0.54616 0.64330
 C806 C 0.31163 0.53606 0.66260
 C807 C 0.26535 0.59699 0.54898
 C808 C 0.25826 0.60881 0.52957
 H809 H 0.26810 0.55003 0.53154
 H810 H 0.27671 0.50301 0.53206
 H811 H 0.29200 0.48107 0.57281
 H812 H 0.29886 0.50599 0.61327
 H813 H 0.29601 0.59236 0.66153
 H814 H 0.28719 0.63930 0.66108
 H815 H 0.27241 0.66134 0.62019
 H816 H 0.26625 0.63657 0.57960
 C817 C 0.22807 0.58072 0.44196
 C818 C 0.20544 0.56442 0.44191
 C819 C 0.19657 0.55281 0.41793
 C820 C 0.21037 0.55765 0.39413
 C821 C 0.23357 0.57316 0.39439
 C822 C 0.24250 0.58467 0.41840
 C823 C 0.26568 0.60021 0.41816
 C824 C 0.27958 0.60436 0.39484
 C825 C 0.27078 0.59319 0.37134
 C826 C 0.24805 0.57774 0.37100
 C827 C 0.17373 0.53677 0.41833
 C828 C 0.16008 0.53233 0.44174
 C829 C 0.16875 0.54372 0.46518
 C830 C 0.19117 0.55960 0.46538
 C831 C 0.19988 0.54777 0.36931
 C832 C 0.19020 0.53999 0.34896
 C833 C 0.23560 0.59480 0.46575
 C834 C 0.24177 0.60755 0.48487
 H835 H 0.27339 0.60918 0.43597
 H836 H 0.29728 0.61627 0.39502
 H837 H 0.28165 0.59647 0.35328
 H838 H 0.24202 0.56939 0.35227
 H839 H 0.16624 0.52744 0.40061
 H840 H 0.14267 0.51998 0.44170
 H841 H 0.15807 0.54021 0.48331
 H842 H 0.19722 0.56796 0.48411
 C843 C 0.72899 0.08663 0.93966
 C844 C 0.72502 0.05915 0.93794
 C845 C 0.71626 0.04779 0.91378
 C846 C 0.71150 0.06400 0.89152
 C847 C 0.71615 0.09142 0.89307
 C848 C 0.72491 0.10277 0.91720
 C849 C 0.72923 0.13028 0.91831
 C850 C 0.72505 0.14608 0.89620
 C851 C 0.71646 0.13497 0.87261
 C852 C 0.71204 0.10798 0.87094
 C853 C 0.71228 0.02027 0.91257
 C854 C 0.71685 0.00444 0.93459
 C855 C 0.72543 0.01555 0.95820
 C856 C 0.72946 0.04260 0.95998
 C857 C 0.70050 0.05281 0.86749
 C858 C 0.69044 0.04408 0.84772
 C859 C 0.73691 0.09859 0.96447
 C860 C 0.74338 0.10989 0.98440
 H861 H 0.73588 0.13988 0.93621
 H862 H 0.72848 0.16705 0.89740
 H863 H 0.71320 0.14734 0.85550
 H864 H 0.70544 0.10026 0.85213
 H865 H 0.70571 0.01073 0.89461
 H866 H 0.71372 -0.01658 0.93332
 H867 H 0.72898 0.00315 0.97522
 H868 H 0.73612 0.05038 0.97876
 C869 C 0.72578 0.90491 0.57146
 C870 C 0.73453 0.93088 0.57646
 C871 C 0.72639 0.94405 0.59978
 C872 C 0.70953 0.93115 0.61790
 C873 C 0.70102 0.90505 0.61301
 C874 C 0.70922 0.89188 0.58975
 C875 C 0.70051 0.86577 0.58531
 C876 C 0.68402 0.85311 0.60323
 C877 C 0.67594 0.86601 0.62595
 C878 C 0.68429 0.89167 0.63090
 C879 C 0.73534 0.97003 0.60434
 C880 C 0.75188 0.98263 0.58639
 C881 C 0.75983 0.96975 0.56360
 C882 C 0.75131 0.94416 0.55858
 C883 C 0.70023 0.94490 0.64116
 C884 C 0.69167 0.95607 0.66025
 C885 C 0.73379 0.89142 0.54760
 C886 C 0.74019 0.87935 0.52822
 H887 H 0.70636 0.85486 0.56800
 H888 H 0.67751 0.83317 0.59947
 H889 H 0.66315 0.85607 0.63983
 H890 H 0.67752 0.90084 0.64888
 H891 H 0.72969 0.98084 0.62180
 H892 H 0.75857 1.00251 0.59020
 H893 H 0.77266 0.97964 0.54971
 H894 H 0.75802 0.93493 0.54060
 C895 C 0.22620 0.40305 0.07032
 C896 C 0.23841 0.42685 0.07822
 C897 C 0.22983 0.43988 0.10145
 C898 C 0.20911 0.42901 0.11663
 C899 C 0.19697 0.40514 0.10877
 C900 C 0.20551 0.39214 0.08552
 C901 C 0.19297 0.36837 0.07797
 C902 C 0.17262 0.35772 0.09299
 C903 C 0.16431 0.37039 0.11576
 C904 C 0.17626 0.39383 0.12364
 C905 C 0.24229 0.46369 0.10892
 C906 C 0.26265 0.47431 0.09388
 C907 C 0.27102 0.46158 0.07116
 C908 C 0.25911 0.43810 0.06333
 C909 C 0.19975 0.44264 0.13995
 C910 C 0.19118 0.45375 0.15908
 C911 C 0.23497 0.38956 0.04674
 C912 C 0.24187 0.37765 0.02742
 H913 H 0.19870 0.35777 0.06042
 H914 H 0.16324 0.33955 0.08693
 H915 H 0.14850 0.36203 0.12737
 H916 H 0.16908 0.40294 0.14150
 H917 H 0.23645 0.47431 0.12643
 H918 H 0.27198 0.49253 0.09989
 H919 H 0.28682 0.46994 0.05953
 H920 H 0.26628 0.42893 0.04549
 C921 C -0.06319 0.27012 0.40525
 C922 C -0.08803 0.26013 0.39722
 C923 C -0.11134 0.26944 0.40940
 C924 C -0.10966 0.28864 0.42956
 C925 C -0.08475 0.29790 0.43825
 C926 C -0.06145 0.28861 0.42604
 C927 C -0.03679 0.29835 0.43484
 C928 C -0.03519 0.31674 0.45516
 C929 C -0.05797 0.32582 0.46711
 C930 C -0.08251 0.31659 0.45883
 C931 C -0.13595 0.25939 0.40084
 C932 C -0.13749 0.24066 0.38082
 C933 C -0.11470 0.23155 0.36891
 C934 C -0.09020 0.24109 0.37693
 C935 C -0.13347 0.29994 0.44040
 C936 C -0.15288 0.31031 0.44908
 C937 C -0.03967 0.26226 0.39126
 C938 C -0.02066 0.25579 0.37872
 H939 H -0.01853 0.29180 0.42619
 H940 H -0.01618 0.32399 0.46166
 H941 H -0.05662 0.34010 0.48290
 H942 H -0.09966 0.32420 0.46879
 H943 H -0.15421 0.26582 0.40958
 H944 H -0.15647 0.23316 0.37453
 H945 H -0.11600 0.21698 0.35339
 H946 H -0.07303 0.23332 0.36714
 C947 C 0.43820 0.77151 0.90591
 C948 C 0.41347 0.76145 0.89763
 C949 C 0.39003 0.77067 0.90960
 C950 C 0.39148 0.78985 0.92980
 C951 C 0.41628 0.79915 0.93876
 C952 C 0.43972 0.78995 0.92675
 C953 C 0.46427 0.79970 0.93581
 C954 C 0.46564 0.81803 0.95621
 C955 C 0.44273 0.82701 0.96798
 C956 C 0.41828 0.81778 0.95942
 C957 C 0.36553 0.76056 0.90081
 C958 C 0.36422 0.74182 0.88079
 C959 C 0.38715 0.73278 0.86908
 C960 C 0.41154 0.74242 0.87732
 C961 C 0.36754 0.80108 0.94040
 C962 C 0.34798 0.81134 0.94886
 C963 C 0.46185 0.76377 0.89207
 C964 C 0.48095 0.75740 0.87963
 H965 H 0.48262 0.79322 0.92731
 H966 H 0.48458 0.82528 0.96292
 H967 H 0.44390 0.84122 0.98385
 H968 H 0.40102 0.82532 0.96923
 H969 H 0.34716 0.76695 0.90937
 H970 H 0.34532 0.73425 0.87434
 H971 H 0.38603 0.71821 0.85356
 H972 H 0.42882 0.73470 0.86769
 C973 C 1.07088 0.77396 0.08234
 C974 C 1.09572 0.76557 0.09185
 C975 C 1.11912 0.77457 0.07941
 C976 C 1.11753 0.79184 0.05752
 C977 C 1.09265 0.79974 0.04766
 C978 C 1.06926 0.79078 0.06014
 C979 C 1.04463 0.79909 0.05009
 C980 C 1.04314 0.81580 0.02832
 C981 C 1.06600 0.82457 0.01609
 C982 C 1.09052 0.81669 0.02555
 C983 C 1.14372 0.76612 0.08940
 C984 C 1.14516 0.74924 0.11106
 C985 C 1.12228 0.74039 0.12320
 C986 C 1.09780 0.74840 0.11379
 C987 C 1.14138 0.80226 0.04568
 C988 C 1.16082 0.81168 0.03583
 C989 C 1.04714 0.76586 0.09599
 C990 C 1.02794 0.75907 0.10816
 H991 H 1.02631 0.79274 0.05892
 H992 H 1.02414 0.82195 0.02088
 H993 H 1.06473 0.83754 -0.00082
 H994 H 1.10773 0.82399 0.01533
 H995 H 1.16206 0.77241 0.08056
 H996 H 1.16414 0.74297 0.11845
 H997 H 1.12350 0.72724 0.13997
 H998 H 1.08057 0.74093 0.12385
 C999 C 0.56792 0.27567 0.57982
 C1000 C 0.59032 0.25927 0.57878
 C1001 C 0.61384 0.26857 0.56680
 C1002 C 0.61477 0.29416 0.55584
 C1003 C 0.59225 0.31046 0.55663
 C1004 C 0.56877 0.30118 0.56869
 C1005 C 0.54661 0.31790 0.56952
 C1006 C 0.54761 0.34308 0.55874
 C1007 C 0.57055 0.35216 0.54690
 C1008 C 0.59266 0.33612 0.54578
 C1009 C 0.63607 0.25194 0.56628
 C1010 C 0.63510 0.22685 0.57733
 C1011 C 0.61208 0.21774 0.58900
 C1012 C 0.58987 0.23366 0.58974
 C1013 C 0.63895 0.30404 0.54421
 C1014 C 0.65870 0.31301 0.53456
 C1015 C 0.54456 0.26686 0.59365
 C1016 C 0.52570 0.25971 0.60616
 H1017 H 0.52829 0.31169 0.57845
 H1018 H 0.53048 0.35561 0.55956
 H1019 H 0.57123 0.37174 0.53855
 H1020 H 0.61004 0.34408 0.53635
 H1021 H 0.65440 0.25816 0.55738
 H1022 H 0.65230 0.21441 0.57682
 H1023 H 0.61140 0.19823 0.59753
 H1024 H 0.57240 0.22566 0.59894
 C1025 C 0.43874 0.22474 0.58221
 C1026 C 0.43039 0.19869 0.58752
 C1027 C 0.40668 0.18897 0.57610
 C1028 C 0.39149 0.20535 0.55935
 C1029 C 0.40002 0.23130 0.55379
 C1030 C 0.42374 0.24102 0.56526
 C1031 C 0.43183 0.26704 0.55951
 C1032 C 0.41692 0.28302 0.54290
 C1033 C 0.39372 0.27353 0.53171
 C1034 C 0.38528 0.24797 0.53701
 C1035 C 0.39865 0.16291 0.58189
 C1036 C 0.41359 0.14693 0.59848
 C1037 C 0.43681 0.15641 0.60958
 C1038 C 0.44521 0.18196 0.60424
 C1039 C 0.36710 0.19536 0.54805
 C1040 C 0.34708 0.18602 0.53915
 C1041 C 0.46218 0.23494 0.59515
 C1042 C 0.48131 0.24271 0.60700
 H1043 H 0.44975 0.27527 0.56775
 H1044 H 0.42341 0.30288 0.53867
 H1045 H 0.38219 0.28605 0.51886
 H1046 H 0.36712 0.24143 0.52784
 H1047 H 0.38076 0.15459 0.57369
 H1048 H 0.40712 0.12708 0.60273
 H1049 H 0.44840 0.14390 0.62239
 H1050 H 0.46346 0.18838 0.61329
 C1051 C 0.94142 0.72517 0.08132
 C1052 C 0.92183 0.74317 0.07318
 C1053 C 0.89795 0.73374 0.06184
 C1054 C 0.89386 0.70639 0.05865
 C1055 C 0.91368 0.68842 0.06640
 C1056 C 0.93752 0.69785 0.07776
 C1057 C 0.95692 0.67952 0.08563
 C1058 C 0.95285 0.65262 0.08242
 C1059 C 0.92954 0.64338 0.07130
 C1060 C 0.91013 0.66097 0.06331
 C1061 C 0.87852 0.75208 0.05416
 C1062 C 0.88255 0.77897 0.05764
 C1063 C 0.90592 0.78818 0.06869
 C1064 C 0.92542 0.77058 0.07638
 C1065 C 0.86911 0.69652 0.04809
 C1066 C 0.84883 0.68728 0.03974
 C1067 C 0.96478 0.73455 0.09495
 C1068 C 0.98366 0.74194 0.10741
 H1069 H 0.97543 0.68576 0.09427
 H1070 H 0.96788 0.63889 0.08860
 H1071 H 0.92647 0.62246 0.06885
 H1072 H 0.89236 0.65279 0.05473
 H1073 H 0.86005 0.74583 0.04542
 H1074 H 0.86746 0.79273 0.05171
 H1075 H 0.90896 0.80909 0.07135
 H1076 H 0.94330 0.77868 0.08480
 C1077 C 0.56787 0.72551 0.90576
 C1078 C 0.58676 0.74407 0.91465
 C1079 C 0.61032 0.73535 0.92704
 C1080 C 0.61479 0.70812 0.93053
 C1081 C 0.59585 0.68956 0.92165
 C1082 C 0.57233 0.69829 0.90922
 C1083 C 0.55378 0.67938 0.90034
 C1084 C 0.55835 0.65260 0.90358
 C1085 C 0.58132 0.64405 0.91577
 C1086 C 0.59991 0.66222 0.92477
 C1087 C 0.62901 0.75426 0.93556
 C1088 C 0.62459 0.78103 0.93190
 C1089 C 0.60154 0.78955 0.91981
 C1090 C 0.58275 0.77138 0.91129
 C1091 C 0.63878 0.69905 0.94322
 C1092 C 0.65832 0.69058 0.95377
 C1093 C 0.54444 0.73428 0.89196
 C1094 C 0.52539 0.74126 0.87960
 H1095 H 0.53555 0.68505 0.89084
 H1096 H 0.54399 0.63841 0.89661
 H1097 H 0.58478 0.62322 0.91827
 H1098 H 0.61746 0.65458 0.93411
 H1099 H 0.64723 0.74856 0.94507
 H1100 H 0.63912 0.79522 0.93848
 H1101 H 0.59821 0.81037 0.91699
 H1102 H 0.56510 0.77897 0.90208
 C1103 C 0.06636 0.22378 0.40452
 C1104 C 0.08540 0.24229 0.41319
 C1105 C 0.10900 0.23351 0.42545
 C1106 C 0.11338 0.20628 0.42901
 C1107 C 0.09430 0.18777 0.42032
 C1108 C 0.07073 0.19655 0.40803
 C1109 C 0.05203 0.17769 0.39935
 C1110 C 0.05651 0.15090 0.40265
 C1111 C 0.07953 0.14230 0.41471
 C1112 C 0.09826 0.16042 0.42350
 C1113 C 0.12783 0.25237 0.43377
 C1114 C 0.12349 0.27915 0.43004
 C1115 C 0.10040 0.28773 0.41807
 C1116 C 0.08148 0.26960 0.40975
 C1117 C 0.13740 0.19714 0.44160
 C1118 C 0.15696 0.18863 0.45207
 C1119 C 0.04287 0.23259 0.39085
 C1120 C 0.02377 0.23958 0.37859
 H1121 H 0.03377 0.18341 0.38995
 H1122 H 0.04203 0.13675 0.39583
 H1123 H 0.08290 0.12146 0.41726
 H1124 H 0.11585 0.15273 0.43273
 H1125 H 0.14609 0.24663 0.44316
 H1126 H 0.13812 0.29332 0.43648
 H1127 H 0.09713 0.30854 0.41519
 H1128 H 0.06380 0.27723 0.40062
 C1129 C 0.53109 0.18792 0.66536
 C1130 C 0.55864 0.18518 0.66837
 C1131 C 0.56904 0.16231 0.68057
 C1132 C 0.55182 0.14233 0.68972
 C1133 C 0.52425 0.14520 0.68693
 C1134 C 0.51385 0.16809 0.67470
 C1135 C 0.48624 0.17046 0.67190
 C1136 C 0.46938 0.15073 0.68086
 C1137 C 0.47954 0.12836 0.69286
 C1138 C 0.50665 0.12553 0.69593
 C1139 C 0.59670 0.15990 0.68310
 C1140 C 0.61354 0.17949 0.67379
 C1141 C 0.60335 0.20186 0.66186
 C1142 C 0.57623 0.20481 0.65919
 C1143 C 0.56266 0.11867 0.70145
 C1144 C 0.57261 0.09931 0.71080
 C1145 C 0.52070 0.21055 0.65146
 C1146 C 0.51275 0.22914 0.63909
 H1147 H 0.47742 0.18755 0.66280
 H1148 H 0.44832 0.15281 0.67847
 H1149 H 0.46635 0.11311 0.69982
 H1150 H 0.51365 0.10777 0.70536
 H1151 H 0.60560 0.14287 0.69223
 H1152 H 0.63463 0.17729 0.67585
 H1153 H 0.61650 0.21700 0.65460
 H1154 H 0.56926 0.22264 0.64989
 C1155 C 1.03053 0.68676 0.16733
 C1156 C 1.05543 0.68746 0.17993
 C1157 C 1.06556 0.66439 0.19201
 C1158 C 1.05070 0.64076 0.19140
 C1159 C 1.02555 0.64021 0.17926
 C1160 C 1.01543 0.66330 0.16718
 C1161 C 0.99037 0.66223 0.15488
 C1162 C 0.97575 0.63900 0.15451
 C1163 C 0.98562 0.61644 0.16637
 C1164 C 1.01023 0.61692 0.17864
 C1165 C 1.09064 0.66551 0.20426
 C1166 C 1.10529 0.68874 0.20450
 C1167 C 1.09540 0.71128 0.19264
 C1168 C 1.07075 0.71078 0.18050
 C1169 C 1.06185 0.61687 0.20234
 C1170 C 1.07198 0.59733 0.21110
 C1171 C 1.02117 0.70969 0.15321
 C1172 C 1.01388 0.72842 0.14063
 H1173 H 0.98181 0.67931 0.14550
 H1174 H 0.95664 0.63851 0.14496
 H1175 H 0.97416 0.59845 0.16607
 H1176 H 1.01709 0.59888 0.18761
 H1177 H 1.09919 0.64850 0.21376
 H1178 H 1.12444 0.68923 0.21395
 H1179 H 1.10688 0.72926 0.19284
 H1180 H 1.06385 0.72885 0.17162
 C1181 C 0.97666 0.81222 0.16738
 C1182 C 0.94990 0.81862 0.16302
 C1183 C 0.93877 0.84064 0.17596
 C1184 C 0.95443 0.85611 0.19323
 C1185 C 0.98109 0.84951 0.19783
 C1186 C 0.99225 0.82748 0.18485
 C1187 C 1.01896 0.82131 0.18965
 C1188 C 1.03423 0.83648 0.20681
 C1189 C 1.02332 0.85800 0.21952
 C1190 C 0.99706 0.86455 0.21514
 C1191 C 0.91201 0.84675 0.17115
 C1192 C 0.89671 0.83153 0.15407
 C1193 C 0.90760 0.80996 0.14144
 C1194 C 0.93386 0.80347 0.14580
 C1195 C 0.94303 0.87891 0.20592
 C1196 C 0.93268 0.89770 0.21584
 C1197 C 0.98810 0.79035 0.15323
 C1198 C 0.99662 0.77226 0.14060
 H1199 H 1.02829 0.80472 0.18024
 H1200 H 1.05465 0.83151 0.21025
 H1201 H 1.03526 0.86971 0.23284
 H1202 H 0.98944 0.88148 0.22545
 H1203 H 0.90261 0.86332 0.18051
 H1204 H 0.87629 0.83648 0.15065
 H1205 H 0.89564 0.79819 0.12820
 H1206 H 0.94137 0.78645 0.13559
 C1207 C 0.48139 0.31453 0.66778
 C1208 C 0.48904 0.33998 0.65934
 C1209 C 0.47921 0.36248 0.67256
 C1210 C 0.46183 0.35937 0.69413
 C1211 C 0.45503 0.33390 0.70321
 C1212 C 0.46484 0.31140 0.68998
 C1213 C 0.45759 0.28613 0.69923
 C1214 C 0.44110 0.28318 0.72098
 C1215 C 0.43148 0.30519 0.73391
 C1216 C 0.43828 0.33030 0.72520
 C1217 C 0.48687 0.38773 0.66360
 C1218 C 0.50383 0.39066 0.64222
 C1219 C 0.51348 0.36866 0.62931
 C1220 C 0.50623 0.34356 0.63767
 C1221 C 0.44973 0.38224 0.70602
 C1222 C 0.43875 0.40093 0.71542
 C1223 C 0.48958 0.29173 0.65285
 C1224 C 0.49610 0.27314 0.63974
 H1225 H 0.46464 0.26843 0.68984
 H1226 H 0.43578 0.26372 0.72784
 H1227 H 0.41868 0.30280 0.75079
 H1228 H 0.43036 0.34681 0.73595
 H1229 H 0.47993 0.40542 0.67308
 H1230 H 0.50952 0.41012 0.63566
 H1231 H 0.52668 0.37104 0.61274
 H1232 H 0.51432 0.32704 0.62705
 C1233 C 0.47775 0.68506 0.82119
 C1234 C 0.45213 0.68470 0.81014
 C1235 C 0.44166 0.66097 0.79959
 C1236 C 0.45688 0.63774 0.80019
 C1237 C 0.48284 0.63832 0.81048
 C1238 C 0.49330 0.66206 0.82102
 C1239 C 0.51914 0.66209 0.83159
 C1240 C 0.53421 0.63929 0.83176
 C1241 C 0.52399 0.61608 0.82141
 C1242 C 0.49861 0.61549 0.81085
 C1243 C 0.41584 0.66101 0.78898
 C1244 C 0.40079 0.68383 0.78885
 C1245 C 0.41103 0.70703 0.79918
 C1246 C 0.43640 0.70758 0.80973
 C1247 C 0.44527 0.61303 0.79164
 C1248 C 0.43501 0.59258 0.78526
 C1249 C 0.48732 0.70844 0.83450
 C1250 C 0.49477 0.72738 0.84674
 H1251 H 0.52799 0.67970 0.83974
 H1252 H 0.55392 0.63965 0.83995
 H1253 H 0.53578 0.59842 0.82156
 H1254 H 0.49153 0.59699 0.80298
 H1255 H 0.40703 0.64346 0.78066
 H1256 H 0.38107 0.68349 0.78068
 H1257 H 0.39926 0.72469 0.79905
 H1258 H 0.44353 0.72612 0.81748
 C1259 C -0.02381 0.18304 0.32065
 C1260 C -0.04953 0.18245 0.30983
 C1261 C -0.05988 0.15861 0.29944
 C1262 C -0.04445 0.13551 0.29997
 C1263 C -0.01843 0.13632 0.31005
 C1264 C -0.00807 0.16018 0.32042
 C1265 C 0.01787 0.16045 0.33074
 C1266 C 0.03311 0.13777 0.33087
 C1267 C 0.02298 0.11444 0.32070
 C1268 C -0.00248 0.11361 0.31037
 C1269 C -0.08579 0.15840 0.28905
 C1270 C -0.10103 0.18109 0.28898
 C1271 C -0.09090 0.20440 0.29917
 C1272 C -0.06545 0.20519 0.30949
 C1273 C -0.05594 0.11070 0.29159
 C1274 C -0.06621 0.09022 0.28534
 C1275 C -0.01434 0.20655 0.33381
 C1276 C -0.00693 0.22557 0.34592
 H1277 H 0.02664 0.17817 0.33874
 H1278 H 0.05289 0.13832 0.33888
 H1279 H 0.03491 0.09688 0.32082
 H1280 H -0.00949 0.09502 0.30264
 H1281 H -0.09453 0.14075 0.28086
 H1282 H -0.12082 0.18057 0.28098
 H1283 H -0.10282 0.22197 0.29909
 H1284 H -0.05840 0.22381 0.31711
 C1285 C 0.02903 0.31144 0.32051
 C1286 C 0.01296 0.32743 0.30429
 C1287 C 0.02337 0.35099 0.29329
 C1288 C 0.04975 0.35838 0.29863
 C1289 C 0.06603 0.34197 0.31426
 C1290 C 0.05565 0.31840 0.32518
 C1291 C 0.07226 0.30238 0.34087
 C1292 C 0.09834 0.30949 0.34569
 C1293 C 0.10849 0.33257 0.33506
 C1294 C 0.09263 0.34869 0.31950
 C1295 C 0.00692 0.36678 0.27728
 C1296 C -0.01910 0.35949 0.27227
 C1297 C -0.02928 0.33646 0.28305
 C1298 C -0.01352 0.32054 0.29892
 C1299 C 0.06007 0.38323 0.28897
 C1300 C 0.06958 0.40382 0.28197
 C1301 C 0.01804 0.28858 0.33365
 C1302 C 0.00991 0.26990 0.34584
 H1303 H 0.06534 0.28415 0.34948
 H1304 H 0.11075 0.29700 0.35772
 H1305 H 0.12877 0.33802 0.33885
 H1306 H 0.10148 0.36640 0.31162
 H1307 H 0.01400 0.38484 0.26844
 H1308 H -0.03143 0.37178 0.25995
 H1309 H -0.04950 0.33090 0.27910
 H1310 H -0.02226 0.30277 0.30683
 C1311 C 0.53048 0.81350 0.82186
 C1312 C 0.51439 0.82933 0.80551
 C1313 C 0.52466 0.85300 0.79460
 C1314 C 0.55091 0.86067 0.80019
 C1315 C 0.56722 0.84442 0.81597
 C1316 C 0.55698 0.82074 0.82678
 C1317 C 0.57362 0.80488 0.84261
 C1318 C 0.59958 0.81226 0.84768
 C1319 C 0.60959 0.83545 0.83714
 C1320 C 0.59370 0.85141 0.82145
 C1321 C 0.50818 0.86861 0.77843
 C1322 C 0.48229 0.86104 0.77317
 C1323 C 0.47224 0.83792 0.78388
 C1324 C 0.48803 0.82217 0.79989
 C1325 C 0.56108 0.88559 0.79057
 C1326 C 0.57047 0.90623 0.78355
 C1327 C 0.51963 0.79050 0.83486
 C1328 C 0.51157 0.77171 0.84694
 H1329 H 0.56681 0.78658 0.85115
 H1330 H 0.61200 0.79990 0.85983
 H1331 H 0.62979 0.84108 0.84109
 H1332 H 0.60243 0.86923 0.81367
 H1333 H 0.51515 0.88675 0.76966
 H1334 H 0.46996 0.87318 0.76070
 H1335 H 0.45211 0.83215 0.77976
 H1336 H 0.47940 0.80431 0.80773
 C1337 C 0.66674 0.53159 0.18369
 C1338 C 0.68803 0.54954 0.18552
 C1339 C 0.70060 0.55859 0.16218
 C1340 C 0.69179 0.54962 0.13717
 C1341 C 0.67113 0.53093 0.13541
 C1342 C 0.65856 0.52188 0.15876
 C1343 C 0.63777 0.50337 0.15653
 C1344 C 0.62966 0.49405 0.13193
 C1345 C 0.64197 0.50290 0.10909
 C1346 C 0.66246 0.52115 0.11069
 C1347 C 0.72169 0.57674 0.16448
 C1348 C 0.73012 0.58564 0.18915
 C1349 C 0.71780 0.57679 0.21197
 C1350 C 0.69697 0.55894 0.21030
 C1351 C 0.70295 0.56080 0.11331
 C1352 C 0.71184 0.57109 0.09381
 C1353 C 0.65251 0.52399 0.20727
 C1354 C 0.64003 0.51786 0.22652
 H1355 H 0.62765 0.49583 0.17374
 H1356 H 0.61377 0.47986 0.13058
 H1357 H 0.63562 0.49557 0.09002
 H1358 H 0.67148 0.52741 0.09238
 H1359 H 0.73193 0.58416 0.14730
 H1360 H 0.74632 0.59948 0.19055
 H1361 H 0.72442 0.58376 0.23108
 H1362 H 0.68805 0.55256 0.22861
 C1363 C 0.16607 1.02906 0.68461
 C1364 C 0.18808 1.04611 0.68621
 C1365 C 0.20047 1.05503 0.66271
 C1366 C 0.19073 1.04682 0.63777
 C1367 C 0.16930 1.02899 0.63623
 C1368 C 0.15693 1.02007 0.65974
 C1369 C 0.13539 1.00242 0.65773
 C1370 C 0.12633 0.99382 0.63319
 C1371 C 0.13843 1.00254 0.61019
 C1372 C 0.15967 1.01994 0.61157
 C1373 C 0.22231 1.07230 0.66479
 C1374 C 0.23165 1.08047 0.68940
 C1375 C 0.21951 1.07174 0.71237
 C1376 C 0.19796 1.05475 0.71091
 C1377 C 0.20178 1.05791 0.61380
 C1378 C 0.21056 1.06808 0.59418
 C1379 C 0.15210 1.02159 0.70840
 C1380 C 0.13975 1.01548 0.72774
 H1381 H 0.12539 0.99500 0.67506
 H1382 H 0.10986 0.98030 0.63202
 H1383 H 0.13134 0.99577 0.59118
 H1384 H 0.16849 1.02613 0.59315
 H1385 H 0.23244 1.07959 0.64749
 H1386 H 0.24840 1.09364 0.69064
 H1387 H 0.22683 1.07814 0.73143
 H1388 H 0.18922 1.04842 0.72932
 C1389 C 0.16777 0.97949 0.81246
 C1390 C 0.17808 0.99594 0.83256
 C1391 C 0.19079 0.98467 0.85490
 C1392 C 0.19308 0.95702 0.85698
 C1393 C 0.18303 0.94060 0.83670
 C1394 C 0.17035 0.95187 0.81437
 C1395 C 0.16029 0.93504 0.79443
 C1396 C 0.16258 0.90786 0.79655
 C1397 C 0.17496 0.89682 0.81841
 C1398 C 0.18515 0.91290 0.83827
 C1399 C 0.20078 1.00146 0.87484
 C1400 C 0.19825 1.02865 0.87279
 C1401 C 0.18582 1.03968 0.85094
 C1402 C 0.17582 1.02361 0.83098
 C1403 C 0.20514 0.94526 0.88017
 C1404 C 0.21465 0.93443 0.89911
 C1405 C 0.15341 0.99070 0.79040
 C1406 C 0.14058 0.99904 0.77220
 H1407 H 0.15059 0.94267 0.77699
 H1408 H 0.15472 0.89530 0.78115
 H1409 H 0.17670 0.87569 0.81998
 H1410 H 0.19467 0.90335 0.85483
 H1411 H 0.21063 0.99378 0.89218
 H1412 H 0.20600 1.04123 0.88823
 H1413 H 0.18394 1.06081 0.84942
 H1414 H 0.16638 1.03307 0.81432
 C1415 C 0.66795 0.48161 0.31107
 C1416 C 0.67954 0.49805 0.33046
 C1417 C 0.69231 0.48675 0.35275
 C1418 C 0.69337 0.45908 0.35550
 C1419 C 0.68204 0.44264 0.33591
 C1420 C 0.66933 0.45394 0.31361
 C1421 C 0.65803 0.43711 0.29434
 C1422 C 0.65913 0.40990 0.29710
 C1423 C 0.67151 0.39884 0.31894
 C1424 C 0.68291 0.41491 0.33814
 C1425 C 0.70361 0.50356 0.37198
 C1426 C 0.70230 0.53079 0.36927
 C1427 C 0.68981 0.54184 0.34746
 C1428 C 0.67853 0.52575 0.32821
 C1429 C 0.70550 0.44735 0.37867
 C1430 C 0.71499 0.43654 0.39762
 C1431 C 0.65356 0.49293 0.28909
 C1432 C 0.64072 0.50139 0.27094
 H1433 H 0.64826 0.44476 0.27694
 H1434 H 0.65034 0.39734 0.28221
 H1435 H 0.67232 0.37769 0.32101
 H1436 H 0.69237 0.40534 0.35472
 H1437 H 0.71355 0.49585 0.38926
 H1438 H 0.71104 0.54337 0.38417
 H1439 H 0.68889 0.56299 0.34543
 H1440 H 0.66908 0.53523 0.31156
 C1441 C 0.82635 0.47394 0.68213
 C1442 C 0.80948 0.48910 0.66593
 C1443 C 0.79891 0.47812 0.64232
 C1444 C 0.80531 0.45207 0.63507
 C1445 C 0.82182 0.43674 0.65157
 C1446 C 0.83232 0.44769 0.67519
 C1447 C 0.84879 0.43199 0.69135
 C1448 C 0.85478 0.40626 0.68433
 C1449 C 0.84457 0.39557 0.66119
 C1450 C 0.82827 0.41054 0.64493
 C1451 C 0.78216 0.49367 0.62637
 C1452 C 0.77602 0.51935 0.63355
 C1453 C 0.78637 0.53007 0.65663
 C1454 C 0.80294 0.51521 0.67271
 C1455 C 0.79550 0.44108 0.61046
 C1456 C 0.78810 0.43125 0.59006
 C1457 C 0.83845 0.48541 0.70545
 C1458 C 0.84956 0.49401 0.72469
 H1459 H 0.85712 0.43936 0.70962
 H1460 H 0.86737 0.39454 0.69694
 H1461 H 0.84926 0.37556 0.65582
 H1462 H 0.82077 0.40130 0.62717
 H1463 H 0.77362 0.48615 0.60825
 H1464 H 0.76315 0.53097 0.62114
 H1465 H 0.78153 0.55002 0.66212
 H1466 H 0.81048 0.52437 0.69050
 C1467 C 0.33056 -0.02310 0.17862
 C1468 C 0.34665 -0.03801 0.16155
 C1469 C 0.33587 -0.04879 0.13798
 C1470 C 0.30906 -0.04455 0.13159
 C1471 C 0.29303 -0.02948 0.14856
 C1472 C 0.30382 -0.01873 0.17217
 C1473 C 0.28743 -0.00380 0.18889
 C1474 C 0.26109 0.00039 0.18246
 C1475 C 0.25053 -0.01012 0.15938
 C1476 C 0.26623 -0.02490 0.14253
 C1477 C 0.35234 -0.06373 0.12130
 C1478 C 0.37869 -0.06787 0.12771
 C1479 C 0.38924 -0.05727 0.15073
 C1480 C 0.37352 -0.04251 0.16753
 C1481 C 0.29809 -0.05616 0.10776
 C1482 C 0.28996 -0.06652 0.08792
 C1483 C 0.34169 -0.01260 0.20285
 C1484 C 0.35209 -0.00453 0.22270
 H1485 H 0.29479 0.00476 0.20705
 H1486 H 0.24882 0.01187 0.19546
 H1487 H 0.23006 -0.00681 0.15449
 H1488 H 0.25716 -0.03265 0.12477
 H1489 H 0.34509 -0.07234 0.10313
 H1490 H 0.39098 -0.07934 0.11473
 H1491 H 0.40975 -0.06044 0.15557
 H1492 H 0.38268 -0.03466 0.18518
 C1493 C 0.31896 0.02663 0.30786
 C1494 C 0.30793 0.05209 0.30813
 C1495 C 0.29606 0.06174 0.33153
 C1496 C 0.29543 0.04588 0.35455
 C1497 C 0.30547 0.01998 0.35391
 C1498 C 0.31723 0.01030 0.33046
 C1499 C 0.32746 -0.01553 0.33036
 C1500 C 0.32615 -0.03133 0.35283
 C1501 C 0.31469 -0.02184 0.37578
 C1502 C 0.30443 0.00350 0.37643
 C1503 C 0.28545 0.08740 0.33143
 C1504 C 0.28659 0.10310 0.30887
 C1505 C 0.29827 0.09368 0.28601
 C1506 C 0.30885 0.06848 0.28552
 C1507 C 0.28621 0.05690 0.37926
 C1508 C 0.27950 0.06684 0.39975
 C1509 C 0.33410 0.01815 0.28525
 C1510 C 0.34790 0.01165 0.26714
 H1511 H 0.33646 -0.02380 0.31293
 H1512 H 0.33406 -0.05103 0.35242
 H1513 H 0.31370 -0.03420 0.39317
 H1514 H 0.29565 0.01000 0.39471
 H1515 H 0.27610 0.09557 0.34871
 H1516 H 0.27836 0.12267 0.30913
 H1517 H 0.29914 0.10597 0.26855
 H1518 H 0.31764 0.06198 0.26724
 C1519 C 0.81883 0.52664 0.81016
 C1520 C 0.81817 0.51096 0.83327
 C1521 C 0.80664 0.52094 0.85671
 C1522 C 0.79583 0.54653 0.85684
 C1523 C 0.79552 0.56176 0.83340
 C1524 C 0.80710 0.55179 0.80999
 C1525 C 0.80703 0.56755 0.78692
 C1526 C 0.79577 0.59245 0.78696
 C1527 C 0.78437 0.60218 0.80984
 C1528 C 0.78419 0.58711 0.83285
 C1529 C 0.80661 0.50510 0.87971
 C1530 C 0.81765 0.48008 0.87954
 C1531 C 0.82891 0.47031 0.85661
 C1532 C 0.82921 0.48548 0.83368
 C1533 C 0.78673 0.55791 0.88142
 C1534 C 0.78011 0.56808 0.90182
 C1535 C 0.83342 0.51779 0.78733
 C1536 C 0.84672 0.51090 0.76898
 H1537 H 0.81558 0.56078 0.76863
 H1538 H 0.79588 0.60424 0.76915
 H1539 H 0.77561 0.62153 0.80976
 H1540 H 0.77504 0.59551 0.85013
 H1541 H 0.79801 0.51183 0.89799
 H1542 H 0.81746 0.46822 0.89731
 H1543 H 0.83745 0.45087 0.85658
 H1544 H 0.83808 0.47699 0.81629
 C1545 C 0.18576 0.66681 0.53270
 C1546 C 0.18386 0.67184 0.56012
 C1547 C 0.16122 0.68448 0.57032
 C1548 C 0.14058 0.69196 0.55303
 C1549 C 0.14273 0.68743 0.52554
 C1550 C 0.16540 0.67480 0.51534
 C1551 C 0.16705 0.67029 0.48781
 C1552 C 0.14688 0.67809 0.47084
 C1553 C 0.12471 0.69045 0.48082
 C1554 C 0.12256 0.69513 0.50784
 C1555 C 0.15972 0.68918 0.59784
 C1556 C 0.17998 0.68155 0.61479
 C1557 C 0.20212 0.66916 0.60481
 C1558 C 0.20414 0.66432 0.57782
 C1559 C 0.11688 0.70353 0.56377
 C1560 C 0.09744 0.71267 0.57364
 C1561 C 0.20825 0.65260 0.52265
 C1562 C 0.22691 0.64022 0.51510
 H1563 H 0.18393 0.66076 0.47914
 H1564 H 0.14846 0.67454 0.44983
 H1565 H 0.10909 0.69645 0.46755
 H1566 H 0.10499 0.70487 0.51469
 H1567 H 0.14295 0.69882 0.60656
 H1568 H 0.17849 0.68527 0.63578
 H1569 H 0.21781 0.66329 0.61805
 H1570 H 0.22175 0.65466 0.57101
 C1571 C 0.68762 0.16714 1.03438
 C1572 C 0.68407 0.16888 1.06205
 C1573 C 0.66152 0.18163 1.07230
 C1574 C 0.64258 0.19241 1.05481
 C1575 C 0.64627 0.19087 1.02714
 C1576 C 0.66889 0.17820 1.01689
 C1577 C 0.67213 0.17676 0.98916
 C1578 C 0.65351 0.18753 0.97205
 C1579 C 0.63137 0.19989 0.98207
 C1580 C 0.62770 0.20162 1.00929
 C1581 C 0.65840 0.18314 1.10005
 C1582 C 0.67696 0.17224 1.11715
 C1583 C 0.69896 0.15967 1.10711
 C1584 C 0.70258 0.15794 1.07990
 C1585 C 0.61904 0.20440 1.06542
 C1586 C 0.59964 0.21386 1.07509
 C1587 C 0.71018 0.15327 1.02406
 C1588 C 0.72884 0.14114 1.01614
 H1589 H 0.68903 0.16733 0.98044
 H1590 H 0.65628 0.18626 0.95089
 H1591 H 0.61696 0.20818 0.96868
 H1592 H 0.61019 0.21147 1.01615
 H1593 H 0.64164 0.19275 1.10885
 H1594 H 0.67424 0.17354 1.13831
 H1595 H 0.71331 0.15123 1.12048
 H1596 H 0.72003 0.14796 1.07309
 C1597 C 0.81332 0.17145 0.98287
 C1598 C 0.81118 0.18529 0.95869
 C1599 C 0.83360 0.19813 0.94797
 C1600 C 0.85804 0.19702 0.96150
 C1601 C 0.85996 0.18388 0.98610
 C1602 C 0.83751 0.17106 0.99683
 C1603 C 0.83994 0.15776 1.02130
 C1604 C 0.86390 0.15712 1.03477
 C1605 C 0.88586 0.16967 1.02427
 C1606 C 0.88403 0.18294 1.00022
 C1607 C 0.83106 0.21157 0.92358
 C1608 C 0.80705 0.21227 0.91019
 C1609 C 0.78512 0.19969 0.92069
 C1610 C 0.78703 0.18633 0.94466
 C1611 C 0.88135 0.20818 0.94934
 C1612 C 0.90043 0.21695 0.93825
 C1613 C 0.79113 0.15624 0.99242
 C1614 C 0.77291 0.14283 0.99959
 H1615 H 0.82337 0.14783 1.03030
 H1616 H 0.86542 0.14686 1.05345
 H1617 H 0.90443 0.16912 1.03481
 H1618 H 0.90163 0.19245 0.99286
 H1619 H 0.84754 0.22170 0.91462
 H1620 H 0.80546 0.22263 0.89156
 H1621 H 0.76652 0.20030 0.91022
 H1622 H 0.76940 0.17693 0.95206
 C1623 C 0.31028 0.67038 0.47946
 C1624 C 0.33148 0.67813 0.49596
 C1625 C 0.35362 0.69124 0.48493
 C1626 C 0.35441 0.69645 0.45746
 C1627 C 0.33286 0.68933 0.44108
 C1628 C 0.31069 0.67632 0.45214
 C1629 C 0.28942 0.66929 0.43539
 C1630 C 0.29008 0.67483 0.40844
 C1631 C 0.31179 0.68749 0.39760
 C1632 C 0.33297 0.69473 0.41363
 C1633 C 0.37468 0.69864 0.50176
 C1634 C 0.37388 0.69323 0.52875
 C1635 C 0.35224 0.68035 0.53953
 C1636 C 0.33121 0.67285 0.52342
 C1637 C 0.37768 0.70822 0.44577
 C1638 C 0.39685 0.71746 0.43528
 C1639 C 0.28868 0.65509 0.49018
 C1640 C 0.27086 0.64165 0.49827
 H1641 H 0.27203 0.65953 0.44292
 H1642 H 0.27367 0.66923 0.39592
 H1643 H 0.31220 0.69177 0.37665
 H1644 H 0.34938 0.70461 0.40426
 H1645 H 0.39192 0.70871 0.49428
 H1646 H 0.39014 0.69905 0.54137
 H1647 H 0.35172 0.67617 0.56050
 H1648 H 0.31476 0.66297 0.53271
 C1649 C 0.68313 0.82153 0.48002
 C1650 C 0.66084 0.81878 0.49648
 C1651 C 0.63705 0.80815 0.48606
 C1652 C 0.63574 0.80034 0.45925
 C1653 C 0.65837 0.80212 0.44310
 C1654 C 0.68215 0.81272 0.45353
 C1655 C 0.70444 0.81458 0.43694
 C1656 C 0.70325 0.80623 0.41076
 C1657 C 0.67999 0.79590 0.40053
 C1658 C 0.65775 0.79381 0.41642
 C1659 C 0.61492 0.80591 0.50279
 C1660 C 0.61626 0.81393 0.52909
 C1661 C 0.63953 0.82433 0.53928
 C1662 C 0.66162 0.82677 0.52324
 C1663 C 0.61085 0.79191 0.44781
 C1664 C 0.59030 0.78570 0.43752
 C1665 C 0.70640 0.83509 0.48969
 C1666 C 0.72537 0.84733 0.49715
 H1667 H 0.72301 0.82238 0.44403
 H1668 H 0.72048 0.80780 0.39834
 H1669 H 0.67916 0.78945 0.38017
 H1670 H 0.64013 0.78557 0.40758
 H1671 H 0.59642 0.79790 0.49576
 H1672 H 0.59915 0.81206 0.54163
 H1673 H 0.64047 0.83053 0.55971
 H1674 H 0.67931 0.83488 0.53204
 C1675 C 0.18507 0.32198 -0.02356
 C1676 C 0.16647 0.31028 -0.00641
 C1677 C 0.14258 0.29985 -0.01682
 C1678 C 0.13750 0.30119 -0.04431
 C1679 C 0.15648 0.31223 -0.06154
 C1680 C 0.18034 0.32263 -0.05114
 C1681 C 0.19892 0.33380 -0.06872
 C1682 C 0.19402 0.33469 -0.09580
 C1683 C 0.17067 0.32453 -0.10599
 C1684 C 0.15206 0.31339 -0.08916
 C1685 C 0.12414 0.28849 0.00071
 C1686 C 0.12917 0.28742 0.02779
 C1687 C 0.15254 0.29759 0.03797
 C1688 C 0.17105 0.30894 0.02116
 C1689 C 0.11242 0.29224 -0.05490
 C1690 C 0.09167 0.28560 -0.06448
 C1691 C 0.20832 0.33479 -0.01288
 C1692 C 0.22730 0.34653 -0.00467
 H1693 H 0.21743 0.34186 -0.06177
 H1694 H 0.20844 0.34331 -0.10895
 H1695 H 0.16695 0.32527 -0.12705
 H1696 H 0.13423 0.30569 -0.09805
 H1697 H 0.10571 0.28029 -0.00630
 H1698 H 0.11485 0.27864 0.04093
 H1699 H 0.15636 0.29665 0.05900
 H1700 H 0.18898 0.31652 0.02996
 C1701 C 0.31439 0.31839 0.02528
 C1702 C 0.33868 0.32556 0.01366
 C1703 C 0.36245 0.31436 0.02320
 C1704 C 0.36174 0.29597 0.04420
 C1705 C 0.33731 0.28774 0.05481
 C1706 C 0.31354 0.29902 0.04533
 C1707 C 0.28938 0.29084 0.05651
 C1708 C 0.28871 0.27198 0.07649
 C1709 C 0.31194 0.26091 0.08575
 C1710 C 0.33603 0.26865 0.07512
 C1711 C 0.38656 0.32221 0.01165
 C1712 C 0.38715 0.34054 -0.00883
 C1713 C 0.36389 0.35144 -0.01822
 C1714 C 0.33988 0.34412 -0.00718
 C1715 C 0.38612 0.28718 0.05625
 C1716 C 0.40631 0.28091 0.06708
 C1717 C 0.29069 0.33236 0.01785
 C1718 C 0.27170 0.34517 0.01183
 H1719 H 0.27079 0.29883 0.04986
 H1720 H 0.27005 0.26591 0.08481
 H1721 H 0.31131 0.24625 0.10125
 H1722 H 0.35358 0.25943 0.08290
 H1723 H 0.40515 0.31419 0.01822
 H1724 H 0.40575 0.34628 -0.01748
 H1725 H 0.36445 0.36562 -0.03417
 H1726 H 0.32230 0.35303 -0.01525
 C1727 C 0.81094 0.81985 0.53109
 C1728 C 0.81539 0.81891 0.55871
 C1729 C 0.83879 0.80741 0.56878
 C1730 C 0.85760 0.79694 0.55116
 C1731 C 0.85264 0.79694 0.52361
 C1732 C 0.82922 0.80846 0.51354
 C1733 C 0.82480 0.80854 0.48592
 C1734 C 0.84300 0.79749 0.46873
 C1735 C 0.86588 0.78619 0.47858
 C1736 C 0.87077 0.78588 0.50570
 C1737 C 0.84296 0.80698 0.59646
 C1738 C 0.82454 0.81761 0.61368
 C1739 C 0.80167 0.82888 0.60382
 C1740 C 0.79703 0.82957 0.57668
 C1741 C 0.88258 0.78761 0.56146
 C1742 C 0.90326 0.78096 0.57102
 C1743 C 0.78835 0.83396 0.52090
 C1744 C 0.76985 0.84671 0.51339
 H1745 H 0.80723 0.81703 0.47737
 H1746 H 0.83931 0.79768 0.44765
 H1747 H 0.87993 0.77761 0.46513
 H1748 H 0.88881 0.77683 0.51246
 H1749 H 0.86042 0.79838 0.60512
 H1750 H 0.82804 0.81710 0.63478
 H1751 H 0.78743 0.83713 0.61727
 H1752 H 0.77888 0.83848 0.57000
   
