data_POSCAR
  _audit_creation_date              2014-09-24
  _audit_creation_method            'ToBaCCo'
  _symmetry_space_group_name_H-M    'P1'
  _symmetry_Int_Tables_number       1
  _symmetry_cell_setting            triclinic
  loop_
  _symmetry_equiv_pos_as_xyz
 x,y,z
_cell_length_a 71.5839
_cell_length_b 74.2077
_cell_length_c 73.4802
_cell_angle_alpha 89.846600
_cell_angle_beta 90.143000
_cell_angle_gamma 89.867000
loop_
  _atom_site_label
  _atom_site_type_symbol
  _atom_site_fract_x
  _atom_site_fract_y
  _atom_site_fract_z
N1 N 0.36521 0.32170 0.33334
 N2 N 0.36451 0.33502 0.32153
 C3 C 0.37801 0.33264 0.30900
 C4 C 0.38769 0.31702 0.31328
 C5 C 0.37917 0.31045 0.32878
 H6 H 0.38050 0.34154 0.29760
 H7 H 0.38281 0.29828 0.33611
 Cu8 Cu 0.34597 0.35409 0.32351
 Cu9 Cu 0.34795 0.31973 0.35362
 Cu10 Cu 0.31359 0.35237 0.35676
 N11 N 0.32606 0.37185 0.32524
 N12 N 0.31341 0.37105 0.33815
 C13 C 0.30121 0.38470 0.33596
 C14 C 0.30649 0.39460 0.32084
 C15 C 0.32231 0.38606 0.31438
 H16 H 0.28933 0.38711 0.34467
 H17 H 0.33031 0.38982 0.30250
 N18 N 0.31609 0.33243 0.37436
 N19 N 0.32923 0.32001 0.37318
 C20 C 0.32716 0.30815 0.38694
 C21 C 0.31196 0.31337 0.39728
 C22 C 0.30531 0.32882 0.38891
 H23 H 0.33597 0.29650 0.38915
 H24 H 0.29335 0.33671 0.39308
 H25 H 0.32637 0.33322 0.34056
 H26 H 0.34185 0.34690 0.35569
 N27 N 0.36838 0.81961 -0.16774
 N28 N 0.36726 0.83390 -0.17830
 C29 C 0.38116 0.83337 -0.19060
 C30 C 0.39161 0.81788 -0.18760
 C31 C 0.38308 0.80951 -0.17293
 H32 H 0.38337 0.84344 -0.20100
 H33 H 0.38713 0.79690 -0.16662
 Cu34 Cu 0.34750 0.85168 -0.17533
 Cu35 Cu 0.35027 0.81474 -0.14857
 Cu36 Cu 0.31781 0.84819 -0.14000
 N37 N 0.32743 0.86898 -0.17157
 N38 N 0.31597 0.86757 -0.15770
 C39 C 0.30328 0.88098 -0.15848
 C40 C 0.30703 0.89141 -0.17369
 C41 C 0.32247 0.88340 -0.18163
 H42 H 0.29210 0.88276 -0.14880
 H43 H 0.32936 0.88765 -0.19399
 N44 N 0.32164 0.82745 -0.12380
 N45 N 0.33378 0.81447 -0.12712
 C46 C 0.33248 0.80190 -0.11389
 C47 C 0.31877 0.80728 -0.10175
 C48 C 0.31227 0.82350 -0.10848
 H49 H 0.34073 0.78970 -0.11329
 H50 H 0.30118 0.83162 -0.10279
 H51 H 0.32816 0.83028 -0.15863
 H52 H 0.34591 0.84173 -0.14388
 N53 N 0.87182 0.32195 -0.16977
 N54 N 0.87088 0.33529 -0.18153
 C55 C 0.88484 0.33345 -0.19368
 C56 C 0.89501 0.31815 -0.18916
 C57 C 0.88633 0.31124 -0.17395
 H58 H 0.88735 0.34251 -0.20495
 H59 H 0.89025 0.29920 -0.16654
 Cu60 Cu 0.85142 0.35357 -0.17961
 Cu61 Cu 0.85418 0.31925 -0.15005
 Cu62 Cu 0.81877 0.35093 -0.14647
 N63 N 0.83127 0.37108 -0.17781
 N64 N 0.81855 0.37011 -0.16495
 C65 C 0.80638 0.38387 -0.16707
 C66 C 0.81179 0.39401 -0.18210
 C67 C 0.82762 0.38542 -0.18852
 H68 H 0.79451 0.38621 -0.15833
 H69 H 0.83581 0.38934 -0.20022
 N70 N 0.82166 0.33036 -0.12925
 N71 N 0.83524 0.31843 -0.13089
 C72 C 0.83375 0.30602 -0.11764
 C73 C 0.81849 0.31016 -0.10698
 C74 C 0.81112 0.32575 -0.11471
 H75 H 0.84316 0.29476 -0.11591
 H76 H 0.79893 0.33305 -0.11013
 H77 H 0.83186 0.33250 -0.16275
 H78 H 0.84691 0.34638 -0.14749
 N79 N 0.86424 0.82244 0.33156
 N80 N 0.86280 0.83478 0.31876
 C81 C 0.87642 0.83204 0.30640
 C82 C 0.88687 0.81717 0.31181
 C83 C 0.87871 0.81149 0.32782
 H84 H 0.87838 0.84008 0.29427
 H85 H 0.88289 0.80003 0.33603
 Cu86 Cu 0.84273 0.85271 0.31943
 Cu87 Cu 0.84704 0.82098 0.35193
 Cu88 Cu 0.81168 0.85277 0.35374
 N89 N 0.82304 0.87096 0.32102
 N90 N 0.81085 0.87060 0.33437
 C91 C 0.79854 0.88415 0.33224
 C92 C 0.80321 0.89368 0.31669
 C93 C 0.81889 0.88493 0.30993
 H94 H 0.78711 0.88681 0.34142
 H95 H 0.82654 0.88840 0.29774
 N96 N 0.81479 0.83373 0.37214
 N97 N 0.82834 0.82167 0.37148
 C98 C 0.82673 0.81044 0.38579
 C99 C 0.81142 0.81570 0.39595
 C100 C 0.80420 0.83049 0.38690
 H101 H 0.83589 0.79915 0.38846
 H102 H 0.79200 0.83819 0.39077
 H103 H 0.82452 0.83270 0.33883
 H104 H 0.84009 0.84801 0.35212
 N105 N 0.63550 0.67591 0.33070
 N106 N 0.63662 0.66191 0.31980
 C107 C 0.62310 0.66308 0.30707
 C108 C 0.61290 0.67864 0.31013
 C109 C 0.62114 0.68642 0.32527
 H110 H 0.62088 0.65335 0.29639
 H111 H 0.61707 0.69890 0.33174
 Cu112 Cu 0.65570 0.64349 0.32300
 Cu113 Cu 0.65302 0.67959 0.35090
 Cu114 Cu 0.68710 0.64681 0.35650
 N115 N 0.67496 0.62523 0.32657
 N116 N 0.68711 0.62673 0.33989
 C117 C 0.69913 0.61285 0.33938
 C118 C 0.69438 0.60198 0.32490
 C119 C 0.67893 0.61021 0.31703
 H120 H 0.71071 0.61106 0.34868
 H121 H 0.67143 0.60575 0.30507
 N122 N 0.68520 0.66791 0.37215
 N123 N 0.67227 0.68050 0.37041
 C124 C 0.67511 0.69305 0.38344
 C125 C 0.69067 0.68804 0.39358
 C126 C 0.69656 0.67205 0.38605
 H127 H 0.66670 0.70503 0.38530
 H128 H 0.70821 0.66389 0.39049
 H129 H 0.67446 0.66567 0.33914
 H130 H 0.65861 0.65288 0.35461
 N131 N 0.63493 0.18307 -0.16344
 N132 N 0.63332 0.17127 -0.17665
 C133 C 0.61866 0.17582 -0.18719
 C134 C 0.61066 0.19130 -0.18028
 C135 C 0.62134 0.19557 -0.16517
 H136 H 0.61421 0.16858 -0.19919
 H137 H 0.61947 0.20692 -0.15616
 Cu138 Cu 0.65074 0.15135 -0.17929
 Cu139 Cu 0.65462 0.18133 -0.14519
 Cu140 Cu 0.68629 0.14621 -0.14969
 N141 N 0.66901 0.13217 -0.18202
 N142 N 0.68269 0.13005 -0.17025
 C143 C 0.69320 0.11586 -0.17528
 C144 C 0.68580 0.10876 -0.19115
 C145 C 0.67042 0.11949 -0.19505
 H146 H 0.70550 0.11121 -0.16809
 H147 H 0.66100 0.11825 -0.20648
 N148 N 0.68758 0.16398 -0.12983
 N149 N 0.67547 0.17730 -0.12809
 C150 C 0.68014 0.18716 -0.11341
 C151 C 0.69596 0.17975 -0.10557
 C152 C 0.70031 0.16506 -0.11633
 H153 H 0.67274 0.19902 -0.10883
 H154 H 0.71193 0.15589 -0.11456
 H155 H 0.67370 0.16833 -0.16181
 H156 H 0.65868 0.15382 -0.14709
 N157 N 0.13343 0.68029 -0.16648
 N158 N 0.13410 0.66729 -0.17862
 C159 C 0.12044 0.66972 -0.19094
 C160 C 0.11059 0.68509 -0.18647
 C161 C 0.11917 0.69147 -0.17080
 H162 H 0.11790 0.66092 -0.20235
 H163 H 0.11546 0.70346 -0.16327
 Cu164 Cu 0.15287 0.64855 -0.17758
 Cu165 Cu 0.15146 0.68154 -0.14627
 Cu166 Cu 0.18454 0.64710 -0.14443
 N167 N 0.17116 0.62929 -0.17649
 N168 N 0.18349 0.62878 -0.16324
 C169 C 0.19486 0.61456 -0.16562
 C170 C 0.18939 0.60564 -0.18126
 C171 C 0.17430 0.61536 -0.18782
 H172 H 0.20648 0.61126 -0.15681
 H173 H 0.16647 0.61263 -0.20011
 N174 N 0.18347 0.66671 -0.12660
 N175 N 0.17110 0.67993 -0.12707
 C176 C 0.17466 0.69121 -0.11305
 C177 C 0.19000 0.68470 -0.10346
 C178 C 0.19511 0.66917 -0.11248
 H179 H 0.16689 0.70337 -0.11014
 H180 H 0.20655 0.66028 -0.10910
 H181 H 0.17258 0.66811 -0.15920
 H182 H 0.15638 0.65430 -0.14512
 N183 N 0.13601 0.18170 0.33780
 N184 N 0.13624 0.17012 0.32430
 C185 C 0.12229 0.17439 0.31262
 C186 C 0.11303 0.18950 0.31925
 C187 C 0.12215 0.19364 0.33525
 H188 H 0.11926 0.16723 0.30016
 H189 H 0.11897 0.20454 0.34444
 Cu190 Cu 0.15535 0.15111 0.32353
 Cu191 Cu 0.15365 0.18111 0.35777
 Cu192 Cu 0.18702 0.14753 0.35750
 N193 N 0.17392 0.13161 0.32411
 N194 N 0.18626 0.13068 0.33738
 C195 C 0.19762 0.11653 0.33468
 C196 C 0.19227 0.10796 0.31886
 C197 C 0.17709 0.11786 0.31248
 H198 H 0.20888 0.11273 0.34372
 H199 H 0.16913 0.11529 0.30024
 N200 N 0.18549 0.16578 0.37674
 N201 N 0.17259 0.17848 0.37686
 C202 C 0.17514 0.18896 0.39154
 C203 C 0.19039 0.18260 0.40111
 C204 C 0.19666 0.16786 0.39137
 H205 H 0.16677 0.20062 0.39493
 H206 H 0.20857 0.15944 0.39454
 H207 H 0.17522 0.16890 0.34362
 H208 H 0.15898 0.15370 0.35635
 N209 N 0.63336 0.32193 0.66584
 N210 N 0.63189 0.33594 0.67666
 C211 C 0.61810 0.33316 0.68867
 C212 C 0.61027 0.31648 0.68531
 C213 C 0.62028 0.30971 0.67064
 H214 H 0.61415 0.34268 0.69908
 H215 H 0.61833 0.29679 0.66414
 Cu216 Cu 0.64811 0.35661 0.67459
 Cu217 Cu 0.65264 0.32096 0.64680
 Cu218 Cu 0.68582 0.35518 0.64798
 N219 N 0.66832 0.37354 0.67782
 N220 N 0.68309 0.37319 0.66726
 C221 C 0.69480 0.38646 0.67237
 C222 C 0.68696 0.39547 0.68701
 C223 C 0.67013 0.38686 0.69008
 H224 H 0.70812 0.38926 0.66605
 H225 H 0.65988 0.39005 0.70036
 N226 N 0.68604 0.33574 0.62957
 N227 N 0.67343 0.32277 0.62894
 C228 C 0.67737 0.31191 0.61471
 C229 C 0.69322 0.31831 0.60604
 C230 C 0.69828 0.33344 0.61587
 H231 H 0.66932 0.30019 0.61089
 H232 H 0.70992 0.34227 0.61316
 H233 H 0.67097 0.33578 0.66229
 H234 H 0.65799 0.34812 0.64404
 N235 N 0.62988 0.82208 1.16838
 N236 N 0.63219 0.83483 1.18055
 C237 C 0.61894 0.83311 1.19348
 C238 C 0.60782 0.81848 1.18903
 C239 C 0.61519 0.81189 1.17305
 H240 H 0.61765 0.84164 1.20531
 H241 H 0.61040 0.80026 1.16555
 Cu242 Cu 0.65268 0.85195 1.17821
 Cu243 Cu 0.64636 0.81883 1.14776
 Cu244 Cu 0.68271 0.84912 1.14300
 N245 N 0.67263 0.86940 1.17472
 N246 N 0.68453 0.86805 1.16118
 C247 C 0.69700 0.88159 1.16222
 C248 C 0.69259 0.89203 1.17718
 C249 C 0.67705 0.88393 1.18475
 H250 H 0.70828 0.88374 1.15271
 H251 H 0.66962 0.88829 1.19676
 N252 N 0.67840 0.82907 1.12598
 N253 N 0.66444 0.81764 1.12780
 C254 C 0.66515 0.80549 1.11427
 C255 C 0.68030 0.80944 1.10338
 C256 C 0.68837 0.82449 1.11116
 H257 H 0.65540 0.79455 1.11254
 H258 H 0.70069 0.83146 1.10641
 H259 H 0.66972 0.83035 1.15954
 H260 H 0.65426 0.84555 1.14579
 N261 N 0.13890 0.31084 1.16646
 N262 N 0.13369 0.32536 1.17530
 C263 C 0.11760 0.32189 1.18408
 C264 C 0.11252 0.30424 1.18051
 C265 C 0.12643 0.29762 1.16931
 H266 H 0.11031 0.33134 1.19274
 H267 H 0.12765 0.28416 1.16385
 Cu268 Cu 0.14917 0.34691 1.17527
 Cu269 Cu 0.16197 0.30994 1.15280
 Cu270 Cu 0.18284 0.35120 1.14380
 N271 N 0.16811 0.36559 1.17709
 N272 N 0.18122 0.36761 1.16474
 C273 C 0.19171 0.38206 1.16916
 C274 C 0.18484 0.38937 1.18521
 C275 C 0.16988 0.37847 1.18980
 H276 H 0.20344 0.38692 1.16131
 H277 H 0.16079 0.37979 1.20143
 N278 N 0.18738 0.32943 1.12883
 N279 N 0.17971 0.31376 1.13284
 C280 C 0.18421 0.30170 1.12000
 C281 C 0.19524 0.31004 1.10712
 C282 C 0.19721 0.32763 1.11325
 H283 H 0.17926 0.28796 1.11981
 H284 H 0.20462 0.33843 1.10652
 H285 H 0.17676 0.33229 1.16228
 H286 H 0.15788 0.33607 1.14514
 N287 N 0.13456 0.81797 0.66268
 N288 N 0.13420 0.83021 0.67558
 C289 C 0.12014 0.82632 0.68717
 C290 C 0.11129 0.81082 0.68116
 C291 C 0.12086 0.80597 0.66556
 H292 H 0.11665 0.83405 0.69915
 H293 H 0.11808 0.79459 0.65683
 Cu294 Cu 0.15271 0.84952 0.67582
 Cu295 Cu 0.15254 0.81832 0.64281
 Cu296 Cu 0.18163 0.85543 0.64028
 N297 N 0.17094 0.86907 0.67540
 N298 N 0.18223 0.87108 0.66145
 C299 C 0.19360 0.88515 0.66446
 C300 C 0.18930 0.89242 0.68126
 C301 C 0.17481 0.88189 0.68781
 H302 H 0.20424 0.88963 0.65509
 H303 H 0.16781 0.88338 0.70075
 N304 N 0.18253 0.83556 0.62264
 N305 N 0.17156 0.82133 0.62368
 C306 C 0.17579 0.81001 0.61000
 C307 C 0.19018 0.81739 0.59994
 C308 C 0.19413 0.83360 0.60835
 H309 H 0.16904 0.79721 0.60758
 H310 H 0.20473 0.84322 0.60450
 H311 H 0.17340 0.83343 0.65533
 H312 H 0.15441 0.84572 0.64289
 N313 N 0.36699 0.68476 0.66755
 N314 N 0.36493 0.67414 0.68175
 C315 C 0.37906 0.67660 0.69346
 C316 C 0.39083 0.68956 0.68650
 C317 C 0.38268 0.69462 0.67001
 H318 H 0.38050 0.66945 0.70622
 H319 H 0.38790 0.70451 0.66046
 Cu320 Cu 0.34445 0.65762 0.68427
 Cu321 Cu 0.34901 0.68402 0.64707
 Cu322 Cu 0.31782 0.64811 0.64850
 N323 N 0.33015 0.63572 0.68344
 N324 N 0.31976 0.63182 0.66926
 C325 C 0.31101 0.61608 0.67238
 C326 C 0.31625 0.60987 0.68943
 C327 C 0.32848 0.62269 0.69606
 H328 H 0.30124 0.60979 0.66312
 H329 H 0.33547 0.62277 0.70911
 N330 N 0.31788 0.66603 0.62880
 N331 N 0.32943 0.67989 0.62808
 C332 C 0.32507 0.68989 0.61325
 C333 C 0.31004 0.68192 0.60438
 C334 C 0.30599 0.66684 0.61466
 H335 H 0.33204 0.70223 0.60936
 H336 H 0.29497 0.65721 0.61224
 H337 H 0.32690 0.67233 0.66011
 H338 H 0.34550 0.65698 0.65129
 N339 N 0.36561 0.17220 1.17155
 N340 N 0.36241 0.15909 1.18316
 C341 C 0.37524 0.15978 1.19662
 C342 C 0.38706 0.17412 1.19311
 C343 C 0.38052 0.18164 1.17712
 H344 H 0.37578 0.15072 1.20814
 H345 H 0.38604 0.19336 1.17022
 Cu346 Cu 0.34148 0.14290 1.17950
 Cu347 Cu 0.34995 0.17669 1.15049
 Cu348 Cu 0.31233 0.14809 1.14368
 N349 N 0.32087 0.12652 1.17517
 N350 N 0.30917 0.12870 1.16151
 C351 C 0.29611 0.11561 1.16221
 C352 C 0.30002 0.10466 1.17705
 C353 C 0.31580 0.11198 1.18488
 H354 H 0.28476 0.11413 1.15259
 H355 H 0.32293 0.10709 1.19690
 N356 N 0.31824 0.16850 1.12726
 N357 N 0.33266 0.17923 1.12996
 C358 C 0.33318 0.19173 1.11670
 C359 C 0.31839 0.18882 1.10502
 C360 C 0.30920 0.17395 1.11208
 H361 H 0.34359 0.20219 1.11566
 H362 H 0.29680 0.16768 1.10657
 H363 H 0.32564 0.16563 1.16104
 H364 H 0.34074 0.15036 1.14723
 N365 N 0.86139 0.67990 1.16356
 N366 N 0.86219 0.66765 1.17651
 C367 C 0.87643 0.67165 1.18781
 C368 C 0.88494 0.68723 1.18163
 C369 C 0.87501 0.69209 1.16619
 H370 H 0.88028 0.66394 1.19976
 H371 H 0.87741 0.70364 1.15753
 Cu372 Cu 0.84431 0.64789 1.17752
 Cu373 Cu 0.84271 0.67935 1.14428
 Cu374 Cu 0.81146 0.64387 1.14512
 N375 N 0.82681 0.62774 1.17744
 N376 N 0.81412 0.62639 1.16457
 C377 C 0.80362 0.61172 1.16756
 C378 C 0.80998 0.60329 1.18318
 C379 C 0.82473 0.61385 1.18915
 H380 H 0.79199 0.60775 1.15909
 H381 H 0.83312 0.61166 1.20122
 N382 N 0.81084 0.66279 1.12647
 N383 N 0.82275 0.67632 1.12601
 C384 C 0.81849 0.68699 1.11171
 C385 C 0.80314 0.67984 1.10287
 C386 C 0.79867 0.66451 1.11260
 H387 H 0.82581 0.69922 1.10811
 H388 H 0.78735 0.65532 1.10986
 H389 H 0.82279 0.66562 1.15891
 H390 H 0.83924 0.65182 1.14496
 N391 N 0.87094 0.18591 0.66502
 N392 N 0.87052 0.17347 0.67777
 C393 C 0.88434 0.17685 0.68985
 C394 C 0.89371 0.19226 0.68427
 C395 C 0.88479 0.19754 0.66846
 H396 H 0.88729 0.16885 0.70185
 H397 H 0.88813 0.20896 0.65995
 Cu398 Cu 0.85150 0.15458 0.67700
 Cu399 Cu 0.85371 0.18660 0.64479
 Cu400 Cu 0.82058 0.15302 0.64205
 N401 N 0.83306 0.13531 0.67494
 N402 N 0.82114 0.13491 0.66129
 C403 C 0.80983 0.12061 0.66322
 C404 C 0.81484 0.11147 0.67894
 C405 C 0.82966 0.12118 0.68604
 H406 H 0.79865 0.11729 0.65391
 H407 H 0.83720 0.11824 0.69847
 N408 N 0.82248 0.17269 0.62399
 N409 N 0.83528 0.18537 0.62519
 C410 C 0.83323 0.19695 0.61127
 C411 C 0.81840 0.19140 0.60069
 C412 C 0.81183 0.17596 0.60914
 H413 H 0.84176 0.20874 0.60920
 H414 H 0.80008 0.16786 0.60487
 H415 H 0.83162 0.17320 0.65753
 H416 H 0.84833 0.15895 0.64430
 N417 N 0.31832 0.37203 0.66571
 N418 N 0.33036 0.37322 0.67919
 C419 C 0.32568 0.38747 0.68960
 C420 C 0.30987 0.39548 0.68219
 C421 C 0.30565 0.38531 0.66705
 H422 H 0.33307 0.39166 0.70172
 H423 H 0.29421 0.38732 0.65765
 Cu424 Cu 0.35068 0.35576 0.68156
 Cu425 Cu 0.31945 0.35338 0.64747
 Cu426 Cu 0.35506 0.32208 0.65100
 N427 N 0.37074 0.33799 0.68333
 N428 N 0.37231 0.32503 0.67126
 C429 C 0.38708 0.31464 0.67554
 C430 C 0.39526 0.32135 0.69114
 C431 C 0.38454 0.33622 0.69576
 H432 H 0.39148 0.30291 0.66796
 H433 H 0.38654 0.34499 0.70732
 N434 N 0.33614 0.32150 0.63149
 N435 N 0.32269 0.33361 0.63022
 C436 C 0.31180 0.32968 0.61588
 C437 C 0.31863 0.31435 0.60770
 C438 C 0.33411 0.30945 0.61793
 H439 H 0.29953 0.33721 0.61179
 H440 H 0.34304 0.29789 0.61582
 H441 H 0.33279 0.33422 0.66364
 H442 H 0.34806 0.34887 0.64926
 N443 N 0.32206 0.87225 0.17236
 N444 N 0.33694 0.87265 0.18285
 C445 C 0.33523 0.88623 0.19486
 C446 C 0.31835 0.89486 0.19165
 C447 C 0.31040 0.88562 0.17726
 H448 H 0.34550 0.88952 0.20513
 H449 H 0.29703 0.88835 0.17094
 Cu450 Cu 0.35705 0.85537 0.17968
 Cu451 Cu 0.31885 0.85423 0.15339
 Cu452 Cu 0.35178 0.81989 0.15160
 N453 N 0.37348 0.83463 0.18096
 N454 N 0.37164 0.82077 0.17000
 C455 C 0.38489 0.80844 0.17413
 C456 C 0.39548 0.81494 0.18852
 C457 C 0.38779 0.83161 0.19244
 H458 H 0.38656 0.79560 0.16738
 H459 H 0.39216 0.84091 0.20289
 N460 N 0.33049 0.82174 0.13435
 N461 N 0.31802 0.83485 0.13517
 C462 C 0.30531 0.83258 0.12187
 C463 C 0.30991 0.81729 0.11212
 C464 C 0.32597 0.81075 0.12040
 H465 H 0.29360 0.84147 0.11946
 H466 H 0.33373 0.79885 0.11655
 H467 H 0.33398 0.83472 0.16753
 H468 H 0.34668 0.84709 0.14917
 N469 N 0.82207 0.37257 0.16697
 N470 N 0.83285 0.37093 0.18137
 C471 C 0.83040 0.38528 0.19224
 C472 C 0.81725 0.39648 0.18428
 C473 C 0.81230 0.38801 0.16820
 H474 H 0.83719 0.38715 0.20526
 H475 H 0.80199 0.39242 0.15837
 Cu476 Cu 0.84797 0.34967 0.18524
 Cu477 Cu 0.82067 0.35401 0.14844
 Cu478 Cu 0.85243 0.31882 0.15184
 N479 N 0.86811 0.33235 0.18522
 N480 N 0.86991 0.32015 0.17240
 C481 C 0.88495 0.30984 0.17625
 C482 C 0.89293 0.31601 0.19229
 C483 C 0.88187 0.33034 0.19753
 H484 H 0.88971 0.29862 0.16811
 H485 H 0.88354 0.33869 0.20945
 N486 N 0.83338 0.32042 0.13219
 N487 N 0.82142 0.33395 0.13108
 C488 C 0.80988 0.33125 0.11691
 C489 C 0.81469 0.31525 0.10856
 C490 C 0.82973 0.30874 0.11856
 H491 H 0.79868 0.34027 0.11306
 H492 H 0.83716 0.29625 0.11627
 H493 H 0.83014 0.33193 0.16342
 H494 H 0.84839 0.34625 0.15238
 N495 N 0.81853 0.87335 0.66370
 N496 N 0.83078 0.87436 0.67701
 C497 C 0.82703 0.88909 0.68704
 C498 C 0.81158 0.89769 0.67966
 C499 C 0.80656 0.88731 0.66484
 H500 H 0.83481 0.89322 0.69895
 H501 H 0.79505 0.88966 0.65559
 Cu502 Cu 0.85016 0.85611 0.68016
 Cu503 Cu 0.81893 0.85400 0.64599
 Cu504 Cu 0.85398 0.82201 0.65015
 N505 N 0.87008 0.83827 0.68197
 N506 N 0.87152 0.82505 0.67018
 C507 C 0.88621 0.81460 0.67471
 C508 C 0.89442 0.82158 0.69021
 C509 C 0.88383 0.83665 0.69442
 H510 H 0.89048 0.80263 0.66746
 H511 H 0.88588 0.84569 0.70575
 N512 N 0.83487 0.82126 0.63083
 N513 N 0.82154 0.83349 0.62933
 C514 C 0.81058 0.82931 0.61507
 C515 C 0.81727 0.81372 0.60720
 C516 C 0.83271 0.80895 0.61753
 H517 H 0.79849 0.83696 0.61072
 H518 H 0.84159 0.79732 0.61562
 H519 H 0.83183 0.83487 0.66232
 H520 H 0.84748 0.84908 0.64789
 N521 N 0.68516 0.63175 0.66603
 N522 N 0.67306 0.62966 0.67932
 C523 C 0.67817 0.61521 0.68938
 C524 C 0.69430 0.60789 0.68202
 C525 C 0.69830 0.61879 0.66720
 H526 H 0.67079 0.61037 0.70125
 H527 H 0.70989 0.61744 0.65792
 Cu528 Cu 0.65184 0.64615 0.68215
 Cu529 Cu 0.68315 0.65104 0.64803
 Cu530 Cu 0.64652 0.68089 0.65317
 N531 N 0.63169 0.66387 0.68514
 N532 N 0.62991 0.67725 0.67350
 C533 C 0.61542 0.68766 0.67828
 C534 C 0.60751 0.68062 0.69379
 C535 C 0.61816 0.66543 0.69787
 H536 H 0.61098 0.69967 0.67109
 H537 H 0.61632 0.65634 0.70924
 N538 N 0.66454 0.68274 0.63334
 N539 N 0.67863 0.67147 0.63123
 C540 C 0.68851 0.67661 0.61650
 C541 C 0.68019 0.69186 0.60912
 C542 C 0.66505 0.69530 0.62016
 H543 H 0.70094 0.66992 0.61157
 H544 H 0.65516 0.70623 0.61879
 H545 H 0.66961 0.66851 0.66517
 H546 H 0.65478 0.65416 0.65006
 N547 N 0.67781 0.13233 0.16983
 N548 N 0.66435 0.13343 0.18193
 C549 C 0.66596 0.11973 0.19385
 C550 C 0.68125 0.10939 0.18907
 C551 C 0.68846 0.11778 0.17372
 H552 H 0.65665 0.11745 0.20517
 H553 H 0.70058 0.11364 0.16602
 Cu554 Cu 0.64583 0.15254 0.18125
 Cu555 Cu 0.68033 0.14999 0.15000
 Cu556 Cu 0.64679 0.18383 0.14854
 N557 N 0.62709 0.17151 0.18001
 N558 N 0.62762 0.18378 0.16712
 C559 C 0.61341 0.19544 0.16937
 C560 C 0.60337 0.19018 0.18452
 C561 C 0.61242 0.17493 0.19093
 H562 H 0.61067 0.20689 0.16065
 H563 H 0.60863 0.16706 0.20275
 N564 N 0.66708 0.18196 0.13081
 N565 N 0.68008 0.16931 0.13113
 C566 C 0.69194 0.17226 0.11711
 C567 C 0.68599 0.18746 0.10761
 C568 C 0.67023 0.19313 0.11678
 H569 H 0.70404 0.16407 0.11405
 H570 H 0.66165 0.20469 0.11360
 H571 H 0.66765 0.17063 0.16353
 H572 H 0.65253 0.15614 0.14895
 N573 N 0.18221 0.63183 0.16815
 N574 N 0.17033 0.63022 0.18164
 C575 C 0.17375 0.61467 0.19053
 C576 C 0.18867 0.60615 0.18222
 C577 C 0.19370 0.61746 0.16804
 H578 H 0.16630 0.61015 0.20248
 H579 H 0.20507 0.61564 0.15856
 Cu580 Cu 0.15241 0.64914 0.18711
 Cu581 Cu 0.18262 0.65302 0.15257
 Cu582 Cu 0.14317 0.68019 0.15479
 N583 N 0.13017 0.66409 0.18806
 N584 N 0.12645 0.67601 0.17529
 C585 C 0.11044 0.68459 0.17946
 C586 C 0.10378 0.67770 0.19571
 C587 C 0.11666 0.66465 0.20078
 H588 H 0.10428 0.69533 0.17146
 H589 H 0.11642 0.65633 0.21287
 N590 N 0.16198 0.68229 0.13528
 N591 N 0.17697 0.67192 0.13455
 C592 C 0.18722 0.67663 0.11999
 C593 C 0.17841 0.69076 0.11119
 C594 C 0.16241 0.69402 0.12124
 H595 H 0.20030 0.67040 0.11616
 H596 H 0.15196 0.70424 0.11862
 H597 H 0.16717 0.67180 0.16735
 H598 H 0.15414 0.65423 0.15447
 N599 N 0.18608 0.12562 0.66975
 N600 N 0.17237 0.12427 0.68152
 C601 C 0.17451 0.10898 0.69121
 C602 C 0.19045 0.10035 0.68524
 C603 C 0.19747 0.11128 0.67158
 H604 H 0.16549 0.10465 0.70217
 H605 H 0.21014 0.10930 0.66387
 Cu606 Cu 0.15379 0.14317 0.68359
 Cu607 Cu 0.18881 0.14656 0.65397
 Cu608 Cu 0.15246 0.17783 0.65422
 N609 N 0.13499 0.16180 0.68557
 N610 N 0.13425 0.17528 0.67395
 C611 C 0.11994 0.18619 0.67852
 C612 C 0.11133 0.17911 0.69383
 C613 C 0.12124 0.16361 0.69787
 H614 H 0.11620 0.19845 0.67140
 H615 H 0.11875 0.15439 0.70900
 N616 N 0.17259 0.17784 0.63573
 N617 N 0.18643 0.16603 0.63588
 C618 C 0.19792 0.16947 0.62185
 C619 C 0.19112 0.18423 0.61240
 C620 C 0.17504 0.18919 0.62157
 H621 H 0.21033 0.16176 0.61879
 H622 H 0.16589 0.20033 0.61818
 H623 H 0.17331 0.16563 0.66849
 H624 H 0.16038 0.15098 0.65219
 N625 N 0.31921 0.62752 0.32695
 N626 N 0.33193 0.62898 0.31413
 C627 C 0.32973 0.61558 0.30206
 C628 C 0.31494 0.60489 0.30759
 C629 C 0.30858 0.61290 0.32349
 H630 H 0.33820 0.61391 0.29004
 H631 H 0.29705 0.60847 0.33187
 Cu632 Cu 0.35003 0.64847 0.31414
 Cu633 Cu 0.31805 0.64486 0.34720
 Cu634 Cu 0.34070 0.68523 0.33776
 N635 N 0.36829 0.66786 0.31567
 N636 N 0.36422 0.68240 0.32501
 C637 C 0.37802 0.69448 0.32322
 C638 C 0.39163 0.68716 0.31215
 C639 C 0.38500 0.67020 0.30756
 H640 H 0.37780 0.70776 0.32921
 H641 H 0.39160 0.66058 0.29858
 N642 N 0.32244 0.68252 0.35732
 N643 N 0.31436 0.66715 0.36178
 C644 C 0.30473 0.66966 0.37738
 C645 C 0.30717 0.68739 0.38296
 C646 C 0.31830 0.69507 0.36975
 H647 H 0.29709 0.65926 0.38449
 H648 H 0.32377 0.70862 0.36949
 H649 H 0.32363 0.66399 0.32848
 H650 H 0.34313 0.65897 0.34459
 N651 N 0.32066 0.12557 0.82919
 N652 N 0.33530 0.12451 0.81850
 C653 C 0.33324 0.11049 0.80711
 C654 C 0.31641 0.10219 0.81095
 C655 C 0.30881 0.11211 0.82507
 H656 H 0.34334 0.10660 0.79693
 H657 H 0.29559 0.10974 0.83175
 Cu658 Cu 0.35577 0.14130 0.82062
 Cu659 Cu 0.31825 0.14450 0.84748
 Cu660 Cu 0.35221 0.17798 0.84702
 N661 N 0.37248 0.16149 0.81769
 N662 N 0.37142 0.17582 0.82811
 C663 C 0.38481 0.18757 0.82299
 C664 C 0.39462 0.18016 0.80853
 C665 C 0.38634 0.16359 0.80560
 H666 H 0.38712 0.20060 0.82915
 H667 H 0.39004 0.15372 0.79544
 N668 N 0.33142 0.17741 0.86486
 N669 N 0.31843 0.16479 0.86481
 C670 C 0.30625 0.16804 0.87836
 C671 C 0.31181 0.18343 0.88747
 C672 C 0.32784 0.18898 0.87856
 H673 H 0.29436 0.15967 0.88151
 H674 H 0.33625 0.20062 0.88186
 H675 H 0.33332 0.16295 0.83224
 H676 H 0.34618 0.15104 0.85086
 N677 N 0.81733 0.63458 0.82984
 N678 N 0.83128 0.63292 0.81834
 C679 C 0.82854 0.61799 0.80823
 C680 C 0.81198 0.60993 0.81376
 C681 C 0.80526 0.62096 0.82743
 H682 H 0.83781 0.61335 0.79762
 H683 H 0.79256 0.61931 0.83518
 Cu684 Cu 0.85128 0.65095 0.81773
 Cu685 Cu 0.81562 0.65425 0.84723
 Cu686 Cu 0.85845 0.67324 0.85666
 N687 N 0.87200 0.66804 0.82028
 N688 N 0.87455 0.67653 0.83577
 C689 C 0.88920 0.68768 0.83434
 C690 C 0.89626 0.68640 0.81691
 C691 C 0.88509 0.67367 0.80833
 H692 H 0.89410 0.69623 0.84522
 H693 H 0.88614 0.66923 0.79436
 N694 N 0.83688 0.67563 0.87285
 N695 N 0.82031 0.66888 0.86904
 C696 C 0.80818 0.67389 0.88207
 C697 C 0.81758 0.68452 0.89452
 C698 C 0.83576 0.68530 0.88826
 H699 H 0.79351 0.67046 0.88224
 H700 H 0.84727 0.69272 0.89412
 H701 H 0.83660 0.67213 0.83881
 H702 H 0.84293 0.65027 0.84989
 N703 N 0.81827 0.12703 0.32798
 N704 N 0.83201 0.12785 0.31621
 C705 C 0.83061 0.11415 0.30442
 C706 C 0.81514 0.10407 0.30890
 C707 C 0.80759 0.11259 0.32401
 H708 H 0.84002 0.11185 0.29322
 H709 H 0.79510 0.10876 0.33131
 Cu710 Cu 0.84992 0.14715 0.31662
 Cu711 Cu 0.81547 0.14535 0.34697
 Cu712 Cu 0.84842 0.18014 0.34756
 N713 N 0.86808 0.16621 0.31655
 N714 N 0.86780 0.17931 0.32854
 C715 C 0.88191 0.19081 0.32467
 C716 C 0.89123 0.18448 0.30935
 C717 C 0.88206 0.16886 0.30475
 H718 H 0.88497 0.20296 0.33219
 H719 H 0.88539 0.15999 0.29360
 N720 N 0.82761 0.17825 0.36542
 N721 N 0.81516 0.16511 0.36503
 C722 C 0.80275 0.16766 0.37853
 C723 C 0.80751 0.18312 0.38797
 C724 C 0.82337 0.18945 0.37928
 H725 H 0.79107 0.15888 0.38127
 H726 H 0.83113 0.20146 0.38274
 H727 H 0.82822 0.16646 0.33316
 H728 H 0.84332 0.15288 0.34862
 N729 N 0.67786 0.36880 0.32815
 N730 N 0.66597 0.36774 0.31453
 C731 C 0.66903 0.38141 0.30289
 C732 C 0.68367 0.39161 0.30949
 C733 C 0.68899 0.38320 0.32556
 H734 H 0.66111 0.38370 0.29056
 H735 H 0.70006 0.38731 0.33470
 Cu736 Cu 0.64738 0.34883 0.31292
 Cu737 Cu 0.67774 0.35137 0.34806
 Cu738 Cu 0.64180 0.32018 0.34779
 N739 N 0.62606 0.33279 0.31437
 N740 N 0.62402 0.32158 0.32807
 C741 C 0.60860 0.31165 0.32548
 C742 C 0.60044 0.31699 0.30930
 C743 C 0.61185 0.33047 0.30258
 H744 H 0.60377 0.30115 0.33456
 H745 H 0.61020 0.33780 0.28995
 N746 N 0.66115 0.32067 0.36671
 N747 N 0.67498 0.33239 0.36696
 C748 C 0.68612 0.32859 0.38135
 C749 C 0.67896 0.31373 0.39041
 C750 C 0.66309 0.30920 0.38076
 H751 H 0.69869 0.33586 0.38487
 H752 H 0.65375 0.29814 0.38358
 H753 H 0.66527 0.33033 0.33444
 H754 H 0.64958 0.34707 0.34578
 N755 N 0.68457 0.87642 0.83029
 N756 N 0.67199 0.87749 0.81730
 C757 C 0.67623 0.89165 0.80646
 C758 C 0.69233 0.89974 0.81316
 C759 C 0.69712 0.88965 0.82828
 H760 H 0.66836 0.89571 0.79455
 H761 H 0.70897 0.89161 0.83716
 Cu762 Cu 0.65165 0.85990 0.81625
 Cu763 Cu 0.68447 0.85789 0.84877
 Cu764 Cu 0.64989 0.82560 0.84680
 N765 N 0.63251 0.84119 0.81503
 N766 N 0.63195 0.82791 0.82691
 C767 C 0.61751 0.81702 0.82289
 C768 C 0.60845 0.82381 0.80770
 C769 C 0.61838 0.83916 0.80305
 H770 H 0.61385 0.80501 0.83042
 H771 H 0.61562 0.84814 0.79176
 N772 N 0.66942 0.82579 0.86588
 N773 N 0.68247 0.83828 0.86643
 C774 C 0.69390 0.83505 0.88057
 C775 C 0.68790 0.81974 0.88946
 C776 C 0.67228 0.81418 0.87982
 H777 H 0.70579 0.84327 0.88404
 H778 H 0.66380 0.80247 0.88266
 H779 H 0.67085 0.83847 0.83312
 H780 H 0.65584 0.85249 0.84837
 N781 N 0.18512 0.37412 0.83490
 N782 N 0.17248 0.37491 0.82191
 C783 C 0.17602 0.38930 0.81129
 C784 C 0.19168 0.39794 0.81800
 C785 C 0.19711 0.38792 0.83300
 H786 H 0.16796 0.39317 0.79942
 H787 H 0.20894 0.39034 0.84181
 Cu788 Cu 0.15295 0.35681 0.81998
 Cu789 Cu 0.18519 0.35533 0.85329
 Cu790 Cu 0.15041 0.32306 0.85050
 N791 N 0.13359 0.33851 0.81845
 N792 N 0.13273 0.32538 0.83047
 C793 C 0.11842 0.31448 0.82621
 C794 C 0.10982 0.32106 0.81070
 C795 C 0.11981 0.33637 0.80611
 H796 H 0.11465 0.30247 0.83372
 H797 H 0.11735 0.34517 0.79460
 N798 N 0.16962 0.32311 0.86972
 N799 N 0.18294 0.33533 0.87067
 C800 C 0.19409 0.33153 0.88495
 C801 C 0.18747 0.31621 0.89340
 C802 C 0.17194 0.31120 0.88340
 H803 H 0.20625 0.33921 0.88889
 H804 H 0.16314 0.29961 0.88571
 H805 H 0.17217 0.33590 0.83757
 H806 H 0.15681 0.35006 0.85225
 N807 N 0.17426 0.86940 0.32885
 N808 N 0.15849 0.87067 0.31974
 C809 C 0.15917 0.88492 0.30844
 C810 C 0.17631 0.89318 0.31055
 C811 C 0.18554 0.88302 0.32370
 H812 H 0.14801 0.88883 0.29931
 H813 H 0.19955 0.88516 0.32879
 Cu814 Cu 0.13856 0.85345 0.32278
 Cu815 Cu 0.17876 0.84943 0.34587
 Cu816 Cu 0.14452 0.81664 0.34892
 N817 N 0.12256 0.83273 0.32037
 N818 N 0.12460 0.81834 0.33066
 C819 C 0.11140 0.80624 0.32606
 C820 C 0.10068 0.81347 0.31207
 C821 C 0.10820 0.83030 0.30884
 H822 H 0.10981 0.79310 0.33227
 H823 H 0.10361 0.84016 0.29894
 N824 N 0.16609 0.81771 0.36578
 N825 N 0.17917 0.83019 0.36461
 C826 C 0.19176 0.82749 0.37801
 C827 C 0.18641 0.81253 0.38808
 C828 C 0.17006 0.80672 0.37992
 H829 H 0.20386 0.83587 0.38027
 H830 H 0.16166 0.79534 0.38405
 H831 H 0.16150 0.83124 0.33203
 H832 H 0.15112 0.84370 0.35178
 O833 O 0.24214 1.01768 0.27041
 O834 O 0.26690 0.98112 0.24597
 O835 O 0.26795 1.01611 0.24582
 O836 O 0.24391 0.98250 0.27326
 O837 O 0.22118 0.98103 0.25298
 O838 O 0.24521 1.01621 0.22549
 O839 O 0.24420 0.98091 0.22559
 O840 O 0.21925 1.01635 0.25029
 Cu841 Cu 0.25742 0.99943 0.26089
 Cu842 Cu 0.23017 0.99853 0.23660
 C843 C 0.22653 1.02337 0.26432
 C844 C 0.25963 0.97481 0.23150
 C845 C 0.26087 1.02210 0.23119
 C846 C 0.22871 0.97569 0.26778
 O847 O 0.24877 0.51852 0.72008
 O848 O 0.22287 0.48477 0.74587
 O849 O 0.22271 0.51984 0.74470
 O850 O 0.25113 0.48366 0.72391
 O851 O 0.27182 0.48631 0.74607
 O852 O 0.24313 0.52109 0.76724
 O853 O 0.24363 0.48601 0.76811
 O854 O 0.26904 0.52118 0.74260
 Cu855 Cu 0.23434 0.50151 0.73138
 Cu856 Cu 0.25895 0.50389 0.75825
 C857 C 0.26315 0.52579 0.72691
 C858 C 0.22887 0.47938 0.76118
 C859 C 0.22823 0.52657 0.75968
 C860 C 0.26630 0.47880 0.73157
 O861 O 0.74956 -0.01894 0.26733
 O862 O 0.72578 0.01819 0.24216
 O863 O 0.72266 -0.01754 0.24417
 O864 O 0.74705 0.01544 0.27155
 O865 O 0.76946 0.01728 0.25103
 O866 O 0.74521 -0.01772 0.22373
 O867 O 0.74840 0.01760 0.22187
 O868 O 0.77240 -0.01772 0.24727
 Cu869 Cu 0.73402 -0.00047 0.25786
 Cu870 Cu 0.76105 -0.00005 0.23400
 C871 C 0.76520 -0.02466 0.26134
 C872 C 0.73325 0.02424 0.22764
 C873 C 0.72966 -0.02370 0.22967
 C874 C 0.76222 0.02224 0.26608
 O875 O 0.75720 0.48417 0.72136
 O876 O 0.78295 0.51842 0.74668
 O877 O 0.78220 0.48310 0.74712
 O878 O 0.75449 0.51933 0.72449
 O879 O 0.73355 0.51707 0.74635
 O880 O 0.76137 0.48222 0.76918
 O881 O 0.76192 0.51769 0.76857
 O882 O 0.73639 0.48193 0.74333
 Cu883 Cu 0.77123 0.50139 0.73277
 Cu884 Cu 0.74628 0.49959 0.75902
 C885 C 0.74270 0.47691 0.72795
 C886 C 0.77681 0.52421 0.76173
 C887 C 0.77629 0.47642 0.76203
 C888 C 0.73921 0.52440 0.73177
 O889 O 0.25058 0.47895 0.26940
 O890 O 0.22216 0.51301 0.24584
 O891 O 0.22648 0.47805 0.24291
 O892 O 0.24702 0.51386 0.27171
 O893 O 0.26952 0.51740 0.25154
 O894 O 0.24887 0.48197 0.22271
 O895 O 0.24460 0.51694 0.22567
 O896 O 0.27306 0.48244 0.24918
 Cu897 Cu 0.23429 0.49558 0.25944
 Cu898 Cu 0.26124 0.50007 0.23524
 C899 C 0.26658 0.47477 0.26330
 C900 C 0.22860 0.52101 0.23192
 C901 C 0.23430 0.47377 0.22800
 C902 C 0.26179 0.52180 0.26644
 O903 O 0.78057 0.98723 0.74787
 O904 O 0.75503 1.02117 0.77356
 O905 O 0.75207 0.98641 0.76959
 O906 O 0.78108 1.02235 0.74916
 O907 O 0.76082 1.02426 0.72653
 O908 O 0.73155 0.98943 0.74731
 O909 O 0.73466 1.02433 0.75118
 O910 O 0.76003 0.98888 0.72547
 Cu911 Cu 0.76919 1.00402 0.76226
 Cu912 Cu 0.74477 1.00702 0.73535
 C913 C 0.77465 0.98194 0.73253
 C914 C 0.74071 1.02876 0.76685
 C915 C 0.73689 0.98177 0.76185
 C916 C 0.77569 1.02950 0.73427
 O917 O 0.76187 0.51553 0.23633
 O918 O 0.73692 0.47903 0.26013
 O919 O 0.73397 0.51387 0.25857
 O920 O 0.76347 0.48054 0.23611
 O921 O 0.78391 0.48166 0.25864
 O922 O 0.75430 0.51577 0.28114
 O923 O 0.75722 0.48070 0.28272
 O924 O 0.78235 0.51692 0.25880
 Cu925 Cu 0.74706 0.49706 0.24553
 Cu926 Cu 0.77149 0.49888 0.27262
 C927 C 0.77627 0.52254 0.24356
 C928 C 0.74287 0.47363 0.27553
 C929 C 0.73912 0.52069 0.27355
 C930 C 0.77857 0.47528 0.24345
 O931 O 0.24808 -0.02306 0.78089
 O932 O 0.21950 0.01148 0.75731
 O933 O 0.22044 -0.02375 0.75785
 O934 O 0.24509 0.01210 0.78236
 O935 O 0.26608 0.01369 0.76045
 O936 O 0.24136 -0.02251 0.73586
 O937 O 0.24060 0.01255 0.73547
 O938 O 0.26891 -0.02134 0.75886
 Cu939 Cu 0.23119 -0.00597 0.77182
 Cu940 Cu 0.25633 -0.00430 0.74549
 C941 C 0.26335 -0.02816 0.77371
 C942 C 0.22542 0.01802 0.74238
 C943 C 0.22669 -0.02934 0.74274
 C944 C 0.25958 0.01922 0.77554
 O945 O 0.26195 0.23522 0.97667
 O946 O 0.23904 0.26073 1.01383
 O947 O 0.23830 0.26167 0.97839
 O948 O 0.25935 0.23176 1.01197
 O949 O 0.28351 0.25000 1.01470
 O950 O 0.26271 0.27978 0.97937
 O951 O 0.26320 0.27914 1.01484
 O952 O 0.28645 0.25306 0.97910
 Cu953 Cu 0.24727 0.24557 0.99504
 Cu954 Cu 0.27644 0.26724 0.99716
 C955 C 0.27817 0.23998 0.97149
 C956 C 0.24729 0.27435 1.02063
 C957 C 0.24677 0.27561 0.97292
 C958 C 0.27475 0.23580 1.01940
 O959 O 0.24110 0.76443 0.47597
 O960 O 0.27035 0.74356 0.51117
 O961 O 0.26609 0.73896 0.47599
 O962 O 0.24191 0.76551 0.51166
 O963 O 0.22110 0.74374 0.51392
 O964 O 0.24565 0.71705 0.47973
 O965 O 0.24962 0.72190 0.51483
 O966 O 0.22047 0.74249 0.47828
 Cu967 Cu 0.25690 0.75524 0.49340
 Cu968 Cu 0.23220 0.72916 0.49701
 C969 C 0.22603 0.75707 0.47084
 C970 C 0.26497 0.72941 0.51926
 C971 C 0.25979 0.72348 0.47172
 C972 C 0.22728 0.75893 0.51892
 O973 O 0.27115 0.75330 -0.01361
 O974 O 0.24727 0.72600 0.02102
 O975 O 0.24463 0.72967 -0.01425
 O976 O 0.27339 0.75022 0.02172
 O977 O 0.25206 0.77149 0.02500
 O978 O 0.22335 0.75102 -0.01112
 O979 O 0.22588 0.74722 0.02424
 O980 O 0.24997 0.77472 -0.01037
 Cu981 Cu 0.26121 0.73764 0.00341
 Cu982 Cu 0.23569 0.76326 0.00730
 C983 C 0.26455 0.76858 -0.01804
 C984 C 0.23262 0.73196 0.02865
 C985 C 0.22927 0.73692 -0.01901
 C986 C 0.26752 0.76435 0.02960
 O987 O 0.21584 0.25690 0.48831
 O988 O 0.24163 0.28307 0.52250
 O989 O 0.24003 0.28285 0.48713
 O990 O 0.21633 0.25808 0.52379
 O991 O 0.23890 0.23775 0.52378
 O992 O 0.26258 0.26250 0.48685
 O993 O 0.26417 0.26270 0.52231
 O994 O 0.23841 0.23656 0.48832
 Cu995 Cu 0.22617 0.27226 0.50545
 Cu996 Cu 0.25327 0.24782 0.50531
 C997 C 0.22286 0.24232 0.48236
 C998 C 0.25727 0.27727 0.52830
 C999 C 0.25525 0.27689 0.48064
 C1000 C 0.22363 0.24377 0.53015
 O1001 O 0.74132 0.76874 0.97584
 O1002 O 0.76916 0.74684 1.01163
 O1003 O 0.76648 0.74343 0.97660
 O1004 O 0.74474 0.77249 1.01090
 O1005 O 0.72245 0.75233 1.01480
 O1006 O 0.74377 0.72357 0.97969
 O1007 O 0.74692 0.72653 1.01501
 O1008 O 0.71866 0.74894 0.97955
 Cu1009 Cu 0.75765 0.75991 0.99329
 Cu1010 Cu 0.73068 0.73581 0.99763
 C1011 C 0.72534 0.76265 0.97154
 C1012 C 0.76270 0.73296 1.01952
 C1013 C 0.75884 0.72866 0.97218
 C1014 C 0.73007 0.76722 1.01896
 O1015 O 0.72424 0.25330 0.51196
 O1016 O 0.75131 0.23128 0.47538
 O1017 O 0.74868 0.22751 0.51068
 O1018 O 0.72677 0.25709 0.47662
 O1019 O 0.74927 0.27711 0.48006
 O1020 O 0.77124 0.24748 0.51407
 O1021 O 0.77377 0.25132 0.47881
 O1022 O 0.74677 0.27327 0.51546
 Cu1023 Cu 0.73548 0.24032 0.49327
 Cu1024 Cu 0.76252 0.26429 0.49748
 C1025 C 0.73101 0.26690 0.52013
 C1026 C 0.76709 0.23763 0.47074
 C1027 C 0.76365 0.23262 0.51835
 C1028 C 0.73433 0.27197 0.47235
 O1029 O 0.73172 0.24485 -0.01397
 O1030 O 0.76005 0.26692 0.02127
 O1031 O 0.75563 0.27097 -0.01377
 O1032 O 0.73514 0.24169 0.02115
 O1033 O 0.75761 0.22160 0.01752
 O1034 O 0.77806 0.25099 -0.01811
 O1035 O 0.78261 0.24701 0.01724
 O1036 O 0.75405 0.22468 -0.01792
 Cu1037 Cu 0.74342 0.25809 0.00411
 Cu1038 Cu 0.77037 0.23408 -0.00076
 C1039 C 0.73812 0.23106 -0.02207
 C1040 C 0.77603 0.26065 0.02545
 C1041 C 0.77019 0.26589 -0.02213
 C1042 C 0.74282 0.22685 0.02549
 O1043 O 0.76432 0.76350 0.48422
 O1044 O 0.74336 0.73401 0.51826
 O1045 O 0.73995 0.73795 0.48311
 O1046 O 0.76516 0.76191 0.51958
 O1047 O 0.74160 0.78105 0.52148
 O1048 O 0.71602 0.75653 0.48612
 O1049 O 0.71980 0.75298 0.52140
 O1050 O 0.74045 0.78232 0.48595
 Cu1051 Cu 0.75553 0.74744 0.50106
 Cu1052 Cu 0.72708 0.77011 0.50406
 C1053 C 0.75598 0.77767 0.47898
 C1054 C 0.72819 0.73847 0.52586
 C1055 C 0.72376 0.74329 0.47829
 C1056 C 0.75758 0.77570 0.52670
 O1057 O 0.98461 0.24749 0.22601
 O1058 O 1.02030 0.22269 0.25075
 O1059 O 0.98423 0.22718 0.25487
 O1060 O 1.02130 0.25055 0.22850
 O1061 O 1.02107 0.27199 0.24921
 O1062 O 0.98643 0.24821 0.27595
 O1063 O 1.02244 0.24434 0.27114
 O1064 O 0.98444 0.26888 0.24679
 Cu1065 Cu 1.00263 0.23510 0.23814
 Cu1066 Cu 1.00359 0.26033 0.26256
 C1067 C 0.97808 0.26214 0.23205
 C1068 C 1.02781 0.22916 0.26487
 C1069 C 0.97903 0.23391 0.27002
 C1070 C 1.02739 0.26554 0.23455
 O1071 O 0.52242 0.26878 0.74231
 O1072 O 0.48544 0.24842 0.77042
 O1073 O 0.52188 0.24570 0.76904
 O1074 O 0.48590 0.27125 0.74356
 O1075 O 0.48405 0.24898 0.72379
 O1076 O 0.51929 0.22343 0.74935
 O1077 O 0.48300 0.22621 0.75064
 O1078 O 0.52034 0.24640 0.72269
 Cu1079 Cu 0.50417 0.26079 0.75830
 Cu1080 Cu 0.50142 0.23402 0.73467
 C1081 C 0.52782 0.26104 0.72784
 C1082 C 0.47777 0.23390 0.76521
 C1083 C 0.52677 0.23021 0.76342
 C1084 C 0.47877 0.26434 0.72935
 O1085 O -0.01560 0.26908 0.75831
 O1086 O 0.02017 0.24683 0.73085
 O1087 O -0.01605 0.24380 0.73405
 O1088 O 0.02085 0.26929 0.75797
 O1089 O 0.02235 0.24751 0.77845
 O1090 O -0.01360 0.22197 0.75440
 O1091 O 0.02257 0.22512 0.75132
 O1092 O -0.01406 0.24724 0.77875
 Cu1093 Cu 0.00215 0.25940 0.74324
 Cu1094 Cu 0.00456 0.23330 0.76776
 C1095 C -0.02114 0.26197 0.77303
 C1096 C 0.02764 0.23232 0.73639
 C1097 C -0.02120 0.22858 0.74030
 C1098 C 0.02787 0.26260 0.77241
 O1099 O 0.51106 0.24364 0.28000
 O1100 O 0.47489 0.21984 0.25319
 O1101 O 0.51129 0.21861 0.25528
 O1102 O 0.47466 0.24294 0.27980
 O1103 O 0.47511 0.26463 0.25918
 O1104 O 0.51250 0.24037 0.23477
 O1105 O 0.47626 0.24155 0.23265
 O1106 O 0.51144 0.26533 0.25937
 Cu1107 Cu 0.49289 0.22909 0.26914
 Cu1108 Cu 0.49388 0.25513 0.24443
 C1109 C 0.51744 0.25855 0.27411
 C1110 C 0.46947 0.22678 0.23823
 C1111 C 0.51829 0.22534 0.24096
 C1112 C 0.46854 0.25784 0.27373
 O1113 O 0.98661 0.75359 0.72630
 O1114 O 1.02270 0.73181 0.75489
 O1115 O 0.98677 0.72762 0.74996
 O1116 O 1.02288 0.75605 0.72939
 O1117 O 1.01889 0.77668 0.75063
 O1118 O 0.98237 0.74797 0.77139
 O1119 O 1.01833 0.75235 0.77615
 O1120 O 0.98247 0.77408 0.74765
 Cu1121 Cu 1.00519 0.74024 0.73802
 Cu1122 Cu 1.00005 0.76482 0.76357
 C1123 C 0.97826 0.76752 0.73225
 C1124 C 1.02678 0.73847 0.77033
 C1125 C 0.97825 0.73296 0.76406
 C1126 C 1.02725 0.77104 0.73647
 O1127 O 0.52352 0.72195 0.25007
 O1128 O 0.48546 0.74235 0.22249
 O1129 O 0.52179 0.74462 0.22301
 O1130 O 0.48739 0.71783 0.24770
 O1131 O 0.48411 0.73978 0.26768
 O1132 O 0.51985 0.76641 0.24331
 O1133 O 0.48346 0.76437 0.24255
 O1134 O 0.52036 0.74367 0.27030
 Cu1135 Cu 0.50486 0.72951 0.23382
 Cu1136 Cu 0.50168 0.75572 0.25800
 C1137 C 0.52841 0.72942 0.26491
 C1138 C 0.47796 0.75693 0.22798
 C1139 C 0.52685 0.75991 0.22885
 C1140 C 0.47958 0.72431 0.26169
 O1141 O 0.01133 0.74157 0.27962
 O1142 O -0.02507 0.71776 0.25431
 O1143 O 0.01143 0.71939 0.25239
 O1144 O -0.02513 0.74250 0.27944
 O1145 O -0.02573 0.76449 0.25915
 O1146 O 0.00983 0.74135 0.23212
 O1147 O -0.02649 0.73979 0.23410
 O1148 O 0.01078 0.76359 0.25936
 Cu1149 Cu -0.00681 0.72810 0.26843
 Cu1150 Cu -0.00800 0.75450 0.24419
 C1151 C 0.01747 0.75650 0.27377
 C1152 C -0.03213 0.72463 0.24004
 C1153 C 0.01690 0.72663 0.23761
 C1154 C -0.03167 0.75749 0.27378
 O1155 O 0.51881 0.75333 0.72775
 O1156 O 0.48178 0.77558 0.75487
 O1157 O 0.51839 0.77660 0.75419
 O1158 O 0.48240 0.75603 0.72551
 O1159 O 0.48153 0.73242 0.74382
 O1160 O 0.51809 0.75315 0.77274
 O1161 O 0.48158 0.75196 0.77317
 O1162 O 0.51791 0.72993 0.74635
 Cu1163 Cu 0.50044 0.76771 0.73878
 Cu1164 Cu 0.49968 0.73957 0.76084
 C1165 C 0.52474 0.73783 0.73261
 C1166 C 0.47529 0.76731 0.76868
 C1167 C 0.52460 0.76847 0.76814
 C1168 C 0.47567 0.74083 0.72976
 C1169 C 0.42501 0.28440 0.30171
 C1170 C 0.43230 0.29166 0.28558
 N1171 N 0.42509 0.30725 0.27883
 C1172 C 0.41085 0.31588 0.28746
 C1173 C 0.40341 0.30854 0.30356
 N1174 N 0.41080 0.29295 0.31026
 N1175 N 0.43215 0.26882 0.30850
 C1176 C 0.44624 0.26009 0.29985
 C1177 C 0.45356 0.26724 0.28360
 N1178 N 0.44637 0.28294 0.27688
 H1179 H 0.40541 0.32826 0.28171
 H1180 H 0.45160 0.24765 0.30557
 C1181 C 0.43031 0.78901 0.79881
 C1182 C 0.43740 0.79826 0.78366
 N1183 N 0.42933 0.81401 0.77841
 C1184 C 0.41444 0.82090 0.78756
 C1185 C 0.40715 0.81158 0.80271
 N1186 N 0.41543 0.79582 0.80790
 N1187 N 0.43827 0.77325 0.80409
 C1188 C 0.45296 0.76621 0.79483
 C1189 C 0.46002 0.77528 0.77947
 N1190 N 0.45205 0.79120 0.77429
 H1191 H 0.40840 0.83344 0.78286
 H1192 H 0.45892 0.75353 0.79934
 C1193 C -0.06581 0.28707 0.80065
 C1194 C -0.05851 0.29452 0.78463
 N1195 N -0.06626 0.30971 0.77754
 C1196 C -0.08110 0.31779 0.78571
 C1197 C -0.08861 0.31027 0.80168
 N1198 N -0.08065 0.29507 0.80876
 N1199 N -0.05811 0.27183 0.80770
 C1200 C -0.04347 0.26358 0.79934
 C1201 C -0.03626 0.27088 0.78315
 N1202 N -0.04398 0.28626 0.77625
 H1203 H -0.08701 0.32983 0.77968
 H1204 H -0.03770 0.25137 0.80518
 C1205 C -0.07522 0.78444 0.30158
 C1206 C -0.06805 0.79125 0.28522
 N1207 N -0.07547 0.80649 0.27791
 C1208 C -0.08985 0.81524 0.28618
 C1209 C -0.09721 0.80842 0.30253
 N1210 N -0.08959 0.79315 0.30983
 N1211 N -0.06785 0.76912 0.30882
 C1212 C -0.05367 0.76022 0.30036
 C1213 C -0.04653 0.76693 0.28387
 N1214 N -0.05394 0.78237 0.27678
 H1215 H -0.09546 0.82731 0.27995
 H1216 H -0.04814 0.74799 0.30639
 C1217 C 0.57319 0.70777 0.29580
 C1218 C 0.56722 0.69936 0.27972
 N1219 N 0.57613 0.68429 0.27390
 C1220 C 0.59077 0.67724 0.28340
 C1221 C 0.59689 0.68568 0.29950
 N1222 N 0.58784 0.70079 0.30526
 N1223 N 0.56430 0.72284 0.30163
 C1224 C 0.54975 0.72995 0.29209
 C1225 C 0.54378 0.72166 0.27587
 N1226 N 0.55272 0.70648 0.27012
 H1227 H 0.59757 0.66527 0.27830
 H1228 H 0.54302 0.74204 0.29707
 C1229 C 0.57068 0.20201 0.78950
 C1230 C 0.56479 0.21883 0.79603
 N1231 N 0.57374 0.22630 0.81048
 C1232 C 0.58840 0.21773 0.81862
 C1233 C 0.59448 0.20096 0.81193
 N1234 N 0.58534 0.19355 0.79752
 N1235 N 0.56184 0.19450 0.77507
 C1236 C 0.54742 0.20312 0.76672
 C1237 C 0.54160 0.22013 0.77299
 N1238 N 0.55044 0.22755 0.78761
 H1239 H 0.59532 0.22407 0.83002
 H1240 H 0.54075 0.19682 0.75513
 C1241 C 1.07079 0.71507 0.80096
 C1242 C 1.06539 0.70793 0.78408
 N1243 N 1.07464 0.69355 0.77722
 C1244 C 1.08910 0.68592 0.78644
 C1245 C 1.09471 0.69303 0.80336
 N1246 N 1.08533 0.70751 0.81020
 N1247 N 1.06148 0.72953 0.80774
 C1248 C 1.04709 0.73721 0.79835
 C1249 C 1.04175 0.73015 0.78134
 N1250 N 1.05109 0.71561 0.77469
 H1251 H 1.09616 0.67454 0.78042
 H1252 H 1.04003 0.74880 0.80404
 C1253 C 1.07285 0.20075 0.28906
 C1254 C 1.06712 0.21752 0.29592
 N1255 N 1.07641 0.22482 0.31019
 C1256 C 1.09117 0.21613 0.31794
 C1257 C 1.09702 0.19929 0.31111
 N1258 N 1.08764 0.19206 0.29675
 N1259 N 1.06358 0.19345 0.27477
 C1260 C 1.04888 0.20218 0.26696
 C1261 C 1.04315 0.21909 0.27369
 N1262 N 1.05247 0.22632 0.28810
 H1263 H 1.09830 0.22248 0.32920
 H1264 H 1.04186 0.19601 0.25551
 C1265 C 0.57235 0.28453 0.69824
 C1266 C 0.56548 0.29250 0.71419
 N1267 N 0.57331 0.30789 0.72043
 C1268 C 0.58769 0.31579 0.71145
 C1269 C 0.59470 0.30795 0.69539
 N1270 N 0.58680 0.29240 0.68921
 N1271 N 0.56442 0.26908 0.69208
 C1272 C 0.54998 0.26123 0.70116
 C1273 C 0.54312 0.26919 0.71720
 N1274 N 0.55113 0.28468 0.72325
 H1275 H 0.59357 0.32801 0.71697
 H1276 H 0.54399 0.24889 0.69596
 C1277 C 0.56941 0.78726 0.20037
 C1278 C 0.56307 0.79383 0.21714
 N1279 N 0.57124 0.80870 0.22441
 C1280 C 0.58554 0.81720 0.21569
 C1281 C 0.59201 0.81046 0.19897
 N1282 N 0.58364 0.79567 0.19177
 N1283 N 0.56150 0.77238 0.19305
 C1284 C 0.54756 0.76359 0.20182
 C1285 C 0.54125 0.76993 0.21876
 N1286 N 0.54913 0.78503 0.22600
 H1287 H 0.59184 0.82893 0.22186
 H1288 H 0.54160 0.75168 0.19565
 C1289 C 1.07083 0.29411 0.20851
 C1290 C 1.06676 0.27630 0.20349
 N1291 N 1.07745 0.26803 0.19077
 C1292 C 1.09212 0.27668 0.18294
 C1293 C 1.09636 0.29448 0.18809
 N1294 N 1.08546 0.30275 0.20074
 N1295 N 1.06035 0.30236 0.22136
 C1296 C 1.04607 0.29356 0.22960
 C1297 C 1.04205 0.27560 0.22483
 N1298 N 1.05248 0.26743 0.21172
 H1299 H 1.10036 0.26964 0.17290
 H1300 H 1.03804 0.30051 0.23989
 C1301 C 1.07201 0.79974 0.71251
 C1302 C 1.06556 0.78349 0.70513
 N1303 N 1.07397 0.77651 0.69023
 C1304 C 1.08860 0.78502 0.68228
 C1305 C 1.09526 0.80135 0.68956
 N1306 N 1.08672 0.80831 0.70459
 N1307 N 1.06350 0.80661 0.72750
 C1308 C 1.04887 0.79790 0.73546
 C1309 C 1.04247 0.78154 0.72811
 N1310 N 1.05106 0.77482 0.71308
 H1311 H 1.09493 0.77896 0.67045
 H1312 H 1.04245 0.80361 0.74746
 C1313 C 0.43093 0.71912 0.69902
 C1314 C 0.43854 0.70973 0.71393
 N1315 N 0.43105 0.69377 0.71902
 C1316 C 0.41609 0.68685 0.71011
 C1317 C 0.40801 0.69637 0.69541
 N1318 N 0.41583 0.71228 0.69011
 N1319 N 0.43852 0.73512 0.69401
 C1320 C 0.45320 0.74224 0.70334
 C1321 C 0.46060 0.73301 0.71854
 N1322 N 0.45307 0.71688 0.72334
 H1323 H 0.41061 0.67403 0.71459
 H1324 H 0.45884 0.75510 0.69909
 C1325 C 0.42671 0.20275 0.20699
 C1326 C 0.43180 0.19540 0.22391
 N1327 N 0.42238 0.18087 0.23042
 C1328 C 0.40805 0.17345 0.22081
 C1329 C 0.40283 0.18097 0.20394
 N1330 N 0.41243 0.19542 0.19750
 N1331 N 0.43591 0.21730 0.20042
 C1332 C 0.44991 0.22502 0.21009
 C1333 C 0.45496 0.21792 0.22720
 N1334 N 0.44579 0.20315 0.23368
 H1335 H 0.40073 0.16196 0.22638
 H1336 H 0.45690 0.23670 0.20449
 C1337 C -0.07631 0.69747 0.21353
 C1338 C -0.06956 0.71388 0.20670
 N1339 N -0.07761 0.72123 0.19167
 C1340 C -0.09215 0.71296 0.18318
 C1341 C -0.09906 0.69656 0.19009
 N1342 N -0.09086 0.68924 0.20513
 N1343 N -0.06834 0.69009 0.22857
 C1344 C -0.05396 0.69843 0.23718
 C1345 C -0.04723 0.71499 0.23052
 N1346 N -0.05523 0.72229 0.21534
 H1347 H -0.09827 0.71923 0.17128
 H1348 H -0.04797 0.69224 0.24921
 C1349 C -0.06634 0.20150 0.71532
 C1350 C -0.06025 0.21834 0.70892
 N1351 N -0.06926 0.22634 0.69483
 C1352 C -0.08409 0.21828 0.68675
 C1353 C -0.09029 0.20135 0.69302
 N1354 N -0.08122 0.19339 0.70726
 N1355 N -0.05731 0.19361 0.72953
 C1356 C -0.04253 0.20184 0.73767
 C1357 C -0.03649 0.21878 0.73133
 N1358 N -0.04555 0.22656 0.71705
 H1359 H -0.09095 0.22519 0.67564
 H1360 H -0.03568 0.19528 0.74905
 C1361 C 0.29607 0.43269 0.28956
 C1362 C 0.27902 0.43903 0.29642
 N1363 N 0.27150 0.43116 0.31137
 C1364 C 0.28016 0.41707 0.31973
 C1365 C 0.29709 0.41041 0.31272
 N1366 N 0.30466 0.41852 0.29780
 N1367 N 0.30355 0.44059 0.27457
 C1368 C 0.29463 0.45445 0.26601
 C1369 C 0.27735 0.46060 0.27266
 N1370 N 0.27006 0.45273 0.28781
 H1371 H 0.27370 0.41107 0.33155
 H1372 H 0.30084 0.46039 0.25400
 C1373 C 0.29431 -0.07084 0.79718
 C1374 C 0.27797 -0.06449 0.80553
 N1375 N 0.27175 -0.07263 0.82091
 C1376 C 0.28103 -0.08692 0.82827
 C1377 C 0.29728 -0.09355 0.81974
 N1378 N 0.30348 -0.08517 0.80440
 N1379 N 0.30058 -0.06277 0.78180
 C1380 C 0.29114 -0.04872 0.77424
 C1381 C 0.27453 -0.04251 0.78235
 N1382 N 0.26841 -0.05055 0.79791
 H1383 H 0.27556 -0.09307 0.84049
 H1384 H 0.29643 -0.04268 0.76186
 C1385 C 0.80327 0.43201 0.78729
 C1386 C 0.78695 0.43944 0.79463
 N1387 N 0.77925 0.43189 0.80968
 C1388 C 0.78706 0.41713 0.81773
 C1389 C 0.80338 0.40944 0.81034
 N1390 N 0.81107 0.41725 0.79526
 N1391 N 0.81089 0.43950 0.77214
 C1392 C 0.80281 0.45403 0.76388
 C1393 C 0.78629 0.46140 0.77107
 N1394 N 0.77885 0.45388 0.78638
 H1395 H 0.78043 0.41150 0.82965
 H1396 H 0.80910 0.45959 0.75173
 C1397 C 0.79285 -0.06885 0.28614
 C1398 C 0.77641 -0.06181 0.29372
 N1399 N 0.76923 -0.06953 0.30892
 C1400 C 0.77769 -0.08399 0.31687
 C1401 C 0.79414 -0.09125 0.30919
 N1402 N 0.80124 -0.08335 0.29396
 N1403 N 0.80013 -0.06115 0.27100
 C1404 C 0.79166 -0.04676 0.26301
 C1405 C 0.77502 -0.03974 0.27039
 N1406 N 0.76781 -0.04749 0.28567
 H1407 H 0.77145 -0.08974 0.32892
 H1408 H 0.79778 -0.04101 0.25087
 C1409 C 0.28877 0.56860 0.69857
 C1410 C 0.29423 0.56426 0.71641
 N1411 N 0.30718 0.57455 0.72497
 C1412 C 0.31481 0.58911 0.71656
 C1413 C 0.30916 0.59368 0.69876
 N1414 N 0.29630 0.58317 0.69020
 N1415 N 0.27568 0.55846 0.69007
 C1416 C 0.26758 0.54428 0.69869
 C1417 C 0.27274 0.54010 0.71672
 N1418 N 0.28610 0.55016 0.72509
 H1419 H 0.32495 0.59711 0.72385
 H1420 H 0.25706 0.53652 0.69160
 C1421 C 0.28958 1.06456 0.20510
 C1422 C 0.27177 1.05950 0.19896
 N1423 N 0.26361 1.06899 0.18521
 C1424 C 0.27239 1.08339 0.17746
 C1425 C 0.29008 1.08865 0.18392
 N1426 N 0.29818 1.07895 0.19754
 N1427 N 0.29787 1.05531 0.21882
 C1428 C 0.28907 1.04130 0.22695
 C1429 C 0.27101 1.03633 0.22124
 N1430 N 0.26281 1.04551 0.20720
 H1431 H 0.26549 1.09082 0.16668
 H1432 H 0.29606 1.03431 0.23798
 C1433 C 0.80184 0.56659 0.21681
 C1434 C 0.78670 0.55747 0.20894
 N1435 N 0.77975 0.56314 0.19273
 C1436 C 0.78713 0.57763 0.18405
 C1437 C 0.80215 0.58705 0.19196
 N1438 N 0.80920 0.58117 0.20819
 N1439 N 0.80871 0.56090 0.23308
 C1440 C 0.80103 0.54657 0.24191
 C1441 C 0.78568 0.53755 0.23415
 N1442 N 0.77898 0.54326 0.21776
 H1443 H 0.78115 0.58173 0.17117
 H1444 H 0.80670 0.54244 0.25493
 C1445 C 0.80426 1.07343 0.71039
 C1446 C 0.78866 1.06565 0.70193
 N1447 N 0.78212 1.07265 0.68609
 C1448 C 0.79039 1.08720 0.67831
 C1449 C 0.80592 1.09526 0.68679
 N1450 N 0.81251 1.08806 0.70267
 N1451 N 0.81069 1.06636 0.72631
 C1452 C 0.80211 1.05196 0.73421
 C1453 C 0.78629 1.04433 0.72587
 N1454 N 0.78006 1.05142 0.70986
 H1455 H 0.78470 1.09241 0.66572
 H1456 H 0.80742 1.04672 0.74698
 C1457 C 0.70740 0.56294 0.29628
 C1458 C 0.72394 0.55698 0.30469
 N1459 N 0.73021 0.56541 0.31985
 C1460 C 0.72079 0.57966 0.32693
 C1461 C 0.70438 0.58591 0.31834
 N1462 N 0.69806 0.57725 0.30324
 N1463 N 0.70118 0.55459 0.28105
 C1464 C 0.71086 0.54063 0.27371
 C1465 C 0.72763 0.53483 0.28191
 N1466 N 0.73369 0.54314 0.29731
 H1467 H 0.72629 0.58611 0.33896
 H1468 H 0.70567 0.53435 0.26143
 C1469 C 0.71578 1.07111 0.79660
 C1470 C 0.70812 1.06565 0.77991
 N1471 N 0.69290 1.07440 0.77321
 C1472 C 0.68505 1.08842 0.78238
 C1473 C 0.69291 1.09413 0.79903
 N1474 N 0.70809 1.08516 0.80565
 N1475 N 0.73090 1.06241 0.80344
 C1476 C 0.73887 1.04853 0.79429
 C1477 C 0.73149 1.04314 0.77738
 N1478 N 0.71617 1.05184 0.77061
 H1479 H 0.67299 1.09507 0.77655
 H1480 H 0.75102 1.04196 0.80009
 C1481 C 0.19978 0.56929 0.78559
 C1482 C 0.21548 0.56112 0.79355
 N1483 N 0.22212 0.56726 0.80966
 C1484 C 0.21386 0.58137 0.81819
 C1485 C 0.19825 0.58984 0.81020
 N1486 N 0.19154 0.58348 0.79406
 N1487 N 0.19324 0.56309 0.76940
 C1488 C 0.20181 0.54912 0.76075
 C1489 C 0.21772 0.54108 0.76863
 N1490 N 0.22405 0.54732 0.78490
 H1491 H 0.21959 0.58593 0.83099
 H1492 H 0.19642 0.54452 0.74780
 C1493 C 0.20034 1.06841 0.28878
 C1494 C 0.21744 1.06176 0.29543
 N1495 N 0.22595 1.07021 0.30951
 C1496 C 0.21817 1.08502 0.31729
 C1497 C 0.20104 1.09183 0.31067
 N1498 N 0.19256 1.08328 0.29649
 N1499 N 0.19188 1.05996 0.27465
 C1500 C 0.19978 1.04523 0.26678
 C1501 C 0.21702 1.03862 0.27328
 N1502 N 0.22539 1.04711 0.28753
 H1503 H 0.22547 1.09143 0.32840
 H1504 H 0.19274 1.03889 0.25544
 C1505 C 0.71797 0.43372 0.69909
 C1506 C 0.71027 0.43967 0.71558
 N1507 N 0.69503 0.43118 0.72241
 C1508 C 0.68715 0.41702 0.71352
 C1509 C 0.69493 0.41092 0.69704
 N1510 N 0.71021 0.41951 0.69028
 N1511 N 0.73313 0.44220 0.69216
 C1512 C 0.74105 0.45631 0.70102
 C1513 C 0.73358 0.46222 0.71770
 N1514 N 0.71826 0.45371 0.72456
 H1515 H 0.67508 0.41052 0.71941
 H1516 H 0.75321 0.46269 0.69515
 C1517 C 0.70205 -0.06754 0.20498
 C1518 C 0.71947 -0.06182 0.19843
 N1519 N 0.72772 -0.07109 0.18469
 C1520 C 0.71938 -0.08586 0.17729
 C1521 C 0.70204 -0.09173 0.18407
 N1522 N 0.69385 -0.08230 0.19774
 N1523 N 0.69371 -0.05844 0.21870
 C1524 C 0.70209 -0.04397 0.22639
 C1525 C 0.71976 -0.03835 0.22021
 N1526 N 0.72801 -0.04740 0.20622
 H1527 H 0.72636 -0.09304 0.16647
 H1528 H 0.69512 -0.03712 0.23746
 C1529 C 0.21321 0.42962 0.19773
 C1530 C 0.20475 0.43501 0.21405
 N1531 N 0.18997 0.42562 0.22055
 C1532 C 0.18327 0.41101 0.21154
 C1533 C 0.19175 0.40539 0.19521
 N1534 N 0.20656 0.41496 0.18870
 N1535 N 0.22806 0.43904 0.19130
 C1536 C 0.23491 0.45350 0.20052
 C1537 C 0.22660 0.45882 0.21703
 N1538 N 0.21162 0.44938 0.22331
 H1539 H 0.17149 0.40390 0.21723
 H1540 H 0.24684 0.46064 0.19510
 C1541 C 0.19970 -0.07221 0.71550
 C1542 C 0.21548 -0.06386 0.70798
 N1543 N 0.22234 -0.06977 0.69187
 C1544 C 0.21417 -0.08370 0.68292
 C1545 C 0.19839 -0.09222 0.69044
 N1546 N 0.19156 -0.08618 0.70661
 N1547 N 0.19285 -0.06627 0.73161
 C1548 C 0.20110 -0.05239 0.74060
 C1549 C 0.21702 -0.04406 0.73316
 N1550 N 0.22378 -0.05005 0.71695
 H1551 H 0.22009 -0.08808 0.67016
 H1552 H 0.19536 -0.04801 0.75346
 C1553 C 0.28058 0.30367 0.43624
 C1554 C 0.28815 0.28759 0.44317
 N1555 N 0.30347 0.28030 0.43520
 C1556 C 0.31156 0.28831 0.42053
 C1557 C 0.30395 0.30438 0.41344
 N1558 N 0.28861 0.31165 0.42158
 N1559 N 0.26520 0.31092 0.44413
 C1560 C 0.25693 0.30276 0.45861
 C1561 C 0.26435 0.28653 0.46551
 N1562 N 0.27988 0.27939 0.45760
 H1563 H 0.32370 0.28208 0.41448
 H1564 H 0.24461 0.30882 0.46454
 C1565 C 0.28964 0.79709 -0.06140
 C1566 C 0.29633 0.78009 -0.05610
 N1567 N 0.31055 0.77238 -0.06551
 C1568 C 0.31831 0.78084 -0.08010
 C1569 C 0.31148 0.79780 -0.08559
 N1570 N 0.29732 0.80549 -0.07597
 N1571 N 0.27531 0.80475 -0.05213
 C1572 C 0.26722 0.79610 -0.03785
 C1573 C 0.27370 0.77893 -0.03263
 N1574 N 0.28822 0.77141 -0.04190
 H1575 H 0.32953 0.77428 -0.08737
 H1576 H 0.25570 0.80247 -0.03082
 C1577 C 0.79069 0.29695 -0.06622
 C1578 C 0.79906 0.28048 -0.06138
 N1579 N 0.81351 0.27409 -0.07134
 C1580 C 0.82002 0.28337 -0.08595
 C1581 C 0.81168 0.29989 -0.09099
 N1582 N 0.79714 0.30627 -0.08089
 N1583 N 0.77613 0.30324 -0.05625
 C1584 C 0.76949 0.29375 -0.04177
 C1585 C 0.77773 0.27712 -0.03701
 N1586 N 0.79240 0.27097 -0.04699
 H1587 H 0.83150 0.27770 -0.09354
 H1588 H 0.75776 0.29905 -0.03419
 C1589 C 0.78008 0.80566 0.43483
 C1590 C 0.78877 0.79049 0.44252
 N1591 N 0.80481 0.78405 0.43522
 C1592 C 0.81257 0.79203 0.42041
 C1593 C 0.80382 0.80711 0.41245
 N1594 N 0.78777 0.81361 0.41997
 N1595 N 0.76389 0.81192 0.44212
 C1596 C 0.75591 0.80356 0.45668
 C1597 C 0.76449 0.78818 0.46421
 N1598 N 0.78079 0.78214 0.45691
 H1599 H 0.82533 0.78647 0.41492
 H1600 H 0.74290 0.80869 0.46209
 C1601 C 0.70302 0.28955 0.56554
 C1602 C 0.72005 0.29663 0.55941
 N1603 N 0.72797 0.31056 0.56848
 C1604 C 0.71968 0.31778 0.58342
 C1605 C 0.70260 0.31074 0.58974
 N1606 N 0.69471 0.29671 0.58053
 N1607 N 0.69515 0.27556 0.55645
 C1608 C 0.70360 0.26824 0.54160
 C1609 C 0.72081 0.27515 0.53553
 N1610 N 0.72855 0.28927 0.54465
 H1611 H 0.72651 0.32880 0.59031
 H1612 H 0.69703 0.25702 0.53474
 C1613 C 0.70841 0.79720 1.06291
 C1614 C 0.70011 0.78094 1.05755
 N1615 N 0.68536 0.77439 1.06701
 C1616 C 0.67853 0.78334 1.08167
 C1617 C 0.68691 0.79957 1.08724
 N1618 N 0.70168 0.80609 1.07762
 N1619 N 0.72321 0.80370 1.05348
 C1620 C 0.73022 0.79459 1.03898
 C1621 C 0.72210 0.77814 1.03372
 N1622 N 0.70716 0.77178 1.04316
 H1623 H 0.66683 0.77766 1.08895
 H1624 H 0.74215 0.80002 1.03182
 C1625 C 0.22391 0.30163 1.06573
 C1626 C 0.21607 0.28553 1.05925
 N1627 N 0.20140 0.27811 1.06812
 C1628 C 0.19432 0.28589 1.08332
 C1629 C 0.20228 0.30187 1.09011
 N1630 N 0.21684 0.30947 1.08097
 N1631 N 0.23876 0.30888 1.05694
 C1632 C 0.24627 0.30066 1.04211
 C1633 C 0.23863 0.28436 1.03576
 N1634 N 0.22357 0.27729 1.04449
 H1635 H 0.18255 0.27959 1.08995
 H1636 H 0.25822 0.30669 1.03549
 C1637 C 0.20027 0.78540 0.56252
 C1638 C 0.21624 0.79293 0.55452
 N1639 N 0.22332 0.80849 0.56131
 C1640 C 0.21520 0.81683 0.57578
 C1641 C 0.19929 0.80919 0.58394
 N1642 N 0.19224 0.79363 0.57700
 N1643 N 0.19314 0.76986 0.55585
 C1644 C 0.20134 0.76136 0.54160
 C1645 C 0.21755 0.76865 0.53365
 N1646 N 0.22457 0.78438 0.54032
 H1647 H 0.22127 0.82913 0.58091
 H1648 H 0.19535 0.74890 0.53669
 C1649 C 0.29668 0.70917 0.56364
 C1650 C 0.28007 0.70072 0.55815
 N1651 N 0.27376 0.68625 0.56755
 C1652 C 0.28321 0.67984 0.58226
 C1653 C 0.29979 0.68835 0.58803
 N1654 N 0.30613 0.70286 0.57846
 N1655 N 0.30294 0.72370 0.55421
 C1656 C 0.29325 0.73024 0.53965
 C1657 C 0.27642 0.72196 0.53427
 N1658 N 0.27032 0.70730 0.54370
 H1659 H 0.27758 0.66835 0.58941
 H1660 H 0.29853 0.74194 0.53252
 C1661 C 0.29340 0.20346 1.06324
 C1662 C 0.30266 0.21955 1.05882
 N1663 N 0.31711 0.22515 1.06934
 C1664 C 0.32266 0.21546 1.08413
 C1665 C 0.31324 0.19943 1.08874
 N1666 N 0.29884 0.19384 1.07806
 N1667 N 0.27886 0.19789 1.05285
 C1668 C 0.27299 0.20779 1.03835
 C1669 C 0.28199 0.22411 1.03404
 N1670 N 0.29675 0.22953 1.04439
 H1671 H 0.33413 0.22043 1.09227
 H1672 H 0.26121 0.20307 1.03045
 C1673 C 0.79211 0.70925 1.06338
 C1674 C 0.77512 0.70201 1.05729
 N1675 N 0.76772 0.68754 1.06594
 C1676 C 0.77650 0.67999 1.08050
 C1677 C 0.79345 0.68730 1.08681
 N1678 N 0.80084 0.70179 1.07799
 N1679 N 0.79946 0.72377 1.05476
 C1680 C 0.79051 0.73149 1.04037
 C1681 C 0.77335 0.72442 1.03437
 N1682 N 0.76613 0.70977 1.04301
 H1683 H 0.77010 0.66855 1.08714
 H1684 H 0.79663 0.74317 1.03386
 C1685 C 0.78747 0.20287 0.56162
 C1686 C 0.79603 0.21852 0.55489
 N1687 N 0.81185 0.22470 0.56279
 C1688 C 0.81949 0.21606 0.57729
 C1689 C 0.81084 0.20053 0.58439
 N1690 N 0.79502 0.19425 0.57624
 N1691 N 0.77155 0.19680 0.55365
 C1692 C 0.76374 0.20578 0.53934
 C1693 C 0.77217 0.22163 0.53280
 N1694 N 0.78818 0.22752 0.54076
 H1695 H 0.83211 0.22147 0.58319
 H1696 H 0.75093 0.20078 0.53337
 C1697 C 0.69770 0.71828 0.43331
 C1698 C 0.71585 0.71346 0.43882
 N1699 N 0.72546 0.70089 0.42935
 C1700 C 0.71774 0.69274 0.41466
 C1701 C 0.69947 0.69733 0.40911
 N1702 N 0.68991 0.71013 0.41857
 N1703 N 0.68819 0.73096 0.44285
 C1704 C 0.69605 0.73909 0.45758
 C1705 C 0.71427 0.73429 0.46305
 N1706 N 0.72367 0.72154 0.45346
 H1707 H 0.72593 0.68287 0.40738
 H1708 H 0.68819 0.74924 0.46486
 C1709 C 0.70783 0.20803 -0.06563
 C1710 C 0.72501 0.20071 -0.06007
 N1711 N 0.73226 0.18644 -0.06918
 C1712 C 0.72316 0.17921 -0.08370
 C1713 C 0.70605 0.18667 -0.08949
 N1714 N 0.69881 0.20091 -0.08019
 N1715 N 0.70057 0.22232 -0.05656
 C1716 C 0.70980 0.22974 -0.04224
 C1717 C 0.72718 0.22264 -0.03678
 N1718 N 0.73431 0.20819 -0.04585
 H1719 H 0.72939 0.16791 -0.09071
 H1720 H 0.70372 0.24122 -0.03537
 C1721 C 0.20043 0.71448 -0.06389
 C1722 C 0.21715 0.70691 -0.05738
 N1723 N 0.22462 0.69243 -0.06585
 C1724 C 0.21617 0.68508 -0.08060
 C1725 C 0.19938 0.69255 -0.08733
 N1726 N 0.19192 0.70717 -0.07873
 N1727 N 0.19310 0.72908 -0.05533
 C1728 C 0.20181 0.73648 -0.04063
 C1729 C 0.21867 0.72896 -0.03421
 N1730 N 0.22584 0.71430 -0.04281
 H1731 H 0.22272 0.67362 -0.08699
 H1732 H 0.19574 0.74819 -0.03416
 C1733 C 0.19717 0.21423 0.43931
 C1734 C 0.21382 0.20791 0.44716
 N1735 N 0.22228 0.19305 0.44024
 C1736 C 0.21492 0.18430 0.42566
 C1737 C 0.19842 0.19082 0.41754
 N1738 N 0.18992 0.20560 0.42471
 N1739 N 0.18877 0.22917 0.44611
 C1740 C 0.19642 0.23824 0.46032
 C1741 C 0.21331 0.23216 0.46800
 N1742 N 0.22153 0.21703 0.46124
 H1743 H 0.22207 0.17259 0.42037
 H1744 H 0.18954 0.25025 0.46533
 C1745 C 0.29704 0.43501 0.71039
 C1746 C 0.28025 0.44061 0.70221
 N1747 N 0.27350 0.43151 0.68765
 C1748 C 0.28275 0.41703 0.68088
 C1749 C 0.29956 0.41127 0.68907
 N1750 N 0.30629 0.42049 0.70367
 N1751 N 0.30374 0.44407 0.72501
 C1752 C 0.29432 0.45843 0.73191
 C1753 C 0.27737 0.46397 0.72385
 N1754 N 0.27080 0.45488 0.70912
 H1755 H 0.27686 0.41009 0.66931
 H1756 H 0.29993 0.46532 0.74367
 C1757 C 0.28550 0.93169 0.20357
 C1758 C 0.29387 0.93911 0.21912
 N1759 N 0.31022 0.93210 0.22536
 C1760 C 0.31857 0.91798 0.21679
 C1761 C 0.31012 0.91041 0.20128
 N1762 N 0.29375 0.91756 0.19508
 N1763 N 0.26919 0.93863 0.19726
 C1764 C 0.26076 0.95264 0.20585
 C1765 C 0.26894 0.96005 0.22158
 N1766 N 0.28540 0.95306 0.22781
 H1767 H 0.33154 0.91269 0.22216
 H1768 H 0.24770 0.95782 0.20050
 C1769 C 0.80749 0.43324 0.21704
 C1770 C 0.79209 0.44174 0.20888
 N1771 N 0.78568 0.43588 0.19257
 C1772 C 0.79384 0.42169 0.18407
 C1773 C 0.80901 0.41279 0.19237
 N1774 N 0.81554 0.41891 0.20866
 N1775 N 0.81381 0.43915 0.23342
 C1776 C 0.80523 0.45307 0.24212
 C1777 C 0.78948 0.46129 0.23414
 N1778 N 0.78344 0.45543 0.21762
 H1779 H 0.78823 0.41727 0.17117
 H1780 H 0.81040 0.45739 0.25525
 C1781 C 0.80215 0.93767 0.70833
 C1782 C 0.78542 0.94434 0.70088
 N1783 N 0.77764 0.93584 0.68638
 C1784 C 0.78578 0.92094 0.67907
 C1785 C 0.80246 0.91412 0.68665
 N1786 N 0.81020 0.92278 0.70111
 N1787 N 0.80992 0.94598 0.72287
 C1788 C 0.80162 0.96058 0.73050
 C1789 C 0.78465 0.96717 0.72334
 N1790 N 0.77700 0.95890 0.70856
 H1791 H 0.77914 0.91443 0.66762
 H1792 H 0.80811 0.96679 0.74222
 C1793 C 0.70789 0.56804 0.70999
 C1794 C 0.72480 0.56276 0.70193
 N1795 N 0.73134 0.57212 0.68740
 C1796 C 0.72182 0.58656 0.68060
 C1797 C 0.70493 0.59202 0.68874
 N1798 N 0.69841 0.58250 0.70327
 N1799 N 0.70132 0.55875 0.72453
 C1800 C 0.71094 0.54449 0.73151
 C1801 C 0.72805 0.53922 0.72366
 N1802 N 0.73451 0.54853 0.70894
 H1803 H 0.72752 0.59371 0.66906
 H1804 H 0.70534 0.53746 0.74320
 C1805 C 0.71027 0.06906 0.19965
 C1806 C 0.70233 0.06295 0.21600
 N1807 N 0.68757 0.07194 0.22315
 C1808 C 0.68041 0.08680 0.21476
 C1809 C 0.68842 0.09308 0.19842
 N1810 N 0.70319 0.08393 0.19128
 N1811 N 0.72507 0.06013 0.19251
 C1812 C 0.73243 0.04547 0.20104
 C1813 C 0.72469 0.03941 0.21758
 N1814 N 0.70971 0.04833 0.22461
 H1815 H 0.66870 0.09363 0.22095
 H1816 H 0.74433 0.03873 0.19505
 C1817 C 0.19901 0.56502 0.20923
 C1818 C 0.21578 0.55903 0.20142
 N1819 N 0.22306 0.56811 0.18704
 C1820 C 0.21445 0.58305 0.18024
 C1821 C 0.19787 0.58936 0.18832
 N1822 N 0.19053 0.58003 0.20258
 N1823 N 0.19174 0.55600 0.22363
 C1824 C 0.20061 0.54139 0.23079
 C1825 C 0.21771 0.53563 0.22335
 N1826 N 0.22480 0.54458 0.20870
 H1827 H 0.22072 0.59003 0.16887
 H1828 H 0.19457 0.53464 0.24244
 C1829 C 0.19829 0.06152 0.71620
 C1830 C 0.21469 0.05400 0.70910
 N1831 N 0.22261 0.06133 0.69406
 C1832 C 0.21497 0.07604 0.68585
 C1833 C 0.19868 0.08384 0.69307
 N1834 N 0.19068 0.07624 0.70806
 N1835 N 0.19053 0.05426 0.73140
 C1836 C 0.19858 0.03990 0.73994
 C1837 C 0.21522 0.03254 0.73300
 N1838 N 0.22275 0.03978 0.71765
 H1839 H 0.22170 0.08162 0.67396
 H1840 H 0.19225 0.03452 0.75215
 C1841 C 0.28466 0.56558 0.29606
 C1842 C 0.29328 0.55911 0.28024
 N1843 N 0.30886 0.56732 0.27391
 C1844 C 0.31618 0.58186 0.28254
 C1845 C 0.30749 0.58869 0.29827
 N1846 N 0.29190 0.58023 0.30470
 N1847 N 0.26905 0.55725 0.30234
 C1848 C 0.26157 0.54288 0.29341
 C1849 C 0.26999 0.53658 0.27732
 N1850 N 0.28575 0.54489 0.27125
 H1851 H 0.32863 0.58797 0.27703
 H1852 H 0.24906 0.53661 0.29868
 C1853 C 0.28471 0.06378 0.80161
 C1854 C 0.29248 0.05647 0.78573
 N1855 N 0.30797 0.06408 0.77844
 C1856 C 0.31606 0.07870 0.78628
 C1857 C 0.30823 0.08619 0.80212
 N1858 N 0.29269 0.07846 0.80937
 N1859 N 0.26924 0.05617 0.80893
 C1860 C 0.26109 0.04161 0.80104
 C1861 C 0.26868 0.03435 0.78498
 N1862 N 0.28427 0.04201 0.77775
 H1863 H 0.32834 0.08446 0.78005
 H1864 H 0.24867 0.03592 0.80714
 C1865 C 0.80386 0.56902 0.78563
 C1866 C 0.78687 0.56263 0.79261
 N1867 N 0.77858 0.57154 0.80652
 C1868 C 0.78640 0.58663 0.81370
 C1869 C 0.80332 0.59328 0.80658
 N1870 N 0.81166 0.58415 0.79272
 N1871 N 0.81212 0.56016 0.77167
 C1872 C 0.80403 0.54535 0.76417
 C1873 C 0.78676 0.53912 0.77084
 N1874 N 0.77868 0.54791 0.78506
 H1875 H 0.77935 0.59334 0.82476
 H1876 H 0.81091 0.53870 0.75292
 C1877 C 0.78577 0.06473 0.29660
 C1878 C 0.79383 0.05925 0.28009
 N1879 N 0.80882 0.06823 0.27349
 C1880 C 0.81609 0.08250 0.28258
 C1881 C 0.80793 0.08823 0.29904
 N1882 N 0.79293 0.07908 0.30565
 N1883 N 0.77071 0.05579 0.30315
 C1884 C 0.76321 0.04175 0.29384
 C1885 C 0.77103 0.03643 0.27711
 N1886 N 0.78627 0.04531 0.27070
 H1887 H 0.82795 0.08936 0.27677
 H1888 H 0.75107 0.03502 0.29934
 C1889 C 0.71566 0.43009 0.30153
 C1890 C 0.70894 0.43706 0.28498
 N1891 N 0.69383 0.42943 0.27698
 C1892 C 0.68521 0.41500 0.28466
 C1893 C 0.69208 0.40776 0.30112
 N1894 N 0.70713 0.41564 0.30919
 N1895 N 0.73080 0.43771 0.30952
 C1896 C 0.73965 0.45192 0.30164
 C1897 C 0.73314 0.45879 0.28490
 N1898 N 0.71784 0.45116 0.27704
 H1899 H 0.67328 0.40920 0.27782
 H1900 H 0.75171 0.45768 0.30833
 C1901 C 0.70557 0.93856 0.78370
 C1902 C 0.72223 0.94428 0.79197
 N1903 N 0.72867 0.93559 0.80695
 C1904 C 0.71929 0.92136 0.81406
 C1905 C 0.70261 0.91541 0.80580
 N1906 N 0.69615 0.92426 0.79075
 N1907 N 0.69922 0.94729 0.76864
 C1908 C 0.70882 0.96142 0.76145
 C1909 C 0.72562 0.96707 0.76965
 N1910 N 0.73184 0.95831 0.78478
 H1911 H 0.72499 0.91481 0.82598
 H1912 H 0.70348 0.96804 0.74936
 C1913 C 0.20126 0.43626 0.78711
 C1914 C 0.21777 0.44338 0.79447
 N1915 N 0.22530 0.43581 0.80964
 C1916 C 0.21714 0.42133 0.81772
 C1917 C 0.20072 0.41401 0.81022
 N1918 N 0.19317 0.42178 0.79510
 N1919 N 0.19375 0.44370 0.77189
 C1920 C 0.20211 0.45788 0.76355
 C1921 C 0.21883 0.46491 0.77069
 N1922 N 0.22621 0.45750 0.78610
 H1923 H 0.22355 0.41558 0.82974
 H1924 H 0.19588 0.46342 0.75131
 C1925 C 0.20608 0.93207 0.29762
 C1926 C 0.19705 0.93853 0.28190
 N1927 N 0.18132 0.93023 0.27595
 C1928 C 0.17423 0.91575 0.28495
 C1929 C 0.18337 0.90909 0.30060
 N1930 N 0.19912 0.91751 0.30652
 N1931 N 0.22176 0.94036 0.30363
 C1932 C 0.22898 0.95470 0.29455
 C1933 C 0.22022 0.96103 0.27856
 N1934 N 0.20435 0.95276 0.27267
 H1935 H 0.16176 0.90941 0.27972
 H1936 H 0.24161 0.96090 0.29965
 C1937 C 0.43460 0.29056 0.70164
 C1938 C 0.44155 0.29756 0.71802
 N1939 N 0.43346 0.31247 0.72528
 C1940 C 0.41867 0.32064 0.71694
 C1941 C 0.41158 0.31352 0.70059
 N1942 N 0.41986 0.29865 0.69338
 N1943 N 0.44249 0.27561 0.69437
 C1944 C 0.45696 0.26717 0.70283
 C1945 C 0.46388 0.27395 0.71939
 N1946 N 0.45601 0.28911 0.72655
 H1947 H 0.41247 0.33243 0.72311
 H1948 H 0.46286 0.25518 0.69674
 C1949 C 0.43311 0.78189 0.19980
 C1950 C 0.44078 0.78949 0.21558
 N1951 N 0.43366 0.80508 0.22219
 C1952 C 0.41918 0.81350 0.21375
 C1953 C 0.41132 0.80600 0.19790
 N1954 N 0.41854 0.79027 0.19132
 N1955 N 0.44036 0.76624 0.19327
 C1956 C 0.45491 0.75786 0.20186
 C1957 C 0.46255 0.76548 0.21774
 N1958 N 0.45519 0.78115 0.22413
 H1959 H 0.41387 0.82586 0.21953
 H1960 H 0.46035 0.74538 0.19641
 C1961 C 0.93324 0.28647 0.20344
 C1962 C 0.93931 0.29352 0.22016
 N1963 N 0.93036 0.30796 0.22735
 C1964 C 0.91556 0.31564 0.21864
 C1965 C 0.90930 0.30850 0.20194
 N1966 N 0.91842 0.29407 0.19476
 N1967 N 0.94208 0.27199 0.19627
 C1968 C 0.95666 0.26412 0.20509
 C1969 C 0.96276 0.27102 0.22193
 N1970 N 0.95390 0.28565 0.22903
 H1971 H 0.90876 0.32708 0.22484
 H1972 H 0.96334 0.25250 0.19904
 C1973 C 0.93415 0.79157 0.70234
 C1974 C 0.94002 0.79877 0.71903
 N1975 N 0.93114 0.81341 0.72591
 C1976 C 0.91659 0.82119 0.71688
 C1977 C 0.91053 0.81394 0.70021
 N1978 N 0.91956 0.79926 0.69336
 N1979 N 0.94302 0.77690 0.69549
 C1980 C 0.95745 0.76901 0.70463
 C1981 C 0.96325 0.77607 0.72147
 N1982 N 0.95434 0.79086 0.72821
 H1983 H 0.90977 0.83276 0.72283
 H1984 H 0.96418 0.75727 0.69888
 C1985 C 0.56147 0.28548 0.30087
 C1986 C 0.55378 0.29231 0.28470
 N1987 N 0.56108 0.30741 0.27706
 C1988 C 0.57591 0.31589 0.28478
 C1989 C 0.58381 0.30893 0.30088
 N1990 N 0.57625 0.29393 0.30857
 N1991 N 0.55435 0.27024 0.30836
 C1992 C 0.53991 0.26140 0.30031
 C1993 C 0.53231 0.26809 0.28397
 N1994 N 0.53944 0.28348 0.27664
 H1995 H 0.58152 0.32780 0.27829
 H1996 H 0.53460 0.24922 0.30652
 C1997 C 0.56957 0.79250 0.79655
 C1998 C 0.56171 0.80074 0.78113
 N1999 N 0.56897 0.81641 0.77480
 C2000 C 0.58385 0.82423 0.78313
 C2001 C 0.59196 0.81597 0.79851
 N2002 N 0.58449 0.80027 0.80486
 N2003 N 0.56233 0.77674 0.80277
 C2004 C 0.54763 0.76877 0.79418
 C2005 C 0.53983 0.77692 0.77860
 N2006 N 0.54711 0.79278 0.77255
 H2007 H 0.58927 0.83670 0.77768
 H2008 H 0.54226 0.75614 0.79934
 C2009 C 0.07167 0.28920 0.79995
 C2010 C 0.06442 0.29626 0.78366
 N2011 N 0.07194 0.31151 0.77654
 C2012 C 0.08644 0.31997 0.78494
 C2013 C 0.09382 0.31282 0.80121
 N2014 N 0.08613 0.29759 0.80828
 N2015 N 0.06430 0.27395 0.80710
 C2016 C 0.05004 0.26531 0.79863
 C2017 C 0.04280 0.27220 0.78219
 N2018 N 0.05017 0.28762 0.77513
 H2019 H 0.09216 0.33203 0.77887
 H2020 H 0.04452 0.25311 0.80465
 C2021 C 0.06253 0.78145 0.30110
 C2022 C 0.05467 0.78927 0.28543
 N2023 N 0.06191 0.80480 0.27875
 C2024 C 0.07665 0.81290 0.28703
 C2025 C 0.08465 0.80508 0.30272
 N2026 N 0.07732 0.78947 0.30934
 N2027 N 0.05530 0.76591 0.30779
 C2028 C 0.04061 0.75777 0.29944
 C2029 C 0.03280 0.76545 0.28361
 N2030 N 0.04007 0.78111 0.27703
 H2031 H 0.08210 0.82522 0.28126
 H2032 H 0.03522 0.74532 0.30505
 C2033 C 0.56934 0.71244 0.70506
 C2034 C 0.56164 0.70471 0.72074
 N2035 N 0.56894 0.68910 0.72742
 C2036 C 0.58366 0.68087 0.71913
 C2037 C 0.59144 0.68863 0.70341
 N2038 N 0.58397 0.70425 0.69681
 N2039 N 0.56220 0.72810 0.69841
 C2040 C 0.54770 0.73650 0.70682
 C2041 C 0.53997 0.72888 0.72263
 N2042 N 0.54717 0.71308 0.72915
 H2043 H 0.58920 0.66848 0.72477
 H2044 H 0.54236 0.74903 0.70128
 C2045 C 0.56350 0.19906 0.21534
 C2046 C 0.55642 0.21535 0.20843
 N2047 N 0.56459 0.22304 0.19370
 C2048 C 0.57958 0.21521 0.18558
 C2049 C 0.58685 0.19895 0.19256
 N2050 N 0.57852 0.19128 0.20730
 N2051 N 0.55538 0.19137 0.23009
 C2052 C 0.54057 0.19933 0.23838
 C2053 C 0.53359 0.21582 0.23167
 N2054 N 0.54170 0.22338 0.21676
 H2055 H 0.58578 0.22175 0.17391
 H2056 H 0.53449 0.19294 0.25021
 C2057 C 0.06159 0.70427 0.20757
 C2058 C 0.05664 0.69702 0.22454
 N2059 N 0.06688 0.68326 0.23165
 C2060 C 0.08194 0.67652 0.22262
 C2061 C 0.08709 0.68393 0.20570
 N2062 N 0.07664 0.69761 0.19860
 N2063 N 0.05154 0.71812 0.20048
 C2064 C 0.03684 0.72523 0.20968
 C2065 C 0.03195 0.71822 0.22685
 N2066 N 0.04197 0.70415 0.23381
 H2067 H 0.08985 0.66565 0.22874
 H2068 H 0.02920 0.73638 0.20371
 C2069 C 0.07182 0.20907 0.70639
 C2070 C 0.06570 0.20126 0.72274
 N2071 N 0.07439 0.18632 0.72926
 C2072 C 0.08898 0.17883 0.72021
 C2073 C 0.09529 0.18667 0.70386
 N2074 N 0.08646 0.20165 0.69737
 N2075 N 0.06314 0.22404 0.69991
 C2076 C 0.04867 0.23164 0.70910
 C2077 C 0.04263 0.22396 0.72561
 N2078 N 0.05133 0.20887 0.73197
 H2079 H 0.09561 0.16699 0.72589
 H2080 H 0.04211 0.24365 0.70364
 C2081 C 0.43459 0.69616 0.28547
 C2082 C 0.43953 0.71343 0.29154
 N2083 N 0.42913 0.72158 0.30454
 C2084 C 0.41388 0.71332 0.31166
 C2085 C 0.40867 0.69610 0.30544
 N2086 N 0.41930 0.68791 0.29252
 N2087 N 0.44489 0.68810 0.27233
 C2088 C 0.45980 0.69662 0.26481
 C2089 C 0.46460 0.71407 0.27064
 N2090 N 0.45434 0.72199 0.28399
 H2091 H 0.40590 0.72027 0.32195
 H2092 H 0.46763 0.68992 0.25420
 C2093 C 0.43303 0.21122 0.79509
 C2094 C 0.43989 0.20284 0.77935
 N2095 N 0.43193 0.18737 0.77343
 C2096 C 0.41741 0.17982 0.78253
 C2097 C 0.41040 0.18813 0.79834
 N2098 N 0.41845 0.20372 0.80420
 N2099 N 0.44106 0.22671 0.80097
 C2100 C 0.45560 0.23424 0.79179
 C2101 C 0.46244 0.22593 0.77593
 N2102 N 0.45434 0.21037 0.77015
 H2103 H 0.41141 0.16753 0.77730
 H2104 H 0.46166 0.24664 0.79676
 C2105 C 0.93435 0.70158 0.78603
 C2106 C 0.94074 0.71711 0.79496
 N2107 N 0.93258 0.72228 0.81073
 C2108 C 0.91835 0.71263 0.81805
 C2109 C 0.91180 0.69705 0.80917
 N2110 N 0.92000 0.69195 0.79326
 N2111 N 0.94257 0.69644 0.77024
 C2112 C 0.95685 0.70614 0.76297
 C2113 C 0.96321 0.72179 0.77184
 N2114 N 0.95491 0.72685 0.78767
 H2115 H 0.91210 0.71731 0.83055
 H2116 H 0.96303 0.70177 0.75030
 C2117 C 0.93336 0.21191 0.29888
 C2118 C 0.93800 0.20568 0.28141
 N2119 N 0.92722 0.19302 0.27336
 C2120 C 0.91207 0.18616 0.28199
 C2121 C 0.90738 0.19222 0.29958
 N2122 N 0.91818 0.20506 0.30758
 N2123 N 0.94409 0.22474 0.30682
 C2124 C 0.95914 0.23173 0.29802
 C2125 C 0.96373 0.22562 0.28044
 N2126 N 0.95300 0.21266 0.27261
 H2127 H 0.90373 0.17621 0.27500
 H2128 H 0.96731 0.24209 0.30465
 C2129 C 0.28557 0.30457 0.57033
 C2130 C 0.29260 0.28836 0.56335
 N2131 N 0.30831 0.28102 0.57069
 C2132 C 0.31726 0.28912 0.58482
 C2133 C 0.31010 0.30527 0.59199
 N2134 N 0.29443 0.31258 0.58443
 N2135 N 0.26980 0.31187 0.56314
 C2136 C 0.26058 0.30359 0.54933
 C2137 C 0.26741 0.28720 0.54245
 N2138 N 0.28337 0.28003 0.54961
 H2139 H 0.32967 0.28291 0.59046
 H2140 H 0.24795 0.30964 0.54395
 C2141 C 0.29773 0.78731 0.07333
 C2142 C 0.28092 0.79497 0.06718
 N2143 N 0.27395 0.80973 0.07563
 C2144 C 0.28299 0.81722 0.09000
 C2145 C 0.29983 0.80958 0.09636
 N2146 N 0.30678 0.79474 0.08777
 N2147 N 0.30464 0.77249 0.06485
 C2148 C 0.29542 0.76492 0.05056
 C2149 C 0.27845 0.77249 0.04448
 N2150 N 0.27169 0.78740 0.05300
 H2151 H 0.27693 0.82895 0.09639
 H2152 H 0.30121 0.75306 0.04413
 C2153 C 0.80465 0.28460 0.06963
 C2154 C 0.78760 0.29155 0.06325
 N2155 N 0.77975 0.30590 0.07164
 C2156 C 0.78818 0.31373 0.08616
 C2157 C 0.80530 0.30688 0.09273
 N2158 N 0.81311 0.29237 0.08425
 N2159 N 0.81239 0.27016 0.06114
 C2160 C 0.80377 0.26231 0.04663
 C2161 C 0.78656 0.26918 0.04036
 N2162 N 0.77898 0.28369 0.04889
 H2163 H 0.78136 0.32507 0.09254
 H2164 H 0.81017 0.25073 0.04022
 C2165 C 0.78451 0.80299 0.56974
 C2166 C 0.79215 0.78709 0.56261
 N2167 N 0.80806 0.78021 0.56999
 C2168 C 0.81664 0.78848 0.58425
 C2169 C 0.80892 0.80437 0.59150
 N2170 N 0.79303 0.81120 0.58395
 N2171 N 0.76855 0.80985 0.56253
 C2172 C 0.75976 0.80146 0.54853
 C2173 C 0.76725 0.78543 0.54138
 N2174 N 0.78337 0.77866 0.54861
 H2175 H 0.82926 0.78264 0.58985
 H2176 H 0.74699 0.80723 0.54313
 C2177 C 0.28191 0.69564 0.42644
 C2178 C 0.28811 0.71302 0.43094
 N2179 N 0.30054 0.72147 0.42003
 C2180 C 0.30697 0.71346 0.40469
 C2181 C 0.30061 0.69615 0.39986
 N2182 N 0.28828 0.68759 0.41103
 N2183 N 0.26937 0.68728 0.43740
 C2184 C 0.26253 0.69563 0.45246
 C2185 C 0.26839 0.71324 0.45673
 N2186 N 0.28120 0.72141 0.44587
 H2187 H 0.31695 0.72067 0.39645
 H2188 H 0.25238 0.68870 0.46081
 C2189 C 0.30392 0.21401 0.92676
 C2190 C 0.28635 0.20841 0.93302
 N2191 N 0.27742 0.19476 0.92437
 C2192 C 0.28524 0.18644 0.90976
 C2193 C 0.30284 0.19205 0.90337
 N2194 N 0.31171 0.20577 0.91212
 N2195 N 0.31289 0.22763 0.93538
 C2196 C 0.30506 0.23599 0.94995
 C2197 C 0.28736 0.23055 0.95622
 N2198 N 0.27845 0.21681 0.94753
 H2199 H 0.27766 0.17569 0.90318
 H2200 H 0.31253 0.24689 0.95644
 C2201 C 0.78377 0.69854 0.93001
 C2202 C 0.79351 0.71246 0.93873
 N2203 N 0.81105 0.71666 0.93328
 C2204 C 0.81929 0.70765 0.91937
 C2205 C 0.80946 0.69394 0.91028
 N2206 N 0.79188 0.68971 0.91592
 N2207 N 0.76629 0.69423 0.93566
 C2208 C 0.75803 0.70336 0.94953
 C2209 C 0.76760 0.71762 0.95797
 N2210 N 0.78518 0.72174 0.95235
 H2211 H 0.83323 0.71146 0.91532
 H2212 H 0.74404 0.69974 0.95365
 C2213 C 0.79618 0.21373 0.42665
 C2214 C 0.77925 0.20654 0.43289
 N2215 N 0.77192 0.19189 0.42452
 C2216 C 0.78071 0.18408 0.41017
 C2217 C 0.79768 0.19124 0.40374
 N2218 N 0.80498 0.20598 0.41224
 N2219 N 0.80347 0.22841 0.43506
 C2220 C 0.79457 0.23625 0.44937
 C2221 C 0.77751 0.22915 0.45561
 N2222 N 0.77031 0.21439 0.44713
 H2223 H 0.77436 0.17247 0.40384
 H2224 H 0.80070 0.24800 0.45571
 C2225 C 0.71051 0.30162 0.42893
 C2226 C 0.70211 0.28585 0.43552
 N2227 N 0.68640 0.27955 0.42748
 C2228 C 0.67862 0.28829 0.41309
 C2229 C 0.68696 0.30413 0.40630
 N2230 N 0.70280 0.31039 0.41446
 N2231 N 0.72632 0.30781 0.43704
 C2232 C 0.73414 0.29885 0.45137
 C2233 C 0.72581 0.28291 0.45782
 N2234 N 0.70994 0.27688 0.44969
 H2235 H 0.66614 0.28275 0.40705
 H2236 H 0.74684 0.30397 0.45746
 C2237 C 0.69693 0.78834 0.92811
 C2238 C 0.71408 0.79479 0.93466
 N2239 N 0.72217 0.80921 0.92663
 C2240 C 0.71396 0.81753 0.91223
 C2241 C 0.69681 0.81111 0.90542
 N2242 N 0.68867 0.79660 0.91362
 N2243 N 0.68900 0.77376 0.93621
 C2244 C 0.69756 0.76529 0.95046
 C2245 C 0.71489 0.77165 0.95684
 N2246 N 0.72261 0.78632 0.94874
 H2247 H 0.72102 0.82887 0.90614
 H2248 H 0.69103 0.75361 0.95656
 C2249 C 0.22080 0.30478 0.93041
 C2250 C 0.21243 0.28950 0.93808
 N2251 N 0.19597 0.28340 0.93136
 C2252 C 0.18748 0.29183 0.91715
 C2253 C 0.19589 0.30704 0.90922
 N2254 N 0.21236 0.31319 0.91617
 N2255 N 0.23740 0.31071 0.93712
 C2256 C 0.24608 0.30191 0.95108
 C2257 C 0.23778 0.28645 0.95861
 N2258 N 0.22109 0.28074 0.95190
 H2259 H 0.17439 0.28658 0.91211
 H2260 H 0.25937 0.30679 0.95606
 C2261 C 0.19713 0.78143 0.42669
 C2262 C 0.21379 0.78873 0.43346
 N2263 N 0.22115 0.80361 0.42550
 C2264 C 0.21264 0.81156 0.41098
 C2265 C 0.19594 0.80432 0.40402
 N2266 N 0.18859 0.78937 0.41215
 N2267 N 0.18990 0.76644 0.43466
 C2268 C 0.19864 0.75836 0.44905
 C2269 C 0.21543 0.76560 0.45580
 N2270 N 0.22250 0.78068 0.44776
 H2271 H 0.21898 0.82336 0.40497
 H2272 H 0.19262 0.74638 0.45503
 C2273 C 0.70772 0.70637 0.56895
 C2274 C 0.69872 0.72249 0.56401
 N2275 N 0.68372 0.72818 0.57365
 C2276 C 0.67732 0.71853 0.58807
 C2277 C 0.68641 0.70243 0.59322
 N2278 N 0.70142 0.69675 0.58341
 N2279 N 0.72280 0.70073 0.55936
 C2280 C 0.72940 0.71058 0.54516
 C2281 C 0.72059 0.72691 0.54034
 N2282 N 0.70535 0.73240 0.54990
 H2283 H 0.66540 0.72358 0.59547
 H2284 H 0.74156 0.70580 0.53787
 C2285 C 0.71846 0.19806 0.06927
 C2286 C 0.71013 0.21362 0.06201
 N2287 N 0.69419 0.22010 0.06938
 C2288 C 0.68615 0.21183 0.08383
 C2289 C 0.69445 0.19629 0.09147
 N2290 N 0.71049 0.18972 0.08387
 N2291 N 0.73452 0.19173 0.06171
 C2292 C 0.74262 0.20037 0.04733
 C2293 C 0.73434 0.21614 0.04026
 N2294 N 0.71823 0.22225 0.04784
 H2295 H 0.67345 0.21755 0.08921
 H2296 H 0.75548 0.19514 0.04169
 C2297 C 0.20826 0.70256 0.07181
 C2298 C 0.20011 0.71866 0.06562
 N2299 N 0.18466 0.72517 0.07408
 C2300 C 0.17706 0.71636 0.08855
 C2301 C 0.18542 0.70038 0.09499
 N2302 N 0.20081 0.69388 0.08633
 N2303 N 0.22370 0.69602 0.06342
 C2304 C 0.23152 0.70495 0.04920
 C2305 C 0.22366 0.72131 0.04316
 N2306 N 0.20802 0.72772 0.05152
 H2307 H 0.16486 0.72198 0.09508
 H2308 H 0.24395 0.69947 0.04292
 C2309 C 0.19844 0.21666 0.57445
 C2310 C 0.21512 0.21029 0.56676
 N2311 N 0.22351 0.19545 0.57387
 C2312 C 0.21605 0.18669 0.58839
 C2313 C 0.19939 0.19309 0.59629
 N2314 N 0.19099 0.20796 0.58900
 N2315 N 0.19010 0.23156 0.56736
 C2316 C 0.19773 0.24044 0.55297
 C2317 C 0.21453 0.23417 0.54531
 N2318 N 0.22277 0.21916 0.55244
 H2319 H 0.22318 0.17495 0.59370
 H2320 H 0.19082 0.25234 0.54769
   
