data_POSCAR
  _audit_creation_date              2014-09-24
  _audit_creation_method            'ToBaCCo'
  _symmetry_space_group_name_H-M    'P1'
  _symmetry_Int_Tables_number       1
  _symmetry_cell_setting            triclinic
  loop_
  _symmetry_equiv_pos_as_xyz
 x,y,z
_cell_length_a 79.7917
_cell_length_b 79.6970
_cell_length_c 79.7285
_cell_angle_alpha 90.065600
_cell_angle_beta 90.044700
_cell_angle_gamma 89.971200
loop_
  _atom_site_label
  _atom_site_type_symbol
  _atom_site_fract_x
  _atom_site_fract_y
  _atom_site_fract_z
C1 C 0.30913 0.44217 0.92007
 C2 C 0.32366 0.44919 0.92702
 C3 C 0.33087 0.44209 0.94141
 C4 C 0.32347 0.42799 0.94886
 C5 C 0.30894 0.42098 0.94191
 C6 C 0.30176 0.42808 0.92754
 H7 H 0.32950 0.45993 0.92105
 H8 H 0.32917 0.42228 0.95982
 H9 H 0.29068 0.42247 0.92199
 C10 C 0.44258 0.83053 0.44177
 C11 C 0.44963 0.82341 0.42731
 C12 C 0.44254 0.80898 0.42021
 C13 C 0.42842 0.80162 0.42760
 C14 C 0.42135 0.80871 0.44204
 C15 C 0.42844 0.82315 0.44914
 H16 H 0.46040 0.82924 0.42141
 H17 H 0.42275 0.79062 0.42193
 H18 H 0.42276 0.82878 0.46015
 C19 C 0.94249 0.92106 0.80890
 C20 C 0.94956 0.92813 0.82337
 C21 C 0.94246 0.94258 0.83050
 C22 C 0.92833 0.94996 0.82309
 C23 C 0.92127 0.94289 0.80862
 C24 C 0.92837 0.92846 0.80153
 H25 H 0.96032 0.92221 0.82922
 H26 H 0.92262 0.96096 0.82873
 H27 H 0.92273 0.92281 0.79051
 C28 C 0.44013 -0.08089 0.30919
 C29 C 0.44741 -0.07384 0.32356
 C30 C 0.44034 -0.05952 0.33091
 C31 C 0.42600 -0.05222 0.32386
 C32 C 0.41871 -0.05926 0.30949
 C33 C 0.42579 -0.07358 0.30215
 H34 H 0.45836 -0.07965 0.32917
 H35 H 0.42037 -0.04129 0.32970
 H36 H 0.42000 -0.07918 0.29118
 C37 C 0.80791 0.30760 0.32861
 C38 C 0.82236 0.30049 0.32160
 C39 C 0.82982 0.30784 0.30751
 C40 C 0.82278 0.32229 0.30040
 C41 C 0.80833 0.32942 0.30739
 C42 C 0.80088 0.32205 0.32148
 H43 H 0.82797 0.28949 0.32730
 H44 H 0.82872 0.32816 0.28967
 H45 H 0.78988 0.32774 0.32709
 C46 C -0.19292 0.82851 0.80697
 C47 C -0.17838 0.82144 0.80008
 C48 C -0.17114 0.80721 0.80744
 C49 C -0.17849 0.80000 0.82167
 C50 C -0.19304 0.80704 0.82859
 C51 C -0.20026 0.82127 0.82121
 H52 H -0.17248 0.82717 0.78925
 H53 H -0.17268 0.78917 0.82752
 H54 H -0.21135 0.82692 0.82674
 C55 C 0.94216 0.32976 0.44193
 C56 C 0.92813 0.32218 0.44927
 C57 C 0.92117 0.30773 0.44208
 C58 C 0.92828 0.30082 0.42757
 C59 C 0.94231 0.30838 0.42022
 C60 C 0.94927 0.32283 0.42742
 H61 H 0.92244 0.32772 0.46032
 H62 H 0.92271 0.28980 0.42183
 H63 H 0.95995 0.32885 0.42157
 C64 C 0.44028 0.43961 0.83167
 C65 C 0.42591 0.44684 0.82455
 C66 C 0.41863 0.43967 0.81024
 C67 C 0.42573 0.42530 0.80302
 C68 C 0.44008 0.41807 0.81011
 C69 C 0.44737 0.42523 0.82442
 H70 H 0.42025 0.45783 0.83026
 H71 H 0.41996 0.41962 0.79209
 H72 H 0.45834 0.41946 0.83003
 C73 C 0.80662 0.92269 0.94402
 C74 C 0.82117 0.92972 0.95093
 C75 C 0.82841 0.94392 0.94357
 C76 C 0.82106 0.95114 0.92933
 C77 C 0.80652 0.94412 0.92242
 C78 C 0.79928 0.92992 0.92979
 H79 H 0.82704 0.92392 0.96174
 H80 H 0.82686 0.96193 0.92343
 H81 H 0.78823 0.92427 0.92423
 C82 C 0.30848 0.83075 0.30789
 C83 C 0.32296 0.82364 0.30090
 C84 C 0.33006 0.80925 0.30807
 C85 C 0.32265 0.80192 0.32220
 C86 C 0.30817 0.80900 0.32919
 C87 C 0.30108 0.82339 0.32203
 H88 H 0.32889 0.82945 0.29012
 H89 H 0.32830 0.79095 0.32792
 H90 H 0.29003 0.82900 0.32764
 C91 C 0.80921 0.42041 0.44164
 C92 C 0.82365 0.42754 0.44867
 C93 C 0.83099 0.44167 0.44123
 C94 C 0.82383 0.44868 0.42678
 C95 C 0.80940 0.44154 0.41975
 C96 C 0.80208 0.42743 0.42720
 H97 H 0.82930 0.42190 0.45969
 H98 H 0.82963 0.45945 0.42082
 H99 H 0.79107 0.42173 0.42160
 C100 C 0.94183 0.83115 -0.05806
 C101 C 0.94896 0.82417 -0.07254
 C102 C 0.94200 0.80970 -0.07971
 C103 C 0.92794 0.80219 -0.07238
 C104 C 0.92080 0.80914 -0.05791
 C105 C 0.92776 0.82361 -0.05074
 H106 H 0.95969 0.83012 -0.07840
 H107 H 0.92237 0.79116 -0.07810
 H108 H 0.92202 0.82913 -0.03970
 C109 C 0.30870 0.32994 0.80755
 C110 C 0.30119 0.32260 0.82162
 C111 C 0.30816 0.30815 0.82879
 C112 C 0.32263 0.30101 0.82185
 C113 C 0.33016 0.30834 0.80778
 C114 C 0.32317 0.32279 0.80062
 H115 H 0.29016 0.32830 0.82717
 H116 H 0.32820 0.29000 0.82757
 H117 H 0.32916 0.32863 0.78990
 C118 C 0.17201 0.55741 0.55636
 C119 C 0.17926 0.55006 0.57057
 C120 C 0.19348 0.55727 0.57793
 C121 C 0.20050 0.57182 0.57103
 C122 C 0.19326 0.57919 0.55682
 C123 C 0.17903 0.57196 0.54947
 H124 H 0.17362 0.53899 0.57611
 H125 H 0.21131 0.57759 0.57692
 H126 H 0.17323 0.57784 0.53866
 C127 C 0.57881 0.69337 0.05631
 C128 C 0.57157 0.70068 0.07056
 C129 C 0.55706 0.69373 0.07757
 C130 C 0.54976 0.67949 0.07029
 C131 C 0.55699 0.67217 0.05605
 C132 C 0.57150 0.67913 0.04904
 H133 H 0.57741 0.71151 0.07638
 H134 H 0.53873 0.67389 0.07592
 H135 H 0.57728 0.67327 0.03821
 C136 C 0.69217 0.19044 0.66981
 C137 C 0.69931 0.17598 0.67676
 C138 C 0.69235 0.16880 0.69121
 C139 C 0.67826 0.17615 0.69872
 C140 C 0.67111 0.19062 0.69176
 C141 C 0.67809 0.19778 0.67732
 H142 H 0.71005 0.17017 0.67075
 H143 H 0.67265 0.17048 0.70973
 H144 H 0.67238 0.20880 0.67177
 C145 C 1.07626 0.05502 0.19450
 C146 C 1.06906 0.06938 0.20163
 C147 C 1.05476 0.07658 0.19438
 C148 C 1.04762 0.06935 0.18003
 C149 C 1.05481 0.05497 0.17287
 C150 C 1.06911 0.04779 0.18015
 H151 H 1.07481 0.07519 0.21251
 H152 H 1.03677 0.07517 0.17423
 H153 H 1.07493 0.03688 0.17444
 C154 C 0.05692 0.17283 1.05676
 C155 C 0.07142 0.17972 1.04967
 C156 C 0.07880 0.19397 1.05685
 C157 C 0.07164 0.20136 1.07110
 C158 C 0.05713 0.19448 1.07821
 C159 C 0.04975 0.18022 1.07100
 H160 H 0.07715 0.17381 1.03884
 H161 H 0.07758 0.21220 1.07683
 H162 H 0.03872 0.17465 1.07666
 C163 C 0.17219 0.69418 0.69326
 C164 C 0.17951 0.67995 0.70051
 C165 C 0.19377 0.67271 0.69324
 C166 C 0.20074 0.67975 0.67874
 C167 C 0.19343 0.69398 0.67148
 C168 C 0.17917 0.70122 0.67876
 H169 H 0.17391 0.67430 0.71153
 H170 H 0.21157 0.67395 0.67292
 H171 H 0.17331 0.71204 0.67296
 C172 C 1.19413 0.17248 0.19309
 C173 C 1.17993 0.17977 0.20041
 C174 C 1.17264 0.19405 0.19320
 C175 C 1.17962 0.20107 0.17869
 C176 C 1.19382 0.19379 0.17137
 C177 C 1.20110 0.17951 0.17859
 H178 H 1.17432 0.17412 0.21143
 H179 H 1.17378 0.21191 0.17291
 H180 H 1.21189 0.17367 0.17272
 C181 C 0.67060 1.05879 0.55793
 C182 C 0.67764 1.05164 0.57237
 C183 C 0.69176 1.05896 0.57985
 C184 C 0.69889 1.07340 0.57286
 C185 C 0.69188 1.08059 0.55842
 C186 C 0.67775 1.07325 0.55094
 H187 H 0.67198 1.04062 0.57798
 H188 H 0.70966 1.07919 0.57883
 H189 H 0.67215 1.07896 0.53992
 C190 C 0.55539 0.55488 0.17302
 C191 C 0.56973 0.54777 0.18026
 C192 C 0.57685 0.55502 0.19461
 C193 C 0.56958 0.56934 0.20176
 C194 C 0.55524 0.57646 0.19453
 C195 C 0.54813 0.56920 0.18018
 H196 H 0.57558 0.53691 0.17450
 H197 H 0.57530 0.57517 0.21265
 H198 H 0.53725 0.57493 0.17436
 C199 C 0.67209 0.69360 0.19282
 C200 C 0.67893 0.70056 0.17823
 C201 C 0.69314 0.69332 0.17086
 C202 C 0.70054 0.67914 0.17814
 C203 C 0.69371 0.67216 0.19273
 C204 C 0.67950 0.67942 0.20008
 H205 H 0.67300 0.71134 0.17242
 H206 H 0.71134 0.67333 0.17226
 H207 H 0.67400 0.67382 0.21118
 C208 C 0.17125 0.05711 1.05613
 C209 C 0.17828 0.07169 1.04927
 C210 C 0.19252 0.07889 1.05662
 C211 C 0.19978 0.07148 1.07079
 C212 C 0.19278 0.05691 1.07767
 C213 C 0.17854 0.04971 1.07031
 H214 H 0.17249 0.07763 1.03848
 H215 H 0.21061 0.07723 1.07668
 H216 H 0.17295 0.03862 1.07586
 C217 C 0.57840 0.19406 0.55582
 C218 C 0.57109 0.17981 0.54857
 C219 C 0.55659 0.17284 0.55559
 C220 C 0.54936 0.18018 0.56982
 C221 C 0.55665 0.19443 0.57708
 C222 C 0.57115 0.20139 0.57005
 H223 H 0.57690 0.17392 0.53776
 H224 H 0.53834 0.17457 0.57547
 H225 H 0.57701 0.21221 0.57588
 C226 C 0.07665 0.55562 0.69514
 C227 C 0.06940 0.56996 0.70227
 C228 C 0.05506 0.57708 0.69503
 C229 C 0.04793 0.56981 0.68070
 C230 C 0.05517 0.55547 0.67356
 C231 C 0.06952 0.54836 0.68080
 H232 H 0.07513 0.57580 0.71314
 H233 H 0.03705 0.57553 0.67488
 H234 H 0.07534 0.53748 0.67506
 C235 C 0.67251 0.55690 0.05582
 C236 C 0.67956 0.57143 0.04891
 C237 C 0.69378 0.57867 0.05628
 C238 C 0.70098 0.57132 0.07053
 C239 C 0.69393 0.55679 0.07745
 C240 C 0.67972 0.54957 0.07006
 H241 H 0.67379 0.57730 0.03808
 H242 H 0.71178 0.57710 0.07644
 H243 H 0.67406 0.53853 0.07561
 C244 C 0.05745 0.69414 0.57800
 C245 C 0.07201 0.70099 0.57097
 C246 C 0.07922 0.69359 0.55676
 C247 C 0.07184 0.67936 0.54954
 C248 C 0.05728 0.67250 0.55655
 C249 C 0.05008 0.67992 0.57076
 H250 H 0.07790 0.71181 0.57676
 H251 H 0.07760 0.67343 0.53873
 H252 H 0.03900 0.67441 0.57640
 C253 C 0.55694 1.05612 0.67172
 C254 C 0.57144 1.04914 0.67880
 C255 C 0.57867 1.05645 0.69306
 C256 C 0.57137 1.07071 0.70030
 C257 C 0.55686 1.07772 0.69326
 C258 C 0.54964 1.07039 0.67898
 H259 H 0.57731 1.03830 0.67303
 H260 H 0.57719 1.07653 0.71115
 H261 H 0.53860 1.07600 0.67332
 C262 C 0.44275 0.32889 0.94213
 C263 C 0.44991 0.32178 0.92774
 C264 C 0.44291 0.30731 0.92063
 C265 C 0.42877 0.29992 0.92794
 C266 C 0.42160 0.30701 0.94233
 C267 C 0.42861 0.32148 0.94944
 H268 H 0.46067 0.32768 0.92191
 H269 H 0.42316 0.28890 0.92225
 H270 H 0.42287 0.32716 0.96039
 C271 C 0.94069 0.44077 0.33173
 C272 C 0.92636 0.44800 0.32455
 C273 C 0.91919 0.44088 0.31016
 C274 C 0.92637 0.42656 0.30291
 C275 C 0.94068 0.41932 0.31007
 C276 C 0.94786 0.42644 0.32446
 H277 H 0.92062 0.45894 0.33027
 H278 H 0.92066 0.42091 0.29193
 H279 H 0.95880 0.42066 0.33012
 C280 C 0.30864 0.94264 0.42013
 C281 C 0.32311 0.94976 0.42711
 C282 C 0.33023 0.94281 0.44159
 C283 C 0.32285 0.92877 0.44912
 C284 C 0.30839 0.92164 0.44216
 C285 C 0.30127 0.92860 0.42768
 H286 H 0.32898 0.96045 0.42111
 H287 H 0.32854 0.92320 0.46015
 H288 H 0.29025 0.92290 0.42211
 O289 O 0.24890 0.54510 0.72830
 O290 O 0.27755 0.53965 0.73054
 O291 O 0.22853 0.50116 0.70529
 O292 O 0.22810 0.47347 0.71020
 O293 O 0.20518 0.52196 0.74931
 O294 O 0.21147 0.52075 0.77853
 O295 O 0.27193 0.45658 0.75070
 O296 O 0.26857 0.46134 0.72213
 O297 O 0.29368 0.49897 0.77172
 O298 O 0.28798 0.52932 0.77046
 O299 O 0.25129 0.47868 0.79378
 O300 O 0.22122 0.47964 0.78807
 O301 O 0.25186 0.45654 0.77104
 O302 O 0.22073 0.46262 0.76934
 O303 O 0.27134 0.49898 0.79395
 O304 O 0.26943 0.52990 0.78767
 O305 O 0.29356 0.47849 0.75179
 O306 O 0.28822 0.48425 0.72139
 O307 O 0.22899 0.54526 0.74884
 O308 O 0.23049 0.53899 0.77865
 O309 O 0.20502 0.50176 0.72908
 O310 O 0.21187 0.47143 0.73169
 O311 O 0.24839 0.52171 0.70534
 O312 O 0.27863 0.51783 0.71190
 Zr313 Zr 0.25895 0.52073 0.72957
 O314 O 0.27506 0.50612 0.74456
 Zr315 Zr 0.22930 0.49135 0.72977
 O316 O 0.24444 0.47528 0.74426
 Zr317 Zr 0.22961 0.52091 0.75923
 O318 O 0.24430 0.50593 0.77530
 Zr319 Zr 0.26990 0.48066 0.74032
 O320 O 0.25480 0.49519 0.72401
 Zr321 Zr 0.26977 0.51001 0.77005
 O322 O 0.25507 0.52629 0.75513
 Zr323 Zr 0.24043 0.48040 0.76980
 O324 O 0.22394 0.49540 0.75531
 O325 O 0.23357 0.51668 0.73387
 O326 O 0.26583 0.48456 0.76584
 C327 C 0.23734 0.55224 0.73695
 C328 C 0.23682 0.51303 0.69825
 C329 C 0.19802 0.51348 0.73764
 C330 C 0.26387 0.44967 0.76278
 C331 C 0.30046 0.48671 0.76379
 C332 C 0.26326 0.48686 0.80075
 H333 H 0.28685 0.50875 0.74181
 H334 H 0.24153 0.50860 0.78708
 H335 H 0.22638 0.52384 0.72672
 H336 H 0.24195 0.46347 0.74140
 H337 H 0.26501 0.46671 0.71151
 H338 H 0.23660 0.46481 0.71272
 H339 H 0.25998 0.52794 0.79544
 H340 H 0.24144 0.54472 0.77766
 H341 H 0.29614 0.47467 0.72187
 H342 H 0.27760 0.52675 0.70329
 H343 H 0.22186 0.49014 0.79465
 H344 H 0.20627 0.50948 0.77833
 H345 H 0.27733 0.54433 0.74204
 H346 H 0.29488 0.52822 0.76022
 H347 H 0.20529 0.47341 0.74203
 H348 H 0.22290 0.45472 0.76001
 O349 O 0.20468 0.02156 0.24868
 O350 O 0.21013 0.01943 0.27732
 O351 O 0.24863 0.04456 0.22834
 O352 O 0.27625 0.03958 0.22778
 O353 O 0.22776 0.00055 0.20494
 O354 O 0.22913 -0.02872 0.21117
 O355 O 0.29310 -0.00087 0.27182
 O356 O 0.28840 0.02772 0.26835
 O357 O 0.25077 -0.02170 0.29354
 O358 O 0.22048 -0.02055 0.28774
 O359 O 0.27112 -0.04394 0.25103
 O360 O 0.27021 -0.03831 0.22101
 O361 O 0.29318 -0.02122 0.25169
 O362 O 0.28711 -0.01948 0.22047
 O363 O 0.25092 -0.04405 0.27117
 O364 O 0.22000 -0.03783 0.26921
 O365 O 0.27116 -0.00172 0.29343
 O366 O 0.26546 0.02864 0.28796
 O367 O 0.20454 0.00093 0.22879
 O368 O 0.21091 -0.02886 0.23020
 O369 O 0.24794 0.02076 0.20479
 O370 O 0.27828 0.01803 0.21162
 O371 O 0.22806 0.04456 0.24815
 O372 O 0.23189 0.03803 0.27842
 Zr373 Zr 0.22903 0.02033 0.25871
 O374 O 0.24364 0.00536 0.27484
 Zr375 Zr 0.25839 0.02005 0.22906
 O376 O 0.27446 0.00559 0.24423
 Zr377 Zr 0.22890 -0.00941 0.22936
 O378 O 0.24388 -0.02545 0.24407
 Zr379 Zr 0.26907 0.00959 0.26969
 O380 O 0.25454 0.02587 0.25457
 Zr381 Zr 0.23980 -0.02015 0.26957
 O382 O 0.22353 -0.00526 0.25484
 Zr383 Zr 0.26937 -0.01996 0.24020
 O384 O 0.25437 -0.00550 0.22368
 O385 O 0.23308 0.01598 0.23332
 O386 O 0.26522 -0.01595 0.26563
 C387 C 0.19754 0.01283 0.23715
 C388 C 0.23676 0.05163 0.23661
 C389 C 0.23620 0.01223 0.19779
 C390 C 0.30001 -0.01298 0.26376
 C391 C 0.26294 -0.01368 0.30035
 C392 C 0.26301 -0.05088 0.26305
 H393 H 0.24099 0.00815 0.28664
 H394 H 0.24124 -0.03724 0.24130
 H395 H 0.22591 0.02312 0.22615
 H396 H 0.28625 0.00844 0.24174
 H397 H 0.28305 0.03835 0.26476
 H398 H 0.28487 0.03712 0.23634
 H399 H 0.22201 -0.04565 0.25978
 H400 H 0.20523 -0.02792 0.24119
 H401 H 0.27503 0.02820 0.29589
 H402 H 0.22299 0.04667 0.27737
 H403 H 0.25964 -0.04475 0.22151
 H404 H 0.24036 -0.02844 0.20590
 H405 H 0.20548 0.00791 0.27712
 H406 H 0.22152 -0.01027 0.29461
 H407 H 0.27624 0.00773 0.20496
 H408 H 0.29507 -0.01023 0.22273
 O409 O 0.50094 0.70496 0.22810
 O410 O 0.47232 0.71041 0.23029
 O411 O 0.52124 0.74891 0.20505
 O412 O 0.52170 0.77659 0.20998
 O413 O 0.54470 0.72814 0.24899
 O414 O 0.53852 0.72949 0.27825
 O415 O 0.47785 0.79349 0.25056
 O416 O 0.48123 0.78874 0.22196
 O417 O 0.45622 0.75114 0.27149
 O418 O 0.46199 0.72080 0.27029
 O419 O 0.49873 0.77152 0.29357
 O420 O 0.52873 0.77062 0.28783
 O421 O 0.49799 0.79359 0.27086
 O422 O 0.52917 0.78756 0.26904
 O423 O 0.47863 0.75127 0.29375
 O424 O 0.48056 0.72031 0.28749
 O425 O 0.45627 0.77153 0.25152
 O426 O 0.46162 0.76577 0.22114
 O427 O 0.52088 0.70485 0.24865
 O428 O 0.51952 0.71124 0.27843
 O429 O 0.54479 0.74833 0.22879
 O430 O 0.53794 0.77869 0.23148
 O431 O 0.50144 0.72831 0.20511
 O432 O 0.47119 0.73219 0.21169
 Zr433 Zr 0.49091 0.72934 0.22934
 O434 O 0.47482 0.74396 0.24435
 Zr435 Zr 0.52052 0.75875 0.22954
 O436 O 0.50540 0.77483 0.24404
 Zr437 Zr 0.52031 0.72924 0.25899
 O438 O 0.50564 0.74425 0.27506
 Zr439 Zr 0.47994 0.76942 0.24011
 O440 O 0.49502 0.75487 0.22379
 Zr441 Zr 0.48016 0.74014 0.26984
 O442 O 0.49484 0.72385 0.25491
 Zr443 Zr 0.50949 0.76977 0.26956
 O444 O 0.52596 0.75475 0.25506
 O445 O 0.51629 0.73341 0.23363
 O446 O 0.48407 0.76558 0.26563
 C447 C 0.51249 0.69783 0.23678
 C448 C 0.51297 0.73701 0.19802
 C449 C 0.55181 0.73661 0.23731
 C450 C 0.48592 0.80041 0.26265
 C451 C 0.44939 0.76333 0.26351
 C452 C 0.48676 0.76338 0.30055
 H453 H 0.46303 0.74130 0.24161
 H454 H 0.50845 0.74161 0.28685
 H455 H 0.52345 0.72623 0.22648
 H456 H 0.50787 0.78664 0.24118
 H457 H 0.48477 0.78337 0.21133
 H458 H 0.51318 0.78524 0.21248
 H459 H 0.49001 0.72232 0.29527
 H460 H 0.50855 0.70553 0.27751
 H461 H 0.45370 0.77535 0.22160
 H462 H 0.47222 0.72327 0.20305
 H463 H 0.52821 0.76007 0.29432
 H464 H 0.54376 0.74074 0.27798
 H465 H 0.47252 0.70578 0.24181
 H466 H 0.45507 0.72186 0.26004
 H467 H 0.54458 0.77670 0.24178
 H468 H 0.52689 0.79550 0.25978
 O469 O 0.04469 0.72862 0.74901
 O470 O 0.03933 0.73093 0.77770
 O471 O 0.00066 0.70567 0.72879
 O472 O -0.02695 0.71074 0.72819
 O473 O 0.02158 0.74963 0.70532
 O474 O 0.02030 0.77888 0.71154
 O475 O -0.04368 0.75128 0.77213
 O476 O -0.03895 0.72270 0.76882
 O477 O -0.00117 0.77218 0.79389
 O478 O 0.02906 0.77092 0.78812
 O479 O -0.02161 0.79430 0.75145
 O480 O -0.02073 0.78860 0.72139
 O481 O -0.04376 0.77156 0.75199
 O482 O -0.03768 0.76985 0.72084
 O483 O -0.00129 0.79444 0.77150
 O484 O 0.02960 0.78809 0.76953
 O485 O -0.02168 0.75232 0.79380
 O486 O -0.01601 0.72189 0.78843
 O487 O 0.04483 0.74919 0.72912
 O488 O 0.03855 0.77902 0.73058
 O489 O 0.00140 0.72941 0.70518
 O490 O -0.02894 0.73222 0.71201
 O491 O 0.02125 0.70570 0.74861
 O492 O 0.01753 0.71235 0.77885
 Zr493 Zr 0.02037 0.72997 0.75911
 O494 O 0.00582 0.74502 0.77523
 Zr495 Zr -0.00903 0.73022 0.72946
 O496 O -0.02503 0.74477 0.74462
 Zr497 Zr 0.02051 0.75962 0.72974
 O498 O 0.00559 0.77574 0.74444
 Zr499 Zr -0.01963 0.74085 0.77010
 O500 O -0.00516 0.72448 0.75498
 Zr501 Zr 0.00972 0.77050 0.76992
 O502 O 0.02594 0.75553 0.75521
 Zr503 Zr -0.01992 0.77030 0.74059
 O504 O -0.00498 0.75575 0.72407
 O505 O 0.01628 0.73425 0.73372
 O506 O -0.01572 0.76637 0.76602
 C507 C 0.05181 0.73727 0.73745
 C508 C 0.01251 0.69860 0.73709
 C509 C 0.01313 0.73792 0.69818
 C510 C -0.05061 0.76333 0.76401
 C511 C -0.01339 0.76427 0.80071
 C512 C -0.01340 0.80127 0.76342
 H513 H 0.00849 0.74227 0.78703
 H514 H 0.00826 0.78752 0.74166
 H515 H 0.02341 0.72706 0.72655
 H516 H -0.03684 0.74192 0.74213
 H517 H -0.03362 0.71207 0.76523
 H518 H -0.03551 0.71320 0.73681
 H519 H 0.02759 0.79589 0.76010
 H520 H 0.04432 0.77804 0.74154
 H521 H -0.02556 0.72241 0.79638
 H522 H 0.02643 0.70371 0.77782
 H523 H -0.01018 0.79508 0.72194
 H524 H 0.00904 0.77866 0.70632
 H525 H 0.04405 0.74241 0.77742
 H526 H 0.02806 0.76062 0.79494
 H527 H -0.02688 0.74249 0.70534
 H528 H -0.04555 0.76052 0.72300
 O529 O 0.00102 0.04526 0.02225
 O530 O -0.02764 0.03993 0.01996
 O531 O 0.02120 0.00115 0.04510
 O532 O 0.02176 -0.02649 0.04000
 O533 O 0.04463 0.02209 0.00116
 O534 O 0.03838 0.02086 -0.02809
 O535 O -0.02227 -0.04313 -0.00057
 O536 O -0.01883 -0.03852 0.02801
 O537 O -0.04395 -0.00055 -0.02124
 O538 O -0.03809 0.02969 -0.02005
 O539 O -0.00149 -0.02104 -0.04351
 O540 O 0.02852 -0.02022 -0.03780
 O541 O -0.00213 -0.04322 -0.02085
 O542 O 0.02903 -0.03721 -0.01908
 O543 O -0.02157 -0.00076 -0.04359
 O544 O -0.01955 0.03018 -0.03723
 O545 O -0.04388 -0.02104 -0.00137
 O546 O -0.03836 -0.01549 0.02901
 O547 O 0.02088 0.04541 0.00165
 O548 O 0.01938 0.03915 -0.02816
 O549 O 0.04476 0.00187 0.02133
 O550 O 0.03790 -0.02849 0.01849
 O551 O 0.00142 0.02178 0.04512
 O552 O -0.02882 0.01810 0.03850
 Zr553 Zr -0.00910 0.02093 0.02087
 O554 O -0.02523 0.00639 0.00583
 Zr555 Zr 0.02049 -0.00854 0.02055
 O556 O 0.00531 -0.02454 0.00600
 Zr557 Zr 0.02022 0.02107 -0.00880
 O558 O 0.00551 0.00615 -0.02491
 Zr559 Zr -0.02013 -0.01910 0.00996
 O560 O -0.00500 -0.00464 0.02632
 Zr561 Zr -0.01996 0.01029 -0.01966
 O562 O -0.00522 0.02651 -0.00468
 Zr563 Zr 0.00933 -0.01940 -0.01951
 O564 O 0.02586 -0.00447 -0.00497
 O565 O 0.01626 0.01682 0.01655
 O566 O -0.01608 -0.01518 -0.01555
 C567 C 0.01257 0.05239 0.01359
 C568 C 0.01293 0.01301 0.05219
 C569 C 0.05177 0.01361 0.01283
 C570 C -0.01419 -0.05006 -0.01265
 C571 C -0.05080 -0.01272 -0.01327
 C572 C -0.01347 -0.01285 -0.05044
 H573 H -0.03701 0.00908 0.00860
 H574 H 0.00828 0.00882 -0.03669
 H575 H 0.02345 0.02394 0.02375
 H576 H 0.00778 -0.03636 0.00882
 H577 H -0.01521 -0.03322 0.03865
 H578 H 0.01317 -0.03507 0.03752
 H579 H -0.01015 0.02815 -0.04506
 H580 H 0.00843 0.04490 -0.02718
 H581 H -0.04631 -0.02504 0.02852
 H582 H -0.02776 0.02699 0.04716
 H583 H 0.02800 -0.00964 -0.04425
 H584 H 0.04361 0.00959 -0.02786
 H585 H -0.02736 0.04468 0.00850
 H586 H -0.04486 0.02874 -0.00971
 H587 H 0.04455 -0.02644 0.00822
 H588 H 0.02681 -0.04514 -0.00981
 O589 O 0.00088 0.54510 0.52211
 O590 O -0.02779 0.53971 0.51980
 O591 O 0.02112 0.50110 0.54509
 O592 O 0.02171 0.47344 0.54009
 O593 O 0.04455 0.52194 0.50110
 O594 O 0.03831 0.52062 0.47186
 O595 O -0.02219 0.45657 0.49955
 O596 O -0.01885 0.46134 0.52814
 O597 O -0.04395 0.49903 0.47864
 O598 O -0.03819 0.52932 0.47984
 O599 O -0.00153 0.47854 0.45658
 O600 O 0.02854 0.47953 0.46225
 O601 O -0.00203 0.45648 0.47929
 O602 O 0.02909 0.46257 0.48102
 O603 O -0.02161 0.49882 0.45641
 O604 O -0.01961 0.52981 0.46265
 O605 O -0.04383 0.47855 0.49853
 O606 O -0.03847 0.48429 0.52894
 O607 O 0.02077 0.54521 0.50154
 O608 O 0.01928 0.53889 0.47173
 O609 O 0.04469 0.50179 0.52135
 O610 O 0.03788 0.47140 0.51861
 O611 O 0.00129 0.52169 0.54505
 O612 O -0.02893 0.51793 0.53841
 Zr613 Zr -0.00921 0.52075 0.52079
 O614 O -0.02530 0.50613 0.50578
 Zr615 Zr 0.02044 0.49133 0.52058
 O616 O 0.00531 0.47526 0.50607
 Zr617 Zr 0.02014 0.52085 0.49114
 O618 O 0.00547 0.50586 0.47505
 Zr619 Zr -0.02015 0.48066 0.50998
 O620 O -0.00507 0.49520 0.52632
 Zr621 Zr -0.02000 0.50997 0.48029
 O622 O -0.00532 0.52626 0.49523
 Zr623 Zr 0.00935 0.48034 0.48054
 O624 O 0.02583 0.49534 0.49505
 O625 O 0.01617 0.51666 0.51650
 O626 O -0.01606 0.48452 0.48448
 C627 C 0.01244 0.55221 0.51345
 C628 C 0.01282 0.51297 0.55215
 C629 C 0.05168 0.51350 0.51281
 C630 C -0.01407 0.44963 0.48750
 C631 C -0.05074 0.48680 0.48657
 C632 C -0.01353 0.48667 0.44962
 H633 H -0.03710 0.50879 0.50852
 H634 H 0.00824 0.50850 0.46327
 H635 H 0.02334 0.52382 0.52368
 H636 H 0.00780 0.46345 0.50892
 H637 H -0.01528 0.46671 0.53877
 H638 H 0.01312 0.46486 0.53764
 H639 H -0.01023 0.52775 0.45482
 H640 H 0.00831 0.54461 0.47270
 H641 H -0.04640 0.47472 0.52844
 H642 H -0.02791 0.52685 0.54704
 H643 H 0.02790 0.49003 0.45569
 H644 H 0.04352 0.50935 0.47208
 H645 H -0.02751 0.54441 0.50832
 H646 H -0.04501 0.52833 0.49014
 H647 H 0.04454 0.47343 0.50834
 H648 H 0.02691 0.45469 0.49034
 O649 O 0.54538 0.02189 0.50120
 O650 O 0.54002 0.01943 0.47250
 O651 O 0.50142 0.04479 0.52137
 O652 O 0.47379 0.03977 0.52191
 O653 O 0.52234 0.00087 0.54492
 O654 O 0.52118 -0.02839 0.53870
 O655 O 0.45705 -0.00087 0.47809
 O656 O 0.46174 0.02772 0.48137
 O657 O 0.49948 -0.02184 0.45638
 O658 O 0.52976 -0.02054 0.46214
 O659 O 0.47916 -0.04385 0.49884
 O660 O 0.48011 -0.03811 0.52891
 O661 O 0.45702 -0.02114 0.49825
 O662 O 0.46313 -0.01935 0.52942
 O663 O 0.49944 -0.04404 0.47879
 O664 O 0.53033 -0.03770 0.48075
 O665 O 0.47897 -0.00196 0.45646
 O666 O 0.48464 0.02848 0.46174
 O667 O 0.54559 0.00138 0.52117
 O668 O 0.53942 -0.02849 0.51965
 O669 O 0.50215 0.02109 0.54500
 O670 O 0.47183 0.01831 0.53817
 O671 O 0.52195 0.04474 0.50151
 O672 O 0.51820 0.03802 0.47128
 Zr673 Zr 0.52108 0.02045 0.49106
 O674 O 0.50652 0.00537 0.47497
 Zr675 Zr 0.49172 0.02026 0.52072
 O676 O 0.47571 0.00568 0.50559
 Zr677 Zr 0.52131 -0.00913 0.52050
 O678 O 0.50638 -0.02528 0.50583
 Zr679 Zr 0.48108 0.00956 0.48011
 O680 O 0.49556 0.02596 0.49519
 Zr681 Zr 0.51045 -0.02010 0.48033
 O682 O 0.52668 -0.00510 0.49501
 Zr683 Zr 0.48086 -0.01984 0.50968
 O684 O 0.49581 -0.00526 0.52616
 O685 O 0.51703 0.01622 0.51647
 O686 O 0.48502 -0.01594 0.48424
 C687 C 0.55252 0.01332 0.51283
 C688 C 0.51324 0.05185 0.51305
 C689 C 0.51387 0.01258 0.55203
 C690 C 0.45015 -0.01293 0.48621
 C691 C 0.48722 -0.01394 0.44957
 C692 C 0.48733 -0.05084 0.48687
 H693 H 0.50916 0.00809 0.46317
 H694 H 0.50905 -0.03706 0.50863
 H695 H 0.52413 0.02343 0.52364
 H696 H 0.46390 0.00852 0.50808
 H697 H 0.46708 0.03836 0.48493
 H698 H 0.46518 0.03723 0.51336
 H699 H 0.52837 -0.04546 0.49022
 H700 H 0.54516 -0.02749 0.50870
 H701 H 0.47508 0.02795 0.45380
 H702 H 0.52709 0.04666 0.47229
 H703 H 0.49064 -0.04462 0.52833
 H704 H 0.50992 -0.02820 0.54390
 H705 H 0.54477 0.00796 0.47282
 H706 H 0.52871 -0.01026 0.45528
 H707 H 0.47387 0.00803 0.54482
 H708 H 0.45522 -0.01005 0.52721
 O709 O 0.50140 0.54456 0.02142
 O710 O 0.47274 0.53915 0.01914
 O711 O 0.52167 0.50058 0.04443
 O712 O 0.52232 0.47293 0.03944
 O713 O 0.54507 0.52142 0.00041
 O714 O 0.53883 0.52006 -0.02883
 O715 O 0.47838 0.45600 -0.00103
 O716 O 0.48174 0.46079 0.02754
 O717 O 0.45656 0.49846 -0.02194
 O718 O 0.46234 0.52874 -0.02082
 O719 O 0.49897 0.47792 -0.04404
 O720 O 0.52905 0.47895 -0.03842
 O721 O 0.49853 0.45589 -0.02130
 O722 O 0.52965 0.46204 -0.01962
 O723 O 0.47887 0.49819 -0.04421
 O724 O 0.48090 0.52920 -0.03802
 O725 O 0.45671 0.47799 -0.00205
 O726 O 0.46211 0.48374 0.02834
 O727 O 0.52126 0.54468 0.00082
 O728 O 0.51977 0.53831 -0.02898
 O729 O 0.54524 0.50129 0.02067
 O730 O 0.53846 0.47089 0.01795
 O731 O 0.50184 0.52117 0.04438
 O732 O 0.47162 0.51738 0.03776
 Zr733 Zr 0.49133 0.52020 0.02013
 O734 O 0.47524 0.50556 0.00514
 Zr735 Zr 0.52100 0.49081 0.01992
 O736 O 0.50586 0.47471 0.00544
 Zr737 Zr 0.52067 0.52030 -0.00954
 O738 O 0.50599 0.50528 -0.02561
 Zr739 Zr 0.48040 0.48010 0.00937
 O740 O 0.49550 0.49467 0.02567
 Zr741 Zr 0.48052 0.50939 -0.02036
 O742 O 0.49520 0.52570 -0.00544
 Zr743 Zr 0.50988 0.47977 -0.02010
 O744 O 0.52637 0.49480 -0.00562
 O745 O 0.51671 0.51614 0.01583
 O746 O 0.48447 0.48394 -0.01615
 C747 C 0.51294 0.55168 0.01274
 C748 C 0.51337 0.51245 0.05148
 C749 C 0.55222 0.51300 0.01212
 C750 C 0.48650 0.44905 -0.01307
 C751 C 0.44977 0.48624 -0.01399
 C752 C 0.48694 0.48603 -0.05099
 H753 H 0.46345 0.50822 0.00789
 H754 H 0.50874 0.50791 -0.03740
 H755 H 0.52388 0.52330 0.02300
 H756 H 0.50837 0.46291 0.00830
 H757 H 0.48532 0.46617 0.03815
 H758 H 0.51372 0.46435 0.03702
 H759 H 0.49025 0.52710 -0.04589
 H760 H 0.50880 0.54402 -0.02802
 H761 H 0.45419 0.47417 0.02786
 H762 H 0.47264 0.52632 0.04638
 H763 H 0.52840 0.48946 -0.04498
 H764 H 0.54403 0.50879 -0.02861
 H765 H 0.47302 0.54386 0.00766
 H766 H 0.45554 0.52778 -0.01050
 H767 H 0.54512 0.47293 0.00768
 H768 H 0.52750 0.45416 -0.01028
 O769 O 0.77234 0.29424 0.49884
 O770 O 0.76998 0.28884 0.52755
 O771 O 0.79501 0.25018 0.47848
 O772 O 0.78994 0.22250 0.47808
 O773 O 0.75125 0.27126 0.45509
 O774 O 0.72199 0.27016 0.46126
 O775 O 0.74926 0.20590 0.52184
 O776 O 0.77785 0.21042 0.51848
 O777 O 0.72861 0.24844 0.54357
 O778 O 0.73000 0.27873 0.53790
 O779 O 0.70639 0.22831 0.50095
 O780 O 0.71219 0.22908 0.47095
 O781 O 0.72896 0.20598 0.50170
 O782 O 0.73082 0.21198 0.47052
 O783 O 0.70634 0.24859 0.52107
 O784 O 0.71289 0.27945 0.51927
 O785 O 0.74844 0.22789 0.54349
 O786 O 0.77883 0.23338 0.53813
 O787 O 0.75182 0.29451 0.47887
 O788 O 0.72198 0.28843 0.48033
 O789 O 0.77132 0.25092 0.45495
 O790 O 0.76843 0.22059 0.46173
 O791 O 0.79508 0.27074 0.49838
 O792 O 0.78849 0.26692 0.52864
 Zr793 Zr 0.77087 0.26990 0.50891
 O794 O 0.75578 0.25539 0.52497
 Zr795 Zr 0.77049 0.24049 0.47921
 O796 O 0.75589 0.22452 0.49432
 Zr797 Zr 0.74125 0.27024 0.47948
 O798 O 0.72510 0.25536 0.49413
 Zr799 Zr 0.75984 0.22990 0.51980
 O800 O 0.77625 0.24432 0.50475
 Zr801 Zr 0.73033 0.25943 0.51964
 O802 O 0.74536 0.27561 0.50497
 Zr803 Zr 0.73042 0.22979 0.49024
 O804 O 0.74501 0.24469 0.47378
 O805 O 0.76655 0.26585 0.48351
 O806 O 0.73436 0.23394 0.51569
 C807 C 0.76378 0.30141 0.48722
 C808 C 0.80210 0.26204 0.48678
 C809 C 0.76290 0.26273 0.44796
 C810 C 0.73714 0.19907 0.51375
 C811 C 0.73652 0.23620 0.55039
 C812 C 0.69944 0.23657 0.51288
 H813 H 0.75854 0.25802 0.53678
 H814 H 0.71335 0.25811 0.49131
 H815 H 0.77375 0.27295 0.47634
 H816 H 0.75866 0.21269 0.49182
 H817 H 0.78849 0.21570 0.51491
 H818 H 0.78728 0.21379 0.48647
 H819 H 0.70515 0.27757 0.50976
 H820 H 0.72302 0.29420 0.49128
 H821 H 0.77830 0.22380 0.54605
 H822 H 0.79714 0.27580 0.52764
 H823 H 0.70582 0.23972 0.47144
 H824 H 0.72223 0.25892 0.45595
 H825 H 0.75854 0.29365 0.52723
 H826 H 0.74030 0.27767 0.54472
 H827 H 0.75814 0.22265 0.45510
 H828 H 0.74003 0.20399 0.47277
 O829 O 0.77170 0.79497 -0.00129
 O830 O 0.76943 0.78946 0.02736
 O831 O 0.79480 0.75113 -0.02176
 O832 O 0.78995 0.72341 -0.02223
 O833 O 0.75092 0.77191 -0.04519
 O834 O 0.72167 0.77052 -0.03908
 O835 O 0.74937 0.70638 0.02143
 O836 O 0.77789 0.71115 0.01817
 O837 O 0.72839 0.74883 0.04327
 O838 O 0.72950 0.77912 0.03754
 O839 O 0.70634 0.72846 0.00061
 O840 O 0.71211 0.72938 -0.02939
 O841 O 0.72914 0.70631 0.00121
 O842 O 0.73090 0.71247 -0.02991
 O843 O 0.70612 0.74870 0.02077
 O844 O 0.71234 0.77962 0.01897
 O845 O 0.74834 0.72839 0.04319
 O846 O 0.77868 0.73408 0.03784
 O847 O 0.75120 0.79513 -0.02129
 O848 O 0.72143 0.78875 -0.01998
 O849 O 0.77114 0.75172 -0.04533
 O850 O 0.76849 0.72135 -0.03860
 O851 O 0.79467 0.77167 -0.00185
 O852 O 0.78810 0.76768 0.02839
 Zr853 Zr 0.77046 0.77059 0.00867
 O854 O 0.75547 0.75593 0.02469
 Zr855 Zr 0.77036 0.74124 -0.02108
 O856 O 0.75586 0.72514 -0.00602
 Zr857 Zr 0.74088 0.77074 -0.02081
 O858 O 0.72482 0.75572 -0.00620
 Zr859 Zr 0.75973 0.73048 0.01948
 O860 O 0.77605 0.74506 0.00447
 Zr861 Zr 0.73000 0.75978 0.01932
 O862 O 0.74491 0.77610 0.00470
 Zr863 Zr 0.73035 0.73020 -0.01012
 O864 O 0.74485 0.74524 -0.02654
 O865 O 0.76622 0.76656 -0.01675
 O866 O 0.73423 0.73433 0.01535
 C867 C 0.76305 0.80212 -0.01286
 C868 C 0.80178 0.76304 -0.01345
 C869 C 0.76264 0.76347 -0.05232
 C870 C 0.73737 0.69944 0.01325
 C871 C 0.73639 0.73665 0.05010
 C872 C 0.69934 0.73662 0.01257
 H873 H 0.75819 0.75858 0.03650
 H874 H 0.71305 0.75836 -0.00902
 H875 H 0.77336 0.77375 -0.02389
 H876 H 0.75874 0.71333 -0.00854
 H877 H 0.78850 0.71650 0.01461
 H878 H 0.78737 0.71468 -0.01383
 H879 H 0.70461 0.77766 0.00946
 H880 H 0.72235 0.79446 -0.00899
 H881 H 0.77821 0.72450 0.04575
 H882 H 0.79669 0.77663 0.02742
 H883 H 0.70565 0.73996 -0.02888
 H884 H 0.72199 0.75928 -0.04437
 H885 H 0.75796 0.79417 0.02707
 H886 H 0.73976 0.77810 0.04442
 H887 H 0.75820 0.72335 -0.04526
 H888 H 0.74023 0.70459 -0.02773
 O889 O 1.04503 0.22831 0.24863
 O890 O 1.03963 0.23051 0.27730
 O891 O 1.00105 0.20538 0.22825
 O892 O 0.97345 0.21044 0.22759
 O893 O 1.02199 0.24944 0.20496
 O894 O 1.02067 0.27868 0.21128
 O895 O 0.95662 0.25084 0.27168
 O896 O 0.96134 0.22226 0.26823
 O897 O 0.99907 0.27164 0.29358
 O898 O 1.02931 0.27048 0.28781
 O899 O 0.97863 0.29389 0.25118
 O900 O 0.97963 0.28833 0.22108
 O901 O 0.95656 0.27117 0.25157
 O902 O 0.96270 0.26954 0.22042
 O903 O 0.99887 0.29398 0.27130
 O904 O 1.02981 0.28773 0.26930
 O905 O 0.97858 0.25176 0.29337
 O906 O 0.98426 0.22136 0.28788
 O907 O 1.04520 0.24897 0.22881
 O908 O 1.03889 0.27877 0.23035
 O909 O 1.00183 0.22921 0.20472
 O910 O 0.97147 0.23197 0.21149
 O911 O 1.02161 0.20536 0.24810
 O912 O 1.01784 0.21192 0.27836
 Zr913 Zr 1.02070 0.22960 0.25868
 O914 O 1.00611 0.24458 0.27482
 Zr915 Zr 0.99135 0.22993 0.22897
 O916 O 0.97530 0.24440 0.24415
 Zr917 Zr 1.02087 0.25935 0.22941
 O918 O 1.00590 0.27541 0.24413
 Zr919 Zr 0.98067 0.24040 0.26963
 O920 O 0.99519 0.22410 0.25448
 Zr921 Zr 1.00999 0.27009 0.26961
 O922 O 1.02625 0.25518 0.25488
 Zr923 Zr 0.98041 0.26995 0.24021
 O924 O 0.99539 0.25548 0.22367
 O925 O 1.01666 0.23397 0.23329
 O926 O 0.98456 0.26593 0.26563
 C927 C 1.05217 0.23702 0.23712
 C928 C 1.01288 0.19829 0.23655
 C929 C 1.01356 0.23776 0.19777
 C930 C 0.94971 0.26292 0.26358
 C931 C 0.98685 0.26368 0.30035
 C932 C 0.98676 0.30080 0.26323
 H933 H 1.00876 0.24180 0.28662
 H934 H 1.00855 0.28721 0.24140
 H935 H 1.02380 0.22680 0.22611
 H936 H 0.96351 0.24156 0.24163
 H937 H 0.96669 0.21164 0.26461
 H938 H 0.96487 0.21286 0.23619
 H939 H 1.02776 0.29561 0.25994
 H940 H 1.04459 0.27779 0.24134
 H941 H 0.97470 0.22184 0.29581
 H942 H 1.02674 0.20328 0.27732
 H943 H 0.99015 0.29484 0.22171
 H944 H 1.00942 0.27847 0.20604
 H945 H 1.04433 0.24199 0.27708
 H946 H 1.02832 0.26015 0.29460
 H947 H 0.97354 0.24226 0.20486
 H948 H 0.95481 0.26021 0.22255
 O949 O 0.77192 0.95472 0.75098
 O950 O 0.76969 0.96002 0.72228
 O951 O 0.79467 0.99882 0.77126
 O952 O 0.78967 1.02649 0.77157
 O953 O 0.75079 0.97800 0.79461
 O954 O 0.72157 0.97913 0.78830
 O955 O 0.74917 1.04307 0.72760
 O956 O 0.77774 1.03842 0.73104
 O957 O 0.72839 1.00054 0.70594
 O958 O 0.72972 0.97025 0.71173
 O959 O 0.70619 1.02093 0.74838
 O960 O 0.71189 1.02021 0.77840
 O961 O 0.72883 1.04315 0.74767
 O962 O 0.73057 1.03723 0.77887
 O963 O 0.70610 1.00057 0.72834
 O964 O 0.71255 0.96967 0.73030
 O965 O 0.74827 1.02103 0.70602
 O966 O 0.77864 1.01540 0.71146
 O967 O 0.75137 0.95460 0.77089
 O968 O 0.72156 0.96079 0.76931
 O969 O 0.77091 0.99827 0.79472
 O970 O 0.76815 1.02857 0.78779
 O971 O 0.79475 0.97816 0.75146
 O972 O 0.78822 0.98188 0.72116
 Zr973 Zr 0.77056 0.97904 0.74084
 O974 O 0.75553 0.99354 0.72466
 Zr975 Zr 0.77019 1.00857 0.77041
 O976 O 0.75566 1.02453 0.75519
 Zr977 Zr 0.74088 0.97892 0.77016
 O978 O 0.72479 0.99380 0.75539
 Zr979 Zr 0.75965 1.01903 0.72974
 O980 O 0.77599 1.00461 0.74491
 Zr981 Zr 0.73006 0.98962 0.72992
 O982 O 0.74502 0.97344 0.74470
 Zr983 Zr 0.73017 1.01936 0.75920
 O984 O 0.74469 1.00447 0.77577
 O985 O 0.76620 0.98320 0.76621
 O986 O 0.73416 1.01510 0.73379
 C987 C 0.76330 0.94761 0.76258
 C988 C 0.80176 0.98691 0.76304
 C989 C 0.76242 0.98654 0.80175
 C990 C 0.73707 1.04998 0.73564
 C991 C 0.73633 1.01276 0.69911
 C992 C 0.69924 1.01266 0.73644
 H993 H 0.75830 0.99085 0.71287
 H994 H 0.71302 0.99111 0.75817
 H995 H 0.77336 0.97610 0.77344
 H996 H 0.75847 1.03636 0.75765
 H997 H 0.78836 1.03310 0.73464
 H998 H 0.78711 1.03513 0.76306
 H999 H 0.70479 0.97163 0.73976
 H1000 H 0.72259 0.95500 0.75837
 H1001 H 0.77815 1.02495 0.70351
 H1002 H 0.79687 0.97300 0.72224
 H1003 H 0.70546 1.00961 0.77790
 H1004 H 0.72178 0.99040 0.79353
 H1005 H 0.75821 0.95532 0.72250
 H1006 H 0.74001 0.97128 0.70490
 H1007 H 0.75784 1.02657 0.79439
 H1008 H 0.73982 1.04518 0.77664
 O1009 O 0.70538 0.52182 0.24879
 O1010 O 0.71081 0.51963 0.27744
 O1011 O 0.74933 0.54486 0.22853
 O1012 O 0.77698 0.53991 0.22809
 O1013 O 0.72854 0.50093 0.20501
 O1014 O 0.72986 0.47165 0.21116
 O1015 O 0.79376 0.49929 0.27198
 O1016 O 0.78908 0.52790 0.26859
 O1017 O 0.75141 0.47839 0.29356
 O1018 O 0.72113 0.47961 0.28776
 O1019 O 0.77177 0.45629 0.25102
 O1020 O 0.77092 0.46205 0.22100
 O1021 O 0.79385 0.47898 0.25181
 O1022 O 0.78787 0.48083 0.22060
 O1023 O 0.75152 0.45613 0.27111
 O1024 O 0.72062 0.46241 0.26916
 O1025 O 0.77181 0.49836 0.29355
 O1026 O 0.76612 0.52876 0.28819
 O1027 O 0.70527 0.50126 0.22883
 O1028 O 0.71162 0.47147 0.23016
 O1029 O 0.74873 0.52112 0.20494
 O1030 O 0.77905 0.51840 0.21182
 O1031 O 0.72874 0.54481 0.24832
 O1032 O 0.73259 0.53823 0.27859
 Zr1033 Zr 0.72973 0.52057 0.25885
 O1034 O 0.74431 0.50555 0.27495
 Zr1035 Zr 0.75912 0.52036 0.22924
 O1036 O 0.77516 0.50584 0.24439
 Zr1037 Zr 0.72962 0.49091 0.22941
 O1038 O 0.74457 0.47482 0.24409
 Zr1039 Zr 0.76974 0.50976 0.26986
 O1040 O 0.75524 0.52611 0.25476
 Zr1041 Zr 0.74046 0.48005 0.26960
 O1042 O 0.72421 0.49499 0.25489
 Zr1043 Zr 0.77008 0.48031 0.24028
 O1044 O 0.75511 0.49482 0.22378
 O1045 O 0.73381 0.51628 0.23345
 O1046 O 0.76588 0.48424 0.26571
 C1047 C 0.69826 0.51313 0.23722
 C1048 C 0.73744 0.55190 0.23679
 C1049 C 0.73701 0.51261 0.19790
 C1050 C 0.80067 0.48719 0.26391
 C1051 C 0.76359 0.48637 0.30042
 C1052 C 0.76361 0.44931 0.26298
 H1053 H 0.74164 0.50829 0.28676
 H1054 H 0.74193 0.46304 0.24128
 H1055 H 0.72665 0.52344 0.22628
 H1056 H 0.78696 0.50869 0.24193
 H1057 H 0.78374 0.53854 0.26504
 H1058 H 0.78561 0.53739 0.23661
 H1059 H 0.72263 0.45463 0.25971
 H1060 H 0.70591 0.47239 0.24114
 H1061 H 0.77568 0.52828 0.29613
 H1062 H 0.72369 0.54687 0.27755
 H1063 H 0.76036 0.45557 0.22150
 H1064 H 0.74110 0.47193 0.20592
 H1065 H 0.70617 0.50812 0.27722
 H1066 H 0.72218 0.48987 0.29468
 H1067 H 0.77705 0.50810 0.20517
 H1068 H 0.79581 0.49008 0.22289
 O1069 O 0.50127 0.20440 0.72787
 O1070 O 0.47262 0.20981 0.73018
 O1071 O 0.52149 0.24856 0.70518
 O1072 O 0.52212 0.27617 0.71037
 O1073 O 0.54495 0.22733 0.74897
 O1074 O 0.53880 0.22854 0.77825
 O1075 O 0.47816 0.29276 0.75103
 O1076 O 0.48159 0.28826 0.72240
 O1077 O 0.45651 0.25028 0.77161
 O1078 O 0.46224 0.21998 0.77023
 O1079 O 0.49906 0.27047 0.79387
 O1080 O 0.52902 0.26963 0.78814
 O1081 O 0.49831 0.29271 0.77133
 O1082 O 0.52952 0.28666 0.76942
 O1083 O 0.47893 0.25025 0.79389
 O1084 O 0.48084 0.21933 0.78740
 O1085 O 0.45658 0.27081 0.75177
 O1086 O 0.46198 0.26530 0.72136
 O1087 O 0.52117 0.20413 0.74846
 O1088 O 0.51976 0.21029 0.77830
 O1089 O 0.54508 0.24764 0.72889
 O1090 O 0.53830 0.27804 0.73190
 O1091 O 0.50169 0.22796 0.70508
 O1092 O 0.47145 0.23172 0.71172
 Zr1093 Zr 0.49120 0.22876 0.72934
 O1094 O 0.47512 0.24330 0.74444
 Zr1095 Zr 0.52085 0.25815 0.72976
 O1096 O 0.50573 0.27415 0.74436
 Zr1097 Zr 0.52059 0.22843 0.75899
 O1098 O 0.50593 0.24334 0.77517
 Zr1099 Zr 0.48027 0.26878 0.74039
 O1100 O 0.49534 0.25434 0.72397
 Zr1101 Zr 0.48045 0.23929 0.76991
 O1102 O 0.49512 0.22308 0.75487
 Zr1103 Zr 0.50980 0.26890 0.76985
 O1104 O 0.52627 0.25396 0.75526
 O1105 O 0.51657 0.23279 0.73366
 O1106 O 0.48438 0.26476 0.76588
 C1107 C 0.51283 0.19721 0.73650
 C1108 C 0.51320 0.23673 0.69805
 C1109 C 0.55207 0.23582 0.73731
 C1110 C 0.48623 0.29960 0.76318
 C1111 C 0.44968 0.26252 0.76369
 C1112 C 0.48709 0.26229 0.80078
 H1113 H 0.46333 0.24067 0.74167
 H1114 H 0.50873 0.24062 0.78693
 H1115 H 0.52372 0.22567 0.72643
 H1116 H 0.50820 0.28598 0.74159
 H1117 H 0.48516 0.28297 0.71174
 H1118 H 0.51356 0.28477 0.71289
 H1119 H 0.49027 0.22129 0.79521
 H1120 H 0.50879 0.20457 0.77731
 H1121 H 0.45406 0.27487 0.72189
 H1122 H 0.47248 0.22286 0.70303
 H1123 H 0.52858 0.25898 0.79447
 H1124 H 0.54410 0.23976 0.77801
 H1125 H 0.47288 0.20507 0.74164
 H1126 H 0.45541 0.22104 0.75993
 H1127 H 0.54499 0.27590 0.74214
 H1128 H 0.52721 0.29471 0.76027
 O1129 O 0.29510 0.75164 0.47832
 O1130 O 0.28973 0.72291 0.48058
 O1131 O 0.25118 0.77194 0.45541
 O1132 O 0.22351 0.77231 0.46033
 O1133 O 0.27198 0.79533 0.49937
 O1134 O 0.27070 0.78911 0.52863
 O1135 O 0.20674 0.72845 0.50083
 O1136 O 0.21144 0.73181 0.47228
 O1137 O 0.24924 0.70670 0.52168
 O1138 O 0.27944 0.71249 0.52055
 O1139 O 0.22884 0.74926 0.54391
 O1140 O 0.22964 0.77927 0.53823
 O1141 O 0.20667 0.74862 0.52114
 O1142 O 0.21272 0.77979 0.51945
 O1143 O 0.24911 0.72917 0.54404
 O1144 O 0.28000 0.73110 0.53772
 O1145 O 0.22879 0.70677 0.50175
 O1146 O 0.23440 0.71221 0.47139
 O1147 O 0.29523 0.77158 0.49891
 O1148 O 0.28898 0.77007 0.52873
 O1149 O 0.25178 0.79545 0.47916
 O1150 O 0.22146 0.78861 0.48187
 O1151 O 0.27175 0.75210 0.45542
 O1152 O 0.26794 0.72180 0.46193
 Zr1153 Zr 0.27079 0.74152 0.47963
 O1154 O 0.25624 0.72540 0.49462
 Zr1155 Zr 0.24138 0.77116 0.47989
 O1156 O 0.22537 0.75599 0.49438
 Zr1157 Zr 0.27093 0.77091 0.50933
 O1158 O 0.25600 0.75620 0.52538
 Zr1159 Zr 0.23079 0.73051 0.49042
 O1160 O 0.24527 0.74563 0.47410
 Zr1161 Zr 0.26012 0.73070 0.52012
 O1162 O 0.27635 0.74542 0.50520
 Zr1163 Zr 0.23049 0.76005 0.51991
 O1164 O 0.24543 0.77657 0.50543
 O1165 O 0.26669 0.76691 0.48397
 O1166 O 0.23468 0.73460 0.51594
 C1167 C 0.30220 0.76326 0.48697
 C1168 C 0.26308 0.76369 0.44837
 C1169 C 0.26352 0.80246 0.48767
 C1170 C 0.19982 0.73658 0.51288
 C1171 C 0.23708 0.69985 0.51368
 C1172 C 0.23704 0.73731 0.55088
 H1173 H 0.25891 0.71359 0.49184
 H1174 H 0.25866 0.75900 0.53716
 H1175 H 0.27382 0.77410 0.47682
 H1176 H 0.21357 0.75848 0.49153
 H1177 H 0.21676 0.73542 0.46166
 H1178 H 0.21483 0.76385 0.46289
 H1179 H 0.27802 0.74056 0.54551
 H1180 H 0.29475 0.75911 0.52771
 H1181 H 0.22485 0.70426 0.47185
 H1182 H 0.27686 0.72284 0.45332
 H1183 H 0.24024 0.77880 0.54465
 H1184 H 0.25947 0.79439 0.52834
 H1185 H 0.29450 0.72324 0.49204
 H1186 H 0.27852 0.70573 0.51019
 H1187 H 0.22349 0.79526 0.49217
 H1188 H 0.20482 0.77759 0.51014
 O1189 O 0.29470 0.25084 0.97781
 O1190 O 0.28912 0.22216 0.98006
 O1191 O 0.25086 0.27145 0.95497
 O1192 O 0.22320 0.27199 0.95995
 O1193 O 0.27192 0.29471 0.99885
 O1194 O 0.27064 0.28853 1.02812
 O1195 O 0.20624 0.22827 1.00050
 O1196 O 0.21089 0.23158 0.97194
 O1197 O 0.24864 0.20625 1.02127
 O1198 O 0.27888 0.21185 1.02005
 O1199 O 0.22858 0.24895 1.04353
 O1200 O 0.22956 0.27895 1.03782
 O1201 O 0.20635 0.24844 1.02081
 O1202 O 0.21259 0.27956 1.01910
 O1203 O 0.24873 0.22873 1.04361
 O1204 O 0.27960 0.23044 1.03721
 O1205 O 0.22814 0.20644 1.00138
 O1206 O 0.23371 0.21184 0.97101
 O1207 O 0.29500 0.27078 0.99839
 O1208 O 0.28879 0.26938 1.02821
 O1209 O 0.25167 0.29496 0.97869
 O1210 O 0.22131 0.28833 0.98149
 O1211 O 0.27131 0.25147 0.95494
 O1212 O 0.26729 0.22121 0.96146
 Zr1213 Zr 0.27032 0.24090 0.97915
 O1214 O 0.25570 0.22488 0.99418
 Zr1215 Zr 0.24110 0.27074 0.97947
 O1216 O 0.22503 0.25568 0.99400
 Zr1217 Zr 0.27071 0.27031 1.00884
 O1218 O 0.25573 0.25570 1.02493
 Zr1219 Zr 0.23027 0.23017 0.99003
 O1220 O 0.24481 0.24518 0.97368
 Zr1221 Zr 0.25967 0.23017 1.01966
 O1222 O 0.27596 0.24479 1.00471
 Zr1223 Zr 0.23023 0.25971 1.01952
 O1224 O 0.24524 0.27613 1.00499
 O1225 O 0.26639 0.26632 0.98349
 O1226 O 0.23424 0.23423 1.01555
 C1227 C 0.30190 0.26239 0.98646
 C1228 C 0.26269 0.26312 0.94790
 C1229 C 0.26348 0.30189 0.98717
 C1230 C 0.19939 0.23644 1.01257
 C1231 C 0.23641 0.19947 1.01329
 C1232 C 0.23674 0.23696 1.05048
 H1233 H 0.25828 0.21306 0.99140
 H1234 H 0.25844 0.25849 1.03670
 H1235 H 0.27356 0.27346 0.97633
 H1236 H 0.21324 0.25825 0.99118
 H1237 H 0.21621 0.23516 0.96132
 H1238 H 0.21446 0.26361 0.96255
 H1239 H 0.27771 0.23992 1.04500
 H1240 H 0.29448 0.25838 1.02721
 H1241 H 0.22412 0.20395 0.97150
 H1242 H 0.27619 0.22219 0.95283
 H1243 H 0.24017 0.27842 1.04422
 H1244 H 0.25944 0.29389 1.02784
 H1245 H 0.29390 0.22244 0.99151
 H1246 H 0.27786 0.20506 1.00971
 H1247 H 0.22340 0.29496 0.99178
 H1248 H 0.20466 0.27742 1.00980
 C1249 C 0.29052 0.37454 0.78915
 C1250 C 0.29031 0.37593 0.76995
 C1251 C 0.28459 0.39102 0.76425
 C1252 C 0.27966 0.40321 0.77833
 C1253 C 0.29530 0.40459 0.78947
 C1254 C 0.30100 0.38953 0.79516
 C1255 C 0.27252 0.37855 0.79465
 C1256 C 0.26681 0.39363 0.78896
 C1257 C 0.29676 0.35840 0.79540
 C1258 C 0.30209 0.34532 0.80080
 C1259 C 0.27363 0.41953 0.77235
 C1260 C 0.26898 0.43317 0.76778
 H1261 H 0.29428 0.36595 0.76156
 H1262 H 0.28367 0.39396 0.75099
 H1263 H 0.30137 0.41638 0.79262
 H1264 H 0.31195 0.38841 0.80317
 H1265 H 0.26492 0.37026 0.80232
 H1266 H 0.25432 0.39826 0.79176
 C1267 C 0.29021 -0.12570 0.28972
 C1268 C 0.29191 -0.12357 0.27066
 C1269 C 0.28606 -0.10856 0.26491
 C1270 C 0.27908 -0.09717 0.27879
 C1271 C 0.29339 -0.09549 0.29156
 C1272 C 0.29924 -0.11047 0.29730
 C1273 C 0.27156 -0.12277 0.29342
 C1274 C 0.26570 -0.10776 0.28768
 C1275 C 0.29661 -0.14176 0.29603
 C1276 C 0.30209 -0.15476 0.30147
 C1277 C 0.27292 -0.08093 0.27275
 C1278 C 0.26818 -0.06733 0.26812
 H1279 H 0.29724 -0.13302 0.26241
 H1280 H 0.28636 -0.10515 0.25174
 H1281 H 0.29850 -0.08356 0.29573
 H1282 H 0.30935 -0.11138 0.30638
 H1283 H 0.26364 -0.13170 0.29997
 H1284 H 0.25277 -0.10383 0.28930
 C1285 C 0.78900 0.87205 0.78860
 C1286 C 0.78986 0.88612 0.80173
 C1287 C 0.78423 0.90119 0.79601
 C1288 C 0.77827 0.90075 0.77771
 C1289 C 0.76499 0.88683 0.77710
 C1290 C 0.77064 0.87172 0.78283
 C1291 C 0.79885 0.87873 0.77349
 C1292 C 0.79321 0.89381 0.76776
 C1293 C 0.79523 0.85593 0.79493
 C1294 C 0.80066 0.84293 0.80044
 C1295 C 0.77238 0.91713 0.77174
 C1296 C 0.76797 0.93089 0.76728
 H1297 H 0.79449 0.88440 0.81443
 H1298 H 0.78403 0.91237 0.80381
 H1299 H 0.75229 0.88866 0.77255
 H1300 H 0.76278 0.86061 0.78320
 H1301 H 0.80933 0.87217 0.76777
 H1302 H 0.79885 0.90018 0.75714
 C1303 C 0.45869 0.87498 0.29005
 C1304 C 0.46903 0.87662 0.27389
 C1305 C 0.47487 0.86167 0.26794
 C1306 C 0.46979 0.84657 0.27875
 C1307 C 0.45061 0.84745 0.27985
 C1308 C 0.44478 0.86238 0.28578
 C1309 C 0.47018 0.86572 0.30242
 C1310 C 0.47601 0.85079 0.29648
 C1311 C 0.45232 0.89096 0.29657
 C1312 C 0.44687 0.90390 0.30219
 C1313 C 0.47595 0.83039 0.27251
 C1314 C 0.48070 0.81684 0.26777
 H1315 H 0.47154 0.88847 0.26768
 H1316 H 0.48238 0.86070 0.25664
 H1317 H 0.44233 0.83725 0.27627
 H1318 H 0.43150 0.86497 0.28729
 H1319 H 0.47345 0.87049 0.31476
 H1320 H 0.48428 0.84276 0.30373
 C1321 C -0.03945 0.87645 0.79036
 C1322 C -0.04174 0.86202 0.80289
 C1323 C -0.03618 0.84695 0.79707
 C1324 C -0.02886 0.84775 0.77929
 C1325 C -0.01514 0.86122 0.78017
 C1326 C -0.02071 0.87632 0.78600
 C1327 C -0.04836 0.87059 0.77432
 C1328 C -0.04279 0.85550 0.76850
 C1329 C -0.04556 0.89260 0.79673
 C1330 C -0.05086 0.90568 0.80217
 C1331 C -0.02300 0.83142 0.77316
 C1332 C -0.01845 0.81777 0.76849
 H1333 H -0.04724 0.86352 0.81525
 H1334 H -0.03692 0.83553 0.80446
 H1335 H -0.00220 0.85909 0.77654
 H1336 H -0.01254 0.88713 0.78735
 H1337 H -0.05817 0.87768 0.76807
 H1338 H -0.04783 0.84966 0.75727
 C1339 C -0.04053 -0.12510 -0.03969
 C1340 C -0.02152 -0.12275 -0.04151
 C1341 C -0.01590 -0.10768 -0.03566
 C1342 C -0.02985 -0.09645 -0.02857
 C1343 C -0.03853 -0.10716 -0.01515
 C1344 C -0.04415 -0.12222 -0.02100
 C1345 C -0.04832 -0.10995 -0.04866
 C1346 C -0.04271 -0.09490 -0.04282
 C1347 C -0.04668 -0.14122 -0.04610
 C1348 C -0.05196 -0.15429 -0.05160
 C1349 C -0.02392 -0.08015 -0.02243
 C1350 C -0.01931 -0.06653 -0.01774
 H1351 H -0.01321 -0.13210 -0.04689
 H1352 H -0.00278 -0.10412 -0.03604
 H1353 H -0.04011 -0.10325 -0.00219
 H1354 H -0.05054 -0.13123 -0.01305
 H1355 H -0.05744 -0.11095 -0.05872
 H1356 H -0.04703 -0.08302 -0.04788
 C1357 C -0.04003 0.37441 0.46062
 C1358 C -0.02432 0.37311 0.47168
 C1359 C -0.01878 0.38822 0.47751
 C1360 C -0.02951 0.40312 0.47170
 C1361 C -0.04743 0.39884 0.47722
 C1362 C -0.05296 0.38375 0.47140
 C1363 C -0.03532 0.38678 0.44667
 C1364 C -0.02980 0.40187 0.45248
 C1365 C -0.04609 0.35824 0.45424
 C1366 C -0.05131 0.34515 0.44875
 C1367 C -0.02367 0.41947 0.47781
 C1368 C -0.01913 0.43312 0.48247
 H1369 H -0.01809 0.36137 0.47467
 H1370 H -0.00782 0.38943 0.48549
 H1371 H -0.05510 0.40695 0.48503
 H1372 H -0.06536 0.37892 0.47423
 H1373 H -0.03625 0.38395 0.43337
 H1374 H -0.02600 0.41196 0.44417
 C1375 C 0.46061 -0.12580 0.45996
 C1376 C 0.44757 -0.11596 0.47015
 C1377 C 0.45330 -0.10093 0.47596
 C1378 C 0.47151 -0.09721 0.47100
 C1379 C 0.47185 -0.09873 0.45181
 C1380 C 0.46613 -0.11375 0.44601
 C1381 C 0.47589 -0.12734 0.47158
 C1382 C 0.48163 -0.11230 0.47739
 C1383 C 0.45433 -0.14189 0.45360
 C1384 C 0.44893 -0.15493 0.44815
 C1385 C 0.47755 -0.08093 0.47712
 C1386 C 0.48221 -0.06732 0.48179
 H1387 H 0.43495 -0.12040 0.47260
 H1388 H 0.44558 -0.09251 0.48337
 H1389 H 0.47621 -0.08887 0.44350
 H1390 H 0.46559 -0.11676 0.43273
 H1391 H 0.48169 -0.13920 0.47494
 H1392 H 0.49233 -0.11127 0.48573
 C1393 C 0.46060 0.37365 -0.03951
 C1394 C 0.44690 0.38419 -0.03104
 C1395 C 0.45242 0.39933 -0.02533
 C1396 C 0.47111 0.40245 -0.02864
 C1397 C 0.47326 0.40009 -0.04763
 C1398 C 0.46774 0.38495 -0.05334
 C1399 C 0.47465 0.37228 -0.02640
 C1400 C 0.48018 0.38744 -0.02068
 C1401 C 0.45454 0.35744 -0.04577
 C1402 C 0.44931 0.34431 -0.05116
 C1403 C 0.47694 0.41883 -0.02263
 C1404 C 0.48147 0.43252 -0.01805
 H1405 H 0.43399 0.38013 -0.02965
 H1406 H 0.44424 0.40823 -0.01905
 H1407 H 0.47864 0.40949 -0.05587
 H1408 H 0.46840 0.38138 -0.06646
 H1409 H 0.47979 0.36046 -0.02201
 H1410 H 0.49006 0.38860 -0.01139
 C1411 C 0.79030 0.37646 0.46076
 C1412 C 0.77696 0.37827 0.47453
 C1413 C 0.77113 0.36329 0.48039
 C1414 C 0.77922 0.34801 0.47189
 C1415 C 0.79816 0.35038 0.47434
 C1416 C 0.80398 0.36534 0.46849
 C1417 C 0.78207 0.36554 0.44720
 C1418 C 0.77625 0.35059 0.45305
 C1419 C 0.79671 0.39244 0.45430
 C1420 C 0.80227 0.40532 0.44868
 C1421 C 0.77314 0.33176 0.47799
 C1422 C 0.76859 0.31807 0.48251
 H1423 H 0.77250 0.39025 0.47925
 H1424 H 0.76168 0.36243 0.49013
 H1425 H 0.80629 0.34114 0.48016
 H1426 H 0.81709 0.36890 0.46931
 H1427 H 0.78090 0.36923 0.43415
 H1428 H 0.77010 0.34147 0.44500
 C1429 C 0.78836 0.87812 -0.03775
 C1430 C 0.77543 0.87937 -0.02353
 C1431 C 0.76985 0.86416 -0.01804
 C1432 C 0.77774 0.84923 -0.02733
 C1433 C 0.79673 0.85162 -0.02537
 C1434 C 0.80231 0.86680 -0.03084
 C1435 C 0.77976 0.86765 -0.05144
 C1436 C 0.77419 0.85247 -0.04597
 C1437 C 0.79451 0.89434 -0.04382
 C1438 C 0.79988 0.90741 -0.04917
 C1439 C 0.77193 0.83275 -0.02162
 C1440 C 0.76760 0.81891 -0.01737
 H1441 H 0.77107 0.89114 -0.01825
 H1442 H 0.76069 0.86289 -0.00806
 H1443 H 0.80507 0.84221 -0.02012
 H1444 H 0.81542 0.87040 -0.03029
 H1445 H 0.77818 0.87180 -0.06431
 H1446 H 0.76783 0.84362 -0.05415
 C1447 C 0.78895 0.28883 0.37266
 C1448 C 0.78155 0.30263 0.38387
 C1449 C 0.77578 0.29688 0.39887
 C1450 C 0.77799 0.27790 0.40122
 C1451 C 0.79674 0.27466 0.39843
 C1452 C 0.80251 0.28040 0.38342
 C1453 C 0.77500 0.27567 0.37099
 C1454 C 0.76922 0.26991 0.38603
 C1455 C 0.79533 0.29517 0.35663
 C1456 C 0.80090 0.30069 0.34371
 C1457 C 0.77199 0.27190 0.41752
 C1458 C 0.76754 0.26744 0.43125
 H1459 H 0.78087 0.31576 0.38032
 H1460 H 0.77017 0.30510 0.40818
 H1461 H 0.80479 0.26839 0.40744
 H1462 H 0.81549 0.27905 0.37958
 H1463 H 0.77009 0.27126 0.35907
 H1464 H 0.75937 0.26058 0.38700
 C1465 C 0.78857 0.78909 -0.12787
 C1466 C 0.80230 0.78155 -0.11670
 C1467 C 0.79657 0.77596 -0.10162
 C1468 C 0.77765 0.77844 -0.09918
 C1469 C 0.76947 0.76969 -0.11427
 C1470 C 0.77522 0.77530 -0.12937
 C1471 C 0.78040 0.80284 -0.11714
 C1472 C 0.77467 0.79725 -0.10206
 C1473 C 0.79491 0.79527 -0.14399
 C1474 C 0.80043 0.80065 -0.15699
 C1475 C 0.77167 0.77259 -0.08280
 C1476 C 0.76725 0.76818 -0.06904
 H1477 H 0.81539 0.78066 -0.12031
 H1478 H 0.80475 0.77028 -0.09233
 H1479 H 0.76001 0.75997 -0.11319
 H1480 H 0.77068 0.77037 -0.14124
 H1481 H 0.77922 0.81584 -0.12104
 H1482 H 0.76857 0.80545 -0.09306
 C1483 C 0.29036 0.46041 0.87567
 C1484 C 0.27230 0.45496 0.87188
 C1485 C 0.26643 0.46062 0.85686
 C1486 C 0.27920 0.47118 0.84710
 C1487 C 0.29479 0.45998 0.84557
 C1488 C 0.30065 0.45433 0.86058
 C1489 C 0.29020 0.47962 0.87422
 C1490 C 0.28433 0.48528 0.85919
 C1491 C 0.29678 0.45421 0.89175
 C1492 C 0.30229 0.44885 0.90477
 C1493 C 0.27304 0.47715 0.83083
 C1494 C 0.26834 0.48176 0.81722
 H1495 H 0.26477 0.44733 0.88027
 H1496 H 0.25388 0.45785 0.85237
 H1497 H 0.30071 0.45678 0.83374
 H1498 H 0.31159 0.44628 0.86160
 H1499 H 0.29431 0.48803 0.88412
 H1500 H 0.28341 0.49854 0.85621
 C1501 C 0.29005 -0.03961 0.37546
 C1502 C 0.29055 -0.02045 0.37354
 C1503 C 0.28472 -0.01494 0.35844
 C1504 C 0.27895 -0.02914 0.34676
 C1505 C 0.26592 -0.03899 0.35691
 C1506 C 0.27176 -0.04450 0.37200
 C1507 C 0.29994 -0.04642 0.36041
 C1508 C 0.29411 -0.04092 0.34533
 C1509 C 0.29643 -0.04564 0.39162
 C1510 C 0.30189 -0.05084 0.40472
 C1511 C 0.27281 -0.02332 0.33043
 C1512 C 0.26809 -0.01877 0.31681
 H1513 H 0.29508 -0.01196 0.38319
 H1514 H 0.28424 -0.00173 0.35516
 H1515 H 0.25323 -0.04142 0.35263
 H1516 H 0.26407 -0.05164 0.38066
 H1517 H 0.31059 -0.05483 0.36151
 H1518 H 0.29977 -0.04462 0.33351
 C1519 C -0.03972 -0.03944 -0.12567
 C1520 C -0.02069 -0.04116 -0.12341
 C1521 C -0.01505 -0.03543 -0.10830
 C1522 C -0.02900 -0.02856 -0.09695
 C1523 C -0.04173 -0.04292 -0.09551
 C1524 C -0.04737 -0.04863 -0.11060
 C1525 C -0.04348 -0.02080 -0.12258
 C1526 C -0.03783 -0.01508 -0.10748
 C1527 C -0.04591 -0.04571 -0.14183
 C1528 C -0.05125 -0.05110 -0.15492
 C1529 C -0.02306 -0.02254 -0.08061
 C1530 C -0.01849 -0.01792 -0.06695
 H1531 H -0.01238 -0.04639 -0.13284
 H1532 H -0.00190 -0.03576 -0.10479
 H1533 H -0.04596 -0.04814 -0.08368
 H1534 H -0.05642 -0.05874 -0.11168
 H1535 H -0.04998 -0.01280 -0.13147
 H1536 H -0.03950 -0.00217 -0.10343
 C1537 C -0.04084 0.45918 0.37511
 C1538 C -0.03144 0.44594 0.38545
 C1539 C -0.02555 0.45184 0.40038
 C1540 C -0.02963 0.47041 0.40350
 C1541 C -0.04874 0.47168 0.40171
 C1542 C -0.05463 0.46578 0.38679
 C1543 C -0.02846 0.47381 0.37328
 C1544 C -0.02256 0.47972 0.38822
 C1545 C -0.04729 0.45273 0.35913
 C1546 C -0.05282 0.44721 0.34617
 C1547 C -0.02343 0.47664 0.41967
 C1548 C -0.01868 0.48143 0.43321
 H1549 H -0.02957 0.43306 0.38141
 H1550 H -0.01864 0.44402 0.40912
 H1551 H -0.05694 0.47676 0.41133
 H1552 H -0.06787 0.46581 0.38362
 H1553 H -0.02467 0.47907 0.36131
 H1554 H -0.01372 0.49004 0.38906
 C1555 C 0.45949 -0.04112 0.37511
 C1556 C 0.44692 -0.03018 0.38476
 C1557 C 0.45291 -0.02441 0.39969
 C1558 C 0.47088 -0.03013 0.40352
 C1559 C 0.48126 -0.02445 0.38835
 C1560 C 0.47527 -0.03023 0.37340
 C1561 C 0.46439 -0.05512 0.38738
 C1562 C 0.47037 -0.04934 0.40231
 C1563 C 0.45293 -0.04743 0.35912
 C1564 C 0.44730 -0.05283 0.34616
 C1565 C 0.47718 -0.02401 0.41969
 C1566 C 0.48200 -0.01925 0.43320
 H1567 H 0.43442 -0.02723 0.38026
 H1568 H 0.44553 -0.01651 0.40798
 H1569 H 0.49233 -0.01659 0.38926
 H1570 H 0.48120 -0.02733 0.36150
 H1571 H 0.46326 -0.06841 0.38458
 H1572 H 0.47437 -0.05769 0.41230
 C1573 C 0.45913 0.45823 -0.12520
 C1574 C 0.47190 0.47250 -0.12722
 C1575 C 0.47792 0.47847 -0.11236
 C1576 C 0.47058 0.46959 -0.09695
 C1577 C 0.47417 0.45087 -0.09978
 C1578 C 0.46816 0.44491 -0.11463
 C1579 C 0.44550 0.46537 -0.11365
 C1580 C 0.45151 0.47134 -0.09881
 C1581 C 0.45254 0.45170 -0.14109
 C1582 C 0.44689 0.44612 -0.15397
 C1583 C 0.47691 0.47588 -0.08086
 C1584 C 0.48173 0.48073 -0.06737
 H1585 H 0.47586 0.47746 -0.13926
 H1586 H 0.48704 0.48856 -0.11166
 H1587 H 0.48085 0.44300 -0.09091
 H1588 H 0.46969 0.43192 -0.11847
 H1589 H 0.43227 0.46572 -0.11685
 H1590 H 0.44344 0.47679 -0.08929
 C1591 C 0.46066 0.79041 0.37565
 C1592 C 0.47141 0.77449 0.37704
 C1593 C 0.47702 0.76867 0.36195
 C1594 C 0.47133 0.77936 0.34699
 C1595 C 0.47723 0.79723 0.35107
 C1596 C 0.47162 0.80304 0.36614
 C1597 C 0.44654 0.78584 0.36338
 C1598 C 0.45215 0.78003 0.34832
 C1599 C 0.45451 0.79678 0.39178
 C1600 C 0.44919 0.80223 0.40485
 C1601 C 0.47723 0.77323 0.33067
 C1602 C 0.48177 0.76853 0.31704
 H1603 H 0.47435 0.76833 0.38881
 H1604 H 0.48477 0.75753 0.36081
 H1605 H 0.48512 0.80467 0.34286
 H1606 H 0.47472 0.81545 0.37083
 H1607 H 0.43330 0.78705 0.36627
 H1608 H 0.44370 0.77627 0.33831
 C1609 C -0.03974 0.79139 0.87568
 C1610 C -0.03927 0.80486 0.86195
 C1611 C -0.03364 0.79907 0.84689
 C1612 C -0.02902 0.78037 0.84704
 C1613 C -0.04482 0.77137 0.85330
 C1614 C -0.05045 0.77717 0.86836
 C1615 C -0.02185 0.78431 0.87637
 C1616 C -0.01621 0.77851 0.86130
 C1617 C -0.04592 0.79771 0.89182
 C1618 C -0.05128 0.80309 0.90490
 C1619 C -0.02308 0.77425 0.83074
 C1620 C -0.01848 0.76950 0.81714
 H1621 H -0.04303 0.81781 0.86387
 H1622 H -0.03259 0.80707 0.83593
 H1623 H -0.05103 0.76133 0.84651
 H1624 H -0.06149 0.77208 0.87447
 H1625 H -0.01429 0.78388 0.88769
 H1626 H -0.00382 0.77312 0.85970
 C1627 C 0.37460 0.79064 0.29002
 C1628 C 0.38450 0.78080 0.30328
 C1629 C 0.39952 0.77494 0.29765
 C1630 C 0.40318 0.77948 0.27931
 C1631 C 0.40157 0.79866 0.27852
 C1632 C 0.38655 0.80452 0.28415
 C1633 C 0.37307 0.77865 0.27500
 C1634 C 0.38811 0.77278 0.26937
 C1635 C 0.35850 0.79704 0.29618
 C1636 C 0.34544 0.80250 0.30147
 C1637 C 0.41943 0.77329 0.27336
 C1638 C 0.43300 0.76853 0.26871
 H1639 H 0.38010 0.77863 0.31597
 H1640 H 0.40799 0.76776 0.30553
 H1641 H 0.41137 0.80692 0.27396
 H1642 H 0.38348 0.81779 0.28439
 H1643 H 0.36123 0.77508 0.26931
 H1644 H 0.38916 0.76418 0.25885
 C1645 C -0.12619 0.78922 0.78978
 C1646 C -0.12678 0.78123 0.77225
 C1647 C -0.11158 0.77566 0.76675
 C1648 C -0.09729 0.77863 0.77933
 C1649 C -0.10313 0.77023 0.79562
 C1650 C -0.11832 0.77580 0.80112
 C1651 C -0.11292 0.80309 0.78852
 C1652 C -0.09774 0.79753 0.78303
 C1653 C -0.14246 0.79533 0.79580
 C1654 C -0.15564 0.80061 0.80098
 C1655 C -0.08085 0.77278 0.77352
 C1656 C -0.06715 0.76827 0.76902
 H1657 H -0.13813 0.78004 0.76482
 H1658 H -0.10990 0.76970 0.75462
 H1659 H -0.09597 0.76074 0.80226
 H1660 H -0.12417 0.77107 0.81246
 H1661 H -0.11524 0.81615 0.79166
 H1662 H -0.08706 0.80583 0.78147
 C1663 C 0.87727 0.28840 0.46077
 C1664 C 0.86597 0.30207 0.46827
 C1665 C 0.85101 0.29619 0.47397
 C1666 C 0.84879 0.27720 0.47163
 C1667 C 0.86400 0.26926 0.48037
 C1668 C 0.87900 0.27516 0.47465
 C1669 C 0.86658 0.27999 0.44713
 C1670 C 0.85162 0.27411 0.45284
 C1671 C 0.89325 0.29491 0.45447
 C1672 C 0.90612 0.30060 0.44898
 C1673 C 0.83252 0.27109 0.47759
 C1674 C 0.81880 0.26662 0.48205
 H1675 H 0.86943 0.31523 0.46905
 H1676 H 0.84165 0.30431 0.47963
 H1677 H 0.86308 0.25986 0.49016
 H1678 H 0.89093 0.27081 0.47954
 H1679 H 0.87044 0.27875 0.43414
 H1680 H 0.84266 0.26783 0.44473
 C1681 C 0.87689 0.78977 -0.03929
 C1682 C 0.86561 0.80337 -0.03163
 C1683 C 0.85066 0.79743 -0.02596
 C1684 C 0.84842 0.77847 -0.02849
 C1685 C 0.86364 0.77043 -0.01987
 C1686 C 0.87863 0.77638 -0.02555
 C1687 C 0.86617 0.78150 -0.05299
 C1688 C 0.85121 0.77556 -0.04732
 C1689 C 0.89287 0.79632 -0.04556
 C1690 C 0.90574 0.80202 -0.05103
 C1691 C 0.83216 0.77229 -0.02257
 C1692 C 0.81846 0.76774 -0.01814
 H1693 H 0.86908 0.81651 -0.03073
 H1694 H 0.84131 0.80550 -0.02020
 H1695 H 0.86274 0.76093 -0.01017
 H1696 H 0.89057 0.77197 -0.02072
 H1697 H 0.87001 0.78039 -0.06601
 H1698 H 0.84224 0.76937 -0.05548
 C1699 C -0.12650 -0.03833 -0.03891
 C1700 C -0.11167 -0.04743 -0.04712
 C1701 C -0.09644 -0.04196 -0.04168
 C1702 C -0.09752 -0.02791 -0.02855
 C1703 C -0.10858 -0.03503 -0.01452
 C1704 C -0.12383 -0.04051 -0.01996
 C1705 C -0.12339 -0.01962 -0.04226
 C1706 C -0.10815 -0.01414 -0.03682
 C1707 C -0.14282 -0.04434 -0.04487
 C1708 C -0.15605 -0.04955 -0.05001
 C1709 C -0.08104 -0.02213 -0.02280
 C1710 C -0.06732 -0.01766 -0.01830
 H1711 H -0.11301 -0.05732 -0.05641
 H1712 H -0.08474 -0.04716 -0.04631
 H1713 H -0.10478 -0.03569 -0.00145
 H1714 H -0.13309 -0.04587 -0.01157
 H1715 H -0.13238 -0.01141 -0.04836
 H1716 H -0.10407 -0.00123 -0.03825
 C1717 C -0.12542 0.45985 0.45934
 C1718 C -0.11292 0.46421 0.44539
 C1719 C -0.09794 0.46998 0.45120
 C1720 C -0.09691 0.47084 0.47041
 C1721 C -0.10117 0.45305 0.47641
 C1722 C -0.11615 0.44728 0.47059
 C1723 C -0.12691 0.47589 0.46992
 C1724 C -0.11190 0.48167 0.47575
 C1725 C -0.14148 0.45352 0.45298
 C1726 C -0.15449 0.44807 0.44756
 C1727 C -0.08068 0.47692 0.47656
 C1728 C -0.06713 0.48162 0.48132
 H1729 H -0.11561 0.46288 0.43210
 H1730 H -0.08779 0.47359 0.44289
 H1731 H -0.09312 0.44564 0.48452
 H1732 H -0.12095 0.43492 0.47372
 H1733 H -0.13869 0.48215 0.47260
 H1734 H -0.11083 0.49288 0.48342
 C1735 C 0.37492 -0.03902 0.45972
 C1736 C 0.37359 -0.02739 0.47503
 C1737 C 0.38871 -0.02178 0.48072
 C1738 C 0.40365 -0.02837 0.47053
 C1739 C 0.39990 -0.02335 0.45232
 C1740 C 0.38479 -0.02895 0.44665
 C1741 C 0.38681 -0.05314 0.46518
 C1742 C 0.40191 -0.04754 0.47086
 C1743 C 0.35874 -0.04517 0.45351
 C1744 C 0.34564 -0.05050 0.44819
 C1745 C 0.42001 -0.02247 0.47651
 C1746 C 0.43366 -0.01793 0.48113
 H1747 H 0.36182 -0.02387 0.48089
 H1748 H 0.38990 -0.01346 0.49144
 H1749 H 0.40835 -0.01603 0.44458
 H1750 H 0.38031 -0.02642 0.43404
 H1751 H 0.38365 -0.06638 0.46464
 H1752 H 0.41169 -0.05599 0.47517
 C1753 C 0.37474 0.45984 -0.04077
 C1754 C 0.37332 0.47469 -0.02856
 C1755 C 0.38841 0.48032 -0.02283
 C1756 C 0.40343 0.47056 -0.02989
 C1757 C 0.40153 0.47161 -0.04902
 C1758 C 0.38646 0.46598 -0.05474
 C1759 C 0.38486 0.44650 -0.03128
 C1760 C 0.39994 0.45213 -0.02556
 C1761 C 0.35859 0.45367 -0.04702
 C1762 C 0.34548 0.44835 -0.05236
 C1763 C 0.41974 0.47651 -0.02385
 C1764 C 0.43335 0.48112 -0.01916
 H1765 H 0.36150 0.48027 -0.02474
 H1766 H 0.38953 0.49074 -0.01411
 H1767 H 0.41119 0.47635 -0.05735
 H1768 H 0.38320 0.46591 -0.06796
 H1769 H 0.38056 0.43374 -0.02922
 H1770 H 0.40855 0.44420 -0.01861
 C1771 C 0.37461 0.45879 0.79146
 C1772 C 0.37231 0.47772 0.79419
 C1773 C 0.35744 0.48373 0.78827
 C1774 C 0.34634 0.47022 0.78020
 C1775 C 0.34437 0.45666 0.79371
 C1776 C 0.35922 0.45066 0.79963
 C1777 C 0.37220 0.45612 0.77253
 C1778 C 0.35733 0.46213 0.76661
 C1779 C 0.39052 0.45222 0.79792
 C1780 C 0.40343 0.44661 0.80343
 C1781 C 0.33025 0.47655 0.77395
 C1782 C 0.31678 0.48141 0.76911
 H1783 H 0.38154 0.48570 0.80024
 H1784 H 0.35393 0.49686 0.78924
 H1785 H 0.33235 0.45217 0.79824
 H1786 H 0.35992 0.44103 0.80922
 H1787 H 0.38137 0.45006 0.76449
 H1788 H 0.35376 0.46122 0.75350
 C1789 C 0.37455 -0.04023 0.29097
 C1790 C 0.35928 -0.04777 0.29989
 C1791 C 0.34436 -0.04187 0.29406
 C1792 C 0.34615 -0.02900 0.27987
 C1793 C 0.35670 -0.03785 0.26642
 C1794 C 0.37164 -0.04376 0.27226
 C1795 C 0.37253 -0.02116 0.29286
 C1796 C 0.35758 -0.01525 0.28702
 C1797 C 0.39053 -0.04671 0.29734
 C1798 C 0.40348 -0.05230 0.30277
 C1799 C 0.32997 -0.02280 0.27372
 C1800 C 0.31642 -0.01808 0.26897
 H1801 H 0.36011 -0.05695 0.30992
 H1802 H 0.33241 -0.04599 0.29910
 H1803 H 0.35279 -0.03934 0.25346
 H1804 H 0.38053 -0.05031 0.26429
 H1805 H 0.38200 -0.01302 0.29829
 H1806 H 0.35425 -0.00205 0.28745
 C1807 C 0.12162 0.53798 0.71308
 C1808 C 0.13307 0.53178 0.69892
 C1809 C 0.14836 0.52644 0.70433
 C1810 C 0.15072 0.52782 0.72339
 C1811 C 0.13603 0.51797 0.73096
 C1812 C 0.12071 0.52332 0.72553
 C1813 C 0.13178 0.55161 0.72215
 C1814 C 0.14707 0.54627 0.72756
 C1815 C 0.10527 0.54389 0.70708
 C1816 C 0.09208 0.54907 0.70181
 C1817 C 0.16731 0.52223 0.72903
 C1818 C 0.18120 0.51801 0.73322
 H1819 H 0.12948 0.53158 0.68578
 H1820 H 0.15786 0.52167 0.69583
 H1821 H 0.13752 0.50772 0.73979
 H1822 H 0.10907 0.51765 0.72971
 H1823 H 0.12734 0.56433 0.72416
 H1824 H 0.15573 0.55442 0.73420
 C1825 C 0.12117 0.03727 0.21246
 C1826 C 0.12720 0.02115 0.20380
 C1827 C 0.14249 0.01579 0.20922
 C1828 C 0.15025 0.02707 0.22277
 C1829 C 0.13704 0.02798 0.23673
 C1830 C 0.12173 0.03335 0.23130
 C1831 C 0.13526 0.05005 0.20962
 C1832 C 0.15053 0.04469 0.21503
 C1833 C 0.10483 0.04320 0.20646
 C1834 C 0.09166 0.04841 0.20118
 C1835 C 0.16684 0.02148 0.22842
 C1836 C 0.18073 0.01729 0.23265
 H1837 H 0.12007 0.01451 0.19427
 H1838 H 0.14847 0.00456 0.20434
 H1839 H 0.13948 0.02469 0.24972
 H1840 H 0.11106 0.03466 0.23964
 H1841 H 0.13341 0.06225 0.20386
 H1842 H 0.16176 0.05231 0.21391
 C1843 C 0.62762 0.71164 0.21154
 C1844 C 0.61311 0.70827 0.19934
 C1845 C 0.59799 0.71371 0.20506
 C1846 C 0.59881 0.72201 0.22242
 C1847 C 0.61185 0.73606 0.22065
 C1848 C 0.62701 0.73061 0.21492
 C1849 C 0.62224 0.70344 0.22810
 C1850 C 0.60709 0.70890 0.23382
 C1851 C 0.64379 0.70561 0.20522
 C1852 C 0.65683 0.70032 0.19972
 C1853 C 0.58237 0.72771 0.22837
 C1854 C 0.56857 0.73200 0.23275
 H1855 H 0.61459 0.70214 0.18726
 H1856 H 0.58652 0.71225 0.19787
 H1857 H 0.60939 0.74913 0.22364
 H1858 H 0.63755 0.73900 0.21300
 H1859 H 0.62969 0.69419 0.23475
 H1860 H 0.60157 0.70432 0.24538
 C1861 C 0.12763 0.71226 0.71174
 C1862 C 0.12628 0.73145 0.71289
 C1863 C 0.11110 0.73692 0.71856
 C1864 C 0.09879 0.72267 0.72252
 C1865 C 0.10808 0.71136 0.73504
 C1866 C 0.12324 0.70589 0.72937
 C1867 C 0.11286 0.70686 0.70065
 C1868 C 0.09772 0.71232 0.70631
 C1869 C 0.14383 0.70621 0.70550
 C1870 C 0.15689 0.70090 0.70007
 C1871 C 0.08235 0.72838 0.72843
 C1872 C 0.06855 0.73268 0.73282
 H1873 H 0.13634 0.73997 0.70956
 H1874 H 0.10817 0.75014 0.72009
 H1875 H 0.10319 0.70798 0.74728
 H1876 H 0.13135 0.69781 0.73676
 H1877 H 0.11417 0.69939 0.68933
 H1878 H 0.08607 0.70954 0.69982
 C1879 C 0.62350 0.21151 0.53816
 C1880 C 0.62640 0.23038 0.54073
 C1881 C 0.64167 0.23575 0.53530
 C1882 C 0.65255 0.22172 0.52783
 C1883 C 0.64176 0.21385 0.51394
 C1884 C 0.62648 0.20848 0.51938
 C1885 C 0.63829 0.20294 0.54701
 C1886 C 0.65355 0.20830 0.54158
 C1887 C 0.60716 0.20562 0.54413
 C1888 C 0.59393 0.20050 0.54931
 C1889 C 0.66907 0.22737 0.52211
 C1890 C 0.68284 0.23173 0.51772
 H1891 H 0.61725 0.23879 0.54632
 H1892 H 0.64562 0.24876 0.53622
 H1893 H 0.64576 0.21261 0.50099
 H1894 H 0.61740 0.20265 0.51108
 H1895 H 0.63690 0.19348 0.55670
 H1896 H 0.66522 0.20343 0.54663
 C1897 C 0.62375 0.71100 0.03838
 C1898 C 0.63437 0.69717 0.03020
 C1899 C 0.64956 0.70261 0.02464
 C1900 C 0.65266 0.72136 0.02780
 C1901 C 0.65008 0.72374 0.04673
 C1902 C 0.63489 0.71830 0.05229
 C1903 C 0.62255 0.72491 0.02512
 C1904 C 0.63776 0.73036 0.01955
 C1905 C 0.60748 0.70503 0.04449
 C1906 C 0.59430 0.69986 0.04975
 C1907 C 0.66910 0.72711 0.02194
 C1908 C 0.68280 0.73160 0.01746
 H1909 H 0.63030 0.68423 0.02888
 H1910 H 0.65851 0.69434 0.01856
 H1911 H 0.65938 0.72922 0.05504
 H1912 H 0.63118 0.71913 0.06536
 H1913 H 0.61081 0.73002 0.02051
 H1914 H 0.63905 0.74013 0.01017
 C1915 C 0.12757 0.03916 0.03807
 C1916 C 0.12776 0.03336 0.01969
 C1917 C 0.11260 0.02774 0.01411
 C1918 C 0.09876 0.02847 0.02747
 C1919 C 0.09851 0.04679 0.03343
 C1920 C 0.11363 0.05240 0.03899
 C1921 C 0.12083 0.02409 0.04797
 C1922 C 0.10569 0.01848 0.04240
 C1923 C 0.14374 0.04535 0.04423
 C1924 C 0.15679 0.05074 0.04966
 C1925 C 0.08233 0.02261 0.02167
 C1926 C 0.06852 0.01823 0.01737
 H1927 H 0.13882 0.03364 0.01177
 H1928 H 0.11066 0.02320 0.00141
 H1929 H 0.08741 0.05468 0.03327
 H1930 H 0.11549 0.06509 0.04360
 H1931 H 0.12739 0.01833 0.05842
 H1932 H 0.09927 0.00790 0.04808
 C1933 C 0.12750 0.53909 0.53797
 C1934 C 0.12879 0.52641 0.52351
 C1935 C 0.11362 0.52078 0.51795
 C1936 C 0.09868 0.52841 0.52741
 C1937 C 0.10091 0.54747 0.52581
 C1938 C 0.11605 0.55308 0.53135
 C1939 C 0.11717 0.53017 0.55152
 C1940 C 0.10203 0.52456 0.54597
 C1941 C 0.14369 0.54528 0.54412
 C1942 C 0.15674 0.55066 0.54952
 C1943 C 0.08224 0.52255 0.52163
 C1944 C 0.06844 0.51816 0.51734
 H1945 H 0.14056 0.52222 0.51812
 H1946 H 0.11239 0.51178 0.50780
 H1947 H 0.09143 0.55583 0.52074
 H1948 H 0.11954 0.56624 0.53104
 H1949 H 0.12139 0.52840 0.56435
 H1950 H 0.09327 0.51799 0.55405
 C1951 C 0.62750 0.04012 0.53920
 C1952 C 0.62822 0.03388 0.52098
 C1953 C 0.61326 0.02796 0.51516
 C1954 C 0.59908 0.02887 0.52814
 C1955 C 0.59849 0.04733 0.53364
 C1956 C 0.61342 0.05323 0.53944
 C1957 C 0.62066 0.02523 0.54929
 C1958 C 0.60572 0.01932 0.54348
 C1959 C 0.64346 0.04662 0.54563
 C1960 C 0.65632 0.05222 0.55125
 C1961 C 0.58285 0.02271 0.52208
 C1962 C 0.56917 0.01812 0.51757
 H1963 H 0.63947 0.03408 0.51334
 H1964 H 0.61169 0.02309 0.50253
 H1965 H 0.58732 0.05509 0.53301
 H1966 H 0.61503 0.06605 0.54379
 H1967 H 0.62700 0.01979 0.56004
 H1968 H 0.59926 0.00882 0.54925
 C1969 C 0.62802 0.53860 0.03736
 C1970 C 0.61601 0.55272 0.03218
 C1971 C 0.60087 0.54712 0.02661
 C1972 C 0.59921 0.52793 0.02675
 C1973 C 0.60319 0.52273 0.04485
 C1974 C 0.61833 0.52834 0.05042
 C1975 C 0.62924 0.52713 0.02190
 C1976 C 0.61407 0.52152 0.01632
 C1977 C 0.64420 0.54478 0.04353
 C1978 C 0.65725 0.55016 0.04895
 C1979 C 0.58277 0.52207 0.02095
 C1980 C 0.56897 0.51768 0.01664
 H1981 H 0.61912 0.56596 0.03282
 H1982 H 0.59103 0.55557 0.02248
 H1983 H 0.59486 0.51528 0.05261
 H1984 H 0.62297 0.52568 0.06295
 H1985 H 0.64096 0.52373 0.01589
 H1986 H 0.61280 0.51331 0.00552
 C1987 C 0.03746 0.03743 0.12869
 C1988 C 0.03886 0.05076 0.11490
 C1989 C 0.03350 0.04537 0.09960
 C1990 C 0.02727 0.02715 0.09956
 C1991 C 0.01365 0.02654 0.11314
 C1992 C 0.01901 0.03195 0.12848
 C1993 C 0.04725 0.02225 0.12199
 C1994 C 0.04189 0.01685 0.10668
 C1995 C 0.04339 0.04341 0.14506
 C1996 C 0.04859 0.04868 0.15825
 C1997 C 0.02167 0.02154 0.08296
 C1998 C 0.01746 0.01738 0.06904
 H1999 H 0.04362 0.06336 0.11696
 H2000 H 0.03369 0.05334 0.08857
 H2001 H 0.00093 0.02223 0.11092
 H2002 H 0.01089 0.03227 0.13939
 H2003 H 0.05747 0.01626 0.12870
 H2004 H 0.04753 0.00623 0.10026
 C2005 C 0.03744 0.53750 0.62859
 C2006 C 0.02391 0.52384 0.62956
 C2007 C 0.01852 0.51843 0.61424
 C2008 C 0.02720 0.52722 0.59948
 C2009 C 0.04602 0.52450 0.60244
 C2010 C 0.05140 0.52990 0.61773
 C2011 C 0.02972 0.55143 0.61778
 C2012 C 0.02434 0.54603 0.60249
 C2013 C 0.04339 0.54349 0.64494
 C2014 C 0.04860 0.54877 0.65813
 C2015 C 0.02157 0.52159 0.58289
 C2016 C 0.01734 0.51740 0.56899
 H2017 H 0.01900 0.51887 0.64124
 H2018 H 0.00899 0.50882 0.61278
 H2019 H 0.05438 0.51881 0.59332
 H2020 H 0.06437 0.52884 0.62172
 H2021 H 0.02857 0.56440 0.62179
 H2022 H 0.01858 0.55438 0.59340
 C2023 C 0.53909 0.03804 0.62796
 C2024 C 0.54024 0.05120 0.61398
 C2025 C 0.53471 0.04559 0.59882
 C2026 C 0.52857 0.02734 0.59910
 C2027 C 0.51513 0.02683 0.61287
 C2028 C 0.52067 0.03246 0.62806
 C2029 C 0.54887 0.02282 0.62132
 C2030 C 0.54334 0.01720 0.60615
 C2031 C 0.54521 0.04425 0.64417
 C2032 C 0.55057 0.04968 0.65723
 C2033 C 0.52280 0.02149 0.58263
 C2034 C 0.51847 0.01714 0.56881
 H2035 H 0.54497 0.06384 0.61582
 H2036 H 0.53471 0.05342 0.58769
 H2037 H 0.50241 0.02243 0.61087
 H2038 H 0.51270 0.03289 0.63907
 H2039 H 0.55922 0.01697 0.62796
 H2040 H 0.54894 0.00653 0.59979
 C2041 C 0.53778 0.53696 0.12799
 C2042 C 0.53198 0.55119 0.11640
 C2043 C 0.52665 0.54579 0.10109
 C2044 C 0.52764 0.52668 0.09885
 C2045 C 0.51752 0.51941 0.11352
 C2046 C 0.52286 0.52482 0.12886
 C2047 C 0.55127 0.52755 0.11800
 C2048 C 0.54594 0.52215 0.10268
 C2049 C 0.54367 0.54294 0.14437
 C2050 C 0.54884 0.54821 0.15757
 C2051 C 0.52207 0.52106 0.08224
 C2052 C 0.51787 0.51687 0.06832
 H2053 H 0.53203 0.56435 0.11992
 H2054 H 0.52214 0.55433 0.09149
 H2055 H 0.50710 0.51079 0.11199
 H2056 H 0.51702 0.52083 0.14048
 H2057 H 0.56390 0.52530 0.12256
 H2058 H 0.55400 0.51528 0.09412
 C2059 C 0.21162 0.53864 0.62243
 C2060 C 0.22579 0.52566 0.62110
 C2061 C 0.23131 0.51998 0.63627
 C2062 C 0.22209 0.52784 0.65124
 C2063 C 0.20345 0.52436 0.64800
 C2064 C 0.19795 0.53003 0.63286
 C2065 C 0.21858 0.55253 0.63381
 C2066 C 0.22408 0.54686 0.64895
 C2067 C 0.20553 0.54491 0.60624
 C2068 C 0.20021 0.55039 0.59320
 C2069 C 0.22785 0.52194 0.66769
 C2070 C 0.23218 0.51758 0.68149
 H2071 H 0.23103 0.52132 0.60930
 H2072 H 0.24127 0.51077 0.63747
 H2073 H 0.19529 0.51798 0.65683
 H2074 H 0.18507 0.52851 0.62871
 H2075 H 0.21915 0.56567 0.63028
 H2076 H 0.22936 0.55515 0.65839
 C2077 C 0.21097 0.03809 0.12206
 C2078 C 0.20926 0.05095 0.13630
 C2079 C 0.21476 0.04521 0.15140
 C2080 C 0.22145 0.02716 0.15083
 C2081 C 0.23507 0.02730 0.13723
 C2082 C 0.22955 0.03306 0.12209
 C2083 C 0.20158 0.02248 0.12825
 C2084 C 0.20708 0.01673 0.14338
 C2085 C 0.20488 0.04444 0.10591
 C2086 C 0.19954 0.04997 0.09289
 C2087 C 0.22721 0.02119 0.16724
 C2088 C 0.23154 0.01679 0.18104
 H2089 H 0.20417 0.06348 0.13466
 H2090 H 0.21438 0.05283 0.16270
 H2091 H 0.24789 0.02324 0.13930
 H2092 H 0.23765 0.03392 0.11119
 H2093 H 0.19150 0.01646 0.12135
 H2094 H 0.20173 0.00578 0.14943
 C2095 C 0.71012 0.20911 0.62528
 C2096 C 0.72930 0.20942 0.62382
 C2097 C 0.73490 0.21526 0.60877
 C2098 C 0.72077 0.22021 0.59667
 C2099 C 0.71011 0.23297 0.60639
 C2100 C 0.70450 0.22713 0.62144
 C2101 C 0.70413 0.19868 0.61023
 C2102 C 0.70973 0.20452 0.59520
 C2103 C 0.70399 0.20272 0.64139
 C2104 C 0.69872 0.19725 0.65445
 C2105 C 0.72670 0.22636 0.58039
 C2106 C 0.73133 0.23107 0.56681
 H2107 H 0.73773 0.20542 0.63373
 H2108 H 0.74814 0.21626 0.60579
 H2109 H 0.70723 0.24549 0.60186
 H2110 H 0.69682 0.23465 0.62980
 H2111 H 0.69619 0.18767 0.61129
 H2112 H 0.70658 0.19850 0.58338
 C2113 C 0.71064 0.71100 0.12574
 C2114 C 0.72172 0.72671 0.12675
 C2115 C 0.72719 0.73217 0.11150
 C2116 C 0.72103 0.72138 0.09677
 C2117 C 0.70187 0.72114 0.09843
 C2118 C 0.69641 0.71569 0.11366
 C2119 C 0.72118 0.69799 0.11622
 C2120 C 0.72664 0.70345 0.10099
 C2121 C 0.70466 0.70501 0.14207
 C2122 C 0.69953 0.69982 0.15530
 C2123 C 0.72682 0.72715 0.08030
 C2124 C 0.73133 0.73164 0.06660
 H2125 H 0.72499 0.73298 0.13839
 H2126 H 0.73515 0.74313 0.11008
 H2127 H 0.69334 0.72493 0.08851
 H2128 H 0.68320 0.71480 0.11679
 H2129 H 0.72410 0.68559 0.12102
 H2130 H 0.73424 0.69572 0.09274
 C2131 C 0.53865 0.71197 0.12213
 C2132 C 0.53980 0.69873 0.13605
 C2133 C 0.53416 0.70423 0.15120
 C2134 C 0.52790 0.72244 0.15098
 C2135 C 0.51453 0.72295 0.13712
 C2136 C 0.52019 0.71744 0.12194
 C2137 C 0.54829 0.72720 0.12892
 C2138 C 0.54264 0.73270 0.14408
 C2139 C 0.54488 0.70587 0.10593
 C2140 C 0.55029 0.70052 0.09286
 C2141 C 0.52201 0.72819 0.16743
 C2142 C 0.51761 0.73247 0.18125
 H2143 H 0.54463 0.68613 0.13417
 H2144 H 0.53415 0.69634 0.16229
 H2145 H 0.50177 0.72727 0.13906
 H2146 H 0.51227 0.71703 0.11087
 H2147 H 0.55863 0.73314 0.12238
 H2148 H 0.54814 0.74337 0.15053
 C2149 C 0.03900 0.71265 0.62244
 C2150 C 0.03254 0.73080 0.62205
 C2151 C 0.02684 0.73637 0.63720
 C2152 C 0.02817 0.72324 0.65121
 C2153 C 0.04668 0.71797 0.65140
 C2154 C 0.05236 0.71241 0.63629
 C2155 C 0.02438 0.70228 0.62944
 C2156 C 0.01869 0.70785 0.64457
 C2157 C 0.04526 0.70647 0.60628
 C2158 C 0.05068 0.70104 0.59325
 C2159 C 0.02223 0.72904 0.66764
 C2160 C 0.01780 0.73336 0.68143
 H2161 H 0.03244 0.73857 0.61088
 H2162 H 0.02186 0.74892 0.63901
 H2163 H 0.05463 0.71857 0.66244
 H2164 H 0.06518 0.70825 0.63439
 H2165 H 0.01896 0.69153 0.62306
 H2166 H 0.00840 0.70187 0.65115
 C2167 C 0.53723 0.62141 0.21226
 C2168 C 0.54459 0.62669 0.22926
 C2169 C 0.53916 0.64199 0.23464
 C2170 C 0.52689 0.65051 0.22248
 C2171 C 0.51271 0.63775 0.21991
 C2172 C 0.51815 0.62243 0.21453
 C2173 C 0.54159 0.63580 0.20026
 C2174 C 0.53616 0.65109 0.20563
 C2175 C 0.54325 0.60506 0.20632
 C2176 C 0.54854 0.59188 0.20112
 C2177 C 0.52123 0.66710 0.22809
 C2178 C 0.51700 0.68100 0.23230
 H2179 H 0.55328 0.61907 0.23645
 H2180 H 0.54319 0.64748 0.24644
 H2181 H 0.49957 0.64049 0.22214
 H2182 H 0.50967 0.61205 0.21215
 H2183 H 0.54834 0.63414 0.18856
 H2184 H 0.53826 0.66250 0.19852
 C2185 C 0.03707 0.62208 0.71267
 C2186 C 0.03131 0.62226 0.73105
 C2187 C 0.02588 0.63759 0.73638
 C2188 C 0.02673 0.65122 0.72281
 C2189 C 0.01664 0.64417 0.70799
 C2190 C 0.02208 0.62885 0.70266
 C2191 C 0.05044 0.63586 0.71153
 C2192 C 0.04502 0.65116 0.71685
 C2193 C 0.04308 0.60571 0.70677
 C2194 C 0.04837 0.59252 0.70160
 C2195 C 0.02108 0.66783 0.72837
 C2196 C 0.01690 0.68175 0.73257
 H2197 H 0.03149 0.61131 0.73914
 H2198 H 0.02139 0.63979 0.74905
 H2199 H 0.00614 0.65062 0.70221
 H2200 H 0.01623 0.62218 0.69232
 H2201 H 0.06309 0.63378 0.70694
 H2202 H 0.05302 0.66218 0.71682
 C2203 C 0.03830 0.12826 0.03870
 C2204 C 0.03877 0.12632 0.01955
 C2205 C 0.03309 0.11114 0.01405
 C2206 C 0.02751 0.09941 0.02825
 C2207 C 0.01439 0.10945 0.03814
 C2208 C 0.02006 0.12462 0.04364
 C2209 C 0.04838 0.11333 0.04548
 C2210 C 0.04272 0.09818 0.03999
 C2211 C 0.04456 0.14447 0.04477
 C2212 C 0.05003 0.15754 0.05007
 C2213 C 0.02160 0.08296 0.02251
 C2214 C 0.01720 0.06914 0.01820
 H2215 H 0.04315 0.13601 0.01106
 H2216 H 0.03261 0.10782 0.00084
 H2217 H 0.00176 0.10504 0.04059
 H2218 H 0.01229 0.13321 0.05080
 H2219 H 0.05905 0.11455 0.05385
 H2220 H 0.04854 0.08643 0.04366
 C2221 C 0.03848 0.62801 0.53848
 C2222 C 0.02971 0.61771 0.55215
 C2223 C 0.02396 0.60258 0.54668
 C2224 C 0.02754 0.59921 0.52807
 C2225 C 0.04656 0.60135 0.52620
 C2226 C 0.05231 0.61648 0.53167
 C2227 C 0.02563 0.62936 0.52420
 C2228 C 0.01986 0.61420 0.51871
 C2229 C 0.04483 0.64419 0.54453
 C2230 C 0.05036 0.65724 0.54984
 C2231 C 0.02154 0.58277 0.52235
 C2232 C 0.01709 0.56897 0.51805
 H2233 H 0.02813 0.62195 0.56500
 H2234 H 0.01746 0.59385 0.55485
 H2235 H 0.05480 0.59182 0.52102
 H2236 H 0.06547 0.61991 0.53117
 H2237 H 0.02143 0.64116 0.51887
 H2238 H 0.01073 0.61301 0.50869
 C2239 C 0.53830 0.12808 0.53769
 C2240 C 0.53838 0.12617 0.51853
 C2241 C 0.53281 0.11091 0.51313
 C2242 C 0.52773 0.09909 0.52744
 C2243 C 0.51468 0.10891 0.53763
 C2244 C 0.52024 0.12416 0.54303
 C2245 C 0.54876 0.11330 0.54422
 C2246 C 0.54321 0.09808 0.53883
 C2247 C 0.54445 0.14437 0.54366
 C2248 C 0.54982 0.15750 0.54891
 C2249 C 0.52195 0.08255 0.52181
 C2250 C 0.51768 0.06867 0.51758
 H2251 H 0.54242 0.13594 0.50996
 H2252 H 0.53209 0.10760 0.49994
 H2253 H 0.50217 0.10430 0.54035
 H2254 H 0.51250 0.13263 0.55037
 H2255 H 0.55959 0.11467 0.55236
 H2256 H 0.54928 0.08641 0.54236
 C2257 C 0.53851 0.62760 0.03785
 C2258 C 0.52992 0.61715 0.05152
 C2259 C 0.52429 0.60199 0.04601
 C2260 C 0.52779 0.59874 0.02736
 C2261 C 0.54679 0.60107 0.02540
 C2262 C 0.55242 0.61624 0.03091
 C2263 C 0.52557 0.62889 0.02364
 C2264 C 0.51993 0.61369 0.01812
 C2265 C 0.54474 0.64381 0.04395
 C2266 C 0.55017 0.65688 0.04929
 C2267 C 0.52192 0.58227 0.02161
 C2268 C 0.51755 0.56845 0.01731
 H2269 H 0.52837 0.62131 0.06440
 H2270 H 0.51792 0.59315 0.05417
 H2271 H 0.55509 0.59164 0.02013
 H2272 H 0.56554 0.61980 0.03036
 H2273 H 0.52123 0.64068 0.01839
 H2274 H 0.51075 0.61246 0.00814
 C2275 C 0.71013 0.12423 0.54050
 C2276 C 0.70466 0.13925 0.55124
 C2277 C 0.71046 0.15425 0.54552
 C2278 C 0.72118 0.15278 0.52960
 C2279 C 0.71008 0.14346 0.51692
 C2280 C 0.70427 0.12844 0.52265
 C2281 C 0.72933 0.12530 0.53985
 C2282 C 0.73514 0.14032 0.53412
 C2283 C 0.70377 0.10815 0.54677
 C2284 C 0.69830 0.09512 0.55214
 C2285 C 0.72729 0.16904 0.52355
 C2286 C 0.73199 0.18263 0.51888
 H2287 H 0.69691 0.13820 0.56238
 H2288 H 0.70768 0.16605 0.55175
 H2289 H 0.70706 0.14822 0.50453
 H2290 H 0.69627 0.12034 0.51517
 H2291 H 0.73763 0.11516 0.54356
 H2292 H 0.74842 0.14305 0.53291
 C2293 C 0.71168 0.62369 0.03873
 C2294 C 0.72297 0.62265 0.02317
 C2295 C 0.72850 0.63789 0.01773
 C2296 C 0.72219 0.65265 0.02839
 C2297 C 0.72758 0.64849 0.04640
 C2298 C 0.72205 0.63327 0.05183
 C2299 C 0.69751 0.63575 0.03381
 C2300 C 0.70303 0.65097 0.02838
 C2301 C 0.70561 0.60738 0.04469
 C2302 C 0.70036 0.59418 0.04984
 C2303 C 0.72801 0.66913 0.02265
 C2304 C 0.73247 0.68287 0.01820
 H2305 H 0.72632 0.61098 0.01698
 H2306 H 0.73659 0.63928 0.00688
 H2307 H 0.73507 0.65677 0.05419
 H2308 H 0.72482 0.62851 0.06428
 H2309 H 0.68429 0.63261 0.03453
 H2310 H 0.69454 0.66087 0.02445
 C2311 C 0.21209 0.62815 0.71156
 C2312 C 0.19892 0.61835 0.72158
 C2313 C 0.20447 0.60318 0.72717
 C2314 C 0.22264 0.59929 0.72219
 C2315 C 0.23292 0.61417 0.72882
 C2316 C 0.22736 0.62937 0.72322
 C2317 C 0.21749 0.61621 0.69744
 C2318 C 0.22303 0.60105 0.70303
 C2319 C 0.20595 0.64436 0.70539
 C2320 C 0.20057 0.65742 0.70000
 C2321 C 0.22843 0.58283 0.72802
 C2322 C 0.23275 0.56901 0.73236
 H2323 H 0.18635 0.62292 0.72409
 H2324 H 0.19665 0.59477 0.73446
 H2325 H 0.24360 0.61290 0.73717
 H2326 H 0.23328 0.64111 0.72677
 H2327 H 0.21702 0.61940 0.68421
 H2328 H 0.22731 0.59125 0.69458
 C2329 C 0.21215 0.12775 0.21128
 C2330 C 0.20783 0.12432 0.22972
 C2331 C 0.21325 0.10908 0.23528
 C2332 C 0.22246 0.09879 0.22185
 C2333 C 0.23665 0.11023 0.21567
 C2334 C 0.23122 0.12547 0.21011
 C2335 C 0.20474 0.11288 0.20154
 C2336 C 0.21015 0.09768 0.20709
 C2337 C 0.20614 0.14402 0.20514
 C2338 C 0.20085 0.15714 0.19980
 C2339 C 0.22810 0.08228 0.22766
 C2340 C 0.23231 0.06842 0.23200
 H2341 H 0.20113 0.13308 0.23770
 H2342 H 0.21120 0.10479 0.24804
 H2343 H 0.24978 0.10668 0.21569
 H2344 H 0.23971 0.13498 0.20535
 H2345 H 0.19600 0.11419 0.19117
 H2346 H 0.20605 0.08595 0.20148
 C2347 C 0.71046 1.12503 0.70899
 C2348 C 0.71620 1.11315 0.69495
 C2349 C 0.72193 1.09809 0.70064
 C2350 C 0.72136 1.09637 0.71981
 C2351 C 0.70307 1.09997 0.72458
 C2352 C 0.69734 1.11504 0.71889
 C2353 C 0.72558 1.12652 0.72081
 C2354 C 0.73132 1.11144 0.72651
 C2355 C 0.70417 1.14116 0.70277
 C2356 C 0.69874 1.15423 0.69745
 C2357 C 0.72739 1.08006 0.72582
 C2358 C 0.73201 1.06645 0.73048
 H2359 H 0.71581 1.11629 0.68171
 H2360 H 0.72644 1.08833 0.69227
 H2361 H 0.69531 1.09144 0.73179
 H2362 H 0.68467 1.11941 0.72124
 H2363 H 0.73128 1.13836 0.72440
 H2364 H 0.74193 1.11036 0.73497
 C2365 C 0.71219 0.62772 0.21115
 C2366 C 0.71913 0.61637 0.19723
 C2367 C 0.72471 0.60124 0.20286
 C2368 C 0.72280 0.59892 0.22187
 C2369 C 0.70416 0.60209 0.22543
 C2370 C 0.69859 0.61723 0.21979
 C2371 C 0.72642 0.62908 0.22407
 C2372 C 0.73200 0.61392 0.22972
 C2373 C 0.70602 0.64389 0.20493
 C2374 C 0.70059 0.65692 0.19952
 C2375 C 0.72860 0.58248 0.22775
 C2376 C 0.73291 0.56867 0.23214
 H2377 H 0.71964 0.61992 0.18409
 H2378 H 0.72999 0.59182 0.19455
 H2379 H 0.69606 0.59323 0.23182
 H2380 H 0.68571 0.62133 0.22137
 H2381 H 0.73163 0.64090 0.22840
 H2382 H 0.74200 0.61274 0.23888
 C2383 C 0.53864 0.12143 0.71113
 C2384 C 0.53266 0.12119 0.72943
 C2385 C 0.52695 0.13635 0.73498
 C2386 C 0.52779 0.15023 0.72167
 C2387 C 0.51798 0.14332 0.70660
 C2388 C 0.52368 0.12818 0.70106
 C2389 C 0.55184 0.13540 0.71041
 C2390 C 0.54615 0.15052 0.71594
 C2391 C 0.54493 0.10525 0.70501
 C2392 C 0.55040 0.09220 0.69964
 C2393 C 0.52185 0.16667 0.72746
 C2394 C 0.51744 0.18046 0.73182
 H2395 H 0.53288 0.11010 0.73733
 H2396 H 0.52228 0.13825 0.74763
 H2397 H 0.50746 0.14975 0.70081
 H2398 H 0.51805 0.12163 0.69053
 H2399 H 0.56457 0.13357 0.70594
 H2400 H 0.55400 0.16164 0.71621
 C2401 C 1.03705 0.12168 0.21205
 C2402 C 1.03102 0.12180 0.23033
 C2403 C 1.02569 0.13717 0.23569
 C2404 C 1.02692 0.15087 0.22222
 C2405 C 1.01698 0.14404 0.20720
 C2406 C 1.02230 0.12869 0.20186
 C2407 C 1.05061 0.13530 0.21120
 C2408 C 1.04529 0.15062 0.21654
 C2409 C 1.04296 0.10527 0.20613
 C2410 C 1.04816 0.09205 0.20095
 C2411 C 1.02137 0.16751 0.22781
 C2412 C 1.01725 0.18144 0.23202
 H2413 H 1.03094 0.11080 0.23836
 H2414 H 1.02103 0.13933 0.24830
 H2415 H 1.00664 0.15066 0.20131
 H2416 H 1.01654 0.12216 0.19138
 H2417 H 1.06330 0.13309 0.20680
 H2418 H 1.05342 0.16155 0.21671
 C2419 C 0.21116 0.62422 0.53929
 C2420 C 0.19734 0.63758 0.53828
 C2421 C 0.20288 0.65279 0.53285
 C2422 C 0.22171 0.65317 0.52895
 C2423 C 0.22447 0.63894 0.51624
 C2424 C 0.21892 0.62371 0.52168
 C2425 C 0.22473 0.63195 0.55055
 C2426 C 0.23028 0.64717 0.54511
 C2427 C 0.20507 0.60792 0.54525
 C2428 C 0.19982 0.59471 0.55039
 C2429 C 0.22756 0.66963 0.52320
 C2430 C 0.23208 0.68333 0.51871
 H2431 H 0.18433 0.63530 0.54154
 H2432 H 0.19462 0.66353 0.53146
 H2433 H 0.23028 0.64068 0.50405
 H2434 H 0.21997 0.61240 0.51416
 H2435 H 0.22957 0.62599 0.56180
 H2436 H 0.23987 0.65425 0.55170
 C2437 C 0.21040 0.12393 1.03907
 C2438 C 0.19643 0.13519 1.03210
 C2439 C 0.20196 0.15039 1.02664
 C2440 C 0.22094 0.15285 1.02866
 C2441 C 0.22891 0.13794 1.01943
 C2442 C 0.22337 0.12272 1.02490
 C2443 C 0.21890 0.13444 1.05279
 C2444 C 0.22444 0.14965 1.04732
 C2445 C 0.20432 0.10763 1.04506
 C2446 C 0.19908 0.09442 1.05020
 C2447 C 0.22679 0.16930 1.02287
 C2448 C 0.23134 0.18298 1.01835
 H2449 H 0.18333 0.13155 1.03152
 H2450 H 0.19361 0.15977 1.02137
 H2451 H 0.23810 0.13922 1.00947
 H2452 H 0.22780 0.11096 1.01964
 H2453 H 0.22044 0.13031 1.06567
 H2454 H 0.23072 0.15854 1.05551
 C2455 C 0.21122 0.71178 0.62653
 C2456 C 0.22524 0.70090 0.61906
 C2457 C 0.23077 0.70638 0.60385
 C2458 C 0.22174 0.72219 0.59761
 C2459 C 0.22393 0.73513 0.61172
 C2460 C 0.21839 0.72965 0.62694
 C2461 C 0.19752 0.71220 0.61302
 C2462 C 0.20304 0.71767 0.59782
 C2463 C 0.20516 0.70576 0.64281
 C2464 C 0.19994 0.70054 0.65600
 C2465 C 0.22757 0.72796 0.58115
 C2466 C 0.23207 0.73240 0.56743
 H2467 H 0.23038 0.68988 0.62518
 H2468 H 0.24064 0.70004 0.59695
 H2469 H 0.22934 0.74749 0.60993
 H2470 H 0.21907 0.73732 0.63819
 H2471 H 0.18460 0.70853 0.61519
 H2472 H 0.19485 0.71868 0.58698
 C2473 C 0.21138 0.21154 1.12631
 C2474 C 0.21902 0.19762 1.11540
 C2475 C 0.22443 0.20309 1.10016
 C2476 C 0.22167 0.22193 1.09731
 C2477 C 0.23040 0.23058 1.11215
 C2478 C 0.22498 0.22511 1.12741
 C2479 C 0.19746 0.21927 1.11550
 C2480 C 0.20287 0.22473 1.10025
 C2481 C 0.20544 0.20553 1.14264
 C2482 C 0.20029 0.20032 1.15585
 C2483 C 0.22738 0.22768 1.08081
 C2484 C 0.23181 0.23210 1.06706
 H2485 H 0.22010 0.18462 1.11931
 H2486 H 0.23014 0.19476 1.09101
 H2487 H 0.23998 0.24015 1.11079
 H2488 H 0.22992 0.22999 1.13914
 H2489 H 0.18449 0.22037 1.11947
 H2490 H 0.19454 0.23051 1.09116
 C2491 C 0.71196 0.53821 0.12201
 C2492 C 0.69843 0.52907 0.13216
 C2493 C 0.70390 0.52341 0.14732
 C2494 C 0.72238 0.52743 0.15086
 C2495 C 0.72380 0.54653 0.14879
 C2496 C 0.71833 0.55219 0.13363
 C2497 C 0.72656 0.52570 0.12075
 C2498 C 0.73204 0.52002 0.13594
 C2499 C 0.70592 0.54447 0.10580
 C2500 C 0.70062 0.54993 0.09274
 C2501 C 0.72809 0.52154 0.16732
 C2502 C 0.73240 0.51717 0.18114
 H2503 H 0.68567 0.52719 0.12781
 H2504 H 0.69582 0.51668 0.15596
 H2505 H 0.72869 0.55487 0.15839
 H2506 H 0.71854 0.56538 0.13025
 H2507 H 0.73208 0.52165 0.10898
 H2508 H 0.74226 0.51112 0.13718
 C2509 C 0.70984 1.04014 0.62430
 C2510 C 0.72478 1.02808 0.62273
 C2511 C 0.73040 1.02217 0.63776
 C2512 C 0.72053 1.02889 0.65287
 C2513 C 0.70218 1.02443 0.64920
 C2514 C 0.69656 1.03034 0.63419
 C2515 C 0.71579 1.05398 0.63631
 C2516 C 0.72141 1.04807 0.65132
 C2517 C 0.70368 1.04661 0.60822
 C2518 C 0.69838 1.05213 0.59518
 C2519 C 0.72648 1.02266 0.66912
 C2520 C 0.73112 1.01791 0.68270
 H2521 H 0.73043 1.02451 0.61087
 H2522 H 0.74088 1.01352 0.63878
 H2523 H 0.69429 1.01726 0.65765
 H2524 H 0.68386 1.02823 0.62978
 H2525 H 0.71562 1.06725 0.63329
 H2526 H 0.72604 1.05629 0.66115
 C2527 C 0.53846 0.21243 0.62181
 C2528 C 0.53278 0.23085 0.62190
 C2529 C 0.52721 0.23623 0.63716
 C2530 C 0.52789 0.22265 0.65080
 C2531 C 0.54615 0.21660 0.65095
 C2532 C 0.55171 0.21124 0.63572
 C2533 C 0.52337 0.20250 0.62842
 C2534 C 0.51782 0.20788 0.64366
 C2535 C 0.54459 0.20646 0.60553
 C2536 C 0.54994 0.20118 0.59241
 C2537 C 0.52210 0.22824 0.66734
 C2538 C 0.51777 0.23238 0.68122
 H2539 H 0.53308 0.23893 0.61095
 H2540 H 0.52275 0.24892 0.63930
 H2541 H 0.55405 0.21655 0.66205
 H2542 H 0.56435 0.20659 0.63378
 H2543 H 0.51755 0.19218 0.62170
 H2544 H 0.50723 0.20215 0.65001
 C2545 C 1.03922 0.21260 0.12192
 C2546 C 1.03241 0.23062 0.12148
 C2547 C 1.02678 0.23619 0.13665
 C2548 C 1.02852 0.22318 0.15074
 C2549 C 1.04713 0.21828 0.15075
 C2550 C 1.05275 0.21272 0.13562
 C2551 C 1.02490 0.20200 0.12916
 C2552 C 1.01927 0.20756 0.14431
 C2553 C 1.04542 0.20642 0.10574
 C2554 C 1.05079 0.20098 0.09269
 C2555 C 1.02264 0.22897 0.16719
 C2556 C 1.01824 0.23325 0.18100
 H2557 H 1.03203 0.23831 0.11026
 H2558 H 1.02157 0.24865 0.13843
 H2559 H 1.05519 0.21911 0.16170
 H2560 H 1.06562 0.20879 0.13360
 H2561 H 1.01961 0.19110 0.12292
 H2562 H 1.00917 0.20143 0.15105
 C2563 C 0.62717 0.20948 0.71093
 C2564 C 0.62452 0.22833 0.70802
 C2565 C 0.60954 0.23413 0.71387
 C2566 C 0.59870 0.22050 0.72204
 C2567 C 0.60983 0.21277 0.73572
 C2568 C 0.62481 0.20697 0.72988
 C2569 C 0.61194 0.20098 0.70281
 C2570 C 0.59699 0.20676 0.70865
 C2571 C 0.64316 0.20309 0.70448
 C2572 C 0.65604 0.19755 0.69884
 C2573 C 0.58244 0.22655 0.72812
 C2574 C 0.56874 0.23106 0.73262
 H2575 H 0.63361 0.23642 0.70193
 H2576 H 0.60580 0.24719 0.71279
 H2577 H 0.60627 0.21195 0.74884
 H2578 H 0.63409 0.20118 0.73798
 H2579 H 0.61281 0.19125 0.69330
 H2580 H 0.58506 0.20199 0.70413
 C2581 C 1.12808 0.21214 0.21163
 C2582 C 1.12675 0.23132 0.21286
 C2583 C 1.11156 0.23678 0.21849
 C2584 C 1.09922 0.22252 0.22232
 C2585 C 1.10843 0.21115 0.23483
 C2586 C 1.12362 0.20568 0.22920
 C2587 C 1.11336 0.20680 0.20044
 C2588 C 1.09820 0.21226 0.20605
 C2589 C 1.14430 0.20609 0.20542
 C2590 C 1.15736 0.20078 0.20001
 C2591 C 1.08275 0.22821 0.22818
 C2592 C 1.06893 0.23248 0.23254
 H2593 H 1.13684 0.23985 0.20962
 H2594 H 1.10863 0.25000 0.22007
 H2595 H 1.10348 0.20771 0.24703
 H2596 H 1.13168 0.19756 0.23659
 H2597 H 1.11472 0.19939 0.18908
 H2598 H 1.08658 0.20952 0.19950
 C2599 C 0.12422 0.71104 0.53879
 C2600 C 0.13910 0.70350 0.54839
 C2601 C 0.15429 0.70892 0.54282
 C2602 C 0.15314 0.72136 0.52818
 C2603 C 0.14177 0.73554 0.53455
 C2604 C 0.12656 0.73012 0.54013
 C2605 C 0.12757 0.70686 0.52029
 C2606 C 0.14278 0.71228 0.51471
 C2607 C 0.10794 0.70510 0.54491
 C2608 C 0.09474 0.69999 0.55018
 C2609 C 0.16958 0.72709 0.52231
 C2610 C 0.18329 0.73157 0.51781
 H2611 H 0.13782 0.69467 0.55867
 H2612 H 0.16602 0.70473 0.54833
 H2613 H 0.14534 0.74869 0.53466
 H2614 H 0.11711 0.73861 0.54502
 H2615 H 0.11877 0.70023 0.51228
 H2616 H 0.14701 0.71030 0.50192
 C2617 C 0.12376 0.21133 1.03871
 C2618 C 0.13438 0.21998 1.05225
 C2619 C 0.14958 0.22532 1.04662
 C2620 C 0.15268 0.22150 1.02800
 C2621 C 0.13781 0.22945 1.01872
 C2622 C 0.12259 0.22409 1.02435
 C2623 C 0.13488 0.19715 1.03191
 C2624 C 0.15008 0.20249 1.02629
 C2625 C 0.10748 0.20546 1.04489
 C2626 C 0.09429 0.20037 1.05021
 C2627 C 0.16913 0.22714 1.02208
 C2628 C 0.18285 0.23154 1.01754
 H2629 H 0.13032 0.22176 1.06512
 H2630 H 0.15854 0.23167 1.05468
 H2631 H 0.13911 0.23847 1.00861
 H2632 H 0.11085 0.22854 1.01908
 H2633 H 0.13114 0.18405 1.03155
 H2634 H 0.15936 0.19398 1.02111
 C2635 C 0.62184 0.53743 0.21254
 C2636 C 0.63236 0.52897 0.19881
 C2637 C 0.64766 0.52366 0.20423
 C2638 C 0.65096 0.52732 0.22284
 C2639 C 0.63625 0.51920 0.23221
 C2640 C 0.62092 0.52452 0.22679
 C2641 C 0.63295 0.55161 0.21935
 C2642 C 0.64825 0.54629 0.22477
 C2643 C 0.60548 0.54332 0.20654
 C2644 C 0.59229 0.54848 0.20128
 C2645 C 0.66755 0.52177 0.22849
 C2646 C 0.68145 0.51760 0.23272
 H2647 H 0.62815 0.52728 0.18597
 H2648 H 0.65655 0.51742 0.19602
 H2649 H 0.63774 0.51008 0.24221
 H2650 H 0.60928 0.51997 0.23214
 H2651 H 0.62913 0.56467 0.21990
 H2652 H 0.65753 0.55481 0.22994
 C2653 C 0.62361 1.03857 0.71087
 C2654 C 0.62242 1.02484 0.72431
 C2655 C 0.63763 1.01927 0.72979
 C2656 C 0.65252 1.02798 0.72127
 C2657 C 0.64967 1.04681 0.72423
 C2658 C 0.63447 1.05237 0.71877
 C2659 C 0.63450 1.03096 0.69693
 C2660 C 0.64969 1.02540 0.70240
 C2661 C 0.60733 1.04467 0.70485
 C2662 C 0.59415 1.04991 0.69963
 C2663 C 0.66897 1.02212 0.72704
 C2664 C 0.68269 1.01762 0.73149
 H2665 H 0.61067 1.01993 0.72910
 H2666 H 0.63892 1.00959 0.73927
 H2667 H 0.65878 1.05504 0.73011
 H2668 H 0.63057 1.06536 0.71997
 H2669 H 0.63061 1.03002 0.68391
 H2670 H 0.65882 1.01970 0.69406
 C2671 C 0.87511 0.45983 0.29134
 C2672 C 0.86705 0.47311 0.30272
 C2673 C 0.85214 0.47903 0.29683
 C2674 C 0.84675 0.47108 0.28013
 C2675 C 0.84679 0.45210 0.28338
 C2676 C 0.86169 0.44619 0.28927
 C2677 C 0.87642 0.46819 0.27405
 C2678 C 0.86149 0.47411 0.26815
 C2679 C 0.89106 0.45334 0.29779
 C2680 C 0.90399 0.44778 0.30331
 C2681 C 0.83060 0.47730 0.27393
 C2682 C 0.81707 0.48204 0.26915
 H2683 H 0.87257 0.47749 0.31438
 H2684 H 0.84489 0.48848 0.30345
 H2685 H 0.83606 0.44401 0.28124
 H2686 H 0.86371 0.43303 0.29217
 H2687 H 0.88803 0.46936 0.26706
 H2688 H 0.86032 0.48036 0.25611
 C2689 C 0.87715 0.96151 0.78963
 C2690 C 0.87055 0.95156 0.77451
 C2691 C 0.85552 0.95718 0.76866
 C2692 C 0.84855 0.97221 0.77849
 C2693 C 0.86247 0.98549 0.77792
 C2694 C 0.87752 0.97986 0.78378
 C2695 C 0.86303 0.96074 0.80267
 C2696 C 0.84802 0.96636 0.79682
 C2697 C 0.89320 0.95528 0.79608
 C2698 C 0.90614 0.94981 0.80166
 C2699 C 0.83222 0.97805 0.77238
 C2700 C 0.81848 0.98238 0.76783
 H2701 H 0.87712 0.94103 0.76889
 H2702 H 0.84921 0.95147 0.75801
 H2703 H 0.86067 0.99818 0.77330
 H2704 H 0.88862 0.98773 0.78419
 H2705 H 0.86469 0.95619 0.81539
 H2706 H 0.83681 0.96662 0.80454
 C2707 C 0.37475 0.28968 0.78994
 C2708 C 0.38448 0.27963 0.80316
 C2709 C 0.39954 0.27378 0.79761
 C2710 C 0.40339 0.27855 0.77936
 C2711 C 0.40186 0.29774 0.77881
 C2712 C 0.38681 0.30359 0.78437
 C2713 C 0.37332 0.27789 0.77475
 C2714 C 0.38839 0.27204 0.76919
 C2715 C 0.35862 0.29608 0.79602
 C2716 C 0.34554 0.30155 0.80125
 C2717 C 0.41968 0.27239 0.77348
 C2718 C 0.43327 0.26766 0.76887
 H2719 H 0.37995 0.27730 0.81578
 H2720 H 0.40790 0.26645 0.80547
 H2721 H 0.41174 0.30602 0.77445
 H2722 H 0.38380 0.31687 0.78475
 H2723 H 0.36153 0.27445 0.76890
 H2724 H 0.38951 0.26358 0.75857
 C2725 C 0.87448 0.28943 0.28961
 C2726 C 0.88516 0.28125 0.30338
 C2727 C 0.90027 0.27553 0.29783
 C2728 C 0.90321 0.27854 0.27905
 C2729 C 0.90075 0.29748 0.27660
 C2730 C 0.88565 0.30321 0.28215
 C2731 C 0.87306 0.27608 0.27578
 C2732 C 0.88818 0.27035 0.27022
 C2733 C 0.85831 0.29572 0.29569
 C2734 C 0.84521 0.30112 0.30094
 C2735 C 0.91956 0.27252 0.27318
 C2736 C 0.93321 0.26792 0.26864
 H2737 H 0.88121 0.28006 0.31635
 H2738 H 0.90925 0.26944 0.30604
 H2739 H 0.91005 0.30568 0.27100
 H2740 H 0.88201 0.31631 0.28130
 H2741 H 0.86124 0.27154 0.27080
 H2742 H 0.88932 0.26089 0.26048
 C2743 C 0.37734 0.78972 0.46087
 C2744 C 0.37009 0.80011 0.47537
 C2745 C 0.35511 0.79427 0.48112
 C2746 C 0.34885 0.77861 0.47181
 C2747 C 0.36317 0.76582 0.47330
 C2748 C 0.37816 0.77167 0.46754
 C2749 C 0.36351 0.78946 0.44749
 C2750 C 0.34855 0.78363 0.45323
 C2751 C 0.39334 0.79616 0.45452
 C2752 C 0.40624 0.80174 0.44899
 C2753 C 0.33258 0.77253 0.47780
 C2754 C 0.31888 0.76800 0.48227
 H2755 H 0.37619 0.81108 0.48067
 H2756 H 0.34838 0.80024 0.49135
 H2757 H 0.36166 0.75330 0.47843
 H2758 H 0.38951 0.76415 0.46774
 H2759 H 0.36531 0.79350 0.43461
 H2760 H 0.33754 0.78268 0.44527
 C2761 C 0.37738 0.28822 0.96081
 C2762 C 0.36635 0.30195 0.96859
 C2763 C 0.35130 0.29623 0.97422
 C2764 C 0.34873 0.27733 0.97152
 C2765 C 0.36382 0.26895 0.98006
 C2766 C 0.37890 0.27468 0.97442
 C2767 C 0.36652 0.28027 0.94704
 C2768 C 0.35147 0.27455 0.95266
 C2769 C 0.39347 0.29455 0.95459
 C2770 C 0.40644 0.30007 0.94916
 C2771 C 0.33237 0.27138 0.97739
 C2772 C 0.31862 0.26697 0.98179
 H2773 H 0.37005 0.31502 0.96961
 H2774 H 0.34210 0.30440 0.98006
 H2775 H 0.36274 0.25938 0.98967
 H2776 H 0.39076 0.27002 0.97921
 H2777 H 0.37033 0.27921 0.93401
 H2778 H 0.34238 0.26859 0.94445
 C2779 C 0.79072 0.45971 0.37527
 C2780 C 0.80214 0.47280 0.36702
 C2781 C 0.79631 0.47847 0.35199
 C2782 C 0.77961 0.47050 0.34669
 C2783 C 0.76762 0.47385 0.36136
 C2784 C 0.77346 0.46817 0.37640
 C2785 C 0.78864 0.44584 0.36205
 C2786 C 0.78281 0.45151 0.34704
 C2787 C 0.79711 0.45350 0.39136
 C2788 C 0.80260 0.44817 0.40440
 C2789 C 0.77346 0.47650 0.33042
 C2790 C 0.76874 0.48117 0.31684
 H2791 H 0.81379 0.47723 0.37249
 H2792 H 0.80296 0.48776 0.34460
 H2793 H 0.75560 0.48012 0.36006
 H2794 H 0.76646 0.46957 0.38799
 H2795 H 0.79150 0.43271 0.36430
 H2796 H 0.78067 0.44324 0.33642
 C2797 C 0.78795 0.96197 0.87779
 C2798 C 0.78882 0.98109 0.87559
 C2799 C 0.78315 0.98647 0.86038
 C2800 C 0.77718 0.97220 0.84889
 C2801 C 0.76392 0.96275 0.85913
 C2802 C 0.76959 0.95737 0.87434
 C2803 C 0.79778 0.95475 0.86290
 C2804 C 0.79212 0.96012 0.84772
 C2805 C 0.79421 0.95602 0.89403
 C2806 C 0.79967 0.95078 0.90712
 C2807 C 0.77129 0.97781 0.83239
 C2808 C 0.76694 0.98203 0.81855
 H2809 H 0.79346 0.98964 0.88513
 H2810 H 0.78293 0.99963 0.85688
 H2811 H 0.75120 0.96050 0.85482
 H2812 H 0.76173 0.95051 0.88307
 H2813 H 0.80827 0.94616 0.86417
 H2814 H 0.79777 0.95613 0.83599
 C2815 C 0.28920 0.79011 0.37320
 C2816 C 0.29326 0.77155 0.37634
 C2817 C 0.28746 0.76573 0.39133
 C2818 C 0.27818 0.77906 0.40169
 C2819 C 0.26430 0.78564 0.39009
 C2820 C 0.27009 0.79146 0.37509
 C2821 C 0.29639 0.79946 0.38842
 C2822 C 0.29061 0.79366 0.40338
 C2823 C 0.29560 0.79651 0.35720
 C2824 C 0.30117 0.80206 0.34430
 C2825 C 0.27215 0.77299 0.41797
 C2826 C 0.26770 0.76846 0.43167
 H2827 H 0.30006 0.76366 0.36757
 H2828 H 0.28930 0.75287 0.39540
 H2829 H 0.25109 0.78571 0.39335
 H2830 H 0.26185 0.79651 0.36550
 H2831 H 0.30526 0.80975 0.38752
 H2832 H 0.29452 0.79898 0.41529
 C2833 C 0.28896 0.28935 0.87273
 C2834 C 0.28142 0.30312 0.88388
 C2835 C 0.27558 0.29736 0.89885
 C2836 C 0.27786 0.27838 0.90122
 C2837 C 0.29665 0.27523 0.89855
 C2838 C 0.30248 0.28099 0.88358
 C2839 C 0.27508 0.27613 0.87097
 C2840 C 0.26923 0.27035 0.88597
 C2841 C 0.29542 0.29572 0.85674
 C2842 C 0.30107 0.30124 0.84386
 C2843 C 0.27179 0.27236 0.91749
 C2844 C 0.26732 0.26786 0.93120
 H2845 H 0.28071 0.31625 0.88033
 H2846 H 0.26987 0.30555 0.90812
 H2847 H 0.30467 0.26900 0.90762
 H2848 H 0.31550 0.27970 0.87983
 H2849 H 0.27027 0.27170 0.85902
 H2850 H 0.25941 0.26097 0.88688
 C2851 C 0.46110 0.28892 0.87604
 C2852 C 0.46784 0.30280 0.86455
 C2853 C 0.47342 0.29706 0.84946
 C2854 C 0.47172 0.27799 0.84732
 C2855 C 0.45313 0.27426 0.85056
 C2856 C 0.44755 0.28000 0.86566
 C2857 C 0.47546 0.27618 0.87748
 C2858 C 0.48106 0.27043 0.86236
 C2859 C 0.45495 0.29521 0.89219
 C2860 C 0.44962 0.30061 0.90527
 C2861 C 0.47760 0.27195 0.83097
 C2862 C 0.48212 0.26733 0.81731
 H2863 H 0.46820 0.31599 0.86797
 H2864 H 0.47856 0.30533 0.83995
 H2865 H 0.44507 0.26768 0.84178
 H2866 H 0.43470 0.27833 0.86980
 H2867 H 0.48077 0.27204 0.88931
 H2868 H 0.49116 0.26136 0.86125
 C2869 C 0.96051 0.29032 0.37550
 C2870 C 0.97516 0.27789 0.37691
 C2871 C 0.98079 0.27220 0.36180
 C2872 C 0.97121 0.27949 0.34677
 C2873 C 0.97251 0.29860 0.34881
 C2874 C 0.96689 0.30429 0.36391
 C2875 C 0.94710 0.28106 0.36523
 C2876 C 0.95273 0.27538 0.35013
 C2877 C 0.95433 0.29653 0.39167
 C2878 C 0.94900 0.30183 0.40479
 C2879 C 0.97715 0.27348 0.33043
 C2880 C 0.98175 0.26883 0.31680
 H2881 H 0.98062 0.27392 0.38874
 H2882 H 0.99107 0.26335 0.36067
 H2883 H 0.97742 0.30694 0.33924
 H2884 H 0.96698 0.31750 0.36728
 H2885 H 0.93431 0.27914 0.36945
 H2886 H 0.94476 0.26859 0.34141
 C2887 C 0.45881 0.37396 0.79100
 C2888 C 0.44504 0.36245 0.78402
 C2889 C 0.45092 0.34756 0.77803
 C2890 C 0.47000 0.34563 0.77959
 C2891 C 0.47380 0.34849 0.79826
 C2892 C 0.46792 0.36338 0.80425
 C2893 C 0.47143 0.37590 0.77660
 C2894 C 0.47732 0.36099 0.77060
 C2895 C 0.45238 0.38992 0.79756
 C2896 C 0.44688 0.40285 0.80317
 C2897 C 0.47621 0.32949 0.77328
 C2898 C 0.48099 0.31598 0.76845
 H2899 H 0.43183 0.36571 0.78381
 H2900 H 0.44275 0.33807 0.77269
 H2901 H 0.48052 0.33960 0.80608
 H2902 H 0.46961 0.36725 0.81720
 H2903 H 0.47539 0.38791 0.77157
 H2904 H 0.48633 0.36022 0.76043
 C2905 C 0.95945 0.37524 0.29095
 C2906 C 0.97348 0.37716 0.27792
 C2907 C 0.97935 0.36224 0.27192
 C2908 C 0.97060 0.34689 0.27956
 C2909 C 0.95185 0.34968 0.27626
 C2910 C 0.94599 0.36458 0.28224
 C2911 C 0.96682 0.36382 0.30458
 C2912 C 0.97268 0.34892 0.29859
 C2913 C 0.95303 0.39120 0.29751
 C2914 C 0.94752 0.40412 0.30312
 C2915 C 0.97678 0.33074 0.27325
 C2916 C 0.98154 0.31721 0.26844
 H2917 H 0.97837 0.38917 0.27377
 H2918 H 0.98926 0.36146 0.26264
 H2919 H 0.94387 0.34073 0.26978
 H2920 H 0.93300 0.36840 0.28089
 H2921 H 0.96739 0.36715 0.31778
 H2922 H 0.97826 0.33948 0.30667
 C2923 C 0.28960 0.87769 0.46136
 C2924 C 0.28894 0.86389 0.44793
 C2925 C 0.28321 0.84892 0.45378
 C2926 C 0.27868 0.84918 0.47248
 C2927 C 0.26600 0.86356 0.47436
 C2928 C 0.27175 0.87857 0.46850
 C2929 C 0.30032 0.87034 0.47555
 C2930 C 0.29458 0.85535 0.48140
 C2931 C 0.29593 0.89369 0.45489
 C2932 C 0.30145 0.90658 0.44925
 C2933 C 0.27270 0.83289 0.47856
 C2934 C 0.26824 0.81917 0.48303
 H2935 H 0.29265 0.86573 0.43496
 H2936 H 0.28201 0.83793 0.44581
 H2937 H 0.25363 0.86208 0.47981
 H2938 H 0.26430 0.88996 0.46894
 H2939 H 0.31143 0.87639 0.48059
 H2940 H 0.30078 0.84856 0.49145
 C2941 C 0.28999 0.37702 0.96096
 C2942 C 0.27647 0.37880 0.97455
 C2943 C 0.27065 0.36380 0.98037
 C2944 C 0.27892 0.34854 0.97202
 C2945 C 0.29781 0.35102 0.97469
 C2946 C 0.30363 0.36599 0.96888
 C2947 C 0.28199 0.36603 0.94732
 C2948 C 0.27617 0.35106 0.95313
 C2949 C 0.29641 0.39301 0.95454
 C2950 C 0.30197 0.40590 0.94894
 C2951 C 0.27285 0.33227 0.97806
 C2952 C 0.26830 0.31857 0.98253
 H2953 H 0.27189 0.39076 0.97919
 H2954 H 0.26107 0.36291 0.99000
 H2955 H 0.30591 0.34183 0.98064
 H2956 H 0.31671 0.36962 0.96986
 H2957 H 0.28096 0.36969 0.93425
 H2958 H 0.27017 0.34190 0.94503
 C2959 C 0.79014 0.37407 0.28916
 C2960 C 0.79154 0.37618 0.27008
 C2961 C 0.78585 0.39129 0.26443
 C2962 C 0.77932 0.40280 0.27844
 C2963 C 0.79388 0.40423 0.29095
 C2964 C 0.79956 0.38914 0.29658
 C2965 C 0.77161 0.37733 0.29319
 C2966 C 0.76592 0.39244 0.28755
 C2967 C 0.79636 0.35791 0.29536
 C2968 C 0.80170 0.34481 0.30070
 C2969 C 0.77332 0.41914 0.27250
 C2970 C 0.76870 0.43280 0.26796
 H2971 H 0.79656 0.36665 0.26173
 H2972 H 0.78599 0.39470 0.25126
 H2973 H 0.79926 0.41606 0.29502
 H2974 H 0.80981 0.38805 0.30549
 H2975 H 0.76365 0.36854 0.29987
 H2976 H 0.75309 0.39659 0.28940
   
