data_POSCAR
  _audit_creation_date              2014-09-24
  _audit_creation_method            'ToBaCCo'
  _symmetry_space_group_name_H-M    'P1'
  _symmetry_Int_Tables_number       1
  _symmetry_cell_setting            triclinic
  loop_
  _symmetry_equiv_pos_as_xyz
 x,y,z
_cell_length_a 70.3754
_cell_length_b 70.3587
_cell_length_c 70.3306
_cell_angle_alpha 89.850900
_cell_angle_beta 90.030800
_cell_angle_gamma 89.885400
loop_
  _atom_site_label
  _atom_site_type_symbol
  _atom_site_fract_x
  _atom_site_fract_y
  _atom_site_fract_z
C1 C 0.13183 -0.02608 0.25289
 C2 C 0.12438 -0.00806 0.25711
 C3 C 0.11627 -0.00471 0.27497
 C4 C 0.11531 -0.01927 0.28857
 C5 C 0.12302 -0.03718 0.28426
 C6 C 0.13147 -0.04096 0.26643
 C7 C 0.12483 0.00728 0.24268
 C8 C 0.11695 0.00434 0.22458
 C9 C 0.11668 0.01900 0.21080
 C10 C 0.12516 0.03652 0.21565
 C11 C 0.13318 0.03960 0.23366
 C12 C 0.13281 0.02493 0.24716
 H13 H 0.13747 -0.02839 0.23877
 H14 H 0.11017 0.00910 0.27803
 H15 H 0.11009 -0.00913 0.22190
 H16 H 0.13880 0.02719 0.26117
 H17 H 0.12325 -0.04777 0.29542
 H18 H 0.12656 0.04767 0.20513
 C19 C 0.36797 -0.02377 0.74618
 C20 C 0.37581 -0.00589 0.74213
 C21 C 0.38418 -0.00257 0.72431
 C22 C 0.38499 -0.01706 0.71062
 C23 C 0.37683 -0.03479 0.71481
 C24 C 0.36826 -0.03830 0.73250
 C25 C 0.37551 0.00929 0.75664
 C26 C 0.38321 0.00596 0.77478
 C27 C 0.38366 0.02045 0.78866
 C28 C 0.37548 0.03819 0.78389
 C29 C 0.36763 0.04167 0.76586
 C30 C 0.36785 0.02717 0.75224
 H31 H 0.36159 -0.02633 0.75997
 H32 H 0.39061 0.01111 0.72139
 H33 H 0.38981 -0.00769 0.77742
 H34 H 0.36197 0.02973 0.73821
 H35 H 0.37674 -0.04577 0.70404
 H36 H 0.37418 0.04922 0.79450
 C37 C 0.86794 0.47500 0.24780
 C38 C 0.87560 0.49298 0.24382
 C39 C 0.88391 0.49646 0.22601
 C40 C 0.88483 0.48204 0.21225
 C41 C 0.87686 0.46422 0.21637
 C42 C 0.86835 0.46055 0.23406
 C43 C 0.87501 0.50815 0.25833
 C44 C 0.88270 0.50497 0.27649
 C45 C 0.88284 0.51948 0.29036
 C46 C 0.87437 0.53708 0.28555
 C47 C 0.86652 0.54039 0.26747
 C48 C 0.86706 0.52588 0.25388
 H49 H 0.86156 0.47233 0.26157
 H50 H 0.89017 0.51022 0.22311
 H51 H 0.88952 0.49143 0.27915
 H52 H 0.86122 0.52831 0.23981
 H53 H 0.87684 0.45329 0.20555
 H54 H 0.87286 0.54811 0.29612
 C55 C 0.63209 0.47386 0.75373
 C56 C 0.62456 0.49181 0.75815
 C57 C 0.61639 0.49489 0.77609
 C58 C 0.61546 0.48011 0.78953
 C59 C 0.62331 0.46233 0.78497
 C60 C 0.63166 0.45905 0.76716
 C61 C 0.62490 0.50725 0.74386
 C62 C 0.61710 0.50434 0.72572
 C63 C 0.61692 0.51906 0.71219
 C64 C 0.62512 0.53662 0.71687
 C65 C 0.63312 0.53973 0.73489
 C66 C 0.63280 0.52498 0.74839
 H67 H 0.63832 0.47147 0.73985
 H68 H 0.61020 0.50862 0.77932
 H69 H 0.61061 0.49079 0.72242
 H70 H 0.63875 0.52723 0.76242
 H71 H 0.62331 0.45111 0.79555
 H72 H 0.62568 0.54778 0.70625
 C73 C 0.24587 0.13305 1.02416
 C74 C 0.24226 0.12463 1.00650
 C75 C 0.22426 0.11691 1.00274
 C76 C 0.20967 0.11735 1.01655
 C77 C 0.21373 0.12609 1.03416
 C78 C 0.23159 0.13408 1.03799
 C79 C 0.25722 0.12441 0.99173
 C80 C 0.27512 0.11645 0.99567
 C81 C 0.28977 0.11658 0.98194
 C82 C 0.28588 0.12520 0.96419
 C83 C 0.26813 0.13344 0.96016
 C84 C 0.25377 0.13273 0.97394
 H85 H 0.25963 0.13939 1.02685
 H86 H 0.22171 0.11106 0.98876
 H87 H 0.27756 0.11070 1.00975
 H88 H 0.24010 0.13927 0.97111
 H89 H 0.20340 0.12591 1.04552
 H90 H 0.29627 0.12478 0.95288
 C91 C 0.75415 0.36717 1.02445
 C92 C 0.75741 0.37499 1.00634
 C93 C 0.77514 0.38297 1.00209
 C94 C 0.78959 0.38334 1.01578
 C95 C 0.78621 0.37536 1.03377
 C96 C 0.76863 0.36686 1.03841
 C97 C 0.74238 0.37444 0.99163
 C98 C 0.72436 0.38225 0.99527
 C99 C 0.71011 0.38259 0.98108
 C100 C 0.71437 0.37413 0.96338
 C101 C 0.73227 0.36617 0.95961
 C102 C 0.74626 0.36651 0.97378
 H103 H 0.74062 0.36036 1.02698
 H104 H 0.77764 0.38892 0.98809
 H105 H 0.72211 0.38903 1.00887
 H106 H 0.76019 0.36058 0.97097
 H107 H 0.79720 0.37676 1.04443
 H108 H 0.70349 0.37274 0.95262
 C109 C 0.25635 0.86723 0.52506
 C110 C 0.25971 0.87532 0.50715
 C111 C 0.27750 0.88337 0.50312
 C112 C 0.29216 0.88357 0.51685
 C113 C 0.28840 0.87512 0.53470
 C114 C 0.27075 0.86681 0.53884
 C115 C 0.24473 0.87502 0.49243
 C116 C 0.22686 0.88313 0.49606
 C117 C 0.21276 0.88342 0.48190
 C118 C 0.21659 0.87496 0.46424
 C119 C 0.23433 0.86663 0.46044
 C120 C 0.24840 0.86686 0.47461
 H121 H 0.24273 0.86068 0.52798
 H122 H 0.27985 0.88897 0.48897
 H123 H 0.22421 0.88978 0.50968
 H124 H 0.26224 0.86069 0.47181
 H125 H 0.29881 0.87577 0.54600
 H126 H 0.20554 0.87449 0.45352
 C127 C 0.74689 0.63316 0.52539
 C128 C 0.74326 0.62500 0.50756
 C129 C 0.72532 0.61716 0.50379
 C130 C 0.71106 0.61728 0.51775
 C131 C 0.71487 0.62562 0.53546
 C132 C 0.73264 0.63378 0.53936
 C133 C 0.75810 0.62504 0.49269
 C134 C 0.77610 0.61723 0.49641
 C135 C 0.79053 0.61732 0.48243
 C136 C 0.78633 0.62583 0.46469
 C137 C 0.76846 0.63392 0.46089
 C138 C 0.75433 0.63322 0.47490
 H139 H 0.76059 0.63961 0.52811
 H140 H 0.72252 0.61098 0.48998
 H141 H 0.77877 0.61157 0.51048
 H142 H 0.74056 0.63961 0.47224
 H143 H 0.70408 0.62540 0.54643
 H144 H 0.79654 0.62540 0.45322
 C145 C -0.02487 0.25452 0.13261
 C146 C -0.00697 0.25781 0.12454
 C147 C -0.00283 0.27566 0.11661
 C148 C -0.01648 0.29043 0.11647
 C149 C -0.03434 0.28671 0.12485
 C150 C -0.03857 0.26900 0.13306
 C151 C 0.00768 0.24272 0.12488
 C152 C 0.00384 0.22478 0.11708
 C153 C 0.01760 0.21012 0.11742
 C154 C 0.03524 0.21402 0.12619
 C155 C 0.03916 0.23182 0.13427
 C156 C 0.02536 0.24618 0.13333
 H157 H -0.02785 0.24087 0.13912
 H158 H 0.01132 0.27797 0.11106
 H159 H -0.01015 0.22236 0.11120
 H160 H 0.02812 0.25991 0.13971
 H161 H -0.04557 0.29720 0.12423
 H162 H 0.04657 0.20362 0.12595
 C163 C -0.02749 0.74601 0.36697
 C164 C -0.00968 0.74187 0.37498
 C165 C -0.00634 0.72386 0.38296
 C166 C -0.02078 0.71009 0.38326
 C167 C -0.03843 0.71439 0.37494
 C168 C -0.04192 0.73227 0.36673
 C169 C 0.00531 0.75653 0.37530
 C170 C 0.00166 0.77434 0.38347
 C171 C 0.01571 0.78848 0.38368
 C172 C 0.03341 0.78468 0.37528
 C173 C 0.03721 0.76703 0.36679
 C174 C 0.02314 0.75288 0.36712
 H175 H -0.03005 0.75996 0.36092
 H176 H 0.00728 0.72087 0.38952
 H177 H -0.01215 0.77715 0.38967
 H178 H 0.02576 0.73927 0.36044
 H179 H -0.04937 0.70359 0.37447
 H180 H 0.04444 0.79538 0.37572
 C181 C 0.47343 0.24538 0.86648
 C182 C 0.49121 0.24183 0.87474
 C183 C 0.49519 0.22382 0.88244
 C184 C 0.48150 0.20914 0.88213
 C185 C 0.46377 0.21313 0.87356
 C186 C 0.45970 0.23100 0.86558
 C187 C 0.50591 0.25684 0.87478
 C188 C 0.50203 0.27471 0.88277
 C189 C 0.51577 0.28934 0.88258
 C190 C 0.53343 0.28547 0.87384
 C191 C 0.53738 0.26776 0.86558
 C192 C 0.52362 0.25341 0.86634
 H193 H 0.47057 0.25915 0.86014
 H194 H 0.50926 0.22132 0.88814
 H195 H 0.48803 0.27713 0.88862
 H196 H 0.52640 0.23976 0.85980
 H197 H 0.45249 0.20272 0.87384
 H198 H 0.54475 0.29584 0.87422
 C199 C 0.47528 0.75506 0.63370
 C200 C 0.49315 0.75822 0.62542
 C201 C 0.49704 0.77579 0.61678
 C202 C 0.48310 0.79008 0.61607
 C203 C 0.46540 0.78681 0.62468
 C204 C 0.46140 0.76942 0.63367
 C205 C 0.50775 0.74312 0.62578
 C206 C 0.50377 0.72515 0.61814
 C207 C 0.51757 0.71071 0.61840
 C208 C 0.53532 0.71436 0.62676
 C209 C 0.53943 0.73218 0.63472
 C210 C 0.52562 0.74660 0.63391
 H211 H 0.47246 0.74161 0.64069
 H212 H 0.51072 0.77805 0.61008
 H213 H 0.48993 0.72249 0.61194
 H214 H 0.52849 0.76037 0.64015
 H215 H 0.45467 0.79786 0.62439
 H216 H 0.54618 0.70342 0.62665
 C217 C 0.86693 1.02367 0.75407
 C218 C 0.87543 1.00608 0.75790
 C219 C 0.88353 1.00262 0.77579
 C220 C 0.88356 1.01674 0.79006
 C221 C 0.87459 1.03427 0.78587
 C222 C 0.86626 1.03780 0.76804
 C223 C 0.87610 0.99132 0.74302
 C224 C 0.88425 0.99533 0.72528
 C225 C 0.88491 0.98149 0.71076
 C226 C 0.87666 0.96356 0.71459
 C227 C 0.86827 0.95946 0.73227
 C228 C 0.86829 0.97339 0.74649
 H229 H 0.86079 1.02629 0.74017
 H230 H 0.89075 0.98919 0.77793
 H231 H 0.88955 1.00955 0.72287
 H232 H 0.86163 0.97054 0.76009
 H233 H 0.87310 1.04501 0.79674
 H234 H 0.87751 0.95223 0.70427
 C235 C 0.36745 0.52488 0.25408
 C236 C 0.37555 0.50719 0.25850
 C237 C 0.38359 0.50419 0.27649
 C238 C 0.38382 0.51881 0.29005
 C239 C 0.37544 0.53640 0.28551
 C240 C 0.36713 0.53954 0.26758
 C241 C 0.37581 0.49187 0.24421
 C242 C 0.38402 0.49502 0.22633
 C243 C 0.38472 0.48043 0.21277
 C244 C 0.37666 0.46269 0.21719
 C245 C 0.36820 0.45939 0.23499
 C246 C 0.36804 0.47404 0.24851
 H247 H 0.36136 0.52716 0.24010
 H248 H 0.39023 0.49064 0.27966
 H249 H 0.39039 0.50870 0.22325
 H250 H 0.36181 0.47164 0.26240
 H251 H 0.37498 0.54752 0.29613
 H252 H 0.37654 0.45159 0.20655
 C253 C 0.63257 1.02632 0.24552
 C254 C 0.62433 1.00856 0.24191
 C255 C 0.61592 1.00507 0.22420
 C256 C 0.61549 1.01925 0.21011
 C257 C 0.62401 1.03691 0.21385
 C258 C 0.63268 1.04054 0.23148
 C259 C 0.62445 0.99366 0.25673
 C260 C 0.61688 0.99741 0.27476
 C261 C 0.61648 0.98326 0.28905
 C262 C 0.62446 0.96531 0.28472
 C263 C 0.63229 0.96149 0.26674
 C264 C 0.63198 0.97571 0.25275
 H265 H 0.63896 1.02898 0.25927
 H266 H 0.60920 0.99147 0.22163
 H267 H 0.61035 1.01115 0.27700
 H268 H 0.63773 0.97288 0.23875
 H269 H 0.62433 1.04768 0.20282
 H270 H 0.62564 0.95446 0.29557
 C271 C 0.13272 0.52741 0.74662
 C272 C 0.12448 0.50966 0.74300
 C273 C 0.11635 0.50607 0.72517
 C274 C 0.11619 0.52016 0.71099
 C275 C 0.12472 0.53782 0.71474
 C276 C 0.13312 0.54153 0.73249
 C277 C 0.12438 0.49484 0.75788
 C278 C 0.11634 0.49859 0.77571
 C279 C 0.11595 0.48450 0.78988
 C280 C 0.12417 0.46667 0.78611
 C281 C 0.13248 0.46278 0.76836
 C282 C 0.13229 0.47693 0.75423
 H283 H 0.13890 0.53013 0.76046
 H284 H 0.10965 0.49247 0.72259
 H285 H 0.10988 0.51234 0.77830
 H286 H 0.13840 0.47408 0.74039
 H287 H 0.12526 0.54851 0.70365
 H288 H 0.12454 0.45596 0.79720
 C289 C 0.74727 0.86724 -0.02522
 C290 C 0.74298 0.87541 -0.00757
 C291 C 0.72497 0.88335 -0.00451
 C292 C 0.71125 0.88341 -0.01903
 C293 C 0.71568 0.87498 -0.03659
 C294 C 0.73363 0.86677 -0.03978
 C295 C 0.75740 0.87578 0.00768
 C296 C 0.77524 0.88395 0.00438
 C297 C 0.78927 0.88445 0.01876
 C298 C 0.78486 0.87597 0.03648
 C299 C 0.76708 0.86754 0.03986
 C300 C 0.75335 0.86773 0.02542
 H301 H 0.76125 0.86121 -0.02754
 H302 H 0.72188 0.89001 0.00902
 H303 H 0.77811 0.88945 -0.00970
 H304 H 0.73967 0.86107 0.02773
 H305 H 0.70496 0.87439 -0.04762
 H306 H 0.79478 0.87669 0.04820
 C307 C 0.24706 0.36642 0.47368
 C308 C 0.24318 0.37477 0.49133
 C309 C 0.22529 0.38288 0.49469
 C310 C 0.21130 0.38294 0.48045
 C311 C 0.21530 0.37430 0.46289
 C312 C 0.23310 0.36589 0.45942
 C313 C 0.25786 0.37503 0.50631
 C314 C 0.27565 0.38318 0.50269
 C315 C 0.28969 0.38360 0.51689
 C316 C 0.28582 0.37532 0.53467
 C317 C 0.26812 0.36686 0.53841
 C318 C 0.25412 0.36701 0.52418
 H319 H 0.26078 0.35982 0.47132
 H320 H 0.22253 0.38967 0.50823
 H321 H 0.27850 0.38927 0.48881
 H322 H 0.24048 0.36036 0.52674
 H323 H 0.20452 0.37412 0.45189
 H324 H 0.29644 0.37587 0.54581
 C325 C 0.25323 0.63258 -0.02462
 C326 C 0.25691 0.62407 -0.00696
 C327 C 0.27461 0.61553 -0.00359
 C328 C 0.28860 0.61523 -0.01782
 C329 C 0.28480 0.62403 -0.03538
 C330 C 0.26719 0.63284 -0.03889
 C331 C 0.24220 0.62406 0.00799
 C332 C 0.22420 0.61640 0.00432
 C333 C 0.21002 0.61587 0.01853
 C334 C 0.21441 0.62385 0.03645
 C335 C 0.23235 0.63177 0.04020
 C336 C 0.24624 0.63157 0.02593
 H337 H 0.23949 0.63909 -0.02719
 H338 H 0.27722 0.60861 0.00995
 H339 H 0.22191 0.60991 -0.00942
 H340 H 0.26022 0.63738 0.02870
 H341 H 0.29577 0.62446 -0.04617
 H342 H 0.20363 0.62496 0.04733
 C343 C 0.75592 0.13259 0.47367
 C344 C 0.75932 0.12447 0.49152
 C345 C 0.77702 0.11618 0.49546
 C346 C 0.79153 0.11559 0.48158
 C347 C 0.78778 0.12416 0.46374
 C348 C 0.77016 0.13275 0.45976
 C349 C 0.74431 0.12463 0.50616
 C350 C 0.72648 0.11665 0.50232
 C351 C 0.71225 0.11638 0.51632
 C352 C 0.71595 0.12469 0.53410
 C353 C 0.73369 0.13292 0.53807
 C354 C 0.74787 0.13263 0.52404
 H355 H 0.74234 0.13933 0.47088
 H356 H 0.77881 0.10927 0.50910
 H357 H 0.72396 0.11011 0.48862
 H358 H 0.76172 0.13868 0.52697
 H359 H 0.79867 0.12475 0.45293
 H360 H 0.70482 0.12514 0.54472
 C361 C 1.02594 0.75426 0.86800
 C362 C 1.00821 0.75817 0.87608
 C363 C 1.00484 0.77592 0.88445
 C364 C 1.01914 0.78997 0.88510
 C365 C 1.03683 0.78572 0.87655
 C366 C 1.04029 0.76804 0.86795
 C367 C 0.99317 0.74357 0.87595
 C368 C 0.99663 0.72556 0.88380
 C369 C 0.98232 0.71149 0.88421
 C370 C 0.96454 0.71602 0.87594
 C371 C 0.96101 0.73398 0.86785
 C372 C 0.97537 0.74774 0.86814
 H373 H 1.02849 0.74048 0.86163
 H374 H 0.99128 0.77810 0.89136
 H375 H 1.01025 0.72316 0.89052
 H376 H 0.97276 0.76173 0.86219
 H377 H 1.04775 0.79646 0.87553
 H378 H 0.95359 0.70533 0.87475
 C379 C 0.52589 0.25524 0.36638
 C380 C 0.50811 0.25866 0.37467
 C381 C 0.50431 0.27637 0.38294
 C382 C 0.51824 0.29063 0.38320
 C383 C 0.53593 0.28708 0.37463
 C384 C 0.53985 0.26947 0.36606
 C385 C 0.49341 0.24374 0.37456
 C386 C 0.49723 0.22587 0.38257
 C387 C 0.48325 0.21165 0.38277
 C388 C 0.46549 0.21540 0.37436
 C389 C 0.46156 0.23318 0.36605
 C390 C 0.47557 0.24736 0.36645
 H391 H 0.52858 0.24166 0.35964
 H392 H 0.49050 0.27897 0.38923
 H393 H 0.51091 0.22329 0.38917
 H394 H 0.47285 0.26107 0.35993
 H395 H 0.54687 0.29788 0.37505
 H396 H 0.45470 0.20445 0.37428
 C397 C 1.02342 0.24472 0.63342
 C398 C 1.00575 0.24127 0.62502
 C399 C 1.00189 0.22339 0.61719
 C400 C 1.01565 0.20873 0.61738
 C401 C 1.03331 0.21256 0.62618
 C402 C 1.03724 0.23038 0.63428
 C403 C 0.99109 0.25631 0.62482
 C404 C 0.99497 0.27404 0.61657
 C405 C 0.98122 0.28870 0.61639
 C406 C 0.96353 0.28503 0.62520
 C407 C 0.95959 0.26737 0.63371
 C408 C 0.97340 0.25301 0.63324
 H409 H 1.02614 0.25843 0.63985
 H410 H 0.98784 0.22100 0.61143
 H411 H 1.00903 0.27632 0.61080
 H412 H 0.97068 0.23942 0.63999
 H413 H 1.04461 0.20213 0.62597
 H414 H 0.95223 0.29545 0.62471
 C415 C 0.52307 0.74547 0.13278
 C416 C 0.50523 0.74166 0.12481
 C417 C 0.50164 0.72378 0.11686
 C418 C 0.51584 0.70973 0.11657
 C419 C 0.53360 0.71367 0.12482
 C420 C 0.53731 0.73146 0.13308
 C421 C 0.49027 0.75639 0.12482
 C422 C 0.49372 0.77417 0.11650
 C423 C 0.47951 0.78821 0.11616
 C424 C 0.46187 0.78436 0.12472
 C425 C 0.45830 0.76667 0.13334
 C426 C 0.47255 0.75266 0.13310
 H427 H 0.52561 0.75918 0.13927
 H428 H 0.48779 0.72088 0.11079
 H429 H 0.50732 0.77682 0.10977
 H430 H 0.47011 0.73902 0.13985
 H431 H 0.54474 0.70303 0.12437
 H432 H 0.45089 0.79517 0.12468
 O433 O -0.01444 0.99191 0.94709
 O434 O 0.01621 1.00735 0.94585
 O435 O -0.00685 0.94669 0.98692
 O436 O 0.00275 0.94289 1.01699
 O437 O -0.05391 0.98614 0.99346
 O438 O -0.05611 1.01786 1.00523
 O439 O 0.04110 0.99759 1.03826
 O440 O 0.04462 0.96928 1.02206
 O441 O 0.03768 1.04082 0.99722
 O442 O 0.01662 1.04455 0.96730
 O443 O -0.00283 1.03845 1.04085
 O444 O -0.03117 1.01942 1.04698
 O445 O 0.01477 1.00886 1.05324
 O446 O -0.01816 0.99588 1.05625
 O447 O 0.00807 1.05349 1.01444
 O448 O -0.00377 1.05712 0.98325
 O449 O 0.05273 1.01496 1.00945
 O450 O 0.05424 0.98390 0.99274
 O451 O -0.04060 1.00350 0.96218
 O452 O -0.04587 1.03156 0.98088
 O453 O -0.03858 0.95990 1.00450
 O454 O -0.01906 0.95623 1.03339
 O455 O 0.00309 0.96189 0.96012
 O456 O 0.03244 0.97989 0.95796
 Zr457 Zr 0.00621 0.99030 0.96872
 O458 O 0.02419 1.00782 0.98497
 Zr459 Zr -0.01005 0.96835 1.00733
 O460 O 0.00752 0.98477 1.02507
 Zr461 Zr -0.03230 1.00660 0.99079
 O462 O -0.01592 1.02475 1.00794
 Zr463 Zr 0.03171 0.99379 1.01019
 O464 O 0.01530 0.97533 0.99312
 Zr465 Zr 0.00927 1.03207 0.99371
 O466 O -0.00821 1.01562 0.97567
 Zr467 Zr -0.00664 1.01005 1.03231
 O468 O -0.02516 0.99258 1.01627
 O469 O -0.01855 0.98187 0.98254
 O470 O 0.01812 1.01872 1.01866
 C471 C -0.03177 0.99781 0.94720
 C472 C -0.00162 0.94683 0.96937
 C473 C -0.05368 0.96880 0.99928
 C474 C 0.03231 1.00365 1.05309
 C475 C 0.05253 1.03229 1.00366
 C476 C 0.00297 1.05333 1.03197
 H477 H 0.03559 1.01104 0.97740
 H478 H -0.02353 1.03609 1.01122
 H479 H -0.02666 0.97363 0.97455
 H480 H 0.01112 0.97724 1.03640
 H481 H 0.04196 0.95868 1.01321
 H482 H 0.01427 0.94656 1.02413
 H483 H -0.01683 1.05753 0.98841
 H484 H -0.03714 1.03746 0.97155
 H485 H 0.06624 0.98500 1.00006
 H486 H 0.03033 0.97435 0.94518
 H487 H -0.03721 1.02950 1.03921
 H488 H -0.05626 1.01182 1.01796
 H489 H 0.01520 1.00006 0.93384
 H490 H 0.02893 1.03907 0.96326
 H491 H -0.02941 0.96439 1.03831
 H492 H -0.01013 0.98463 1.05892
 O493 O 0.48624 0.49287 0.44744
 O494 O 0.51707 0.50791 0.44635
 O495 O 0.49361 0.44704 0.48679
 O496 O 0.50327 0.44292 0.51685
 O497 O 0.44669 0.48647 0.49366
 O498 O 0.44463 0.51812 0.50601
 O499 O 0.54165 0.49723 0.53878
 O500 O 0.54497 0.46891 0.52227
 O501 O 0.53845 0.54084 0.49880
 O502 O 0.51779 0.54250 0.46719
 O503 O 0.49799 0.53837 0.54143
 O504 O 0.46940 0.51927 0.54746
 O505 O 0.51536 0.50858 0.55378
 O506 O 0.48250 0.49581 0.55680
 O507 O 0.50880 0.55370 0.51510
 O508 O 0.49745 0.55793 0.48503
 O509 O 0.55348 0.51464 0.51030
 O510 O 0.55480 0.48391 0.49309
 O511 O 0.46006 0.50420 0.46267
 O512 O 0.45463 0.53196 0.48172
 O513 O 0.46194 0.46008 0.50443
 O514 O 0.48128 0.45609 0.53333
 O515 O 0.50357 0.46253 0.46017
 O516 O 0.53309 0.48042 0.45836
 Zr517 Zr 0.50684 0.49083 0.46910
 O518 O 0.52492 0.50808 0.48559
 Zr519 Zr 0.49046 0.46847 0.50745
 O520 O 0.50803 0.48467 0.52541
 Zr521 Zr 0.46832 0.50694 0.49132
 O522 O 0.48482 0.52486 0.50857
 Zr523 Zr 0.53230 0.49367 0.51066
 O524 O 0.51583 0.47551 0.49333
 Zr525 Zr 0.51007 0.53225 0.49448
 O526 O 0.49242 0.51612 0.47633
 Zr527 Zr 0.49398 0.50997 0.53284
 O528 O 0.47542 0.49265 0.51666
 O529 O 0.48204 0.48230 0.48280
 O530 O 0.51878 0.51855 0.51928
 C531 C 0.46892 0.49878 0.44762
 C532 C 0.49880 0.44737 0.46924
 C533 C 0.44688 0.46906 0.49923
 C534 C 0.53288 0.50330 0.55362
 C535 C 0.55329 0.53212 0.50501
 C536 C 0.50376 0.55336 0.53265
 H537 H 0.53627 0.51154 0.47803
 H538 H 0.47726 0.53622 0.51191
 H539 H 0.47393 0.47419 0.47468
 H540 H 0.51156 0.47703 0.53670
 H541 H 0.54236 0.45847 0.51323
 H542 H 0.51460 0.44650 0.52433
 H543 H 0.48382 0.55731 0.48834
 H544 H 0.46315 0.53783 0.47218
 H545 H 0.56677 0.48470 0.50049
 H546 H 0.53100 0.47488 0.44558
 H547 H 0.46358 0.52962 0.53989
 H548 H 0.44439 0.51177 0.51859
 H549 H 0.51600 0.50071 0.43430
 H550 H 0.52823 0.55182 0.46870
 H551 H 0.47106 0.46434 0.53837
 H552 H 0.49025 0.48430 0.55915
 O553 O 0.46344 -0.03955 0.49595
 O554 O 0.48124 -0.04126 0.46637
 O555 O 0.50584 -0.03768 0.53913
 O556 O 0.53155 -0.02031 0.54625
 O557 O 0.46125 0.00465 0.53783
 O558 O 0.45632 0.03264 0.51923
 O559 O 0.55521 0.01478 0.49056
 O560 O 0.55772 -0.01482 0.50473
 O561 O 0.51604 0.01016 0.44610
 O562 O 0.48460 -0.00628 0.44504
 O563 O 0.50995 0.05405 0.48458
 O564 O 0.49795 0.05708 0.51721
 O565 O 0.54000 0.04109 0.50158
 O566 O 0.52081 0.04683 0.53069
 O567 O 0.49887 0.03909 0.45819
 O568 O 0.47086 0.02374 0.45465
 O569 O 0.54239 -0.00085 0.46125
 O570 O 0.54398 -0.03166 0.47845
 O571 O 0.44835 -0.01311 0.50685
 O572 O 0.44601 0.01984 0.49529
 O573 O 0.48754 -0.00679 0.55273
 O574 O 0.51965 0.00677 0.55415
 O575 O 0.49362 -0.05240 0.51307
 O576 O 0.50891 -0.05326 0.48217
 Zr577 Zr 0.49179 -0.03066 0.49260
 O578 O 0.50914 -0.01415 0.47469
 Zr579 Zr 0.50816 -0.00885 0.53119
 O580 O 0.52627 0.00836 0.51471
 Zr581 Zr 0.46975 0.00768 0.50927
 O582 O 0.48618 0.02559 0.49185
 Zr583 Zr 0.53350 -0.00557 0.48939
 O584 O 0.51721 -0.02376 0.50693
 Zr585 Zr 0.49502 0.01102 0.46741
 O586 O 0.47657 -0.00631 0.48374
 Zr587 Zr 0.51154 0.03281 0.50577
 O588 O 0.49401 0.01664 0.52424
 O589 O 0.48345 -0.01709 0.51751
 O590 O 0.51998 0.01939 0.48088
 C591 C 0.44846 -0.03055 0.50134
 C592 C 0.49985 -0.05252 0.53027
 C593 C 0.47020 -0.00104 0.55274
 C594 C 0.55495 0.03228 0.49579
 C595 C 0.53358 0.00500 0.44633
 C596 C 0.50466 0.05395 0.46705
 H597 H 0.51245 -0.02161 0.46324
 H598 H 0.47854 0.03690 0.48842
 H599 H 0.47540 -0.02526 0.52566
 H600 H 0.53775 0.01150 0.52216
 H601 H 0.55404 -0.02670 0.51133
 H602 H 0.54317 -0.01594 0.53969
 H603 H 0.46004 0.01512 0.45704
 H604 H 0.44345 0.01202 0.48392
 H605 H 0.55692 -0.02938 0.47337
 H606 H 0.50177 -0.06535 0.48329
 H607 H 0.48581 0.05884 0.51033
 H608 H 0.46534 0.03873 0.52812
 H609 H 0.47582 -0.05409 0.46846
 H610 H 0.48573 0.00102 0.43301
 H611 H 0.51205 0.01858 0.55524
 H612 H 0.53162 0.03953 0.53597
 O613 O -0.03816 0.46025 0.99691
 O614 O -0.02033 0.45861 0.96735
 O615 O 0.00436 0.46237 1.04004
 O616 O 0.02997 0.47990 1.04712
 O617 O -0.04050 0.50442 1.03886
 O618 O -0.04564 0.53238 1.02027
 O619 O 0.05334 0.51511 0.99157
 O620 O 0.05600 0.48546 1.00555
 O621 O 0.01408 0.51034 0.94703
 O622 O -0.01719 0.49361 0.94600
 O623 O 0.00782 0.55411 0.98548
 O624 O -0.00418 0.55711 1.01811
 O625 O 0.03797 0.54133 1.00257
 O626 O 0.01870 0.54699 1.03161
 O627 O -0.00330 0.53908 0.95914
 O628 O -0.03120 0.52351 0.95567
 O629 O 0.04055 0.49955 0.96213
 O630 O 0.04235 0.46868 0.97921
 O631 O -0.05337 0.48661 1.00785
 O632 O -0.05592 0.51954 0.99637
 O633 O -0.01409 0.49316 1.05368
 O634 O 0.01793 0.50688 1.05506
 O635 O -0.00787 0.44755 1.01405
 O636 O 0.00741 0.44679 0.98313
 Zr637 Zr -0.00984 0.46929 0.99356
 O638 O 0.00738 0.48591 0.97562
 Zr639 Zr 0.00648 0.49121 1.03210
 O640 O 0.02444 0.50854 1.01560
 Zr641 Zr -0.03208 0.50750 1.01027
 O642 O -0.01579 0.52551 0.99283
 Zr643 Zr 0.03172 0.49466 0.99027
 O644 O 0.01557 0.47636 1.00783
 Zr645 Zr -0.00691 0.51099 0.96837
 O646 O -0.02522 0.49355 0.98474
 Zr647 Zr 0.00954 0.53290 1.00669
 O648 O -0.00784 0.51661 1.02520
 O649 O -0.01822 0.48281 1.01849
 O650 O 0.01803 0.51954 0.98179
 C651 C -0.05318 0.46919 1.00231
 C652 C -0.00158 0.44749 1.03123
 C653 C -0.03146 0.49881 1.05375
 C654 C 0.05300 0.53259 0.99686
 C655 C 0.03167 0.50536 0.94723
 C656 C 0.00245 0.55397 0.96797
 H657 H 0.01073 0.47848 0.96417
 H658 H -0.02351 0.53677 0.98940
 H659 H -0.02621 0.47459 1.02665
 H660 H 0.03591 0.51174 1.02306
 H661 H 0.05237 0.47354 1.01212
 H662 H 0.04155 0.48430 1.04051
 H663 H -0.04193 0.51476 0.95800
 H664 H -0.05841 0.51176 0.98496
 H665 H 0.05527 0.47106 0.97411
 H666 H 0.00035 0.43466 0.98426
 H667 H -0.01634 0.55878 1.01125
 H668 H -0.03662 0.53853 1.02913
 H669 H -0.02568 0.44575 0.96944
 H670 H -0.01617 0.50094 0.93398
 H671 H 0.01026 0.51864 1.05617
 H672 H 0.02954 0.53973 1.03692
 O673 O 0.01461 0.49104 0.55384
 O674 O -0.01619 0.50624 0.55504
 O675 O 0.00716 0.44560 0.51431
 O676 O -0.00253 0.44176 0.48428
 O677 O 0.05398 0.48509 0.50740
 O678 O 0.05600 0.51675 0.49533
 O679 O -0.04121 0.49638 0.46276
 O680 O -0.04453 0.46805 0.47919
 O681 O -0.03787 0.53968 0.50346
 O682 O -0.01687 0.54348 0.53331
 O683 O 0.00242 0.53730 0.45975
 O684 O 0.03093 0.51830 0.45372
 O685 O -0.01500 0.50768 0.44763
 O686 O 0.01798 0.49474 0.44458
 O687 O -0.00847 0.55230 0.48614
 O688 O 0.00358 0.55594 0.51737
 O689 O -0.05283 0.51379 0.49142
 O690 O -0.05418 0.48276 0.50840
 O691 O 0.04064 0.50264 0.53857
 O692 O 0.04576 0.53056 0.51956
 O693 O 0.03876 0.45882 0.49657
 O694 O 0.01919 0.45508 0.46775
 O695 O -0.00272 0.46082 0.54106
 O696 O -0.03222 0.47871 0.54314
 Zr697 Zr -0.00608 0.48921 0.53226
 O698 O -0.02421 0.50668 0.51595
 Zr699 Zr 0.01018 0.46724 0.49375
 O700 O -0.00752 0.48362 0.47593
 Zr701 Zr 0.03227 0.50554 0.50994
 O702 O 0.01574 0.52365 0.49272
 Zr703 Zr -0.03172 0.49262 0.49083
 O704 O -0.01516 0.47420 0.50798
 Zr705 Zr -0.00943 0.53094 0.50701
 O706 O 0.00819 0.51454 0.52509
 Zr707 Zr 0.00647 0.50892 0.46848
 O708 O 0.02513 0.49148 0.48458
 O709 O 0.01869 0.48081 0.51843
 O710 O -0.01828 0.51755 0.48218
 C711 C 0.03187 0.49705 0.55363
 C712 C 0.00202 0.44575 0.53188
 C713 C 0.05382 0.46774 0.50171
 C714 C -0.03252 0.50246 0.44787
 C715 C -0.05268 0.53115 0.49706
 C716 C -0.00347 0.55216 0.46858
 H717 H -0.03560 0.50990 0.52352
 H718 H 0.02328 0.53501 0.48935
 H719 H 0.02687 0.47262 0.52647
 H720 H -0.01112 0.47606 0.46466
 H721 H -0.04180 0.45749 0.48812
 H722 H -0.01407 0.44541 0.47714
 H723 H 0.01649 0.55656 0.51186
 H724 H 0.03699 0.53654 0.52879
 H725 H -0.06620 0.48385 0.50109
 H726 H -0.03003 0.47319 0.55594
 H727 H 0.03687 0.52846 0.46135
 H728 H 0.05611 0.51070 0.48264
 H729 H -0.01510 0.49897 0.56709
 H730 H -0.02910 0.53793 0.53744
 H731 H 0.02947 0.46327 0.46274
 H732 H 0.01003 0.48345 0.44205
 O733 O 0.50736 0.94516 0.01326
 O734 O 0.49418 0.94317 -0.01771
 O735 O 0.55322 0.98477 0.00618
 O736 O 0.55710 1.01481 -0.00331
 O737 O 0.51347 0.99127 0.05293
 O738 O 0.48197 1.00319 0.05508
 O739 O 0.50275 1.03661 -0.04201
 O740 O 0.53089 1.01991 -0.04544
 O741 O 0.45882 0.99659 -0.03871
 O742 O 0.45416 0.96844 -0.02217
 O743 O 0.46173 1.03960 0.00187
 O744 O 0.48085 1.04542 0.03020
 O745 O 0.49145 1.05167 -0.01576
 O746 O 0.50447 1.05439 0.01727
 O747 O 0.44650 1.01338 -0.00904
 O748 O 0.44457 0.98026 0.00436
 O749 O 0.48495 1.00818 -0.05367
 O750 O 0.51564 0.99112 -0.05545
 O751 O 0.49589 0.96029 0.03940
 O752 O 0.46793 0.97943 0.04444
 O753 O 0.53982 1.00218 0.03784
 O754 O 0.54372 1.03117 0.01833
 O755 O 0.53798 0.95810 -0.00373
 O756 O 0.51979 0.95725 -0.03406
 Zr757 Zr 0.50961 0.96688 -0.00730
 O758 O 0.49200 0.98336 -0.02511
 Zr759 Zr 0.53156 1.00523 0.00924
 O760 O 0.51529 1.02318 -0.00842
 Zr761 Zr 0.49312 0.98893 0.03112
 O762 O 0.47516 1.00651 0.01479
 Zr763 Zr 0.50619 1.00846 -0.03266
 O764 O 0.52467 0.99120 -0.01622
 Zr765 Zr 0.46778 0.99245 -0.01045
 O766 O 0.48415 0.97397 0.00685
 Zr767 Zr 0.49007 1.03071 0.00565
 O768 O 0.50732 1.01432 0.02422
 O769 O 0.51792 0.98051 0.01759
 O770 O 0.48134 1.01725 -0.01915
 C771 C 0.50137 0.94527 0.03054
 C772 C 0.55306 0.96723 0.00102
 C773 C 0.53082 0.99696 0.05286
 C774 C 0.49677 1.05150 -0.03327
 C775 C 0.46749 1.00290 -0.05352
 C776 C 0.44676 1.03088 -0.00387
 H777 H 0.48847 0.97584 -0.03645
 H778 H 0.46388 1.00990 0.02244
 H779 H 0.52603 0.97238 0.02577
 H780 H 0.52293 1.03441 -0.01199
 H781 H 0.54133 1.01079 -0.04289
 H782 H 0.55354 1.02160 -0.01510
 H783 H 0.44147 0.98861 0.01523
 H784 H 0.46211 0.97002 0.03578
 H785 H 0.51477 0.99868 -0.06735
 H786 H 0.52691 0.94520 -0.03232
 H787 H 0.47076 1.03774 0.03625
 H788 H 0.48787 1.01595 0.05520
 H789 H 0.50233 0.93167 -0.01694
 H790 H 0.46154 0.95725 -0.01789
 H791 H 0.53563 1.03604 0.02875
 H792 H 0.51568 1.05701 0.00920
 O793 O 0.49153 0.55214 0.01488
 O794 O 0.50462 0.55429 -0.01613
 O795 O 0.44587 0.51238 0.00812
 O796 O 0.44206 0.48233 -0.00123
 O797 O 0.48595 0.50597 0.05468
 O798 O 0.51749 0.49413 0.05672
 O799 O 0.49620 0.46091 -0.04021
 O800 O 0.46802 0.47753 -0.04355
 O801 O 0.54004 0.50111 -0.03720
 O802 O 0.54474 0.52917 -0.02075
 O803 O 0.53756 0.45790 0.00344
 O804 O 0.51872 0.45188 0.03184
 O805 O 0.50771 0.44577 -0.01400
 O806 O 0.49493 0.44298 0.01918
 O807 O 0.55260 0.48424 -0.00757
 O808 O 0.55448 0.51734 0.00577
 O809 O 0.51388 0.48943 -0.05202
 O810 O 0.48311 0.50640 -0.05368
 O811 O 0.50329 0.53702 0.04100
 O812 O 0.53142 0.51795 0.04591
 O813 O 0.45955 0.49497 0.03977
 O814 O 0.45567 0.46598 0.02035
 O815 O 0.46095 0.53913 -0.00193
 O816 O 0.47896 0.54017 -0.03235
 Zr817 Zr 0.48933 0.53048 -0.00561
 O818 O 0.50690 0.51414 -0.02348
 Zr819 Zr 0.46765 0.49200 0.01114
 O820 O 0.48387 0.47417 -0.00658
 Zr821 Zr 0.50616 0.50840 0.03277
 O822 O 0.52408 0.49092 0.01639
 Zr823 Zr 0.49276 0.48902 -0.03090
 O824 O 0.47431 0.50613 -0.01439
 Zr825 Zr 0.53124 0.50510 -0.00891
 O826 O 0.51491 0.52347 0.00842
 Zr827 Zr 0.50921 0.46669 0.00737
 O828 O 0.49202 0.48297 0.02601
 O829 O 0.48124 0.51675 0.01934
 O830 O 0.51773 0.48026 -0.01751
 C831 C 0.49762 0.55202 0.03214
 C832 C 0.44594 0.52993 0.00292
 C833 C 0.46862 0.50024 0.05472
 C834 C 0.50224 0.44600 -0.03147
 C835 C 0.53132 0.49480 -0.05196
 C836 C 0.55245 0.46672 -0.00238
 H837 H 0.51033 0.52171 -0.03485
 H838 H 0.53542 0.48756 0.02398
 H839 H 0.47314 0.52482 0.02753
 H840 H 0.47624 0.46293 -0.01009
 H841 H 0.45757 0.48659 -0.04095
 H842 H 0.44557 0.47566 -0.01307
 H843 H 0.55770 0.50896 0.01662
 H844 H 0.53710 0.52746 0.03722
 H845 H 0.48396 0.49889 -0.06557
 H846 H 0.47182 0.55220 -0.03059
 H847 H 0.52868 0.45968 0.03792
 H848 H 0.51164 0.48134 0.05689
 H849 H 0.49643 0.56576 -0.01535
 H850 H 0.53730 0.54033 -0.01651
 H851 H 0.46381 0.46115 0.03080
 H852 H 0.48372 0.44029 0.01114
 O853 O 0.03956 -0.04153 0.50406
 O854 O 0.02183 -0.04350 0.53370
 O855 O -0.00304 -0.03934 0.46105
 O856 O -0.02887 -0.02196 0.45408
 O857 O 0.04134 0.00300 0.46231
 O858 O 0.04615 0.03089 0.48099
 O859 O -0.05257 0.01265 0.50973
 O860 O -0.05490 -0.01692 0.49566
 O861 O -0.01320 0.00773 0.55424
 O862 O 0.01830 -0.00872 0.55516
 O863 O -0.00752 0.05190 0.51591
 O864 O 0.00448 0.05526 0.48328
 O865 O -0.03747 0.03906 0.49881
 O866 O -0.01832 0.04510 0.46977
 O867 O 0.00378 0.03675 0.54220
 O868 O 0.03190 0.02139 0.54559
 O869 O -0.03956 -0.00310 0.53912
 O870 O -0.04104 -0.03382 0.52193
 O871 O 0.05443 -0.01495 0.49321
 O872 O 0.05665 0.01789 0.50481
 O873 O 0.01504 -0.00833 0.44749
 O874 O -0.01712 0.00519 0.44619
 O875 O 0.00939 -0.05429 0.48698
 O876 O -0.00581 -0.05542 0.51793
 Zr877 Zr 0.01115 -0.03271 0.50753
 O878 O -0.00626 -0.01636 0.52554
 Zr879 Zr -0.00548 -0.01059 0.46909
 O880 O -0.02362 0.00647 0.48566
 Zr881 Zr 0.03291 0.00582 0.49092
 O882 O 0.01645 0.02355 0.50845
 Zr883 Zr -0.03072 -0.00767 0.51095
 O884 O -0.01437 -0.02571 0.49332
 Zr885 Zr 0.00776 0.00876 0.53287
 O886 O 0.02625 -0.00840 0.51642
 Zr887 Zr -0.00897 0.03086 0.49463
 O888 O 0.00856 0.01486 0.47604
 O889 O 0.01932 -0.01891 0.48264
 O890 O -0.01729 0.01723 0.51950
 C891 C 0.05446 -0.03243 0.49864
 C892 C 0.00309 -0.05425 0.46981
 C893 C 0.03236 -0.00258 0.44742
 C894 C -0.05240 0.03018 0.50450
 C895 C -0.03073 0.00263 0.55404
 C896 C -0.00218 0.05166 0.53342
 H897 H -0.00950 -0.02392 0.53698
 H898 H 0.02405 0.03483 0.51191
 H899 H 0.02739 -0.02700 0.47444
 H900 H -0.03512 0.00965 0.47823
 H901 H -0.05114 -0.02876 0.48904
 H902 H -0.04049 -0.01764 0.46069
 H903 H 0.04274 0.01278 0.54317
 H904 H 0.05924 0.01003 0.51621
 H905 H -0.05398 -0.03158 0.52704
 H906 H 0.00139 -0.06749 0.51676
 H907 H 0.01661 0.05698 0.49017
 H908 H 0.03707 0.03702 0.47212
 H909 H 0.02733 -0.05630 0.53156
 H910 H 0.01719 -0.00151 0.56721
 H911 H -0.00958 0.01700 0.44509
 H912 H -0.02907 0.03780 0.46444
 O913 O 0.69672 0.24276 0.26334
 O914 O 0.69576 0.25821 0.23259
 O915 O 0.73596 0.19703 0.25599
 O916 O 0.76597 0.19289 0.24640
 O917 O 0.74295 0.23626 0.30299
 O918 O 0.75511 0.26786 0.30513
 O919 O 0.78805 0.24738 0.20804
 O920 O 0.77150 0.21926 0.20454
 O921 O 0.74755 0.29109 0.21118
 O922 O 0.71763 0.29509 0.23218
 O923 O 0.79103 0.28814 0.25192
 O924 O 0.79682 0.26893 0.28036
 O925 O 0.80308 0.25844 0.23440
 O926 O 0.80590 0.24539 0.26735
 O927 O 0.76484 0.30350 0.24086
 O928 O 0.73372 0.30750 0.25255
 O929 O 0.75949 0.26510 0.19626
 O930 O 0.74243 0.23426 0.19476
 O931 O 0.71192 0.25407 0.28953
 O932 O 0.73096 0.28185 0.29482
 O933 O 0.75365 0.20993 0.28772
 O934 O 0.78249 0.20593 0.26831
 O935 O 0.70939 0.21256 0.24593
 O936 O 0.70753 0.23061 0.21649
 Zr937 Zr 0.71837 0.24087 0.24274
 O938 O 0.73487 0.25821 0.22474
 Zr939 Zr 0.75664 0.21842 0.25917
 O940 O 0.77463 0.23467 0.24163
 Zr941 Zr 0.74057 0.25681 0.28130
 O942 O 0.75795 0.27480 0.26490
 Zr943 Zr 0.75993 0.24390 0.21735
 O944 O 0.74258 0.22562 0.23375
 Zr945 Zr 0.74388 0.28233 0.23963
 O946 O 0.72562 0.26607 0.25713
 Zr947 Zr 0.78214 0.25983 0.25574
 O948 O 0.76586 0.24250 0.27426
 O949 O 0.73202 0.23222 0.26758
 O950 O 0.76866 0.26870 0.23090
 C951 C 0.69689 0.24863 0.28065
 C952 C 0.71843 0.19739 0.25073
 C953 C 0.74855 0.21886 0.30280
 C954 C 0.80292 0.25326 0.21687
 C955 C 0.75391 0.28250 0.19637
 C956 C 0.78234 0.30314 0.24607
 H957 H 0.72737 0.26154 0.21330
 H958 H 0.76134 0.28609 0.27251
 H959 H 0.72391 0.22407 0.27570
 H960 H 0.78586 0.22700 0.23809
 H961 H 0.76252 0.20877 0.20720
 H962 H 0.77329 0.19650 0.23497
 H963 H 0.73879 0.30779 0.26566
 H964 H 0.72176 0.28790 0.28603
 H965 H 0.74979 0.23529 0.18277
 H966 H 0.69469 0.22524 0.21859
 H967 H 0.78921 0.27914 0.28631
 H968 H 0.76774 0.26163 0.30535
 H969 H 0.68366 0.25107 0.23359
 H970 H 0.71359 0.28975 0.21982
 H971 H 0.78752 0.21405 0.27862
 H972 H 0.80839 0.23408 0.25941
 O973 O 0.75398 0.70889 0.71244
 O974 O 0.78354 0.70687 0.73031
 O975 O 0.71090 0.71148 0.75493
 O976 O 0.70397 0.72904 0.78058
 O977 O 0.71248 0.75361 0.71011
 O978 O 0.73127 0.78136 0.70506
 O979 O 0.75976 0.76351 0.80410
 O980 O 0.74552 0.73401 0.80668
 O981 O 0.80421 0.75835 0.76492
 O982 O 0.80520 0.74157 0.73367
 O983 O 0.76617 0.80253 0.75858
 O984 O 0.73353 0.80591 0.74653
 O985 O 0.74904 0.78991 0.78872
 O986 O 0.72006 0.79600 0.76950
 O987 O 0.79237 0.78720 0.74746
 O988 O 0.79573 0.77155 0.71954
 O989 O 0.78903 0.74764 0.79134
 O990 O 0.77174 0.71695 0.79305
 O991 O 0.74331 0.73545 0.69728
 O992 O 0.75504 0.76823 0.69478
 O993 O 0.69754 0.74248 0.73649
 O994 O 0.69625 0.75615 0.76854
 O995 O 0.73676 0.69635 0.74272
 O996 O 0.76766 0.69517 0.75804
 Zr997 Zr 0.75742 0.71783 0.74080
 O998 O 0.77547 0.73420 0.75810
 Zr999 Zr 0.71907 0.74021 0.75711
 O1000 O 0.73569 0.75730 0.77513
 Zr1001 Zr 0.74105 0.75632 0.71860
 O1002 O 0.75862 0.77407 0.73494
 Zr1003 Zr 0.76088 0.74308 0.78244
 O1004 O 0.74320 0.72504 0.76622
 Zr1005 Zr 0.78294 0.75922 0.74385
 O1006 O 0.76645 0.74202 0.72547
 Zr1007 Zr 0.74481 0.78158 0.76027
 O1008 O 0.72619 0.76556 0.74284
 O1009 O 0.73262 0.73170 0.73241
 O1010 O 0.76957 0.76788 0.76879
 C1011 C 0.74867 0.71795 0.69743
 C1012 C 0.71959 0.69650 0.74899
 C1013 C 0.69754 0.74816 0.71911
 C1014 C 0.75467 0.78108 0.80375
 C1015 C 0.80395 0.75335 0.78252
 C1016 C 0.78367 0.80219 0.75322
 H1017 H 0.78686 0.72662 0.76146
 H1018 H 0.76214 0.78530 0.72723
 H1019 H 0.72440 0.72360 0.72439
 H1020 H 0.72827 0.76057 0.78660
 H1021 H 0.73887 0.72218 0.80302
 H1022 H 0.71060 0.73337 0.79218
 H1023 H 0.79339 0.76279 0.70883
 H1024 H 0.76641 0.76034 0.69231
 H1025 H 0.77684 0.71925 0.80600
 H1026 H 0.76644 0.68307 0.75095
 H1027 H 0.74047 0.80758 0.73442
 H1028 H 0.72244 0.78759 0.71406
 H1029 H 0.78134 0.69404 0.72493
 H1030 H 0.81725 0.74878 0.73470
 H1031 H 0.69526 0.76795 0.76090
 H1032 H 0.71466 0.78875 0.78027
 O1033 O 0.23992 0.26564 0.69611
 O1034 O 0.25332 0.23477 0.69381
 O1035 O 0.19454 0.25809 0.73625
 O1036 O 0.19106 0.24854 0.76634
 O1037 O 0.23404 0.30505 0.74242
 O1038 O 0.26561 0.30735 0.75405
 O1039 O 0.24596 0.20997 0.78724
 O1040 O 0.21768 0.20645 0.77091
 O1041 O 0.28936 0.21376 0.74651
 O1042 O 0.29368 0.23058 0.71852
 O1043 O 0.28665 0.25396 0.79000
 O1044 O 0.26751 0.28220 0.79617
 O1045 O 0.25714 0.23624 0.80230
 O1046 O 0.24396 0.26922 0.80529
 O1047 O 0.30163 0.24325 0.76352
 O1048 O 0.30318 0.25702 0.73046
 O1049 O 0.26352 0.19854 0.75841
 O1050 O 0.23260 0.19672 0.74182
 O1051 O 0.25142 0.29176 0.71120
 O1052 O 0.27953 0.29690 0.73008
 O1053 O 0.20791 0.28979 0.75362
 O1054 O 0.20450 0.27011 0.78262
 O1055 O 0.20960 0.24845 0.70934
 O1056 O 0.22794 0.21824 0.70813
 Zr1057 Zr 0.23807 0.24499 0.71777
 O1058 O 0.25599 0.22721 0.73393
 Zr1059 Zr 0.21641 0.26123 0.75647
 O1060 O 0.23301 0.24356 0.77412
 Zr1061 Zr 0.25453 0.28339 0.73979
 O1062 O 0.27280 0.26709 0.75709
 Zr1063 Zr 0.24213 0.21945 0.75917
 O1064 O 0.22334 0.23587 0.74224
 Zr1065 Zr 0.28019 0.24199 0.74278
 O1066 O 0.26349 0.25926 0.72459
 Zr1067 Zr 0.25821 0.25774 0.78142
 O1068 O 0.24065 0.27629 0.76533
 O1069 O 0.22973 0.26976 0.73161
 O1070 O 0.26697 0.23306 0.76772
 C1071 C 0.24582 0.28294 0.69621
 C1072 C 0.19458 0.25303 0.71867
 C1073 C 0.21674 0.30486 0.74831
 C1074 C 0.25198 0.21870 0.80210
 C1075 C 0.28089 0.19884 0.75281
 C1076 C 0.30153 0.24825 0.78107
 H1077 H 0.25950 0.21595 0.72628
 H1078 H 0.28407 0.27476 0.76038
 H1079 H 0.22148 0.27792 0.72361
 H1080 H 0.22552 0.23989 0.78543
 H1081 H 0.20710 0.20901 0.76196
 H1082 H 0.19477 0.23668 0.77293
 H1083 H 0.30637 0.26776 0.73893
 H1084 H 0.28533 0.28831 0.72058
 H1085 H 0.23366 0.18479 0.74928
 H1086 H 0.22071 0.22000 0.69615
 H1087 H 0.27743 0.28837 0.78836
 H1088 H 0.25986 0.30733 0.76690
 H1089 H 0.24504 0.23555 0.68240
 H1090 H 0.28612 0.23486 0.70744
 H1091 H 0.21252 0.28061 0.78740
 H1092 H 0.23286 0.26106 0.80804
 O1093 O 0.20996 0.74546 0.29089
 O1094 O 0.22806 0.71601 0.29301
 O1095 O 0.25201 0.78884 0.28828
 O1096 O 0.27761 0.79601 0.27076
 O1097 O 0.20745 0.78679 0.24595
 O1098 O 0.20268 0.76786 0.21830
 O1099 O 0.30191 0.74028 0.23656
 O1100 O 0.30418 0.75460 0.26604
 O1101 O 0.26315 0.69550 0.24171
 O1102 O 0.23183 0.69429 0.25836
 O1103 O 0.25674 0.73341 0.19740
 O1104 O 0.24439 0.76590 0.19383
 O1105 O 0.28659 0.75085 0.21007
 O1106 O 0.26707 0.77968 0.20387
 O1107 O 0.24577 0.70715 0.21274
 O1108 O 0.21780 0.70359 0.22828
 O1109 O 0.28935 0.71093 0.25248
 O1110 O 0.29071 0.72832 0.28314
 O1111 O 0.19483 0.75595 0.26425
 O1112 O 0.19265 0.74399 0.23147
 O1113 O 0.23357 0.80200 0.25716
 O1114 O 0.26569 0.80351 0.24358
 O1115 O 0.23999 0.76291 0.30346
 O1116 O 0.25556 0.73212 0.30478
 Zr1117 Zr 0.23836 0.74219 0.28202
 O1118 O 0.25592 0.72424 0.26576
 Zr1119 Zr 0.25439 0.78064 0.25957
 O1120 O 0.27268 0.76413 0.24261
 Zr1121 Zr 0.21622 0.75828 0.24340
 O1122 O 0.23284 0.74082 0.22575
 Zr1123 Zr 0.28015 0.73902 0.25692
 O1124 O 0.26366 0.75662 0.27485
 Zr1125 Zr 0.24189 0.71660 0.24070
 O1126 O 0.22327 0.73297 0.25781
 Zr1127 Zr 0.25806 0.75484 0.21829
 O1128 O 0.24034 0.77334 0.23419
 O1129 O 0.22981 0.76689 0.26805
 O1130 O 0.26673 0.73017 0.23209
 C1131 C 0.19495 0.75066 0.28178
 C1132 C 0.24610 0.78013 0.30328
 C1133 C 0.21624 0.80183 0.25139
 C1134 C 0.30161 0.74534 0.21898
 C1135 C 0.28071 0.69592 0.24677
 C1136 C 0.25155 0.71587 0.19775
 H1137 H 0.25935 0.71289 0.27338
 H1138 H 0.22524 0.73722 0.21449
 H1139 H 0.22168 0.77507 0.27609
 H1140 H 0.28409 0.77165 0.23935
 H1141 H 0.30039 0.76126 0.27784
 H1142 H 0.28930 0.78942 0.26659
 H1143 H 0.20702 0.70587 0.23699
 H1144 H 0.19018 0.73270 0.23950
 H1145 H 0.30370 0.72331 0.28090
 H1146 H 0.24839 0.73330 0.31685
 H1147 H 0.23234 0.75890 0.19217
 H1148 H 0.21165 0.77670 0.21202
 H1149 H 0.22258 0.71819 0.30581
 H1150 H 0.23301 0.68223 0.25118
 H1151 H 0.25808 0.80444 0.23177
 H1152 H 0.27781 0.78513 0.21109
 O1153 O 0.19710 0.74365 0.76472
 O1154 O 0.19607 0.75887 0.73385
 O1155 O 0.23648 0.69800 0.75762
 O1156 O 0.26658 0.69394 0.74815
 O1157 O 0.24323 0.73743 0.80452
 O1158 O 0.25545 0.76915 0.80645
 O1159 O 0.28855 0.74819 0.70966
 O1160 O 0.27203 0.71991 0.70636
 O1161 O 0.24853 0.79183 0.71243
 O1162 O 0.21687 0.79344 0.73294
 O1163 O 0.29100 0.78945 0.75310
 O1164 O 0.29690 0.77036 0.78189
 O1165 O 0.30344 0.75959 0.73597
 O1166 O 0.30637 0.74696 0.76892
 O1167 O 0.26469 0.80473 0.74213
 O1168 O 0.23462 0.80890 0.75335
 O1169 O 0.26014 0.76564 0.69762
 O1170 O 0.24294 0.73492 0.69632
 O1171 O 0.21221 0.75499 0.79094
 O1172 O 0.23112 0.78287 0.79631
 O1173 O 0.25397 0.71105 0.78937
 O1174 O 0.28291 0.70710 0.77020
 O1175 O 0.20990 0.71346 0.74746
 O1176 O 0.20811 0.73143 0.71791
 Zr1177 Zr 0.21879 0.74178 0.74418
 O1178 O 0.23532 0.75904 0.72608
 Zr1179 Zr 0.25709 0.71946 0.76083
 O1180 O 0.27508 0.73570 0.74328
 Zr1181 Zr 0.24085 0.75789 0.78275
 O1182 O 0.25812 0.77586 0.76623
 Zr1183 Zr 0.26041 0.74467 0.71889
 O1184 O 0.24305 0.72649 0.73536
 Zr1185 Zr 0.24413 0.78324 0.74086
 O1186 O 0.22595 0.76707 0.75853
 Zr1187 Zr 0.28242 0.76102 0.75724
 O1188 O 0.26621 0.74366 0.77581
 O1189 O 0.23241 0.73324 0.76909
 O1190 O 0.26895 0.76958 0.73233
 C1191 C 0.19722 0.74947 0.78205
 C1192 C 0.21896 0.69831 0.75230
 C1193 C 0.24879 0.72001 0.80440
 C1194 C 0.30335 0.75425 0.71848
 C1195 C 0.25484 0.78311 0.69767
 C1196 C 0.28222 0.80442 0.74723
 H1197 H 0.22780 0.76249 0.71467
 H1198 H 0.26141 0.78723 0.77376
 H1199 H 0.22430 0.72509 0.77720
 H1200 H 0.28637 0.72808 0.73984
 H1201 H 0.26298 0.70947 0.70899
 H1202 H 0.27410 0.69755 0.73685
 H1203 H 0.23775 0.80820 0.76703
 H1204 H 0.22156 0.78868 0.78773
 H1205 H 0.25037 0.73573 0.68438
 H1206 H 0.19533 0.72589 0.71997
 H1207 H 0.28936 0.78077 0.78756
 H1208 H 0.26803 0.76285 0.80677
 H1209 H 0.18402 0.75166 0.73491
 H1210 H 0.21842 0.80280 0.72250
 H1211 H 0.28792 0.71537 0.78040
 H1212 H 0.30869 0.73538 0.76131
 O1213 O 0.25398 0.20902 0.21098
 O1214 O 0.28368 0.20700 0.22863
 O1215 O 0.21120 0.21107 0.25378
 O1216 O 0.20425 0.22840 0.27953
 O1217 O 0.21232 0.25361 0.20927
 O1218 O 0.23098 0.28146 0.20434
 O1219 O 0.26008 0.26284 0.30310
 O1220 O 0.24600 0.23325 0.30549
 O1221 O 0.30436 0.25817 0.26358
 O1222 O 0.30519 0.24178 0.23212
 O1223 O 0.26607 0.30226 0.25805
 O1224 O 0.23345 0.30572 0.24609
 O1225 O 0.24910 0.28931 0.28801
 O1226 O 0.21995 0.29539 0.26889
 O1227 O 0.29229 0.28717 0.24664
 O1228 O 0.29552 0.27192 0.21844
 O1229 O 0.28936 0.24722 0.29002
 O1230 O 0.27221 0.21643 0.29155
 O1231 O 0.24311 0.23566 0.19610
 O1232 O 0.25478 0.26852 0.19384
 O1233 O 0.19758 0.24215 0.23562
 O1234 O 0.19643 0.25557 0.26783
 O1235 O 0.23704 0.19615 0.24127
 O1236 O 0.26805 0.19497 0.25634
 Zr1237 Zr 0.25758 0.21774 0.23938
 O1238 O 0.27566 0.23403 0.25673
 Zr1239 Zr 0.21924 0.23982 0.25611
 O1240 O 0.23588 0.25679 0.27421
 Zr1241 Zr 0.24093 0.25635 0.21762
 O1242 O 0.25851 0.27403 0.23404
 Zr1243 Zr 0.26118 0.24262 0.28124
 O1244 O 0.24348 0.22465 0.26495
 Zr1245 Zr 0.28294 0.25921 0.24267
 O1246 O 0.26642 0.24210 0.22422
 Zr1247 Zr 0.24479 0.28123 0.25951
 O1248 O 0.22616 0.26531 0.24201
 O1249 O 0.23268 0.23157 0.23126
 O1250 O 0.26966 0.26757 0.26776
 C1251 C 0.24853 0.21817 0.19607
 C1252 C 0.21991 0.19617 0.24767
 C1253 C 0.19746 0.24800 0.21829
 C1254 C 0.25488 0.28038 0.30293
 C1255 C 0.30422 0.25304 0.28115
 C1256 C 0.28356 0.30204 0.25268
 H1257 H 0.28711 0.22647 0.25995
 H1258 H 0.26194 0.28535 0.22643
 H1259 H 0.22444 0.22351 0.22323
 H1260 H 0.22850 0.25992 0.28575
 H1261 H 0.23938 0.22142 0.30176
 H1262 H 0.21100 0.23251 0.29114
 H1263 H 0.29313 0.26330 0.20763
 H1264 H 0.26611 0.26062 0.19119
 H1265 H 0.27738 0.21863 0.30447
 H1266 H 0.26684 0.18293 0.24914
 H1267 H 0.24029 0.30748 0.23393
 H1268 H 0.22223 0.28761 0.21347
 H1269 H 0.28151 0.19422 0.22313
 H1270 H 0.31722 0.24903 0.23315
 H1271 H 0.19528 0.26739 0.26024
 H1272 H 0.21474 0.28811 0.27975
 O1273 O 0.78832 0.71213 0.24625
 O1274 O 0.79010 0.73014 0.21673
 O1275 O 0.78591 0.75422 0.28955
 O1276 O 0.76842 0.77995 0.29659
 O1277 O 0.74392 0.70961 0.28797
 O1278 O 0.71606 0.70471 0.26926
 O1279 O 0.73345 0.80385 0.24101
 O1280 O 0.76300 0.80632 0.25517
 O1281 O 0.73853 0.76491 0.19636
 O1282 O 0.75521 0.73354 0.19527
 O1283 O 0.69451 0.75852 0.23466
 O1284 O 0.69134 0.74632 0.26721
 O1285 O 0.70719 0.78852 0.25189
 O1286 O 0.70140 0.76905 0.28086
 O1287 O 0.70968 0.74757 0.20831
 O1288 O 0.72525 0.71964 0.20475
 O1289 O 0.74924 0.79123 0.21162
 O1290 O 0.77997 0.79279 0.22886
 O1291 O 0.76193 0.69692 0.25705
 O1292 O 0.72906 0.69458 0.24532
 O1293 O 0.75506 0.73588 0.30296
 O1294 O 0.74135 0.76795 0.30443
 O1295 O 0.80088 0.74218 0.26353
 O1296 O 0.80182 0.75774 0.23268
 Zr1297 Zr 0.77927 0.74049 0.24294
 O1298 O 0.76275 0.75791 0.22502
 Zr1299 Zr 0.75714 0.75661 0.28147
 O1300 O 0.73991 0.77477 0.26500
 Zr1301 Zr 0.74098 0.71826 0.25942
 O1302 O 0.72308 0.73476 0.24199
 Zr1303 Zr 0.75392 0.78218 0.23975
 O1304 O 0.77213 0.76582 0.25731
 Zr1305 Zr 0.73772 0.74377 0.21761
 O1306 O 0.75508 0.72526 0.23396
 Zr1307 Zr 0.71561 0.76002 0.25594
 O1308 O 0.73179 0.74243 0.27442
 O1309 O 0.76561 0.73198 0.26778
 O1310 O 0.72910 0.76864 0.23111
 C1311 C 0.77939 0.69710 0.25161
 C1312 C 0.80083 0.74827 0.28076
 C1313 C 0.74945 0.71851 0.30292
 C1314 C 0.71595 0.80354 0.24623
 C1315 C 0.74354 0.78248 0.19665
 C1316 C 0.69474 0.75329 0.21713
 H1317 H 0.77025 0.76131 0.21361
 H1318 H 0.71184 0.72710 0.23849
 H1319 H 0.77377 0.72390 0.27594
 H1320 H 0.73666 0.78619 0.27248
 H1321 H 0.77487 0.80261 0.26178
 H1322 H 0.76395 0.79160 0.29008
 H1323 H 0.73393 0.70883 0.20714
 H1324 H 0.73699 0.69208 0.23399
 H1325 H 0.77763 0.80576 0.22381
 H1326 H 0.81395 0.75063 0.23383
 H1327 H 0.68973 0.73419 0.26033
 H1328 H 0.70987 0.71368 0.27815
 H1329 H 0.80295 0.72473 0.21885
 H1330 H 0.74796 0.73471 0.18323
 H1331 H 0.72958 0.76033 0.30546
 H1332 H 0.70859 0.77986 0.28620
 O1333 O 0.75688 0.23429 0.69595
 O1334 O 0.74356 0.26523 0.69368
 O1335 O 0.80228 0.24129 0.73605
 O1336 O 0.80588 0.25065 0.76615
 O1337 O 0.76251 0.19455 0.74217
 O1338 O 0.73094 0.19238 0.75382
 O1339 O 0.75131 0.28939 0.78712
 O1340 O 0.77957 0.29285 0.77075
 O1341 O 0.70776 0.28617 0.74651
 O1342 O 0.70329 0.26960 0.71845
 O1343 O 0.71030 0.24564 0.78987
 O1344 O 0.72927 0.21728 0.79602
 O1345 O 0.73996 0.26313 0.80219
 O1346 O 0.75296 0.23001 0.80509
 O1347 O 0.69533 0.25659 0.76341
 O1348 O 0.69366 0.24311 0.73032
 O1349 O 0.73374 0.30112 0.75840
 O1350 O 0.76460 0.30287 0.74171
 O1351 O 0.74522 0.20814 0.71098
 O1352 O 0.71704 0.20310 0.72986
 O1353 O 0.78875 0.20960 0.75335
 O1354 O 0.79234 0.22903 0.78240
 O1355 O 0.78725 0.25123 0.70917
 O1356 O 0.76906 0.28156 0.70798
 Zr1357 Zr 0.75881 0.25480 0.71761
 O1358 O 0.74103 0.27259 0.73381
 Zr1359 Zr 0.78043 0.23818 0.75628
 O1360 O 0.76399 0.25582 0.77397
 Zr1361 Zr 0.74215 0.21636 0.73959
 O1362 O 0.72403 0.23266 0.75693
 Zr1363 Zr 0.75500 0.28009 0.75904
 O1364 O 0.77365 0.26366 0.74207
 Zr1365 Zr 0.71676 0.25791 0.74267
 O1366 O 0.73331 0.24065 0.72443
 Zr1367 Zr 0.73871 0.24176 0.78127
 O1368 O 0.75612 0.22320 0.76513
 O1369 O 0.76701 0.22990 0.73142
 O1370 O 0.73009 0.26658 0.76761
 C1371 C 0.75092 0.21702 0.69603
 C1372 C 0.80225 0.24646 0.71847
 C1373 C 0.77983 0.19461 0.74801
 C1374 C 0.74527 0.28062 0.80200
 C1375 C 0.71634 0.30097 0.75285
 C1376 C 0.69543 0.25147 0.78095
 H1377 H 0.73757 0.28393 0.72619
 H1378 H 0.71272 0.22504 0.76022
 H1379 H 0.77521 0.22175 0.72341
 H1380 H 0.77153 0.25937 0.78528
 H1381 H 0.79010 0.29029 0.76178
 H1382 H 0.80225 0.26248 0.77278
 H1383 H 0.69045 0.23230 0.73874
 H1384 H 0.71132 0.21177 0.72033
 H1385 H 0.76363 0.31476 0.74920
 H1386 H 0.77625 0.27982 0.69599
 H1387 H 0.71935 0.21118 0.78817
 H1388 H 0.73672 0.19226 0.76666
 H1389 H 0.75180 0.26447 0.68226
 H1390 H 0.71079 0.26535 0.70736
 H1391 H 0.78426 0.21853 0.78715
 H1392 H 0.76409 0.23811 0.80787
 C1393 C 0.09050 1.01144 1.15676
 C1394 C 0.09748 0.99572 1.16675
 C1395 C 0.10612 0.99811 1.18451
 C1396 C 0.10802 1.01638 1.19268
 C1397 C 0.10082 1.03207 1.18224
 C1398 C 0.09220 1.02957 1.16455
 C1399 C 0.08118 1.00911 1.13870
 C1400 C 0.07306 1.00766 1.12367
 C1401 C 0.06294 1.00643 1.10593
 C1402 C 0.07214 1.00015 1.08946
 C1403 C 0.06224 0.99926 1.07222
 C1404 C 0.04298 1.00466 1.07126
 C1405 C 0.03391 1.01099 1.08794
 C1406 C 0.04383 1.01185 1.10512
 H1407 H 0.09630 0.98158 1.16079
 H1408 H 0.11187 0.98558 1.19135
 H1409 H 0.10096 1.04632 1.18794
 H1410 H 0.08661 1.04184 1.15704
 H1411 H 0.08696 0.99597 1.08993
 H1412 H 0.06967 0.99435 1.05968
 H1413 H 0.01912 1.01528 1.08777
 H1414 H 0.03659 1.01680 1.11777
 C1415 C 0.59071 0.51149 0.65747
 C1416 C 0.60170 0.49686 0.66537
 C1417 C 0.61024 0.49924 0.68319
 C1418 C 0.60790 0.51633 0.69329
 C1419 C 0.59678 0.53091 0.68521
 C1420 C 0.58827 0.52849 0.66744
 C1421 C 0.58162 0.50913 0.63929
 C1422 C 0.57361 0.50761 0.62422
 C1423 C 0.56352 0.50627 0.60647
 C1424 C 0.57274 0.49999 0.59000
 C1425 C 0.56283 0.49899 0.57277
 C1426 C 0.54354 0.50430 0.57180
 C1427 C 0.53445 0.51060 0.58848
 C1428 C 0.54437 0.51157 0.60564
 H1429 H 0.60367 0.48362 0.65777
 H1430 H 0.61886 0.48784 0.68895
 H1431 H 0.59445 0.54411 0.69275
 H1432 H 0.57970 0.53987 0.66152
 H1433 H 0.58758 0.49590 0.59048
 H1434 H 0.57029 0.49411 0.56023
 H1435 H 0.51964 0.51481 0.58830
 H1436 H 0.53711 0.51650 0.61829
 C1437 C 0.41261 -0.00840 0.65676
 C1438 C 0.40125 0.00600 0.66447
 C1439 C 0.39229 0.00328 0.68204
 C1440 C 0.39458 -0.01391 0.69207
 C1441 C 0.40611 -0.02823 0.68421
 C1442 C 0.41504 -0.02549 0.66669
 C1443 C 0.42192 -0.00581 0.63872
 C1444 C 0.43003 -0.00418 0.62370
 C1445 C 0.44010 -0.00281 0.60594
 C1446 C 0.43078 0.00329 0.58943
 C1447 C 0.44055 0.00401 0.57211
 C1448 C 0.45981 -0.00141 0.57110
 C1449 C 0.46904 -0.00741 0.58785
 C1450 C 0.45925 -0.00810 0.60511
 H1451 H 0.39927 0.01928 0.65690
 H1452 H 0.38336 0.01450 0.68765
 H1453 H 0.40840 -0.04150 0.69171
 H1454 H 0.42388 -0.03669 0.66090
 H1455 H 0.41593 0.00736 0.58991
 H1456 H 0.43299 0.00868 0.55952
 H1457 H 0.48383 -0.01168 0.58764
 H1458 H 0.46660 -0.01290 0.61779
 C1459 C -0.08816 0.49118 1.15818
 C1460 C -0.09963 0.50543 1.16603
 C1461 C -0.10836 0.50257 1.18369
 C1462 C -0.10574 0.48539 1.19366
 C1463 C -0.09409 0.47124 1.18566
 C1464 C -0.08539 0.47413 1.16806
 C1465 C -0.07910 0.49390 1.14004
 C1466 C -0.07116 0.49560 1.12494
 C1467 C -0.06122 0.49701 1.10712
 C1468 C -0.07071 0.50295 1.09064
 C1469 C -0.06105 0.50368 1.07325
 C1470 C -0.04176 0.49842 1.07215
 C1471 C -0.03237 0.49257 1.08887
 C1472 C -0.04204 0.49188 1.10619
 H1473 H -0.10186 0.51869 1.15849
 H1474 H -0.11739 0.51365 1.18940
 H1475 H -0.09156 0.45798 1.19312
 H1476 H -0.07647 0.46304 1.16216
 H1477 H -0.08559 0.50690 1.09119
 H1478 H -0.06872 0.50823 1.06069
 H1479 H -0.01754 0.48843 1.08860
 H1480 H -0.03458 0.48720 1.11885
 C1481 C -0.09117 0.51125 0.34446
 C1482 C -0.09808 0.49565 0.33435
 C1483 C -0.10669 0.49827 0.31658
 C1484 C -0.10862 0.51664 0.30853
 C1485 C -0.10152 0.53219 0.31911
 C1486 C -0.09293 0.52948 0.33681
 C1487 C -0.08182 0.50868 0.36250
 C1488 C -0.07364 0.50704 0.37749
 C1489 C -0.06342 0.50560 0.39517
 C1490 C -0.07254 0.49931 0.41170
 C1491 C -0.06254 0.49827 0.42889
 C1492 C -0.04326 0.50354 0.42974
 C1493 C -0.03426 0.50984 0.41299
 C1494 C -0.04428 0.51085 0.39587
 H1495 H -0.09685 0.48145 0.34021
 H1496 H -0.11237 0.48582 0.30964
 H1497 H -0.10169 0.54652 0.31352
 H1498 H -0.08740 0.54165 0.34441
 H1499 H -0.08739 0.49527 0.41132
 H1500 H -0.06993 0.49339 0.44148
 H1501 H -0.01946 0.51402 0.41308
 H1502 H -0.03709 0.51580 0.38317
 C1503 C 0.40943 1.01185 -0.15720
 C1504 C 0.40228 0.99636 -0.16730
 C1505 C 0.39378 0.99908 -0.18511
 C1506 C 0.39220 1.01747 -0.19320
 C1507 C 0.39959 1.03291 -0.18266
 C1508 C 0.40806 1.03008 -0.16493
 C1509 C 0.41862 1.00920 -0.13910
 C1510 C 0.42668 1.00756 -0.12405
 C1511 C 0.43679 1.00618 -0.10631
 C1512 C 0.42770 0.99950 -0.08991
 C1513 C 0.43761 0.99847 -0.07268
 C1514 C 0.45677 1.00414 -0.07165
 C1515 C 0.46572 1.01088 -0.08825
 C1516 C 0.45579 1.01188 -0.10542
 H1517 H 0.40322 0.98215 -0.16140
 H1518 H 0.38789 0.98673 -0.19205
 H1519 H 0.39971 1.04722 -0.18829
 H1520 H 0.41379 1.04217 -0.15733
 H1521 H 0.41296 0.99512 -0.09044
 H1522 H 0.43028 0.99323 -0.06020
 H1523 H 0.48042 1.01538 -0.08802
 H1524 H 0.46294 1.01714 -0.11801
 C1525 C 0.58858 0.48769 -0.15613
 C1526 C 0.60009 0.50211 -0.16361
 C1527 C 0.60876 0.49978 -0.18136
 C1528 C 0.60605 0.48296 -0.19180
 C1529 C 0.59434 0.46865 -0.18419
 C1530 C 0.58570 0.47101 -0.16649
 C1531 C 0.57956 0.48987 -0.13791
 C1532 C 0.57163 0.49115 -0.12277
 C1533 C 0.56167 0.49217 -0.10494
 C1534 C 0.57080 0.49886 -0.08859
 C1535 C 0.56101 0.49965 -0.07129
 C1536 C 0.54193 0.49373 -0.07015
 C1537 C 0.53295 0.48696 -0.08669
 C1538 C 0.54276 0.48619 -0.10392
 H1539 H 0.60240 0.51509 -0.15570
 H1540 H 0.61783 0.51096 -0.18679
 H1541 H 0.59172 0.45568 -0.19201
 H1542 H 0.57673 0.45982 -0.16090
 H1543 H 0.58547 0.50347 -0.08922
 H1544 H 0.56837 0.50492 -0.05886
 H1545 H 0.51831 0.48226 -0.08637
 H1546 H 0.53558 0.48093 -0.11648
 C1547 C 0.08890 -0.01019 0.34294
 C1548 C 0.10056 0.00389 0.33509
 C1549 C 0.10912 0.00104 0.31735
 C1550 C 0.10614 -0.01597 0.30730
 C1551 C 0.09432 -0.02997 0.31531
 C1552 C 0.08579 -0.02708 0.33299
 C1553 C 0.07995 -0.00744 0.36112
 C1554 C 0.07205 -0.00570 0.37623
 C1555 C 0.06212 -0.00426 0.39405
 C1556 C 0.07161 0.00158 0.41053
 C1557 C 0.06194 0.00230 0.42791
 C1558 C 0.04264 -0.00287 0.42901
 C1559 C 0.03325 -0.00858 0.41229
 C1560 C 0.04293 -0.00926 0.39498
 H1561 H 0.10307 0.01703 0.34268
 H1562 H 0.11829 0.01200 0.31163
 H1563 H 0.09151 -0.04308 0.30779
 H1564 H 0.07671 -0.03804 0.33888
 H1565 H 0.08650 0.00542 0.40997
 H1566 H 0.06962 0.00674 0.44047
 H1567 H 0.01842 -0.01264 0.41256
 H1568 H 0.03546 -0.01385 0.38233
 C1569 C 0.15586 1.09125 1.00795
 C1570 C 0.15760 1.10660 1.02034
 C1571 C 0.17516 1.11544 1.02287
 C1572 C 0.19156 1.10906 1.01309
 C1573 C 0.18933 1.09383 1.00015
 C1574 C 0.17169 1.08501 0.99772
 C1575 C 0.13797 1.08147 1.00638
 C1576 C 0.12303 1.07315 1.00555
 C1577 C 0.10531 1.06299 1.00499
 C1578 C 0.08880 1.07188 0.99827
 C1579 C 0.07158 1.06197 0.99793
 C1580 C 0.07066 1.04301 1.00431
 C1581 C 0.08736 1.03426 1.01112
 C1582 C 0.10453 1.04419 1.01144
 H1583 H 0.14537 1.11169 1.02819
 H1584 H 0.17558 1.12762 1.03221
 H1585 H 0.20130 1.08787 0.99260
 H1586 H 0.17052 1.07302 0.98815
 H1587 H 0.08923 1.08646 0.99331
 H1588 H 0.05903 1.06916 0.99261
 H1589 H 0.08721 1.01970 1.01616
 H1590 H 0.11720 1.03719 1.01674
 C1591 C 0.65680 0.59064 0.50952
 C1592 C 0.67333 0.58190 0.50271
 C1593 C 0.69096 0.59077 0.50495
 C1594 C 0.69226 0.60846 0.51412
 C1595 C 0.67551 0.61731 0.52054
 C1596 C 0.65791 0.60844 0.51827
 C1597 C 0.63882 0.58103 0.50826
 C1598 C 0.62382 0.57281 0.50757
 C1599 C 0.60605 0.56275 0.50704
 C1600 C 0.60525 0.54383 0.51315
 C1601 C 0.58807 0.53393 0.51264
 C1602 C 0.57139 0.54283 0.50599
 C1603 C 0.57232 0.56193 0.50000
 C1604 C 0.58955 0.57180 0.50053
 H1605 H 0.67263 0.56809 0.49598
 H1606 H 0.70362 0.58352 0.50005
 H1607 H 0.67603 0.63105 0.52742
 H1608 H 0.64520 0.61534 0.52357
 H1609 H 0.61794 0.53671 0.51826
 H1610 H 0.58791 0.51928 0.51739
 H1611 H 0.55978 0.56923 0.49482
 H1612 H 0.59001 0.58646 0.49582
 C1613 C 0.65636 0.40890 -0.00980
 C1614 C 0.66677 0.40195 0.00566
 C1615 C 0.68447 0.39330 0.00278
 C1616 C 0.69213 0.39135 -0.01573
 C1617 C 0.68130 0.39860 -0.03112
 C1618 C 0.66368 0.40721 -0.02814
 C1619 C 0.63831 0.41815 -0.00706
 C1620 C 0.62327 0.42623 -0.00549
 C1621 C 0.60550 0.43632 -0.00431
 C1622 C 0.60465 0.45542 -0.00980
 C1623 C 0.58741 0.46527 -0.00920
 C1624 C 0.57069 0.45613 -0.00310
 C1625 C 0.57169 0.43689 0.00241
 C1626 C 0.58899 0.42706 0.00179
 H1627 H 0.66117 0.40314 0.01996
 H1628 H 0.69167 0.38757 0.01512
 H1629 H 0.68661 0.39848 -0.04553
 H1630 H 0.65586 0.41280 -0.04020
 H1631 H 0.61732 0.46270 -0.01463
 H1632 H 0.58721 0.48004 -0.01355
 H1633 H 0.55912 0.42941 0.00718
 H1634 H 0.58948 0.41224 0.00599
 C1635 C 0.15875 -0.08948 0.49113
 C1636 C 0.16824 -0.08725 0.47380
 C1637 C 0.18581 -0.09600 0.47088
 C1638 C 0.19417 -0.10716 0.48527
 C1639 C 0.18461 -0.10922 0.50272
 C1640 C 0.16697 -0.10044 0.50561
 C1641 C 0.14065 -0.08034 0.49387
 C1642 C 0.12558 -0.07234 0.49556
 C1643 C 0.10778 -0.06235 0.49693
 C1644 C 0.09128 -0.07184 0.50266
 C1645 C 0.07391 -0.06213 0.50334
 C1646 C 0.07284 -0.04278 0.49824
 C1647 C 0.08958 -0.03339 0.49261
 C1648 C 0.10688 -0.04311 0.49196
 H1649 H 0.16206 -0.07871 0.46253
 H1650 H 0.19296 -0.09388 0.45741
 H1651 H 0.19062 -0.11785 0.51400
 H1652 H 0.15974 -0.10225 0.51909
 H1653 H 0.09180 -0.08676 0.50647
 H1654 H 0.06133 -0.06982 0.50773
 H1655 H 0.08933 -0.01852 0.48860
 H1656 H 0.11956 -0.03564 0.48744
 C1657 C 0.34531 -0.08950 0.50695
 C1658 C 0.32924 -0.08377 0.49675
 C1659 C 0.31181 -0.09284 0.49967
 C1660 C 0.31004 -0.10781 0.51304
 C1661 C 0.32665 -0.11364 0.52284
 C1662 C 0.34401 -0.10456 0.51983
 C1663 C 0.36301 -0.07952 0.50479
 C1664 C 0.37783 -0.07107 0.50349
 C1665 C 0.39549 -0.06085 0.50245
 C1666 C 0.39612 -0.04171 0.50773
 C1667 C 0.41333 -0.03184 0.50730
 C1668 C 0.43018 -0.04100 0.50159
 C1669 C 0.42936 -0.06025 0.49621
 C1670 C 0.41212 -0.07009 0.49666
 H1671 H 0.33008 -0.07201 0.48682
 H1672 H 0.29963 -0.08727 0.49210
 H1673 H 0.32658 -0.12559 0.53254
 H1674 H 0.35644 -0.10924 0.52767
 H1675 H 0.38334 -0.03444 0.51230
 H1676 H 0.41340 -0.01705 0.51153
 H1677 H 0.44203 -0.06776 0.49174
 H1678 H 0.41178 -0.08493 0.49260
 C1679 C -0.15668 0.41058 1.00601
 C1680 C -0.17346 0.41901 0.99934
 C1681 C -0.19093 0.40995 1.00207
 C1682 C -0.19181 0.39237 1.01161
 C1683 C -0.17482 0.38383 1.01787
 C1684 C -0.15739 0.39289 1.01510
 C1685 C -0.13886 0.42043 1.00434
 C1686 C -0.12394 0.42878 1.00342
 C1687 C -0.10621 0.43892 1.00278
 C1688 C -0.10557 0.45800 1.00827
 C1689 C -0.08835 0.46783 1.00811
 C1690 C -0.07145 0.45870 1.00243
 C1691 C -0.07227 0.43950 0.99688
 C1692 C -0.08954 0.42969 0.99707
 H1693 H -0.17308 0.43275 0.99235
 H1694 H -0.20378 0.41695 0.99727
 H1695 H -0.17504 0.37019 1.02503
 H1696 H -0.14450 0.38623 1.02031
 H1697 H -0.11839 0.46526 1.01277
 H1698 H -0.08829 0.48258 1.01246
 H1699 H -0.05957 0.43202 0.99244
 H1700 H -0.08987 0.41490 0.99285
 C1701 C -0.15577 0.59077 0.49117
 C1702 C -0.15751 0.60590 0.47841
 C1703 C -0.17504 0.61487 0.47579
 C1704 C -0.19139 0.60885 0.48587
 C1705 C -0.18916 0.59382 0.49912
 C1706 C -0.17157 0.58487 0.50164
 C1707 C -0.13792 0.58089 0.49293
 C1708 C -0.12303 0.57246 0.49399
 C1709 C -0.10536 0.56216 0.49487
 C1710 C -0.08888 0.57101 0.50157
 C1711 C -0.07170 0.56099 0.50223
 C1712 C -0.07079 0.54193 0.49618
 C1713 C -0.08747 0.53322 0.48942
 C1714 C -0.10460 0.54327 0.48878
 H1715 H -0.14530 0.61072 0.47036
 H1716 H -0.17545 0.62687 0.46617
 H1717 H -0.20111 0.58811 0.50689
 H1718 H -0.17039 0.57305 0.51149
 H1719 H -0.08930 0.58566 0.50626
 H1720 H -0.05916 0.56816 0.50750
 H1721 H -0.08732 0.51860 0.48463
 H1722 H -0.11726 0.53630 0.48351
 C1723 C 0.34339 1.09010 -0.00874
 C1724 C 0.34180 1.10535 -0.02136
 C1725 C 0.32430 1.11430 -0.02414
 C1726 C 0.30782 1.10814 -0.01438
 C1727 C 0.30988 1.09302 -0.00121
 C1728 C 0.32746 1.08407 0.00147
 C1729 C 0.36123 1.08021 -0.00692
 C1730 C 0.37615 1.07181 -0.00591
 C1731 C 0.39388 1.06160 -0.00519
 C1732 C 0.41050 1.07068 0.00080
 C1733 C 0.42775 1.06075 0.00118
 C1734 C 0.42858 1.04157 -0.00446
 C1735 C 0.41175 1.03261 -0.01049
 C1736 C 0.39455 1.04257 -0.01085
 H1737 H 0.35411 1.11027 -0.02920
 H1738 H 0.32400 1.12640 -0.03365
 H1739 H 0.29783 1.08724 0.00635
 H1740 H 0.32852 1.07217 0.01122
 H1741 H 0.41015 1.08544 0.00514
 H1742 H 0.44040 1.06810 0.00589
 H1743 H 0.41182 1.01789 -0.01494
 H1744 H 0.38178 1.03542 -0.01558
 C1745 C 0.00866 1.15660 1.09086
 C1746 C 0.02114 1.15812 1.10620
 C1747 C 0.02381 1.17559 1.11518
 C1748 C 0.01407 1.19210 1.10895
 C1749 C 0.00108 1.19011 1.09371
 C1750 C -0.00150 1.17257 1.08475
 C1751 C 0.00686 1.13879 1.08100
 C1752 C 0.00578 1.12390 1.07263
 C1753 C 0.00489 1.10620 1.06246
 C1754 C -0.00112 1.08962 1.07168
 C1755 C -0.00171 1.07239 1.06181
 C1756 C 0.00372 1.07153 1.04256
 C1757 C 0.00978 1.08831 1.03346
 C1758 C 0.01035 1.10550 1.04336
 H1759 H 0.02894 1.14577 1.11119
 H1760 H 0.03321 1.17583 1.12734
 H1761 H -0.00643 1.20219 1.08784
 H1762 H -0.01113 1.17157 1.07277
 H1763 H -0.00531 1.08999 1.08649
 H1764 H -0.00643 1.05977 1.06927
 H1765 H 0.01407 1.08821 1.01868
 H1766 H 0.01509 1.11824 1.03611
 C1767 C 0.50876 0.65656 0.59171
 C1768 C 0.51760 0.65753 0.60951
 C1769 C 0.52008 0.67510 0.61840
 C1770 C 0.51377 0.69195 0.60957
 C1771 C 0.50452 0.69077 0.59187
 C1772 C 0.50207 0.67318 0.58300
 C1773 C 0.50728 0.63861 0.58205
 C1774 C 0.50640 0.62368 0.57374
 C1775 C 0.50567 0.60599 0.56353
 C1776 C 0.49965 0.58935 0.57263
 C1777 C 0.49907 0.57219 0.56264
 C1778 C 0.50453 0.57146 0.54339
 C1779 C 0.51062 0.58830 0.53443
 C1780 C 0.51118 0.60542 0.54444
 H1781 H 0.52281 0.64475 0.61639
 H1782 H 0.52702 0.67552 0.63213
 H1783 H 0.49971 0.70350 0.58463
 H1784 H 0.49528 0.67259 0.56918
 H1785 H 0.49540 0.58964 0.58743
 H1786 H 0.49433 0.55952 0.57000
 H1787 H 0.51495 0.58830 0.51965
 H1788 H 0.51591 0.61821 0.53727
 C1789 C -0.01233 0.65584 0.41032
 C1790 C 0.00220 0.66378 0.39928
 C1791 C -0.00046 0.68146 0.39048
 C1792 C -0.01771 0.69138 0.39261
 C1793 C -0.03217 0.68328 0.40380
 C1794 C -0.02949 0.66565 0.41257
 C1795 C -0.00976 0.63776 0.41958
 C1796 C -0.00811 0.62273 0.42770
 C1797 C -0.00666 0.60501 0.43786
 C1798 C -0.00040 0.58853 0.42865
 C1799 C 0.00065 0.57130 0.43859
 C1800 C -0.00456 0.57035 0.45791
 C1801 C -0.01084 0.58703 0.46699
 C1802 C -0.01187 0.60420 0.45703
 H1803 H 0.01554 0.65630 0.39745
 H1804 H 0.01086 0.68726 0.38182
 H1805 H -0.04549 0.69069 0.40598
 H1806 H -0.04078 0.65970 0.42117
 H1807 H 0.00361 0.58900 0.41379
 H1808 H 0.00553 0.55876 0.43114
 H1809 H -0.01499 0.58686 0.48182
 H1810 H -0.01680 0.61685 0.46428
 C1811 C 0.49102 1.15520 -0.09201
 C1812 C 0.50116 1.17108 -0.08584
 C1813 C 0.49840 1.18877 -0.09457
 C1814 C 0.48523 1.19099 -0.10964
 C1815 C 0.47552 1.17456 -0.11596
 C1816 C 0.47837 1.15695 -0.10721
 C1817 C 0.49294 1.13725 -0.08232
 C1818 C 0.49406 1.12226 -0.07403
 C1819 C 0.49494 1.10448 -0.06388
 C1820 C 0.50094 1.08790 -0.07306
 C1821 C 0.50151 1.07063 -0.06317
 C1822 C 0.49604 1.06972 -0.04392
 C1823 C 0.48999 1.08650 -0.03487
 C1824 C 0.48945 1.10373 -0.04478
 H1825 H 0.51092 1.16990 -0.07397
 H1826 H 0.50592 1.20076 -0.08866
 H1827 H 0.46599 1.17499 -0.12802
 H1828 H 0.47058 1.14468 -0.11224
 H1829 H 0.50516 1.08832 -0.08787
 H1830 H 0.50622 1.05801 -0.07060
 H1831 H 0.48567 1.08638 -0.02009
 H1832 H 0.48471 1.11646 -0.03755
 C1833 C 0.50682 0.34277 -0.09062
 C1834 C 0.49664 0.32682 -0.08460
 C1835 C 0.49919 0.30931 -0.09366
 C1836 C 0.51219 0.30733 -0.10889
 C1837 C 0.52192 0.32384 -0.11503
 C1838 C 0.51927 0.34128 -0.10597
 C1839 C 0.50511 0.36055 -0.08065
 C1840 C 0.50417 0.37543 -0.07224
 C1841 C 0.50351 0.39314 -0.06205
 C1842 C 0.50925 0.39378 -0.04302
 C1843 C 0.50892 0.41097 -0.03310
 C1844 C 0.50283 0.42782 -0.04211
 C1845 C 0.49713 0.42702 -0.06129
 C1846 C 0.49749 0.40979 -0.07118
 H1847 H 0.48702 0.32781 -0.07262
 H1848 H 0.49167 0.29723 -0.08788
 H1849 H 0.53130 0.32363 -0.12720
 H1850 H 0.52708 0.35361 -0.11089
 H1851 H 0.51401 0.38099 -0.03583
 H1852 H 0.51340 0.41101 -0.01837
 H1853 H 0.49239 0.43969 -0.06869
 H1854 H 0.49309 0.40947 -0.08594
 C1855 C 0.00707 -0.15770 0.41115
 C1856 C 0.00024 -0.17439 0.41956
 C1857 C 0.00270 -0.19188 0.41047
 C1858 C 0.01211 -0.19288 0.39285
 C1859 C 0.01863 -0.17597 0.38436
 C1860 C 0.01613 -0.15852 0.39347
 C1861 C 0.00548 -0.13986 0.42097
 C1862 C 0.00453 -0.12495 0.42933
 C1863 C 0.00379 -0.10725 0.43951
 C1864 C 0.01000 -0.10649 0.45838
 C1865 C 0.00971 -0.08928 0.46825
 C1866 C 0.00320 -0.07253 0.45935
 C1867 C -0.00308 -0.07347 0.44036
 C1868 C -0.00277 -0.09073 0.43052
 H1869 H -0.00672 -0.17393 0.43329
 H1870 H -0.00228 -0.20466 0.41746
 H1871 H 0.02569 -0.17626 0.37069
 H1872 H 0.02147 -0.14568 0.38682
 H1873 H 0.01514 -0.11919 0.46546
 H1874 H 0.01465 -0.08912 0.48283
 H1875 H -0.00817 -0.06089 0.43305
 H1876 H -0.00756 -0.09116 0.41588
 C1877 C 0.49297 -0.15665 0.58772
 C1878 C 0.47566 -0.16611 0.58547
 C1879 C 0.47255 -0.18348 0.59457
 C1880 C 0.48674 -0.19166 0.60609
 C1881 C 0.50420 -0.18217 0.60812
 C1882 C 0.50728 -0.16473 0.59900
 C1883 C 0.49581 -0.13865 0.57840
 C1884 C 0.49751 -0.12364 0.57028
 C1885 C 0.49882 -0.10587 0.56021
 C1886 C 0.49312 -0.10489 0.54118
 C1887 C 0.49359 -0.08759 0.53143
 C1888 C 0.49976 -0.07093 0.54060
 C1889 C 0.50561 -0.07209 0.55973
 C1890 C 0.50511 -0.08946 0.56946
 H1891 H 0.46452 -0.16004 0.57669
 H1892 H 0.45909 -0.19060 0.59247
 H1893 H 0.51532 -0.18806 0.61702
 H1894 H 0.52074 -0.15752 0.60083
 H1895 H 0.48815 -0.11750 0.53391
 H1896 H 0.48899 -0.08727 0.51674
 H1897 H 0.51042 -0.05957 0.56723
 H1898 H 0.50948 -0.09005 0.58422
 C1899 C -0.00631 0.34385 1.08992
 C1900 C 0.00381 0.32777 1.08412
 C1901 C 0.00081 0.31025 1.09307
 C1902 C -0.01256 0.30840 1.10799
 C1903 C -0.02227 0.32501 1.11391
 C1904 C -0.01918 0.34246 1.10494
 C1905 C -0.00414 0.36163 1.08001
 C1906 C -0.00288 0.37653 1.07160
 C1907 C -0.00196 0.39425 1.06139
 C1908 C 0.00436 0.41074 1.07047
 C1909 C 0.00461 0.42807 1.06067
 C1910 C -0.00150 0.42911 1.04162
 C1911 C -0.00772 0.41239 1.03261
 C1912 C -0.00794 0.39511 1.04244
 H1913 H 0.01373 0.32868 1.07238
 H1914 H 0.00832 0.29809 1.08745
 H1915 H -0.03196 0.32486 1.12583
 H1916 H -0.02696 0.35488 1.10968
 H1917 H 0.00896 0.41025 1.08517
 H1918 H 0.00948 0.44064 1.06806
 H1919 H -0.01252 0.41262 1.01798
 H1920 H -0.01292 0.38243 1.03529
 C1921 C 0.76062 0.34057 0.09241
 C1922 C 0.74496 0.34749 0.08229
 C1923 C 0.74748 0.35613 0.06451
 C1924 C 0.76582 0.35811 0.05648
 C1925 C 0.78142 0.35091 0.06703
 C1926 C 0.77880 0.34229 0.08472
 C1927 C 0.75823 0.33131 0.11053
 C1928 C 0.75689 0.32322 0.12560
 C1929 C 0.75593 0.31312 0.14340
 C1930 C 0.74920 0.32212 0.15980
 C1931 C 0.74860 0.31223 0.17710
 C1932 C 0.75476 0.29320 0.17819
 C1933 C 0.76155 0.28434 0.16158
 C1934 C 0.76212 0.29424 0.14435
 H1935 H 0.73078 0.34627 0.08817
 H1936 H 0.73500 0.36183 0.05755
 H1937 H 0.79572 0.35105 0.06143
 H1938 H 0.79102 0.33673 0.09232
 H1939 H 0.74444 0.33676 0.15924
 H1940 H 0.74330 0.31950 0.18958
 H1941 H 0.76642 0.26973 0.16185
 H1942 H 0.76743 0.28716 0.13176
 C1943 C 0.26248 0.84025 0.59332
 C1944 C 0.27948 0.83763 0.58337
 C1945 C 0.28205 0.84616 0.56563
 C1946 C 0.26765 0.85749 0.55755
 C1947 C 0.25051 0.85992 0.56756
 C1948 C 0.24796 0.85136 0.58537
 C1949 C 0.26011 0.83133 0.61159
 C1950 C 0.25871 0.82345 0.62677
 C1951 C 0.25762 0.81350 0.64463
 C1952 C 0.26368 0.79459 0.64572
 C1953 C 0.26288 0.78478 0.66298
 C1954 C 0.25598 0.79375 0.67948
 C1955 C 0.24999 0.81283 0.67826
 C1956 C 0.25081 0.82263 0.66093
 H1957 H 0.29076 0.82897 0.58933
 H1958 H 0.29528 0.84377 0.55813
 H1959 H 0.23923 0.86868 0.56176
 H1960 H 0.23473 0.85345 0.59295
 H1961 H 0.26905 0.78741 0.63321
 H1962 H 0.26764 0.77014 0.66335
 H1963 H 0.24461 0.82018 0.69066
 H1964 H 0.24615 0.83730 0.66025
 C1965 C 0.74179 0.66087 0.59331
 C1966 C 0.72464 0.66342 0.58357
 C1967 C 0.72176 0.65470 0.56601
 C1968 C 0.73601 0.64324 0.55791
 C1969 C 0.75330 0.64087 0.56771
 C1970 C 0.75615 0.64963 0.58534
 C1971 C 0.74446 0.66996 0.61142
 C1972 C 0.74605 0.67794 0.62648
 C1973 C 0.74729 0.68794 0.64426
 C1974 C 0.74233 0.70718 0.64500
 C1975 C 0.74285 0.71693 0.66226
 C1976 C 0.74834 0.70755 0.67911
 C1977 C 0.75341 0.68819 0.67820
 C1978 C 0.75286 0.67846 0.66088
 H1979 H 0.71348 0.67219 0.58955
 H1980 H 0.70843 0.65706 0.55867
 H1981 H 0.76446 0.63201 0.56190
 H1982 H 0.76949 0.64757 0.59277
 H1983 H 0.73792 0.71464 0.63223
 H1984 H 0.73887 0.73180 0.66238
 H1985 H 0.75770 0.68053 0.69087
 H1986 H 0.75666 0.66354 0.66047
 C1987 C 0.24098 0.16150 0.09175
 C1988 C 0.25516 0.14990 0.08396
 C1989 C 0.25224 0.14105 0.06639
 C1990 C 0.23506 0.14368 0.05645
 C1991 C 0.22100 0.15550 0.06437
 C1992 C 0.22395 0.16432 0.08187
 C1993 C 0.24370 0.17061 0.10984
 C1994 C 0.24538 0.17856 0.12491
 C1995 C 0.24674 0.18848 0.14273
 C1996 C 0.24170 0.20769 0.14363
 C1997 C 0.24236 0.21734 0.16095
 C1998 C 0.24808 0.20790 0.17768
 C1999 C 0.25322 0.18857 0.17661
 C2000 C 0.25253 0.17893 0.15924
 H2001 H 0.26840 0.14762 0.09149
 H2002 H 0.26325 0.13191 0.06073
 H2003 H 0.20775 0.15805 0.05693
 H2004 H 0.21292 0.17334 0.08772
 H2005 H 0.23713 0.21520 0.13095
 H2006 H 0.23832 0.23220 0.16120
 H2007 H 0.25768 0.18085 0.18919
 H2008 H 0.25639 0.16403 0.15870
 C2009 C 0.25954 0.16077 0.90608
 C2010 C 0.27652 0.16335 0.91608
 C2011 C 0.27919 0.15457 0.93369
 C2012 C 0.26492 0.14303 0.94159
 C2013 C 0.24779 0.14064 0.93154
 C2014 C 0.24514 0.14945 0.91385
 C2015 C 0.25708 0.16992 0.88791
 C2016 C 0.25562 0.17796 0.87282
 C2017 C 0.25447 0.18805 0.85504
 C2018 C 0.25994 0.20713 0.85421
 C2019 C 0.25919 0.21705 0.83700
 C2020 C 0.25294 0.20801 0.82029
 C2021 C 0.24749 0.18877 0.82126
 C2022 C 0.24826 0.17887 0.83853
 H2023 H 0.28770 0.17218 0.91025
 H2024 H 0.29240 0.15694 0.94123
 H2025 H 0.23661 0.13171 0.93720
 H2026 H 0.23193 0.14738 0.90623
 H2027 H 0.26483 0.21436 0.86688
 H2028 H 0.26350 0.23181 0.83683
 H2029 H 0.24263 0.18136 0.80870
 H2030 H 0.24407 0.16407 0.83901
 C2031 C 0.75831 0.66089 0.40689
 C2032 C 0.74422 0.64947 0.41507
 C2033 C 0.74742 0.64072 0.43269
 C2034 C 0.76479 0.64327 0.44228
 C2035 C 0.77878 0.65485 0.43394
 C2036 C 0.77555 0.66357 0.41638
 C2037 C 0.75522 0.67005 0.38883
 C2038 C 0.75324 0.67811 0.37381
 C2039 C 0.75155 0.68824 0.35608
 C2040 C 0.74579 0.67885 0.33953
 C2041 C 0.74491 0.68869 0.32223
 C2042 C 0.74985 0.70806 0.32127
 C2043 C 0.75547 0.71736 0.33806
 C2044 C 0.75631 0.70751 0.35530
 H2045 H 0.73081 0.64731 0.40784
 H2046 H 0.73645 0.63175 0.43868
 H2047 H 0.79217 0.65733 0.44111
 H2048 H 0.78651 0.67246 0.41023
 H2049 H 0.74214 0.66390 0.33997
 H2050 H 0.74054 0.68108 0.30960
 H2051 H 0.75935 0.73224 0.33790
 H2052 H 0.76085 0.71490 0.36801
 C2053 C 0.24280 0.83913 0.40661
 C2054 C 0.23372 0.85682 0.40742
 C2055 C 0.23131 0.86595 0.42488
 C2056 C 0.23793 0.85747 0.44179
 C2057 C 0.24738 0.83986 0.44078
 C2058 C 0.24976 0.83074 0.42329
 C2059 C 0.24426 0.82927 0.38877
 C2060 C 0.24509 0.82087 0.37387
 C2061 C 0.24567 0.81064 0.35618
 C2062 C 0.25199 0.81960 0.33957
 C2063 C 0.25218 0.80970 0.32234
 C2064 C 0.24603 0.79068 0.32152
 C2065 C 0.23975 0.78182 0.33836
 C2066 C 0.23958 0.79175 0.35554
 H2067 H 0.22830 0.86345 0.39459
 H2068 H 0.22421 0.87961 0.42518
 H2069 H 0.25244 0.83289 0.45356
 H2070 H 0.25673 0.81701 0.42283
 H2071 H 0.25669 0.83424 0.33991
 H2072 H 0.25710 0.81697 0.30968
 H2073 H 0.23491 0.76722 0.33829
 H2074 H 0.23461 0.78470 0.36831
 C2075 C 0.74094 0.33917 0.90556
 C2076 C 0.73185 0.35684 0.90652
 C2077 C 0.72943 0.36582 0.92405
 C2078 C 0.73605 0.35722 0.94089
 C2079 C 0.74557 0.33966 0.93974
 C2080 C 0.74796 0.33068 0.92218
 C2081 C 0.74234 0.32944 0.88764
 C2082 C 0.74311 0.32117 0.87267
 C2083 C 0.74368 0.31109 0.85490
 C2084 C 0.74975 0.32025 0.83831
 C2085 C 0.75018 0.31042 0.82105
 C2086 C 0.74452 0.29125 0.82018
 C2087 C 0.73835 0.28222 0.83697
 C2088 C 0.73795 0.29208 0.85418
 H2089 H 0.72638 0.36355 0.89375
 H2090 H 0.72227 0.37945 0.92446
 H2091 H 0.75065 0.33261 0.95248
 H2092 H 0.75496 0.31696 0.92160
 H2093 H 0.75416 0.33499 0.83870
 H2094 H 0.75498 0.31782 0.80843
 H2095 H 0.73389 0.26750 0.83686
 H2096 H 0.73316 0.28487 0.86693
 C2097 C 0.84148 0.40639 0.24246
 C2098 C 0.85941 0.40739 0.23396
 C2099 C 0.86838 0.42495 0.23166
 C2100 C 0.85948 0.44178 0.23782
 C2101 C 0.84165 0.44059 0.24677
 C2102 C 0.83270 0.42299 0.24903
 C2103 C 0.83175 0.38846 0.24368
 C2104 C 0.82341 0.37352 0.24432
 C2105 C 0.81321 0.35581 0.24477
 C2106 C 0.82224 0.33912 0.25080
 C2107 C 0.81227 0.32194 0.25113
 C2108 C 0.79309 0.32125 0.24543
 C2109 C 0.78420 0.33814 0.23930
 C2110 C 0.79420 0.35527 0.23898
 H2111 H 0.86635 0.39463 0.22884
 H2112 H 0.88221 0.42540 0.22494
 H2113 H 0.83436 0.45330 0.25145
 H2114 H 0.81878 0.42239 0.25557
 H2115 H 0.83698 0.33937 0.25526
 H2116 H 0.81957 0.30923 0.25592
 H2117 H 0.76949 0.33817 0.23479
 H2118 H 0.78709 0.36811 0.23424
 C2119 C 0.34128 0.90768 0.74163
 C2120 C 0.33258 0.92438 0.74805
 C2121 C 0.34153 0.94193 0.74549
 C2122 C 0.35931 0.94299 0.73640
 C2123 C 0.36811 0.92608 0.73035
 C2124 C 0.35914 0.90855 0.73293
 C2125 C 0.33157 0.88976 0.74324
 C2126 C 0.32325 0.87482 0.74423
 C2127 C 0.31304 0.85712 0.74508
 C2128 C 0.29396 0.85650 0.73953
 C2129 C 0.28397 0.83937 0.74018
 C2130 C 0.29294 0.82255 0.74640
 C2131 C 0.31217 0.82332 0.75190
 C2132 C 0.32214 0.84050 0.75123
 H2133 H 0.31872 0.92387 0.75473
 H2134 H 0.33431 0.95471 0.75011
 H2135 H 0.38190 0.92641 0.72353
 H2136 H 0.36601 0.89572 0.72793
 H2137 H 0.28680 0.86928 0.73470
 H2138 H 0.26921 0.83934 0.73582
 H2139 H 0.31953 0.81067 0.75674
 H2140 H 0.33692 0.84081 0.75551
 C2141 C 0.15723 0.90525 0.25629
 C2142 C 0.14210 0.90680 0.26900
 C2143 C 0.13336 0.92438 0.27207
 C2144 C 0.13964 0.94094 0.26249
 C2145 C 0.15467 0.93892 0.24926
 C2146 C 0.16337 0.92128 0.24629
 C2147 C 0.16698 0.88738 0.25420
 C2148 C 0.17535 0.87246 0.25296
 C2149 C 0.18563 0.85479 0.25202
 C2150 C 0.17649 0.83812 0.24625
 C2151 C 0.18644 0.82088 0.24592
 C2152 C 0.20568 0.82010 0.25141
 C2153 C 0.21473 0.83700 0.25708
 C2154 C 0.20476 0.85418 0.25738
 H2155 H 0.13710 0.89442 0.27670
 H2156 H 0.12136 0.92467 0.28164
 H2157 H 0.16058 0.95102 0.24187
 H2158 H 0.17521 0.92026 0.23650
 H2159 H 0.16166 0.83842 0.24213
 H2160 H 0.17902 0.80817 0.24149
 H2161 H 0.22951 0.83696 0.26138
 H2162 H 0.21196 0.86699 0.26192
 C2163 C 0.65778 0.40469 0.75749
 C2164 C 0.63988 0.40577 0.76605
 C2165 C 0.63115 0.42341 0.76873
 C2166 C 0.64025 0.44024 0.76291
 C2167 C 0.65802 0.43899 0.75386
 C2168 C 0.66675 0.42131 0.75121
 C2169 C 0.66733 0.38665 0.75601
 C2170 C 0.67553 0.37162 0.75520
 C2171 C 0.68563 0.35383 0.75462
 C2172 C 0.67666 0.33736 0.74807
 C2173 C 0.68656 0.32011 0.74760
 C2174 C 0.70561 0.31911 0.75370
 C2175 C 0.71443 0.33576 0.76037
 C2176 C 0.70450 0.35297 0.76081
 H2177 H 0.63281 0.39300 0.77095
 H2178 H 0.61734 0.42392 0.77550
 H2179 H 0.66546 0.45170 0.74941
 H2180 H 0.68065 0.42064 0.74464
 H2181 H 0.66202 0.33787 0.74330
 H2182 H 0.67932 0.30759 0.74240
 H2183 H 0.72904 0.33556 0.76519
 H2184 H 0.71157 0.36562 0.76597
 C2185 C 0.66042 0.59330 0.74526
 C2186 C 0.64276 0.59275 0.73613
 C2187 C 0.63366 0.57537 0.73318
 C2188 C 0.64212 0.55828 0.73931
 C2189 C 0.65966 0.55901 0.74889
 C2190 C 0.66876 0.57643 0.75181
 C2191 C 0.67035 0.61107 0.74706
 C2192 C 0.67880 0.62593 0.74807
 C2193 C 0.68908 0.64358 0.74878
 C2194 C 0.68014 0.66018 0.75510
 C2195 C 0.69005 0.67741 0.75527
 C2196 C 0.70906 0.67824 0.74907
 C2197 C 0.71792 0.66141 0.74281
 C2198 C 0.70798 0.64423 0.74268
 H2199 H 0.63617 0.60572 0.73102
 H2200 H 0.62005 0.57528 0.72599
 H2201 H 0.66662 0.54609 0.75358
 H2202 H 0.68247 0.57668 0.75882
 H2203 H 0.66549 0.65985 0.75980
 H2204 H 0.68278 0.69006 0.76016
 H2205 H 0.73251 0.66148 0.73795
 H2206 H 0.71502 0.63147 0.73770
 C2207 C 0.16088 0.09296 0.24392
 C2208 C 0.16919 0.07602 0.25035
 C2209 C 0.15997 0.05867 0.24746
 C2210 C 0.14235 0.05807 0.23802
 C2211 C 0.13393 0.07522 0.23202
 C2212 C 0.14315 0.09253 0.23494
 C2213 C 0.17089 0.11067 0.24571
 C2214 C 0.17937 0.12551 0.24672
 C2215 C 0.18961 0.14317 0.24743
 C2216 C 0.20844 0.14392 0.24112
 C2217 C 0.21831 0.16113 0.24125
 C2218 C 0.20946 0.17788 0.24771
 C2219 C 0.19053 0.17695 0.25411
 C2220 C 0.18068 0.15970 0.25395
 H2221 H 0.18296 0.07619 0.25725
 H2222 H 0.16690 0.04569 0.25206
 H2223 H 0.12026 0.07521 0.22493
 H2224 H 0.13658 0.10555 0.22992
 H2225 H 0.21546 0.13122 0.23598
 H2226 H 0.23285 0.16129 0.23623
 H2227 H 0.18326 0.18954 0.25917
 H2228 H 0.16608 0.15928 0.25881
 C2229 C 0.34056 0.09567 0.75648
 C2230 C 0.35833 0.09477 0.76536
 C2231 C 0.36738 0.07726 0.76791
 C2232 C 0.35874 0.06037 0.76166
 C2233 C 0.34111 0.06146 0.75228
 C2234 C 0.33206 0.07901 0.74975
 C2235 C 0.33068 0.11355 0.75515
 C2236 C 0.32226 0.12847 0.75448
 C2237 C 0.31199 0.14618 0.75407
 C2238 C 0.32082 0.16280 0.74766
 C2239 C 0.31079 0.17999 0.74737
 C2240 C 0.29175 0.18076 0.75351
 C2241 C 0.28307 0.16395 0.76004
 C2242 C 0.29313 0.14681 0.76031
 H2243 H 0.36505 0.10758 0.77060
 H2244 H 0.38106 0.07689 0.77497
 H2245 H 0.33403 0.04868 0.74749
 H2246 H 0.31827 0.07954 0.74293
 H2247 H 0.33544 0.16248 0.74286
 H2248 H 0.31793 0.19263 0.74227
 H2249 H 0.26847 0.16398 0.76489
 H2250 H 0.28618 0.13403 0.76537
 C2251 C 0.83883 0.59391 0.25704
 C2252 C 0.85641 0.59336 0.26633
 C2253 C 0.86562 0.57600 0.26934
 C2254 C 0.85734 0.55892 0.26312
 C2255 C 0.83986 0.55965 0.25342
 C2256 C 0.83066 0.57704 0.25044
 C2257 C 0.82884 0.61166 0.25506
 C2258 C 0.82035 0.62652 0.25384
 C2259 C 0.81004 0.64417 0.25284
 C2260 C 0.81921 0.66086 0.24709
 C2261 C 0.80925 0.67808 0.24660
 C2262 C 0.78997 0.67884 0.25189
 C2263 C 0.78089 0.66193 0.25758
 C2264 C 0.79087 0.64475 0.25804
 H2265 H 0.86287 0.60633 0.27149
 H2266 H 0.87917 0.57590 0.27664
 H2267 H 0.83304 0.54672 0.24866
 H2268 H 0.81701 0.57730 0.24331
 H2269 H 0.83407 0.66057 0.24308
 H2270 H 0.81670 0.69079 0.24216
 H2271 H 0.76608 0.66195 0.26175
 H2272 H 0.78365 0.63193 0.26257
 C2273 C 0.90704 0.26068 0.15961
 C2274 C 0.91699 0.27765 0.16224
 C2275 C 0.93469 0.28026 0.15369
 C2276 C 0.94272 0.26591 0.14233
 C2277 C 0.93269 0.24881 0.13985
 C2278 C 0.91493 0.24623 0.14844
 C2279 C 0.88883 0.25823 0.16859
 C2280 C 0.87372 0.25676 0.17652
 C2281 C 0.85592 0.25559 0.18652
 C2282 C 0.85507 0.26089 0.20565
 C2283 C 0.83785 0.26015 0.21547
 C2284 C 0.82114 0.25409 0.20629
 C2285 C 0.82213 0.24880 0.18701
 C2286 C 0.83942 0.24955 0.17720
 H2287 H 0.91108 0.28888 0.17096
 H2288 H 0.94219 0.29346 0.15612
 H2289 H 0.93844 0.23758 0.13106
 H2290 H 0.90734 0.23302 0.14633
 H2291 H 0.86773 0.26565 0.21298
 H2292 H 0.83766 0.26435 0.23027
 H2293 H 0.80957 0.24409 0.17949
 H2294 H 0.83991 0.24549 0.16237
 C2295 C 0.40732 0.76159 0.66096
 C2296 C 0.41712 0.77875 0.66289
 C2297 C 0.43473 0.78122 0.65411
 C2298 C 0.44281 0.76654 0.64322
 C2299 C 0.43294 0.74925 0.64146
 C2300 C 0.41527 0.74682 0.65027
 C2301 C 0.38919 0.75928 0.67013
 C2302 C 0.37412 0.75786 0.67814
 C2303 C 0.35634 0.75669 0.68816
 C2304 C 0.35545 0.76213 0.70725
 C2305 C 0.33823 0.76135 0.71707
 C2306 C 0.32157 0.75511 0.70793
 C2307 C 0.32261 0.74968 0.68869
 C2308 C 0.33989 0.75048 0.67888
 H2309 H 0.41115 0.79023 0.67123
 H2310 H 0.44212 0.79456 0.65599
 H2311 H 0.43873 0.73776 0.63303
 H2312 H 0.40780 0.73346 0.64870
 H2313 H 0.36809 0.76702 0.71455
 H2314 H 0.33801 0.76566 0.73184
 H2315 H 0.31008 0.74484 0.68119
 H2316 H 0.34041 0.74630 0.66408
 C2317 C 0.40565 0.24007 0.83842
 C2318 C 0.41342 0.25429 0.84994
 C2319 C 0.43108 0.25147 0.85870
 C2320 C 0.44112 0.23436 0.85608
 C2321 C 0.43322 0.22026 0.84435
 C2322 C 0.41563 0.22310 0.83562
 C2323 C 0.38750 0.24271 0.82932
 C2324 C 0.37242 0.24434 0.82133
 C2325 C 0.35462 0.24569 0.81132
 C2326 C 0.33814 0.25172 0.82068
 C2327 C 0.32083 0.25258 0.81089
 C2328 C 0.31980 0.24739 0.79159
 C2329 C 0.33650 0.24137 0.78235
 C2330 C 0.35375 0.24053 0.79215
 H2331 H 0.40581 0.26749 0.85219
 H2332 H 0.43673 0.26252 0.86777
 H2333 H 0.44074 0.20706 0.84180
 H2334 H 0.40981 0.21205 0.82665
 H2335 H 0.33865 0.25568 0.83555
 H2336 H 0.30827 0.25726 0.81846
 H2337 H 0.33629 0.23726 0.76752
 H2338 H 0.36641 0.23578 0.78478
 C2339 C 0.90425 0.74242 0.33960
 C2340 C 0.92102 0.74901 0.33118
 C2341 C 0.93851 0.74606 0.34017
 C2342 C 0.93944 0.73639 0.35769
 C2343 C 0.92247 0.73012 0.36619
 C2344 C 0.90500 0.73311 0.35719
 C2345 C 0.88639 0.74447 0.32984
 C2346 C 0.87149 0.74578 0.32147
 C2347 C 0.85382 0.74689 0.31123
 C2348 C 0.83730 0.75328 0.32028
 C2349 C 0.82006 0.75387 0.31038
 C2350 C 0.81912 0.74802 0.29126
 C2351 C 0.83587 0.74172 0.28229
 C2352 C 0.85306 0.74117 0.29222
 H2353 H 0.92060 0.75615 0.31752
 H2354 H 0.95134 0.75085 0.33318
 H2355 H 0.92271 0.72286 0.37979
 H2356 H 0.89211 0.72795 0.36383
 H2357 H 0.83772 0.75770 0.33502
 H2358 H 0.80747 0.75878 0.31774
 H2359 H 0.83572 0.73712 0.26761
 H2360 H 0.86576 0.73615 0.28508
 C2361 C 0.09100 0.75786 0.33929
 C2362 C 0.08292 0.74336 0.35028
 C2363 C 0.06536 0.74623 0.35919
 C2364 C 0.05573 0.76368 0.35723
 C2365 C 0.06395 0.77809 0.34605
 C2366 C 0.08145 0.77519 0.33717
 C2367 C 0.10903 0.75515 0.33004
 C2368 C 0.12405 0.75350 0.32195
 C2369 C 0.14180 0.75217 0.31189
 C2370 C 0.15842 0.74665 0.32136
 C2371 C 0.17573 0.74604 0.31159
 C2372 C 0.17662 0.75098 0.29219
 C2373 C 0.15977 0.75639 0.28281
 C2374 C 0.14252 0.75698 0.29260
 H2375 H 0.09020 0.72988 0.35201
 H2376 H 0.05945 0.73494 0.36783
 H2377 H 0.05675 0.79155 0.34400
 H2378 H 0.08752 0.78647 0.32861
 H2379 H 0.15803 0.74297 0.33633
 H2380 H 0.18840 0.74181 0.31927
 H2381 H 0.15988 0.76028 0.26790
 H2382 H 0.12975 0.76133 0.28514
 C2383 C 0.59133 0.25905 0.83822
 C2384 C 0.58137 0.27608 0.83563
 C2385 C 0.56380 0.27880 0.84441
 C2386 C 0.55590 0.26451 0.85598
 C2387 C 0.56591 0.24733 0.85838
 C2388 C 0.58355 0.24464 0.84956
 C2389 C 0.60947 0.25654 0.82911
 C2390 C 0.62455 0.25503 0.82113
 C2391 C 0.64235 0.25381 0.81114
 C2392 C 0.64325 0.25923 0.79202
 C2393 C 0.66050 0.25849 0.78224
 C2394 C 0.67718 0.25229 0.79146
 C2395 C 0.67613 0.24685 0.81072
 C2396 C 0.65882 0.24762 0.82049
 H2397 H 0.58720 0.28728 0.82680
 H2398 H 0.55630 0.29205 0.84205
 H2399 H 0.56026 0.23614 0.86732
 H2400 H 0.59115 0.23139 0.85165
 H2401 H 0.63061 0.26411 0.78467
 H2402 H 0.66073 0.26279 0.76745
 H2403 H 0.68867 0.24203 0.81826
 H2404 H 0.65829 0.24346 0.83532
 C2405 C 0.59343 0.74119 0.66183
 C2406 C 0.58553 0.75548 0.65039
 C2407 C 0.56791 0.75265 0.64159
 C2408 C 0.55803 0.73546 0.64413
 C2409 C 0.56607 0.72126 0.65575
 C2410 C 0.58364 0.72412 0.66451
 C2411 C 0.61151 0.74388 0.67100
 C2412 C 0.62655 0.74554 0.67904
 C2413 C 0.64431 0.74686 0.68908
 C2414 C 0.66085 0.75261 0.67966
 C2415 C 0.67818 0.75319 0.68941
 C2416 C 0.67918 0.74798 0.70874
 C2417 C 0.66240 0.74236 0.71808
 C2418 C 0.64513 0.74180 0.70831
 H2419 H 0.59300 0.76876 0.64822
 H2420 H 0.56215 0.76377 0.63260
 H2421 H 0.55868 0.70800 0.65823
 H2422 H 0.58957 0.71300 0.67342
 H2423 H 0.66038 0.75649 0.66475
 H2424 H 0.69080 0.75758 0.68177
 H2425 H 0.66259 0.73826 0.73293
 H2426 H 0.63242 0.73727 0.71573
 C2427 C 0.09305 0.24101 0.16155
 C2428 C 0.08518 0.25524 0.15002
 C2429 C 0.06757 0.25237 0.14120
 C2430 C 0.05768 0.23519 0.14380
 C2431 C 0.06569 0.22106 0.15553
 C2432 C 0.08323 0.22396 0.16432
 C2433 C 0.11115 0.24371 0.17067
 C2434 C 0.12623 0.24537 0.17863
 C2435 C 0.14405 0.24671 0.18858
 C2436 C 0.16050 0.25261 0.17910
 C2437 C 0.17789 0.25319 0.18875
 C2438 C 0.17903 0.24783 0.20803
 C2439 C 0.16234 0.24205 0.21743
 C2440 C 0.14501 0.24149 0.20776
 H2441 H 0.09266 0.26850 0.14779
 H2442 H 0.06185 0.26344 0.13212
 H2443 H 0.05829 0.20781 0.15804
 H2444 H 0.08915 0.21288 0.17329
 H2445 H 0.15992 0.25661 0.16423
 H2446 H 0.19044 0.25770 0.18108
 H2447 H 0.16264 0.23783 0.23224
 H2448 H 0.13237 0.23684 0.21522
 C2449 C -0.08914 1.00726 0.84327
 C2450 C -0.09601 0.99189 0.83281
 C2451 C -0.10507 0.99493 0.81536
 C2452 C -0.10751 1.01352 0.80796
 C2453 C -0.10050 1.02886 0.81890
 C2454 C -0.09143 1.02571 0.83630
 C2455 C -0.07961 1.00421 0.86113
 C2456 C -0.07154 1.00207 0.87611
 C2457 C -0.06185 1.00004 0.89403
 C2458 C -0.04308 0.99347 0.89459
 C2459 C -0.03336 0.99244 0.91192
 C2460 C -0.04230 0.99802 0.92893
 C2461 C -0.06129 1.00433 0.92820
 C2462 C -0.07097 1.00534 0.91087
 H2463 H -0.09444 0.97752 0.83818
 H2464 H -0.11072 0.98262 0.80817
 H2465 H -0.10113 1.04335 0.81381
 H2466 H -0.08601 1.03772 0.84423
 H2467 H -0.03588 0.98938 0.88162
 H2468 H -0.01877 0.98751 0.91192
 H2469 H -0.06864 1.00872 0.94099
 H2470 H -0.08549 1.01049 0.91059
 C2471 C 0.41150 0.50982 0.34384
 C2472 C 0.40017 0.49551 0.33602
 C2473 C 0.39102 0.49846 0.31860
 C2474 C 0.39309 0.51579 0.30879
 C2475 C 0.40443 0.53012 0.31684
 C2476 C 0.41357 0.52714 0.33424
 C2477 C 0.42108 0.50679 0.36167
 C2478 C 0.42919 0.50453 0.37661
 C2479 C 0.43891 0.50221 0.39447
 C2480 C 0.45770 0.49568 0.39490
 C2481 C 0.46741 0.49425 0.41221
 C2482 C 0.45842 0.49938 0.42934
 C2483 C 0.43941 0.50566 0.42874
 C2484 C 0.42975 0.50707 0.41143
 H2485 H 0.39842 0.48208 0.34337
 H2486 H 0.38221 0.48724 0.31288
 H2487 H 0.40652 0.54351 0.30951
 H2488 H 0.42234 0.53830 0.34015
 H2489 H 0.46493 0.49192 0.38184
 H2490 H 0.48201 0.48937 0.41212
 H2491 H 0.43203 0.50971 0.44161
 H2492 H 0.41521 0.51216 0.41125
 C2493 C 0.59056 -0.00581 0.34261
 C2494 C 0.59811 0.00915 0.33196
 C2495 C 0.60679 0.00560 0.31444
 C2496 C 0.60812 -0.01310 0.30712
 C2497 C 0.60054 -0.02803 0.31829
 C2498 C 0.59186 -0.02438 0.33577
 C2499 C 0.58128 -0.00218 0.36046
 C2500 C 0.57337 0.00048 0.37542
 C2501 C 0.56380 0.00307 0.39330
 C2502 C 0.54486 0.00914 0.39371
 C2503 C 0.53514 0.01032 0.41101
 C2504 C 0.54425 0.00535 0.42815
 C2505 C 0.56347 -0.00026 0.42760
 C2506 C 0.57314 -0.00141 0.41029
 H2507 H 0.59734 0.02359 0.33722
 H2508 H 0.61298 0.01760 0.30710
 H2509 H 0.60039 -0.04256 0.31331
 H2510 H 0.58592 -0.03608 0.34386
 H2511 H 0.53748 0.01261 0.38062
 H2512 H 0.52038 0.01469 0.41089
 H2513 H 0.57097 -0.00415 0.44049
 H2514 H 0.58780 -0.00615 0.41014
 C2515 C 0.08870 0.49555 0.84344
 C2516 C 0.10006 0.50952 0.83498
 C2517 C 0.10902 0.50593 0.81761
 C2518 C 0.10674 0.48829 0.80849
 C2519 C 0.09534 0.47434 0.81716
 C2520 C 0.08640 0.47796 0.83451
 C2521 C 0.07939 0.49914 0.86129
 C2522 C 0.07147 0.50168 0.87626
 C2523 C 0.06189 0.50408 0.89417
 C2524 C 0.04289 0.50996 0.89463
 C2525 C 0.03316 0.51091 0.91194
 C2526 C 0.04233 0.50590 0.92905
 C2527 C 0.06160 0.50048 0.92845
 C2528 C 0.07127 0.49956 0.91113
 H2529 H 0.10199 0.52316 0.84182
 H2530 H 0.11788 0.51687 0.81140
 H2531 H 0.09309 0.46073 0.81037
 H2532 H 0.07761 0.46706 0.84091
 H2533 H 0.03547 0.51346 0.88157
 H2534 H 0.01837 0.51516 0.91186
 H2535 H 0.06913 0.49656 0.94131
 H2536 H 0.08597 0.49495 0.91093
 C2537 C 0.08873 0.50954 0.65744
 C2538 C 0.08672 0.52720 0.66632
 C2539 C 0.09575 0.53069 0.68366
 C2540 C 0.10692 0.51653 0.69237
 C2541 C 0.10891 0.49883 0.68330
 C2542 C 0.09987 0.49537 0.66594
 C2543 C 0.07932 0.50604 0.63962
 C2544 C 0.07135 0.50343 0.62468
 C2545 C 0.06177 0.50080 0.60680
 C2546 C 0.07090 0.50566 0.58982
 C2547 C 0.06131 0.50409 0.57250
 C2548 C 0.04238 0.49765 0.57191
 C2549 C 0.03344 0.49247 0.58906
 C2550 C 0.04308 0.49406 0.60638
 H2551 H 0.07810 0.53825 0.65988
 H2552 H 0.09373 0.54436 0.69041
 H2553 H 0.11759 0.48773 0.68954
 H2554 H 0.10157 0.48167 0.65915
 H2555 H 0.08536 0.51092 0.58999
 H2556 H 0.06866 0.50819 0.55960
 H2557 H 0.01890 0.48746 0.58916
 H2558 H 0.03586 0.49029 0.61945
 C2559 C 0.58741 1.00892 0.15685
 C2560 C 0.59872 0.99474 0.16510
 C2561 C 0.60794 0.99809 0.18238
 C2562 C 0.60596 1.01571 0.19162
 C2563 C 0.59459 1.02987 0.18318
 C2564 C 0.58539 1.02648 0.16592
 C2565 C 0.57791 1.00555 0.13907
 C2566 C 0.56991 1.00307 0.12413
 C2567 C 0.56036 1.00057 0.10622
 C2568 C 0.54150 0.99433 0.10573
 C2569 C 0.53195 0.99281 0.08835
 C2570 C 0.54116 0.99757 0.07122
 C2571 C 0.56024 1.00353 0.07189
 C2572 C 0.56974 1.00503 0.08927
 H2573 H 0.60044 0.98111 0.15816
 H2574 H 0.61677 0.98699 0.18842
 H2575 H 0.59258 1.04347 0.19007
 H2576 H 0.57663 1.03754 0.15967
 H2577 H 0.53409 0.99087 0.11878
 H2578 H 0.51728 0.98818 0.08838
 H2579 H 0.56780 1.00730 0.05902
 H2580 H 0.58433 1.00990 0.08950
 C2581 C 0.41242 0.48968 0.15910
 C2582 C 0.40079 0.50386 0.16682
 C2583 C 0.39170 0.50085 0.18424
 C2584 C 0.39411 0.48360 0.19414
 C2585 C 0.40579 0.46943 0.18621
 C2586 C 0.41487 0.47248 0.16881
 C2587 C 0.42182 0.49270 0.14119
 C2588 C 0.42976 0.49490 0.12617
 C2589 C 0.43927 0.49710 0.10820
 C2590 C 0.42987 0.49234 0.09136
 C2591 C 0.43932 0.49363 0.07394
 C2592 C 0.45836 0.49969 0.07312
 C2593 C 0.46760 0.50472 0.09014
 C2594 C 0.45811 0.50341 0.10756
 H2595 H 0.39875 0.51721 0.15938
 H2596 H 0.38263 0.51193 0.18988
 H2597 H 0.40814 0.45612 0.19360
 H2598 H 0.42387 0.46143 0.16296
 H2599 H 0.41530 0.48741 0.09171
 H2600 H 0.43174 0.48966 0.06115
 H2601 H 0.48224 0.50944 0.09006
 H2602 H 0.46552 0.50710 0.12053
 C2603 C -0.08829 -0.00716 0.65768
 C2604 C -0.10269 -0.02074 0.65888
 C2605 C -0.11160 -0.02442 0.67625
 C2606 C -0.10629 -0.01456 0.69295
 C2607 C -0.09176 -0.00074 0.69133
 C2608 C -0.08289 0.00285 0.67391
 C2609 C -0.07875 -0.00387 0.63988
 C2610 C -0.07069 -0.00147 0.62494
 C2611 C -0.06102 0.00086 0.60707
 C2612 C -0.04206 0.00683 0.60664
 C2613 C -0.03231 0.00790 0.58934
 C2614 C -0.04140 0.00293 0.57222
 C2615 C -0.06061 -0.00262 0.57279
 C2616 C -0.07032 -0.00366 0.59009
 H2617 H -0.10708 -0.02850 0.64634
 H2618 H -0.12311 -0.03458 0.67624
 H2619 H -0.08644 0.00682 0.70358
 H2620 H -0.07159 0.01327 0.67318
 H2621 H -0.03472 0.01033 0.61971
 H2622 H -0.01756 0.01224 0.58945
 H2623 H -0.06809 -0.00651 0.55992
 H2624 H -0.08498 -0.00832 0.59026
 C2625 C -0.15746 0.91154 1.00963
 C2626 C -0.17335 0.91703 0.99907
 C2627 C -0.19083 0.90807 1.00194
 C2628 C -0.19285 0.89335 1.01556
 C2629 C -0.17649 0.88795 1.02600
 C2630 C -0.15905 0.89696 1.02304
 C2631 C -0.13959 0.92109 1.00696
 C2632 C -0.12464 0.92918 1.00491
 C2633 C -0.10680 0.93890 1.00278
 C2634 C -0.10638 0.95769 0.99622
 C2635 C -0.08909 0.96736 0.99481
 C2636 C -0.07196 0.95835 0.99999
 C2637 C -0.07254 0.93935 1.00634
 C2638 C -0.08984 0.92973 1.00772
 H2639 H -0.17232 0.92846 0.98876
 H2640 H -0.20284 0.91347 0.99398
 H2641 H -0.17677 0.87631 1.03606
 H2642 H -0.14676 0.89248 1.03120
 H2643 H -0.11943 0.96493 0.99237
 H2644 H -0.08919 0.98195 0.98987
 H2645 H -0.05967 0.93195 1.01043
 H2646 H -0.09001 0.91519 1.01284
 C2647 C 0.34323 0.41132 0.50739
 C2648 C 0.32643 0.41950 0.50054
 C2649 C 0.30903 0.41039 0.50344
 C2650 C 0.30823 0.39297 0.51328
 C2651 C 0.32523 0.38477 0.51996
 C2652 C 0.34261 0.39390 0.51703
 C2653 C 0.36105 0.42101 0.50496
 C2654 C 0.37597 0.42919 0.50322
 C2655 C 0.39381 0.43900 0.50150
 C2656 C 0.39425 0.45792 0.49535
 C2657 C 0.41153 0.46766 0.49437
 C2658 C 0.42861 0.45859 0.49959
 C2659 C 0.42800 0.43947 0.50555
 C2660 C 0.41072 0.42977 0.50650
 H2661 H 0.32674 0.43302 0.49314
 H2662 H 0.29617 0.41718 0.49835
 H2663 H 0.32509 0.37127 0.52738
 H2664 H 0.35554 0.38744 0.52238
 H2665 H 0.38123 0.46520 0.49147
 H2666 H 0.41145 0.48234 0.48972
 H2667 H 0.44085 0.43202 0.50966
 H2668 H 0.41052 0.41513 0.51132
 C2669 C 0.34186 0.58681 -0.00799
 C2670 C 0.33267 0.58509 -0.02554
 C2671 C 0.31540 0.59439 -0.02876
 C2672 C 0.30708 0.60556 -0.01443
 C2673 C 0.31644 0.60723 0.00318
 C2674 C 0.33373 0.59791 0.00636
 C2675 C 0.35967 0.57724 -0.00482
 C2676 C 0.37463 0.56918 -0.00250
 C2677 C 0.39254 0.55956 -0.00020
 C2678 C 0.40947 0.56907 -0.00439
 C2679 C 0.42686 0.55953 -0.00306
 C2680 C 0.42756 0.54028 0.00245
 C2681 C 0.41046 0.53093 0.00694
 C2682 C 0.39308 0.54052 0.00559
 H2683 H 0.33883 0.57650 -0.03673
 H2684 H 0.30842 0.59262 -0.04236
 H2685 H 0.31049 0.61590 0.01441
 H2686 H 0.34077 0.59940 0.01998
 H2687 H 0.40921 0.58380 -0.00891
 H2688 H 0.43971 0.56720 -0.00660
 H2689 H 0.41045 0.51614 0.01123
 H2690 H 0.38004 0.53302 0.00884
 C2691 C -0.15587 0.08781 0.49296
 C2692 C -0.16242 0.08960 0.47430
 C2693 C -0.17961 0.09882 0.47051
 C2694 C -0.19077 0.10650 0.48539
 C2695 C -0.18378 0.10458 0.50420
 C2696 C -0.16654 0.09536 0.50788
 C2697 C -0.13819 0.07818 0.49670
 C2698 C -0.12332 0.07008 0.49940
 C2699 C -0.10548 0.06040 0.50202
 C2700 C -0.08848 0.06974 0.49773
 C2701 C -0.07118 0.06005 0.49900
 C2702 C -0.07063 0.04080 0.50455
 C2703 C -0.08778 0.03167 0.50929
 C2704 C -0.10508 0.04141 0.50799
 H2705 H -0.15431 0.08367 0.46263
 H2706 H -0.18438 0.09906 0.45590
 H2707 H -0.19112 0.11077 0.51618
 H2708 H -0.16149 0.09421 0.52240
 H2709 H -0.08863 0.08443 0.49307
 H2710 H -0.05829 0.06756 0.49529
 H2711 H -0.08790 0.01689 0.51362
 H2712 H -0.11817 0.03404 0.51132
 C2713 C 0.65871 0.08921 0.50541
 C2714 C 0.66766 0.08697 0.52304
 C2715 C 0.68502 0.09586 0.52659
 C2716 C 0.69369 0.10715 0.51253
 C2717 C 0.68458 0.10933 0.49483
 C2718 C 0.66718 0.10042 0.49132
 C2719 C 0.64083 0.07997 0.50194
 C2720 C 0.62584 0.07207 0.49953
 C2721 C 0.60794 0.06250 0.49729
 C2722 C 0.59105 0.07170 0.50234
 C2723 C 0.57376 0.06202 0.50145
 C2724 C 0.57312 0.04292 0.49552
 C2725 C 0.59015 0.03393 0.49005
 C2726 C 0.60744 0.04367 0.49096
 H2727 H 0.66125 0.07828 0.53404
 H2728 H 0.69181 0.09367 0.54025
 H2729 H 0.69080 0.11809 0.48380
 H2730 H 0.66033 0.10229 0.47763
 H2731 H 0.59129 0.08627 0.50730
 H2732 H 0.56095 0.06941 0.50573
 H2733 H 0.59021 0.01928 0.48539
 H2734 H 0.62044 0.03639 0.48706
 C2735 C 0.15654 0.58976 1.00793
 C2736 C 0.16352 0.59105 1.02647
 C2737 C 0.18098 0.59977 1.03000
 C2738 C 0.19199 0.60742 1.01498
 C2739 C 0.18454 0.60608 0.99632
 C2740 C 0.16704 0.59736 0.99289
 C2741 C 0.13870 0.58046 1.00442
 C2742 C 0.12375 0.57252 1.00185
 C2743 C 0.10590 0.56290 0.99932
 C2744 C 0.08892 0.57205 1.00413
 C2745 C 0.07166 0.56235 1.00289
 C2746 C 0.07114 0.54329 0.99684
 C2747 C 0.08828 0.53436 0.99160
 C2748 C 0.10553 0.54411 0.99287
 H2749 H 0.15556 0.58507 1.03822
 H2750 H 0.18608 0.59961 1.04451
 H2751 H 0.19175 0.61231 0.98426
 H2752 H 0.16167 0.59659 0.97847
 H2753 H 0.08905 0.58659 1.00917
 H2754 H 0.05877 0.56970 1.00701
 H2755 H 0.08843 0.51973 0.98687
 H2756 H 0.11861 0.53688 0.98914
 C2757 C 0.15773 0.41072 0.49018
 C2758 C 0.16593 0.39956 0.50450
 C2759 C 0.18331 0.39042 0.50134
 C2760 C 0.19269 0.39233 0.48377
 C2761 C 0.18428 0.40354 0.46945
 C2762 C 0.16693 0.41266 0.47265
 C2763 C 0.13989 0.42021 0.49337
 C2764 C 0.12494 0.42825 0.49573
 C2765 C 0.10706 0.43790 0.49811
 C2766 C 0.10660 0.45673 0.50445
 C2767 C 0.08927 0.46638 0.50592
 C2768 C 0.07214 0.45731 0.50102
 C2769 C 0.07277 0.43826 0.49494
 C2770 C 0.09011 0.42866 0.49349
 H2771 H 0.15890 0.39791 0.51811
 H2772 H 0.18933 0.38172 0.51256
 H2773 H 0.19128 0.40552 0.45588
 H2774 H 0.16072 0.42131 0.46148
 H2775 H 0.11966 0.46404 0.50803
 H2776 H 0.08934 0.48102 0.51065
 H2777 H 0.05989 0.43080 0.49107
 H2778 H 0.09030 0.41408 0.48854
 C2779 C 0.65723 0.91055 -0.00994
 C2780 C 0.66534 0.89940 0.00444
 C2781 C 0.68285 0.89044 0.00148
 C2782 C 0.69246 0.89253 -0.01595
 C2783 C 0.68412 0.90369 -0.03035
 C2784 C 0.66663 0.91263 -0.02735
 C2785 C 0.63931 0.91994 -0.00690
 C2786 C 0.62431 0.92792 -0.00463
 C2787 C 0.60640 0.93753 -0.00231
 C2788 C 0.60590 0.95650 0.00360
 C2789 C 0.58854 0.96610 0.00501
 C2790 C 0.57141 0.95684 0.00047
 C2791 C 0.57208 0.93765 -0.00518
 C2792 C 0.58945 0.92810 -0.00657
 H2793 H 0.65815 0.89764 0.01795
 H2794 H 0.68880 0.88177 0.01275
 H2795 H 0.69128 0.90578 -0.04381
 H2796 H 0.66050 0.92127 -0.03857
 H2797 H 0.61895 0.96394 0.00691
 H2798 H 0.58858 0.98083 0.00941
 H2799 H 0.55920 0.93006 -0.00878
 H2800 H 0.58968 0.91342 -0.01119
 C2801 C 0.00956 0.84286 0.91276
 C2802 C -0.00572 0.83268 0.90529
 C2803 C -0.00264 0.81534 0.89612
 C2804 C 0.01592 0.80775 0.89418
 C2805 C 0.03117 0.81840 0.90180
 C2806 C 0.02798 0.83570 0.91097
 C2807 C 0.00642 0.86065 0.92231
 C2808 C 0.00412 0.87558 0.93034
 C2809 C 0.00181 0.89348 0.93992
 C2810 C -0.00398 0.89396 0.95894
 C2811 C -0.00540 0.91132 0.96848
 C2812 C -0.00098 0.92846 0.95909
 C2813 C 0.00457 0.92780 0.93987
 C2814 C 0.00596 0.91043 0.93038
 H2815 H -0.02006 0.83821 0.90645
 H2816 H -0.01487 0.80840 0.88999
 H2817 H 0.04562 0.81314 0.90153
 H2818 H 0.03992 0.84341 0.91684
 H2819 H -0.00720 0.88090 0.96646
 H2820 H -0.00972 0.91128 0.98325
 H2821 H 0.00806 0.94068 0.93217
 H2822 H 0.01049 0.91021 0.91566
 C2823 C 0.50815 0.34394 0.41122
 C2824 C 0.50177 0.32699 0.41944
 C2825 C 0.50488 0.30967 0.41024
 C2826 C 0.51445 0.30908 0.39269
 C2827 C 0.52066 0.32623 0.38446
 C2828 C 0.51753 0.34353 0.39368
 C2829 C 0.50549 0.36169 0.42098
 C2830 C 0.50355 0.37657 0.42921
 C2831 C 0.50161 0.39437 0.43906
 C2832 C 0.49580 0.39468 0.45809
 C2833 C 0.49463 0.41192 0.46787
 C2834 C 0.49930 0.42912 0.45873
 C2835 C 0.50490 0.42865 0.43950
 C2836 C 0.50605 0.41139 0.42978
 H2837 H 0.49457 0.32713 0.43306
 H2838 H 0.50015 0.29669 0.41706
 H2839 H 0.52786 0.32626 0.37086
 H2840 H 0.52251 0.35658 0.38718
 H2841 H 0.49235 0.38157 0.46542
 H2842 H 0.49026 0.41174 0.48263
 H2843 H 0.50858 0.44158 0.43200
 H2844 H 0.51058 0.41131 0.41506
 C2845 C -0.00827 0.34174 0.58914
 C2846 C -0.02130 0.34061 0.60406
 C2847 C -0.02468 0.32325 0.61313
 C2848 C -0.01504 0.30651 0.60747
 C2849 C -0.00172 0.30807 0.59246
 C2850 C 0.00156 0.32548 0.58342
 C2851 C -0.00531 0.35954 0.57947
 C2852 C -0.00315 0.37449 0.57134
 C2853 C -0.00101 0.39239 0.56165
 C2854 C 0.00478 0.39289 0.54262
 C2855 C 0.00606 0.41025 0.53298
 C2856 C 0.00151 0.42738 0.54227
 C2857 C -0.00403 0.42671 0.56150
 C2858 C -0.00529 0.40934 0.57109
 H2859 H -0.02889 0.35318 0.60871
 H2860 H -0.03441 0.32331 0.62502
 H2861 H 0.00564 0.29579 0.58690
 H2862 H 0.01158 0.32617 0.57175
 H2863 H 0.00810 0.37984 0.53517
 H2864 H 0.01038 0.41021 0.51821
 H2865 H -0.00762 0.43958 0.56912
 H2866 H -0.00981 0.40911 0.58581
 C2867 C 0.48960 0.84145 0.08781
 C2868 C 0.47208 0.83228 0.08583
 C2869 C 0.46877 0.81503 0.09513
 C2870 C 0.48295 0.80670 0.10656
 C2871 C 0.50051 0.81605 0.10849
 C2872 C 0.50379 0.83332 0.09917
 C2873 C 0.49289 0.85922 0.07819
 C2874 C 0.49531 0.87414 0.07009
 C2875 C 0.49775 0.89202 0.06042
 C2876 C 0.50434 0.89249 0.04165
 C2877 C 0.50584 0.90983 0.03199
 C2878 C 0.50072 0.92694 0.04100
 C2879 C 0.49439 0.92630 0.05999
 C2880 C 0.49292 0.90896 0.06959
 H2881 H 0.46101 0.83843 0.07703
 H2882 H 0.45522 0.80805 0.09314
 H2883 H 0.51163 0.81010 0.11735
 H2884 H 0.51738 0.84034 0.10085
 H2885 H 0.50809 0.87944 0.03441
 H2886 H 0.51077 0.90977 0.01741
 H2887 H 0.49035 0.93916 0.06739
 H2888 H 0.48778 0.90875 0.08411
 C2889 C 0.50634 0.65595 0.08931
 C2890 C 0.51600 0.65670 0.10669
 C2891 C 0.51895 0.67415 0.11567
 C2892 C 0.51227 0.69111 0.10735
 C2893 C 0.50243 0.69018 0.08995
 C2894 C 0.49950 0.67271 0.08100
 C2895 C 0.50385 0.63806 0.07978
 C2896 C 0.50202 0.62308 0.07171
 C2897 C 0.50019 0.60519 0.06201
 C2898 C 0.50569 0.58835 0.07110
 C2899 C 0.50462 0.57103 0.06148
 C2900 C 0.49806 0.57031 0.04257
 C2901 C 0.49234 0.58733 0.03364
 C2902 C 0.49342 0.60464 0.04331
 H2903 H 0.52134 0.64380 0.11326
 H2904 H 0.52637 0.67439 0.12916
 H2905 H 0.49734 0.70300 0.08307
 H2906 H 0.49209 0.67230 0.06750
 H2907 H 0.51097 0.58862 0.08557
 H2908 H 0.50913 0.55824 0.06882
 H2909 H 0.48721 0.58733 0.01913
 H2910 H 0.48916 0.61761 0.03614
 C2911 C 0.00532 0.15530 0.59109
 C2912 C -0.00453 0.17147 0.58504
 C2913 C -0.00133 0.18899 0.59379
 C2914 C 0.01194 0.19079 0.60883
 C2915 C 0.02158 0.17414 0.61485
 C2916 C 0.01828 0.15666 0.60606
 C2917 C 0.00256 0.13743 0.58160
 C2918 C 0.00062 0.12246 0.57353
 C2919 C -0.00120 0.10459 0.56380
 C2920 C -0.00732 0.10412 0.54487
 C2921 C -0.00803 0.08687 0.53508
 C2922 C -0.00256 0.06981 0.54409
 C2923 C 0.00321 0.07042 0.56326
 C2924 C 0.00390 0.08769 0.57301
 H2925 H -0.01448 0.17061 0.57332
 H2926 H -0.00869 0.20119 0.58796
 H2927 H 0.03127 0.17426 0.62677
 H2928 H 0.02590 0.14417 0.61096
 H2929 H -0.01127 0.11714 0.53760
 H2930 H -0.01256 0.08695 0.52036
 H2931 H 0.00748 0.05760 0.57068
 H2932 H 0.00869 0.08789 0.58766
 C2933 C 0.49426 0.15804 0.41017
 C2934 C 0.50829 0.16651 0.39890
 C2935 C 0.50472 0.18392 0.38991
 C2936 C 0.48704 0.19305 0.39206
 C2937 C 0.47304 0.18438 0.40340
 C2938 C 0.47664 0.16700 0.41238
 C2939 C 0.49781 0.14014 0.41948
 C2940 C 0.50032 0.12513 0.42741
 C2941 C 0.50272 0.10718 0.43698
 C2942 C 0.49816 0.09029 0.42760
 C2943 C 0.49922 0.07292 0.43724
 C2944 C 0.50483 0.07221 0.45646
 C2945 C 0.50983 0.08926 0.46562
 C2946 C 0.50874 0.10662 0.45594
 H2947 H 0.52196 0.15966 0.39705
 H2948 H 0.51571 0.19014 0.38111
 H2949 H 0.45940 0.19118 0.40557
 H2950 H 0.46569 0.16059 0.42110
 H2951 H 0.49344 0.09056 0.41294
 H2952 H 0.49531 0.06010 0.42971
 H2953 H 0.51422 0.08927 0.48038
 H2954 H 0.51227 0.11963 0.46334
 C2955 C -0.00776 0.65795 0.91077
 C2956 C 0.00743 0.66830 0.90333
 C2957 C 0.00422 0.68583 0.89447
 C2958 C -0.01436 0.69344 0.89282
 C2959 C -0.02953 0.68258 0.90033
 C2960 C -0.02622 0.66509 0.90920
 C2961 C -0.00448 0.64005 0.92018
 C2962 C -0.00209 0.62506 0.92818
 C2963 C 0.00025 0.60715 0.93782
 C2964 C -0.00432 0.59022 0.92850
 C2965 C -0.00319 0.57288 0.93817
 C2966 C 0.00250 0.57223 0.95737
 C2967 C 0.00746 0.58931 0.96649
 C2968 C 0.00631 0.60664 0.95677
 H2969 H 0.02179 0.66280 0.90432
 H2970 H 0.01639 0.69294 0.88836
 H2971 H -0.04399 0.68780 0.90026
 H2972 H -0.03809 0.65723 0.91505
 H2973 H -0.00905 0.59046 0.91383
 H2974 H -0.00707 0.56004 0.93067
 H2975 H 0.01190 0.58935 0.98123
 H2976 H 0.00985 0.61967 0.96413
 C2977 C 0.25743 0.66157 0.90797
 C2978 C 0.26664 0.64393 0.90826
 C2979 C 0.26967 0.63448 0.92551
 C2980 C 0.26352 0.64259 0.94272
 C2981 C 0.25413 0.66026 0.94225
 C2982 C 0.25112 0.66969 0.92498
 C2983 C 0.25488 0.67154 0.89026
 C2984 C 0.25303 0.67989 0.87539
 C2985 C 0.25123 0.68979 0.85755
 C2986 C 0.24520 0.70875 0.85712
 C2987 C 0.24415 0.71856 0.83982
 C2988 C 0.24917 0.70950 0.82271
 C2989 C 0.25499 0.69034 0.82331
 C2990 C 0.25601 0.68059 0.84061
 H2991 H 0.27157 0.63751 0.89517
 H2992 H 0.27674 0.62079 0.92540
 H2993 H 0.24945 0.66698 0.95527
 H2994 H 0.24406 0.68338 0.92492
 H2995 H 0.24149 0.71602 0.87017
 H2996 H 0.23961 0.73327 0.83990
 H2997 H 0.25894 0.68289 0.81045
 H2998 H 0.26072 0.66592 0.84080
 C2999 C 0.76020 0.16118 0.40648
 C3000 C 0.77757 0.16337 0.41590
 C3001 C 0.78086 0.15404 0.43316
 C3002 C 0.76678 0.14236 0.44123
 C3003 C 0.74937 0.14022 0.43163
 C3004 C 0.74612 0.14956 0.41435
 C3005 C 0.75693 0.17086 0.38872
 C3006 C 0.75452 0.17902 0.37382
 C3007 C 0.75209 0.18877 0.35597
 C3008 C 0.74595 0.20770 0.35560
 C3009 C 0.74447 0.21743 0.33829
 C3010 C 0.74917 0.20834 0.32110
 C3011 C 0.75504 0.18920 0.32165
 C3012 C 0.75650 0.17952 0.33896
 H3013 H 0.78856 0.17236 0.40995
 H3014 H 0.79428 0.15621 0.44035
 H3015 H 0.73834 0.13118 0.43741
 H3016 H 0.73264 0.14773 0.40714
 H3017 H 0.74254 0.21501 0.36870
 H3018 H 0.73990 0.23214 0.33842
 H3019 H 0.75875 0.18173 0.30873
 H3020 H 0.76129 0.16487 0.33909
 C3021 C 0.24439 0.33759 0.40650
 C3022 C 0.22678 0.33542 0.41546
 C3023 C 0.22308 0.34468 0.43261
 C3024 C 0.23699 0.35626 0.44106
 C3025 C 0.25467 0.35836 0.43195
 C3026 C 0.25833 0.34909 0.41476
 C3027 C 0.24800 0.32808 0.38878
 C3028 C 0.25057 0.32004 0.37388
 C3029 C 0.25299 0.31044 0.35601
 C3030 C 0.24851 0.31983 0.33904
 C3031 C 0.24957 0.31019 0.32173
 C3032 C 0.25510 0.29094 0.32115
 C3033 C 0.26002 0.28175 0.33828
 C3034 C 0.25894 0.29145 0.35559
 H3035 H 0.21590 0.32653 0.40920
 H3036 H 0.20945 0.34256 0.43942
 H3037 H 0.26557 0.36734 0.43800
 H3038 H 0.27199 0.35092 0.40791
 H3039 H 0.24387 0.33452 0.33921
 H3040 H 0.24572 0.31774 0.30885
 H3041 H 0.26435 0.26698 0.33838
 H3042 H 0.26240 0.28403 0.36866
 C3043 C 0.74545 0.83923 0.90701
 C3044 C 0.73566 0.85656 0.90727
 C3045 C 0.73195 0.86562 0.92455
 C3046 C 0.73799 0.85744 0.94181
 C3047 C 0.74797 0.84009 0.94137
 C3048 C 0.75165 0.83105 0.92407
 C3049 C 0.74859 0.82956 0.88927
 C3050 C 0.75084 0.82139 0.87440
 C3051 C 0.75300 0.81160 0.85659
 C3052 C 0.74829 0.82080 0.83958
 C3053 C 0.74924 0.81101 0.82235
 C3054 C 0.75489 0.79179 0.82189
 C3055 C 0.76001 0.78279 0.83906
 C3056 C 0.75903 0.79264 0.85628
 H3057 H 0.73078 0.86301 0.89414
 H3058 H 0.72444 0.87907 0.92441
 H3059 H 0.75258 0.83331 0.95442
 H3060 H 0.75915 0.81758 0.92404
 H3061 H 0.74357 0.83547 0.83966
 H3062 H 0.74523 0.81842 0.80943
 H3063 H 0.76444 0.76804 0.83925
 H3064 H 0.76268 0.78537 0.86939
 C3065 C 0.75501 0.84015 0.09322
 C3066 C 0.77284 0.83799 0.08470
 C3067 C 0.77679 0.84700 0.06743
 C3068 C 0.76294 0.85832 0.05842
 C3069 C 0.74506 0.86046 0.06714
 C3070 C 0.74113 0.85143 0.08444
 C3071 C 0.75107 0.83075 0.11098
 C3072 C 0.74824 0.82273 0.12588
 C3073 C 0.74553 0.81306 0.14373
 C3074 C 0.73967 0.79406 0.14404
 C3075 C 0.73847 0.78423 0.16131
 C3076 C 0.74319 0.79327 0.17851
 C3077 C 0.74856 0.81255 0.17805
 C3078 C 0.74974 0.82233 0.16077
 H3079 H 0.78367 0.82926 0.09136
 H3080 H 0.79059 0.84486 0.06095
 H3081 H 0.73418 0.86925 0.06066
 H3082 H 0.72730 0.85325 0.09095
 H3083 H 0.73642 0.78673 0.13091
 H3084 H 0.73427 0.76943 0.16112
 H3085 H 0.75226 0.81999 0.19099
 H3086 H 0.75432 0.83702 0.16069
 C3087 C 0.25737 0.33955 0.59207
 C3088 C 0.24322 0.35068 0.58353
 C3089 C 0.24670 0.35965 0.56611
 C3090 C 0.26441 0.35761 0.55704
 C3091 C 0.27854 0.34642 0.56578
 C3092 C 0.27502 0.33747 0.58317
 C3093 C 0.25389 0.33024 0.60996
 C3094 C 0.25138 0.32232 0.62497
 C3095 C 0.24891 0.31278 0.64291
 C3096 C 0.25392 0.32196 0.65980
 C3097 C 0.25258 0.31238 0.67717
 C3098 C 0.24623 0.29342 0.67790
 C3099 C 0.24090 0.28443 0.66084
 C3100 C 0.24226 0.29406 0.64348
 H3101 H 0.22952 0.35243 0.59033
 H3102 H 0.23563 0.36834 0.55983
 H3103 H 0.29220 0.34435 0.55903
 H3104 H 0.28605 0.32884 0.58965
 H3105 H 0.25912 0.33644 0.65951
 H3106 H 0.25678 0.31976 0.68999
 H3107 H 0.23594 0.26987 0.66085
 H3108 H 0.23839 0.28681 0.63047
 C3109 C 0.74313 0.16000 0.59195
 C3110 C 0.74993 0.16837 0.57523
 C3111 C 0.74704 0.15947 0.55772
 C3112 C 0.73726 0.14208 0.55672
 C3113 C 0.73063 0.13369 0.57364
 C3114 C 0.73355 0.14261 0.59113
 C3115 C 0.74552 0.16949 0.60988
 C3116 C 0.74724 0.17753 0.62489
 C3117 C 0.74891 0.18719 0.64281
 C3118 C 0.75558 0.20590 0.64344
 C3119 C 0.75648 0.21555 0.66077
 C3120 C 0.75068 0.20660 0.67773
 C3121 C 0.74423 0.18768 0.67694
 C3122 C 0.74335 0.17807 0.65959
 H3123 H 0.75728 0.18188 0.57569
 H3124 H 0.75209 0.16640 0.54492
 H3125 H 0.72326 0.12019 0.57335
 H3126 H 0.72824 0.13600 0.60400
 H3127 H 0.75990 0.21310 0.63051
 H3128 H 0.76154 0.23008 0.66083
 H3129 H 0.73966 0.18032 0.68968
 H3130 H 0.73813 0.16360 0.65925
 C3131 C 0.24328 0.65822 0.09415
 C3132 C 0.24977 0.66669 0.07735
 C3133 C 0.24638 0.65800 0.05983
 C3134 C 0.23641 0.64070 0.05888
 C3135 C 0.23007 0.63222 0.07586
 C3136 C 0.23349 0.64093 0.09338
 C3137 C 0.24613 0.66756 0.11209
 C3138 C 0.24820 0.67558 0.12708
 C3139 C 0.25020 0.68533 0.14493
 C3140 C 0.25626 0.70425 0.14529
 C3141 C 0.25712 0.71410 0.16251
 C3142 C 0.25187 0.70512 0.17964
 C3143 C 0.24618 0.68595 0.17914
 C3144 C 0.24534 0.67615 0.16190
 H3145 H 0.25725 0.68012 0.07778
 H3146 H 0.25120 0.66501 0.04699
 H3147 H 0.22255 0.61881 0.07559
 H3148 H 0.22839 0.63426 0.10630
 H3149 H 0.26002 0.71150 0.13221
 H3150 H 0.26157 0.72882 0.16234
 H3151 H 0.24208 0.67856 0.19203
 H3152 H 0.24061 0.66150 0.16178
 C3153 C 0.16115 0.59485 0.74235
 C3154 C 0.14374 0.59442 0.73273
 C3155 C 0.13453 0.57711 0.72962
 C3156 C 0.14264 0.55999 0.73612
 C3157 C 0.16008 0.56059 0.74590
 C3158 C 0.16926 0.57791 0.74898
 C3159 C 0.17087 0.61260 0.74507
 C3160 C 0.17908 0.62748 0.74710
 C3161 C 0.18889 0.64527 0.74917
 C3162 C 0.17960 0.66232 0.74478
 C3163 C 0.18929 0.67958 0.74605
 C3164 C 0.20848 0.68004 0.75173
 C3165 C 0.21763 0.66282 0.75637
 C3166 C 0.20788 0.64557 0.75507
 H3167 H 0.13733 0.60746 0.72755
 H3168 H 0.12102 0.57712 0.72225
 H3169 H 0.16681 0.54764 0.75084
 H3170 H 0.18278 0.57808 0.75636
 H3171 H 0.16490 0.66225 0.74018
 H3172 H 0.18178 0.69253 0.74239
 H3173 H 0.23237 0.66263 0.76079
 H3174 H 0.21522 0.63244 0.75849
 C3175 C 0.66055 0.09394 0.24121
 C3176 C 0.66888 0.07702 0.24759
 C3177 C 0.65974 0.05967 0.24457
 C3178 C 0.64214 0.05903 0.23509
 C3179 C 0.63382 0.07614 0.22884
 C3180 C 0.64298 0.09348 0.23189
 C3181 C 0.67023 0.11173 0.24383
 C3182 C 0.67843 0.12662 0.24578
 C3183 C 0.68827 0.14441 0.24777
 C3184 C 0.70726 0.14469 0.25367
 C3185 C 0.71703 0.16193 0.25489
 C3186 C 0.70792 0.17915 0.25018
 C3187 C 0.68873 0.17870 0.24450
 C3188 C 0.67900 0.16145 0.24329
 H3189 H 0.68252 0.07721 0.25473
 H3190 H 0.66663 0.04672 0.24931
 H3191 H 0.62018 0.07612 0.22171
 H3192 H 0.63640 0.10651 0.22691
 H3193 H 0.71457 0.13156 0.25714
 H3194 H 0.73177 0.16172 0.25933
 H3195 H 0.68124 0.19165 0.24078
 H3196 H 0.66431 0.16138 0.23869
 C3197 C 0.83770 0.09089 0.75768
 C3198 C 0.85514 0.09060 0.76724
 C3199 C 0.86452 0.07337 0.77047
 C3200 C 0.85655 0.05617 0.76418
 C3201 C 0.83908 0.05663 0.75443
 C3202 C 0.82972 0.07389 0.75122
 C3203 C 0.82781 0.10860 0.75490
 C3204 C 0.81955 0.12349 0.75290
 C3205 C 0.80976 0.14136 0.75092
 C3206 C 0.81895 0.15825 0.75585
 C3207 C 0.80930 0.17558 0.75468
 C3208 C 0.79025 0.17627 0.74855
 C3209 C 0.78121 0.15921 0.74338
 C3210 C 0.79092 0.14188 0.74458
 H3211 H 0.86144 0.10369 0.77228
 H3212 H 0.87805 0.07348 0.77781
 H3213 H 0.83248 0.04361 0.74963
 H3214 H 0.81618 0.07395 0.74388
 H3215 H 0.83354 0.15800 0.76080
 H3216 H 0.81673 0.18840 0.75875
 H3217 H 0.76658 0.15920 0.73860
 H3218 H 0.78366 0.12887 0.74075
 C3219 C 0.33964 0.59286 0.25553
 C3220 C 0.35705 0.59253 0.26517
 C3221 C 0.36610 0.57522 0.26894
 C3222 C 0.35784 0.55799 0.26311
 C3223 C 0.34043 0.55850 0.25325
 C3224 C 0.33140 0.57583 0.24952
 C3225 C 0.32995 0.61062 0.25239
 C3226 C 0.32171 0.62550 0.25016
 C3227 C 0.31177 0.64328 0.24805
 C3228 C 0.32083 0.66030 0.25277
 C3229 C 0.31086 0.67748 0.25192
 C3230 C 0.29163 0.67787 0.24637
 C3231 C 0.28278 0.66070 0.24123
 C3232 C 0.29280 0.64352 0.24209
 H3233 H 0.36355 0.60564 0.26990
 H3234 H 0.37960 0.57530 0.27634
 H3235 H 0.33359 0.54547 0.24881
 H3236 H 0.31788 0.57591 0.24214
 H3237 H 0.33551 0.66026 0.25742
 H3238 H 0.31815 0.69040 0.25594
 H3239 H 0.26802 0.66045 0.23687
 H3240 H 0.28564 0.63041 0.23844
 C3241 C 0.34146 0.40563 0.24612
 C3242 C 0.33283 0.42250 0.25215
 C3243 C 0.34165 0.43997 0.24877
 C3244 C 0.35922 0.44079 0.23927
 C3245 C 0.36790 0.42372 0.23348
 C3246 C 0.35905 0.40627 0.23688
 C3247 C 0.33195 0.38774 0.24876
 C3248 C 0.32385 0.37276 0.25057
 C3249 C 0.31408 0.35489 0.25219
 C3250 C 0.29516 0.35440 0.25829
 C3251 C 0.28531 0.33716 0.25882
 C3252 C 0.29427 0.32017 0.25318
 C3253 C 0.31342 0.32080 0.24742
 C3254 C 0.32322 0.33805 0.24692
 H3255 H 0.31915 0.42217 0.25921
 H3256 H 0.33450 0.45287 0.25318
 H3257 H 0.38153 0.42388 0.22635
 H3258 H 0.36586 0.39329 0.23215
 H3259 H 0.28793 0.36737 0.26237
 H3260 H 0.27061 0.33722 0.26335
 H3261 H 0.32079 0.30802 0.24302
 H3262 H 0.33786 0.33829 0.24214
 C3263 C 0.84125 0.90564 0.74259
 C3264 C 0.83909 0.91477 0.72502
 C3265 C 0.84800 0.93218 0.72162
 C3266 C 0.85922 0.94072 0.73578
 C3267 C 0.86139 0.93138 0.75338
 C3268 C 0.85246 0.91395 0.75675
 C3269 C 0.83186 0.88780 0.74602
 C3270 C 0.82384 0.87287 0.74850
 C3271 C 0.81413 0.85505 0.75093
 C3272 C 0.79521 0.85474 0.75704
 C3273 C 0.78540 0.83751 0.75823
 C3274 C 0.79439 0.82033 0.75326
 C3275 C 0.81357 0.82078 0.74754
 C3276 C 0.82333 0.83802 0.74637
 H3277 H 0.83041 0.90849 0.71398
 H3278 H 0.84585 0.93913 0.70803
 H3279 H 0.87010 0.93749 0.76448
 H3280 H 0.85427 0.90697 0.77038
 H3281 H 0.78794 0.86785 0.76057
 H3282 H 0.77067 0.83771 0.76269
 H3283 H 0.82097 0.80786 0.74365
 H3284 H 0.83797 0.83810 0.74160
 C3285 C 0.65865 0.90744 0.25572
 C3286 C 0.66709 0.92420 0.24913
 C3287 C 0.65844 0.94175 0.25259
 C3288 C 0.64123 0.94278 0.26272
 C3289 C 0.63279 0.92584 0.26918
 C3290 C 0.64147 0.90829 0.26569
 C3291 C 0.66793 0.88946 0.25272
 C3292 C 0.67588 0.87444 0.25050
 C3293 C 0.68556 0.85654 0.24828
 C3294 C 0.70435 0.85609 0.24182
 C3295 C 0.71414 0.83881 0.24073
 C3296 C 0.70524 0.82172 0.24615
 C3297 C 0.68618 0.82232 0.25224
 C3298 C 0.67644 0.83962 0.25332
 H3299 H 0.68045 0.92372 0.24150
 H3300 H 0.66542 0.95455 0.24767
 H3301 H 0.61945 0.92616 0.27682
 H3302 H 0.63482 0.89540 0.27087
 H3303 H 0.71155 0.86912 0.23791
 H3304 H 0.72876 0.83889 0.23595
 H3305 H 0.67886 0.80948 0.25650
 H3306 H 0.66190 0.83982 0.25836
 C3307 C 0.15958 0.40889 0.75848
 C3308 C 0.14221 0.40968 0.76812
 C3309 C 0.13329 0.42718 0.77122
 C3310 C 0.14167 0.44413 0.76471
 C3311 C 0.15908 0.44316 0.75492
 C3312 C 0.16796 0.42566 0.75184
 C3313 C 0.16904 0.39095 0.75578
 C3314 C 0.17708 0.37595 0.75374
 C3315 C 0.18679 0.35806 0.75163
 C3316 C 0.17768 0.34115 0.75670
 C3317 C 0.18732 0.32381 0.75537
 C3318 C 0.20627 0.32317 0.74896
 C3319 C 0.21522 0.34027 0.74366
 C3320 C 0.20553 0.35758 0.74501
 H3321 H 0.13559 0.39678 0.77331
 H3322 H 0.11980 0.42744 0.77861
 H3323 H 0.16601 0.45597 0.74997
 H3324 H 0.18146 0.42522 0.74445
 H3325 H 0.16318 0.34136 0.76187
 H3326 H 0.17997 0.31096 0.75956
 H3327 H 0.22977 0.34032 0.73867
 H3328 H 0.21272 0.37061 0.74108
 C3329 C 0.09362 0.75788 0.83997
 C3330 C 0.07666 0.75179 0.83160
 C3331 C 0.05933 0.75490 0.84079
 C3332 C 0.05875 0.76418 0.85848
 C3333 C 0.07590 0.77009 0.86686
 C3334 C 0.09321 0.76695 0.85765
 C3335 C 0.11139 0.75530 0.83020
 C3336 C 0.12630 0.75346 0.82198
 C3337 C 0.14414 0.75169 0.81217
 C3338 C 0.14463 0.74532 0.79334
 C3339 C 0.16192 0.74435 0.78358
 C3340 C 0.17896 0.74978 0.79255
 C3341 C 0.17829 0.75593 0.81158
 C3342 C 0.16100 0.75688 0.82129
 H3343 H 0.07681 0.74483 0.81787
 H3344 H 0.04635 0.75041 0.83387
 H3345 H 0.07591 0.77707 0.88056
 H3346 H 0.10627 0.77172 0.86426
 H3347 H 0.13164 0.74130 0.78614
 H3348 H 0.16188 0.73954 0.76897
 H3349 H 0.19110 0.76020 0.81895
 H3350 H 0.16077 0.76185 0.83585
 C3351 C 0.59318 0.25961 0.33793
 C3352 C 0.58508 0.24530 0.34914
 C3353 C 0.56777 0.24850 0.35838
 C3354 C 0.55837 0.26608 0.35653
 C3355 C 0.56667 0.28038 0.34526
 C3356 C 0.58395 0.27715 0.33604
 C3357 C 0.61097 0.25642 0.32837
 C3358 C 0.62589 0.25409 0.32030
 C3359 C 0.64376 0.25179 0.31062
 C3360 C 0.64421 0.24531 0.29183
 C3361 C 0.66151 0.24396 0.28214
 C3362 C 0.67862 0.24914 0.29114
 C3363 C 0.67799 0.25536 0.31015
 C3364 C 0.66069 0.25668 0.31979
 H3365 H 0.59214 0.23170 0.35075
 H3366 H 0.56184 0.23730 0.36712
 H3367 H 0.55965 0.29396 0.34333
 H3368 H 0.59008 0.28831 0.32736
 H3369 H 0.63117 0.24152 0.28459
 H3370 H 0.66144 0.23912 0.26754
 H3371 H 0.69085 0.25945 0.31755
 H3372 H 0.66049 0.26175 0.33432
 C3373 C 0.59092 0.74256 0.16019
 C3374 C 0.58235 0.75658 0.14893
 C3375 C 0.56495 0.75298 0.14001
 C3376 C 0.55593 0.73528 0.14225
 C3377 C 0.56471 0.72127 0.15357
 C3378 C 0.58208 0.72490 0.16246
 C3379 C 0.60878 0.74616 0.16947
 C3380 C 0.62376 0.74873 0.17738
 C3381 C 0.64165 0.75121 0.18696
 C3382 C 0.64210 0.75722 0.20590
 C3383 C 0.65940 0.75837 0.21561
 C3384 C 0.67652 0.75344 0.20649
 C3385 C 0.67593 0.74784 0.18729
 C3386 C 0.65861 0.74671 0.17762
 H3387 H 0.58910 0.77028 0.14702
 H3388 H 0.55864 0.76397 0.13122
 H3389 H 0.55800 0.70761 0.15579
 H3390 H 0.58857 0.71396 0.17119
 H3391 H 0.62904 0.76070 0.21328
 H3392 H 0.65931 0.76275 0.23036
 H3393 H 0.68880 0.74398 0.17979
 H3394 H 0.65843 0.74201 0.16297
 C3395 C 0.09045 0.24078 0.66241
 C3396 C 0.08251 0.25473 0.65060
 C3397 C 0.06525 0.25135 0.64135
 C3398 C 0.05573 0.23393 0.64380
 C3399 C 0.06388 0.21999 0.65566
 C3400 C 0.08112 0.22341 0.66489
 C3401 C 0.10822 0.24417 0.67192
 C3402 C 0.12316 0.24669 0.67992
 C3403 C 0.14107 0.24925 0.68943
 C3404 C 0.14160 0.25483 0.70850
 C3405 C 0.15901 0.25641 0.71797
 C3406 C 0.17614 0.25237 0.70846
 C3407 C 0.17544 0.24707 0.68917
 C3408 C 0.15803 0.24552 0.67976
 H3409 H 0.08966 0.26819 0.64852
 H3410 H 0.05944 0.26226 0.63215
 H3411 H 0.05677 0.20656 0.65803
 H3412 H 0.08713 0.21253 0.67402
 H3413 H 0.12854 0.25773 0.71613
 H3414 H 0.15900 0.26052 0.73280
 H3415 H 0.18831 0.24387 0.68138
 H3416 H 0.15778 0.24116 0.66499
 C3417 C 0.90633 0.25756 0.66196
 C3418 C 0.91569 0.27496 0.66405
 C3419 C 0.93294 0.27818 0.65478
 C3420 C 0.94109 0.26401 0.64328
 C3421 C 0.93155 0.24656 0.64123
 C3422 C 0.91428 0.24338 0.65051
 C3423 C 0.88855 0.25438 0.67152
 C3424 C 0.87361 0.25205 0.67955
 C3425 C 0.85570 0.24972 0.68911
 C3426 C 0.83876 0.25376 0.67949
 C3427 C 0.82137 0.25240 0.68895
 C3428 C 0.82066 0.24699 0.70823
 C3429 C 0.83777 0.24265 0.71770
 C3430 C 0.85516 0.24404 0.70818
 H3431 H 0.90968 0.28602 0.67290
 H3432 H 0.94007 0.29164 0.65684
 H3433 H 0.93736 0.23546 0.63230
 H3434 H 0.90711 0.22988 0.64874
 H3435 H 0.83902 0.25820 0.66472
 H3436 H 0.80851 0.25582 0.68119
 H3437 H 0.83777 0.23844 0.73252
 H3438 H 0.86821 0.24090 0.71577
 C3439 C 0.40512 0.75586 0.16142
 C3440 C 0.41406 0.77349 0.16339
 C3441 C 0.43129 0.77703 0.15419
 C3442 C 0.43985 0.76295 0.14288
 C3443 C 0.43075 0.74525 0.14097
 C3444 C 0.41349 0.74175 0.15018
 C3445 C 0.38736 0.75237 0.17093
 C3446 C 0.37245 0.74988 0.17899
 C3447 C 0.35461 0.74748 0.18868
 C3448 C 0.33761 0.75201 0.17938
 C3449 C 0.32033 0.75089 0.18910
 C3450 C 0.31981 0.74526 0.20833
 C3451 C 0.33696 0.74033 0.21743
 C3452 C 0.35423 0.74147 0.20766
 H3453 H 0.40773 0.78450 0.17209
 H3454 H 0.43807 0.79068 0.15617
 H3455 H 0.43688 0.73420 0.13220
 H3456 H 0.40666 0.72806 0.14852
 H3457 H 0.33774 0.75672 0.16470
 H3458 H 0.30744 0.75476 0.18162
 H3459 H 0.33711 0.73592 0.23219
 H3460 H 0.36732 0.73796 0.21501
 C3461 C 0.40806 0.24373 0.33838
 C3462 C 0.41623 0.25776 0.34982
 C3463 C 0.43360 0.25434 0.35890
 C3464 C 0.44299 0.23680 0.35666
 C3465 C 0.43463 0.22280 0.34515
 C3466 C 0.41728 0.22625 0.33609
 C3467 C 0.39019 0.24712 0.32899
 C3468 C 0.37521 0.24951 0.32101
 C3469 C 0.35729 0.25174 0.31138
 C3470 C 0.35676 0.25775 0.29240
 C3471 C 0.33945 0.25864 0.28266
 C3472 C 0.32241 0.25347 0.29179
 C3473 C 0.32308 0.24789 0.31103
 C3474 C 0.34040 0.24702 0.32072
 H3475 H 0.40917 0.27132 0.35174
 H3476 H 0.43958 0.26532 0.36783
 H3477 H 0.44164 0.20927 0.34291
 H3478 H 0.41111 0.21530 0.32723
 H3479 H 0.36977 0.26140 0.28503
 H3480 H 0.33948 0.26302 0.26789
 H3481 H 0.31027 0.24384 0.31853
 H3482 H 0.34065 0.24232 0.33540
 C3483 C 0.90742 0.74533 0.84067
 C3484 C 0.92432 0.75164 0.83234
 C3485 C 0.94173 0.74812 0.84127
 C3486 C 0.94246 0.73818 0.85865
 C3487 C 0.92537 0.73204 0.86699
 C3488 C 0.90797 0.73559 0.85805
 C3489 C 0.88958 0.74829 0.83110
 C3490 C 0.87464 0.75040 0.82297
 C3491 C 0.85680 0.75239 0.81316
 C3492 C 0.85640 0.75823 0.79412
 C3493 C 0.83917 0.75899 0.78424
 C3494 C 0.82207 0.75386 0.79328
 C3495 C 0.82261 0.74841 0.81257
 C3496 C 0.83985 0.74767 0.82240
 H3497 H 0.92406 0.75909 0.81884
 H3498 H 0.95466 0.75280 0.83436
 H3499 H 0.92546 0.72456 0.88047
 H3500 H 0.89496 0.73063 0.86461
 H3501 H 0.86945 0.76188 0.78682
 H3502 H 0.83930 0.76326 0.76944
 H3503 H 0.80975 0.74440 0.82000
 H3504 H 0.84001 0.74311 0.83712
   
