data_POSCAR
  _audit_creation_date              2014-09-24
  _audit_creation_method            'ToBaCCo'
  _symmetry_space_group_name_H-M    'P1'
  _symmetry_Int_Tables_number       1
  _symmetry_cell_setting            triclinic
  loop_
  _symmetry_equiv_pos_as_xyz
 x,y,z
_cell_length_a 38.8419
_cell_length_b 39.9119
_cell_length_c 36.8890
_cell_angle_alpha 87.098400
_cell_angle_beta 92.580700
_cell_angle_gamma 91.802000
loop_
  _atom_site_label
  _atom_site_type_symbol
  _atom_site_fract_x
  _atom_site_fract_y
  _atom_site_fract_z
C1 C 0.40376 0.04540 0.29188
 C2 C 0.37844 0.07278 0.28008
 C3 C 0.35475 0.06370 0.25379
 C4 C 0.35894 0.02811 0.24074
 C5 C 0.38077 0.01449 0.30210
 C6 C 0.35715 0.00594 0.27562
 C7 C 0.41982 0.03651 0.25650
 C8 C 0.39692 0.02625 0.23024
 H9 H 0.37708 0.09598 0.29392
 H10 H 0.33961 0.02076 0.21927
 H11 H 0.38478 -0.00083 0.32694
 H12 H 0.44682 0.03906 0.25124
 C13 C 0.12591 -0.01088 0.79631
 C14 C 0.13136 -0.04742 0.78853
 C15 C 0.15196 -0.05172 0.76022
 C16 C 0.16408 -0.01835 0.74184
 C17 C 0.16286 0.00310 0.80197
 C18 C 0.18301 -0.00073 0.77339
 C19 C 0.11257 0.00482 0.76266
 C20 C 0.13296 0.00082 0.73194
 H21 H 0.12737 -0.06690 0.80941
 H22 H 0.18116 -0.02193 0.71959
 H23 H 0.17119 0.01815 0.82456
 H24 H 0.08939 0.01912 0.76202
 C25 C 0.61112 0.47347 0.28477
 C26 C 0.62724 0.44042 0.27574
 C27 C 0.65442 0.44515 0.25367
 C28 C 0.66308 0.48190 0.24265
 C29 C 0.64138 0.49430 0.30070
 C30 C 0.66836 0.49912 0.27879
 C31 C 0.60217 0.49056 0.24743
 C32 C 0.62910 0.49540 0.22529
 H33 H 0.61825 0.41572 0.28511
 H34 H 0.68572 0.48531 0.22538
 H35 H 0.63919 0.50870 0.32462
 H36 H 0.57583 0.49554 0.23840
 C37 C 0.90488 0.53109 0.77746
 C38 C 0.88037 0.55860 0.76430
 C39 C 0.86002 0.55106 0.73494
 C40 C 0.86603 0.51620 0.72079
 C41 C 0.88169 0.49935 0.78330
 C42 C 0.86155 0.49146 0.75358
 C43 C 0.92510 0.52380 0.74398
 C44 C 0.90507 0.51553 0.71443
 H45 H 0.87908 0.58222 0.77739
 H46 H 0.84852 0.50988 0.69742
 H47 H 0.88493 0.48207 0.80673
 H48 H 0.95273 0.52352 0.74366
 C49 C 0.29238 0.41331 0.99903
 C50 C 0.28574 0.39366 1.03559
 C51 C 0.25797 0.37199 1.03374
 C52 C 0.23946 0.37192 0.99651
 C53 C 0.29458 0.38589 0.97143
 C54 C 0.26684 0.36445 0.96979
 C55 C 0.25798 0.43037 0.98922
 C56 C 0.23005 0.40877 0.98857
 H57 H 0.30003 0.39707 1.06096
 H58 H 0.21745 0.35371 0.99595
 H59 H 0.31595 0.38465 0.95375
 H60 H 0.25570 0.45737 0.98813
 C61 C 0.76319 0.08870 0.98107
 C62 C 0.75613 0.11458 0.94945
 C63 C 0.73337 0.13826 0.95728
 C64 C 0.71930 0.13368 0.99575
 C65 C 0.77455 0.10985 1.01302
 C66 C 0.75205 0.13324 1.02122
 C67 C 0.72948 0.07489 0.98947
 C68 C 0.70481 0.09924 0.99728
 H69 H 0.76773 0.11469 0.92335
 H70 H 0.70090 0.15326 1.00135
 H71 H 0.79994 0.10788 1.02625
 H72 H 0.72367 0.04819 0.98952
 C73 C 0.26940 0.61503 0.48825
 C74 C 0.26317 0.64001 0.45583
 C75 C 0.23523 0.65922 0.45861
 C76 C 0.21598 0.65227 0.49353
 C77 C 0.27065 0.63633 0.52185
 C78 C 0.24369 0.65680 0.52418
 C79 C 0.23528 0.59481 0.49134
 C80 C 0.20736 0.61429 0.49434
 H81 H 0.27989 0.64274 0.43307
 H82 H 0.19309 0.66804 0.49450
 H83 H 0.29059 0.63365 0.54315
 H84 H 0.23317 0.56770 0.49245
 C85 C 0.78905 0.90543 0.50064
 C86 C 0.77921 0.88547 0.53559
 C87 C 0.75259 0.86261 0.53089
 C88 C 0.73924 0.86113 0.49119
 C89 C 0.79677 0.87899 0.47441
 C90 C 0.77121 0.85578 0.46902
 C91 C 0.75491 0.92058 0.48628
 C92 C 0.72819 0.89768 0.48213
 H93 H 0.78823 0.89269 0.56233
 H94 H 0.71868 0.84180 0.48644
 H95 H 0.82178 0.87786 0.46272
 H96 H 0.75102 0.94726 0.48696
 C97 C -0.00971 0.28632 0.39814
 C98 C 0.01634 0.29260 0.36817
 C99 C 0.02322 0.26513 0.34956
 C100 C 0.00260 0.23342 0.36231
 C101 C -0.03995 0.27063 0.38089
 C102 C -0.03348 0.24246 0.36054
 C103 C 0.00563 0.25740 0.42250
 C104 C 0.01178 0.22931 0.40384
 H105 H 0.03102 0.31602 0.36488
 H106 H 0.00747 0.21102 0.34681
 H107 H -0.06601 0.27803 0.38531
 H108 H 0.00887 0.25804 0.45174
 C109 C -0.01198 0.78028 0.09903
 C110 C -0.03804 0.77157 0.12863
 C111 C -0.02908 0.74524 0.15148
 C112 C 0.00506 0.72979 0.14346
 C113 C 0.02209 0.78574 0.12087
 C114 C 0.03118 0.75944 0.14398
 C115 C -0.00777 0.74734 0.08033
 C116 C 0.00095 0.72081 0.10331
 H117 H -0.06203 0.78398 0.13132
 H118 H 0.01179 0.70843 0.16262
 H119 H 0.03699 0.80913 0.11921
 H120 H -0.01120 0.74554 0.05120
 C121 C 0.47168 0.27280 0.60771
 C122 C 0.44893 0.26939 0.64080
 C123 C 0.45815 0.24445 0.66563
 C124 C 0.48976 0.22507 0.65528
 C125 C 0.50822 0.27729 0.62469
 C126 C 0.51783 0.25235 0.64904
 C127 C 0.47072 0.23776 0.59260
 C128 C 0.48064 0.21253 0.61688
 H129 H 0.42721 0.28494 0.64448
 H130 H 0.49805 0.20552 0.67595
 H131 H 0.52580 0.29775 0.61692
 H132 H 0.46248 0.23378 0.56471
 C133 C 0.47839 0.79329 0.90252
 C134 C 0.51281 0.79743 0.88344
 C135 C 0.52280 0.76948 0.86697
 C136 C 0.49690 0.73944 0.87161
 C137 C 0.45261 0.78091 0.87277
 C138 C 0.46204 0.75310 0.85640
 C139 C 0.48235 0.76419 0.92735
 C140 C 0.49292 0.73453 0.91106
 H141 H 0.52763 0.82088 0.88271
 H142 H 0.50409 0.71674 0.85789
 H143 H 0.42664 0.78957 0.86830
 H144 H 0.47936 0.76549 0.95627
 C145 C -0.21388 0.66485 0.97155
 C146 C -0.18439 0.64225 0.98472
 C147 C -0.19227 0.62081 1.01316
 C148 C -0.22905 0.62383 1.02615
 C149 C -0.24474 0.64074 0.96389
 C150 C -0.25262 0.61940 0.99231
 C151 C -0.22306 0.68235 1.00604
 C152 C -0.23231 0.66121 1.03437
 H153 H -0.15925 0.64354 0.97307
 H154 H -0.23523 0.60519 1.04832
 H155 H -0.26188 0.64381 0.94002
 H156 H -0.21980 0.70891 1.00921
 C157 C -0.27355 0.34366 0.44618
 C158 C -0.30719 0.36133 0.45153
 C159 C -0.30344 0.38785 0.47300
 C160 C -0.26664 0.39369 0.48871
 C161 C -0.24856 0.37166 0.43269
 C162 C -0.24492 0.39781 0.45483
 C163 C -0.26068 0.33418 0.48303
 C164 C -0.25676 0.36157 0.50691
 H165 H -0.33155 0.35482 0.43778
 H166 H -0.26376 0.41602 0.50538
 H167 H -0.23193 0.36894 0.41026
 H168 H -0.26015 0.30844 0.49352
 C169 C 0.22440 -0.16513 -0.03019
 C170 C 0.18985 -0.14897 -0.02361
 C171 C 0.19359 -0.12160 -0.00281
 C172 C 0.23108 -0.11310 0.00931
 C173 C 0.24639 -0.13591 -0.04709
 C174 C 0.25006 -0.10878 -0.02636
 C175 C 0.23987 -0.17202 0.00592
 C176 C 0.24467 -0.14361 0.02782
 H177 H 0.16562 -0.15534 -0.03751
 H178 H 0.23340 -0.08991 0.02453
 H179 H 0.26135 -0.13829 -0.07089
 H180 H 0.24477 -0.19742 0.01608
 C181 C 0.28311 1.15576 0.46661
 C182 C 0.31327 1.13637 0.48432
 C183 C 0.30438 1.11431 0.51175
 C184 C 0.26590 1.11366 0.51955
 C185 C 0.25627 1.12853 0.45530
 C186 C 0.24731 1.10651 0.48293
 C187 C 0.26632 1.17213 0.49819
 C188 C 0.25762 1.15045 0.52607
 H189 H 0.33917 1.13849 0.47451
 H190 H 0.25868 1.09522 0.54167
 H191 H 0.24214 1.12956 0.42929
 H192 H 0.26159 1.19853 0.49901
 C193 C 0.17441 0.55142 0.24815
 C194 C 0.16066 0.54139 0.21047
 C195 C 0.14032 0.51291 0.21069
 C196 C 0.13526 0.49723 0.24893
 C197 C 0.14240 0.55345 0.27046
 C198 C 0.12147 0.52539 0.27115
 C199 C 0.19273 0.51986 0.26376
 C200 C 0.17220 0.49155 0.26435
 H201 H 0.16793 0.55481 0.18563
 H202 H 0.11936 0.47383 0.24811
 H203 H 0.13866 0.57484 0.28653
 H204 H 0.22000 0.51935 0.27109
 C205 C -0.16055 1.01508 0.27220
 C206 C -0.13247 1.00735 0.30195
 C207 C -0.11341 0.98044 0.29555
 C208 C -0.12391 0.96357 0.25996
 C209 C -0.14043 1.01920 0.23748
 C210 C -0.12169 0.99241 0.23055
 C211 C -0.18054 0.98407 0.26904
 C212 C -0.16077 0.95519 0.26284
 H213 H -0.12559 1.02299 0.32437
 H214 H -0.10699 0.94253 0.25533
 H215 H -0.14246 1.04095 0.21879
 H216 H -0.20836 0.98364 0.26974
 C217 C 0.33158 0.51028 -0.24598
 C218 C 0.35767 0.50917 -0.21367
 C219 C 0.38022 0.48395 -0.21406
 C220 C 0.37520 0.46213 -0.24680
 C221 C 0.35333 0.51133 -0.27975
 C222 C 0.37712 0.48723 -0.27968
 C223 C 0.31428 0.47540 -0.24579
 C224 C 0.33712 0.45031 -0.24664
 H225 H 0.35953 0.52804 -0.19349
 H226 H 0.39368 0.44146 -0.24611
 H227 H 0.34856 0.52864 -0.30286
 H228 H 0.28669 0.47078 -0.24799
 C229 C 0.66772 0.03945 -0.24193
 C230 C 0.64934 0.02968 -0.27784
 C231 C 0.62936 0.00108 -0.27536
 C232 C 0.62900 -0.01491 -0.23683
 C233 C 0.63912 0.04103 -0.21514
 C234 C 0.61872 0.01291 -0.21223
 C235 C 0.68766 0.00774 -0.22966
 C236 C 0.66761 -0.02116 -0.22747
 H237 H 0.65568 0.04113 -0.30397
 H238 H 0.61143 -0.03717 -0.23491
 H239 H 0.63663 0.06230 -0.19844
 H240 H 0.71553 0.00774 -0.22834
 C241 C 0.03388 0.24357 0.85966
 C242 C 0.03752 0.27389 0.88402
 C243 C 0.00964 0.27861 0.90460
 C244 C -0.01937 0.25173 0.89885
 C245 C 0.02633 0.21395 0.88687
 C246 C -0.00152 0.21791 0.90729
 C247 C 0.00178 0.24829 0.83870
 C248 C -0.02767 0.25357 0.85949
 H249 H 0.06061 0.28977 0.88511
 H250 H -0.04163 0.25416 0.91612
 H251 H 0.04179 0.19197 0.89085
 H252 H 0.00144 0.25168 0.80940
 C253 C 0.52626 0.24490 0.12536
 C254 C 0.52222 0.21712 0.09808
 C255 C 0.49353 0.21939 0.07549
 C256 C 0.47130 0.24961 0.08217
 C257 C 0.52447 0.27778 0.10201
 C258 C 0.49615 0.28019 0.07930
 C259 C 0.49223 0.24388 0.14512
 C260 C 0.46320 0.24619 0.12288
 H261 H 0.53976 0.19656 0.09794
 H262 H 0.44861 0.25168 0.06298
 H263 H 0.54198 0.29906 0.10617
 H264 H 0.49158 0.24591 0.17415
 C265 C 0.02073 0.72626 0.63848
 C266 C 0.01545 0.70250 0.60719
 C267 C -0.01073 0.71093 0.58280
 C268 C -0.02957 0.74299 0.59208
 C269 C 0.02565 0.76091 0.61885
 C270 C -0.00058 0.77022 0.59527
 C271 C -0.01460 0.72712 0.65516
 C272 C -0.04127 0.73610 0.63164
 H273 H 0.03094 0.68082 0.60432
 H274 H -0.05025 0.75038 0.57185
 H275 H 0.04738 0.77780 0.62452
 H276 H -0.01781 0.71986 0.68346
 C277 C 0.54758 0.73568 0.38040
 C278 C 0.54671 0.76751 0.40168
 C279 C 0.51583 0.77287 0.41649
 C280 C 0.48819 0.74523 0.40830
 C281 C 0.53564 0.70731 0.40706
 C282 C 0.50484 0.71209 0.42173
 C283 C 0.51746 0.73839 0.35229
 C284 C 0.48654 0.74355 0.36651
 H285 H 0.56916 0.78399 0.40524
 H286 H 0.46286 0.74901 0.42004
 H287 H 0.54721 0.68291 0.40935
 H288 H 0.52023 0.73596 0.32348
 B289 B -0.03326 0.01114 1.03733
 B290 B -0.04824 0.01565 0.99376
 B291 B -0.01439 0.03982 1.00885
 B292 B 0.01021 0.01586 1.03871
 B293 B -0.00894 -0.02309 1.04150
 B294 B -0.04528 -0.02281 1.01374
 B295 B 0.00935 -0.01071 0.97162
 B296 B 0.02466 -0.01542 1.01496
 B297 B -0.00921 -0.03918 1.00010
 B298 B -0.03370 -0.01559 0.97029
 B299 B -0.01456 0.02355 0.96738
 B300 B 0.02182 0.02321 0.99509
 B301 B 0.46304 0.49588 0.52676
 B302 B 0.43796 0.49834 0.48831
 B303 B 0.47458 0.52230 0.49180
 B304 B 0.50465 0.49992 0.51596
 B305 B 0.48659 0.46156 0.52632
 B306 B 0.44498 0.46095 0.50938
 B307 B 0.48749 0.46892 0.45266
 B308 B 0.51236 0.46713 0.49136
 B309 B 0.47613 0.44266 0.48765
 B310 B 0.44564 0.46488 0.46334
 B311 B 0.46354 0.50349 0.45267
 B312 B 0.50526 0.50446 0.46984
 B313 B 0.52517 0.97041 0.54628
 B314 B 0.54556 0.98506 0.50898
 B315 B 0.51252 0.95704 0.50430
 B316 B 0.48258 0.96513 0.53455
 B317 B 0.49739 0.99947 0.55741
 B318 B 0.53694 1.01159 0.54160
 B319 B 0.48914 1.01902 0.48580
 B320 B 0.46831 1.00379 0.52250
 B321 B 0.50154 1.03213 0.52679
 B322 B 0.53156 1.02385 0.49709
 B323 B 0.51646 0.99014 0.47431
 B324 B 0.47731 0.97784 0.48965
 B325 B 0.02674 0.47798 1.03605
 B326 B 0.04307 0.49115 0.99608
 B327 B 0.01084 0.46191 0.99621
 B328 B -0.01629 0.47084 1.02914
 B329 B -0.00049 0.50689 1.04829
 B330 B 0.03671 0.51906 1.02762
 B331 B -0.01608 0.52226 0.97665
 B332 B -0.03267 0.50855 1.01658
 B333 B -0.00024 0.53799 1.01542
 B334 B 0.02697 0.52888 0.98326
 B335 B 0.01087 0.49353 0.96414
 B336 B -0.02625 0.48100 0.98433
 B337 B -0.00551 0.52408 0.43652
 B338 B 0.01740 0.52551 0.47641
 B339 B -0.01718 0.55023 0.46820
 B340 B -0.04784 0.52796 0.44394
 B341 B -0.03135 0.48970 0.43815
 B342 B 0.00897 0.48839 0.45826
 B343 B -0.03638 0.49657 0.51112
 B344 B -0.05868 0.49379 0.47119
 B345 B -0.02391 0.47026 0.47955
 B346 B 0.00601 0.49241 0.50385
 B347 B -0.01029 0.53088 0.50949
 B348 B -0.05082 0.53160 0.48920
 B349 B 0.48821 0.01879 -0.04883
 B350 B 0.51034 0.02209 -0.00865
 B351 B 0.47734 0.04796 -0.02026
 B352 B 0.44590 0.02558 -0.04316
 B353 B 0.46034 -0.01395 -0.04520
 B354 B 0.49998 -0.01597 -0.02375
 B355 B 0.45454 -0.00114 0.02672
 B356 B 0.43263 -0.00581 -0.01331
 B357 B 0.46584 -0.03080 -0.00230
 B358 B 0.49659 -0.00840 0.02094
 B359 B 0.48251 0.03158 0.02271
 B360 B 0.44243 0.03292 0.00137
 B361 B 0.50385 0.49184 -0.03806
 B362 B 0.48429 0.49771 0.00101
 B363 B 0.51574 0.46951 -0.00024
 B364 B 0.54614 0.48521 -0.02865
 B365 B 0.53291 0.52345 -0.04472
 B366 B 0.49422 0.53090 -0.02678
 B367 B 0.54307 0.52554 0.02896
 B368 B 0.56244 0.52050 -0.01000
 B369 B 0.53082 0.54832 -0.00941
 B370 B 0.50085 0.53268 0.01922
 B371 B 0.51423 0.49409 0.03552
 B372 B 0.55253 0.48647 0.01711
 B373 B 0.00262 0.98374 0.47382
 B374 B -0.01840 0.98734 0.51244
 B375 B 0.01666 0.96330 0.51234
 B376 B 0.04561 0.98261 0.48415
 B377 B 0.02747 1.01881 0.46714
 B378 B -0.01242 1.02128 0.48419
 B379 B 0.03539 1.02250 0.54095
 B380 B 0.05646 1.02014 0.50242
 B381 B 0.02093 1.04323 0.50213
 B382 B -0.00736 1.02406 0.53025
 B383 B 0.01086 0.98796 0.54736
 B384 B 0.05063 0.98519 0.52995
 B385 B 0.78007 0.22409 0.20183
 B386 B 0.76299 0.19743 0.23388
 B387 B 0.79518 0.22469 0.24512
 B388 B 0.78972 0.26130 0.22080
 B389 B 0.75353 0.25630 0.19407
 B390 B 0.73719 0.21617 0.20162
 B391 B 0.73449 0.24907 0.26411
 B392 B 0.75182 0.27593 0.23299
 B393 B 0.71969 0.24847 0.22051
 B394 B 0.72514 0.21209 0.24546
 B395 B 0.76148 0.21743 0.27241
 B396 B 0.77782 0.25683 0.26472
 B397 B 0.70899 0.76431 0.70668
 B398 B 0.72090 0.78651 0.74326
 B399 B 0.69479 0.75234 0.74872
 B400 B 0.70672 0.72303 0.72051
 B401 B 0.74143 0.73932 0.69799
 B402 B 0.75012 0.77916 0.71191
 B403 B 0.75992 0.73539 0.77016
 B404 B 0.74716 0.71270 0.73430
 B405 B 0.77374 0.74690 0.72879
 B406 B 0.76174 0.77649 0.75674
 B407 B 0.72738 0.75998 0.77935
 B408 B 0.71864 0.72052 0.76582
 B409 B 0.26555 0.23712 0.80851
 B410 B 0.26363 0.26048 0.76911
 B411 B 0.29374 0.23089 0.77654
 B412 B 0.27558 0.19760 0.79993
 B413 B 0.23410 0.20730 0.80666
 B414 B 0.22717 0.24645 0.78759
 B415 B 0.24217 0.20639 0.73284
 B416 B 0.24276 0.18331 0.77234
 B417 B 0.21307 0.21297 0.76561
 B418 B 0.23143 0.24580 0.74170
 B419 B 0.27327 0.23624 0.73528
 B420 B 0.27996 0.19723 0.75451
 B421 B 0.23692 0.76636 0.27828
 B422 B 0.24764 0.74451 0.24261
 B423 B 0.22405 0.77938 0.23572
 B424 B 0.23852 0.80796 0.26586
 B425 B 0.27162 0.79032 0.29096
 B426 B 0.27683 0.75083 0.27706
 B427 B 0.29003 0.79510 0.22001
 B428 B 0.28023 0.81716 0.25561
 B429 B 0.30312 0.78233 0.26291
 B430 B 0.28874 0.75382 0.23302
 B431 B 0.25568 0.77149 0.20774
 B432 B 0.25050 0.81107 0.22216
 B433 B 0.25286 0.72809 0.72061
 B434 B 0.25279 0.69407 0.74958
 B435 B 0.27900 0.72724 0.75880
 B436 B 0.25833 0.76233 0.74520
 B437 B 0.21877 0.75089 0.72829
 B438 B 0.21549 0.70787 0.73067
 B439 B 0.22286 0.72891 0.79968
 B440 B 0.22380 0.76317 0.77119
 B441 B 0.19686 0.73029 0.76112
 B442 B 0.21752 0.69464 0.77511
 B443 B 0.25742 0.70634 0.79236
 B444 B 0.26083 0.74909 0.78982
 B445 B 0.22495 0.28777 0.21953
 B446 B 0.24350 0.30565 0.25639
 B447 B 0.21300 0.27427 0.26161
 B448 B 0.21843 0.24614 0.22952
 B449 B 0.25288 0.26021 0.20522
 B450 B 0.26795 0.29706 0.22160
 B451 B 0.27614 0.24816 0.27539
 B452 B 0.25785 0.23034 0.23820
 B453 B 0.28805 0.26138 0.23375
 B454 B 0.28283 0.28955 0.26529
 B455 B 0.24861 0.27578 0.28961
 B456 B 0.23345 0.23847 0.27327
 B457 B 0.78690 0.73951 0.30366
 B458 B 0.78285 0.75950 0.26220
 B459 B 0.80646 0.72442 0.26816
 B460 B 0.78670 0.69736 0.29809
 B461 B 0.75075 0.71614 0.31024
 B462 B 0.74860 0.75465 0.28858
 B463 B 0.74422 0.70788 0.23703
 B464 B 0.74739 0.68777 0.27818
 B465 B 0.72461 0.72292 0.27302
 B466 B 0.74419 0.74959 0.24294
 B467 B 0.78047 0.73084 0.23056
 B468 B 0.78208 0.69214 0.25268
 B469 B 0.73320 0.25273 0.77652
 B470 B 0.74024 0.23253 0.73867
 B471 B 0.71179 0.26370 0.73738
 B472 B 0.72718 0.29377 0.76501
 B473 B 0.76586 0.28082 0.78301
 B474 B 0.77365 0.24255 0.76710
 B475 B 0.77096 0.28840 0.70916
 B476 B 0.76460 0.30862 0.74718
 B477 B 0.79269 0.27733 0.74863
 B478 B 0.77713 0.24727 0.72115
 B479 B 0.73861 0.26049 0.70297
 B480 B 0.73061 0.29870 0.71921
 C481 C 0.46443 1.04966 0.32244
 C482 C 0.42855 1.05421 0.32335
 C483 C 0.41482 1.06229 0.35644
 C484 C 0.43540 1.06089 0.38865
 C485 C 0.47025 1.05235 0.38751
 C486 C 0.48502 1.04897 0.35421
 C487 C 0.48888 1.04384 0.41962
 C488 C 0.47258 1.04184 0.45296
 C489 C 0.44014 1.05631 0.45436
 C490 C 0.42129 1.06519 0.42233
 H491 H 0.38744 1.06641 0.35764
 H492 H 0.51201 1.04317 0.35295
 H493 H 0.51502 1.03550 0.41793
 H494 H 0.39514 1.07351 0.42390
 H495 H 0.47710 1.04431 0.29818
 H496 H 0.42855 1.05963 0.47978
 C497 C -0.03806 0.54581 0.81218
 C498 C -0.07421 0.54057 0.81137
 C499 C -0.09166 0.54411 0.84348
 C500 C -0.07321 0.54822 0.87643
 C501 C -0.03688 0.54961 0.87729
 C502 C -0.01961 0.55007 0.84490
 C503 C -0.01836 0.54752 0.91058
 C504 C -0.03576 0.54159 0.94307
 C505 C -0.07158 0.54585 0.94195
 C506 C -0.09030 0.54887 0.90889
 H507 H -0.11956 0.54163 0.84307
 H508 H 0.00829 0.55217 0.84502
 H509 H 0.00949 0.54636 0.91059
 H510 H -0.11817 0.54966 0.90879
 H511 H -0.02328 0.54615 0.78818
 H512 H -0.08555 0.54596 0.96622
 C513 C 0.10485 0.02574 0.84363
 C514 C 0.10339 -0.00553 0.82765
 C515 C 0.08053 -0.03093 0.84086
 C516 C 0.06272 -0.02654 0.87213
 C517 C 0.06667 0.00408 0.88942
 C518 C 0.08696 0.03038 0.87457
 C519 C 0.05006 0.00823 0.92121
 C520 C 0.02936 -0.01780 0.93663
 C521 C 0.02416 -0.04767 0.91836
 C522 C 0.04113 -0.05221 0.88651
 H523 H 0.07652 -0.05419 0.82723
 H524 H 0.08935 0.05437 0.88712
 H525 H 0.05340 0.03216 0.93371
 H526 H 0.03725 -0.07564 0.87308
 H527 H 0.12048 0.04643 0.83262
 H528 H 0.00663 -0.06729 0.92815
 C529 C 0.56600 0.50483 0.31360
 C530 C 0.58080 0.47355 0.30932
 C531 C 0.56872 0.44521 0.32998
 C532 C 0.54368 0.44887 0.35589
 C533 C 0.53066 0.48089 0.36067
 C534 C 0.54112 0.50841 0.33869
 C535 C 0.50924 0.48570 0.38906
 C536 C 0.50136 0.45933 0.41436
 C537 C 0.51087 0.42676 0.40692
 C538 C 0.53228 0.42158 0.37820
 H539 H 0.57962 0.42090 0.32745
 H540 H 0.53123 0.53312 0.34203
 H541 H 0.50123 0.51097 0.39300
 H542 H 0.54085 0.39650 0.37428
 H543 H 0.57485 0.52709 0.29828
 H544 H 0.50270 0.40540 0.42357
 C545 C 0.64435 0.49576 0.15998
 C546 C 0.62421 0.50801 0.18679
 C547 C 0.59698 0.52953 0.17599
 C548 C 0.58766 0.53548 0.13901
 C549 C 0.60682 0.52108 0.11258
 C550 C 0.63595 0.50253 0.12322
 C551 C 0.59487 0.52272 0.07623
 C552 C 0.56286 0.53698 0.06573
 C553 C 0.54551 0.55377 0.09178
 C554 C 0.55802 0.55333 0.12807
 H555 H 0.58176 0.54004 0.19630
 H556 H 0.65098 0.49143 0.10313
 H557 H 0.60896 0.50961 0.05690
 H558 H 0.54316 0.56487 0.14798
 H559 H 0.66533 0.47916 0.16714
 H560 H 0.52099 0.56512 0.08478
 C561 C 0.14532 1.01055 0.66684
 C562 C 0.12306 1.01283 0.69590
 C563 C 0.08996 1.02623 0.68738
 C564 C 0.07848 1.03326 0.65116
 C565 C 0.10030 1.02741 0.62296
 C566 C 0.13401 1.01752 0.63104
 C567 C 0.08744 1.02879 0.58706
 C568 C 0.05258 1.03576 0.57820
 C569 C 0.03190 1.04503 0.60622
 C570 C 0.04475 1.04375 0.64242
 H571 H 0.07176 1.02942 0.70806
 H572 H 0.15141 1.01393 0.60948
 H573 H 0.10399 1.02050 0.56671
 H574 H 0.02761 1.04888 0.66372
 H575 H 0.17167 1.00313 0.67057
 H576 H 0.00497 1.05039 0.60068
 C577 C -0.04705 0.49062 0.68082
 C578 C -0.08020 0.50430 0.68077
 C579 C -0.09939 0.50753 0.64796
 C580 C -0.08550 0.49891 0.61564
 C581 C -0.05147 0.48734 0.61528
 C582 C -0.03271 0.48254 0.64833
 C583 C -0.03642 0.48268 0.58184
 C584 C -0.05509 0.49010 0.54900
 C585 C -0.08979 0.49982 0.55074
 C586 C -0.10480 0.50366 0.58338
 H587 H -0.12461 0.51838 0.64695
 H588 H -0.00680 0.47316 0.64901
 H589 H -0.00968 0.47577 0.58143
 H590 H -0.13096 0.51240 0.58320
 H591 H -0.03189 0.48623 0.70580
 H592 H -0.10527 0.50718 0.52680
 C593 C 0.44057 -0.00428 0.19686
 C594 C 0.40899 0.01241 0.19649
 C595 C 0.39033 0.01729 0.16348
 C596 C 0.40420 0.00819 0.13102
 C597 C 0.43700 -0.00642 0.13124
 C598 C 0.45449 -0.01343 0.16460
 C599 C 0.45230 -0.01224 0.09816
 C600 C 0.43523 -0.00319 0.06485
 C601 C 0.40174 0.00998 0.06574
 C602 C 0.38644 0.01520 0.09813
 H603 H 0.36599 0.02993 0.16270
 H604 H 0.47934 -0.02512 0.16572
 H605 H 0.47805 -0.02197 0.09842
 H606 H 0.36125 0.02623 0.09732
 H607 H 0.45500 -0.00974 0.22214
 H608 H 0.38736 0.01788 0.04119
 C609 C 0.33068 0.45343 -0.03721
 C610 C 0.32350 0.43758 -0.00320
 C611 C 0.34697 0.44278 0.02636
 C612 C 0.37821 0.46067 0.02121
 C613 C 0.38619 0.47401 -0.01369
 C614 C 0.36171 0.47128 -0.04247
 C615 C 0.41904 0.48847 -0.01952
 C616 C 0.44474 0.48791 0.00862
 C617 C 0.43481 0.47865 0.04411
 C618 C 0.40216 0.46456 0.05026
 H619 H 0.34213 0.43207 0.05313
 H620 H 0.36712 0.48172 -0.06938
 H621 H 0.42487 0.49880 -0.04631
 H622 H 0.39610 0.45569 0.07755
 H623 H 0.31284 0.45048 -0.06033
 H624 H 0.45276 0.48077 0.06724
 C625 C -0.17489 0.95388 0.47460
 C626 C -0.18055 0.93019 0.50353
 C627 C -0.15411 0.92532 0.53048
 C628 C -0.12248 0.94288 0.52803
 C629 C -0.11678 0.96564 0.49823
 C630 C -0.14344 0.97161 0.47212
 C631 C -0.08403 0.98079 0.49412
 C632 C -0.05653 0.97274 0.51894
 C633 C -0.06347 0.95203 0.54991
 C634 C -0.09592 0.93692 0.55419
 H635 H -0.15692 0.90630 0.55216
 H636 H -0.13949 0.98886 0.44894
 H637 H -0.07969 0.99756 0.47063
 H638 H -0.10007 0.92013 0.57771
 H639 H -0.19418 0.95738 0.45274
 H640 H -0.04391 0.94721 0.57101
 C641 C -0.20598 0.03744 1.00539
 C642 C -0.20963 0.06269 0.97736
 C643 C -0.18237 0.06882 0.95375
 C644 C -0.15099 0.05280 0.96052
 C645 C -0.14680 0.03025 0.99101
 C646 C -0.17492 0.02139 1.01211
 C647 C -0.11417 0.01834 1.00120
 C648 C -0.08546 0.02834 0.98110
 C649 C -0.09065 0.04785 0.94848
 C650 C -0.12296 0.06062 0.93874
 H651 H -0.18395 0.08820 0.93227
 H652 H -0.17224 0.00376 1.03533
 H653 H -0.11124 0.00180 1.02521
 H654 H -0.12578 0.07734 0.91479
 H655 H -0.22600 0.03250 1.02460
 H656 H -0.06938 0.05485 0.93140
 C657 C 0.33393 0.61383 0.49401
 C658 C 0.30272 0.59619 0.48611
 C659 C 0.30398 0.56201 0.47791
 C660 C 0.33567 0.54551 0.48067
 C661 C 0.36554 0.56300 0.49327
 C662 C 0.36465 0.59720 0.49908
 C663 C 0.39642 0.54648 0.49901
 C664 C 0.40028 0.51400 0.48742
 C665 C 0.37063 0.49661 0.47393
 C666 C 0.33840 0.51195 0.47144
 H667 H 0.28082 0.54828 0.46939
 H668 H 0.38785 0.61123 0.50718
 H669 H 0.41754 0.55993 0.51174
 H670 H 0.31592 0.49791 0.46147
 H671 H 0.33427 0.64050 0.49827
 H672 H 0.37224 0.47120 0.46534
 C673 C 0.15033 0.61108 0.52367
 C674 C 0.17203 0.60007 0.49755
 C675 C 0.15976 0.57554 0.47398
 C676 C 0.12598 0.56249 0.47597
 C677 C 0.10423 0.57332 0.50252
 C678 C 0.11676 0.59759 0.52640
 C679 C 0.07018 0.56030 0.50406
 C680 C 0.05699 0.53826 0.47783
 C681 C 0.07952 0.52724 0.45223
 C682 C 0.11352 0.53910 0.45139
 H683 H 0.17628 0.56726 0.45346
 H684 H 0.10052 0.60641 0.54684
 H685 H 0.05356 0.56861 0.52444
 H686 H 0.12991 0.53035 0.43103
 H687 H 0.15951 0.62972 0.54235
 H688 H 0.07107 0.50940 0.43239
 C689 C 0.64766 0.10920 0.02153
 C690 C 0.66960 0.09028 0.00155
 C691 C 0.65551 0.06153 -0.01486
 C692 C 0.62104 0.05160 -0.01133
 C693 C 0.59952 0.06979 0.00979
 C694 C 0.61314 0.09869 0.02615
 C695 C 0.56469 0.05920 0.01303
 C696 C 0.55072 0.03257 -0.00738
 C697 C 0.57327 0.01460 -0.02760
 C698 C 0.60785 0.02382 -0.02934
 H699 H 0.67072 0.04746 -0.03234
 H700 H 0.59703 0.11334 0.04216
 H701 H 0.54819 0.07271 0.02977
 H702 H 0.62417 0.00951 -0.04551
 H703 H 0.65734 0.13130 0.03493
 H704 H 0.56450 -0.00680 -0.04263
 C705 C 0.66742 0.88609 0.50086
 C706 C 0.69161 0.90796 0.48380
 C707 C 0.68142 0.94075 0.47262
 C708 C 0.64872 0.95194 0.48064
 C709 C 0.62565 0.92980 0.49892
 C710 C 0.63487 0.89684 0.50815
 C711 C 0.59374 0.94091 0.50834
 C712 C 0.58361 0.97407 0.49973
 C713 C 0.60664 0.99600 0.48113
 C714 C 0.63891 0.98505 0.47171
 H715 H 0.69915 0.95791 0.45873
 H716 H 0.61724 0.87955 0.52207
 H717 H 0.57688 0.92350 0.52306
 H718 H 0.65623 1.00251 0.45763
 H719 H 0.67372 0.86096 0.51045
 H720 H 0.59975 1.02157 0.47366
 C721 C 0.17018 0.39938 1.00882
 C722 C 0.19396 0.41974 0.98942
 C723 C 0.18312 0.45058 0.97289
 C724 C 0.14896 0.46063 0.97600
 C725 C 0.12565 0.43905 0.99469
 C726 C 0.13632 0.40856 1.01074
 C727 C 0.09213 0.44862 0.99875
 C728 C 0.08093 0.48050 0.98633
 C729 C 0.10396 0.50202 0.96726
 C730 C 0.13767 0.49200 0.96179
 H731 H 0.20112 0.46677 0.95814
 H732 H 0.11871 0.39222 1.02591
 H733 H 0.07530 0.43154 1.01391
 H734 H 0.15510 0.50906 0.94733
 H735 H 0.17755 0.37660 1.02380
 H736 H 0.09615 0.52666 0.95704
 C737 C -0.04079 0.34097 0.39404
 C738 C -0.01855 0.31938 0.41477
 C739 C -0.00386 0.33070 0.44805
 C740 C -0.01184 0.36274 0.45999
 C741 C -0.03567 0.38255 0.43924
 C742 C -0.05019 0.37131 0.40666
 C743 C -0.04287 0.41467 0.44949
 C744 C -0.02441 0.42967 0.47853
 C745 C -0.00128 0.40963 0.49992
 C746 C 0.00441 0.37625 0.49117
 H747 H 0.01460 0.31551 0.46374
 H748 H -0.06775 0.38676 0.38995
 H749 H -0.06097 0.42905 0.43235
 H750 H 0.02293 0.36172 0.50761
 H751 H -0.05115 0.33433 0.36752
 H752 H 0.01363 0.42021 0.52230
 C753 C 0.44043 -0.15553 -0.09191
 C754 C 0.46839 -0.17499 -0.07851
 C755 C 0.48734 -0.16413 -0.04714
 C756 C 0.47818 -0.13501 -0.02979
 C757 C 0.44951 -0.11698 -0.04353
 C758 C 0.43069 -0.12762 -0.07422
 C759 C 0.44170 -0.08669 -0.02883
 C760 C 0.46376 -0.07161 -0.00234
 C761 C 0.49097 -0.09095 0.01316
 C762 C 0.49783 -0.12250 -0.00012
 H763 H 0.50954 -0.17797 -0.03677
 H764 H 0.40912 -0.11339 -0.08563
 H765 H 0.42097 -0.07283 -0.04228
 H766 H 0.51994 -0.13597 0.01116
 H767 H 0.42603 -0.16069 -0.11671
 H768 H 0.50880 -0.08047 0.03328
 C769 C -0.05371 -0.17720 1.06820
 C770 C -0.02048 -0.19052 1.07198
 C771 C 0.00555 -0.17585 1.05019
 C772 C -0.00015 -0.14584 1.02945
 C773 C -0.03258 -0.13101 1.02940
 C774 C -0.05960 -0.14767 1.04734
 C775 C -0.03686 -0.09861 1.01389
 C776 C -0.00849 -0.07962 1.00045
 C777 C 0.02218 -0.09651 0.99583
 C778 C 0.02646 -0.12927 1.01050
 H779 H 0.03084 -0.18669 1.05115
 H780 H -0.08501 -0.13710 1.04656
 H781 H -0.06160 -0.08725 1.01598
 H782 H 0.05130 -0.14066 1.00917
 H783 H -0.07540 -0.18891 1.08161
 H784 H 0.04398 -0.08362 0.98367
 C785 C 0.43028 0.31449 0.57457
 C786 C 0.46292 0.29991 0.57824
 C787 C 0.48807 0.31077 0.55342
 C788 C 0.48278 0.33888 0.52968
 C789 C 0.45091 0.35485 0.52837
 C790 C 0.42431 0.34155 0.54973
 C791 C 0.44702 0.38527 0.50806
 C792 C 0.47574 0.40209 0.49230
 C793 C 0.50632 0.38414 0.49112
 C794 C 0.50961 0.35265 0.50906
 H795 H 0.51268 0.29863 0.55414
 H796 H 0.39938 0.35310 0.54854
 H797 H 0.42255 0.39750 0.50835
 H798 H 0.53412 0.34040 0.50918
 H799 H 0.40927 0.30545 0.59096
 H800 H 0.52873 0.39495 0.47829
 C801 C 0.48451 1.15022 0.63236
 C802 C 0.48457 1.17717 0.60621
 C803 C 0.48906 1.17006 0.56961
 C804 C 0.49254 1.13697 0.55935
 C805 C 0.49255 1.11035 0.58593
 C806 C 0.48863 1.11725 0.62238
 C807 C 0.49634 1.07728 0.57561
 C808 C 0.49826 1.07009 0.53867
 C809 C 0.49916 1.09715 0.51269
 C810 C 0.49625 1.13014 0.52287
 H811 H 0.49041 1.19013 0.54886
 H812 H 0.48843 1.09710 0.64319
 H813 H 0.49690 1.05712 0.59640
 H814 H 0.49683 1.15034 0.50213
 H815 H 0.48099 1.15426 0.66064
 H816 H 0.50264 1.09313 0.48438
 C817 C 0.02860 0.66473 1.10923
 C818 C 0.00515 0.68642 1.09082
 C819 C -0.01450 0.67491 1.06066
 C820 C -0.01069 0.64233 1.04905
 C821 C 0.01270 0.62072 1.06799
 C822 C 0.03226 0.63216 1.09802
 C823 C 0.01605 0.58796 1.05677
 C824 C -0.00345 0.57625 1.02647
 C825 C -0.02629 0.59840 1.00768
 C826 C -0.03002 0.63093 1.01893
 H827 H -0.03316 0.69102 1.04650
 H828 H 0.05049 0.61596 1.11276
 H829 H 0.03366 0.57155 1.07213
 H830 H -0.04822 0.64714 1.00413
 H831 H 0.04455 0.67302 1.13206
 H832 H -0.04212 0.59073 0.98481
 C833 C 0.48141 0.69643 -0.03595
 C834 C 0.49895 0.70419 -0.06823
 C835 C 0.52295 0.68120 -0.07876
 C836 C 0.52887 0.65124 -0.05797
 C837 C 0.50985 0.64311 -0.02680
 C838 C 0.48646 0.66616 -0.01583
 C839 C 0.51340 0.61151 -0.00820
 C840 C 0.53567 0.58777 -0.02062
 C841 C 0.55631 0.59764 -0.05018
 C842 C 0.55300 0.62885 -0.06847
 H843 H 0.53796 0.68689 -0.10246
 H844 H 0.47158 0.66055 0.00799
 H845 H 0.49710 0.60467 0.01424
 H846 H 0.56822 0.63477 -0.09199
 H847 H 0.46226 0.71289 -0.02694
 H848 H 0.57340 0.58035 -0.06133
 C849 C 0.04273 1.17540 0.40379
 C850 C 0.02151 1.19644 0.42170
 C851 C 0.00747 1.18455 0.45479
 C852 C 0.01321 1.15146 0.46864
 C853 C 0.03356 1.13034 0.44944
 C854 C 0.04883 1.14277 0.41756
 C855 C 0.03734 1.09672 0.46153
 C856 C 0.02088 1.08321 0.49264
 C857 C 0.00177 1.10484 0.51238
 C858 C -0.00200 1.13861 0.50054
 H859 H -0.00927 1.20034 0.46876
 H860 H 0.06477 1.12694 0.40268
 H861 H 0.05244 1.08084 0.44580
 H862 H -0.01759 1.15443 0.51580
 H863 H 0.05430 1.18404 0.37870
 H864 H -0.01117 1.09548 0.53640
 C865 C 0.78490 0.72160 0.93556
 C866 C 0.79337 0.68738 0.93793
 C867 C 0.80361 0.67267 0.90624
 C868 C 0.80174 0.69063 0.87248
 C869 C 0.79061 0.72396 0.87059
 C870 C 0.78408 0.73973 0.90237
 C871 C 0.78269 0.73997 0.83688
 C872 C 0.78325 0.72236 0.80480
 C873 C 0.79950 0.69128 0.80654
 C874 C 0.80833 0.67528 0.84021
 H875 H 0.81011 0.64641 0.90741
 H876 H 0.77572 0.76543 0.90126
 H877 H 0.77259 0.76501 0.83628
 H878 H 0.81838 0.65023 0.84098
 H879 H 0.77649 0.73448 0.95835
 H880 H 0.80420 0.67854 0.78229
 C881 C 0.29648 0.21458 0.43825
 C882 C 0.29423 0.17945 0.43527
 C883 C 0.30225 0.16628 0.40199
 C884 C 0.30661 0.18773 0.37108
 C885 C 0.30363 0.22263 0.37370
 C886 C 0.30062 0.23592 0.40766
 C887 C 0.30070 0.24337 0.34214
 C888 C 0.29840 0.22935 0.30779
 C889 C 0.30874 0.19610 0.30572
 C890 C 0.31196 0.17505 0.33711
 H891 H 0.30284 0.13934 0.39966
 H892 H 0.29984 0.26280 0.41033
 H893 H 0.29606 0.26976 0.34471
 H894 H 0.31675 0.14869 0.33460
 H895 H 0.29438 0.22617 0.46378
 H896 H 0.31310 0.18600 0.27990
 C897 C 0.73953 0.28574 0.42390
 C898 C 0.72224 0.31624 0.41888
 C899 C 0.70384 0.32310 0.38549
 C900 C 0.70363 0.30064 0.35749
 C901 C 0.72219 0.27093 0.36271
 C902 C 0.73905 0.26315 0.39629
 C903 C 0.72665 0.25110 0.33331
 C904 C 0.71505 0.26180 0.29794
 C905 C 0.69274 0.28891 0.29389
 C906 C 0.68719 0.30837 0.32352
 H907 H 0.69130 0.34687 0.38049
 H908 H 0.75365 0.24048 0.40048
 H909 H 0.74266 0.22943 0.33774
 H910 H 0.67219 0.33077 0.31919
 H911 H 0.75504 0.27974 0.44824
 H912 H 0.68238 0.29712 0.26732
 C913 C 0.25799 0.79100 0.94231
 C914 C 0.22526 0.80404 0.94705
 C915 C 0.19609 0.78900 0.92926
 C916 C 0.20053 0.76415 0.90405
 C917 C 0.23413 0.75427 0.89741
 C918 C 0.26235 0.76629 0.91807
 C919 C 0.23975 0.73577 0.86738
 C920 C 0.21281 0.72997 0.84147
 C921 C 0.17885 0.73261 0.85236
 C922 C 0.17264 0.75058 0.88324
 H923 H 0.17048 0.79762 0.93312
 H924 H 0.28822 0.75842 0.91358
 H925 H 0.26612 0.73055 0.86166
 H926 H 0.14640 0.75637 0.88878
 H927 H 0.28076 0.80138 0.95622
 H928 H 0.15730 0.72560 0.83437
 C929 C 0.25968 0.88049 0.08718
 C930 C 0.26219 0.85473 0.06264
 C931 C 0.28278 0.82696 0.07397
 C932 C 0.29704 0.82345 0.10962
 C933 C 0.29215 0.84857 0.13409
 C934 C 0.27479 0.87758 0.12220
 C935 C 0.30087 0.84265 0.17104
 C936 C 0.30955 0.81006 0.18469
 C937 C 0.31999 0.78737 0.15956
 C938 C 0.31380 0.79409 0.12216
 H939 H 0.28733 0.80742 0.05566
 H940 H 0.27083 0.89714 0.14080
 H941 H 0.29357 0.86126 0.18931
 H942 H 0.31874 0.77481 0.10357
 H943 H 0.24444 0.90230 0.08078
 H944 H 0.32801 0.76250 0.16873
 C945 C 0.74395 0.38000 0.57001
 C946 C 0.75322 0.35700 0.54451
 C947 C 0.77187 0.32860 0.55782
 C948 C 0.77908 0.32243 0.59537
 C949 C 0.76752 0.34470 0.62032
 C950 C 0.75086 0.37383 0.60730
 C951 C 0.77045 0.33630 0.65785
 C952 C 0.78371 0.30515 0.67104
 C953 C 0.79842 0.28494 0.64594
 C954 C 0.79616 0.29350 0.60857
 H955 H 0.78080 0.31103 0.53914
 H956 H 0.74186 0.39128 0.62610
 H957 H 0.75891 0.35249 0.67632
 H958 H 0.80582 0.27633 0.58986
 H959 H 0.72921 0.40184 0.56192
 H960 H 0.80894 0.26092 0.65471
 C961 C 0.22486 0.19123 0.56142
 C962 C 0.24459 0.16216 0.56049
 C963 C 0.25494 0.14583 0.59331
 C964 C 0.24786 0.15914 0.62643
 C965 C 0.22937 0.18904 0.62764
 C966 C 0.21722 0.20446 0.59467
 C967 C 0.22493 0.20347 0.66154
 C968 C 0.23954 0.18842 0.69390
 C969 C 0.25781 0.15838 0.69092
 C970 C 0.26109 0.14373 0.65826
 H971 H 0.27067 0.12389 0.59327
 H972 H 0.20276 0.22724 0.59452
 H973 H 0.21175 0.22691 0.66246
 H974 H 0.27554 0.12095 0.65782
 H975 H 0.21582 0.20412 0.53644
 H976 H 0.27079 0.14575 0.71397
 C977 C 0.74241 0.70671 0.06999
 C978 C 0.75386 0.67353 0.06843
 C979 C 0.75128 0.65210 0.09963
 C980 C 0.73995 0.66396 0.13204
 C981 C 0.73125 0.69787 0.13403
 C982 C 0.73155 0.71878 0.10244
 C983 C 0.72528 0.71082 0.16800
 C984 C 0.73019 0.69064 0.20026
 C985 C 0.73535 0.65599 0.19677
 C986 C 0.73961 0.64283 0.16320
 H987 H 0.75964 0.62655 0.09977
 H988 H 0.72436 0.74476 0.10302
 H989 H 0.72142 0.73748 0.16953
 H990 H 0.74589 0.61663 0.16216
 H991 H 0.74192 0.72380 0.04632
 H992 H 0.74092 0.63919 0.21983
 C993 C 0.22130 0.58982 0.27572
 C994 C 0.19550 0.58428 0.24840
 C995 C 0.18617 0.61145 0.22438
 C996 C 0.20288 0.64296 0.22679
 C997 C 0.22888 0.64791 0.25409
 C998 C 0.23804 0.62115 0.27827
 C999 C 0.24427 0.67986 0.25776
 C1000 C 0.23336 0.70738 0.23509
 C1001 C 0.20868 0.70165 0.20682
 C1002 C 0.19341 0.66984 0.20289
 H1003 H 0.16508 0.60854 0.20448
 H1004 H 0.25753 0.62469 0.29981
 H1005 H 0.26358 0.68342 0.27944
 H1006 H 0.17380 0.66638 0.18146
 H1007 H 0.22792 0.57031 0.29601
 H1008 H 0.20060 0.72180 0.18799
 C1009 C 0.71301 0.07981 0.78477
 C1010 C 0.68911 0.07224 0.75625
 C1011 C 0.68241 0.09734 0.72875
 C1012 C 0.69943 0.12875 0.72927
 C1013 C 0.72301 0.13612 0.75816
 C1014 C 0.72989 0.11133 0.78564
 C1015 C 0.73794 0.16861 0.75988
 C1016 C 0.72852 0.19411 0.73369
 C1017 C 0.70704 0.18542 0.70372
 C1018 C 0.69236 0.15326 0.70172
 H1019 H 0.66277 0.09348 0.70758
 H1020 H 0.74763 0.11660 0.80830
 H1021 H 0.75516 0.17445 0.78277
 H1022 H 0.67490 0.14777 0.67889
 H1023 H 0.71791 0.06158 0.80699
 H1024 H 0.70085 0.20354 0.68193
 C1025 C 0.81986 0.06468 0.30705
 C1026 C 0.81741 0.04546 0.27604
 C1027 C 0.79676 0.05705 0.24573
 C1028 C 0.78414 0.08956 0.24395
 C1029 C 0.79024 0.10983 0.27384
 C1030 C 0.80637 0.09664 0.30589
 C1031 C 0.78174 0.14349 0.27074
 C1032 C 0.76809 0.15792 0.23777
 C1033 C 0.75921 0.13686 0.20919
 C1034 C 0.76749 0.10293 0.21212
 H1035 H 0.79337 0.04189 0.22217
 H1036 H 0.81020 0.11171 0.32946
 H1037 H 0.78713 0.15851 0.29398
 H1038 H 0.76211 0.08754 0.18905
 H1039 H 0.83313 0.05601 0.33189
 H1040 H 0.74732 0.14690 0.18399
 C1041 C 0.27475 0.53883 0.76511
 C1042 C 0.30904 0.54037 0.75410
 C1043 C 0.32384 0.57150 0.74326
 C1044 C 0.30448 0.60003 0.74036
 C1045 C 0.27028 0.59883 0.75171
 C1046 C 0.25556 0.56804 0.76418
 C1047 C 0.25227 0.62870 0.75181
 C1048 C 0.26837 0.65940 0.74058
 C1049 C 0.30126 0.65910 0.72632
 C1050 C 0.31932 0.62989 0.72663
 H1051 H 0.35074 0.57351 0.73645
 H1052 H 0.22941 0.56659 0.77332
 H1053 H 0.22664 0.62810 0.76229
 H1054 H 0.34537 0.63090 0.71714
 H1055 H 0.26291 0.51551 0.77510
 H1056 H 0.31460 0.68162 0.71724
 C1057 C 0.33788 0.39636 0.72259
 C1058 C 0.32569 0.41534 0.75001
 C1059 C 0.30151 0.40123 0.77366
 C1060 C 0.29023 0.36796 0.77068
 C1061 C 0.30290 0.34864 0.74334
 C1062 C 0.32654 0.36315 0.71921
 C1063 C 0.29250 0.31492 0.74131
 C1064 C 0.27138 0.29975 0.76774
 C1065 C 0.25728 0.31989 0.79327
 C1066 C 0.26676 0.35361 0.79487
 H1067 H 0.29200 0.41605 0.79474
 H1068 H 0.33640 0.34880 0.69797
 H1069 H 0.30268 0.30011 0.72063
 H1070 H 0.25624 0.36827 0.81547
 H1071 H 0.35544 0.40742 0.70326
 H1072 H 0.23907 0.30975 0.81246
 C1073 C 0.79213 0.91511 0.27756
 C1074 C 0.82438 0.92222 0.26216
 C1075 C 0.84118 0.89545 0.24713
 C1076 C 0.82612 0.86288 0.24759
 C1077 C 0.79427 0.85669 0.26380
 C1078 C 0.77742 0.88290 0.27842
 C1079 C 0.77998 0.82419 0.26622
 C1080 C 0.79729 0.79695 0.25336
 C1081 C 0.82781 0.80364 0.23481
 C1082 C 0.84233 0.83626 0.23232
 H1083 H 0.86552 0.89950 0.23438
 H1084 H 0.75302 0.87839 0.29124
 H1085 H 0.75585 0.82025 0.27960
 H1086 H 0.86646 0.84055 0.21896
 H1087 H 0.77846 0.93384 0.29082
 H1088 H 0.84092 0.78367 0.22293
 C1089 C 0.71610 0.93834 0.78791
 C1090 C 0.68233 0.94453 0.77398
 C1091 C 0.66305 0.91777 0.75904
 C1092 C 0.67685 0.88598 0.75762
 C1093 C 0.71113 0.88029 0.77009
 C1094 C 0.73044 0.90664 0.78569
 C1095 C 0.72543 0.84862 0.76604
 C1096 C 0.70548 0.82267 0.74996
 C1097 C 0.67069 0.82882 0.73967
 C1098 C 0.65678 0.86001 0.74299
 H1099 H 0.63756 0.92145 0.74690
 H1100 H 0.75669 0.90286 0.79590
 H1101 H 0.75198 0.84446 0.77491
 H1102 H 0.63033 0.86394 0.73346
 H1103 H 0.73170 0.95802 0.80017
 H1104 H 0.65441 0.81011 0.72667
 C1105 C 0.16364 0.43377 0.29189
 C1106 C 0.18498 0.45756 0.27384
 C1107 C 0.21680 0.44767 0.26176
 C1108 C 0.22591 0.41385 0.26536
 C1109 C 0.20329 0.38987 0.28175
 C1110 C 0.17273 0.40023 0.29594
 C1111 C 0.21038 0.35569 0.28173
 C1112 C 0.23929 0.34456 0.26467
 C1113 C 0.26298 0.36905 0.25086
 C1114 C 0.25631 0.40325 0.25112
 H1115 H 0.23336 0.46576 0.24751
 H1116 H 0.15521 0.38219 0.30894
 H1117 H 0.19165 0.33826 0.29254
 H1118 H 0.27426 0.42128 0.23881
 H1119 H 0.13948 0.44097 0.30218
 H1120 H 0.28603 0.36189 0.23815
 C1121 C 0.07505 0.26870 0.81272
 C1122 C 0.06430 0.24052 0.83453
 C1123 C 0.08097 0.21004 0.83061
 C1124 C 0.10907 0.20848 0.80794
 C1125 C 0.12013 0.23712 0.78718
 C1126 C 0.10236 0.26700 0.78925
 C1127 C 0.15016 0.23602 0.76689
 C1128 C 0.17152 0.20769 0.77016
 C1129 C 0.15874 0.17908 0.79017
 C1130 C 0.12757 0.17910 0.80750
 H1131 H 0.07286 0.18733 0.84532
 H1132 H 0.11026 0.28940 0.77358
 H1133 H 0.15918 0.25877 0.75256
 H1134 H 0.11971 0.15692 0.82358
 H1135 H 0.06225 0.29230 0.81401
 H1136 H 0.17417 0.15753 0.79654
 C1137 C 0.60652 0.70945 0.38205
 C1138 C 0.58223 0.73048 0.36386
 C1139 C 0.59065 0.74626 0.32998
 C1140 C 0.62137 0.73890 0.31353
 C1141 C 0.64383 0.71583 0.33134
 C1142 C 0.63650 0.70161 0.36564
 C1143 C 0.67436 0.70833 0.31566
 C1144 C 0.68486 0.72509 0.28317
 C1145 C 0.66217 0.74779 0.26512
 C1146 C 0.63042 0.75428 0.27993
 H1147 H 0.57333 0.76405 0.31636
 H1148 H 0.65428 0.68473 0.38010
 H1149 H 0.69091 0.69048 0.33034
 H1150 H 0.61353 0.77216 0.26577
 H1151 H 0.60254 0.69874 0.40909
 H1152 H 0.66945 0.76139 0.24036
 C1153 C 0.55948 0.22900 0.18589
 C1154 C 0.55912 0.24275 0.14981
 C1155 C 0.59032 0.25547 0.13621
 C1156 C 0.62037 0.25696 0.15846
 C1157 C 0.62046 0.24413 0.19485
 C1158 C 0.58977 0.22985 0.20818
 C1159 C 0.65152 0.24453 0.21644
 C1160 C 0.68252 0.25707 0.20158
 C1161 C 0.68105 0.27023 0.16516
 C1162 C 0.65054 0.27062 0.14427
 H1163 H 0.59118 0.26474 0.10811
 H1164 H 0.58920 0.21917 0.23575
 H1165 H 0.65193 0.23332 0.24383
 H1166 H 0.65092 0.28043 0.11634
 H1167 H 0.53657 0.21730 0.19708
 H1168 H 0.70384 0.27872 0.15125
 C1169 C 0.06203 0.68587 0.67516
 C1170 C 0.04919 0.71833 0.66765
 C1171 C 0.06245 0.74429 0.68907
 C1172 C 0.09130 0.73961 0.71266
 C1173 C 0.10508 0.70751 0.71918
 C1174 C 0.08930 0.68044 0.70113
 C1175 C 0.13583 0.70382 0.74111
 C1176 C 0.15545 0.73249 0.75222
 C1177 C 0.14119 0.76411 0.74302
 C1178 C 0.10868 0.76745 0.72642
 H1179 H 0.05172 0.76905 0.68571
 H1180 H 0.09914 0.65541 0.70568
 H1181 H 0.14660 0.67914 0.74536
 H1182 H 0.09940 0.79248 0.71988
 H1183 H 0.05120 0.66462 0.66109
 H1184 H 0.15629 0.78693 0.74351
 C1185 C 0.89406 0.73757 0.61884
 C1186 C 0.92245 0.73894 0.64387
 C1187 C 0.91574 0.74267 0.68093
 C1188 C 0.88175 0.74398 0.69264
 C1189 C 0.85381 0.74269 0.66705
 C1190 C 0.86026 0.73966 0.63022
 C1191 C 0.81989 0.74428 0.67866
 C1192 C 0.81301 0.74567 0.71596
 C1193 C 0.84129 0.74737 0.74105
 C1194 C 0.87521 0.74659 0.72955
 H1195 H 0.93677 0.74483 0.70098
 H1196 H 0.83905 0.73845 0.61017
 H1197 H 0.79883 0.74383 0.65841
 H1198 H 0.89636 0.74789 0.74964
 H1199 H 0.89763 0.73435 0.59037
 H1200 H 0.83741 0.74971 0.76962
 C1201 C 0.40158 0.26512 0.11585
 C1202 C 0.42814 0.24968 0.13728
 C1203 C 0.42136 0.23894 0.17337
 C1204 C 0.38959 0.24483 0.18814
 C1205 C 0.36322 0.26004 0.16626
 C1206 C 0.36937 0.26983 0.13004
 C1207 C 0.33127 0.26545 0.18105
 C1208 C 0.32533 0.25633 0.21781
 C1209 C 0.35269 0.24288 0.23958
 C1210 C 0.38412 0.23648 0.22478
 H1211 H 0.44078 0.22620 0.19038
 H1212 H 0.34950 0.28183 0.11288
 H1213 H 0.31102 0.27667 0.16374
 H1214 H 0.40442 0.22557 0.24225
 H1215 H 0.40562 0.27446 0.08834
 H1216 H 0.35042 0.23747 0.26818
 C1217 C 0.44844 0.72610 0.31362
 C1218 C 0.45468 0.74661 0.34330
 C1219 C 0.43112 0.77115 0.34977
 C1220 C 0.40173 0.77544 0.32676
 C1221 C 0.39543 0.75477 0.29695
 C1222 C 0.41905 0.73010 0.29067
 C1223 C 0.36525 0.75854 0.27466
 C1224 C 0.34099 0.78239 0.28226
 C1225 C 0.34824 0.80299 0.31192
 C1226 C 0.37830 0.79986 0.33349
 H1227 H 0.43599 0.78731 0.37232
 H1228 H 0.41473 0.71384 0.26817
 H1229 H 0.36005 0.74201 0.25253
 H1230 H 0.38267 0.81590 0.35619
 H1231 H 0.46622 0.70675 0.30831
 H1232 H 0.33010 0.82111 0.31956
 C1233 C 0.91657 0.28140 0.86185
 C1234 C 0.94024 0.26364 0.84277
 C1235 C 0.93145 0.25707 0.80597
 C1236 C 0.89988 0.26715 0.78925
 C1237 C 0.87668 0.28455 0.80909
 C1238 C 0.88545 0.29193 0.84513
 C1239 C 0.84418 0.29253 0.79340
 C1240 C 0.83325 0.28113 0.75895
 C1241 C 0.85743 0.26563 0.73856
 C1242 C 0.89053 0.25902 0.75343
 H1243 H 0.94814 0.24262 0.79047
 H1244 H 0.86791 0.30543 0.86072
 H1245 H 0.82644 0.30514 0.80957
 H1246 H 0.90815 0.24589 0.73759
 H1247 H 0.92220 0.28850 0.88941
 H1248 H 0.85013 0.25665 0.71202
 C1249 C 0.63992 0.98282 0.66281
 C1250 C 0.61777 0.98308 0.69185
 C1251 C 0.58450 0.96809 0.68808
 C1252 C 0.57209 0.95741 0.65383
 C1253 C 0.59348 0.96153 0.62399
 C1254 C 0.62788 0.97230 0.62916
 C1255 C 0.57940 0.95904 0.58877
 C1256 C 0.54385 0.95254 0.58196
 C1257 C 0.52404 0.94280 0.61214
 C1258 C 0.53789 0.94574 0.64779
 H1259 H 0.56755 0.96732 0.71068
 H1260 H 0.64489 0.97463 0.60660
 H1261 H 0.59556 0.96837 0.56748
 H1262 H 0.52111 0.94152 0.67035
 H1263 H 0.66627 0.99236 0.66560
 H1264 H 0.49667 0.93733 0.60841
 C1265 C 0.14704 0.50086 1.14573
 C1266 C 0.12744 0.49713 1.17684
 C1267 C 0.09529 0.47958 1.17466
 C1268 C 0.08146 0.46935 1.14081
 C1269 C 0.10015 0.47675 1.10945
 C1270 C 0.13349 0.49095 1.11236
 C1271 C 0.08412 0.47355 1.07523
 C1272 C 0.04918 0.46297 1.07085
 C1273 C 0.03239 0.45099 1.10230
 C1274 C 0.04825 0.45451 1.13701
 H1275 H 0.08001 0.47605 1.19848
 H1276 H 0.14846 0.49595 1.08848
 H1277 H 0.09776 0.48495 1.05284
 H1278 H 0.03360 0.44794 1.16078
 H1279 H 0.17260 0.51248 1.14683
 H1280 H 0.00558 0.44272 1.10046
 C1281 C -0.10881 -0.03859 1.17641
 C1282 C -0.10509 -0.00925 1.19558
 C1283 C -0.08931 0.01969 1.17920
 C1284 C -0.07813 0.01940 1.14360
 C1285 C -0.08290 -0.01013 1.12443
 C1286 C -0.09794 -0.03902 1.14103
 C1287 C -0.07168 -0.01085 1.08923
 C1288 C -0.05384 0.01691 1.07285
 C1289 C -0.04970 0.04650 1.09180
 C1290 C -0.06216 0.04788 1.12679
 H1291 H -0.08614 0.04244 1.19400
 H1292 H -0.10155 -0.06191 1.12652
 H1293 H -0.07523 -0.03421 1.07564
 H1294 H -0.05832 0.07081 1.14115
 H1295 H -0.12156 -0.06076 1.18809
 H1296 H -0.03572 0.06807 1.08027
 C1297 C 0.41211 0.45397 0.68089
 C1298 C 0.40054 0.48518 0.69011
 C1299 C 0.40923 0.51418 0.66843
 C1300 C 0.42540 0.51128 0.63564
 C1301 C 0.43342 0.47919 0.62513
 C1302 C 0.42810 0.45091 0.64841
 C1303 C 0.44562 0.47540 0.59097
 C1304 C 0.45108 0.50322 0.56644
 C1305 C 0.44592 0.53549 0.57831
 C1306 C 0.43256 0.53948 0.61249
 H1307 H 0.40231 0.53880 0.67625
 H1308 H 0.43520 0.42622 0.64090
 H1309 H 0.44994 0.45002 0.58352
 H1310 H 0.42738 0.56449 0.62058
 H1311 H 0.40753 0.43148 0.69760
 H1312 H 0.45172 0.55758 0.56138
 C1313 C 0.43692 0.50694 -0.19370
 C1314 C 0.41056 0.48258 -0.18918
 C1315 C 0.41168 0.45970 -0.15903
 C1316 C 0.43792 0.46296 -0.13186
 C1317 C 0.46327 0.48890 -0.13569
 C1318 C 0.46334 0.50992 -0.16726
 C1319 C 0.48659 0.49526 -0.10684
 C1320 C 0.48434 0.47711 -0.07324
 C1321 C 0.46129 0.44921 -0.07090
 C1322 C 0.43813 0.44228 -0.09995
 H1323 H 0.39111 0.44094 -0.15573
 H1324 H 0.48277 0.52979 -0.17061
 H1325 H 0.50462 0.51633 -0.11005
 H1326 H 0.41912 0.42204 -0.09663
 H1327 H 0.43620 0.52454 -0.21706
 H1328 H 0.45890 0.43444 -0.04574
 C1329 C -0.05213 0.99114 0.31307
 C1330 C -0.08272 0.97247 0.31874
 C1331 C -0.08605 0.95240 0.35084
 C1332 C -0.06012 0.95351 0.37865
 C1333 C -0.03069 0.97471 0.37391
 C1334 C -0.02612 0.99210 0.34039
 C1335 C -0.00799 0.98069 0.40364
 C1336 C -0.01488 0.96679 0.43858
 C1337 C -0.04150 0.94218 0.44168
 C1338 C -0.06422 0.93591 0.41211
 H1339 H -0.10992 0.93828 0.35531
 H1340 H -0.00356 1.00826 0.33621
 H1341 H 0.01326 0.99856 0.39988
 H1342 H -0.08611 0.91881 0.41604
 H1343 H -0.04950 1.00695 0.28853
 H1344 H -0.04648 0.92946 0.46756
 C1345 C 0.07743 0.48911 0.30389
 C1346 C 0.09113 0.52134 0.29476
 C1347 C 0.07703 0.54922 0.31056
 C1348 C 0.05269 0.54450 0.33757
 C1349 C 0.04111 0.51175 0.34762
 C1350 C 0.05260 0.48442 0.32980
 C1351 C 0.01975 0.50639 0.37679
 C1352 C 0.01080 0.53309 0.39789
 C1353 C 0.01984 0.56597 0.38575
 C1354 C 0.04074 0.57167 0.35584
 H1355 H 0.08558 0.57455 0.30304
 H1356 H 0.04355 0.45911 0.33710
 H1357 H 0.01230 0.48072 0.38449
 H1358 H 0.04861 0.59717 0.34791
 H1359 H 0.08649 0.46690 0.29248
 H1360 H 0.01151 0.58722 0.39957
 C1361 C 0.58307 -0.02320 -0.17010
 C1362 C 0.59098 0.00878 -0.18571
 C1363 C 0.57335 0.03669 -0.17448
 C1364 C 0.54943 0.03274 -0.14694
 C1365 C 0.54235 0.00045 -0.13138
 C1366 C 0.55873 -0.02737 -0.14355
 C1367 C 0.52026 -0.00356 -0.10261
 C1368 C 0.50648 0.02441 -0.08699
 C1369 C 0.51166 0.05624 -0.10424
 C1370 C 0.53302 0.06040 -0.13397
 H1371 H 0.57862 0.06151 -0.18659
 H1372 H 0.55366 -0.05229 -0.13155
 H1373 H 0.51558 -0.02872 -0.09113
 H1374 H 0.53751 0.08536 -0.14609
 H1375 H 0.59654 -0.04505 -0.17728
 H1376 H 0.49978 0.07798 -0.09456
 C1377 C 0.68940 0.61825 0.01659
 C1378 C 0.71286 0.60363 -0.00514
 C1379 C 0.70289 0.57497 -0.02418
 C1380 C 0.66935 0.56091 -0.02109
 C1381 C 0.64600 0.57635 0.00055
 C1382 C 0.65617 0.60487 0.01926
 C1383 C 0.61257 0.56330 0.00329
 C1384 C 0.60142 0.53415 -0.01428
 C1385 C 0.62480 0.51856 -0.03558
 C1386 C 0.65848 0.53193 -0.03911
 H1387 H 0.72115 0.56370 -0.04093
 H1388 H 0.63841 0.61685 0.03600
 H1389 H 0.59515 0.57647 0.01921
 H1390 H 0.67598 0.51963 -0.05583
 H1391 H 0.69662 0.64047 0.03110
 H1392 H 0.61705 0.49623 -0.04970
 C1393 C 0.21199 1.05650 0.46153
 C1394 C 0.21520 1.08591 0.48094
 C1395 C 0.18711 1.09644 0.49914
 C1396 C 0.15599 1.07801 0.49833
 C1397 C 0.15250 1.04788 0.47969
 C1398 C 0.18087 1.03740 0.46114
 C1399 C 0.12089 1.02910 0.48026
 C1400 C 0.09298 1.04059 0.49903
 C1401 C 0.09751 1.07140 0.51629
 C1402 C 0.12835 1.08957 0.51617
 H1403 H 0.18945 1.11937 0.51378
 H1404 H 0.17900 1.01455 0.44644
 H1405 H 0.11817 1.00576 0.46650
 H1406 H 0.13060 1.11270 0.53040
 H1407 H 0.23363 1.04815 0.44718
 H1408 H 0.07746 1.08163 0.53133
 C1409 C 0.16538 -0.06965 0.97382
 C1410 C 0.16645 -0.09699 0.99919
 C1411 C 0.14276 -0.09969 1.02688
 C1412 C 0.11715 -0.07570 1.02830
 C1413 C 0.11563 -0.04875 1.00193
 C1414 C 0.14018 -0.04565 0.97517
 C1415 C 0.08850 -0.02641 1.00140
 C1416 C 0.06116 -0.03206 1.02487
 C1417 C 0.06459 -0.05697 1.05319
 C1418 C 0.09239 -0.07858 1.05489
 H1419 H 0.14404 -0.12059 1.04680
 H1420 H 0.13937 -0.02515 0.95475
 H1421 H 0.08758 -0.00611 0.98094
 H1422 H 0.09339 -0.09872 1.07571
 H1423 H 0.18394 -0.06710 0.95272
 H1424 H 0.04447 -0.06162 1.07233
 C1425 C 0.65925 0.43115 0.44357
 C1426 C 0.66870 0.41135 0.47472
 C1427 C 0.64786 0.40953 0.50466
 C1428 C 0.61636 0.42578 0.50266
 C1429 C 0.60618 0.44466 0.47066
 C1430 C 0.62828 0.44800 0.44164
 C1431 C 0.57353 0.45870 0.46761
 C1432 C 0.55043 0.45336 0.49567
 C1433 C 0.56160 0.43585 0.52807
 C1434 C 0.59417 0.42213 0.53144
 H1435 H 0.65510 0.39371 0.52839
 H1436 H 0.62091 0.46233 0.41691
 H1437 H 0.56602 0.47310 0.44303
 H1438 H 0.60162 0.40792 0.55621
 H1439 H 0.67517 0.43223 0.42013
 H1440 H 0.54491 0.43175 0.55066
 C1441 C -0.21246 0.44677 0.42522
 C1442 C -0.21516 0.42126 0.45271
 C1443 C -0.18782 0.41598 0.47773
 C1444 C -0.15748 0.43526 0.47522
 C1445 C -0.15436 0.46153 0.44819
 C1446 C -0.18234 0.46721 0.42330
 C1447 C -0.12322 0.48091 0.44651
 C1448 C -0.09530 0.47336 0.47105
 C1449 C -0.09934 0.44588 0.49651
 C1450 C -0.12993 0.42770 0.49902
 H1451 H -0.18973 0.39581 0.49847
 H1452 H -0.18070 0.48692 0.40210
 H1453 H -0.12067 0.50129 0.42619
 H1454 H -0.13181 0.40729 0.51945
 H1455 H -0.23353 0.45078 0.40539
 H1456 H -0.07889 0.43814 0.51556
 C1457 C 0.28277 -0.06290 -0.06198
 C1458 C 0.27880 -0.08411 -0.03070
 C1459 C 0.30402 -0.08359 -0.00282
 C1460 C 0.33345 -0.06326 -0.00592
 C1461 C 0.33788 -0.04123 -0.03672
 C1462 C 0.31194 -0.04107 -0.06470
 C1463 C 0.36859 -0.02109 -0.03906
 C1464 C 0.39501 -0.02441 -0.01158
 C1465 C 0.38976 -0.04847 0.01741
 C1466 C 0.35927 -0.06640 0.02093
 H1467 H 0.30165 -0.10048 0.02090
 H1468 H 0.31459 -0.02480 -0.08887
 H1469 H 0.37240 -0.00413 -0.06250
 H1470 H 0.35662 -0.08410 0.04402
 H1471 H 0.26342 -0.06322 -0.08403
 H1472 H 0.40968 -0.05486 0.03762
 C1473 C 0.35292 1.10065 0.55575
 C1474 C 0.32938 1.09049 0.52825
 C1475 C 0.33387 1.06012 0.51177
 C1476 C 0.36341 1.04142 0.52043
 C1477 C 0.38809 1.05272 0.54674
 C1478 C 0.38187 1.08160 0.56538
 C1479 C 0.41986 1.03685 0.55152
 C1480 C 0.42864 1.01205 0.52804
 C1481 C 0.40235 0.99860 0.50490
 C1482 C 0.37002 1.01309 0.50126
 H1483 H 0.31588 1.05260 0.49013
 H1484 H 0.40054 1.09069 0.58557
 H1485 H 0.43850 1.04574 0.57150
 H1486 H 0.35115 1.00367 0.48146
 H1487 H 0.34984 1.12424 0.56837
 H1488 H 0.40740 0.97858 0.48733
 C1489 C -0.13974 0.61075 1.05222
 C1490 C -0.16664 0.59783 1.02997
 C1491 C -0.16547 0.56481 1.01871
 C1492 C -0.13580 0.54602 1.02659
 C1493 C -0.10774 0.56022 1.04685
 C1494 C -0.11066 0.59185 1.06114
 C1495 C -0.07603 0.54432 1.04918
 C1496 C -0.07080 0.51674 1.02801
 C1497 C -0.09998 0.49993 1.01267
 C1498 C -0.13236 0.51455 1.01198
 H1499 H -0.18619 0.55503 1.00121
 H1500 H -0.08938 0.60305 1.07676
 H1501 H -0.05471 0.55559 1.06449
 H1502 H -0.15383 0.50277 0.99721
 H1503 H -0.14040 0.63625 1.06090
 H1504 H -0.09728 0.47752 0.99783
 C1505 C -0.05435 0.67685 0.54715
 C1506 C -0.02039 0.68942 0.55184
 C1507 C 0.00517 0.67764 0.53004
 C1508 C -0.00256 0.65170 0.50612
 C1509 C -0.03614 0.63729 0.50399
 C1510 C -0.06218 0.65097 0.52350
 C1511 C -0.04242 0.60773 0.48506
 C1512 C -0.01508 0.59104 0.46995
 C1513 C 0.01672 0.60880 0.46763
 C1514 C 0.02311 0.63849 0.48589
 H1515 H 0.03143 0.68743 0.53317
 H1516 H -0.08822 0.64042 0.52200
 H1517 H -0.06790 0.59597 0.48577
 H1518 H 0.04880 0.64989 0.48605
 H1519 H -0.07437 0.68542 0.56363
 H1520 H 0.03785 0.59855 0.45425
 C1521 C 0.44873 0.18167 0.04697
 C1522 C 0.48316 0.19342 0.04928
 C1523 C 0.50754 0.17887 0.02808
 C1524 C 0.49795 0.15140 0.00683
 C1525 C 0.46380 0.13835 0.00702
 C1526 C 0.43912 0.15439 0.02608
 C1527 C 0.45551 0.10784 -0.00907
 C1528 C 0.48147 0.08863 -0.02302
 C1529 C 0.51368 0.10474 -0.02853
 C1530 C 0.52210 0.13560 -0.01322
 H1531 H 0.53407 0.18817 0.02911
 H1532 H 0.41270 0.14482 0.02629
 H1533 H 0.42956 0.09747 -0.00669
 H1534 H 0.54815 0.14590 -0.01504
 H1535 H 0.42950 0.19246 0.06289
 H1536 H 0.53359 0.09222 -0.04169
 C1537 C -0.04719 0.17953 0.93459
 C1538 C -0.01276 0.19142 0.93462
 C1539 C 0.01177 0.17524 0.95815
 C1540 C 0.00273 0.14594 0.97888
 C1541 C -0.03131 0.13259 0.97643
 C1542 C -0.05643 0.15037 0.95533
 C1543 C -0.03892 0.10056 0.99276
 C1544 C -0.01241 0.08061 1.00886
 C1545 C 0.02011 0.09655 1.01544
 C1546 C 0.02764 0.12869 1.00046
 H1547 H 0.03831 0.18453 0.95891
 H1548 H -0.08280 0.14073 0.95328
 H1549 H -0.06492 0.09067 0.99070
 H1550 H 0.05368 0.13901 1.00364
 H1551 H -0.06655 0.19162 0.91684
 H1552 H 0.04103 0.08296 1.02912
 C1553 C 0.45846 0.66791 0.42008
 C1554 C 0.48647 0.68299 0.43901
 C1555 C 0.50215 0.66557 0.46915
 C1556 C 0.49200 0.63223 0.47828
 C1557 C 0.46599 0.61620 0.45689
 C1558 C 0.44833 0.63466 0.42889
 C1559 C 0.45952 0.58158 0.46238
 C1560 C 0.47760 0.56267 0.49008
 C1561 C 0.50178 0.57959 0.51273
 C1562 C 0.50903 0.61393 0.50678
 H1563 H 0.52400 0.67711 0.48359
 H1564 H 0.42798 0.62284 0.41253
 H1565 H 0.44098 0.56924 0.44429
 H1566 H 0.52885 0.62592 0.52368
 H1567 H 0.44641 0.68080 0.39651
 H1568 H 0.51624 0.56608 0.53425
 C1569 C 0.48960 0.80206 0.46795
 C1570 C 0.51017 0.80319 0.43739
 C1571 C 0.52658 0.83375 0.42703
 C1572 C 0.52340 0.86239 0.44692
 C1573 C 0.50338 0.86130 0.47804
 C1574 C 0.48636 0.83080 0.48819
 C1575 C 0.50058 0.89078 0.49776
 C1576 C 0.51735 0.92120 0.48611
 C1577 C 0.53657 0.92103 0.45436
 C1578 C 0.53993 0.89223 0.43557
 H1579 H 0.54177 0.83544 0.40302
 H1580 H 0.47067 0.82911 0.51179
 H1581 H 0.48497 0.89020 0.52140
 H1582 H 0.55522 0.89351 0.41164
 H1583 H 0.47669 0.77881 0.47669
 H1584 H 0.54953 0.94340 0.44338
 C1585 C -0.01226 0.30662 0.95948
 C1586 C 0.00711 0.30809 0.92795
 C1587 C 0.02381 0.33862 0.91800
 C1588 C 0.02149 0.36693 0.93867
 C1589 C 0.00216 0.36563 0.97031
 C1590 C -0.01460 0.33502 0.98050
 C1591 C -0.00044 0.39508 0.99029
 C1592 C 0.01590 0.42569 0.97840
 C1593 C 0.03461 0.42551 0.94623
 C1594 C 0.03777 0.39682 0.92725
 H1595 H 0.03803 0.34083 0.89335
 H1596 H -0.02968 0.33306 1.00455
 H1597 H -0.01573 0.39438 1.01418
 H1598 H 0.05247 0.39833 0.90289
 H1599 H -0.02533 0.28345 0.96819
 H1600 H 0.04697 0.44794 0.93466
 C1601 C 0.46765 0.33448 0.08039
 C1602 C 0.48745 0.31285 0.06170
 C1603 C 0.50505 0.32518 0.03113
 C1604 C 0.50457 0.35952 0.02064
 C1605 C 0.48670 0.38153 0.04137
 C1606 C 0.46733 0.36865 0.07037
 C1607 C 0.48997 0.41621 0.03414
 C1608 C 0.50949 0.42968 0.00539
 C1609 C 0.52549 0.40733 -0.01648
 C1610 C 0.52330 0.37263 -0.00874
 H1611 H 0.52076 0.30847 0.01706
 H1612 H 0.45321 0.38522 0.08631
 H1613 H 0.47875 0.43249 0.05241
 H1614 H 0.53695 0.35614 -0.02518
 H1615 H 0.45449 0.32534 0.10438
 H1616 H 0.54064 0.41661 -0.03898
 C1617 C -0.00565 0.82979 0.60930
 C1618 C -0.00322 0.80613 0.58272
 C1619 C 0.00197 0.81759 0.54643
 C1620 C 0.00575 0.85249 0.53738
 C1621 C 0.00451 0.87561 0.56496
 C1622 C -0.00174 0.86405 0.60062
 C1623 C 0.00980 0.91007 0.55681
 C1624 C 0.01412 0.92294 0.52087
 C1625 C 0.01590 0.89966 0.49359
 C1626 C 0.01179 0.86488 0.50172
 H1627 H 0.00441 0.79951 0.52582
 H1628 H -0.00303 0.88153 0.62203
 H1629 H 0.01025 0.92679 0.57901
 H1630 H 0.01326 0.84770 0.48008
 H1631 H -0.00930 0.82153 0.63734
 H1632 H 0.02042 0.90828 0.46588
 C1633 C 0.23756 0.31756 0.06174
 C1634 C 0.24398 0.35211 0.06481
 C1635 C 0.23366 0.36769 0.09571
 C1636 C 0.21881 0.34839 0.12426
 C1637 C 0.21419 0.31333 0.12168
 C1638 C 0.22282 0.29828 0.08994
 C1639 C 0.20420 0.29351 0.15213
 C1640 C 0.20425 0.30766 0.18647
 C1641 C 0.20163 0.34274 0.18671
 C1642 C 0.20953 0.36309 0.15598
 H1643 H 0.23740 0.39460 0.09754
 H1644 H 0.21931 0.27144 0.08744
 H1645 H 0.20320 0.26645 0.15039
 H1646 H 0.21080 0.39010 0.15792
 H1647 H 0.24447 0.30542 0.03759
 H1648 H 0.19670 0.35479 0.21124
 C1649 C 0.72552 0.87276 0.58890
 C1650 C 0.73166 0.85046 0.56180
 C1651 C 0.71829 0.81721 0.56515
 C1652 C 0.70330 0.80541 0.59778
 C1653 C 0.70147 0.82737 0.62629
 C1654 C 0.71068 0.86134 0.62086
 C1655 C 0.69492 0.81461 0.66124
 C1656 C 0.69098 0.77980 0.66926
 C1657 C 0.68613 0.75905 0.63937
 C1658 C 0.69298 0.77162 0.60399
 H1659 H 0.72184 0.80014 0.54379
 H1660 H 0.70842 0.87870 0.64225
 H1661 H 0.70017 0.83178 0.68225
 H1662 H 0.69308 0.75436 0.58226
 H1663 H 0.73348 0.89897 0.58599
 H1664 H 0.68235 0.73218 0.64388
 C1665 C 0.20924 0.68975 0.56489
 C1666 C 0.24149 0.67969 0.55447
 C1667 C 0.27148 0.68996 0.57473
 C1668 C 0.26878 0.70610 0.60734
 C1669 C 0.23593 0.71364 0.61854
 C1670 C 0.20653 0.70690 0.59646
 C1671 C 0.23243 0.72526 0.65297
 C1672 C 0.26087 0.72703 0.67824
 C1673 C 0.29398 0.72383 0.66527
 C1674 C 0.29794 0.71316 0.63003
 H1675 H 0.29683 0.68410 0.56626
 H1676 H 0.18114 0.71299 0.60476
 H1677 H 0.20653 0.72980 0.66090
 H1678 H 0.32359 0.70867 0.62133
 H1679 H 0.18572 0.68309 0.54997
 H1680 H 0.31668 0.72794 0.68260
 C1681 C 0.75042 0.19046 0.04599
 C1682 C 0.76111 0.15720 0.04982
 C1683 C 0.78223 0.14718 0.08040
 C1684 C 0.79162 0.16975 0.10722
 C1685 C 0.78000 0.20285 0.10339
 C1686 C 0.76012 0.21323 0.07236
 C1687 C 0.78539 0.22404 0.13221
 C1688 C 0.79741 0.21101 0.16668
 C1689 C 0.81366 0.17999 0.16849
 C1690 C 0.81082 0.15941 0.13879
 H1691 H 0.79030 0.12145 0.08415
 H1692 H 0.75095 0.23862 0.06917
 H1693 H 0.77499 0.24892 0.12905
 H1694 H 0.82082 0.13433 0.14178
 H1695 H 0.73477 0.19902 0.02254
 H1696 H 0.82471 0.16982 0.19402
 C1697 C 0.74465 0.19750 0.93729
 C1698 C 0.72646 0.16717 0.93198
 C1699 C 0.70648 0.16306 0.89972
 C1700 C 0.70662 0.18841 0.87181
 C1701 C 0.72710 0.21788 0.87639
 C1702 C 0.74490 0.22278 0.90974
 C1703 C 0.73181 0.24067 0.84675
 C1704 C 0.71727 0.23404 0.81199
 C1705 C 0.69339 0.20693 0.80910
 C1706 C 0.68846 0.18405 0.83858
 H1707 H 0.69260 0.13947 0.89560
 H1708 H 0.76059 0.24533 0.91375
 H1709 H 0.74922 0.26207 0.85043
 H1710 H 0.67194 0.16201 0.83476
 H1711 H 0.76051 0.20074 0.96184
 H1712 H 0.68046 0.20174 0.78334
 C1713 C 0.23733 0.71931 0.43815
 C1714 C 0.22635 0.68629 0.43175
 C1715 C 0.20957 0.67890 0.39854
 C1716 C 0.20641 0.70397 0.37059
 C1717 C 0.21998 0.73664 0.37620
 C1718 C 0.23406 0.74444 0.41056
 C1719 C 0.22252 0.75988 0.34656
 C1720 C 0.21449 0.74998 0.31086
 C1721 C 0.19585 0.71944 0.30683
 C1722 C 0.19211 0.69648 0.33636
 H1723 H 0.20082 0.65334 0.39386
 H1724 H 0.24437 0.76943 0.41543
 H1725 H 0.23505 0.78405 0.35102
 H1726 H 0.18039 0.67197 0.33178
 H1727 H 0.25001 0.72523 0.46390
 H1728 H 0.18667 0.71161 0.28052
 C1729 C 0.76027 0.79588 0.45198
 C1730 C 0.77558 0.82775 0.44482
 C1731 C 0.79646 0.83272 0.41468
 C1732 C 0.80154 0.80670 0.39175
 C1733 C 0.78537 0.77507 0.39845
 C1734 C 0.76522 0.76969 0.42902
 C1735 C 0.78738 0.75033 0.37295
 C1736 C 0.80246 0.75795 0.33910
 C1737 C 0.82169 0.78834 0.33523
 C1738 C 0.82135 0.81236 0.36126
 H1739 H 0.80793 0.85725 0.40814
 H1740 H 0.75260 0.74551 0.43466
 H1741 H 0.77354 0.72667 0.37784
 H1742 H 0.83460 0.83634 0.35616
 H1743 H 0.74472 0.79109 0.47540
 H1744 H 0.83470 0.79549 0.31083
 C1745 C 0.22888 0.32690 0.93215
 C1746 C 0.26235 0.33733 0.94370
 C1747 C 0.29087 0.32200 0.92973
 C1748 C 0.28580 0.29740 0.90391
 C1749 C 0.25195 0.28704 0.89330
 C1750 C 0.22375 0.30152 0.90792
 C1751 C 0.24653 0.26405 0.86631
 C1752 C 0.27415 0.25365 0.84660
 C1753 C 0.30794 0.26212 0.85888
 C1754 C 0.31374 0.28364 0.88757
 H1755 H 0.31687 0.32946 0.93839
 H1756 H 0.19762 0.29427 0.89937
 H1757 H 0.22020 0.25687 0.85847
 H1758 H 0.33999 0.29073 0.89577
 H1759 H 0.20630 0.33889 0.94083
 H1760 H 0.32990 0.25301 0.84592
 C1761 C 0.86292 0.43608 0.72622
 C1762 C 0.84698 0.45722 0.74922
 C1763 C 0.81777 0.44539 0.76763
 C1764 C 0.80441 0.41260 0.76268
 C1765 C 0.82109 0.39143 0.73987
 C1766 C 0.85030 0.40340 0.72180
 C1767 C 0.80840 0.35861 0.73536
 C1768 C 0.77840 0.34647 0.75230
 C1769 C 0.76178 0.36785 0.77472
 C1770 C 0.77475 0.40050 0.78000
 H1771 H 0.80536 0.46176 0.78530
 H1772 H 0.86332 0.38751 0.70413
 H1773 H 0.82214 0.34257 0.71852
 H1774 H 0.76152 0.41630 0.79758
 H1775 H 0.88556 0.44472 0.71200
 H1776 H 0.73887 0.35932 0.78853
 C1777 C 0.30330 0.97153 0.28686
 C1778 C 0.33777 0.97392 0.27694
 C1779 C 0.35392 0.94567 0.26612
 C1780 C 0.33589 0.91497 0.26479
 C1781 C 0.30110 0.91206 0.27477
 C1782 C 0.28506 0.94063 0.28601
 C1783 C 0.28314 0.88086 0.27269
 C1784 C 0.29964 0.85293 0.26032
 C1785 C 0.33431 0.85698 0.25035
 C1786 C 0.35218 0.88734 0.25285
 H1787 H 0.38047 0.94786 0.25806
 H1788 H 0.25843 0.93918 0.29366
 H1789 H 0.25646 0.87852 0.28012
 H1790 H 0.37871 0.88928 0.24483
 H1791 H 0.29057 0.99355 0.29496
 H1792 H 0.34806 0.83672 0.23989
 C1793 C 0.20372 0.91642 0.74377
 C1794 C 0.17062 0.91677 0.75805
 C1795 C 0.15703 0.88729 0.77475
 C1796 C 0.17691 0.85917 0.78012
 C1797 C 0.20917 0.85836 0.76430
 C1798 C 0.22244 0.88713 0.74608
 C1799 C 0.22657 0.82829 0.76535
 C1800 C 0.21150 0.79897 0.78147
 C1801 C 0.18204 0.80190 0.80167
 C1802 C 0.16453 0.83155 0.80056
 H1803 H 0.13111 0.88614 0.78448
 H1804 H 0.24745 0.88714 0.73418
 H1805 H 0.25026 0.82749 0.75109
 H1806 H 0.14003 0.83208 0.81348
 H1807 H 0.21597 0.93857 0.73157
 H1808 H 0.16835 0.78047 0.81242
 C1809 C 0.66606 0.40453 0.20740
 C1810 C 0.67403 0.41753 0.24142
 C1811 C 0.70077 0.40418 0.26378
 C1812 C 0.71843 0.37654 0.25303
 C1813 C 0.70932 0.36242 0.21944
 C1814 C 0.68370 0.37711 0.19637
 C1815 C 0.72432 0.33264 0.21054
 C1816 C 0.74611 0.31529 0.23586
 C1817 C 0.75779 0.33156 0.26743
 C1818 C 0.74405 0.36192 0.27591
 H1819 H 0.70707 0.41473 0.28987
 H1820 H 0.67647 0.36668 0.17046
 H1821 H 0.71711 0.32211 0.18499
 H1822 H 0.75185 0.37277 0.30146
 H1823 H 0.64568 0.41515 0.18983
 H1824 H 0.77544 0.31972 0.28729
 C1825 C 0.72317 0.53015 0.29798
 C1826 C 0.68966 0.52980 0.28207
 C1827 C 0.67409 0.55982 0.27147
 C1828 C 0.69138 0.59026 0.27657
 C1829 C 0.72526 0.59135 0.29231
 C1830 C 0.74102 0.56091 0.30299
 C1831 C 0.74269 0.62271 0.29588
 C1832 C 0.72662 0.65247 0.28285
 C1833 C 0.69268 0.64992 0.26738
 C1834 C 0.67517 0.61956 0.26506
 H1835 H 0.64802 0.55937 0.25951
 H1836 H 0.76694 0.56090 0.31511
 H1837 H 0.76904 0.62376 0.30682
 H1838 H 0.64945 0.61891 0.25233
 H1839 H 0.73521 0.50684 0.30678
 H1840 H 0.67999 0.67089 0.25373
 C1841 C 0.23734 0.02647 0.79749
 C1842 C 0.21317 0.02147 0.76853
 C1843 C 0.20829 0.04668 0.74175
 C1844 C 0.21780 0.07917 0.74974
 C1845 C 0.24074 0.08556 0.77969
 C1846 C 0.25256 0.05839 0.80196
 C1847 C 0.24892 0.11888 0.78807
 C1848 C 0.23122 0.14505 0.76926
 C1849 C 0.20511 0.13712 0.74284
 C1850 C 0.20022 0.10504 0.73153
 H1851 H 0.19001 0.04276 0.71923
 H1852 H 0.26993 0.06247 0.82523
 H1853 H 0.26808 0.12428 0.80940
 H1854 H 0.18119 0.10028 0.70983
 H1855 H 0.24151 0.00684 0.81845
 H1856 H 0.18982 0.15618 0.72856
 C1857 C 0.29906 0.08371 0.27319
 C1858 C 0.32368 0.08341 0.24649
 C1859 C 0.32236 0.10701 0.21719
 C1860 C 0.29916 0.13327 0.21682
 C1861 C 0.27619 0.13512 0.24537
 C1862 C 0.27509 0.10916 0.27237
 C1863 C 0.25813 0.16473 0.24894
 C1864 C 0.26557 0.19329 0.22636
 C1865 C 0.28429 0.18922 0.19508
 C1866 C 0.30102 0.15951 0.19040
 H1867 H 0.34168 0.10690 0.19686
 H1868 H 0.25776 0.11006 0.29449
 H1869 H 0.24259 0.16697 0.27233
 H1870 H 0.31758 0.15814 0.16768
 H1871 H 0.30004 0.06559 0.29608
 H1872 H 0.28825 0.20976 0.17536
 C1873 C 0.84310 0.59811 0.69171
 C1874 C 0.83444 0.57513 0.72011
 C1875 C 0.80568 0.58071 0.74042
 C1876 C 0.78743 0.61043 0.73457
 C1877 C 0.79771 0.63466 0.70763
 C1878 C 0.82466 0.62761 0.68528
 C1879 C 0.78254 0.66631 0.70526
 C1880 C 0.75839 0.67460 0.73050
 C1881 C 0.74615 0.64894 0.75480
 C1882 C 0.76063 0.61731 0.75691
 H1883 H 0.79940 0.56323 0.76280
 H1884 H 0.83289 0.64582 0.66440
 H1885 H 0.79085 0.68476 0.68490
 H1886 H 0.75205 0.59882 0.77733
 H1887 H 0.86565 0.59441 0.67630
 H1888 H 0.72682 0.65370 0.77396
 C1889 C 0.92480 0.70354 0.16483
 C1890 C 0.94647 0.72975 0.17681
 C1891 C 0.94085 0.74420 0.20992
 C1892 C 0.91176 0.73417 0.22953
 C1893 C 0.88840 0.70988 0.21540
 C1894 C 0.89586 0.69362 0.18400
 C1895 C 0.85657 0.70415 0.23095
 C1896 C 0.84686 0.72281 0.26024
 C1897 C 0.87241 0.74283 0.27749
 C1898 C 0.90437 0.74914 0.26181
 H1899 H 0.95780 0.76445 0.21909
 H1900 H 0.87830 0.67462 0.17312
 H1901 H 0.83842 0.68707 0.21774
 H1902 H 0.92265 0.76672 0.27409
 H1903 H 0.92903 0.69233 0.13931
 H1904 H 0.86753 0.75471 0.30208
 C1905 C 0.42837 0.20193 0.70613
 C1906 C 0.43743 0.23564 0.69774
 C1907 C 0.42304 0.26087 0.71723
 C1908 C 0.39712 0.25269 0.74186
 C1909 C 0.38601 0.21892 0.74745
 C1910 C 0.40295 0.19359 0.73091
 C1911 C 0.35595 0.21134 0.76625
 C1912 C 0.33511 0.23729 0.77678
 C1913 C 0.34985 0.26991 0.77696
 C1914 C 0.38037 0.27773 0.75911
 H1915 H 0.43040 0.28696 0.71149
 H1916 H 0.39489 0.16750 0.73517
 H1917 H 0.34671 0.18545 0.76828
 H1918 H 0.38948 0.30366 0.75670
 H1919 H 0.43905 0.18213 0.69158
 H1920 H 0.33677 0.28989 0.78872
 C1921 C 0.42135 0.70506 0.84289
 C1922 C 0.43666 0.73596 0.83174
 C1923 C 0.42154 0.75442 0.80193
 C1924 C 0.38974 0.74392 0.78584
 C1925 C 0.37297 0.71428 0.79932
 C1926 C 0.38977 0.69422 0.82673
 C1927 C 0.33872 0.70674 0.78733
 C1928 C 0.32070 0.72881 0.76246
 C1929 C 0.33907 0.75660 0.74707
 C1930 C 0.37315 0.76401 0.75854
 H1931 H 0.43308 0.77848 0.79343
 H1932 H 0.37746 0.67126 0.83729
 H1933 H 0.32538 0.68503 0.79949
 H1934 H 0.38582 0.78663 0.74756
 H1935 H 0.43228 0.69070 0.86608
 H1936 H 0.32647 0.77404 0.72774
 C1937 C 0.91083 0.21473 0.36631
 C1938 C 0.93895 0.22394 0.34484
 C1939 C 0.93493 0.22242 0.30679
 C1940 C 0.90183 0.21633 0.29047
 C1941 C 0.87351 0.20921 0.31263
 C1942 C 0.87869 0.20661 0.35041
 C1943 C 0.83992 0.20811 0.29719
 C1944 C 0.83349 0.21537 0.25978
 C1945 C 0.86196 0.22063 0.23760
 C1946 C 0.89579 0.22059 0.25271
 H1947 H 0.95621 0.23023 0.28996
 H1948 H 0.85727 0.20100 0.36778
 H1949 H 0.81870 0.20480 0.31521
 H1950 H 0.91704 0.22620 0.23514
 H1951 H 0.91336 0.21558 0.39564
 H1952 H 0.85816 0.22691 0.20886
 C1953 C 0.05152 0.25714 0.29009
 C1954 C 0.05397 0.26469 0.32695
 C1955 C 0.08639 0.27299 0.34270
 C1956 C 0.11599 0.27407 0.32222
 C1957 C 0.11369 0.26754 0.28485
 C1958 C 0.08109 0.25889 0.26909
 C1959 C 0.14405 0.26926 0.26451
 C1960 C 0.17663 0.27654 0.28162
 C1961 C 0.17766 0.28161 0.31943
 C1962 C 0.14797 0.28119 0.33902
 H1963 H 0.08855 0.27838 0.37127
 H1964 H 0.07845 0.25342 0.24062
 H1965 H 0.14244 0.26404 0.23594
 H1966 H 0.15020 0.28591 0.36773
 H1967 H 0.02669 0.25060 0.27742
 H1968 H 0.20155 0.28674 0.33455
 C1969 C 0.58532 0.78585 0.86271
 C1970 C 0.55620 0.76855 0.84818
 C1971 C 0.55951 0.75140 0.81584
 C1972 C 0.59136 0.75224 0.79823
 C1973 C 0.62000 0.76989 0.81355
 C1974 C 0.61671 0.78650 0.84571
 C1975 C 0.65182 0.77053 0.79689
 C1976 C 0.65638 0.75383 0.76454
 C1977 C 0.62751 0.73670 0.74909
 C1978 C 0.59540 0.73593 0.76570
 H1979 H 0.53732 0.73808 0.80409
 H1980 H 0.63855 0.80005 0.85787
 H1981 H 0.67320 0.78420 0.80967
 H1982 H 0.57380 0.72227 0.75327
 H1983 H 0.58398 0.79874 0.88772
 H1984 H 0.62987 0.72342 0.72449
 C1985 C 0.57903 0.24779 0.63563
 C1986 C 0.55410 0.24930 0.66175
 C1987 C 0.56440 0.25083 0.69871
 C1988 C 0.59978 0.25249 0.70914
 C1989 C 0.62446 0.25191 0.68225
 C1990 C 0.61390 0.24895 0.64576
 C1991 C 0.65948 0.25523 0.69184
 C1992 C 0.67121 0.25838 0.72824
 C1993 C 0.64650 0.25927 0.75492
 C1994 C 0.61112 0.25604 0.74551
 H1995 H 0.54508 0.25223 0.71885
 H1996 H 0.63262 0.24832 0.62491
 H1997 H 0.67745 0.25609 0.67021
 H1998 H 0.59266 0.25697 0.76656
 H1999 H 0.57137 0.24647 0.60710
 H2000 H 0.65441 0.26300 0.78295
 C2001 C 0.06461 0.74620 0.20291
 C2002 C 0.06329 0.76011 0.16708
 C2003 C 0.09298 0.77558 0.15307
 C2004 C 0.12349 0.77766 0.17434
 C2005 C 0.12498 0.76411 0.21051
 C2006 C 0.09522 0.74836 0.22457
 C2007 C 0.15626 0.76619 0.23146
 C2008 C 0.18622 0.78036 0.21595
 C2009 C 0.18336 0.79434 0.17989
 C2010 C 0.15258 0.79311 0.15959
 H2011 H 0.09248 0.78575 0.12523
 H2012 H 0.09563 0.73766 0.25216
 H2013 H 0.15707 0.75663 0.25930
 H2014 H 0.15175 0.80377 0.13195
 H2015 H 0.04186 0.73431 0.21437
 H2016 H 0.20523 0.80578 0.16636
   
