data_POSCAR
  _audit_creation_date              2014-09-24
  _audit_creation_method            'ToBaCCo'
  _symmetry_space_group_name_H-M    'P1'
  _symmetry_Int_Tables_number       1
  _symmetry_cell_setting            triclinic
  loop_
  _symmetry_equiv_pos_as_xyz
 x,y,z
_cell_length_a 41.2360
_cell_length_b 41.3280
_cell_length_c 41.2443
_cell_angle_alpha 87.920000
_cell_angle_beta 89.574000
_cell_angle_gamma 90.240000
loop_
  _atom_site_label
  _atom_site_type_symbol
  _atom_site_fract_x
  _atom_site_fract_y
  _atom_site_fract_z
C1 C 0.11031 -0.00177 0.22402
 C2 C 0.12900 0.02935 0.22911
 C3 C 0.14674 0.02945 0.25632
 C4 C 0.14311 -0.00174 0.27803
 C5 C 0.13466 -0.02948 0.22808
 C6 C 0.15182 -0.02997 0.25616
 C7 C 0.08892 -0.00485 0.25484
 C8 C 0.10605 -0.00593 0.28314
 H9 H 0.12762 0.05034 0.21262
 H10 H 0.15767 -0.00110 0.30051
 H11 H 0.13647 -0.04856 0.21081
 H12 H 0.06275 -0.00510 0.25504
 C13 C 0.40045 0.00261 0.72415
 C14 C 0.37644 -0.02568 0.72546
 C15 C 0.35795 -0.02832 0.75258
 C16 C 0.36323 -0.00005 0.77567
 C17 C 0.37850 0.03235 0.72752
 C18 C 0.35961 0.03131 0.75457
 C19 C 0.41806 0.00065 0.75476
 C20 C 0.39784 -0.00100 0.78361
 H21 H 0.37640 -0.04438 0.70768
 H22 H 0.34583 0.00029 0.79617
 H23 H 0.37996 0.05446 0.71291
 H24 H 0.44428 0.00057 0.75530
 C25 C 0.88773 0.49777 0.21540
 C26 C 0.86826 0.46717 0.22378
 C27 C 0.85233 0.46701 0.25245
 C28 C 0.85743 0.49825 0.27135
 C29 C 0.86356 0.52541 0.21843
 C30 C 0.84857 0.52673 0.24787
 C31 C 0.91042 0.50026 0.24502
 C32 C 0.89443 0.50168 0.27426
 H33 H 0.87095 0.44488 0.21106
 H34 H 0.84446 0.49827 0.29502
 H35 H 0.86217 0.54504 0.20035
 H36 H 0.93660 0.50094 0.24299
 C37 C 0.60972 0.50242 0.71915
 C38 C 0.62994 0.53305 0.72452
 C39 C 0.64935 0.53128 0.75082
 C40 C 0.64659 0.49919 0.77060
 C41 C 0.63457 0.47499 0.71934
 C42 C 0.65356 0.47303 0.74608
 C43 C 0.59088 0.49786 0.75134
 C44 C 0.61018 0.49555 0.77801
 H45 H 0.62701 0.55600 0.71163
 H46 H 0.66219 0.49787 0.79246
 H47 H 0.63556 0.45722 0.70068
 H48 H 0.56465 0.49717 0.75292
 C49 C 0.22123 0.10632 1.00005
 C50 C 0.22343 0.12602 1.03035
 C51 C 0.25013 0.14478 1.03189
 C52 C 0.27320 0.14270 1.00259
 C53 C 0.22484 0.13137 0.97161
 C54 C 0.25212 0.15020 0.97262
 C55 C 0.25334 0.08751 0.99818
 C56 C 0.28026 0.10644 1.00055
 H57 H 0.20497 0.12531 1.04923
 H58 H 0.29533 0.15797 1.00408
 H59 H 0.21054 0.13051 0.94975
 H60 H 0.25474 0.06165 0.99510
 C61 C 0.71847 0.38531 1.00036
 C62 C 0.71694 0.35991 0.97711
 C63 C 0.74498 0.34021 0.97479
 C64 C 0.77080 0.35042 0.99679
 C65 C 0.72803 0.37030 1.03117
 C66 C 0.75636 0.35063 1.02963
 C67 C 0.74745 0.40412 0.99025
 C68 C 0.77672 0.38497 0.98837
 H69 H 0.69825 0.35976 0.95868
 H70 H 0.79271 0.33495 0.99534
 H71 H 0.71597 0.37522 1.05393
 H72 H 0.74966 0.42996 0.99256
 C73 C 0.21992 0.88733 0.49565
 C74 C 0.22516 0.86642 0.46644
 C75 C 0.25328 0.84988 0.46646
 C76 C 0.27547 0.85686 0.49537
 C77 C 0.22576 0.86525 0.52560
 C78 C 0.25484 0.84976 0.52616
 C79 C 0.25018 0.91001 0.49470
 C80 C 0.27914 0.89385 0.49443
 H81 H 0.20777 0.86490 0.44695
 H82 H 0.29905 0.84402 0.49483
 H83 H 0.20969 0.86521 0.54651
 H84 H 0.24961 0.93606 0.49549
 C85 C 0.71776 0.60816 0.50373
 C86 C 0.72108 0.62983 0.53276
 C87 C 0.75006 0.64472 0.53533
 C88 C 0.77340 0.63851 0.50706
 C89 C 0.72499 0.63123 0.47441
 C90 C 0.75402 0.64683 0.47591
 C91 C 0.74752 0.58578 0.50430
 C92 C 0.77669 0.60127 0.50710
 H93 H 0.70254 0.63136 0.55142
 H94 H 0.79662 0.65198 0.50882
 H95 H 0.71120 0.63263 0.45230
 H96 H 0.74554 0.56023 0.49968
 C97 C -0.00134 0.21037 0.10945
 C98 C 0.03029 0.21501 0.12788
 C99 C 0.03195 0.24258 0.14448
 C100 C 0.00088 0.26280 0.14323
 C101 C -0.02681 0.21128 0.13683
 C102 C -0.02616 0.23893 0.15389
 C103 C -0.00590 0.24200 0.08933
 C104 C -0.00513 0.26922 0.10697
 H105 H 0.04991 0.19772 0.12891
 H106 H 0.00192 0.28500 0.15760
 H107 H -0.04474 0.19245 0.14153
 H108 H -0.00945 0.24271 0.06332
 C109 C -0.01118 0.72404 0.39240
 C110 C -0.03826 0.73295 0.37222
 C111 C -0.03308 0.76040 0.35139
 C112 C -0.00211 0.77683 0.35657
 C113 C 0.01871 0.72311 0.37023
 C114 C 0.02448 0.75082 0.35245
 C115 C -0.00618 0.75476 0.41222
 C116 C -0.00145 0.78267 0.39350
 H117 H -0.06155 0.72066 0.37362
 H118 H 0.00115 0.79893 0.34073
 H119 H 0.03661 0.70402 0.37241
 H120 H -0.00849 0.75515 0.43834
 C121 C 0.49965 0.22609 0.89302
 C122 C 0.47055 0.22979 0.87042
 C123 C 0.47073 0.25686 0.85062
 C124 C 0.50142 0.27810 0.85481
 C125 C 0.52858 0.22777 0.86926
 C126 C 0.52964 0.25468 0.84943
 C127 C 0.50153 0.25758 0.91110
 C128 C 0.50260 0.28464 0.89151
 H129 H 0.45172 0.21150 0.86932
 H130 H 0.50289 0.30006 0.83857
 H131 H 0.54658 0.20911 0.86697
 H132 H 0.50265 0.25834 0.93730
 C133 C 0.49613 0.71426 0.61302
 C134 C 0.52794 0.71395 0.63142
 C135 C 0.53450 0.74057 0.64802
 C136 C 0.50728 0.76613 0.64603
 C137 C 0.46995 0.72126 0.63797
 C138 C 0.47562 0.74781 0.65554
 C139 C 0.49787 0.74622 0.59191
 C140 C 0.50367 0.77332 0.60933
 H141 H 0.54556 0.69471 0.62919
 H142 H 0.51191 0.78792 0.66032
 H143 H 0.44767 0.70730 0.64022
 H144 H 0.49379 0.74806 0.56609
 C145 C 0.88841 1.00420 0.78809
 C146 C 0.86775 1.03224 0.78317
 C147 C 0.85139 1.03379 0.75280
 C148 C 0.85893 1.00666 0.73227
 C149 C 0.86661 0.97495 0.78222
 C150 C 0.85166 0.97557 0.75308
 C151 C 0.91158 1.00413 0.75854
 C152 C 0.89644 1.00688 0.72918
 H153 H 0.86703 1.05195 0.79980
 H154 H 0.84605 1.00769 0.70869
 H155 H 0.86805 0.95238 0.79625
 H156 H 0.93731 0.99957 0.76081
 C157 C 0.39154 0.50787 0.27972
 C158 C 0.36824 0.53591 0.27327
 C159 C 0.35002 0.53319 0.24627
 C160 C 0.35616 0.50212 0.22780
 C161 C 0.37051 0.47730 0.27974
 C162 C 0.35212 0.47399 0.25329
 C163 C 0.41140 0.50529 0.24781
 C164 C 0.39292 0.50259 0.22037
 H165 H 0.36744 0.55705 0.28803
 H166 H 0.34026 0.50076 0.20632
 H167 H 0.37403 0.45698 0.29674
 H168 H 0.43757 0.50366 0.24701
 C169 C 0.61560 1.00427 0.28203
 C170 C 0.62791 0.96953 0.27812
 C171 C 0.64322 0.96466 0.24934
 C172 C 0.64577 0.99599 0.22731
 C173 C 0.64510 1.02289 0.27797
 C174 C 0.66043 1.02104 0.24715
 C175 C 0.59492 1.01172 0.25170
 C176 C 0.61007 1.00581 0.22309
 H177 H 0.62541 0.95049 0.29673
 H178 H 0.65892 0.99231 0.20414
 H179 H 0.65623 1.03645 0.29691
 H180 H 0.56966 1.01868 0.25309
 C181 C 0.11070 0.49723 0.77535
 C182 C 0.13612 0.47032 0.77427
 C183 C 0.15274 0.46878 0.74562
 C184 C 0.14488 0.49743 0.72158
 C185 C 0.13132 0.52762 0.76928
 C186 C 0.14837 0.52859 0.74120
 C187 C 0.09046 0.49401 0.74431
 C188 C 0.10831 0.49362 0.71637
 H189 H 0.13820 0.45169 0.79328
 H190 H 0.15903 0.49791 0.69858
 H191 H 0.13333 0.54725 0.78574
 H192 H 0.06429 0.49163 0.74461
 C193 C 0.77842 0.88488 0.00352
 C194 C 0.77535 0.85720 0.02880
 C195 C 0.74746 0.83996 0.02763
 C196 C 0.72427 0.85202 0.00064
 C197 C 0.77187 0.87071 -0.02927
 C198 C 0.74471 0.85265 -0.03073
 C199 C 0.74769 0.90531 0.00946
 C200 C 0.71904 0.88819 0.00783
 H201 H 0.79210 0.85436 0.04885
 H202 H 0.70200 0.83720 -0.00171
 H203 H 0.78842 0.87374 -0.04974
 H204 H 0.74797 0.93097 0.01345
 C205 C 0.27843 0.38777 0.50457
 C206 C 0.26828 0.36394 0.53167
 C207 C 0.24039 0.34755 0.52610
 C208 C 0.22457 0.35659 0.49306
 C209 C 0.27930 0.36785 0.47407
 C210 C 0.25158 0.35209 0.46740
 C211 C 0.24892 0.40990 0.49880
 C212 C 0.22066 0.39375 0.49346
 H213 H 0.28181 0.36079 0.55399
 H214 H 0.20178 0.34317 0.48844
 H215 H 0.29871 0.36992 0.45623
 H216 H 0.25014 0.43607 0.49796
 C217 C 0.27824 0.60820 -0.00299
 C218 C 0.27097 0.63111 -0.03196
 C219 C 0.24178 0.64637 -0.03095
 C220 C 0.22193 0.63720 0.00003
 C221 C 0.27321 0.62778 0.02720
 C222 C 0.24459 0.64337 0.02891
 C223 C 0.24879 0.58471 -0.00197
 C224 C 0.21938 0.59990 -0.00099
 H225 H 0.28712 0.63340 -0.05278
 H226 H 0.19840 0.64991 0.00204
 H227 H 0.29081 0.62829 0.04659
 H228 H 0.25013 0.55875 -0.00356
 C229 C 0.78039 0.10992 0.50407
 C230 C 0.77760 0.13127 0.47549
 C231 C 0.74870 0.15024 0.47355
 C232 C 0.72746 0.14426 0.50223
 C233 C 0.77588 0.12953 0.53182
 C234 C 0.74793 0.14920 0.53134
 C235 C 0.75042 0.09027 0.50357
 C236 C 0.72081 0.10911 0.50088
 H237 H 0.79484 0.13056 0.45551
 H238 H 0.70544 0.15942 0.50178
 H239 H 0.79206 0.12838 0.55251
 H240 H 0.74944 0.06420 0.50453
 C241 C 1.01235 0.77708 0.89847
 C242 C 1.03878 0.77388 0.87241
 C243 C 1.03363 0.74950 0.85141
 C244 C 1.00113 0.73113 0.85775
 C245 C 0.98209 0.78205 0.87773
 C246 C 0.97497 0.75769 0.85804
 C247 C 1.00900 0.74308 0.91445
 C248 C 1.00324 0.71906 0.89348
 H249 H 1.05878 0.79066 0.86902
 H250 H 0.99588 0.71192 0.84039
 H251 H 0.96628 0.80282 0.87955
 H252 H 1.01233 0.73832 0.94021
 C253 C 0.50676 0.28128 0.39245
 C254 C 0.53455 0.27909 0.36743
 C255 C 0.53128 0.25454 0.34656
 C256 C 0.49982 0.23437 0.35204
 C257 C 0.47631 0.28323 0.37196
 C258 C 0.47240 0.25927 0.35115
 C259 C 0.50628 0.24712 0.40867
 C260 C 0.50229 0.22204 0.38790
 H261 H 0.55771 0.29112 0.36932
 H262 H 0.49501 0.21588 0.33393
 H263 H 0.45849 0.30227 0.37422
 H264 H 0.51131 0.24339 0.43424
 C265 C 1.00389 0.27597 0.59836
 C266 C 0.97585 0.27742 0.62293
 C267 C 0.97333 0.25141 0.64395
 C268 C 0.99998 0.22597 0.63903
 C269 C 1.03361 0.27128 0.62018
 C270 C 1.03203 0.24537 0.64143
 C271 C 0.99996 0.24371 0.58192
 C272 C 0.99779 0.21768 0.60282
 H273 H 0.95866 0.29714 0.62304
 H274 H 0.99778 0.20484 0.65630
 H275 H 1.05345 0.28834 0.62109
 H276 H 0.99990 0.24158 0.55581
 C277 C 0.50094 0.78009 0.11204
 C278 C 0.46949 0.77500 0.13165
 C279 C 0.46628 0.74543 0.14656
 C280 C 0.49581 0.72346 0.14208
 C281 C 0.52801 0.77292 0.13627
 C282 C 0.52578 0.74385 0.15219
 C283 C 0.50331 0.75118 0.08961
 C284 C 0.49849 0.72132 0.10457
 H285 H 0.45001 0.79254 0.13139
 H286 H 0.49323 0.70021 0.15605
 H287 H 0.55013 0.78684 0.13779
 H288 H 0.51007 0.75453 0.06434
 O289 O -0.01675 0.97619 0.91412
 O290 O 0.04043 0.99072 0.91308
 O291 O -0.01331 0.89952 0.99166
 O292 O -0.00094 0.90003 1.04749
 O293 O -0.09050 0.97322 0.98750
 O294 O -0.09106 1.02921 1.00348
 O295 O 0.06344 0.98916 1.07531
 O296 O 0.07479 0.94005 1.05311
 O297 O 0.07215 1.05513 0.99634
 O298 O 0.04230 1.06391 0.94506
 O299 O -0.00812 1.06341 1.06422
 O300 O -0.06060 1.02854 1.06976
 O301 O 0.01874 1.01394 1.09520
 O302 O -0.03064 0.99630 1.10199
 O303 O 0.01939 1.08361 1.01991
 O304 O 0.00430 1.08515 0.96321
 O305 O 0.09190 1.01054 1.02204
 O306 O 0.08918 0.94958 1.00787
 O307 O -0.06201 0.99911 0.93504
 O308 O -0.07030 1.04731 0.96095
 O309 O -0.06952 0.92831 1.01270
 O310 O -0.04277 0.92010 1.06338
 O311 O 0.01307 0.92049 0.94704
 O312 O 0.05560 0.95007 0.93087
 Zr313 Zr 0.01509 0.97070 0.95382
 O314 O 0.04592 1.00006 0.98066
 Zr315 Zr -0.02058 0.93973 1.02060
 O316 O 0.00801 0.96831 1.05037
 Zr317 Zr -0.05084 1.00500 0.98353
 O318 O -0.02299 1.03635 1.01094
 Zr319 Zr 0.05237 0.97894 1.02723
 O320 O 0.02523 0.94744 0.99891
 Zr321 Zr 0.02279 1.04421 0.98917
 O322 O -0.00678 1.01606 0.95927
 Zr323 Zr -0.01341 1.01374 1.05613
 O324 O -0.04440 0.98333 1.03001
 O325 O -0.02991 0.96016 0.97471
 O326 O 0.03204 1.02415 1.03523
 C327 C -0.04510 0.98881 0.91154
 C328 C 0.00220 0.89663 0.96483
 C329 C -0.09301 0.94445 0.99987
 C330 C 0.04766 1.00291 1.09790
 C331 C 0.09572 1.03850 1.00846
 C332 C 0.00480 1.08671 1.04722
 H333 H 0.06657 1.00279 0.96852
 H334 H -0.03553 1.05649 1.01297
 H335 H -0.04302 0.94592 0.96104
 H336 H 0.01106 0.95684 1.07158
 H337 H 0.05795 0.92924 1.06688
 H338 H 0.02178 0.89781 1.03998
 H339 H -0.01703 1.09035 0.97280
 H340 H -0.05296 1.05676 0.94678
 H341 H 0.10168 0.96303 0.99181
 H342 H 0.07277 0.94843 0.94742
 H343 H -0.05871 1.04571 1.08583
 H344 H -0.09711 1.01744 1.02398
 H345 H 0.03373 1.01357 0.91086
 H346 H 0.06149 1.05095 0.93932
 H347 H -0.05945 0.93575 1.07002
 H348 H -0.03461 0.97287 1.10011
 O349 O 0.48340 0.48810 0.40888
 O350 O 0.53786 0.49598 0.40850
 O351 O 0.48413 0.40642 0.48496
 O352 O 0.49571 0.40427 0.54030
 O353 O 0.40534 0.48035 0.48854
 O354 O 0.40125 0.53325 0.49228
 O355 O 0.55809 0.49285 0.57338
 O356 O 0.56749 0.44123 0.54435
 O357 O 0.56580 0.56363 0.49909
 O358 O 0.53754 0.57267 0.44586
 O359 O 0.48713 0.56572 0.56490
 O360 O 0.43366 0.52996 0.56855
 O361 O 0.51140 0.51325 0.59395
 O362 O 0.45918 0.49963 0.59745
 O363 O 0.51361 0.58914 0.52166
 O364 O 0.49830 0.59271 0.46446
 O365 O 0.58727 0.51754 0.52130
 O366 O 0.59115 0.46287 0.50752
 O367 O 0.43578 0.50509 0.43024
 O368 O 0.42896 0.55578 0.45875
 O369 O 0.42780 0.43349 0.50797
 O370 O 0.45479 0.42400 0.55755
 O371 O 0.50490 0.42949 0.43856
 O372 O 0.55686 0.45906 0.43427
 Zr373 Zr 0.51226 0.47842 0.45004
 O374 O 0.54153 0.50793 0.47862
 Zr375 Zr 0.47637 0.44522 0.51517
 O376 O 0.50382 0.47267 0.54659
 Zr377 Zr 0.44541 0.51124 0.47944
 O378 O 0.47144 0.54190 0.50956
 Zr379 Zr 0.54832 0.48496 0.52435
 O380 O 0.52231 0.45384 0.49432
 Zr381 Zr 0.51750 0.55124 0.48896
 O382 O 0.48993 0.52347 0.45688
 Zr383 Zr 0.48099 0.51714 0.55365
 O384 O 0.45153 0.48804 0.52526
 O385 O 0.46682 0.46695 0.46978
 O386 O 0.52662 0.52917 0.53427
 C387 C 0.45425 0.49866 0.40616
 C388 C 0.49506 0.40481 0.45594
 C389 C 0.40342 0.45111 0.50011
 C390 C 0.54056 0.50312 0.59666
 C391 C 0.58943 0.54711 0.51109
 C392 C 0.50069 0.59001 0.55006
 H393 H 0.56229 0.51208 0.46705
 H394 H 0.45875 0.56180 0.51270
 H395 H 0.45323 0.45343 0.45583
 H396 H 0.50648 0.46003 0.56717
 H397 H 0.55462 0.43500 0.56396
 H398 H 0.51877 0.40292 0.53369
 H399 H 0.47712 0.59754 0.47456
 H400 H 0.44508 0.56277 0.44198
 H401 H 0.59486 0.47086 0.48490
 H402 H 0.56248 0.44122 0.44988
 H403 H 0.43050 0.55316 0.56268
 H404 H 0.40353 0.53934 0.51511
 H405 H 0.54009 0.51958 0.41098
 H406 H 0.55817 0.56158 0.44118
 H407 H 0.43911 0.43994 0.56566
 H408 H 0.46242 0.47592 0.59858
 O409 O 0.43130 -0.06618 0.49632
 O410 O 0.46124 -0.07402 0.44698
 O411 O 0.51263 -0.07274 0.56471
 O412 O 0.55851 -0.04327 0.57451
 O413 O 0.44029 0.00318 0.57230
 O414 O 0.43189 0.05340 0.54195
 O415 O 0.59358 0.01805 0.48084
 O416 O 0.59401 -0.03811 0.50089
 O417 O 0.52002 0.01632 0.40815
 O418 O 0.46302 -0.00350 0.40805
 O419 O 0.51718 0.08948 0.47529
 O420 O 0.50265 0.09073 0.53389
 O421 O 0.57067 0.06442 0.49712
 O422 O 0.54432 0.07246 0.55020
 O423 O 0.49224 0.06680 0.43275
 O424 O 0.44333 0.03519 0.42652
 O425 O 0.56639 -0.00453 0.42981
 O426 O 0.57545 -0.05288 0.45309
 O427 O 0.40996 -0.02114 0.51824
 O428 O 0.40785 0.03386 0.50464
 O429 O 0.48641 -0.01935 0.59254
 O430 O 0.54065 0.00004 0.59076
 O431 O 0.48459 -0.09401 0.52322
 O432 O 0.50061 -0.09637 0.46822
 Zr433 Zr 0.48093 -0.05491 0.48949
 O434 O 0.50986 -0.02675 0.45693
 Zr435 Zr 0.51697 -0.02280 0.55232
 O436 O 0.54680 0.00751 0.52252
 Zr437 Zr 0.44995 0.01042 0.52230
 O438 O 0.47666 0.04143 0.49033
 Zr439 Zr 0.55423 -0.01451 0.47830
 O440 O 0.52724 -0.04672 0.50928
 Zr441 Zr 0.48703 0.01784 0.44722
 O442 O 0.45653 -0.01155 0.47745
 Zr443 Zr 0.52257 0.05090 0.50991
 O444 O 0.49441 0.02232 0.54357
 O445 O 0.47156 -0.03389 0.53368
 O446 O 0.53235 0.02972 0.46593
 C447 C 0.40735 -0.04941 0.50650
 C448 C 0.49958 -0.09666 0.55032
 C449 C 0.45781 -0.00801 0.59576
 C450 C 0.59523 0.04823 0.48713
 C451 C 0.54958 0.00695 0.40620
 C452 C 0.50473 0.09102 0.44675
 H453 H 0.51347 -0.03881 0.43696
 H454 H 0.46396 0.06139 0.48633
 H455 H 0.45800 -0.04795 0.54832
 H456 H 0.56750 0.01138 0.53370
 H457 H 0.58581 -0.05875 0.51092
 H458 H 0.57736 -0.03723 0.56062
 H459 H 0.43508 0.05252 0.44027
 H460 H 0.40601 0.02833 0.48160
 H461 H 0.55828 -0.06924 0.45036
 H462 H 0.52208 -0.10020 0.47823
 H463 H 0.48182 0.09623 0.52334
 H464 H 0.44867 0.06123 0.55684
 H465 H 0.44558 -0.05786 0.43833
 H466 H 0.47560 -0.02264 0.40175
 H467 H 0.53132 0.02200 0.59194
 H468 H 0.56270 0.05869 0.55727
 O469 O -0.07375 0.42827 0.98948
 O470 O -0.04354 0.42028 0.94062
 O471 O 0.00044 0.42136 1.06202
 O472 O 0.04897 0.44466 1.06903
 O473 O -0.06794 0.49801 1.06342
 O474 O -0.07206 0.54926 1.03294
 O475 O 0.08988 0.51042 0.97802
 O476 O 0.08913 0.45475 0.99947
 O477 O 0.01936 0.51113 0.90364
 O478 O -0.03123 0.49527 0.89739
 O479 O 0.01672 0.58327 0.97325
 O480 O -0.00091 0.58411 1.03013
 O481 O 0.06818 0.55577 0.99861
 O482 O 0.03790 0.56373 1.04940
 O483 O -0.00723 0.56257 0.92907
 O484 O -0.05835 0.53140 0.92272
 O485 O 0.06271 0.48487 0.92581
 O486 O 0.07225 0.43899 0.95194
 O487 O -0.09569 0.47471 1.00762
 O488 O -0.09781 0.52730 0.99600
 O489 O -0.02219 0.47785 1.08700
 O490 O 0.03335 0.48998 1.08792
 O491 O -0.02119 0.40009 1.01700
 O492 O -0.00418 0.39851 0.96108
 Zr493 Zr -0.02409 0.43940 0.98325
 O494 O 0.00635 0.46753 0.95229
 Zr495 Zr 0.00948 0.47008 1.04797
 O496 O 0.04148 0.49962 1.01966
 Zr497 Zr -0.05524 0.50522 1.01436
 O498 O -0.02614 0.53617 0.98458
 Zr499 Zr 0.05028 0.47820 0.97513
 O500 O 0.02135 0.44641 1.00505
 Zr501 Zr -0.01429 0.51308 0.94173
 O502 O -0.04675 0.48339 0.96976
 Zr503 Zr 0.01895 0.54380 1.00687
 O504 O -0.01170 0.51567 1.03839
 O505 O -0.03521 0.46044 1.02697
 O506 O 0.03044 0.52343 0.96269
 C507 C -0.09803 0.44570 0.99753
 C508 C -0.01114 0.39762 1.04637
 C509 C -0.05105 0.48921 1.08814
 C510 C 0.09224 0.53950 0.98787
 C511 C 0.04728 0.49786 0.90179
 C512 C 0.00450 0.58624 0.94476
 H513 H 0.01007 0.45541 0.93243
 H514 H -0.03816 0.55648 0.98019
 H515 H -0.04988 0.44696 1.04105
 H516 H 0.06180 0.50275 1.03175
 H517 H 0.08042 0.43442 1.00970
 H518 H 0.06910 0.45380 1.05918
 H519 H -0.07581 0.51584 0.92908
 H520 H -0.09158 0.53955 0.97587
 H521 H 0.05495 0.42288 0.94874
 H522 H 0.01602 0.39289 0.97279
 H523 H -0.02131 0.59000 1.01897
 H524 H -0.05667 0.55546 1.04997
 H525 H -0.05956 0.43618 0.93214
 H526 H -0.03093 0.47140 0.89949
 H527 H 0.02798 0.51326 1.08745
 H528 H 0.05686 0.55067 1.05630
 O529 O 0.02256 0.40864 0.50714
 O530 O 0.00214 0.41342 0.45227
 O531 O 0.09327 0.48474 0.50883
 O532 O 0.09076 0.54206 0.49712
 O533 O 0.02258 0.47376 0.58586
 O534 O -0.03747 0.49017 0.58732
 O535 O -0.00407 0.57653 0.43913
 O536 O 0.04660 0.56018 0.42478
 O537 O -0.06399 0.50012 0.42600
 O538 O -0.06658 0.44261 0.45388
 O539 O -0.07302 0.55889 0.50769
 O540 O -0.04281 0.55500 0.56234
 O541 O -0.02414 0.59206 0.48770
 O542 O -0.00742 0.58977 0.53960
 O543 O -0.09282 0.51557 0.48160
 O544 O -0.09456 0.46153 0.48909
 O545 O -0.01860 0.52419 0.40576
 O546 O 0.04445 0.51551 0.40924
 O547 O -0.00541 0.42237 0.55227
 O548 O -0.04786 0.44638 0.57268
 O549 O 0.06627 0.50113 0.56512
 O550 O 0.07042 0.55430 0.54140
 O551 O 0.07306 0.44293 0.48083
 O552 O 0.04247 0.43433 0.43478
 Zr553 Zr 0.02295 0.45141 0.47833
 O554 O -0.00758 0.48125 0.44981
 Zr555 Zr 0.05243 0.51365 0.51741
 O556 O 0.02186 0.54607 0.49197
 Zr557 Zr -0.01105 0.47276 0.54738
 O558 O -0.04439 0.50231 0.52178
 Zr559 Zr 0.01156 0.52838 0.44622
 O560 O 0.04482 0.49726 0.47038
 Zr561 Zr -0.05185 0.48649 0.47444
 O562 O -0.02245 0.45393 0.50194
 Zr563 Zr -0.02363 0.54857 0.51516
 O564 O 0.00878 0.51970 0.54333
 O565 O 0.03354 0.46711 0.52447
 O566 O -0.03365 0.53333 0.46834
 C567 C 0.00829 0.40178 0.53418
 C568 C 0.09661 0.45862 0.49319
 C569 C 0.05104 0.48624 0.58851
 C570 C -0.01639 0.59754 0.45790
 C571 C -0.04735 0.51319 0.40236
 C572 C -0.09620 0.54273 0.49537
 H573 H -0.00984 0.47122 0.42853
 H574 H -0.06490 0.50283 0.53432
 H575 H 0.04829 0.45220 0.53651
 H576 H 0.03240 0.56759 0.49005
 H577 H 0.05956 0.56888 0.44258
 H578 H 0.09317 0.53574 0.47431
 H579 H -0.09070 0.45327 0.51149
 H580 H -0.06392 0.44034 0.55626
 H581 H 0.03281 0.50109 0.39457
 H582 H 0.04678 0.45375 0.42074
 H583 H -0.05987 0.57184 0.56111
 H584 H -0.02402 0.50711 0.59707
 H585 H -0.01775 0.40632 0.46413
 H586 H -0.05628 0.44157 0.43220
 H587 H 0.05440 0.55920 0.55852
 H588 H 0.01607 0.59214 0.53523
 O589 O 0.51646 0.91182 0.01855
 O590 O 0.50538 0.91288 -0.03653
 O591 O 0.59475 0.98528 0.01634
 O592 O 0.59773 1.03803 0.00130
 O593 O 0.52357 0.98557 0.09399
 O594 O 0.46761 0.99752 0.09786
 O595 O 0.50390 1.07741 -0.05923
 O596 O 0.55457 1.05193 -0.06873
 O597 O 0.43626 0.99989 -0.06401
 O598 O 0.42983 0.94674 -0.03096
 O599 O 0.43191 1.06682 0.01285
 O600 O 0.46455 1.07142 0.06405
 O601 O 0.48180 1.09579 -0.01273
 O602 O 0.50057 1.09600 0.04152
 O603 O 0.41025 1.02359 -0.01205
 O604 O 0.40660 0.96866 0.00410
 O605 O 0.47827 1.02787 -0.08680
 O606 O 0.53284 1.01128 -0.09312
 O607 O 0.49901 0.93140 0.06652
 O608 O 0.44915 0.95776 0.07665
 O609 O 0.56920 1.00701 0.07084
 O610 O 0.57275 1.05989 0.04274
 O611 O 0.57166 0.94066 -0.00477
 O612 O 0.54310 0.93840 -0.05622
 Zr613 Zr 0.52291 0.95323 -0.01190
 O614 O 0.49195 0.98204 -0.04094
 Zr615 Zr 0.55535 1.01690 0.02233
 O616 O 0.52576 1.04878 -0.00538
 Zr617 Zr 0.49072 0.98059 0.05584
 O618 O 0.45855 1.01060 0.02985
 Zr619 Zr 0.51290 1.02807 -0.04932
 O620 O 0.54599 0.99771 -0.02342
 Zr621 Zr 0.44902 0.99113 -0.01540
 O622 O 0.47820 0.95888 0.01226
 Zr623 Zr 0.48123 1.05514 0.01881
 O624 O 0.51235 1.02633 0.04826
 O625 O 0.53455 0.97179 0.03279
 O626 O 0.46889 1.03682 -0.02606
 C627 C 0.50717 0.90831 0.04825
 C628 C 0.59597 0.95626 0.00619
 C629 C 0.55301 0.99557 0.09548
 C630 C 0.49196 1.09978 -0.04197
 C631 C 0.45004 1.01460 -0.08828
 C632 C 0.40819 1.05148 0.00042
 H633 H 0.48771 0.97072 -0.06119
 H634 H 0.43864 1.01306 0.04288
 H635 H 0.54851 0.95734 0.04623
 H636 H 0.53744 1.06951 -0.00931
 H637 H 0.57352 1.03868 -0.06208
 H638 H 0.59081 1.05569 -0.01389
 H639 H 0.40490 0.97434 0.02713
 H640 H 0.44012 0.94380 0.05988
 H641 H 0.52558 0.98868 -0.09547
 H642 H 0.55974 0.95473 -0.06285
 H643 H 0.44487 1.05885 0.07029
 H644 H 0.47538 1.01996 0.10049
 H645 H 0.48175 0.91207 -0.03249
 H646 H 0.43924 0.94265 -0.05256
 H647 H 0.55762 1.06513 0.06053
 H648 H 0.52224 1.10048 0.03191
 O649 O 0.41060 0.52480 0.01464
 O650 O 0.40564 0.47103 -0.00268
 O651 O 0.48264 0.51711 0.08919
 O652 O 0.53396 0.50582 0.09387
 O653 O 0.48614 0.59343 0.01228
 O654 O 0.50726 0.59216 -0.04441
 O655 O 0.56811 0.43612 0.01038
 O656 O 0.53736 0.42613 0.05582
 O657 O 0.49300 0.43245 -0.06515
 O658 O 0.44583 0.46245 -0.07624
 O659 O 0.56799 0.50195 -0.07079
 O660 O 0.57313 0.55562 -0.04530
 O661 O 0.59161 0.47674 -0.01977
 O662 O 0.59667 0.53257 -0.00184
 O663 O 0.52221 0.48142 -0.09261
 O664 O 0.46496 0.50420 -0.09495
 O665 O 0.51974 0.41123 -0.02139
 O666 O 0.49488 0.40767 0.03509
 O667 O 0.43337 0.56682 -0.01444
 O668 O 0.46406 0.57618 -0.06142
 O669 O 0.50936 0.57237 0.05774
 O670 O 0.55950 0.54010 0.06510
 O671 O 0.43756 0.49459 0.06796
 O672 O 0.42360 0.44855 0.03621
 Zr673 Zr 0.44788 0.49049 0.01808
 O674 O 0.47474 0.45844 -0.01005
 Zr675 Zr 0.51429 0.52241 0.04913
 O676 O 0.54390 0.49100 0.02310
 Zr677 Zr 0.48276 0.55428 -0.01844
 O678 O 0.51200 0.52510 -0.04755
 Zr679 Zr 0.51898 0.44826 0.01278
 O680 O 0.49060 0.47754 0.04291
 Zr681 Zr 0.48791 0.48127 -0.05456
 O682 O 0.45719 0.51177 -0.02822
 Zr683 Zr 0.55480 0.51218 -0.02286
 O684 O 0.52744 0.54516 0.00460
 O685 O 0.47057 0.53427 0.02713
 O686 O 0.53165 0.46866 -0.03243
 C687 C 0.40912 0.55262 -0.00011
 C688 C 0.45419 0.50449 0.09202
 C689 C 0.49847 0.59648 0.04041
 C690 C 0.59244 0.44878 -0.00487
 C691 C 0.50719 0.40917 -0.04973
 C692 C 0.55206 0.49033 -0.09435
 H693 H 0.46190 0.43859 -0.01327
 H694 H 0.51702 0.53693 -0.06827
 H695 H 0.45710 0.54833 0.04070
 H696 H 0.56349 0.48640 0.03610
 H697 H 0.52681 0.43694 0.07413
 H698 H 0.54447 0.48485 0.08993
 H699 H 0.47970 0.52130 -0.10388
 H700 H 0.45076 0.55948 -0.07173
 H701 H 0.47966 0.39853 0.01936
 H702 H 0.44078 0.43325 0.04301
 H703 H 0.59328 0.55075 -0.05746
 H704 H 0.52801 0.59554 -0.03308
 H705 H 0.40387 0.48102 -0.02478
 H706 H 0.43413 0.44932 -0.05936
 H707 H 0.56671 0.55704 0.04902
 H708 H 0.60155 0.52018 0.01848
 O709 O -0.09155 0.02043 0.52460
 O710 O -0.09592 -0.03534 0.50932
 O711 O -0.01602 0.01202 0.59670
 O712 O 0.03587 -0.00212 0.59909
 O713 O -0.01609 0.08833 0.52304
 O714 O 0.00457 0.08935 0.46609
 O715 O 0.06622 -0.06895 0.50991
 O716 O 0.03828 -0.07480 0.56235
 O717 O -0.01084 -0.07134 0.44221
 O718 O -0.06006 -0.04315 0.43418
 O719 O 0.06148 -0.00367 0.43337
 O720 O 0.06652 0.05221 0.45794
 O721 O 0.08863 -0.02539 0.48284
 O722 O 0.09424 0.02903 0.49876
 O723 O 0.01367 -0.02040 0.41305
 O724 O -0.04474 -0.00006 0.41593
 O725 O 0.01304 -0.09442 0.48688
 O726 O -0.00259 -0.09960 0.53929
 O727 O -0.06927 0.06104 0.49337
 O728 O -0.03835 0.07529 0.44913
 O729 O 0.00976 0.06594 0.56689
 O730 O 0.06005 0.03489 0.57078
 O731 O -0.06440 -0.00445 0.57709
 O732 O -0.07459 -0.05526 0.55180
 Zr733 Zr -0.05384 -0.01377 0.52821
 O734 O -0.02821 -0.04567 0.49881
 Zr735 Zr 0.01458 0.01682 0.55598
 O736 O 0.04307 -0.01360 0.52769
 Zr737 Zr -0.01972 0.05025 0.49046
 O738 O 0.00698 0.02121 0.45911
 Zr739 Zr 0.01747 -0.05620 0.51883
 O740 O -0.00995 -0.02755 0.55064
 Zr741 Zr -0.01758 -0.02276 0.45363
 O742 O -0.04639 0.00793 0.48168
 Zr743 Zr 0.05085 0.00830 0.48141
 O744 O 0.02575 0.04059 0.51133
 O745 O -0.02995 0.02953 0.53602
 O746 O 0.02736 -0.03533 0.47309
 C747 C -0.09312 0.04795 0.50913
 C748 C -0.04625 0.00511 0.60013
 C749 C -0.00317 0.08990 0.55124
 C750 C 0.09010 -0.05425 0.49531
 C751 C 0.00140 -0.09546 0.45818
 C752 C 0.04392 -0.01358 0.41007
 H753 H -0.04114 -0.06563 0.49642
 H754 H 0.01065 0.03323 0.43821
 H755 H -0.04317 0.04369 0.54965
 H756 H 0.06356 -0.01833 0.53918
 H757 H 0.02393 -0.06845 0.58040
 H758 H 0.04863 -0.02127 0.59321
 H759 H -0.03081 0.01675 0.40519
 H760 H -0.04932 0.05886 0.43618
 H761 H -0.02622 -0.09627 0.54104
 H762 H -0.05918 -0.06256 0.56883
 H763 H 0.08494 0.04748 0.44328
 H764 H 0.02463 0.09347 0.47835
 H765 H -0.09911 -0.02530 0.48742
 H766 H -0.07015 -0.05720 0.45138
 H767 H 0.06661 0.05205 0.55464
 H768 H 0.09841 0.01944 0.52063
 O769 O 0.73435 0.15196 0.25931
 O770 O 0.78947 0.15188 0.26504
 O771 O 0.72303 0.22938 0.33777
 O772 O 0.72624 0.28202 0.33893
 O773 O 0.65765 0.22387 0.25195
 O774 O 0.66528 0.24383 0.19738
 O775 O 0.81171 0.31572 0.26640
 O776 O 0.80894 0.28540 0.31649
 O777 O 0.83183 0.24282 0.19739
 O778 O 0.80381 0.18882 0.18759
 O779 O 0.75881 0.30955 0.17605
 O780 O 0.70732 0.32025 0.19323
 O781 O 0.77394 0.33698 0.23223
 O782 O 0.71180 0.33534 0.23887
 O783 O 0.78593 0.26510 0.16018
 O784 O 0.77181 0.20933 0.15731
 O785 O 0.84491 0.26513 0.24520
 O786 O 0.84038 0.24795 0.29682
 O787 O 0.69318 0.17276 0.22890
 O788 O 0.69128 0.20525 0.18037
 O789 O 0.67144 0.24697 0.29915
 O790 O 0.69666 0.30173 0.30455
 O791 O 0.74119 0.18138 0.32068
 O792 O 0.79853 0.17540 0.30393
 Zr793 Zr 0.76076 0.19287 0.27364
 O794 O 0.79639 0.22130 0.24888
 Zr795 Zr 0.72085 0.25797 0.29493
 O796 O 0.75510 0.28921 0.27231
 Zr797 Zr 0.70245 0.22316 0.22636
 O798 O 0.73557 0.25358 0.20037
 Zr799 Zr 0.80035 0.26637 0.27034
 O800 O 0.76715 0.23665 0.29721
 Zr801 Zr 0.78192 0.23273 0.20095
 O802 O 0.74819 0.20071 0.22438
 Zr803 Zr 0.74227 0.29764 0.22355
 O804 O 0.70564 0.26885 0.24724
 O805 O 0.71474 0.21283 0.27451
 O806 O 0.78856 0.27757 0.22198
 C807 C 0.70932 0.14876 0.24122
 C808 C 0.72978 0.19949 0.34299
 C809 C 0.65084 0.23418 0.28027
 C810 C 0.79916 0.33954 0.25029
 C811 C 0.85221 0.25457 0.21719
 C812 C 0.77503 0.29392 0.15495
 H813 H 0.81727 0.20965 0.24951
 H814 H 0.72747 0.25718 0.17803
 H815 H 0.69924 0.19777 0.28568
 H816 H 0.75591 0.30926 0.28466
 H817 H 0.79968 0.26989 0.33299
 H818 H 0.74872 0.29042 0.33910
 H819 H 0.75150 0.21857 0.14842
 H820 H 0.70972 0.19146 0.17416
 H821 H 0.83667 0.22446 0.30009
 H822 H 0.79948 0.18958 0.32276
 H823 H 0.69576 0.30274 0.18230
 H824 H 0.66024 0.26512 0.20642
 H825 H 0.79822 0.15515 0.24279
 H826 H 0.82340 0.18538 0.20096
 H827 H 0.68022 0.30525 0.28741
 H828 H 0.72104 0.34381 0.25896
 O829 O 0.76739 0.77067 0.84228
 O830 O 0.75853 0.71493 0.84584
 O831 O 0.84605 0.77504 0.76940
 O832 O 0.84859 0.75540 0.71508
 O833 O 0.77194 0.84385 0.76683
 O834 O 0.71600 0.84132 0.74289
 O835 O 0.76555 0.68856 0.68402
 O836 O 0.81189 0.67880 0.71020
 O837 O 0.69578 0.67797 0.76184
 O838 O 0.68576 0.70880 0.81089
 O839 O 0.68503 0.75434 0.68860
 O840 O 0.71355 0.80580 0.67689
 O841 O 0.73691 0.73013 0.66151
 O842 O 0.75193 0.78719 0.65587
 O843 O 0.66488 0.72775 0.73355
 O844 O 0.66025 0.74627 0.78489
 O845 O 0.74135 0.65929 0.73830
 O846 O 0.80168 0.66560 0.75591
 O847 O 0.73829 0.81212 0.81997
 O848 O 0.69912 0.82940 0.78661
 O849 O 0.81386 0.82527 0.73709
 O850 O 0.82786 0.79491 0.69358
 O851 O 0.82512 0.74960 0.81456
 O852 O 0.79898 0.69908 0.82578
 Zr853 Zr 0.77640 0.74012 0.80383
 O854 O 0.74899 0.70738 0.77756
 Zr855 Zr 0.80692 0.77521 0.73689
 O856 O 0.78038 0.74450 0.70745
 Zr857 Zr 0.73977 0.80385 0.76973
 O858 O 0.71010 0.77358 0.74246
 Zr859 Zr 0.77150 0.70035 0.73259
 O860 O 0.80137 0.72982 0.76075
 Zr861 Zr 0.70396 0.72795 0.76590
 O862 O 0.72997 0.75964 0.79527
 Zr863 Zr 0.73394 0.76353 0.69876
 O864 O 0.76229 0.79654 0.72467
 O865 O 0.78521 0.78526 0.78131
 O866 O 0.72539 0.71811 0.72130
 C867 C 0.74998 0.79616 0.84455
 C868 C 0.84858 0.76304 0.79841
 C869 C 0.79889 0.84791 0.75126
 C870 C 0.75091 0.70251 0.66008
 C871 C 0.71343 0.65480 0.75161
 C872 C 0.66203 0.74005 0.70470
 H873 H 0.74702 0.68710 0.79087
 H874 H 0.68898 0.78436 0.73898
 H875 H 0.79779 0.79976 0.79518
 H876 H 0.79273 0.74152 0.68715
 H877 H 0.82474 0.69658 0.69971
 H878 H 0.85337 0.73488 0.72723
 H879 H 0.66644 0.76382 0.79936
 H880 H 0.68037 0.81447 0.78580
 H881 H 0.78999 0.65736 0.77556
 H882 H 0.81587 0.69190 0.81049
 H883 H 0.69577 0.81293 0.69115
 H884 H 0.73013 0.84749 0.72413
 H885 H 0.73542 0.72089 0.84807
 H886 H 0.69997 0.69082 0.81829
 H887 H 0.80986 0.80480 0.68099
 H888 H 0.77274 0.77696 0.65013
 O889 O 0.32753 0.26745 0.79834
 O890 O 0.29715 0.31184 0.80849
 O891 O 0.25005 0.19544 0.82781
 O892 O 0.20226 0.18131 0.80873
 O893 O 0.31508 0.17669 0.74844
 O894 O 0.31864 0.19649 0.69357
 O895 O 0.15847 0.26197 0.73302
 O896 O 0.16182 0.25373 0.78971
 O897 O 0.23278 0.33577 0.71434
 O898 O 0.29164 0.33704 0.72264
 O899 O 0.22370 0.25271 0.65540
 O900 O 0.24496 0.19491 0.66446
 O901 O 0.17571 0.22980 0.69286
 O902 O 0.20444 0.18218 0.68646
 O903 O 0.24743 0.30083 0.66621
 O904 O 0.30382 0.31068 0.68596
 O905 O 0.18834 0.31799 0.74199
 O906 O 0.18349 0.30066 0.79711
 O907 O 0.34526 0.23513 0.75852
 O908 O 0.34095 0.24009 0.70150
 O909 O 0.27221 0.15937 0.77953
 O910 O 0.21453 0.15666 0.76586
 O911 O 0.27918 0.24049 0.83799
 O912 O 0.25602 0.29634 0.83006
 Zr913 Zr 0.27670 0.26797 0.79364
 O914 O 0.24568 0.29467 0.76242
 Zr915 Zr 0.24028 0.19893 0.77814
 O916 O 0.20699 0.22244 0.74705
 Zr917 Zr 0.30279 0.22419 0.73272
 O918 O 0.27210 0.24837 0.69912
 Zr919 Zr 0.20061 0.27092 0.75986
 O920 O 0.23066 0.24585 0.79405
 Zr921 Zr 0.26326 0.29533 0.71449
 O922 O 0.29660 0.27240 0.74639
 Zr923 Zr 0.22623 0.22599 0.69973
 O924 O 0.25824 0.19915 0.73032
 O925 O 0.28576 0.22085 0.78033
 O926 O 0.21744 0.27379 0.71202
 C927 C 0.35025 0.25373 0.78237
 C928 C 0.26604 0.21328 0.84695
 C929 C 0.29985 0.15506 0.76595
 C930 C 0.15331 0.24442 0.70847
 C931 C 0.20441 0.34026 0.72595
 C932 C 0.23298 0.28153 0.64728
 H933 H 0.24371 0.31683 0.77043
 H934 H 0.28208 0.24853 0.67728
 H935 H 0.30135 0.20962 0.79497
 H936 H 0.18646 0.20999 0.74818
 H937 H 0.17149 0.24432 0.80984
 H938 H 0.18212 0.19210 0.80139
 H939 H 0.30664 0.29551 0.66816
 H940 H 0.34268 0.26380 0.70374
 H941 H 0.20134 0.31521 0.80315
 H942 H 0.23670 0.28441 0.83856
 H943 H 0.26126 0.20716 0.65120
 H944 H 0.30101 0.18094 0.68929
 H945 H 0.30007 0.32546 0.78850
 H946 H 0.28235 0.34784 0.74157
 H947 H 0.22624 0.14696 0.74757
 H948 H 0.19860 0.17045 0.70694
 O949 O 0.17479 0.74579 0.31175
 O950 O 0.19456 0.69451 0.32007
 O951 O 0.26729 0.79961 0.32241
 O952 O 0.31136 0.80986 0.29347
 O953 O 0.19441 0.82731 0.24770
 O954 O 0.18277 0.80582 0.19573
 O955 O 0.33371 0.71700 0.22901
 O956 O 0.33770 0.72817 0.28258
 O957 O 0.24960 0.65625 0.22359
 O958 O 0.19265 0.66250 0.24338
 O959 O 0.25958 0.73315 0.15519
 O960 O 0.25446 0.79339 0.15819
 O961 O 0.31627 0.74558 0.18439
 O962 O 0.29739 0.80005 0.17660
 O963 O 0.22814 0.69171 0.17502
 O964 O 0.17742 0.68902 0.20535
 O965 O 0.29813 0.66908 0.24577
 O966 O 0.30717 0.68871 0.30175
 O967 O 0.15784 0.77743 0.26903
 O968 O 0.15442 0.76679 0.21269
 O969 O 0.24196 0.83869 0.27261
 O970 O 0.29685 0.83176 0.24930
 O971 O 0.23223 0.76096 0.34111
 O972 O 0.24029 0.70166 0.33752
 Zr973 Zr 0.22279 0.73322 0.30021
 O974 O 0.24605 0.70029 0.27009
 Zr975 Zr 0.26779 0.79484 0.27172
 O976 O 0.29339 0.76451 0.24074
 Zr977 Zr 0.19781 0.77802 0.23695
 O978 O 0.22038 0.74718 0.20405
 Zr979 Zr 0.29337 0.71686 0.26005
 O980 O 0.27134 0.74796 0.29313
 Zr981 Zr 0.22338 0.70005 0.22475
 O982 O 0.19747 0.73012 0.25628
 Zr983 Zr 0.26900 0.76124 0.19628
 O984 O 0.24508 0.79480 0.22615
 O985 O 0.22028 0.78059 0.28184
 O986 O 0.27138 0.71375 0.21469
 C987 C 0.15327 0.76297 0.29679
 C988 C 0.25184 0.78458 0.34570
 C989 C 0.21408 0.84668 0.26134
 C990 C 0.33799 0.72952 0.20041
 C991 C 0.27866 0.64940 0.23245
 C992 C 0.24260 0.70727 0.15155
 H993 H 0.24581 0.67849 0.28071
 H994 H 0.20788 0.74786 0.18368
 H995 H 0.20905 0.79473 0.29714
 H996 H 0.31570 0.77304 0.23795
 H997 H 0.33235 0.74193 0.30103
 H998 H 0.32840 0.79451 0.28716
 H999 H 0.17198 0.70642 0.18923
 H1000 H 0.14753 0.74505 0.22102
 H1001 H 0.29228 0.66998 0.30450
 H1002 H 0.26286 0.70848 0.34176
 H1003 H 0.23096 0.78997 0.15522
 H1004 H 0.20097 0.82055 0.18954
 H1005 H 0.18202 0.68601 0.30185
 H1006 H 0.20367 0.65157 0.26195
 H1007 H 0.28500 0.84001 0.22993
 H1008 H 0.31329 0.80592 0.19325
 O1009 O 0.15808 0.73141 0.74967
 O1010 O 0.16778 0.75271 0.69494
 O1011 O 0.22823 0.65850 0.76271
 O1012 O 0.28191 0.65390 0.76067
 O1013 O 0.21833 0.73409 0.83604
 O1014 O 0.23050 0.78927 0.83670
 O1015 O 0.33337 0.74752 0.69808
 O1016 O 0.31078 0.69565 0.69071
 O1017 O 0.26319 0.81444 0.67578
 O1018 O 0.20884 0.82508 0.69242
 O1019 O 0.31301 0.82018 0.76591
 O1020 O 0.30891 0.78527 0.81884
 O1021 O 0.34572 0.76905 0.74644
 O1022 O 0.33905 0.75349 0.80021
 O1023 O 0.27638 0.84198 0.73085
 O1024 O 0.21594 0.84312 0.73618
 O1025 O 0.28838 0.76885 0.66076
 O1026 O 0.27191 0.71318 0.65830
 O1027 O 0.17017 0.75603 0.79658
 O1028 O 0.19594 0.80725 0.80556
 O1029 O 0.24280 0.68766 0.82099
 O1030 O 0.29767 0.67975 0.80243
 O1031 O 0.19298 0.68046 0.72637
 O1032 O 0.19072 0.71279 0.67903
 Zr1033 Zr 0.20319 0.73025 0.72488
 O1034 O 0.23766 0.75929 0.69948
 Zr1035 Zr 0.25939 0.69775 0.77300
 O1036 O 0.29647 0.72552 0.74953
 Zr1037 Zr 0.22048 0.76426 0.79405
 O1038 O 0.25581 0.79478 0.77180
 Zr1039 Zr 0.28343 0.73716 0.70141
 O1040 O 0.24810 0.70605 0.72356
 Zr1041 Zr 0.24440 0.80321 0.72264
 O1042 O 0.20677 0.77569 0.74598
 Zr1043 Zr 0.30060 0.77080 0.77089
 O1044 O 0.26611 0.74157 0.79669
 O1045 O 0.21408 0.71944 0.77330
 O1046 O 0.29017 0.78196 0.72234
 C1047 C 0.15017 0.74308 0.77712
 C1048 C 0.20427 0.65630 0.74295
 C1049 C 0.22916 0.70550 0.84202
 C1050 C 0.35350 0.75939 0.71816
 C1051 C 0.27865 0.79781 0.65486
 C1052 C 0.30138 0.84410 0.74909
 H1053 H 0.23008 0.76281 0.67696
 H1054 H 0.25678 0.81495 0.78393
 H1055 H 0.19800 0.70517 0.78469
 H1056 H 0.31723 0.71361 0.75037
 H1057 H 0.29709 0.67660 0.69675
 H1058 H 0.30167 0.65958 0.74794
 H1059 H 0.22302 0.84939 0.75795
 H1060 H 0.18370 0.81431 0.78601
 H1061 H 0.25324 0.72427 0.64796
 H1062 H 0.20923 0.69960 0.67186
 H1063 H 0.29814 0.80639 0.82139
 H1064 H 0.25198 0.78179 0.84435
 H1065 H 0.16244 0.77360 0.70467
 H1066 H 0.20084 0.80836 0.67787
 H1067 H 0.30106 0.69540 0.81971
 H1068 H 0.33918 0.72970 0.79866
 O1069 O 0.26027 0.19012 0.17815
 O1070 O 0.30746 0.17896 0.20826
 O1071 O 0.19152 0.17840 0.26409
 O1072 O 0.17301 0.21194 0.30403
 O1073 O 0.18030 0.26220 0.18817
 O1074 O 0.20891 0.30418 0.17093
 O1075 O 0.26962 0.26860 0.33945
 O1076 O 0.25172 0.21478 0.34277
 O1077 O 0.34242 0.26976 0.26527
 O1078 O 0.34662 0.25675 0.21202
 O1079 O 0.26909 0.34245 0.26218
 O1080 O 0.20829 0.33897 0.24657
 O1081 O 0.24514 0.31311 0.31708
 O1082 O 0.19823 0.32432 0.29248
 O1083 O 0.31393 0.32099 0.24025
 O1084 O 0.32020 0.28937 0.18768
 O1085 O 0.32207 0.24631 0.31179
 O1086 O 0.29515 0.19472 0.32116
 O1087 O 0.23265 0.23325 0.15815
 O1088 O 0.25302 0.29059 0.15753
 O1089 O 0.16074 0.22934 0.22889
 O1090 O 0.15853 0.25159 0.28359
 O1091 O 0.23408 0.15828 0.23637
 O1092 O 0.28925 0.15780 0.24837
 Zr1093 Zr 0.26485 0.19862 0.22832
 O1094 O 0.29568 0.22670 0.25647
 Zr1095 Zr 0.19909 0.22887 0.26253
 O1096 O 0.22731 0.25780 0.29250
 Zr1097 Zr 0.23011 0.26454 0.19653
 O1098 O 0.25900 0.29563 0.22315
 Zr1099 Zr 0.27308 0.23698 0.30076
 O1100 O 0.24333 0.20578 0.27410
 Zr1101 Zr 0.30299 0.27229 0.23369
 O1102 O 0.27557 0.24266 0.20354
 Zr1103 Zr 0.23748 0.30242 0.26851
 O1104 O 0.20622 0.27478 0.24001
 O1105 O 0.21989 0.21896 0.21780
 O1106 O 0.28286 0.28241 0.27879
 C1107 C 0.24804 0.20700 0.15434
 C1108 C 0.20791 0.15463 0.25330
 C1109 C 0.15748 0.24572 0.20202
 C1110 C 0.25765 0.29715 0.34109
 C1111 C 0.34533 0.25892 0.29459
 C1112 C 0.29774 0.34511 0.24984
 H1113 H 0.31641 0.21512 0.25954
 H1114 H 0.26173 0.31615 0.21033
 H1115 H 0.20643 0.20462 0.20457
 H1116 H 0.21538 0.26063 0.31308
 H1117 H 0.23829 0.19655 0.33544
 H1118 H 0.18830 0.21186 0.32237
 H1119 H 0.30962 0.31038 0.18261
 H1120 H 0.27184 0.27761 0.15071
 H1121 H 0.31255 0.18790 0.30630
 H1122 H 0.28281 0.15602 0.27154
 H1123 H 0.22145 0.35027 0.22946
 H1124 H 0.20201 0.31950 0.18750
 H1125 H 0.31733 0.19628 0.19416
 H1126 H 0.34918 0.23352 0.21801
 H1127 H 0.15382 0.27128 0.27006
 H1128 H 0.18452 0.30653 0.30172
 O1129 O 0.72433 0.83283 0.22177
 O1130 O 0.78038 0.83785 0.23352
 O1131 O 0.72427 0.74880 0.16153
 O1132 O 0.73447 0.69556 0.16703
 O1133 O 0.65316 0.75411 0.24253
 O1134 O 0.65823 0.74963 0.30002
 O1135 O 0.81290 0.67649 0.25681
 O1136 O 0.81399 0.69579 0.20038
 O1137 O 0.82328 0.76279 0.30872
 O1138 O 0.79061 0.81380 0.30979
 O1139 O 0.75503 0.69119 0.33297
 O1140 O 0.69708 0.68436 0.31509
 O1141 O 0.76954 0.65745 0.28553
 O1142 O 0.71291 0.65298 0.27601
 O1143 O 0.77635 0.73994 0.34528
 O1144 O 0.75629 0.79475 0.33982
 O1145 O 0.84141 0.73464 0.26623
 O1146 O 0.84054 0.73958 0.21229
 O1147 O 0.68265 0.81421 0.25361
 O1148 O 0.67875 0.79333 0.30763
 O1149 O 0.67236 0.72672 0.19989
 O1150 O 0.70608 0.67592 0.20135
 O1151 O 0.74617 0.79744 0.17325
 O1152 O 0.79731 0.81156 0.19522
 Zr1153 Zr 0.75707 0.79389 0.22272
 O1154 O 0.79140 0.77158 0.25348
 Zr1155 Zr 0.72279 0.72375 0.20711
 O1156 O 0.75566 0.69852 0.23736
 Zr1157 Zr 0.69557 0.76652 0.26825
 O1158 O 0.72754 0.74308 0.30126
 Zr1159 Zr 0.79959 0.72374 0.23996
 O1160 O 0.76826 0.74750 0.20622
 Zr1161 Zr 0.77278 0.76684 0.30098
 O1162 O 0.73945 0.79258 0.27080
 Zr1163 Zr 0.73782 0.69669 0.28530
 O1164 O 0.70303 0.71869 0.25422
 O1165 O 0.71224 0.77057 0.22055
 O1166 O 0.78295 0.71964 0.28770
 C1167 C 0.69682 0.83647 0.23594
 C1168 C 0.73460 0.77735 0.15329
 C1169 C 0.64888 0.73771 0.21687
 C1170 C 0.79761 0.65371 0.27298
 C1171 C 0.84622 0.74996 0.29224
 C1172 C 0.76876 0.71037 0.35251
 H1173 H 0.81142 0.78481 0.25236
 H1174 H 0.71759 0.74178 0.32317
 H1175 H 0.69669 0.78155 0.20567
 H1176 H 0.75912 0.67677 0.22876
 H1177 H 0.80607 0.70710 0.18039
 H1178 H 0.75716 0.68849 0.16997
 H1179 H 0.73570 0.78508 0.34801
 H1180 H 0.69648 0.80843 0.31292
 H1181 H 0.83982 0.76347 0.21067
 H1182 H 0.80439 0.79382 0.18133
 H1183 H 0.70337 0.66717 0.33123
 H1184 H 0.65626 0.72606 0.29702
 H1185 H 0.77246 0.84382 0.25521
 H1186 H 0.80808 0.81882 0.29380
 H1187 H 0.69148 0.67093 0.21999
 H1188 H 0.72247 0.64362 0.25638
 O1189 O 0.67618 0.24574 0.80751
 O1190 O 0.70080 0.19257 0.81410
 O1191 O 0.76165 0.30594 0.82579
 O1192 O 0.81092 0.31164 0.80221
 O1193 O 0.69724 0.32976 0.74520
 O1194 O 0.68952 0.30686 0.69263
 O1195 O 0.84231 0.22937 0.73297
 O1196 O 0.84045 0.23998 0.78978
 O1197 O 0.76339 0.16206 0.72222
 O1198 O 0.70428 0.16560 0.74368
 O1199 O 0.76880 0.24082 0.65585
 O1200 O 0.75908 0.30200 0.66249
 O1201 O 0.82516 0.25754 0.68795
 O1202 O 0.80452 0.30670 0.67811
 O1203 O 0.73772 0.19811 0.67346
 O1204 O 0.69166 0.18588 0.70164
 O1205 O 0.80785 0.17639 0.75049
 O1206 O 0.81738 0.19271 0.79985
 O1207 O 0.66140 0.27881 0.76489
 O1208 O 0.66075 0.26948 0.70891
 O1209 O 0.74225 0.34301 0.77344
 O1210 O 0.79795 0.33952 0.75852
 O1211 O 0.73173 0.26188 0.84165
 O1212 O 0.73898 0.20580 0.83989
 Zr1213 Zr 0.72576 0.23547 0.79931
 O1214 O 0.75383 0.20503 0.77035
 Zr1215 Zr 0.76912 0.29982 0.77549
 O1216 O 0.79753 0.27230 0.74407
 Zr1217 Zr 0.70288 0.28054 0.73541
 O1218 O 0.72825 0.25089 0.70371
 Zr1219 Zr 0.80039 0.22453 0.76242
 O1220 O 0.77395 0.25246 0.79563
 Zr1221 Zr 0.73369 0.20369 0.72384
 O1222 O 0.70372 0.23217 0.75360
 Zr1223 Zr 0.77606 0.26818 0.69812
 O1224 O 0.74970 0.29988 0.72815
 O1225 O 0.72181 0.28316 0.78191
 O1226 O 0.78121 0.22047 0.71580
 C1227 C 0.65527 0.26253 0.79118
 C1228 C 0.74652 0.28845 0.84758
 C1229 C 0.71537 0.35001 0.75949
 C1230 C 0.84730 0.24347 0.70509
 C1231 C 0.79143 0.15608 0.73441
 C1232 C 0.75166 0.21529 0.65075
 H1233 H 0.75490 0.18322 0.78094
 H1234 H 0.71601 0.25124 0.68318
 H1235 H 0.70883 0.29678 0.79637
 H1236 H 0.81904 0.28264 0.74241
 H1237 H 0.83179 0.24824 0.81037
 H1238 H 0.82977 0.30128 0.79193
 H1239 H 0.67663 0.20437 0.69969
 H1240 H 0.65280 0.24811 0.71722
 H1241 H 0.79876 0.18778 0.81440
 H1242 H 0.76165 0.21148 0.84514
 H1243 H 0.74013 0.29219 0.65194
 H1244 H 0.70692 0.32293 0.68779
 H1245 H 0.68526 0.18790 0.79671
 H1246 H 0.71764 0.15203 0.75859
 H1247 H 0.79019 0.34566 0.73653
 H1248 H 0.81409 0.31787 0.69657
 C1249 C 0.04637 0.99490 1.15726
 C1250 C 0.06146 0.99213 1.18724
 C1251 C 0.09472 0.99888 1.19045
 C1252 C 0.11309 1.00772 1.16179
 C1253 C 0.09697 1.01281 1.13186
 C1254 C 0.06374 1.00493 1.12946
 C1255 C 0.11460 1.02623 1.10523
 N1256 N 0.14686 1.03158 1.10772
 N1257 N 0.16271 1.02422 1.13492
 C1258 C 0.14713 1.01219 1.16180
 H1259 H 0.02099 0.98826 1.15564
 H1260 H 0.04672 0.98376 1.20756
 H1261 H 0.10299 1.03308 1.08264
 H1262 H 0.16179 1.00655 1.18274
 C1263 C 0.57637 0.52768 0.63542
 C1264 C 0.59335 0.52734 0.66419
 C1265 C 0.58905 0.50243 0.68829
 C1266 C 0.56734 0.47645 0.68145
 C1267 C 0.54993 0.47715 0.65183
 C1268 C 0.55500 0.50284 0.62885
 C1269 C 0.52854 0.45154 0.64568
 N1270 N 0.52523 0.42646 0.66750
 N1271 N 0.54205 0.42520 0.69490
 C1272 C 0.56302 0.44906 0.70250
 H1273 H 0.58057 0.54729 0.61771
 H1274 H 0.61083 0.54651 0.66598
 H1275 H 0.51452 0.45113 0.62369
 H1276 H 0.57634 0.44574 0.72465
 C1277 C 0.43267 0.02290 0.63860
 C1278 C 0.42164 0.02678 0.67004
 C1279 C 0.42169 0.00093 0.69330
 C1280 C 0.43747 -0.02844 0.68467
 C1281 C 0.44771 -0.03263 0.65213
 C1282 C 0.44490 -0.00667 0.62900
 C1283 C 0.45960 -0.06313 0.64361
 N1284 N 0.46304 -0.08706 0.66661
 N1285 N 0.45513 -0.08268 0.69744
 C1286 C 0.44259 -0.05436 0.70721
 H1287 H 0.43181 0.04345 0.62153
 H1288 H 0.41271 0.05044 0.67522
 H1289 H 0.46579 -0.06847 0.61889
 H1290 H 0.43692 -0.05259 0.73252
 C1291 C -0.09274 0.47404 1.12832
 C1292 C -0.10797 0.47686 1.15812
 C1293 C -0.09622 0.49808 1.18156
 C1294 C -0.07134 0.52044 1.17158
 C1295 C -0.05546 0.51714 1.14121
 C1296 C -0.06580 0.49298 1.12014
 C1297 C -0.03073 0.53929 1.13213
 N1298 N -0.02300 0.56362 1.15185
 N1299 N -0.03866 0.56752 1.17975
 C1300 C -0.06270 0.54706 1.19002
 H1301 H -0.10216 0.45690 1.11142
 H1302 H -0.12962 0.46245 1.16203
 H1303 H -0.01811 0.53806 1.10919
 H1304 H -0.07569 0.55274 1.21167
 C1305 C -0.08596 0.49034 0.36328
 C1306 C -0.09936 0.48691 0.33271
 C1307 C -0.08961 0.50673 0.30617
 C1308 C -0.06625 0.53139 0.31118
 C1309 C -0.05100 0.53393 0.34201
 C1310 C -0.06149 0.51328 0.36883
 C1311 C -0.02655 0.55783 0.34451
 N1312 N -0.01925 0.57810 0.31893
 N1313 N -0.03496 0.57682 0.29102
 C1314 C -0.05849 0.55459 0.28656
 H1315 H -0.09438 0.47398 0.38269
 H1316 H -0.11751 0.46824 0.32978
 H1317 H -0.01371 0.56217 0.36643
 H1318 H -0.07147 0.55594 0.26415
 C1319 C 0.45180 1.02191 -0.14847
 C1320 C 0.44024 1.01613 -0.17941
 C1321 C 0.41024 1.00056 -0.18415
 C1322 C 0.39251 0.98985 -0.15580
 C1323 C 0.40211 0.99990 -0.12466
 C1324 C 0.43347 1.01380 -0.12054
 C1325 C 0.37988 0.99486 -0.09877
 N1326 N 0.35352 0.97572 -0.10243
 N1327 N 0.34772 0.96160 -0.13026
 C1328 C 0.36663 0.96756 -0.15681
 H1329 H 0.47564 1.03274 -0.14657
 H1330 H 0.45496 1.02506 -0.19961
 H1331 H 0.38257 1.00638 -0.07589
 H1332 H 0.36144 0.95452 -0.17829
 C1333 C 0.58670 0.51588 -0.13712
 C1334 C 0.60058 0.51730 -0.16801
 C1335 C 0.59705 0.49153 -0.18873
 C1336 C 0.58085 0.46294 -0.17748
 C1337 C 0.56677 0.46139 -0.14595
 C1338 C 0.56892 0.48860 -0.12602
 C1339 C 0.55186 0.43222 -0.13518
 N1340 N 0.55085 0.40667 -0.15487
 N1341 N 0.56390 0.40822 -0.18451
 C1342 C 0.57893 0.43541 -0.19644
 H1343 H 0.58890 0.53680 -0.12218
 H1344 H 0.61334 0.53911 -0.17619
 H1345 H 0.54166 0.42916 -0.11112
 H1346 H 0.58981 0.43502 -0.22032
 C1347 C 0.08634 0.00518 0.37130
 C1348 C 0.10154 0.00689 0.34121
 C1349 C 0.09039 -0.01127 0.31562
 C1350 C 0.06587 -0.03503 0.32210
 C1351 C 0.04991 -0.03673 0.35291
 C1352 C 0.05974 -0.01547 0.37757
 C1353 C 0.02578 -0.06071 0.35808
 N1354 N 0.01892 -0.08176 0.33464
 N1355 N 0.03464 -0.08083 0.30637
 C1356 C 0.05802 -0.05851 0.29945
 H1357 H 0.09528 0.02093 0.38968
 H1358 H 0.12207 0.02303 0.33808
 H1359 H 0.01299 -0.06418 0.38072
 H1360 H 0.07089 -0.06022 0.27671
 C1361 C 0.13273 1.08214 0.98848
 C1362 C 0.16231 1.09809 0.98594
 C1363 C 0.19001 1.08598 1.00168
 C1364 C 0.18656 1.05718 1.02165
 C1365 C 0.15748 1.03852 1.02076
 C1366 C 0.12926 1.05247 1.00585
 C1367 C 0.15834 1.00695 1.03530
 N1368 N 0.18406 0.99729 1.05336
 N1369 N 0.20910 1.01682 1.05803
 C1370 C 0.21094 1.04651 1.04324
 H1371 H 0.11222 1.09358 0.97655
 H1372 H 0.16262 1.12114 0.97273
 H1373 H 0.13983 0.98908 1.03231
 H1374 H 0.23119 1.06150 1.04910
 C1375 C 0.63111 0.58122 0.48399
 C1376 C 0.66195 0.59462 0.48124
 C1377 C 0.68515 0.58990 0.50582
 C1378 C 0.67606 0.57030 0.53394
 C1379 C 0.64409 0.55748 0.53697
 C1380 C 0.62175 0.56259 0.51141
 C1381 C 0.63519 0.54075 0.56611
 N1382 N 0.65719 0.53577 0.58992
 N1383 N 0.68743 0.54669 0.58678
 C1384 C 0.69752 0.56368 0.55985
 H1385 H 0.61444 0.58515 0.46406
 H1386 H 0.66682 0.60888 0.45942
 H1387 H 0.61085 0.53213 0.57066
 H1388 H 0.72210 0.57209 0.55951
 C1389 C 0.65248 0.44849 -0.00898
 C1390 C 0.68286 0.43414 -0.00671
 C1391 C 0.68659 0.40105 0.00207
 C1392 C 0.65736 0.38246 0.00885
 C1393 C 0.62626 0.39684 0.00414
 C1394 C 0.62384 0.43068 -0.00376
 C1395 C 0.59872 0.37628 0.00654
 N1396 N 0.60172 0.34470 0.01562
 N1397 N 0.63039 0.33173 0.02205
 C1398 C 0.65805 0.34925 0.01898
 H1399 H 0.65154 0.47420 -0.01503
 H1400 H 0.70318 0.44980 -0.01244
 H1401 H 0.57474 0.38396 0.00015
 H1402 H 0.68005 0.33632 0.02414
 C1403 C 0.14991 -0.05154 0.49686
 C1404 C 0.18075 -0.06501 0.49753
 C1405 C 0.18537 -0.09857 0.49586
 C1406 C 0.15705 -0.11881 0.49368
 C1407 C 0.12568 -0.10464 0.49121
 C1408 C 0.12207 -0.07073 0.49395
 C1409 C 0.09901 -0.12498 0.48523
 N1410 N 0.10299 -0.15740 0.48428
 N1411 N 0.13185 -0.17097 0.48868
 C1412 C 0.15880 -0.15298 0.49345
 H1413 H 0.14785 -0.02559 0.49913
 H1414 H 0.20076 -0.04849 0.49991
 H1415 H 0.07510 -0.11564 0.48060
 H1416 H 0.18112 -0.16597 0.49691
 C1417 C 0.36265 -0.08609 0.52553
 C1418 C 0.33172 -0.09954 0.52244
 C1419 C 0.31143 -0.09014 0.49658
 C1420 C 0.32303 -0.06705 0.47296
 C1421 C 0.35447 -0.05330 0.47617
 C1422 C 0.37429 -0.06283 0.50280
 C1423 C 0.36543 -0.03089 0.45199
 N1424 N 0.34623 -0.02299 0.42639
 N1425 N 0.31693 -0.03612 0.42320
 C1426 C 0.30475 -0.05796 0.44546
 H1427 H 0.37762 -0.09388 0.54580
 H1428 H 0.32349 -0.11743 0.54054
 H1429 H 0.38920 -0.01988 0.45298
 H1430 H 0.28111 -0.06824 0.44115
 C1431 C -0.13855 0.40320 1.01260
 C1432 C -0.16814 0.38737 1.00909
 C1433 C -0.19198 0.39960 0.98771
 C1434 C -0.18414 0.42765 0.96790
 C1435 C -0.15370 0.44360 0.97149
 C1436 C -0.13088 0.43133 0.99429
 C1437 C -0.14658 0.47078 0.95110
 N1438 N -0.16812 0.48092 0.92831
 N1439 N -0.19610 0.46550 0.92420
 C1440 C -0.20467 0.43913 0.94287
 H1441 H -0.12181 0.39377 1.03051
 H1442 H -0.17288 0.36643 1.02494
 H1443 H -0.12391 0.48377 0.95267
 H1444 H -0.22700 0.42691 0.93721
 C1445 C -0.13581 0.58614 0.48429
 C1446 C -0.16617 0.60019 0.48773
 C1447 C -0.19117 0.58457 0.50574
 C1448 C -0.18446 0.55402 0.52157
 C1449 C -0.15341 0.53968 0.51775
 C1450 C -0.12921 0.55582 0.49863
 C1451 C -0.14705 0.51004 0.53437
 N1452 N -0.17020 0.49563 0.55338
 N1453 N -0.19916 0.50902 0.55724
 C1454 C -0.20695 0.53764 0.54228
 H1455 H -0.11730 0.59900 0.47009
 H1456 H -0.17013 0.62341 0.47550
 H1457 H -0.12378 0.49839 0.53296
 H1458 H -0.23040 0.54725 0.54758
 C1459 C 0.36473 1.08429 -0.02506
 C1460 C 0.33380 1.09781 -0.02487
 C1461 C 0.31323 1.09296 0.00204
 C1462 C 0.32426 1.07498 0.02966
 C1463 C 0.35572 1.06148 0.02955
 C1464 C 0.37591 1.06616 0.00188
 C1465 C 0.36586 1.04351 0.05726
 N1466 N 0.34581 1.03975 0.08333
 N1467 N 0.31634 1.05275 0.08355
 C1468 C 0.30493 1.07023 0.05766
 H1469 H 0.37994 1.08777 -0.04645
 H1470 H 0.32560 1.11161 -0.04607
 H1471 H 0.38948 1.03249 0.05852
 H1472 H 0.28106 1.08050 0.05937
 C1473 C 0.02968 1.13750 1.06398
 C1474 C 0.02809 1.16761 1.07774
 C1475 C -0.00166 1.18043 1.08847
 C1476 C -0.03069 1.16497 1.07860
 C1477 C -0.02906 1.13381 1.06525
 C1478 C 0.00157 1.11951 1.05947
 C1479 C -0.05824 1.11858 1.05680
 N1480 N -0.08688 1.13404 1.06041
 N1481 N -0.08831 1.16380 1.07160
 C1482 C -0.06126 1.17988 1.08046
 H1483 H 0.05317 1.12781 1.05761
 H1484 H 0.05070 1.18056 1.08018
 H1485 H -0.05859 1.09494 1.04656
 H1486 H -0.06398 1.20449 1.08790
 C1487 C 0.49356 0.64958 0.54872
 C1488 C 0.49009 0.67909 0.56371
 C1489 C 0.49226 0.68116 0.59759
 C1490 C 0.49660 0.65168 0.61662
 C1491 C 0.50288 0.62233 0.60099
 C1492 C 0.50017 0.62110 0.56683
 C1493 C 0.51290 0.59525 0.62015
 N1494 N 0.51331 0.59650 0.65286
 N1495 N 0.50500 0.62319 0.66780
 C1496 C 0.49675 0.65065 0.65100
 H1497 H 0.49095 0.64902 0.52263
 H1498 H 0.48603 0.70023 0.54822
 H1499 H 0.52133 0.57335 0.60956
 H1500 H 0.49104 0.67128 0.66508
 C1501 C -0.00720 0.65659 0.45862
 C1502 C -0.00507 0.68670 0.44237
 C1503 C -0.01587 0.69107 0.41019
 C1504 C -0.02934 0.66360 0.39461
 C1505 C -0.03516 0.63456 0.41284
 C1506 C -0.02140 0.63024 0.44377
 C1507 C -0.05426 0.61029 0.39930
 N1508 N -0.06421 0.61378 0.36817
 N1509 N -0.05500 0.63911 0.34947
 C1510 C -0.03696 0.66344 0.36130
 H1511 H 0.00364 0.65348 0.48238
 H1512 H 0.00698 0.70596 0.45463
 H1513 H -0.06142 0.58871 0.41325
 H1514 H -0.02875 0.68213 0.34439
 C1515 C 0.52200 1.14461 -0.06764
 C1516 C 0.52482 1.17573 -0.08083
 C1517 C 0.49756 1.19586 -0.08444
 C1518 C 0.46816 1.18587 -0.06844
 C1519 C 0.46519 1.15377 -0.05527
 C1520 C 0.49226 1.13287 -0.05596
 C1521 C 0.43501 1.14361 -0.04232
 N1522 N 0.41014 1.16484 -0.04082
 N1523 N 0.41339 1.19546 -0.05152
 C1524 C 0.44148 1.20672 -0.06509
 H1525 H 0.54347 1.12957 -0.06626
 H1526 H 0.54882 1.18353 -0.08825
 H1527 H 0.43087 1.11904 -0.03344
 H1528 H 0.44266 1.23196 -0.07275
 C1529 C 0.47827 0.36367 -0.07344
 C1530 C 0.47707 0.33365 -0.08762
 C1531 C 0.50556 0.31701 -0.09474
 C1532 C 0.53590 0.33046 -0.08632
 C1533 C 0.53718 0.36145 -0.07267
 C1534 C 0.50800 0.37775 -0.06552
 C1535 C 0.56774 0.37526 -0.06713
 N1536 N 0.59506 0.35818 -0.07297
 N1537 N 0.59380 0.32835 -0.08408
 C1538 C 0.56518 0.31384 -0.09078
 H1539 H 0.45571 0.37579 -0.06801
 H1540 H 0.45362 0.32298 -0.09237
 H1541 H 0.57017 0.39948 -0.05832
 H1542 H 0.56556 0.28953 -0.09959
 C1543 C -0.02215 -0.14892 0.44806
 C1544 C -0.02307 -0.17777 0.43168
 C1545 C 0.00045 -0.18484 0.40816
 C1546 C 0.02552 -0.16165 0.40116
 C1547 C 0.02697 -0.13281 0.41879
 C1548 C 0.00262 -0.12638 0.44186
 C1549 C 0.05304 -0.11122 0.41295
 N1550 N 0.07570 -0.11769 0.39020
 N1551 N 0.07394 -0.14420 0.37295
 C1552 C 0.04967 -0.16616 0.37761
 H1553 H -0.04104 -0.14406 0.46560
 H1554 H -0.04262 -0.19471 0.43729
 H1555 H 0.05553 -0.08921 0.42615
 H1556 H 0.04949 -0.18656 0.36262
 C1557 C 0.47444 -0.14965 0.56680
 C1558 C 0.47557 -0.18099 0.58068
 C1559 C 0.50415 -0.19316 0.59459
 C1560 C 0.53236 -0.17327 0.59374
 C1561 C 0.53165 -0.14205 0.57817
 C1562 C 0.50206 -0.12964 0.56569
 C1563 C 0.56110 -0.12486 0.57443
 N1564 N 0.58870 -0.13707 0.58749
 N1565 N 0.58897 -0.16552 0.60359
 C1566 C 0.56182 -0.18393 0.60700
 H1567 H 0.45170 -0.14091 0.55689
 H1568 H 0.45377 -0.19573 0.58101
 H1569 H 0.56280 -0.10238 0.56046
 H1570 H 0.56357 -0.20668 0.61982
 C1571 C 0.01420 0.35566 1.08218
 C1572 C 0.01579 0.32470 1.09659
 C1573 C -0.00913 0.30219 1.09244
 C1574 C -0.03713 0.31165 1.07487
 C1575 C -0.03879 0.34320 1.06011
 C1576 C -0.01242 0.36518 1.06316
 C1577 C -0.06741 0.35193 1.04372
 N1578 N -0.09231 0.33054 1.04203
 N1579 N -0.09072 0.30103 1.05589
 C1580 C -0.06411 0.29091 1.07237
 H1581 H 0.03447 0.37203 1.08514
 H1582 H 0.03710 0.31799 1.11046
 H1583 H -0.07063 0.37571 1.03284
 H1584 H -0.06466 0.26701 1.08387
 C1585 C 0.77743 0.29037 0.09439
 C1586 C 0.77363 0.30437 0.06312
 C1587 C 0.77068 0.33802 0.05848
 C1588 C 0.77674 0.35791 0.08530
 C1589 C 0.78179 0.34369 0.11678
 C1590 C 0.77946 0.30960 0.12183
 C1591 C 0.78951 0.36424 0.14214
 N1592 N 0.79128 0.39671 0.13646
 N1593 N 0.78617 0.41007 0.10711
 C1594 C 0.77913 0.39185 0.08139
 H1595 H 0.77637 0.26424 0.09735
 H1596 H 0.76954 0.28864 0.04308
 H1597 H 0.79520 0.35484 0.16620
 H1598 H 0.77633 0.40403 0.05796
 C1599 C 0.27126 0.84404 0.61572
 C1600 C 0.26451 0.85608 0.58468
 C1601 C 0.26804 0.83682 0.55758
 C1602 C 0.28301 0.80618 0.56172
 C1603 C 0.29193 0.79451 0.59342
 C1604 C 0.28270 0.81238 0.62113
 C1605 C 0.30961 0.76538 0.59576
 N1606 N 0.31527 0.74814 0.56898
 N1607 N 0.30481 0.75802 0.53986
 C1608 C 0.28885 0.78636 0.53534
 H1609 H 0.26555 0.85924 0.63581
 H1610 H 0.25476 0.88034 0.58203
 H1611 H 0.32041 0.75659 0.61804
 H1612 H 0.28115 0.79309 0.51113
 C1613 C 0.75113 0.70603 0.59975
 C1614 C 0.75369 0.69260 0.56926
 C1615 C 0.75839 0.65937 0.56645
 C1616 C 0.76118 0.63947 0.59502
 C1617 C 0.75555 0.65241 0.62586
 C1618 C 0.75170 0.68643 0.62840
 C1619 C 0.75274 0.63037 0.65275
 N1620 N 0.75880 0.59848 0.64921
 N1621 N 0.76696 0.58695 0.62061
 C1622 C 0.76833 0.60640 0.59350
 H1623 H 0.74818 0.73200 0.60087
 H1624 H 0.75069 0.70806 0.54772
 H1625 H 0.74477 0.63762 0.67632
 H1626 H 0.77518 0.59606 0.57099
 C1627 C 0.26899 0.16643 0.11661
 C1628 C 0.27100 0.15209 0.08672
 C1629 C 0.25458 0.16518 0.05994
 C1630 C 0.23777 0.19465 0.06250
 C1631 C 0.23838 0.21129 0.09202
 C1632 C 0.25173 0.19534 0.12050
 C1633 C 0.22562 0.24305 0.09114
 N1634 N 0.21049 0.25508 0.06427
 N1635 N 0.20724 0.23789 0.03788
 C1636 C 0.22015 0.20799 0.03618
 H1637 H 0.28058 0.15416 0.13705
 H1638 H 0.28377 0.12942 0.08513
 H1639 H 0.22810 0.25939 0.11051
 H1640 H 0.21708 0.19525 0.01398
 C1641 C 0.27031 0.16586 0.88450
 C1642 C 0.26712 0.15033 0.91474
 C1643 C 0.26395 0.16801 0.94282
 C1644 C 0.26779 0.20208 0.94050
 C1645 C 0.26991 0.21833 0.90940
 C1646 C 0.26981 0.19982 0.88084
 C1647 C 0.27093 0.25242 0.90847
 N1648 N 0.27127 0.26869 0.93644
 N1649 N 0.27043 0.25333 0.96535
 C1650 C 0.26870 0.22063 0.96829
 H1651 H 0.27143 0.15092 0.86347
 H1652 H 0.26539 0.12414 0.91606
 H1653 H 0.27162 0.26660 0.88615
 H1654 H 0.26879 0.20940 0.99226
 C1655 C 0.76396 0.71355 0.41242
 C1656 C 0.76026 0.69759 0.44273
 C1657 C 0.76702 0.66447 0.44670
 C1658 C 0.78049 0.64783 0.42030
 C1659 C 0.78614 0.66462 0.39026
 C1660 C 0.77517 0.69685 0.38558
 C1661 C 0.80176 0.64821 0.36529
 N1662 N 0.80923 0.61645 0.36958
 N1663 N 0.80188 0.60004 0.39703
 C1664 C 0.78745 0.61453 0.42231
 H1665 H 0.75555 0.73827 0.40936
 H1666 H 0.74951 0.71049 0.46250
 H1667 H 0.80831 0.66046 0.34256
 H1668 H 0.78161 0.59982 0.44359
 C1669 C 0.27363 0.82583 0.38256
 C1670 C 0.27551 0.84114 0.41203
 C1671 C 0.26003 0.82803 0.43968
 C1672 C 0.24435 0.79760 0.43820
 C1673 C 0.24364 0.78095 0.40855
 C1674 C 0.25657 0.79642 0.37953
 C1675 C 0.22988 0.74958 0.40960
 N1676 N 0.21596 0.73726 0.43729
 N1677 N 0.21507 0.75379 0.46433
 C1678 C 0.22878 0.78350 0.46574
 H1679 H 0.28449 0.83822 0.36157
 H1680 H 0.28703 0.86474 0.41265
 H1681 H 0.23077 0.73389 0.38951
 H1682 H 0.22776 0.79561 0.48850
 C1683 C 0.77433 0.31296 0.89486
 C1684 C 0.77532 0.32330 0.92695
 C1685 C 0.74791 0.32041 0.94732
 C1686 C 0.72043 0.30333 0.93571
 C1687 C 0.71858 0.29480 0.90270
 C1688 C 0.74603 0.29935 0.88190
 C1689 C 0.68864 0.28293 0.89161
 N1690 N 0.66397 0.27659 0.91283
 N1691 N 0.66691 0.28166 0.94433
 C1692 C 0.69429 0.29458 0.95649
 H1693 H 0.79576 0.31626 0.87974
 H1694 H 0.79678 0.33594 0.93481
 H1695 H 0.68409 0.27917 0.86632
 H1696 H 0.69548 0.29805 0.98231
 C1697 C 0.79319 0.39932 0.25346
 C1698 C 0.80518 0.43055 0.25780
 C1699 C 0.83801 0.43576 0.26430
 C1700 C 0.85864 0.40856 0.26842
 C1701 C 0.84721 0.37705 0.26171
 C1702 C 0.81379 0.37224 0.25448
 C1703 C 0.87035 0.35199 0.26068
 N1704 N 0.90167 0.35772 0.26849
 N1705 N 0.91181 0.38691 0.27658
 C1706 C 0.89145 0.41251 0.27657
 H1707 H 0.76763 0.39644 0.24832
 H1708 H 0.78921 0.45099 0.25359
 H1709 H 0.86454 0.32818 0.25265
 H1710 H 0.90109 0.43580 0.28266
 C1711 C 0.29718 0.90424 0.75003
 C1712 C 0.31009 0.93526 0.75356
 C1713 C 0.34289 0.93958 0.76063
 C1714 C 0.36277 0.91176 0.76524
 C1715 C 0.35042 0.88050 0.75902
 C1716 C 0.31692 0.87652 0.75216
 C1717 C 0.37268 0.85464 0.75848
 N1718 N 0.40400 0.85931 0.76687
 N1719 N 0.41486 0.88814 0.77522
 C1720 C 0.39536 0.91443 0.77464
 H1721 H 0.27156 0.90198 0.74490
 H1722 H 0.29469 0.95612 0.74920
 H1723 H 0.36609 0.83099 0.75054
 H1724 H 0.40556 0.93710 0.78156
 C1725 C 0.21014 0.90304 0.24022
 C1726 C 0.19570 0.93346 0.23982
 C1727 C 0.17366 0.94207 0.26418
 C1728 C 0.16874 0.92007 0.29129
 C1729 C 0.18325 0.88890 0.29136
 C1730 C 0.20312 0.88019 0.26507
 C1731 C 0.17676 0.86695 0.31753
 N1732 N 0.15733 0.87580 0.34225
 N1733 N 0.14406 0.90507 0.34252
 C1734 C 0.14911 0.92732 0.31801
 H1735 H 0.22550 0.89665 0.22002
 H1736 H 0.20009 0.94974 0.21903
 H1737 H 0.18711 0.84296 0.31867
 H1738 H 0.13848 0.95053 0.32036
 C1739 C 0.68406 0.39464 0.78263
 C1740 C 0.66959 0.42505 0.77961
 C1741 C 0.67538 0.44522 0.75209
 C1742 C 0.69834 0.43577 0.72855
 C1743 C 0.71285 0.40484 0.73152
 C1744 C 0.70488 0.38394 0.75835
 C1745 C 0.73443 0.39555 0.70700
 N1746 N 0.74150 0.41636 0.68174
 N1747 N 0.72836 0.44572 0.67928
 C1748 C 0.70705 0.45614 0.70178
 H1749 H 0.67779 0.37877 0.80324
 H1750 H 0.65215 0.43197 0.79784
 H1751 H 0.74579 0.37202 0.70771
 H1752 H 0.69737 0.48032 0.69869
 C1753 C 0.66681 0.61814 0.76289
 C1754 C 0.65147 0.58824 0.76485
 C1755 C 0.66858 0.55988 0.75933
 C1756 C 0.70252 0.56138 0.75463
 C1757 C 0.71874 0.59192 0.75346
 C1758 C 0.70016 0.62106 0.75584
 C1759 C 0.75284 0.59157 0.75008
 N1760 N 0.76880 0.56329 0.74653
 N1761 N 0.75328 0.53505 0.74644
 C1762 C 0.72073 0.53314 0.75038
 H1763 H 0.65181 0.63933 0.76566
 H1764 H 0.62540 0.58740 0.76839
 H1765 H 0.76752 0.61287 0.75096
 H1766 H 0.70957 0.50952 0.75071
 C1767 C 0.20702 0.09599 0.24068
 C1768 C 0.19296 0.06523 0.24254
 C1769 C 0.16606 0.05866 0.26269
 C1770 C 0.15457 0.08306 0.28289
 C1771 C 0.17150 0.11290 0.28406
 C1772 C 0.19572 0.12084 0.26019
 C1773 C 0.16323 0.13353 0.30915
 N1774 N 0.13664 0.12720 0.32790
 N1775 N 0.11802 0.10138 0.32345
 C1776 C 0.12597 0.07924 0.30131
 H1777 H 0.22600 0.10062 0.22281
 H1778 H 0.20148 0.04713 0.22615
 H1779 H 0.17835 0.15372 0.31494
 H1780 H 0.10978 0.05912 0.29805
 C1781 C 0.29629 0.09538 0.76331
 C1782 C 0.31073 0.06504 0.76098
 C1783 C 0.34412 0.06137 0.76544
 C1784 C 0.36286 0.08829 0.77503
 C1785 C 0.34803 0.11893 0.77796
 C1786 C 0.31489 0.12278 0.77019
 C1787 C 0.36694 0.14482 0.78861
 N1788 N 0.39888 0.14043 0.79484
 N1789 N 0.41310 0.11194 0.79112
 C1790 C 0.39626 0.08583 0.78136
 H1791 H 0.27077 0.09783 0.75767
 H1792 H 0.29616 0.04478 0.75353
 H1793 H 0.35653 0.16832 0.79258
 H1794 H 0.40913 0.06348 0.77883
 C1795 C 0.84251 0.61658 0.25971
 C1796 C 0.85409 0.58615 0.25247
 C1797 C 0.83553 0.55808 0.25896
 C1798 C 0.80598 0.56075 0.27622
 C1799 C 0.79507 0.59170 0.28591
 C1800 C 0.81221 0.62040 0.27477
 C1801 C 0.76740 0.59224 0.30628
 N1802 N 0.75056 0.56462 0.31347
 N1803 N 0.75943 0.53630 0.30204
 C1804 C 0.78647 0.53344 0.28359
 H1805 H 0.85703 0.63742 0.25205
 H1806 H 0.87751 0.58473 0.24055
 H1807 H 0.75946 0.61365 0.31800
 H1808 H 0.79235 0.50984 0.27485
 C1809 C 0.89625 0.27583 0.18161
 C1810 C 0.92632 0.27228 0.16651
 C1811 C 0.94703 0.24694 0.17605
 C1812 C 0.93862 0.22666 0.20319
 C1813 C 0.90816 0.23036 0.21870
 C1814 C 0.88648 0.25453 0.20702
 C1815 C 0.89993 0.20874 0.24460
 N1816 N 0.92126 0.18564 0.25464
 N1817 N 0.95011 0.18255 0.24039
 C1818 C 0.95951 0.20222 0.21499
 H1819 H 0.87979 0.29425 0.17230
 H1820 H 0.93241 0.28796 0.14572
 H1821 H 0.87686 0.21000 0.25699
 H1822 H 0.98327 0.19878 0.20438
 C1823 C 0.39504 0.78011 0.67897
 C1824 C 0.42566 0.77877 0.66437
 C1825 C 0.44993 0.75887 0.67770
 C1826 C 0.44402 0.74216 0.70772
 C1827 C 0.41291 0.74346 0.72264
 C1828 C 0.38789 0.76184 0.70748
 C1829 C 0.40751 0.72460 0.75123
 N1830 N 0.43185 0.70651 0.76427
 N1831 N 0.46112 0.70568 0.75046
 C1832 C 0.46798 0.72273 0.72254
 H1833 H 0.37621 0.79415 0.66694
 H1834 H 0.42949 0.79108 0.64101
 H1835 H 0.38418 0.72377 0.76317
 H1836 H 0.49209 0.72111 0.71219
 C1837 C 0.40571 0.23275 0.79286
 C1838 C 0.43533 0.23411 0.80877
 C1839 C 0.44444 0.26141 0.82609
 C1840 C 0.42495 0.28958 0.82312
 C1841 C 0.39530 0.28852 0.80568
 C1842 C 0.38431 0.25891 0.79301
 C1843 C 0.37776 0.31739 0.80115
 N1844 N 0.38796 0.34483 0.81500
 N1845 N 0.41473 0.34539 0.83280
 C1846 C 0.43346 0.31876 0.83734
 H1847 H 0.39872 0.21034 0.78203
 H1848 H 0.45027 0.21259 0.80955
 H1849 H 0.35670 0.31866 0.78584
 H1850 H 0.45501 0.32105 0.85141
 C1851 C 0.88731 0.78135 0.32234
 C1852 C 0.91838 0.78691 0.33436
 C1853 C 0.94425 0.76666 0.32677
 C1854 C 0.93884 0.74218 0.30416
 C1855 C 0.90693 0.73451 0.29401
 C1856 C 0.88052 0.75461 0.30316
 C1857 C 0.90301 0.70595 0.27655
 N1858 N 0.92925 0.68882 0.26727
 N1859 N 0.95924 0.69765 0.27478
 C1860 C 0.96488 0.72363 0.29298
 H1861 H 0.86806 0.79747 0.32939
 H1862 H 0.92151 0.80539 0.35209
 H1863 H 0.87969 0.69600 0.27092
 H1864 H 0.98961 0.72940 0.29911
 C1865 C 0.09320 0.76389 0.29235
 C1866 C 0.06211 0.76054 0.30577
 C1867 C 0.05763 0.75757 0.33937
 C1868 C 0.08503 0.76049 0.36002
 C1869 C 0.11640 0.76553 0.34631
 C1870 C 0.12071 0.76521 0.31218
 C1871 C 0.14238 0.77150 0.36734
 N1872 N 0.13748 0.77074 0.39987
 N1873 N 0.10834 0.76476 0.41282
 C1874 C 0.08206 0.75965 0.39411
 H1875 H 0.09585 0.76407 0.26619
 H1876 H 0.04155 0.75887 0.28973
 H1877 H 0.16637 0.77769 0.35836
 H1878 H 0.05913 0.75572 0.40624
 C1879 C 0.60875 0.28826 0.81836
 C1880 C 0.57695 0.28753 0.83029
 C1881 C 0.55735 0.26011 0.82678
 C1882 C 0.56845 0.23502 0.80700
 C1883 C 0.60070 0.23561 0.79510
 C1884 C 0.62133 0.26179 0.80224
 C1885 C 0.61123 0.20982 0.77635
 N1886 N 0.59046 0.18545 0.76971
 N1887 N 0.55994 0.18515 0.78051
 C1888 C 0.54821 0.20910 0.79886
 H1889 H 0.62396 0.30908 0.82270
 H1890 H 0.56837 0.30761 0.84403
 H1891 H 0.63564 0.20894 0.76667
 H1892 H 0.52307 0.20795 0.80654
 C1893 C 0.60238 0.74669 0.70795
 C1894 C 0.57172 0.74917 0.69393
 C1895 C 0.56777 0.74475 0.66078
 C1896 C 0.59556 0.73859 0.64112
 C1897 C 0.62624 0.73418 0.65569
 C1898 C 0.62981 0.73917 0.68928
 C1899 C 0.65223 0.72407 0.63612
 N1900 N 0.64826 0.72148 0.60374
 N1901 N 0.62003 0.72796 0.58962
 C1902 C 0.59366 0.73646 0.60709
 H1903 H 0.60472 0.75084 0.73361
 H1904 H 0.55084 0.75358 0.70923
 H1905 H 0.67546 0.71752 0.64617
 H1906 H 0.57153 0.74170 0.59410
 C1907 C 0.09743 0.24701 0.20589
 C1908 C 0.06662 0.24911 0.19223
 C1909 C 0.06309 0.25192 0.15859
 C1910 C 0.09093 0.25404 0.13837
 C1911 C 0.12202 0.24937 0.15187
 C1912 C 0.12538 0.24660 0.18618
 C1913 C 0.14833 0.24604 0.13020
 N1914 N 0.14393 0.25022 0.09778
 N1915 N 0.11496 0.25693 0.08534
 C1916 C 0.08832 0.25890 0.10450
 H1917 H 0.09941 0.24509 0.23206
 H1918 H 0.04543 0.24680 0.20785
 H1919 H 0.17212 0.23909 0.13833
 H1920 H 0.06526 0.26397 0.09313
 C1921 C -0.08818 0.97573 0.87410
 C1922 C -0.10559 0.98123 0.84589
 C1923 C -0.09447 1.00308 0.82109
 C1924 C -0.06741 1.02327 0.82803
 C1925 C -0.04973 1.01763 0.85708
 C1926 C -0.05969 0.99276 0.87947
 C1927 C -0.02351 1.03822 0.86359
 N1928 N -0.01555 1.06284 0.84243
 N1929 N -0.03239 1.06855 0.81545
 C1930 C -0.05810 1.04988 0.80775
 H1931 H -0.09748 0.95847 0.89234
 H1932 H -0.12827 0.96832 0.84428
 H1933 H -0.00978 1.03548 0.88564
 H1934 H -0.07158 1.05686 0.78651
 C1935 C 0.40808 0.49375 0.36975
 C1936 C 0.39258 0.49805 0.34033
 C1937 C 0.40900 0.51049 0.31239
 C1938 C 0.43983 0.52517 0.31687
 C1939 C 0.45581 0.52099 0.34732
 C1940 C 0.44017 0.50355 0.37345
 C1941 C 0.48598 0.53629 0.35114
 N1942 N 0.49901 0.55475 0.32650
 N1943 N 0.48363 0.55951 0.29849
 C1944 C 0.45436 0.54577 0.29302
 H1945 H 0.39473 0.48240 0.38989
 H1946 H 0.36747 0.49043 0.33942
 H1947 H 0.49881 0.53485 0.37378
 H1948 H 0.44219 0.55255 0.27076
 C1949 C 0.55969 -0.01610 0.35352
 C1950 C 0.57501 -0.01617 0.32349
 C1951 C 0.59599 0.00917 0.31316
 C1952 C 0.59741 0.03732 0.33236
 C1953 C 0.58470 0.03568 0.36435
 C1954 C 0.56533 0.00896 0.37448
 C1955 C 0.59100 0.06138 0.38487
 N1956 N 0.60580 0.08861 0.37278
 N1957 N 0.61413 0.09184 0.34159
 C1958 C 0.60968 0.06749 0.32084
 H1959 H 0.54408 -0.03626 0.36087
 H1960 H 0.57077 -0.03664 0.30838
 H1961 H 0.58340 0.06046 0.41006
 H1962 H 0.61504 0.07235 0.29551
 C1963 C 0.07059 0.52552 0.85350
 C1964 C 0.08396 0.52572 0.82252
 C1965 C 0.08995 0.49666 0.80652
 C1966 C 0.07655 0.46750 0.82063
 C1967 C 0.06369 0.46725 0.85265
 C1968 C 0.06189 0.49647 0.86939
 C1969 C 0.05185 0.43783 0.86643
 N1970 N 0.05184 0.41078 0.84885
 N1971 N 0.06263 0.41124 0.81836
 C1972 C 0.07464 0.43863 0.80363
 H1973 H 0.06717 0.54831 0.86526
 H1974 H 0.08921 0.54916 0.81135
 H1975 H 0.04209 0.43613 0.89075
 H1976 H 0.08175 0.43766 0.77857
 C1977 C 0.08578 0.51167 0.62924
 C1978 C 0.09932 0.51364 0.65994
 C1979 C 0.09407 0.48923 0.68378
 C1980 C 0.07675 0.46095 0.67549
 C1981 C 0.06361 0.45846 0.64381
 C1982 C 0.06709 0.48478 0.62082
 C1983 C 0.04861 0.42910 0.63599
 N1984 N 0.04607 0.40455 0.65860
 N1985 N 0.05782 0.40715 0.68836
 C1986 C 0.07316 0.43437 0.69749
 H1987 H 0.08939 0.53189 0.61212
 H1988 H 0.11352 0.53486 0.66527
 H1989 H 0.03971 0.42482 0.61198
 H1990 H 0.08289 0.43470 0.72163
 C1991 C 0.59333 1.01758 0.13375
 C1992 C 0.60591 1.02101 0.16476
 C1993 C 0.59305 1.00343 0.19155
 C1994 C 0.56763 0.98074 0.18650
 C1995 C 0.55740 0.97471 0.15443
 C1996 C 0.56867 0.99496 0.12802
 C1997 C 0.53678 0.94792 0.14995
 N1998 N 0.52429 0.93105 0.17591
 N1999 N 0.53136 0.93878 0.20604
 C2000 C 0.55244 0.96298 0.21219
 H2001 H 0.60278 1.03310 0.11414
 H2002 H 0.62558 1.03804 0.16799
 H2003 H 0.53119 0.93938 0.12624
 H2004 H 0.55678 0.96780 0.23716
 C2005 C 0.44709 0.52450 0.14805
 C2006 C 0.43231 0.52370 0.17864
 C2007 C 0.40758 0.50126 0.18693
 C2008 C 0.39926 0.47777 0.16378
 C2009 C 0.41735 0.47626 0.13440
 C2010 C 0.43948 0.50139 0.12522
 C2011 C 0.41362 0.44870 0.11572
 N2012 N 0.39020 0.42661 0.12323
 N2013 N 0.37068 0.42998 0.14863
 C2014 C 0.37440 0.45473 0.16895
 H2015 H 0.46454 0.54353 0.14220
 H2016 H 0.43954 0.54167 0.19567
 H2017 H 0.43000 0.44375 0.09619
 H2018 H 0.35793 0.45560 0.18877
 C2019 C -0.08604 -0.01314 0.64240
 C2020 C -0.09900 -0.01312 0.67364
 C2021 C -0.08633 0.00696 0.69720
 C2022 C -0.06007 0.02823 0.68836
 C2023 C -0.04931 0.03054 0.65552
 C2024 C -0.06095 0.00816 0.63289
 C2025 C -0.02791 0.05600 0.64625
 N2026 N -0.01519 0.07515 0.66888
 N2027 N -0.02274 0.07091 0.70011
 C2028 C -0.04452 0.04816 0.71058
 H2029 H -0.09565 -0.03022 0.62558
 H2030 H -0.11884 -0.02958 0.67962
 H2031 H -0.02187 0.06167 0.62125
 H2032 H -0.04915 0.04637 0.73612
 C2033 C -0.15215 0.94642 1.00883
 C2034 C -0.18280 0.93223 1.01074
 C2035 C -0.18744 0.89956 1.00360
 C2036 C -0.15963 0.88085 0.99469
 C2037 C -0.12894 0.89612 0.99091
 C2038 C -0.12510 0.92873 0.99925
 C2039 C -0.10308 0.87841 0.97795
 N2040 N -0.10695 0.84672 0.97175
 N2041 N -0.13502 0.83158 0.97733
 C2042 C -0.16129 0.84735 0.98860
 H2043 H -0.14948 0.97146 1.01534
 H2044 H -0.20261 0.94723 1.01821
 H2045 H -0.08000 0.88958 0.97199
 H2046 H -0.18300 0.83317 0.99227
 C2047 C 0.36814 0.40397 0.49626
 C2048 C 0.33909 0.38773 0.50032
 C2049 C 0.31113 0.40379 0.51081
 C2050 C 0.31526 0.43413 0.52544
 C2051 C 0.34543 0.45072 0.52186
 C2052 C 0.37133 0.43605 0.50501
 C2053 C 0.34913 0.48044 0.53699
 N2054 N 0.32445 0.49241 0.55477
 N2055 N 0.29656 0.47642 0.55892
 C2056 C 0.29129 0.44754 0.54525
 H2057 H 0.38815 0.39135 0.48559
 H2058 H 0.33823 0.36278 0.49324
 H2059 H 0.37170 0.49369 0.53597
 H2060 H 0.26900 0.43478 0.55122
 C2061 C 0.34973 0.54895 -0.00560
 C2062 C 0.31864 0.56177 -0.00704
 C2063 C 0.31317 0.59510 -0.00432
 C2064 C 0.34095 0.61592 -0.00129
 C2065 C 0.37257 0.60240 0.00176
 C2066 C 0.37694 0.56862 -0.00108
 C2067 C 0.39864 0.62321 0.00860
 N2068 N 0.39389 0.65552 0.00982
 N2069 N 0.36482 0.66849 0.00502
 C2070 C 0.33837 0.65000 -0.00051
 H2071 H 0.35252 0.52311 -0.00819
 H2072 H 0.29911 0.54491 -0.01049
 H2073 H 0.42266 0.61430 0.01369
 H2074 H 0.31576 0.66252 -0.00407
 C2075 C -0.15309 0.04682 0.50856
 C2076 C -0.18355 0.06110 0.50674
 C2077 C -0.18732 0.09502 0.50520
 C2078 C -0.15811 0.11467 0.50572
 C2079 C -0.12707 0.09973 0.50776
 C2080 C -0.12465 0.06539 0.50878
 C2081 C -0.09941 0.11993 0.50956
 N2082 N -0.10230 0.15248 0.50834
 N2083 N -0.13100 0.16660 0.50581
 C2084 C -0.15871 0.14912 0.50462
 H2085 H -0.15178 0.02062 0.50922
 H2086 H -0.20387 0.04469 0.50655
 H2087 H -0.07537 0.11076 0.51304
 H2088 H -0.18062 0.16302 0.50302
 C2089 C 0.63106 0.09482 0.50000
 C2090 C 0.66104 0.11023 0.50241
 C2091 C 0.68995 0.09581 0.49179
 C2092 C 0.68640 0.06877 0.47121
 C2093 C 0.65528 0.05369 0.46745
 C2094 C 0.62765 0.06536 0.48448
 C2095 C 0.65270 0.02887 0.44497
 N2096 N 0.67897 0.01968 0.42779
 N2097 N 0.70759 0.03410 0.43069
 C2098 C 0.71202 0.05855 0.45117
 H2099 H 0.61035 0.10599 0.51132
 H2100 H 0.66096 0.13295 0.51433
 H2101 H 0.62999 0.01771 0.43914
 H2102 H 0.73511 0.07080 0.44990
 C2103 C 0.13337 0.57213 1.01600
 C2104 C 0.16411 0.58590 1.01914
 C2105 C 0.18789 0.58263 0.99513
 C2106 C 0.17991 0.56595 0.96662
 C2107 C 0.14832 0.55239 0.96316
 C2108 C 0.12502 0.55490 0.98851
 C2109 C 0.14071 0.53817 0.93363
 N2110 N 0.16328 0.53699 0.90966
 N2111 N 0.19285 0.54940 0.91298
 C2112 C 0.20186 0.56395 0.94044
 H2113 H 0.11599 0.57467 1.03557
 H2114 H 0.16946 0.59917 1.04066
 H2115 H 0.11684 0.52875 0.92882
 H2116 H 0.22583 0.57447 0.94102
 C2117 C 0.15066 0.44669 0.51654
 C2118 C 0.18031 0.43072 0.51650
 C2119 C 0.18921 0.41105 0.49089
 C2120 C 0.16874 0.40976 0.46349
 C2121 C 0.13984 0.42822 0.46242
 C2122 C 0.12962 0.44492 0.49015
 C2123 C 0.12269 0.43025 0.43306
 N2124 N 0.13221 0.41264 0.40764
 N2125 N 0.15805 0.39353 0.40946
 C2126 C 0.17657 0.39161 0.43645
 H2127 H 0.14377 0.45982 0.53777
 H2128 H 0.19588 0.43255 0.53742
 H2129 H 0.10268 0.44662 0.42963
 H2130 H 0.19722 0.37614 0.43635
 C2131 C 0.65420 0.95145 -0.00745
 C2132 C 0.68337 0.93456 -0.00735
 C2133 C 0.68653 0.90434 0.00918
 C2134 C 0.65888 0.89116 0.02621
 C2135 C 0.62925 0.90866 0.02622
 C2136 C 0.62693 0.93867 0.00874
 C2137 C 0.60286 0.89589 0.04457
 N2138 N 0.60565 0.86719 0.06109
 N2139 N 0.63311 0.85050 0.06073
 C2140 C 0.65959 0.86153 0.04405
 H2141 H 0.65270 0.97438 -0.02095
 H2142 H 0.70358 0.94509 -0.02099
 H2143 H 0.58017 0.90859 0.04645
 H2144 H 0.68064 0.84688 0.04525
 C2145 C -0.01791 0.84200 0.95321
 C2146 C -0.01460 0.81225 0.93904
 C2147 C 0.01456 0.80360 0.92356
 C2148 C 0.04278 0.82177 0.93059
 C2149 C 0.03939 0.85245 0.94481
 C2150 C 0.00813 0.86356 0.95370
 C2151 C 0.06762 0.87009 0.95145
 N2152 N 0.09718 0.85741 0.94517
 N2153 N 0.10038 0.82807 0.93327
 C2154 C 0.07423 0.80965 0.92627
 H2155 H -0.04141 0.84882 0.96233
 H2156 H -0.03600 0.79712 0.93760
 H2157 H 0.06654 0.89309 0.96296
 H2158 H 0.07835 0.78512 0.91912
 C2159 C 0.52541 0.36506 0.42454
 C2160 C 0.52983 0.33485 0.41143
 C2161 C 0.50641 0.31002 0.41535
 C2162 C 0.47888 0.31600 0.43571
 C2163 C 0.47393 0.34738 0.44800
 C2164 C 0.49747 0.37215 0.44220
 C2165 C 0.44463 0.35334 0.46444
 N2166 N 0.42276 0.32925 0.47002
 N2167 N 0.42786 0.29959 0.45977
 C2168 C 0.45488 0.29219 0.44279
 H2169 H 0.54410 0.38332 0.42051
 H2170 H 0.55149 0.33211 0.39713
 H2171 H 0.43838 0.37703 0.47224
 H2172 H 0.45669 0.26780 0.43481
 C2173 C 0.03555 0.35231 0.55378
 C2174 C 0.03478 0.32128 0.56782
 C2175 C 0.00508 0.30519 0.57440
 C2176 C -0.02349 0.31843 0.55997
 C2177 C -0.02272 0.35034 0.54624
 C2178 C 0.00683 0.36776 0.54499
 C2179 C -0.05155 0.36364 0.53361
 N2180 N -0.07909 0.34564 0.53391
 N2181 N -0.07969 0.31530 0.54590
 C2182 C -0.05290 0.30104 0.55872
 H2183 H 0.05861 0.36482 0.55093
 H2184 H 0.05779 0.31054 0.57410
 H2185 H -0.05230 0.38792 0.52292
 H2186 H -0.05488 0.27613 0.56736
 C2187 C 0.52515 0.86783 0.08872
 C2188 C 0.52332 0.83768 0.10444
 C2189 C 0.50163 0.81352 0.09436
 C2190 C 0.47946 0.82207 0.06893
 C2191 C 0.48191 0.85284 0.05259
 C2192 C 0.50528 0.87543 0.06250
 C2193 C 0.45974 0.86069 0.02775
 N2194 N 0.43642 0.83922 0.02000
 N2195 N 0.43349 0.81069 0.03572
 C2196 C 0.45388 0.80159 0.05998
 H2197 H 0.54215 0.88559 0.09735
 H2198 H 0.53864 0.83449 0.12529
 H2199 H 0.46027 0.88389 0.01486
 H2200 H 0.44896 0.77892 0.07256
 C2201 C 0.50491 0.63146 0.08784
 C2202 C 0.50406 0.66082 0.10329
 C2203 C 0.49597 0.68996 0.08668
 C2204 C 0.48680 0.68810 0.05339
 C2205 C 0.49157 0.65887 0.03666
 C2206 C 0.49897 0.62955 0.05451
 C2207 C 0.48877 0.66056 0.00254
 N2208 N 0.47667 0.68735 -0.01274
 N2209 N 0.46760 0.71287 0.00365
 C2210 C 0.47198 0.71399 0.03606
 H2211 H 0.51059 0.60993 0.10242
 H2212 H 0.51044 0.66021 0.12862
 H2213 H 0.49693 0.64170 -0.01259
 H2214 H 0.46298 0.73481 0.04774
 C2215 C 0.02511 0.13857 0.56960
 C2216 C 0.02520 0.16971 0.58151
 C2217 C -0.00378 0.18447 0.59082
 C2218 C -0.03346 0.16773 0.58737
 C2219 C -0.03334 0.13535 0.57727
 C2220 C -0.00395 0.12129 0.56699
 C2221 C -0.06280 0.11813 0.57790
 N2222 N -0.09077 0.13337 0.58550
 N2223 N -0.09118 0.16463 0.59229
 C2224 C -0.06350 0.18243 0.59302
 H2225 H 0.04779 0.12812 0.56178
 H2226 H 0.04803 0.18263 0.58304
 H2227 H -0.06387 0.09284 0.57215
 H2228 H -0.06516 0.20787 0.59802
 C2229 C 0.49208 0.14937 0.44614
 C2230 C 0.49070 0.18021 0.43154
 C2231 C 0.50291 0.18695 0.39999
 C2232 C 0.51541 0.16024 0.38239
 C2233 C 0.51429 0.12821 0.39666
 C2234 C 0.50380 0.12311 0.42930
 C2235 C 0.52489 0.10231 0.37801
 N2236 N 0.53686 0.10795 0.34773
 N2237 N 0.53985 0.13781 0.33513
 C2238 C 0.53018 0.16387 0.35156
 H2239 H 0.48316 0.14585 0.47081
 H2240 H 0.47996 0.19912 0.44553
 H2241 H 0.52446 0.07761 0.38704
 H2242 H 0.53544 0.18674 0.34035
 C2243 C 0.03050 0.63938 0.93157
 C2244 C 0.03005 0.67133 0.91948
 C2245 C 0.00235 0.68436 0.90450
 C2246 C -0.02564 0.66460 0.90206
 C2247 C -0.02567 0.63243 0.91554
 C2248 C 0.00304 0.61944 0.92972
 C2249 C -0.05509 0.61500 0.91575
 N2250 N -0.08184 0.62812 0.90174
 N2251 N -0.08139 0.65772 0.88799
 C2252 C -0.05430 0.67637 0.88785
 H2253 H 0.05249 0.63020 0.94274
 H2254 H 0.05167 0.68608 0.92167
 H2255 H -0.05755 0.59154 0.92768
 H2256 H -0.05557 0.70024 0.87695
 C2257 C 0.25253 0.70251 0.89658
 C2258 C 0.25442 0.68964 0.92817
 C2259 C 0.23141 0.66709 0.94044
 C2260 C 0.20392 0.66032 0.92095
 C2261 C 0.20265 0.67278 0.88833
 C2262 C 0.22768 0.69320 0.87600
 C2263 C 0.17639 0.66420 0.86891
 N2264 N 0.15234 0.64511 0.88159
 N2265 N 0.15288 0.63422 0.91234
 C2266 C 0.17771 0.64124 0.93233
 H2267 H 0.27154 0.71876 0.88763
 H2268 H 0.27534 0.69573 0.94253
 H2269 H 0.17475 0.67265 0.84387
 H2270 H 0.17599 0.63268 0.95701
 C2271 C 0.74027 0.15516 0.38371
 C2272 C 0.74547 0.14366 0.41526
 C2273 C 0.73828 0.16224 0.44245
 C2274 C 0.72210 0.19220 0.43678
 C2275 C 0.71457 0.20301 0.40429
 C2276 C 0.72656 0.18559 0.37723
 C2277 C 0.69546 0.23107 0.40042
 N2278 N 0.68777 0.24875 0.42640
 N2279 N 0.69778 0.24040 0.45611
 C2280 C 0.71493 0.21299 0.46213
 H2281 H 0.74846 0.14034 0.36417
 H2282 H 0.75601 0.11978 0.41813
 H2283 H 0.68542 0.23875 0.37738
 H2284 H 0.72319 0.20816 0.48658
 C2285 C 0.24795 0.29300 0.40050
 C2286 C 0.24391 0.30650 0.43080
 C2287 C 0.24775 0.33978 0.43430
 C2288 C 0.25491 0.36003 0.40641
 C2289 C 0.26094 0.34612 0.37613
 C2290 C 0.25661 0.31233 0.37300
 C2291 C 0.27211 0.36658 0.35023
 N2292 N 0.27425 0.39897 0.35386
 N2293 N 0.26641 0.41230 0.38169
 C2294 C 0.25684 0.39403 0.40800
 H2295 H 0.24427 0.26718 0.39851
 H2296 H 0.23889 0.29075 0.45183
 H2297 H 0.27991 0.35728 0.32735
 H2298 H 0.25071 0.40631 0.42986
 C2299 C 0.76728 0.80031 0.90142
 C2300 C 0.76501 0.81243 0.93222
 C2301 C 0.73962 0.83302 0.94053
 C2302 C 0.71407 0.83851 0.91842
 C2303 C 0.71546 0.82460 0.88738
 C2304 C 0.74374 0.80746 0.87791
 C2305 C 0.68810 0.82788 0.86743
 N2306 N 0.66259 0.84606 0.87675
 N2307 N 0.66236 0.86085 0.90489
 C2308 C 0.68725 0.85773 0.92604
 H2309 H 0.78847 0.78619 0.89568
 H2310 H 0.78460 0.80756 0.94904
 H2311 H 0.68611 0.81527 0.84518
 H2312 H 0.68554 0.86984 0.94872
 C2313 C 0.72438 0.82201 0.11405
 C2314 C 0.72768 0.83744 0.08383
 C2315 C 0.73768 0.82047 0.05681
 C2316 C 0.74463 0.78714 0.06048
 C2317 C 0.74283 0.77148 0.09178
 C2318 C 0.73275 0.78936 0.11898
 C2319 C 0.75310 0.73912 0.09467
 N2320 N 0.76287 0.72337 0.06803
 N2321 N 0.76361 0.73788 0.03867
 C2322 C 0.75500 0.76930 0.03402
 H2323 H 0.71685 0.83634 0.13426
 H2324 H 0.72341 0.86329 0.08167
 H2325 H 0.75410 0.72624 0.11772
 H2326 H 0.75641 0.78012 0.00975
 C2327 C 0.24557 0.28112 0.58871
 C2328 C 0.24620 0.29658 0.55806
 C2329 C 0.22780 0.32453 0.55162
 C2330 C 0.20579 0.33485 0.57565
 C2331 C 0.20584 0.31976 0.60707
 C2332 C 0.22697 0.29359 0.61385
 C2333 C 0.18507 0.33187 0.63094
 N2334 N 0.16528 0.35713 0.62345
 N2335 N 0.16492 0.37100 0.59379
 C2336 C 0.18452 0.36070 0.56973
 H2337 H 0.26178 0.26097 0.59357
 H2338 H 0.26349 0.28851 0.54019
 H2339 H 0.18418 0.32127 0.65531
 H2340 H 0.18273 0.37206 0.54599
 C2341 C 0.77343 0.20507 0.59526
 C2342 C 0.77186 0.18922 0.56591
 C2343 C 0.74419 0.17128 0.55693
 C2344 C 0.71673 0.17190 0.57788
 C2345 C 0.71742 0.19062 0.60623
 C2346 C 0.74698 0.20471 0.61664
 C2347 C 0.68841 0.19383 0.62385
 N2348 N 0.66205 0.17591 0.61646
 N2349 N 0.66295 0.15497 0.59271
 C2350 C 0.68962 0.15203 0.57362
 H2351 H 0.79612 0.21619 0.60202
 H2352 H 0.79344 0.18952 0.55075
 H2353 H 0.68645 0.21071 0.64312
 H2354 H 0.69014 0.13322 0.55647
 C2355 C 0.23756 0.65934 0.11746
 C2356 C 0.23614 0.64387 0.08807
 C2357 C 0.23692 0.66150 0.05844
 C2358 C 0.23743 0.69573 0.05870
 C2359 C 0.23816 0.71175 0.08878
 C2360 C 0.23961 0.69324 0.11864
 C2361 C 0.23697 0.74576 0.08761
 N2362 N 0.23679 0.76237 0.05864
 N2363 N 0.23744 0.74734 0.03064
 C2364 C 0.23779 0.71461 0.02968
 H2365 H 0.23824 0.64438 0.13957
 H2366 H 0.23624 0.61763 0.08841
 H2367 H 0.23549 0.75941 0.10921
 H2368 H 0.23794 0.70371 0.00627
 C2369 C 0.20886 0.59612 0.74132
 C2370 C 0.19629 0.56490 0.73801
 C2371 C 0.16354 0.56007 0.73095
 C2372 C 0.14346 0.58755 0.72561
 C2373 C 0.15571 0.61933 0.73004
 C2374 C 0.18907 0.62374 0.73824
 C2375 C 0.13332 0.64514 0.72780
 N2376 N 0.10193 0.63956 0.72023
 N2377 N 0.09090 0.60992 0.71520
 C2378 C 0.11049 0.58381 0.71783
 H2379 H 0.23427 0.59861 0.74727
 H2380 H 0.21177 0.54427 0.74323
 H2381 H 0.13957 0.66968 0.73275
 H2382 H 0.09999 0.56031 0.71410
 C2383 C 0.66436 0.10935 0.23428
 C2384 C 0.65218 0.07786 0.23373
 C2385 C 0.67293 0.05078 0.23441
 C2386 C 0.70667 0.05633 0.23120
 C2387 C 0.71910 0.08859 0.23042
 C2388 C 0.69781 0.11521 0.23474
 C2389 C 0.75251 0.09297 0.22494
 N2390 N 0.77221 0.06694 0.22255
 N2391 N 0.76073 0.03678 0.22495
 C2392 C 0.72864 0.03058 0.22923
 H2393 H 0.64740 0.12912 0.23645
 H2394 H 0.62616 0.07451 0.23573
 H2395 H 0.76295 0.11678 0.22142
 H2396 H 0.72044 0.00568 0.23036
 C2397 C 0.78804 0.09542 0.73559
 C2398 C 0.80317 0.06525 0.74029
 C2399 C 0.83713 0.06291 0.74124
 C2400 C 0.85597 0.09115 0.73397
 C2401 C 0.84060 0.12109 0.72711
 C2402 C 0.80655 0.12380 0.73056
 C2403 C 0.85999 0.14780 0.71725
 N2404 N 0.89269 0.14512 0.71622
 N2405 N 0.90726 0.11736 0.72418
 C2406 C 0.88996 0.09050 0.73300
 H2407 H 0.76192 0.09684 0.73798
 H2408 H 0.78825 0.04406 0.74571
 H2409 H 0.84927 0.17057 0.70984
 H2410 H 0.90273 0.06885 0.73901
 C2411 C 0.27988 0.59078 0.24627
 C2412 C 0.29806 0.56247 0.25015
 C2413 C 0.32847 0.55979 0.23508
 C2414 C 0.33958 0.58515 0.21366
 C2415 C 0.32083 0.61354 0.20927
 C2416 C 0.29174 0.61696 0.22714
 C2417 C 0.33246 0.63840 0.18797
 N2418 N 0.36140 0.63512 0.17268
 N2419 N 0.37946 0.60877 0.17743
 C2420 C 0.36960 0.58386 0.19750
 H2421 H 0.25782 0.59326 0.26039
 H2422 H 0.28940 0.54342 0.26681
 H2423 H 0.31868 0.66027 0.18327
 H2424 H 0.38532 0.56345 0.20075
 C2425 C 0.29345 0.40469 0.25437
 C2426 C 0.30606 0.43596 0.25413
 C2427 C 0.33879 0.44155 0.24747
 C2428 C 0.35910 0.41525 0.23950
 C2429 C 0.34545 0.38412 0.23547
 C2430 C 0.31268 0.37809 0.24603
 C2431 C 0.36548 0.36089 0.22085
 N2432 N 0.39728 0.36722 0.21501
 N2433 N 0.41069 0.39526 0.22233
 C2434 C 0.39279 0.41933 0.23456
 H2435 H 0.26829 0.40142 0.26153
 H2436 H 0.29054 0.45570 0.26103
 H2437 H 0.35684 0.33821 0.21254
 H2438 H 0.40506 0.44161 0.23924
 C2439 C 0.79311 0.90774 0.74603
 C2440 C 0.80575 0.93914 0.74305
 C2441 C 0.83925 0.94439 0.74147
 C2442 C 0.86031 0.91726 0.74100
 C2443 C 0.84781 0.88562 0.74683
 C2444 C 0.81366 0.88073 0.74870
 C2445 C 0.87029 0.86033 0.75236
 N2446 N 0.90253 0.86602 0.74897
 N2447 N 0.91404 0.89538 0.74118
 C2448 C 0.89409 0.92113 0.73728
 H2449 H 0.76703 0.90460 0.74719
 H2450 H 0.78936 0.95950 0.74418
 H2451 H 0.86302 0.83633 0.76047
 H2452 H 0.90486 0.94433 0.73151
 C2453 C 0.70084 0.89673 0.23071
 C2454 C 0.68785 0.92767 0.23402
 C2455 C 0.65484 0.93182 0.24073
 C2456 C 0.63408 0.90411 0.24121
 C2457 C 0.64701 0.87296 0.23557
 C2458 C 0.68104 0.86890 0.23285
 C2459 C 0.62522 0.84689 0.23257
 N2460 N 0.59304 0.85127 0.23741
 N2461 N 0.58116 0.87996 0.24483
 C2462 C 0.60055 0.90634 0.24696
 H2463 H 0.72688 0.89449 0.22807
 H2464 H 0.70410 0.94832 0.23342
 H2465 H 0.63321 0.82327 0.22559
 H2466 H 0.58949 0.92867 0.25324
 C2467 C 0.15988 0.37819 0.73800
 C2468 C 0.14816 0.40888 0.74373
 C2469 C 0.16634 0.43695 0.73584
 C2470 C 0.19599 0.43350 0.71882
 C2471 C 0.20705 0.40203 0.71065
 C2472 C 0.19010 0.37373 0.72310
 C2473 C 0.23459 0.40054 0.69026
 N2474 N 0.25137 0.42787 0.68176
 N2475 N 0.24252 0.45674 0.69191
 C2476 C 0.21551 0.46047 0.71023
 H2477 H 0.14539 0.35768 0.74665
 H2478 H 0.12484 0.41040 0.75563
 H2479 H 0.24245 0.37848 0.67965
 H2480 H 0.20971 0.48444 0.71801
 C2481 C 0.09818 0.76926 0.78916
 C2482 C 0.06936 0.77045 0.80690
 C2483 C 0.05785 0.74334 0.82518
 C2484 C 0.07425 0.71330 0.82218
 C2485 C 0.10351 0.71214 0.80371
 C2486 C 0.11615 0.74071 0.78838
 C2487 C 0.12011 0.68257 0.80246
 N2488 N 0.10792 0.65578 0.81812
 N2489 N 0.08057 0.65674 0.83536
 C2490 C 0.06356 0.68453 0.83813
 H2491 H 0.10757 0.79136 0.77760
 H2492 H 0.05717 0.79354 0.80836
 H2493 H 0.14269 0.68052 0.78928
 H2494 H 0.04181 0.68351 0.85242
 C2495 C 0.59181 0.24611 0.27828
 C2496 C 0.56300 0.25198 0.29523
 C2497 C 0.56006 0.24340 0.32834
 C2498 C 0.58573 0.22629 0.34404
 C2499 C 0.61369 0.21820 0.32612
 C2500 C 0.61778 0.23046 0.29388
 C2501 C 0.63742 0.19868 0.34138
 N2502 N 0.63400 0.18938 0.37305
 N2503 N 0.60863 0.19856 0.39051
 C2504 C 0.58466 0.21693 0.37723
 H2505 H 0.59464 0.25577 0.25365
 H2506 H 0.54370 0.26516 0.28301
 H2507 H 0.65851 0.19055 0.32831
 H2508 H 0.56509 0.22375 0.39280
 C2509 C 0.59013 0.75318 0.21506
 C2510 C 0.55981 0.75351 0.20008
 C2511 C 0.55329 0.73400 0.17364
 C2512 C 0.57727 0.71173 0.16419
 C2513 C 0.60678 0.70900 0.18167
 C2514 C 0.61480 0.73229 0.20512
 C2515 C 0.62729 0.68308 0.17453
 N2516 N 0.62102 0.66432 0.14903
 N2517 N 0.59538 0.66961 0.13025
 C2518 C 0.57354 0.69288 0.13685
 H2519 H 0.59478 0.77072 0.23336
 H2520 H 0.54219 0.77129 0.20732
 H2521 H 0.64749 0.67678 0.18952
 H2522 H 0.55387 0.69668 0.12047
 C2523 C 0.09956 0.26841 0.69651
 C2524 C 0.06948 0.26795 0.68145
 C2525 C 0.05845 0.24040 0.66564
 C2526 C 0.07646 0.21134 0.66927
 C2527 C 0.10648 0.21148 0.68606
 C2528 C 0.11929 0.24098 0.69732
 C2529 C 0.12251 0.18186 0.69142
 N2530 N 0.11056 0.15446 0.67885
 N2531 N 0.08344 0.15465 0.66156
 C2532 C 0.06608 0.18210 0.65633
 H2533 H 0.10819 0.29097 0.70599
 H2534 H 0.05572 0.29024 0.68000
 H2535 H 0.14376 0.18006 0.70637
 H2536 H 0.04416 0.18046 0.64269
 C2537 C 0.89429 0.21876 0.67712
 C2538 C 0.92608 0.21950 0.66526
 C2539 C 0.94497 0.24764 0.66640
 C2540 C 0.93324 0.27374 0.68449
 C2541 C 0.90124 0.27271 0.69746
 C2542 C 0.88121 0.24524 0.69283
 C2543 C 0.89037 0.29947 0.71453
 N2544 N 0.91042 0.32501 0.71890
 N2545 N 0.94067 0.32561 0.70740
 C2546 C 0.95279 0.30084 0.69046
 H2547 H 0.87957 0.19772 0.67289
 H2548 H 0.93528 0.19847 0.65358
 H2549 H 0.86628 0.30036 0.72459
 H2550 H 0.97777 0.30228 0.68232
 C2551 C 0.39756 0.73336 0.20610
 C2552 C 0.42879 0.73702 0.19319
 C2553 C 0.43439 0.73451 0.15994
 C2554 C 0.40820 0.72595 0.13964
 C2555 C 0.37648 0.72193 0.15282
 C2556 C 0.37094 0.72722 0.18610
 C2557 C 0.35138 0.71250 0.13214
 N2558 N 0.35763 0.70829 0.10026
 N2559 N 0.38721 0.71279 0.08774
 C2560 C 0.41256 0.72149 0.10633
 H2561 H 0.39391 0.73727 0.23171
 H2562 H 0.44842 0.74361 0.20901
 H2563 H 0.32703 0.70784 0.14101
 H2564 H 0.43587 0.72450 0.09502
 C2565 C 0.39033 0.23210 0.32440
 C2566 C 0.42210 0.23111 0.33583
 C2567 C 0.44267 0.25794 0.33139
 C2568 C 0.43137 0.28587 0.31401
 C2569 C 0.39864 0.28760 0.30408
 C2570 C 0.37814 0.26014 0.30870
 C2571 C 0.38729 0.31732 0.29090
 N2572 N 0.40805 0.34257 0.28595
 N2573 N 0.43935 0.34018 0.29323
 C2574 C 0.45176 0.31267 0.30691
 H2575 H 0.37511 0.21081 0.32789
 H2576 H 0.43022 0.20977 0.34945
 H2577 H 0.36206 0.32105 0.28515
 H2578 H 0.47740 0.31200 0.31225
 C2579 C 0.90857 0.75790 0.79564
 C2580 C 0.93894 0.75444 0.81015
 C2581 C 0.94210 0.75597 0.84378
 C2582 C 0.91392 0.76052 0.86323
 C2583 C 0.88369 0.76666 0.84832
 C2584 C 0.88068 0.76385 0.81430
 C2585 C 0.85757 0.77599 0.86811
 N2586 N 0.86077 0.77563 0.90080
 N2587 N 0.88837 0.76687 0.91503
 C2588 C 0.91492 0.75914 0.89744
 H2589 H 0.90680 0.75557 0.76964
 H2590 H 0.96016 0.75110 0.79501
 H2591 H 0.83487 0.78425 0.85800
 H2592 H 0.93645 0.75170 0.91041
   
