data_POSCAR
  _audit_creation_date              2014-09-24
  _audit_creation_method            'ToBaCCo'
  _symmetry_space_group_name_H-M    'P1'
  _symmetry_Int_Tables_number       1
  _symmetry_cell_setting            triclinic
  loop_
  _symmetry_equiv_pos_as_xyz
 x,y,z
_cell_length_a 53.3865
_cell_length_b 53.4448
_cell_length_c 53.3137
_cell_angle_alpha 89.995300
_cell_angle_beta 89.994200
_cell_angle_gamma 89.962600
loop_
  _atom_site_label
  _atom_site_type_symbol
  _atom_site_fract_x
  _atom_site_fract_y
  _atom_site_fract_z
C1 C 0.35864 1.35838 0.32601
 C2 C 0.36890 1.33676 0.33720
 C3 C 0.35807 1.32596 0.35855
 C4 C 0.33672 1.33694 0.36914
 C5 C 0.32569 1.35851 0.35864
 C6 C 0.33704 1.36901 0.33711
 H7 H 0.38574 1.32831 0.32976
 H8 H 0.32952 1.32904 0.38637
 H9 H 0.32768 1.38419 0.32759
 C10 C 0.35896 0.85848 0.82701
 C11 C 0.36939 0.83698 0.83789
 C12 C 0.35861 0.82615 0.85926
 C13 C 0.33722 0.83719 0.86988
 C14 C 0.32613 0.85879 0.85935
 C15 C 0.33751 0.86926 0.83783
 H16 H 0.38582 0.82849 0.82955
 H17 H 0.33005 0.82930 0.88712
 H18 H 0.32896 0.88493 0.82828
 C19 C 0.85839 1.35819 0.82642
 C20 C 0.86898 1.33674 0.83719
 C21 C 0.85838 1.32578 0.85856
 C22 C 0.83697 1.33664 0.86935
 C23 C 0.82578 1.35829 0.85899
 C24 C 0.83699 1.36887 0.83742
 H25 H 0.88579 1.32874 0.82912
 H26 H 0.82949 1.32821 0.88618
 H27 H 0.82833 1.38455 0.82797
 C28 C 0.85901 0.85850 0.32676
 C29 C 0.86958 0.83713 0.33788
 C30 C 0.85877 0.82633 0.35932
 C31 C 0.83726 0.83730 0.36975
 C32 C 0.82637 0.85864 0.35890
 C33 C 0.83744 0.86918 0.33745
 H34 H 0.88610 0.82870 0.32966
 H35 H 0.82915 0.82939 0.38661
 H36 H 0.82872 0.88517 0.32852
 C37 C 0.64056 0.64127 0.32645
 C38 C 0.66214 0.63061 0.33751
 C39 C 0.67338 0.64127 0.35880
 C40 C 0.66282 0.66279 0.36947
 C41 C 0.64137 0.67380 0.35905
 C42 C 0.63040 0.66298 0.33770
 H43 H 0.67104 0.61444 0.32919
 H44 H 0.67147 0.67115 0.38583
 H45 H 0.61357 0.67146 0.33030
 C46 C 0.64106 0.14149 0.82706
 C47 C 0.66250 0.13057 0.83770
 C48 C 0.67394 0.14074 0.85934
 C49 C 0.66293 0.16227 0.87015
 C50 C 0.64152 0.17344 0.85966
 C51 C 0.63070 0.16288 0.83819
 H52 H 0.66983 0.11377 0.82913
 H53 H 0.67137 0.17116 0.88627
 H54 H 0.61427 0.17149 0.82994
 C55 C 1.14085 0.64118 0.82675
 C56 C 1.13042 0.66271 0.83766
 C57 C 1.14129 0.67369 0.85897
 C58 C 1.16275 0.66270 0.86954
 C59 C 1.17344 0.64113 0.85893
 C60 C 1.16229 0.63046 0.83758
 H61 H 1.11357 0.67076 0.82972
 H62 H 1.17169 0.67149 0.88551
 H63 H 1.17051 0.61392 0.82920
 C64 C 1.14113 0.14098 0.32602
 C65 C 1.13061 0.16252 0.33710
 C66 C 1.14132 0.17356 0.35840
 C67 C 1.16283 0.16288 0.36906
 C68 C 1.17403 0.14132 0.35868
 C69 C 1.16269 0.13056 0.33729
 H70 H 1.11450 0.17154 0.32877
 H71 H 1.17156 0.17254 0.38459
 H72 H 1.16960 0.11283 0.33049
 C73 C 0.64119 1.35840 0.67305
 C74 C 0.66263 1.36929 0.66239
 C75 C 0.67404 1.35912 0.64073
 C76 C 0.66301 1.33762 0.62993
 C77 C 0.64160 1.32648 0.64042
 C78 C 0.63080 1.33704 0.66191
 H79 H 0.66998 1.38607 0.67097
 H80 H 0.67143 1.32872 0.61379
 H81 H 0.61437 1.32846 0.67016
 C82 C 0.64156 0.85831 1.17348
 C83 C 0.63104 0.83686 1.16248
 C84 C 0.64180 0.82604 1.14101
 C85 C 0.66326 0.83703 1.13045
 C86 C 0.67404 0.85847 1.14119
 C87 C 0.66297 0.86903 1.16260
 H88 H 0.61498 0.82804 1.17120
 H89 H 0.67175 0.82872 1.11399
 H90 H 0.67086 0.88589 1.17064
 C91 C 1.14049 1.35880 1.17347
 C92 C 1.13037 1.33712 1.16215
 C93 C 1.14141 1.32634 1.14080
 C94 C 1.16287 1.33736 1.13045
 C95 C 1.17339 1.35886 1.14120
 C96 C 1.16207 1.36948 1.16247
 H97 H 1.11354 1.32862 1.16950
 H98 H 1.17157 1.32903 1.11409
 H99 H 1.17093 1.38562 1.17085
 C100 C 1.14152 0.85821 0.67302
 C101 C 1.13111 0.83671 0.66216
 C102 C 1.14189 0.82586 0.64080
 C103 C 1.16328 0.83687 0.63017
 C104 C 1.17433 0.85849 0.64067
 C105 C 1.16295 0.86897 0.66219
 H106 H 1.11468 0.82824 0.67052
 H107 H 1.17047 0.82896 0.61294
 H108 H 1.17149 0.88465 0.67173
 C109 C 0.35884 0.64176 0.67332
 C110 C 0.36939 0.66318 0.66228
 C111 C 0.35863 0.67400 0.64082
 C112 C 0.33718 0.66302 0.63030
 C113 C 0.32633 0.64162 0.64106
 C114 C 0.33736 0.63107 0.66253
 H115 H 0.38586 0.67161 0.67057
 H116 H 0.32911 0.67095 0.61343
 H117 H 0.32866 0.61504 0.67139
 C118 C 0.35875 0.14184 1.17406
 C119 C 0.33720 0.13127 1.16287
 C120 C 0.32620 0.14191 1.14144
 C121 C 0.33697 0.16334 1.13080
 C122 C 0.35833 0.17428 1.14137
 C123 C 0.36911 0.16345 1.16281
 H124 H 0.32776 0.11562 1.17158
 H125 H 0.32889 0.17133 1.11396
 H126 H 0.38593 0.17187 1.17028
 C127 C 0.85855 0.64132 1.17407
 C128 C 0.83697 0.63093 1.16277
 C129 C 0.82616 0.64166 1.14129
 C130 C 0.83710 0.66303 1.13074
 C131 C 0.85850 0.67383 1.14143
 C132 C 0.86912 0.66287 1.16290
 H133 H 0.82856 0.61411 1.17022
 H134 H 0.82912 0.67108 1.11389
 H135 H 0.88475 0.67233 1.17165
 C136 C 0.85792 0.14217 0.67442
 C137 C 0.83637 0.13158 0.66323
 C138 C 0.82510 0.14211 0.64167
 C139 C 0.83616 0.16369 0.63123
 C140 C 0.85749 0.17462 0.64190
 C141 C 0.86823 0.16379 0.66328
 H142 H 0.82697 0.11641 0.67271
 H143 H 0.82903 0.17162 0.61398
 H144 H 0.88505 0.17219 0.67079
 C145 C 1.35916 0.35835 0.67321
 C146 C 1.36990 0.33704 0.66210
 C147 C 1.35926 0.32584 0.64058
 C148 C 1.33758 0.33701 0.63029
 C149 C 1.32660 0.35829 0.64116
 C150 C 1.33757 0.36887 0.66256
 H151 H 1.38610 0.32882 0.67105
 H152 H 1.32959 0.32998 0.61304
 H153 H 1.32877 0.38483 0.67148
 C154 C 1.35927 0.85836 1.17311
 C155 C 1.36998 0.83700 1.16206
 C156 C 1.35933 0.82579 1.14054
 C157 C 1.33767 0.83699 1.13022
 C158 C 1.32675 0.85832 1.14105
 C159 C 1.33773 0.86891 1.16243
 H160 H 1.38614 0.82877 1.17106
 H161 H 1.32966 0.82994 1.11299
 H162 H 1.32896 0.88490 1.17133
 C163 C 0.85878 0.35807 1.17350
 C164 C 0.86962 0.33676 1.16256
 C165 C 0.85931 0.32556 1.14088
 C166 C 0.83779 0.33675 1.13024
 C167 C 0.82672 0.35808 1.14096
 C168 C 0.83739 0.36864 1.16253
 H169 H 0.88685 0.32972 1.17055
 H170 H 0.82882 0.32851 1.11406
 H171 H 0.82849 0.38462 1.17131
 C172 C 0.85862 0.85886 0.67315
 C173 C 0.86926 0.83732 0.66241
 C174 C 0.85865 0.82631 0.64096
 C175 C 0.83728 0.83723 0.63017
 C176 C 0.82635 0.85872 0.64065
 C177 C 0.83722 0.86947 0.66208
 H178 H 0.88527 0.82858 0.67129
 H179 H 0.82932 0.82917 0.61332
 H180 H 0.82882 0.88598 0.67034
 C181 C 0.64045 0.64138 0.67291
 C182 C 0.63011 0.66286 0.66178
 C183 C 0.64108 0.67358 0.64037
 C184 C 0.66258 0.66246 0.63003
 C185 C 0.67321 0.64099 0.64090
 C186 C 0.66195 0.63054 0.66229
 H187 H 0.61363 0.67141 0.66996
 H188 H 0.67124 0.67070 0.61361
 H189 H 0.67012 0.61407 0.67086
 C190 C 0.64043 1.14155 1.17273
 C191 C 0.66199 1.13085 1.16226
 C192 C 0.67322 1.14130 1.14094
 C193 C 0.66256 1.16272 1.12997
 C194 C 0.64081 1.17400 1.14004
 C195 C 0.62993 1.16291 1.16151
 H196 H 0.67022 1.11444 1.17090
 H197 H 0.67122 1.17013 1.11322
 H198 H 0.61374 1.17125 1.17036
 C199 C 0.14063 0.64165 1.17368
 C200 C 0.13037 0.66324 1.16229
 C201 C 0.14131 0.67436 1.14085
 C202 C 0.16299 0.66310 1.13075
 C203 C 0.17350 0.64163 1.14157
 C204 C 0.16224 0.63102 1.16279
 H205 H 0.11383 0.67158 1.17032
 H206 H 0.17168 0.67059 1.11404
 H207 H 0.17115 0.61491 1.17123
 C208 C 0.14029 1.14149 0.67270
 C209 C 0.16185 1.13078 0.66223
 C210 C 0.17309 1.14125 0.64092
 C211 C 0.16244 1.16266 0.62995
 C212 C 0.14070 1.17396 0.64003
 C213 C 0.12980 1.16285 0.66149
 H214 H 0.17008 1.11438 0.67087
 H215 H 0.17111 1.17008 0.61321
 H216 H 0.11361 1.17120 0.67033
 C217 C 1.35841 0.64191 0.32684
 C218 C 1.33700 0.63135 0.33775
 C219 C 1.32613 0.64200 0.35915
 C220 C 1.33702 0.66342 0.36979
 C221 C 1.35855 0.67464 0.35924
 C222 C 1.36908 0.66337 0.33768
 H223 H 1.32860 0.61489 0.32940
 H224 H 1.32910 0.67050 0.38705
 H225 H 1.38471 0.67202 0.32812
 C226 C 1.35900 1.14216 0.82692
 C227 C 1.33742 1.13162 0.83752
 C228 C 1.32638 1.14218 0.85891
 C229 C 1.33729 1.16347 0.86981
 C230 C 1.35899 1.17464 0.85957
 C231 C 1.36968 1.16346 0.83806
 H232 H 1.32867 1.11566 0.82858
 H233 H 1.32924 1.17050 0.88704
 H234 H 1.38588 1.17169 0.82913
 C235 C 0.85907 0.64140 0.82698
 C236 C 0.86967 0.66279 0.83802
 C237 C 0.85895 0.67364 0.85948
 C238 C 0.83747 0.66271 0.87001
 C239 C 0.82656 0.64135 0.85925
 C240 C 0.83756 0.63077 0.83778
 H241 H 0.88617 0.67118 0.82971
 H242 H 0.82942 0.67066 0.88688
 H243 H 0.82881 0.61477 0.82891
 C244 C 0.85882 1.14168 0.32667
 C245 C 0.83729 1.13103 0.33742
 C246 C 0.82624 1.14160 0.35887
 C247 C 0.83712 1.16297 0.36966
 C248 C 0.85861 1.17391 0.35917
 C249 C 0.86938 1.16308 0.33773
 H250 H 0.82857 1.11503 0.32854
 H251 H 0.82903 1.17091 0.38651
 H252 H 0.88589 1.17148 0.32946
 C253 C 0.64202 0.35793 0.32589
 C254 C 0.63144 0.33636 0.33702
 C255 C 0.64194 0.32509 0.35860
 C256 C 0.66350 0.33616 0.36910
 C257 C 0.67442 0.35752 0.35849
 C258 C 0.66361 0.36826 0.33710
 H259 H 0.61629 0.32697 0.32749
 H260 H 0.67142 0.32902 0.38634
 H261 H 0.67200 0.38508 0.32964
 C262 C 0.64100 0.85836 0.82681
 C263 C 0.66250 0.86914 0.83746
 C264 C 0.67371 0.85866 0.85887
 C265 C 0.66305 0.83722 0.86972
 C266 C 0.64154 0.82616 0.85935
 C267 C 0.63062 0.83691 0.83794
 H268 H 0.67070 0.88559 0.82890
 H269 H 0.67166 0.82895 0.88615
 H270 H 0.61413 0.82841 0.82974
 C271 C 0.14128 0.35806 0.82599
 C272 C 0.13093 0.33645 0.83726
 C273 C 0.14170 0.32565 0.85871
 C274 C 0.16306 0.33661 0.86928
 C275 C 0.17382 0.35803 0.85863
 C276 C 0.16282 0.36865 0.83718
 H277 H 0.11411 0.32803 0.82979
 H278 H 0.17114 0.32863 0.88613
 H279 H 0.17225 0.38430 0.82845
 C280 C 0.14046 0.85890 0.32652
 C281 C 0.13036 0.83718 0.33779
 C282 C 0.14135 0.82642 0.35918
 C283 C 0.16274 0.83751 0.36961
 C284 C 0.17323 0.85904 0.35891
 C285 C 0.16197 0.86964 0.33759
 H286 H 0.11358 0.82863 0.33038
 H287 H 0.17140 0.82920 0.38599
 H288 H 0.17082 0.88581 0.32926
 O289 O 1.09042 1.02446 1.12512
 O290 O 1.11950 1.02455 1.15450
 C291 C 1.09913 1.03304 1.14555
 C292 C 1.08574 1.05352 1.15862
 C293 C 1.09410 1.06226 1.18202
 H294 H 1.11004 1.05355 1.19110
 O295 O 0.90973 0.97550 1.12494
 O296 O 0.88061 0.97540 1.15428
 C297 C 0.90099 0.96691 1.14535
 C298 C 0.91434 0.94640 1.15844
 C299 C 0.90588 0.93761 1.18178
 H300 H 0.88990 0.94630 1.19082
 O301 O 1.02441 1.12476 1.09051
 O302 O 1.02438 1.15405 1.11964
 C303 C 1.03296 1.14514 1.09928
 C304 C 1.05351 1.15818 1.08594
 C305 C 1.06230 1.18149 1.09439
 H306 H 1.05359 1.19053 1.11037
 O307 O 0.97598 0.87510 1.09058
 O308 O 0.97601 0.84584 1.11975
 C309 C 0.96745 0.85472 1.09936
 C310 C 0.94694 0.84162 1.08604
 C311 C 0.93814 0.81836 1.09460
 H312 H 0.94684 0.80938 1.11062
 O313 O 1.12484 1.09024 1.02447
 O314 O 1.15407 1.11938 1.02446
 C315 C 1.14521 1.09905 1.03305
 C316 C 1.15829 1.08581 1.05366
 C317 C 1.18157 1.09434 1.06249
 H318 H 1.19057 1.11029 1.05374
 O319 O 0.87569 0.90945 1.02441
 O320 O 0.84644 0.88033 1.02443
 C321 C 0.85530 0.90069 1.03297
 C322 C 0.84215 0.91401 1.05347
 C323 C 0.81881 0.90556 1.06218
 H324 H 0.80983 0.88960 1.05344
 O325 O 0.97551 1.09049 1.12480
 O326 O 0.97539 1.11963 1.15408
 C327 C 0.96690 1.09927 1.14520
 C328 C 0.94642 1.08593 1.15833
 C329 C 0.93760 1.09443 1.18166
 H330 H 0.94624 1.11044 1.19064
 O331 O 1.02471 0.90949 1.12494
 O332 O 1.02479 0.88039 1.15426
 C333 C 1.03326 0.90076 1.14538
 C334 C 1.05368 0.91413 1.15857
 C335 C 1.06233 0.90572 1.18198
 H336 H 1.05360 0.88976 1.19099
 O337 O 1.12492 0.97571 1.09087
 O338 O 1.15416 0.97574 1.12009
 C339 C 1.14533 0.96721 1.09967
 C340 C 1.15852 0.94679 1.08631
 C341 C 1.18184 0.93804 1.09483
 H342 H 1.19078 0.94669 1.11089
 O343 O 0.87524 1.02429 1.09068
 O344 O 0.84597 1.02422 1.11987
 C345 C 0.85482 1.03278 1.09948
 C346 C 0.84165 1.05325 1.08615
 C347 C 0.81832 1.06199 1.09466
 H348 H 0.80935 1.05330 1.11069
 O349 O 0.90927 1.12440 1.02442
 O350 O 0.88010 1.15364 1.02441
 C351 C 0.90049 1.14479 1.03295
 C352 C 0.91387 1.15796 1.05339
 C353 C 0.90546 1.18134 1.06204
 H354 H 0.88947 1.19033 1.05331
 O355 O 1.09106 0.87564 1.02452
 O356 O 1.12027 0.84644 1.02452
 C357 C 1.09987 0.85527 1.03307
 C358 C 1.08656 0.84210 1.05357
 C359 C 1.09505 0.81877 1.06225
 H360 H 1.11104 0.80981 1.05350
 O361 O 0.90964 1.02434 1.12492
 O362 O 0.88052 1.02430 1.15427
 C363 C 0.90085 1.03288 1.14534
 C364 C 0.91411 1.05344 1.15842
 C365 C 0.90559 1.06224 1.18175
 H366 H 0.88964 1.05352 1.19079
 O367 O 1.09058 0.97564 1.12518
 O368 O 1.11965 0.97566 1.15456
 C369 C 1.09932 0.96710 1.14562
 C370 C 1.08601 0.94658 1.15870
 C371 C 1.09437 0.93787 1.18212
 H372 H 1.11027 0.94662 1.19123
 O373 O 1.02486 0.87527 1.09055
 O374 O 1.02496 0.84600 1.11971
 C375 C 1.03349 0.85493 1.09933
 C376 C 1.05407 0.84192 1.08599
 C377 C 1.06287 0.81858 1.09438
 H378 H 1.05414 0.80949 1.11031
 O379 O 0.97552 1.12469 1.09039
 O380 O 0.97543 1.15399 1.11951
 C381 C 0.96692 1.14506 1.09913
 C382 C 0.94640 1.15810 1.08575
 C383 C 0.93769 1.18148 1.09410
 H384 H 0.94647 1.19057 1.11001
 O385 O 0.87499 1.09013 1.02448
 O386 O 0.84566 1.11921 1.02449
 C387 C 0.85459 1.09889 1.03306
 C388 C 0.84153 1.08559 1.05363
 C389 C 0.81821 1.09404 1.06244
 H390 H 0.80915 1.10998 1.05371
 O391 O 1.12526 0.90998 1.02453
 O392 O 1.15462 0.88094 1.02455
 C393 C 1.14567 0.90125 1.03312
 C394 C 1.15869 0.91453 1.05371
 C395 C 1.18201 0.90608 1.06253
 H396 H 1.19108 0.89016 1.05378
 O397 O 0.97586 0.90944 1.12484
 O398 O 0.97587 0.88034 1.15417
 C399 C 0.96730 0.90067 1.14526
 C400 C 0.94677 0.91398 1.15838
 C401 C 0.93799 0.90549 1.18173
 H402 H 0.94670 0.88950 1.19072
 O403 O 1.02436 1.09050 1.12487
 O404 O 1.02431 1.11963 1.15416
 C405 C 1.03287 1.09927 1.14530
 C406 C 1.05332 1.08594 1.15850
 C407 C 1.06199 1.09439 1.18190
 H408 H 1.05325 1.11035 1.19089
 O409 O 0.87548 0.97548 1.09056
 O410 O 0.84619 0.97536 1.11974
 C411 C 0.85511 0.96688 1.09933
 C412 C 0.84206 0.94639 1.08595
 C413 C 0.81871 0.93763 1.09437
 H414 H 0.80966 0.94632 1.11035
 O415 O 1.12479 1.02450 1.09085
 O416 O 1.15403 1.02460 1.12007
 C417 C 1.14516 1.03308 1.09965
 C418 C 1.15825 1.05355 1.08627
 C419 C 1.18153 1.06238 1.09479
 H420 H 1.19051 1.05376 1.11086
 O421 O 0.90993 0.87509 1.02448
 O422 O 0.88083 0.84582 1.02449
 C423 C 0.90117 0.85471 1.03305
 C424 C 0.91450 0.84163 1.05361
 C425 C 0.90598 0.81837 1.06246
 H426 H 0.88997 0.80939 1.05378
 O427 O 1.09055 1.12454 1.02443
 O428 O 1.11963 1.15382 1.02440
 C429 C 1.09928 1.14494 1.03297
 C430 C 1.08595 1.15807 1.05349
 C431 C 1.09444 1.18137 1.06223
 H432 H 1.11043 1.19033 1.05349
 Cu433 Cu 1.10476 1.00007 1.10508
 Cu434 Cu 1.13976 1.00015 1.14026
 Cu435 Cu 0.89544 0.99991 1.10485
 Cu436 Cu 0.86040 0.99981 1.13999
 Cu437 Cu 0.99996 1.10470 1.10472
 Cu438 Cu 0.99987 1.13977 1.13978
 Cu439 Cu 1.00035 0.89524 1.10480
 Cu440 Cu 1.00042 0.86021 1.13991
 C441 C 1.06517 1.06534 1.14714
 H442 H 1.05883 1.05894 1.12893
 C443 C 1.08225 1.08256 1.19361
 C444 C 0.93497 0.93461 1.14701
 H445 H 0.94138 0.94105 1.12885
 C446 C 0.91767 0.91728 1.19338
 C447 C 1.06531 1.14675 1.06532
 H448 H 1.05888 1.12863 1.05891
 C449 C 1.08265 1.19304 1.08255
 C450 C 0.93515 0.85297 1.06537
 H451 H 0.94160 0.87106 1.05890
 C452 C 0.91778 0.80678 1.08283
 C453 C 1.14691 1.06524 1.06553
 H454 H 1.12880 1.05878 1.05907
 C455 C 1.19314 1.08265 1.08293
 C456 C 0.85350 0.93461 1.06532
 H457 H 0.87166 0.94101 1.05894
 C458 C 0.80714 0.91734 1.08250
 C459 C 0.93469 1.06526 1.14699
 H460 H 0.94115 1.05882 1.12884
 C461 C 0.91732 1.08261 1.19332
 C462 C 1.06548 0.93473 1.14720
 H463 H 1.05915 0.94110 1.12899
 C464 C 1.08254 0.91757 1.19372
 C465 C 1.14723 0.93506 1.06558
 H466 H 1.12909 0.94147 1.05912
 C467 C 1.19354 0.91781 1.08296
 C468 C 0.85297 1.06502 1.06546
 H469 H 0.87112 1.05862 1.05901
 C470 C 0.80664 1.08227 1.08283
 C471 C 0.93451 1.14662 1.06522
 H472 H 0.94088 1.12844 1.05889
 C473 C 0.91736 1.19305 1.08227
 C474 C 1.06590 0.85340 1.06541
 H475 H 1.05946 0.87155 1.05905
 C476 C 1.08323 0.80705 1.08253
 O477 O 1.09072 0.97565 0.87473
 O478 O 1.11985 0.97567 0.84540
 C479 C 1.09952 0.96710 0.85432
 C480 C 1.08625 0.94656 0.84123
 C481 C 1.09477 0.93775 0.81791
 H482 H 1.11074 0.94644 0.80887
 O483 O 0.90949 1.02429 0.87482
 O484 O 0.88033 1.02423 0.84553
 C485 C 0.90066 1.03283 0.85442
 C486 C 0.91387 1.05341 0.84132
 C487 C 0.90523 1.06231 0.81807
 H488 H 0.88922 1.05364 0.80909
 O489 O 0.97538 1.12442 0.90934
 O490 O 0.97533 1.15376 0.88025
 C491 C 0.96681 1.14482 0.90062
 C492 C 0.94630 1.15788 0.91401
 C493 C 0.93754 1.18121 0.90559
 H494 H 0.94626 1.19025 0.88962
 O495 O 1.02496 0.87547 0.90937
 O496 O 1.02507 0.84615 0.88027
 C497 C 1.03358 0.85510 0.90064
 C498 C 1.05412 0.84208 0.91403
 C499 C 1.06292 0.81875 0.90565
 H500 H 1.05422 0.80969 0.88968
 O501 O 1.12526 0.91000 0.97557
 O502 O 1.15463 0.88096 0.97553
 C503 C 1.14567 0.90127 0.96697
 C504 C 1.15871 0.91458 0.94639
 C505 C 1.18207 0.90618 0.93762
 H506 H 1.19115 0.89028 0.94639
 O507 O 0.87502 1.09004 0.97554
 O508 O 0.84568 1.11912 0.97548
 C509 C 0.85462 1.09878 0.96695
 C510 C 0.84155 1.08544 0.94641
 C511 C 0.81818 1.09383 0.93766
 H512 H 0.80911 1.10974 0.94642
 O513 O 1.02423 1.09023 0.87487
 O514 O 1.02422 1.11940 0.84561
 C515 C 1.03277 1.09904 0.85446
 C516 C 1.05328 1.08576 0.84130
 C517 C 1.06195 1.09423 0.81791
 H518 H 1.05316 1.11016 0.80891
 O519 O 0.97598 0.90955 0.87498
 O520 O 0.97601 0.88040 0.84571
 C521 C 0.96742 0.90074 0.85458
 C522 C 0.94687 0.91401 0.84145
 C523 C 0.93810 0.90549 0.81812
 H524 H 0.94682 0.88952 0.80912
 O525 O 1.12487 1.02454 0.90907
 O526 O 1.15416 1.02463 0.87989
 C527 C 1.14525 1.03312 0.90029
 C528 C 1.15834 1.05358 0.91368
 C529 C 1.18163 1.06241 0.90516
 H530 H 1.19061 1.05379 0.88910
 O531 O 0.87545 0.97536 0.90926
 O532 O 0.84614 0.97523 0.88011
 C533 C 0.85508 0.96674 0.90050
 C534 C 0.84205 0.94623 0.91387
 C535 C 0.81872 0.93745 0.90543
 H536 H 0.80968 0.94615 0.88944
 O537 O 1.09042 1.12437 0.97550
 O538 O 1.11950 1.15366 0.97542
 C539 C 1.09914 1.14475 0.96690
 C540 C 1.08578 1.15783 0.94637
 C541 C 1.09423 1.18113 0.93761
 H542 H 1.11021 1.19012 0.94633
 O543 O 0.91010 0.87520 0.97555
 O544 O 0.88101 0.84592 0.97550
 C545 C 0.90137 0.85482 0.96698
 C546 C 0.91475 0.84173 0.94648
 C547 C 0.90637 0.81838 0.93778
 H548 H 0.89043 0.80936 0.94654
 O549 O 0.90976 0.97546 0.87492
 O550 O 0.88061 0.97532 0.84561
 C551 C 0.90101 0.96685 0.85452
 C552 C 0.91439 0.94637 0.84142
 C553 C 0.90592 0.93755 0.81809
 H554 H 0.88991 0.94621 0.80907
 O555 O 1.09053 1.02446 0.87476
 O556 O 1.11964 1.02456 0.84542
 C557 C 1.09925 1.03303 0.85433
 C558 C 1.08583 1.05348 0.84123
 C559 C 1.09421 1.06225 0.81784
 H560 H 1.11020 1.05360 0.80878
 O561 O 0.97610 0.87527 0.90932
 O562 O 0.97615 0.84596 0.88021
 C563 C 0.96760 0.85486 0.90059
 C564 C 0.94715 0.84174 0.91399
 C565 C 0.93847 0.81838 0.90558
 H566 H 0.94719 0.80936 0.88960
 O567 O 1.02425 1.12443 0.90928
 O568 O 1.02426 1.15376 0.88018
 C569 C 1.03282 1.14482 0.90054
 C570 C 1.05334 1.15787 0.91391
 C571 C 1.06210 1.18118 0.90544
 H572 H 1.05340 1.19021 0.88946
 O573 O 0.87564 0.90933 0.97548
 O574 O 0.84640 0.88021 0.97544
 C575 C 0.85527 0.90055 0.96689
 C576 C 0.84214 0.91385 0.94635
 C577 C 0.81881 0.90537 0.93760
 H578 H 0.80982 0.88941 0.94634
 O579 O 1.12491 1.09027 0.97549
 O580 O 1.15414 1.11941 0.97544
 C581 C 1.14527 1.09907 0.96689
 C582 C 1.15836 1.08583 0.94629
 C583 C 1.18165 1.09436 0.93747
 H584 H 1.19065 1.11030 0.94622
 O585 O 1.02485 0.90958 0.87487
 O586 O 1.02495 0.88042 0.84561
 C587 C 1.03343 0.90080 0.85447
 C588 C 1.05391 0.91412 0.84131
 C589 C 1.06272 0.90560 0.81799
 H590 H 1.05406 0.88959 0.80901
 O591 O 0.97535 1.09031 0.87485
 O592 O 0.97528 1.11950 0.84560
 C593 C 0.96675 1.09913 0.85446
 C594 C 0.94621 1.08587 0.84135
 C595 C 0.93727 1.09447 0.81810
 H596 H 0.94588 1.11052 0.80914
 O597 O 0.87528 1.02418 0.90926
 O598 O 0.84596 1.02411 0.88013
 C599 C 0.85484 1.03266 0.90051
 C600 C 0.84166 1.05310 0.91389
 C601 C 0.81829 1.06179 0.90544
 H602 H 0.80930 1.05308 0.88944
 O603 O 1.12495 0.97576 0.90914
 O604 O 1.15425 0.97577 0.87997
 C605 C 1.14538 0.96725 0.90038
 C606 C 1.15856 0.94684 0.91378
 C607 C 1.18192 0.93814 0.90532
 H608 H 1.19089 0.94681 0.88928
 O609 O 1.09103 0.87570 0.97559
 O610 O 1.12024 0.84650 0.97555
 C611 C 1.09984 0.85534 0.96702
 C612 C 1.08653 0.84220 0.94651
 C613 C 1.09502 0.81887 0.93783
 H614 H 1.11100 0.80990 0.94659
 O615 O 0.90927 1.12433 0.97552
 O616 O 0.88009 1.15357 0.97545
 C617 C 0.90048 1.14470 0.96693
 C618 C 0.91383 1.15781 0.94644
 C619 C 0.90538 1.18114 0.93772
 H620 H 0.88939 1.19013 0.94644
 Cu621 Cu 1.10485 1.00010 0.89484
 Cu622 Cu 1.13991 1.00016 0.85972
 Cu623 Cu 0.89542 0.99984 0.89498
 Cu624 Cu 0.86033 0.99971 0.85991
 Cu625 Cu 1.10478 1.10443 0.99998
 Cu626 Cu 1.13977 1.13950 0.99992
 Cu627 Cu 1.10523 0.89575 1.00006
 Cu628 Cu 1.14039 0.86079 1.00003
 Cu629 Cu 0.89505 1.10430 1.00000
 Cu630 Cu 0.85994 1.13931 0.99995
 Cu631 Cu 0.89576 0.89519 0.99998
 Cu632 Cu 0.86074 0.86014 0.99996
 Cu633 Cu 0.99980 1.10442 0.89500
 Cu634 Cu 0.99977 1.13954 0.85998
 Cu635 Cu 1.00046 0.89539 0.89505
 Cu636 Cu 1.00055 0.86029 0.86001
 C637 C 1.06565 0.93477 0.85265
 H638 H 1.05920 0.94122 0.87080
 C639 C 1.08302 0.91739 0.80633
 C640 C 0.93452 1.06517 0.85267
 H641 H 0.94107 1.05865 0.87076
 C642 C 0.91691 1.08272 0.80650
 C643 C 0.93447 1.14645 0.93461
 H644 H 0.94087 1.12830 0.94099
 C645 C 0.91721 1.19279 0.91742
 C646 C 1.06591 0.85353 0.93464
 H647 H 1.05947 0.87168 0.94100
 C648 C 1.08324 0.80719 0.91753
 C649 C 1.14724 0.93509 0.93449
 H650 H 1.12906 0.94146 0.94090
 C651 C 1.19363 0.91793 0.91722
 C652 C 0.85301 1.06490 0.93455
 H653 H 0.87119 1.05855 0.94094
 C654 C 0.80660 1.08203 0.91731
 C655 C 1.06519 1.06521 0.85268
 H656 H 1.05884 1.05879 0.87087
 C657 C 1.08229 1.08250 0.80623
 C658 C 0.93504 0.93462 0.85282
 H659 H 0.94146 0.94107 0.87098
 C660 C 0.91774 0.91724 0.80649
 C661 C 1.14699 1.06527 0.93441
 H662 H 1.12887 1.05880 0.94086
 C663 C 1.19323 1.08267 0.91703
 C664 C 0.85348 0.93445 0.93451
 H665 H 0.87163 0.94088 0.94091
 C666 C 0.80715 0.91715 0.91727
 C667 C 1.06516 1.14647 0.93454
 H668 H 1.05875 1.12834 0.94096
 C669 C 1.08242 1.19276 0.91727
 C670 C 0.93532 0.85313 0.93461
 H671 H 0.94167 0.87130 0.94098
 C672 C 0.91820 0.80675 0.91746
 O673 O 0.97561 0.40964 0.37504
 O674 O 0.97550 0.38054 0.34572
 C675 C 0.96699 0.40089 0.35465
 C676 C 0.94646 0.41424 0.34156
 C677 C 0.93760 0.40574 0.31825
 H678 H 0.94624 0.38972 0.30926
 O679 O 1.02453 0.59055 0.37498
 O680 O 1.02452 0.61972 0.34572
 C681 C 1.03305 0.59934 0.35456
 C682 C 1.05351 0.58602 0.34135
 C683 C 1.06221 0.59451 0.31798
 H684 H 1.05349 0.61050 0.30902
 O685 O 0.87529 0.47583 0.40939
 O686 O 0.84600 0.47582 0.38022
 C687 C 0.85490 0.46727 0.40060
 C688 C 0.84184 0.44675 0.41393
 C689 C 0.81856 0.43791 0.40541
 H690 H 0.80954 0.44658 0.38939
 O691 O 1.12467 0.52434 0.40906
 O692 O 1.15397 0.52441 0.37989
 C693 C 1.14507 0.53289 0.40031
 C694 C 1.15819 0.55329 0.41375
 C695 C 1.18154 0.56204 0.40532
 H696 H 1.19054 0.55341 0.38928
 O697 O 0.90966 0.37543 0.47558
 O698 O 0.88054 0.34618 0.47551
 C699 C 0.90091 0.35506 0.46700
 C700 C 0.91429 0.34195 0.44650
 C701 C 0.90587 0.31861 0.43780
 H702 H 0.88991 0.30961 0.44655
 O703 O 1.09060 0.62450 0.47557
 O704 O 1.11978 0.65369 0.47559
 C705 C 1.09941 0.64487 0.46702
 C706 C 1.08612 0.65802 0.44650
 C707 C 1.09463 0.68133 0.43778
 H708 H 1.11060 0.69028 0.44654
 O709 O 0.90958 0.52467 0.37506
 O710 O 0.88044 0.52473 0.34574
 C711 C 0.90080 0.53325 0.35465
 C712 C 0.91412 0.55377 0.34156
 C713 C 0.90562 0.56259 0.31823
 H714 H 0.88963 0.55392 0.30920
 O715 O 1.09040 0.47562 0.37463
 O716 O 1.11952 0.47560 0.34528
 C717 C 1.09916 0.46707 0.35419
 C718 C 1.08581 0.44660 0.34110
 C719 C 1.09417 0.43786 0.31769
 H720 H 1.11010 0.44657 0.30859
 O721 O 1.02462 0.37533 0.40920
 O722 O 1.02459 0.34609 0.38002
 C723 C 1.03319 0.35497 0.40039
 C724 C 1.05377 0.34189 0.41367
 C725 C 1.06260 0.31863 0.40513
 H726 H 1.05390 0.30964 0.38912
 O727 O 0.97577 0.62477 0.40953
 O728 O 0.97570 0.65411 0.38044
 C729 C 0.96720 0.64518 0.40082
 C730 C 0.94673 0.65826 0.41425
 C731 C 0.93803 0.68163 0.40589
 H732 H 0.94676 0.69069 0.38993
 O733 O 0.87526 0.59052 0.47564
 O734 O 0.84599 0.61967 0.47564
 C735 C 0.85487 0.59933 0.46707
 C736 C 0.84177 0.58606 0.44651
 C737 C 0.81845 0.59456 0.43773
 H738 H 0.80945 0.61052 0.44646
 O739 O 1.12496 0.40968 0.47524
 O740 O 1.15427 0.38058 0.47519
 C741 C 1.14535 0.40092 0.46664
 C742 C 1.15840 0.41422 0.44605
 C743 C 1.18172 0.40578 0.43724
 H744 H 1.19078 0.38985 0.44597
 O745 O 0.97567 0.59062 0.37508
 O746 O 0.97559 0.61979 0.34583
 C747 C 0.96707 0.59943 0.35470
 C748 C 0.94653 0.58616 0.34159
 C749 C 0.93773 0.59468 0.31826
 H750 H 0.94643 0.61065 0.30926
 O751 O 1.02447 0.40963 0.37488
 O752 O 1.02442 0.38054 0.34555
 C753 C 1.03296 0.40088 0.35443
 C754 C 1.05340 0.41421 0.34123
 C755 C 1.06206 0.40578 0.31782
 H756 H 1.05331 0.38983 0.30882
 O757 O 1.12472 0.47555 0.40894
 O758 O 1.15401 0.47555 0.37977
 C759 C 1.14513 0.46701 0.40016
 C760 C 1.15827 0.44655 0.41351
 C761 C 1.18160 0.43781 0.40501
 H762 H 1.19057 0.44649 0.38897
 O763 O 0.87527 0.52465 0.40941
 O764 O 0.84598 0.52471 0.38025
 C765 C 0.85487 0.53322 0.40064
 C766 C 0.84177 0.55371 0.41401
 C767 C 0.81846 0.56251 0.40552
 H768 H 0.80945 0.55384 0.38951
 O769 O 0.90966 0.62466 0.47572
 O770 O 0.88056 0.65397 0.47573
 C771 C 0.90093 0.64507 0.46719
 C772 C 0.91430 0.65819 0.44671
 C773 C 0.90590 0.68156 0.43805
 H774 H 0.88994 0.69057 0.44681
 O775 O 1.09076 0.37534 0.47525
 O776 O 1.11991 0.34609 0.47519
 C777 C 1.09954 0.35498 0.46665
 C778 C 1.08623 0.34190 0.44610
 C779 C 1.09476 0.31863 0.43727
 H780 H 1.11077 0.30965 0.44596
 O781 O 1.09045 0.52444 0.37465
 O782 O 1.11957 0.52450 0.34531
 C783 C 1.09921 0.53303 0.35424
 C784 C 1.08589 0.55357 0.34118
 C785 C 1.09430 0.56236 0.31781
 H786 H 1.11024 0.55365 0.30872
 O787 O 0.90960 0.47583 0.37506
 O788 O 0.88046 0.47583 0.34574
 C789 C 0.90082 0.46727 0.35464
 C790 C 0.91411 0.44673 0.34154
 C791 C 0.90556 0.43793 0.31823
 H792 H 0.88957 0.44664 0.30923
 O793 O 1.02463 0.62476 0.40938
 O794 O 1.02463 0.65409 0.38028
 C795 C 1.03320 0.64514 0.40064
 C796 C 1.05373 0.65816 0.41400
 C797 C 1.06254 0.68147 0.40557
 H798 H 1.05385 0.69053 0.38959
 O799 O 0.97574 0.37535 0.40938
 O800 O 0.97565 0.34609 0.38021
 C801 C 0.96717 0.35498 0.40063
 C802 C 0.94671 0.34189 0.41403
 C803 C 0.93799 0.31855 0.40562
 H804 H 0.94670 0.30951 0.38964
 O805 O 1.12475 0.59006 0.47554
 O806 O 1.15408 0.61911 0.47555
 C807 C 1.14515 0.59880 0.46697
 C808 C 1.15823 0.58551 0.44639
 C809 C 1.18157 0.59396 0.43766
 H810 H 1.19060 0.60985 0.44646
 O811 O 0.87539 0.40976 0.47554
 O812 O 0.84612 0.38066 0.47545
 C813 C 0.85501 0.40101 0.46693
 C814 C 0.84191 0.41433 0.44639
 C815 C 0.81864 0.40581 0.43757
 H816 H 0.80967 0.38981 0.44626
 Cu817 Cu 1.00012 0.39540 0.39506
 Cu818 Cu 1.00003 0.36038 0.35994
 Cu819 Cu 1.00016 0.60475 0.39516
 Cu820 Cu 1.00010 0.63987 0.36013
 Cu821 Cu 0.89536 0.50025 0.39515
 Cu822 Cu 0.86029 0.50028 0.36005
 Cu823 Cu 1.10464 0.49998 0.39473
 Cu824 Cu 1.13970 0.50002 0.35962
 C825 C 0.93473 0.43491 0.35293
 H826 H 0.94121 0.44135 0.37107
 C827 C 0.91727 0.41756 0.30664
 C828 C 1.06532 0.56537 0.35267
 H829 H 1.05894 0.55894 0.37085
 C830 C 1.08248 0.58270 0.30626
 C831 C 0.85324 0.43497 0.43460
 H832 H 0.87135 0.44143 0.44106
 C833 C 0.80701 0.41756 0.41721
 C834 C 1.14681 0.56501 0.43446
 H835 H 1.12865 0.55861 0.44085
 C836 C 1.19318 0.58225 0.41726
 C837 C 0.93488 0.35331 0.43465
 H838 H 0.94126 0.37147 0.44102
 C839 C 0.91770 0.30696 0.41749
 C840 C 1.06550 0.64672 0.43463
 H841 H 1.05906 0.62859 0.44102
 C842 C 1.08287 0.69301 0.41745
 C843 C 0.93475 0.56554 0.35296
 H844 H 0.94119 0.55908 0.37111
 C845 C 0.91740 0.58292 0.30663
 C846 C 1.06524 0.43479 0.35258
 H847 H 1.05891 0.44118 0.37079
 C848 C 1.08231 0.41758 0.30609
 C849 C 1.06556 0.35325 0.43433
 H850 H 1.05910 0.37134 0.44080
 C851 C 1.08298 0.30704 0.41691
 C852 C 0.93490 0.64681 0.43484
 H853 H 0.94126 0.62863 0.44117
 C854 C 0.91774 0.69323 0.41777
 C855 C 0.85315 0.56546 0.43467
 H856 H 0.87129 0.55902 0.44110
 C857 C 0.80684 0.58281 0.41736
 C858 C 1.14695 0.43478 0.43421
 H859 H 1.12880 0.44118 0.44066
 C860 C 1.19328 0.41755 0.41684
 O861 O 1.02461 0.40933 0.62500
 O862 O 1.02465 0.38016 0.65426
 C863 C 1.03319 0.40052 0.64540
 C864 C 1.05372 0.41377 0.65852
 C865 C 1.06253 0.40526 0.68185
 H866 H 1.05382 0.38928 0.69085
 O867 O 0.97558 0.59021 0.62502
 O868 O 0.97559 0.61927 0.65438
 C869 C 0.96702 0.59896 0.64546
 C870 C 0.94650 0.58567 0.65857
 C871 C 0.93772 0.59414 0.68192
 H872 H 0.94642 0.61010 0.69093
 O873 O 0.87525 0.52434 0.59063
 O874 O 0.84597 0.52436 0.61981
 C875 C 0.85486 0.53290 0.59942
 C876 C 0.84175 0.55340 0.58609
 C877 C 0.81839 0.56212 0.59454
 H878 H 0.80937 0.55339 0.61051
 O879 O 1.12488 0.47530 0.59058
 O880 O 1.15418 0.47526 0.61974
 C881 C 1.14529 0.46676 0.59933
 C882 C 1.15844 0.44634 0.58593
 C883 C 1.18176 0.43757 0.59443
 H884 H 1.19073 0.44622 0.61047
 O885 O 1.09067 0.37541 0.52419
 O886 O 1.11981 0.34615 0.52418
 C887 C 1.09943 0.35503 0.53274
 C888 C 1.08609 0.34190 0.55324
 C889 C 1.09448 0.31851 0.56187
 H890 H 1.11041 0.30950 0.55307
 O891 O 0.90956 0.62465 0.52464
 O892 O 0.88045 0.65396 0.52471
 C893 C 0.90081 0.64503 0.53324
 C894 C 0.91417 0.65809 0.55377
 C895 C 0.90574 0.68141 0.56256
 H896 H 0.88977 0.69044 0.55386
 O897 O 0.90959 0.47547 0.62489
 O898 O 0.88047 0.47543 0.65423
 C899 C 0.90083 0.46690 0.64530
 C900 C 0.91417 0.44639 0.65840
 C901 C 0.90564 0.43758 0.68171
 H902 H 0.88963 0.44625 0.69071
 O903 O 1.09050 0.52400 0.62499
 O904 O 1.11963 0.52403 0.65432
 C905 C 1.09925 0.53253 0.64542
 C906 C 1.08587 0.55297 0.65856
 C907 C 1.09426 0.56164 0.68198
 H908 H 1.11021 0.55292 0.69102
 O909 O 0.97572 0.37518 0.59060
 O910 O 0.97570 0.34587 0.61971
 C911 C 0.96715 0.35480 0.59935
 C912 C 0.94659 0.34179 0.58602
 C913 C 0.93772 0.31854 0.59455
 H914 H 0.94639 0.30952 0.61056
 O915 O 1.02450 0.62442 0.59073
 O916 O 1.02458 0.65364 0.61993
 C917 C 1.03309 0.64476 0.59952
 C918 C 1.05360 0.65783 0.58616
 C919 C 1.06238 0.68114 0.59462
 H920 H 1.05369 0.69016 0.61062
 O921 O 0.87524 0.40964 0.52448
 O922 O 0.84595 0.38056 0.52444
 C923 C 0.85483 0.40089 0.53302
 C924 C 0.84169 0.41419 0.55354
 C925 C 0.81833 0.40577 0.56227
 H926 H 0.80931 0.38984 0.55351
 O927 O 1.12485 0.59010 0.52449
 O928 O 1.15416 0.61915 0.52454
 C929 C 1.14525 0.59882 0.53308
 C930 C 1.15833 0.58550 0.55363
 C931 C 1.18164 0.59397 0.56244
 H932 H 1.19064 0.60993 0.55373
 O933 O 1.02443 0.59006 0.62499
 O934 O 1.02450 0.61912 0.65436
 C935 C 1.03299 0.59877 0.64543
 C936 C 1.05345 0.58538 0.65856
 C937 C 1.06213 0.59375 0.68197
 H938 H 1.05340 0.60969 0.69101
 O939 O 0.97574 0.40948 0.62489
 O940 O 0.97570 0.38033 0.65417
 C941 C 0.96716 0.40069 0.64529
 C942 C 0.94661 0.41399 0.65840
 C943 C 0.93778 0.40548 0.68172
 H944 H 0.94646 0.38948 0.69072
 O945 O 1.12485 0.52409 0.59069
 O946 O 1.15414 0.52412 0.61986
 C947 C 1.14523 0.53265 0.59947
 C948 C 1.15832 0.55313 0.58612
 C949 C 1.18163 0.56191 0.59464
 H950 H 1.19062 0.55323 0.61066
 O951 O 0.87519 0.47553 0.59064
 O952 O 0.84591 0.47549 0.61983
 C953 C 0.85479 0.46699 0.59942
 C954 C 0.84168 0.44654 0.58605
 C955 C 0.81832 0.43782 0.59448
 H956 H 0.80930 0.44652 0.61047
 O957 O 1.09051 0.62435 0.52451
 O958 O 1.11968 0.65355 0.52457
 C959 C 1.09930 0.64470 0.53311
 C960 C 1.08599 0.65779 0.55365
 C961 C 1.09446 0.68109 0.56240
 H962 H 1.11042 0.69008 0.55365
 O963 O 0.90961 0.37542 0.52451
 O964 O 0.88047 0.34619 0.52449
 C965 C 0.90083 0.35505 0.53306
 C966 C 0.91413 0.34192 0.55359
 C967 C 0.90556 0.31868 0.56242
 H968 H 0.88952 0.30976 0.55374
 O969 O 1.09067 0.47520 0.62501
 O970 O 1.11981 0.47517 0.65433
 C971 C 1.09945 0.46663 0.64543
 C972 C 1.08616 0.44613 0.65853
 C973 C 1.09466 0.43732 0.68186
 H974 H 1.11066 0.44598 0.69088
 O975 O 0.90951 0.52429 0.62501
 O976 O 0.88039 0.52431 0.65435
 C977 C 0.90075 0.53283 0.64544
 C978 C 0.91407 0.55330 0.65857
 C979 C 0.90559 0.56208 0.68192
 H980 H 0.88960 0.55340 0.69094
 O981 O 0.97564 0.62450 0.59071
 O982 O 0.97566 0.65372 0.61992
 C983 C 0.96711 0.64488 0.59952
 C984 C 0.94662 0.65802 0.58619
 C985 C 0.93790 0.68134 0.59469
 H986 H 0.94664 0.69032 0.61068
 O987 O 1.02460 0.37527 0.59045
 O988 O 1.02465 0.34593 0.61955
 C989 C 1.03317 0.35487 0.59916
 C990 C 1.05367 0.34181 0.58574
 C991 C 1.06238 0.31842 0.59407
 H992 H 1.05364 0.30934 0.61001
 O993 O 1.12506 0.40957 0.52420
 O994 O 1.15436 0.38046 0.52421
 C995 C 1.14545 0.40079 0.53278
 C996 C 1.15853 0.41406 0.55336
 C997 C 1.18185 0.40558 0.56216
 H998 H 1.19089 0.38964 0.55342
 O999 O 0.87527 0.59040 0.52458
 O1000 O 0.84600 0.61954 0.52464
 C1001 C 0.85488 0.59917 0.53316
 C1002 C 0.84176 0.58583 0.55366
 C1003 C 0.81840 0.59426 0.56240
 H1004 H 0.80938 0.61022 0.55368
 Cu1005 Cu 1.00017 0.39524 0.60482
 Cu1006 Cu 1.00018 0.36013 0.63985
 Cu1007 Cu 1.00004 0.60439 0.60493
 Cu1008 Cu 1.00009 0.63937 0.64009
 Cu1009 Cu 0.89539 0.39548 0.50004
 Cu1010 Cu 0.86033 0.36047 0.49996
 Cu1011 Cu 1.10495 0.39542 0.49972
 Cu1012 Cu 1.14003 0.36039 0.49969
 Cu1013 Cu 0.89535 0.60463 0.50014
 Cu1014 Cu 0.86032 0.63972 0.50018
 Cu1015 Cu 1.10475 0.60434 0.50003
 Cu1016 Cu 1.13987 0.63930 0.50007
 Cu1017 Cu 0.89530 0.49991 0.60487
 Cu1018 Cu 0.86025 0.49989 0.64000
 Cu1019 Cu 1.10480 0.49964 0.60490
 Cu1020 Cu 1.13988 0.49965 0.64000
 C1021 C 1.06551 0.43438 0.64715
 H1022 H 1.05907 0.44084 0.62900
 C1023 C 1.08287 0.41701 0.69348
 C1024 C 0.93470 0.56507 0.64717
 H1025 H 0.94113 0.55865 0.62901
 C1026 C 0.91739 0.58237 0.69354
 C1027 C 0.85315 0.56523 0.56547
 H1028 H 0.87132 0.55884 0.55907
 C1029 C 0.80677 0.58242 0.58271
 C1030 C 1.14710 0.43462 0.56522
 H1031 H 1.12896 0.44104 0.55879
 C1032 C 1.19341 0.41732 0.58257
 C1033 C 1.06551 0.35328 0.56516
 H1034 H 1.05914 0.37147 0.55884
 C1035 C 1.08265 0.30682 0.58215
 C1036 C 0.93478 0.64667 0.56556
 H1037 H 0.94117 0.62853 0.55913
 C1038 C 0.91759 0.69298 0.58289
 C1039 C 0.93483 0.43463 0.64702
 H1040 H 0.94129 0.44108 0.62888
 C1041 C 0.91742 0.41725 0.69332
 C1042 C 1.06528 0.56481 0.64713
 H1043 H 1.05893 0.55847 0.62891
 C1044 C 1.08241 0.58191 0.69363
 C1045 C 0.93482 0.35319 0.56537
 H1046 H 0.94131 0.37128 0.55891
 C1047 C 0.91732 0.30704 0.58277
 C1048 C 1.06538 0.64644 0.56551
 H1049 H 1.05896 0.62831 0.55910
 C1050 C 1.08268 0.69272 0.58275
 C1051 C 0.85308 0.43475 0.56541
 H1052 H 0.87125 0.44113 0.55902
 C1053 C 0.80669 0.41756 0.58261
 C1054 C 1.14695 0.56490 0.56545
 H1055 H 1.12882 0.55848 0.55900
 C1056 C 1.19324 0.58220 0.58282
 O1057 O 0.59050 1.02461 0.62514
 O1058 O 0.61967 1.02458 0.65442
 C1059 C 0.59930 1.03313 0.64555
 C1060 C 0.58597 1.05362 0.65869
 C1061 C 0.59442 1.06238 0.68206
 H1062 H 0.61039 1.05368 0.69110
 O1063 O 0.40959 0.97579 0.62525
 O1064 O 0.38049 0.97578 0.65461
 C1065 C 0.40084 0.96723 0.64568
 C1066 C 0.41417 0.94670 0.65875
 C1067 C 0.40568 0.93787 0.68209
 H1068 H 0.38971 0.94656 0.69113
 O1069 O 0.52456 1.12478 0.59067
 O1070 O 0.52461 1.15409 0.61979
 C1071 C 0.53314 1.14516 0.59940
 C1072 C 0.55364 1.15821 0.58600
 C1073 C 0.56245 1.18152 0.59443
 H1074 H 0.55379 1.19055 0.61044
 O1075 O 0.47560 0.87558 0.59062
 O1076 O 0.47563 0.84626 0.61974
 C1077 C 0.46707 0.85518 0.59937
 C1078 C 0.44657 0.84211 0.58601
 C1079 C 0.43787 0.81876 0.59443
 H1080 H 0.44662 0.80972 0.61039
 O1081 O 0.62481 1.09045 0.52433
 O1082 O 0.65411 1.11952 0.52429
 C1083 C 0.64521 1.09921 0.53290
 C1084 C 0.65828 1.08597 0.55352
 C1085 C 0.68154 1.09452 0.56239
 H1086 H 0.69054 1.11048 0.55367
 O1087 O 0.37512 0.90989 0.52461
 O1088 O 0.34583 0.88081 0.52473
 C1089 C 0.35475 0.90115 0.53325
 C1090 C 0.34170 0.91446 0.55383
 C1091 C 0.31838 0.90603 0.56262
 H1092 H 0.30934 0.89011 0.55388
 O1093 O 0.47565 1.09062 0.62506
 O1094 O 0.47561 1.11978 0.65432
 C1095 C 0.46707 1.09943 0.64545
 C1096 C 0.44654 1.08615 0.65859
 C1097 C 0.43772 1.09471 0.68191
 H1098 H 0.44640 1.11071 0.69087
 O1099 O 0.52448 0.90980 0.62495
 O1100 O 0.52456 0.88065 0.65423
 C1101 C 0.53307 0.90101 0.64535
 C1102 C 0.55358 0.91430 0.65847
 C1103 C 0.56234 0.90580 0.68182
 H1104 H 0.55362 0.88983 0.69081
 O1105 O 0.62468 0.97587 0.59058
 O1106 O 0.65403 0.97576 0.61968
 C1107 C 0.64509 0.96729 0.59928
 C1108 C 0.65818 0.94686 0.58583
 C1109 C 0.68156 0.93813 0.59420
 H1110 H 0.69061 0.94679 0.61019
 O1111 O 0.37526 1.02461 0.59092
 O1112 O 0.34599 1.02465 0.62011
 C1113 C 0.35486 1.03316 0.59970
 C1114 C 0.34173 1.05363 0.58634
 C1115 C 0.31837 1.06234 0.59480
 H1116 H 0.30936 1.05363 0.61079
 O1117 O 0.40945 1.12473 0.52460
 O1118 O 0.38035 1.15405 0.52470
 C1119 C 0.40074 1.14514 0.53318
 C1120 C 0.41417 1.15825 0.55361
 C1121 C 0.40584 1.18166 0.56225
 H1122 H 0.38988 1.19069 0.55351
 O1123 O 0.59040 0.87565 0.52426
 O1124 O 0.61957 0.84642 0.52426
 C1125 C 0.59920 0.85529 0.53283
 C1126 C 0.58591 0.84217 0.55337
 C1127 C 0.59438 0.81883 0.56205
 H1128 H 0.61033 0.80983 0.55325
 O1129 O 0.40960 1.02463 0.62521
 O1130 O 0.38049 1.02468 0.65457
 C1131 C 0.40084 1.03321 0.64563
 C1132 C 0.41414 1.05375 0.65869
 C1133 C 0.40563 1.06260 0.68201
 H1134 H 0.38965 1.05394 0.69104
 O1135 O 0.59051 0.97580 0.62505
 O1136 O 0.61969 0.97569 0.65432
 C1137 C 0.59931 0.96719 0.64544
 C1138 C 0.58600 0.94668 0.65853
 C1139 C 0.59447 0.93787 0.68188
 H1140 H 0.61044 0.94654 0.69092
 O1141 O 0.52447 0.87555 0.59059
 O1142 O 0.52456 0.84624 0.61971
 C1143 C 0.53306 0.85516 0.59932
 C1144 C 0.55356 0.84210 0.58591
 C1145 C 0.56233 0.81875 0.59429
 H1146 H 0.55364 0.80970 0.61027
 O1147 O 0.47570 1.12481 0.59064
 O1148 O 0.47569 1.15413 0.61974
 C1149 C 0.46715 1.14521 0.59937
 C1150 C 0.44668 1.15831 0.58599
 C1151 C 0.43805 1.18171 0.59433
 H1152 H 0.44684 1.19078 0.61024
 O1153 O 0.37511 1.09052 0.52467
 O1154 O 0.34586 1.11967 0.52478
 C1155 C 0.35475 1.09931 0.53330
 C1156 C 0.34167 1.08600 0.55385
 C1157 C 0.31831 1.09441 0.56260
 H1158 H 0.30926 1.11034 0.55385
 O1159 O 0.62462 0.90998 0.52420
 O1160 O 0.65395 0.88090 0.52420
 C1161 C 0.64503 0.90124 0.53275
 C1162 C 0.65815 0.91456 0.55327
 C1163 C 0.68153 0.90613 0.56194
 H1164 H 0.69055 0.89021 0.55316
 O1165 O 0.47561 0.90975 0.62505
 O1166 O 0.47563 0.88060 0.65433
 C1167 C 0.46707 0.90096 0.64547
 C1168 C 0.44657 0.91426 0.65864
 C1169 C 0.43779 0.90573 0.68197
 H1170 H 0.44648 0.88972 0.69093
 O1171 O 0.52451 1.09057 0.62508
 O1172 O 0.52454 1.11972 0.65435
 C1173 C 0.53306 1.09935 0.64549
 C1174 C 0.55355 1.08602 0.65864
 C1175 C 0.56228 1.09449 0.68200
 H1176 H 0.55355 1.11045 0.69101
 O1177 O 0.37528 0.97580 0.59092
 O1178 O 0.34602 0.97578 0.62012
 C1179 C 0.35489 0.96726 0.59972
 C1180 C 0.34177 0.94679 0.58636
 C1181 C 0.31844 0.93806 0.59485
 H1182 H 0.30944 0.94675 0.61087
 O1183 O 0.62472 1.02467 0.59071
 O1184 O 0.65406 1.02463 0.61983
 C1185 C 0.64514 1.03319 0.59946
 C1186 C 0.65823 1.05368 0.58611
 C1187 C 0.68149 1.06253 0.59467
 H1188 H 0.69045 1.05390 0.61074
 O1189 O 0.40945 0.87564 0.52451
 O1190 O 0.38032 0.84640 0.52463
 C1191 C 0.40071 0.85527 0.53311
 C1192 C 0.41410 0.84216 0.55359
 C1193 C 0.40571 0.81882 0.56230
 H1194 H 0.38974 0.80982 0.55358
 O1195 O 0.59045 1.12467 0.52431
 O1196 O 0.61960 1.15390 0.52426
 C1197 C 0.59924 1.14504 0.53285
 C1198 C 0.58597 1.15815 0.55342
 C1199 C 0.59446 1.18145 0.56215
 H1200 H 0.61041 1.19043 0.55335
 Cu1201 Cu 0.60467 1.00025 0.60496
 Cu1202 Cu 0.63981 1.00015 0.64000
 Cu1203 Cu 0.39535 1.00020 0.60516
 Cu1204 Cu 0.36032 1.00022 0.64030
 Cu1205 Cu 0.50011 1.10477 0.60494
 Cu1206 Cu 0.50011 1.13987 0.63999
 Cu1207 Cu 0.50003 0.89559 0.60489
 Cu1208 Cu 0.50010 0.86050 0.63994
 C1209 C 0.56536 1.06542 0.64727
 H1210 H 0.55896 1.05901 0.62909
 C1211 C 0.58259 1.08269 0.69367
 C1212 C 0.43478 0.93492 0.64732
 H1213 H 0.44121 0.94138 0.62917
 C1214 C 0.41747 0.91751 0.69365
 C1215 C 0.56538 1.14681 0.56533
 H1216 H 0.55894 1.12868 0.55894
 C1217 C 0.58273 1.19309 0.58252
 C1218 C 0.43471 0.85353 0.56541
 H1219 H 0.44108 0.87169 0.55904
 C1220 C 0.41757 0.80716 0.58259
 C1221 C 0.64690 1.06538 0.56536
 H1222 H 0.62881 1.05890 0.55887
 C1223 C 0.69310 1.08282 0.58284
 C1224 C 0.35312 0.93502 0.56568
 H1225 H 0.37127 0.94141 0.55924
 C1226 C 0.30679 0.91781 0.58300
 C1227 C 0.43477 1.06550 0.64727
 H1228 H 0.44122 1.05902 0.62913
 C1229 C 0.41740 1.08296 0.69356
 C1230 C 0.56538 0.93491 0.64711
 H1231 H 0.55896 0.94135 0.62895
 C1232 C 0.58265 0.91756 0.69348
 C1233 C 0.64675 0.93510 0.56518
 H1234 H 0.62856 0.94149 0.55884
 C1235 C 0.69319 0.91789 0.58228
 C1236 C 0.35310 1.06543 0.56569
 H1237 H 0.37127 1.05905 0.55929
 C1238 C 0.30671 1.08261 0.58294
 C1239 C 0.43476 1.14685 0.56545
 H1240 H 0.44108 1.12864 0.55913
 C1241 C 0.41776 1.19334 0.58248
 C1242 C 0.56533 0.85353 0.56527
 H1243 H 0.55891 0.87169 0.55892
 C1244 C 0.58261 0.80716 0.58238
 O1245 O 0.59002 0.97572 0.37469
 O1246 O 0.61910 0.97564 0.34531
 C1247 C 0.59876 0.96713 0.35427
 C1248 C 0.58542 0.94661 0.34122
 C1249 C 0.59389 0.93774 0.31790
 H1250 H 0.60989 0.94638 0.30885
 O1251 O 0.40910 1.02468 0.37515
 O1252 O 0.37994 1.02473 0.34585
 C1253 C 0.40032 1.03325 0.35474
 C1254 C 0.41363 1.05374 0.34162
 C1255 C 0.40513 1.06253 0.31827
 H1256 H 0.38914 1.05385 0.30926
 O1257 O 0.47540 1.12482 0.40946
 O1258 O 0.47529 1.15412 0.38032
 C1259 C 0.46681 1.14521 0.40073
 C1260 C 0.44634 1.15829 0.41414
 C1261 C 0.43757 1.18162 0.40572
 H1262 H 0.44626 1.19065 0.38972
 O1263 O 0.52415 0.87543 0.40934
 O1264 O 0.52414 0.84617 0.38018
 C1265 C 0.53272 0.85507 0.40054
 C1266 C 0.55330 0.84201 0.41384
 C1267 C 0.56211 0.81871 0.40538
 H1268 H 0.55339 0.80967 0.38942
 O1269 O 0.62460 0.90990 0.47525
 O1270 O 0.65393 0.88082 0.47521
 C1271 C 0.64500 0.90115 0.46665
 C1272 C 0.65805 0.91444 0.44607
 C1273 C 0.68139 0.90599 0.43727
 H1274 H 0.69044 0.89006 0.44602
 O1275 O 0.37499 1.09057 0.47573
 O1276 O 0.34574 1.11973 0.47578
 C1277 C 0.35459 1.09938 0.46720
 C1278 C 0.34144 1.08613 0.44666
 C1279 C 0.31813 1.09468 0.43791
 H1280 H 0.30916 1.11066 0.44666
 O1281 O 0.52410 1.09055 0.37487
 O1282 O 0.52405 1.11969 0.34558
 C1283 C 0.53259 1.09932 0.35443
 C1284 C 0.55304 1.08599 0.34122
 C1285 C 0.56174 1.09447 0.31784
 H1286 H 0.55302 1.11046 0.30887
 O1287 O 0.47516 0.90974 0.37516
 O1288 O 0.47508 0.88064 0.34583
 C1289 C 0.46656 0.90099 0.35476
 C1290 C 0.44602 0.91432 0.34167
 C1291 C 0.43724 0.90585 0.31833
 H1292 H 0.44593 0.88987 0.30931
 O1293 O 0.62436 1.02452 0.40896
 O1294 O 0.65361 1.02453 0.37973
 C1295 C 0.64475 1.03305 0.40015
 C1296 C 0.65792 1.05348 0.41352
 C1297 C 0.68124 1.06220 0.40501
 H1298 H 0.69019 1.05354 0.38895
 O1299 O 0.37483 0.97589 0.40954
 O1300 O 0.34551 0.97587 0.38041
 C1301 C 0.35443 0.96734 0.40079
 C1302 C 0.34136 0.94685 0.41415
 C1303 C 0.31805 0.93806 0.40569
 H1304 H 0.30902 0.94674 0.38969
 O1305 O 0.59046 1.12469 0.47536
 O1306 O 0.61961 1.15391 0.47525
 C1307 C 0.59923 1.14504 0.46673
 C1308 C 0.58590 1.15813 0.44617
 C1309 C 0.59443 1.18138 0.43731
 H1310 H 0.61046 1.19034 0.44597
 O1311 O 0.40925 0.87554 0.47558
 O1312 O 0.38012 0.84631 0.47565
 C1313 C 0.40047 0.85516 0.46705
 C1314 C 0.41378 0.84203 0.44651
 C1315 C 0.40531 0.81872 0.43776
 H1316 H 0.38934 0.80974 0.44649
 O1317 O 0.40909 0.97585 0.37516
 O1318 O 0.37994 0.97583 0.34586
 C1319 C 0.40030 0.96729 0.35475
 C1320 C 0.41361 0.94676 0.34165
 C1321 C 0.40512 0.93798 0.31830
 H1322 H 0.38915 0.94668 0.30927
 O1323 O 0.59007 1.02453 0.37461
 O1324 O 0.61914 1.02453 0.34522
 C1325 C 0.59880 1.03307 0.35417
 C1326 C 0.58544 1.05357 0.34108
 C1327 C 0.59385 1.06235 0.31771
 H1328 H 0.60981 1.05364 0.30863
 O1329 O 0.47527 0.87542 0.40945
 O1330 O 0.47520 0.84616 0.38028
 C1331 C 0.46670 0.85505 0.40068
 C1332 C 0.44621 0.84197 0.41405
 C1333 C 0.43746 0.81866 0.40560
 H1334 H 0.44618 0.80964 0.38962
 O1335 O 0.52428 1.12477 0.40927
 O1336 O 0.52423 1.15406 0.38013
 C1337 C 0.53283 1.14514 0.40048
 C1338 C 0.55342 1.15818 0.41375
 C1339 C 0.56225 1.18143 0.40519
 H1340 H 0.55355 1.19042 0.38918
 O1341 O 0.37500 0.90989 0.47566
 O1342 O 0.34571 0.88081 0.47572
 C1343 C 0.35458 0.90114 0.46714
 C1344 C 0.34144 0.91445 0.44662
 C1345 C 0.31812 0.90596 0.43786
 H1346 H 0.30914 0.88999 0.44658
 O1347 O 0.62467 1.09032 0.47535
 O1348 O 0.65398 1.11938 0.47526
 C1349 C 0.64505 1.09905 0.46672
 C1350 C 0.65807 1.08574 0.44612
 C1351 C 0.68139 1.09416 0.43730
 H1352 H 0.69046 1.11007 0.44605
 O1353 O 0.52402 0.90970 0.37499
 O1354 O 0.52400 0.88059 0.34567
 C1355 C 0.53254 0.90093 0.35455
 C1356 C 0.55301 0.91423 0.34136
 C1357 C 0.56178 0.90566 0.31804
 H1358 H 0.55309 0.88965 0.30910
 O1359 O 0.47524 1.09061 0.37507
 O1360 O 0.47513 1.11974 0.34577
 C1361 C 0.46661 1.09940 0.35468
 C1362 C 0.44606 1.08611 0.34160
 C1363 C 0.43726 1.09460 0.31826
 H1364 H 0.44596 1.11055 0.30923
 O1365 O 0.37482 1.02471 0.40951
 O1366 O 0.34549 1.02477 0.38038
 C1367 C 0.35441 1.03329 0.40076
 C1368 C 0.34135 1.05380 0.41414
 C1369 C 0.31804 1.06265 0.40568
 H1370 H 0.30901 1.05401 0.38966
 O1371 O 0.62440 0.97574 0.40894
 O1372 O 0.65365 0.97568 0.37972
 C1373 C 0.64479 0.96718 0.40015
 C1374 C 0.65795 0.94674 0.41352
 C1375 C 0.68128 0.93800 0.40502
 H1376 H 0.69025 0.94668 0.38899
 O1377 O 0.59033 0.87563 0.47532
 O1378 O 0.61951 0.84640 0.47528
 C1379 C 0.59912 0.85526 0.46675
 C1380 C 0.58578 0.84213 0.44625
 C1381 C 0.59429 0.81883 0.43750
 H1382 H 0.61030 0.80987 0.44621
 O1383 O 0.40936 1.12474 0.47569
 O1384 O 0.38026 1.15405 0.47573
 C1385 C 0.40061 1.14514 0.46715
 C1386 C 0.41394 1.15824 0.44663
 C1387 C 0.40547 1.18157 0.43791
 H1388 H 0.38949 1.19056 0.44665
 Cu1389 Cu 0.60429 1.00013 0.39472
 Cu1390 Cu 0.63930 1.00009 0.35955
 Cu1391 Cu 0.39488 1.00028 0.39526
 Cu1392 Cu 0.35978 1.00030 0.36019
 Cu1393 Cu 0.60468 1.10462 0.49984
 Cu1394 Cu 0.63976 1.13960 0.49975
 Cu1395 Cu 0.60456 0.89571 0.49976
 Cu1396 Cu 0.63968 0.86071 0.49974
 Cu1397 Cu 0.39514 1.10471 0.50017
 Cu1398 Cu 0.36011 1.13981 0.50026
 Cu1399 Cu 0.39512 0.89566 0.50008
 Cu1400 Cu 0.36005 0.86066 0.50019
 Cu1401 Cu 0.49976 1.10477 0.39509
 Cu1402 Cu 0.49966 1.13984 0.36002
 Cu1403 Cu 0.49966 0.89548 0.39516
 Cu1404 Cu 0.49960 0.86046 0.36005
 C1405 C 0.56479 0.93487 0.35267
 H1406 H 0.55837 0.94136 0.37082
 C1407 C 0.58210 0.91739 0.30637
 C1408 C 0.43427 1.06551 0.35300
 H1409 H 0.44071 1.05908 0.37116
 C1410 C 0.41692 1.08283 0.30664
 C1411 C 0.43455 1.14688 0.43478
 H1412 H 0.44097 1.12873 0.44116
 C1413 C 0.41726 1.19321 0.41758
 C1414 C 0.56511 0.85344 0.43445
 H1415 H 0.55867 0.87156 0.44087
 C1416 C 0.58248 0.80716 0.41719
 C1417 C 0.64661 0.93499 0.43421
 H1418 H 0.62846 0.94139 0.44065
 C1419 C 0.69295 0.91776 0.41688
 C1420 C 0.35277 1.06552 0.43480
 H1421 H 0.37090 1.05904 0.44121
 C1422 C 0.30648 1.08297 0.41754
 C1423 C 0.56486 1.06537 0.35255
 H1424 H 0.55849 1.05895 0.37074
 C1425 C 0.58202 1.08267 0.30613
 C1426 C 0.43424 0.93495 0.35305
 H1427 H 0.44067 0.94137 0.37121
 C1428 C 0.41692 0.91765 0.30669
 C1429 C 0.64661 1.06522 0.43425
 H1430 H 0.62847 1.05884 0.44071
 C1431 C 0.69293 1.08242 0.41688
 C1432 C 0.35278 0.93507 0.43480
 H1433 H 0.37092 0.94149 0.44121
 C1434 C 0.30647 0.91775 0.41752
 C1435 C 0.56522 1.14681 0.43441
 H1436 H 0.55876 1.12872 0.44090
 C1437 C 0.58264 1.19298 0.41694
 C1438 C 0.43440 0.85338 0.43468
 H1439 H 0.44081 0.87151 0.44108
 C1440 C 0.41714 0.80708 0.41743
 O1441 O 0.59056 0.52416 1.12539
 O1442 O 0.61970 0.52420 1.15470
 C1443 C 0.59933 0.53273 1.14580
 C1444 C 0.58598 0.55323 1.15890
 C1445 C 0.59438 0.56197 1.18229
 H1446 H 0.61032 0.55325 1.19137
 O1447 O 0.40960 0.47564 1.12531
 O1448 O 0.38049 0.47562 1.15466
 C1449 C 0.40085 0.46707 1.14573
 C1450 C 0.41417 0.44653 1.15881
 C1451 C 0.40566 0.43771 1.18213
 H1452 H 0.38967 0.44640 1.19116
 O1453 O 0.52464 0.62452 1.09084
 O1454 O 0.52471 0.65381 1.11998
 C1455 C 0.53323 0.64488 1.09960
 C1456 C 0.55376 0.65792 1.08623
 C1457 C 0.56257 0.68121 1.09470
 H1458 H 0.55390 0.69023 1.11070
 O1459 O 0.47568 0.37544 1.09077
 O1460 O 0.47563 0.34608 1.11984
 C1461 C 0.46710 0.35505 1.09948
 C1462 C 0.44658 0.34203 1.08610
 C1463 C 0.43781 0.31871 1.09453
 H1464 H 0.44653 0.30965 1.11049
 O1465 O 0.62483 0.58997 1.02456
 O1466 O 0.65415 0.61902 1.02457
 C1467 C 0.64523 0.59870 1.03313
 C1468 C 0.65831 0.58540 1.05370
 C1469 C 0.68164 0.59386 1.06243
 H1470 H 0.69066 0.60978 1.05365
 O1471 O 0.37515 0.40992 1.02462
 O1472 O 0.34589 0.38081 1.02467
 C1473 C 0.35478 0.40114 1.03322
 C1474 C 0.34170 0.41442 1.05381
 C1475 C 0.31839 0.40594 1.06260
 H1476 H 0.30937 0.39001 1.05384
 O1477 O 0.47570 0.59039 1.12521
 O1478 O 0.47569 0.61954 1.15449
 C1479 C 0.46713 0.59920 1.14561
 C1480 C 0.44659 0.58595 1.15874
 C1481 C 0.43776 0.59453 1.18204
 H1482 H 0.44644 0.61054 1.19100
 O1483 O 0.52457 0.40949 1.12527
 O1484 O 0.52457 0.38028 1.15450
 C1485 C 0.53313 0.40064 1.14566
 C1486 C 0.55367 0.41386 1.15881
 C1487 C 0.56251 0.40525 1.18209
 H1488 H 0.55383 0.38924 1.19105
 O1489 O 0.62486 0.47536 1.09101
 O1490 O 0.65418 0.47533 1.12014
 C1491 C 0.64527 0.46681 1.09975
 C1492 C 0.65839 0.44636 1.08634
 C1493 C 0.68171 0.43754 1.09483
 H1494 H 0.69069 0.44616 1.11089
 O1495 O 0.37527 0.52451 1.09103
 O1496 O 0.34600 0.52454 1.12022
 C1497 C 0.35488 0.53307 1.09982
 C1498 C 0.34178 0.55358 1.08649
 C1499 C 0.31848 0.56240 1.09500
 H1500 H 0.30948 0.55374 1.11103
 O1501 O 0.40961 0.62456 1.02475
 O1502 O 0.38052 0.65388 1.02478
 C1503 C 0.40089 0.64497 1.03330
 C1504 C 0.41428 0.65809 1.05376
 C1505 C 0.40593 0.68148 1.06242
 H1506 H 0.38998 0.69051 1.05366
 O1507 O 0.59063 0.37552 1.02449
 O1508 O 0.61974 0.34622 1.02450
 C1509 C 0.59937 0.35512 1.03304
 C1510 C 0.58601 0.34200 1.05354
 C1511 C 0.59440 0.31860 1.06215
 H1512 H 0.61033 0.30959 1.05334
 O1513 O 0.40960 0.52448 1.12534
 O1514 O 0.38049 0.52453 1.15469
 C1515 C 0.40084 0.53305 1.14576
 C1516 C 0.41415 0.55358 1.15883
 C1517 C 0.40562 0.56247 1.18212
 H1518 H 0.38961 0.55384 1.19114
 O1519 O 0.59060 0.47533 1.12540
 O1520 O 0.61976 0.47529 1.15470
 C1521 C 0.59940 0.46676 1.14580
 C1522 C 0.58611 0.44622 1.15889
 C1523 C 0.59466 0.43731 1.18216
 H1524 H 0.61068 0.44593 1.19117
 O1525 O 0.52456 0.37539 1.09076
 O1526 O 0.52456 0.34602 1.11982
 C1527 C 0.53311 0.35497 1.09946
 C1528 C 0.55361 0.34191 1.08604
 C1529 C 0.56230 0.31851 1.09435
 H1530 H 0.55357 0.30942 1.11028
 O1531 O 0.47577 0.62460 1.09081
 O1532 O 0.47578 0.65391 1.11993
 C1533 C 0.46724 0.64501 1.09955
 C1534 C 0.44676 0.65812 1.08618
 C1535 C 0.43811 0.68151 1.09454
 H1536 H 0.44688 0.69057 1.11046
 O1537 O 0.37523 0.59040 1.02481
 O1538 O 0.34598 0.61955 1.02485
 C1539 C 0.35486 0.59920 1.03340
 C1540 C 0.34176 0.58594 1.05398
 C1541 C 0.31846 0.59446 1.06280
 H1542 H 0.30946 0.61043 1.05407
 O1543 O 0.62499 0.40970 1.02452
 O1544 O 0.65426 0.38055 1.02454
 C1545 C 0.64537 0.40089 1.03311
 C1546 C 0.65845 0.41413 1.05372
 C1547 C 0.68175 0.40561 1.06251
 H1548 H 0.69077 0.38967 1.05373
 O1549 O 0.47569 0.40961 1.12521
 O1550 O 0.47563 0.38041 1.15444
 C1551 C 0.46710 0.40080 1.14560
 C1552 C 0.44658 0.41410 1.15874
 C1553 C 0.43777 0.40557 1.18206
 H1554 H 0.44645 0.38957 1.19104
 O1555 O 0.52456 0.59026 1.12520
 O1556 O 0.52461 0.61939 1.15450
 C1557 C 0.53312 0.59902 1.14563
 C1558 C 0.55358 0.58566 1.15879
 C1559 C 0.56226 0.59410 1.18218
 H1560 H 0.55352 0.61006 1.19118
 O1561 O 0.37527 0.47570 1.09099
 O1562 O 0.34600 0.47566 1.12018
 C1563 C 0.35487 0.46715 1.09977
 C1564 C 0.34175 0.44670 1.08639
 C1565 C 0.31844 0.43791 1.09489
 H1566 H 0.30946 0.44656 1.11093
 O1567 O 0.62480 0.52415 1.09099
 O1568 O 0.65412 0.52420 1.12012
 C1569 C 0.64521 0.53270 1.09972
 C1570 C 0.65830 0.55314 1.08631
 C1571 C 0.68164 0.56191 1.09475
 H1572 H 0.69065 0.55328 1.11078
 O1573 O 0.40949 0.37566 1.02460
 O1574 O 0.38038 0.34640 1.02466
 C1575 C 0.40075 0.35528 1.03318
 C1576 C 0.41411 0.34216 1.05367
 C1577 C 0.40565 0.31884 1.06240
 H1578 H 0.38966 0.30988 1.05368
 O1579 O 0.59063 0.62436 1.02459
 O1580 O 0.61980 0.65355 1.02460
 C1581 C 0.59943 0.64471 1.03317
 C1582 C 0.58615 0.65783 1.05372
 C1583 C 0.59466 0.68112 1.06248
 H1584 H 0.61064 0.69008 1.05374
 Cu1585 Cu 0.60478 0.49975 1.10529
 Cu1586 Cu 0.63988 0.49976 1.14036
 Cu1587 Cu 0.39535 0.50008 1.10525
 Cu1588 Cu 0.36032 0.50008 1.14038
 Cu1589 Cu 0.50017 0.60452 1.10510
 Cu1590 Cu 0.50020 0.63959 1.14016
 Cu1591 Cu 0.50013 0.39541 1.10509
 Cu1592 Cu 0.50009 0.36026 1.14008
 C1593 C 0.56541 0.56505 1.14743
 H1594 H 0.55905 0.55866 1.12923
 C1595 C 0.58253 0.58228 1.19389
 C1596 C 0.43480 0.43475 1.14739
 H1597 H 0.44124 0.44121 1.12925
 C1598 C 0.41743 0.41736 1.19371
 C1599 C 0.56552 0.64651 1.06557
 H1600 H 0.55907 0.62839 1.05916
 C1601 C 0.58290 0.69276 1.08284
 C1602 C 0.43475 0.35348 1.06550
 H1603 H 0.44116 0.37162 1.05912
 C1604 C 0.41747 0.30717 1.08270
 C1605 C 0.64692 0.56487 1.06560
 H1606 H 0.62876 0.55846 1.05921
 C1607 C 0.69326 0.58215 1.08283
 C1608 C 0.35310 0.43497 1.06568
 H1609 H 0.37124 0.44139 1.05924
 C1610 C 0.30681 0.41766 1.08301
 C1611 C 0.43481 0.56530 1.14742
 H1612 H 0.44128 0.55879 1.12930
 C1613 C 0.41740 0.58283 1.19368
 C1614 C 0.56544 0.43452 1.14750
 H1615 H 0.55896 0.44104 1.12938
 C1616 C 0.58288 0.41695 1.19372
 C1617 C 0.64705 0.43468 1.06562
 H1618 H 0.62891 0.44113 1.05918
 C1619 C 0.69334 0.41729 1.08293
 C1620 C 0.35314 0.56533 1.06580
 H1621 H 0.37126 0.55887 1.05934
 C1622 C 0.30686 0.58271 1.08318
 C1623 C 0.43487 0.64668 1.06561
 H1624 H 0.44120 0.62849 1.05928
 C1625 C 0.41782 0.69315 1.08267
 C1626 C 0.56544 0.35338 1.06545
 H1627 H 0.55908 0.37157 1.05915
 C1628 C 0.58258 0.30690 1.08242
 O1629 O 0.59049 0.47542 0.87484
 O1630 O 0.61960 0.47540 0.84548
 C1631 C 0.59925 0.46687 0.85441
 C1632 C 0.58591 0.44638 0.84132
 C1633 C 0.59435 0.43756 0.81797
 H1634 H 0.61032 0.44622 0.80891
 O1635 O 0.40948 0.52448 0.87512
 O1636 O 0.38034 0.52458 0.84580
 C1637 C 0.40071 0.53308 0.85471
 C1638 C 0.41404 0.55358 0.84162
 C1639 C 0.40555 0.56239 0.81828
 H1640 H 0.38956 0.55373 0.80925
 O1641 O 0.47565 0.62458 0.90962
 O1642 O 0.47561 0.65389 0.88050
 C1643 C 0.46709 0.64498 0.90089
 C1644 C 0.44661 0.65807 0.91428
 C1645 C 0.43788 0.68141 0.90587
 H1646 H 0.44660 0.69044 0.88989
 O1647 O 0.52451 0.37536 0.90944
 O1648 O 0.52450 0.34605 0.88033
 C1649 C 0.53307 0.35497 0.90068
 C1650 C 0.55363 0.34192 0.91402
 C1651 C 0.56241 0.31859 0.90559
 H1652 H 0.55369 0.30954 0.88963
 O1653 O 0.62500 0.40972 0.97554
 O1654 O 0.65427 0.38058 0.97552
 C1655 C 0.64538 0.40092 0.96695
 C1656 C 0.65845 0.41417 0.94636
 C1657 C 0.68178 0.40569 0.93757
 H1658 H 0.69081 0.38976 0.94634
 O1659 O 0.37525 0.59034 0.97586
 O1660 O 0.34599 0.61949 0.97584
 C1661 C 0.35486 0.59913 0.96728
 C1662 C 0.34175 0.58586 0.94673
 C1663 C 0.31842 0.59434 0.93799
 H1664 H 0.30941 0.61029 0.94675
 O1665 O 0.52444 0.59030 0.87515
 O1666 O 0.52444 0.61945 0.84587
 C1667 C 0.53297 0.59908 0.85473
 C1668 C 0.55342 0.58575 0.84153
 C1669 C 0.56209 0.59421 0.81814
 H1670 H 0.55334 0.61018 0.80917
 O1671 O 0.47557 0.40961 0.87513
 O1672 O 0.47547 0.38046 0.84587
 C1673 C 0.46696 0.40083 0.85475
 C1674 C 0.44642 0.41414 0.84164
 C1675 C 0.43761 0.40564 0.81831
 H1676 H 0.44629 0.38965 0.80931
 O1677 O 0.62475 0.52421 0.90921
 O1678 O 0.65402 0.52427 0.88002
 C1679 C 0.64514 0.53276 0.90043
 C1680 C 0.65825 0.55320 0.91382
 C1681 C 0.68158 0.56195 0.90535
 H1682 H 0.69058 0.55330 0.88931
 O1683 O 0.37514 0.47569 0.90942
 O1684 O 0.34585 0.47572 0.88025
 C1685 C 0.35474 0.46717 0.90064
 C1686 C 0.34163 0.44668 0.91397
 C1687 C 0.31836 0.43785 0.90541
 H1688 H 0.30939 0.44649 0.88936
 O1689 O 0.59057 0.62436 0.97564
 O1690 O 0.61974 0.65355 0.97562
 C1691 C 0.59936 0.64472 0.96708
 C1692 C 0.58605 0.65786 0.94656
 C1693 C 0.59454 0.68117 0.93784
 H1694 H 0.61052 0.69012 0.94658
 O1695 O 0.40948 0.37564 0.97568
 O1696 O 0.38037 0.34637 0.97569
 C1697 C 0.40074 0.35525 0.96714
 C1698 C 0.41411 0.34210 0.94666
 C1699 C 0.40571 0.31874 0.93801
 H1700 H 0.38975 0.30975 0.94678
 O1701 O 0.40949 0.47566 0.87513
 O1702 O 0.38036 0.47568 0.84581
 C1703 C 0.40072 0.46711 0.85471
 C1704 C 0.41402 0.44658 0.84161
 C1705 C 0.40551 0.43778 0.81828
 H1706 H 0.38952 0.44648 0.80926
 O1707 O 0.59047 0.52424 0.87486
 O1708 O 0.61957 0.52430 0.84549
 C1709 C 0.59921 0.53282 0.85444
 C1710 C 0.58584 0.55333 0.84137
 C1711 C 0.59422 0.56210 0.81798
 H1712 H 0.61016 0.55339 0.80888
 O1713 O 0.47563 0.37540 0.90954
 O1714 O 0.47556 0.34608 0.88043
 C1715 C 0.46705 0.35502 0.90082
 C1716 C 0.44656 0.34197 0.91422
 C1717 C 0.43786 0.31861 0.90587
 H1718 H 0.44661 0.30953 0.88994
 O1719 O 0.52452 0.62457 0.90949
 O1720 O 0.52454 0.65388 0.88037
 C1721 C 0.53309 0.64495 0.90074
 C1722 C 0.55363 0.65798 0.91409
 C1723 C 0.56242 0.68130 0.90566
 H1724 H 0.55372 0.69035 0.88968
 O1725 O 0.37509 0.40986 0.97566
 O1726 O 0.34584 0.38074 0.97565
 C1727 C 0.35471 0.40108 0.96708
 C1728 C 0.34162 0.41434 0.94649
 C1729 C 0.31835 0.40580 0.93764
 H1730 H 0.30937 0.38982 0.94634
 O1731 O 0.62484 0.59004 0.97559
 O1732 O 0.65417 0.61908 0.97556
 C1733 C 0.64524 0.59877 0.96700
 C1734 C 0.65831 0.58548 0.94641
 C1735 C 0.68164 0.59393 0.93763
 H1736 H 0.69067 0.60985 0.94640
 O1737 O 0.52444 0.40956 0.87503
 O1738 O 0.52441 0.38041 0.84576
 C1739 C 0.53296 0.40076 0.85461
 C1740 C 0.55346 0.41403 0.84143
 C1741 C 0.56219 0.40551 0.81808
 H1742 H 0.55346 0.38955 0.80910
 O1743 O 0.47558 0.59042 0.87518
 O1744 O 0.47552 0.61957 0.84590
 C1745 C 0.46699 0.59922 0.85479
 C1746 C 0.44646 0.58595 0.84166
 C1747 C 0.43767 0.59447 0.81833
 H1748 H 0.44637 0.61045 0.80934
 O1749 O 0.37524 0.52449 0.90953
 O1750 O 0.34594 0.52459 0.88038
 C1751 C 0.35485 0.53308 0.90078
 C1752 C 0.34176 0.55355 0.91418
 C1753 C 0.31842 0.56234 0.90574
 H1754 H 0.30941 0.55369 0.88972
 O1755 O 0.62483 0.47542 0.90915
 O1756 O 0.65410 0.47540 0.87996
 C1757 C 0.64523 0.46688 0.90037
 C1758 C 0.65837 0.44643 0.91375
 C1759 C 0.68170 0.43764 0.90526
 H1760 H 0.69067 0.44628 0.88921
 O1761 O 0.59066 0.37550 0.97555
 O1762 O 0.61979 0.34622 0.97553
 C1763 C 0.59942 0.35511 0.96698
 C1764 C 0.58608 0.34201 0.94647
 C1765 C 0.59456 0.31868 0.93774
 H1766 H 0.61054 0.30970 0.94648
 O1767 O 0.40957 0.62455 0.97583
 O1768 O 0.38047 0.65386 0.97581
 C1769 C 0.40083 0.64495 0.96726
 C1770 C 0.41418 0.65804 0.94675
 C1771 C 0.40575 0.68138 0.93803
 H1772 H 0.38978 0.69039 0.94677
 Cu1773 Cu 0.60471 0.49982 0.89493
 Cu1774 Cu 0.63975 0.49984 0.85979
 Cu1775 Cu 0.39526 0.50007 0.89522
 Cu1776 Cu 0.36019 0.50015 0.86012
 Cu1777 Cu 0.60479 0.60427 1.00009
 Cu1778 Cu 0.63991 0.63922 1.00009
 Cu1779 Cu 0.60491 0.39554 1.00002
 Cu1780 Cu 0.63995 0.36046 1.00002
 Cu1781 Cu 0.39532 0.60453 1.00032
 Cu1782 Cu 0.36030 0.63963 1.00032
 Cu1783 Cu 0.39521 0.39570 1.00013
 Cu1784 Cu 0.36018 0.36066 1.00017
 Cu1785 Cu 0.50005 0.60455 0.89528
 Cu1786 Cu 0.50003 0.63964 0.86023
 Cu1787 Cu 0.50004 0.39540 0.89520
 Cu1788 Cu 0.49998 0.36031 0.86016
 C1789 C 0.56529 0.43463 0.85277
 H1790 H 0.55889 0.44108 0.87094
 C1791 C 0.58251 0.41725 0.80639
 C1792 C 0.43467 0.56533 0.85302
 H1793 H 0.44110 0.55887 0.87118
 C1794 C 0.41734 0.58272 0.80669
 C1795 C 0.43479 0.64666 0.93490
 H1796 H 0.44118 0.62850 0.94128
 C1797 C 0.41757 0.69302 0.91772
 C1798 C 0.56545 0.35335 0.93463
 H1799 H 0.55903 0.37149 0.94102
 C1800 C 0.58275 0.30702 0.91744
 C1801 C 0.64703 0.43472 0.93447
 H1802 H 0.62889 0.44115 0.94090
 C1803 C 0.69335 0.41740 0.91715
 C1804 C 0.35314 0.56528 0.93486
 H1805 H 0.37130 0.55885 0.94126
 C1806 C 0.30680 0.58261 0.91762
 C1807 C 0.56527 0.56513 0.85287
 H1808 H 0.55892 0.55872 0.87106
 C1809 C 0.58235 0.58241 0.80641
 C1810 C 0.43465 0.43478 0.85301
 H1811 H 0.44110 0.44122 0.87115
 C1812 C 0.41728 0.41744 0.80668
 C1813 C 0.64689 0.56494 0.93453
 H1814 H 0.62874 0.55854 0.94095
 C1815 C 0.69323 0.58219 0.91723
 C1816 C 0.35297 0.43495 0.93469
 H1817 H 0.37107 0.44142 0.94117
 C1818 C 0.30677 0.41753 0.91722
 C1819 C 0.56542 0.64655 0.93472
 H1820 H 0.55899 0.62842 0.94111
 C1821 C 0.58275 0.69284 0.91751
 C1822 C 0.43471 0.35345 0.93480
 H1823 H 0.44108 0.37162 0.94113
 C1824 C 0.41756 0.30703 0.91775
 C1825 C 1.10999 1.10980 1.25952
 C1826 C 1.09478 1.12317 1.27609
 C1827 C 1.10487 1.13328 1.29806
 C1828 C 1.13055 1.13023 1.30399
 C1829 C 1.14552 1.11640 1.28698
 C1830 C 1.13532 1.10638 1.26505
 C1831 C 1.09981 1.10001 1.23655
 C1832 C 1.09163 1.09196 1.21709
 H1833 H 1.07506 1.12577 1.27206
 H1834 H 1.09212 1.14272 1.31066
 H1835 H 1.16546 1.11417 1.28975
 H1836 H 1.14734 1.09624 1.25219
 C1837 C 1.10959 0.60990 0.75942
 C1838 C 1.11756 0.59410 0.77878
 C1839 C 1.12758 0.60423 0.80079
 C1840 C 1.12972 0.63031 0.80368
 C1841 C 1.12151 0.64601 0.78415
 C1842 C 1.11152 0.63586 0.76219
 C1843 C 1.09980 0.59959 0.73652
 C1844 C 1.09178 0.59133 0.71709
 H1845 H 1.11612 0.57398 0.77683
 H1846 H 1.13348 0.59168 0.81561
 H1847 H 1.12325 0.66614 0.78567
 H1848 H 1.10550 0.64825 0.74727
 C1849 C 0.60966 1.11067 0.75956
 C1850 C 0.61704 1.09479 0.77908
 C1851 C 0.62705 1.10478 0.80115
 C1852 C 0.62980 1.13082 0.80395
 C1853 C 0.62214 1.14663 0.78429
 C1854 C 0.61215 1.13660 0.76224
 C1855 C 0.59993 1.10044 0.73658
 C1856 C 0.59194 1.09217 0.71713
 H1857 H 0.61516 1.07469 0.77720
 H1858 H 0.63250 1.09217 0.81608
 H1859 H 0.62432 1.16671 0.78576
 H1860 H 0.60658 1.14905 0.74721
 C1861 C 0.60942 0.61018 1.25989
 C1862 C 0.62262 0.59497 1.27658
 C1863 C 0.63267 0.60506 1.29858
 C1864 C 0.62975 0.63076 1.30441
 C1865 C 0.61602 0.64571 1.28732
 C1866 C 0.60605 0.63551 1.26536
 C1867 C 0.59975 0.59998 1.23687
 C1868 C 0.59182 0.59173 1.21739
 H1869 H 0.62516 0.57525 1.27262
 H1870 H 0.64197 0.59229 1.31126
 H1871 H 0.61385 0.66564 1.29001
 H1872 H 0.59603 0.64752 1.25241
 C1873 C 0.89022 0.88937 1.25915
 C1874 C 0.88843 0.86342 1.26214
 C1875 C 0.87840 0.85339 1.28416
 C1876 C 0.87002 0.86920 1.30353
 C1877 C 0.87196 0.89528 1.30038
 C1878 C 0.88201 0.90528 1.27832
 C1879 C 0.90011 0.89956 1.23622
 C1880 C 0.90822 0.90780 1.21681
 H1881 H 0.89461 0.85094 1.24737
 H1882 H 0.87680 0.83326 1.28585
 H1883 H 0.86590 0.90791 1.31506
 H1884 H 0.88332 0.92539 1.27620
 C1885 C 0.88959 0.38926 0.75890
 C1886 C 0.88155 0.40512 0.77818
 C1887 C 0.87144 0.39507 0.80019
 C1888 C 0.86928 0.36899 0.80317
 C1889 C 0.87746 0.35323 0.78367
 C1890 C 0.88754 0.36332 0.76170
 C1891 C 0.89963 0.39950 0.73605
 C1892 C 0.90787 0.40774 0.71670
 H1893 H 0.88306 0.42524 0.77620
 H1894 H 0.86553 0.40765 0.81498
 H1895 H 0.87570 0.33311 0.78524
 H1896 H 0.89359 0.35088 0.74684
 C1897 C 0.39006 0.88945 0.75939
 C1898 C 0.38222 0.90531 0.77875
 C1899 C 0.37222 0.89527 0.80081
 C1900 C 0.36994 0.86920 0.80377
 C1901 C 0.37797 0.85343 0.78421
 C1902 C 0.38795 0.86351 0.76219
 C1903 C 0.39992 0.89970 0.73646
 C1904 C 0.40802 0.90798 0.71706
 H1905 H 0.38379 0.92543 0.77677
 H1906 H 0.36643 0.90786 0.81563
 H1907 H 0.37611 0.83332 0.78576
 H1908 H 0.39385 0.85106 0.74727
 C1909 C 0.38988 0.38939 1.25944
 C1910 C 0.37659 0.40461 1.27607
 C1911 C 0.36642 0.39451 1.29802
 C1912 C 0.36932 0.36882 1.30387
 C1913 C 0.38304 0.35385 1.28679
 C1914 C 0.39313 0.36405 1.26488
 C1915 C 0.39980 0.39960 1.23652
 C1916 C 0.40795 0.40785 1.21712
 H1917 H 0.37412 0.42434 1.27211
 H1918 H 0.35706 0.40726 1.31069
 H1919 H 0.38516 0.33391 1.28946
 H1920 H 0.40319 0.35203 1.25197
 C1921 C 0.88911 1.11093 0.74095
 C1922 C 0.87581 1.09579 0.72428
 C1923 C 0.86564 1.10596 0.70236
 C1924 C 0.86856 1.13166 0.69656
 C1925 C 0.88227 1.14657 0.71369
 C1926 C 0.89236 1.13629 0.73558
 C1927 C 0.89909 1.10063 0.76382
 C1928 C 0.90731 1.09231 0.78316
 H1929 H 0.87333 1.07605 0.72819
 H1930 H 0.85627 1.09326 0.68966
 H1931 H 0.88440 1.16651 0.71107
 H1932 H 0.90243 1.14826 0.74851
 C1933 C 0.88953 0.61038 0.24082
 C1934 C 0.86423 0.60689 0.23521
 C1935 C 0.85404 0.61688 0.21325
 C1936 C 0.86899 0.63075 0.19627
 C1937 C 0.89463 0.63393 0.20230
 C1938 C 0.90471 0.62384 0.22431
 C1939 C 0.89971 0.60051 0.26377
 C1940 C 0.90794 0.59239 0.28320
 H1941 H 0.85223 0.59669 0.24803
 H1942 H 0.83413 0.61457 0.21046
 H1943 H 0.90737 0.64343 0.18975
 H1944 H 0.92440 0.62652 0.22840
 C1945 C 0.38964 1.11076 0.24078
 C1946 C 0.37622 1.09562 0.22420
 C1947 C 0.36618 1.10573 0.20220
 C1948 C 0.36934 1.13136 0.19623
 C1949 C 0.38319 1.14626 0.21326
 C1950 C 0.39314 1.13604 0.23523
 C1951 C 0.39943 1.10054 0.26376
 C1952 C 0.40749 1.09230 0.28320
 H1953 H 0.37355 1.07593 0.22825
 H1954 H 0.35672 1.09302 0.18959
 H1955 H 0.38550 1.16616 0.21052
 H1956 H 0.40330 1.14800 0.24810
 C1957 C 0.38992 0.61075 0.74094
 C1958 C 0.38807 0.63670 0.73802
 C1959 C 0.37809 0.64678 0.71599
 C1960 C 0.36981 0.63101 0.69655
 C1961 C 0.37182 0.60493 0.69963
 C1962 C 0.38182 0.59488 0.72170
 C1963 C 0.39978 0.60050 0.76386
 C1964 C 0.40788 0.59223 0.78327
 H1965 H 0.39416 0.64915 0.75285
 H1966 H 0.37644 0.66691 0.71436
 H1967 H 0.36585 0.59233 0.68490
 H1968 H 0.38319 0.57476 0.72377
 C1969 C 1.11045 0.88928 0.74062
 C1970 C 1.11258 0.86333 0.73785
 C1971 C 1.12255 0.85322 0.71584
 C1972 C 1.13054 0.86897 0.69625
 C1973 C 1.12824 0.89504 0.69917
 C1974 C 1.11825 0.90512 0.72122
 C1975 C 1.10060 0.89957 0.76353
 C1976 C 1.09249 0.90786 0.78293
 H1977 H 1.10671 0.85091 0.75280
 H1978 H 1.12442 0.83311 0.71432
 H1979 H 1.13399 0.90761 0.68432
 H1980 H 1.11666 0.92523 0.72317
 C1981 C 1.10920 0.38975 0.24004
 C1982 C 1.12240 0.40499 0.22339
 C1983 C 1.13249 0.39495 0.20139
 C1984 C 1.12962 0.36927 0.19550
 C1985 C 1.11587 0.35428 0.21254
 C1986 C 1.10586 0.36444 0.23452
 C1987 C 1.09951 0.39991 0.26308
 C1988 C 1.09159 0.40814 0.28258
 H1989 H 1.12491 0.42471 0.22740
 H1990 H 1.14179 0.40774 0.18875
 H1991 H 1.11373 0.33435 0.20981
 H1992 H 1.09584 0.35240 0.24743
 C1993 C 0.61019 0.88946 0.24088
 C1994 C 0.63617 0.88770 0.23802
 C1995 C 0.64635 0.87762 0.21610
 C1996 C 0.63065 0.86916 0.19668
 C1997 C 0.60452 0.87101 0.19971
 C1998 C 0.59437 0.88112 0.22168
 C1999 C 0.59987 0.89952 0.26368
 C2000 C 0.59160 0.90778 0.28301
 H2001 H 0.64858 0.89398 0.25282
 H2002 H 0.66652 0.87610 0.21450
 H2003 H 0.59197 0.86489 0.18499
 H2004 H 0.57422 0.88240 0.22371
 C2005 C 0.60970 0.38922 0.74055
 C2006 C 0.61220 0.36329 0.73784
 C2007 C 0.62223 0.35327 0.71581
 C2008 C 0.62994 0.36908 0.69617
 C2009 C 0.62719 0.39512 0.69899
 C2010 C 0.61713 0.40511 0.72105
 C2011 C 0.59990 0.39945 0.76351
 C2012 C 0.59188 0.40773 0.78295
 H2013 H 0.60659 0.35083 0.75286
 H2014 H 0.62441 0.33318 0.71433
 H2015 H 0.63266 0.40773 0.68408
 H2016 H 0.61524 0.42520 0.72294
 C2017 C 1.25870 1.11074 1.11049
 C2018 C 1.26151 1.13669 1.11242
 C2019 C 1.28348 1.14682 1.12239
 C2020 C 1.30298 1.13109 1.13058
 C2021 C 1.30001 1.10501 1.12853
 C2022 C 1.27800 1.09491 1.11853
 C2023 C 1.23585 1.10046 1.10058
 C2024 C 1.21650 1.09217 1.09243
 H2025 H 1.24664 1.14911 1.10636
 H2026 H 1.28504 1.16695 1.12406
 H2027 H 1.31479 1.09244 1.13444
 H2028 H 1.27601 1.07479 1.11711
 C2029 C 1.25883 0.61030 0.61029
 C2030 C 1.26171 0.63626 0.61194
 C2031 C 1.28368 0.64643 0.62184
 C2032 C 1.30312 0.63074 0.63026
 C2033 C 1.30008 0.60464 0.62849
 C2034 C 1.27806 0.59450 0.61855
 C2035 C 1.23597 0.59998 0.60043
 C2036 C 1.21661 0.59169 0.59231
 H2037 H 1.24689 0.64865 0.60571
 H2038 H 1.28530 0.66657 0.62331
 H2039 H 1.31481 0.59210 0.63457
 H2040 H 1.27602 0.57437 0.61735
 C2041 C 0.75863 1.11090 0.61055
 C2042 C 0.76406 1.13623 0.60717
 C2043 C 0.78592 1.14648 0.61724
 C2044 C 0.80298 1.13158 0.63107
 C2045 C 0.79713 1.10592 0.63414
 C2046 C 0.77522 1.09577 0.62399
 C2047 C 0.73578 1.10064 0.60060
 C2048 C 0.71644 1.09236 0.59240
 H2049 H 0.75119 1.14819 0.59700
 H2050 H 0.78862 1.16640 0.61499
 H2051 H 0.80977 1.09323 0.64361
 H2052 H 0.77127 1.07606 0.62658
 C2053 C 0.75892 0.61035 1.11000
 C2054 C 0.76152 0.63630 1.11227
 C2055 C 0.78347 0.64647 1.12225
 C2056 C 0.80313 0.63079 1.13012
 C2057 C 0.80042 0.60472 1.12760
 C2058 C 0.77843 0.59458 1.11760
 C2059 C 0.73604 0.60000 1.10023
 C2060 C 0.71666 0.59166 1.09222
 H2061 H 0.74649 0.64867 1.10652
 H2062 H 0.78488 0.66658 1.12424
 H2063 H 0.81535 0.59219 1.13320
 H2064 H 0.77662 0.57446 1.11588
 C2065 C 1.25945 0.89005 0.88998
 C2066 C 1.26499 0.86479 0.89361
 C2067 C 1.28694 0.85452 0.88372
 C2068 C 1.30398 0.86936 0.86982
 C2069 C 1.29801 0.89497 0.86650
 C2070 C 1.27602 0.90513 0.87648
 C2071 C 1.23651 0.90030 0.89974
 C2072 C 1.21707 0.90852 0.90779
 H2073 H 1.25213 0.85287 0.90383
 H2074 H 1.28969 0.83463 0.88615
 H2075 H 1.31061 0.90763 0.85696
 H2076 H 1.27198 0.92481 0.87370
 C2077 C 1.25902 0.38968 0.38939
 C2078 C 1.26447 0.36436 0.39279
 C2079 C 1.28640 0.35412 0.38284
 C2080 C 1.30351 0.36903 0.36911
 C2081 C 1.29764 0.39469 0.36601
 C2082 C 1.27566 0.40483 0.37605
 C2083 C 1.23610 0.39991 0.39924
 C2084 C 1.21670 0.40813 0.40736
 H2085 H 1.25156 0.35239 0.40289
 H2086 H 1.28911 0.33419 0.38509
 H2087 H 1.31031 0.40738 0.35661
 H2088 H 1.27168 0.42454 0.37345
 C2089 C 0.75867 0.88982 0.38947
 C2090 C 0.76165 0.86387 0.38783
 C2091 C 0.78368 0.85375 0.37797
 C2092 C 0.80308 0.86948 0.36960
 C2093 C 0.79994 0.89557 0.37134
 C2094 C 0.77786 0.90566 0.38123
 C2095 C 0.73577 0.90008 0.39931
 C2096 C 0.71637 0.90831 0.40741
 H2097 H 0.74687 0.85144 0.39404
 H2098 H 0.78538 0.83361 0.37653
 H2099 H 0.81464 0.90815 0.36529
 H2100 H 0.77574 0.92579 0.38243
 C2101 C 0.75914 0.38943 0.88987
 C2102 C 0.76466 0.36414 0.89337
 C2103 C 0.78660 0.35390 0.88342
 C2104 C 0.80364 0.36879 0.86958
 C2105 C 0.79770 0.39443 0.86642
 C2106 C 0.77573 0.40456 0.87646
 C2107 C 0.73619 0.39967 0.89966
 C2108 C 0.71677 0.40792 0.90772
 H2109 H 0.75179 0.35218 0.90353
 H2110 H 0.78932 0.33399 0.88573
 H2111 H 0.81032 0.40713 0.85696
 H2112 H 0.77171 0.42426 0.87379
 C2113 C 0.74145 0.88981 1.11028
 C2114 C 0.73849 0.88789 1.13628
 C2115 C 0.71653 0.87782 1.14631
 C2116 C 0.69719 0.86951 1.13043
 C2117 C 0.70030 0.87159 1.10430
 C2118 C 0.72231 0.88169 1.09431
 C2119 C 0.76433 0.89975 1.10011
 C2120 C 0.78373 0.90789 1.09192
 H2121 H 0.75325 0.89401 1.14881
 H2122 H 0.71485 0.87613 1.16648
 H2123 H 0.68563 0.86562 1.09162
 H2124 H 0.72442 0.88311 1.07415
 C2125 C 0.74074 0.39036 0.61018
 C2126 C 0.72425 0.37714 0.59478
 C2127 C 0.70224 0.36701 0.60470
 C2128 C 0.69617 0.36988 0.63041
 C2129 C 0.71309 0.38358 0.64557
 C2130 C 0.73507 0.39362 0.63553
 C2131 C 0.76375 0.40017 0.60014
 C2132 C 0.78322 0.40820 0.59200
 H2133 H 0.72838 0.37467 0.57504
 H2134 H 0.68971 0.35771 0.59179
 H2135 H 0.71025 0.38568 0.66553
 H2136 H 0.74787 0.40364 0.64770
 C2137 C 0.24098 0.88983 0.61012
 C2138 C 0.23550 0.86456 0.60645
 C2139 C 0.21355 0.85427 0.61629
 C2140 C 0.19646 0.86908 0.63019
 C2141 C 0.20236 0.89470 0.63352
 C2142 C 0.22436 0.90488 0.62359
 C2143 C 0.26393 0.90011 0.60043
 C2144 C 0.28336 0.90837 0.59242
 H2145 H 0.24840 0.85266 0.59625
 H2146 H 0.21082 0.83438 0.61385
 H2147 H 0.18972 0.90735 0.64303
 H2148 H 0.22835 0.92456 0.62638
 C2149 C 0.24107 0.39008 1.11072
 C2150 C 0.22182 0.38239 1.09466
 C2151 C 0.19974 0.37232 1.10454
 C2152 C 0.19666 0.36984 1.13063
 C2153 C 0.21612 0.37767 1.14660
 C2154 C 0.23816 0.38772 1.13669
 C2155 C 0.26400 0.40004 1.10063
 C2156 C 0.28340 0.40819 1.09246
 H2157 H 0.22388 0.38414 1.07452
 H2158 H 0.18500 0.36666 1.09180
 H2159 H 0.21447 0.37563 1.16674
 H2160 H 0.25300 0.39349 1.14929
 C2161 C 0.74064 1.10933 0.88979
 C2162 C 0.72419 1.12261 0.90521
 C2163 C 0.70218 1.13280 0.89532
 C2164 C 0.69607 1.12994 0.86963
 C2165 C 0.71296 1.11620 0.85445
 C2166 C 0.73494 1.10609 0.86445
 C2167 C 0.76365 1.09945 0.89979
 C2168 C 0.78312 1.09139 0.90791
 H2169 H 0.72835 1.12507 0.92495
 H2170 H 0.68969 1.14214 0.90825
 H2171 H 0.71009 1.11411 0.83449
 H2172 H 0.74770 1.09603 0.85226
 C2173 C 0.74108 0.61025 0.38952
 C2174 C 0.72176 0.61794 0.40551
 C2175 C 0.69967 0.62793 0.39555
 C2176 C 0.69665 0.63033 0.36944
 C2177 C 0.71617 0.62248 0.35354
 C2178 C 0.73822 0.61252 0.36353
 C2179 C 0.76402 0.60038 0.39969
 C2180 C 0.78343 0.59227 0.40790
 H2181 H 0.72378 0.61626 0.42566
 H2182 H 0.68487 0.63360 0.40824
 H2183 H 0.71457 0.62446 0.33339
 H2184 H 0.75311 0.60674 0.35099
 C2185 C 0.24076 1.11058 0.38974
 C2186 C 0.23507 1.10689 0.36446
 C2187 C 0.21312 1.11685 0.35426
 C2188 C 0.19623 1.13087 0.36919
 C2189 C 0.20238 1.13431 0.39479
 C2190 C 0.22437 1.12425 0.40488
 C2191 C 0.26368 1.10068 0.39993
 C2192 C 0.28308 1.09251 0.40812
 H2193 H 0.24779 1.09655 0.35248
 H2194 H 0.21021 1.11436 0.33435
 H2195 H 0.18991 1.14399 0.40751
 H2196 H 0.22855 1.12710 0.42457
 C2197 C 0.24106 0.61008 0.88980
 C2198 C 0.22196 0.61834 0.90577
 C2199 C 0.19990 0.62835 0.89577
 C2200 C 0.19668 0.63020 0.86964
 C2201 C 0.21598 0.62178 0.85376
 C2202 C 0.23800 0.61179 0.86379
 C2203 C 0.26398 0.60020 0.89998
 C2204 C 0.28338 0.59207 0.90819
 H2205 H 0.22414 0.61709 0.92594
 H2206 H 0.18527 0.63445 0.90845
 H2207 H 0.21424 0.62331 0.83358
 H2208 H 0.25273 0.60557 0.85126
 C2209 C 1.11064 1.25882 1.10959
 C2210 C 1.13659 1.26152 1.11215
 C2211 C 1.14660 1.28355 1.12208
 C2212 C 1.13076 1.30321 1.12962
 C2213 C 1.10470 1.30040 1.12680
 C2214 C 1.09472 1.27834 1.11685
 C2215 C 1.10042 1.23587 1.09988
 C2216 C 1.09214 1.21645 1.09191
 H2217 H 1.14908 1.24649 1.10667
 H2218 H 1.16670 1.28503 1.12431
 H2219 H 1.09205 1.31533 1.13215
 H2220 H 1.07461 1.27647 1.11491
 C2221 C 1.11073 0.75842 0.60985
 C2222 C 1.09487 0.77773 0.61778
 C2223 C 1.10495 0.79976 0.62769
 C2224 C 1.13106 0.80274 0.62979
 C2225 C 1.14683 0.78327 0.62163
 C2226 C 1.13671 0.76127 0.61174
 C2227 C 1.10044 0.73552 0.60013
 C2228 C 1.09216 0.71612 0.59213
 H2229 H 1.07473 0.77572 0.61637
 H2230 H 1.09235 0.81453 0.63355
 H2231 H 1.16698 0.78486 0.62331
 H2232 H 1.14916 0.74640 0.60575
 C2233 C 0.61075 1.25888 0.60950
 C2234 C 0.59484 1.27832 0.61699
 C2235 C 0.60486 1.30040 0.62688
 C2236 C 0.63094 1.30330 0.62938
 C2237 C 0.64676 1.28368 0.62168
 C2238 C 0.63671 1.26164 0.61181
 C2239 C 0.60051 1.23593 0.59982
 C2240 C 0.59223 1.21651 0.59186
 H2241 H 0.57472 1.27639 0.61526
 H2242 H 0.59223 1.31527 0.63242
 H2243 H 0.66688 1.28519 0.62373
 H2244 H 0.64919 1.24666 0.60618
 C2245 C 0.61088 0.75845 1.11009
 C2246 C 0.59496 0.77767 1.11814
 C2247 C 0.60498 0.79972 1.12807
 C2248 C 0.63108 0.80282 1.13008
 C2249 C 0.64691 0.78342 1.12185
 C2250 C 0.63685 0.76140 1.11194
 C2251 C 0.60066 0.73554 1.10030
 C2252 C 0.59240 0.71615 1.09225
 H2253 H 0.57482 0.77558 1.11678
 H2254 H 0.59234 0.81442 1.13401
 H2255 H 0.66705 0.78507 1.12350
 H2256 H 0.64934 0.74660 1.10588
 C2257 C 0.88975 1.25844 0.88954
 C2258 C 0.88213 1.27782 0.90548
 C2259 C 0.87204 1.29982 0.89546
 C2260 C 0.86946 1.30267 0.86935
 C2261 C 0.87729 1.28312 0.85351
 C2262 C 0.88736 1.26116 0.86356
 C2263 C 0.89965 1.23557 0.89976
 C2264 C 0.90777 1.21619 0.90799
 H2265 H 0.88393 1.27591 0.92563
 H2266 H 0.86646 1.31466 0.90810
 H2267 H 0.87524 1.28464 0.83335
 H2268 H 0.89310 1.24623 0.85106
 C2269 C 0.88983 0.75899 0.39062
 C2270 C 0.90572 0.77823 0.38265
 C2271 C 0.89566 0.80024 0.37263
 C2272 C 0.86956 0.80325 0.37045
 C2273 C 0.85377 0.78383 0.37865
 C2274 C 0.86386 0.76186 0.38865
 C2275 C 0.90007 0.73609 0.40041
 C2276 C 0.90831 0.71667 0.40842
 H2277 H 0.92586 0.77620 0.38412
 H2278 H 0.90828 0.81497 0.36674
 H2279 H 0.83362 0.78543 0.37689
 H2280 H 0.85139 0.74703 0.39466
 C2281 C 0.38921 1.25878 0.39013
 C2282 C 0.36325 1.26140 0.38763
 C2283 C 0.35315 1.28331 0.37752
 C2284 C 0.36891 1.30292 0.36974
 C2285 C 0.39499 1.30019 0.37246
 C2286 C 0.40506 1.27823 0.38259
 C2287 C 0.39948 1.23595 0.40004
 C2288 C 0.40776 1.21659 0.40815
 H2289 H 0.35082 1.24641 0.39331
 H2290 H 0.33303 1.28475 0.37537
 H2291 H 0.40756 1.31509 0.36693
 H2292 H 0.42518 1.27641 0.38448
 C2293 C 0.38965 0.75873 0.89043
 C2294 C 0.36368 0.76162 0.88846
 C2295 C 0.35361 0.78360 0.87848
 C2296 C 0.36941 0.80302 0.87030
 C2297 C 0.39551 0.79999 0.87245
 C2298 C 0.40555 0.77797 0.88247
 C2299 C 0.39989 0.73584 0.90026
 C2300 C 0.40813 0.71643 0.90832
 H2301 H 0.35121 0.74680 0.89447
 H2302 H 0.33346 0.78523 0.87674
 H2303 H 0.40813 0.81472 0.86658
 H2304 H 0.42569 0.77593 0.88393
 C2305 C 1.11069 0.74145 0.88986
 C2306 C 1.11231 0.73834 0.86385
 C2307 C 1.12219 0.71630 0.85383
 C2308 C 1.13060 0.69701 0.86971
 C2309 C 1.12889 0.70029 0.89585
 C2310 C 1.11898 0.72238 0.90584
 C2311 C 1.10083 0.76436 0.90001
 C2312 C 1.09271 0.78377 0.90816
 H2313 H 1.10607 0.75303 0.85132
 H2314 H 1.12361 0.71450 0.83365
 H2315 H 1.13497 0.68568 0.90854
 H2316 H 1.11780 0.72460 0.92601
 C2317 C 1.11055 0.24138 0.38906
 C2318 C 1.11291 0.23853 0.36308
 C2319 C 1.12284 0.21647 0.35311
 C2320 C 1.13056 0.19692 0.36902
 C2321 C 1.12812 0.19996 0.39513
 C2322 C 1.11816 0.22205 0.40507
 C2323 C 1.10063 0.26429 0.39920
 C2324 C 1.09247 0.28367 0.40741
 H2325 H 1.10720 0.25342 0.35053
 H2326 H 1.12486 0.21487 0.33296
 H2327 H 1.13372 0.18515 0.40781
 H2328 H 1.11643 0.22407 0.42521
 C2329 C 0.61052 0.74137 0.39013
 C2330 C 0.59462 0.72186 0.38287
 C2331 C 0.60462 0.69978 0.37294
 C2332 C 0.63068 0.69696 0.37015
 C2333 C 0.64650 0.71661 0.37769
 C2334 C 0.63647 0.73866 0.38759
 C2335 C 0.60028 0.76432 0.39984
 C2336 C 0.59199 0.78374 0.40783
 H2337 H 0.57450 0.72374 0.38479
 H2338 H 0.59199 0.68486 0.36760
 H2339 H 0.66661 0.71513 0.37547
 H2340 H 0.64894 0.75368 0.39308
 C2341 C 0.61071 0.24114 0.89051
 C2342 C 0.59479 0.22172 0.88306
 C2343 C 0.60479 0.19961 0.87320
 C2344 C 0.63087 0.19665 0.87070
 C2345 C 0.64670 0.21624 0.87837
 C2346 C 0.63667 0.23832 0.88821
 C2347 C 0.60048 0.26412 0.90017
 C2348 C 0.59222 0.28357 0.90811
 H2349 H 0.57467 0.22369 0.88478
 H2350 H 0.59215 0.18475 0.86768
 H2351 H 0.66682 0.21469 0.87632
 H2352 H 0.64916 0.25329 0.89382
 C2353 C 0.88969 0.74129 1.11048
 C2354 C 0.90554 0.72205 1.11860
 C2355 C 0.89544 0.70006 1.12860
 C2356 C 0.86933 0.69704 1.13058
 C2357 C 0.85358 0.71649 1.12230
 C2358 C 0.86371 0.73844 1.11233
 C2359 C 0.89998 0.76412 1.10055
 C2360 C 0.90826 0.78345 1.09237
 H2361 H 0.92569 0.72406 1.11724
 H2362 H 0.90803 0.68532 1.13457
 H2363 H 0.83342 0.71489 1.12392
 H2364 H 0.85127 0.75326 1.10621
 C2365 C 0.88894 0.24167 0.61037
 C2366 C 0.90470 0.22216 0.61801
 C2367 C 0.89453 0.20026 0.62813
 C2368 C 0.86843 0.19762 0.63073
 C2369 C 0.85276 0.21728 0.62285
 C2370 C 0.86297 0.23915 0.61276
 C2371 C 0.89933 0.26444 0.60044
 C2372 C 0.90771 0.28374 0.59229
 H2373 H 0.92484 0.22391 0.61621
 H2374 H 0.90705 0.18532 0.63373
 H2375 H 0.83263 0.21592 0.62490
 H2376 H 0.85060 0.25417 0.60699
 C2377 C 0.38967 0.74142 0.60973
 C2378 C 0.40557 0.72217 0.61774
 C2379 C 0.39552 0.70014 0.62770
 C2380 C 0.36941 0.69711 0.62977
 C2381 C 0.35361 0.71653 0.62153
 C2382 C 0.36370 0.73852 0.61159
 C2383 C 0.39991 0.76433 0.59998
 C2384 C 0.40815 0.78374 0.59196
 H2385 H 0.42571 0.72422 0.61635
 H2386 H 0.40814 0.68542 0.63362
 H2387 H 0.33347 0.71491 0.62320
 H2388 H 0.35123 0.75335 0.60555
 C2389 C 0.38943 0.24154 1.11000
 C2390 C 0.40530 0.22211 1.11762
 C2391 C 0.39523 0.20013 1.12767
 C2392 C 0.36915 0.19734 1.13023
 C2393 C 0.35338 0.21694 1.12238
 C2394 C 0.36347 0.23888 1.11234
 C2395 C 0.39971 0.26441 1.10016
 C2396 C 0.40798 0.28378 1.09210
 H2397 H 0.42543 0.22398 1.11585
 H2398 H 0.40783 0.18525 1.13326
 H2399 H 0.33325 0.21547 1.12441
 H2400 H 0.35103 0.25384 1.10660
 C2401 C 1.10922 1.11054 0.74030
 C2402 C 1.11147 1.13648 0.73756
 C2403 C 1.12137 1.14655 0.71550
 C2404 C 1.12917 1.13078 0.69587
 C2405 C 1.12673 1.10472 0.69874
 C2406 C 1.11680 1.09468 0.72084
 C2407 C 1.09954 1.10027 0.76329
 C2408 C 1.09159 1.09199 0.78275
 H2409 H 1.10577 1.14891 0.75257
 H2410 H 1.12339 1.16666 0.71401
 H2411 H 1.13235 1.09214 0.68385
 H2412 H 1.11513 1.07457 0.72277
 C2413 C 1.10953 0.61065 0.24032
 C2414 C 1.10646 0.63605 0.23500
 C2415 C 1.11644 0.64624 0.21304
 C2416 C 1.12987 0.63120 0.19578
 C2417 C 1.13256 0.60546 0.20150
 C2418 C 1.12249 0.59537 0.22350
 C2419 C 1.09980 0.60044 0.26332
 C2420 C 1.09182 0.59219 0.28278
 H2421 H 1.09666 0.64812 0.24806
 H2422 H 1.11455 0.66622 0.21050
 H2423 H 1.14166 0.59266 0.18871
 H2424 H 1.12481 0.57560 0.22736
 C2425 C 0.60920 1.11066 0.24029
 C2426 C 0.61150 1.13660 0.23755
 C2427 C 0.62148 1.14665 0.21552
 C2428 C 0.62931 1.13086 0.19590
 C2429 C 0.62682 1.10481 0.19879
 C2430 C 0.61682 1.09479 0.22085
 C2431 C 0.59941 1.10043 0.26324
 C2432 C 0.59138 1.09216 0.28268
 H2433 H 0.60577 1.14905 0.25253
 H2434 H 0.62353 1.16675 0.21402
 H2435 H 0.63247 1.09221 0.18391
 H2436 H 0.61510 1.07468 0.22278
 C2437 C 0.60924 0.61043 0.74046
 C2438 C 0.61708 0.59456 0.72111
 C2439 C 0.62703 0.60460 0.69903
 C2440 C 0.62925 0.63067 0.69604
 C2441 C 0.62114 0.64645 0.71554
 C2442 C 0.61121 0.63638 0.73759
 C2443 C 0.59957 0.60018 0.76345
 C2444 C 0.59164 0.59189 0.78292
 H2445 H 0.61561 0.57445 0.72313
 H2446 H 0.63286 0.59199 0.68424
 H2447 H 0.62294 0.66657 0.71395
 H2448 H 0.60529 0.64883 0.75250
 C2449 C 0.88972 0.88984 0.74075
 C2450 C 0.86374 0.88811 0.73781
 C2451 C 0.85363 0.87817 0.71579
 C2452 C 0.86940 0.86981 0.69637
 C2453 C 0.89551 0.87169 0.69947
 C2454 C 0.90559 0.88165 0.72152
 C2455 C 0.89999 0.89967 0.76366
 C2456 C 0.90826 0.90777 0.78307
 H2457 H 0.85129 0.89428 0.75262
 H2458 H 0.83347 0.87662 0.71414
 H2459 H 0.90812 0.86564 0.68475
 H2460 H 0.92574 0.88292 0.72360
 C2461 C 0.88965 0.38942 0.24104
 C2462 C 0.88795 0.36346 0.23818
 C2463 C 0.87801 0.35329 0.21619
 C2464 C 0.86959 0.36898 0.19673
 C2465 C 0.87141 0.39507 0.19977
 C2466 C 0.88138 0.40521 0.22179
 C2467 C 0.89956 0.39974 0.26390
 C2468 C 0.90773 0.40804 0.28327
 H2469 H 0.89419 0.35107 0.25301
 H2470 H 0.87652 0.33315 0.21458
 H2471 H 0.86533 0.40761 0.18502
 H2472 H 0.88263 0.42535 0.22382
 C2473 C 0.38980 0.88955 0.24087
 C2474 C 0.38776 0.86359 0.23812
 C2475 C 0.37798 0.85344 0.21604
 C2476 C 0.37009 0.86915 0.19639
 C2477 C 0.37227 0.89523 0.19930
 C2478 C 0.38208 0.90535 0.22141
 C2479 C 0.39950 0.89986 0.26382
 C2480 C 0.40751 0.90816 0.28325
 H2481 H 0.39357 0.85120 0.25312
 H2482 H 0.37616 0.83332 0.21454
 H2483 H 0.36656 0.90777 0.18440
 H2484 H 0.38358 0.92547 0.22334
 C2485 C 0.38990 0.38940 0.74093
 C2486 C 0.38786 0.36346 0.73813
 C2487 C 0.37797 0.35335 0.71608
 C2488 C 0.36999 0.36910 0.69649
 C2489 C 0.37214 0.39518 0.69946
 C2490 C 0.38205 0.40525 0.72155
 C2491 C 0.39972 0.39967 0.76386
 C2492 C 0.40781 0.40794 0.78327
 H2493 H 0.39375 0.35103 0.75307
 H2494 H 0.37617 0.33323 0.71453
 H2495 H 0.36635 0.40775 0.68462
 H2496 H 0.38356 0.42537 0.72353
 C2497 C 1.10934 0.88981 1.25984
 C2498 C 1.12244 0.90507 1.27653
 C2499 C 1.13247 0.89504 1.29857
 C2500 C 1.12964 0.86935 1.30445
 C2501 C 1.11600 0.85434 1.28736
 C2502 C 1.10605 0.86448 1.26535
 C2503 C 1.09970 0.89995 1.23677
 C2504 C 1.09180 0.90816 1.21725
 H2505 H 1.12491 0.92480 1.27254
 H2506 H 1.14169 0.90786 1.31125
 H2507 H 1.11390 0.83441 1.29007
 H2508 H 1.09610 0.85242 1.25240
 C2509 C 1.11028 0.38907 0.75928
 C2510 C 1.10682 0.36379 0.76485
 C2511 C 1.11682 0.35359 0.78680
 C2512 C 1.13067 0.36851 0.80382
 C2513 C 1.13380 0.39414 0.79783
 C2514 C 1.12371 0.40423 0.77584
 C2515 C 1.10043 0.39928 0.73633
 C2516 C 1.09233 0.40752 0.71690
 H2517 H 1.09666 0.35180 0.75200
 H2518 H 1.11454 0.33369 0.78956
 H2519 H 1.14327 0.40686 0.81042
 H2520 H 1.12635 0.42392 0.77178
 C2521 C 0.60976 0.88943 0.75931
 C2522 C 0.61172 0.86348 0.76216
 C2523 C 0.62167 0.85337 0.78419
 C2524 C 0.62982 0.86912 0.80369
 C2525 C 0.62763 0.89520 0.80071
 C2526 C 0.61766 0.90527 0.77866
 C2527 C 0.60003 0.89973 0.73635
 C2528 C 0.59203 0.90804 0.71692
 H2529 H 0.60575 0.85105 0.74726
 H2530 H 0.62344 0.83325 0.78576
 H2531 H 0.63349 0.90778 0.81551
 H2532 H 0.61620 0.92539 0.77665
 C2533 C 0.61093 0.38915 1.25932
 C2534 C 0.63629 0.39240 1.26477
 C2535 C 0.64653 0.38230 1.28666
 C2536 C 0.63156 0.36856 1.30373
 C2537 C 0.60585 0.36563 1.29786
 C2538 C 0.59573 0.37581 1.27593
 C2539 C 0.60068 0.39914 1.23644
 C2540 C 0.59241 0.40736 1.21708
 H2541 H 0.64831 0.40248 1.25188
 H2542 H 0.66648 0.38443 1.28934
 H2543 H 0.59311 0.35624 1.31052
 H2544 H 0.57598 0.37333 1.27196
 C2545 C 0.88989 1.11064 1.25907
 C2546 C 0.88174 1.09478 1.27830
 C2547 C 0.87175 1.10484 1.30036
 C2548 C 0.86980 1.13092 1.30345
 C2549 C 0.87813 1.14669 1.28402
 C2550 C 0.88809 1.13659 1.26200
 C2551 C 0.89974 1.10038 1.23615
 C2552 C 0.90785 1.09211 1.21674
 H2553 H 0.88306 1.07466 1.27623
 H2554 H 0.86573 1.09225 1.31508
 H2555 H 0.87652 1.16682 1.28566
 H2556 H 0.89423 1.14903 1.24718
 C2557 C 0.89002 0.61036 0.75933
 C2558 C 0.88823 0.63631 0.76226
 C2559 C 0.87829 0.64641 0.78430
 C2560 C 0.87000 0.63064 0.80374
 C2561 C 0.87194 0.60456 0.80064
 C2562 C 0.88191 0.59450 0.77857
 C2563 C 0.89986 0.60011 0.73640
 C2564 C 0.90794 0.59185 0.71698
 H2565 H 0.89435 0.64876 0.74743
 H2566 H 0.87669 0.66654 0.78594
 H2567 H 0.86595 0.59197 0.81538
 H2568 H 0.88323 0.57438 0.77649
 C2569 C 0.38994 1.11109 0.75927
 C2570 C 0.38786 1.13704 0.76206
 C2571 C 0.37791 1.14715 0.78408
 C2572 C 0.36991 1.13140 0.80366
 C2573 C 0.37212 1.10533 0.80071
 C2574 C 0.38209 1.09525 0.77864
 C2575 C 0.39981 1.10081 0.73636
 C2576 C 0.40792 1.09250 0.71696
 H2577 H 0.39376 1.14946 0.74712
 H2578 H 0.37607 1.16727 0.78562
 H2579 H 0.36632 1.09276 0.81554
 H2580 H 0.38362 1.07513 0.77668
 C2581 C 0.38939 0.61071 1.25925
 C2582 C 0.36343 0.61281 1.26209
 C2583 C 0.35336 0.62289 1.28407
 C2584 C 0.36916 0.63100 1.30356
 C2585 C 0.39526 0.62879 1.30055
 C2586 C 0.40529 0.61869 1.27853
 C2587 C 0.39962 0.60067 1.23639
 C2588 C 0.40788 0.59242 1.21704
 H2589 H 0.35096 0.60681 1.24723
 H2590 H 0.33322 0.62470 1.28565
 H2591 H 0.40787 0.63466 1.31533
 H2592 H 0.42543 0.61714 1.27652
 C2593 C 1.11052 1.25839 0.89002
 C2594 C 1.09468 1.27783 0.88241
 C2595 C 1.10478 1.29982 0.87239
 C2596 C 1.13087 1.30260 0.86986
 C2597 C 1.14662 1.28299 0.87774
 C2598 C 1.13649 1.26105 0.88773
 C2599 C 1.10022 1.23552 0.89981
 C2600 C 1.09192 1.21614 0.90786
 H2601 H 1.07455 1.27598 0.88414
 H2602 H 1.09220 1.31471 0.86680
 H2603 H 1.16675 1.28445 0.87573
 H2604 H 1.14892 1.24607 0.89348
 C2605 C 1.11075 0.75884 0.39038
 C2606 C 1.09478 0.77828 0.38304
 C2607 C 1.10469 0.80036 0.37307
 C2608 C 1.13075 0.80326 0.37031
 C2609 C 1.14664 0.78366 0.37792
 C2610 C 1.13669 0.76161 0.38787
 C2611 C 1.10059 0.73587 0.40012
 C2612 C 1.09235 0.71644 0.40811
 H2613 H 1.07467 0.77634 0.38495
 H2614 H 1.09201 0.81523 0.36768
 H2615 H 1.16675 0.78521 0.37572
 H2616 H 1.14922 0.74664 0.39340
 C2617 C 0.61071 1.25855 0.38944
 C2618 C 0.59558 1.27514 0.37601
 C2619 C 0.60573 1.29708 0.36596
 C2620 C 0.63140 1.30296 0.36913
 C2621 C 0.64630 1.28591 0.38297
 C2622 C 0.63604 1.26402 0.39293
 C2623 C 0.60044 1.23568 0.39929
 C2624 C 0.59216 1.21632 0.40742
 H2625 H 0.57586 1.27117 0.37335
 H2626 H 0.59304 1.30971 0.35649
 H2627 H 0.66623 1.28864 0.38529
 H2628 H 0.64800 1.25115 0.40310
 C2629 C 0.61072 0.75863 0.89047
 C2630 C 0.63669 0.76151 0.88840
 C2631 C 0.64671 0.78354 0.87848
 C2632 C 0.63087 0.80301 0.87046
 C2633 C 0.60478 0.80000 0.87276
 C2634 C 0.59479 0.77794 0.88270
 C2635 C 0.60050 0.73568 0.90018
 C2636 C 0.59224 0.71626 0.90816
 H2637 H 0.64919 0.74664 0.89426
 H2638 H 0.66685 0.78514 0.87662
 H2639 H 0.59212 0.81476 0.86701
 H2640 H 0.57466 0.77591 0.88425
 C2641 C 0.89032 1.25899 1.10990
 C2642 C 0.89377 1.26458 1.13524
 C2643 C 0.88381 1.28653 1.14540
 C2644 C 0.87002 1.30351 1.13037
 C2645 C 0.86696 1.29753 1.10467
 C2646 C 0.87701 1.27554 1.09463
 C2647 C 0.90004 1.23600 1.09977
 C2648 C 0.90802 1.21653 1.09161
 H2649 H 0.90387 1.25174 1.14731
 H2650 H 0.88606 1.28933 1.16535
 H2651 H 0.85758 1.31010 1.09186
 H2652 H 0.87439 1.27147 1.07489
 C2653 C 0.88973 0.75867 0.61031
 C2654 C 0.86376 0.76168 0.61198
 C2655 C 0.85367 0.78370 0.62186
 C2656 C 0.86946 0.80305 0.63022
 C2657 C 0.89557 0.79987 0.62843
 C2658 C 0.90563 0.77781 0.61852
 C2659 C 0.89996 0.73578 0.60046
 C2660 C 0.90817 0.71639 0.59236
 H2661 H 0.85129 0.74693 0.60579
 H2662 H 0.83351 0.78541 0.62334
 H2663 H 0.90819 0.81454 0.63447
 H2664 H 0.92577 0.77567 0.61729
 C2665 C 0.39020 1.25931 0.60949
 C2666 C 0.36488 1.26487 0.60610
 C2667 C 0.35474 1.28682 0.61609
 C2668 C 0.36976 1.30380 0.62985
 C2669 C 0.39544 1.29784 0.63285
 C2670 C 0.40547 1.27586 0.62277
 C2671 C 0.40031 1.23632 0.59976
 C2672 C 0.40844 1.21684 0.59178
 H2673 H 0.35282 1.25203 0.59603
 H2674 H 0.33480 1.28960 0.61390
 H2675 H 0.40824 1.31041 0.64222
 H2676 H 0.42519 1.27179 0.62534
 C2677 C 0.39023 0.75915 1.10960
 C2678 C 0.40549 0.77570 1.12290
 C2679 C 0.39547 0.79771 1.13292
 C2680 C 0.36981 0.80371 1.12986
 C2681 C 0.35479 0.78673 1.11609
 C2682 C 0.36492 0.76476 1.10616
 C2683 C 0.40034 0.73614 1.09992
 C2684 C 0.40848 0.71665 1.09196
 H2685 H 0.42520 0.77161 1.12551
 H2686 H 0.40828 0.81028 1.14228
 H2687 H 0.33487 0.78955 1.11385
 H2688 H 0.35287 0.75192 1.09608
 C2689 C 0.89020 0.74101 0.89044
 C2690 C 0.90603 0.72171 0.88246
 C2691 C 0.89592 0.69969 0.87255
 C2692 C 0.86980 0.69672 0.87052
 C2693 C 0.85406 0.71619 0.87874
 C2694 C 0.86421 0.73817 0.88863
 C2695 C 0.90050 0.76391 0.90014
 C2696 C 0.90878 0.78332 0.90811
 H2697 H 0.92618 0.72371 0.88382
 H2698 H 0.90850 0.68492 0.86665
 H2699 H 0.83391 0.71462 0.87709
 H2700 H 0.85179 0.75304 0.89466
 C2701 C 0.88972 0.24126 0.39033
 C2702 C 0.86375 0.23841 0.38843
 C2703 C 0.85364 0.21644 0.37847
 C2704 C 0.86942 0.19700 0.37025
 C2705 C 0.89552 0.19998 0.37236
 C2706 C 0.90560 0.22199 0.38234
 C2707 C 0.89999 0.26415 0.40010
 C2708 C 0.90825 0.28354 0.40812
 H2709 H 0.85130 0.25326 0.39446
 H2710 H 0.83349 0.21486 0.37677
 H2711 H 0.90813 0.18523 0.36646
 H2712 H 0.92574 0.22400 0.38376
 C2713 C 0.38943 0.74133 0.39006
 C2714 C 0.40462 0.72492 0.37646
 C2715 C 0.39458 0.70293 0.36640
 C2716 C 0.36899 0.69681 0.36975
 C2717 C 0.35404 0.71370 0.38373
 C2718 C 0.36418 0.73564 0.39370
 C2719 C 0.39956 0.76426 0.39990
 C2720 C 0.40773 0.78367 0.40800
 H2721 H 0.42428 0.72908 0.37366
 H2722 H 0.40732 0.69046 0.35678
 H2723 H 0.33415 0.71083 0.38617
 H2724 H 0.35218 0.74838 0.40399
 C2725 C 0.38989 0.24113 0.89074
 C2726 C 0.40517 0.22457 0.87746
 C2727 C 0.39515 0.20260 0.86737
 C2728 C 0.36947 0.19667 0.87034
 C2729 C 0.35444 0.21365 0.88411
 C2730 C 0.36457 0.23558 0.89412
 C2731 C 0.40001 0.26411 0.90048
 C2732 C 0.40818 0.28357 0.90845
 H2733 H 0.42489 0.22861 0.87491
 H2734 H 0.40797 0.19002 0.85802
 H2735 H 0.33450 0.21089 0.88630
 H2736 H 0.35250 0.24843 0.90419
 C2737 C 1.11086 0.74105 1.10951
 C2738 C 1.09532 0.72425 1.12215
 C2739 C 1.10519 0.70221 1.13226
 C2740 C 1.13100 0.69645 1.12999
 C2741 C 1.14629 0.71365 1.11681
 C2742 C 1.13630 0.73565 1.10678
 C2743 C 1.10083 0.76409 1.09977
 C2744 C 1.09267 0.78358 1.09181
 H2745 H 1.07550 0.72815 1.12417
 H2746 H 1.09218 0.68944 1.14104
 H2747 H 1.16630 0.71098 1.11516
 H2748 H 1.14857 0.74868 1.09720
 C2749 C 1.11017 0.24071 0.60893
 C2750 C 1.13552 0.23511 0.60574
 C2751 C 1.14554 0.21309 0.61569
 C2752 C 1.13038 0.19607 0.62925
 C2753 C 1.10467 0.20204 0.63201
 C2754 C 1.09476 0.22410 0.62196
 C2755 C 1.10015 0.26378 0.59927
 C2756 C 1.09202 0.28329 0.59137
 H2757 H 1.14769 0.24800 0.59585
 H2758 H 1.16549 0.21030 0.61367
 H2759 H 1.09175 0.18943 0.64116
 H2760 H 1.07502 0.22816 0.62437
 C2761 C 0.61044 0.74124 0.60929
 C2762 C 0.63640 0.73827 0.61138
 C2763 C 0.64637 0.71619 0.62129
 C2764 C 0.63047 0.69676 0.62926
 C2765 C 0.60439 0.69986 0.62694
 C2766 C 0.59446 0.72197 0.61701
 C2767 C 0.60029 0.76423 0.59961
 C2768 C 0.59206 0.78370 0.59167
 H2769 H 0.64894 0.75311 0.60556
 H2770 H 0.66650 0.71452 0.62317
 H2771 H 0.59170 0.68513 0.63266
 H2772 H 0.57434 0.72407 0.61545
 C2773 C 0.61017 0.24076 1.10905
 C2774 C 0.63552 0.23518 1.10579
 C2775 C 0.64558 0.21314 1.11570
 C2776 C 0.63045 0.19610 1.12926
 C2777 C 0.60474 0.20204 1.13205
 C2778 C 0.59480 0.22410 1.12206
 C2779 C 0.60011 0.26384 1.09947
 C2780 C 0.59195 0.28337 1.09162
 H2781 H 0.64766 0.24809 1.09591
 H2782 H 0.66553 0.21036 1.11363
 H2783 H 0.59184 0.18940 1.14120
 H2784 H 0.57505 0.22815 1.12451
 C2785 C 1.25882 1.11084 0.88958
 C2786 C 1.27807 1.09504 0.88136
 C2787 C 1.30010 1.10518 0.87145
 C2788 C 1.30315 1.13128 0.86966
 C2789 C 1.28369 1.14697 0.87803
 C2790 C 1.26169 1.13680 0.88791
 C2791 C 1.23596 1.10051 0.89943
 C2792 C 1.21660 1.09220 0.90755
 H2793 H 1.27604 1.07491 0.88258
 H2794 H 1.31485 1.09264 0.86541
 H2795 H 1.28531 1.16711 0.87657
 H2796 H 1.24686 1.14919 0.89411
 C2797 C 1.25884 0.61048 0.39015
 C2798 C 1.26154 0.63645 0.38828
 C2799 C 1.28349 0.64668 0.37837
 C2800 C 1.30307 0.63104 0.37019
 C2801 C 1.30024 0.60495 0.37228
 C2802 C 1.27825 0.59474 0.38221
 C2803 C 1.23597 0.60008 0.39988
 C2804 C 1.21658 0.59175 0.40788
 H2805 H 1.24659 0.64879 0.39428
 H2806 H 1.28497 0.66682 0.37669
 H2807 H 1.31509 0.59245 0.36640
 H2808 H 1.27635 0.57461 0.38361
 C2809 C 0.75862 1.11039 0.38949
 C2810 C 0.76155 1.13634 0.38787
 C2811 C 0.78357 1.14648 0.37801
 C2812 C 0.80300 1.13076 0.36963
 C2813 C 0.79990 1.10466 0.37139
 C2814 C 0.77784 1.09456 0.38127
 C2815 C 0.73572 1.10011 0.39931
 C2816 C 0.71633 1.09186 0.40740
 H2817 H 0.74674 1.14876 0.39407
 H2818 H 0.78522 1.16662 0.37656
 H2819 H 0.81462 1.09209 0.36533
 H2820 H 0.77576 1.07443 0.38246
 C2821 C 0.75894 0.61017 0.88993
 C2822 C 0.77815 0.59434 0.88169
 C2823 C 0.80021 0.60443 0.87180
 C2824 C 0.80333 0.63052 0.87005
 C2825 C 0.78392 0.64625 0.87846
 C2826 C 0.76190 0.63613 0.88833
 C2827 C 0.73604 0.59990 0.89973
 C2828 C 0.71664 0.59165 0.90780
 H2829 H 0.77605 0.57421 0.88287
 H2830 H 0.81491 0.59185 0.86572
 H2831 H 0.78559 0.66639 0.87702
 H2832 H 0.74710 0.64856 0.89455
 C2833 C 1.25919 0.88970 1.11035
 C2834 C 1.26207 0.86374 1.11204
 C2835 C 1.28407 0.85355 1.12191
 C2836 C 1.30353 0.86923 1.13024
 C2837 C 1.30050 0.89533 1.12841
 C2838 C 1.27845 0.90548 1.11851
 C2839 C 1.23631 0.90003 1.10054
 C2840 C 1.21693 0.90833 1.09244
 H2841 H 1.24724 0.85135 1.10588
 H2842 H 1.28570 0.83341 1.12341
 H2843 H 1.31525 0.90787 1.13442
 H2844 H 1.27642 0.92562 1.11726
 C2845 C 1.25903 0.38939 0.61023
 C2846 C 1.26198 0.36344 0.61200
 C2847 C 1.28397 0.35335 0.62199
 C2848 C 1.30334 0.36911 0.63037
 C2849 C 1.30022 0.39520 0.62850
 C2850 C 1.27818 0.40525 0.61848
 C2851 C 1.23617 0.39961 0.60026
 C2852 C 1.21680 0.40784 0.59208
 H2853 H 1.24722 0.35099 0.60578
 H2854 H 1.28566 0.33322 0.62352
 H2855 H 1.31490 0.40779 0.63456
 H2856 H 1.27608 0.42538 0.61718
 C2857 C 0.75896 0.88988 0.60945
 C2858 C 0.77825 0.90572 0.61742
 C2859 C 0.80027 0.89563 0.62743
 C2860 C 0.80324 0.86955 0.62957
 C2861 C 0.78377 0.85381 0.62138
 C2862 C 0.76179 0.86393 0.61139
 C2863 C 0.73605 0.90016 0.59966
 C2864 C 0.71663 0.90843 0.59163
 H2865 H 0.77625 0.92584 0.61598
 H2866 H 0.81504 0.90820 0.63332
 H2867 H 0.78535 0.83369 0.62311
 H2868 H 0.74693 0.85151 0.60538
 C2869 C 0.75905 0.38918 1.11024
 C2870 C 0.76183 0.36323 1.11233
 C2871 C 0.78387 0.35311 1.12220
 C2872 C 0.80346 0.36885 1.13012
 C2873 C 0.80050 0.39492 1.12791
 C2874 C 0.77843 0.40501 1.11801
 C2875 C 0.73613 0.39947 1.10044
 C2876 C 0.71673 0.40776 1.09237
 H2877 H 0.74689 0.35081 1.10649
 H2878 H 0.78540 0.33299 1.12405
 H2879 H 0.81534 0.40748 1.13364
 H2880 H 0.77646 0.42513 1.11646
 C2881 C 0.74083 1.10972 1.11056
 C2882 C 0.72152 1.11725 1.09448
 C2883 C 0.69944 1.12739 1.10432
 C2884 C 0.69643 1.13013 1.13040
 C2885 C 0.71591 1.12237 1.14639
 C2886 C 0.73795 1.11225 1.13652
 C2887 C 0.76379 1.09979 1.10049
 C2888 C 0.78321 1.09168 1.09231
 H2889 H 0.72355 1.11535 1.07435
 H2890 H 0.68466 1.13291 1.09155
 H2891 H 0.71427 1.12454 1.16652
 H2892 H 0.75282 1.10658 1.14913
 C2893 C 0.74087 0.60968 0.61040
 C2894 C 0.72172 0.61762 0.59433
 C2895 C 0.69962 0.62767 0.60421
 C2896 C 0.69642 0.62987 0.63032
 C2897 C 0.71575 0.62171 0.64630
 C2898 C 0.73781 0.61169 0.63638
 C2899 C 0.76385 0.59985 0.60030
 C2900 C 0.78330 0.59180 0.59213
 H2901 H 0.72389 0.61613 0.57418
 H2902 H 0.68497 0.63354 0.59146
 H2903 H 0.71400 0.62350 0.66645
 H2904 H 0.75257 0.60570 0.64898
 C2905 C 0.24078 1.10984 0.61057
 C2906 C 0.22145 1.11731 0.59448
 C2907 C 0.19934 1.12737 0.60431
 C2908 C 0.19631 1.13009 0.63039
 C2909 C 0.21579 1.12239 0.64640
 C2910 C 0.23787 1.11235 0.63653
 C2911 C 0.26377 1.10001 0.60052
 C2912 C 0.28324 1.09197 0.59236
 H2913 H 0.22350 1.11542 0.57435
 H2914 H 0.18455 1.13285 0.59155
 H2915 H 0.21414 1.12456 0.66652
 H2916 H 0.25276 1.10673 0.64915
 C2917 C 0.24113 0.61026 1.11102
 C2918 C 0.23842 0.61303 1.13697
 C2919 C 0.21639 0.62310 1.14691
 C2920 C 0.19674 0.63054 1.13098
 C2921 C 0.19959 0.62760 1.10490
 C2922 C 0.22166 0.61752 1.09500
 C2923 C 0.26406 0.60033 1.10089
 C2924 C 0.28347 0.59219 1.09267
 H2925 H 0.25342 0.60758 1.14953
 H2926 H 0.21488 0.62546 1.16702
 H2927 H 0.18468 0.63293 1.09221
 H2928 H 0.22356 0.61544 1.07488
 C2929 C 0.74134 0.88985 0.88951
 C2930 C 0.72215 0.88192 0.90553
 C2931 C 0.70007 0.87191 0.89561
 C2932 C 0.69692 0.86972 0.86949
 C2933 C 0.71628 0.87787 0.85355
 C2934 C 0.73833 0.88785 0.86351
 C2935 C 0.76429 0.89967 0.89964
 C2936 C 0.78372 0.90773 0.90784
 H2937 H 0.72428 0.88341 0.92569
 H2938 H 0.68539 0.86607 0.90833
 H2939 H 0.71458 0.87609 0.83339
 H2940 H 0.75311 0.89382 0.85094
 C2941 C 0.74151 0.38912 0.38987
 C2942 C 0.73904 0.36316 0.38753
 C2943 C 0.71714 0.35290 0.37753
 C2944 C 0.69740 0.36850 0.36970
 C2945 C 0.69997 0.39458 0.37229
 C2946 C 0.72191 0.40480 0.38231
 C2947 C 0.76433 0.39957 0.39967
 C2948 C 0.78366 0.40798 0.40773
 H2949 H 0.75413 0.35085 0.39325
 H2950 H 0.71582 0.33278 0.37550
 H2951 H 0.68497 0.40704 0.36673
 H2952 H 0.72361 0.42492 0.38409
 C2953 C 0.24078 0.89025 0.38966
 C2954 C 0.22147 0.88255 0.40564
 C2955 C 0.19942 0.87251 0.39568
 C2956 C 0.19644 0.87006 0.36957
 C2957 C 0.21595 0.87792 0.35367
 C2958 C 0.23796 0.88794 0.36367
 C2959 C 0.26368 0.90015 0.39983
 C2960 C 0.28308 0.90828 0.40805
 H2961 H 0.22346 0.88426 0.42579
 H2962 H 0.18463 0.86683 0.40835
 H2963 H 0.21438 0.87590 0.33353
 H2964 H 0.25285 0.89372 0.35114
 C2965 C 0.24127 0.38933 0.88959
 C2966 C 0.23849 0.36337 0.88770
 C2967 C 0.21654 0.35321 0.87774
 C2968 C 0.19702 0.36890 0.86949
 C2969 C 0.19997 0.39499 0.87151
 C2970 C 0.22196 0.40512 0.88150
 C2971 C 0.26410 0.39966 0.89951
 C2972 C 0.28344 0.40798 0.90768
 H2973 H 0.25336 0.35098 0.89380
 H2974 H 0.21499 0.33307 0.87609
 H2975 H 0.18518 0.40753 0.86556
 H2976 H 0.22392 0.42525 0.88289
   
