data_POSCAR
  _audit_creation_date              2014-09-24
  _audit_creation_method            'ToBaCCo'
  _symmetry_space_group_name_H-M    'P1'
  _symmetry_Int_Tables_number       1
  _symmetry_cell_setting            triclinic
  loop_
  _symmetry_equiv_pos_as_xyz
 x,y,z
_cell_length_a 41.9682
_cell_length_b 40.3756
_cell_length_c 46.2180
_cell_angle_alpha 89.693900
_cell_angle_beta 89.780500
_cell_angle_gamma 89.973500
loop_
  _atom_site_label
  _atom_site_type_symbol
  _atom_site_fract_x
  _atom_site_fract_y
  _atom_site_fract_z
Zr1 Zr 0.24454 0.25253 0.30159
 O2 O 0.26330 0.28344 0.33423
 O3 O 0.21605 0.22005 0.32539
 O4 O 0.20844 0.28051 0.32194
 O5 O 0.31286 0.20396 0.29814
 O6 O 0.17889 0.29991 0.28405
 O7 O 0.27597 0.22601 0.32898
 O8 O 0.19460 0.18662 0.29101
 O9 O 0.20502 0.24507 0.27474
 O10 O 0.25278 0.20839 0.27934
 O11 O 0.24186 0.29465 0.27478
 O12 O 0.28852 0.25942 0.28029
 Zr13 Zr 0.25424 0.24907 0.20120
 Zr14 Zr 0.20381 0.28571 0.24655
 Zr15 Zr 0.29499 0.21582 0.25646
 Zr16 Zr 0.21457 0.20211 0.25145
 O17 O 0.34397 0.22794 0.25843
 O18 O 0.16435 0.20229 0.24659
 O19 O 0.25716 0.20654 0.22784
 O20 O 0.21070 0.24224 0.22287
 O21 O 0.24589 0.29339 0.22320
 O22 O 0.29346 0.25641 0.22839
 C23 C 0.19793 0.19629 0.31729
 C24 C 0.30133 0.20890 0.32369
 C25 C 0.18463 0.29649 0.31125
 O26 O 0.15517 0.27358 0.24108
 O27 O 0.18876 0.30183 0.20522
 O28 O 0.22420 0.27786 0.17408
 C29 C 0.20018 0.29681 0.17970
 O30 O 0.29938 0.32246 0.29013
 Zr31 Zr 0.28419 0.29946 0.25130
 O32 O 0.28127 0.28266 0.17711
 O33 O 0.20008 0.33797 0.24683
 O34 O 0.26965 0.34974 0.24934
 O35 O 0.33469 0.30119 0.25193
 O36 O 0.29903 0.31880 0.21120
 C37 C 0.29613 0.30887 0.18496
 O38 O 0.23433 0.21925 0.16834
 O39 O 0.29846 0.16365 0.25974
 O40 O 0.28897 0.21906 0.18095
 O41 O 0.31681 0.19710 0.21892
 O42 O 0.22643 0.15145 0.25724
 O43 O 0.20507 0.17517 0.21307
 C44 C 0.31138 0.20098 0.19170
 H45 H 0.25459 0.18880 0.29220
 H46 H 0.19317 0.23846 0.20900
 H47 H 0.31381 0.25850 0.21765
 H48 H 0.23841 0.31499 0.28624
 H49 H 0.15652 0.18001 0.25224
 H50 H 0.14327 0.29478 0.24063
 H51 H 0.17717 0.34332 0.24466
 H52 H 0.28881 0.36321 0.24489
 H53 H 0.20628 0.13925 0.26077
 H54 H 0.32139 0.15837 0.26193
 H55 H 0.35578 0.20669 0.25931
 H56 H 0.34113 0.32406 0.24667
 H57 H 0.18802 0.15877 0.21690
 H58 H 0.24267 0.22770 0.14959
 H59 H 0.25500 0.27514 0.35304
 H60 H 0.31203 0.34247 0.28538
 Zr61 Zr 0.75223 0.74952 0.29937
 O62 O 0.73379 0.71873 0.33266
 O63 O 0.77903 0.78379 0.32255
 O64 O 0.78882 0.72348 0.32079
 O65 O 0.68285 0.79622 0.29406
 O66 O 0.81952 0.70361 0.28379
 O67 O 0.71958 0.77564 0.32575
 O68 O 0.80069 0.81695 0.28759
 O69 O 0.79211 0.75730 0.27272
 O70 O 0.74328 0.79282 0.27583
 O71 O 0.75646 0.70676 0.27382
 O72 O 0.70884 0.74078 0.27792
 Zr73 Zr 0.74426 0.74979 0.19904
 Zr74 Zr 0.79486 0.71596 0.24567
 Zr75 Zr 0.70167 0.78362 0.25284
 Zr76 Zr 0.78195 0.79942 0.24822
 O77 O 0.65299 0.77019 0.25491
 O78 O 0.83226 0.80011 0.24390
 O79 O 0.73992 0.79301 0.22435
 O80 O 0.78721 0.75864 0.22080
 O81 O 0.75337 0.70626 0.22222
 O82 O 0.70472 0.74228 0.22607
 C83 C 0.79668 0.80800 0.31415
 C84 C 0.69403 0.79211 0.31982
 C85 C 0.81324 0.70789 0.31081
 O86 O 0.84331 0.72920 0.24028
 O87 O 0.81151 0.69976 0.20480
 O88 O 0.77535 0.72117 0.17301
 C89 C 0.80017 0.70362 0.17912
 O90 O 0.69994 0.67719 0.28956
 Zr91 Zr 0.71464 0.70001 0.25016
 O92 O 0.71789 0.71507 0.17578
 O93 O 0.79988 0.66385 0.24746
 O94 O 0.73077 0.65026 0.24901
 O95 O 0.66420 0.69700 0.25139
 O96 O 0.69957 0.67964 0.21062
 C97 C 0.70268 0.68907 0.18411
 O98 O 0.76403 0.77900 0.16528
 O99 O 0.69686 0.83574 0.25440
 O100 O 0.70950 0.77846 0.17772
 O101 O 0.68004 0.80079 0.21454
 O102 O 0.76880 0.84992 0.25217
 O103 O 0.79149 0.82551 0.20909
 C104 C 0.68650 0.79627 0.18759
 H105 H 0.74070 0.81268 0.28808
 H106 H 0.80486 0.76258 0.20692
 H107 H 0.68457 0.73947 0.21530
 H108 H 0.76028 0.68686 0.28593
 H109 H 0.83955 0.82271 0.24890
 H110 H 0.85575 0.70833 0.24067
 H111 H 0.82294 0.65910 0.24539
 H112 H 0.71206 0.63610 0.24491
 H113 H 0.78861 0.86276 0.25525
 H114 H 0.67379 0.84047 0.25647
 H115 H 0.64064 0.79111 0.25496
 H116 H 0.65826 0.67382 0.24694
 H117 H 0.80850 0.84203 0.21242
 H118 H 0.75613 0.76984 0.14676
 H119 H 0.74146 0.72772 0.35132
 H120 H 0.68835 0.65644 0.28528
 Zr121 Zr 0.74879 0.24326 -0.30010
 O122 O 0.72079 0.26496 -0.33318
 O123 O 0.77854 0.21188 -0.32377
 O124 O 0.77746 0.27199 -0.32852
 O125 O 0.69464 0.18300 -0.27955
 O126 O 0.80292 0.30851 -0.29894
 O127 O 0.71689 0.20891 -0.31878
 O128 O 0.81277 0.19173 -0.28980
 O129 O 0.79250 0.24945 -0.27914
 O130 O 0.75375 0.20288 -0.27185
 O131 O 0.74585 0.28946 -0.27952
 O132 O 0.70844 0.24430 -0.27269
 Zr133 Zr 0.75532 0.25611 -0.19998
 Zr134 Zr 0.78866 0.29423 -0.25681
 Zr135 Zr 0.71541 0.20522 -0.24314
 Zr136 Zr 0.79629 0.21005 -0.24996
 O137 O 0.66522 0.20574 -0.23862
 O138 O 0.84548 0.22146 -0.25342
 O139 O 0.75827 0.20949 -0.22021
 O140 O 0.79522 0.25488 -0.22764
 O141 O 0.75030 0.29688 -0.22790
 O142 O 0.71186 0.25004 -0.22128
 C143 C 0.80284 0.19471 -0.31599
 C144 C 0.69805 0.18744 -0.30701
 C145 C 0.79663 0.29642 -0.32401
 O146 O 0.83903 0.29402 -0.25846
 O147 O 0.80590 0.31953 -0.22033
 O148 O 0.78549 0.29190 -0.18119
 C149 C 0.80277 0.31476 -0.19287
 O150 O 0.68186 0.30039 -0.28844
 Zr151 Zr 0.70782 0.28935 -0.25019
 O152 O 0.72651 0.28870 -0.17659
 O153 O 0.78039 0.34551 -0.26273
 O154 O 0.71154 0.34127 -0.25653
 O155 O 0.65853 0.28057 -0.24342
 O156 O 0.69486 0.31210 -0.21105
 C157 C 0.70439 0.30861 -0.18479
 O158 O 0.78442 0.23539 -0.16721
 O159 O 0.72326 0.15355 -0.24002
 O160 O 0.72855 0.22581 -0.17130
 O161 O 0.70441 0.18837 -0.20090
 O162 O 0.79422 0.15763 -0.24742
 O163 O 0.81831 0.19378 -0.21106
 C164 C 0.71061 0.20037 -0.17575
 H165 H 0.75395 0.18132 -0.28195
 H166 H 0.81531 0.25725 -0.21668
 H167 H 0.69328 0.24982 -0.20803
 H168 H 0.74300 0.30758 -0.29380
 H169 H 0.85696 0.20050 -0.25738
 H170 H 0.84579 0.31731 -0.26143
 H171 H 0.80156 0.35626 -0.26420
 H172 H 0.69085 0.35116 -0.25083
 H173 H 0.81553 0.14904 -0.25287
 H174 H 0.70202 0.14300 -0.23826
 H175 H 0.65851 0.18248 -0.23539
 H176 H 0.64817 0.30236 -0.24041
 H177 H 0.83662 0.17928 -0.21576
 H178 H 0.77743 0.24507 -0.14854
 H179 H 0.72785 0.25513 -0.35176
 H180 H 0.66727 0.31920 -0.28477
 Zr181 Zr 0.24597 0.74489 -0.30099
 O182 O 0.26481 0.71280 -0.33288
 O183 O 0.21623 0.77557 -0.32562
 O184 O 0.21059 0.71421 -0.31951
 O185 O 0.31396 0.79334 -0.29968
 O186 O 0.18299 0.69514 -0.28015
 O187 O 0.27775 0.76967 -0.32967
 O188 O 0.19442 0.81003 -0.29223
 O189 O 0.20658 0.75282 -0.27383
 O190 O 0.25340 0.79046 -0.28077
 O191 O 0.24492 0.70436 -0.27217
 O192 O 0.29012 0.74041 -0.27963
 Zr193 Zr 0.25677 0.75412 -0.20051
 Zr194 Zr 0.20694 0.71388 -0.24383
 Zr195 Zr 0.29568 0.78539 -0.25770
 Zr196 Zr 0.21536 0.79729 -0.25252
 O197 O 0.34517 0.77532 -0.25884
 O198 O 0.16521 0.79618 -0.24674
 O199 O 0.25799 0.79521 -0.22901
 O200 O 0.21304 0.75880 -0.22218
 O201 O 0.24925 0.70836 -0.22047
 O202 O 0.29581 0.74644 -0.22800
 C203 C 0.19739 0.79928 -0.31828
 C204 C 0.30346 0.78657 -0.32518
 C205 C 0.18796 0.69723 -0.30763
 O206 O 0.15781 0.72486 -0.23991
 O207 O 0.19086 0.70236 -0.20170
 O208 O 0.22711 0.72646 -0.17202
 C209 C 0.20199 0.70860 -0.17632
 O210 O 0.30253 0.67663 -0.28684
 Zr211 Zr 0.28743 0.70192 -0.24897
 O212 O 0.28579 0.72290 -0.17569
 O213 O 0.20491 0.66170 -0.23994
 O214 O 0.27410 0.65155 -0.24393
 O215 O 0.33791 0.70196 -0.25136
 O216 O 0.30437 0.68573 -0.20863
 C217 C 0.30197 0.69713 -0.18280
 O218 O 0.23646 0.78476 -0.16828
 O219 O 0.29757 0.83722 -0.26446
 O220 O 0.29044 0.78689 -0.18206
 O221 O 0.31651 0.80799 -0.22150
 O222 O 0.22660 0.84770 -0.26070
 O223 O 0.20500 0.82624 -0.21538
 C224 C 0.31167 0.80567 -0.19401
 H225 H 0.25483 0.80916 -0.29465
 H226 H 0.19545 0.76316 -0.20839
 H227 H 0.31639 0.74587 -0.21760
 H228 H 0.24199 0.68319 -0.28254
 H229 H 0.15673 0.81788 -0.25322
 H230 H 0.14651 0.70342 -0.23784
 H231 H 0.18217 0.65584 -0.23724
 H232 H 0.29363 0.63883 -0.23925
 H233 H 0.20633 0.85939 -0.26481
 H234 H 0.32032 0.84299 -0.26735
 H235 H 0.35616 0.79690 -0.26108
 H236 H 0.34537 0.67976 -0.24511
 H237 H 0.18824 0.84265 -0.22011
 H238 H 0.24538 0.77751 -0.14942
 H239 H 0.25614 0.72007 -0.35182
 H240 H 0.31550 0.65713 -0.28131
 Zr241 Zr 1.25341 1.24805 0.79969
 O242 O 1.23646 1.21620 0.83289
 O243 O 1.28021 1.28236 0.82295
 O244 O 1.29081 1.22190 0.81978
 O245 O 1.18315 1.29342 0.79659
 O246 O 1.32061 1.20320 0.78175
 O247 O 1.22088 1.27276 0.82722
 O248 O 1.30009 1.31697 0.78819
 O249 O 1.29246 1.25728 0.77238
 O250 O 1.24308 1.29172 0.77719
 O251 O 1.25755 1.20606 0.77317
 O252 O 1.20964 1.23896 0.77897
 Zr253 Zr 1.24262 1.25080 0.69943
 Zr254 Zr 1.29504 1.21673 0.74444
 Zr255 Zr 1.20110 1.28223 0.75489
 Zr256 Zr 1.28088 1.29979 0.74889
 O257 O 1.15274 1.26779 0.75787
 O258 O 1.33107 1.30166 0.74373
 O259 O 1.23834 1.29321 0.72576
 O260 O 1.28598 1.25985 0.72053
 O261 O 1.25315 1.20690 0.72161
 O262 O 1.20398 1.24174 0.72717
 C263 C 1.29696 1.30733 0.81466
 C264 C 1.19492 1.28886 0.82204
 C265 C 1.31496 1.20657 0.80898
 O266 O 1.34307 1.23127 0.73858
 O267 O 1.31097 1.20203 0.70300
 O268 O 1.27357 1.22330 0.67233
 C269 C 1.29888 1.20613 0.67764
 O270 O 1.20188 1.17483 0.78933
 Zr271 Zr 1.21529 1.19909 0.75021
 O272 O 1.21625 1.21614 0.67607
 O273 O 1.30113 1.16471 0.74471
 O274 O 1.23240 1.14974 0.74775
 O275 O 1.16495 1.19515 0.75240
 O276 O 1.19977 1.17933 0.71057
 C277 C 1.20198 1.18948 0.68418
 O278 O 1.26103 1.28110 0.66579
 O279 O 1.19534 1.33420 0.75759
 O280 O 1.20682 1.27969 0.67949
 O281 O 1.17813 1.30001 0.71762
 O282 O 1.26650 1.34981 0.75385
 O283 O 1.28947 1.32693 0.71012
 C284 C 1.18377 1.29671 0.69039
 H285 H 1.24043 1.31121 0.78986
 H286 H 1.30322 1.26446 0.70639
 H287 H 1.18360 1.23885 0.71678
 H288 H 1.26198 1.18590 0.78475
 H289 H 1.33804 1.32426 0.74906
 H290 H 1.35596 1.21070 0.73825
 H291 H 1.32421 1.16050 0.74200
 H292 H 1.21389 1.13525 0.74375
 H293 H 1.28598 1.36311 0.75712
 H294 H 1.17224 1.33839 0.76018
 H295 H 1.14001 1.28844 0.75862
 H296 H 1.15926 1.17205 0.74745
 H297 H 1.30575 1.34415 0.71372
 H298 H 1.25273 1.27224 0.64730
 H299 H 1.24445 1.22495 0.85153
 H300 H 1.19052 1.15401 0.78479
 Zr301 Zr 0.74370 0.75252 0.80113
 O302 O 0.76162 0.78389 0.83384
 O303 O 0.71643 0.71876 0.82484
 O304 O 0.70703 0.77952 0.82154
 O305 O 0.81325 0.70601 0.79775
 O306 O 0.67714 0.79856 0.78372
 O307 O 0.77564 0.72681 0.82853
 O308 O 0.69646 0.68443 0.79039
 O309 O 0.70439 0.74382 0.77430
 O310 O 0.75337 0.70880 0.77874
 O311 O 0.73980 0.79460 0.77438
 O312 O 0.78750 0.76101 0.77994
 Zr313 Zr 0.75376 0.74972 0.70085
 Zr314 Zr 0.70202 0.78448 0.74615
 Zr315 Zr 0.79540 0.71772 0.75604
 Zr316 Zr 0.71540 0.70131 0.75086
 O317 O 0.84392 0.73162 0.75831
 O318 O 0.66516 0.70007 0.74633
 O319 O 0.75792 0.70724 0.72737
 O320 O 0.71039 0.74133 0.72241
 O321 O 0.74390 0.79370 0.72285
 O322 O 0.79270 0.75831 0.72804
 C323 C 0.69962 0.69398 0.81672
 C324 C 0.80138 0.71036 0.82325
 C325 C 0.68308 0.79531 0.81091
 O326 O 0.65370 0.77072 0.74137
 O327 O 0.68589 0.79922 0.70473
 O328 O 0.72278 0.77732 0.67383
 C329 C 0.69769 0.79477 0.67926
 O330 O 0.79632 0.82438 0.78991
 Zr331 Zr 0.78198 0.80097 0.75099
 O332 O 0.77981 0.78427 0.67686
 O333 O 0.69681 0.83660 0.74577
 O334 O 0.76586 0.85072 0.74908
 O335 O 0.83240 0.80446 0.75173
 O336 O 0.79634 0.82096 0.71097
 C337 C 0.79383 0.81097 0.68471
 O338 O 0.73495 0.71941 0.66780
 O339 O 0.80065 0.66569 0.75910
 O340 O 0.78926 0.72076 0.68060
 O341 O 0.81783 0.69979 0.71853
 O342 O 0.72873 0.65096 0.75606
 O343 O 0.70662 0.67442 0.71230
 C344 C 0.81215 0.70336 0.69133
 H345 H 0.75581 0.68917 0.79145
 H346 H 0.69300 0.73691 0.70852
 H347 H 0.81299 0.76109 0.71731
 H348 H 0.73577 0.81483 0.78584
 H349 H 0.65799 0.67753 0.75189
 H350 H 0.64117 0.79153 0.74081
 H351 H 0.67375 0.84119 0.74358
 H352 H 0.78458 0.86487 0.74473
 H353 H 0.70894 0.63804 0.75929
 H354 H 0.82374 0.66123 0.76134
 H355 H 0.85641 0.71080 0.75914
 H356 H 0.83810 0.82756 0.74654
 H357 H 0.68964 0.65787 0.71591
 H358 H 0.74304 0.72824 0.64909
 H359 H 0.75361 0.77529 0.85266
 H360 H 0.80828 0.84486 0.78522
 Zr361 Zr 1.24991 0.74381 0.19952
 O362 O 1.22219 0.76569 0.16633
 O363 O 1.28099 0.71394 0.17575
 O364 O 1.27866 0.77350 0.17208
 O365 O 1.19680 0.68181 0.21796
 O366 O 1.30281 0.80996 0.20260
 O367 O 1.21914 0.70940 0.17964
 O368 O 1.31524 0.69433 0.20994
 O369 O 1.29296 0.75062 0.22135
 O370 O 1.25526 0.70285 0.22707
 O371 O 1.24541 0.78948 0.22069
 O372 O 1.20899 0.74316 0.22621
 Zr373 Zr 1.25401 0.75452 0.29976
 Zr374 Zr 1.28760 0.79481 0.24423
 Zr375 Zr 1.21627 0.70353 0.25518
 Zr376 Zr 1.29712 0.71065 0.24986
 O377 O 1.16600 0.70232 0.25875
 O378 O 1.34615 0.72319 0.24792
 O379 O 1.25852 0.70839 0.27894
 O380 O 1.29451 0.75499 0.27285
 O381 O 1.24858 0.79584 0.27252
 O382 O 1.21120 0.74781 0.27758
 C383 C 1.30584 0.69770 0.18363
 C384 C 1.20055 0.68724 0.19066
 C385 C 1.29740 0.79806 0.17727
 O386 O 1.33799 0.79589 0.24379
 O387 O 1.30310 0.81991 0.28140
 O388 O 1.28268 0.79077 0.31969
 C389 C 1.29951 0.81440 0.30869
 O390 O 1.18155 0.79932 0.21084
 Zr391 Zr 1.20679 0.78773 0.24937
 O392 O 1.22366 0.78533 0.32330
 O393 O 1.27841 0.84596 0.23859
 O394 O 1.20974 0.83988 0.24451
 O395 O 1.15750 0.77769 0.25463
 O396 O 1.19194 0.80858 0.28882
 C397 C 1.20091 0.80447 0.31519
 O398 O 1.28300 0.73388 0.33265
 O399 O 1.22562 0.65210 0.25769
 O400 O 1.22738 0.72311 0.32747
 O401 O 1.20438 0.68577 0.29704
 O402 O 1.29624 0.65814 0.25105
 O403 O 1.31852 0.69394 0.28891
 C404 C 1.20980 0.69757 0.32243
 H405 H 1.25623 0.68160 0.21652
 H406 H 1.31426 0.75765 0.28424
 H407 H 1.19229 0.74677 0.29041
 H408 H 1.24249 0.80781 0.20664
 H409 H 1.35817 0.70261 0.24378
 H410 H 1.34427 0.81941 0.24141
 H411 H 1.29938 0.85720 0.23784
 H412 H 1.18877 0.84919 0.25011
 H413 H 1.31784 0.65028 0.24571
 H414 H 1.20465 0.64086 0.25865
 H415 H 1.15990 0.67876 0.26118
 H416 H 1.14658 0.79915 0.25780
 H417 H 1.33691 0.67949 0.28433
 H418 H 1.27537 0.74291 0.35137
 H419 H 1.22989 0.75655 0.14768
 H420 H 1.16696 0.81813 0.21449
 Zr421 Zr 0.74860 1.24959 0.20003
 O422 O 0.77266 1.22328 0.16698
 O423 O 0.71675 1.27875 0.17649
 O424 O 0.71689 1.21850 0.17736
 O425 O 0.80939 1.30695 0.20772
 O426 O 0.68943 1.19204 0.21346
 O427 O 0.77746 1.28129 0.17476
 O428 O 0.68866 1.30597 0.21131
 O429 O 0.70751 1.24921 0.22582
 O430 O 0.74942 1.29333 0.22411
 O431 O 0.75137 1.20595 0.22483
 O432 O 0.79210 1.24870 0.22272
 Zr433 Zr 0.75367 1.24887 0.30060
 Zr434 Zr 0.71142 1.20715 0.25209
 Zr435 Zr 0.79115 1.29150 0.24842
 Zr436 Zr 0.70956 1.29191 0.25087
 O437 O 0.84147 1.28807 0.24818
 O438 O 0.65977 1.28373 0.25439
 O439 O 0.75118 1.29300 0.27599
 O440 O 0.71067 1.24991 0.27755
 O441 O 0.75303 1.20492 0.27677
 O442 O 0.79454 1.24937 0.27447
 C443 C 0.69457 1.29848 0.18479
 C444 C 0.80022 1.30113 0.18162
 C445 C 0.69500 1.19873 0.18665
 O446 O 0.66144 1.21066 0.25755
 O447 O 0.69867 1.18591 0.29217
 O448 O 0.72546 1.21616 0.32588
 C449 C 0.70619 1.19289 0.31840
 O450 O 0.81283 1.18854 0.21054
 Zr451 Zr 0.79287 1.20666 0.24972
 O452 O 0.78417 1.21815 0.32419
 O453 O 0.71545 1.15508 0.24865
 O454 O 0.78550 1.15470 0.24984
 O455 O 0.84304 1.21287 0.25002
 O456 O 0.80976 1.18820 0.28948
 C457 C 0.80405 1.19585 0.31599
 O458 O 0.72906 1.27454 0.33370
 O459 O 0.78650 1.34365 0.24664
 O460 O 0.78415 1.28109 0.32316
 O461 O 0.80839 1.31166 0.28755
 O462 O 0.71423 1.34405 0.24708
 O463 O 0.69449 1.31468 0.28995
 C464 C 0.80350 1.30373 0.31427
 H465 H 0.74892 1.31354 0.21189
 H466 H 0.69216 1.25010 0.29090
 H467 H 0.81459 1.24986 0.28567
 H468 H 0.75131 1.18611 0.21232
 H469 H 0.64898 1.30483 0.24943
 H470 H 0.65298 1.18777 0.25681
 H471 H 0.69361 1.14599 0.25052
 H472 H 0.80620 1.14409 0.25436
 H473 H 0.69271 1.35319 0.24334
 H474 H 0.80839 1.35271 0.24525
 H475 H 0.84974 1.31105 0.24803
 H476 H 0.85264 1.19099 0.25441
 H477 H 0.67599 1.32922 0.28602
 H478 H 0.73763 1.26657 0.35247
 H479 H 0.76398 1.23112 0.14821
 H480 H 0.82715 1.16968 0.21486
 O481 O 0.45428 0.94354 -0.05124
 O482 O 0.41875 0.97614 -0.02649
 C483 C 0.42556 0.95298 -0.04512
 O484 O 0.54039 0.94310 0.05340
 O485 O 0.57805 0.97111 0.02668
 C486 C 0.56971 0.95002 0.04665
 O487 O 0.45194 0.94295 0.04963
 O488 O 0.41789 0.97682 0.02422
 C489 C 0.42364 0.95325 0.04285
 O490 O 0.54179 0.94289 -0.05250
 O491 O 0.57883 0.96954 -0.02472
 C492 C 0.57091 0.94887 -0.04501
 Zr493 Zr 0.49835 0.96029 -0.03609
 O494 O 0.49719 0.90818 -0.03143
 O495 O 0.49672 0.95775 -0.08177
 Zr496 Zr 0.49702 0.96036 0.03598
 O497 O 0.49642 0.90819 0.03224
 O498 O 0.49292 0.95838 0.08162
 O499 O 0.46853 0.95526 -0.00040
 O500 O 0.52573 0.95308 0.00032
 O501 O 0.54725 1.05854 -0.05277
 O502 O 0.58113 1.02573 -0.02617
 C503 C 0.57546 1.04795 -0.04598
 O504 O 0.45718 1.06434 0.04882
 O505 O 0.42008 1.03482 0.02338
 C506 C 0.42802 1.05738 0.04201
 O507 O 0.54509 1.05794 0.05213
 O508 O 0.58057 1.02657 0.02617
 C509 C 0.57384 1.04881 0.04561
 O510 O 0.45913 1.06523 -0.05026
 O511 O 0.42105 1.03561 -0.02550
 C512 C 0.42972 1.05848 -0.04385
 Zr513 Zr 0.50213 1.04325 -0.03712
 O514 O 0.50469 1.09534 -0.04171
 O515 O 0.50170 1.03760 -0.08254
 Zr516 Zr 0.50069 1.04358 0.03547
 O517 O 0.50574 1.09576 0.03495
 O518 O 0.49655 1.04385 0.08116
 Zr519 Zr 0.45129 1.00426 -0.00098
 Zr520 Zr 0.54772 0.99991 0.00016
 O521 O 0.52963 1.04841 -0.00050
 O522 O 0.47317 1.05137 -0.00117
 O523 O 0.52893 1.00040 -0.04205
 O524 O 0.47096 1.00331 0.04085
 O525 O 0.47226 1.00318 -0.04237
 O526 O 0.52726 1.00073 0.04193
 H527 H 0.53929 0.93297 0.00064
 H528 H 0.45665 1.00392 0.05795
 H529 H 0.54485 1.06715 -0.00045
 H530 H 0.45831 1.00395 -0.05961
 H531 H 0.50877 0.97397 0.08953
 H532 H 0.51409 1.03025 0.08911
 H533 H 0.48898 1.10486 0.02215
 H534 H 0.51201 1.10430 -0.02304
 H535 H 0.50139 1.06030 -0.09078
 H536 H 0.51042 0.97577 -0.08935
 H537 H 0.49810 0.89909 -0.05129
 H538 H 0.49664 0.89932 0.05227
 O539 O 1.04396 0.55547 0.55398
 O540 O 1.07932 0.52577 0.52644
 C541 C 1.07265 0.54673 0.54700
 O542 O 0.95014 0.44115 0.54754
 O543 O 0.91645 0.47682 0.52374
 C544 C 0.92194 0.45224 0.54142
 O545 O 1.03843 0.44075 0.55193
 O546 O 1.07651 0.46893 0.52591
 C547 C 1.06787 0.44736 0.54540
 O548 O 0.95665 0.56388 0.54978
 O549 O 0.91926 0.53502 0.52413
 C550 C 0.92742 0.55736 0.54290
 Zr551 Zr 0.99980 0.54267 0.53622
 O552 O 0.99627 0.54334 0.58192
 O553 O 1.00417 0.59477 0.53381
 Zr554 Zr 0.99533 0.45994 0.53574
 O555 O 0.99317 0.46467 0.58122
 O556 O 0.99424 0.40775 0.53970
 O557 O 1.02617 0.49948 0.54199
 O558 O 0.96941 0.50280 0.54106
 O559 O 0.95847 0.56646 0.45047
 O560 O 0.92027 0.53682 0.47507
 C561 C 0.92903 0.55992 0.45700
 O562 O 1.04003 0.44260 0.44723
 O563 O 1.07727 0.46889 0.47507
 C564 C 1.06921 0.44832 0.45479
 O565 O 0.95181 0.44494 0.44841
 O566 O 0.91703 0.47810 0.47344
 C567 C 0.92329 0.45482 0.45488
 O568 O 1.04665 0.55842 0.44791
 O569 O 1.08014 0.52465 0.47399
 C570 C 1.07471 0.54720 0.45440
 Zr571 Zr 1.00133 0.54416 0.46385
 O572 O 0.99848 0.54456 0.41811
 O573 O 1.00712 0.59623 0.46437
 Zr574 Zr 0.99658 0.46111 0.46306
 O575 O 0.99398 0.46271 0.41732
 O576 O 0.99696 0.40867 0.46229
 Zr577 Zr 1.04645 0.49903 0.50017
 Zr578 Zr 0.95010 0.50469 0.49916
 O579 O 0.97113 0.50445 0.45773
 O580 O 1.02762 0.50095 0.45793
 O581 O 0.97226 0.55155 0.49983
 O582 O 1.02347 0.45266 0.49964
 O583 O 1.02901 0.54785 0.50045
 O584 O 0.96709 0.45549 0.49899
 H585 H 0.95485 0.50324 0.55799
 H586 H 1.03650 0.43220 0.49963
 H587 H 0.95714 0.50576 0.44054
 H588 H 1.04438 0.56646 0.50072
 H589 H 0.99595 0.39875 0.51994
 H590 H 0.97846 0.40078 0.47375
 H591 H 1.01316 0.47435 0.41007
 H592 H 1.01617 0.53084 0.41060
 H593 H 0.99295 0.60494 0.47971
 H594 H 1.00403 0.60282 0.55403
 H595 H 1.00930 0.52473 0.58934
 H596 H 0.99162 0.44184 0.58906
 O597 O 1.06395 0.54430 0.04656
 O598 O 1.03425 0.58373 0.02298
 C599 C 1.05681 0.57483 0.04070
 O600 O 1.05302 0.45398 -0.05619
 O601 O 1.02314 0.41768 -0.02882
 C602 C 1.04352 0.42437 -0.04934
 O603 O 1.05844 0.54576 -0.05465
 O604 O 1.03132 0.58427 -0.02751
 C605 C 1.05131 0.57600 -0.04785
 O606 O 1.05899 0.45329 0.04884
 O607 O 1.02762 0.41723 0.02331
 C608 C 1.04992 0.42361 0.04214
 Zr609 Zr 1.04316 0.49969 0.03343
 O610 O 1.09335 0.49498 0.03127
 O611 O 1.04439 0.50206 0.07918
 Zr612 Zr 1.03989 0.50052 -0.03885
 O613 O 1.09014 0.49750 -0.03745
 O614 O 1.03941 0.50355 -0.08460
 O615 O 1.04893 0.52985 -0.00296
 O616 O 1.04616 0.47064 -0.00310
 O617 O 0.94605 0.45782 0.05390
 O618 O 0.97334 0.41953 0.02670
 C619 C 0.95348 0.42764 0.04719
 O620 O 0.94254 0.55094 -0.04883
 O621 O 0.97577 0.58668 -0.02493
 C622 C 0.95262 0.58047 -0.04279
 O623 O 0.94207 0.45938 -0.05154
 O624 O 0.96923 0.42005 -0.02546
 C625 C 0.94857 0.42888 -0.04505
 O626 O 0.94540 0.54936 0.05050
 O627 O 0.97753 0.58588 0.02567
 C628 C 0.95491 0.57911 0.04425
 Zr629 Zr 0.96355 0.50311 0.03720
 O630 O 0.91368 0.50395 0.04397
 O631 O 0.97165 0.50389 0.08229
 Zr632 Zr 0.95971 0.50414 -0.03521
 O633 O 0.90937 0.50296 -0.03189
 O634 O 0.95681 0.50824 -0.08082
 Zr635 Zr 1.00352 0.55214 -0.00091
 Zr636 Zr 0.99954 0.45163 -0.00108
 O637 O 0.95459 0.47466 0.00114
 O638 O 0.95650 0.53369 0.00130
 O639 O 1.00247 0.47143 0.04093
 O640 O 1.00064 0.53116 -0.04243
 O641 O 1.00470 0.53066 0.04070
 O642 O 0.99828 0.47276 -0.04294
 H643 H 1.06440 0.45510 -0.00410
 H644 H 1.00018 0.54568 -0.05977
 H645 H 0.93533 0.46051 0.00192
 H646 H 1.00592 0.54541 0.05772
 H647 H 1.02359 0.48733 -0.09157
 H648 H 0.97000 0.49037 -0.08919
 H649 H 0.90264 0.52231 -0.02031
 H650 H 0.90360 0.49926 0.02518
 H651 H 0.95037 0.50556 0.09151
 H652 H 1.03025 0.48442 0.08681
 H653 H 1.10102 0.51035 0.01603
 H654 H 1.09747 0.49711 -0.05786
 O655 O 0.44143 1.04991 0.45250
 O656 O 0.47507 1.08503 0.47670
 C657 C 0.45189 1.07926 0.45867
 O658 O 0.44429 0.95629 0.55630
 O659 O 0.46911 0.91757 0.52767
 C660 C 0.45086 0.92598 0.54926
 O661 O 0.44307 1.04820 0.55212
 O662 O 0.47606 1.08415 0.52757
 C663 C 0.45318 1.07776 0.54593
 O664 O 0.44020 0.95850 0.44909
 O665 O 0.46634 0.91872 0.47555
 C666 C 0.44605 0.92788 0.45577
 Zr667 Zr 0.45846 1.00289 0.46558
 O668 O 0.40803 1.00309 0.46537
 O669 O 0.46156 1.00479 0.41993
 Zr670 Zr 0.45946 1.00163 0.53776
 O671 O 0.40923 1.00186 0.53470
 O672 O 0.45747 1.00497 0.58339
 O673 O 0.45452 1.03259 0.50202
 O674 O 0.45162 0.97318 0.50170
 O675 O 0.55238 0.95166 0.44730
 O676 O 0.52078 0.91563 0.47327
 C677 C 0.54224 0.92213 0.45355
 O678 O 0.56020 1.04129 0.55080
 O679 O 0.53205 1.08110 0.52617
 C680 C 0.55380 1.07192 0.54456
 O681 O 0.55409 0.94991 0.55188
 O682 O 0.52183 0.91459 0.52639
 C683 C 0.54390 0.92055 0.54547
 O684 O 0.56012 1.04277 0.45117
 O685 O 0.53155 1.08173 0.47627
 C686 C 0.55378 1.07320 0.45803
 Zr687 Zr 0.53809 0.99805 0.46382
 O688 O 0.58803 0.99473 0.45824
 O689 O 0.53095 1.00001 0.41860
 Zr690 Zr 0.53965 0.99685 0.53645
 O691 O 0.58980 0.99133 0.53515
 O692 O 0.54006 0.99918 0.58223
 Zr693 Zr 0.50187 1.05004 0.50138
 Zr694 Zr 0.49640 0.94969 0.50070
 O695 O 0.54325 0.96802 0.49983
 O696 O 0.54689 1.02673 0.50027
 O697 O 0.49654 0.97069 0.45882
 O698 O 0.50120 1.02803 0.54278
 O699 O 0.49987 1.02987 0.45958
 O700 O 0.49818 0.96968 0.54274
 H701 H 0.43221 0.95922 0.50231
 H702 H 0.50208 1.04232 0.56012
 H703 H 0.56110 0.95198 0.49942
 H704 H 0.50052 1.04513 0.44272
 H705 H 0.47541 0.99173 0.59100
 H706 H 0.52805 0.97989 0.58978
 H707 H 0.59845 1.00919 0.52265
 H708 H 0.59698 0.98690 0.47679
 H709 H 0.55249 1.00043 0.40976
 H710 H 0.43937 1.00634 0.41280
 H711 H 0.40104 1.01738 0.48152
 H712 H 0.40108 1.00152 0.55485
 O713 O 1.05027 0.93211 0.45976
 O714 O 1.02454 0.96602 0.42744
 C715 C 1.04348 0.94165 0.43366
 O716 O 0.93645 0.94728 0.54045
 O717 O 0.96986 0.97233 0.57273
 C718 C 0.94523 0.95447 0.56652
 O719 O 0.94001 0.94237 0.46018
 O720 O 0.97111 0.97091 0.42776
 C721 C 0.94859 0.95010 0.43402
 O722 O 1.05435 0.93519 0.53995
 O723 O 1.02636 0.96657 0.57251
 C724 C 1.04713 0.94395 0.56611
 Zr725 Zr 1.03607 0.95111 0.50002
 O726 O 1.02546 0.89998 0.50132
 O727 O 1.08536 0.94060 0.49850
 Zr728 Zr 0.95713 0.95901 0.50030
 O729 O 0.95738 0.90670 0.50212
 O730 O 0.90684 0.95963 0.49778
 O731 O 0.99601 0.94872 0.47403
 O732 O 0.99607 0.94900 0.52599
 O733 O 1.06358 1.04781 0.53992
 O734 O 1.03090 1.02151 0.57248
 C735 C 1.05489 1.04043 0.56609
 O736 O 0.95090 1.06194 0.45984
 O737 O 0.97629 1.02809 0.42747
 C738 C 0.95767 1.05265 0.43373
 O739 O 0.94755 1.05883 0.54024
 O740 O 0.97513 1.02682 0.57264
 C741 C 0.95461 1.04969 0.56634
 O742 O 1.06025 1.05152 0.45966
 O743 O 1.02938 1.02317 0.42742
 C744 C 1.05148 1.04428 0.43362
 Zr745 Zr 1.04404 1.03416 0.49990
 O746 O 1.04901 1.08620 0.50310
 O747 O 1.09417 1.02927 0.49653
 Zr748 Zr 0.96451 1.04217 0.50009
 O749 O 0.97008 1.09415 0.50332
 O750 O 0.91455 1.04828 0.49698
 Zr751 Zr 1.00037 0.99692 0.45673
 Zr752 Zr 1.00054 0.99669 0.54355
 O753 O 1.00483 1.04431 0.52531
 O754 O 1.00485 1.04489 0.47406
 O755 O 1.04657 0.99194 0.52562
 O756 O 0.95468 1.00125 0.47514
 O757 O 1.04611 0.99220 0.47478
 O758 O 0.95443 1.00121 0.52590
 H759 H 0.99431 0.92990 0.53947
 H760 H 0.93579 1.00308 0.46244
 H761 H 1.00657 1.06366 0.53832
 H762 H 1.06490 0.99060 0.46181
 H763 H 0.89962 0.98005 0.50750
 H764 H 0.90458 1.03504 0.51264
 H765 H 0.98225 1.10178 0.48617
 H766 H 1.03632 1.09635 0.48740
 H767 H 1.10133 1.01511 0.51280
 H768 H 1.09644 0.96211 0.49708
 H769 H 1.04627 0.88843 0.50200
 H770 H 0.93471 0.89987 0.50277
 O771 O 0.43912 0.44421 0.04023
 O772 O 0.47068 0.47205 0.07234
 C773 C 0.44779 0.45180 0.06625
 O774 O 0.55353 0.43609 -0.04046
 O775 O 0.52463 0.46685 -0.07287
 C776 C 0.54610 0.44493 -0.06658
 O777 O 0.54887 0.43177 0.03992
 O778 O 0.52390 0.46614 0.07214
 C779 C 0.54202 0.44114 0.06601
 O780 O 0.43594 0.44794 -0.04008
 O781 O 0.46933 0.47331 -0.07269
 C782 C 0.44495 0.45491 -0.06629
 Zr783 Zr 0.45659 0.46007 -0.00010
 O784 O 0.45756 0.40774 -0.00076
 O785 O 0.40620 0.45957 0.00076
 Zr786 Zr 0.53559 0.45186 -0.00030
 O787 O 0.52610 0.40050 -0.00175
 O788 O 0.58518 0.44301 0.00251
 O789 O 0.49545 0.44962 0.02595
 O790 O 0.49552 0.44998 -0.02586
 O791 O 0.44736 0.56016 -0.04040
 O792 O 0.47462 0.52808 -0.07286
 C793 C 0.45424 0.55107 -0.06650
 O794 O 0.56085 0.55152 0.03956
 O795 O 0.52942 0.52351 0.07209
 C796 C 0.55218 0.54403 0.06573
 O797 O 0.56340 0.54796 -0.04076
 O798 O 0.53045 0.52237 -0.07303
 C799 C 0.55455 0.54094 -0.06681
 O800 O 0.45117 0.56328 0.03970
 O801 O 0.47636 0.52921 0.07213
 C802 C 0.45810 0.55408 0.06582
 Zr803 Zr 0.46418 0.54304 -0.00039
 O804 O 0.46906 0.59509 -0.00405
 O805 O 0.41409 0.54828 0.00284
 Zr806 Zr 0.54379 0.53487 -0.00056
 O807 O 0.54814 0.58699 -0.00417
 O808 O 0.59394 0.53059 0.00264
 Zr809 Zr 0.50009 0.49770 0.04302
 Zr810 Zr 0.50007 0.49770 -0.04381
 O811 O 0.50458 0.54521 -0.02583
 O812 O 0.50463 0.54568 0.02537
 O813 O 0.45397 0.50227 -0.02594
 O814 O 0.54576 0.49270 0.02469
 O815 O 0.45435 0.50223 0.02497
 O816 O 0.54615 0.49279 -0.02619
 H817 H 0.49369 0.43082 -0.03908
 H818 H 0.56457 0.49064 0.03747
 H819 H 0.50635 0.56461 -0.03897
 H820 H 0.43565 0.50440 0.03797
 H821 H 0.59585 0.46048 -0.00902
 H822 H 0.60124 0.51584 -0.01306
 H823 H 0.53737 0.59691 0.01278
 H824 H 0.48308 0.60249 0.01180
 H825 H 0.40449 0.53458 -0.01254
 H826 H 0.39919 0.48210 0.00606
 H827 H 0.43501 0.40058 -0.00159
 H828 H 0.54716 0.38942 -0.00230
 C829 C 0.32330 1.16795 0.14678
 C830 C 0.34522 1.15010 0.12968
 C831 C 0.37781 1.14986 0.13751
 C832 C 0.38801 1.16699 0.16199
 C833 C 0.36612 1.18375 0.17914
 C834 C 0.33370 1.18432 0.17187
 C835 C 0.39984 1.13206 0.12111
 C836 C 0.38990 1.11378 0.09721
 C837 C 0.35750 1.11343 0.08916
 C838 C 0.33526 1.13192 0.10535
 C839 C 0.34816 1.09428 0.06527
 C840 C 0.37077 1.07575 0.04967
 C841 C 0.40306 1.07633 0.05765
 C842 C 0.41219 1.09553 0.08151
 H843 H 0.29822 1.16813 0.14125
 H844 H 0.41290 1.16697 0.16818
 H845 H 0.37458 1.19641 0.19825
 H846 H 0.42478 1.13203 0.12724
 H847 H 0.31032 1.13179 0.09932
 H848 H 0.32341 1.09352 0.05874
 H849 H 0.36305 1.06120 0.03138
 H850 H 0.43688 1.09610 0.08831
 C851 C 0.82393 0.67013 0.64665
 C852 C 0.84571 0.65206 0.62964
 C853 C 0.87837 0.65198 0.63724
 C854 C 0.88876 0.66955 0.66142
 C855 C 0.86697 0.68652 0.67853
 C856 C 0.83450 0.68688 0.67146
 C857 C 0.90023 0.63383 0.62095
 C858 C 0.89002 0.61502 0.59746
 C859 C 0.85755 0.61455 0.58966
 C860 C 0.83550 0.63341 0.60569
 C861 C 0.84792 0.59494 0.56617
 C862 C 0.87032 0.57600 0.55074
 C863 C 0.90269 0.57664 0.55847
 C864 C 0.91211 0.59635 0.58192
 H865 H 0.79879 0.67011 0.64131
 H866 H 0.91369 0.66963 0.66746
 H867 H 0.87551 0.69941 0.69748
 H868 H 0.92523 0.63390 0.62689
 H869 H 0.81050 0.63317 0.59986
 H870 H 0.82312 0.59415 0.55982
 H871 H 0.86239 0.56107 0.53276
 H872 H 0.93687 0.59705 0.58850
 C873 C 0.67520 0.83806 0.14909
 C874 C 0.65349 0.85400 0.13056
 C875 C 0.62163 0.84251 0.12921
 C876 C 0.61198 0.81549 0.14627
 C877 C 0.63346 0.80044 0.16512
 C878 C 0.66498 0.81163 0.16665
 C879 C 0.59965 0.85858 0.11134
 C880 C 0.60879 0.88649 0.09525
 C881 C 0.64051 0.89813 0.09637
 C882 C 0.66282 0.88163 0.11391
 C883 C 0.64915 0.92635 0.08022
 C884 C 0.62637 0.94318 0.06359
 C885 C 0.59468 0.93198 0.06285
 C886 C 0.58629 0.90330 0.07847
 H887 H 0.69962 0.84675 0.15053
 H888 H 0.58767 0.80639 0.14544
 H889 H 0.62549 0.77997 0.17859
 H890 H 0.57522 0.84979 0.11045
 H891 H 0.68716 0.89064 0.11501
 H892 H 0.67338 0.93563 0.08076
 H893 H 0.63340 0.96526 0.05179
 H894 H 0.56200 0.89411 0.07783
 C895 C 1.17184 0.33203 0.64691
 C896 C 1.14986 0.35038 0.63036
 C897 C 1.11701 0.34862 0.63731
 C898 C 1.10663 0.32886 0.66045
 C899 C 1.12860 0.31160 0.67719
 C900 C 1.16124 0.31314 0.67072
 C901 C 1.09496 0.36712 0.62146
 C902 C 1.10518 0.38798 0.59904
 C903 C 1.13786 0.39016 0.59194
 C904 C 1.16009 0.37109 0.60754
 C905 C 1.14758 0.41160 0.56951
 C906 C 1.12507 0.43059 0.55435
 C907 C 1.09249 0.42832 0.56132
 C908 C 1.08293 0.40690 0.58381
 H909 H 1.19711 0.33351 0.64210
 H910 H 1.08156 0.32731 0.66598
 H911 H 1.12009 0.29706 0.69542
 H912 H 1.06982 0.36565 0.62689
 H913 H 1.18523 0.37271 0.60223
 H914 H 1.17254 0.41370 0.56373
 H915 H 1.13313 0.44686 0.53711
 H916 H 1.05797 0.40487 0.58969
 C917 C 0.69002 1.15055 -0.14846
 C918 C 0.67125 1.13663 -0.12612
 C919 C 0.65555 1.15767 -0.10626
 C920 C 0.66060 1.19199 -0.10788
 C921 C 0.68003 1.20551 -0.12958
 C922 C 0.69419 1.18511 -0.15052
 C923 C 0.63458 1.14416 -0.08552
 C924 C 0.62964 1.10978 -0.08387
 C925 C 0.64704 1.08855 -0.10237
 C926 C 0.66743 1.10212 -0.12359
 C927 C 0.64315 1.05410 -0.09973
 C928 C 0.62126 1.04085 -0.07987
 C929 C 0.60243 1.06179 -0.06275
 C930 C 0.60703 1.09626 -0.06453
 H931 H 0.70108 1.13462 -0.16442
 H932 H 0.64906 1.20846 -0.09265
 H933 H 0.68278 1.23217 -0.13083
 H934 H 0.62179 1.16044 -0.07093
 H935 H 0.67996 1.08586 -0.13838
 H936 H 0.65653 1.03743 -0.11348
 H937 H 0.61784 1.01426 -0.07891
 H938 H 0.59255 1.11249 -0.05126
 C939 C 1.18870 0.64784 0.34984
 C940 C 1.16985 0.63426 0.37233
 C941 C 1.15385 0.65566 0.39171
 C942 C 1.15855 0.68996 0.38949
 C943 C 1.17807 0.70313 0.36775
 C944 C 1.19269 0.68240 0.34731
 C945 C 1.13300 0.64253 0.41270
 C946 C 1.12846 0.60818 0.41513
 C947 C 1.14608 0.58660 0.39714
 C948 C 1.16635 0.59977 0.37560
 C949 C 1.14253 0.55219 0.40062
 C950 C 1.12074 0.53934 0.42081
 C951 C 1.10173 0.56063 0.43743
 C952 C 1.10602 0.59506 0.43481
 H953 H 1.20011 0.63166 0.33427
 H954 H 1.14675 0.70668 0.40434
 H955 H 1.18067 0.72978 0.36614
 H956 H 1.12004 0.65909 0.42693
 H957 H 1.17907 0.58322 0.36120
 H958 H 1.15607 0.53523 0.38727
 H959 H 1.11751 0.51276 0.42235
 H960 H 1.09137 0.61158 0.44765
 C961 C 0.32312 0.83972 -0.14911
 C962 C 0.34397 0.86040 -0.13337
 C963 C 0.37518 0.86598 -0.14406
 C964 C 0.38511 0.85125 -0.16986
 C965 C 0.36432 0.83145 -0.18543
 C966 C 0.33315 0.82552 -0.17550
 C967 C 0.39621 0.88632 -0.12896
 C968 C 0.38673 0.90148 -0.10320
 C969 C 0.35566 0.89657 -0.09224
 C970 C 0.33434 0.87592 -0.10742
 C971 C 0.34683 0.91227 -0.06622
 C972 C 0.36889 0.93183 -0.05101
 C973 C 0.40008 0.93591 -0.06160
 C974 C 0.40837 0.92110 -0.08808
 H975 H 0.29906 0.83546 -0.14135
 H976 H 0.40898 0.85530 -0.17820
 H977 H 0.37274 0.82064 -0.20547
 H978 H 0.42014 0.89029 -0.13727
 H979 H 0.31047 0.87193 -0.09908
 H980 H 0.32309 0.90896 -0.05741
 H981 H 0.36192 0.94283 -0.03063
 H982 H 0.43218 0.92435 -0.09685
 C983 C 0.81649 0.34998 0.34864
 C984 C 0.83708 0.36401 0.36932
 C985 C 0.86530 0.34695 0.37710
 C986 C 0.87221 0.31617 0.36470
 C987 C 0.85164 0.30244 0.34445
 C988 C 0.82394 0.31923 0.33611
 C989 C 0.88648 0.36099 0.39687
 C990 C 0.88009 0.39199 0.40905
 C991 C 0.85168 0.40893 0.40206
 C992 C 0.83024 0.39479 0.38221
 C993 C 0.84567 0.43999 0.41467
 C994 C 0.86817 0.45457 0.43309
 C995 C 0.89703 0.43833 0.43910
 C996 C 0.90232 0.40665 0.42751
 H997 H 0.79492 0.36282 0.34228
 H998 H 0.89366 0.30278 0.37053
 H999 H 0.85749 0.27866 0.33502
 H1000 H 0.90828 0.34800 0.40242
 H1001 H 0.80859 0.40791 0.37649
 H1002 H 0.82396 0.45335 0.40974
 H1003 H 0.86359 0.47903 0.44166
 H1004 H 0.92432 0.39363 0.43226
 C1005 C 1.15511 0.31023 0.14527
 C1006 C 1.14130 0.33152 0.12433
 C1007 C 1.15847 0.35963 0.11461
 C1008 C 1.18961 0.36494 0.12452
 C1009 C 1.20338 0.34328 0.14459
 C1010 C 1.18616 0.31625 0.15563
 C1011 C 1.14414 0.38237 0.09554
 C1012 C 1.11303 0.37717 0.08542
 C1013 C 1.09649 0.34810 0.09352
 C1014 C 1.11056 0.32560 0.11321
 C1015 C 1.06598 0.34238 0.08201
 C1016 C 1.05148 0.36589 0.06376
 C1017 C 1.06676 0.39601 0.05737
 C1018 C 1.09798 0.40097 0.06776
 H1019 H 1.14174 0.28933 0.15372
 H1020 H 1.20319 0.38617 0.11707
 H1021 H 1.22719 0.34835 0.15240
 H1022 H 1.15709 0.40438 0.08884
 H1023 H 1.09751 0.30375 0.12007
 H1024 H 1.05312 0.31993 0.08747
 H1025 H 1.02786 0.36103 0.05553
 H1026 H 1.11045 0.42374 0.06248
 C1027 C 0.64890 0.81153 0.65074
 C1028 C 0.63461 0.82997 0.62816
 C1029 C 0.65388 0.85015 0.61011
 C1030 C 0.68705 0.85013 0.61379
 C1031 C 0.70106 0.83100 0.63559
 C1032 C 0.68223 0.81213 0.65465
 C1033 C 0.63972 0.87047 0.58897
 C1034 C 0.60653 0.87048 0.58512
 C1035 C 0.58734 0.84881 0.60181
 C1036 C 0.60146 0.82892 0.62344
 C1037 C 0.55425 0.84812 0.59699
 C1038 C 0.54017 0.86981 0.57691
 C1039 C 0.55887 0.89285 0.56164
 C1040 C 0.59214 0.89254 0.56544
 H1041 H 0.63424 0.79676 0.66522
 H1042 H 0.70217 0.86521 0.59998
 H1043 H 0.72667 0.83192 0.63830
 H1044 H 0.65450 0.88664 0.57577
 H1045 H 0.58663 0.81301 0.63683
 H1046 H 0.53916 0.83145 0.60934
 H1047 H 0.51452 0.86982 0.57450
 H1048 H 0.60670 0.91028 0.55367
 C1049 C 1.15613 0.68028 -0.15634
 C1050 C 1.13979 0.66646 -0.13255
 C1051 C 1.15408 0.66622 -0.10495
 C1052 C 1.18369 0.68177 -0.10135
 C1053 C 1.19929 0.69682 -0.12490
 C1054 C 1.18626 0.69560 -0.15304
 C1055 C 1.13861 0.65022 -0.08158
 C1056 C 1.10864 0.63519 -0.08541
 C1057 C 1.09361 0.63750 -0.11273
 C1058 C 1.10936 0.65277 -0.13608
 C1059 C 1.06339 0.62355 -0.11660
 C1060 C 1.04884 0.60582 -0.09420
 C1061 C 1.06408 0.60169 -0.06749
 C1062 C 1.09380 0.61695 -0.06287
 H1063 H 1.14483 0.67951 -0.17740
 H1064 H 1.19488 0.68228 -0.08027
 H1065 H 1.22216 0.70841 -0.12105
 H1066 H 1.15003 0.64914 -0.06059
 H1067 H 1.09807 0.65358 -0.15715
 H1068 H 1.05146 0.62532 -0.13730
 H1069 H 1.02624 0.59375 -0.09824
 H1070 H 1.10588 0.61334 -0.04241
 C1071 C 0.66804 1.18263 0.35955
 C1072 C 0.65199 1.16011 0.37797
 C1073 C 0.66118 1.12636 0.37812
 C1074 C 0.68630 1.11576 0.36038
 C1075 C 0.70150 1.13804 0.34178
 C1076 C 0.69241 1.17141 0.34102
 C1077 C 0.64452 1.10341 0.39524
 C1078 C 0.61825 1.11342 0.41185
 C1079 C 0.60912 1.14708 0.41222
 C1080 C 0.62624 1.17034 0.39544
 C1081 C 0.58260 1.15662 0.42892
 C1082 C 0.56487 1.13290 0.44442
 C1083 C 0.57335 1.09923 0.44352
 C1084 C 0.60052 1.08994 0.42750
 H1085 H 0.66070 1.20836 0.35864
 H1086 H 0.69357 1.09000 0.36025
 H1087 H 0.72005 1.12908 0.32745
 H1088 H 0.65146 1.07752 0.39501
 H1089 H 0.61904 1.19614 0.39541
 H1090 H 0.57524 1.18233 0.42960
 H1091 H 0.54414 1.14083 0.45656
 H1092 H 0.60770 1.06416 0.42671
 C1093 C 0.84876 0.68730 0.14979
 C1094 C 0.86306 0.66821 0.12765
 C1095 C 0.84414 0.64591 0.11162
 C1096 C 0.81119 0.64441 0.11677
 C1097 C 0.79710 0.66420 0.13801
 C1098 C 0.81568 0.68525 0.15513
 C1099 C 0.85842 0.62515 0.09093
 C1100 C 0.89134 0.62685 0.08543
 C1101 C 0.91003 0.65053 0.10004
 C1102 C 0.89586 0.67080 0.12131
 C1103 C 0.94272 0.65296 0.09349
 C1104 C 0.95702 0.63121 0.07368
 C1105 C 0.93902 0.60627 0.06042
 C1106 C 0.90601 0.60469 0.06603
 H1107 H 0.86321 0.70376 0.16274
 H1108 H 0.79630 0.62771 0.10449
 H1109 H 0.77167 0.66224 0.14179
 H1110 H 0.84395 0.60743 0.07931
 H1111 H 0.91039 0.68832 0.13309
 H1112 H 0.95741 0.67117 0.10423
 H1113 H 0.98247 0.63271 0.06993
 H1114 H 0.89189 0.58557 0.05582
 C1115 C 0.34764 1.18869 0.64929
 C1116 C 0.36195 1.16970 0.62716
 C1117 C 0.34268 1.14941 0.60953
 C1118 C 0.30946 1.14997 0.61311
 C1119 C 0.29542 1.16967 0.63444
 C1120 C 0.31428 1.18857 0.65316
 C1121 C 0.35689 1.12848 0.58894
 C1122 C 0.39013 1.12808 0.58516
 C1123 C 0.40930 1.14992 0.60136
 C1124 C 0.39514 1.17031 0.62250
 C1125 C 0.44241 1.15039 0.59653
 C1126 C 0.45653 1.12843 0.57685
 C1127 C 0.43790 1.10523 0.56203
 C1128 C 0.40459 1.10561 0.56594
 H1129 H 0.36233 1.20345 0.66352
 H1130 H 0.29432 1.13485 0.59959
 H1131 H 0.26977 1.16910 0.63713
 H1132 H 0.34209 1.11220 0.57611
 H1133 H 0.40997 1.18634 0.63553
 H1134 H 0.45747 1.16719 0.60851
 H1135 H 0.48222 1.12834 0.57438
 H1136 H 0.39005 1.08779 0.55451
 C1137 C 0.83611 0.32598 -0.14870
 C1138 C 0.85543 0.34762 -0.13252
 C1139 C 0.85820 0.38113 -0.14132
 C1140 C 0.84204 0.39246 -0.16589
 C1141 C 0.82370 0.37075 -0.18213
 C1142 C 0.82058 0.33742 -0.17386
 C1143 C 0.87741 0.40289 -0.12572
 C1144 C 0.89436 0.39172 -0.10154
 C1145 C 0.89217 0.35834 -0.09260
 C1146 C 0.87251 0.33640 -0.10811
 C1147 C 0.90973 0.34773 -0.06834
 C1148 C 0.92881 0.37017 -0.05294
 C1149 C 0.93050 0.40358 -0.06153
 C1150 C 0.91342 0.41382 -0.08617
 H1151 H 0.83408 0.30017 -0.14240
 H1152 H 0.84400 0.41806 -0.17284
 H1153 H 0.81190 0.38003 -0.20135
 H1154 H 0.87932 0.42858 -0.13254
 H1155 H 0.87068 0.31071 -0.10134
 H1156 H 0.90853 0.32218 -0.06116
 H1157 H 0.94171 0.36157 -0.03410
 H1158 H 0.91468 0.43934 -0.09350
 C1159 C 0.33276 0.82531 0.35279
 C1160 C 0.35153 0.84708 0.36930
 C1161 C 0.35267 0.88104 0.36160
 C1162 C 0.33532 0.89271 0.33783
 C1163 C 0.31756 0.87089 0.32120
 C1164 C 0.31622 0.83711 0.32834
 C1165 C 0.37157 0.90288 0.37738
 C1166 C 0.38988 0.89136 0.40058
 C1167 C 0.38921 0.85756 0.40847
 C1168 C 0.36981 0.83553 0.39284
 C1169 C 0.40806 0.84662 0.43178
 C1170 C 0.42714 0.86907 0.44714
 C1171 C 0.42752 0.90281 0.43947
 C1172 C 0.40890 0.91347 0.41592
 H1173 H 0.33207 0.79915 0.35815
 H1174 H 0.33600 0.91866 0.33175
 H1175 H 0.30494 0.88039 0.30250
 H1176 H 0.37232 0.92889 0.37136
 H1177 H 0.36922 0.80951 0.39875
 H1178 H 0.40797 0.82078 0.43819
 H1179 H 0.44120 0.86014 0.46516
 H1180 H 0.40899 0.93929 0.40936
 C1181 C 1.15804 1.15392 0.33186
 C1182 C 1.14043 1.13727 0.35299
 C1183 C 1.14450 1.14564 0.38242
 C1184 C 1.16599 1.17045 0.39023
 C1185 C 1.18348 1.18694 0.36901
 C1186 C 1.17965 1.17879 0.33971
 C1187 C 1.12711 1.12899 0.40363
 C1188 C 1.10591 1.10398 0.39583
 C1189 C 1.10164 1.09548 0.36649
 C1190 C 1.11894 1.11234 0.34513
 C1191 C 1.08023 1.07021 0.35920
 C1192 C 1.06348 1.05334 0.38092
 C1193 C 1.06807 1.06165 0.41008
 C1194 C 1.08913 1.08721 0.41722
 H1195 H 1.15481 1.14749 0.30932
 H1196 H 1.16932 1.17707 0.41272
 H1197 H 1.20001 1.20604 0.37561
 H1198 H 1.13023 1.13533 0.42623
 H1199 H 1.11586 1.10597 0.32254
 H1200 H 1.07661 1.06339 0.33681
 H1201 H 1.04722 1.03371 0.37496
 H1202 H 1.09271 1.09422 0.43960
 C1203 C 0.66102 0.65036 -0.16874
 C1204 C 0.64530 0.63183 -0.14756
 C1205 C 0.65194 0.63764 -0.11804
 C1206 C 0.67406 0.66185 -0.11019
 C1207 C 0.68949 0.68037 -0.13145
 C1208 C 0.68309 0.67477 -0.16083
 C1209 C 0.63614 0.61942 -0.09679
 C1210 C 0.61341 0.59592 -0.10464
 C1211 C 0.60657 0.58995 -0.13405
 C1212 C 0.62283 0.60784 -0.15545
 C1213 C 0.58321 0.56661 -0.14136
 C1214 C 0.56632 0.54994 -0.11960
 C1215 C 0.57294 0.55627 -0.09037
 C1216 C 0.59691 0.57889 -0.08321
 H1217 H 0.65583 0.64590 -0.19135
 H1218 H 0.67931 0.66655 -0.08764
 H1219 H 0.70655 0.69895 -0.12485
 H1220 H 0.64113 0.62393 -0.07412
 H1221 H 0.61770 0.60350 -0.17810
 H1222 H 0.57768 0.56167 -0.16381
 H1223 H 0.54794 0.53249 -0.12560
 H1224 H 0.60235 0.58411 -0.06077
 C1225 C 0.84454 1.15430 0.66906
 C1226 C 0.86200 1.13793 0.64770
 C1227 C 0.85552 1.14450 0.61822
 C1228 C 0.83167 1.16711 0.61060
 C1229 C 0.81434 1.18327 0.63203
 C1230 C 0.82067 1.17709 0.66139
 C1231 C 0.87296 1.12838 0.59679
 C1232 C 0.89672 1.10573 0.60443
 C1233 C 0.90328 1.09892 0.63382
 C1234 C 0.88585 1.11517 0.65537
 C1235 C 0.92709 1.07591 0.64100
 C1236 C 0.94415 1.05976 0.61917
 C1237 C 0.93763 1.06660 0.58994
 C1238 C 0.91389 1.08970 0.58288
 H1239 H 0.84959 1.14922 0.69165
 H1240 H 0.82649 1.17236 0.58808
 H1241 H 0.79617 1.20085 0.62556
 H1242 H 0.86801 1.13342 0.57416
 H1243 H 0.89077 1.11012 0.67799
 H1244 H 0.93242 1.07034 0.66343
 H1245 H 0.96231 1.04196 0.62514
 H1246 H 0.90842 1.09518 0.56045
 C1247 C 0.34927 0.65940 0.16862
 C1248 C 0.36793 0.64449 0.14728
 C1249 C 0.36257 0.65240 0.11786
 C1250 C 0.33866 0.67497 0.11027
 C1251 C 0.31998 0.68952 0.13166
 C1252 C 0.32511 0.68186 0.16097
 C1253 C 0.38088 0.63729 0.09644
 C1254 C 0.40398 0.61387 0.10403
 C1255 C 0.40950 0.60586 0.13337
 C1256 C 0.39159 0.62153 0.15492
 C1257 C 0.43237 0.58183 0.14050
 C1258 C 0.44892 0.56521 0.11863
 C1259 C 0.44302 0.57278 0.08943
 C1260 C 0.42096 0.59766 0.08244
 H1261 H 0.35342 0.65325 0.19115
 H1262 H 0.33432 0.68124 0.08779
 H1263 H 0.30169 0.70698 0.12525
 H1264 H 0.37672 0.64326 0.07385
 H1265 H 0.39562 0.61542 0.17750
 H1266 H 0.43698 0.57543 0.16289
 H1267 H 0.46589 0.54615 0.12454
 H1268 H 0.41611 0.60387 0.06003
 C1269 C 1.15840 0.83981 0.66815
 C1270 C 1.13956 0.85482 0.64700
 C1271 C 1.14166 0.84395 0.61806
 C1272 C 1.16254 0.81827 0.61075
 C1273 C 1.18131 0.80336 0.63194
 C1274 C 1.17955 0.81383 0.66102
 C1275 C 1.12297 0.85902 0.59685
 C1276 C 1.10239 0.88494 0.60421
 C1277 C 1.10015 0.89588 0.63312
 C1278 C 1.11873 0.88063 0.65442
 C1279 C 1.07955 0.92206 0.64010
 C1280 C 1.06173 0.93760 0.61844
 C1281 C 1.06424 0.92701 0.58962
 C1282 C 1.08436 0.90037 0.58283
 H1283 H 1.15635 0.84860 0.69022
 H1284 H 1.16438 0.80973 0.58862
 H1285 H 1.19713 0.78355 0.62536
 H1286 H 1.12462 0.85077 0.57458
 H1287 H 1.11717 0.88898 0.67666
 H1288 H 1.07753 0.93074 0.66217
 H1289 H 1.04639 0.95815 0.62417
 H1290 H 1.08643 0.89174 0.56073
 C1291 C 0.65081 0.33664 0.16979
 C1292 C 0.63175 0.35105 0.14843
 C1293 C 0.63618 0.34197 0.11918
 C1294 C 0.65940 0.31862 0.11177
 C1295 C 0.67842 0.30454 0.13314
 C1296 C 0.67440 0.31349 0.16229
 C1297 C 0.61770 0.35674 0.09769
 C1298 C 0.59530 0.38096 0.10498
 C1299 C 0.59058 0.39004 0.13416
 C1300 C 0.60868 0.37474 0.15582
 C1301 C 0.56834 0.41478 0.14098
 C1302 C 0.55174 0.43109 0.11893
 C1303 C 0.55698 0.42256 0.08985
 C1304 C 0.57828 0.39691 0.08321
 H1305 H 0.64742 0.34373 0.19218
 H1306 H 0.66303 0.31145 0.08944
 H1307 H 0.69628 0.28661 0.12677
 H1308 H 0.62126 0.34993 0.07522
 H1309 H 0.60530 0.38173 0.17826
 H1310 H 0.56432 0.42200 0.16324
 H1311 H 0.53528 0.45070 0.12460
 H1312 H 0.58253 0.38990 0.06091
 C1313 C 0.83835 0.84852 0.32936
 C1314 C 0.85490 0.86543 0.35100
 C1315 C 0.84606 0.86081 0.38031
 C1316 C 0.82089 0.83959 0.38753
 C1317 C 0.80476 0.82265 0.36593
 C1318 C 0.81339 0.82680 0.33671
 C1319 C 0.86268 0.87719 0.40204
 C1320 C 0.88823 0.89792 0.39493
 C1321 C 0.89718 0.90277 0.36571
 C1322 C 0.88033 0.88655 0.34384
 C1323 C 0.92299 0.92358 0.35902
 C1324 C 0.93984 0.93923 0.38113
 C1325 C 0.93106 0.93426 0.41022
 C1326 C 0.90510 0.91363 0.41682
 H1327 H 0.84526 0.85183 0.30691
 H1328 H 0.81383 0.83588 0.40990
 H1329 H 0.78547 0.80624 0.37218
 H1330 H 0.85592 0.87356 0.42452
 H1331 H 0.88715 0.89009 0.32137
 H1332 H 0.93022 0.92761 0.33676
 H1333 H 0.95977 0.95506 0.37550
 H1334 H 0.89793 0.90962 0.43914
 C1335 C 0.33656 0.35018 -0.17025
 C1336 C 0.35253 0.36783 -0.14869
 C1337 C 0.34499 0.36183 -0.11927
 C1338 C 0.32171 0.33845 -0.11187
 C1339 C 0.30614 0.32083 -0.13341
 C1340 C 0.31344 0.32640 -0.16275
 C1341 C 0.36107 0.37899 -0.09763
 C1342 C 0.38492 0.40176 -0.10494
 C1343 C 0.39256 0.40798 -0.13427
 C1344 C 0.37614 0.39107 -0.15604
 C1345 C 0.41680 0.43066 -0.14118
 C1346 C 0.43371 0.44647 -0.11917
 C1347 C 0.42641 0.44001 -0.08997
 C1348 C 0.40164 0.41790 -0.08316
 H1349 H 0.34247 0.35465 -0.19279
 H1350 H 0.31570 0.33362 -0.08942
 H1351 H 0.28826 0.30286 -0.12701
 H1352 H 0.35535 0.37426 -0.07506
 H1353 H 0.38200 0.39564 -0.17859
 H1354 H 0.42297 0.43581 -0.16354
 H1355 H 0.45266 0.46346 -0.12501
 H1356 H 0.39568 0.41256 -0.06077
 C1357 C 1.14555 0.30951 -0.15205
 C1358 C 1.13126 0.32826 -0.12975
 C1359 C 1.15075 0.34400 -0.10904
 C1360 C 1.18381 0.33910 -0.10984
 C1361 C 1.19768 0.31974 -0.13147
 C1362 C 1.17892 0.30543 -0.15319
 C1363 C 1.13701 0.36487 -0.08817
 C1364 C 1.10390 0.36973 -0.08723
 C1365 C 1.08413 0.35237 -0.10667
 C1366 C 1.09794 0.33203 -0.12802
 C1367 C 1.05089 0.35630 -0.10478
 C1368 C 1.03748 0.37823 -0.08469
 C1369 C 1.05708 0.39697 -0.06652
 C1370 C 1.09026 0.39229 -0.06761
 H1371 H 1.13084 0.29837 -0.16858
 H1372 H 1.19906 0.35071 -0.09397
 H1373 H 1.22337 0.31715 -0.13193
 H1374 H 1.15215 0.37767 -0.07290
 H1375 H 1.08283 0.31950 -0.14347
 H1376 H 1.03531 0.34297 -0.11928
 H1377 H 1.01189 0.38177 -0.08430
 H1378 H 1.10545 0.40680 -0.05360
 C1379 C 0.64477 0.81109 0.34735
 C1380 C 0.63073 0.82999 0.36979
 C1381 C 0.65044 0.84887 0.38821
 C1382 C 0.68363 0.84713 0.38508
 C1383 C 0.69732 0.82752 0.36355
 C1384 C 0.67822 0.80986 0.34409
 C1385 C 0.63676 0.86953 0.40928
 C1386 C 0.60355 0.87108 0.41282
 C1387 C 0.58377 0.85072 0.39578
 C1388 C 0.59744 0.83060 0.37410
 C1389 C 0.55061 0.85141 0.40040
 C1390 C 0.53713 0.87304 0.42078
 C1391 C 0.55649 0.89478 0.43651
 C1392 C 0.58976 0.89325 0.43272
 H1393 H 0.62983 0.79735 0.33258
 H1394 H 0.69907 0.86120 0.39917
 H1395 H 0.72304 0.82713 0.36140
 H1396 H 0.65198 0.88465 0.42277
 H1397 H 0.58220 0.81569 0.36049
 H1398 H 0.53504 0.83575 0.38780
 H1399 H 0.51146 0.87404 0.42316
 H1400 H 0.60486 0.90995 0.44482
 C1401 C 0.84992 0.69237 -0.14816
 C1402 C 0.86366 0.67327 -0.12568
 C1403 C 0.84386 0.65337 -0.10785
 C1404 C 0.81073 0.65448 -0.11151
 C1405 C 0.79727 0.67434 -0.13310
 C1406 C 0.81660 0.69284 -0.15206
 C1407 C 0.85744 0.63230 -0.08692
 C1408 C 0.89058 0.63143 -0.08290
 C1409 C 0.91029 0.65294 -0.09926
 C1410 C 0.89678 0.67339 -0.12082
 C1411 C 0.94329 0.65306 -0.09415
 C1412 C 0.95678 0.63110 -0.07401
 C1413 C 0.93765 0.60813 -0.05907
 C1414 C 0.90444 0.60883 -0.06328
 H1415 H 0.86500 0.70678 -0.16256
 H1416 H 0.79519 0.63969 -0.09785
 H1417 H 0.77162 0.67418 -0.13577
 H1418 H 0.84221 0.61633 -0.07396
 H1419 H 0.91204 0.68912 -0.13396
 H1420 H 0.95878 0.66959 -0.10623
 H1421 H 0.98240 0.63077 -0.07132
 H1422 H 0.88951 0.59118 -0.05180
 C1423 C 0.34987 1.19088 0.35242
 C1424 C 0.36354 1.17199 0.37512
 C1425 C 0.34364 1.15240 0.39311
 C1426 C 0.31051 1.15359 0.38937
 C1427 C 0.29713 1.17324 0.36759
 C1428 C 0.31653 1.19145 0.34847
 C1429 C 0.35709 1.13157 0.41429
 C1430 C 0.39023 1.13058 0.41839
 C1431 C 0.41006 1.15178 0.40185
 C1432 C 0.39667 1.17202 0.38005
 C1433 C 0.44307 1.15173 0.40701
 C1434 C 0.45644 1.12983 0.42731
 C1435 C 0.43717 1.10716 0.44246
 C1436 C 0.40394 1.10812 0.43824
 H1437 H 0.36502 1.20508 0.33792
 H1438 H 0.29490 1.13902 0.40316
 H1439 H 0.27149 1.17319 0.36492
 H1440 H 0.34177 1.11584 0.42739
 H1441 H 0.41202 1.18751 0.36678
 H1442 H 0.45867 1.16801 0.39479
 H1443 H 0.48208 1.12926 0.42993
 H1444 H 0.38888 1.09069 0.44984
 C1445 C 1.16781 0.67711 0.14587
 C1446 C 1.14921 0.65555 0.12892
 C1447 C 1.14689 0.62177 0.13704
 C1448 C 1.16265 0.61007 0.16165
 C1449 C 1.18019 0.63165 0.17864
 C1450 C 1.18292 0.66522 0.17107
 C1451 C 1.12848 0.60006 0.12074
 C1452 C 1.11168 0.61151 0.09663
 C1453 C 1.11333 0.64512 0.08832
 C1454 C 1.13240 0.66705 0.10444
 C1455 C 1.09568 0.65595 0.06417
 C1456 C 1.07679 0.63354 0.04850
 C1457 C 1.07556 0.59998 0.05664
 C1458 C 1.09306 0.58946 0.08091
 H1459 H 1.16964 0.70309 0.14010
 H1460 H 1.16101 0.58426 0.16805
 H1461 H 1.19179 0.62203 0.19783
 H1462 H 1.12691 0.57417 0.12706
 H1463 H 1.13385 0.69293 0.09820
 H1464 H 1.09646 0.68167 0.05743
 H1465 H 1.06353 0.64234 0.02993
 H1466 H 1.09211 0.56381 0.08792
 C1467 C 0.66528 1.17591 0.64832
 C1468 C 0.64614 1.15408 0.63211
 C1469 C 0.64245 1.12091 0.64164
 C1470 C 0.65743 1.11012 0.66697
 C1471 C 0.67557 1.13200 0.68318
 C1472 C 0.67967 1.16499 0.67419
 C1473 C 0.62355 1.09893 0.62598
 C1474 C 0.60772 1.10953 0.60102
 C1475 C 0.61075 1.14260 0.59136
 C1476 C 0.63020 1.16473 0.60689
 C1477 C 0.59415 1.15274 0.56641
 C1478 C 0.57507 1.13018 0.55116
 C1479 C 0.57251 1.09710 0.56052
 C1480 C 0.58883 1.08725 0.58566
 H1481 H 0.66814 1.20143 0.64139
 H1482 H 0.65478 1.08478 0.67449
 H1483 H 0.68658 1.12302 0.70289
 H1484 H 0.62095 1.07351 0.63338
 H1485 H 0.63270 1.19015 0.59954
 H1486 H 0.59601 1.17803 0.55865
 H1487 H 0.56278 1.13845 0.53186
 H1488 H 0.58683 1.06198 0.59353
 C1489 C 0.84902 0.32074 0.15487
 C1490 C 0.86323 0.33922 0.13229
 C1491 C 0.84378 0.35794 0.11331
 C1492 C 0.81055 0.35658 0.11630
 C1493 C 0.79664 0.33731 0.13812
 C1494 C 0.81567 0.31977 0.15785
 C1495 C 0.85781 0.37793 0.09181
 C1496 C 0.89105 0.37896 0.08854
 C1497 C 0.91047 0.35891 0.10644
 C1498 C 0.89647 0.33942 0.12838
 C1499 C 0.94366 0.35933 0.10248
 C1500 C 0.95754 0.38033 0.08179
 C1501 C 0.93855 0.40135 0.06486
 C1502 C 0.90526 0.40033 0.06811
 H1503 H 0.86375 0.30688 0.16987
 H1504 H 0.79529 0.37051 0.10180
 H1505 H 0.77091 0.33678 0.14011
 H1506 H 0.84287 0.39288 0.07778
 H1507 H 0.91143 0.32466 0.14255
 H1508 H 0.95894 0.34408 0.11591
 H1509 H 0.98321 0.38155 0.08015
 H1510 H 0.89056 0.41680 0.05521
 C1511 C 0.34947 0.81540 0.65571
 C1512 C 0.36599 0.82977 0.63229
 C1513 C 0.35321 0.82812 0.60414
 C1514 C 0.32479 0.81056 0.59976
 C1515 C 0.30865 0.79571 0.62312
 C1516 C 0.32017 0.79862 0.65171
 C1517 C 0.36877 0.84454 0.58104
 C1518 C 0.39701 0.86253 0.58588
 C1519 C 0.41038 0.86270 0.61397
 C1520 C 0.39486 0.84636 0.63686
 C1521 C 0.43853 0.88030 0.61907
 C1522 C 0.45248 0.89908 0.59704
 C1523 C 0.43893 0.90034 0.56938
 C1524 C 0.41153 0.88142 0.56357
 H1525 H 0.35960 0.81768 0.67717
 H1526 H 0.31476 0.80863 0.57827
 H1527 H 0.28655 0.78286 0.61870
 H1528 H 0.35856 0.84394 0.55954
 H1529 H 0.40488 0.84729 0.65845
 H1530 H 0.44913 0.88055 0.64041
 H1531 H 0.47335 0.91383 0.60191
 H1532 H 0.40071 0.88282 0.54234
 C1533 C 0.32723 1.17367 -0.14640
 C1534 C 0.34902 1.15572 -0.12940
 C1535 C 0.38179 1.15647 -0.13673
 C1536 C 0.39225 1.17492 -0.16068
 C1537 C 0.37038 1.19176 -0.17789
 C1538 C 0.33781 1.19113 -0.17104
 C1539 C 0.40362 1.13814 -0.12050
 C1540 C 0.39319 1.11830 -0.09744
 C1541 C 0.36057 1.11713 -0.08996
 C1542 C 0.33862 1.13623 -0.10584
 C1543 C 0.35062 1.09652 -0.06701
 C1544 C 0.37284 1.07720 -0.05178
 C1545 C 0.40533 1.07841 -0.05919
 C1546 C 0.41512 1.09919 -0.08207
 H1547 H 0.30200 1.17282 -0.14130
 H1548 H 0.41727 1.17565 -0.16653
 H1549 H 0.37887 1.20514 -0.19678
 H1550 H 0.42872 1.13876 -0.12621
 H1551 H 0.31351 1.13542 -0.10026
 H1552 H 0.32568 1.09516 -0.06099
 H1553 H 0.36464 1.06146 -0.03423
 H1554 H 0.44001 1.10032 -0.08837
 C1555 C 0.82513 0.67438 0.35510
 C1556 C 0.84714 0.65751 0.37269
 C1557 C 0.88015 0.66116 0.36714
 C1558 C 0.89063 0.68134 0.34429
 C1559 C 0.86863 0.69701 0.32638
 C1560 C 0.83586 0.69354 0.33152
 C1561 C 0.90226 0.64381 0.38391
 C1562 C 0.89194 0.62196 0.40558
 C1563 C 0.85909 0.61796 0.41128
 C1564 C 0.83680 0.63617 0.39501
 C1565 C 0.84925 0.59533 0.43275
 C1566 C 0.87179 0.57645 0.44797
 C1567 C 0.90450 0.58019 0.44215
 C1568 C 0.91422 0.60340 0.42110
 H1569 H 0.79977 0.67137 0.35882
 H1570 H 0.91583 0.68428 0.33978
 H1571 H 0.87719 0.71174 0.30829
 H1572 H 0.92754 0.64661 0.37951
 H1573 H 0.81153 0.63309 0.39918
 H1574 H 0.82416 0.59188 0.43745
 H1575 H 0.86361 0.55883 0.46411
 H1576 H 0.93930 0.60670 0.41620
 C1577 C 0.68333 1.15883 0.14641
 C1578 C 0.66097 1.14279 0.12855
 C1579 C 0.62864 1.15278 0.12955
 C1580 C 0.61915 1.17836 0.14804
 C1581 C 0.64124 1.19348 0.16606
 C1582 C 0.67329 1.18385 0.16550
 C1583 C 0.60601 1.13663 0.11258
 C1584 C 0.61491 1.11009 0.09492
 C1585 C 0.64702 1.09986 0.09357
 C1586 C 0.67002 1.11647 0.11029
 C1587 C 0.65527 1.07296 0.07576
 C1588 C 0.63182 1.05620 0.05983
 C1589 C 0.59974 1.06610 0.06146
 C1590 C 0.59178 1.09339 0.07894
 H1591 H 0.70808 1.15115 0.14626
 H1592 H 0.59446 1.18619 0.14903
 H1593 H 0.63326 1.21264 0.18075
 H1594 H 0.58125 1.14433 0.11355
 H1595 H 0.69471 1.10861 0.10948
 H1596 H 0.67979 1.06472 0.07433
 H1597 H 0.63871 1.03539 0.04652
 H1598 H 0.56729 1.10179 0.08038
 C1599 C 1.17598 0.66221 0.64835
 C1600 C 1.15486 0.64134 0.63313
 C1601 C 1.12323 0.63748 0.64336
 C1602 C 1.11311 0.65429 0.66812
 C1603 C 1.13418 0.67429 0.68324
 C1604 C 1.16579 0.67833 0.67382
 C1605 C 1.10205 0.61669 0.62890
 C1606 C 1.11176 0.59953 0.60417
 C1607 C 1.14318 0.60289 0.59363
 C1608 C 1.16469 0.62384 0.60824
 C1609 C 1.15216 0.58546 0.56853
 C1610 C 1.12988 0.56585 0.55365
 C1611 C 1.09834 0.56324 0.56376
 C1612 C 1.08995 0.57958 0.58954
 H1613 H 1.20042 0.66493 0.64107
 H1614 H 1.08892 0.65158 0.67611
 H1615 H 1.12575 0.68649 0.70264
 H1616 H 1.07782 0.61398 0.63686
 H1617 H 1.18888 0.62656 0.60027
 H1618 H 1.17618 0.58756 0.56007
 H1619 H 1.13701 0.55366 0.53384
 H1620 H 1.06589 0.57761 0.59799
 C1621 C 0.67207 0.83038 -0.14563
 C1622 C 0.65074 0.84949 -0.12910
 C1623 C 0.61785 0.84866 -0.13574
 C1624 C 0.60678 0.82894 -0.15840
 C1625 C 0.62816 0.81090 -0.17513
 C1626 C 0.66085 0.81162 -0.16908
 C1627 C 0.59645 0.86812 -0.12013
 C1628 C 0.60734 0.88892 -0.09819
 C1629 C 0.64001 0.89011 -0.09125
 C1630 C 0.66164 0.87013 -0.10670
 C1631 C 0.65023 0.91143 -0.06911
 C1632 C 0.62815 0.93112 -0.05400
 C1633 C 0.59558 0.92976 -0.06088
 C1634 C 0.58566 0.90864 -0.08323
 H1635 H 0.69741 0.83133 -0.14122
 H1636 H 0.58165 0.82813 -0.16365
 H1637 H 0.61920 0.79659 -0.19312
 H1638 H 0.57127 0.86743 -0.12535
 H1639 H 0.68682 0.87095 -0.10158
 H1640 H 0.67522 0.91280 -0.06346
 H1641 H 0.63647 0.94710 -0.03688
 H1642 H 0.56073 0.90720 -0.08913
 C1643 C 1.17272 0.33125 0.35478
 C1644 C 1.15089 0.34987 0.37124
 C1645 C 1.11807 0.34851 0.36437
 C1646 C 1.10756 0.32875 0.34152
 C1647 C 1.12940 0.31122 0.32486
 C1648 C 1.16203 0.31247 0.33115
 C1649 C 1.09620 0.36749 0.37993
 C1650 C 1.10655 0.38839 0.40201
 C1651 C 1.13916 0.39009 0.40915
 C1652 C 1.16124 0.37055 0.39380
 C1653 C 1.14892 0.41150 0.43135
 C1654 C 1.12649 0.43091 0.44625
 C1655 C 1.09399 0.42914 0.43917
 C1656 C 1.08445 0.40778 0.41688
 H1657 H 1.19799 0.33257 0.35942
 H1658 H 1.08250 0.32753 0.33607
 H1659 H 1.12084 0.29685 0.30675
 H1660 H 1.07108 0.36639 0.37453
 H1661 H 1.18636 0.37183 0.39908
 H1662 H 1.17384 0.41321 0.43719
 H1663 H 1.13452 0.44708 0.46336
 H1664 H 1.05955 0.40601 0.41091
 C1665 C 0.31452 0.84723 0.14742
 C1666 C 0.33329 0.86120 0.12510
 C1667 C 0.35366 0.84057 0.10866
 C1668 C 0.35340 0.80623 0.11353
 C1669 C 0.33394 0.79248 0.13507
 C1670 C 0.31498 0.81284 0.15262
 C1671 C 0.37434 0.85460 0.08799
 C1672 C 0.37446 0.88895 0.08298
 C1673 C 0.35261 0.90936 0.09795
 C1674 C 0.33239 0.89542 0.11915
 C1675 C 0.35196 0.94351 0.09192
 C1676 C 0.37369 0.95753 0.07227
 C1677 C 0.39680 0.93774 0.05874
 C1678 C 0.39666 0.90334 0.06380
 H1679 H 0.29967 0.86299 0.16077
 H1680 H 0.36856 0.79003 0.10090
 H1681 H 0.33462 0.76598 0.13882
 H1682 H 0.39066 0.83884 0.07609
 H1683 H 0.31630 0.91122 0.13124
 H1684 H 0.33519 0.95953 0.10297
 H1685 H 0.37361 0.98410 0.06888
 H1686 H 0.41444 0.88793 0.05337
 C1687 C 0.81324 0.34550 0.64580
 C1688 C 0.83169 0.35952 0.62328
 C1689 C 0.85155 0.33890 0.60636
 C1690 C 0.85106 0.30450 0.61099
 C1691 C 0.83191 0.29070 0.63279
 C1692 C 0.81352 0.31106 0.65082
 C1693 C 0.87202 0.35301 0.58550
 C1694 C 0.87242 0.38745 0.58085
 C1695 C 0.85096 0.40783 0.59631
 C1696 C 0.83100 0.39380 0.61765
 C1697 C 0.85046 0.44207 0.59065
 C1698 C 0.87212 0.45623 0.57101
 C1699 C 0.89497 0.43651 0.55705
 C1700 C 0.89454 0.40199 0.56162
 H1701 H 0.79885 0.36129 0.65954
 H1702 H 0.86586 0.28828 0.59803
 H1703 H 0.83245 0.26415 0.63636
 H1704 H 0.88797 0.33724 0.57321
 H1705 H 0.81531 0.40962 0.63017
 H1706 H 0.83388 0.45802 0.60198
 H1707 H 0.87221 0.48286 0.56803
 H1708 H 0.91207 0.38661 0.55083
 C1709 C 1.16368 1.14546 0.66933
 C1710 C 1.14791 1.12745 0.64792
 C1711 C 1.15555 1.13311 0.61847
 C1712 C 1.17882 1.15648 0.61094
 C1713 C 1.19407 1.17462 0.63236
 C1714 C 1.18655 1.16943 0.66169
 C1715 C 1.13944 1.11578 0.59696
 C1716 C 1.11537 1.09331 0.60444
 C1717 C 1.10765 1.08744 0.63379
 C1718 C 1.12420 1.10440 0.65544
 C1719 C 1.08314 1.06512 0.64085
 C1720 C 1.06606 1.04931 0.61896
 C1721 C 1.07342 1.05546 0.58972
 C1722 C 1.09846 1.07719 0.58277
 H1723 H 1.15757 1.14135 0.69188
 H1724 H 1.18492 1.16104 0.58847
 H1725 H 1.21174 1.19278 0.62593
 H1726 H 1.14521 1.12026 0.57436
 H1727 H 1.11825 1.10013 0.67801
 H1728 H 1.07690 1.06028 0.66325
 H1729 H 1.04693 1.03258 0.62490
 H1730 H 1.10453 1.08223 0.56036
 C1731 C 0.66248 0.64700 0.16927
 C1732 C 0.64622 0.62952 0.14783
 C1733 C 0.65504 0.63381 0.11849
 C1734 C 0.68001 0.65526 0.11108
 C1735 C 0.69576 0.67291 0.13251
 C1736 C 0.68702 0.66913 0.16171
 C1737 C 0.63848 0.61701 0.09694
 C1738 C 0.61294 0.59631 0.10428
 C1739 C 0.60405 0.59179 0.13354
 C1740 C 0.62091 0.60834 0.15523
 C1741 C 0.57825 0.57107 0.14048
 C1742 C 0.56126 0.55525 0.11854
 C1743 C 0.56990 0.55995 0.08939
 C1744 C 0.59595 0.58038 0.08257
 H1745 H 0.65544 0.64403 0.19172
 H1746 H 0.68705 0.65874 0.08868
 H1747 H 0.71474 0.68965 0.12617
 H1748 H 0.64517 0.62041 0.07442
 H1749 H 0.61409 0.60510 0.17773
 H1750 H 0.57110 0.56729 0.16280
 H1751 H 0.54129 0.53957 0.12438
 H1752 H 0.60308 0.58417 0.06022
 C1753 C 1.15773 0.84319 0.33028
 C1754 C 1.13949 0.85841 0.35176
 C1755 C 1.14688 0.85270 0.38119
 C1756 C 1.17249 0.83224 0.38867
 C1757 C 1.19048 0.81707 0.36714
 C1758 C 1.18313 0.82219 0.33781
 C1759 C 1.12848 0.86741 0.40274
 C1760 C 1.10294 0.88791 0.39525
 C1761 C 1.09554 0.89398 0.36591
 C1762 C 1.11387 0.87905 0.34425
 C1763 C 1.07008 0.91507 0.35890
 C1764 C 1.05249 0.93037 0.38085
 C1765 C 1.05995 0.92436 0.41002
 C1766 C 1.08502 0.90281 0.41692
 H1767 H 1.15182 0.84738 0.30774
 H1768 H 1.17842 0.82773 0.41115
 H1769 H 1.20987 0.80097 0.37356
 H1770 H 1.13407 0.86298 0.42534
 H1771 H 1.10828 0.88351 0.32166
 H1772 H 1.06408 0.92003 0.33650
 H1773 H 1.03329 0.94703 0.37503
 H1774 H 1.09132 0.89813 0.43930
 C1775 C 0.66229 0.34867 -0.16994
 C1776 C 0.64510 0.36532 -0.14857
 C1777 C 0.65415 0.36190 -0.11927
 C1778 C 0.68051 0.34241 -0.11189
 C1779 C 0.69733 0.32563 -0.13330
 C1780 C 0.68812 0.32824 -0.16243
 C1781 C 0.63639 0.37748 -0.09774
 C1782 C 0.60950 0.39613 -0.10509
 C1783 C 0.60057 0.40007 -0.13434
 C1784 C 0.61858 0.38472 -0.15600
 C1785 C 0.57362 0.41907 -0.14129
 C1786 C 0.55556 0.43376 -0.11933
 C1787 C 0.56419 0.42941 -0.09021
 C1788 C 0.59132 0.41070 -0.08338
 H1789 H 0.65497 0.35102 -0.19233
 H1790 H 0.68778 0.33969 -0.08953
 H1791 H 0.71724 0.31020 -0.12693
 H1792 H 0.64318 0.37467 -0.07522
 H1793 H 0.61172 0.38743 -0.17850
 H1794 H 0.56649 0.42248 -0.16361
 H1795 H 0.53487 0.44837 -0.12512
 H1796 H 0.59859 0.40753 -0.06105
 C1797 C 0.84674 1.15636 0.33086
 C1798 C 0.86476 1.14055 0.35223
 C1799 C 0.85794 1.14666 0.38171
 C1800 C 0.83324 1.16823 0.38935
 C1801 C 0.81547 1.18393 0.36794
 C1802 C 0.82213 1.17828 0.33855
 C1803 C 0.87589 1.13112 0.40315
 C1804 C 0.90039 1.10935 0.39554
 C1805 C 0.90727 1.10293 0.36617
 C1806 C 0.88944 1.11876 0.34459
 C1807 C 0.93172 1.08065 0.35903
 C1808 C 0.94875 1.06446 0.38090
 C1809 C 0.94172 1.07069 0.41012
 C1810 C 0.91770 1.09348 0.41714
 H1811 H 0.85217 1.15180 0.30828
 H1812 H 0.82776 1.17306 0.41187
 H1813 H 0.79662 1.20064 0.37448
 H1814 H 0.87066 1.13579 0.42578
 H1815 H 0.89465 1.11404 0.32197
 H1816 H 0.93733 1.07543 0.33661
 H1817 H 0.96712 1.04690 0.37494
 H1818 H 0.91179 1.09846 0.43955
 C1819 C 0.34221 0.65532 -0.16777
 C1820 C 0.36039 0.63947 -0.14664
 C1821 C 0.35610 0.64798 -0.11725
 C1822 C 0.33363 0.67205 -0.10952
 C1823 C 0.31569 0.68790 -0.13079
 C1824 C 0.31992 0.67975 -0.16007
 C1825 C 0.37442 0.63237 -0.09608
 C1826 C 0.39687 0.60839 -0.10394
 C1827 C 0.40123 0.59974 -0.13325
 C1828 C 0.38291 0.61543 -0.15451
 C1829 C 0.42371 0.57544 -0.14067
 C1830 C 0.44148 0.55962 -0.11910
 C1831 C 0.43705 0.56813 -0.08993
 C1832 C 0.41482 0.59274 -0.08267
 H1833 H 0.34583 0.64889 -0.19029
 H1834 H 0.33007 0.67874 -0.08706
 H1835 H 0.29859 0.70657 -0.12432
 H1836 H 0.37118 0.63886 -0.07350
 H1837 H 0.38614 0.60895 -0.17708
 H1838 H 0.42735 0.56851 -0.16305
 H1839 H 0.45839 0.54061 -0.12521
 H1840 H 0.41103 0.59962 -0.06027
 C1841 C 0.83163 0.85503 0.66973
 C1842 C 0.84757 0.87302 0.64834
 C1843 C 0.83991 0.86785 0.61893
 C1844 C 0.81627 0.84504 0.61144
 C1845 C 0.80096 0.82668 0.63291
 C1846 C 0.80874 0.83135 0.66213
 C1847 C 0.85664 0.88480 0.59742
 C1848 C 0.88152 0.90602 0.60492
 C1849 C 0.88916 0.91152 0.63425
 C1850 C 0.87175 0.89526 0.65589
 C1851 C 0.91460 0.93247 0.64127
 C1852 C 0.93287 0.94706 0.61931
 C1853 C 0.92565 0.94099 0.59016
 C1854 C 0.89952 0.92097 0.58325
 H1855 H 0.83789 0.85868 0.69223
 H1856 H 0.81014 0.84089 0.58899
 H1857 H 0.78319 0.80868 0.62663
 H1858 H 0.85100 0.88064 0.57483
 H1859 H 0.87762 0.89913 0.67846
 H1860 H 0.92073 0.93702 0.66366
 H1861 H 0.95278 0.96269 0.62513
 H1862 H 0.89349 0.91618 0.56087
 C1863 C 0.33640 0.35017 0.16985
 C1864 C 0.35238 0.36810 0.14849
 C1865 C 0.34296 0.36500 0.11928
 C1866 C 0.31760 0.34418 0.11197
 C1867 C 0.30208 0.32597 0.13342
 C1868 C 0.31154 0.32873 0.16241
 C1869 C 0.35945 0.38219 0.09778
 C1870 C 0.38559 0.40182 0.10507
 C1871 C 0.39503 0.40515 0.13422
 C1872 C 0.37811 0.38843 0.15587
 C1873 C 0.42155 0.42470 0.14104
 C1874 C 0.43890 0.44029 0.11901
 C1875 C 0.42972 0.43655 0.09001
 C1876 C 0.40279 0.41762 0.08335
 H1877 H 0.34394 0.35224 0.19219
 H1878 H 0.31011 0.34163 0.08968
 H1879 H 0.28270 0.30974 0.12735
 H1880 H 0.35239 0.37972 0.07532
 H1881 H 0.38532 0.39067 0.17830
 H1882 H 0.42907 0.42759 0.16329
 H1883 H 0.45958 0.45490 0.12462
 H1884 H 0.39523 0.41474 0.06110
   
