data_POSCAR
  _audit_creation_date              2014-09-24
  _audit_creation_method            'ToBaCCo'
  _symmetry_space_group_name_H-M    'P1'
  _symmetry_Int_Tables_number       1
  _symmetry_cell_setting            triclinic
  loop_
  _symmetry_equiv_pos_as_xyz
 x,y,z
_cell_length_a 76.5668
_cell_length_b 80.2429
_cell_length_c 69.7335
_cell_angle_alpha 89.842100
_cell_angle_beta 89.681200
_cell_angle_gamma 90.296100
loop_
  _atom_site_label
  _atom_site_type_symbol
  _atom_site_fract_x
  _atom_site_fract_y
  _atom_site_fract_z
C1 C 0.32463 0.42111 0.91286
 N2 N 0.33933 0.42907 0.91881
 C3 C 0.34906 0.42287 0.93336
 N4 N 0.34398 0.40839 0.94183
 C5 C 0.32944 0.40014 0.93602
 N6 N 0.31969 0.40664 0.92159
 C7 C 0.40914 0.86656 0.41229
 N8 N 0.41596 0.85825 0.39707
 C9 C 0.41038 0.84270 0.39254
 N10 N 0.39760 0.83537 0.40330
 C11 C 0.39019 0.84373 0.41821
 N12 N 0.39617 0.85920 0.42273
 C13 C 0.90930 0.89066 0.82377
 N14 N 0.91816 0.89909 0.83750
 C15 C 0.91228 0.91383 0.84440
 N16 N 0.89699 0.91989 0.83767
 C17 C 0.88791 0.91165 0.82392
 N18 N 0.89415 0.89703 0.81672
 C19 C 0.42885 -0.10156 0.31039
 N20 N 0.41370 -0.09449 0.30437
 C21 C 0.40653 -0.08153 0.31410
 N22 N 0.41483 -0.07540 0.32975
 C23 C 0.43008 -0.08213 0.33583
 N24 N 0.43690 -0.09527 0.32617
 C25 C 0.83254 0.33117 0.34807
 N26 N 0.82636 0.34668 0.34393
 C27 C 0.83461 0.35625 0.33045
 N28 N 0.84865 0.35009 0.32094
 C29 C 0.85470 0.33465 0.32471
 N30 N 0.84664 0.32531 0.33836
 C31 C -0.16564 0.85894 0.82653
 N32 N -0.17571 0.85009 0.83901
 C33 C -0.17081 0.83479 0.84538
 N34 N -0.15549 0.82821 0.83886
 C35 C -0.14500 0.83715 0.82669
 N36 N -0.15022 0.85244 0.82072
 C37 C 0.91873 0.36132 0.42527
 N38 N 0.92679 0.35447 0.40966
 C39 C 0.91885 0.34198 0.39969
 N40 N 0.90296 0.33628 0.40550
 C41 C 0.89503 0.34258 0.42131
 N42 N 0.90297 0.35506 0.43116
 C43 C 0.41535 0.42050 0.85953
 N44 N 0.42457 0.40710 0.85343
 C45 C 0.42032 0.39898 0.83704
 N46 N 0.40677 0.40463 0.82634
 C47 C 0.39742 0.41810 0.83219
 N48 N 0.40172 0.42587 0.84883
 C49 C 0.83598 0.88240 0.91844
 N50 N 0.85033 0.89029 0.92526
 C51 C 0.85482 0.90587 0.91925
 N52 N 0.84482 0.91353 0.90570
 C53 C 0.83079 0.90544 0.89806
 N54 N 0.82639 0.89005 0.90473
 C55 C 0.34558 0.86420 0.32718
 N56 N 0.33583 0.85719 0.34156
 C57 C 0.34329 0.84640 0.35412
 N58 N 0.36023 0.84205 0.35176
 C59 C 0.36996 0.84856 0.33730
 N60 N 0.36262 0.85975 0.32522
 C61 C 0.83933 0.39409 0.42834
 N62 N 0.83132 0.40009 0.41247
 C63 C 0.83731 0.41415 0.40372
 N64 N 0.85122 0.42242 0.41122
 C65 C 0.85937 0.41650 0.42709
 N66 N 0.85332 0.40234 0.43555
 C67 C 0.91858 0.85215 -0.06732
 N68 N 0.90531 0.84388 -0.05829
 C69 C 0.89714 0.83087 -0.06677
 N70 N 0.90223 0.82619 -0.08453
 C71 C 0.91570 0.83385 -0.09371
 N72 N 0.92400 0.84682 -0.08496
 C73 C 0.33951 0.36737 0.84057
 N74 N 0.35250 0.36010 0.83035
 C75 C 0.35855 0.34478 0.83518
 N76 N 0.35111 0.33644 0.85025
 C77 C 0.33827 0.34379 0.86082
 N78 N 0.33259 0.35923 0.85593
 C79 C 0.14263 0.59552 0.58574
 N80 N 0.15250 0.58974 0.60043
 C81 C 0.16631 0.59872 0.60701
 N82 N 0.17014 0.61370 0.59880
 C83 C 0.16045 0.61947 0.58394
 N84 N 0.14691 0.61026 0.57726
 C85 C 0.60730 0.65476 0.08308
 N86 N 0.59972 0.66588 0.09517
 C87 C 0.58546 0.66155 0.10580
 N88 N 0.57854 0.64598 0.10395
 C89 C 0.58623 0.63469 0.09215
 N90 N 0.60059 0.63912 0.08180
 C91 C 0.65879 0.16143 0.64589
 N92 N 0.64568 0.16920 0.65532
 C93 C 0.63817 0.16214 0.67103
 N94 N 0.64407 0.14720 0.67768
 C95 C 0.65716 0.13924 0.66804
 N96 N 0.66434 0.14641 0.65218
 C97 C 1.09656 0.07511 0.17867
 N98 N 1.08551 0.06823 0.16550
 C99 C 1.07037 0.07623 0.16062
 N100 N 1.06644 0.09097 0.16930
 C101 C 1.07735 0.09789 0.18231
 N102 N 1.09226 0.08991 0.18672
 C103 C 0.05538 0.17201 1.04344
 N104 N 0.04876 0.17738 1.06041
 C105 C 0.05615 0.19037 1.06999
 N106 N 0.07074 0.19784 1.06247
 C107 C 0.07751 0.19256 1.04544
 N108 N 0.06968 0.17979 1.03608
 C109 C 0.14315 0.66574 0.66458
 N110 N 0.15301 0.67124 0.64962
 C111 C 0.16820 0.66360 0.64496
 N112 N 0.17345 0.65029 0.65538
 C113 C 0.16372 0.64458 0.67037
 N114 N 0.14863 0.65249 0.67514
 C115 C 1.18533 0.14746 0.18606
 N116 N 1.17145 0.15384 0.19577
 C117 C 1.16709 0.17009 0.19422
 N118 N 1.17670 0.18009 0.18259
 C119 C 1.19057 0.17417 0.17252
 N120 N 1.19493 0.15774 0.17437
 C121 C 0.64929 1.08062 0.56068
 N122 N 0.65571 1.09510 0.55325
 C123 C 0.66994 1.10276 0.56081
 N124 N 0.67780 1.09563 0.57619
 C125 C 0.67163 1.08114 0.58399
 N126 N 0.65732 1.07366 0.57613
 C127 C 0.58893 0.59191 0.15480
 N128 N 0.58303 0.60580 0.16368
 C129 C 0.59280 0.61369 0.17706
 N130 N 0.60887 0.60770 0.18129
 C131 C 0.61497 0.59383 0.17248
 N132 N 0.60479 0.58567 0.15961
 C133 C 0.64315 0.65712 0.17216
 N134 N 0.64854 0.66180 0.15440
 C135 C 0.66465 0.65759 0.14786
 N136 N 0.67536 0.64835 0.15917
 C137 C 0.66994 0.64328 0.17690
 N138 N 0.65392 0.64798 0.18338
 C139 C 0.17150 0.05166 1.02562
 N140 N 0.18262 0.04389 1.03779
 C141 C 0.19808 0.05095 1.04276
 N142 N 0.20244 0.06602 1.03521
 C143 C 0.19157 0.07403 1.02296
 N144 N 0.17605 0.06682 1.01833
 C145 C 0.60858 0.15966 0.58948
 N146 N 0.59860 0.16641 0.60366
 C147 C 0.58316 0.15916 0.60875
 N148 N 0.57741 0.14561 0.59906
 C149 C 0.58701 0.13903 0.58456
 N150 N 0.60270 0.14598 0.57996
 C151 C 0.09613 0.57715 0.68892
 N152 N 0.08676 0.59056 0.69473
 C153 C 0.07298 0.59604 0.68429
 N154 N 0.06868 0.58796 0.66781
 C155 C 0.07803 0.57458 0.66176
 N156 N 0.09167 0.56927 0.67245
 C157 C 0.64140 0.58694 0.08823
 N158 N 0.65016 0.60056 0.08161
 C159 C 0.66351 0.60722 0.09193
 N160 N 0.66833 0.59988 0.10864
 C161 C 0.65958 0.58633 0.11538
 N162 N 0.64620 0.57998 0.10511
 C163 C 0.09204 0.65661 0.61040
 N164 N 0.10413 0.66685 0.60231
 C165 C 0.11253 0.66254 0.58586
 N166 N 0.10822 0.64795 0.57704
 C167 C 0.09624 0.63745 0.58524
 N168 N 0.08824 0.64187 0.60192
 C169 C 0.55159 1.06307 0.68601
 N170 N 0.54421 1.07807 0.68988
 C171 C 0.55090 1.08823 0.70355
 N172 N 0.56516 1.08327 0.71351
 C173 C 0.57262 1.06829 0.70994
 N174 N 0.56583 1.05830 0.69613
 C175 C 0.41342 0.36825 0.91929
 N176 N 0.39917 0.36191 0.92858
 C177 C 0.38913 0.34992 0.92027
 N178 N 0.39378 0.34396 0.90280
 C179 C 0.40805 0.34995 0.89347
 N180 N 0.41772 0.36212 0.90175
 C181 C 0.91946 0.40994 0.36087
 N182 N 0.92315 0.39483 0.35330
 C183 C 0.91298 0.38805 0.33943
 N184 N 0.89863 0.39650 0.33332
 C185 C 0.89433 0.41131 0.34152
 N186 N 0.90496 0.41804 0.35493
 C187 C 0.33803 0.91488 0.38422
 N188 N 0.33072 0.90007 0.38904
 C189 C 0.33315 0.89337 0.40669
 N190 N 0.34340 0.90158 0.41951
 C191 C 0.35098 0.91648 0.41479
 N192 N 0.34788 0.92319 0.39718
 O193 O 0.25495 0.55129 0.72381
 O194 O 0.28382 0.54821 0.71950
 O195 O 0.23463 0.50699 0.69674
 O196 O 0.23947 0.47908 0.70054
 O197 O 0.21144 0.52366 0.74756
 O198 O 0.21901 0.52259 0.78082
 O199 O 0.28648 0.46534 0.74489
 O200 O 0.28375 0.47101 0.71234
 O201 O 0.30565 0.50904 0.77046
 O202 O 0.29835 0.53778 0.76583
 O203 O 0.26521 0.48456 0.79564
 O204 O 0.23319 0.48293 0.79040
 O205 O 0.26825 0.46414 0.77075
 O206 O 0.23454 0.46561 0.76839
 O207 O 0.28452 0.50615 0.79471
 O208 O 0.27566 0.53584 0.79023
 O209 O 0.30615 0.48785 0.74884
 O210 O 0.30076 0.49413 0.71193
 O211 O 0.23307 0.54866 0.74591
 O212 O 0.23729 0.54263 0.78032
 O213 O 0.21250 0.50347 0.72472
 O214 O 0.22283 0.47431 0.72605
 O215 O 0.25316 0.52928 0.69647
 O216 O 0.28624 0.52713 0.70131
 Zr217 Zr 0.26658 0.52775 0.72275
 O218 O 0.28534 0.51492 0.73904
 Zr219 Zr 0.23873 0.49590 0.72381
 O220 O 0.25648 0.48124 0.73946
 Zr221 Zr 0.23718 0.52483 0.75802
 O222 O 0.25436 0.51121 0.77547
 Zr223 Zr 0.28220 0.48932 0.73401
 O224 O 0.26454 0.50224 0.71604
 Zr225 Zr 0.28007 0.51800 0.76835
 O226 O 0.26294 0.53294 0.75215
 Zr227 Zr 0.25261 0.48568 0.76890
 O228 O 0.23359 0.49908 0.75330
 O229 O 0.24090 0.52124 0.72895
 O230 O 0.27806 0.49268 0.76308
 C231 C 0.24142 0.55675 0.73275
 C232 C 0.24074 0.52051 0.68920
 C233 C 0.20440 0.51469 0.73439
 C234 C 0.28080 0.45842 0.76035
 C235 C 0.31275 0.49613 0.76287
 C236 C 0.27791 0.49309 0.80265
 H237 H 0.29728 0.51881 0.73584
 H238 H 0.25184 0.51345 0.78915
 H239 H 0.23232 0.52788 0.72172
 H240 H 0.25504 0.46934 0.73615
 H241 H 0.27734 0.47545 0.70116
 H242 H 0.24826 0.47054 0.70370
 H243 H 0.28620 0.53615 0.79842
 H244 H 0.24759 0.54989 0.77809
 H245 H 0.31110 0.49955 0.71767
 H246 H 0.28333 0.51779 0.69262
 H247 H 0.23366 0.49296 0.79860
 H248 H 0.21473 0.51093 0.78062
 H249 H 0.29249 0.54731 0.72989
 H250 H 0.29156 0.54788 0.76268
 H251 H 0.21672 0.47495 0.73857
 H252 H 0.23883 0.45731 0.75905
 O253 O 0.30122 -0.01889 0.24271
 O254 O 0.29790 0.01077 0.23464
 O255 O 0.25768 -0.03131 0.27548
 O256 O 0.22803 -0.02753 0.27324
 O257 O 0.27296 -0.06096 0.22966
 O258 O 0.26732 -0.05963 0.19487
 O259 O 0.20980 0.00854 0.21994
 O260 O 0.21725 0.00890 0.25386
 O261 O 0.25362 0.02445 0.19033
 O262 O 0.28437 0.01634 0.18983
 O263 O 0.22748 -0.01949 0.17406
 O264 O 0.22740 -0.04889 0.18691
 O265 O 0.20635 -0.01394 0.20058
 O266 O 0.20950 -0.04380 0.20758
 O267 O 0.24945 -0.00083 0.16898
 O268 O 0.28185 -0.00421 0.17323
 O269 O 0.23417 0.02821 0.21464
 O270 O 0.23897 0.02844 0.24687
 O271 O 0.29793 -0.04065 0.22210
 O272 O 0.28867 -0.04303 0.18931
 O273 O 0.25316 -0.05670 0.25366
 O274 O 0.22252 -0.04848 0.25261
 O275 O 0.27992 -0.01283 0.27005
 O276 O 0.28088 0.01597 0.25743
 Zr277 Zr 0.27725 -0.00596 0.24109
 O278 O 0.26165 0.00895 0.22327
 Zr279 Zr 0.24423 -0.03226 0.24920
 O280 O 0.22727 -0.01864 0.23141
 Zr281 Zr 0.27188 -0.03900 0.21299
 O282 O 0.25638 -0.02542 0.19371
 Zr283 Zr 0.23523 0.00635 0.23091
 O284 O 0.25101 -0.00676 0.25073
 Zr285 Zr 0.26305 0.00004 0.19503
 O286 O 0.28024 -0.01391 0.21251
 Zr287 Zr 0.23021 -0.02666 0.20289
 O288 O 0.24551 -0.04182 0.22109
 O289 O 0.27024 -0.03086 0.24106
 O290 O 0.23675 -0.00144 0.20255
 C291 C 0.30669 -0.03226 0.23446
 C292 C 0.27146 -0.02327 0.28059
 C293 C 0.26505 -0.06532 0.24526
 C294 C 0.20096 -0.00023 0.20796
 C295 C 0.24211 0.03310 0.19936
 C296 C 0.23592 -0.00902 0.16350
 H297 H 0.26545 0.02071 0.22431
 H298 H 0.25793 -0.02999 0.18067
 H299 H 0.27775 -0.03741 0.24969
 H300 H 0.21508 -0.01970 0.23600
 H301 H 0.22364 0.00613 0.26575
 H302 H 0.21753 -0.02169 0.26857
 H303 H 0.27847 -0.01450 0.16638
 H304 H 0.29528 -0.03253 0.18735
 H305 H 0.24625 0.02541 0.25797
 H306 H 0.27192 0.01589 0.26772
 H307 H 0.23681 -0.04910 0.17715
 H308 H 0.25615 -0.06475 0.19913
 H309 H 0.30302 0.00710 0.22229
 H310 H 0.28529 0.02391 0.20094
 H311 H 0.22243 -0.05592 0.24131
 H312 H 0.20346 -0.04060 0.21958
 O313 O 0.49507 0.69301 0.24336
 O314 O 0.46448 0.70200 0.24654
 O315 O 0.52002 0.73199 0.21404
 O316 O 0.52158 0.76053 0.21736
 O317 O 0.54279 0.71283 0.26514
 O318 O 0.53670 0.71612 0.29877
 O319 O 0.48199 0.78396 0.26425
 O320 O 0.48243 0.77618 0.23061
 O321 O 0.45467 0.74523 0.29216
 O322 O 0.45650 0.71382 0.28967
 O323 O 0.49657 0.76405 0.31174
 O324 O 0.53006 0.75510 0.30858
 O325 O 0.50357 0.78280 0.28648
 O326 O 0.53356 0.77303 0.28678
 O327 O 0.47737 0.74266 0.31595
 O328 O 0.47554 0.71226 0.31024
 O329 O 0.45767 0.76585 0.26994
 O330 O 0.45760 0.75958 0.23634
 O331 O 0.51680 0.69222 0.26555
 O332 O 0.51523 0.69921 0.29969
 O333 O 0.54386 0.73055 0.23952
 O334 O 0.54109 0.76142 0.24096
 O335 O 0.49696 0.71407 0.21615
 O336 O 0.46599 0.71882 0.22350
 Zr337 Zr 0.48646 0.71790 0.24373
 O338 O 0.47171 0.73491 0.25996
 Zr339 Zr 0.52025 0.74399 0.24100
 O340 O 0.50712 0.76214 0.25738
 Zr341 Zr 0.51773 0.71648 0.27687
 O342 O 0.50430 0.73319 0.29476
 Zr343 Zr 0.48002 0.75937 0.25391
 O344 O 0.49316 0.74247 0.23546
 Zr345 Zr 0.47747 0.73113 0.28906
 O346 O 0.49072 0.71288 0.27300
 Zr347 Zr 0.51104 0.75767 0.28683
 O348 O 0.52620 0.74088 0.27033
 O349 O 0.51318 0.71986 0.24785
 O350 O 0.48448 0.75561 0.28275
 C351 C 0.50781 0.68574 0.25190
 C352 C 0.51032 0.72022 0.20732
 C353 C 0.55020 0.71886 0.25005
 C354 C 0.49154 0.79058 0.27736
 C355 C 0.45011 0.75913 0.28461
 C356 C 0.48390 0.75676 0.32075
 H357 H 0.45911 0.73360 0.25727
 H358 H 0.50698 0.73093 0.30836
 H359 H 0.51980 0.71189 0.23994
 H360 H 0.51119 0.77336 0.25344
 H361 H 0.48507 0.76941 0.21911
 H362 H 0.51536 0.77079 0.22113
 H363 H 0.48632 0.71270 0.31798
 H364 H 0.50358 0.69395 0.29843
 H365 H 0.46006 0.75195 0.22559
 H366 H 0.46912 0.72754 0.21400
 H367 H 0.52403 0.75155 0.32050
 H368 H 0.54300 0.72689 0.29792
 H369 H 0.46553 0.69638 0.25913
 H370 H 0.44804 0.71707 0.27968
 H371 H 0.54803 0.75918 0.25261
 H372 H 0.53428 0.77832 0.27397
 O373 O 0.01086 0.70320 0.74282
 O374 O -0.02053 0.70568 0.74596
 O375 O 0.02277 0.74267 0.70304
 O376 O 0.02099 0.77064 0.70184
 O377 O 0.05332 0.73536 0.75461
 O378 O 0.04909 0.74277 0.78738
 O379 O -0.02372 0.79051 0.74579
 O380 O -0.02319 0.77736 0.71500
 O381 O -0.03926 0.75090 0.78375
 O382 O -0.02884 0.72371 0.79072
 O383 O 0.00438 0.78180 0.79798
 O384 O 0.03381 0.78437 0.78732
 O385 O -0.00438 0.79660 0.76942
 O386 O 0.02957 0.79540 0.76060
 O387 O -0.01603 0.76176 0.80403
 O388 O -0.00714 0.73004 0.80687
 O389 O -0.04248 0.76833 0.75828
 O390 O -0.04237 0.75702 0.72680
 O391 O 0.03310 0.71043 0.76270
 O392 O 0.03133 0.72341 0.79489
 O393 O 0.04889 0.74861 0.72612
 O394 O 0.03851 0.77879 0.72342
 O395 O 0.00755 0.71930 0.71155
 O396 O -0.02418 0.71915 0.72035
 Zr397 Zr -0.00322 0.72534 0.73869
 O398 O -0.02093 0.74088 0.75329
 Zr399 Zr 0.02286 0.75730 0.72789
 O400 O 0.00590 0.77441 0.74124
 Zr401 Zr 0.02890 0.73596 0.76835
 O402 O 0.01292 0.75251 0.78376
 Zr403 Zr -0.01973 0.76495 0.74150
 O404 O -0.00332 0.74896 0.72531
 Zr405 Zr -0.01298 0.74401 0.78192
 O406 O 0.00324 0.72642 0.76806
 Zr407 Zr 0.01280 0.77601 0.77025
 O408 O 0.03096 0.76011 0.75652
 O409 O 0.02238 0.73359 0.73970
 O410 O -0.01285 0.76771 0.77000
 C411 C 0.02496 0.69991 0.75200
 C412 C 0.01730 0.72777 0.69992
 C413 C 0.05829 0.74003 0.73780
 C414 C -0.01767 0.80006 0.75891
 C415 C -0.04777 0.76183 0.77421
 C416 C -0.00822 0.77560 0.80789
 H417 H -0.03290 0.73624 0.75244
 H418 H 0.01695 0.75324 0.79717
 H419 H 0.03021 0.72585 0.73286
 H420 H 0.00656 0.78533 0.73466
 H421 H -0.01939 0.76956 0.70483
 H422 H 0.00977 0.77666 0.70234
 H423 H -0.00059 0.73734 0.81573
 H424 H 0.02141 0.71549 0.79580
 H425 H -0.03856 0.74840 0.71765
 H426 H -0.02288 0.72608 0.70866
 H427 H 0.03666 0.77517 0.79622
 H428 H 0.05331 0.75388 0.78319
 H429 H -0.01810 0.70273 0.75948
 H430 H -0.03516 0.71978 0.77924
 H431 H 0.04727 0.77901 0.73381
 H432 H 0.02262 0.80314 0.75266
 O433 O -0.01012 0.05030 0.02173
 O434 O -0.03862 0.03871 0.02694
 O435 O 0.02299 0.00857 0.03292
 O436 O 0.02410 -0.01916 0.02088
 O437 O 0.03241 0.03859 -0.01659
 O438 O 0.01921 0.04120 -0.04702
 O439 O -0.02452 -0.03595 -0.01654
 O440 O -0.01857 -0.03453 0.01767
 O441 O -0.05863 0.00521 -0.02480
 O442 O -0.05581 0.03533 -0.01719
 O443 O -0.01919 -0.00584 -0.06227
 O444 O 0.01305 0.00260 -0.06396
 O445 O -0.00938 -0.02915 -0.04360
 O446 O 0.02078 -0.01769 -0.04791
 O447 O -0.04264 0.00949 -0.05305
 O448 O -0.03952 0.04016 -0.04398
 O449 O -0.04982 -0.01900 -0.01104
 O450 O -0.03910 -0.01868 0.02518
 O451 O 0.00538 0.05691 -0.00518
 O452 O -0.00247 0.05514 -0.03879
 O453 O 0.04030 0.01598 0.00103
 O454 O 0.03766 -0.01377 -0.00461
 O455 O 0.00011 0.02461 0.04234
 O456 O -0.03104 0.01751 0.04262
 Zr457 Zr -0.01652 0.02495 0.01816
 O458 O -0.03431 0.01027 0.00232
 Zr459 Zr 0.01718 0.00197 0.00448
 O460 O 0.00105 -0.01404 -0.01151
 Zr461 Zr 0.00562 0.03493 -0.02153
 O462 O -0.01079 0.02040 -0.03902
 Zr463 Zr -0.02449 -0.01399 -0.00017
 O464 O -0.00760 0.00017 0.01757
 Zr465 Zr -0.03553 0.01914 -0.02607
 O466 O -0.01966 0.03515 -0.00953
 Zr467 Zr -0.00165 -0.00425 -0.03933
 O468 O 0.01606 0.01078 -0.02393
 O469 O 0.00842 0.02633 0.00640
 O470 O -0.02661 -0.00518 -0.02786
 C471 C -0.00141 0.06060 0.01118
 C472 C 0.01500 0.01765 0.04531
 C473 C 0.04375 0.02981 -0.00762
 C474 C -0.01856 -0.03930 -0.03337
 C475 C -0.06090 -0.01021 -0.02054
 C476 C -0.03490 -0.00064 -0.06451
 H477 H -0.04591 0.01026 0.00860
 H478 H -0.01153 0.02523 -0.05205
 H479 H 0.01639 0.03354 0.01385
 H480 H 0.00613 -0.02534 -0.01158
 H481 H -0.00682 -0.03844 0.01392
 H482 H 0.01406 -0.02156 0.02949
 H483 H -0.05031 0.03824 -0.05148
 H484 H -0.01400 0.05868 -0.03379
 H485 H -0.05108 -0.01446 0.02323
 H486 H -0.02715 0.00611 0.04589
 H487 H 0.00645 0.01120 -0.07103
 H488 H 0.02524 0.03094 -0.05120
 H489 H -0.04201 0.04565 0.01583
 H490 H -0.06101 0.03072 -0.00529
 H491 H 0.04078 -0.01026 -0.01782
 H492 H 0.02256 -0.02673 -0.03846
 O493 O -0.01546 0.46990 0.48199
 O494 O -0.01389 0.47776 0.51577
 O495 O -0.03720 0.51135 0.45448
 O496 O -0.03260 0.53916 0.45382
 O497 O 0.00770 0.48866 0.43266
 O498 O 0.03902 0.49150 0.44009
 O499 O 0.01297 0.55736 0.50460
 O500 O -0.01883 0.55604 0.49684
 O501 O 0.02855 0.51895 0.53211
 O502 O 0.02805 0.48848 0.52795
 O503 O 0.05374 0.53566 0.48153
 O504 O 0.04849 0.53091 0.44664
 O505 O 0.03205 0.55708 0.47949
 O506 O 0.02992 0.54909 0.44460
 O507 O 0.05153 0.52006 0.50867
 O508 O 0.04737 0.48743 0.50650
 O509 O 0.00694 0.53811 0.52937
 O510 O -0.02380 0.53715 0.52044
 O511 O 0.00712 0.46811 0.46075
 O512 O 0.03804 0.47407 0.46334
 O513 O -0.01230 0.50945 0.42977
 O514 O -0.00899 0.53968 0.43403
 O515 O -0.03836 0.49308 0.47950
 O516 O -0.03318 0.49682 0.51386
 Zr517 Zr -0.01364 0.49467 0.49248
 O518 O 0.00133 0.51054 0.51002
 Zr519 Zr -0.01201 0.52179 0.45622
 O520 O 0.00291 0.53897 0.47208
 Zr521 Zr 0.01831 0.49218 0.46023
 O522 O 0.03474 0.50802 0.47622
 Zr523 Zr -0.00220 0.53546 0.50140
 O524 O -0.01901 0.51978 0.48544
 Zr525 Zr 0.02811 0.50626 0.50550
 O526 O 0.01305 0.48876 0.48971
 Zr527 Zr 0.02937 0.53282 0.46857
 O528 O 0.01456 0.51688 0.45092
 O529 O -0.00804 0.49704 0.46363
 O530 O 0.02409 0.53074 0.49772
 C531 C -0.00638 0.46194 0.46936
 C532 C -0.04489 0.49994 0.46446
 C533 C -0.00462 0.49625 0.42371
 C534 C 0.02595 0.56343 0.49498
 C535 C 0.01947 0.53124 0.53855
 C536 C 0.05912 0.53118 0.49812
 H537 H -0.00208 0.50869 0.52356
 H538 H 0.04712 0.50516 0.47394
 H539 H -0.01537 0.48942 0.45599
 H540 H 0.00051 0.55058 0.46816
 H541 H -0.02955 0.55158 0.49079
 H542 H -0.02834 0.54993 0.45888
 H543 H 0.05777 0.49148 0.49937
 H544 H 0.03729 0.47008 0.47676
 H545 H -0.02353 0.52730 0.52898
 H546 H -0.03950 0.50729 0.51117
 H547 H 0.05608 0.52136 0.44978
 H548 H 0.03778 0.50150 0.43186
 H549 H -0.00258 0.47184 0.51537
 H550 H 0.01649 0.48905 0.53430
 H551 H 0.00212 0.53718 0.42734
 H552 H 0.02058 0.55744 0.44635
 O553 O 0.53209 0.02390 0.51002
 O554 O 0.52901 0.02029 0.47597
 O555 O 0.48913 0.05432 0.52495
 O556 O 0.46004 0.05405 0.52093
 O557 O 0.49989 0.01114 0.55823
 O558 O 0.49499 -0.01831 0.55355
 O559 O 0.44131 0.01030 0.47333
 O560 O 0.44930 0.03945 0.47602
 O561 O 0.48204 -0.01685 0.45729
 O562 O 0.51355 -0.01879 0.46739
 O563 O 0.45403 -0.03112 0.50556
 O564 O 0.45274 -0.02189 0.53911
 O565 O 0.43613 -0.00811 0.49755
 O566 O 0.43764 -0.00099 0.53390
 O567 O 0.47556 -0.03527 0.48354
 O568 O 0.50858 -0.03450 0.49035
 O569 O 0.46555 0.00626 0.45264
 O570 O 0.47253 0.03639 0.45630
 O571 O 0.52670 0.00655 0.53524
 O572 O 0.51632 -0.02223 0.53457
 O573 O 0.48223 0.03346 0.55336
 O574 O 0.45210 0.03471 0.54196
 O575 O 0.51252 0.04942 0.50548
 O576 O 0.51239 0.04121 0.47161
 Zr577 Zr 0.50825 0.02508 0.49524
 O578 O 0.49264 0.01099 0.47640
 Zr579 Zr 0.47467 0.03197 0.52456
 O580 O 0.45740 0.01850 0.50695
 Zr581 Zr 0.50040 -0.00097 0.53140
 O582 O 0.48410 -0.01612 0.51435
 Zr583 Zr 0.46669 0.01918 0.47862
 O584 O 0.48264 0.03463 0.49574
 Zr585 Zr 0.49183 -0.01402 0.48543
 O586 O 0.50945 -0.00033 0.50281
 Zr587 Zr 0.45848 -0.00674 0.51498
 O588 O 0.47431 0.00703 0.53401
 O589 O 0.50038 0.02396 0.52374
 O590 O 0.46633 -0.00574 0.48651
 C591 C 0.53669 0.01653 0.52560
 C592 C 0.50381 0.05855 0.51724
 C593 C 0.49208 0.02442 0.56397
 C594 C 0.43214 -0.00118 0.48152
 C595 C 0.47145 -0.00794 0.44732
 C596 C 0.46129 -0.03954 0.49214
 H597 H 0.49722 0.01201 0.46317
 H598 H 0.48453 -0.02777 0.51895
 H599 H 0.50792 0.03060 0.53231
 H600 H 0.44541 0.02297 0.50777
 H601 H 0.45542 0.04935 0.48120
 H602 H 0.44998 0.05129 0.51266
 H603 H 0.50322 -0.04154 0.50046
 H604 H 0.52307 -0.02329 0.52249
 H605 H 0.48295 0.03239 0.44929
 H606 H 0.50218 0.04872 0.47112
 H607 H 0.46212 -0.03027 0.54012
 H608 H 0.48314 -0.01571 0.55839
 H609 H 0.53221 0.00846 0.47785
 H610 H 0.51406 -0.00990 0.45755
 H611 H 0.45124 0.02463 0.55012
 H612 H 0.42959 0.00664 0.52720
 O613 O 0.50099 0.53244 0.04786
 O614 O 0.47085 0.52539 0.04943
 O615 O 0.52534 0.49117 0.07614
 O616 O 0.52516 0.46324 0.07336
 O617 O 0.54608 0.50937 0.02360
 O618 O 0.53810 0.50610 -0.00957
 O619 O 0.47790 0.44301 0.03015
 O620 O 0.48350 0.44965 0.06342
 O621 O 0.45435 0.48160 0.00449
 O622 O 0.45865 0.51271 0.00446
 O623 O 0.49839 0.46300 -0.02131
 O624 O 0.52954 0.46390 -0.01561
 O625 O 0.49589 0.44316 0.00415
 O626 O 0.52988 0.44789 0.00788
 O627 O 0.47571 0.48117 -0.02125
 O628 O 0.47733 0.51268 -0.01703
 O629 O 0.45573 0.46328 0.02935
 O630 O 0.46049 0.46951 0.06178
 O631 O 0.52212 0.53142 0.02469
 O632 O 0.51746 0.52397 -0.00926
 O633 O 0.54771 0.49054 0.04800
 O634 O 0.54134 0.45994 0.04750
 O635 O 0.50489 0.51168 0.07544
 O636 O 0.47219 0.50762 0.07142
 Zr637 Zr 0.49137 0.50789 0.04945
 O638 O 0.47421 0.49198 0.03458
 Zr639 Zr 0.52279 0.47935 0.04949
 O640 O 0.50685 0.46195 0.03520
 Zr641 Zr 0.52034 0.50697 0.01371
 O642 O 0.50479 0.49066 -0.00250
 Zr643 Zr 0.48055 0.46721 0.04099
 O644 O 0.49649 0.48308 0.05773
 Zr645 Zr 0.47841 0.49435 0.00482
 O646 O 0.49390 0.51202 0.01965
 Zr647 Zr 0.50982 0.46587 0.00561
 O648 O 0.52724 0.48212 0.01981
 O649 O 0.51748 0.50403 0.04300
 O650 O 0.48367 0.46978 0.01156
 C651 C 0.51361 0.53890 0.03809
 C652 C 0.51802 0.50424 0.08307
 C653 C 0.55417 0.50228 0.03748
 C654 C 0.48354 0.43673 0.01439
 C655 C 0.44820 0.46944 0.01455
 C656 C 0.48465 0.46930 -0.02882
 H657 H 0.46198 0.49434 0.03828
 H658 H 0.50709 0.49257 -0.01630
 H659 H 0.52527 0.51176 0.04991
 H660 H 0.50973 0.45040 0.03898
 H661 H 0.48799 0.45585 0.07462
 H662 H 0.51748 0.45354 0.07098
 H663 H 0.48676 0.51030 -0.02636
 H664 H 0.50623 0.52976 -0.00713
 H665 H 0.46562 0.47540 0.07283
 H666 H 0.47652 0.50030 0.08180
 H667 H 0.52903 0.47414 -0.02351
 H668 H 0.54454 0.49549 -0.00830
 H669 H 0.46949 0.52902 0.03595
 H670 H 0.45108 0.51090 0.01582
 H671 H 0.54778 0.46160 0.03529
 H672 H 0.52530 0.43834 0.01540
 O673 O 0.79138 0.26923 0.48628
 O674 O 0.78829 0.23893 0.48763
 O675 O 0.74372 0.28582 0.46358
 O676 O 0.71514 0.28291 0.47003
 O677 O 0.76600 0.30784 0.51269
 O678 O 0.76458 0.30090 0.54691
 O679 O 0.70358 0.23614 0.51798
 O680 O 0.70553 0.24236 0.48313
 O681 O 0.74940 0.21762 0.53530
 O682 O 0.77982 0.22616 0.53412
 O683 O 0.72540 0.25825 0.56419
 O684 O 0.72448 0.28836 0.55874
 O685 O 0.70207 0.25654 0.54053
 O686 O 0.70570 0.28801 0.53800
 O687 O 0.74488 0.23717 0.56059
 O688 O 0.77836 0.24458 0.55535
 O689 O 0.72702 0.21715 0.51404
 O690 O 0.72858 0.22277 0.48116
 O691 O 0.79114 0.28685 0.51185
 O692 O 0.78557 0.28356 0.54568
 O693 O 0.74405 0.30740 0.49073
 O694 O 0.71276 0.29870 0.49606
 O695 O 0.76663 0.26795 0.46166
 O696 O 0.76813 0.23715 0.46752
 Zr697 Zr 0.76736 0.25599 0.48868
 O698 O 0.75376 0.23818 0.50544
 Zr699 Zr 0.73436 0.28273 0.49170
 O700 O 0.71922 0.26604 0.50834
 Zr701 Zr 0.76623 0.28358 0.52418
 O702 O 0.75247 0.26719 0.54244
 Zr703 Zr 0.72670 0.24141 0.50246
 O704 O 0.74022 0.25797 0.48364
 Zr705 Zr 0.75827 0.24252 0.53472
 O706 O 0.77379 0.25897 0.51785
 Zr707 Zr 0.72561 0.26980 0.53727
 O708 O 0.73930 0.28773 0.52081
 O709 O 0.76108 0.28027 0.49529
 O710 O 0.73162 0.24512 0.53123
 C711 C 0.79823 0.28083 0.49664
 C712 C 0.75686 0.27949 0.45472
 C713 C 0.75703 0.31449 0.49916
 C714 C 0.69637 0.24320 0.53255
 C715 C 0.73652 0.21029 0.52698
 C716 C 0.73236 0.24453 0.56952
 H717 H 0.75727 0.22684 0.50150
 H718 H 0.75544 0.26944 0.55597
 H719 H 0.76776 0.28807 0.48706
 H720 H 0.70662 0.26758 0.50596
 H721 H 0.71013 0.24739 0.47114
 H722 H 0.70570 0.27523 0.47417
 H723 H 0.77328 0.24945 0.56713
 H724 H 0.79171 0.27278 0.54459
 H725 H 0.73319 0.22830 0.46950
 H726 H 0.75833 0.23921 0.45865
 H727 H 0.73568 0.28815 0.56573
 H728 H 0.75309 0.30640 0.54578
 H729 H 0.79470 0.24017 0.49984
 H730 H 0.78025 0.22123 0.52114
 H731 H 0.71537 0.30554 0.50750
 H732 H 0.69680 0.28494 0.52839
 O733 O 0.79539 0.73526 -0.03786
 O734 O 0.78864 0.70550 -0.03559
 O735 O 0.75186 0.75580 -0.06543
 O736 O 0.72176 0.75239 -0.06174
 O737 O 0.77106 0.77845 -0.01706
 O738 O 0.76747 0.77310 0.01761
 O739 O 0.70341 0.71153 -0.01113
 O740 O 0.70780 0.71568 -0.04605
 O741 O 0.74475 0.69177 0.01224
 O742 O 0.77806 0.69630 0.00777
 O743 O 0.72401 0.73091 0.03428
 O744 O 0.72882 0.76317 0.02836
 O745 O 0.70226 0.73368 0.00913
 O746 O 0.70863 0.76289 0.00884
 O747 O 0.74738 0.71360 0.03623
 O748 O 0.77857 0.71403 0.02898
 O749 O 0.72569 0.69056 -0.01262
 O750 O 0.72878 0.69423 -0.04507
 O751 O 0.79472 0.75549 -0.01504
 O752 O 0.78768 0.75514 0.01850
 O753 O 0.74990 0.77796 -0.03988
 O754 O 0.71894 0.77159 -0.03787
 O755 O 0.77284 0.73580 -0.06461
 O756 O 0.77029 0.70557 -0.05786
 Zr757 Zr 0.77007 0.72485 -0.03722
 O758 O 0.75423 0.70895 -0.02042
 Zr759 Zr 0.73931 0.75383 -0.03846
 O760 O 0.72219 0.73945 -0.02127
 Zr761 Zr 0.76923 0.75468 -0.00392
 O762 O 0.75385 0.73988 0.01457
 Zr763 Zr 0.72776 0.71413 -0.02527
 O764 O 0.74356 0.72841 -0.04440
 Zr765 Zr 0.75819 0.71455 0.00862
 O766 O 0.77543 0.72935 -0.00805
 Zr767 Zr 0.72747 0.74372 0.00793
 O768 O 0.74281 0.75994 -0.00932
 O769 O 0.76546 0.74993 -0.03270
 O770 O 0.73186 0.71856 0.00364
 C771 C 0.80236 0.74741 -0.02856
 C772 C 0.76522 0.74826 -0.07259
 C773 C 0.76262 0.78506 -0.03109
 C774 C 0.69585 0.72033 0.00188
 C775 C 0.73239 0.68470 0.00279
 C776 C 0.73320 0.71980 0.04289
 H777 H 0.75684 0.69719 -0.02344
 H778 H 0.75647 0.74267 0.02805
 H779 H 0.77329 0.75705 -0.04050
 H780 H 0.70990 0.74191 -0.02449
 H781 H 0.71350 0.71917 -0.05820
 H782 H 0.71074 0.74743 -0.05686
 H783 H 0.77789 0.72448 0.03644
 H784 H 0.79356 0.74419 0.01833
 H785 H 0.73525 0.69842 -0.05640
 H786 H 0.76101 0.70808 -0.06724
 H787 H 0.73517 0.75897 0.03969
 H788 H 0.75635 0.77904 0.01550
 H789 H 0.79432 0.70655 -0.02293
 H790 H 0.77415 0.68716 -0.00070
 H791 H 0.72014 0.77785 -0.02573
 H792 H 0.70272 0.76298 -0.00374
 O793 O 1.00912 0.21253 0.22855
 O794 O 0.98101 0.21957 0.22661
 O795 O 1.03431 0.25796 0.20699
 O796 O 1.03568 0.28458 0.21586
 O797 O 1.05612 0.23123 0.25402
 O798 O 1.04964 0.22920 0.28730
 O799 O 0.98837 0.29715 0.26603
 O800 O 0.99322 0.29731 0.23190
 O801 O 0.96444 0.25293 0.28056
 O802 O 0.97032 0.22486 0.27871
 O803 O 1.01089 0.27072 0.31031
 O804 O 1.04200 0.27008 0.30294
 O805 O 1.00914 0.29428 0.28893
 O806 O 1.04243 0.28918 0.28288
 O807 O 0.98532 0.25722 0.30501
 O808 O 0.99204 0.22428 0.29995
 O809 O 0.96615 0.27656 0.26253
 O810 O 0.97078 0.27665 0.22856
 O811 O 1.03073 0.20949 0.25053
 O812 O 1.02825 0.21244 0.28540
 O813 O 1.05778 0.25363 0.23399
 O814 O 1.05180 0.28382 0.24132
 O815 O 1.01322 0.23810 0.20431
 O816 O 0.98038 0.24191 0.21215
 Zr817 Zr 1.00096 0.23727 0.23159
 O818 O 0.98466 0.25022 0.25066
 Zr819 Zr 1.03301 0.26496 0.23596
 O820 O 1.01765 0.27987 0.25434
 Zr821 Zr 1.03079 0.23230 0.26557
 O822 O 1.01635 0.24603 0.28591
 Zr823 Zr 0.99094 0.27567 0.24916
 O824 O 1.00633 0.26291 0.22852
 Zr825 Zr 0.98978 0.24362 0.27932
 O826 O 1.00406 0.22855 0.25997
 Zr827 Zr 1.02169 0.27161 0.28259
 O828 O 1.03818 0.25763 0.26437
 O829 O 1.02738 0.23962 0.23727
 O830 O 0.99525 0.26874 0.27724
 C831 C 1.02117 0.20406 0.23673
 C832 C 1.02589 0.24691 0.19740
 C833 C 1.06425 0.24050 0.24181
 C834 C 0.99587 0.30168 0.28162
 C835 C 0.95820 0.26673 0.27439
 C836 C 0.99515 0.26695 0.31500
 H837 H 0.97234 0.24808 0.24715
 H838 H 1.01891 0.24212 0.29905
 H839 H 1.03457 0.23291 0.22840
 H840 H 1.02058 0.29182 0.25277
 H841 H 0.99810 0.29368 0.21944
 H842 H 1.02745 0.29339 0.21985
 H843 H 0.99406 0.22945 0.31261
 H844 H 1.01660 0.20739 0.28326
 H845 H 0.97616 0.27414 0.21599
 H846 H 0.98480 0.24989 0.20240
 H847 H 1.04134 0.25884 0.30877
 H848 H 1.05574 0.24004 0.28854
 H849 H 0.97448 0.21851 0.23882
 H850 H 0.97526 0.21547 0.27130
 H851 H 1.05896 0.27997 0.25223
 H852 H 1.03838 0.29950 0.27655
 O853 O 0.69283 1.01653 0.75975
 O854 O 0.70538 1.01407 0.79266
 O855 O 0.73298 1.03999 0.72794
 O856 O 0.76290 1.03614 0.72505
 O857 O 0.70896 0.99740 0.70633
 O858 O 0.71298 0.96747 0.71260
 O859 O 0.78682 0.99196 0.77016
 O860 O 0.78379 1.02211 0.76448
 O861 O 0.74963 0.97354 0.80036
 O862 O 0.71598 0.97790 0.80160
 O863 O 0.76256 0.95326 0.75253
 O864 O 0.75235 0.95790 0.71669
 O865 O 0.78420 0.97461 0.74458
 O866 O 0.77290 0.97459 0.71277
 O867 O 0.74253 0.95245 0.77669
 O868 O 0.71203 0.95907 0.78232
 O869 O 0.76881 0.99517 0.79784
 O870 O 0.76571 1.02402 0.79204
 O871 O 0.68948 0.99585 0.73776
 O872 O 0.69619 0.96714 0.73643
 O873 O 0.72981 1.01743 0.70246
 O874 O 0.76135 1.01501 0.70331
 O875 O 0.71670 1.04015 0.75538
 O876 O 0.72176 1.03584 0.78645
 Zr877 Zr 0.71966 1.01603 0.76665
 O878 O 0.73786 1.00172 0.78207
 Zr879 Zr 0.74477 1.01625 0.72767
 O880 O 0.76394 1.00140 0.74111
 Zr881 Zr 0.71470 0.98660 0.73330
 O882 O 0.73209 0.97070 0.74765
 Zr883 Zr 0.76312 1.00535 0.77085
 O884 O 0.74531 1.02173 0.75725
 Zr885 Zr 0.73236 0.97648 0.77708
 O886 O 0.71309 0.99071 0.76312
 Zr887 Zr 0.75756 0.97598 0.73801
 O888 O 0.73990 0.99082 0.72215
 O889 O 0.71950 1.01177 0.73733
 O890 O 0.75766 0.98027 0.76730
 C891 C 0.68352 1.00761 0.74834
 C892 C 0.72225 1.04691 0.73975
 C893 C 0.71617 1.00943 0.69683
 C894 C 0.79258 0.98047 0.75895
 C895 C 0.76303 0.98189 0.80607
 C896 C 0.75532 0.94627 0.76724
 H897 H 0.73743 1.00453 0.79586
 H898 H 0.72876 0.95895 0.74535
 H899 H 0.71068 1.01870 0.73080
 H900 H 0.77568 1.00394 0.73584
 H901 H 0.77833 1.03260 0.76014
 H902 H 0.77459 1.03173 0.72818
 H903 H 0.71071 0.95228 0.77060
 H904 H 0.69269 0.96699 0.75012
 H905 H 0.76023 1.03419 0.78681
 H906 H 0.73153 1.03309 0.79509
 H907 H 0.74666 0.94820 0.72297
 H908 H 0.72291 0.96911 0.70364
 H909 H 0.69813 1.00385 0.79177
 H910 H 0.72179 0.98507 0.81118
 H911 H 0.75882 1.00428 0.69689
 H912 H 0.77861 0.98558 0.71103
 O913 O 0.71592 0.53025 0.25009
 O914 O 0.72507 0.53064 0.28378
 O915 O 0.76118 0.54266 0.21902
 O916 O 0.78976 0.53394 0.21918
 O917 O 0.73033 0.50246 0.20293
 O918 O 0.72909 0.47294 0.21348
 O919 O 0.80382 0.49370 0.27170
 O920 O 0.80490 0.52350 0.26232
 O921 O 0.76209 0.48389 0.30218
 O922 O 0.72968 0.49342 0.30008
 O923 O 0.77331 0.45653 0.25871
 O924 O 0.76618 0.45828 0.22184
 O925 O 0.79876 0.47329 0.24981
 O926 O 0.78921 0.47110 0.21729
 O927 O 0.75283 0.46136 0.28177
 O928 O 0.72341 0.47303 0.28326
 O929 O 0.78499 0.50170 0.29778
 O930 O 0.78683 0.52924 0.28904
 O931 O 0.70974 0.50747 0.23178
 O932 O 0.71130 0.47805 0.23616
 O933 O 0.75498 0.51781 0.19744
 O934 O 0.78579 0.51068 0.20143
 O935 O 0.74284 0.54843 0.24389
 O936 O 0.74694 0.54592 0.27906
 Zr937 Zr 0.74158 0.52612 0.25998
 O938 O 0.75609 0.51109 0.27885
 Zr939 Zr 0.76832 0.51762 0.22364
 O940 O 0.78385 0.50198 0.24075
 Zr941 Zr 0.73306 0.49386 0.23135
 O942 O 0.74679 0.47739 0.24917
 Zr943 Zr 0.78212 0.50971 0.26940
 O944 O 0.76825 0.52681 0.25198
 Zr945 Zr 0.74667 0.48651 0.27741
 O946 O 0.73086 0.50183 0.26004
 Zr947 Zr 0.77317 0.47775 0.24081
 O948 O 0.75907 0.49290 0.22154
 O949 O 0.74228 0.51815 0.23185
 O950 O 0.77270 0.48546 0.26914
 C951 C 0.70585 0.52165 0.23912
 C952 C 0.75057 0.55232 0.22803
 C953 C 0.73989 0.51222 0.19255
 C954 C 0.80790 0.48012 0.26301
 C955 C 0.77660 0.49058 0.30740
 C956 C 0.76469 0.45242 0.27391
 H957 H 0.75548 0.51567 0.29199
 H958 H 0.74163 0.46610 0.24836
 H959 H 0.73522 0.52548 0.22362
 H960 H 0.79610 0.50212 0.23615
 H961 H 0.80093 0.53427 0.25699
 H962 H 0.80015 0.52868 0.22493
 H963 H 0.72171 0.46504 0.27265
 H964 H 0.70703 0.48049 0.24927
 H965 H 0.78210 0.53947 0.28318
 H966 H 0.75738 0.55186 0.27407
 H967 H 0.75815 0.45061 0.22874
 H968 H 0.73941 0.47226 0.20491
 H969 H 0.71726 0.52082 0.28497
 H970 H 0.73623 0.50071 0.30894
 H971 H 0.78139 0.50005 0.19610
 H972 H 0.79714 0.48063 0.21473
 O973 O 0.50699 0.20963 0.74223
 O974 O 0.47623 0.21416 0.74209
 O975 O 0.52460 0.25024 0.70566
 O976 O 0.52639 0.27796 0.70652
 O977 O 0.55118 0.23718 0.75876
 O978 O 0.54564 0.24450 0.79149
 O979 O 0.47832 0.29850 0.74911
 O980 O 0.48077 0.28871 0.71757
 O981 O 0.45818 0.25862 0.78161
 O982 O 0.46673 0.23011 0.78770
 O983 O 0.50273 0.28578 0.80136
 O984 O 0.53295 0.28664 0.79370
 O985 O 0.49786 0.30264 0.77307
 O986 O 0.53197 0.29894 0.76728
 O987 O 0.48040 0.26713 0.80429
 O988 O 0.48674 0.23509 0.80647
 O989 O 0.45777 0.27715 0.75688
 O990 O 0.46254 0.26685 0.72161
 O991 O 0.52777 0.21415 0.76488
 O992 O 0.52612 0.22628 0.79698
 O993 O 0.54968 0.25214 0.73099
 O994 O 0.54225 0.28364 0.73054
 O995 O 0.50679 0.22790 0.71110
 O996 O 0.47518 0.22985 0.71777
 Zr997 Zr 0.49529 0.23302 0.73810
 O998 O 0.47776 0.24894 0.75236
 Zr999 Zr 0.52462 0.26325 0.73163
 O1000 O 0.50794 0.28086 0.74458
 Zr1001 Zr 0.52610 0.23976 0.77088
 O1002 O 0.51029 0.25661 0.78607
 Zr1003 Zr 0.48169 0.27333 0.74220
 O1004 O 0.49818 0.25717 0.72648
 Zr1005 Zr 0.48402 0.25011 0.78165
 O1006 O 0.49985 0.23221 0.76791
 Zr1007 Zr 0.51290 0.28062 0.77415
 O1008 O 0.53084 0.26417 0.76094
 O1009 O 0.52136 0.23906 0.74163
 O1010 O 0.48679 0.27421 0.77130
 C1011 C 0.51947 0.20471 0.75312
 C1012 C 0.51788 0.23619 0.70082
 C1013 C 0.55749 0.24214 0.74260
 C1014 C 0.48484 0.30722 0.76273
 C1015 C 0.45094 0.27024 0.77186
 C1016 C 0.48886 0.28021 0.80959
 H1017 H 0.46564 0.24503 0.75037
 H1018 H 0.51341 0.25648 0.79980
 H1019 H 0.52871 0.23086 0.73484
 H1020 H 0.50977 0.29204 0.73888
 H1021 H 0.48685 0.28259 0.70722
 H1022 H 0.51618 0.28545 0.70668
 H1023 H 0.49350 0.24148 0.81605
 H1024 H 0.51506 0.21985 0.79742
 H1025 H 0.45288 0.26092 0.72824
 H1026 H 0.47614 0.23932 0.70870
 H1027 H 0.53476 0.27667 0.80179
 H1028 H 0.55114 0.25527 0.78792
 H1029 H 0.47673 0.21093 0.75579
 H1030 H 0.46008 0.22786 0.77586
 H1031 H 0.55080 0.28198 0.74097
 H1032 H 0.52645 0.30741 0.75897
 O1033 O 0.29058 0.75411 0.46553
 O1034 O 0.28322 0.72546 0.46328
 O1035 O 0.24689 0.77726 0.43698
 O1036 O 0.21817 0.77960 0.44096
 O1037 O 0.26577 0.79664 0.49163
 O1038 O 0.26410 0.78901 0.52278
 O1039 O 0.19681 0.73108 0.48227
 O1040 O 0.20326 0.73757 0.44963
 O1041 O 0.23503 0.70952 0.50868
 O1042 O 0.26863 0.71235 0.50761
 O1043 O 0.21699 0.75076 0.53447
 O1044 O 0.21752 0.77919 0.52960
 O1045 O 0.19679 0.74697 0.50917
 O1046 O 0.20053 0.77998 0.50356
 O1047 O 0.23635 0.72933 0.53426
 O1048 O 0.26890 0.72962 0.52970
 O1049 O 0.21837 0.71004 0.48174
 O1050 O 0.22494 0.71862 0.44719
 O1051 O 0.28921 0.77353 0.48924
 O1052 O 0.28015 0.76723 0.52359
 O1053 O 0.24846 0.79854 0.46528
 O1054 O 0.21534 0.79334 0.46758
 O1055 O 0.26899 0.75830 0.43788
 O1056 O 0.26432 0.72751 0.44104
 Zr1057 Zr 0.26482 0.74498 0.46369
 O1058 O 0.24799 0.72819 0.47809
 Zr1059 Zr 0.23519 0.77529 0.46420
 O1060 O 0.21661 0.75947 0.47759
 Zr1061 Zr 0.26346 0.77167 0.50005
 O1062 O 0.24587 0.75669 0.51563
 Zr1063 Zr 0.22216 0.73446 0.47131
 O1064 O 0.23899 0.75035 0.45544
 Zr1065 Zr 0.24989 0.73168 0.50792
 O1066 O 0.26877 0.74663 0.49356
 Zr1067 Zr 0.21996 0.76151 0.50734
 O1068 O 0.23750 0.77855 0.49406
 O1069 O 0.26092 0.76977 0.47063
 O1070 O 0.22436 0.73679 0.50082
 C1071 C 0.29726 0.76593 0.47559
 C1072 C 0.26079 0.77056 0.43014
 C1073 C 0.26004 0.80442 0.47686
 C1074 C 0.19018 0.73555 0.49840
 C1075 C 0.22330 0.70339 0.49757
 C1076 C 0.22388 0.73774 0.54197
 H1077 H 0.25075 0.71661 0.47444
 H1078 H 0.24764 0.75868 0.52948
 H1079 H 0.26918 0.77716 0.46374
 H1080 H 0.20458 0.76230 0.47371
 H1081 H 0.20903 0.74393 0.43916
 H1082 H 0.20823 0.77179 0.44248
 H1083 H 0.26715 0.73903 0.53862
 H1084 H 0.28762 0.75767 0.52009
 H1085 H 0.23335 0.70976 0.45045
 H1086 H 0.25444 0.73062 0.43268
 H1087 H 0.22399 0.78927 0.52533
 H1088 H 0.25319 0.78732 0.53020
 H1089 H 0.28593 0.72304 0.47687
 H1090 H 0.26505 0.70406 0.49791
 H1091 H 0.21825 0.79992 0.47913
 H1092 H 0.18982 0.77448 0.49878
 O1093 O 0.20934 0.22282 1.00683
 O1094 O 0.20975 0.22690 0.97297
 O1095 O 0.25931 0.19709 1.01395
 O1096 O 0.28755 0.20285 1.00863
 O1097 O 0.24326 0.23571 1.05246
 O1098 O 0.24491 0.26624 1.04988
 O1099 O 0.29378 0.25079 0.96222
 O1100 O 0.29160 0.22048 0.96433
 O1101 O 0.25218 0.27318 0.95426
 O1102 O 0.21891 0.26580 0.96348
 O1103 O 0.27696 0.28785 0.99662
 O1104 O 0.28196 0.27807 1.03096
 O1105 O 0.29873 0.26761 0.98782
 O1106 O 0.30076 0.26112 1.02304
 O1107 O 0.25072 0.29019 0.98182
 O1108 O 0.22050 0.28217 0.98683
 O1109 O 0.26705 0.25049 0.94399
 O1110 O 0.26698 0.22020 0.94699
 O1111 O 0.21450 0.23952 1.03252
 O1112 O 0.22122 0.26830 1.03495
 O1113 O 0.26339 0.21629 1.04408
 O1114 O 0.29263 0.22185 1.03097
 O1115 O 0.23351 0.19934 0.99814
 O1116 O 0.22818 0.20893 0.96617
 Zr1117 Zr 0.23234 0.22462 0.99003
 O1118 O 0.24396 0.24147 0.97045
 Zr1119 Zr 0.26907 0.22155 1.01519
 O1120 O 0.28229 0.23847 0.99693
 Zr1121 Zr 0.23934 0.24970 1.02713
 O1122 O 0.25086 0.26793 1.00927
 Zr1123 Zr 0.27104 0.23739 0.96959
 O1124 O 0.25917 0.21910 0.98718
 Zr1125 Zr 0.24136 0.26573 0.98110
 O1126 O 0.22792 0.24910 0.99968
 Zr1127 Zr 0.27769 0.26294 1.00659
 O1128 O 0.26642 0.24579 1.02627
 O1129 O 0.24228 0.22539 1.01761
 O1130 O 0.26790 0.26168 0.97907
 C1131 C 0.20478 0.22958 1.02283
 C1132 C 0.24518 0.19086 1.00703
 C1133 C 0.25280 0.22292 1.05616
 C1134 C 0.30214 0.26254 0.97074
 C1135 C 0.26177 0.26550 0.94190
 C1136 C 0.26554 0.29610 0.98702
 H1137 H 0.23856 0.24033 0.95768
 H1138 H 0.24859 0.27908 1.01470
 H1139 H 0.23626 0.21716 1.02595
 H1140 H 0.29490 0.23596 0.99625
 H1141 H 0.28782 0.20960 0.96971
 H1142 H 0.29663 0.20791 1.00027
 H1143 H 0.22267 0.28707 0.99961
 H1144 H 0.21322 0.26958 1.02395
 H1145 H 0.25493 0.22169 0.94227
 H1146 H 0.23953 0.20360 0.96328
 H1147 H 0.27200 0.28582 1.03206
 H1148 H 0.25723 0.26433 1.05348
 H1149 H 0.20524 0.23827 0.97520
 H1150 H 0.22266 0.26341 0.95017
 H1151 H 0.29212 0.23154 1.03970
 H1152 H 0.30793 0.25206 1.01758
 C1153 C 0.33161 0.38701 0.81418
 C1154 C 0.32213 0.40069 0.80735
 C1155 C 0.31318 0.41105 0.82046
 C1156 C 0.31405 0.40762 0.84015
 C1157 C 0.32303 0.39366 0.84679
 C1158 C 0.33171 0.38313 0.83386
 C1159 C 0.30313 0.42435 0.81366
 C1160 C 0.30165 0.42726 0.79389
 C1161 C 0.31073 0.41701 0.78078
 C1162 C 0.32097 0.40384 0.78760
 C1163 C 0.30941 0.42010 0.76105
 C1164 C 0.29928 0.43330 0.75434
 C1165 C 0.29006 0.44347 0.76722
 C1166 C 0.29127 0.44031 0.78702
 H1167 H 0.33815 0.37888 0.80406
 H1168 H 0.30736 0.41545 0.85037
 H1169 H 0.32301 0.39097 0.86202
 H1170 H 0.29621 0.43224 0.82371
 H1171 H 0.32784 0.39591 0.77753
 H1172 H 0.31637 0.41243 0.75081
 H1173 H 0.29874 0.43564 0.73905
 H1174 H 0.28456 0.44834 0.79711
 C1175 C 0.31974 -0.12287 0.31291
 C1176 C 0.31215 -0.11322 0.29836
 C1177 C 0.32292 -0.10527 0.28451
 C1178 C 0.34105 -0.10722 0.28532
 C1179 C 0.34848 -0.11712 0.29954
 C1180 C 0.33798 -0.12516 0.31351
 C1181 C 0.31543 -0.09540 0.27017
 C1182 C 0.29727 -0.09342 0.26943
 C1183 C 0.28645 -0.10153 0.28309
 C1184 C 0.29396 -0.11140 0.29745
 C1185 C 0.26832 -0.09923 0.28249
 C1186 C 0.26105 -0.08831 0.26913
 C1187 C 0.27175 -0.07982 0.25587
 C1188 C 0.28981 -0.08286 0.25572
 H1189 H 0.31134 -0.12890 0.32343
 H1190 H 0.34949 -0.10116 0.27488
 H1191 H 0.36256 -0.11840 0.29954
 H1192 H 0.32374 -0.08909 0.25976
 H1193 H 0.28567 -0.11749 0.30804
 H1194 H 0.25983 -0.10536 0.29284
 H1195 H 0.24714 -0.08597 0.26964
 H1196 H 0.29825 -0.07602 0.24590
 C1197 C 0.81027 0.87783 0.81992
 C1198 C 0.80301 0.89044 0.80861
 C1199 C 0.81374 0.89983 0.79603
 C1200 C 0.83159 0.89625 0.79482
 C1201 C 0.83863 0.88317 0.80549
 C1202 C 0.82799 0.87355 0.81790
 C1203 C 0.80636 0.91232 0.78453
 C1204 C 0.78828 0.91512 0.78506
 C1205 C 0.77755 0.90530 0.79727
 C1206 C 0.78499 0.89321 0.80912
 C1207 C 0.75949 0.90782 0.79764
 C1208 C 0.75215 0.92044 0.78664
 C1209 C 0.76270 0.93076 0.77503
 C1210 C 0.78075 0.92776 0.77390
 H1211 H 0.80175 0.87065 0.82930
 H1212 H 0.84000 0.90316 0.78508
 H1213 H 0.85238 0.88041 0.80368
 H1214 H 0.81462 0.91967 0.77503
 H1215 H 0.77672 0.88581 0.81857
 H1216 H 0.75110 0.90033 0.80682
 H1217 H 0.73822 0.92256 0.78779
 H1218 H 0.78903 0.93583 0.76523
 C1219 C 0.45095 0.87661 0.30774
 C1220 C 0.45772 0.86250 0.29856
 C1221 C 0.44995 0.85662 0.28152
 C1222 C 0.43575 0.86522 0.27374
 C1223 C 0.42877 0.87903 0.28323
 C1224 C 0.43615 0.88484 0.30047
 C1225 C 0.45604 0.84189 0.27301
 C1226 C 0.46963 0.83286 0.28152
 C1227 C 0.47779 0.83913 0.29816
 C1228 C 0.47185 0.85393 0.30651
 C1229 C 0.49146 0.83025 0.30655
 C1230 C 0.49649 0.81489 0.29910
 C1231 C 0.48793 0.80803 0.28313
 C1232 C 0.47477 0.81735 0.27409
 H1233 H 0.45696 0.88079 0.32093
 H1234 H 0.42964 0.86092 0.26066
 H1235 H 0.41750 0.88506 0.27703
 H1236 H 0.44979 0.83716 0.26019
 H1237 H 0.47789 0.85850 0.31953
 H1238 H 0.49792 0.83494 0.31924
 H1239 H 0.50667 0.80808 0.30641
 H1240 H 0.46805 0.81230 0.26175
 C1241 C -0.07797 0.87198 0.79856
 C1242 C -0.06749 0.85811 0.79400
 C1243 C -0.06306 0.84657 0.80856
 C1244 C -0.06964 0.84869 0.82715
 C1245 C -0.07969 0.86260 0.83162
 C1246 C -0.08365 0.87449 0.81753
 C1247 C -0.05180 0.83330 0.80448
 C1248 C -0.04497 0.83125 0.78596
 C1249 C -0.04987 0.84234 0.77116
 C1250 C -0.06101 0.85577 0.77530
 C1251 C -0.04361 0.83969 0.75244
 C1252 C -0.03276 0.82613 0.74842
 C1253 C -0.02752 0.81535 0.76316
 C1254 C -0.03357 0.81805 0.78193
 H1255 H -0.08078 0.88127 0.78771
 H1256 H -0.06650 0.83993 0.83841
 H1257 H -0.08385 0.86443 0.84634
 H1258 H -0.04828 0.82464 0.81575
 H1259 H -0.06455 0.86443 0.76401
 H1260 H -0.04736 0.84794 0.74086
 H1261 H -0.02849 0.82400 0.73381
 H1262 H -0.03000 0.80941 0.79322
 C1263 C -0.06086 -0.12414 -0.06774
 C1264 C -0.05381 -0.10995 -0.05876
 C1265 C -0.05921 -0.10582 -0.03995
 C1266 C -0.07137 -0.11590 -0.03036
 C1267 C -0.07857 -0.12972 -0.03944
 C1268 C -0.07354 -0.13407 -0.05828
 C1269 C -0.05261 -0.09152 -0.03104
 C1270 C -0.04076 -0.08114 -0.04072
 C1271 C -0.03511 -0.08528 -0.05943
 C1272 C -0.04164 -0.09969 -0.06835
 C1273 C -0.02320 -0.07478 -0.06897
 C1274 C -0.01735 -0.06011 -0.06028
 C1275 C -0.02323 -0.05567 -0.04182
 C1276 C -0.03475 -0.06647 -0.03205
 H1277 H -0.05676 -0.12716 -0.08222
 H1278 H -0.07562 -0.11290 -0.01593
 H1279 H -0.08816 -0.13699 -0.03154
 H1280 H -0.05694 -0.08833 -0.01667
 H1281 H -0.03745 -0.10278 -0.08278
 H1282 H -0.01864 -0.07778 -0.08328
 H1283 H -0.00847 -0.05207 -0.06819
 H1284 H -0.03948 -0.06327 -0.01786
 C1285 C -0.05633 0.38161 0.43125
 C1286 C -0.04929 0.39561 0.44079
 C1287 C -0.05944 0.40406 0.45465
 C1288 C -0.07615 0.39804 0.45923
 C1289 C -0.08302 0.38413 0.44982
 C1290 C -0.07333 0.37578 0.43560
 C1291 C -0.05277 0.41841 0.46369
 C1292 C -0.03591 0.42435 0.45925
 C1293 C -0.02556 0.41557 0.44585
 C1294 C -0.03229 0.40131 0.43671
 C1295 C -0.00867 0.42131 0.44159
 C1296 C -0.00226 0.43590 0.44997
 C1297 C -0.01253 0.44516 0.46291
 C1298 C -0.02934 0.43907 0.46772
 H1299 H -0.04858 0.37532 0.42045
 H1300 H -0.08392 0.40404 0.47017
 H1301 H -0.09608 0.38004 0.45363
 H1302 H -0.06074 0.42499 0.47408
 H1303 H -0.02434 0.39472 0.42632
 H1304 H -0.00052 0.41472 0.43141
 H1305 H 0.01066 0.44018 0.44585
 H1306 H -0.03755 0.44606 0.47749
 C1307 C 0.41269 -0.11142 0.43631
 C1308 C 0.42255 -0.09810 0.44364
 C1309 C 0.43609 -0.09097 0.43240
 C1310 C 0.43937 -0.09709 0.41399
 C1311 C 0.42994 -0.11066 0.40702
 C1312 C 0.41679 -0.11834 0.41825
 C1313 C 0.44652 -0.07820 0.43993
 C1314 C 0.44389 -0.07272 0.45878
 C1315 C 0.43036 -0.07981 0.47007
 C1316 C 0.41964 -0.09232 0.46236
 C1317 C 0.42784 -0.07431 0.48892
 C1318 C 0.43840 -0.06169 0.49641
 C1319 C 0.45182 -0.05446 0.48526
 C1320 C 0.45458 -0.06020 0.46647
 H1321 H 0.40259 -0.11701 0.44523
 H1322 H 0.44973 -0.09181 0.40528
 H1323 H 0.43336 -0.11538 0.39296
 H1324 H 0.45693 -0.07280 0.43129
 H1325 H 0.40932 -0.09782 0.47106
 H1326 H 0.41752 -0.07958 0.49778
 H1327 H 0.43585 -0.05736 0.51085
 H1328 H 0.46464 -0.05452 0.45757
 C1329 C 0.42314 0.38277 -0.05173
 C1330 C 0.43611 0.39182 -0.04202
 C1331 C 0.45066 0.39816 -0.05231
 C1332 C 0.45205 0.39538 -0.07203
 C1333 C 0.43938 0.38606 -0.08151
 C1334 C 0.42492 0.37932 -0.07148
 C1335 C 0.46375 0.40700 -0.04269
 C1336 C 0.46258 0.40950 -0.02287
 C1337 C 0.44823 0.40292 -0.01246
 C1338 C 0.43501 0.39419 -0.02211
 C1339 C 0.44719 0.40548 0.00739
 C1340 C 0.45969 0.41530 0.01663
 C1341 C 0.47354 0.42263 0.00621
 C1342 C 0.47525 0.41905 -0.01345
 H1343 H 0.41219 0.37773 -0.04364
 H1344 H 0.46320 0.40002 -0.08006
 H1345 H 0.44117 0.38389 -0.09672
 H1346 H 0.47485 0.41192 -0.05064
 H1347 H 0.42393 0.38925 -0.01414
 H1348 H 0.43633 0.40046 0.01564
 H1349 H 0.45795 0.41791 0.03174
 H1350 H 0.48571 0.42471 -0.02178
 C1351 C 0.81328 0.37806 0.43954
 C1352 C 0.80544 0.36659 0.45213
 C1353 C 0.81601 0.35674 0.46420
 C1354 C 0.83423 0.35849 0.46344
 C1355 C 0.84191 0.37024 0.45119
 C1356 C 0.83150 0.38022 0.43932
 C1357 C 0.80821 0.34550 0.47707
 C1358 C 0.78997 0.34408 0.47810
 C1359 C 0.77937 0.35394 0.46608
 C1360 C 0.78718 0.36516 0.45316
 C1361 C 0.76114 0.35209 0.46687
 C1362 C 0.75353 0.34001 0.47880
 C1363 C 0.76401 0.32992 0.49047
 C1364 C 0.78220 0.33244 0.49047
 H1365 H 0.80515 0.38589 0.43062
 H1366 H 0.84249 0.35112 0.47268
 H1367 H 0.85598 0.37175 0.45124
 H1368 H 0.81632 0.33784 0.48623
 H1369 H 0.77908 0.37273 0.44390
 H1370 H 0.75282 0.35952 0.45773
 H1371 H 0.73953 0.33808 0.47833
 H1372 H 0.79050 0.32444 0.49901
 C1373 C 0.81374 0.86060 -0.07783
 C1374 C 0.80696 0.84691 -0.06764
 C1375 C 0.81712 0.83914 -0.05335
 C1376 C 0.83388 0.84526 -0.04947
 C1377 C 0.84037 0.85920 -0.05924
 C1378 C 0.83029 0.86727 -0.07332
 C1379 C 0.81022 0.82566 -0.04286
 C1380 C 0.79305 0.82019 -0.04610
 C1381 C 0.78281 0.82818 -0.06018
 C1382 C 0.78990 0.84131 -0.07103
 C1383 C 0.76561 0.82291 -0.06323
 C1384 C 0.75873 0.80951 -0.05286
 C1385 C 0.76891 0.80108 -0.03921
 C1386 C 0.78602 0.80671 -0.03566
 H1387 H 0.80567 0.86653 -0.08857
 H1388 H 0.84172 0.83963 -0.03839
 H1389 H 0.85320 0.86382 -0.05540
 H1390 H 0.81809 0.81960 -0.03202
 H1391 H 0.78203 0.84737 -0.08187
 H1392 H 0.75757 0.82894 -0.07391
 H1393 H 0.74555 0.80541 -0.05599
 H1394 H 0.79412 0.80020 -0.02540
 C1395 C 0.80747 0.32397 0.37019
 C1396 C 0.79975 0.31348 0.38407
 C1397 C 0.80899 0.29944 0.39086
 C1398 C 0.82558 0.29594 0.38350
 C1399 C 0.83311 0.30633 0.36968
 C1400 C 0.82421 0.32047 0.36291
 C1401 C 0.80162 0.28919 0.40507
 C1402 C 0.78512 0.29279 0.41268
 C1403 C 0.77564 0.30656 0.40563
 C1404 C 0.78300 0.31681 0.39133
 C1405 C 0.75915 0.31009 0.41337
 C1406 C 0.75249 0.30057 0.42857
 C1407 C 0.76215 0.28726 0.43626
 C1408 C 0.77825 0.28316 0.42776
 H1409 H 0.80041 0.33474 0.36500
 H1410 H 0.83284 0.28525 0.38856
 H1411 H 0.84604 0.30332 0.36443
 H1412 H 0.80888 0.27861 0.41046
 H1413 H 0.77582 0.32750 0.38609
 H1414 H 0.75164 0.32054 0.40809
 H1415 H 0.74006 0.30409 0.43480
 H1416 H 0.78593 0.27302 0.43354
 C1417 C 0.82019 0.80854 -0.13892
 C1418 C 0.80799 0.79949 -0.12776
 C1419 C 0.79375 0.80786 -0.11918
 C1420 C 0.79177 0.82499 -0.12205
 C1421 C 0.80355 0.83378 -0.13362
 C1422 C 0.81791 0.82575 -0.14230
 C1423 C 0.78163 0.79899 -0.10793
 C1424 C 0.78340 0.78177 -0.10523
 C1425 C 0.79742 0.77328 -0.11407
 C1426 C 0.80965 0.78219 -0.12525
 C1427 C 0.79918 0.75607 -0.11117
 C1428 C 0.78774 0.74753 -0.09884
 C1429 C 0.77416 0.75599 -0.08935
 C1430 C 0.77176 0.77305 -0.09320
 H1431 H 0.83104 0.80202 -0.14550
 H1432 H 0.78095 0.83159 -0.11555
 H1433 H 0.80137 0.84700 -0.13561
 H1434 H 0.77085 0.80551 -0.10119
 H1435 H 0.82049 0.77568 -0.13187
 H1436 H 0.80980 0.74932 -0.11786
 H1437 H 0.79004 0.73445 -0.09603
 H1438 H 0.76159 0.77986 -0.08576
 C1439 C 0.31970 0.44316 0.88818
 C1440 C 0.30949 0.45083 0.87415
 C1441 C 0.29305 0.44400 0.86933
 C1442 C 0.28708 0.42960 0.87884
 C1443 C 0.29740 0.42197 0.89281
 C1444 C 0.31380 0.42869 0.89764
 C1445 C 0.28303 0.45153 0.85493
 C1446 C 0.28932 0.46577 0.84530
 C1447 C 0.30562 0.47273 0.85051
 C1448 C 0.31558 0.46523 0.86486
 C1449 C 0.31188 0.48697 0.84104
 C1450 C 0.30237 0.49401 0.82615
 C1451 C 0.28640 0.48694 0.82032
 C1452 C 0.27980 0.47293 0.83024
 H1453 H 0.33229 0.44854 0.89170
 H1454 H 0.27452 0.42417 0.87534
 H1455 H 0.29248 0.41087 0.89991
 H1456 H 0.27052 0.44617 0.85101
 H1457 H 0.32817 0.47051 0.86866
 H1458 H 0.32434 0.49246 0.84489
 H1459 H 0.30790 0.50470 0.81874
 H1460 H 0.26757 0.46728 0.82588
 C1461 C 0.32469 -0.06218 0.36551
 C1462 C 0.31707 -0.05645 0.34848
 C1463 C 0.31906 -0.06579 0.33143
 C1464 C 0.32899 -0.08040 0.33160
 C1465 C 0.33580 -0.08642 0.34877
 C1466 C 0.33351 -0.07746 0.36581
 C1467 C 0.31053 -0.06077 0.31469
 C1468 C 0.29973 -0.04672 0.31488
 C1469 C 0.29797 -0.03715 0.33178
 C1470 C 0.30680 -0.04201 0.34845
 C1471 C 0.28721 -0.02301 0.33175
 C1472 C 0.27822 -0.01844 0.31514
 C1473 C 0.27972 -0.02812 0.29856
 C1474 C 0.29051 -0.04217 0.29843
 H1475 H 0.32273 -0.05540 0.37877
 H1476 H 0.33090 -0.08748 0.31862
 H1477 H 0.34254 -0.09827 0.34887
 H1478 H 0.31192 -0.06803 0.30167
 H1479 H 0.30528 -0.03483 0.36150
 H1480 H 0.28579 -0.01548 0.34453
 H1481 H 0.27014 -0.00741 0.31518
 H1482 H 0.29186 -0.04944 0.28540
 C1483 C -0.08337 -0.06150 -0.13535
 C1484 C -0.07270 -0.05202 -0.12313
 C1485 C -0.05623 -0.05825 -0.11765
 C1486 C -0.05092 -0.07399 -0.12388
 C1487 C -0.06154 -0.08334 -0.13597
 C1488 C -0.07775 -0.07714 -0.14222
 C1489 C -0.04523 -0.04864 -0.10612
 C1490 C -0.05057 -0.03296 -0.09965
 C1491 C -0.06720 -0.02681 -0.10462
 C1492 C -0.07814 -0.03633 -0.11648
 C1493 C -0.07261 -0.01134 -0.09741
 C1494 C -0.06180 -0.00228 -0.08504
 C1495 C -0.04525 -0.00837 -0.08003
 C1496 C -0.03965 -0.02360 -0.08778
 H1497 H -0.09586 -0.05650 -0.13972
 H1498 H -0.03842 -0.07901 -0.11957
 H1499 H -0.05678 -0.09534 -0.14069
 H1500 H -0.03251 -0.05337 -0.10216
 H1501 H -0.09085 -0.03158 -0.12046
 H1502 H -0.08537 -0.00646 -0.10093
 H1503 H -0.06657 0.00927 -0.07901
 H1504 H -0.02709 -0.02867 -0.08378
 C1505 C -0.06819 0.43567 0.37324
 C1506 C -0.05403 0.44427 0.38109
 C1507 C -0.04023 0.43534 0.38962
 C1508 C -0.04060 0.41789 0.38958
 C1509 C -0.05423 0.40936 0.38060
 C1510 C -0.06812 0.41815 0.37217
 C1511 C -0.02619 0.44401 0.39775
 C1512 C -0.02561 0.46148 0.39700
 C1513 C -0.03897 0.47032 0.38752
 C1514 C -0.05319 0.46168 0.37983
 C1515 C -0.03821 0.48773 0.38649
 C1516 C -0.02526 0.49641 0.39632
 C1517 C -0.01289 0.48779 0.40735
 C1518 C -0.01244 0.47029 0.40655
 H1519 H -0.07858 0.44275 0.36662
 H1520 H -0.03005 0.41084 0.39586
 H1521 H -0.05380 0.39587 0.38013
 H1522 H -0.01579 0.43721 0.40472
 H1523 H -0.06363 0.46850 0.37293
 H1524 H -0.04820 0.49467 0.37901
 H1525 H -0.02584 0.50989 0.39665
 H1526 H -0.00304 0.46346 0.41504
 C1527 C 0.43408 -0.05947 0.36009
 C1528 C 0.44332 -0.05201 0.37514
 C1529 C 0.45820 -0.05992 0.38277
 C1530 C 0.46376 -0.07507 0.37489
 C1531 C 0.45452 -0.08240 0.35981
 C1532 C 0.43958 -0.07470 0.35226
 C1533 C 0.46720 -0.05259 0.39815
 C1534 C 0.46161 -0.03732 0.40580
 C1535 C 0.44701 -0.02924 0.39767
 C1536 C 0.43792 -0.03666 0.38253
 C1537 C 0.44158 -0.01388 0.40491
 C1538 C 0.45020 -0.00671 0.42037
 C1539 C 0.46437 -0.01478 0.42916
 C1540 C 0.47015 -0.03008 0.42159
 H1541 H 0.42271 -0.05325 0.35435
 H1542 H 0.47518 -0.08131 0.38046
 H1543 H 0.45911 -0.09412 0.35407
 H1544 H 0.47847 -0.05878 0.40419
 H1545 H 0.42661 -0.03050 0.37653
 H1546 H 0.43046 -0.00751 0.39880
 H1547 H 0.44527 0.00498 0.42585
 H1548 H 0.48099 -0.03650 0.42821
 C1549 C 0.43712 0.42630 -0.11592
 C1550 C 0.44318 0.43592 -0.10059
 C1551 C 0.43229 0.44808 -0.09223
 C1552 C 0.41567 0.45083 -0.09994
 C1553 C 0.41001 0.44175 -0.11587
 C1554 C 0.42062 0.42930 -0.12403
 C1555 C 0.43833 0.45745 -0.07656
 C1556 C 0.45535 0.45512 -0.06962
 C1557 C 0.46640 0.44340 -0.07865
 C1558 C 0.46021 0.43381 -0.09391
 C1559 C 0.48352 0.44134 -0.07224
 C1560 C 0.48955 0.45037 -0.05660
 C1561 C 0.47860 0.46166 -0.04695
 C1562 C 0.46153 0.46419 -0.05377
 H1563 H 0.44568 0.41698 -0.12204
 H1564 H 0.40722 0.46027 -0.09394
 H1565 H 0.39722 0.44443 -0.12166
 H1566 H 0.42989 0.46662 -0.06994
 H1567 H 0.46872 0.42478 -0.10068
 H1568 H 0.49217 0.43250 -0.07911
 H1569 H 0.50276 0.44816 -0.05177
 H1570 H 0.45290 0.47278 -0.04645
 C1571 C 0.42245 0.81604 0.37976
 C1572 C 0.43424 0.80761 0.36778
 C1573 C 0.44310 0.81642 0.35302
 C1574 C 0.43979 0.83342 0.35030
 C1575 C 0.42841 0.84179 0.36262
 C1576 C 0.41991 0.83327 0.37766
 C1577 C 0.45540 0.80819 0.34152
 C1578 C 0.45920 0.79135 0.34481
 C1579 C 0.45030 0.78252 0.35950
 C1580 C 0.43780 0.79068 0.37081
 C1581 C 0.45390 0.76560 0.36249
 C1582 C 0.46583 0.75735 0.35066
 C1583 C 0.47464 0.76598 0.33593
 C1584 C 0.47149 0.78307 0.33333
 H1585 H 0.41609 0.80939 0.39145
 H1586 H 0.44634 0.84033 0.33896
 H1587 H 0.42657 0.85507 0.36067
 H1588 H 0.46210 0.81493 0.33013
 H1589 H 0.43101 0.78391 0.38211
 H1590 H 0.44714 0.75862 0.37362
 H1591 H 0.46778 0.74410 0.35261
 H1592 H 0.47774 0.78967 0.32156
 C1593 C -0.06082 0.82919 0.88293
 C1594 C -0.05389 0.81907 0.86833
 C1595 C -0.06489 0.80766 0.85865
 C1596 C -0.08262 0.80678 0.86337
 C1597 C -0.08916 0.81609 0.87858
 C1598 C -0.07826 0.82702 0.88897
 C1599 C -0.05792 0.79683 0.84495
 C1600 C -0.03995 0.79683 0.84119
 C1601 C -0.02892 0.80837 0.85059
 C1602 C -0.03599 0.81956 0.86394
 C1603 C -0.01097 0.80843 0.84653
 C1604 C -0.00405 0.79729 0.83316
 C1605 C -0.01493 0.78574 0.82386
 C1606 C -0.03287 0.78551 0.82806
 H1607 H -0.05221 0.83752 0.89070
 H1608 H -0.09127 0.79828 0.85593
 H1609 H -0.10278 0.81442 0.88247
 H1610 H -0.06639 0.78806 0.83763
 H1611 H -0.02750 0.82828 0.87129
 H1612 H -0.00231 0.81721 0.85353
 H1613 H 0.00978 0.79784 0.82989
 H1614 H -0.04145 0.77697 0.82055
 C1615 C 0.38924 0.82378 0.33661
 C1616 C 0.40207 0.81458 0.32705
 C1617 C 0.41319 0.82259 0.31364
 C1618 C 0.41174 0.83979 0.31068
 C1619 C 0.39840 0.84875 0.31957
 C1620 C 0.38664 0.84066 0.33204
 C1621 C 0.42495 0.81316 0.30275
 C1622 C 0.42525 0.79577 0.30461
 C1623 C 0.41438 0.78780 0.31833
 C1624 C 0.40308 0.79729 0.32972
 C1625 C 0.41473 0.77042 0.32018
 C1626 C 0.42574 0.76099 0.30852
 C1627 C 0.43655 0.76876 0.29476
 C1628 C 0.43619 0.78620 0.29289
 H1629 H 0.38024 0.81738 0.34619
 H1630 H 0.42025 0.84611 0.30066
 H1631 H 0.39674 0.86179 0.31598
 H1632 H 0.43334 0.81927 0.29230
 H1633 H 0.39457 0.79116 0.34006
 H1634 H 0.40654 0.76413 0.33068
 H1635 H 0.42603 0.74760 0.31052
 H1636 H 0.44480 0.79240 0.28272
 C1637 C -0.12414 0.81327 0.82170
 C1638 C -0.11004 0.80614 0.81170
 C1639 C -0.10056 0.81582 0.79818
 C1640 C -0.10500 0.83249 0.79521
 C1641 C -0.11890 0.83950 0.80520
 C1642 C -0.12892 0.82992 0.81821
 C1643 C -0.08697 0.80866 0.78757
 C1644 C -0.08262 0.79191 0.79030
 C1645 C -0.09187 0.78221 0.80398
 C1646 C -0.10554 0.78938 0.81460
 C1647 C -0.08719 0.76553 0.80687
 C1648 C -0.07328 0.75863 0.79659
 C1649 C -0.06401 0.76820 0.78298
 C1650 C -0.06894 0.78480 0.77974
 H1651 H -0.13168 0.80573 0.83170
 H1652 H -0.09795 0.84003 0.78481
 H1653 H -0.12208 0.85238 0.80225
 H1654 H -0.07985 0.81611 0.77711
 H1655 H -0.11270 0.78192 0.82501
 H1656 H -0.09407 0.75791 0.81734
 H1657 H -0.06957 0.74587 0.79951
 H1658 H -0.06162 0.79242 0.76962
 C1659 C 0.87543 0.33169 0.44757
 C1660 C 0.86062 0.32249 0.45351
 C1661 C 0.84819 0.31731 0.43979
 C1662 C 0.85070 0.32155 0.42045
 C1663 C 0.86574 0.33014 0.41459
 C1664 C 0.87830 0.33517 0.42801
 C1665 C 0.83367 0.30768 0.44553
 C1666 C 0.83150 0.30293 0.46481
 C1667 C 0.84380 0.30830 0.47856
 C1668 C 0.85825 0.31804 0.47284
 C1669 C 0.84141 0.30391 0.49788
 C1670 C 0.82689 0.29446 0.50360
 C1671 C 0.81466 0.28889 0.49009
 C1672 C 0.81712 0.29307 0.47063
 H1673 H 0.88514 0.33541 0.45800
 H1674 H 0.84124 0.31787 0.40979
 H1675 H 0.86766 0.33274 0.39947
 H1676 H 0.82419 0.30370 0.43497
 H1677 H 0.86770 0.32206 0.48342
 H1678 H 0.85064 0.30800 0.50864
 H1679 H 0.82510 0.29163 0.51868
 H1680 H 0.80746 0.28925 0.46018
 C1681 C 0.87796 0.80577 -0.06412
 C1682 C 0.86589 0.79583 -0.05419
 C1683 C 0.85943 0.80111 -0.03620
 C1684 C 0.86553 0.81606 -0.02826
 C1685 C 0.87763 0.82591 -0.03826
 C1686 C 0.88388 0.82090 -0.05632
 C1687 C 0.84681 0.79148 -0.02661
 C1688 C 0.84051 0.77674 -0.03489
 C1689 C 0.84736 0.77121 -0.05261
 C1690 C 0.86010 0.78076 -0.06211
 C1691 C 0.84090 0.75654 -0.06088
 C1692 C 0.82701 0.74797 -0.05228
 C1693 C 0.81948 0.75385 -0.03516
 C1694 C 0.82685 0.76787 -0.02615
 H1695 H 0.88282 0.80159 -0.07792
 H1696 H 0.86077 0.82024 -0.01443
 H1697 H 0.88205 0.83745 -0.03187
 H1698 H 0.84156 0.79569 -0.01299
 H1699 H 0.86517 0.77667 -0.07587
 H1700 H 0.84607 0.75211 -0.07443
 H1701 H 0.82158 0.73725 -0.05959
 H1702 H 0.82124 0.77257 -0.01293
 C1703 C -0.12860 -0.06855 -0.07360
 C1704 C -0.11573 -0.06036 -0.06271
 C1705 C -0.10444 -0.06973 -0.05091
 C1706 C -0.10627 -0.08704 -0.05004
 C1707 C -0.11948 -0.09503 -0.06021
 C1708 C -0.13100 -0.08594 -0.07197
 C1709 C -0.09177 -0.06166 -0.03979
 C1710 C -0.09053 -0.04424 -0.03980
 C1711 C -0.10202 -0.03480 -0.05129
 C1712 C -0.11437 -0.04291 -0.06287
 C1713 C -0.10095 -0.01739 -0.05102
 C1714 C -0.08833 -0.00939 -0.03992
 C1715 C -0.07640 -0.01862 -0.02889
 C1716 C -0.07784 -0.03611 -0.02868
 H1717 H -0.13733 -0.06124 -0.08242
 H1718 H -0.09781 -0.09439 -0.04101
 H1719 H -0.12065 -0.10843 -0.05870
 H1720 H -0.08307 -0.06892 -0.03088
 H1721 H -0.12310 -0.03563 -0.07174
 H1722 H -0.10967 -0.00993 -0.05967
 H1723 H -0.08751 0.00407 -0.04059
 H1724 H -0.06865 -0.04346 -0.02049
 C1725 C -0.12012 0.44104 0.42796
 C1726 C -0.10749 0.45070 0.43742
 C1727 C -0.10110 0.44541 0.45541
 C1728 C -0.10746 0.43068 0.46368
 C1729 C -0.11989 0.42109 0.45416
 C1730 C -0.12647 0.42619 0.43630
 C1731 C -0.08844 0.45488 0.46489
 C1732 C -0.08200 0.46960 0.45660
 C1733 C -0.08848 0.47508 0.43874
 C1734 C -0.10123 0.46560 0.42925
 C1735 C -0.08181 0.48976 0.43050
 C1736 C -0.06834 0.49854 0.43948
 C1737 C -0.06139 0.49286 0.45696
 C1738 C -0.06871 0.47861 0.46567
 H1739 H -0.12509 0.44519 0.41424
 H1740 H -0.10290 0.42662 0.47760
 H1741 H -0.12456 0.40979 0.46104
 H1742 H -0.08344 0.45069 0.47860
 H1743 H -0.10612 0.46972 0.41547
 H1744 H -0.08663 0.49417 0.41682
 H1745 H -0.06290 0.50939 0.43233
 H1746 H -0.06347 0.47395 0.47905
 C1747 C 0.36766 -0.05865 0.42381
 C1748 C 0.37797 -0.04983 0.43693
 C1749 C 0.38261 -0.05735 0.45450
 C1750 C 0.37663 -0.07350 0.45874
 C1751 C 0.36610 -0.08212 0.44573
 C1752 C 0.36151 -0.07487 0.42803
 C1753 C 0.39317 -0.04862 0.46749
 C1754 C 0.39913 -0.03246 0.46312
 C1755 C 0.39420 -0.02485 0.44568
 C1756 C 0.38367 -0.03358 0.43270
 C1757 C 0.40019 -0.00874 0.44132
 C1758 C 0.41159 -0.00050 0.45369
 C1759 C 0.41715 -0.00816 0.47075
 C1760 C 0.41042 -0.02401 0.47561
 H1761 H 0.36429 -0.05267 0.41038
 H1762 H 0.38005 -0.07945 0.47216
 H1763 H 0.36174 -0.09457 0.44953
 H1764 H 0.39685 -0.05444 0.48092
 H1765 H 0.38006 -0.02778 0.41923
 H1766 H 0.39649 -0.00271 0.42803
 H1767 H 0.41662 0.01162 0.44950
 H1768 H 0.41473 -0.03021 0.48856
 C1769 C 0.37206 0.42649 -0.04288
 C1770 C 0.38532 0.43617 -0.03473
 C1771 C 0.39073 0.45112 -0.04378
 C1772 C 0.38272 0.45613 -0.06083
 C1773 C 0.36920 0.44664 -0.06865
 C1774 C 0.36352 0.43180 -0.05966
 C1775 C 0.40383 0.46094 -0.03547
 C1776 C 0.41130 0.45617 -0.01799
 C1777 C 0.40566 0.44135 -0.00879
 C1778 C 0.39287 0.43135 -0.01732
 C1779 C 0.41293 0.43676 0.00881
 C1780 C 0.42604 0.44650 0.01699
 C1781 C 0.43221 0.46098 0.00768
 C1782 C 0.42449 0.46589 -0.00969
 H1783 H 0.36800 0.41513 -0.03564
 H1784 H 0.38665 0.46760 -0.06790
 H1785 H 0.36310 0.45109 -0.08165
 H1786 H 0.40806 0.47237 -0.04247
 H1787 H 0.38863 0.41993 -0.01030
 H1788 H 0.40872 0.42547 0.01608
 H1789 H 0.43179 0.44231 0.03031
 H1790 H 0.42913 0.47695 -0.01712
 C1791 C 0.38000 0.44244 0.82106
 C1792 C 0.36820 0.44989 0.80841
 C1793 C 0.35971 0.44009 0.79443
 C1794 C 0.36332 0.42298 0.79331
 C1795 C 0.37538 0.41570 0.80575
 C1796 C 0.38385 0.42537 0.81970
 C1797 C 0.34791 0.44758 0.78175
 C1798 C 0.34462 0.46477 0.78281
 C1799 C 0.35332 0.47457 0.79664
 C1800 C 0.36501 0.46706 0.80937
 C1801 C 0.34998 0.49169 0.79775
 C1802 C 0.33759 0.49898 0.78580
 C1803 C 0.32843 0.48932 0.77237
 C1804 C 0.33238 0.47226 0.77063
 H1805 H 0.38661 0.45009 0.83159
 H1806 H 0.35702 0.41528 0.78262
 H1807 H 0.37812 0.40252 0.80445
 H1808 H 0.34131 0.44007 0.77109
 H1809 H 0.37160 0.47458 0.82005
 H1810 H 0.35657 0.49937 0.80826
 H1811 H 0.33471 0.51209 0.78757
 H1812 H 0.32521 0.46456 0.76059
 C1813 C 0.38506 -0.07517 0.28809
 C1814 C 0.37051 -0.06643 0.28123
 C1815 C 0.36064 -0.05643 0.29391
 C1816 C 0.36536 -0.05549 0.31326
 C1817 C 0.38011 -0.06389 0.31986
 C1818 C 0.39022 -0.07364 0.30733
 C1819 C 0.34645 -0.04724 0.28696
 C1820 C 0.34212 -0.04779 0.26744
 C1821 C 0.35189 -0.05793 0.25481
 C1822 C 0.36597 -0.06723 0.26179
 C1823 C 0.34737 -0.05866 0.23537
 C1824 C 0.33310 -0.04969 0.22855
 C1825 C 0.32329 -0.03958 0.24095
 C1826 C 0.32802 -0.03853 0.26037
 H1827 H 0.39273 -0.08264 0.27827
 H1828 H 0.35786 -0.04800 0.32322
 H1829 H 0.38368 -0.06265 0.33480
 H1830 H 0.33892 -0.03953 0.29668
 H1831 H 0.37350 -0.07493 0.25207
 H1832 H 0.35468 -0.06641 0.22551
 H1833 H 0.32952 -0.05088 0.21361
 H1834 H 0.32024 -0.03112 0.27016
 C1835 C 0.11790 0.55511 0.69670
 C1836 C 0.13236 0.54931 0.70689
 C1837 C 0.14016 0.55950 0.72098
 C1838 C 0.13293 0.57512 0.72508
 C1839 C 0.11847 0.58083 0.71485
 C1840 C 0.11098 0.57098 0.70038
 C1841 C 0.15521 0.55402 0.73046
 C1842 C 0.16257 0.53853 0.72590
 C1843 C 0.15436 0.52814 0.71226
 C1844 C 0.13928 0.53356 0.70291
 C1845 C 0.16167 0.51268 0.70771
 C1846 C 0.17748 0.50789 0.71581
 C1847 C 0.18623 0.51842 0.72873
 C1848 C 0.17838 0.53352 0.73418
 H1849 H 0.11212 0.54727 0.68578
 H1850 H 0.13862 0.58304 0.73597
 H1851 H 0.11336 0.59308 0.71803
 H1852 H 0.16142 0.56197 0.74101
 H1853 H 0.13319 0.52570 0.69219
 H1854 H 0.15546 0.50453 0.69740
 H1855 H 0.18315 0.49616 0.71143
 H1856 H 0.18500 0.54182 0.74404
 C1857 C 0.11701 0.05121 0.17844
 C1858 C 0.13244 0.04376 0.18540
 C1859 C 0.14328 0.05273 0.19816
 C1860 C 0.13875 0.06880 0.20374
 C1861 C 0.12349 0.07599 0.19707
 C1862 C 0.11224 0.06739 0.18443
 C1863 C 0.15852 0.04554 0.20533
 C1864 C 0.16322 0.02940 0.20003
 C1865 C 0.15257 0.02027 0.18728
 C1866 C 0.13721 0.02750 0.18003
 C1867 C 0.15760 0.00413 0.18197
 C1868 C 0.17310 -0.00275 0.18901
 C1869 C 0.18381 0.00634 0.20163
 C1870 C 0.17860 0.02239 0.20718
 H1871 H 0.10865 0.04431 0.16877
 H1872 H 0.14695 0.07581 0.21348
 H1873 H 0.12062 0.08847 0.20201
 H1874 H 0.16672 0.05254 0.21510
 H1875 H 0.12901 0.02050 0.17027
 H1876 H 0.14967 -0.00311 0.17220
 H1877 H 0.17680 -0.01511 0.18437
 H1878 H 0.18670 0.02965 0.21677
 C1879 C 0.62561 0.66910 0.19894
 C1880 C 0.61069 0.67737 0.20565
 C1881 C 0.59628 0.67960 0.19332
 C1882 C 0.59691 0.67316 0.17466
 C1883 C 0.61204 0.66546 0.16787
 C1884 C 0.62654 0.66354 0.17988
 C1885 C 0.58161 0.68840 0.19974
 C1886 C 0.58122 0.69513 0.21829
 C1887 C 0.59539 0.69245 0.23084
 C1888 C 0.61005 0.68362 0.22442
 C1889 C 0.59462 0.69865 0.24963
 C1890 C 0.57999 0.70749 0.25591
 C1891 C 0.56618 0.71065 0.24333
 C1892 C 0.56682 0.70441 0.22455
 H1893 H 0.63681 0.66771 0.20825
 H1894 H 0.58583 0.67435 0.16521
 H1895 H 0.61248 0.66111 0.15319
 H1896 H 0.57059 0.69016 0.19026
 H1897 H 0.62100 0.68172 0.23397
 H1898 H 0.60527 0.69654 0.25950
 H1899 H 0.57946 0.71194 0.27055
 H1900 H 0.55586 0.70637 0.21503
 C1901 C 0.12676 0.68092 0.68984
 C1902 C 0.11424 0.69275 0.69522
 C1903 C 0.10237 0.69888 0.68145
 C1904 C 0.10352 0.69335 0.66243
 C1905 C 0.11643 0.68202 0.65705
 C1906 C 0.12809 0.67572 0.67071
 C1907 C 0.08976 0.71063 0.68684
 C1908 C 0.08916 0.71662 0.70572
 C1909 C 0.10141 0.71087 0.71930
 C1910 C 0.11379 0.69891 0.71400
 C1911 C 0.10080 0.71686 0.73815
 C1912 C 0.08754 0.72767 0.74382
 C1913 C 0.07479 0.73286 0.73070
 C1914 C 0.07607 0.72776 0.71146
 H1915 H 0.13609 0.67644 0.70028
 H1916 H 0.09483 0.69822 0.65162
 H1917 H 0.11752 0.67835 0.64215
 H1918 H 0.08043 0.71508 0.67637
 H1919 H 0.12304 0.69437 0.72449
 H1920 H 0.11015 0.71265 0.74870
 H1921 H 0.08672 0.73132 0.75875
 H1922 H 0.06609 0.73139 0.70132
 C1923 C 0.62606 0.18549 0.58313
 C1924 C 0.64034 0.19357 0.57437
 C1925 C 0.65394 0.18403 0.56618
 C1926 C 0.65319 0.16659 0.56728
 C1927 C 0.63862 0.15864 0.57536
 C1928 C 0.62484 0.16801 0.58308
 C1929 C 0.66772 0.19203 0.55646
 C1930 C 0.66781 0.20942 0.55430
 C1931 C 0.65442 0.21899 0.56284
 C1932 C 0.64086 0.21101 0.57298
 C1933 C 0.65472 0.23639 0.56094
 C1934 C 0.66813 0.24426 0.55064
 C1935 C 0.68128 0.23486 0.54175
 C1936 C 0.68106 0.21741 0.54367
 H1937 H 0.61542 0.19280 0.58895
 H1938 H 0.66359 0.15909 0.56135
 H1939 H 0.63801 0.14515 0.57535
 H1940 H 0.67810 0.18471 0.55015
 H1941 H 0.63048 0.21835 0.57932
 H1942 H 0.64463 0.24393 0.56752
 H1943 H 0.66828 0.25774 0.54964
 H1944 H 0.69147 0.21012 0.53736
 C1945 C 0.62365 0.67689 0.06511
 C1946 C 0.63657 0.68192 0.05195
 C1947 C 0.64794 0.66997 0.04390
 C1948 C 0.64590 0.65313 0.04887
 C1949 C 0.63291 0.64819 0.06188
 C1950 C 0.62171 0.66002 0.07017
 C1951 C 0.66114 0.67506 0.03107
 C1952 C 0.66306 0.69195 0.02616
 C1953 C 0.65141 0.70382 0.03395
 C1954 C 0.63825 0.69872 0.04674
 C1955 C 0.65339 0.72069 0.02922
 C1956 C 0.66728 0.72592 0.01764
 C1957 C 0.67927 0.71436 0.01031
 C1958 C 0.67682 0.69729 0.01417
 H1959 H 0.61491 0.68610 0.07114
 H1960 H 0.65419 0.64377 0.04249
 H1961 H 0.63158 0.63509 0.06541
 H1962 H 0.67001 0.66593 0.02509
 H1963 H 0.62947 0.70788 0.05285
 H1964 H 0.64455 0.72993 0.03502
 H1965 H 0.66903 0.73913 0.01495
 H1966 H 0.68626 0.68834 0.00893
 C1967 C 0.14264 0.05307 0.01064
 C1968 C 0.12583 0.04641 0.00805
 C1969 C 0.12147 0.03078 0.01623
 C1970 C 0.13398 0.02199 0.02665
 C1971 C 0.15057 0.02877 0.02940
 C1972 C 0.15511 0.04448 0.02167
 C1973 C 0.10458 0.02429 0.01418
 C1974 C 0.09188 0.03333 0.00426
 C1975 C 0.09621 0.04890 -0.00405
 C1976 C 0.11320 0.05531 -0.00222
 C1977 C 0.08339 0.05791 -0.01384
 C1978 C 0.06638 0.05165 -0.01517
 C1979 C 0.06190 0.03622 -0.00678
 C1980 C 0.07483 0.02709 0.00280
 H1981 H 0.14576 0.06515 0.00449
 H1982 H 0.13085 0.00998 0.03296
 H1983 H 0.15976 0.02166 0.03785
 H1984 H 0.10124 0.01234 0.02057
 H1985 H 0.11650 0.06731 -0.00849
 H1986 H 0.08646 0.06988 -0.02029
 H1987 H 0.05671 0.05898 -0.02263
 H1988 H 0.07162 0.01518 0.00935
 C1989 C 0.12380 0.58647 0.55857
 C1990 C 0.11182 0.57528 0.55051
 C1991 C 0.10373 0.56300 0.56217
 C1992 C 0.10774 0.56220 0.58173
 C1993 C 0.12009 0.57306 0.58953
 C1994 C 0.12838 0.58513 0.57798
 C1995 C 0.09211 0.55150 0.55401
 C1996 C 0.08887 0.55183 0.53424
 C1997 C 0.09712 0.56402 0.52259
 C1998 C 0.10832 0.57582 0.53083
 C1999 C 0.09406 0.56422 0.50284
 C2000 C 0.08262 0.55271 0.49471
 C2001 C 0.07389 0.54080 0.50618
 C2002 C 0.07734 0.54028 0.52597
 H2003 H 0.13020 0.59567 0.54950
 H2004 H 0.10171 0.55285 0.59084
 H2005 H 0.12331 0.57190 0.60458
 H2006 H 0.08588 0.54211 0.56295
 H2007 H 0.11456 0.58520 0.52186
 H2008 H 0.10029 0.57346 0.49369
 H2009 H 0.08012 0.55356 0.47947
 H2010 H 0.07053 0.53138 0.53507
 C2011 C 0.62462 0.05933 0.56019
 C2012 C 0.60983 0.05231 0.55119
 C2013 C 0.60446 0.05852 0.53316
 C2014 C 0.61389 0.07144 0.52437
 C2015 C 0.62835 0.07842 0.53342
 C2016 C 0.63391 0.07258 0.55142
 C2017 C 0.58961 0.05193 0.52423
 C2018 C 0.57982 0.03926 0.53311
 C2019 C 0.58514 0.03284 0.55102
 C2020 C 0.60017 0.03935 0.55993
 C2021 C 0.57512 0.02024 0.55982
 C2022 C 0.55973 0.01442 0.55125
 C2023 C 0.55411 0.02099 0.53360
 C2024 C 0.56450 0.03324 0.52450
 H2025 H 0.62870 0.05468 0.57405
 H2026 H 0.60995 0.07632 0.51056
 H2027 H 0.63520 0.08848 0.52618
 H2028 H 0.58549 0.05687 0.51049
 H2029 H 0.60419 0.03451 0.57375
 H2030 H 0.57897 0.01512 0.57355
 H2031 H 0.55201 0.00506 0.55870
 H2032 H 0.56040 0.03857 0.51097
 C2033 C 0.62566 0.56100 0.07950
 C2034 C 0.61412 0.55195 0.06809
 C2035 C 0.60524 0.55997 0.05299
 C2036 C 0.60862 0.57690 0.04920
 C2037 C 0.62041 0.58584 0.06058
 C2038 C 0.62878 0.57800 0.07602
 C2039 C 0.59289 0.55102 0.04230
 C2040 C 0.58929 0.53425 0.04676
 C2041 C 0.59874 0.52616 0.06141
 C2042 C 0.61117 0.53503 0.07188
 C2043 C 0.59508 0.50949 0.06596
 C2044 C 0.58133 0.50120 0.05703
 C2045 C 0.57116 0.50938 0.04323
 C2046 C 0.57573 0.52570 0.03754
 H2047 H 0.63231 0.55466 0.09108
 H2048 H 0.60198 0.58326 0.03764
 H2049 H 0.62274 0.59891 0.05755
 H2050 H 0.58568 0.55723 0.03103
 H2051 H 0.61815 0.52890 0.08340
 H2052 H 0.60232 0.50311 0.07706
 H2053 H 0.57813 0.48864 0.06161
 H2054 H 0.56792 0.53222 0.02702
 C2055 C 0.06277 0.05505 0.13625
 C2056 C 0.05166 0.04947 0.12147
 C2057 C 0.03648 0.05862 0.11694
 C2058 C 0.03247 0.07295 0.12739
 C2059 C 0.04352 0.07847 0.14190
 C2060 C 0.05898 0.06980 0.14649
 C2061 C 0.02566 0.05350 0.10184
 C2062 C 0.02987 0.03940 0.09095
 C2063 C 0.04489 0.03007 0.09559
 C2064 C 0.05563 0.03509 0.11087
 C2065 C 0.04915 0.01608 0.08456
 C2066 C 0.03902 0.01171 0.06871
 C2067 C 0.02427 0.02112 0.06360
 C2068 C 0.01958 0.03479 0.07513
 H2069 H 0.07449 0.04808 0.13946
 H2070 H 0.02085 0.08007 0.12417
 H2071 H 0.03991 0.08976 0.14939
 H2072 H 0.01415 0.06069 0.09831
 H2073 H 0.06723 0.02800 0.11426
 H2074 H 0.06057 0.00873 0.08791
 H2075 H 0.04297 0.00111 0.06018
 H2076 H 0.00836 0.04227 0.07133
 C2077 C 0.05822 0.56990 0.63366
 C2078 C 0.05348 0.56104 0.61713
 C2079 C 0.06400 0.54777 0.61057
 C2080 C 0.07906 0.54354 0.62076
 C2081 C 0.08367 0.55236 0.63724
 C2082 C 0.07329 0.56559 0.64393
 C2083 C 0.05924 0.53891 0.59402
 C2084 C 0.04398 0.54306 0.58405
 C2085 C 0.03339 0.55620 0.59086
 C2086 C 0.03825 0.56515 0.60722
 C2087 C 0.01805 0.56025 0.58119
 C2088 C 0.01332 0.55160 0.56473
 C2089 C 0.02387 0.53873 0.55740
 C2090 C 0.03917 0.53440 0.56732
 H2091 H 0.05004 0.58000 0.63862
 H2092 H 0.08726 0.53337 0.61602
 H2093 H 0.09538 0.54874 0.64478
 H2094 H 0.06735 0.52877 0.58898
 H2095 H 0.03012 0.57528 0.61229
 H2096 H 0.00976 0.57024 0.58625
 H2097 H 0.00148 0.55532 0.55750
 H2098 H 0.04751 0.52461 0.56184
 C2099 C 0.52984 0.05775 0.66125
 C2100 C 0.52400 0.04865 0.64542
 C2101 C 0.53342 0.03456 0.63915
 C2102 C 0.54814 0.02942 0.64940
 C2103 C 0.55385 0.03850 0.66529
 C2104 C 0.54504 0.05305 0.67113
 C2105 C 0.52820 0.02612 0.62251
 C2106 C 0.51374 0.03171 0.61205
 C2107 C 0.50399 0.04544 0.61881
 C2108 C 0.50912 0.05375 0.63548
 C2109 C 0.48955 0.05102 0.60846
 C2110 C 0.48527 0.04363 0.59106
 C2111 C 0.49529 0.03043 0.58368
 C2112 C 0.50924 0.02420 0.59457
 H2113 H 0.52262 0.06872 0.66560
 H2114 H 0.55544 0.01856 0.64493
 H2115 H 0.56549 0.03434 0.67259
 H2116 H 0.53564 0.01553 0.61745
 H2117 H 0.50181 0.06449 0.64040
 H2118 H 0.48186 0.06144 0.61354
 H2119 H 0.47434 0.04859 0.58311
 H2120 H 0.51709 0.01406 0.58906
 C2121 C 0.57740 0.56520 0.14146
 C2122 C 0.56450 0.55634 0.13148
 C2123 C 0.55138 0.56512 0.12149
 C2124 C 0.55126 0.58256 0.12184
 C2125 C 0.56391 0.59126 0.13213
 C2126 C 0.57701 0.58269 0.14210
 C2127 C 0.53854 0.55633 0.11141
 C2128 C 0.53853 0.53887 0.11133
 C2129 C 0.55138 0.53007 0.12168
 C2130 C 0.56430 0.53886 0.13167
 C2131 C 0.55136 0.51260 0.12139
 C2132 C 0.53940 0.50396 0.11004
 C2133 C 0.52708 0.51263 0.09902
 C2134 C 0.52631 0.53009 0.10035
 H2135 H 0.58727 0.55849 0.14941
 H2136 H 0.54128 0.58947 0.11431
 H2137 H 0.56337 0.60475 0.13246
 H2138 H 0.52868 0.56309 0.10347
 H2139 H 0.57426 0.53212 0.13946
 H2140 H 0.56106 0.50565 0.12931
 H2141 H 0.54036 0.49052 0.10912
 H2142 H 0.51712 0.53697 0.09163
 C2143 C 0.18011 0.57392 0.62236
 C2144 C 0.19250 0.56673 0.63457
 C2145 C 0.20292 0.57706 0.64631
 C2146 C 0.20076 0.59442 0.64558
 C2147 C 0.18863 0.60150 0.63307
 C2148 C 0.17824 0.59133 0.62132
 C2149 C 0.21540 0.56988 0.65845
 C2150 C 0.21763 0.55251 0.65890
 C2151 C 0.20724 0.54220 0.64710
 C2152 C 0.19478 0.54938 0.63498
 C2153 C 0.20923 0.52483 0.64794
 C2154 C 0.22092 0.51767 0.66088
 C2155 C 0.23114 0.52777 0.67286
 C2156 C 0.22969 0.54524 0.67144
 H2157 H 0.17233 0.56596 0.61318
 H2158 H 0.20865 0.60253 0.65445
 H2159 H 0.18740 0.61494 0.63253
 H2160 H 0.22329 0.57780 0.66759
 H2161 H 0.18678 0.54146 0.62596
 H2162 H 0.20133 0.51675 0.63903
 H2163 H 0.22162 0.50422 0.66192
 H2164 H 0.23715 0.55318 0.68097
 C2165 C 0.20316 0.02867 0.06601
 C2166 C 0.21232 0.02242 0.08178
 C2167 C 0.22754 0.03071 0.08814
 C2168 C 0.23364 0.04481 0.07824
 C2169 C 0.22426 0.05117 0.06278
 C2170 C 0.20864 0.04347 0.05676
 C2171 C 0.23604 0.02514 0.10469
 C2172 C 0.22921 0.01169 0.11525
 C2173 C 0.21420 0.00318 0.10865
 C2174 C 0.20600 0.00844 0.09180
 C2175 C 0.20726 -0.01008 0.11942
 C2176 C 0.21466 -0.01443 0.13697
 C2177 C 0.22927 -0.00570 0.14398
 C2178 C 0.23674 0.00708 0.13272
 H2179 H 0.19130 0.02236 0.06159
 H2180 H 0.24536 0.05124 0.08285
 H2181 H 0.22906 0.06244 0.05592
 H2182 H 0.24757 0.03167 0.10975
 H2183 H 0.19431 0.00207 0.08691
 H2184 H 0.19579 -0.01678 0.11454
 H2185 H 0.20867 -0.02437 0.14527
 H2186 H 0.24799 0.01395 0.13790
 C2187 C 0.67176 0.18722 0.63227
 C2188 C 0.68330 0.19524 0.61961
 C2189 C 0.69096 0.18619 0.60438
 C2190 C 0.68681 0.16927 0.60203
 C2191 C 0.67583 0.16121 0.61521
 C2192 C 0.66841 0.17010 0.63050
 C2193 C 0.70300 0.19408 0.59214
 C2194 C 0.70775 0.21077 0.59523
 C2195 C 0.70003 0.21981 0.61043
 C2196 C 0.68778 0.21200 0.62245
 C2197 C 0.70455 0.23659 0.61320
 C2198 C 0.71613 0.24453 0.60059
 C2199 C 0.72372 0.23568 0.58538
 C2200 C 0.71976 0.21871 0.58304
 H2201 H 0.66624 0.19408 0.64421
 H2202 H 0.69249 0.16217 0.59040
 H2203 H 0.67332 0.14799 0.61365
 H2204 H 0.70880 0.18721 0.58038
 H2205 H 0.68188 0.21891 0.63415
 H2206 H 0.69870 0.24370 0.62473
 H2207 H 0.71874 0.25772 0.60230
 H2208 H 0.72510 0.21199 0.57091
 C2209 C 0.68826 0.67040 0.12777
 C2210 C 0.69363 0.67944 0.11147
 C2211 C 0.68168 0.68238 0.09646
 C2212 C 0.66459 0.67616 0.09800
 C2213 C 0.65922 0.66756 0.11447
 C2214 C 0.67095 0.66472 0.12953
 C2215 C 0.68693 0.69164 0.08029
 C2216 C 0.70399 0.69805 0.07899
 C2217 C 0.71598 0.69493 0.09393
 C2218 C 0.71072 0.68568 0.11007
 C2219 C 0.73316 0.70091 0.09239
 C2220 C 0.73856 0.70961 0.07603
 C2221 C 0.72678 0.71285 0.06117
 C2222 C 0.70942 0.70723 0.06280
 H2223 H 0.69733 0.66844 0.13944
 H2224 H 0.65528 0.67829 0.08668
 H2225 H 0.64579 0.66331 0.11556
 H2226 H 0.67775 0.69388 0.06878
 H2227 H 0.71993 0.68333 0.12151
 H2228 H 0.74253 0.69854 0.10365
 H2229 H 0.75206 0.71362 0.07482
 H2230 H 0.70042 0.70928 0.05108
 C2231 C 0.56053 0.67120 0.12647
 C2232 C 0.55307 0.68267 0.13927
 C2233 C 0.56270 0.69687 0.14498
 C2234 C 0.57946 0.69959 0.13736
 C2235 C 0.58674 0.68820 0.12450
 C2236 C 0.57745 0.67381 0.11906
 C2237 C 0.55558 0.70794 0.15847
 C2238 C 0.53891 0.70497 0.16632
 C2239 C 0.52907 0.69107 0.16007
 C2240 C 0.53619 0.68002 0.14661
 C2241 C 0.51240 0.68818 0.16774
 C2242 C 0.50584 0.69844 0.18218
 C2243 C 0.51582 0.71183 0.18931
 C2244 C 0.53219 0.71531 0.18084
 H2245 H 0.55313 0.66026 0.12227
 H2246 H 0.58704 0.71041 0.14155
 H2247 H 0.59981 0.69052 0.11909
 H2248 H 0.56315 0.71862 0.16317
 H2249 H 0.52873 0.66920 0.14212
 H2250 H 0.50462 0.67766 0.16301
 H2251 H 0.49321 0.69538 0.18833
 H2252 H 0.54012 0.72549 0.18619
 C2253 C 0.07379 0.67860 0.62500
 C2254 C 0.06264 0.68450 0.63942
 C2255 C 0.05919 0.67455 0.65579
 C2256 C 0.06668 0.65863 0.65713
 C2257 C 0.07739 0.65264 0.64235
 C2258 C 0.08117 0.66269 0.62635
 C2259 C 0.04838 0.68070 0.67046
 C2260 C 0.04091 0.69661 0.66888
 C2261 C 0.04421 0.70639 0.65232
 C2262 C 0.05502 0.70026 0.63772
 C2263 C 0.03704 0.72237 0.65083
 C2264 C 0.02730 0.72895 0.66595
 C2265 C 0.02422 0.71954 0.68263
 C2266 C 0.03069 0.70319 0.68384
 H2267 H 0.07648 0.68628 0.61249
 H2268 H 0.06419 0.65081 0.66953
 H2269 H 0.08289 0.64027 0.64349
 H2270 H 0.04596 0.67322 0.68316
 H2271 H 0.05769 0.70786 0.62514
 H2272 H 0.03947 0.73000 0.63824
 H2273 H 0.02262 0.74163 0.66488
 H2274 H 0.02876 0.69604 0.69690
 C2275 C 0.56648 0.62884 0.18871
 C2276 C 0.55798 0.63836 0.20266
 C2277 C 0.56783 0.64612 0.21724
 C2278 C 0.58600 0.64421 0.21758
 C2279 C 0.59435 0.63442 0.20382
 C2280 C 0.58464 0.62640 0.18946
 C2281 C 0.55933 0.65550 0.23133
 C2282 C 0.54110 0.65712 0.23106
 C2283 C 0.53122 0.64915 0.21666
 C2284 C 0.53974 0.63981 0.20253
 C2285 C 0.51304 0.65111 0.21628
 C2286 C 0.50486 0.66184 0.22922
 C2287 C 0.51471 0.67047 0.24298
 C2288 C 0.53272 0.66734 0.24439
 H2289 H 0.55875 0.62266 0.17783
 H2290 H 0.59371 0.65000 0.22873
 H2291 H 0.60834 0.63274 0.20476
 H2292 H 0.56690 0.66169 0.24235
 H2293 H 0.53220 0.63378 0.19137
 H2294 H 0.50527 0.64503 0.20537
 H2295 H 0.49102 0.66417 0.22770
 H2296 H 0.54058 0.67412 0.25469
 C2297 C 0.06724 0.61913 0.70777
 C2298 C 0.05719 0.63257 0.71437
 C2299 C 0.04213 0.63737 0.70415
 C2300 C 0.03746 0.62875 0.68748
 C2301 C 0.04756 0.61545 0.68097
 C2302 C 0.06251 0.61043 0.69104
 C2303 C 0.03209 0.65080 0.71062
 C2304 C 0.03710 0.65975 0.72696
 C2305 C 0.05215 0.65500 0.73720
 C2306 C 0.06203 0.64134 0.73094
 C2307 C 0.05727 0.66424 0.75329
 C2308 C 0.04796 0.67844 0.75874
 C2309 C 0.03318 0.68350 0.74840
 C2310 C 0.02760 0.67376 0.73279
 H2311 H 0.07875 0.61549 0.71570
 H2312 H 0.02601 0.63234 0.67942
 H2313 H 0.04358 0.60905 0.66805
 H2314 H 0.02060 0.65453 0.70268
 H2315 H 0.07362 0.63772 0.73876
 H2316 H 0.06877 0.66078 0.76133
 H2317 H 0.05262 0.68571 0.77075
 H2318 H 0.01634 0.67752 0.72451
 C2319 C 0.03455 0.14867 0.04248
 C2320 C 0.02846 0.13402 0.03371
 C2321 C 0.03563 0.12902 0.01592
 C2322 C 0.04854 0.13879 0.00708
 C2323 C 0.05479 0.15312 0.01602
 C2324 C 0.04811 0.15817 0.03397
 C2325 C 0.03014 0.11410 0.00746
 C2326 C 0.01788 0.10386 0.01679
 C2327 C 0.01055 0.10885 0.03449
 C2328 C 0.01572 0.12402 0.04274
 C2329 C -0.00149 0.09836 0.04385
 C2330 C -0.00576 0.08283 0.03607
 C2331 C 0.00179 0.07760 0.01867
 C2332 C 0.01333 0.08841 0.00893
 H2333 H 0.02913 0.15226 0.05625
 H2334 H 0.05410 0.13515 -0.00660
 H2335 H 0.06506 0.16012 0.00885
 H2336 H 0.03579 0.11023 -0.00610
 H2337 H 0.01023 0.12779 0.05642
 H2338 H -0.00729 0.10198 0.05741
 H2339 H -0.01475 0.07480 0.04385
 H2340 H 0.01929 0.08460 -0.00449
 C2341 C 0.08658 0.62299 0.55534
 C2342 C 0.07643 0.61047 0.54666
 C2343 C 0.07020 0.59690 0.55781
 C2344 C 0.07482 0.59570 0.57718
 C2345 C 0.08438 0.60848 0.58582
 C2346 C 0.08990 0.62244 0.57514
 C2347 C 0.05882 0.58516 0.54969
 C2348 C 0.05329 0.58698 0.53065
 C2349 C 0.05996 0.60018 0.51927
 C2350 C 0.07158 0.61179 0.52731
 C2351 C 0.05476 0.60159 0.50004
 C2352 C 0.04311 0.59001 0.49217
 C2353 C 0.03606 0.57717 0.50355
 C2354 C 0.04121 0.57575 0.52280
 H2355 H 0.09065 0.63380 0.54705
 H2356 H 0.07035 0.58529 0.58587
 H2357 H 0.08691 0.60777 0.60107
 H2358 H 0.05389 0.57488 0.55833
 H2359 H 0.07644 0.62210 0.51869
 H2360 H 0.05989 0.61151 0.49103
 H2361 H 0.03971 0.59096 0.47715
 H2362 H 0.03639 0.56543 0.53142
 C2363 C 0.56120 0.12509 0.57015
 C2364 C 0.55359 0.11310 0.55826
 C2365 C 0.56425 0.10127 0.54891
 C2366 C 0.58244 0.10196 0.55132
 C2367 C 0.58997 0.11423 0.56292
 C2368 C 0.57939 0.12576 0.57257
 C2369 C 0.55652 0.08894 0.53745
 C2370 C 0.53828 0.08832 0.53532
 C2371 C 0.52773 0.10043 0.54435
 C2372 C 0.53546 0.11277 0.55569
 C2373 C 0.50953 0.09970 0.54244
 C2374 C 0.50174 0.08657 0.53253
 C2375 C 0.51202 0.07411 0.52406
 C2376 C 0.53035 0.07537 0.52497
 H2377 H 0.55295 0.13415 0.57726
 H2378 H 0.59081 0.09304 0.54423
 H2379 H 0.60404 0.11460 0.56451
 H2380 H 0.56463 0.07969 0.53049
 H2381 H 0.52733 0.12193 0.56280
 H2382 H 0.50129 0.10893 0.54923
 H2383 H 0.48762 0.08583 0.53205
 H2384 H 0.53841 0.06569 0.51876
 C2385 C 0.56116 0.61710 0.08199
 C2386 C 0.55456 0.60175 0.07557
 C2387 C 0.56501 0.58731 0.07691
 C2388 C 0.58162 0.58838 0.08520
 C2389 C 0.58836 0.60382 0.09077
 C2390 C 0.57826 0.61825 0.08899
 C2391 C 0.55886 0.57213 0.06962
 C2392 C 0.54250 0.57125 0.06072
 C2393 C 0.53181 0.58556 0.05984
 C2394 C 0.53790 0.60072 0.06733
 C2395 C 0.51521 0.58443 0.05146
 C2396 C 0.50926 0.56928 0.04398
 C2397 C 0.52003 0.55523 0.04433
 C2398 C 0.53660 0.55624 0.05275
 H2399 H 0.55341 0.62830 0.08051
 H2400 H 0.58958 0.57736 0.08684
 H2401 H 0.60156 0.60455 0.09623
 H2402 H 0.56687 0.56106 0.07066
 H2403 H 0.52981 0.61175 0.06645
 H2404 H 0.50678 0.59522 0.05084
 H2405 H 0.49629 0.56850 0.03792
 H2406 H 0.54465 0.54518 0.05358
 C2407 C 0.69175 0.12548 0.55962
 C2408 C 0.69839 0.14011 0.55098
 C2409 C 0.68964 0.14719 0.53516
 C2410 C 0.67449 0.13953 0.52819
 C2411 C 0.66802 0.12498 0.53674
 C2412 C 0.67651 0.11766 0.55255
 C2413 C 0.69601 0.16192 0.52667
 C2414 C 0.71104 0.16976 0.53382
 C2415 C 0.72001 0.16255 0.54942
 C2416 C 0.71363 0.14779 0.55790
 C2417 C 0.73506 0.17039 0.55645
 C2418 C 0.74085 0.18550 0.54858
 C2419 C 0.73174 0.19314 0.53347
 C2420 C 0.71699 0.18492 0.52591
 H2421 H 0.69858 0.12019 0.57176
 H2422 H 0.66758 0.14483 0.51612
 H2423 H 0.65627 0.11951 0.53083
 H2424 H 0.68911 0.16742 0.51470
 H2425 H 0.72044 0.14239 0.57000
 H2426 H 0.74214 0.16503 0.56836
 H2427 H 0.75220 0.19147 0.55479
 H2428 H 0.70977 0.19057 0.51428
 C2429 C 0.67624 0.62188 0.06363
 C2430 C 0.68825 0.63308 0.05549
 C2431 C 0.69854 0.64331 0.06748
 C2432 C 0.69689 0.64186 0.08743
 C2433 C 0.68503 0.63052 0.09545
 C2434 C 0.67462 0.62045 0.08361
 C2435 C 0.71038 0.65470 0.05932
 C2436 C 0.71209 0.65589 0.03932
 C2437 C 0.70206 0.64537 0.02738
 C2438 C 0.69024 0.63401 0.03554
 C2439 C 0.70364 0.64671 0.00742
 C2440 C 0.71446 0.65888 -0.00069
 C2441 C 0.72410 0.66972 0.01103
 C2442 C 0.72323 0.66783 0.03106
 H2443 H 0.66854 0.61391 0.05438
 H2444 H 0.70501 0.64927 0.09682
 H2445 H 0.68414 0.62947 0.11091
 H2446 H 0.71811 0.66273 0.06849
 H2447 H 0.68241 0.62607 0.02637
 H2448 H 0.69604 0.63873 -0.00192
 H2449 H 0.71483 0.66022 -0.01615
 H2450 H 0.73033 0.67637 0.04024
 C2451 C 0.18860 0.62830 0.68317
 C2452 C 0.19547 0.61550 0.69444
 C2453 C 0.18411 0.60475 0.70473
 C2454 C 0.16601 0.60733 0.70384
 C2455 C 0.15925 0.62037 0.69282
 C2456 C 0.17050 0.63085 0.68227
 C2457 C 0.19105 0.59163 0.71561
 C2458 C 0.20921 0.58923 0.71634
 C2459 C 0.22050 0.60028 0.70633
 C2460 C 0.21356 0.61333 0.69549
 C2461 C 0.23858 0.59786 0.70688
 C2462 C 0.24544 0.58420 0.71656
 C2463 C 0.23438 0.57281 0.72605
 C2464 C 0.21626 0.57565 0.72635
 H2465 H 0.19742 0.63644 0.67527
 H2466 H 0.15710 0.59928 0.71167
 H2467 H 0.14524 0.62212 0.69231
 H2468 H 0.18236 0.58321 0.72329
 H2469 H 0.22225 0.62165 0.68763
 H2470 H 0.24738 0.60625 0.69933
 H2471 H 0.25942 0.58222 0.71608
 H2472 H 0.20760 0.56677 0.73335
 C2473 C 0.20451 0.12324 0.18014
 C2474 C 0.20864 0.10638 0.18372
 C2475 C 0.19732 0.09660 0.19531
 C2476 C 0.18214 0.10355 0.20292
 C2477 C 0.17827 0.12020 0.19961
 C2478 C 0.18941 0.13043 0.18838
 C2479 C 0.20146 0.08007 0.19956
 C2480 C 0.21697 0.07311 0.19272
 C2481 C 0.22831 0.08259 0.18089
 C2482 C 0.22401 0.09919 0.17632
 C2483 C 0.24387 0.07531 0.17422
 C2484 C 0.24831 0.05902 0.17971
 C2485 C 0.23728 0.04980 0.19200
 C2486 C 0.22145 0.05689 0.19805
 H2487 H 0.21328 0.13077 0.17142
 H2488 H 0.17334 0.09617 0.21177
 H2489 H 0.16643 0.12501 0.20605
 H2490 H 0.19278 0.07272 0.20862
 H2491 H 0.23276 0.10657 0.16740
 H2492 H 0.25274 0.08231 0.16506
 H2493 H 0.26056 0.05383 0.17478
 H2494 H 0.21264 0.04986 0.20726
 C2495 C 0.66850 1.12062 0.69409
 C2496 C 0.67839 1.10666 0.69957
 C2497 C 0.68369 1.09499 0.68552
 C2498 C 0.67878 1.09726 0.66639
 C2499 C 0.66940 1.11134 0.66101
 C2500 C 0.66438 1.12324 0.67470
 C2501 C 0.69411 1.08141 0.69069
 C2502 C 0.69942 1.07930 0.70974
 C2503 C 0.69398 1.09078 0.72389
 C2504 C 0.68352 1.10441 0.71871
 C2505 C 0.69894 1.08829 0.74302
 C2506 C 0.70880 1.07435 0.74815
 C2507 C 0.71427 1.06291 0.73416
 C2508 C 0.70976 1.06563 0.71491
 H2509 H 0.66489 1.12989 0.70465
 H2510 H 0.68263 1.08840 0.65549
 H2511 H 0.66639 1.11316 0.64599
 H2512 H 0.69817 1.07253 0.67988
 H2513 H 0.67947 1.11328 0.72955
 H2514 H 0.69485 1.09690 0.75409
 H2515 H 0.71192 1.07234 0.76311
 H2516 H 0.71351 1.05662 0.70411
 C2517 C 0.69628 0.62500 0.18180
 C2518 C 0.70609 0.61407 0.19328
 C2519 C 0.70102 0.61122 0.21256
 C2520 C 0.68648 0.61947 0.22011
 C2521 C 0.67668 0.63009 0.20857
 C2522 C 0.68128 0.63284 0.18925
 C2523 C 0.71018 0.59973 0.22382
 C2524 C 0.72408 0.59068 0.21595
 C2525 C 0.72938 0.59368 0.19680
 C2526 C 0.72047 0.60548 0.18563
 C2527 C 0.74311 0.58438 0.18895
 C2528 C 0.75090 0.57165 0.19960
 C2529 C 0.74522 0.56804 0.21841
 C2530 C 0.73216 0.57808 0.22667
 H2531 H 0.69997 0.62692 0.16692
 H2532 H 0.68242 0.61743 0.23484
 H2533 H 0.66530 0.63599 0.21478
 H2534 H 0.70605 0.59738 0.23849
 H2535 H 0.72437 0.60758 0.17084
 H2536 H 0.74739 0.58650 0.17430
 H2537 H 0.76081 0.56412 0.19274
 H2538 H 0.72751 0.57546 0.24109
 C2539 C 0.54786 0.11403 0.72332
 C2540 C 0.54080 0.12986 0.72650
 C2541 C 0.52891 0.13663 0.71317
 C2542 C 0.52415 0.12738 0.69700
 C2543 C 0.53114 0.11156 0.69401
 C2544 C 0.54312 0.10477 0.70706
 C2545 C 0.52202 0.15255 0.71618
 C2546 C 0.52683 0.16177 0.73237
 C2547 C 0.53864 0.15497 0.74576
 C2548 C 0.54554 0.13905 0.74275
 C2549 C 0.54350 0.16430 0.76185
 C2550 C 0.53696 0.18034 0.76450
 C2551 C 0.52532 0.18728 0.75118
 C2552 C 0.52019 0.17780 0.73523
 H2553 H 0.55702 0.10892 0.73355
 H2554 H 0.51507 0.13239 0.68664
 H2555 H 0.52732 0.10474 0.68132
 H2556 H 0.51299 0.15779 0.70588
 H2557 H 0.55466 0.13385 0.75298
 H2558 H 0.55254 0.15928 0.77225
 H2559 H 0.54115 0.18737 0.77689
 H2560 H 0.51139 0.18305 0.72472
 C2561 C 1.05630 0.12054 0.19139
 C2562 C 1.05245 0.13538 0.20116
 C2563 C 1.06575 0.14379 0.21137
 C2564 C 1.08265 0.13723 0.21166
 C2565 C 1.08633 0.12242 0.20208
 C2566 C 1.07324 0.11388 0.19188
 C2567 C 1.06199 0.15863 0.22111
 C2568 C 1.04508 0.16522 0.22076
 C2569 C 1.03176 0.15680 0.21059
 C2570 C 1.03551 0.14193 0.20092
 C2571 C 1.01494 0.16355 0.21001
 C2572 C 1.01142 0.17869 0.21901
 C2573 C 1.02459 0.18726 0.22899
 C2574 C 1.04136 0.18030 0.23008
 H2575 H 1.04607 0.11406 0.18368
 H2576 H 1.09301 0.14351 0.21937
 H2577 H 1.09953 0.11766 0.20266
 H2578 H 1.07224 0.16509 0.22884
 H2579 H 1.02528 0.13551 0.19310
 H2580 H 1.00457 0.15728 0.20231
 H2581 H 0.99839 0.18380 0.21799
 H2582 H 1.05167 0.18692 0.23751
 C2583 C 0.17144 0.63420 0.55480
 C2584 C 0.17877 0.64841 0.54603
 C2585 C 0.17973 0.66349 0.55642
 C2586 C 0.17282 0.66425 0.57505
 C2587 C 0.16618 0.64994 0.58391
 C2588 C 0.16573 0.63483 0.57397
 C2589 C 0.18813 0.67739 0.54834
 C2590 C 0.19597 0.67632 0.53019
 C2591 C 0.19446 0.66150 0.51940
 C2592 C 0.18575 0.64764 0.52736
 C2593 C 0.20201 0.66075 0.50099
 C2594 C 0.21137 0.67440 0.49359
 C2595 C 0.21359 0.68878 0.50469
 C2596 C 0.20561 0.68977 0.52281
 H2597 H 0.17102 0.62247 0.54714
 H2598 H 0.17300 0.67580 0.58294
 H2599 H 0.16154 0.65060 0.59859
 H2600 H 0.18902 0.68888 0.55642
 H2601 H 0.18488 0.63613 0.51929
 H2602 H 0.20080 0.64957 0.49241
 H2603 H 0.21716 0.67364 0.47942
 H2604 H 0.20682 0.70113 0.53109
 C2605 C 0.21215 0.09828 1.02114
 C2606 C 0.21603 0.11479 1.01610
 C2607 C 0.20381 0.12420 1.00557
 C2608 C 0.18803 0.11679 0.99997
 C2609 C 0.18419 0.10033 1.00518
 C2610 C 0.19610 0.09098 1.01604
 C2611 C 0.20745 0.14093 1.00112
 C2612 C 0.22307 0.14837 1.00726
 C2613 C 0.23536 0.13884 1.01758
 C2614 C 0.23180 0.12211 1.02185
 C2615 C 0.25091 0.14629 1.02377
 C2616 C 0.25417 0.16311 1.02008
 C2617 C 0.24197 0.17282 1.01006
 C2618 C 0.22648 0.16527 1.00351
 H2619 H 0.22152 0.09126 1.02944
 H2620 H 0.17852 0.12380 0.99185
 H2621 H 0.17174 0.09505 1.00102
 H2622 H 0.19801 0.14822 0.99318
 H2623 H 0.24117 0.11486 1.02993
 H2624 H 0.26047 0.13915 1.03167
 H2625 H 0.26621 0.16854 1.02530
 H2626 H 0.21694 0.17256 0.99578
 C2627 C 0.17771 0.68755 0.62464
 C2628 C 0.18903 0.69488 0.61124
 C2629 C 0.20258 0.68536 0.60291
 C2630 C 0.20479 0.66872 0.60858
 C2631 C 0.19353 0.66154 0.62216
 C2632 C 0.17982 0.67085 0.63016
 C2633 C 0.21325 0.69248 0.58864
 C2634 C 0.21038 0.70891 0.58252
 C2635 C 0.19717 0.71852 0.59136
 C2636 C 0.18669 0.71149 0.60574
 C2637 C 0.19422 0.73486 0.58523
 C2638 C 0.20363 0.74139 0.56979
 C2639 C 0.21625 0.73174 0.56025
 C2640 C 0.21996 0.71565 0.56713
 H2641 H 0.16733 0.69493 0.63088
 H2642 H 0.21507 0.66122 0.60234
 H2643 H 0.19543 0.64865 0.62623
 H2644 H 0.22336 0.68508 0.58189
 H2645 H 0.17636 0.71879 0.61226
 H2646 H 0.18421 0.74240 0.59193
 H2647 H 0.20055 0.75385 0.56491
 H2648 H 0.22960 0.70804 0.55989
 C2649 C 0.21330 0.17938 1.14796
 C2650 C 0.22078 0.19004 1.13404
 C2651 C 0.21453 0.20651 1.13203
 C2652 C 0.20152 0.21231 1.14438
 C2653 C 0.19414 0.20173 1.15806
 C2654 C 0.19951 0.18497 1.15978
 C2655 C 0.22095 0.21682 1.11733
 C2656 C 0.23342 0.21084 1.10436
 C2657 C 0.24026 0.19464 1.10676
 C2658 C 0.23399 0.18436 1.12166
 C2659 C 0.25279 0.18878 1.09375
 C2660 C 0.25771 0.19847 1.07792
 C2661 C 0.25023 0.21425 1.07479
 C2662 C 0.23852 0.22056 1.08851
 H2663 H 0.21784 0.16664 1.14909
 H2664 H 0.19673 0.22495 1.14316
 H2665 H 0.18382 0.20675 1.16700
 H2666 H 0.21579 0.22930 1.11559
 H2667 H 0.23895 0.17180 1.12321
 H2668 H 0.25831 0.17645 1.09540
 H2669 H 0.26679 0.19322 1.06764
 H2670 H 0.23267 0.23269 1.08639
 C2671 C 0.68516 0.57380 0.13123
 C2672 C 0.69232 0.56101 0.14230
 C2673 C 0.68130 0.55101 0.15396
 C2674 C 0.66325 0.55378 0.15402
 C2675 C 0.65614 0.56611 0.14230
 C2676 C 0.66703 0.57609 0.13073
 C2677 C 0.68845 0.53812 0.16494
 C2678 C 0.70640 0.53480 0.16390
 C2679 C 0.71729 0.54444 0.15169
 C2680 C 0.71021 0.55760 0.14114
 C2681 C 0.73518 0.54100 0.15059
 C2682 C 0.74246 0.52894 0.16252
 C2683 C 0.73192 0.52004 0.17561
 C2684 C 0.71375 0.52247 0.17553
 H2685 H 0.69358 0.58110 0.12185
 H2686 H 0.65458 0.54600 0.16255
 H2687 H 0.64208 0.56752 0.14179
 H2688 H 0.68007 0.53066 0.17421
 H2689 H 0.71861 0.56513 0.13195
 H2690 H 0.74367 0.54818 0.14118
 H2691 H 0.75650 0.52737 0.16242
 H2692 H 0.70549 0.51590 0.18576
 C2693 C 0.67579 1.05800 0.60836
 C2694 C 0.68501 1.05093 0.62382
 C2695 C 0.69943 1.05959 0.63166
 C2696 C 0.70433 1.07510 0.62408
 C2697 C 0.69516 1.08202 0.60881
 C2698 C 0.68084 1.07360 0.60065
 C2699 C 0.70874 1.05268 0.64698
 C2700 C 0.70378 1.03724 0.65480
 C2701 C 0.68937 1.02852 0.64710
 C2702 C 0.68011 1.03538 0.63160
 C2703 C 0.68439 1.01317 0.65521
 C2704 C 0.69335 1.00670 0.67103
 C2705 C 0.70762 1.01536 0.67894
 C2706 C 0.71285 1.03056 0.67047
 H2707 H 0.66480 1.05133 0.60230
 H2708 H 0.71529 1.08193 0.62999
 H2709 H 0.69939 1.09403 0.60336
 H2710 H 0.71976 1.05940 0.65295
 H2711 H 0.66904 1.02869 0.62569
 H2712 H 0.67339 1.00627 0.64952
 H2713 H 0.68895 0.99502 0.67723
 H2714 H 0.72372 1.03751 0.67640
 C2715 C 0.56960 0.18370 0.62471
 C2716 C 0.55809 0.19054 0.63828
 C2717 C 0.54932 0.17997 0.65151
 C2718 C 0.55187 0.16270 0.65059
 C2719 C 0.56298 0.15597 0.63669
 C2720 C 0.57203 0.16642 0.62382
 C2721 C 0.53840 0.18685 0.66562
 C2722 C 0.53607 0.20417 0.66659
 C2723 C 0.54446 0.21465 0.65299
 C2724 C 0.55539 0.20777 0.63894
 C2725 C 0.54222 0.23192 0.65401
 C2726 C 0.53252 0.23886 0.66893
 C2727 C 0.52470 0.22865 0.68300
 C2728 C 0.52607 0.21124 0.68140
 H2729 H 0.57637 0.19177 0.61458
 H2730 H 0.54524 0.15440 0.66056
 H2731 H 0.56464 0.14259 0.63609
 H2732 H 0.53197 0.17878 0.67600
 H2733 H 0.56204 0.21586 0.62873
 H2734 H 0.54848 0.24012 0.64365
 H2735 H 0.53166 0.25230 0.66987
 H2736 H 0.52033 0.20326 0.69234
 C2737 C 1.05536 0.20978 0.09732
 C2738 C 1.04759 0.21513 0.11458
 C2739 C 1.03309 0.20633 0.12222
 C2740 C 1.02645 0.19251 0.11245
 C2741 C 1.03408 0.18735 0.09528
 C2742 C 1.04868 0.19582 0.08742
 C2743 C 1.02546 0.21140 0.13958
 C2744 C 1.03215 0.22517 0.14948
 C2745 C 1.04649 0.23416 0.14176
 C2746 C 1.05412 0.22910 0.12435
 C2747 C 1.05314 0.24791 0.15175
 C2748 C 1.04601 0.25242 0.16947
 C2749 C 1.03201 0.24332 0.17758
 C2750 C 1.02496 0.22986 0.16723
 H2751 H 1.06651 0.21657 0.09161
 H2752 H 1.01532 0.18565 0.11809
 H2753 H 1.02846 0.17658 0.08825
 H2754 H 1.01443 0.20451 0.14546
 H2755 H 1.06521 0.23593 0.11853
 H2756 H 1.06409 0.25499 0.14603
 H2757 H 1.05176 0.26283 0.17704
 H2758 H 1.01421 0.22267 0.17324
 C2759 C 0.62471 0.17944 0.69701
 C2760 C 0.61148 0.19053 0.70282
 C2761 C 0.59651 0.19253 0.69122
 C2762 C 0.59478 0.18318 0.67443
 C2763 C 0.60802 0.17244 0.66864
 C2764 C 0.62312 0.17062 0.67970
 C2765 C 0.58365 0.20410 0.69631
 C2766 C 0.58540 0.21365 0.71298
 C2767 C 0.60010 0.21146 0.72491
 C2768 C 0.61313 0.20001 0.71966
 C2769 C 0.60127 0.22055 0.74206
 C2770 C 0.58777 0.23127 0.74760
 C2771 C 0.57328 0.23361 0.73568
 C2772 C 0.57234 0.22498 0.71823
 H2773 H 0.63657 0.17833 0.70532
 H2774 H 0.58344 0.18458 0.66545
 H2775 H 0.60677 0.16596 0.65509
 H2776 H 0.57226 0.20565 0.68729
 H2777 H 0.62451 0.19844 0.72868
 H2778 H 0.61234 0.21894 0.75148
 H2779 H 0.58846 0.23751 0.76133
 H2780 H 0.56085 0.22628 0.70932
 C2781 C 1.14760 0.19379 0.20336
 C2782 C 1.13273 0.20009 0.21259
 C2783 C 1.12184 0.18925 0.22336
 C2784 C 1.12610 0.17233 0.22486
 C2785 C 1.14090 0.16614 0.21558
 C2786 C 1.15174 0.17676 0.20463
 C2787 C 1.10674 0.19543 0.23220
 C2788 C 1.10228 0.21228 0.23019
 C2789 C 1.11322 0.22315 0.21953
 C2790 C 1.12847 0.21701 0.21092
 C2791 C 1.10852 0.23991 0.21729
 C2792 C 1.09282 0.24573 0.22501
 C2793 C 1.08171 0.23496 0.23537
 C2794 C 1.08674 0.21830 0.23821
 H2795 H 1.15581 0.20216 0.19501
 H2796 H 1.11789 0.16386 0.23307
 H2797 H 1.14375 0.15298 0.21683
 H2798 H 1.09830 0.18709 0.24034
 H2799 H 1.13681 0.22532 0.20263
 H2800 H 1.11677 0.24841 0.20918
 H2801 H 1.08926 0.25862 0.22264
 H2802 H 1.07822 0.20978 0.24598
 C2803 C 0.12866 0.67478 0.55747
 C2804 C 0.13947 0.68727 0.54946
 C2805 C 0.14742 0.69922 0.56153
 C2806 C 0.14445 0.69851 0.58134
 C2807 C 0.13349 0.68628 0.58914
 C2808 C 0.12533 0.67440 0.57734
 C2809 C 0.15814 0.71174 0.55364
 C2810 C 0.16088 0.71266 0.53377
 C2811 C 0.15278 0.70087 0.52164
 C2812 C 0.14221 0.68820 0.52956
 C2813 C 0.15557 0.70182 0.50179
 C2814 C 0.16678 0.71393 0.49407
 C2815 C 0.17538 0.72543 0.50600
 C2816 C 0.17199 0.72492 0.52587
 H2817 H 0.12237 0.66576 0.54821
 H2818 H 0.15044 0.70753 0.59081
 H2819 H 0.13130 0.68620 0.60450
 H2820 H 0.16435 0.72076 0.56298
 H2821 H 0.13610 0.67911 0.52023
 H2822 H 0.14945 0.69292 0.49227
 H2823 H 0.16925 0.71387 0.47876
 H2824 H 0.17874 0.73344 0.53535
 C2825 C 0.10695 0.20616 1.04930
 C2826 C 0.12346 0.21038 1.04167
 C2827 C 0.12674 0.20840 1.02181
 C2828 C 0.11339 0.20266 1.00986
 C2829 C 0.09718 0.19823 1.01757
 C2830 C 0.09387 0.19963 1.03737
 C2831 C 0.14339 0.21181 1.01425
 C2832 C 0.15692 0.21709 1.02628
 C2833 C 0.15362 0.21938 1.04608
 C2834 C 0.13691 0.21604 1.05365
 C2835 C 0.16713 0.22488 1.05800
 C2836 C 0.18374 0.22810 1.05042
 C2837 C 0.18724 0.22571 1.03079
 C2838 C 0.17373 0.22013 1.01881
 H2839 H 0.10459 0.20717 1.06460
 H2840 H 0.11562 0.20118 0.99460
 H2841 H 0.08728 0.19334 1.00805
 H2842 H 0.14589 0.21012 0.99905
 H2843 H 0.13445 0.21761 1.06886
 H2844 H 0.16485 0.22673 1.07320
 H2845 H 0.19391 0.23237 1.05999
 H2846 H 0.17621 0.21839 1.00362
 C2847 C 0.63076 0.57033 0.18737
 C2848 C 0.64551 0.56394 0.19659
 C2849 C 0.66107 0.57352 0.19716
 C2850 C 0.66157 0.58928 0.18843
 C2851 C 0.64662 0.59581 0.17993
 C2852 C 0.63118 0.58637 0.17936
 C2853 C 0.67578 0.56726 0.20657
 C2854 C 0.67511 0.55160 0.21550
 C2855 C 0.65963 0.54192 0.21470
 C2856 C 0.64492 0.54818 0.20529
 C2857 C 0.65923 0.52600 0.22305
 C2858 C 0.67414 0.51957 0.23176
 C2859 C 0.68945 0.52917 0.23277
 C2860 C 0.68982 0.54526 0.22484
 H2861 H 0.61872 0.56316 0.18714
 H2862 H 0.67342 0.59662 0.18848
 H2863 H 0.64704 0.60825 0.17387
 H2864 H 0.68772 0.57456 0.20692
 H2865 H 0.63303 0.54078 0.20471
 H2866 H 0.64752 0.51837 0.22243
 H2867 H 0.67382 0.50700 0.23746
 H2868 H 0.70185 0.55246 0.22506
 C2869 C 0.59349 1.04638 0.72048
 C2870 C 0.60922 1.04157 0.72893
 C2871 C 0.62018 1.05370 0.73738
 C2872 C 0.61485 1.07038 0.73786
 C2873 C 0.59910 1.07508 0.72943
 C2874 C 0.58848 1.06318 0.72033
 C2875 C 0.63648 1.04904 0.74469
 C2876 C 0.64202 1.03244 0.74336
 C2877 C 0.63076 1.02025 0.73544
 C2878 C 0.61438 1.02486 0.72848
 C2879 C 0.63636 1.00373 0.73388
 C2880 C 0.65331 0.99948 0.73905
 C2881 C 0.66487 1.01161 0.74615
 C2882 C 0.65895 1.02797 0.74892
 H2883 H 0.58530 1.03707 0.71370
 H2884 H 0.62303 1.07984 0.74436
 H2885 H 0.59550 1.08811 0.72955
 H2886 H 0.64506 1.05839 0.75080
 H2887 H 0.60591 1.01555 0.72208
 H2888 H 0.62785 0.99423 0.72798
 H2889 H 0.65756 0.98676 0.73695
 H2890 H 0.66783 1.03744 0.75423
 C2891 C 0.87644 0.42309 0.31493
 C2892 C 0.86413 0.43470 0.30838
 C2893 C 0.85439 0.44414 0.32175
 C2894 C 0.85725 0.44196 0.34141
 C2895 C 0.86978 0.43070 0.34779
 C2896 C 0.87951 0.42126 0.33465
 C2897 C 0.84213 0.45577 0.31529
 C2898 C 0.83946 0.45811 0.29560
 C2899 C 0.84921 0.44869 0.28220
 C2900 C 0.86152 0.43710 0.28867
 C2901 C 0.84617 0.45074 0.26254
 C2902 C 0.83323 0.46161 0.25621
 C2903 C 0.82343 0.47094 0.26939
 C2904 C 0.82684 0.46937 0.28908
 H2905 H 0.88416 0.41606 0.30473
 H2906 H 0.85015 0.44928 0.35183
 H2907 H 0.87212 0.42958 0.36305
 H2908 H 0.83464 0.46294 0.32557
 H2909 H 0.86894 0.42985 0.27839
 H2910 H 0.85346 0.44358 0.25208
 H2911 H 0.83061 0.46250 0.24099
 H2912 H 0.81897 0.47619 0.29936
 C2913 C 0.86913 0.92506 0.79905
 C2914 C 0.85446 0.93483 0.79451
 C2915 C 0.84160 0.93788 0.80872
 C2916 C 0.84336 0.93081 0.82698
 C2917 C 0.85810 0.92147 0.83148
 C2918 C 0.87115 0.91870 0.81768
 C2919 C 0.82737 0.94820 0.80461
 C2920 C 0.82572 0.95551 0.78643
 C2921 C 0.83827 0.95213 0.77201
 C2922 C 0.85261 0.94188 0.77617
 C2923 C 0.83611 0.95892 0.75360
 C2924 C 0.82152 0.96869 0.74943
 C2925 C 0.80920 0.97233 0.76376
 C2926 C 0.81147 0.96584 0.78230
 H2927 H 0.87935 0.92315 0.78847
 H2928 H 0.83361 0.93295 0.83797
 H2929 H 0.85958 0.91678 0.84596
 H2930 H 0.81761 0.95060 0.81558
 H2931 H 0.86233 0.93944 0.76517
 H2932 H 0.84549 0.95635 0.74231
 H2933 H 0.81973 0.97327 0.73495
 H2934 H 0.80165 0.96814 0.79322
 C2935 C 0.37507 0.32012 0.82227
 C2936 C 0.38871 0.31347 0.81105
 C2937 C 0.40052 0.32432 0.80149
 C2938 C 0.39839 0.34157 0.80307
 C2939 C 0.38479 0.34807 0.81409
 C2940 C 0.37302 0.33747 0.82384
 C2941 C 0.41437 0.31779 0.79066
 C2942 C 0.41677 0.30051 0.78945
 C2943 C 0.40501 0.28963 0.79903
 C2944 C 0.39097 0.29616 0.80961
 C2945 C 0.40780 0.27238 0.79833
 C2946 C 0.42239 0.26600 0.78875
 C2947 C 0.43419 0.27670 0.77928
 C2948 C 0.43112 0.29396 0.77937
 H2949 H 0.36605 0.31183 0.82965
 H2950 H 0.40724 0.35007 0.79579
 H2951 H 0.38356 0.36149 0.81510
 H2952 H 0.42344 0.32615 0.78344
 H2953 H 0.38204 0.28780 0.81706
 H2954 H 0.39899 0.26385 0.80565
 H2955 H 0.42465 0.25269 0.78904
 H2956 H 0.44043 0.30233 0.77255
 C2957 C 0.87689 0.31254 0.31865
 C2958 C 0.89069 0.30594 0.30790
 C2959 C 0.89732 0.31481 0.29188
 C2960 C 0.88969 0.32994 0.28659
 C2961 C 0.87603 0.33652 0.29745
 C2962 C 0.86951 0.32790 0.31358
 C2963 C 0.91148 0.30845 0.28145
 C2964 C 0.91894 0.29322 0.28674
 C2965 C 0.91184 0.28407 0.30233
 C2966 C 0.89786 0.29054 0.31289
 C2967 C 0.91902 0.26869 0.30733
 C2968 C 0.93349 0.26265 0.29743
 C2969 C 0.94120 0.27196 0.28244
 C2970 C 0.93360 0.28713 0.27692
 H2971 H 0.87194 0.30570 0.33097
 H2972 H 0.89427 0.33668 0.27404
 H2973 H 0.87045 0.34829 0.29305
 H2974 H 0.91674 0.31539 0.26934
 H2975 H 0.89265 0.28364 0.32506
 H2976 H 0.91367 0.26148 0.31916
 H2977 H 0.93905 0.25096 0.30210
 H2978 H 0.93939 0.29446 0.26543
 C2979 C 0.37410 0.81848 0.43044
 C2980 C 0.36070 0.81112 0.44147
 C2981 C 0.34915 0.82134 0.45205
 C2982 C 0.35140 0.83868 0.45171
 C2983 C 0.36479 0.84589 0.44078
 C2984 C 0.37618 0.83590 0.42993
 C2985 C 0.33524 0.81411 0.46234
 C2986 C 0.33256 0.79681 0.46195
 C2987 C 0.34417 0.78657 0.45151
 C2988 C 0.35827 0.79377 0.44150
 C2989 C 0.34110 0.76933 0.45068
 C2990 C 0.32628 0.76239 0.45942
 C2991 C 0.31449 0.77249 0.46953
 C2992 C 0.31798 0.78966 0.47115
 H2993 H 0.38284 0.81065 0.42220
 H2994 H 0.34268 0.84669 0.45972
 H2995 H 0.36606 0.85934 0.44059
 H2996 H 0.32624 0.82199 0.47021
 H2997 H 0.36705 0.78593 0.43330
 H2998 H 0.34984 0.76130 0.44270
 H2999 H 0.32375 0.74917 0.45783
 H3000 H 0.30874 0.79766 0.47848
 C3001 C 0.36548 0.32841 0.92271
 C3002 C 0.35468 0.31800 0.93380
 C3003 C 0.35311 0.32078 0.95373
 C3004 C 0.36228 0.33397 0.96218
 C3005 C 0.37319 0.34418 0.95108
 C3006 C 0.37526 0.34124 0.93135
 C3007 C 0.34279 0.31006 0.96498
 C3008 C 0.33437 0.29636 0.95661
 C3009 C 0.33609 0.29347 0.93671
 C3010 C 0.34606 0.30443 0.92537
 C3011 C 0.32781 0.27964 0.92849
 C3012 C 0.31757 0.26898 0.93979
 C3013 C 0.31541 0.27195 0.95954
 C3014 C 0.32411 0.28559 0.96787
 H3015 H 0.36687 0.32599 0.90749
 H3016 H 0.36143 0.33609 0.97749
 H3017 H 0.38056 0.35391 0.95815
 H3018 H 0.34155 0.31222 0.98027
 H3019 H 0.34733 0.30224 0.91008
 H3020 H 0.32896 0.27725 0.91325
 H3021 H 0.31081 0.25877 0.93287
 H3022 H 0.32248 0.28819 0.98302
 C3023 C 0.82775 0.43857 0.38427
 C3024 C 0.81711 0.44564 0.37016
 C3025 C 0.80643 0.43525 0.35876
 C3026 C 0.80665 0.41796 0.36162
 C3027 C 0.81705 0.41105 0.37595
 C3028 C 0.82757 0.42129 0.38748
 C3029 C 0.79556 0.44231 0.34487
 C3030 C 0.79526 0.45964 0.34222
 C3031 C 0.80606 0.47002 0.35349
 C3032 C 0.81686 0.46296 0.36744
 C3033 C 0.80611 0.48730 0.35036
 C3034 C 0.79589 0.49418 0.33586
 C3035 C 0.78512 0.48395 0.32464
 C3036 C 0.78464 0.46671 0.32812
 H3037 H 0.83573 0.44660 0.39317
 H3038 H 0.79853 0.40981 0.35305
 H3039 H 0.81674 0.39768 0.37814
 H3040 H 0.78733 0.43435 0.33616
 H3041 H 0.82514 0.47092 0.37610
 H3042 H 0.81439 0.49542 0.35879
 H3043 H 0.79663 0.50746 0.33315
 H3044 H 0.77673 0.45870 0.31913
 C3045 C 0.81950 0.93049 0.88001
 C3046 C 0.80813 0.93748 0.86637
 C3047 C 0.79730 0.92693 0.85531
 C3048 C 0.79804 0.90966 0.85793
 C3049 C 0.80918 0.90284 0.87156
 C3050 C 0.81990 0.91312 0.88289
 C3051 C 0.78581 0.93376 0.84185
 C3052 C 0.78496 0.95105 0.83923
 C3053 C 0.79586 0.96165 0.85009
 C3054 C 0.80736 0.95481 0.86363
 C3055 C 0.79523 0.97893 0.84704
 C3056 C 0.78412 0.98560 0.83316
 C3057 C 0.77321 0.97516 0.82231
 C3058 C 0.77359 0.95786 0.82559
 H3059 H 0.82767 0.93855 0.88865
 H3060 H 0.78984 0.90140 0.84961
 H3061 H 0.80932 0.88943 0.87329
 H3062 H 0.77753 0.92561 0.83343
 H3063 H 0.81570 0.96296 0.87198
 H3064 H 0.80354 0.98726 0.85516
 H3065 H 0.78421 0.99894 0.83074
 H3066 H 0.76558 0.94963 0.81698
 C3067 C 0.31653 0.83097 0.36506
 C3068 C 0.30845 0.82005 0.37827
 C3069 C 0.31692 0.81634 0.39574
 C3070 C 0.33290 0.82392 0.39999
 C3071 C 0.34098 0.83443 0.38673
 C3072 C 0.33304 0.83781 0.36908
 C3073 C 0.30944 0.80497 0.40864
 C3074 C 0.29346 0.79733 0.40446
 C3075 C 0.28458 0.80136 0.38735
 C3076 C 0.29222 0.81261 0.37424
 C3077 C 0.26808 0.79426 0.38388
 C3078 C 0.26034 0.78358 0.39744
 C3079 C 0.26936 0.77932 0.41418
 C3080 C 0.28599 0.78606 0.41748
 H3081 H 0.31044 0.83345 0.35136
 H3082 H 0.33934 0.82138 0.41337
 H3083 H 0.35370 0.83962 0.39007
 H3084 H 0.31606 0.80208 0.42196
 H3085 H 0.28556 0.81559 0.36100
 H3086 H 0.26097 0.79734 0.37097
 H3087 H 0.24728 0.77883 0.39503
 H3088 H 0.29265 0.78328 0.43081
 C3089 C 0.32197 0.31906 0.87353
 C3090 C 0.31085 0.31181 0.88739
 C3091 C 0.30770 0.32018 0.90490
 C3092 C 0.31582 0.33560 0.90829
 C3093 C 0.32633 0.34299 0.89414
 C3094 C 0.32938 0.33485 0.87664
 C3095 C 0.29627 0.31317 0.91857
 C3096 C 0.28777 0.29797 0.91487
 C3097 C 0.29092 0.28961 0.89737
 C3098 C 0.30245 0.29656 0.88378
 C3099 C 0.28278 0.27422 0.89392
 C3100 C 0.27218 0.26682 0.90797
 C3101 C 0.26913 0.27488 0.92550
 C3102 C 0.27665 0.29067 0.92868
 H3103 H 0.32406 0.31288 0.85991
 H3104 H 0.31366 0.34215 0.92164
 H3105 H 0.33189 0.35521 0.89673
 H3106 H 0.29399 0.31953 0.93205
 H3107 H 0.30485 0.29012 0.87037
 H3108 H 0.28510 0.26761 0.88062
 H3109 H 0.26683 0.25451 0.90543
 H3110 H 0.27488 0.29669 0.94244
 C3111 C 0.43338 0.34002 0.87436
 C3112 C 0.44082 0.32817 0.86217
 C3113 C 0.42992 0.31723 0.85176
 C3114 C 0.41176 0.31830 0.85386
 C3115 C 0.40444 0.32984 0.86647
 C3116 C 0.41521 0.34056 0.87710
 C3117 C 0.43737 0.30505 0.83996
 C3118 C 0.45558 0.30350 0.83876
 C3119 C 0.46646 0.31432 0.84939
 C3120 C 0.45900 0.32660 0.86100
 C3121 C 0.48465 0.31285 0.84803
 C3122 C 0.49204 0.30109 0.83578
 C3123 C 0.48135 0.29042 0.82500
 C3124 C 0.46311 0.29148 0.82683
 H3125 H 0.44187 0.34801 0.88274
 H3126 H 0.40327 0.30965 0.84651
 H3127 H 0.39041 0.32990 0.86851
 H3128 H 0.42903 0.29668 0.83191
 H3129 H 0.46735 0.33485 0.86921
 H3130 H 0.49315 0.32108 0.85605
 H3131 H 0.50612 0.30059 0.83436
 H3132 H 0.45476 0.28357 0.81820
 C3133 C 0.94465 0.32782 0.38463
 C3134 C 0.95148 0.31709 0.37051
 C3135 C 0.94121 0.31283 0.35442
 C3136 C 0.92447 0.31962 0.35251
 C3137 C 0.91758 0.32978 0.36690
 C3138 C 0.92746 0.33378 0.38319
 C3139 C 0.94761 0.30152 0.34076
 C3140 C 0.96408 0.29419 0.34310
 C3141 C 0.97449 0.29862 0.35900
 C3142 C 0.96815 0.31007 0.37256
 C3143 C 0.99115 0.29163 0.36096
 C3144 C 0.99761 0.28061 0.34713
 C3145 C 0.98735 0.27603 0.33135
 C3146 C 0.97049 0.28276 0.32956
 H3147 H 0.95224 0.33067 0.39729
 H3148 H 0.91647 0.31662 0.34021
 H3149 H 0.90432 0.33425 0.36553
 H3150 H 0.93971 0.29830 0.32844
 H3151 H 0.97610 0.31336 0.38482
 H3152 H 0.99937 0.29498 0.37297
 H3153 H 1.01077 0.27592 0.34854
 H3154 H 0.96275 0.27982 0.31704
 C3155 C 0.43076 0.37926 0.81142
 C3156 C 0.44224 0.36676 0.80509
 C3157 C 0.45413 0.35956 0.81812
 C3158 C 0.45442 0.36501 0.83716
 C3159 C 0.44309 0.37746 0.84331
 C3160 C 0.43125 0.38485 0.83053
 C3161 C 0.46564 0.34713 0.81192
 C3162 C 0.46544 0.34174 0.79283
 C3163 C 0.45370 0.34902 0.77970
 C3164 C 0.44221 0.36151 0.78590
 C3165 C 0.45343 0.34345 0.76067
 C3166 C 0.46426 0.33041 0.75484
 C3167 C 0.47575 0.32285 0.76786
 C3168 C 0.47650 0.32885 0.78678
 H3169 H 0.42178 0.38488 0.80137
 H3170 H 0.46359 0.35980 0.84728
 H3171 H 0.44376 0.38143 0.85812
 H3172 H 0.47471 0.34162 0.82197
 H3173 H 0.43314 0.36703 0.77584
 H3174 H 0.44452 0.34887 0.75041
 H3175 H 0.46329 0.32593 0.74025
 H3176 H 0.48503 0.32292 0.79709
 C3177 C 0.93451 0.36501 0.33563
 C3178 C 0.94333 0.35361 0.32395
 C3179 C 0.93668 0.34976 0.30563
 C3180 C 0.92121 0.35728 0.29945
 C3181 C 0.91266 0.36890 0.31102
 C3182 C 0.91953 0.37327 0.32898
 C3183 C 0.94594 0.33898 0.29354
 C3184 C 0.96203 0.33240 0.29933
 C3185 C 0.96873 0.33638 0.31761
 C3186 C 0.95922 0.34674 0.32992
 C3187 C 0.98490 0.32999 0.32324
 C3188 C 0.99425 0.31949 0.31104
 C3189 C 0.98759 0.31514 0.29295
 C3190 C 0.97149 0.32185 0.28714
 H3191 H 0.93996 0.36814 0.34949
 H3192 H 0.91621 0.35481 0.28526
 H3193 H 0.90122 0.37509 0.30546
 H3194 H 0.94085 0.33603 0.27946
 H3195 H 0.96436 0.34977 0.34396
 H3196 H 0.99020 0.33287 0.33724
 H3197 H 1.00641 0.31430 0.31610
 H3198 H 0.96601 0.31847 0.27338
 C3199 C 0.32048 0.87409 0.43174
 C3200 C 0.30852 0.86150 0.43702
 C3201 C 0.29922 0.85280 0.42268
 C3202 C 0.30202 0.85679 0.40338
 C3203 C 0.31377 0.86938 0.39824
 C3204 C 0.32290 0.87838 0.41232
 C3205 C 0.28702 0.84047 0.42784
 C3206 C 0.28376 0.83686 0.44721
 C3207 C 0.29291 0.84565 0.46159
 C3208 C 0.30529 0.85785 0.45641
 C3209 C 0.28968 0.84194 0.48093
 C3210 C 0.27797 0.82924 0.48598
 C3211 C 0.26910 0.82014 0.47180
 C3212 C 0.27179 0.82430 0.45240
 H3213 H 0.32727 0.88101 0.44278
 H3214 H 0.29481 0.85045 0.39224
 H3215 H 0.31534 0.87234 0.38317
 H3216 H 0.28003 0.83373 0.41678
 H3217 H 0.31232 0.86455 0.46746
 H3218 H 0.29656 0.84853 0.49215
 H3219 H 0.27631 0.82611 0.50100
 H3220 H 0.26540 0.81709 0.44131
 C3221 C 0.30723 0.37795 0.94345
 C3222 C 0.30194 0.36366 0.95362
 C3223 C 0.31372 0.35573 0.96620
 C3224 C 0.33039 0.36253 0.96884
 C3225 C 0.33554 0.37678 0.95879
 C3226 C 0.32405 0.38464 0.94599
 C3227 C 0.30864 0.34121 0.97602
 C3228 C 0.29178 0.33467 0.97369
 C3229 C 0.27980 0.34297 0.96165
 C3230 C 0.28500 0.35730 0.95155
 C3231 C 0.26285 0.33668 0.95967
 C3232 C 0.25796 0.32198 0.96896
 C3233 C 0.26997 0.31314 0.98030
 C3234 C 0.28681 0.31980 0.98291
 H3235 H 0.29814 0.38399 0.93385
 H3236 H 0.33936 0.35696 0.97889
 H3237 H 0.34855 0.38169 0.96115
 H3238 H 0.31779 0.33501 0.98544
 H3239 H 0.27587 0.36347 0.94208
 H3240 H 0.25347 0.34294 0.95061
 H3241 H 0.24490 0.31720 0.96661
 H3242 H 0.29625 0.31313 0.99150
 C3243 C 0.81050 0.37697 0.32553
 C3244 C 0.80461 0.39167 0.31664
 C3245 C 0.81685 0.40254 0.30776
 C3246 C 0.83465 0.39895 0.30845
 C3247 C 0.84035 0.38435 0.31705
 C3248 C 0.82835 0.37297 0.32509
 C3249 C 0.81114 0.41652 0.29765
 C3250 C 0.79330 0.41977 0.29605
 C3251 C 0.78096 0.40935 0.30539
 C3252 C 0.78670 0.39533 0.31568
 C3253 C 0.76312 0.41314 0.30416
 C3254 C 0.75762 0.42705 0.29366
 C3255 C 0.76986 0.43706 0.28386
 C3256 C 0.78767 0.43336 0.28518
 H3257 H 0.80116 0.36822 0.33163
 H3258 H 0.84410 0.40703 0.30154
 H3259 H 0.85420 0.38163 0.31671
 H3260 H 0.82057 0.42465 0.29062
 H3261 H 0.77726 0.38714 0.32259
 H3262 H 0.75345 0.40544 0.31139
 H3263 H 0.74384 0.42997 0.29311
 H3264 H 0.79722 0.44138 0.27818
   
