data_POSCAR
  _audit_creation_date              2014-09-24
  _audit_creation_method            'ToBaCCo'
  _symmetry_space_group_name_H-M    'P1'
  _symmetry_Int_Tables_number       1
  _symmetry_cell_setting            triclinic
  loop_
  _symmetry_equiv_pos_as_xyz
 x,y,z
_cell_length_a 65.3924
_cell_length_b 65.6563
_cell_length_c 65.2800
_cell_angle_alpha 89.899400
_cell_angle_beta 90.666100
_cell_angle_gamma 88.919800
loop_
  _atom_site_label
  _atom_site_type_symbol
  _atom_site_fract_x
  _atom_site_fract_y
  _atom_site_fract_z
C1 C 0.34820 0.33766 0.34617
 C2 C 0.33466 0.33590 0.36250
 C3 C 0.31951 0.35050 0.36533
 C4 C 0.31772 0.36712 0.35186
 C5 C 0.33108 0.36887 0.33569
 C6 C 0.34648 0.35396 0.33278
 C7 C 0.36368 0.32514 0.33933
 N8 N 0.37154 0.33329 0.32205
 C9 C 0.36108 0.35099 0.31791
 C10 C 0.32502 0.38591 0.32469
 N11 N 0.30832 0.39451 0.33373
 C12 C 0.30382 0.38304 0.35041
 C13 C 0.30796 0.34424 0.38159
 N14 N 0.31574 0.32618 0.38870
 C15 C 0.33214 0.32101 0.37704
 H16 H 0.36863 0.31086 0.34627
 H17 H 0.36354 0.36089 0.30495
 H18 H 0.33199 0.39138 0.31081
 H19 H 0.29118 0.38565 0.36065
 H20 H 0.29455 0.35204 0.38751
 H21 H 0.34127 0.30717 0.37844
 C22 C 0.37178 0.83004 -0.13116
 C23 C 0.35732 0.83125 -0.11545
 C24 C 0.34591 0.84894 -0.11292
 C25 C 0.34852 0.86548 -0.12602
 C26 C 0.36233 0.86424 -0.14181
 C27 C 0.37419 0.84637 -0.14431
 C28 C 0.38418 0.81438 -0.13801
 N29 N 0.39417 0.82073 -0.15502
 C30 C 0.38793 0.84027 -0.15899
 C31 C 0.35917 0.88138 -0.15378
 N32 N 0.34370 0.89285 -0.14562
 C33 C 0.33736 0.88317 -0.12845
 C34 C 0.33138 0.84527 -0.09848
 N35 N 0.33343 0.82561 -0.09217
 C36 C 0.34944 0.81698 -0.10233
 H37 H 0.38526 0.79939 -0.13118
 H38 H 0.39288 0.84942 -0.17177
 H39 H 0.36673 0.88458 -0.16808
 H40 H 0.32450 0.88755 -0.11908
 H41 H 0.31964 0.85602 -0.09377
 H42 H 0.35419 0.80112 -0.10122
 C43 C 0.87906 0.32456 -0.15121
 C44 C 0.86260 0.32521 -0.13782
 C45 C 0.84727 0.33983 -0.14001
 C46 C 0.84845 0.35433 -0.15589
 C47 C 0.86480 0.35359 -0.16922
 C48 C 0.88021 0.33852 -0.16689
 C49 C 0.89510 0.31097 -0.15310
 N50 N 0.90617 0.31614 -0.16978
 C51 C 0.89714 0.33313 -0.17823
 C52 C 0.86166 0.36879 -0.18349
 N53 N 0.84383 0.37898 -0.17925
 C54 C 0.83571 0.37012 -0.16234
 C55 C 0.83278 0.33559 -0.12538
 N56 N 0.83907 0.31870 -0.11470
 C57 C 0.85742 0.31250 -0.12220
 H58 H 0.89782 0.29792 -0.14327
 H59 H 0.90211 0.34069 -0.19201
 H60 H 0.87182 0.37190 -0.19599
 H61 H 0.82141 0.37466 -0.15532
 H62 H 0.81846 0.34378 -0.12309
 H63 H 0.86649 0.29956 -0.11690
 C64 C 0.83871 0.82997 0.33619
 C65 C 0.82456 0.82945 0.35208
 C66 C 0.80881 0.84383 0.35312
 C67 C 0.80716 0.85916 0.33789
 C68 C 0.82135 0.85949 0.32229
 C69 C 0.83713 0.84489 0.32144
 C70 C 0.85522 0.81771 0.33132
 N71 N 0.86375 0.82483 0.31384
 C72 C 0.85268 0.84160 0.30776
 C73 C 0.81639 0.87544 0.30959
 N74 N 0.79944 0.88520 0.31675
 C75 C 0.79364 0.87531 0.33416
 C76 C 0.79758 0.83900 0.37033
 N77 N 0.80633 0.82228 0.37957
 C78 C 0.82272 0.81639 0.36828
 H79 H 0.86050 0.80441 0.33983
 H80 H 0.85532 0.85076 0.29431
 H81 H 0.82463 0.87958 0.29595
 H82 H 0.78061 0.87933 0.34349
 H83 H 0.78412 0.84709 0.37574
 H84 H 0.83257 0.80329 0.37125
 C85 C 0.61592 0.65593 0.36234
 C86 C 0.62962 0.65842 0.37885
 C87 C 0.64400 0.64329 0.38335
 C88 C 0.64490 0.62551 0.37154
 C89 C 0.63131 0.62305 0.35543
 C90 C 0.61676 0.63831 0.35079
 C91 C 0.60222 0.66903 0.35266
 N92 N 0.59480 0.65979 0.33555
 C93 C 0.60367 0.64096 0.33436
 C94 C 0.63743 0.60597 0.34491
 N95 N 0.65454 0.59801 0.35409
 C96 C 0.65915 0.60985 0.37051
 C97 C 0.65674 0.65065 0.39836
 N98 N 0.65046 0.66984 0.40325
 C99 C 0.63387 0.67475 0.39134
 H100 H 0.59868 0.68454 0.35720
 H101 H 0.60180 0.63032 0.32188
 H102 H 0.63073 0.60055 0.33073
 H103 H 0.67264 0.60825 0.38016
 H104 H 0.67010 0.64286 0.40474
 H105 H 0.62609 0.68943 0.39092
 C106 C 0.65082 0.17030 -0.14781
 C107 C 0.66540 0.16902 -0.13189
 C108 C 0.67988 0.15345 -0.13181
 C109 C 0.68012 0.13905 -0.14758
 C110 C 0.66591 0.14029 -0.16333
 C111 C 0.65105 0.15603 -0.16339
 C112 C 0.63551 0.18430 -0.15236
 N113 N 0.62632 0.17891 -0.17036
 C114 C 0.63584 0.16159 -0.17712
 C115 C 0.67087 0.12512 -0.17710
 N116 N 0.68779 0.11475 -0.17005
 C117 C 0.69340 0.12328 -0.15187
 C118 C 0.69293 0.15664 -0.11558
 N119 N 0.68682 0.17385 -0.10566
 C120 C 0.66993 0.18150 -0.11556
 H121 H 0.63174 0.19750 -0.14318
 H122 H 0.63221 0.15371 -0.19123
 H123 H 0.66302 0.12223 -0.19148
 H124 H 0.70655 0.11904 -0.14253
 H125 H 0.70636 0.14742 -0.11197
 H126 H 0.66194 0.19552 -0.11161
 C127 C 0.14290 0.66288 -0.16457
 C128 C 0.15619 0.66388 -0.14762
 C129 C 0.17260 0.65045 -0.14604
 C130 C 0.17608 0.63598 -0.16132
 C131 C 0.16308 0.63492 -0.17808
 C132 C 0.14622 0.64850 -0.17970
 C133 C 0.12633 0.67469 -0.17054
 N134 N 0.11928 0.66792 -0.18895
 C135 C 0.13144 0.65182 -0.19464
 C136 C 0.17110 0.62014 -0.19084
 N137 N 0.18866 0.61234 -0.18219
 C138 C 0.19166 0.62205 -0.16403
 C139 C 0.18361 0.65556 -0.12887
 N140 N 0.17437 0.67188 -0.11991
 C141 C 0.15748 0.67705 -0.13130
 H142 H 0.12007 0.68753 -0.16214
 H143 H 0.13019 0.64332 -0.20875
 H144 H 0.16481 0.61575 -0.20556
 H145 H 0.20435 0.61971 -0.15350
 H146 H 0.19773 0.64830 -0.12362
 H147 H 0.14713 0.68973 -0.12840
 C148 C 0.13370 0.16888 0.34485
 C149 C 0.14931 0.16652 0.35954
 C150 C 0.16283 0.15012 0.35860
 C151 C 0.16077 0.13571 0.34281
 C152 C 0.14535 0.13811 0.32826
 C153 C 0.13171 0.15483 0.32931
 C154 C 0.11905 0.18387 0.34170
 N155 N 0.10808 0.17934 0.32450
 C156 C 0.11579 0.16150 0.31690
 C157 C 0.14743 0.12247 0.31440
 N158 N 0.16374 0.11045 0.32013
 C159 C 0.17190 0.11852 0.33757
 C160 C 0.17688 0.15246 0.37435
 N161 N 0.17210 0.16989 0.38470
 C162 C 0.15520 0.17845 0.37569
 H163 H 0.11700 0.19717 0.35124
 H164 H 0.11047 0.15403 0.30311
 H165 H 0.13767 0.12031 0.30114
 H166 H 0.18522 0.11254 0.34573
 H167 H 0.18972 0.14233 0.37769
 H168 H 0.14794 0.19266 0.38028
 C169 C 0.65405 0.32671 0.65627
 C170 C 0.66857 0.32464 0.64084
 C171 C 0.68442 0.33813 0.63967
 C172 C 0.68598 0.35392 0.65404
 C173 C 0.67167 0.35595 0.66940
 C174 C 0.65550 0.34217 0.67054
 C175 C 0.63758 0.31521 0.66125
 N176 N 0.62882 0.32312 0.67829
 C177 C 0.63969 0.33969 0.68412
 C178 C 0.67752 0.37215 0.68139
 N179 N 0.69500 0.37996 0.67372
 C180 C 0.70020 0.36882 0.65693
 C181 C 0.69647 0.33198 0.62359
 N182 N 0.68834 0.31501 0.61509
 C183 C 0.67118 0.31047 0.62557
 H184 H 0.63257 0.30174 0.65323
 H185 H 0.63669 0.34909 0.69737
 H186 H 0.66977 0.37768 0.69491
 H187 H 0.71341 0.37108 0.64747
 H188 H 0.71037 0.33913 0.61866
 H189 H 0.66125 0.29783 0.62247
 C190 C 0.63425 0.83704 1.14803
 C191 C 0.64997 0.83739 1.13333
 C192 C 0.66179 0.85460 1.13152
 C193 C 0.65827 0.87152 1.14408
 C194 C 0.64296 0.87116 1.15833
 C195 C 0.63095 0.85393 1.16027
 C196 C 0.62087 0.82236 1.15471
 N197 N 0.60976 0.83007 1.17064
 C198 C 0.61604 0.84944 1.17394
 C199 C 0.64437 0.88854 1.16992
 N200 N 0.66037 0.89947 1.16310
 C201 C 0.66883 0.88918 1.14715
 C202 C 0.67652 0.85065 1.11723
 N203 N 0.67418 0.83143 1.11005
 C204 C 0.65790 0.82320 1.11973
 H205 H 0.61967 0.80707 1.14868
 H206 H 0.61065 0.85978 1.18562
 H207 H 0.63515 0.89212 1.18312
 H208 H 0.68249 0.89358 1.13918
 H209 H 0.68803 0.86120 1.11244
 H210 H 0.65250 0.80788 1.11737
 C211 C 0.13848 0.33430 1.15904
 C212 C 0.15315 0.33274 1.14362
 C213 C 0.16863 0.34674 1.14247
 C214 C 0.16959 0.36265 1.15685
 C215 C 0.15507 0.36415 1.17208
 C216 C 0.13942 0.34985 1.17319
 C217 C 0.12215 0.32246 1.16404
 N218 N 0.11303 0.33032 1.18099
 C219 C 0.12359 0.34719 1.18664
 C220 C 0.15995 0.38064 1.18403
 N221 N 0.17705 0.38931 1.17655
 C222 C 0.18306 0.37833 1.15988
 C223 C 0.18082 0.34093 1.12627
 N224 N 0.17309 0.32378 1.11765
 C225 C 0.15612 0.31876 1.12827
 H226 H 0.11743 0.30888 1.15599
 H227 H 0.12038 0.35687 1.19963
 H228 H 0.15168 0.38587 1.19736
 H229 H 0.19631 0.38124 1.15066
 H230 H 0.19447 0.34849 1.12130
 H231 H 0.14661 0.30577 1.12542
 C232 C 0.15298 0.83308 0.66899
 C233 C 0.16896 0.83309 0.65481
 C234 C 0.18511 0.84628 0.65731
 C235 C 0.18555 0.85959 0.67417
 C236 C 0.16982 0.85944 0.68808
 C237 C 0.15347 0.84623 0.68544
 C238 C 0.13540 0.82189 0.67069
 N239 N 0.12524 0.82813 0.68769
 C240 C 0.13632 0.84298 0.69681
 C241 C 0.17407 0.87355 0.70291
 N242 N 0.19212 0.88253 0.69851
 C243 C 0.19920 0.87402 0.68084
 C244 C 0.19835 0.84276 0.64137
 N245 N 0.19063 0.82779 0.62929
 C246 C 0.17269 0.82182 0.63749
 H247 H 0.13039 0.81007 0.66034
 H248 H 0.13258 0.85064 0.71096
 H249 H 0.16438 0.87687 0.71582
 H250 H 0.21329 0.87795 0.67338
 H251 H 0.21266 0.85038 0.63906
 H252 H 0.16303 0.81005 0.63131
 C253 C 0.37231 0.67037 0.63927
 C254 C 0.35667 0.66717 0.62476
 C255 C 0.34513 0.64978 0.62577
 C256 C 0.34896 0.63538 0.64123
 C257 C 0.36426 0.63850 0.65556
 C258 C 0.37603 0.65609 0.65454
 C259 C 0.38481 0.68663 0.64322
 N260 N 0.39600 0.68249 0.66049
 C261 C 0.39063 0.66385 0.66745
 C262 C 0.36293 0.62334 0.67005
 N263 N 0.34712 0.61113 0.66485
 C264 C 0.33859 0.61841 0.64717
 C265 C 0.32982 0.65155 0.61127
 N266 N 0.33166 0.66966 0.60142
 C267 C 0.34814 0.67925 0.60954
 H268 H 0.38506 0.70066 0.63453
 H269 H 0.39651 0.65665 0.68131
 H270 H 0.37216 0.62213 0.68386
 H271 H 0.32511 0.61242 0.63971
 H272 H 0.31788 0.64064 0.60871
 H273 H 0.35300 0.69435 0.60533
 C274 C 0.34440 0.15864 1.16456
 C275 C 0.33018 0.15923 1.14820
 C276 C 0.31583 0.14413 1.14651
 C277 C 0.31534 0.12839 1.16098
 C278 C 0.32915 0.12783 1.17709
 C279 C 0.34385 0.14305 1.17887
 C280 C 0.35985 0.17138 1.17056
 N281 N 0.36869 0.16395 1.18809
 C282 C 0.35890 0.14659 1.19324
 C283 C 0.32429 0.11140 1.18920
 N284 N 0.30780 0.10199 1.18079
 C285 C 0.30237 0.11240 1.16342
 C286 C 0.30353 0.14871 1.12991
 N287 N 0.30986 0.16636 1.12131
 C288 C 0.32626 0.17286 1.13240
 H289 H 0.36424 0.18519 1.16280
 H290 H 0.36224 0.13715 1.20648
 H291 H 0.33198 0.10692 1.20333
 H292 H 0.28961 0.10920 1.15334
 H293 H 0.29081 0.13971 1.12474
 H294 H 0.33447 0.18670 1.12946
 C295 C 0.83881 0.65788 1.15948
 C296 C 0.82420 0.65839 1.14342
 C297 C 0.80826 0.64481 1.14348
 C298 C 0.80654 0.63068 1.15939
 C299 C 0.82081 0.63019 1.17508
 C300 C 0.83702 0.64378 1.17510
 C301 C 0.85565 0.66946 1.16423
 N302 N 0.86404 0.66257 1.18222
 C303 C 0.85258 0.64690 1.18891
 C304 C 0.81496 0.61556 1.18876
 N305 N 0.79743 0.60710 1.18174
 C306 C 0.79216 0.61631 1.16372
 C307 C 0.79603 0.64899 1.12674
 N308 N 0.80400 0.66483 1.11630
 C309 C 0.82124 0.67070 1.12644
 H310 H 0.86125 0.68210 1.15538
 H311 H 0.85486 0.63861 1.20310
 H312 H 0.82278 0.61153 1.20295
 H313 H 0.77870 0.61324 1.15455
 H314 H 0.78205 0.64125 1.12295
 H315 H 0.83077 0.68323 1.12197
 C316 C 0.87799 0.17267 0.65157
 C317 C 0.86284 0.17071 0.63641
 C318 C 0.84838 0.15579 0.63817
 C319 C 0.84879 0.14267 0.65513
 C320 C 0.86370 0.14456 0.67015
 C321 C 0.87848 0.15972 0.66831
 C322 C 0.89353 0.18626 0.65404
 N323 N 0.90363 0.18197 0.67194
 C324 C 0.89444 0.16569 0.68070
 C325 C 0.85977 0.13024 0.68506
 N326 N 0.84283 0.11978 0.67936
 C327 C 0.83612 0.12737 0.66105
 C328 C 0.83507 0.15798 0.62185
 N329 N 0.84110 0.17392 0.61016
 C330 C 0.85809 0.18180 0.61902
 H331 H 0.89686 0.19842 0.64349
 H332 H 0.89885 0.15880 0.69522
 H333 H 0.86850 0.12794 0.69907
 H334 H 0.82274 0.12230 0.65272
 H335 H 0.82159 0.14901 0.61925
 H336 H 0.86617 0.19491 0.61346
 C337 C 0.33925 0.35521 0.64520
 C338 C 0.33887 0.33831 0.63221
 C339 C 0.35368 0.32308 0.63399
 C340 C 0.36919 0.32470 0.64899
 C341 C 0.36950 0.34146 0.66182
 C342 C 0.35442 0.35681 0.65993
 C343 C 0.32603 0.37151 0.64755
 N344 N 0.33276 0.38307 0.66344
 C345 C 0.35018 0.37415 0.67107
 C346 C 0.38554 0.33869 0.67537
 N347 N 0.39509 0.32062 0.67119
 C348 C 0.38518 0.31200 0.65503
 C349 C 0.34871 0.30821 0.61994
 N350 N 0.33127 0.31416 0.60978
 C351 C 0.32525 0.33256 0.61729
 H352 H 0.31218 0.37416 0.63867
 H353 H 0.35882 0.37955 0.68415
 H354 H 0.38968 0.34914 0.68743
 H355 H 0.38908 0.29736 0.64837
 H356 H 0.35698 0.29398 0.61773
 H357 H 0.31167 0.34105 0.61247
 C358 C 0.32375 0.85441 0.15221
 C359 C 0.32611 0.83873 0.13777
 C360 C 0.34385 0.82703 0.13775
 C361 C 0.35936 0.83059 0.15206
 C362 C 0.35710 0.84576 0.16651
 C363 C 0.33911 0.85786 0.16654
 C364 C 0.30780 0.86767 0.15646
 N365 N 0.31307 0.87914 0.17298
 C366 C 0.33214 0.87311 0.17927
 C367 C 0.37389 0.84423 0.17950
 N368 N 0.38609 0.82846 0.17314
 C369 C 0.37724 0.82019 0.15630
 C370 C 0.34165 0.81211 0.12332
 N371 N 0.32286 0.81425 0.11445
 C372 C 0.31327 0.83061 0.12313
 H373 H 0.29326 0.86842 0.14840
 H374 H 0.34031 0.87924 0.19233
 H375 H 0.37640 0.85336 0.19304
 H376 H 0.38295 0.80691 0.14821
 H377 H 0.35293 0.80037 0.11999
 H378 H 0.29783 0.83583 0.11953
 C379 C 0.83355 0.38446 0.15072
 C380 C 0.83521 0.37054 0.13464
 C381 C 0.85043 0.35567 0.13491
 C382 C 0.86446 0.35477 0.15139
 C383 C 0.86285 0.36866 0.16727
 C384 C 0.84718 0.38354 0.16700
 C385 C 0.81868 0.39865 0.15537
 N386 N 0.82284 0.40645 0.17419
 C387 C 0.84032 0.39730 0.18139
 C388 C 0.87727 0.36325 0.18187
 N389 N 0.88772 0.34645 0.17528
 C390 C 0.87989 0.34114 0.15669
 C391 C 0.84665 0.34297 0.11851
 N392 N 0.82958 0.34992 0.10839
 C393 C 0.82255 0.36679 0.11827
 H394 H 0.80519 0.40194 0.14614
 H395 H 0.84698 0.39971 0.19644
 H396 H 0.87934 0.37064 0.19652
 H397 H 0.88472 0.32799 0.14786
 H398 H 0.85515 0.32919 0.11476
 H399 H 0.80853 0.37511 0.11474
 C400 C 0.83616 0.86721 0.64026
 C401 C 0.83723 0.85057 0.62691
 C402 C 0.85267 0.83605 0.62918
 C403 C 0.86729 0.83800 0.64493
 C404 C 0.86623 0.85443 0.65813
 C405 C 0.85054 0.86914 0.65578
 C406 C 0.82196 0.88273 0.64246
 N407 N 0.82732 0.89412 0.65898
 C408 C 0.84482 0.88587 0.66718
 C409 C 0.88150 0.85171 0.67262
 N410 N 0.89186 0.83402 0.66856
 C411 C 0.88320 0.82559 0.65162
 C412 C 0.84900 0.82098 0.61501
 N413 N 0.83168 0.82605 0.60425
 C414 C 0.82444 0.84414 0.61149
 H415 H 0.80836 0.88493 0.63309
 H416 H 0.85250 0.89126 0.68086
 H417 H 0.88434 0.86172 0.68544
 H418 H 0.88782 0.81117 0.64491
 H419 H 0.85788 0.80703 0.61336
 H420 H 0.81052 0.85181 0.60630
 C421 C 0.67599 0.64125 0.66558
 C422 C 0.67392 0.65607 0.64987
 C423 C 0.65743 0.66967 0.65014
 C424 C 0.64295 0.66890 0.66573
 C425 C 0.64493 0.65444 0.68091
 C426 C 0.66145 0.64063 0.68083
 C427 C 0.69043 0.62611 0.67034
 N428 N 0.68487 0.61673 0.68805
 C429 C 0.66707 0.62553 0.69430
 C430 C 0.62924 0.65767 0.69445
 N431 N 0.61768 0.67387 0.68782
 C432 C 0.62600 0.68078 0.67019
 C433 C 0.65916 0.68256 0.63380
 N434 N 0.67620 0.67733 0.62315
 C435 C 0.68545 0.66119 0.63297
 H436 H 0.70410 0.62248 0.66179
 H437 H 0.65852 0.62128 0.70767
 H438 H 0.62691 0.64907 0.70834
 H439 H 0.62039 0.69380 0.66145
 H440 H 0.64880 0.69516 0.63035
 H441 H 0.69952 0.65375 0.62820
 C442 C 0.66393 0.15741 0.15456
 C443 C 0.66470 0.17360 0.14046
 C444 C 0.64880 0.18773 0.13945
 C445 C 0.63198 0.18602 0.15233
 C446 C 0.63118 0.17022 0.16624
 C447 C 0.64729 0.15579 0.16736
 C448 C 0.67731 0.14162 0.15944
 N449 N 0.66927 0.13051 0.17490
 C450 C 0.65086 0.13913 0.17977
 C451 C 0.61353 0.17311 0.17732
 N452 N 0.60368 0.19028 0.17043
 C453 C 0.61496 0.19822 0.15509
 C454 C 0.65364 0.20201 0.12504
 N455 N 0.67222 0.19706 0.11715
 C456 C 0.67907 0.17961 0.12647
 H457 H 0.69197 0.13859 0.15242
 H458 H 0.64063 0.13380 0.19142
 H459 H 0.60849 0.16365 0.18982
 H460 H 0.61157 0.21218 0.14684
 H461 H 0.64412 0.21498 0.12073
 H462 H 0.69355 0.17200 0.12348
 C463 C 0.14458 0.63477 0.14233
 C464 C 0.14343 0.64900 0.12636
 C465 C 0.12836 0.66397 0.12625
 C466 C 0.11423 0.66490 0.14215
 C467 C 0.11533 0.65093 0.15805
 C468 C 0.13073 0.63566 0.15817
 C469 C 0.15880 0.61982 0.14700
 N470 N 0.15405 0.61135 0.16532
 C471 C 0.13688 0.62101 0.17229
 C472 C 0.10061 0.65673 0.17195
 N473 N 0.09076 0.67383 0.16484
 C474 C 0.09906 0.67882 0.14657
 C475 C 0.13234 0.67703 0.11034
 N476 N 0.14958 0.67034 0.10083
 C477 C 0.15635 0.65313 0.11052
 H478 H 0.17209 0.61616 0.13794
 H479 H 0.12976 0.61805 0.18686
 H480 H 0.09769 0.64940 0.18647
 H481 H 0.09475 0.69179 0.13714
 H482 H 0.12401 0.69104 0.10694
 H483 H 0.17036 0.64485 0.10705
 C484 C 0.17876 0.11923 0.64970
 C485 C 0.17687 0.13454 0.63482
 C486 C 0.16162 0.14932 0.63627
 C487 C 0.14794 0.14887 0.65271
 C488 C 0.14980 0.13366 0.66734
 C489 C 0.16533 0.11879 0.66584
 C490 C 0.19352 0.10444 0.65330
 N491 N 0.18942 0.09504 0.67133
 C492 C 0.17211 0.10371 0.67901
 C493 C 0.13584 0.13790 0.68240
 N494 N 0.12545 0.15534 0.67733
 C495 C 0.13280 0.16215 0.65919
 C496 C 0.16477 0.16317 0.62078
 N497 N 0.18152 0.15711 0.61002
 C498 C 0.18897 0.13957 0.61861
 H499 H 0.20676 0.10161 0.64389
 H500 H 0.16550 0.10002 0.69365
 H501 H 0.13415 0.12929 0.69638
 H502 H 0.12796 0.17611 0.65158
 H503 H 0.15593 0.17703 0.61799
 H504 H 0.20268 0.13137 0.61411
 C505 C 0.31923 0.65866 0.33369
 C506 C 0.31886 0.67385 0.34893
 C507 C 0.33410 0.68813 0.34953
 C508 C 0.34980 0.68761 0.33521
 C509 C 0.35026 0.67283 0.32024
 C510 C 0.33482 0.65822 0.31946
 C511 C 0.30644 0.64281 0.32894
 N512 N 0.31380 0.63284 0.31221
 C513 C 0.33121 0.64222 0.30641
 C514 C 0.36710 0.67653 0.30831
 N515 N 0.37672 0.69324 0.31572
 C516 C 0.36618 0.70001 0.33226
 C517 C 0.33005 0.70121 0.36536
 N518 N 0.31257 0.69545 0.37458
 C519 C 0.30565 0.67861 0.36471
 H520 H 0.29267 0.63892 0.33699
 H521 H 0.34076 0.63782 0.29369
 H522 H 0.37184 0.66784 0.29505
 H523 H 0.36997 0.71299 0.34163
 H524 H 0.33943 0.71387 0.36984
 H525 H 0.29192 0.67055 0.36857
 C526 C 0.34431 0.14843 0.84867
 C527 C 0.34396 0.16359 0.86399
 C528 C 0.35912 0.17807 0.86446
 C529 C 0.37468 0.17778 0.84989
 C530 C 0.37502 0.16293 0.83506
 C531 C 0.35983 0.14826 0.83444
 C532 C 0.33154 0.13261 0.84347
 N533 N 0.33901 0.12315 0.82647
 C534 C 0.35639 0.13267 0.82105
 C535 C 0.39113 0.16679 0.82241
 N536 N 0.40065 0.18376 0.82914
 C537 C 0.39066 0.19057 0.84607
 C538 C 0.35490 0.19121 0.88019
 N539 N 0.33756 0.18525 0.88962
 C540 C 0.33071 0.16837 0.87973
 H541 H 0.31768 0.12851 0.85126
 H542 H 0.36609 0.12864 0.80833
 H543 H 0.39530 0.15815 0.80892
 H544 H 0.39428 0.20406 0.85475
 H545 H 0.36381 0.20438 0.88403
 H546 H 0.31700 0.16027 0.88357
 C547 C 0.83612 0.64296 0.84630
 C548 C 0.83730 0.65982 0.85946
 C549 C 0.85218 0.67423 0.85663
 C550 C 0.86616 0.67195 0.84056
 C551 C 0.86500 0.65532 0.82767
 C552 C 0.84991 0.64076 0.83056
 C553 C 0.82277 0.62700 0.84484
 N554 N 0.82815 0.61519 0.82855
 C555 C 0.84479 0.62356 0.81982
 C556 C 0.87987 0.65730 0.81313
 N557 N 0.89014 0.67477 0.81681
 C558 C 0.88180 0.68380 0.83359
 C559 C 0.84921 0.68916 0.87121
 N560 N 0.83289 0.68415 0.88283
 C561 C 0.82559 0.66621 0.87568
 H562 H 0.80997 0.62451 0.85481
 H563 H 0.85241 0.61779 0.80632
 H564 H 0.88262 0.64684 0.80065
 H565 H 0.88658 0.69812 0.84011
 H566 H 0.85824 0.70268 0.87294
 H567 H 0.81247 0.65845 0.88168
 C568 C 0.83853 0.12819 0.34395
 C569 C 0.84035 0.14289 0.35924
 C570 C 0.85425 0.15840 0.35740
 C571 C 0.86690 0.15909 0.34007
 C572 C 0.86513 0.14433 0.32506
 C573 C 0.85079 0.12888 0.32696
 C574 C 0.82474 0.11293 0.34095
 N575 N 0.82826 0.10432 0.32238
 C576 C 0.84431 0.11392 0.31382
 C577 C 0.87823 0.14913 0.30960
 N578 N 0.88819 0.16642 0.31472
 C579 C 0.88124 0.17268 0.33332
 C580 C 0.85095 0.17139 0.37374
 N581 N 0.83555 0.16392 0.38528
 C582 C 0.82904 0.14652 0.37639
 H583 H 0.81258 0.10912 0.35126
 H584 H 0.85018 0.11095 0.29865
 H585 H 0.87990 0.14070 0.29550
 H586 H 0.88609 0.18625 0.34127
 H587 H 0.85866 0.18556 0.37661
 H588 H 0.81619 0.13765 0.38128
 C589 C 0.65122 0.35463 0.35372
 C590 C 0.65404 0.34068 0.36964
 C591 C 0.64189 0.32377 0.37102
 C592 C 0.62622 0.32094 0.35633
 C593 C 0.62343 0.33499 0.34057
 C594 C 0.63616 0.35190 0.33914
 C595 C 0.66229 0.37112 0.34807
 N596 N 0.65452 0.37862 0.33020
 C597 C 0.63836 0.36700 0.32458
 C598 C 0.60779 0.32829 0.32833
 N599 N 0.60076 0.31057 0.33610
 C600 C 0.61204 0.30588 0.35322
 C601 C 0.64977 0.31214 0.38710
 N602 N 0.66620 0.32185 0.39529
 C603 C 0.66880 0.33928 0.38458
 H604 H 0.67564 0.37676 0.35604
 H605 H 0.62941 0.36874 0.31064
 H606 H 0.60196 0.33580 0.31462
 H607 H 0.61019 0.29259 0.36278
 H608 H 0.64442 0.29743 0.39198
 H609 H 0.68126 0.34973 0.38660
 C610 C 0.67673 0.86572 0.83851
 C611 C 0.67429 0.84992 0.85280
 C612 C 0.65766 0.83736 0.85114
 C613 C 0.64331 0.84029 0.83532
 C614 C 0.64565 0.85567 0.82115
 C615 C 0.66251 0.86855 0.82281
 C616 C 0.69165 0.88003 0.83593
 N617 N 0.68683 0.89149 0.81908
 C618 C 0.66904 0.88447 0.81100
 C619 C 0.62984 0.85413 0.80705
 N620 N 0.61806 0.83813 0.81246
 C621 C 0.62627 0.82971 0.82977
 C622 C 0.65938 0.82297 0.86637
 N623 N 0.67675 0.82634 0.87737
 C624 C 0.68593 0.84288 0.86919
 H625 H 0.70508 0.88166 0.84555
 H626 H 0.66144 0.89043 0.79738
 H627 H 0.62741 0.86375 0.79375
 H628 H 0.62050 0.81646 0.83757
 H629 H 0.64869 0.81091 0.86900
 H630 H 0.70024 0.84912 0.87453
 C631 C 0.18054 0.37402 0.84319
 C632 C 0.18203 0.35861 0.85813
 C633 C 0.16792 0.34308 0.85833
 C634 C 0.15211 0.34276 0.84350
 C635 C 0.15072 0.35807 0.82902
 C636 C 0.16488 0.37367 0.82888
 C637 C 0.19280 0.39011 0.83802
 N638 N 0.18480 0.39936 0.82096
 C639 C 0.16769 0.38929 0.81537
 C640 C 0.13511 0.35361 0.81574
 N641 N 0.12670 0.33583 0.82162
 C642 C 0.13703 0.32903 0.83863
 C643 C 0.17366 0.32999 0.87398
 N644 N 0.19082 0.33712 0.88329
 C645 C 0.19602 0.35463 0.87360
 H646 H 0.20690 0.39429 0.84565
 H647 H 0.15841 0.39225 0.80184
 H648 H 0.13095 0.36241 0.80227
 H649 H 0.13419 0.31487 0.84652
 H650 H 0.16600 0.31613 0.87815
 H651 H 0.20897 0.36395 0.87737
 C652 C 0.14673 0.85440 0.35294
 C653 C 0.14406 0.83916 0.36757
 C654 C 0.12917 0.82479 0.36489
 C655 C 0.11644 0.82574 0.34746
 C656 C 0.11897 0.84086 0.33290
 C657 C 0.13442 0.85533 0.33563
 C658 C 0.16110 0.86921 0.35134
 N659 N 0.15805 0.87936 0.33338
 C660 C 0.14167 0.87097 0.32367
 C661 C 0.10494 0.83741 0.31740
 N662 N 0.09398 0.82065 0.32228
 C663 C 0.10105 0.81346 0.34060
 C664 C 0.13137 0.81094 0.38075
 N665 N 0.14731 0.81671 0.39287
 C666 C 0.15498 0.83403 0.38490
 H667 H 0.17323 0.87177 0.36236
 H668 H 0.13582 0.87552 0.30873
 H669 H 0.10314 0.84640 0.30359
 H670 H 0.09548 0.80012 0.34838
 H671 H 0.12242 0.79742 0.38283
 H672 H 0.16822 0.84189 0.39079
 O673 O 0.21219 0.97109 0.25672
 O674 O 0.24547 1.00918 0.23438
 O675 O 0.24431 0.96958 0.23316
 O676 O 0.21606 1.01066 0.26076
 O677 O 0.23756 1.00683 0.28685
 O678 O 0.26542 0.96664 0.25965
 O679 O 0.26699 1.00632 0.26059
 O680 O 0.23330 0.96757 0.28315
 Cu681 Cu 0.22734 0.99039 0.24369
 Cu682 Cu 0.25290 0.98642 0.27516
 C683 C 0.21697 0.96275 0.27367
 C684 C 0.26172 1.01444 0.24356
 C685 C 0.25991 0.96126 0.24182
 C686 C 0.22234 1.01590 0.27850
 O687 O 0.29488 0.48394 0.74088
 O688 O 0.26303 0.52513 0.76336
 O689 O 0.26817 0.48624 0.76994
 O690 O 0.29205 0.52337 0.73610
 O691 O 0.26818 0.51846 0.71252
 O692 O 0.24380 0.48177 0.74675
 O693 O 0.23944 0.52036 0.73946
 O694 O 0.27065 0.47924 0.71761
 Cu695 Cu 0.28197 0.50524 0.75490
 Cu696 Cu 0.25316 0.49940 0.72672
 C697 C 0.28797 0.47452 0.72535
 C698 C 0.24576 0.52969 0.75521
 C699 C 0.25184 0.47775 0.76416
 C700 C 0.28429 0.52725 0.71859
 O701 O 0.74714 -0.01155 0.20215
 O702 O 0.77897 0.02225 0.23244
 O703 O 0.77310 -0.01681 0.23225
 O704 O 0.74991 0.02781 0.20541
 O705 O 0.72610 0.02940 0.22909
 O706 O 0.74912 -0.01489 0.25572
 O707 O 0.75537 0.02419 0.25631
 O708 O 0.72303 -0.01010 0.22553
 Cu709 Cu 0.76463 0.00523 0.21574
 Cu710 Cu 0.73598 0.00739 0.24398
 C711 C 0.72980 -0.01676 0.20856
 C712 C 0.77278 0.02902 0.24948
 C713 C 0.76503 -0.02344 0.24858
 C714 C 0.73394 0.03622 0.21283
 O715 O 0.79071 0.51352 0.75339
 O716 O 0.75963 0.47437 0.72793
 O717 O 0.76303 0.51389 0.72436
 O718 O 0.78836 0.47378 0.75596
 O719 O 0.76453 0.47736 0.77941
 O720 O 0.73983 0.51809 0.74836
 O721 O 0.73589 0.47854 0.75139
 O722 O 0.76727 0.51701 0.77725
 Cu723 Cu 0.77781 0.49347 0.73807
 Cu724 Cu 0.74951 0.49810 0.76643
 C725 C 0.78418 0.52208 0.76957
 C726 C 0.74246 0.46973 0.73539
 C727 C 0.74725 0.52306 0.73118
 C728 C 0.78068 0.46857 0.77293
 O729 O 0.20598 0.52828 0.25662
 O730 O 0.24047 0.49103 0.28270
 O731 O 0.23624 0.53085 0.28284
 O732 O 0.21014 0.48868 0.25684
 O733 O 0.23206 0.48997 0.23144
 O734 O 0.25772 0.53297 0.25714
 O735 O 0.26227 0.49319 0.25727
 O736 O 0.22750 0.52945 0.23086
 Cu737 Cu 0.22109 0.50957 0.27235
 Cu738 Cu 0.24709 0.51166 0.24166
 C739 C 0.21085 0.53506 0.23913
 C740 C 0.25712 0.48556 0.27428
 C741 C 0.25131 0.53926 0.27438
 C742 C 0.21670 0.48198 0.23983
 O743 O 0.72932 0.98696 0.73976
 O744 O 0.75801 1.02708 0.71448
 O745 O 0.75985 0.98743 0.71460
 O746 O 0.72831 1.02663 0.74069
 O747 O 0.75054 1.02628 0.76641
 O748 O 0.78194 0.98771 0.74041
 O749 O 0.78030 1.02744 0.74010
 O750 O 0.75142 0.98655 0.76558
 Cu751 Cu 0.74167 1.00704 0.72480
 Cu752 Cu 0.76826 1.00703 0.75572
 C753 C 0.73541 0.97979 0.75688
 C754 C 0.77398 1.03417 0.72282
 C755 C 0.77626 0.98086 0.72315
 C756 C 0.73415 1.03308 0.75811
 O757 O 0.71319 0.47227 0.26905
 O758 O 0.73765 0.51572 0.24423
 O759 O 0.74328 0.47676 0.24346
 O760 O 0.70810 0.51156 0.27001
 O761 O 0.73004 0.51352 0.29588
 O762 O 0.76532 0.47842 0.26928
 O763 O 0.75968 0.51760 0.27003
 O764 O 0.73533 0.47429 0.29473
 Cu765 Cu 0.72331 0.49381 0.25410
 Cu766 Cu 0.74979 0.49612 0.28512
 C767 C 0.72005 0.46597 0.28624
 C768 C 0.75291 0.52396 0.25282
 C769 C 0.76038 0.47186 0.25166
 C770 C 0.71308 0.51853 0.28746
 O771 O 0.29225 0.02143 0.76772
 O772 O 0.27183 -0.02236 0.73915
 O773 O 0.26506 0.01664 0.73876
 O774 O 0.30008 -0.01788 0.76713
 O775 O 0.27665 -0.02136 0.79092
 O776 O 0.24173 0.01326 0.76265
 O777 O 0.24834 -0.02582 0.76287
 O778 O 0.26894 0.01757 0.79154
 Cu779 Cu 0.28473 -0.00013 0.75087
 Cu780 Cu 0.25660 -0.00453 0.77940
 C781 C 0.28404 0.02702 0.78442
 C782 C 0.25637 -0.03142 0.74613
 C783 C 0.24745 0.02078 0.74578
 C784 C 0.29423 -0.02561 0.78385
 O785 O 0.25104 0.27817 0.98092
 O786 O 0.27940 0.25066 1.02218
 O787 O 0.27810 0.24852 0.98221
 O788 O 0.25267 0.28051 1.02096
 O789 O 0.22787 0.25827 1.02293
 O790 O 0.25312 0.22643 0.98360
 O791 O 0.25458 0.22840 1.02365
 O792 O 0.22615 0.25605 0.98298
 Cu793 Cu 0.26778 0.26668 1.00136
 Cu794 Cu 0.23795 0.24008 1.00349
 C795 C 0.23379 0.27173 0.97486
 C796 C 0.27170 0.23485 1.03002
 C797 C 0.26994 0.23216 0.97615
 C798 C 0.23602 0.27475 1.02873
 O799 O 0.23565 0.77994 0.48350
 O800 O 0.27200 0.75182 0.51564
 O801 O 0.26147 0.75049 0.47762
 O802 O 0.23956 0.77503 0.52368
 O803 O 0.21796 0.74976 0.52617
 O804 O 0.24043 0.72488 0.48144
 O805 O 0.24994 0.72711 0.51971
 O806 O 0.21334 0.75525 0.48571
 Cu807 Cu 0.25390 0.76674 0.50019
 Cu808 Cu 0.22806 0.73724 0.50329
 C809 C 0.21849 0.77256 0.47879
 C810 C 0.26739 0.73481 0.52331
 C811 C 0.25472 0.73330 0.47181
 C812 C 0.22493 0.76641 0.53281
 O813 O 0.27841 0.73669 -0.01371
 O814 O 0.24578 0.71002 0.02199
 O815 O 0.25014 0.70968 -0.01755
 O816 O 0.27090 0.74027 0.02505
 O817 O 0.24598 0.76301 0.02026
 O818 O 0.22594 0.73320 -0.02228
 O819 O 0.22094 0.73282 0.01715
 O820 O 0.25437 0.76036 -0.01837
 Cu821 Cu 0.26371 0.72183 0.00448
 Cu822 Cu 0.23435 0.74963 -0.00134
 C823 C 0.27216 0.75313 -0.02201
 C824 C 0.22787 0.71662 0.02565
 C825 C 0.23439 0.71642 -0.02719
 C826 C 0.26193 0.75695 0.02981
 O827 O 0.26077 0.25753 0.47984
 O828 O 0.23573 0.22661 0.51930
 O829 O 0.23458 0.22803 0.47937
 O830 O 0.26374 0.25445 0.51963
 O831 O 0.23906 0.27774 0.52174
 O832 O 0.20977 0.25115 0.48173
 O833 O 0.21119 0.25002 0.52160
 O834 O 0.23583 0.28052 0.48213
 Cu835 Cu 0.25118 0.23932 0.49932
 Cu836 Cu 0.22149 0.26716 0.50203
 C837 C 0.25246 0.27433 0.47424
 C838 C 0.21918 0.23314 0.52722
 C839 C 0.21723 0.23508 0.47365
 C840 C 0.25642 0.27063 0.52751
 O841 O 0.75040 0.78040 0.97851
 O842 O 0.77508 0.74985 1.01866
 O843 O 0.77510 0.74846 0.97848
 O844 O 0.74430 0.77580 1.01803
 O845 O 0.72068 0.75239 1.01489
 O846 O 0.75122 0.72516 0.97727
 O847 O 0.75087 0.72697 1.01654
 O848 O 0.72629 0.75763 0.97484
 Cu849 Cu 0.76352 0.76587 0.99866
 Cu850 Cu 0.73489 0.73878 0.99521
 C851 C 0.73433 0.77437 0.96962
 C852 C 0.76731 0.73343 1.02474
 C853 C 0.76819 0.73182 0.97129
 C854 C 0.72715 0.76845 1.02324
 O855 O 0.77123 0.22490 0.47682
 O856 O 0.74317 0.25220 0.51786
 O857 O 0.73706 0.24606 0.47864
 O858 O 0.77340 0.22603 0.51647
 O859 O 0.79339 0.25246 0.51253
 O860 O 0.75576 0.27339 0.47458
 O861 O 0.76314 0.27852 0.51331
 O862 O 0.79004 0.25208 0.47238
 Cu863 Cu 0.75429 0.23470 0.49780
 Cu864 Cu 0.77753 0.26669 0.49265
 C865 C 0.78551 0.23403 0.46763
 C866 C 0.74870 0.27011 0.52265
 C867 C 0.73993 0.26313 0.47024
 C868 C 0.78942 0.23556 0.52113
 O869 O 0.78046 0.26244 -0.01860
 O870 O 0.75627 0.23445 0.02321
 O871 O 0.75246 0.23504 -0.01637
 O872 O 0.78484 0.26140 0.02119
 O873 O 0.76153 0.28607 0.02309
 O874 O 0.72910 0.25967 -0.01447
 O875 O 0.73284 0.25898 0.02539
 O876 O 0.75713 0.28708 -0.01643
 Cu877 Cu 0.77089 0.24590 0.00212
 Cu878 Cu 0.74276 0.27540 0.00472
 C879 C 0.77297 0.27942 -0.02470
 C880 C 0.74030 0.24195 0.03138
 C881 C 0.73536 0.24284 -0.02190
 C882 C 0.77869 0.27830 0.02851
 O883 O 0.76385 0.75599 0.47866
 O884 O 0.74717 0.72449 0.52215
 O885 O 0.74162 0.72351 0.48250
 O886 O 0.76927 0.75669 0.51826
 O887 O 0.74164 0.77629 0.52098
 O888 O 0.71401 0.74317 0.48505
 O889 O 0.71938 0.74389 0.52461
 O890 O 0.73612 0.77547 0.48123
 Cu891 Cu 0.75824 0.73822 0.50004
 Cu892 Cu 0.72504 0.76168 0.50328
 C893 C 0.75289 0.77105 0.47250
 C894 C 0.73036 0.72888 0.53082
 C895 C 0.72312 0.72764 0.47769
 C896 C 0.76013 0.77210 0.52581
 O897 O 1.01684 0.27582 0.23892
 O898 O 0.97660 0.25120 0.26836
 O899 O 1.01628 0.24700 0.26631
 O900 O 0.97693 0.27788 0.23857
 O901 O 0.97488 0.25372 0.21522
 O902 O 1.01391 0.22327 0.24252
 O903 O 0.97444 0.22705 0.24499
 O904 O 1.01483 0.25196 0.21524
 Cu905 Cu 0.99683 0.26538 0.25538
 Cu906 Cu 0.99422 0.23667 0.22711
 C907 C 1.02287 0.26808 0.22220
 C908 C 0.96875 0.23487 0.26187
 C909 C 1.02184 0.22984 0.25897
 C910 C 0.96923 0.27095 0.22207
 O911 O 0.49348 0.23979 0.71160
 O912 O 0.53381 0.21337 0.74136
 O913 O 0.49402 0.21388 0.74171
 O914 O 0.53327 0.24105 0.71292
 O915 O 0.53263 0.26572 0.73585
 O916 O 0.49350 0.23865 0.76454
 O917 O 0.53334 0.23796 0.76439
 O918 O 0.49265 0.26461 0.73436
 Cu919 Cu 0.51371 0.22457 0.72460
 Cu920 Cu 0.51296 0.25424 0.75206
 C921 C 0.48605 0.25660 0.71789
 C922 C 0.54052 0.22107 0.75788
 C923 C 0.48704 0.22172 0.75806
 C924 C 0.53975 0.25797 0.71959
 O925 O 0.04053 0.24691 0.77874
 O926 O 0.00000 0.22018 0.75207
 O927 O 0.04023 0.22109 0.74727
 O928 O 0.00122 0.25119 0.77582
 O929 O 0.00114 0.27406 0.75101
 O930 O 0.03982 0.24501 0.72352
 O931 O -0.00005 0.24267 0.72687
 O932 O 0.04063 0.27044 0.75451
 Cu933 Cu 0.02091 0.23253 0.76543
 Cu934 Cu 0.02047 0.26023 0.73656
 C935 C 0.04737 0.26331 0.77154
 C936 C -0.00716 0.22670 0.73514
 C937 C 0.04661 0.22813 0.73034
 C938 C -0.00558 0.26783 0.76794
 O939 O 0.46337 0.27290 0.25620
 O940 O 0.50349 0.24491 0.22761
 O941 O 0.46353 0.24587 0.22701
 O942 O 0.50313 0.27308 0.25542
 O943 O 0.50440 0.24899 0.27904
 O944 O 0.46387 0.22169 0.25054
 O945 O 0.50391 0.22077 0.25119
 O946 O 0.46449 0.24874 0.27975
 Cu947 Cu 0.48328 0.26156 0.23918
 Cu948 Cu 0.48418 0.23262 0.26748
 C949 C 0.45716 0.26550 0.27298
 C950 C 0.51068 0.22816 0.23470
 C951 C 0.45679 0.22924 0.23389
 C952 C 0.51068 0.26577 0.27191
 O953 O 1.02426 0.77560 0.73924
 O954 O 0.98384 0.75244 0.76926
 O955 O 1.02361 0.75007 0.76959
 O956 O 0.98442 0.77650 0.73757
 O957 O 0.98442 0.75027 0.71647
 O958 O 1.02345 0.72400 0.74827
 O959 O 0.98351 0.72610 0.74831
 O960 O 1.02452 0.74948 0.71798
 Cu961 Cu 1.00402 0.76627 0.75601
 Cu962 Cu 1.00386 0.73486 0.73060
 C963 C 1.03153 0.76651 0.72374
 C964 C 0.97674 0.73536 0.76402
 C965 C 1.03033 0.73259 0.76425
 C966 C 0.97770 0.76779 0.72155
 O967 O 0.52114 0.71974 0.24764
 O968 O 0.48390 0.74611 0.21292
 O969 O 0.52401 0.74300 0.21490
 O970 O 0.48185 0.71876 0.24149
 O971 O 0.47975 0.74455 0.26306
 O972 O 0.52203 0.76927 0.23587
 O973 O 0.48243 0.77181 0.23466
 O974 O 0.51941 0.74620 0.26840
 Cu975 Cu 0.50305 0.72939 0.22707
 Cu976 Cu 0.50087 0.76045 0.25264
 C977 C 0.52643 0.72863 0.26415
 C978 C 0.47658 0.76342 0.21823
 C979 C 0.53010 0.76033 0.22057
 C980 C 0.47343 0.72745 0.25662
 O981 O -0.00004 0.73743 0.22804
 O982 O -0.03958 0.76643 0.25624
 O983 O 0.00044 0.76518 0.25657
 O984 O -0.03977 0.74127 0.22558
 O985 O -0.04134 0.71617 0.24802
 O986 O -0.00100 0.74026 0.27922
 O987 O -0.04086 0.74137 0.27874
 O988 O -0.00170 0.71260 0.25077
 Cu989 Cu -0.01954 0.75509 0.23937
 Cu990 Cu -0.02138 0.72513 0.26645
 C991 C 0.00586 0.72003 0.23467
 C992 C -0.04705 0.75866 0.27230
 C993 C 0.00665 0.75685 0.27310
 C994 C -0.04749 0.72471 0.23150
 O995 O 0.47943 0.78321 0.75253
 O996 O 0.51947 0.75608 0.72363
 O997 O 0.47964 0.75460 0.72438
 O998 O 0.51939 0.78358 0.75219
 O999 O 0.52033 0.75969 0.77604
 O1000 O 0.48152 0.73092 0.74840
 O1001 O 0.52118 0.73227 0.74755
 O1002 O 0.48069 0.75921 0.77626
 Cu1003 Cu 0.49922 0.77178 0.73578
 Cu1004 Cu 0.50103 0.74314 0.76443
 C1005 C 0.47332 0.77594 0.76938
 C1006 C 0.52730 0.73966 0.73073
 C1007 C 0.47399 0.73766 0.73168
 C1008 C 0.52666 0.77638 0.76891
 C1009 C 0.41116 0.29608 0.30675
 C1010 C 0.41812 0.30435 0.28834
 N1011 N 0.40979 0.32220 0.28136
 C1012 C 0.39478 0.33213 0.29192
 C1013 C 0.38767 0.32378 0.31038
 N1014 N 0.39621 0.30591 0.31722
 N1015 N 0.41934 0.27826 0.31383
 C1016 C 0.43419 0.26823 0.30331
 C1017 C 0.44123 0.27634 0.28476
 N1018 N 0.43298 0.29432 0.27773
 H1019 H 0.38849 0.34624 0.28584
 H1020 H 0.44037 0.25402 0.30937
 C1021 C 0.42935 0.80812 0.80437
 C1022 C 0.43608 0.78853 0.81014
 N1023 N 0.42858 0.77991 0.82731
 C1024 C 0.41465 0.78997 0.83906
 C1025 C 0.40789 0.80983 0.83349
 N1026 N 0.41557 0.81827 0.81614
 N1027 N 0.43676 0.81674 0.78713
 C1028 C 0.45070 0.80665 0.77541
 C1029 C 0.45769 0.78706 0.78127
 N1030 N 0.45012 0.77850 0.79856
 H1031 H 0.40928 0.78247 0.85264
 H1032 H 0.45640 0.81396 0.76180
 C1033 C -0.05286 0.30209 0.79605
 C1034 C -0.04518 0.28412 0.80518
 N1035 N -0.05346 0.27747 0.82286
 C1036 C -0.06922 0.28781 0.83174
 C1037 C -0.07736 0.30574 0.82242
 N1038 N -0.06867 0.31238 0.80480
 N1039 N -0.04466 0.30879 0.77837
 C1040 C -0.02921 0.29823 0.76927
 C1041 C -0.02163 0.27999 0.77818
 N1042 N -0.02980 0.27343 0.79606
 H1043 H -0.07523 0.28181 0.84579
 H1044 H -0.02310 0.30393 0.75508
 C1045 C -0.09510 0.78913 0.30311
 C1046 C -0.08727 0.79708 0.28494
 N1047 N -0.09568 0.81440 0.27688
 C1048 C -0.11168 0.82409 0.28606
 C1049 C -0.11983 0.81604 0.30428
 N1050 N -0.11107 0.79872 0.31227
 N1051 N -0.08684 0.77174 0.31116
 C1052 C -0.07115 0.76182 0.30175
 C1053 C -0.06335 0.76962 0.28338
 N1054 N -0.07161 0.78718 0.27547
 H1055 H -0.11783 0.83779 0.27901
 H1056 H -0.06497 0.74791 0.30847
 C1057 C 0.56525 0.69942 0.30773
 C1058 C 0.55703 0.68845 0.29124
 N1059 N 0.56110 0.66817 0.28976
 C1060 C 0.57312 0.65837 0.30395
 C1061 C 0.58156 0.66937 0.32046
 N1062 N 0.57726 0.68969 0.32185
 N1063 N 0.56106 0.71964 0.30941
 C1064 C 0.54889 0.72941 0.29540
 C1065 C 0.54052 0.71849 0.27886
 N1066 N 0.54487 0.69820 0.27717
 H1067 H 0.57587 0.64220 0.30230
 H1068 H 0.54574 0.74554 0.29724
 C1069 C 0.58796 0.19053 0.79087
 C1070 C 0.57925 0.20868 0.79831
 N1071 N 0.58627 0.21654 0.81620
 C1072 C 0.60166 0.20712 0.82701
 C1073 C 0.61064 0.18887 0.81955
 N1074 N 0.60334 0.18115 0.80156
 N1075 N 0.58098 0.18259 0.77301
 C1076 C 0.56566 0.19202 0.76218
 C1077 C 0.55691 0.21032 0.76950
 N1078 N 0.56397 0.21820 0.78748
 H1079 H 0.60669 0.21402 0.84114
 H1080 H 0.56046 0.18532 0.74795
 C1081 C 1.07801 0.70313 0.79787
 C1082 C 1.07112 0.69524 0.77917
 N1083 N 1.08026 0.67822 0.77147
 C1084 C 1.09608 0.66873 0.78157
 C1085 C 1.10322 0.67662 0.80041
 N1086 N 1.09374 0.69367 0.80800
 N1087 N 1.06905 0.72029 0.80549
 C1088 C 1.05353 0.73001 0.79516
 C1089 C 1.04660 0.72218 0.77633
 N1090 N 1.05560 0.70488 0.76885
 H1091 H 1.10281 0.65523 0.77483
 H1092 H 1.04676 0.74372 0.80155
 C1093 C 1.06822 0.19467 0.28861
 C1094 C 1.06153 0.21328 0.29691
 N1095 N 1.07026 0.22013 0.31446
 C1096 C 1.08549 0.20929 0.32409
 C1097 C 1.09250 0.19060 0.31572
 N1098 N 1.08345 0.18387 0.29812
 N1099 N 1.05954 0.18776 0.27105
 C1100 C 1.04447 0.19868 0.26134
 C1101 C 1.03778 0.21746 0.26950
 N1102 N 1.04651 0.22428 0.28719
 H1103 H 1.09194 0.21544 0.33800
 H1104 H 1.03789 0.19279 0.24731
 C1105 C 0.58747 0.28770 0.68922
 C1106 C 0.57936 0.29571 0.70733
 N1107 N 0.58736 0.31289 0.71547
 C1108 C 0.60323 0.32237 0.70637
 C1109 C 0.61158 0.31424 0.68827
 N1110 N 0.60329 0.29709 0.68021
 N1111 N 0.57964 0.27048 0.68108
 C1112 C 0.56407 0.26077 0.69034
 C1113 C 0.55598 0.26860 0.70864
 N1114 N 0.56383 0.28600 0.71665
 H1115 H 0.60925 0.33594 0.71334
 H1116 H 0.55823 0.24699 0.68356
 C1117 C 0.57598 0.79026 0.18729
 C1118 C 0.56601 0.79984 0.20368
 N1119 N 0.57076 0.81915 0.20873
 C1120 C 0.58502 0.82947 0.19820
 C1121 C 0.59527 0.82006 0.18159
 N1122 N 0.59034 0.80052 0.17667
 N1123 N 0.57101 0.77090 0.18221
 C1124 C 0.55648 0.76077 0.19274
 C1125 C 0.54642 0.77042 0.20916
 N1126 N 0.55155 0.78977 0.21419
 H1127 H 0.58808 0.84481 0.20301
 H1128 H 0.55278 0.74539 0.18828
 C1129 C 1.07185 0.29592 0.19169
 C1130 C 1.06373 0.30438 0.20958
 N1131 N 1.07196 0.32151 0.21749
 C1132 C 1.08805 0.33058 0.20841
 C1133 C 1.09653 0.32207 0.19046
 N1134 N 1.08797 0.30488 0.18263
 N1135 N 1.06363 0.27875 0.18377
 C1136 C 1.04767 0.26959 0.19303
 C1137 C 1.03959 0.27791 0.21113
 N1138 N 1.04788 0.29521 0.21890
 H1139 H 1.09405 0.34415 0.21536
 H1140 H 1.04152 0.25585 0.18644
 C1141 C 1.08261 0.79309 0.69575
 C1142 C 1.07160 0.80331 0.71105
 N1143 N 1.07788 0.82170 0.71776
 C1144 C 1.09491 0.83028 0.71013
 C1145 C 1.10645 0.81991 0.69517
 N1146 N 1.09979 0.80157 0.68818
 N1147 N 1.07621 0.77462 0.68914
 C1148 C 1.05944 0.76583 0.69733
 C1149 C 1.04867 0.77590 0.71300
 N1150 N 1.05506 0.79449 0.71932
 H1151 H 1.09929 0.84504 0.71578
 H1152 H 1.05485 0.75099 0.69198
 C1153 C 0.43112 0.70152 0.70009
 C1154 C 0.43768 0.71983 0.69149
 N1155 N 0.43040 0.72563 0.67275
 C1156 C 0.41684 0.71395 0.66224
 C1157 C 0.41025 0.69553 0.67086
 N1158 N 0.41768 0.68990 0.68964
 N1159 N 0.43832 0.69556 0.71874
 C1160 C 0.45192 0.70704 0.72922
 C1161 C 0.45872 0.72539 0.72069
 N1162 N 0.45135 0.73137 0.70194
 H1163 H 0.41150 0.71898 0.64732
 H1164 H 0.45742 0.70179 0.74405
 C1165 C 0.40919 0.20002 0.20150
 C1166 C 0.41692 0.19186 0.21995
 N1167 N 0.40879 0.17460 0.22758
 C1168 C 0.39324 0.16513 0.21763
 C1169 C 0.38532 0.17330 0.19909
 N1170 N 0.39366 0.19062 0.19157
 N1171 N 0.41724 0.21729 0.19385
 C1172 C 0.43266 0.22685 0.20386
 C1173 C 0.44043 0.21881 0.22246
 N1174 N 0.43232 0.20140 0.23003
 H1175 H 0.38721 0.15148 0.22429
 H1176 H 0.43869 0.24065 0.19738
 C1177 C -0.09541 0.69809 0.19726
 C1178 C -0.08648 0.68798 0.21418
 N1179 N -0.09347 0.66955 0.21986
 C1180 C -0.10919 0.66080 0.20957
 C1181 C -0.11861 0.67103 0.19283
 N1182 N -0.11125 0.68944 0.18702
 N1183 N -0.08828 0.71650 0.19155
 C1184 C -0.07269 0.72533 0.20207
 C1185 C -0.06390 0.71535 0.21923
 N1186 N -0.07105 0.69683 0.22479
 H1187 H -0.11412 0.64601 0.21452
 H1188 H -0.06741 0.74007 0.19721
 C1189 C -0.05601 0.19531 0.70739
 C1190 C -0.04776 0.21240 0.69786
 N1191 N -0.05574 0.21895 0.67969
 C1192 C -0.07165 0.20926 0.67062
 C1193 C -0.08017 0.19209 0.68022
 N1194 N -0.07191 0.18566 0.69843
 N1195 N -0.04809 0.18867 0.72553
 C1196 C -0.03228 0.19840 0.73465
 C1197 C -0.02400 0.21567 0.72524
 N1198 N -0.03198 0.22224 0.70697
 H1199 H -0.07744 0.21512 0.65619
 H1200 H -0.02635 0.19275 0.74917
 C1201 C 0.29302 0.43794 0.30079
 C1202 C 0.27491 0.44477 0.31006
 N1203 N 0.26837 0.43535 0.32721
 C1204 C 0.27900 0.41928 0.33548
 C1205 C 0.29705 0.41208 0.32606
 N1206 N 0.30359 0.42181 0.30893
 N1207 N 0.29951 0.44727 0.28354
 C1208 C 0.28859 0.46301 0.27500
 C1209 C 0.27020 0.46968 0.28403
 N1210 N 0.26390 0.46038 0.30147
 H1211 H 0.27314 0.41218 0.34907
 H1212 H 0.29404 0.46998 0.26111
 C1213 C 0.33036 -0.06910 0.81618
 C1214 C 0.31348 -0.05943 0.82528
 N1215 N 0.30797 -0.06476 0.84444
 C1216 C 0.31818 -0.07978 0.85481
 C1217 C 0.33458 -0.09042 0.84541
 N1218 N 0.34043 -0.08438 0.82636
 N1219 N 0.33586 -0.06362 0.79697
 C1220 C 0.32499 -0.04910 0.78635
 C1221 C 0.30762 -0.03993 0.79524
 N1222 N 0.30246 -0.04526 0.81460
 H1223 H 0.31316 -0.08334 0.87005
 H1224 H 0.32951 -0.04522 0.77095
 C1225 C 0.80846 0.41994 0.80655
 C1226 C 0.81739 0.42737 0.78868
 N1227 N 0.83501 0.41868 0.78190
 C1228 C 0.84417 0.40285 0.79211
 C1229 C 0.83525 0.39507 0.81009
 N1230 N 0.81750 0.40402 0.81675
 N1231 N 0.79084 0.42870 0.81336
 C1232 C 0.78170 0.44452 0.80305
 C1233 C 0.79050 0.45191 0.78498
 N1234 N 0.80822 0.44307 0.77829
 H1235 H 0.85814 0.39651 0.78597
 H1236 H 0.76761 0.45111 0.80882
 C1237 C 0.79100 -0.07449 0.27965
 C1238 C 0.77346 -0.06468 0.28716
 N1239 N 0.76478 -0.07173 0.30456
 C1240 C 0.77286 -0.08819 0.31481
 C1241 C 0.79055 -0.09817 0.30730
 N1242 N 0.79902 -0.09083 0.28982
 N1243 N 0.79977 -0.06759 0.26230
 C1244 C 0.79177 -0.05122 0.25202
 C1245 C 0.77414 -0.04124 0.25942
 N1246 N 0.76540 -0.04829 0.27690
 H1247 H 0.76546 -0.09327 0.32856
 H1248 H 0.79913 -0.04608 0.23822
 C1249 C 0.31235 0.57115 0.68148
 C1250 C 0.32127 0.56499 0.70016
 N1251 N 0.33893 0.57354 0.70661
 C1252 C 0.34799 0.58821 0.69533
 C1253 C 0.33888 0.59478 0.67673
 N1254 N 0.32128 0.58586 0.67029
 N1255 N 0.29468 0.56262 0.67500
 C1256 C 0.28541 0.54824 0.68647
 C1257 C 0.29416 0.54222 0.70536
 N1258 N 0.31197 0.55074 0.71168
 H1259 H 0.36201 0.59467 0.70103
 H1260 H 0.27127 0.54177 0.68098
 C1261 C 0.29506 1.06176 0.21626
 C1262 C 0.27793 1.05348 0.20653
 N1263 N 0.27139 1.06108 0.18827
 C1264 C 0.28104 1.07680 0.17924
 C1265 C 0.29815 1.08560 0.18901
 N1266 N 0.30474 1.07758 0.20734
 N1267 N 0.30149 1.05406 0.23464
 C1268 C 0.29142 1.03854 0.24377
 C1269 C 0.27403 1.03043 0.23411
 N1270 N 0.26785 1.03815 0.21565
 H1271 H 0.27516 1.08220 0.16468
 H1272 H 0.29674 1.03281 0.25848
 C1273 C 0.78293 0.57117 0.22202
 C1274 C 0.76618 0.56149 0.21295
 N1275 N 0.75989 0.56700 0.19382
 C1276 C 0.76960 0.58178 0.18329
 C1277 C 0.78648 0.59153 0.19230
 N1278 N 0.79265 0.58587 0.21152
 N1279 N 0.78934 0.56560 0.24109
 C1280 C 0.77979 0.55066 0.25152
 C1281 C 0.76308 0.54079 0.24243
 N1282 N 0.75667 0.54654 0.22332
 H1283 H 0.76424 0.58561 0.16804
 H1284 H 0.78531 0.54645 0.26666
 C1285 C 0.80543 1.08062 0.69189
 C1286 C 0.81269 1.07331 0.71087
 N1287 N 0.82989 1.08133 0.71920
 C1288 C 0.84013 1.09635 0.70944
 C1289 C 0.83282 1.10378 0.69038
 N1290 N 0.81559 1.09556 0.68220
 N1291 N 0.78830 1.07275 0.68344
 C1292 C 0.77800 1.05783 0.69309
 C1293 C 0.78512 1.05037 0.71217
 N1294 N 0.80240 1.05835 0.72061
 H1295 H 0.85373 1.10234 0.71657
 H1296 H 0.76437 1.05190 0.68590
 C1297 C 0.67365 0.56019 0.31730
 C1298 C 0.69176 0.55320 0.32688
 N1299 N 0.69688 0.56034 0.34571
 C1300 C 0.68486 0.57443 0.35530
 C1301 C 0.66691 0.58189 0.34549
 N1302 N 0.66177 0.57433 0.32675
 N1303 N 0.66849 0.55316 0.29846
 C1304 C 0.68074 0.53951 0.28863
 C1305 C 0.69910 0.53268 0.29801
 N1306 N 0.70410 0.53966 0.31702
 H1307 H 0.68948 0.57980 0.37024
 H1308 H 0.67628 0.53425 0.27355
 C1309 C 0.70088 1.07839 0.79033
 C1310 C 0.71840 1.06895 0.79884
 N1311 N 0.72512 1.07455 0.81765
 C1312 C 0.71526 1.08934 0.82840
 C1313 C 0.69773 1.09926 0.81991
 N1314 N 0.69099 1.09327 0.80100
 N1315 N 0.69423 1.07267 0.77142
 C1316 C 0.70441 1.05799 0.76064
 C1317 C 0.72212 1.04866 0.76912
 N1318 N 0.72858 1.05443 0.78809
 H1319 H 0.72129 1.09311 0.84333
 H1320 H 0.69884 1.05378 0.74558
 C1321 C 0.20798 0.57513 0.78178
 C1322 C 0.22616 0.56854 0.79153
 N1323 N 0.23147 0.57658 0.80987
 C1324 C 0.21948 0.59095 0.81900
 C1325 C 0.20113 0.59778 0.80929
 N1326 N 0.19598 0.58953 0.79081
 N1327 N 0.20257 0.56697 0.76348
 C1328 C 0.21451 0.55244 0.75450
 C1329 C 0.23277 0.54577 0.76425
 N1330 N 0.23814 0.55408 0.78257
 H1331 H 0.22448 0.59681 0.83360
 H1332 H 0.20976 0.54616 0.73993
 C1333 C 0.19560 1.06622 0.30937
 C1334 C 0.18749 1.05968 0.29058
 N1335 N 0.17131 1.07000 0.28211
 C1336 C 0.16292 1.08662 0.29150
 C1337 C 0.17122 1.09351 0.31031
 N1338 N 0.18740 1.08288 0.31866
 N1339 N 0.21170 1.05596 0.31797
 C1340 C 0.22021 1.03950 0.30854
 C1341 C 0.21240 1.03300 0.28949
 N1342 N 0.19609 1.04330 0.28098
 H1343 H 0.15015 1.09432 0.28405
 H1344 H 0.23317 1.03176 0.31577
 C1345 C 0.70866 0.42247 0.70782
 C1346 C 0.72743 0.42842 0.69979
 N1347 N 0.73510 0.41857 0.68325
 C1348 C 0.72492 0.40297 0.67436
 C1349 C 0.70609 0.39676 0.68241
 N1350 N 0.69848 0.40683 0.69902
 N1351 N 0.70103 0.43229 0.72443
 C1352 C 0.71138 0.44774 0.73345
 C1353 C 0.73032 0.45365 0.72554
 N1354 N 0.73782 0.44378 0.70881
 H1355 H 0.73168 0.39552 0.66130
 H1356 H 0.70497 0.45519 0.74674
 C1357 C 0.69688 -0.06035 0.17496
 C1358 C 0.68883 -0.05201 0.19298
 N1359 N 0.67085 -0.05889 0.20019
 C1360 C 0.66074 -0.07404 0.19042
 C1361 C 0.66917 -0.08298 0.17270
 N1362 N 0.68697 -0.07560 0.16537
 N1363 N 0.71490 -0.05364 0.16774
 C1364 C 0.72545 -0.03914 0.17793
 C1365 C 0.71776 -0.03112 0.19635
 N1366 N 0.69947 -0.03767 0.20334
 H1367 H 0.64657 -0.07919 0.19676
 H1368 H 0.73992 -0.03428 0.17191
 C1369 C 0.18799 0.43155 0.21195
 C1370 C 0.20523 0.44021 0.20310
 N1371 N 0.21288 0.43211 0.18560
 C1372 C 0.20413 0.41569 0.17655
 C1373 C 0.18683 0.40683 0.18542
 N1374 N 0.17926 0.41517 0.20296
 N1375 N 0.18032 0.43955 0.22946
 C1376 C 0.18914 0.45583 0.23862
 C1377 C 0.20650 0.46459 0.22990
 N1378 N 0.21410 0.45650 0.21224
 H1379 H 0.21068 0.40975 0.16263
 H1380 H 0.18268 0.46180 0.25262
 C1381 C 0.22885 -0.07932 0.71311
 C1382 C 0.22046 -0.07199 0.73140
 N1383 N 0.20298 -0.08001 0.73847
 C1384 C 0.19333 -0.09502 0.72810
 C1385 C 0.20153 -0.10253 0.70956
 N1386 N 0.21926 -0.09436 0.70267
 N1387 N 0.24632 -0.07111 0.70601
 C1388 C 0.25572 -0.05583 0.71635
 C1389 C 0.24725 -0.04839 0.73467
 N1390 N 0.22980 -0.05678 0.74171
 H1391 H 0.17949 -0.10084 0.73452
 H1392 H 0.26957 -0.04950 0.71028
 C1393 C 0.28006 0.30971 0.42836
 C1394 C 0.28941 0.29156 0.43538
 N1395 N 0.30743 0.28526 0.42721
 C1396 C 0.31649 0.29621 0.41224
 C1397 C 0.30705 0.31435 0.40494
 N1398 N 0.28903 0.32061 0.41338
 N1399 N 0.26205 0.31606 0.43650
 C1400 C 0.25291 0.30505 0.45135
 C1401 C 0.26215 0.28676 0.45837
 N1402 N 0.28027 0.28049 0.45017
 H1403 H 0.33085 0.29069 0.40621
 H1404 H 0.23853 0.31050 0.45751
 C1405 C 0.31213 0.78504 -0.06037
 C1406 C 0.29353 0.79394 -0.05417
 N1407 N 0.28850 0.81313 -0.06028
 C1408 C 0.30119 0.82389 -0.07237
 C1409 C 0.31989 0.81502 -0.07876
 N1410 N 0.32479 0.79571 -0.07252
 N1411 N 0.31722 0.76587 -0.05417
 C1412 C 0.30457 0.75520 -0.04196
 C1413 C 0.28589 0.76406 -0.03571
 N1414 N 0.28083 0.78328 -0.04205
 H1415 H 0.29643 0.83903 -0.07706
 H1416 H 0.30908 0.73995 -0.03719
 C1417 C 0.80239 0.30928 -0.07336
 C1418 C 0.80815 0.28945 -0.06732
 N1419 N 0.82341 0.27950 -0.07719
 C1420 C 0.83344 0.28852 -0.09272
 C1421 C 0.82813 0.30862 -0.09868
 N1422 N 0.81249 0.31845 -0.08887
 N1423 N 0.78689 0.31906 -0.06348
 C1424 C 0.77697 0.30988 -0.04781
 C1425 C 0.78292 0.29006 -0.04165
 N1426 N 0.79839 0.28039 -0.05167
 H1427 H 0.84530 0.27988 -0.10034
 H1428 H 0.76471 0.31803 -0.04019
 C1429 C 0.77327 0.80528 0.42171
 C1430 C 0.78616 0.79097 0.43166
 N1431 N 0.80545 0.78784 0.42490
 C1432 C 0.81244 0.79811 0.40842
 C1433 C 0.79949 0.81212 0.39786
 N1434 N 0.78016 0.81549 0.40501
 N1435 N 0.75400 0.80848 0.42877
 C1436 C 0.74705 0.79795 0.44523
 C1437 C 0.75987 0.78335 0.45501
 N1438 N 0.77917 0.78033 0.44790
 H1439 H 0.82803 0.79529 0.40377
 H1440 H 0.73160 0.80077 0.45044
 C1441 C 0.72082 0.30243 0.57116
 C1442 C 0.71427 0.28286 0.56592
 N1443 N 0.69914 0.27425 0.57683
 C1444 C 0.69028 0.28430 0.59274
 C1445 C 0.69690 0.30393 0.59811
 N1446 N 0.71208 0.31241 0.58706
 N1447 N 0.73594 0.31112 0.56038
 C1448 C 0.74492 0.30110 0.54460
 C1449 C 0.73858 0.28138 0.53934
 N1450 N 0.72330 0.27273 0.55017
 H1451 H 0.67846 0.27683 0.60120
 H1452 H 0.75701 0.30846 0.53636
 C1453 C 0.69113 0.79608 1.06951
 C1454 C 0.71043 0.80371 1.06472
 N1455 N 0.71760 0.81995 1.07519
 C1456 C 0.70631 0.82905 1.09008
 C1457 C 0.68678 0.82166 1.09480
 N1458 N 0.67979 0.80517 1.08437
 N1459 N 0.68398 0.77979 1.05911
 C1460 C 0.69522 0.77075 1.04415
 C1461 C 0.71460 0.77834 1.03924
 N1462 N 0.72172 0.79471 1.04975
 H1463 H 0.71270 0.84180 1.09819
 H1464 H 0.68905 0.75776 1.03618
 C1465 C 0.20838 0.30897 1.07628
 C1466 C 0.19940 0.29120 1.06880
 N1467 N 0.18185 0.28462 1.07720
 C1468 C 0.17287 0.29492 1.09286
 C1469 C 0.18189 0.31271 1.10067
 N1470 N 0.19949 0.31927 1.09200
 N1471 N 0.22598 0.31552 1.06785
 C1472 C 0.23505 0.30502 1.05234
 C1473 C 0.22620 0.28705 1.04492
 N1474 N 0.20849 0.28065 1.05339
 H1475 H 0.15893 0.28907 1.09904
 H1476 H 0.24914 0.31056 1.04603
 C1477 C 0.19948 0.79307 0.58594
 C1478 C 0.21626 0.80186 0.57638
 N1479 N 0.22438 0.81905 0.58435
 C1480 C 0.21650 0.82783 0.60149
 C1481 C 0.19963 0.81905 0.61118
 N1482 N 0.19159 0.80183 0.60298
 N1483 N 0.19134 0.77588 0.57808
 C1484 C 0.19923 0.76703 0.56103
 C1485 C 0.21605 0.77577 0.55131
 N1486 N 0.22416 0.79307 0.55929
 H1487 H 0.22327 0.84159 0.60727
 H1488 H 0.19238 0.75331 0.55514
 C1489 C 0.30968 0.70540 0.56338
 C1490 C 0.29087 0.69649 0.55870
 N1491 N 0.28602 0.67860 0.56767
 C1492 C 0.29906 0.66926 0.58125
 C1493 C 0.31786 0.67832 0.58627
 N1494 N 0.32263 0.69620 0.57703
 N1495 N 0.31457 0.72332 0.55452
 C1496 C 0.30139 0.73287 0.54128
 C1497 C 0.28233 0.72418 0.53677
 N1498 N 0.27759 0.70608 0.54557
 H1499 H 0.29448 0.65518 0.58823
 H1500 H 0.30568 0.74723 0.53458
 C1501 C 0.30094 0.20351 1.07939
 C1502 C 0.28227 0.19699 1.07120
 N1503 N 0.27309 0.18062 1.07943
 C1504 C 0.28170 0.17038 1.09554
 C1505 C 0.30048 0.17677 1.10398
 N1506 N 0.30960 0.19332 1.09557
 N1507 N 0.31000 0.22002 1.07112
 C1508 C 0.30116 0.23033 1.05507
 C1509 C 0.28234 0.22387 1.04691
 N1510 N 0.27344 0.20728 1.05527
 H1511 H 0.27367 0.15758 1.10168
 H1512 H 0.30868 0.24349 1.04886
 C1513 C 0.79524 0.70196 1.07460
 C1514 C 0.77789 0.69417 1.06473
 N1515 N 0.76978 0.67661 1.07159
 C1516 C 0.77807 0.66658 1.08802
 C1517 C 0.79528 0.67453 1.09828
 N1518 N 0.80347 0.69205 1.09109
 N1519 N 0.80340 0.71950 1.06774
 C1520 C 0.79492 0.72969 1.05152
 C1521 C 0.77733 0.72210 1.04173
 N1522 N 0.76929 0.70440 1.04859
 H1523 H 0.77114 0.65262 1.09288
 H1524 H 0.80173 0.74372 1.04652
 C1525 C 0.82547 0.20936 0.56877
 C1526 C 0.80943 0.19878 0.55952
 N1527 N 0.80460 0.18004 0.56645
 C1528 C 0.81490 0.17141 0.58251
 C1529 C 0.83069 0.18211 0.59233
 N1530 N 0.83570 0.20084 0.58497
 N1531 N 0.83017 0.22819 0.56170
 C1532 C 0.81934 0.23699 0.54593
 C1533 C 0.80294 0.22653 0.53700
 N1534 N 0.79857 0.20760 0.54403
 H1535 H 0.81065 0.15639 0.58749
 H1536 H 0.82320 0.25210 0.54077
 C1537 C 0.69099 0.68958 0.43684
 C1538 C 0.68193 0.70760 0.44421
 N1539 N 0.66263 0.71289 0.43810
 C1540 C 0.65198 0.70099 0.42485
 C1541 C 0.66103 0.68288 0.41737
 N1542 N 0.68037 0.67768 0.42370
 N1543 N 0.71030 0.68430 0.44284
 C1544 C 0.72103 0.69625 0.45594
 C1545 C 0.71201 0.71433 0.46344
 N1546 N 0.69259 0.71953 0.45735
 H1547 H 0.63659 0.70556 0.42044
 H1548 H 0.73640 0.69163 0.46046
 C1549 C 0.70104 0.21221 -0.06719
 C1550 C 0.71840 0.20303 -0.05803
 N1551 N 0.72461 0.18420 -0.06407
 C1552 C 0.71443 0.17417 -0.07910
 C1553 C 0.69726 0.18347 -0.08880
 N1554 N 0.69095 0.20230 -0.08236
 N1555 N 0.69481 0.23105 -0.06102
 C1556 C 0.70528 0.24118 -0.04618
 C1557 C 0.72292 0.23214 -0.03725
 N1558 N 0.72895 0.21320 -0.04341
 H1559 H 0.71990 0.15918 -0.08339
 H1560 H 0.70006 0.25624 -0.04167
 C1561 C 0.20837 0.68442 -0.07671
 C1562 C 0.19919 0.70233 -0.06929
 N1563 N 0.18177 0.70974 -0.07826
 C1564 C 0.17312 0.70008 -0.09449
 C1565 C 0.18239 0.68219 -0.10222
 N1566 N 0.19982 0.67483 -0.09296
 N1567 N 0.22583 0.67703 -0.06772
 C1568 C 0.23458 0.68685 -0.05161
 C1569 C 0.22549 0.70494 -0.04426
 N1570 N 0.20795 0.71217 -0.05332
 H1571 H 0.15932 0.70653 -0.10128
 H1572 H 0.24852 0.68067 -0.04476
 C1573 C 0.18483 0.20542 0.42624
 C1574 C 0.20366 0.19755 0.43340
 N1575 N 0.21167 0.18043 0.42473
 C1576 C 0.20175 0.17087 0.40912
 C1577 C 0.18291 0.17885 0.40171
 N1578 N 0.17501 0.19598 0.41064
 N1579 N 0.17677 0.22255 0.43479
 C1580 C 0.18675 0.23227 0.45019
 C1581 C 0.20575 0.22457 0.45736
 N1582 N 0.21371 0.20729 0.44875
 H1583 H 0.20870 0.15739 0.40250
 H1584 H 0.17996 0.24594 0.45665
 C1585 C 0.32053 0.42557 0.69824
 C1586 C 0.30261 0.43367 0.68921
 N1587 N 0.29525 0.42549 0.67163
 C1588 C 0.30488 0.40936 0.66271
 C1589 C 0.32269 0.40080 0.67188
 N1590 N 0.33011 0.40933 0.68944
 N1591 N 0.32788 0.43388 0.71584
 C1592 C 0.31798 0.44989 0.72486
 C1593 C 0.29982 0.45781 0.71596
 N1594 N 0.29268 0.44946 0.69827
 H1595 H 0.29849 0.40337 0.64869
 H1596 H 0.32408 0.45615 0.73894
 C1597 C 0.29505 0.91577 0.21171
 C1598 C 0.27736 0.92408 0.20234
 N1599 N 0.27168 0.91747 0.18345
 C1600 C 0.28286 0.90290 0.17353
 C1601 C 0.30065 0.89450 0.18289
 N1602 N 0.30624 0.90131 0.20181
 N1603 N 0.30081 0.92227 0.23057
 C1604 C 0.28969 0.93676 0.24054
 C1605 C 0.27195 0.94527 0.23124
 N1606 N 0.26622 0.93866 0.21226
 H1607 H 0.27797 0.89818 0.15843
 H1608 H 0.29476 0.94162 0.25556
 C1609 C 0.80109 0.43508 0.21747
 C1610 C 0.78375 0.44428 0.20831
 N1611 N 0.77999 0.44159 0.18806
 C1612 C 0.79265 0.42985 0.17650
 C1613 C 0.80984 0.42009 0.18565
 N1614 N 0.81367 0.42316 0.20599
 N1615 N 0.80494 0.43807 0.23772
 C1616 C 0.79216 0.44984 0.24924
 C1617 C 0.77462 0.45885 0.24010
 N1618 N 0.77093 0.45582 0.21980
 H1619 H 0.78915 0.42821 0.16040
 H1620 H 0.79559 0.45201 0.26534
 C1621 C 0.81139 0.93431 0.69493
 C1622 C 0.79371 0.94233 0.68531
 N1623 N 0.78765 0.93475 0.66695
 C1624 C 0.79835 0.91935 0.65783
 C1625 C 0.81596 0.91100 0.66759
 N1626 N 0.82202 0.91890 0.68591
 N1627 N 0.81749 0.94185 0.71329
 C1628 C 0.80663 0.95700 0.72256
 C1629 C 0.78874 0.96496 0.71310
 N1630 N 0.78277 0.95741 0.69459
 H1631 H 0.79303 0.91379 0.64320
 H1632 H 0.81184 0.96262 0.73726
 C1633 C 0.71922 0.57244 0.69882
 C1634 C 0.71453 0.56834 0.71933
 N1635 N 0.70101 0.58052 0.72926
 C1636 C 0.69163 0.59649 0.71959
 C1637 C 0.69570 0.60048 0.69879
 N1638 N 0.70967 0.58836 0.68895
 N1639 N 0.73312 0.56029 0.68913
 C1640 C 0.74246 0.54426 0.69903
 C1641 C 0.73754 0.54003 0.71954
 N1642 N 0.72367 0.55230 0.72910
 H1643 H 0.68120 0.60596 0.72824
 H1644 H 0.75349 0.53488 0.69095
 C1645 C 0.70559 0.08776 0.18459
 C1646 C 0.69764 0.07919 0.20243
 N1647 N 0.68063 0.08756 0.21090
 C1648 C 0.67110 0.10412 0.20235
 C1649 C 0.67892 0.11285 0.18438
 N1650 N 0.69611 0.10435 0.17601
 N1651 N 0.72267 0.07934 0.17618
 C1652 C 0.73216 0.06274 0.18482
 C1653 C 0.72422 0.05412 0.20274
 N1654 N 0.70709 0.06267 0.21106
 H1655 H 0.65771 0.11039 0.20973
 H1656 H 0.74575 0.05637 0.17778
 C1657 C 0.17291 0.57729 0.20674
 C1658 C 0.18967 0.56765 0.19739
 N1659 N 0.19401 0.57197 0.17764
 C1660 C 0.18252 0.58571 0.16678
 C1661 C 0.16591 0.59591 0.17615
 N1662 N 0.16146 0.59123 0.19598
 N1663 N 0.16853 0.57272 0.22651
 C1664 C 0.18025 0.55900 0.23734
 C1665 C 0.19727 0.54957 0.22805
 N1666 N 0.20145 0.55417 0.20822
 H1667 H 0.18648 0.58852 0.15105
 H1668 H 0.17647 0.55571 0.25309
 C1669 C 0.20837 0.06046 0.71192
 C1670 C 0.22692 0.05337 0.70378
 N1671 N 0.23252 0.05950 0.68485
 C1672 C 0.22051 0.07262 0.67370
 C1673 C 0.20203 0.08015 0.68195
 N1674 N 0.19645 0.07367 0.70090
 N1675 N 0.20272 0.05428 0.73084
 C1676 C 0.21488 0.04136 0.74207
 C1677 C 0.23363 0.03443 0.73406
 N1678 N 0.23913 0.04061 0.71502
 H1679 H 0.22558 0.07717 0.65873
 H1680 H 0.21004 0.03672 0.75715
 C1681 C 0.27953 0.58962 0.30304
 C1682 C 0.28641 0.58230 0.28410
 N1683 N 0.30211 0.59166 0.27476
 C1684 C 0.31130 0.60798 0.28346
 C1685 C 0.30452 0.61545 0.30252
 N1686 N 0.28867 0.60596 0.31176
 N1687 N 0.26379 0.58030 0.31236
 C1688 C 0.25456 0.56402 0.30360
 C1689 C 0.26133 0.55664 0.28454
 N1690 N 0.27718 0.56606 0.27529
 H1691 H 0.32360 0.61506 0.27537
 H1692 H 0.24200 0.55698 0.31141
 C1693 C 0.30759 0.07823 0.81547
 C1694 C 0.31434 0.07285 0.79584
 N1695 N 0.32852 0.08427 0.78651
 C1696 C 0.33651 0.10075 0.79595
 C1697 C 0.33018 0.10611 0.81586
 N1698 N 0.31565 0.09469 0.82505
 N1699 N 0.29318 0.06683 0.82463
 C1700 C 0.28526 0.05028 0.81506
 C1701 C 0.29214 0.04477 0.79543
 N1702 N 0.30655 0.05630 0.78635
 H1703 H 0.34757 0.10955 0.78779
 H1704 H 0.27379 0.04148 0.82274
 C1705 C 0.81638 0.57086 0.79623
 C1706 C 0.79801 0.56428 0.80462
 N1707 N 0.79007 0.57420 0.82102
 C1708 C 0.79959 0.59053 0.82936
 C1709 C 0.81793 0.59743 0.82084
 N1710 N 0.82583 0.58722 0.80446
 N1711 N 0.82429 0.56104 0.77975
 C1712 C 0.81454 0.54500 0.77114
 C1713 C 0.79593 0.53851 0.77930
 N1714 N 0.78819 0.54834 0.79597
 H1715 H 0.79267 0.59807 0.84230
 H1716 H 0.82111 0.53761 0.75788
 C1717 C 0.81037 0.06898 0.28281
 C1718 C 0.79207 0.06209 0.29114
 N1719 N 0.78629 0.06865 0.30993
 C1720 C 0.79790 0.08196 0.32072
 C1721 C 0.81613 0.08921 0.31224
 N1722 N 0.82186 0.08235 0.29346
 N1723 N 0.81622 0.06249 0.26404
 C1724 C 0.80450 0.04946 0.25311
 C1725 C 0.78597 0.04270 0.26126
 N1726 N 0.78024 0.04917 0.28019
 H1727 H 0.79263 0.08694 0.33552
 H1728 H 0.80953 0.04462 0.23812
 C1729 C 0.69085 0.41825 0.31698
 C1730 C 0.68279 0.42587 0.29846
 N1731 N 0.66530 0.41794 0.29064
 C1732 C 0.65555 0.40267 0.30053
 C1733 C 0.66369 0.39499 0.31912
 N1734 N 0.68117 0.40313 0.32675
 N1735 N 0.70824 0.42604 0.32495
 C1736 C 0.71802 0.44125 0.31524
 C1737 C 0.71003 0.44906 0.29667
 N1738 N 0.69254 0.44112 0.28869
 H1739 H 0.64169 0.39671 0.29389
 H1740 H 0.73184 0.44720 0.32203
 C1741 C 0.70210 0.93227 0.78395
 C1742 C 0.71999 0.93935 0.79337
 N1743 N 0.72666 0.93067 0.81118
 C1744 C 0.71629 0.91518 0.81998
 C1745 C 0.69834 0.90795 0.81052
 N1746 N 0.69178 0.91685 0.79269
 N1747 N 0.69537 0.94084 0.76615
 C1748 C 0.70574 0.95618 0.75725
 C1749 C 0.72375 0.96336 0.76654
 N1750 N 0.73043 0.95472 0.78449
 H1751 H 0.72209 0.90874 0.83417
 H1752 H 0.69996 0.96265 0.74301
 C1753 C 0.22310 0.43516 0.80231
 C1754 C 0.21260 0.44432 0.78572
 N1755 N 0.19295 0.43937 0.78172
 C1756 C 0.18336 0.42537 0.79330
 C1757 C 0.19399 0.41552 0.80954
 N1758 N 0.21363 0.42092 0.81375
 N1759 N 0.24270 0.44040 0.80644
 C1760 C 0.25231 0.45429 0.79462
 C1761 C 0.24193 0.46313 0.77772
 N1762 N 0.22226 0.45792 0.77377
 H1763 H 0.16764 0.42201 0.78965
 H1764 H 0.26798 0.45813 0.79819
 C1765 C 0.17848 0.91794 0.29831
 C1766 C 0.19534 0.92503 0.30952
 N1767 N 0.19939 0.91736 0.32844
 C1768 C 0.18747 0.90280 0.33667
 C1769 C 0.17063 0.89534 0.32541
 N1770 N 0.16659 0.90328 0.30644
 N1771 N 0.17437 0.92572 0.27941
 C1772 C 0.18639 0.94023 0.27118
 C1773 C 0.20344 0.94726 0.28231
 N1774 N 0.20744 0.93943 0.30129
 H1775 H 0.19133 0.89722 0.35180
 H1776 H 0.18274 0.94610 0.25605
 C1777 C 0.43725 0.28499 0.68492
 C1778 C 0.44491 0.29366 0.70301
 N1779 N 0.43623 0.31109 0.71023
 C1780 C 0.42021 0.32029 0.70022
 C1781 C 0.41234 0.31163 0.68207
 N1782 N 0.42121 0.29411 0.67494
 N1783 N 0.44585 0.26750 0.67773
 C1784 C 0.46173 0.25819 0.68787
 C1785 C 0.46937 0.26673 0.70613
 N1786 N 0.46072 0.28435 0.71321
 H1787 H 0.41367 0.33405 0.70663
 H1788 H 0.46820 0.24420 0.68179
 C1789 C 0.42880 0.79305 0.18515
 C1790 C 0.43714 0.80174 0.20286
 N1791 N 0.42909 0.81947 0.21015
 C1792 C 0.41283 0.82883 0.20065
 C1793 C 0.40409 0.81996 0.18308
 N1794 N 0.41254 0.80230 0.17575
 N1795 N 0.43671 0.77519 0.17797
 C1796 C 0.45251 0.76547 0.18789
 C1797 C 0.46067 0.77396 0.20589
 N1798 N 0.45278 0.79201 0.21282
 H1799 H 0.40678 0.84287 0.20694
 H1800 H 0.45835 0.75113 0.18200
 C1801 C 0.92421 0.30534 0.18949
 C1802 C 0.93314 0.31301 0.20746
 N1803 N 0.92721 0.33163 0.21441
 C1804 C 0.91265 0.34292 0.20429
 C1805 C 0.90347 0.33522 0.18631
 N1806 N 0.90967 0.31656 0.17939
 N1807 N 0.93012 0.28675 0.18247
 C1808 C 0.94458 0.27541 0.19263
 C1809 C 0.95357 0.28298 0.21072
 N1810 N 0.94759 0.30169 0.21767
 H1811 H 0.90847 0.35774 0.21023
 H1812 H 0.94896 0.26062 0.18664
 C1813 C 0.93128 0.79682 0.68578
 C1814 C 0.93938 0.80635 0.70320
 N1815 N 0.93198 0.82494 0.70878
 C1816 C 0.91676 0.83444 0.69781
 C1817 C 0.90839 0.82486 0.68038
 N1818 N 0.91605 0.80623 0.67485
 N1819 N 0.93863 0.77822 0.68016
 C1820 C 0.95369 0.76863 0.69125
 C1821 C 0.96177 0.77803 0.70885
 N1822 N 0.95438 0.79677 0.71435
 H1823 H 0.91134 0.84922 0.70279
 H1824 H 0.95917 0.75376 0.68642
 C1825 C 0.55844 0.29756 0.30124
 C1826 C 0.55232 0.27868 0.30886
 N1827 N 0.56218 0.27056 0.32550
 C1828 C 0.57790 0.28046 0.33482
 C1829 C 0.58413 0.29941 0.32711
 N1830 N 0.57407 0.30736 0.31046
 N1831 N 0.54879 0.30579 0.28463
 C1832 C 0.53328 0.29594 0.27514
 C1833 C 0.52707 0.27691 0.28256
 N1834 N 0.53678 0.26874 0.29937
 H1835 H 0.58540 0.27348 0.34795
 H1836 H 0.52596 0.30292 0.26186
 C1837 C 0.57452 0.80546 0.80074
 C1838 C 0.56785 0.81282 0.78158
 N1839 N 0.57748 0.82887 0.77305
 C1840 C 0.59359 0.83776 0.78275
 C1841 C 0.60049 0.83017 0.80188
 N1842 N 0.59056 0.81422 0.81031
 N1843 N 0.56519 0.78937 0.80934
 C1844 C 0.54952 0.78008 0.79955
 C1845 C 0.54287 0.78714 0.78017
 N1846 N 0.55217 0.80350 0.77167
 H1847 H 0.60098 0.85036 0.77541
 H1848 H 0.54248 0.76718 0.80679
 C1849 C 0.09209 0.29513 0.80532
 C1850 C 0.08153 0.30445 0.78885
 N1851 N 0.08550 0.32400 0.78389
 C1852 C 0.09972 0.33466 0.79448
 C1853 C 0.11076 0.32529 0.81077
 N1854 N 0.10646 0.30569 0.81583
 N1855 N 0.08787 0.27563 0.81045
 C1856 C 0.07358 0.26503 0.79984
 C1857 C 0.06310 0.27428 0.78319
 N1858 N 0.06739 0.29384 0.77813
 H1859 H 0.10221 0.35026 0.79009
 H1860 H 0.07052 0.24951 0.80430
 C1861 C 0.05392 0.78481 0.30705
 C1862 C 0.04671 0.79330 0.28857
 N1863 N 0.05511 0.81064 0.28142
 C1864 C 0.07044 0.81992 0.29192
 C1865 C 0.07780 0.81145 0.31051
 N1866 N 0.06920 0.79404 0.31753
 N1867 N 0.04557 0.76746 0.31422
 C1868 C 0.03030 0.75816 0.30370
 C1869 C 0.02301 0.76658 0.28512
 N1870 N 0.03146 0.78403 0.27804
 H1871 H 0.07666 0.83372 0.28574
 H1872 H 0.02397 0.74432 0.30978
 C1873 C 0.57568 0.71002 0.69950
 C1874 C 0.56793 0.70183 0.71760
 N1875 N 0.57633 0.68439 0.72540
 C1876 C 0.59227 0.67480 0.71601
 C1877 C 0.60034 0.68309 0.69793
 N1878 N 0.59165 0.70053 0.69015
 N1879 N 0.56731 0.72747 0.69169
 C1880 C 0.55155 0.73720 0.70125
 C1881 C 0.54385 0.72915 0.71954
 N1882 N 0.55226 0.71156 0.72722
 H1883 H 0.59847 0.66095 0.72273
 H1884 H 0.54526 0.75115 0.69470
 C1885 C 0.56051 0.19905 0.20528
 C1886 C 0.55134 0.21675 0.19699
 N1887 N 0.55906 0.22505 0.17976
 C1888 C 0.57571 0.21661 0.17054
 C1889 C 0.58532 0.19906 0.17904
 N1890 N 0.57724 0.19068 0.19620
 N1891 N 0.55281 0.19075 0.22254
 C1892 C 0.53646 0.19949 0.23202
 C1893 C 0.52745 0.21749 0.22398
 N1894 N 0.53513 0.22561 0.20653
 H1895 H 0.58131 0.22371 0.15684
 H1896 H 0.53081 0.19263 0.24588
 C1897 C 0.05170 0.68709 0.20299
 C1898 C 0.04468 0.70620 0.19594
 N1899 N 0.05282 0.71431 0.17884
 C1900 C 0.06769 0.70419 0.16840
 C1901 C 0.07485 0.68495 0.17536
 N1902 N 0.06658 0.67695 0.19260
 N1903 N 0.04357 0.67901 0.22014
 C1904 C 0.02874 0.68921 0.23061
 C1905 C 0.02170 0.70842 0.22362
 N1906 N 0.02990 0.71642 0.20638
 H1907 H 0.07385 0.71133 0.15497
 H1908 H 0.02258 0.68239 0.24426
 C1909 C 0.09007 0.19561 0.69506
 C1910 C 0.08208 0.18693 0.71285
 N1911 N 0.08826 0.16788 0.71852
 C1912 C 0.10215 0.15715 0.70729
 C1913 C 0.11036 0.16589 0.68949
 N1914 N 0.10393 0.18496 0.68388
 N1915 N 0.08389 0.21459 0.68924
 C1916 C 0.07003 0.22533 0.70040
 C1917 C 0.06193 0.21675 0.71829
 N1918 N 0.06821 0.19766 0.72409
 H1919 H 0.10657 0.14199 0.71227
 H1920 H 0.06540 0.24044 0.69531
 C1921 C 0.42210 0.70034 0.28370
 C1922 C 0.42894 0.71937 0.29036
 N1923 N 0.41862 0.72942 0.30527
 C1924 C 0.40174 0.72133 0.31384
 C1925 C 0.39473 0.70221 0.30721
 N1926 N 0.40521 0.69225 0.29220
 N1927 N 0.43234 0.69034 0.26869
 C1928 C 0.44907 0.69857 0.25996
 C1929 C 0.45590 0.71774 0.26647
 N1930 N 0.44562 0.72765 0.28162
 H1931 H 0.39388 0.72997 0.32549
 H1932 H 0.45682 0.69026 0.24793
 C1933 C 0.44044 0.19289 0.79100
 C1934 C 0.44883 0.21112 0.79800
 N1935 N 0.44160 0.21986 0.81537
 C1936 C 0.42622 0.21126 0.82602
 C1937 C 0.41752 0.19306 0.81893
 N1938 N 0.42504 0.18436 0.80155
 N1939 N 0.44761 0.18416 0.77361
 C1940 C 0.46278 0.19292 0.76280
 C1941 C 0.47110 0.21133 0.76964
 N1942 N 0.46390 0.21993 0.78718
 H1943 H 0.42085 0.21874 0.83971
 H1944 H 0.46812 0.18566 0.74893
 C1945 C 0.92966 0.70975 0.79916
 C1946 C 0.93757 0.69939 0.78213
 N1947 N 0.92992 0.68103 0.77690
 C1948 C 0.91467 0.67257 0.78785
 C1949 C 0.90654 0.68297 0.80491
 N1950 N 0.91442 0.70136 0.81007
 N1951 N 0.93728 0.72810 0.80445
 C1952 C 0.95245 0.73661 0.79347
 C1953 C 0.96041 0.72633 0.77631
 N1954 N 0.95272 0.70788 0.77109
 H1955 H 0.90907 0.65792 0.78314
 H1956 H 0.95817 0.75129 0.79808
 C1957 C 0.92438 0.20514 0.29735
 C1958 C 0.93173 0.19642 0.27920
 N1959 N 0.92478 0.17807 0.27309
 C1960 C 0.91075 0.16799 0.28425
 C1961 C 0.90316 0.17666 0.30250
 N1962 N 0.91032 0.19512 0.30854
 N1963 N 0.93148 0.22346 0.30351
 C1964 C 0.94563 0.23344 0.29236
 C1965 C 0.95307 0.22472 0.27414
 N1966 N 0.94584 0.20636 0.26803
 H1967 H 0.90581 0.15334 0.27886
 H1968 H 0.95104 0.24799 0.29771
 C1969 C 0.29040 0.30121 0.57316
 C1970 C 0.29793 0.28308 0.56455
 N1971 N 0.31635 0.27537 0.57095
 C1972 C 0.32759 0.28498 0.58561
 C1973 C 0.32007 0.30324 0.59430
 N1974 N 0.30158 0.31080 0.58770
 N1975 N 0.27202 0.30900 0.56685
 C1976 C 0.26076 0.29946 0.55225
 C1977 C 0.26822 0.28126 0.54349
 N1978 N 0.28672 0.27351 0.54991
 H1979 H 0.34221 0.27845 0.59023
 H1980 H 0.24617 0.30606 0.54753
 C1981 C 0.28702 0.79422 0.07596
 C1982 C 0.29710 0.77621 0.06987
 N1983 N 0.31536 0.77095 0.07856
 C1984 C 0.32410 0.78292 0.09303
 C1985 C 0.31413 0.80113 0.09916
 N1986 N 0.29571 0.80621 0.09041
 N1987 N 0.26877 0.79952 0.06721
 C1988 C 0.26019 0.78765 0.05253
 C1989 C 0.27034 0.76964 0.04628
 N1990 N 0.28858 0.76435 0.05521
 H1991 H 0.33859 0.77805 0.09963
 H1992 H 0.24568 0.79234 0.04573
 C1993 C 0.81408 0.30984 0.07228
 C1994 C 0.79762 0.31945 0.06195
 N1995 N 0.79269 0.33910 0.06624
 C1996 C 0.80323 0.34954 0.08071
 C1997 C 0.81933 0.33981 0.09173
 N1998 N 0.82449 0.32017 0.08698
 N1999 N 0.81909 0.29020 0.06775
 C2000 C 0.80824 0.27970 0.05346
 C2001 C 0.79143 0.28920 0.04344
 N2002 N 0.78664 0.30892 0.04794
 H2003 H 0.79888 0.36522 0.08356
 H2004 H 0.81248 0.26403 0.05023
 C2005 C 0.79178 0.80837 0.56867
 C2006 C 0.80113 0.79103 0.56014
 N2007 N 0.82048 0.78564 0.56597
 C2008 C 0.83089 0.79673 0.58010
 C2009 C 0.82150 0.81407 0.58889
 N2010 N 0.80213 0.81944 0.58276
 N2011 N 0.77241 0.81376 0.56292
 C2012 C 0.76189 0.80250 0.54902
 C2013 C 0.77116 0.78502 0.54049
 N2014 N 0.79065 0.77977 0.54628
 H2015 H 0.84630 0.79203 0.58427
 H2016 H 0.74644 0.80712 0.54479
 C2017 C 0.28022 0.70454 0.41973
 C2018 C 0.28615 0.72413 0.42564
 N2019 N 0.30020 0.73405 0.41448
 C2020 C 0.30879 0.72523 0.39778
 C2021 C 0.30320 0.70541 0.39188
 N2022 N 0.28884 0.69563 0.40304
 N2023 N 0.26603 0.69471 0.43087
 C2024 C 0.25754 0.70357 0.44766
 C2025 C 0.26355 0.72318 0.45370
 N2026 N 0.27775 0.73296 0.44242
 H2027 H 0.31973 0.73380 0.38919
 H2028 H 0.24627 0.69535 0.45624
 C2029 C 0.29944 0.19910 0.92887
 C2030 C 0.30876 0.21572 0.93839
 N2031 N 0.32740 0.22167 0.93217
 C2032 C 0.33717 0.21192 0.91668
 C2033 C 0.32782 0.19542 0.90665
 N2034 N 0.30912 0.18936 0.91322
 N2035 N 0.28078 0.19316 0.93531
 C2036 C 0.27098 0.20320 0.95073
 C2037 C 0.28021 0.22008 0.96007
 N2038 N 0.29896 0.22582 0.95361
 H2039 H 0.35205 0.21718 0.91241
 H2040 H 0.25607 0.19823 0.95544
 C2041 C 0.79862 0.69812 0.92510
 C2042 C 0.80570 0.71734 0.93088
 N2043 N 0.82191 0.72523 0.92097
 C2044 C 0.83127 0.71484 0.90549
 C2045 C 0.82403 0.69560 0.89951
 N2046 N 0.80785 0.68783 0.90967
 N2047 N 0.78239 0.69015 0.93476
 C2048 C 0.77274 0.70057 0.94987
 C2049 C 0.77952 0.72000 0.95566
 N2050 N 0.79601 0.72790 0.94602
 H2051 H 0.84402 0.72171 0.89793
 H2052 H 0.75975 0.69376 0.95717
 C2053 C 0.81851 0.20402 0.42088
 C2054 C 0.80545 0.19320 0.43370
 N2055 N 0.80337 0.17288 0.43104
 C2056 C 0.81347 0.16290 0.41589
 C2057 C 0.82612 0.17376 0.40254
 N2058 N 0.82847 0.19411 0.40559
 N2059 N 0.82071 0.22433 0.42367
 C2060 C 0.81037 0.23433 0.43867
 C2061 C 0.79702 0.22359 0.45137
 N2062 N 0.79496 0.20320 0.44855
 H2063 H 0.81151 0.14667 0.41433
 H2064 H 0.81241 0.25055 0.44051
 C2065 C 0.69502 0.28613 0.42880
 C2066 C 0.70904 0.29917 0.43828
 N2067 N 0.70793 0.31942 0.43436
 C2068 C 0.69369 0.32724 0.42109
 C2069 C 0.68002 0.31418 0.41093
 N2070 N 0.68092 0.29388 0.41530
 N2071 N 0.69594 0.26590 0.43302
 C2072 C 0.71027 0.25811 0.44627
 C2073 C 0.72453 0.27110 0.45556
 N2074 N 0.72351 0.29138 0.45131
 H2075 H 0.69321 0.34349 0.41848
 H2076 H 0.71061 0.24191 0.44938
 C2077 C 0.70918 0.80994 0.92109
 C2078 C 0.70030 0.79147 0.92665
 N2079 N 0.68376 0.78485 0.91605
 C2080 C 0.67568 0.79582 0.90013
 C2081 C 0.68458 0.81439 0.89440
 N2082 N 0.70118 0.82089 0.90516
 N2083 N 0.72576 0.81658 0.93159
 C2084 C 0.73396 0.80553 0.94738
 C2085 C 0.72523 0.78689 0.95296
 N2086 N 0.70851 0.78034 0.94241
 H2087 H 0.66264 0.78987 0.89201
 H2088 H 0.74725 0.81122 0.95539
 C2089 C 0.20247 0.30158 0.92584
 C2090 C 0.22150 0.30843 0.93283
 N2091 N 0.23009 0.32459 0.92350
 C2092 C 0.22055 0.33425 0.90750
 C2093 C 0.20142 0.32745 0.90034
 N2094 N 0.19294 0.31117 0.90983
 N2095 N 0.19389 0.28537 0.93510
 C2096 C 0.20350 0.27564 0.95102
 C2097 C 0.22266 0.28236 0.95804
 N2098 N 0.23116 0.29870 0.94870
 H2099 H 0.22803 0.34694 0.90043
 H2100 H 0.19628 0.26270 0.95802
 C2101 C 0.18205 0.80546 0.43603
 C2102 C 0.17743 0.78523 0.44076
 N2103 N 0.16206 0.77597 0.43037
 C2104 C 0.15135 0.78594 0.41523
 C2105 C 0.15641 0.80607 0.41008
 N2106 N 0.17156 0.81526 0.42089
 N2107 N 0.19754 0.81477 0.44599
 C2108 C 0.20897 0.80465 0.46030
 C2109 C 0.20485 0.78418 0.46480
 N2110 N 0.18895 0.77497 0.45504
 H2111 H 0.13952 0.77798 0.40700
 H2112 H 0.22140 0.81246 0.46782
 C2113 C 0.70971 0.69468 0.58152
 C2114 C 0.69681 0.70878 0.57131
 N2115 N 0.67738 0.71170 0.57776
 C2116 C 0.67025 0.70141 0.59417
 C2117 C 0.68321 0.68760 0.60498
 N2118 N 0.70270 0.68445 0.59815
 N2119 N 0.72911 0.69166 0.57473
 C2120 C 0.73617 0.70218 0.55831
 C2121 C 0.72332 0.71659 0.54829
 N2122 N 0.70389 0.71942 0.55512
 H2123 H 0.65457 0.70408 0.59853
 H2124 H 0.75171 0.69952 0.55332
 C2125 C 0.71027 0.20996 0.07822
 C2126 C 0.70313 0.22919 0.07162
 N2127 N 0.68623 0.23761 0.08022
 C2128 C 0.67599 0.22766 0.09507
 C2129 C 0.68290 0.20821 0.10166
 N2130 N 0.70003 0.19994 0.09303
 N2131 N 0.72724 0.20159 0.06960
 C2132 C 0.73736 0.21156 0.05461
 C2133 C 0.73014 0.23080 0.04787
 N2134 N 0.71316 0.23911 0.05665
 H2135 H 0.66272 0.23504 0.10160
 H2136 H 0.75080 0.20448 0.04797
 C2137 C 0.19167 0.68410 0.06712
 C2138 C 0.18376 0.70156 0.05721
 N2139 N 0.16441 0.70810 0.06127
 C2140 C 0.15269 0.69810 0.07500
 C2141 C 0.16075 0.68077 0.08526
 N2142 N 0.18006 0.67421 0.08083
 N2143 N 0.21097 0.67749 0.06319
 C2144 C 0.22285 0.68762 0.04982
 C2145 C 0.21510 0.70526 0.03995
 N2146 N 0.19563 0.71178 0.04387
 H2147 H 0.13737 0.70374 0.07784
 H2148 H 0.23822 0.68198 0.04705
 C2149 C 0.19112 0.19840 0.57330
 C2150 C 0.20823 0.19075 0.56284
 N2151 N 0.21595 0.17203 0.56769
 C2152 C 0.20748 0.16063 0.58266
 C2153 C 0.19047 0.16834 0.59349
 N2154 N 0.18270 0.18710 0.58834
 N2155 N 0.18332 0.21710 0.56838
 C2156 C 0.19192 0.22854 0.55351
 C2157 C 0.20922 0.22100 0.54312
 N2158 N 0.21691 0.20219 0.54808
 H2159 H 0.21409 0.14578 0.58594
 H2160 H 0.18540 0.24342 0.54998
   
