data_POSCAR
  _audit_creation_date              2014-09-24
  _audit_creation_method            'ToBaCCo'
  _symmetry_space_group_name_H-M    'P1'
  _symmetry_Int_Tables_number       1
  _symmetry_cell_setting            triclinic
  loop_
  _symmetry_equiv_pos_as_xyz
 x,y,z
_cell_length_a 63.6977
_cell_length_b 63.7311
_cell_length_c 63.8146
_cell_angle_alpha 90.038100
_cell_angle_beta 90.011200
_cell_angle_gamma 90.012500
loop_
  _atom_site_label
  _atom_site_type_symbol
  _atom_site_fract_x
  _atom_site_fract_y
  _atom_site_fract_z
O1 O 0.34858 0.32015 -0.02083
 O2 O 0.31981 0.34876 0.02013
 O3 O 0.34876 0.31994 0.01984
 O4 O 0.31966 0.34902 -0.02054
 O5 O 0.29516 0.32460 -0.02067
 O6 O 0.32436 0.29538 0.01983
 O7 O 0.29530 0.32432 0.02011
 O8 O 0.32418 0.29560 -0.02095
 Cu9 Cu 0.33664 0.33691 -0.00035
 Cu10 Cu 0.30729 0.30751 -0.00043
 C11 C 0.34141 0.30292 -0.02783
 C12 C 0.30258 0.34153 0.02706
 C13 C 0.34164 0.30263 0.02668
 C14 C 0.30234 0.34193 -0.02747
 O15 O 0.68077 0.65123 0.02001
 O16 O 0.65219 0.68028 -0.02074
 O17 O 0.68090 0.65120 -0.02066
 O18 O 0.65200 0.68021 0.01992
 O19 O 0.67654 0.70462 0.02010
 O20 O 0.70556 0.67544 -0.02059
 O21 O 0.67675 0.70467 -0.02066
 O22 O 0.70543 0.67552 0.02019
 Cu23 Cu 0.66401 0.66330 -0.00039
 Cu24 Cu 0.69355 0.69250 -0.00024
 C25 C 0.69804 0.65831 0.02702
 C26 C 0.65947 0.69752 -0.02759
 C27 C 0.69826 0.65821 -0.02753
 C28 C 0.65922 0.69743 0.02689
 O29 O 0.68053 0.34872 0.97979
 O30 O 0.65177 0.31988 1.02056
 O31 O 0.68060 0.34883 1.02046
 O32 O 0.65167 0.31982 0.97988
 O33 O 0.67613 0.29533 0.97982
 O34 O 0.70516 0.32449 1.02051
 O35 O 0.67623 0.29540 1.02061
 O36 O 0.70511 0.32435 0.97974
 Cu37 Cu 0.66370 0.33675 1.00017
 Cu38 Cu 0.69312 0.30744 1.00017
 C39 C 0.69780 0.34157 0.97285
 C40 C 0.65898 0.30266 1.02749
 C41 C 0.69792 0.34177 1.02740
 C42 C 0.65885 0.30256 0.97297
 O43 O 0.34852 0.67977 1.02075
 O44 O 0.31969 0.65116 0.97982
 O45 O 0.34854 0.68010 0.98009
 O46 O 0.31967 0.65083 1.02050
 O47 O 0.29511 0.67517 1.02076
 O48 O 0.32407 0.70458 0.98024
 O49 O 0.29509 0.67551 0.97998
 O50 O 0.32406 0.70425 1.02100
 Cu51 Cu 0.33655 0.66303 1.00027
 Cu52 Cu 0.30712 0.69233 1.00052
 C53 C 0.34134 0.69697 1.02781
 C54 C 0.30240 0.65833 0.97297
 C55 C 0.34135 0.69742 0.97333
 C56 C 0.30236 0.65786 1.02751
 O57 O -0.02050 0.34832 0.31987
 O58 O 0.02044 0.31952 0.34849
 O59 O 0.02025 0.34848 0.31972
 O60 O -0.02029 0.31945 0.34869
 O61 O -0.02040 0.29496 0.32430
 O62 O 0.02026 0.32410 0.29518
 O63 O 0.02043 0.29502 0.32407
 O64 O -0.02060 0.32392 0.29534
 Cu65 Cu -0.00001 0.33638 0.33663
 Cu66 Cu -0.00008 0.30705 0.30726
 C67 C -0.02750 0.34114 0.30266
 C68 C 0.02735 0.30227 0.34129
 C69 C 0.02712 0.34137 0.30244
 C70 C -0.02725 0.30215 0.34159
 O71 O 0.02049 0.67996 0.65117
 O72 O -0.02047 0.65122 0.67983
 O73 O -0.02024 0.68003 0.65094
 O74 O 0.02028 0.65107 0.68001
 O75 O 0.02028 0.67550 0.70450
 O76 O -0.02035 0.70457 0.67527
 O77 O -0.02057 0.67567 0.70430
 O78 O 0.02048 0.70451 0.67554
 Cu79 Cu 0.00003 0.66312 0.66306
 Cu80 Cu -0.00004 0.69252 0.69236
 C81 C 0.02740 0.69723 0.65834
 C82 C -0.02747 0.65843 0.69702
 C83 C -0.02719 0.69734 0.65799
 C84 C 0.02715 0.65822 0.69728
 O85 O 1.02078 0.65168 0.31963
 O86 O 0.97980 0.68026 0.34842
 O87 O 0.98003 0.65134 0.31961
 O88 O 1.02053 0.68061 0.34844
 O89 O 1.02040 0.70508 0.32406
 O90 O 0.97978 0.67571 0.29510
 O91 O 0.97956 0.70475 0.32403
 O92 O 1.02064 0.67604 0.29510
 Cu93 Cu 1.00031 0.66353 0.33646
 Cu94 Cu 1.00008 0.69285 0.30711
 C95 C 1.02765 0.65886 0.30238
 C96 C 0.97274 0.69746 0.34126
 C97 C 0.97302 0.65842 0.30237
 C98 C 1.02734 0.69796 0.34134
 O99 O 1.02059 0.34818 0.68001
 O100 O 0.97963 0.31964 0.65109
 O101 O 0.97983 0.34851 0.67998
 O102 O 1.02036 0.31930 0.65113
 O103 O 1.02020 0.29478 0.67546
 O104 O 0.97956 0.32408 0.70444
 O105 O 0.97937 0.29510 0.67544
 O106 O 1.02042 0.32376 0.70448
 Cu107 Cu 1.00013 0.33635 0.66312
 Cu108 Cu 0.99987 0.30697 0.69241
 C109 C 1.02744 0.34096 0.69725
 C110 C 0.97256 0.30242 0.65821
 C111 C 0.97282 0.34139 0.69720
 C112 C 1.02716 0.30194 0.65820
 O113 O 0.34843 0.02058 0.31936
 O114 O 0.31955 -0.02029 0.34800
 O115 O 0.34856 -0.02016 0.31927
 O116 O 0.31949 0.02042 0.34816
 O117 O 0.29500 0.02046 0.32373
 O118 O 0.32421 -0.02021 0.29469
 O119 O 0.29508 -0.02034 0.32354
 O120 O 0.32406 0.02063 0.29480
 Cu121 Cu 0.33645 0.00014 0.33614
 Cu122 Cu 0.30714 0.00014 0.30672
 C123 C 0.34128 0.02753 0.30213
 C124 C 0.30230 -0.02722 0.34079
 C125 C 0.34146 -0.02707 0.30199
 C126 C 0.30221 0.02730 0.34101
 O127 O 0.65177 0.02052 0.68002
 O128 O 0.68054 -0.02054 0.65152
 O129 O 0.65172 -0.02019 0.68044
 O130 O 0.68056 0.02019 0.65106
 O131 O 0.70518 0.02051 0.67536
 O132 O 0.67623 -0.01997 0.70486
 O133 O 0.70517 -0.02032 0.67582
 O134 O 0.67628 0.02084 0.70443
 Cu135 Cu 0.66370 -0.00003 0.66333
 Cu136 Cu 0.69319 0.00029 0.69256
 C137 C 0.65900 0.02763 0.69716
 C138 C 0.69783 -0.02739 0.65869
 C139 C 0.65893 -0.02691 0.69774
 C140 C 0.69785 0.02720 0.65809
 O141 O 0.31903 1.02000 0.65212
 O142 O 0.34786 0.97928 0.68103
 O143 O 0.31900 0.97929 0.65212
 O144 O 0.34800 1.02000 0.68088
 O145 O 0.32362 1.02016 0.70541
 O146 O 0.29445 0.97936 0.67649
 O147 O 0.32343 0.97934 0.70552
 O148 O 0.29453 1.02016 0.67654
 Cu149 Cu 0.33592 0.99963 0.66410
 Cu150 Cu 0.30655 0.99976 0.69345
 C151 C 0.30178 1.02698 0.65928
 C152 C 0.34068 0.97243 0.69829
 C153 C 0.30169 0.97245 0.65926
 C154 C 0.34088 1.02699 0.69812
 O155 O 0.68046 1.02053 0.34885
 O156 O 0.65168 0.97962 0.32009
 O157 O 0.68050 0.97980 0.34903
 O158 O 0.65156 1.02035 0.31999
 O159 O 0.67602 1.02036 0.29554
 O160 O 0.70509 0.97971 0.32471
 O161 O 0.67616 0.97953 0.29565
 O162 O 0.70501 1.02054 0.32453
 Cu163 Cu 0.66361 1.00008 0.33692
 Cu164 Cu 0.69303 1.00003 0.30766
 C165 C 0.69775 1.02750 0.34175
 C166 C 0.65890 0.97264 0.30288
 C167 C 0.69780 0.97289 0.34195
 C168 C 0.65873 1.02723 0.30274
 C169 C 0.88004 0.78849 0.48930
 C170 C 0.88015 0.78844 0.51079
 C171 C 0.86172 0.79812 0.51712
 N172 N 0.85035 0.80403 0.50024
 C173 C 0.86155 0.79821 0.48322
 C174 C 0.85511 0.80018 0.53816
 C175 C 0.83780 0.81263 0.54427
 C176 C 0.82823 0.81184 0.56378
 C177 C 0.81294 0.82708 0.56387
 C178 C 0.81359 0.83676 0.54443
 N179 N 0.82884 0.82792 0.53261
 C180 C 0.80108 0.85409 0.53851
 C181 C 0.79894 0.86093 0.51756
 C182 C 0.78926 0.87943 0.51148
 C183 C 0.78921 0.87955 0.49000
 C184 C 0.79886 0.86112 0.48366
 N185 N 0.80474 0.84973 0.50053
 C186 C 0.80092 0.85451 0.46262
 C187 C 0.81333 0.83717 0.45650
 C188 C 0.81251 0.82761 0.43699
 C189 C 0.82772 0.81229 0.43689
 C190 C 0.83741 0.81292 0.45635
 N191 N 0.82860 0.82818 0.46817
 C192 C 0.85473 0.80039 0.46226
 H193 H 0.89216 0.78204 0.47932
 H194 H 0.89237 0.78193 0.52061
 H195 H 0.83426 0.83371 0.48241
 H196 H 0.83195 0.80144 0.57665
 H197 H 0.80260 0.83070 0.57684
 H198 H 0.78282 0.89155 0.52148
 H199 H 0.78274 0.89178 0.48018
 H200 H 0.83132 0.80196 0.42392
 H201 H 0.83438 0.83356 0.51838
 H202 H 0.80212 0.83136 0.42411
 C203 C 0.22430 0.13339 0.51119
 C204 C 0.22436 0.13336 0.48971
 C205 C 0.20608 0.14336 0.48345
 N206 N 0.19486 0.14945 0.50037
 C207 C 0.20600 0.14339 0.51735
 C208 C 0.19932 0.14531 0.46246
 C209 C 0.18214 0.15795 0.45637
 C210 C 0.17238 0.15706 0.43696
 C211 C 0.15713 0.17234 0.43694
 C212 C 0.15800 0.18214 0.45633
 N213 N 0.17338 0.17337 0.46803
 C214 C 0.14539 0.19936 0.46237
 C215 C 0.14336 0.20617 0.48334
 C216 C 0.13335 0.22447 0.48952
 C217 C 0.13327 0.22446 0.51100
 C218 C 0.14323 0.20617 0.51723
 N219 N 0.14936 0.19499 0.50030
 C220 C 0.14511 0.19934 0.53821
 C221 C 0.15773 0.18216 0.54429
 C222 C 0.15679 0.17236 0.56367
 C223 C 0.17206 0.15710 0.56370
 C224 C 0.18191 0.15800 0.54433
 N225 N 0.17318 0.17340 0.53266
 C226 C 0.19912 0.14537 0.53830
 H227 H 0.23629 0.12663 0.52114
 H228 H 0.23639 0.12659 0.47983
 H229 H 0.17887 0.17905 0.51848
 H230 H 0.17587 0.14652 0.42413
 H231 H 0.14662 0.17584 0.42408
 H232 H 0.12664 0.23648 0.47959
 H233 H 0.12648 0.23647 0.52090
 H234 H 0.17552 0.14656 0.57653
 H235 H 0.17901 0.17903 0.48223
 H236 H 0.14622 0.17584 0.57648
 C237 C 0.13339 0.77527 0.51002
 C238 C 0.13334 0.77533 0.48854
 C239 C 0.14330 0.79366 0.48238
 N240 N 0.14939 0.80480 0.49936
 C241 C 0.14336 0.79356 0.51628
 C242 C 0.14522 0.80054 0.46143
 C243 C 0.15785 0.81775 0.45542
 C244 C 0.15696 0.82759 0.43606
 C245 C 0.17223 0.84284 0.43610
 C246 C 0.18203 0.84192 0.45548
 N247 N 0.17327 0.82649 0.46711
 C248 C 0.19924 0.85453 0.46158
 C249 C 0.20604 0.85649 0.48256
 C250 C 0.22432 0.86651 0.48880
 C251 C 0.22430 0.86650 0.51029
 C252 C 0.20601 0.85648 0.51646
 N253 N 0.19485 0.85040 0.49950
 C254 C 0.19918 0.85447 0.53743
 C255 C 0.18200 0.84180 0.54344
 C256 C 0.17219 0.84263 0.56282
 C257 C 0.15697 0.82732 0.56278
 C258 C 0.15791 0.81756 0.54337
 N259 N 0.17330 0.82638 0.53173
 C260 C 0.14534 0.80032 0.53727
 H261 H 0.12666 0.76321 0.51990
 H262 H 0.12658 0.76334 0.47859
 H263 H 0.17898 0.82076 0.51754
 H264 H 0.14641 0.82412 0.42321
 H265 H 0.17572 0.85341 0.42329
 H266 H 0.23634 0.87329 0.47891
 H267 H 0.23630 0.87327 0.52022
 H268 H 0.14643 0.82378 0.57560
 H269 H 0.17893 0.82082 0.48129
 H270 H 0.17563 0.85316 0.57568
 C271 C 0.78887 0.12032 0.48816
 C272 C 0.78887 0.12026 0.50964
 C273 C 0.79854 0.13871 0.51592
 N274 N 0.80441 0.15005 0.49901
 C275 C 0.79856 0.13880 0.48201
 C276 C 0.80064 0.14538 0.53693
 C277 C 0.81308 0.16272 0.54299
 C278 C 0.81231 0.17233 0.56248
 C279 C 0.82754 0.18763 0.56253
 C280 C 0.83720 0.18694 0.54306
 N281 N 0.82835 0.17166 0.53129
 C282 C 0.85452 0.19945 0.53710
 C283 C 0.86131 0.20156 0.51613
 C284 C 0.87980 0.21125 0.50998
 C285 C 0.87987 0.21125 0.48850
 C286 C 0.86142 0.20156 0.48222
 N287 N 0.85007 0.19570 0.49913
 C288 C 0.85476 0.19945 0.46120
 C289 C 0.83743 0.18699 0.45513
 C290 C 0.82784 0.18773 0.43563
 C291 C 0.81254 0.17250 0.43559
 C292 C 0.81320 0.16288 0.45506
 N293 N 0.82847 0.17174 0.46684
 C294 C 0.80067 0.14558 0.46104
 H295 H 0.78241 0.10817 0.47821
 H296 H 0.78240 0.10806 0.51950
 H297 H 0.83403 0.16614 0.48109
 H298 H 0.80192 0.16862 0.57539
 H299 H 0.83117 0.19800 0.57547
 H300 H 0.89194 0.21772 0.51994
 H301 H 0.89208 0.21771 0.47864
 H302 H 0.80218 0.16885 0.42264
 H303 H 0.83398 0.16609 0.51705
 H304 H 0.83156 0.19809 0.42272
 C305 C 0.48915 0.86676 0.77620
 C306 C 0.51067 0.86686 0.77616
 C307 C 0.51697 0.85691 0.79441
 N308 N 0.50004 0.85077 0.80561
 C309 C 0.48301 0.85676 0.79449
 C310 C 0.53801 0.85502 0.80116
 C311 C 0.54416 0.84240 0.81830
 C312 C 0.56361 0.84333 0.82803
 C313 C 0.56368 0.82805 0.84325
 C314 C 0.54428 0.81822 0.84240
 N315 N 0.53252 0.82696 0.82706
 C316 C 0.53828 0.80099 0.85498
 C317 C 0.51729 0.79413 0.85703
 C318 C 0.51115 0.77582 0.86701
 C319 C 0.48963 0.77577 0.86711
 C320 C 0.48333 0.79405 0.85717
 N321 N 0.50026 0.80526 0.85105
 C322 C 0.46230 0.80080 0.85528
 C323 C 0.45615 0.81797 0.84268
 C324 C 0.43670 0.82771 0.84361
 C325 C 0.43662 0.84294 0.82835
 C326 C 0.45603 0.84210 0.81853
 N327 N 0.46778 0.82674 0.82726
 C328 C 0.46202 0.85471 0.80134
 H329 H 0.47916 0.87347 0.76423
 H330 H 0.52055 0.87365 0.76414
 H331 H 0.48200 0.82113 0.82158
 H332 H 0.57644 0.85389 0.82453
 H333 H 0.57659 0.82458 0.85372
 H334 H 0.52114 0.76383 0.87371
 H335 H 0.47975 0.76373 0.87388
 H336 H 0.42372 0.85344 0.82489
 H337 H 0.51830 0.82127 0.82145
 H338 H 0.42387 0.82420 0.85416
 C339 C 0.51124 0.21104 0.12007
 C340 C 0.48972 0.21105 0.11995
 C341 C 0.48338 0.20141 0.13835
 N342 N 0.50030 0.19556 0.14973
 C343 C 0.51735 0.20138 0.13855
 C344 C 0.46231 0.19934 0.14495
 C345 C 0.45620 0.18694 0.16226
 C346 C 0.43665 0.18773 0.17180
 C347 C 0.43658 0.17255 0.18711
 C348 C 0.45608 0.16289 0.18649
 N349 N 0.46791 0.17170 0.17125
 C350 C 0.46204 0.14562 0.19904
 C351 C 0.48304 0.13882 0.20121
 C352 C 0.48916 0.12037 0.21094
 C353 C 0.51068 0.12028 0.21099
 C354 C 0.51700 0.13868 0.20130
 N355 N 0.50008 0.15003 0.19539
 C356 C 0.53807 0.14532 0.19924
 C357 C 0.54418 0.16262 0.18680
 C358 C 0.56370 0.17221 0.18760
 C359 C 0.56378 0.18748 0.17237
 C360 C 0.54429 0.18679 0.16270
 N361 N 0.53248 0.17153 0.17153
 C362 C 0.53835 0.19927 0.14538
 H363 H 0.52124 0.21748 0.10797
 H364 H 0.47987 0.21751 0.10773
 H365 H 0.51822 0.16597 0.16589
 H366 H 0.42373 0.19810 0.16805
 H367 H 0.42359 0.16895 0.19743
 H368 H 0.47917 0.10825 0.21739
 H369 H 0.52054 0.10808 0.21750
 H370 H 0.57675 0.19783 0.16877
 H371 H 0.48218 0.16606 0.16575
 H372 H 0.57661 0.16852 0.19799
 C373 C 0.48949 0.12040 0.78864
 C374 C 0.51101 0.12047 0.78860
 C375 C 0.51720 0.13896 0.79826
 N376 N 0.50020 0.15020 0.80413
 C377 C 0.48323 0.13885 0.79832
 C378 C 0.53822 0.14574 0.80034
 C379 C 0.54424 0.16305 0.81283
 C380 C 0.56374 0.17269 0.81213
 C381 C 0.56375 0.18790 0.82743
 C382 C 0.54424 0.18714 0.83704
 N383 N 0.53248 0.17189 0.82811
 C384 C 0.53821 0.19957 0.85437
 C385 C 0.51717 0.20170 0.86105
 C386 C 0.51092 0.21138 0.87947
 C387 C 0.48940 0.21141 0.87942
 C388 C 0.48320 0.20173 0.86097
 N389 N 0.50020 0.19586 0.84973
 C390 C 0.46218 0.19964 0.85421
 C391 C 0.45617 0.18712 0.83693
 C392 C 0.43666 0.18782 0.82730
 C393 C 0.43665 0.17250 0.81211
 C394 C 0.45616 0.16288 0.81287
 N395 N 0.46793 0.17183 0.82809
 C396 C 0.46219 0.14552 0.80046
 H397 H 0.47959 0.10819 0.78221
 H398 H 0.52096 0.10833 0.78212
 H399 H 0.48219 0.16625 0.83370
 H400 H 0.57669 0.16906 0.80176
 H401 H 0.57669 0.19827 0.83112
 H402 H 0.52083 0.21784 0.89166
 H403 H 0.47945 0.21788 0.89156
 H404 H 0.42370 0.16879 0.80176
 H405 H 0.51822 0.16628 0.83368
 H406 H 0.42371 0.19820 0.83093
 C407 C 0.48978 0.87971 0.21097
 C408 C 0.51131 0.87966 0.21099
 C409 C 0.51749 0.86119 0.20132
 N410 N 0.50049 0.84993 0.19545
 C411 C 0.48353 0.86126 0.20129
 C412 C 0.53851 0.85443 0.19923
 C413 C 0.54453 0.83714 0.18672
 C414 C 0.56405 0.82752 0.18740
 C415 C 0.56405 0.81230 0.17211
 C416 C 0.54452 0.81303 0.16252
 N417 N 0.53276 0.82827 0.17145
 C418 C 0.53848 0.80058 0.14520
 C419 C 0.51743 0.79843 0.13854
 C420 C 0.51117 0.78873 0.12013
 C421 C 0.48964 0.78869 0.12019
 C422 C 0.48346 0.79838 0.13864
 N423 N 0.50047 0.80427 0.14986
 C424 C 0.46244 0.80046 0.14540
 C425 C 0.45644 0.81298 0.16268
 C426 C 0.43693 0.81227 0.17232
 C427 C 0.43694 0.82758 0.18752
 C428 C 0.45645 0.83722 0.18675
 N429 N 0.46820 0.82828 0.17152
 C430 C 0.46248 0.85457 0.19917
 H431 H 0.47988 0.89190 0.21742
 H432 H 0.52125 0.89182 0.21747
 H433 H 0.48245 0.83387 0.16591
 H434 H 0.57701 0.83117 0.19776
 H435 H 0.57699 0.80194 0.16841
 H436 H 0.52106 0.78226 0.10795
 H437 H 0.47969 0.78219 0.10806
 H438 H 0.42400 0.83127 0.19787
 H439 H 0.51849 0.83387 0.16590
 H440 H 0.42399 0.80188 0.16869
 C441 C 0.78899 0.48924 0.87968
 C442 C 0.78896 0.51076 0.87974
 C443 C 0.79855 0.51703 0.86128
 N444 N 0.80438 0.50009 0.84993
 C445 C 0.79860 0.48308 0.86118
 C446 C 0.80060 0.53807 0.85461
 C447 C 0.81295 0.54413 0.83724
 C448 C 0.81212 0.56363 0.82765
 C449 C 0.82727 0.56366 0.81230
 C450 C 0.83694 0.54417 0.81294
 N451 N 0.82818 0.53240 0.82824
 C452 C 0.85420 0.53819 0.80037
 C453 C 0.86100 0.51720 0.79823
 C454 C 0.87945 0.51106 0.78848
 C455 C 0.87955 0.48955 0.78848
 C456 C 0.86115 0.48325 0.79823
 N457 N 0.84980 0.50018 0.80412
 C458 C 0.85452 0.46221 0.80036
 C459 C 0.83725 0.45613 0.81287
 C460 C 0.82766 0.43661 0.81216
 C461 C 0.81243 0.43658 0.82744
 C462 C 0.81314 0.45608 0.83706
 N463 N 0.82836 0.46787 0.82814
 C464 C 0.80071 0.46208 0.85440
 H465 H 0.78259 0.47929 0.89183
 H466 H 0.78254 0.52064 0.89196
 H467 H 0.83394 0.48214 0.83372
 H468 H 0.80174 0.57655 0.83140
 H469 H 0.83084 0.57661 0.80193
 H470 H 0.89156 0.52103 0.78197
 H471 H 0.89174 0.47968 0.78198
 H472 H 0.80210 0.42361 0.83113
 H473 H 0.83384 0.51816 0.83377
 H474 H 0.83133 0.42367 0.80179
 C475 C 0.12025 0.48964 0.21095
 C476 C 0.12038 0.51116 0.21092
 C477 C 0.13888 0.51725 0.20123
 N478 N 0.15007 0.50020 0.19541
 C479 C 0.13868 0.48330 0.20129
 C480 C 0.14573 0.53823 0.19909
 C481 C 0.16306 0.54415 0.18659
 C482 C 0.17277 0.56362 0.18726
 C483 C 0.18800 0.56352 0.17198
 C484 C 0.18717 0.54400 0.16241
 N485 N 0.17187 0.53232 0.17135
 C486 C 0.19960 0.53787 0.14511
 C487 C 0.20163 0.51681 0.13848
 C488 C 0.21129 0.51048 0.12007
 C489 C 0.21122 0.48897 0.12016
 C490 C 0.20152 0.48287 0.13862
 N491 N 0.19572 0.49991 0.14982
 C492 C 0.19934 0.46188 0.14542
 C493 C 0.18682 0.45596 0.16271
 C494 C 0.18745 0.43648 0.17236
 C495 C 0.17215 0.43657 0.18757
 C496 C 0.16259 0.45611 0.18679
 N497 N 0.17157 0.46779 0.17153
 C498 C 0.14528 0.46223 0.19921
 H499 H 0.10802 0.47981 0.21743
 H500 H 0.10827 0.52116 0.21738
 H501 H 0.16604 0.48205 0.16591
 H502 H 0.16918 0.57660 0.19759
 H503 H 0.19841 0.57642 0.16827
 H504 H 0.21779 0.52032 0.10787
 H505 H 0.21766 0.47897 0.10805
 H506 H 0.16841 0.42367 0.19795
 H507 H 0.16621 0.51807 0.16581
 H508 H 0.19778 0.42349 0.16875
 C509 C 0.78872 0.51045 0.12041
 C510 C 0.78868 0.48894 0.12036
 C511 C 0.79828 0.48267 0.13882
 N512 N 0.80413 0.49962 0.15016
 C513 C 0.79836 0.51662 0.13890
 C514 C 0.80032 0.46164 0.14549
 C515 C 0.81269 0.45559 0.16285
 C516 C 0.81187 0.43609 0.17245
 C517 C 0.82706 0.43606 0.18778
 C518 C 0.83674 0.45554 0.18711
 N519 N 0.82796 0.46731 0.17182
 C520 C 0.85405 0.46151 0.19963
 C521 C 0.86087 0.48250 0.20175
 C522 C 0.87935 0.48864 0.21145
 C523 C 0.87946 0.51016 0.21144
 C524 C 0.86103 0.51645 0.20174
 N525 N 0.84966 0.49952 0.19588
 C526 C 0.85441 0.53750 0.19961
 C527 C 0.83711 0.54357 0.18714
 C528 C 0.82755 0.56310 0.18785
 C529 C 0.81228 0.56313 0.17260
 C530 C 0.81296 0.54362 0.16299
 N531 N 0.82819 0.53182 0.17188
 C532 C 0.80049 0.53762 0.14566
 H533 H 0.78232 0.52040 0.10825
 H534 H 0.78223 0.47905 0.10815
 H535 H 0.83375 0.51755 0.16629
 H536 H 0.80148 0.42317 0.16873
 H537 H 0.83064 0.42311 0.19814
 H538 H 0.89147 0.47867 0.21793
 H539 H 0.89167 0.52002 0.21792
 H540 H 0.80195 0.57610 0.16893
 H541 H 0.83363 0.48154 0.16626
 H542 H 0.83125 0.57603 0.19821
 C543 C 0.21086 0.48913 0.88020
 C544 C 0.21081 0.51065 0.88012
 C545 C 0.20112 0.51676 0.86166
 N546 N 0.19531 0.49972 0.85044
 C547 C 0.20121 0.48281 0.86178
 C548 C 0.19897 0.53775 0.85486
 C549 C 0.18647 0.54369 0.83755
 C550 C 0.18713 0.56317 0.82791
 C551 C 0.17186 0.56309 0.81267
 C552 C 0.16229 0.54355 0.81342
 N553 N 0.17122 0.53186 0.82869
 C554 C 0.14499 0.53744 0.80096
 C555 C 0.13837 0.51638 0.79886
 C556 C 0.11996 0.51005 0.78915
 C557 C 0.12007 0.48853 0.78917
 C558 C 0.13854 0.48243 0.79891
 N559 N 0.14974 0.49947 0.80477
 C560 C 0.14536 0.46144 0.80105
 C561 C 0.16266 0.45550 0.81359
 C562 C 0.17235 0.43603 0.81294
 C563 C 0.18756 0.43611 0.82825
 C564 C 0.18674 0.45564 0.83782
 N565 N 0.17147 0.46732 0.82885
 C566 C 0.19917 0.46175 0.85513
 H567 H 0.21735 0.47928 0.89239
 H568 H 0.21725 0.52063 0.89224
 H569 H 0.16581 0.48158 0.83438
 H570 H 0.19747 0.57615 0.83154
 H571 H 0.16816 0.57599 0.80228
 H572 H 0.10775 0.51989 0.78264
 H573 H 0.10796 0.47854 0.78268
 H574 H 0.19796 0.42321 0.83197
 H575 H 0.16568 0.51760 0.83430
 H576 H 0.16876 0.42305 0.80259
 C577 C 0.26765 0.37734 0.07218
 C578 C 0.25960 0.35833 0.06468
 C579 C 0.27110 0.34644 0.05025
 C580 C 0.29078 0.35349 0.04310
 C581 C 0.29884 0.37248 0.05098
 C582 C 0.28734 0.38431 0.06541
 C583 C 0.25549 0.39019 0.08619
 C584 C 0.24551 0.40151 0.09758
 C585 C 0.23388 0.41569 0.11074
 C586 C 0.21190 0.41511 0.11095
 C587 C 0.20062 0.42988 0.12263
 C588 C 0.21126 0.44536 0.13413
 C589 C 0.23331 0.44559 0.13422
 C590 C 0.24455 0.43083 0.12255
 H591 H 0.24434 0.35283 0.06978
 H592 H 0.26445 0.33191 0.04447
 H593 H 0.31393 0.37836 0.04582
 H594 H 0.29369 0.39903 0.07107
 H595 H 0.20349 0.40351 0.10179
 H596 H 0.18362 0.42953 0.12237
 H597 H 0.24174 0.45742 0.14305
 H598 H 0.26155 0.43146 0.12244
 C599 C 0.73264 0.62218 0.07209
 C600 C 0.74079 0.64120 0.06474
 C601 C 0.72940 0.65317 0.05030
 C602 C 0.70974 0.64621 0.04301
 C603 C 0.70158 0.62721 0.05074
 C604 C 0.71297 0.61529 0.06516
 C605 C 0.74468 0.60926 0.08613
 C606 C 0.75458 0.59791 0.09755
 C607 C 0.76614 0.58374 0.11075
 C608 C 0.78812 0.58430 0.11106
 C609 C 0.79933 0.56956 0.12281
 C610 C 0.78863 0.55411 0.13427
 C611 C 0.76659 0.55389 0.13426
 C612 C 0.75540 0.56862 0.12252
 H613 H 0.75603 0.64664 0.06996
 H614 H 0.73612 0.66772 0.04465
 H615 H 0.68650 0.62141 0.04547
 H616 H 0.70655 0.60057 0.07072
 H617 H 0.79658 0.59588 0.10194
 H618 H 0.81633 0.56989 0.12264
 H619 H 0.75811 0.54208 0.14306
 H620 H 0.73840 0.56800 0.12233
 C621 C 0.73264 0.37756 0.92785
 C622 C 0.71296 0.38448 0.93467
 C623 C 0.70149 0.37260 0.94907
 C624 C 0.70958 0.35361 0.95687
 C625 C 0.72927 0.34661 0.94968
 C626 C 0.74073 0.35855 0.93528
 C627 C 0.74476 0.39045 0.91384
 C628 C 0.75469 0.40179 0.90244
 C629 C 0.76628 0.41597 0.88927
 C630 C 0.75557 0.43110 0.87751
 C631 C 0.76678 0.44584 0.86578
 C632 C 0.78882 0.44560 0.86578
 C633 C 0.79950 0.43013 0.87724
 C634 C 0.78827 0.41538 0.88897
 H635 H 0.70657 0.39920 0.92906
 H636 H 0.68639 0.37843 0.95426
 H637 H 0.73594 0.33207 0.95540
 H638 H 0.75599 0.35309 0.93014
 H639 H 0.73858 0.43174 0.87769
 H640 H 0.75832 0.45766 0.85699
 H641 H 0.81650 0.42977 0.87742
 H642 H 0.79670 0.40379 0.89808
 C643 C 0.26737 0.62242 0.92798
 C644 C 0.28712 0.61554 0.93465
 C645 C 0.29866 0.62740 0.94902
 C646 C 0.29057 0.64634 0.95697
 C647 C 0.27082 0.65332 0.94992
 C648 C 0.25929 0.64139 0.93554
 C649 C 0.25519 0.60953 0.91401
 C650 C 0.24519 0.59817 0.90266
 C651 C 0.23354 0.58396 0.88954
 C652 C 0.24420 0.56879 0.87776
 C653 C 0.23295 0.55402 0.86610
 C654 C 0.21090 0.55426 0.86617
 C655 C 0.20027 0.56977 0.87765
 C656 C 0.21156 0.58454 0.88932
 H657 H 0.29351 0.60085 0.92893
 H658 H 0.31380 0.62158 0.95410
 H659 H 0.26414 0.66781 0.95575
 H660 H 0.24398 0.64683 0.93052
 H661 H 0.26120 0.56815 0.87788
 H662 H 0.24137 0.54218 0.85729
 H663 H 0.18327 0.57012 0.87789
 H664 H 0.20316 0.59616 0.89845
 C665 C 0.07182 0.26690 0.37744
 C666 C 0.06446 0.25896 0.35835
 C667 C 0.05029 0.27064 0.34632
 C668 C 0.04327 0.29038 0.35331
 C669 C 0.05107 0.29835 0.37236
 C670 C 0.06523 0.28667 0.38432
 C671 C 0.08536 0.25446 0.39052
 C672 C 0.09627 0.24418 0.40203
 C673 C 0.10875 0.23210 0.41643
 C674 C 0.09883 0.22022 0.43199
 C675 C 0.11078 0.20929 0.44673
 C676 C 0.13279 0.21019 0.44607
 C677 C 0.14271 0.22183 0.43023
 C678 C 0.13071 0.23278 0.41547
 H679 H 0.06942 0.24363 0.35292
 H680 H 0.04458 0.26405 0.33175
 H681 H 0.04601 0.31349 0.37818
 H682 H 0.07079 0.29293 0.39911
 H683 H 0.08185 0.21962 0.43289
 H684 H 0.10292 0.20033 0.45882
 H685 H 0.15968 0.22268 0.42954
 H686 H 0.13854 0.24197 0.40352
 C687 C 0.07183 0.73259 0.62211
 C688 C 0.06448 0.74054 0.64120
 C689 C 0.05033 0.72887 0.65325
 C690 C 0.04332 0.70911 0.64629
 C691 C 0.05110 0.70112 0.62726
 C692 C 0.06524 0.71280 0.61526
 C693 C 0.08535 0.74503 0.60901
 C694 C 0.09625 0.75532 0.59749
 C695 C 0.10872 0.76741 0.58310
 C696 C 0.13068 0.76680 0.58410
 C697 C 0.14267 0.77779 0.56937
 C698 C 0.13275 0.78941 0.55352
 C699 C 0.11074 0.79024 0.55282
 C700 C 0.09879 0.77927 0.56753
 H701 H 0.06944 0.75588 0.64660
 H702 H 0.04463 0.73547 0.66781
 H703 H 0.04603 0.68597 0.62145
 H704 H 0.07078 0.70652 0.60048
 H705 H 0.13851 0.75763 0.59606
 H706 H 0.15964 0.77700 0.57010
 H707 H 0.10286 0.79919 0.54072
 H708 H 0.08181 0.77982 0.56660
 C709 C 0.92774 0.73223 0.37739
 C710 C 0.93507 0.74030 0.35836
 C711 C 0.94946 0.72885 0.34637
 C712 C 0.95673 0.70919 0.35333
 C713 C 0.94900 0.70111 0.37234
 C714 C 0.93462 0.71256 0.38426
 C715 C 0.91378 0.74435 0.39034
 C716 C 0.90244 0.75429 0.40175
 C717 C 0.88935 0.76591 0.41599
 C718 C 0.88914 0.78788 0.41546
 C719 C 0.87750 0.79914 0.43027
 C720 C 0.86603 0.78848 0.44574
 C721 C 0.86594 0.76645 0.44593
 C722 C 0.87758 0.75523 0.43114
 H723 H 0.92988 0.75554 0.35292
 H724 H 0.95512 0.73552 0.33182
 H725 H 0.95425 0.68603 0.37814
 H726 H 0.92908 0.70619 0.39900
 H727 H 0.89826 0.79630 0.40386
 H728 H 0.87775 0.81613 0.42995
 H729 H 0.85713 0.75801 0.45775
 H730 H 0.87768 0.73824 0.43173
 C731 C 0.92761 0.26767 0.62194
 C732 C 0.93451 0.28735 0.61511
 C733 C 0.94887 0.29880 0.62708
 C734 C 0.95657 0.29070 0.64609
 C735 C 0.94929 0.27103 0.65302
 C736 C 0.93492 0.25958 0.64098
 C737 C 0.91367 0.25556 0.60895
 C738 C 0.90234 0.24561 0.59753
 C739 C 0.88924 0.23399 0.58328
 C740 C 0.87750 0.24465 0.56810
 C741 C 0.86584 0.23341 0.55333
 C742 C 0.86587 0.21138 0.55358
 C743 C 0.87732 0.20074 0.56909
 C744 C 0.88899 0.21202 0.58387
 H745 H 0.92899 0.29374 0.60037
 H746 H 0.95413 0.31388 0.62130
 H747 H 0.95492 0.26434 0.66756
 H748 H 0.92972 0.24433 0.64639
 H749 H 0.87764 0.26164 0.56747
 H750 H 0.85705 0.24183 0.54149
 H751 H 0.87753 0.18375 0.56945
 H752 H 0.89808 0.20361 0.59550
 C753 C 0.37735 0.07254 0.26733
 C754 C 0.35831 0.06512 0.25927
 C755 C 0.34634 0.05072 0.27073
 C756 C 0.35334 0.04353 0.29038
 C757 C 0.37236 0.05134 0.29845
 C758 C 0.38427 0.06573 0.28699
 C759 C 0.39027 0.08652 0.25521
 C760 C 0.40163 0.09787 0.24524
 C761 C 0.41583 0.11099 0.23360
 C762 C 0.41526 0.11113 0.21166
 C763 C 0.43003 0.12279 0.20037
 C764 C 0.44552 0.13433 0.21097
 C765 C 0.44575 0.13449 0.23297
 C766 C 0.43099 0.12284 0.24422
 H767 H 0.35284 0.07026 0.24404
 H768 H 0.33178 0.04501 0.26407
 H769 H 0.37820 0.04615 0.31352
 H770 H 0.39901 0.07133 0.29335
 H771 H 0.40365 0.10195 0.20329
 H772 H 0.42968 0.12249 0.18340
 H773 H 0.45759 0.14335 0.24136
 H774 H 0.43162 0.12278 0.26119
 C775 C 0.62289 0.07267 0.73192
 C776 C 0.61594 0.06574 0.71231
 C777 C 0.62786 0.05135 0.70086
 C778 C 0.64694 0.04367 0.70889
 C779 C 0.65399 0.05098 0.72848
 C780 C 0.64200 0.06538 0.73993
 C781 C 0.60995 0.08663 0.74405
 C782 C 0.59856 0.09796 0.75403
 C783 C 0.58435 0.11106 0.76569
 C784 C 0.58500 0.11129 0.78763
 C785 C 0.57024 0.12295 0.79894
 C786 C 0.55468 0.13440 0.78837
 C787 C 0.55436 0.13446 0.76637
 C788 C 0.56911 0.12281 0.75509
 H789 H 0.60114 0.07124 0.70599
 H790 H 0.62199 0.04606 0.68583
 H791 H 0.66859 0.04536 0.73511
 H792 H 0.64750 0.07061 0.75513
 H793 H 0.59667 0.10219 0.79598
 H794 H 0.57066 0.12272 0.81591
 H795 H 0.54248 0.14325 0.75800
 H796 H 0.56842 0.12268 0.73813
 C797 C 0.37696 0.92814 0.73376
 C798 C 0.38386 0.93471 0.71401
 C799 C 0.37186 0.94881 0.70230
 C800 C 0.35276 0.95658 0.71022
 C801 C 0.34576 0.94959 0.72994
 C802 C 0.35782 0.93548 0.74164
 C803 C 0.39005 0.91464 0.74622
 C804 C 0.40157 0.90375 0.75652
 C805 C 0.41597 0.89129 0.76863
 C806 C 0.41502 0.86934 0.76796
 C807 C 0.42979 0.85737 0.77891
 C808 C 0.44566 0.86729 0.79054
 C809 C 0.44631 0.88929 0.79145
 C810 C 0.43155 0.90122 0.78052
 H811 H 0.39868 0.92917 0.70779
 H812 H 0.37770 0.95385 0.68719
 H813 H 0.33114 0.95529 0.73648
 H814 H 0.35237 0.93055 0.75694
 H815 H 0.40305 0.86151 0.75876
 H816 H 0.42911 0.84041 0.77806
 H817 H 0.45843 0.89716 0.80041
 H818 H 0.43246 0.91819 0.78111
 C819 C 0.62292 0.92766 0.26789
 C820 C 0.64201 0.93505 0.25992
 C821 C 0.65394 0.94944 0.27144
 C822 C 0.64687 0.95665 0.29107
 C823 C 0.62781 0.94887 0.29905
 C824 C 0.61593 0.93449 0.28752
 C825 C 0.61004 0.91368 0.25570
 C826 C 0.59871 0.90231 0.24568
 C827 C 0.58455 0.88918 0.23398
 C828 C 0.56935 0.87735 0.24454
 C829 C 0.55464 0.86566 0.23323
 C830 C 0.55497 0.86576 0.21123
 C831 C 0.57050 0.87729 0.20069
 C832 C 0.58522 0.88898 0.21204
 H833 H 0.64753 0.92990 0.24471
 H834 H 0.66854 0.95513 0.26485
 H835 H 0.62192 0.95408 0.31409
 H836 H 0.60115 0.92890 0.29381
 H837 H 0.56865 0.87745 0.26150
 H838 H 0.54278 0.85682 0.24157
 H839 H 0.57093 0.87755 0.18373
 H840 H 0.59686 0.89815 0.20371
 C841 C 0.37749 0.26808 0.92721
 C842 C 0.35845 0.26001 0.93459
 C843 C 0.34647 0.27148 0.94897
 C844 C 0.35345 0.29117 0.95617
 C845 C 0.37247 0.29926 0.94839
 C846 C 0.38439 0.28778 0.93402
 C847 C 0.39044 0.25594 0.91327
 C848 C 0.40183 0.24595 0.90195
 C849 C 0.41605 0.23429 0.88887
 C850 C 0.43127 0.24491 0.87713
 C851 C 0.44602 0.23363 0.86549
 C852 C 0.44572 0.21160 0.86554
 C853 C 0.43017 0.20101 0.87698
 C854 C 0.41540 0.21232 0.88863
 H855 H 0.35300 0.24475 0.92945
 H856 H 0.33191 0.26481 0.95466
 H857 H 0.37830 0.31435 0.95359
 H858 H 0.39914 0.29415 0.92844
 H859 H 0.43195 0.26190 0.87726
 H860 H 0.45790 0.24203 0.85670
 H861 H 0.42976 0.18402 0.87720
 H862 H 0.40374 0.20395 0.89772
 C863 C 0.62335 0.73319 0.92818
 C864 C 0.61639 0.71342 0.93469
 C865 C 0.62835 0.70164 0.94877
 C866 C 0.64746 0.70951 0.95657
 C867 C 0.65453 0.72925 0.94964
 C868 C 0.64251 0.74102 0.93555
 C869 C 0.61029 0.74572 0.91472
 C870 C 0.59877 0.75607 0.90387
 C871 C 0.58437 0.76821 0.89145
 C872 C 0.58530 0.76756 0.86953
 C873 C 0.57051 0.77853 0.85759
 C874 C 0.55465 0.79017 0.86752
 C875 C 0.55403 0.79106 0.88949
 C876 C 0.56880 0.78010 0.90139
 H877 H 0.60155 0.70724 0.92913
 H878 H 0.62246 0.68651 0.95377
 H879 H 0.66915 0.73575 0.95536
 H880 H 0.64800 0.75634 0.93066
 H881 H 0.59725 0.75836 0.86169
 H882 H 0.57117 0.77770 0.84065
 H883 H 0.54192 0.80001 0.89738
 H884 H 0.56791 0.78068 0.91834
 C885 C 0.37758 0.73188 0.07263
 C886 C 0.35848 0.73991 0.06533
 C887 C 0.34644 0.72841 0.05101
 C888 C 0.35343 0.70875 0.04377
 C889 C 0.37250 0.70070 0.05146
 C890 C 0.38447 0.71220 0.06578
 C891 C 0.39057 0.74405 0.08651
 C892 C 0.40199 0.75406 0.09779
 C893 C 0.41625 0.76575 0.11082
 C894 C 0.43150 0.75514 0.12255
 C895 C 0.44628 0.76644 0.13416
 C896 C 0.44597 0.78847 0.13409
 C897 C 0.43040 0.79905 0.12265
 C898 C 0.41561 0.78772 0.11103
 H899 H 0.35302 0.75516 0.07050
 H900 H 0.33185 0.73505 0.04538
 H901 H 0.37833 0.68562 0.04623
 H902 H 0.39926 0.70586 0.07129
 H903 H 0.43218 0.73816 0.12244
 H904 H 0.45817 0.75807 0.14294
 H905 H 0.42998 0.81604 0.12242
 H906 H 0.40393 0.79607 0.10195
 C907 C 0.62300 0.26767 0.07239
 C908 C 0.61604 0.28734 0.06561
 C909 C 0.62791 0.29886 0.05125
 C910 C 0.64695 0.29083 0.04345
 C911 C 0.65399 0.27116 0.05061
 C912 C 0.64206 0.25965 0.06497
 C913 C 0.61011 0.25550 0.08635
 C914 C 0.59875 0.24551 0.09769
 C915 C 0.58455 0.23386 0.11079
 C916 C 0.56935 0.24450 0.12254
 C917 C 0.55459 0.23324 0.13418
 C918 C 0.55486 0.21121 0.13411
 C919 C 0.57040 0.20059 0.12266
 C920 C 0.58517 0.21189 0.11101
 H921 H 0.60129 0.29367 0.07122
 H922 H 0.62205 0.31394 0.04609
 H923 H 0.66856 0.26454 0.04489
 H924 H 0.64755 0.24440 0.07008
 H925 H 0.56869 0.26149 0.12242
 H926 H 0.54271 0.24164 0.14297
 H927 H 0.57078 0.18360 0.12242
 H928 H 0.59682 0.20350 0.10191
 C929 C 0.26647 0.07141 0.62303
 C930 C 0.25857 0.06418 0.64217
 C931 C 0.27021 0.05001 0.65421
 C932 C 0.28990 0.04285 0.64720
 C933 C 0.29784 0.05051 0.62810
 C934 C 0.28619 0.06467 0.61611
 C935 C 0.25407 0.08500 0.60997
 C936 C 0.24381 0.09596 0.59849
 C937 C 0.23175 0.10852 0.58414
 C938 C 0.21984 0.09868 0.56853
 C939 C 0.20894 0.11071 0.55383
 C940 C 0.20990 0.13270 0.55458
 C941 C 0.22156 0.14253 0.57048
 C942 C 0.23248 0.13046 0.58519
 H943 H 0.24328 0.06925 0.64763
 H944 H 0.26365 0.04441 0.66883
 H945 H 0.31294 0.04534 0.62225
 H946 H 0.29243 0.07013 0.60129
 H947 H 0.21921 0.08172 0.56755
 H948 H 0.19996 0.10291 0.54169
 H949 H 0.22245 0.15948 0.57124
 H950 H 0.24170 0.13822 0.59718
 C951 C 0.73212 0.07196 0.37696
 C952 C 0.71267 0.06480 0.38416
 C953 C 0.70116 0.05034 0.37238
 C954 C 0.70896 0.04272 0.35314
 C955 C 0.72845 0.05034 0.34589
 C956 C 0.73993 0.06481 0.35776
 C957 C 0.74430 0.08604 0.38975
 C958 C 0.75430 0.09749 0.40100
 C959 C 0.76598 0.11071 0.41509
 C960 C 0.75536 0.12258 0.43021
 C961 C 0.76666 0.13432 0.44488
 C962 C 0.78870 0.13424 0.44459
 C963 C 0.79929 0.12268 0.42912
 C964 C 0.78796 0.11094 0.41444
 H965 H 0.70650 0.07022 0.39903
 H966 H 0.68625 0.04497 0.37855
 H967 H 0.73502 0.04494 0.33119
 H968 H 0.75501 0.07023 0.35207
 H969 H 0.73837 0.12246 0.43089
 H970 H 0.75827 0.14318 0.45669
 H971 H 0.81629 0.12243 0.42873
 H972 H 0.79633 0.10174 0.40286
 C973 C 0.73276 0.92741 0.62296
 C974 C 0.71301 0.93408 0.61607
 C975 C 0.70151 0.94852 0.62788
 C976 C 0.70963 0.95653 0.64677
 C977 C 0.72937 0.94949 0.65374
 C978 C 0.74087 0.93503 0.64188
 C979 C 0.74492 0.91338 0.61013
 C980 C 0.75490 0.90197 0.59881
 C981 C 0.76654 0.88881 0.58465
 C982 C 0.75587 0.87700 0.56951
 C983 C 0.76712 0.86532 0.55477
 C984 C 0.78916 0.86539 0.55501
 C985 C 0.79980 0.87688 0.57050
 C986 C 0.78852 0.88858 0.58525
 H987 H 0.70661 0.92831 0.60143
 H988 H 0.68637 0.95360 0.62206
 H989 H 0.73607 0.95536 0.66820
 H990 H 0.75618 0.93001 0.64732
 H991 H 0.73887 0.87713 0.56886
 H992 H 0.75869 0.85650 0.54294
 H993 H 0.81680 0.87713 0.57086
 H994 H 0.79693 0.89772 0.59685
 C995 C 0.26685 0.92836 0.37692
 C996 C 0.28661 0.93499 0.38384
 C997 C 0.29831 0.94914 0.37188
 C998 C 0.29038 0.95689 0.35281
 C999 C 0.27065 0.94983 0.34579
 C1000 C 0.25895 0.93568 0.35781
 C1001 C 0.25440 0.91480 0.38997
 C1002 C 0.24411 0.90387 0.40145
 C1003 C 0.23202 0.89134 0.41580
 C1004 C 0.22012 0.90119 0.43140
 C1005 C 0.20918 0.88918 0.44609
 C1006 C 0.21009 0.86719 0.44534
 C1007 C 0.22174 0.85734 0.42946
 C1008 C 0.23270 0.86939 0.41475
 H1009 H 0.29284 0.92947 0.39864
 H1010 H 0.31344 0.95423 0.37773
 H1011 H 0.26409 0.95551 0.33120
 H1012 H 0.24363 0.93069 0.35235
 H1013 H 0.21952 0.91815 0.43238
 H1014 H 0.20020 0.89700 0.45821
 H1015 H 0.22259 0.84039 0.42869
 H1016 H 0.24191 0.86161 0.40277
 C1017 C 0.07242 0.37681 0.73239
 C1018 C 0.06486 0.35782 0.74039
 C1019 C 0.05048 0.34591 0.72882
 C1020 C 0.04345 0.35292 0.70912
 C1021 C 0.05141 0.37189 0.70111
 C1022 C 0.06577 0.38374 0.71268
 C1023 C 0.08637 0.38969 0.74462
 C1024 C 0.09771 0.40104 0.75465
 C1025 C 0.11080 0.41524 0.76634
 C1026 C 0.11094 0.41463 0.78829
 C1027 C 0.12258 0.42940 0.79962
 C1028 C 0.13410 0.44493 0.78907
 C1029 C 0.13425 0.44519 0.76707
 C1030 C 0.12263 0.43043 0.75577
 H1031 H 0.06987 0.35234 0.75566
 H1032 H 0.04465 0.33139 0.73543
 H1033 H 0.04634 0.37774 0.68600
 H1034 H 0.07149 0.39844 0.70636
 H1035 H 0.10178 0.40300 0.79662
 H1036 H 0.12228 0.42903 0.81658
 H1037 H 0.14310 0.45705 0.75871
 H1038 H 0.12257 0.43108 0.73880
 C1039 C 0.07270 0.62297 0.26741
 C1040 C 0.06603 0.61609 0.28713
 C1041 C 0.05164 0.62795 0.29864
 C1042 C 0.04368 0.64689 0.29057
 C1043 C 0.05073 0.65386 0.27086
 C1044 C 0.06514 0.64194 0.25935
 C1045 C 0.08667 0.61008 0.25525
 C1046 C 0.09802 0.59871 0.24526
 C1047 C 0.11113 0.58449 0.23363
 C1048 C 0.12291 0.56931 0.24426
 C1049 C 0.13455 0.55453 0.23302
 C1050 C 0.13445 0.55475 0.21102
 C1051 C 0.12297 0.57027 0.20041
 C1052 C 0.11132 0.58506 0.21169
 H1053 H 0.07175 0.60141 0.29350
 H1054 H 0.04655 0.62213 0.31376
 H1055 H 0.04490 0.66835 0.26420
 H1056 H 0.07016 0.64738 0.24407
 H1057 H 0.12281 0.56868 0.26123
 H1058 H 0.14336 0.54267 0.24142
 H1059 H 0.12271 0.57062 0.18344
 H1060 H 0.10219 0.59669 0.20331
 C1061 C 0.92733 0.37706 0.26793
 C1062 C 0.93475 0.35803 0.25987
 C1063 C 0.94920 0.34611 0.27130
 C1064 C 0.95645 0.35315 0.29093
 C1065 C 0.94865 0.37217 0.29899
 C1066 C 0.93420 0.38402 0.28756
 C1067 C 0.91330 0.38993 0.25582
 C1068 C 0.90190 0.40126 0.24586
 C1069 C 0.88874 0.41541 0.23422
 C1070 C 0.87693 0.43059 0.24484
 C1071 C 0.86525 0.44532 0.23358
 C1072 C 0.86534 0.44503 0.21158
 C1073 C 0.87685 0.42951 0.20099
 C1074 C 0.88853 0.41477 0.21228
 H1075 H 0.92956 0.35253 0.24465
 H1076 H 0.95491 0.33156 0.26465
 H1077 H 0.95389 0.37804 0.31404
 H1078 H 0.92860 0.39877 0.29391
 H1079 H 0.87704 0.43127 0.26180
 H1080 H 0.85642 0.45718 0.24196
 H1081 H 0.87710 0.42912 0.18402
 H1082 H 0.89768 0.40314 0.20392
 C1083 C 0.92737 0.62257 0.73184
 C1084 C 0.93424 0.61556 0.71223
 C1085 C 0.94868 0.62740 0.70076
 C1086 C 0.95648 0.64644 0.70878
 C1087 C 0.94923 0.65353 0.72838
 C1088 C 0.93478 0.64163 0.73985
 C1089 C 0.91335 0.60971 0.74398
 C1090 C 0.90197 0.59840 0.75397
 C1091 C 0.88883 0.58427 0.76566
 C1092 C 0.88868 0.58492 0.78760
 C1093 C 0.87702 0.57019 0.79893
 C1094 C 0.86547 0.55467 0.78838
 C1095 C 0.86531 0.55437 0.76638
 C1096 C 0.87697 0.56909 0.75508
 H1097 H 0.92865 0.60080 0.70591
 H1098 H 0.95392 0.62150 0.68573
 H1099 H 0.95494 0.66811 0.73500
 H1100 H 0.92960 0.64716 0.75505
 H1101 H 0.89787 0.59655 0.79593
 H1102 H 0.87732 0.57060 0.81590
 H1103 H 0.85645 0.54251 0.75803
 H1104 H 0.87703 0.56840 0.73812
 C1105 C 0.73266 0.62258 0.92838
 C1106 C 0.71313 0.61552 0.93545
 C1107 C 0.70162 0.62743 0.94979
 C1108 C 0.70950 0.64668 0.95739
 C1109 C 0.72908 0.65379 0.94987
 C1110 C 0.74056 0.64179 0.93551
 C1111 C 0.74478 0.60968 0.91437
 C1112 C 0.75470 0.59831 0.90296
 C1113 C 0.76626 0.58411 0.88975
 C1114 C 0.75552 0.56892 0.87805
 C1115 C 0.76669 0.55420 0.86626
 C1116 C 0.78873 0.55450 0.86612
 C1117 C 0.79944 0.57001 0.87752
 C1118 C 0.78824 0.58474 0.88932
 H1119 H 0.70688 0.60065 0.93005
 H1120 H 0.68664 0.62136 0.95509
 H1121 H 0.73572 0.66849 0.95525
 H1122 H 0.75570 0.64738 0.93015
 H1123 H 0.73852 0.56825 0.87832
 H1124 H 0.75820 0.54236 0.85751
 H1125 H 0.81644 0.57042 0.87759
 H1126 H 0.79671 0.59638 0.89838
 C1127 C 0.26770 0.37754 0.92865
 C1128 C 0.25994 0.35824 0.93564
 C1129 C 0.27150 0.34625 0.94993
 C1130 C 0.29102 0.35347 0.95752
 C1131 C 0.29876 0.37282 0.95007
 C1132 C 0.28717 0.38472 0.93579
 C1133 C 0.25549 0.39042 0.91469
 C1134 C 0.24548 0.40174 0.90333
 C1135 C 0.23381 0.41589 0.89016
 C1136 C 0.21183 0.41519 0.88983
 C1137 C 0.20053 0.42986 0.87806
 C1138 C 0.21113 0.44537 0.86659
 C1139 C 0.23318 0.44573 0.86663
 C1140 C 0.24445 0.43107 0.87839
 H1141 H 0.24485 0.35255 0.93022
 H1142 H 0.26498 0.33147 0.95520
 H1143 H 0.31368 0.37897 0.95542
 H1144 H 0.29330 0.39966 0.93050
 H1145 H 0.20345 0.40355 0.89894
 H1146 H 0.18353 0.42940 0.87822
 H1147 H 0.24159 0.45758 0.85782
 H1148 H 0.26145 0.43180 0.87858
 C1149 C 0.26797 0.62211 0.07148
 C1150 C 0.26015 0.64141 0.06455
 C1151 C 0.27163 0.65344 0.05022
 C1152 C 0.29113 0.64627 0.04255
 C1153 C 0.29893 0.62692 0.04994
 C1154 C 0.28742 0.61498 0.06425
 C1155 C 0.25584 0.60920 0.08546
 C1156 C 0.24587 0.59787 0.09685
 C1157 C 0.23422 0.58372 0.11003
 C1158 C 0.24487 0.56855 0.12181
 C1159 C 0.23361 0.55390 0.13359
 C1160 C 0.21156 0.55425 0.13364
 C1161 C 0.20095 0.56975 0.12216
 C1162 C 0.21224 0.58441 0.11037
 H1163 H 0.24508 0.64705 0.07003
 H1164 H 0.26506 0.66821 0.04500
 H1165 H 0.31385 0.62081 0.04452
 H1166 H 0.29361 0.60004 0.06950
 H1167 H 0.26186 0.56784 0.12161
 H1168 H 0.24202 0.54206 0.14240
 H1169 H 0.18395 0.57020 0.12202
 H1170 H 0.20385 0.59604 0.10126
 C1171 C 0.73230 0.37729 0.07159
 C1172 C 0.71283 0.38443 0.06443
 C1173 C 0.70133 0.37256 0.05004
 C1174 C 0.70916 0.35328 0.04250
 C1175 C 0.72867 0.34609 0.05011
 C1176 C 0.74015 0.35805 0.06451
 C1177 C 0.74442 0.39015 0.08565
 C1178 C 0.75435 0.40148 0.09709
 C1179 C 0.76592 0.41564 0.11034
 C1180 C 0.75520 0.43081 0.12206
 C1181 C 0.76639 0.44551 0.13387
 C1182 C 0.78843 0.44521 0.13401
 C1183 C 0.79912 0.42970 0.12258
 C1184 C 0.78790 0.41499 0.11077
 H1185 H 0.70663 0.39933 0.06979
 H1186 H 0.68640 0.37868 0.04468
 H1187 H 0.73526 0.33136 0.04477
 H1188 H 0.75524 0.35240 0.06994
 H1189 H 0.73821 0.43150 0.12179
 H1190 H 0.75792 0.45735 0.14264
 H1191 H 0.81612 0.42929 0.12250
 H1192 H 0.79635 0.40337 0.10169
 C1193 C 0.92880 0.73184 0.62235
 C1194 C 0.93595 0.71236 0.61523
 C1195 C 0.95027 0.70082 0.62714
 C1196 C 0.95775 0.70861 0.64645
 C1197 C 0.95015 0.72814 0.65361
 C1198 C 0.93581 0.73965 0.64162
 C1199 C 0.91481 0.74400 0.60947
 C1200 C 0.90342 0.75398 0.59814
 C1201 C 0.89023 0.76561 0.58399
 C1202 C 0.87842 0.75496 0.56883
 C1203 C 0.86663 0.76621 0.55418
 C1204 C 0.86660 0.78824 0.55451
 C1205 C 0.87812 0.79886 0.57000
 C1206 C 0.88991 0.78758 0.58466
 H1207 H 0.93063 0.70618 0.60032
 H1208 H 0.95563 0.68589 0.62103
 H1209 H 0.95545 0.73470 0.66836
 H1210 H 0.93039 0.75474 0.64726
 H1211 H 0.87860 0.73797 0.56813
 H1212 H 0.85779 0.75779 0.54236
 H1213 H 0.87828 0.81585 0.57044
 H1214 H 0.89905 0.79598 0.59628
 C1215 C 0.92862 0.26764 0.37706
 C1216 C 0.93580 0.28709 0.38424
 C1217 C 0.95016 0.29864 0.37239
 C1218 C 0.95766 0.29087 0.35309
 C1219 C 0.95004 0.27137 0.34586
 C1220 C 0.93566 0.25986 0.35780
 C1221 C 0.91458 0.25548 0.38989
 C1222 C 0.90314 0.24552 0.40119
 C1223 C 0.88990 0.23391 0.41531
 C1224 C 0.87808 0.24460 0.43043
 C1225 C 0.86627 0.23338 0.44509
 C1226 C 0.86624 0.21135 0.44480
 C1227 C 0.87776 0.20070 0.42935
 C1228 C 0.88958 0.21194 0.41468
 H1229 H 0.93047 0.29325 0.39915
 H1230 H 0.95554 0.31355 0.37854
 H1231 H 0.95535 0.26483 0.33112
 H1232 H 0.93022 0.24479 0.35212
 H1233 H 0.87827 0.26159 0.43110
 H1234 H 0.85743 0.24183 0.45688
 H1235 H 0.87792 0.18371 0.42896
 H1236 H 0.89873 0.20352 0.40311
 C1237 C 0.07076 0.26688 0.62261
 C1238 C 0.06369 0.25921 0.64189
 C1239 C 0.04953 0.27093 0.65390
 C1240 C 0.04216 0.29053 0.64672
 C1241 C 0.04974 0.29821 0.62742
 C1242 C 0.06388 0.28645 0.61550
 C1243 C 0.08438 0.25440 0.60963
 C1244 C 0.09539 0.24410 0.59819
 C1245 C 0.10801 0.23203 0.58389
 C1246 C 0.09825 0.22015 0.56820
 C1247 C 0.11035 0.20924 0.55356
 C1248 C 0.13236 0.21014 0.55443
 C1249 C 0.14211 0.22177 0.57040
 C1250 C 0.12997 0.23270 0.58507
 H1251 H 0.06889 0.24404 0.64752
 H1252 H 0.04416 0.26446 0.66865
 H1253 H 0.04455 0.31319 0.62130
 H1254 H 0.06923 0.29251 0.60056
 H1255 H 0.08128 0.21956 0.56712
 H1256 H 0.10260 0.20029 0.54137
 H1257 H 0.15907 0.22262 0.57127
 H1258 H 0.13767 0.24188 0.59711
 C1259 C 0.07095 0.73307 0.37689
 C1260 C 0.06406 0.71352 0.38404
 C1261 C 0.04991 0.70174 0.37213
 C1262 C 0.04234 0.70939 0.35281
 C1263 C 0.04973 0.72897 0.34559
 C1264 C 0.06389 0.74071 0.35759
 C1265 C 0.08457 0.74557 0.38987
 C1266 C 0.09557 0.75587 0.40131
 C1267 C 0.10818 0.76795 0.41562
 C1268 C 0.09840 0.77981 0.43130
 C1269 C 0.11048 0.79070 0.44598
 C1270 C 0.13249 0.78979 0.44516
 C1271 C 0.14226 0.77818 0.42919
 C1272 C 0.13013 0.76727 0.41449
 H1273 H 0.06940 0.70748 0.39898
 H1274 H 0.04471 0.68678 0.37827
 H1275 H 0.04436 0.73542 0.33084
 H1276 H 0.06910 0.75587 0.35194
 H1277 H 0.08143 0.78041 0.43235
 H1278 H 0.10272 0.79963 0.45817
 H1279 H 0.15922 0.77732 0.42837
 H1280 H 0.13786 0.75809 0.40246
 C1281 C 0.62264 0.92904 0.73354
 C1282 C 0.64178 0.93645 0.74137
 C1283 C 0.65384 0.95050 0.72959
 C1284 C 0.64683 0.95736 0.70982
 C1285 C 0.62772 0.94954 0.70197
 C1286 C 0.61572 0.93549 0.71376
 C1287 C 0.60958 0.91550 0.74604
 C1288 C 0.59810 0.90456 0.75634
 C1289 C 0.58376 0.89199 0.76842
 C1290 C 0.58489 0.87005 0.76776
 C1291 C 0.57020 0.85795 0.77870
 C1292 C 0.55424 0.86773 0.79032
 C1293 C 0.55341 0.88973 0.79120
 C1294 C 0.56808 0.90179 0.78027
 H1295 H 0.64725 0.93159 0.75670
 H1296 H 0.66846 0.95624 0.73608
 H1297 H 0.62187 0.95448 0.68682
 H1298 H 0.60090 0.92990 0.70757
 H1299 H 0.59693 0.86231 0.75859
 H1300 H 0.57103 0.84099 0.77787
 H1301 H 0.54122 0.89751 0.80014
 H1302 H 0.56703 0.91875 0.78085
 C1303 C 0.37777 0.92815 0.26708
 C1304 C 0.35873 0.93554 0.25899
 C1305 C 0.34669 0.94988 0.27047
 C1306 C 0.35361 0.95703 0.29017
 C1307 C 0.37264 0.94927 0.29826
 C1308 C 0.38461 0.93494 0.28677
 C1309 C 0.39073 0.91417 0.25498
 C1310 C 0.40213 0.90278 0.24506
 C1311 C 0.41636 0.88960 0.23351
 C1312 C 0.41576 0.88924 0.21156
 C1313 C 0.43052 0.87747 0.20036
 C1314 C 0.44602 0.86603 0.21103
 C1315 C 0.44627 0.86610 0.23304
 C1316 C 0.43153 0.87786 0.24421
 H1317 H 0.35331 0.93042 0.24372
 H1318 H 0.33213 0.95557 0.26380
 H1319 H 0.37842 0.95443 0.31336
 H1320 H 0.39935 0.92935 0.29316
 H1321 H 0.40414 0.89833 0.20313
 H1322 H 0.43014 0.87760 0.18339
 H1323 H 0.45811 0.85731 0.24149
 H1324 H 0.43217 0.87808 0.26117
 C1325 C 0.62252 0.07189 0.26761
 C1326 C 0.61560 0.06514 0.28729
 C1327 C 0.62755 0.05086 0.29884
 C1328 C 0.64661 0.04309 0.29085
 C1329 C 0.65361 0.05020 0.27117
 C1330 C 0.64160 0.06449 0.25962
 C1331 C 0.60959 0.08583 0.25544
 C1332 C 0.59822 0.09718 0.24546
 C1333 C 0.58403 0.11033 0.23382
 C1334 C 0.58470 0.11061 0.21188
 C1335 C 0.56999 0.12236 0.20060
 C1336 C 0.55447 0.13387 0.21119
 C1337 C 0.55415 0.13387 0.23319
 C1338 C 0.56885 0.12213 0.24444
 H1339 H 0.60084 0.07073 0.29361
 H1340 H 0.62171 0.04573 0.31393
 H1341 H 0.66820 0.04451 0.26457
 H1342 H 0.64707 0.06958 0.24437
 H1343 H 0.59633 0.10148 0.20350
 H1344 H 0.57042 0.12218 0.18363
 H1345 H 0.54231 0.14271 0.24159
 H1346 H 0.56815 0.12197 0.26140
 C1347 C 0.37723 0.07187 0.73288
 C1348 C 0.35819 0.06450 0.74100
 C1349 C 0.34614 0.05014 0.72957
 C1350 C 0.35304 0.04293 0.70988
 C1351 C 0.37206 0.05068 0.70176
 C1352 C 0.38405 0.06503 0.71319
 C1353 C 0.39023 0.08586 0.74494
 C1354 C 0.40167 0.09725 0.75481
 C1355 C 0.41595 0.11043 0.76631
 C1356 C 0.41543 0.11081 0.78825
 C1357 C 0.43023 0.12259 0.79939
 C1358 C 0.44571 0.13402 0.78866
 C1359 C 0.44589 0.13392 0.76666
 C1360 C 0.43110 0.12215 0.75554
 H1361 H 0.35280 0.06966 0.75626
 H1362 H 0.33159 0.04446 0.73626
 H1363 H 0.37782 0.04548 0.68666
 H1364 H 0.39878 0.07060 0.70678
 H1365 H 0.40383 0.10174 0.79673
 H1366 H 0.42991 0.12249 0.81636
 H1367 H 0.45770 0.14269 0.75816
 H1368 H 0.43168 0.12191 0.73858
 C1369 C 0.62307 0.73250 0.07166
 C1370 C 0.61611 0.71284 0.06481
 C1371 C 0.62803 0.70130 0.05049
 C1372 C 0.64712 0.70930 0.04279
 C1373 C 0.65416 0.72896 0.04999
 C1374 C 0.64217 0.74050 0.06433
 C1375 C 0.61016 0.74465 0.08564
 C1376 C 0.59879 0.75460 0.09702
 C1377 C 0.58458 0.76618 0.11019
 C1378 C 0.56944 0.75547 0.12196
 C1379 C 0.55470 0.76667 0.13372
 C1380 C 0.55494 0.78870 0.13376
 C1381 C 0.57041 0.79938 0.12228
 C1382 C 0.58515 0.78816 0.11052
 H1383 H 0.60133 0.70652 0.07035
 H1384 H 0.62216 0.68623 0.04529
 H1385 H 0.66877 0.73557 0.04435
 H1386 H 0.64768 0.75573 0.06949
 H1387 H 0.56881 0.73848 0.12178
 H1388 H 0.54289 0.75820 0.14253
 H1389 H 0.57077 0.81637 0.12213
 H1390 H 0.59675 0.79660 0.10140
 C1391 C 0.37791 0.26751 0.07129
 C1392 C 0.38481 0.28722 0.06454
 C1393 C 0.37285 0.29877 0.05027
 C1394 C 0.35379 0.29073 0.04251
 C1395 C 0.34682 0.27102 0.04961
 C1396 C 0.35884 0.25948 0.06390
 C1397 C 0.39084 0.25536 0.08525
 C1398 C 0.40220 0.24541 0.09663
 C1399 C 0.41638 0.23380 0.10981
 C1400 C 0.41574 0.21183 0.11015
 C1401 C 0.43043 0.20059 0.12195
 C1402 C 0.44592 0.21124 0.13345
 C1403 C 0.44621 0.23328 0.13340
 C1404 C 0.43153 0.24449 0.12161
 H1405 H 0.39956 0.29357 0.07013
 H1406 H 0.37867 0.31388 0.04514
 H1407 H 0.33224 0.26439 0.04394
 H1408 H 0.35338 0.24421 0.06899
 H1409 H 0.40413 0.20341 0.10102
 H1410 H 0.43002 0.18360 0.12181
 H1411 H 0.45803 0.24172 0.14223
 H1412 H 0.43221 0.26148 0.12141
 C1413 C 0.62275 0.26755 0.92810
 C1414 C 0.61582 0.28723 0.93491
 C1415 C 0.62772 0.29874 0.94927
 C1416 C 0.64676 0.29070 0.95705
 C1417 C 0.65377 0.27101 0.94989
 C1418 C 0.64180 0.25950 0.93551
 C1419 C 0.60986 0.25542 0.91407
 C1420 C 0.59850 0.24549 0.90266
 C1421 C 0.58431 0.23392 0.88944
 C1422 C 0.56918 0.24465 0.87767
 C1423 C 0.55445 0.23347 0.86589
 C1424 C 0.55468 0.21144 0.86583
 C1425 C 0.57015 0.20075 0.87729
 C1426 C 0.58489 0.21195 0.88908
 H1427 H 0.60108 0.29358 0.92930
 H1428 H 0.62188 0.31383 0.95444
 H1429 H 0.66834 0.26438 0.95558
 H1430 H 0.64728 0.24425 0.93038
 H1431 H 0.56855 0.26164 0.87789
 H1432 H 0.54264 0.24194 0.85709
 H1433 H 0.57050 0.18375 0.87742
 H1434 H 0.59648 0.20350 0.89819
 C1435 C 0.37767 0.73314 0.92926
 C1436 C 0.35853 0.74101 0.93663
 C1437 C 0.34647 0.72924 0.95069
 C1438 C 0.35346 0.70946 0.95760
 C1439 C 0.37257 0.70158 0.94982
 C1440 C 0.38457 0.71335 0.93577
 C1441 C 0.39073 0.74563 0.91573
 C1442 C 0.40222 0.75593 0.90480
 C1443 C 0.41656 0.76801 0.89223
 C1444 C 0.41541 0.76736 0.87031
 C1445 C 0.43010 0.77832 0.85822
 C1446 C 0.44607 0.78995 0.86799
 C1447 C 0.44692 0.79083 0.88996
 C1448 C 0.43225 0.77989 0.90201
 H1449 H 0.35307 0.75634 0.93175
 H1450 H 0.33185 0.73576 0.95640
 H1451 H 0.37841 0.68642 0.95479
 H1452 H 0.39939 0.70714 0.93021
 H1453 H 0.40336 0.75817 0.86259
 H1454 H 0.42925 0.77748 0.84129
 H1455 H 0.45911 0.79979 0.89772
 H1456 H 0.43331 0.78047 0.91894
 C1457 C 0.73280 0.92820 0.37824
 C1458 C 0.71308 0.93500 0.38508
 C1459 C 0.70157 0.94930 0.37311
 C1460 C 0.70964 0.95702 0.35410
 C1461 C 0.72937 0.94986 0.34719
 C1462 C 0.74088 0.93555 0.35922
 C1463 C 0.74492 0.91423 0.39119
 C1464 C 0.75486 0.90286 0.40256
 C1465 C 0.76646 0.88968 0.41674
 C1466 C 0.75576 0.87792 0.43189
 C1467 C 0.76697 0.86612 0.44656
 C1468 C 0.78901 0.86603 0.44626
 C1469 C 0.79968 0.87750 0.43079
 C1470 C 0.78844 0.88930 0.41611
 H1471 H 0.70669 0.92945 0.39981
 H1472 H 0.68644 0.95447 0.37889
 H1473 H 0.73604 0.95551 0.33264
 H1474 H 0.75616 0.93041 0.35380
 H1475 H 0.73876 0.87815 0.43256
 H1476 H 0.75851 0.85732 0.45837
 H1477 H 0.81668 0.87761 0.43037
 H1478 H 0.79688 0.89840 0.40450
 C1479 C 0.26624 0.92822 0.62279
 C1480 C 0.28610 0.93471 0.61607
 C1481 C 0.29779 0.94879 0.62814
 C1482 C 0.28974 0.95662 0.64713
 C1483 C 0.26990 0.94972 0.65396
 C1484 C 0.25821 0.93563 0.64182
 C1485 C 0.25383 0.91470 0.60961
 C1486 C 0.24363 0.90379 0.59801
 C1487 C 0.23167 0.89127 0.58352
 C1488 C 0.23236 0.86932 0.58452
 C1489 C 0.22152 0.85728 0.56970
 C1490 C 0.20998 0.86713 0.55374
 C1491 C 0.20907 0.88913 0.55303
 C1492 C 0.21989 0.90113 0.56783
 H1493 H 0.29244 0.92912 0.60133
 H1494 H 0.31301 0.95376 0.62243
 H1495 H 0.26325 0.95547 0.66848
 H1496 H 0.24281 0.93075 0.64714
 H1497 H 0.24147 0.86154 0.59656
 H1498 H 0.22237 0.84032 0.57044
 H1499 H 0.20018 0.89695 0.54086
 H1500 H 0.21929 0.91809 0.56689
 C1501 C 0.26669 0.07145 0.37748
 C1502 C 0.25875 0.06416 0.35836
 C1503 C 0.27046 0.05008 0.34624
 C1504 C 0.29024 0.04308 0.35316
 C1505 C 0.29820 0.05079 0.37224
 C1506 C 0.28649 0.06486 0.38430
 C1507 C 0.25426 0.08498 0.39061
 C1508 C 0.24402 0.09590 0.40216
 C1509 C 0.23200 0.10845 0.41658
 C1510 C 0.22018 0.09861 0.43225
 C1511 C 0.20929 0.11063 0.44697
 C1512 C 0.21017 0.13263 0.44621
 C1513 C 0.22176 0.14246 0.43028
 C1514 C 0.23267 0.13040 0.41553
 H1515 H 0.24341 0.06911 0.35296
 H1516 H 0.26388 0.04443 0.33164
 H1517 H 0.31336 0.04574 0.37802
 H1518 H 0.29276 0.07036 0.39910
 H1519 H 0.21958 0.08165 0.43323
 H1520 H 0.20036 0.10283 0.45913
 H1521 H 0.22260 0.15941 0.42950
 H1522 H 0.24182 0.13816 0.40351
 C1523 C 0.73269 0.07182 0.62154
 C1524 C 0.71300 0.06487 0.61472
 C1525 C 0.70155 0.05059 0.62676
 C1526 C 0.70964 0.04303 0.64584
 C1527 C 0.72933 0.05033 0.65273
 C1528 C 0.74078 0.06462 0.64062
 C1529 C 0.74476 0.08577 0.60854
 C1530 C 0.75467 0.09714 0.59713
 C1531 C 0.76624 0.11030 0.58292
 C1532 C 0.75552 0.12204 0.56778
 C1533 C 0.76671 0.13382 0.55308
 C1534 C 0.78875 0.13390 0.55334
 C1535 C 0.79945 0.12245 0.56881
 C1536 C 0.78822 0.11067 0.58352
 H1537 H 0.70661 0.07031 0.59996
 H1538 H 0.68645 0.04531 0.62100
 H1539 H 0.73601 0.04481 0.66732
 H1540 H 0.75603 0.06986 0.64603
 H1541 H 0.73852 0.12182 0.56713
 H1542 H 0.75824 0.14261 0.54127
 H1543 H 0.81645 0.12233 0.56919
 H1544 H 0.79668 0.10158 0.59512
 C1545 C 0.92821 0.62204 0.26755
 C1546 C 0.93515 0.61515 0.28717
 C1547 C 0.94949 0.62714 0.29862
 C1548 C 0.95713 0.64623 0.29058
 C1549 C 0.94984 0.65319 0.27096
 C1550 C 0.93548 0.64113 0.25951
 C1551 C 0.91419 0.60908 0.25547
 C1552 C 0.90278 0.59770 0.24556
 C1553 C 0.88956 0.58351 0.23399
 C1554 C 0.88925 0.58408 0.21205
 C1555 C 0.87744 0.56937 0.20083
 C1556 C 0.86590 0.55393 0.21149
 C1557 C 0.86592 0.55370 0.23349
 C1558 C 0.87773 0.56841 0.24468
 H1559 H 0.92966 0.60037 0.29352
 H1560 H 0.95477 0.62133 0.31367
 H1561 H 0.95542 0.66779 0.26432
 H1562 H 0.93024 0.64659 0.24430
 H1563 H 0.89841 0.59566 0.20362
 H1564 H 0.87761 0.56972 0.18386
 H1565 H 0.85707 0.54192 0.24193
 H1566 H 0.87791 0.56779 0.26164
 C1567 C 0.92807 0.37773 0.73212
 C1568 C 0.93500 0.38466 0.71251
 C1569 C 0.94932 0.37268 0.70102
 C1570 C 0.95694 0.35356 0.70901
 C1571 C 0.94965 0.34656 0.72862
 C1572 C 0.93531 0.35860 0.74011
 C1573 C 0.91409 0.39068 0.74424
 C1574 C 0.90271 0.40204 0.75419
 C1575 C 0.88953 0.41622 0.76582
 C1576 C 0.87767 0.43134 0.75519
 C1577 C 0.86590 0.44603 0.76643
 C1578 C 0.86596 0.44578 0.78843
 C1579 C 0.87753 0.43033 0.79903
 C1580 C 0.88930 0.41563 0.78776
 H1581 H 0.92953 0.39946 0.70620
 H1582 H 0.95460 0.37852 0.68599
 H1583 H 0.95521 0.33194 0.73522
 H1584 H 0.93008 0.35312 0.75530
 H1585 H 0.87779 0.43198 0.73822
 H1586 H 0.85702 0.45783 0.75802
 H1587 H 0.87775 0.42996 0.81600
 H1588 H 0.89848 0.40405 0.79615
 C1589 C 0.07171 0.62194 0.73250
 C1590 C 0.06432 0.64102 0.74049
 C1591 C 0.05006 0.65305 0.72892
 C1592 C 0.04299 0.64609 0.70920
 C1593 C 0.05075 0.62702 0.70120
 C1594 C 0.06500 0.61506 0.71278
 C1595 C 0.08560 0.60898 0.74470
 C1596 C 0.09692 0.59760 0.75470
 C1597 C 0.11003 0.58339 0.76635
 C1598 C 0.11028 0.58404 0.78829
 C1599 C 0.12201 0.56933 0.79959
 C1600 C 0.13353 0.55382 0.78900
 C1601 C 0.13357 0.55351 0.76700
 C1602 C 0.12184 0.56820 0.75574
 H1603 H 0.06938 0.64647 0.75577
 H1604 H 0.04437 0.66763 0.73552
 H1605 H 0.04565 0.62121 0.68609
 H1606 H 0.07058 0.60030 0.70646
 H1607 H 0.10114 0.59568 0.79666
 H1608 H 0.12180 0.56976 0.81655
 H1609 H 0.14241 0.54167 0.75861
 H1610 H 0.12171 0.56751 0.73877
 C1611 C 0.07176 0.37769 0.26738
 C1612 C 0.06436 0.35864 0.25933
 C1613 C 0.05008 0.34659 0.27086
 C1614 C 0.04298 0.35352 0.29057
 C1615 C 0.05076 0.37256 0.29863
 C1616 C 0.06503 0.38454 0.28710
 C1617 C 0.08569 0.39066 0.25524
 C1618 C 0.09704 0.40206 0.24528
 C1619 C 0.11018 0.41628 0.23368
 C1620 C 0.11049 0.41563 0.21174
 C1621 C 0.12227 0.43034 0.20049
 C1622 C 0.13377 0.44585 0.21112
 C1623 C 0.13373 0.44616 0.23312
 C1624 C 0.12196 0.43146 0.24434
 H1625 H 0.06944 0.35322 0.24405
 H1626 H 0.04438 0.33203 0.26421
 H1627 H 0.04564 0.37834 0.31375
 H1628 H 0.07062 0.39928 0.29346
 H1629 H 0.10138 0.40400 0.20333
 H1630 H 0.12211 0.42992 0.18352
 H1631 H 0.14256 0.45800 0.24154
 H1632 H 0.12179 0.43214 0.26130
   
