data_POSCAR
  _audit_creation_date              2014-09-24
  _audit_creation_method            'ToBaCCo'
  _symmetry_space_group_name_H-M    'P1'
  _symmetry_Int_Tables_number       1
  _symmetry_cell_setting            triclinic
  loop_
  _symmetry_equiv_pos_as_xyz
 x,y,z
_cell_length_a 42.3201
_cell_length_b 43.2155
_cell_length_c 53.2855
_cell_angle_alpha 90.056700
_cell_angle_beta 89.909100
_cell_angle_gamma 89.995000
loop_
  _atom_site_label
  _atom_site_type_symbol
  _atom_site_fract_x
  _atom_site_fract_y
  _atom_site_fract_z
B1 B 0.25815 0.23449 0.27751
 B2 B 0.21981 0.23086 0.26989
 B3 B 0.23432 0.26586 0.27704
 B4 B 0.27175 0.26837 0.26590
 B5 B 0.27975 0.23406 0.25115
 B6 B 0.24729 0.21087 0.25385
 B7 B 0.23034 0.26177 0.22667
 B8 B 0.26876 0.26549 0.23457
 B9 B 0.25398 0.23052 0.22709
 B10 B 0.21672 0.22787 0.23831
 B11 B 0.20860 0.26198 0.25295
 B12 B 0.24098 0.28545 0.25058
 B13 B 0.73497 0.75940 0.27175
 B14 B 0.77205 0.76805 0.26262
 B15 B 0.76249 0.73128 0.26990
 B16 B 0.72528 0.72430 0.26000
 B17 B 0.71210 0.75727 0.24597
 B18 B 0.74105 0.78461 0.24799
 B19 B 0.76333 0.73663 0.21948
 B20 B 0.72627 0.72810 0.22839
 B21 B 0.73586 0.76479 0.22129
 B22 B 0.77303 0.77185 0.23129
 B23 B 0.78621 0.73870 0.24494
 B24 B 0.75702 0.71140 0.24323
 B25 B 0.74231 0.23240 -0.22619
 B26 B 0.72946 0.26838 -0.23221
 B27 B 0.76728 0.26272 -0.22386
 B28 B 0.77991 0.22900 -0.23666
 B29 B 0.74912 0.21412 -0.25336
 B30 B 0.71766 0.23869 -0.25057
 B31 B 0.76525 0.27001 -0.27400
 B32 B 0.77809 0.23404 -0.26806
 B33 B 0.74026 0.23959 -0.27631
 B34 B 0.72770 0.27334 -0.26360
 B35 B 0.75847 0.28827 -0.24682
 B36 B 0.78993 0.26366 -0.24960
 B37 B 0.26608 0.76556 -0.27364
 B38 B 0.22828 0.77138 -0.26523
 B39 B 0.24087 0.73532 -0.27113
 B40 B 0.27846 0.73183 -0.26085
 B41 B 0.28874 0.76655 -0.24796
 B42 B 0.25738 0.79127 -0.25075
 B43 B 0.23905 0.74297 -0.22100
 B44 B 0.27680 0.73707 -0.22946
 B45 B 0.26413 0.77318 -0.22353
 B46 B 0.22655 0.77665 -0.23386
 B47 B 0.21634 0.74196 -0.24662
 B48 B 0.24765 0.71722 -0.24392
 B49 B 1.23850 1.26696 0.72131
 B50 B 1.22577 1.23089 0.72726
 B51 B 1.26338 1.23666 0.71836
 B52 B 1.27630 1.27021 0.73120
 B53 B 1.24589 1.28493 0.74849
 B54 B 1.21434 1.26040 0.74600
 B55 B 1.26241 1.22880 0.76847
 B56 B 1.27516 1.26479 0.76255
 B57 B 1.23748 1.25925 0.77140
 B58 B 1.22464 1.22560 0.75866
 B59 B 1.25506 1.21085 0.74128
 B60 B 1.28654 1.23542 0.74369
 B61 B 0.75805 0.73503 0.77842
 B62 B 0.72034 0.72845 0.77031
 B63 B 0.73207 0.76469 0.77662
 B64 B 0.76941 0.76933 0.76606
 B65 B 0.78043 0.73522 0.75256
 B66 B 0.74978 0.70966 0.75521
 B67 B 0.72984 0.75818 0.72642
 B68 B 0.76752 0.76482 0.73465
 B69 B 0.75577 0.72857 0.72824
 B70 B 0.71837 0.72388 0.73885
 B71 B 0.70738 0.75801 0.75229
 B72 B 0.73804 0.78357 0.74967
 B73 B 1.24220 0.73203 0.27390
 B74 B 1.22928 0.76797 0.26787
 B75 B 1.26707 0.76243 0.27634
 B76 B 1.27985 0.72876 0.26359
 B77 B 1.24923 0.71378 0.24677
 B78 B 1.21768 0.73827 0.24943
 B79 B 1.26531 0.76974 0.22621
 B80 B 1.27824 0.73381 0.23221
 B81 B 1.24045 0.73925 0.22378
 B82 B 1.22768 0.77296 0.23648
 B83 B 1.25830 0.78798 0.25339
 B84 B 1.28985 0.76346 0.25070
 B85 B 0.76404 1.27244 0.27607
 B86 B 0.77658 1.23633 0.26994
 B87 B 0.73881 1.24232 0.27833
 B88 B 0.72650 1.27615 0.26563
 B89 B 0.75747 1.29081 0.24894
 B90 B 0.78873 1.26596 0.25168
 B91 B 0.74091 1.23510 0.22817
 B92 B 0.72837 1.27114 0.23422
 B93 B 0.76620 1.26530 0.22594
 B94 B 0.77840 1.23142 0.23854
 B95 B 0.74744 1.21674 0.25528
 B96 B 0.71623 1.24160 0.25262
 O97 O 0.46942 1.06557 0.02204
 O98 O 0.53221 0.95008 0.02302
 O99 O 0.43763 0.97195 0.01479
 O100 O 0.56380 1.04315 0.01275
 O101 O 0.47889 0.95620 0.03192
 O102 O 0.52308 1.06003 0.03012
 O103 O 0.55483 0.99296 0.03291
 O104 O 0.44731 1.02293 0.03341
 C105 C 0.45270 1.05073 0.03749
 C106 C 0.54924 0.96544 0.03786
 C107 C 0.44997 0.95847 0.03266
 C108 C 0.55197 1.05719 0.03060
 O109 O 0.53604 1.06218 -0.02170
 O110 O 0.46472 0.95157 -0.01955
 O111 O 0.44034 1.04695 -0.01158
 O112 O 0.56066 0.96704 -0.01161
 O113 O 0.51854 0.95350 -0.02866
 O114 O 0.48184 1.05999 -0.02984
 O115 O 0.55523 1.01767 -0.03157
 O116 O 0.44534 0.99555 -0.03037
 Co117 Co 0.50241 1.05708 0.00020
 Co118 Co 0.49877 0.95769 0.00161
 Co119 Co 0.44870 1.00911 0.00151
 Co120 Co 0.55259 1.00542 0.00067
 O121 O 0.50062 1.00732 0.00098
 C122 C 0.55196 1.04554 -0.03649
 C123 C 0.44875 0.96754 -0.03468
 C124 C 0.45280 1.05884 -0.03013
 C125 C 0.54756 0.95419 -0.02945
 O126 O 0.96759 0.56225 0.52326
 O127 O 1.03393 0.44916 0.52235
 O128 O 0.93898 0.46815 0.51236
 O129 O 1.06288 0.54341 0.51429
 O130 O 0.98005 0.45315 0.53014
 O131 O 1.02151 0.55811 0.53188
 O132 O 1.05482 0.49248 0.53337
 O133 O 0.94626 0.51849 0.53264
 C134 C 0.95057 0.54619 0.53772
 C135 C 1.05028 0.46462 0.53764
 C136 C 0.95106 0.45469 0.53034
 C137 C 1.05049 0.55628 0.53245
 O138 O 1.03520 0.56270 0.48005
 O139 O 0.96784 0.45022 0.47812
 O140 O 0.93966 0.54446 0.48842
 O141 O 1.06294 0.46803 0.48861
 O142 O 1.02182 0.45402 0.47038
 O143 O 0.98137 0.55948 0.47146
 O144 O 1.05593 0.51903 0.46949
 O145 O 0.94718 0.49404 0.46815
 Co146 Co 1.00140 0.55581 0.50161
 Co147 Co 1.00093 0.45645 0.50030
 Co148 Co 0.94913 0.50625 0.50044
 Co149 Co 1.05303 0.50576 0.50139
 O150 O 1.00111 0.50607 0.50093
 C151 C 1.05186 0.54694 0.46509
 C152 C 0.95152 0.46628 0.46324
 C153 C 0.95237 0.55818 0.47082
 C154 C 1.05084 0.45519 0.47034
 O155 O 1.02929 0.46658 0.04539
 O156 O 1.02986 0.53381 -0.04799
 O157 O 1.02225 0.43969 -0.03130
 O158 O 1.02176 0.56052 0.02872
 O159 O 1.04277 0.48097 -0.04420
 O160 O 1.04230 0.51927 0.04146
 O161 O 1.04416 0.55340 -0.01287
 O162 O 1.04414 0.44675 0.01047
 C163 C 1.04872 0.45047 0.03324
 C164 C 1.04900 0.55001 -0.03565
 C165 C 1.04413 0.45253 -0.04271
 C166 C 1.04371 0.54769 0.03998
 O167 O 0.97834 0.53424 0.04513
 O168 O 0.97895 0.46604 -0.04799
 O169 O 0.98596 0.44006 0.02890
 O170 O 0.98630 0.56011 -0.03166
 O171 O 0.96590 0.51875 -0.04435
 O172 O 0.96548 0.48153 0.04144
 O173 O 0.96382 0.55341 0.00998
 O174 O 0.96408 0.44660 -0.01294
 Co175 Co 1.00389 0.50038 0.03917
 Co176 Co 1.00435 0.49994 -0.04194
 Co177 Co 1.00411 0.44925 -0.00123
 Co178 Co 1.00401 0.55092 -0.00144
 O179 O 1.00410 0.50011 -0.00136
 C180 C 0.95897 0.55007 0.03276
 C181 C 0.95949 0.45008 -0.03575
 C182 C 0.96401 0.45310 0.04008
 C183 C 0.96425 0.54714 -0.04270
 O184 O 0.52856 0.96591 0.54630
 O185 O 0.52932 1.03440 0.45191
 O186 O 0.52580 0.94009 0.46939
 O187 O 0.52181 1.06006 0.52856
 O188 O 0.54481 0.98222 0.45653
 O189 O 0.54204 1.01891 0.54226
 O190 O 0.54371 1.05345 0.48702
 O191 O 0.54513 0.94698 0.51165
 C192 C 0.54853 0.95001 0.53459
 C193 C 0.54845 1.05050 0.46423
 C194 C 0.54754 0.95390 0.45844
 C195 C 0.54356 1.04731 0.54023
 O196 O 0.47849 1.03395 0.54539
 O197 O 0.48226 0.96443 0.45144
 O198 O 0.48587 0.93953 0.52840
 O199 O 0.48497 1.05886 0.46849
 O200 O 0.46649 1.01665 0.45541
 O201 O 0.46537 0.98098 0.54144
 O202 O 0.46348 1.05221 0.51014
 O203 O 0.46611 0.94570 0.48619
 Co204 Co 0.50374 0.99992 0.53952
 Co205 Co 0.50562 0.99946 0.45812
 Co206 Co 0.50560 0.94893 0.49886
 Co207 Co 0.50363 1.05031 0.49856
 O208 O 0.50466 0.99965 0.49877
 C209 C 0.45880 1.04924 0.53295
 C210 C 0.46232 0.94875 0.46331
 C211 C 0.46391 0.95255 0.53971
 C212 C 0.46367 1.04498 0.45714
 O213 O 1.05058 1.02883 0.48293
 O214 O 0.94307 1.03306 0.51584
 O215 O 0.98340 1.03184 0.45625
 O216 O 1.01047 1.03405 0.54205
 O217 O 0.93843 1.02139 0.47329
 O218 O 1.05474 1.01976 0.52577
 O219 O 0.95808 1.01140 0.54849
 O220 O 1.03449 1.00607 0.45107
 C221 C 1.04739 1.02907 0.46001
 C222 C 0.94642 1.03449 0.53872
 C223 C 0.95532 1.03881 0.45978
 C224 C 1.03896 1.03906 0.53841
 O225 O 1.04883 0.95526 0.51657
 O226 O 0.94027 0.95749 0.48523
 O227 O 1.00747 0.95212 0.45783
 O228 O 0.98192 0.95581 0.54387
 O229 O 0.93731 0.96915 0.52766
 O230 O 1.05264 0.96410 0.47371
 O231 O 1.03445 0.97880 0.54862
 O232 O 0.95625 0.97769 0.45214
 Co233 Co 1.04676 0.99212 0.49978
 Co234 Co 0.94473 0.99514 0.50048
 Co235 Co 0.99543 0.99207 0.45891
 Co236 Co 0.99620 0.99486 0.54118
 O237 O 0.99578 0.99353 0.50008
 C238 C 1.04613 0.95526 0.53953
 C239 C 0.94287 0.95573 0.46231
 C240 C 1.03579 0.94581 0.46098
 C241 C 0.95333 0.95066 0.54086
 O242 O 0.54830 0.53027 -0.01366
 O243 O 0.43942 0.52944 0.01719
 O244 O 0.48154 0.53511 -0.04079
 O245 O 0.50512 0.52916 0.04558
 O246 O 0.43623 0.52215 -0.02568
 O247 O 0.55024 0.51772 0.02889
 O248 O 0.45273 0.50469 0.04871
 O249 O 0.53306 0.51006 -0.04687
 C250 C 0.54560 0.53233 -0.03655
 C251 C 0.44146 0.52866 0.04016
 C252 C 0.45316 0.54115 -0.03764
 C253 C 0.53363 0.53518 0.04266
 O254 O 0.54685 0.45409 0.01618
 O255 O 0.43959 0.45684 -0.01805
 O256 O 0.50677 0.45574 -0.04414
 O257 O 0.47840 0.45031 0.04126
 O258 O 0.43426 0.46418 0.02466
 O259 O 0.55127 0.46636 -0.02624
 O260 O 0.53002 0.47427 0.04904
 O261 O 0.45523 0.48127 -0.04908
 Co262 Co 0.54420 0.49216 0.00120
 Co263 Co 0.44222 0.49311 -0.00039
 Co264 Co 0.49398 0.49527 -0.04066
 Co265 Co 0.49165 0.48990 0.04157
 O266 O 0.49301 0.49261 0.00044
 C267 C 0.54306 0.45205 0.03899
 C268 C 0.44297 0.45756 -0.04092
 C269 C 0.53499 0.44918 -0.04045
 C270 C 0.45016 0.44473 0.03698
 C271 C 0.28880 1.20975 0.16109
 C272 C 0.29629 1.17849 0.16433
 C273 C 0.28661 1.16309 0.18602
 C274 C 0.27121 1.17921 0.20511
 C275 C 0.26536 1.21125 0.20295
 C276 C 0.27315 1.22595 0.18016
 C277 C 0.31642 1.16266 0.14679
 C278 C 0.33429 1.14882 0.13322
 C279 C 0.35586 1.13216 0.11824
 C280 C 0.37442 1.11771 0.10573
 C281 C 0.39633 1.10038 0.09063
 C282 C 0.39312 1.06826 0.08845
 C283 C 0.41270 1.05170 0.07212
 C284 C 0.43566 1.06717 0.05770
 C285 C 0.43964 1.09926 0.06088
 C286 C 0.42004 1.11575 0.07722
 H287 H 0.29617 1.22191 0.14431
 H288 H 0.29218 1.13884 0.18868
 H289 H 0.26533 1.16658 0.22199
 H290 H 0.26882 1.25037 0.17747
 H291 H 0.37489 1.05614 0.09883
 H292 H 0.40903 1.02702 0.07006
 H293 H 0.45712 1.11179 0.05005
 H294 H 0.42278 1.14060 0.07886
 C295 C 0.81627 0.69042 0.68273
 C296 C 0.79724 0.67165 0.66778
 C297 C 0.76440 0.67165 0.67126
 C298 C 0.75078 0.69028 0.68997
 C299 C 0.76992 0.70912 0.70527
 C300 C 0.80289 0.70874 0.70134
 C301 C 0.81249 0.65197 0.64971
 C302 C 0.82798 0.63644 0.63551
 C303 C 0.84836 0.61943 0.61975
 C304 C 0.86691 0.60577 0.60664
 C305 C 0.88968 0.59033 0.59098
 C306 C 0.91261 0.60764 0.57826
 C307 C 0.93364 0.59305 0.56183
 C308 C 0.93190 0.56092 0.55791
 C309 C 0.90960 0.54353 0.57157
 C310 C 0.88859 0.55820 0.58797
 H311 H 0.84170 0.69052 0.68028
 H312 H 0.74946 0.65696 0.65985
 H313 H 0.72550 0.68930 0.69280
 H314 H 0.81870 0.72249 0.71274
 H315 H 0.91375 0.63253 0.58059
 H316 H 0.95050 0.60704 0.55158
 H317 H 0.90764 0.51875 0.56892
 H318 H 0.87105 0.54458 0.59785
 C319 C 0.72491 0.82343 0.16618
 C320 C 0.69209 0.82281 0.16301
 C321 C 0.67380 0.80202 0.17682
 C322 C 0.68797 0.78269 0.19438
 C323 C 0.72090 0.78346 0.19832
 C324 C 0.73927 0.80387 0.18374
 C325 C 0.67639 0.84447 0.14682
 C326 C 0.66150 0.86217 0.13402
 C327 C 0.64252 0.88209 0.11953
 C328 C 0.62542 0.89825 0.10714
 C329 C 0.60440 0.91633 0.09189
 C330 C 0.57859 0.90194 0.08040
 C331 C 0.55956 0.91847 0.06377
 C332 C 0.56617 0.94966 0.05839
 C333 C 0.59128 0.96438 0.07092
 C334 C 0.61037 0.94773 0.08753
 H335 H 0.73927 0.83961 0.15563
 H336 H 0.64836 0.80141 0.17457
 H337 H 0.67281 0.76770 0.20533
 H338 H 0.76450 0.80570 0.18652
 H339 H 0.57371 0.87768 0.08374
 H340 H 0.54034 0.90655 0.05448
 H341 H 0.59698 0.98836 0.06709
 H342 H 0.63026 0.95909 0.09640
 C343 C 1.17852 0.30912 0.67800
 C344 C 1.19796 0.32799 0.66344
 C345 C 1.23083 0.32649 0.66625
 C346 C 1.24412 0.30640 0.68400
 C347 C 1.22459 0.28760 0.69904
 C348 C 1.19159 0.28932 0.69569
 C349 C 1.18319 0.34934 0.64647
 C350 C 1.16828 0.36638 0.63312
 C351 C 1.14865 0.38519 0.61822
 C352 C 1.13072 0.40027 0.60569
 C353 C 1.10862 0.41714 0.59050
 C354 C 1.11137 0.44922 0.58779
 C355 C 1.09113 0.46510 0.57157
 C356 C 1.06803 0.44895 0.55779
 C357 C 1.06459 0.41692 0.56149
 C358 C 1.08481 0.40114 0.57773
 H359 H 1.15305 0.31012 0.67602
 H360 H 1.24609 0.34120 0.65510
 H361 H 1.26949 0.30626 0.68637
 H362 H 1.17554 0.27559 0.70692
 H363 H 1.12964 0.46183 0.59769
 H364 H 1.09440 0.48977 0.56907
 H365 H 1.04703 0.40389 0.55117
 H366 H 1.08239 0.37631 0.57983
 C367 C 0.68296 1.19128 -0.18150
 C368 C 0.70259 1.17288 -0.16676
 C369 C 0.73542 1.17420 -0.17003
 C370 C 0.74846 1.19372 -0.18837
 C371 C 0.72873 1.21214 -0.20351
 C372 C 0.69577 1.21050 -0.19975
 C373 C 0.68800 1.15232 -0.14902
 C374 C 0.67307 1.13606 -0.13501
 C375 C 0.65324 1.11832 -0.11935
 C376 C 0.63504 1.10428 -0.10622
 C377 C 0.61248 1.08881 -0.09041
 C378 C 0.61407 1.05678 -0.08681
 C379 C 0.59319 1.04230 -0.07018
 C380 C 0.57059 1.05978 -0.05690
 C381 C 0.56839 1.09175 -0.06143
 C382 C 0.58923 1.10614 -0.07807
 H383 H 0.65752 1.19041 -0.17918
 H384 H 0.75084 1.15986 -0.15875
 H385 H 0.77379 1.19376 -0.19105
 H386 H 0.67955 1.22390 -0.21103
 H387 H 0.63187 1.04314 -0.09638
 H388 H 0.59551 1.01764 -0.06704
 H389 H 0.55125 1.10581 -0.05151
 H390 H 0.58770 1.13093 -0.08086
 C391 C 1.18264 0.69132 0.31865
 C392 C 1.20229 0.67414 0.33430
 C393 C 1.23516 0.67581 0.33137
 C394 C 1.24822 0.69460 0.31256
 C395 C 1.22849 0.71193 0.29661
 C396 C 1.19549 0.70982 0.29995
 C397 C 1.18767 0.65449 0.35268
 C398 C 1.17266 0.63891 0.36712
 C399 C 1.15276 0.62175 0.38310
 C400 C 1.13456 0.60791 0.39636
 C401 C 1.11216 0.59220 0.41213
 C402 C 1.08955 0.60929 0.42542
 C403 C 1.06875 0.59436 0.44180
 C404 C 1.07039 0.56213 0.44509
 C405 C 1.09238 0.54500 0.43089
 C406 C 1.11317 0.56000 0.41453
 H407 H 1.15718 0.69016 0.32070
 H408 H 1.25058 0.66237 0.34335
 H409 H 1.27360 0.69502 0.31024
 H410 H 1.17926 0.72247 0.28811
 H411 H 1.08846 0.63423 0.42354
 H412 H 1.05210 0.60815 0.45248
 H413 H 1.09426 0.52015 0.43304
 H414 H 1.13045 0.54656 0.40419
 C415 C 0.27053 0.83212 -0.16781
 C416 C 0.30335 0.83385 -0.16466
 C417 C 0.32317 0.81538 -0.17928
 C418 C 0.31053 0.79572 -0.19732
 C419 C 0.27760 0.79376 -0.20099
 C420 C 0.25770 0.81219 -0.18593
 C421 C 0.31760 0.85495 -0.14715
 C422 C 0.33198 0.87181 -0.13325
 C423 C 0.35096 0.89039 -0.11759
 C424 C 0.36840 0.90522 -0.10439
 C425 C 0.39008 0.92161 -0.08843
 C426 C 0.41362 0.90517 -0.07574
 C427 C 0.43372 0.92043 -0.05907
 C428 C 0.43050 0.95239 -0.05486
 C429 C 0.40755 0.96899 -0.06841
 C430 C 0.38740 0.95363 -0.08508
 H431 H 0.25497 0.84648 -0.15662
 H432 H 0.34859 0.81654 -0.17703
 H433 H 0.32684 0.78223 -0.20853
 H434 H 0.23236 0.81185 -0.18850
 H435 H 0.41600 0.88040 -0.07832
 H436 H 0.45118 0.90704 -0.04895
 H437 H 0.40446 0.99362 -0.06551
 H438 H 0.36935 0.96659 -0.09491
 C439 C 0.82350 0.31354 0.32060
 C440 C 0.80400 0.33274 0.33484
 C441 C 0.77119 0.33175 0.33147
 C442 C 0.75805 0.31185 0.31346
 C443 C 0.77766 0.29273 0.29872
 C444 C 0.81059 0.29394 0.30265
 C445 C 0.81867 0.35393 0.35207
 C446 C 0.83350 0.37079 0.36566
 C447 C 0.85305 0.38934 0.38091
 C448 C 0.87092 0.40414 0.39376
 C449 C 0.89300 0.42057 0.40933
 C450 C 0.89006 0.45251 0.41297
 C451 C 0.91032 0.46786 0.42955
 C452 C 0.93364 0.45132 0.44275
 C453 C 0.93724 0.41948 0.43814
 C454 C 0.91701 0.40423 0.42155
 H455 H 0.84893 0.31415 0.32300
 H456 H 0.75587 0.34672 0.34236
 H457 H 0.73276 0.31214 0.31064
 H458 H 0.82672 0.27998 0.29165
 H459 H 0.87164 0.46539 0.40351
 H460 H 0.90691 0.49239 0.43276
 H461 H 0.95497 0.40614 0.44800
 H462 H 0.91959 0.37952 0.41875
 C463 C 1.19077 0.27295 0.16047
 C464 C 1.18626 0.30508 0.15982
 C465 C 1.19516 0.32298 0.18044
 C466 C 1.20883 0.30917 0.20140
 C467 C 1.21473 0.27705 0.20211
 C468 C 1.20460 0.25899 0.18158
 C469 C 1.17146 0.32029 0.13877
 C470 C 1.15884 0.33503 0.12233
 C471 C 1.14358 0.35406 0.10443
 C472 C 1.12990 0.37137 0.09033
 C473 C 1.11246 0.39293 0.07496
 C474 C 1.09832 0.41870 0.08626
 C475 C 1.07888 0.43832 0.07230
 C476 C 1.07323 0.43250 0.04672
 C477 C 1.08862 0.40733 0.03516
 C478 C 1.10804 0.38760 0.04925
 H479 H 1.18336 0.25869 0.14483
 H480 H 1.19119 0.34775 0.18047
 H481 H 1.21436 0.32397 0.21716
 H482 H 1.20720 0.23409 0.18184
 H483 H 1.10158 0.42315 0.10611
 H484 H 1.06745 0.45752 0.08174
 H485 H 1.08461 0.40215 0.01553
 H486 H 1.11884 0.36774 0.04026
 C487 C 0.70537 0.81724 0.67451
 C488 C 0.68509 0.79999 0.65933
 C489 C 0.67972 0.76870 0.66487
 C490 C 0.69441 0.75492 0.68571
 C491 C 0.71469 0.77227 0.70124
 C492 C 0.71979 0.80370 0.69525
 C493 C 0.66876 0.81560 0.63920
 C494 C 0.65546 0.83078 0.62337
 C495 C 0.63996 0.85040 0.60601
 C496 C 0.62643 0.86820 0.59222
 C497 C 0.60948 0.89031 0.57700
 C498 C 0.59421 0.91524 0.58863
 C499 C 0.57568 0.93558 0.57456
 C500 C 0.57207 0.93133 0.54854
 C501 C 0.58853 0.90698 0.53676
 C502 C 0.60705 0.88654 0.55095
 H503 H 0.70958 0.84150 0.67061
 H504 H 0.66375 0.75514 0.65342
 H505 H 0.68920 0.73100 0.68997
 H506 H 0.73483 0.81820 0.70670
 H507 H 0.59597 0.91851 0.60875
 H508 H 0.56336 0.95409 0.58419
 H509 H 0.58610 0.90299 0.51679
 H510 H 0.61879 0.86739 0.54169
 C511 C 1.21563 0.68439 -0.16842
 C512 C 1.19353 0.70093 -0.15432
 C513 C 1.18711 0.73186 -0.16045
 C514 C 1.20237 0.74589 -0.18094
 C515 C 1.22426 0.72913 -0.19556
 C516 C 1.23061 0.69816 -0.18885
 C517 C 1.17615 0.68483 -0.13497
 C518 C 1.16190 0.66933 -0.11985
 C519 C 1.14528 0.64945 -0.10333
 C520 C 1.13082 0.63154 -0.09023
 C521 C 1.11280 0.60944 -0.07576
 C522 C 1.10898 0.61300 -0.04979
 C523 C 1.08947 0.59265 -0.03635
 C524 C 1.07340 0.56858 -0.04880
 C525 C 1.07838 0.56452 -0.07470
 C526 C 1.09790 0.58479 -0.08804
 H527 H 1.22065 0.66040 -0.16407
 H528 H 1.16973 0.74485 -0.14984
 H529 H 1.19619 0.76941 -0.18578
 H530 H 1.24679 0.68406 -0.19967
 H531 H 1.12041 0.63193 -0.04004
 H532 H 1.08602 0.59648 -0.01644
 H533 H 1.06639 0.54624 -0.08483
 H534 H 1.10072 0.58170 -0.10810
 C535 C 0.71471 1.18366 0.33067
 C536 C 0.69326 1.20057 0.34512
 C537 C 0.68745 1.23169 0.33924
 C538 C 0.70268 1.24556 0.31867
 C539 C 0.72391 1.22845 0.30371
 C540 C 0.72967 1.19729 0.31016
 C541 C 0.67592 1.18474 0.36463
 C542 C 0.66163 1.16949 0.37989
 C543 C 0.64489 1.14989 0.39655
 C544 C 0.63030 1.13216 0.40974
 C545 C 0.61212 1.11019 0.42420
 C546 C 0.60812 1.11384 0.45015
 C547 C 0.58857 1.09350 0.46357
 C548 C 0.57264 1.06935 0.45111
 C549 C 0.57774 1.06525 0.42523
 C550 C 0.59730 1.08551 0.41192
 H551 H 0.71927 1.15953 0.33484
 H552 H 0.67060 1.24498 0.35013
 H553 H 0.69702 1.26928 0.31407
 H554 H 0.74542 1.18298 0.29912
 H555 H 0.61949 1.13281 0.45991
 H556 H 0.58502 1.09734 0.48347
 H557 H 0.56589 1.04689 0.41510
 H558 H 0.60026 1.08234 0.39188
 C559 C 0.79059 0.67784 0.16810
 C560 C 0.81034 0.69565 0.15289
 C561 C 0.81410 0.72728 0.15805
 C562 C 0.79847 0.74081 0.17862
 C563 C 0.77887 0.72286 0.19428
 C564 C 0.77524 0.69114 0.18860
 C565 C 0.82799 0.68037 0.13322
 C566 C 0.84261 0.66558 0.11782
 C567 C 0.85981 0.64651 0.10099
 C568 C 0.87483 0.62924 0.08767
 C569 C 0.89356 0.60782 0.07304
 C570 C 0.89780 0.61199 0.04716
 C571 C 0.91791 0.59224 0.03364
 C572 C 0.93416 0.56817 0.04590
 C573 C 0.92881 0.56353 0.07169
 C574 C 0.90870 0.58319 0.08511
 H575 H 0.78762 0.65333 0.16449
 H576 H 0.82962 0.74130 0.14656
 H577 H 0.80251 0.76502 0.18261
 H578 H 0.76079 0.67622 0.20019
 H579 H 0.88619 0.63092 0.03757
 H580 H 0.92164 0.59650 0.01383
 H581 H 0.94091 0.54522 0.08168
 H582 H 0.90557 0.57962 0.10508
 C583 C 0.31460 1.22631 0.65740
 C584 C 0.30843 1.19536 0.65116
 C585 C 0.28653 1.17857 0.66525
 C586 C 0.27156 1.19212 0.68582
 C587 C 0.27778 1.22308 0.69268
 C588 C 0.29938 1.24010 0.67802
 C589 C 0.32607 1.17955 0.63178
 C590 C 0.34077 1.16449 0.61662
 C591 C 0.35816 1.14526 0.60007
 C592 C 0.37342 1.12794 0.58698
 C593 C 0.39248 1.10656 0.57262
 C594 C 0.40824 1.08255 0.58501
 C595 C 0.42870 1.06302 0.57181
 C596 C 0.43377 1.06718 0.54594
 C597 C 0.41692 1.09060 0.53337
 C598 C 0.39647 1.11022 0.54667
 H599 H 0.33181 1.23949 0.64680
 H600 H 0.28170 1.15456 0.66080
 H601 H 0.25556 1.17789 0.69667
 H602 H 0.30543 1.26364 0.68293
 H603 H 0.40531 1.07939 0.60505
 H604 H 0.44125 1.04520 0.58203
 H605 H 0.42041 1.09446 0.51348
 H606 H 0.38438 1.12868 0.53684
 C607 C 0.79092 0.32123 -0.17119
 C608 C 0.81271 0.30445 -0.15702
 C609 C 0.81891 0.27349 -0.16323
 C610 C 0.80374 0.25964 -0.18381
 C611 C 0.78213 0.27658 -0.19847
 C612 C 0.77599 0.30761 -0.19172
 C613 C 0.82998 0.32020 -0.13743
 C614 C 0.84431 0.33517 -0.12200
 C615 C 0.86120 0.35426 -0.10504
 C616 C 0.87600 0.37146 -0.09155
 C617 C 0.89450 0.39276 -0.07667
 C618 C 0.89861 0.38820 -0.05084
 C619 C 0.91857 0.40780 -0.03709
 C620 C 0.93482 0.43210 -0.04908
 C621 C 0.92960 0.43712 -0.07483
 C622 C 0.90963 0.41762 -0.08847
 H623 H 0.78606 0.34525 -0.16678
 H624 H 0.83603 0.26031 -0.15258
 H625 H 0.80977 0.23607 -0.18866
 H626 H 0.75995 0.32178 -0.20255
 H627 H 0.88702 0.36908 -0.04145
 H628 H 0.92221 0.40324 -0.01732
 H629 H 0.94168 0.45563 -0.08462
 H630 H 0.90660 0.42149 -0.10841
 C631 C 0.31961 0.77344 0.33638
 C632 C 0.31308 0.80424 0.34282
 C633 C 0.29069 0.82081 0.32908
 C634 C 0.27548 0.80711 0.30871
 C635 C 0.28196 0.77624 0.30172
 C636 C 0.30419 0.75953 0.31596
 C637 C 0.33076 0.82008 0.36211
 C638 C 0.34551 0.83499 0.37730
 C639 C 0.36295 0.85390 0.39401
 C640 C 0.37823 0.87088 0.40733
 C641 C 0.39727 0.89183 0.42207
 C642 C 0.41379 0.91566 0.41004
 C643 C 0.43397 0.93493 0.42370
 C644 C 0.43799 0.93070 0.44967
 C645 C 0.42050 0.90737 0.46182
 C646 C 0.40032 0.88801 0.44807
 H647 H 0.33722 0.76045 0.34667
 H648 H 0.28560 0.84473 0.33367
 H649 H 0.25904 0.82114 0.29813
 H650 H 0.31057 0.73612 0.31086
 H651 H 0.41159 0.91893 0.38996
 H652 H 0.44702 0.95270 0.41379
 H653 H 0.42317 0.90346 0.48178
 H654 H 0.38764 0.86969 0.45762
 C655 C 1.15156 1.17875 0.29631
 C656 C 1.15581 1.18212 0.32224
 C657 C 1.17966 1.20124 0.33134
 C658 C 1.19949 1.21668 0.31478
 C659 C 1.19592 1.21354 0.28858
 C660 C 1.17148 1.19444 0.27953
 C661 C 1.13720 1.16509 0.34004
 C662 C 1.12337 1.15094 0.35610
 C663 C 1.10869 1.13397 0.37540
 C664 C 1.09679 1.11846 0.39160
 C665 C 1.08275 1.09815 0.40978
 C666 C 1.09134 1.09930 0.43519
 C667 C 1.07934 1.07730 0.45205
 C668 C 1.05901 1.05391 0.44343
 C669 C 1.05007 1.05357 0.41801
 C670 C 1.06179 1.07552 0.40138
 H671 H 1.13318 1.16376 0.28908
 H672 H 1.18332 1.20386 0.35136
 H673 H 1.21790 1.23081 0.32285
 H674 H 1.16794 1.19131 0.25958
 H675 H 1.10773 1.11673 0.44182
 H676 H 1.08652 1.07808 0.47154
 H677 H 1.03424 1.03603 0.41080
 H678 H 1.05506 1.07437 0.38178
 C679 C 0.65536 0.67335 -0.20185
 C680 C 0.65874 0.67877 -0.17604
 C681 C 0.68090 0.70010 -0.16756
 C682 C 0.69990 0.71577 -0.18454
 C683 C 0.69722 0.71068 -0.21062
 C684 C 0.67450 0.68929 -0.21909
 C685 C 0.64077 0.66209 -0.15762
 C686 C 0.62728 0.64881 -0.14090
 C687 C 0.61258 0.63334 -0.12078
 C688 C 0.60013 0.61932 -0.10395
 C689 C 0.58461 0.60086 -0.08524
 C690 C 0.59686 0.59776 -0.06089
 C691 C 0.58326 0.57655 -0.04409
 C692 C 0.55773 0.55813 -0.05184
 C693 C 0.54498 0.56249 -0.07593
 C694 C 0.55822 0.58373 -0.09242
 H695 H 0.63826 0.65668 -0.20860
 H696 H 0.68388 0.70435 -0.14765
 H697 H 0.71712 0.73153 -0.17683
 H698 H 0.67171 0.68460 -0.23893
 H699 H 0.61743 0.61092 -0.05522
 H700 H 0.59354 0.57350 -0.02566
 H701 H 0.52513 0.54888 -0.08235
 H702 H 0.54854 0.58594 -0.11115
 C703 C 0.84468 1.18073 0.70424
 C704 C 0.84162 1.18640 0.67846
 C705 C 0.81931 1.20757 0.66995
 C706 C 0.79976 1.22271 0.68689
 C707 C 0.80205 1.21726 0.71293
 C708 C 0.82503 1.19616 0.72143
 C709 C 0.85964 1.16965 0.66009
 C710 C 0.87298 1.15599 0.64347
 C711 C 0.88716 1.13977 0.62349
 C712 C 0.89883 1.12490 0.60676
 C713 C 0.91289 1.10525 0.58810
 C714 C 0.90114 1.10390 0.56350
 C715 C 0.91291 1.08174 0.54661
 C716 C 0.93609 1.06063 0.55451
 C717 C 0.94840 1.06310 0.57892
 C718 C 0.93697 1.08526 0.59552
 H719 H 0.86184 1.16413 0.71100
 H720 H 0.81651 1.21193 0.65005
 H721 H 0.78226 1.23815 0.67916
 H722 H 0.82754 1.19120 0.74123
 H723 H 0.88233 1.11926 0.55764
 H724 H 0.90305 1.08024 0.52791
 H725 H 0.96652 1.04742 0.58547
 H726 H 0.94621 1.08608 0.61447
 C727 C 0.32032 0.70698 0.17069
 C728 C 0.34237 0.68573 0.17950
 C729 C 0.34504 0.68025 0.20533
 C730 C 0.32526 0.69590 0.22226
 C731 C 0.30247 0.71701 0.21346
 C732 C 0.30058 0.72235 0.18738
 C733 C 0.36021 0.66832 0.16144
 C734 C 0.37329 0.65381 0.14518
 C735 C 0.38691 0.63629 0.12568
 C736 C 0.39771 0.62017 0.10937
 C737 C 0.41019 0.59892 0.09117
 C738 C 0.42693 0.57327 0.09977
 C739 C 0.43712 0.55078 0.08296
 C740 C 0.43087 0.55358 0.05714
 C741 C 0.41462 0.57979 0.04839
 C742 C 0.40415 0.60237 0.06543
 H743 H 0.31778 0.71115 0.15073
 H744 H 0.36196 0.66355 0.21232
 H745 H 0.32745 0.69101 0.24209
 H746 H 0.28323 0.73780 0.17946
 H747 H 0.43160 0.57030 0.11962
 H748 H 0.44971 0.53099 0.09033
 H749 H 0.40960 0.58251 0.02859
 H750 H 0.39099 0.62215 0.05863
 C751 C 1.18606 0.79673 0.67304
 C752 C 1.16254 0.81652 0.68176
 C753 C 1.15944 0.82211 0.70757
 C754 C 1.18010 0.80781 0.72457
 C755 C 1.20411 0.78791 0.71587
 C756 C 1.20657 0.78266 0.68979
 C757 C 1.14284 0.83157 0.66358
 C758 C 1.12801 0.84371 0.64705
 C759 C 1.11207 0.85808 0.62703
 C760 C 1.09901 0.87131 0.61011
 C761 C 1.08344 0.88901 0.59099
 C762 C 1.05874 0.90852 0.59807
 C763 C 1.04596 0.92909 0.58081
 C764 C 1.05756 0.93040 0.55609
 C765 C 1.08131 0.90964 0.54859
 C766 C 1.09441 0.88911 0.56611
 H767 H 1.18881 0.79237 0.65311
 H768 H 1.14129 0.83761 0.71449
 H769 H 1.17735 0.81249 0.74441
 H770 H 1.22457 0.76782 0.68195
 H771 H 1.05010 0.90866 0.61723
 H772 H 1.02745 0.94457 0.58706
 H773 H 1.09064 0.91029 0.52966
 H774 H 1.11368 0.87411 0.56051
 C775 C 0.68670 0.29682 0.17235
 C776 C 0.66311 0.31658 0.18099
 C777 C 0.65981 0.32210 0.20680
 C778 C 0.68033 0.30773 0.22388
 C779 C 0.70438 0.28783 0.21526
 C780 C 0.70706 0.28269 0.18918
 C781 C 0.64342 0.33145 0.16271
 C782 C 0.62857 0.34322 0.14601
 C783 C 0.61251 0.35693 0.12575
 C784 C 0.59916 0.36943 0.10860
 C785 C 0.58296 0.38607 0.08918
 C786 C 0.55497 0.40138 0.09529
 C787 C 0.54125 0.42154 0.07816
 C788 C 0.55521 0.42660 0.05456
 C789 C 0.58229 0.40975 0.04781
 C790 C 0.59630 0.38966 0.06522
 H791 H 0.68960 0.29249 0.15244
 H792 H 0.64158 0.33755 0.21366
 H793 H 0.67742 0.31233 0.24372
 H794 H 0.72510 0.26787 0.18138
 H795 H 0.54446 0.39879 0.11373
 H796 H 0.52024 0.43405 0.08378
 H797 H 0.59351 0.41342 0.02978
 H798 H 0.61811 0.37794 0.06038
 C799 C 0.83997 0.79110 0.30808
 C800 C 0.82810 0.81839 0.31858
 C801 C 0.80099 0.83205 0.30853
 C802 C 0.78456 0.81735 0.28919
 C803 C 0.79466 0.78835 0.28008
 C804 C 0.82358 0.77639 0.28873
 C805 C 0.84301 0.83177 0.34022
 C806 C 0.85523 0.84314 0.35841
 C807 C 0.86976 0.85730 0.37922
 C808 C 0.88285 0.87073 0.39605
 C809 C 0.89964 0.88886 0.41427
 C810 C 0.92556 0.90608 0.40610
 C811 C 0.94014 0.92690 0.42224
 C812 C 0.92918 0.93075 0.44696
 C813 C 0.90405 0.91234 0.45559
 C814 C 0.88912 0.89155 0.43917
 H815 H 0.86140 0.78072 0.31533
 H816 H 0.79186 0.85345 0.31628
 H817 H 0.76281 0.82775 0.28267
 H818 H 0.83312 0.75516 0.28123
 H819 H 0.93388 0.90421 0.38691
 H820 H 0.95961 0.94058 0.41513
 H821 H 0.89516 0.91498 0.47454
 H822 H 0.86893 0.87836 0.44563
 C823 C 0.34365 0.31623 -0.21063
 C824 C 0.34113 0.31023 -0.18485
 C825 C 0.31847 0.28958 -0.17609
 C826 C 0.29803 0.27525 -0.19274
 C827 C 0.29980 0.28100 -0.21877
 C828 C 0.32313 0.30158 -0.22755
 C829 C 0.35982 0.32638 -0.16665
 C830 C 0.37339 0.33957 -0.14997
 C831 C 0.38742 0.35534 -0.12976
 C832 C 0.39857 0.36996 -0.11273
 C833 C 0.41161 0.38952 -0.09362
 C834 C 0.40217 0.38704 -0.06844
 C835 C 0.41291 0.40865 -0.05072
 C836 C 0.43276 0.43298 -0.05830
 C837 C 0.44257 0.43460 -0.08351
 C838 C 0.43216 0.41303 -0.10095
 H839 H 0.36106 0.33250 -0.21756
 H840 H 0.31605 0.28503 -0.15617
 H841 H 0.28031 0.26022 -0.18479
 H842 H 0.32527 0.30671 -0.24736
 H843 H 0.38604 0.36893 -0.06265
 H844 H 0.40509 0.40690 -0.03141
 H845 H 0.45804 0.45287 -0.08995
 H846 H 0.43949 0.41521 -0.12037
 C847 C 1.21494 0.31927 -0.17673
 C848 C 1.19063 0.30440 -0.16381
 C849 C 1.18273 0.27384 -0.17013
 C850 C 1.19864 0.25861 -0.18976
 C851 C 1.22273 0.27374 -0.20331
 C852 C 1.23058 0.30433 -0.19632
 C853 C 1.17271 0.32182 -0.14550
 C854 C 1.15815 0.33801 -0.13101
 C855 C 1.14120 0.35805 -0.11476
 C856 C 1.12645 0.37533 -0.10126
 C857 C 1.10799 0.39553 -0.08530
 C858 C 1.10726 0.42760 -0.08946
 C859 C 1.08741 0.44664 -0.07500
 C860 C 1.06794 0.43372 -0.05634
 C861 C 1.06964 0.40166 -0.05184
 C862 C 1.08946 0.38278 -0.06619
 H863 H 1.22114 0.34298 -0.17225
 H864 H 1.16366 0.26214 -0.16044
 H865 H 1.19113 0.23555 -0.19495
 H866 H 1.24824 0.31738 -0.20650
 H867 H 1.12148 0.43778 -0.10422
 H868 H 1.08655 0.47121 -0.07893
 H869 H 1.05508 0.39101 -0.03752
 H870 H 1.08979 0.35808 -0.06273
 C871 C 0.72335 0.79518 0.33917
 C872 C 0.69244 0.80661 0.33761
 C873 C 0.67426 0.79989 0.31645
 C874 C 0.68722 0.78329 0.29645
 C875 C 0.71891 0.77305 0.29700
 C876 C 0.73637 0.77832 0.31914
 C877 C 0.67933 0.82647 0.35684
 C878 C 0.66693 0.84363 0.37186
 C879 C 0.65087 0.86388 0.38850
 C880 C 0.63590 0.88083 0.40213
 C881 C 0.61640 0.90020 0.41798
 C882 C 0.61408 0.93215 0.41371
 C883 C 0.59259 0.95014 0.42754
 C884 C 0.57297 0.93626 0.44565
 C885 C 0.57628 0.90438 0.45037
 C886 C 0.59778 0.88654 0.43665
 H887 H 0.73768 0.80000 0.35554
 H888 H 0.65022 0.80833 0.31504
 H889 H 0.67241 0.77962 0.28020
 H890 H 0.76055 0.77054 0.32072
 H891 H 0.62825 0.94301 0.39924
 H892 H 0.59053 0.97461 0.42347
 H893 H 0.56166 0.89302 0.46428
 H894 H 0.59923 0.86189 0.44013
 C895 C 0.78494 0.67505 -0.17127
 C896 C 0.80780 0.69132 -0.15783
 C897 C 0.81328 0.72261 -0.16331
 C898 C 0.79644 0.73724 -0.18266
 C899 C 0.77393 0.72073 -0.19678
 C900 C 0.76840 0.68942 -0.19059
 C901 C 0.82685 0.67470 -0.13989
 C902 C 0.84255 0.65909 -0.12583
 C903 C 0.86092 0.63965 -0.11023
 C904 C 0.87694 0.62280 -0.09740
 C905 C 0.89692 0.60305 -0.08241
 C906 C 0.91676 0.61624 -0.06439
 C907 C 0.93791 0.59775 -0.05103
 C908 C 0.93962 0.56567 -0.05547
 C909 C 0.91894 0.55233 -0.07305
 C910 C 0.89777 0.57098 -0.08651
 H911 H 0.78059 0.65081 -0.16739
 H912 H 0.83118 0.73541 -0.15315
 H913 H 0.80198 0.76104 -0.18713
 H914 H 0.75178 0.67550 -0.20110
 H915 H 0.91635 0.64097 -0.06101
 H916 H 0.95338 0.60870 -0.03750
 H917 H 0.91975 0.52772 -0.07688
 H918 H 0.88254 0.56049 -0.10045
 C919 C 0.31295 1.21775 0.33529
 C920 C 0.30659 1.18641 0.33990
 C921 C 0.28327 1.17136 0.32597
 C922 C 0.26713 1.18705 0.30706
 C923 C 0.27366 1.21841 0.30174
 C924 C 0.29661 1.23365 0.31635
 C925 C 0.32511 1.16880 0.35761
 C926 C 0.34060 1.15293 0.37164
 C927 C 0.35899 1.13367 0.38742
 C928 C 0.37516 1.11725 0.40053
 C929 C 0.39538 1.09825 0.41599
 C930 C 0.39765 1.06623 0.41197
 C931 C 0.41909 1.04842 0.42591
 C932 C 0.43864 1.06254 0.44392
 C933 C 0.43549 1.09453 0.44828
 C934 C 0.41407 1.11220 0.43443
 H935 H 0.33114 1.22964 0.34583
 H936 H 0.27818 1.14712 0.32923
 H937 H 0.24997 1.17418 0.29622
 H938 H 0.30282 1.25748 0.31262
 H939 H 0.38334 1.05515 0.39772
 H940 H 0.42102 1.02386 0.42213
 H941 H 0.45006 1.10608 0.46210
 H942 H 0.41257 1.13689 0.43776
 C943 C 1.21694 0.67911 0.17239
 C944 C 1.19322 0.69446 0.15919
 C945 C 1.18608 0.72530 0.16518
 C946 C 1.20212 0.74037 0.18477
 C947 C 1.22553 0.72475 0.19863
 C948 C 1.23270 0.69390 0.19195
 C949 C 1.17505 0.67728 0.14095
 C950 C 1.16019 0.66129 0.12658
 C951 C 1.14282 0.64147 0.11051
 C952 C 1.12767 0.62434 0.09721
 C953 C 1.10871 0.60432 0.08158
 C954 C 1.08964 0.61725 0.06292
 C955 C 1.06937 0.59850 0.04891
 C956 C 1.06775 0.56642 0.05332
 C957 C 1.08772 0.55334 0.07152
 C958 C 1.10801 0.57224 0.08563
 H959 H 1.22256 0.65521 0.16814
 H960 H 1.16750 0.73739 0.15524
 H961 H 1.19526 0.76373 0.18965
 H962 H 1.24995 0.68058 0.20229
 H963 H 1.08994 0.64197 0.05956
 H964 H 1.05444 0.60928 0.03493
 H965 H 1.08694 0.52874 0.07535
 H966 H 1.12264 0.56193 0.10004
 C967 C 0.71618 1.17947 0.67243
 C968 C 0.69245 1.19489 0.65930
 C969 C 0.68542 1.22575 0.66532
 C970 C 0.70160 1.24077 0.68486
 C971 C 0.72506 1.22509 0.69863
 C972 C 0.73208 1.19421 0.69194
 C973 C 0.67421 1.17778 0.64107
 C974 C 0.65932 1.16181 0.62670
 C975 C 0.64197 1.14195 0.61064
 C976 C 0.62689 1.12475 0.59736
 C977 C 0.60807 1.10454 0.58177
 C978 C 0.58935 1.11718 0.56277
 C979 C 0.56924 1.09824 0.54878
 C980 C 0.56745 1.06624 0.55355
 C981 C 0.58709 1.05344 0.57211
 C982 C 0.60721 1.07254 0.58620
 H983 H 0.72172 1.15556 0.66816
 H984 H 0.66683 1.23789 0.65543
 H985 H 0.69483 1.26414 0.68978
 H986 H 0.74936 1.18085 0.70222
 H987 H 0.58978 1.14184 0.55911
 H988 H 0.55457 1.10879 0.53452
 H989 H 0.58617 1.02892 0.57624
 H990 H 0.62158 1.06245 0.60088
 C991 C 0.79079 0.32502 0.17458
 C992 C 0.81417 0.30923 0.16125
 C993 C 0.82096 0.27836 0.16730
 C994 C 0.80482 0.26365 0.18702
 C995 C 0.78163 0.27964 0.20092
 C996 C 0.77492 0.31057 0.19425
 C997 C 0.83231 0.32594 0.14272
 C998 C 0.84718 0.34154 0.12806
 C999 C 0.86457 0.36091 0.11166
 C1000 C 0.87975 0.37769 0.09810
 C1001 C 0.89875 0.39735 0.08220
 C1002 C 0.91789 0.38403 0.06372
 C1003 C 0.93825 0.40247 0.04951
 C1004 C 0.93986 0.43463 0.05355
 C1005 C 0.91981 0.44810 0.07157
 C1006 C 0.89943 0.42951 0.08588
 H1007 H 0.78547 0.34896 0.17027
 H1008 H 0.83929 0.26596 0.15727
 H1009 H 0.81139 0.24024 0.19193
 H1010 H 0.75783 0.32414 0.20463
 H1011 H 0.91761 0.35924 0.06065
 H1012 H 0.95327 0.39142 0.03567
 H1013 H 0.92058 0.47277 0.07513
 H1014 H 0.88474 0.44011 0.10016
 C1015 C 0.29058 0.82490 0.67463
 C1016 C 0.31395 0.80901 0.66135
 C1017 C 0.32064 0.77814 0.66752
 C1018 C 0.30448 0.76357 0.68731
 C1019 C 0.28136 0.77969 0.70119
 C1020 C 0.27468 0.81058 0.69438
 C1021 C 0.33216 0.82558 0.64275
 C1022 C 0.34712 0.84103 0.62802
 C1023 C 0.36460 0.86024 0.61152
 C1024 C 0.37984 0.87691 0.59789
 C1025 C 0.39883 0.89656 0.58193
 C1026 C 0.41809 0.88326 0.56350
 C1027 C 0.43837 0.90175 0.54923
 C1028 C 0.43981 0.93395 0.55317
 C1029 C 0.41965 0.94737 0.57116
 C1030 C 0.39935 0.92874 0.58550
 H1031 H 0.28529 0.84882 0.67024
 H1032 H 0.33894 0.76564 0.65753
 H1033 H 0.31099 0.74017 0.69229
 H1034 H 0.25762 0.82424 0.70471
 H1035 H 0.41794 0.85845 0.56051
 H1036 H 0.45348 0.89072 0.53545
 H1037 H 0.42028 0.97205 0.57465
 H1038 H 0.38458 0.93934 0.59974
 C1039 C 0.27166 1.17786 -0.17099
 C1040 C 0.30455 1.17409 -0.17010
 C1041 C 0.32348 1.18730 -0.18861
 C1042 C 0.30994 1.20426 -0.20790
 C1043 C 0.27692 1.20864 -0.20914
 C1044 C 0.25786 1.19504 -0.19049
 C1045 C 0.31995 1.15697 -0.15051
 C1046 C 0.33543 1.14336 -0.13512
 C1047 C 0.35541 1.12812 -0.11796
 C1048 C 0.37302 1.11543 -0.10353
 C1049 C 0.39371 1.10035 -0.08599
 C1050 C 0.42651 1.10489 -0.08703
 C1051 C 0.44621 1.09096 -0.06918
 C1052 C 0.43312 1.07253 -0.05010
 C1053 C 0.40023 1.06772 -0.04959
 C1054 C 0.38072 1.08152 -0.06738
 H1055 H 0.25676 1.16762 -0.15670
 H1056 H 0.34894 1.18459 -0.18810
 H1057 H 0.32578 1.21434 -0.22158
 H1058 H 0.23246 1.19760 -0.19094
 H1059 H 0.43679 1.11945 -0.10143
 H1060 H 0.47145 1.09499 -0.07000
 H1061 H 0.38943 1.05349 -0.03523
 H1062 H 0.35542 1.07778 -0.06644
 C1063 C 0.82225 0.68409 0.31025
 C1064 C 0.80617 0.68023 0.33286
 C1065 C 0.77518 0.69130 0.33534
 C1066 C 0.76077 0.70697 0.31532
 C1067 C 0.77754 0.71249 0.29291
 C1068 C 0.80805 0.69964 0.29044
 C1069 C 0.82224 0.66474 0.35301
 C1070 C 0.83777 0.65164 0.36868
 C1071 C 0.85739 0.63613 0.38596
 C1072 C 0.87453 0.62263 0.40029
 C1073 C 0.89461 0.60609 0.41743
 C1074 C 0.92752 0.60994 0.41680
 C1075 C 0.94671 0.59398 0.43387
 C1076 C 0.93306 0.57412 0.45172
 C1077 C 0.90005 0.57012 0.45188
 C1078 C 0.88102 0.58598 0.43487
 H1079 H 0.84599 0.67512 0.30791
 H1080 H 0.76222 0.68784 0.35266
 H1081 H 0.73662 0.71474 0.31745
 H1082 H 0.82146 0.70167 0.27323
 H1083 H 0.93828 0.62540 0.40328
 H1084 H 0.97205 0.59747 0.43334
 H1085 H 0.88883 0.55487 0.46532
 H1086 H 0.85564 0.58271 0.43545
 C1087 C 0.73323 1.18181 0.16877
 C1088 C 0.70030 1.17955 0.16651
 C1089 C 0.68082 1.19502 0.18348
 C1090 C 0.69387 1.21251 0.20271
 C1091 C 0.72693 1.21526 0.20536
 C1092 C 0.74651 1.19957 0.18816
 C1093 C 0.68548 1.16130 0.14728
 C1094 C 0.67046 1.14675 0.13215
 C1095 C 0.65089 1.13048 0.11529
 C1096 C 0.63339 1.11701 0.10122
 C1097 C 0.61243 1.10115 0.08432
 C1098 C 0.57980 1.10673 0.08505
 C1099 C 0.55971 1.09202 0.06790
 C1100 C 0.57221 1.07170 0.04984
 C1101 C 0.60494 1.06587 0.04962
 C1102 C 0.62486 1.08050 0.06673
 H1103 H 0.74855 1.16976 0.15572
 H1104 H 0.65534 1.19346 0.18192
 H1105 H 0.67771 1.22412 0.21534
 H1106 H 0.77194 1.20071 0.18980
 H1107 H 0.56995 1.12269 0.09866
 H1108 H 0.53462 1.09689 0.06849
 H1109 H 0.61525 1.05020 0.03601
 H1110 H 0.65003 1.07595 0.06604
 C1111 C 1.23216 0.68130 0.66992
 C1112 C 1.19917 0.67916 0.66797
 C1113 C 1.18003 0.69499 0.68495
 C1114 C 1.19343 0.71268 0.70389
 C1115 C 1.22655 0.71529 0.70627
 C1116 C 1.24581 0.69928 0.68904
 C1117 C 1.18391 0.66070 0.64907
 C1118 C 1.16849 0.64604 0.63426
 C1119 C 1.14852 0.62967 0.61774
 C1120 C 1.13084 0.61608 0.60386
 C1121 C 1.10997 0.60000 0.58702
 C1122 C 1.07729 0.60549 0.58750
 C1123 C 1.05745 0.59073 0.57017
 C1124 C 1.07024 0.57052 0.55215
 C1125 C 1.10297 0.56470 0.55226
 C1126 C 1.12264 0.57933 0.56955
 H1127 H 1.24723 0.66899 0.65685
 H1128 H 1.15451 0.69354 0.68363
 H1129 H 1.17747 0.72453 0.71653
 H1130 H 1.27127 0.70035 0.69045
 H1131 H 1.06725 0.62147 0.60101
 H1132 H 1.03234 0.59560 0.57049
 H1133 H 1.11352 0.54910 0.53873
 H1134 H 1.14783 0.57484 0.56904
 C1135 C 0.67150 0.80360 -0.17833
 C1136 C 0.69070 0.82126 -0.16266
 C1137 C 0.72362 0.82027 -0.16552
 C1138 C 0.73719 0.80180 -0.18436
 C1139 C 0.71789 0.78419 -0.20045
 C1140 C 0.68483 0.78544 -0.19706
 C1141 C 0.67562 0.84082 -0.14441
 C1142 C 0.66063 0.85654 -0.13002
 C1143 C 0.64137 0.87427 -0.11390
 C1144 C 0.62439 0.88906 -0.10026
 C1145 C 0.60444 0.90655 -0.08364
 C1146 C 0.61820 0.92722 -0.06674
 C1147 C 0.59939 0.94315 -0.04957
 C1148 C 0.56646 0.93863 -0.04903
 C1149 C 0.55259 0.91844 -0.06651
 C1150 C 0.57157 0.90237 -0.08371
 H1151 H 0.64602 0.80419 -0.17631
 H1152 H 0.73870 0.83403 -0.15348
 H1153 H 0.76259 0.80183 -0.18660
 H1154 H 0.66892 0.77239 -0.20891
 H1155 H 0.64356 0.93069 -0.06656
 H1156 H 0.61074 0.95873 -0.03646
 H1157 H 0.52730 0.91457 -0.06648
 H1158 H 0.56071 0.88639 -0.09678
 C1159 C 1.22987 0.32082 0.33565
 C1160 C 1.19709 0.32273 0.33929
 C1161 C 1.17684 0.30572 0.32401
 C1162 C 1.18890 0.28739 0.30489
 C1163 C 1.22177 0.28517 0.30069
 C1164 C 1.24218 0.30210 0.31640
 C1165 C 1.18306 0.34271 0.35779
 C1166 C 1.16841 0.35870 0.37221
 C1167 C 1.14903 0.37657 0.38817
 C1168 C 1.13162 0.39132 0.40149
 C1169 C 1.11077 0.40859 0.41760
 C1170 C 1.07798 0.40407 0.41656
 C1171 C 1.05802 0.41983 0.43325
 C1172 C 1.07082 0.44009 0.45118
 C1173 C 1.10371 0.44499 0.45161
 C1174 C 1.12350 0.42934 0.43495
 H1175 H 1.24578 0.33411 0.34735
 H1176 H 1.15146 0.30706 0.32659
 H1177 H 1.17212 0.27508 0.29329
 H1178 H 1.26747 0.30150 0.31348
 H1179 H 1.06790 0.38803 0.40314
 H1180 H 1.03280 0.41566 0.43253
 H1181 H 1.11425 0.46061 0.46510
 H1182 H 1.14879 0.43308 0.43588
 C1183 C 0.27236 0.82498 0.16809
 C1184 C 0.30526 0.82757 0.16573
 C1185 C 0.32494 0.81133 0.18200
 C1186 C 0.31210 0.79288 0.20074
 C1187 C 0.27908 0.78996 0.20357
 C1188 C 0.25930 0.80625 0.18696
 C1189 C 0.31978 0.84717 0.14725
 C1190 C 0.33444 0.86293 0.13269
 C1191 C 0.35353 0.88063 0.11644
 C1192 C 0.37061 0.89528 0.10280
 C1193 C 0.39108 0.91241 0.08633
 C1194 C 0.42382 0.90746 0.08667
 C1195 C 0.44341 0.92306 0.06966
 C1196 C 0.43031 0.94360 0.05211
 C1197 C 0.39750 0.94893 0.05237
 C1198 C 0.37805 0.93343 0.06936
 H1199 H 0.25690 0.83761 0.15558
 H1200 H 0.35040 0.81315 0.18036
 H1201 H 0.32836 0.78084 0.21296
 H1202 H 0.23388 0.80494 0.18874
 H1203 H 0.43412 0.89122 0.09980
 H1204 H 0.46859 0.91854 0.06985
 H1205 H 0.38675 0.96476 0.03916
 H1206 H 0.35279 0.93747 0.06897
 C1207 C 0.77240 0.32430 0.66725
 C1208 C 0.80530 0.32687 0.66490
 C1209 C 0.82495 0.31111 0.68151
 C1210 C 0.81208 0.29311 0.70051
 C1211 C 0.77904 0.29014 0.70329
 C1212 C 0.75930 0.30602 0.68640
 C1213 C 0.81990 0.34581 0.64600
 C1214 C 0.83467 0.36098 0.63110
 C1215 C 0.85390 0.37802 0.61447
 C1216 C 0.87108 0.39214 0.60055
 C1217 C 0.89163 0.40875 0.58379
 C1218 C 0.92446 0.40456 0.58482
 C1219 C 0.94418 0.41993 0.56776
 C1220 C 0.93113 0.43951 0.54947
 C1221 C 0.89819 0.44396 0.54894
 C1222 C 0.87862 0.42868 0.56597
 H1223 H 0.75696 0.33656 0.65448
 H1224 H 0.85042 0.31290 0.67988
 H1225 H 0.82834 0.28134 0.71291
 H1226 H 0.73388 0.30467 0.68813
 H1227 H 0.93476 0.38916 0.59860
 H1228 H 0.96946 0.41613 0.56858
 H1229 H 0.88744 0.45904 0.53516
 H1230 H 0.85329 0.43215 0.56503
 C1231 C 1.18227 1.20341 0.66665
 C1232 C 1.16040 1.18228 0.67604
 C1233 C 1.15849 1.17698 0.70192
 C1234 C 1.17878 1.19271 0.71833
 C1235 C 1.20128 1.21381 0.70898
 C1236 C 1.20248 1.21894 0.68286
 C1237 C 1.14126 1.16538 0.65854
 C1238 C 1.12672 1.15167 0.64264
 C1239 C 1.11111 1.13578 0.62321
 C1240 C 1.09852 1.12187 0.60640
 C1241 C 1.08392 1.10438 0.58664
 C1242 C 1.05111 1.10507 0.58372
 C1243 C 1.03655 1.08518 0.56663
 C1244 C 1.05467 1.06421 0.55239
 C1245 C 1.08778 1.06500 0.55436
 C1246 C 1.10230 1.08494 0.57149
 H1247 H 1.18410 1.20755 0.64664
 H1248 H 1.14166 1.16048 0.70936
 H1249 H 1.17708 1.18799 0.73823
 H1250 H 1.21944 1.23459 0.67460
 H1251 H 1.03669 1.12012 0.59530
 H1252 H 1.01103 1.08527 0.56536
 H1253 H 1.10233 1.04911 0.54368
 H1254 H 1.12775 1.08432 0.57360
 C1255 C 0.66039 0.67109 0.20529
 C1256 C 0.66174 0.67521 0.17926
 C1257 C 0.68358 0.69575 0.16895
 C1258 C 0.70397 0.71219 0.18445
 C1259 C 0.70304 0.70851 0.21073
 C1260 C 0.68091 0.68765 0.22097
 C1261 C 0.64135 0.65833 0.16263
 C1262 C 0.62543 0.64474 0.14751
 C1263 C 0.60805 0.62907 0.12888
 C1264 C 0.59412 0.61542 0.11260
 C1265 C 0.57840 0.59831 0.09314
 C1266 C 0.59628 0.58320 0.07472
 C1267 C 0.58148 0.56391 0.05727
 C1268 C 0.54859 0.55945 0.05815
 C1269 C 0.53064 0.57594 0.07597
 C1270 C 0.54551 0.59519 0.09341
 H1271 H 0.64356 0.65511 0.21346
 H1272 H 0.68490 0.69907 0.14882
 H1273 H 0.72039 0.72790 0.17559
 H1274 H 0.67932 0.68411 0.24103
 H1275 H 0.62176 0.58554 0.07433
 H1276 H 0.59591 0.55156 0.04378
 H1277 H 0.50527 0.57300 0.07711
 H1278 H 0.53147 0.60684 0.10758
 C1279 C 1.18516 0.79415 0.32872
 C1280 C 1.16131 0.81309 0.31933
 C1281 C 1.15885 0.81799 0.29342
 C1282 C 1.18036 0.80382 0.27698
 C1283 C 1.20460 0.78467 0.28632
 C1284 C 1.20652 0.78014 0.31248
 C1285 C 1.14036 0.82786 0.33686
 C1286 C 1.12442 0.83976 0.35292
 C1287 C 1.10745 0.85363 0.37271
 C1288 C 1.09408 0.86600 0.38996
 C1289 C 1.07913 0.88200 0.41043
 C1290 C 1.04618 0.88371 0.41183
 C1291 C 1.03185 0.90283 0.42968
 C1292 C 1.05038 0.92064 0.44619
 C1293 C 1.08341 0.91722 0.44568
 C1294 C 1.09768 0.89805 0.42784
 H1295 H 1.18738 0.79029 0.34873
 H1296 H 1.14047 0.83279 0.28597
 H1297 H 1.17795 0.80791 0.25704
 H1298 H 1.22455 0.76570 0.32071
 H1299 H 1.03162 0.87131 0.39847
 H1300 H 1.00636 0.90486 0.42968
 H1301 H 1.09830 0.93061 0.45814
 H1302 H 1.12323 0.89681 0.42692
 C1303 C 0.68585 0.29548 -0.17139
 C1304 C 0.66248 0.31495 -0.18083
 C1305 C 0.66010 0.31977 -0.20674
 C1306 C 0.68122 0.30505 -0.22315
 C1307 C 0.70502 0.28540 -0.21378
 C1308 C 0.70685 0.28090 -0.18761
 C1309 C 0.64188 0.33036 -0.16340
 C1310 C 0.62605 0.34282 -0.14756
 C1311 C 0.60897 0.35732 -0.12813
 C1312 C 0.59531 0.37014 -0.11124
 C1313 C 0.57981 0.38645 -0.09121
 C1314 C 0.54686 0.38865 -0.09071
 C1315 C 0.53204 0.40761 -0.07302
 C1316 C 0.55008 0.42476 -0.05572
 C1317 C 0.58308 0.42105 -0.05547
 C1318 C 0.59784 0.40204 -0.07318
 H1319 H 0.68799 0.29167 -0.15137
 H1320 H 0.64208 0.33497 -0.21423
 H1321 H 0.67891 0.30917 -0.24309
 H1322 H 0.72459 0.26611 -0.17937
 H1323 H 0.53270 0.37662 -0.10455
 H1324 H 0.50658 0.40990 -0.07362
 H1325 H 0.59758 0.43394 -0.04240
 H1326 H 0.62339 0.40043 -0.07341
 C1327 C 0.84262 1.18120 0.29552
 C1328 C 0.84028 1.18613 0.32144
 C1329 C 0.81852 1.20743 0.33080
 C1330 C 0.79884 1.22349 0.31451
 C1331 C 0.80049 1.21871 0.28836
 C1332 C 0.82288 1.19745 0.27905
 C1333 C 0.85884 1.16866 0.33895
 C1334 C 0.87292 1.15442 0.35478
 C1335 C 0.88801 1.13787 0.37409
 C1336 C 0.90013 1.12340 0.39080
 C1337 C 0.91409 1.10529 0.41046
 C1338 C 0.89479 1.08849 0.42690
 C1339 C 0.90828 1.06809 0.44418
 C1340 C 0.94123 1.06420 0.44505
 C1341 C 0.96047 1.08243 0.42934
 C1342 C 0.94694 1.10279 0.41211
 H1343 H 0.85937 1.16458 0.28810
 H1344 H 0.81635 1.21129 0.35083
 H1345 H 0.78194 1.23925 0.32273
 H1346 H 0.82492 1.19298 0.25912
 H1347 H 0.86930 1.09033 0.42575
 H1348 H 0.89289 1.05435 0.45600
 H1349 H 0.98594 1.08005 0.42964
 H1350 H 0.96207 1.11575 0.39951
 C1351 C 0.31896 0.70939 -0.16830
 C1352 C 0.34062 0.68782 -0.17737
 C1353 C 0.34290 0.68235 -0.20323
 C1354 C 0.32317 0.69832 -0.21992
 C1355 C 0.30085 0.71984 -0.21088
 C1356 C 0.29930 0.72515 -0.18478
 C1357 C 0.35899 0.67057 -0.15956
 C1358 C 0.37278 0.65660 -0.14340
 C1359 C 0.38738 0.64039 -0.12363
 C1360 C 0.39898 0.62619 -0.10653
 C1361 C 0.41225 0.60828 -0.08642
 C1362 C 0.44491 0.60811 -0.08251
 C1363 C 0.45814 0.58772 -0.06514
 C1364 C 0.43883 0.56708 -0.05162
 C1365 C 0.40587 0.56880 -0.05452
 C1366 C 0.39268 0.58924 -0.07191
 H1367 H 0.31679 0.71365 -0.14832
 H1368 H 0.35955 0.66549 -0.21044
 H1369 H 0.32512 0.69342 -0.23978
 H1370 H 0.28238 0.74101 -0.17673
 H1371 H 0.46025 0.62286 -0.09357
 H1372 H 0.48357 0.58714 -0.06312
 H1373 H 0.39041 0.55320 -0.04441
 H1374 H 0.36734 0.58928 -0.07477
 C1375 C 0.83419 0.81946 0.70920
 C1376 C 0.83167 0.81480 0.68327
 C1377 C 0.80921 0.79434 0.67384
 C1378 C 0.78917 0.77863 0.69007
 C1379 C 0.79111 0.78294 0.71626
 C1380 C 0.81403 0.80357 0.72564
 C1381 C 0.85114 0.83130 0.66574
 C1382 C 0.86592 0.84443 0.64966
 C1383 C 0.88171 0.85939 0.62985
 C1384 C 0.89436 0.87238 0.61259
 C1385 C 0.90889 0.88868 0.59216
 C1386 C 0.94172 0.88811 0.58928
 C1387 C 0.95614 0.90684 0.57127
 C1388 C 0.93784 0.92650 0.55606
 C1389 C 0.90474 0.92554 0.55809
 C1390 C 0.89036 0.90677 0.57612
 H1391 H 0.85152 0.83543 0.71666
 H1392 H 0.80697 0.79065 0.65379
 H1393 H 0.77204 0.76320 0.68179
 H1394 H 0.81635 0.80761 0.74560
 H1395 H 0.95624 0.87408 0.60154
 H1396 H 0.98167 0.90692 0.57002
 H1397 H 0.89006 0.94043 0.54666
 H1398 H 0.86489 0.90725 0.57820
 C1399 C 0.30717 0.32620 0.18992
 C1400 C 0.33249 0.30950 0.17986
 C1401 C 0.33988 0.28030 0.18947
 C1402 C 0.32092 0.26714 0.20812
 C1403 C 0.29376 0.28271 0.21690
 C1404 C 0.28817 0.31305 0.20849
 C1405 C 0.34973 0.32191 0.15890
 C1406 C 0.36318 0.33285 0.14105
 C1407 C 0.37809 0.34665 0.12021
 C1408 C 0.39048 0.35962 0.10278
 C1409 C 0.40516 0.37681 0.08284
 C1410 C 0.43807 0.37688 0.08044
 C1411 C 0.45274 0.39755 0.06400
 C1412 C 0.43462 0.41859 0.04991
 C1413 C 0.40148 0.41690 0.05118
 C1414 C 0.38685 0.39619 0.06765
 H1415 H 0.30160 0.34910 0.18295
 H1416 H 0.35967 0.26729 0.18201
 H1417 H 0.32655 0.24404 0.21456
 H1418 H 0.26872 0.32652 0.21574
 H1419 H 0.45247 0.36200 0.09212
 H1420 H 0.47829 0.39810 0.06326
 H1421 H 0.38691 0.43280 0.04057
 H1422 H 0.36134 0.39637 0.06942
   
