data_POSCAR
  _audit_creation_date              2014-09-24
  _audit_creation_method            'ToBaCCo'
  _symmetry_space_group_name_H-M    'P1'
  _symmetry_Int_Tables_number       1
  _symmetry_cell_setting            triclinic
  loop_
  _symmetry_equiv_pos_as_xyz
 x,y,z
_cell_length_a 54.9343
_cell_length_b 54.8744
_cell_length_c 54.9138
_cell_angle_alpha 90.017800
_cell_angle_beta 90.071400
_cell_angle_gamma 90.038700
loop_
  _atom_site_label
  _atom_site_type_symbol
  _atom_site_fract_x
  _atom_site_fract_y
  _atom_site_fract_z
C1 C 0.30304 0.44741 0.91590
 C2 C 0.29246 0.42690 0.92695
 C3 C 0.30255 0.41664 0.94811
 C4 C 0.32330 0.42748 0.95851
 C5 C 0.33435 0.44803 0.94778
 C6 C 0.32378 0.45798 0.92660
 H7 H 0.27669 0.41845 0.91863
 H8 H 0.33124 0.41940 0.97466
 H9 H 0.33210 0.47363 0.91794
 C10 C 0.44724 0.83499 0.44756
 C11 C 0.42617 0.82434 0.45764
 C12 C 0.41522 0.80381 0.44688
 C13 C 0.42585 0.79357 0.42599
 C14 C 0.44689 0.80376 0.41559
 C15 C 0.45755 0.82428 0.42664
 H16 H 0.41784 0.83238 0.47359
 H17 H 0.41735 0.77797 0.41741
 H18 H 0.47362 0.83228 0.41849
 C19 C 0.94674 0.91568 0.80331
 C20 C 0.95741 0.92651 0.82394
 C21 C 0.94712 0.94737 0.83482
 C22 C 0.92609 0.95761 0.82424
 C23 C 0.91513 0.94705 0.80364
 C24 C 0.92573 0.92622 0.79322
 H25 H 0.97344 0.91823 0.83188
 H26 H 0.91777 0.97351 0.83242
 H27 H 0.91723 0.91780 0.77753
 C28 C 0.44707 -0.08400 0.30251
 C29 C 0.42603 -0.07342 0.29249
 C30 C 0.41561 -0.05246 0.30287
 C31 C 0.42681 -0.04183 0.32331
 C32 C 0.44787 -0.05210 0.33363
 C33 C 0.45797 -0.07305 0.32294
 H34 H 0.41735 -0.08193 0.27695
 H35 H 0.41871 -0.02589 0.33162
 H36 H 0.47399 -0.08127 0.33097
 C37 C 0.80281 0.30263 0.33346
 C38 C 0.82378 0.29232 0.32305
 C39 C 0.83490 0.30295 0.30260
 C40 C 0.82448 0.32395 0.29229
 C41 C 0.80353 0.33458 0.30240
 C42 C 0.79272 0.32363 0.32286
 H43 H 0.83187 0.27633 0.33129
 H44 H 0.83311 0.33244 0.27674
 H45 H 0.77677 0.33188 0.33096
 C46 C -0.19657 0.83604 0.80236
 C47 C -0.17559 0.82521 0.79231
 C48 C -0.16532 0.80412 0.80262
 C49 C -0.17657 0.79351 0.82298
 C50 C -0.19753 0.80386 0.83333
 C51 C -0.20750 0.82494 0.82276
 H52 H -0.16678 0.83356 0.77678
 H53 H -0.16860 0.77745 0.83121
 H54 H -0.22350 0.83306 0.83090
 C55 C 0.94730 0.33516 0.44654
 C56 C 0.92690 0.32385 0.45725
 C57 C 0.91650 0.30278 0.44701
 C58 C 0.92700 0.29268 0.42600
 C59 C 0.94737 0.30353 0.41497
 C60 C 0.95752 0.32457 0.42551
 H61 H 0.91864 0.33179 0.47329
 H62 H 0.91890 0.27665 0.41783
 H63 H 0.97306 0.33307 0.41686
 C64 C 0.44744 0.44708 0.83355
 C65 C 0.45749 0.42606 0.82297
 C66 C 0.44665 0.41512 0.80250
 C67 C 0.42569 0.42577 0.79236
 C68 C 0.41534 0.44682 0.80265
 C69 C 0.42650 0.45744 0.82310
 H70 H 0.47344 0.41780 0.83110
 H71 H 0.41703 0.41727 0.77681
 H72 H 0.41846 0.47345 0.83133
 C73 C 0.80098 0.91670 0.94820
 C74 C 0.82160 0.92779 0.95874
 C75 C 0.83233 0.94853 0.94823
 C76 C 0.82188 0.95858 0.92715
 C77 C 0.80126 0.94796 0.91629
 C78 C 0.79080 0.92724 0.92711
 H79 H 0.82984 0.91987 0.97482
 H80 H 0.83025 0.97433 0.91874
 H81 H 0.77509 0.91888 0.91858
 C82 C 0.30393 0.83606 0.30396
 C83 C 0.29346 0.82520 0.32472
 C84 C 0.30381 0.80437 0.33544
 C85 C 0.32469 0.79405 0.32490
 C86 C 0.33546 0.80444 0.30417
 C87 C 0.32483 0.82527 0.29373
 H88 H 0.27752 0.83330 0.33300
 H89 H 0.33294 0.77819 0.33322
 H90 H 0.33328 0.83342 0.27789
 C91 C 0.80346 0.41635 0.44755
 C92 C 0.79305 0.42684 0.42665
 C93 C 0.80364 0.44732 0.41552
 C94 C 0.82474 0.45756 0.42583
 C95 C 0.83562 0.44734 0.44672
 C96 C 0.82456 0.42687 0.45756
 H97 H 0.77700 0.41865 0.41863
 H98 H 0.83307 0.47316 0.41710
 H99 H 0.83273 0.41862 0.47350
 C100 C 0.94783 0.83425 -0.05230
 C101 C 0.92723 0.82314 -0.04180
 C102 C 0.91648 0.80242 -0.05237
 C103 C 0.92687 0.79243 -0.07349
 C104 C 0.94746 0.80308 -0.08431
 C105 C 0.95795 0.82377 -0.07343
 H106 H 0.91904 0.83101 -0.02569
 H107 H 0.91849 0.77669 -0.08194
 H108 H 0.97364 0.83214 -0.08192
 C109 C 0.30319 0.33420 0.80256
 C110 C 0.29246 0.32323 0.82305
 C111 C 0.30269 0.30233 0.83371
 C112 C 0.32372 0.29212 0.82331
 C113 C 0.33476 0.30276 0.80283
 C114 C 0.32421 0.32368 0.79248
 H115 H 0.27645 0.33139 0.83112
 H116 H 0.33191 0.27621 0.83160
 H117 H 0.33277 0.33219 0.77690
 C118 C 0.16774 0.55062 0.55037
 C119 C 0.17833 0.54009 0.57117
 C120 C 0.19911 0.55039 0.58204
 C121 C 0.20962 0.57121 0.57148
 C122 C 0.19936 0.58205 0.55067
 C123 C 0.17856 0.57145 0.54013
 H124 H 0.16990 0.52428 0.57941
 H125 H 0.22541 0.57947 0.57994
 H126 H 0.17030 0.57989 0.52433
 C127 C 0.58434 0.69706 0.05256
 C128 C 0.57383 0.67597 0.04249
 C129 C 0.55299 0.66537 0.05289
 C130 C 0.54240 0.67642 0.07339
 C131 C 0.55259 0.69751 0.08377
 C132 C 0.57344 0.70780 0.07307
 H133 H 0.58229 0.66740 0.02690
 H134 H 0.52654 0.66819 0.08170
 H135 H 0.58159 0.72386 0.08114
 C136 C 0.69786 0.19725 0.66587
 C137 C 0.67732 0.20781 0.67684
 C138 C 0.66707 0.19774 0.69801
 C139 C 0.67792 0.17703 0.70846
 C140 C 0.69848 0.16601 0.69780
 C141 C 0.70844 0.17656 0.67663
 H142 H 0.66886 0.22354 0.66847
 H143 H 0.66985 0.16910 0.72460
 H144 H 0.72411 0.16826 0.66803
 C145 C 1.08301 0.05124 0.19725
 C146 C 1.07282 0.04117 0.17601
 C147 C 1.05226 0.05174 0.16483
 C148 C 1.04165 0.07242 0.17575
 C149 C 1.05157 0.08278 0.19698
 C150 C 1.07210 0.07189 0.20768
 H151 H 1.08140 0.02543 0.16780
 H152 H 1.02600 0.08098 0.16735
 H153 H 1.08004 0.07995 0.22385
 C154 C 0.05269 0.16571 1.05306
 C155 C 0.04215 0.17674 1.07360
 C156 C 0.05257 0.19764 1.08431
 C157 C 0.07360 0.20775 1.07362
 C158 C 0.08441 0.19701 1.05305
 C159 C 0.07368 0.17613 1.04282
 H160 H 0.02612 0.16855 1.08164
 H161 H 0.08202 0.22368 1.08167
 H162 H 0.08209 0.16756 1.02719
 C163 C 0.16757 0.69909 0.69947
 C164 C 0.17839 0.67834 0.70986
 C165 C 0.19921 0.66773 0.69946
 C166 C 0.20950 0.67847 0.67864
 C167 C 0.19899 0.69921 0.66791
 C168 C 0.17817 0.70952 0.67863
 H169 H 0.17014 0.66998 0.72568
 H170 H 0.22531 0.67019 0.67030
 H171 H 0.16974 0.72526 0.67028
 C172 C 1.19899 0.16696 0.19845
 C173 C 1.20904 0.17747 0.17740
 C174 C 1.19846 0.19816 0.16664
 C175 C 1.17782 0.20863 0.17753
 C176 C 1.16746 0.19842 0.19858
 C177 C 1.17834 0.17774 0.20902
 H178 H 1.22472 0.16907 0.16894
 H179 H 1.16934 0.22434 0.16915
 H180 H 1.17027 0.16956 0.22503
 C181 C 0.66452 1.05442 0.55279
 C182 C 0.67564 1.04354 0.57321
 C183 C 0.69668 1.05358 0.58377
 C184 C 0.70697 1.07462 0.57344
 C185 C 0.69633 1.08597 0.55303
 C186 C 0.67526 1.07547 0.54271
 H187 H 0.66759 1.02749 0.58136
 H188 H 0.72304 1.08249 0.58175
 H189 H 0.66681 1.08410 0.52712
 C190 C 0.55172 0.55173 0.16661
 C191 C 0.54111 0.57240 0.17737
 C192 C 0.55115 0.58292 0.19846
 C193 C 0.57182 0.57218 0.20907
 C194 C 0.58274 0.55152 0.19863
 C195 C 0.57239 0.54130 0.17753
 H196 H 0.52540 0.58076 0.16888
 H197 H 0.57988 0.58037 0.22511
 H198 H 0.58088 0.52560 0.16917
 C199 C 0.66702 0.69875 0.19803
 C200 C 0.67803 0.67815 0.20851
 C201 C 0.69858 0.66731 0.19780
 C202 C 0.70838 0.67766 0.17654
 C203 C 0.69768 0.69827 0.16574
 C204 C 0.67714 0.70880 0.17677
 H205 H 0.67016 0.67010 0.22468
 H206 H 0.72399 0.66923 0.16799
 H207 H 0.66858 0.72445 0.16838
 C208 C 0.16377 0.05313 1.05296
 C209 C 0.17500 0.04219 1.07329
 C210 C 0.19614 0.05219 1.08373
 C211 C 0.20640 0.07320 1.07333
 C212 C 0.19564 0.08445 1.05303
 C213 C 0.17451 0.07415 1.04284
 H214 H 0.16694 0.02616 1.08148
 H215 H 0.22249 0.08120 1.08146
 H216 H 0.16606 0.08297 1.02735
 C217 C 0.58441 0.19784 0.55200
 C218 C 0.57346 0.20859 0.57248
 C219 C 0.55253 0.19834 0.58306
 C220 C 0.54231 0.17732 0.57259
 C221 C 0.55298 0.16625 0.55216
 C222 C 0.57387 0.17681 0.54185
 H223 H 0.58165 0.22458 0.58063
 H224 H 0.52641 0.16910 0.58084
 H225 H 0.58239 0.16820 0.52631
 C226 C 0.08203 0.55095 0.69940
 C227 C 0.07142 0.54041 0.67859
 C228 C 0.05061 0.55067 0.66776
 C229 C 0.04011 0.57149 0.67835
 C230 C 0.05040 0.58234 0.69915
 C231 C 0.07122 0.57177 0.70966
 H232 H 0.07983 0.52460 0.67035
 H233 H 0.02431 0.57973 0.66992
 H234 H 0.07948 0.58021 0.72546
 C235 C 0.66540 0.55351 0.05266
 C236 C 0.67596 0.57454 0.04255
 C237 C 0.69698 0.58499 0.05281
 C238 C 0.70768 0.57384 0.07322
 C239 C 0.69744 0.55281 0.08364
 C240 C 0.67643 0.54268 0.07307
 H241 H 0.66740 0.58318 0.02703
 H242 H 0.72368 0.58194 0.08144
 H243 H 0.66824 0.52667 0.08118
 C244 C 0.05073 0.69939 0.58205
 C245 C 0.04032 0.67849 0.57148
 C246 C 0.05067 0.66765 0.55073
 C247 C 0.07143 0.67832 0.54026
 C248 C 0.08215 0.69921 0.55051
 C249 C 0.07149 0.70974 0.57125
 H250 H 0.02455 0.67018 0.57989
 H251 H 0.07975 0.66988 0.52450
 H252 H 0.07984 0.72561 0.57949
 C253 C 0.55225 1.05265 0.66512
 C254 C 0.57277 1.04212 0.67634
 C255 C 0.58297 1.05224 0.69753
 C256 C 0.57211 1.07295 0.70790
 C257 C 0.55158 1.08396 0.69716
 C258 C 0.54164 1.07338 0.67595
 H259 H 0.58132 1.02633 0.66819
 H260 H 0.58017 1.08090 0.72407
 H261 H 0.52595 1.08176 0.66742
 C262 C 0.44868 0.33203 0.94846
 C263 C 0.45882 0.32169 0.92735
 C264 C 0.44833 0.30102 0.91642
 C265 C 0.42768 0.29040 0.92717
 C266 C 0.41723 0.30042 0.94827
 C267 C 0.42803 0.32109 0.95889
 H268 H 0.47451 0.33019 0.91899
 H269 H 0.41928 0.27470 0.91868
 H270 H 0.41990 0.32914 0.97494
 C271 C 0.94615 0.44573 0.33626
 C272 C 0.92530 0.45614 0.32550
 C273 C 0.91469 0.44592 0.30455
 C274 C 0.92544 0.42525 0.29399
 C275 C 0.94629 0.41456 0.30426
 C276 C 0.95661 0.42505 0.32523
 H277 H 0.91686 0.47192 0.33378
 H278 H 0.91722 0.41711 0.27802
 H279 H 0.97252 0.41665 0.33331
 C280 C 0.30304 0.94682 0.41554
 C281 C 0.29284 0.92593 0.42626
 C282 C 0.30309 0.91559 0.44733
 C283 C 0.32356 0.92674 0.45793
 C284 C 0.33406 0.94764 0.44753
 C285 C 0.32352 0.95765 0.42645
 H286 H 0.27727 0.91727 0.41778
 H287 H 0.33176 0.91871 0.47397
 H288 H 0.33169 0.97356 0.41814
 O289 O 0.18506 0.53147 0.74881
 O290 O 0.19308 0.52792 0.79050
 O291 O 0.24869 0.56483 0.71931
 O292 O 0.28887 0.55770 0.71871
 O293 O 0.21839 0.50113 0.68518
 O294 O 0.22019 0.45854 0.69415
 O295 O 0.31356 0.49832 0.78186
 O296 O 0.30687 0.53991 0.77708
 O297 O 0.25203 0.46825 0.81368
 O298 O 0.20804 0.46998 0.80538
 O299 O 0.28125 0.43610 0.75172
 O300 O 0.27955 0.44458 0.70798
 O301 O 0.31340 0.46901 0.75245
 O302 O 0.30445 0.47155 0.70740
 O303 O 0.25201 0.43586 0.78101
 O304 O 0.20718 0.44498 0.77847
 O305 O 0.28174 0.49716 0.81347
 O306 O 0.27371 0.54124 0.80571
 O307 O 0.18472 0.50168 0.71982
 O308 O 0.19367 0.45844 0.72173
 O309 O 0.24776 0.53042 0.68506
 O310 O 0.29171 0.52656 0.69479
 O311 O 0.21904 0.56471 0.74827
 O312 O 0.22469 0.55504 0.79211
 Zr313 Zr 0.22044 0.52946 0.76341
 O314 O 0.24175 0.50761 0.78665
 Zr315 Zr 0.26294 0.52926 0.72027
 O316 O 0.28630 0.50803 0.74204
 Zr317 Zr 0.22000 0.48653 0.72060
 O318 O 0.24172 0.46307 0.74183
 Zr319 Zr 0.27867 0.51366 0.77906
 O320 O 0.25750 0.53749 0.75735
 Zr321 Zr 0.23601 0.47061 0.77890
 O322 O 0.21233 0.49235 0.75765
 Zr323 Zr 0.27873 0.47098 0.73608
 O324 O 0.25698 0.49220 0.71228
 O325 O 0.22620 0.52334 0.72651
 O326 O 0.27292 0.47661 0.77307
 C327 C 0.17457 0.51902 0.73192
 C328 C 0.23148 0.57511 0.73139
 C329 C 0.23066 0.51816 0.67479
 C330 C 0.32356 0.48079 0.76999
 C331 C 0.26980 0.47981 0.82364
 C332 C 0.26953 0.42589 0.76918
 H333 H 0.23798 0.51159 0.80381
 H334 H 0.23780 0.44597 0.73776
 H335 H 0.21581 0.53378 0.71613
 H336 H 0.30343 0.51214 0.73837
 H337 H 0.29914 0.55539 0.77195
 H338 H 0.30171 0.55374 0.73069
 H339 H 0.20990 0.43378 0.76463
 H340 H 0.18556 0.45967 0.73777
 H341 H 0.28769 0.54053 0.81714
 H342 H 0.21171 0.56753 0.79071
 H343 H 0.26441 0.43489 0.70910
 H344 H 0.23647 0.45896 0.68645
 H345 H 0.18608 0.51130 0.78991
 H346 H 0.20956 0.48494 0.81531
 H347 H 0.28886 0.51152 0.68524
 H348 H 0.31582 0.48521 0.71044
 O349 O 0.18500 0.03091 0.24822
 O350 O 0.19280 0.02752 0.28999
 O351 O 0.24872 0.06433 0.21896
 O352 O 0.28890 0.05719 0.21831
 O353 O 0.21842 0.00055 0.18498
 O354 O 0.22061 -0.04208 0.19396
 O355 O 0.31344 -0.00165 0.28198
 O356 O 0.30659 0.03986 0.27702
 O357 O 0.25184 -0.03190 0.31362
 O358 O 0.20785 -0.03028 0.30512
 O359 O 0.28150 -0.06414 0.25206
 O360 O 0.28002 -0.05608 0.20838
 O361 O 0.31352 -0.03105 0.25266
 O362 O 0.30457 -0.02876 0.20746
 O363 O 0.25212 -0.06433 0.28121
 O364 O 0.20724 -0.05544 0.27831
 O365 O 0.28151 -0.00295 0.31343
 O366 O 0.27332 0.04114 0.30550
 O367 O 0.18483 0.00097 0.21938
 O368 O 0.19396 -0.04229 0.22155
 O369 O 0.24768 0.02995 0.18483
 O370 O 0.29177 0.02593 0.19460
 O371 O 0.21892 0.06424 0.24776
 O372 O 0.22432 0.05472 0.29167
 Zr373 Zr 0.22030 0.02904 0.26303
 O374 O 0.24157 0.00735 0.28645
 Zr375 Zr 0.26296 0.02877 0.22002
 O376 O 0.28629 0.00773 0.24200
 Zr377 Zr 0.22015 -0.01407 0.22038
 O378 O 0.24186 -0.03738 0.24178
 Zr379 Zr 0.27850 0.01349 0.27897
 O380 O 0.25736 0.03716 0.25706
 Zr381 Zr 0.23595 -0.02969 0.27878
 O382 O 0.21230 -0.00811 0.25737
 Zr383 Zr 0.27887 -0.02937 0.23616
 O384 O 0.25714 -0.00834 0.21216
 O385 O 0.22623 0.02278 0.22620
 O386 O 0.27288 -0.02359 0.27309
 C387 C 0.17463 0.01839 0.23131
 C388 C 0.23143 0.07461 0.23092
 C389 C 0.23051 0.01772 0.17462
 C390 C 0.32357 -0.01916 0.27019
 C391 C 0.26957 -0.02031 0.32359
 C392 C 0.26977 -0.07428 0.26957
 H393 H 0.23772 0.01138 0.30357
 H394 H 0.23803 -0.05451 0.23778
 H395 H 0.21584 0.03319 0.21580
 H396 H 0.30343 0.01188 0.23837
 H397 H 0.29883 0.05527 0.27176
 H398 H 0.30160 0.05342 0.23050
 H399 H 0.21012 -0.06675 0.26458
 H400 H 0.18573 -0.04097 0.23751
 H401 H 0.28722 0.04048 0.31702
 H402 H 0.21132 0.06718 0.29015
 H403 H 0.26469 -0.06550 0.20919
 H404 H 0.23689 -0.04151 0.18625
 H405 H 0.18584 0.01089 0.28941
 H406 H 0.20931 -0.01530 0.31504
 H407 H 0.28878 0.01099 0.18494
 H408 H 0.31596 -0.01513 0.21053
 O409 O 0.50137 0.68547 0.21870
 O410 O 0.45966 0.69339 0.22214
 O411 O 0.53130 0.74855 0.18548
 O412 O 0.52987 0.79224 0.19503
 O413 O 0.56498 0.71920 0.24874
 O414 O 0.55618 0.72112 0.29140
 O415 O 0.46808 0.81390 0.25176
 O416 O 0.47310 0.80790 0.21085
 O417 O 0.43658 0.75239 0.28183
 O418 O 0.44492 0.70825 0.27992
 O419 O 0.49821 0.78185 0.31397
 O420 O 0.54226 0.78003 0.30537
 O421 O 0.49761 0.81405 0.28095
 O422 O 0.54238 0.80546 0.27886
 O423 O 0.46908 0.75238 0.31414
 O424 O 0.47179 0.70752 0.30499
 O425 O 0.43665 0.78196 0.25279
 O426 O 0.44470 0.77402 0.20857
 O427 O 0.53043 0.68532 0.24842
 O428 O 0.52873 0.69437 0.29160
 O429 O 0.56504 0.74867 0.21953
 O430 O 0.55617 0.79158 0.22185
 O431 O 0.50195 0.71922 0.18542
 O432 O 0.45805 0.72497 0.19500
 Zr433 Zr 0.48674 0.72084 0.22060
 O434 O 0.46350 0.74209 0.24244
 Zr435 Zr 0.52976 0.76356 0.22077
 O436 O 0.50807 0.78674 0.24213
 Zr437 Zr 0.52963 0.72070 0.26352
 O438 O 0.50834 0.74228 0.28701
 Zr439 Zr 0.47109 0.77905 0.23637
 O440 O 0.49272 0.75792 0.21240
 Zr441 Zr 0.47131 0.73638 0.27941
 O442 O 0.49261 0.71279 0.25769
 Zr443 Zr 0.51398 0.77935 0.27915
 O444 O 0.53779 0.75778 0.25783
 O445 O 0.52359 0.72679 0.22676
 O446 O 0.47705 0.77335 0.27342
 C447 C 0.51831 0.67508 0.23112
 C448 C 0.51912 0.73138 0.17516
 C449 C 0.57531 0.73148 0.23168
 C450 C 0.47998 0.82406 0.26919
 C451 C 0.42659 0.77011 0.27026
 C452 C 0.48078 0.77002 0.32413
 H453 H 0.44635 0.73828 0.23844
 H454 H 0.51240 0.73836 0.30410
 H455 H 0.53400 0.71635 0.21643
 H456 H 0.51175 0.80387 0.23790
 H457 H 0.47777 0.80055 0.19509
 H458 H 0.51559 0.78979 0.18433
 H459 H 0.48560 0.71032 0.31622
 H460 H 0.51268 0.68624 0.29049
 H461 H 0.43322 0.78793 0.20929
 H462 H 0.45949 0.71198 0.18251
 H463 H 0.54075 0.76518 0.31545
 H464 H 0.56380 0.73747 0.29093
 H465 H 0.46025 0.68644 0.23875
 H466 H 0.43477 0.70994 0.26513
 H467 H 0.56414 0.79053 0.23799
 H468 H 0.53985 0.81619 0.26461
 O469 O 0.06453 0.71856 0.74854
 O470 O 0.05659 0.72202 0.79024
 O471 O 0.00078 0.68530 0.71894
 O472 O -0.03944 0.69253 0.71851
 O473 O 0.03111 0.74893 0.68494
 O474 O 0.02935 0.79153 0.69392
 O475 O -0.06379 0.75204 0.78172
 O476 O -0.05727 0.71042 0.77683
 O477 O -0.00202 0.78185 0.81349
 O478 O 0.04195 0.77995 0.80510
 O479 O -0.03139 0.81413 0.75168
 O480 O -0.02979 0.80564 0.70781
 O481 O -0.06364 0.78134 0.75232
 O482 O -0.05490 0.77885 0.70731
 O483 O -0.00206 0.81423 0.78094
 O484 O 0.04273 0.80503 0.77827
 O485 O -0.03183 0.75304 0.81329
 O486 O -0.02402 0.70891 0.80542
 O487 O 0.06486 0.74836 0.71958
 O488 O 0.05598 0.79160 0.72147
 O489 O 0.00167 0.71970 0.68478
 O490 O -0.04224 0.72371 0.69451
 O491 O 0.03049 0.68536 0.74791
 O492 O 0.02493 0.69497 0.79176
 Zr493 Zr 0.02918 0.72059 0.76313
 O494 O 0.00801 0.74248 0.78641
 Zr495 Zr -0.01343 0.72091 0.72000
 O496 O -0.03667 0.74222 0.74182
 Zr497 Zr 0.02960 0.76355 0.72036
 O498 O 0.00803 0.78707 0.74165
 Zr499 Zr -0.02897 0.73655 0.77883
 O500 O -0.00792 0.71266 0.75708
 Zr501 Zr 0.01385 0.77946 0.77869
 O502 O 0.03739 0.75768 0.75739
 Zr503 Zr -0.02902 0.77926 0.73592
 O504 O -0.00742 0.75797 0.71207
 O505 O 0.02333 0.72675 0.72624
 O506 O -0.02310 0.77358 0.77288
 C507 C 0.07500 0.73101 0.73168
 C508 C 0.01802 0.67499 0.73101
 C509 C 0.01881 0.73191 0.67453
 C510 C -0.07377 0.76962 0.76989
 C511 C -0.01979 0.77035 0.82346
 C512 C -0.01960 0.82426 0.76918
 H513 H 0.01182 0.73847 0.80356
 H514 H 0.01198 0.80416 0.73761
 H515 H 0.03369 0.71630 0.71585
 H516 H -0.05383 0.73818 0.73816
 H517 H -0.04963 0.69492 0.77165
 H518 H -0.05231 0.69662 0.73038
 H519 H 0.03997 0.81628 0.76447
 H520 H 0.06412 0.79038 0.73752
 H521 H -0.03794 0.70967 0.81687
 H522 H 0.03788 0.68245 0.79035
 H523 H -0.01470 0.81541 0.70906
 H524 H 0.01304 0.79114 0.68624
 H525 H 0.06365 0.73861 0.78967
 H526 H 0.04035 0.76505 0.81510
 H527 H -0.03940 0.73878 0.68502
 H528 H -0.06619 0.76512 0.71024
 O529 O -0.00193 -0.03161 -0.06474
 O530 O 0.03989 -0.02796 -0.05688
 O531 O -0.03163 -0.06487 -0.00179
 O532 O -0.03020 -0.05535 0.04187
 O533 O -0.06531 -0.00141 -0.03100
 O534 O -0.05639 0.04123 -0.02915
 O535 O 0.03178 0.00157 0.06363
 O536 O 0.02671 -0.03936 0.05765
 O537 O 0.06317 0.03167 0.00212
 O538 O 0.05481 0.02980 -0.04191
 O539 O 0.00157 0.06376 0.03155
 O540 O -0.04252 0.05500 0.02976
 O541 O 0.00229 0.03076 0.06377
 O542 O -0.04246 0.02857 0.05526
 O543 O 0.03063 0.06398 0.00209
 O544 O 0.02788 0.05478 -0.04272
 O545 O 0.06319 0.00254 0.03160
 O546 O 0.05495 -0.04173 0.02375
 O547 O -0.03099 -0.00192 -0.06484
 O548 O -0.02894 0.04136 -0.05587
 O549 O -0.06540 -0.03072 -0.00165
 O550 O -0.05642 -0.02851 0.04127
 O551 O -0.00231 -0.06486 -0.03107
 O552 O 0.04157 -0.05521 -0.02537
 Zr553 Zr 0.01288 -0.02963 -0.02944
 O554 O 0.03618 -0.00778 -0.00816
 Zr555 Zr -0.03007 -0.02955 0.01326
 O556 O -0.00830 -0.00817 0.03645
 Zr557 Zr -0.02993 0.01329 -0.02954
 O558 O -0.00859 0.03679 -0.00794
 Zr559 Zr 0.02867 -0.01386 0.02879
 O560 O 0.00697 -0.03785 0.00763
 Zr561 Zr 0.02841 0.02921 -0.01386
 O562 O 0.00705 0.00748 -0.03747
 Zr563 Zr -0.01418 0.02889 0.02910
 O564 O -0.03804 0.00755 0.00751
 O565 O -0.02395 -0.02350 -0.02347
 O566 O 0.02274 0.02321 0.02309
 C567 C -0.01897 -0.01927 -0.07507
 C568 C -0.01946 -0.07516 -0.01893
 C569 C -0.07567 -0.01849 -0.01878
 C570 C 0.01993 0.01902 0.07378
 C571 C 0.07323 0.02004 0.01976
 C572 C 0.01895 0.07397 0.01970
 H573 H 0.05332 -0.01176 -0.01197
 H574 H -0.01266 0.05388 -0.01185
 H575 H -0.03441 -0.03386 -0.03387
 H576 H -0.01194 -0.01241 0.05357
 H577 H 0.02189 -0.05512 0.05034
 H578 H -0.01589 -0.06600 0.03946
 H579 H 0.01405 0.06597 -0.03997
 H580 H -0.01299 0.04009 -0.06413
 H581 H 0.06651 -0.04098 0.03761
 H582 H 0.04013 -0.06766 -0.03840
 H583 H -0.04095 0.06521 0.01500
 H584 H -0.06398 0.04079 -0.01281
 H585 H 0.03915 -0.01138 -0.06393
 H586 H 0.06479 0.01489 -0.04036
 H587 H -0.06434 -0.01234 0.04025
 H588 H -0.03995 0.01427 0.06593
 O589 O 0.06464 0.53129 0.50122
 O590 O 0.05673 0.52788 0.45953
 O591 O 0.00150 0.56445 0.53109
 O592 O -0.04206 0.55470 0.52977
 O593 O 0.03103 0.50109 0.56478
 O594 O 0.02921 0.45845 0.55589
 O595 O -0.06361 0.49793 0.46769
 O596 O -0.05770 0.53888 0.47282
 O597 O -0.00211 0.46799 0.43622
 O598 O 0.04198 0.47002 0.44463
 O599 O -0.03144 0.43573 0.49775
 O600 O -0.02962 0.44436 0.54187
 O601 O -0.06369 0.46868 0.49714
 O602 O -0.05513 0.47078 0.54194
 O603 O -0.00205 0.43567 0.46862
 O604 O 0.04276 0.44492 0.47148
 O605 O -0.03172 0.49697 0.43631
 O606 O -0.02386 0.54125 0.44445
 O607 O 0.06487 0.50149 0.53019
 O608 O 0.05587 0.45829 0.52846
 O609 O 0.00156 0.53026 0.56489
 O610 O -0.04131 0.52787 0.55595
 O611 O 0.03076 0.56458 0.50176
 O612 O 0.02512 0.55490 0.45786
 Zr613 Zr 0.02930 0.52934 0.48657
 O614 O 0.00810 0.50744 0.46324
 Zr615 Zr -0.01334 0.52904 0.52956
 O616 O -0.03647 0.50762 0.50777
 Zr617 Zr 0.02954 0.48636 0.52937
 O618 O 0.00802 0.46281 0.50800
 Zr619 Zr -0.02883 0.51341 0.47079
 O620 O -0.00776 0.53744 0.49252
 Zr621 Zr 0.01389 0.47045 0.47098
 O622 O 0.03741 0.49224 0.49237
 Zr623 Zr -0.02903 0.47057 0.51360
 O624 O -0.00751 0.49195 0.53750
 O625 O 0.02341 0.52316 0.52342
 O626 O -0.02305 0.47635 0.47668
 C627 C 0.07507 0.51881 0.51809
 C628 C 0.01854 0.57484 0.51887
 C629 C 0.01872 0.51809 0.57516
 C630 C -0.07372 0.48044 0.47951
 C631 C -0.01985 0.47952 0.42623
 C632 C -0.01963 0.42561 0.48029
 H633 H 0.01189 0.51145 0.44610
 H634 H 0.01197 0.44571 0.51204
 H635 H 0.03382 0.53353 0.53386
 H636 H -0.05359 0.51181 0.51143
 H637 H -0.05038 0.55468 0.47748
 H638 H -0.03977 0.56533 0.51541
 H639 H 0.03994 0.43361 0.48522
 H640 H 0.06396 0.45940 0.51241
 H641 H -0.03777 0.54049 0.43294
 H642 H 0.03805 0.56745 0.45933
 H643 H -0.01481 0.43425 0.54031
 H644 H 0.01286 0.45883 0.56345
 H645 H 0.06365 0.51124 0.46004
 H646 H 0.04024 0.48481 0.43449
 H647 H -0.04025 0.51169 0.56385
 H648 H -0.06585 0.48504 0.53944
 O649 O 0.43586 -0.00147 0.46857
 O650 O 0.44369 0.04033 0.47207
 O651 O 0.49941 -0.03090 0.43531
 O652 O 0.53972 -0.03132 0.44247
 O653 O 0.46923 -0.06485 0.49886
 O654 O 0.47144 -0.05595 0.54148
 O655 O 0.56414 0.03243 0.50159
 O656 O 0.55752 0.02720 0.46008
 O657 O 0.50253 0.06388 0.53148
 O658 O 0.45854 0.05531 0.52978
 O659 O 0.53207 0.00216 0.56395
 O660 O 0.53090 -0.04149 0.55563
 O661 O 0.56428 0.00313 0.53098
 O662 O 0.55555 -0.04219 0.52847
 O663 O 0.50271 0.03136 0.56400
 O664 O 0.45798 0.02859 0.55495
 O665 O 0.53212 0.06374 0.50252
 O666 O 0.52414 0.05562 0.45848
 O667 O 0.43565 -0.03036 0.49844
 O668 O 0.44481 -0.02832 0.54174
 O669 O 0.49855 -0.06501 0.46959
 O670 O 0.54259 -0.05526 0.47372
 O671 O 0.46966 -0.00200 0.43543
 O672 O 0.47521 0.04190 0.44488
 Zr673 Zr 0.47115 0.01329 0.47057
 O674 O 0.49236 0.03670 0.49230
 Zr675 Zr 0.51381 -0.02978 0.47086
 O676 O 0.53712 -0.00778 0.49200
 Zr677 Zr 0.47098 -0.02944 0.51357
 O678 O 0.49266 -0.00803 0.53693
 Zr679 Zr 0.52930 0.02920 0.48623
 O680 O 0.50819 0.00729 0.46251
 Zr681 Zr 0.48671 0.02900 0.52928
 O682 O 0.46309 0.00757 0.50765
 Zr683 Zr 0.52971 -0.01359 0.52906
 O684 O 0.50800 -0.03762 0.50794
 O685 O 0.47708 -0.02358 0.47679
 O686 O 0.52365 0.02335 0.52329
 C687 C 0.42547 -0.01839 0.48102
 C688 C 0.48207 -0.01892 0.42507
 C689 C 0.48133 -0.07522 0.48172
 C690 C 0.57427 0.02075 0.51917
 C691 C 0.52016 0.07390 0.51984
 C692 C 0.52024 0.01962 0.57407
 H693 H 0.48850 0.05383 0.48826
 H694 H 0.48880 -0.01206 0.55403
 H695 H 0.46668 -0.03398 0.46637
 H696 H 0.55427 -0.01138 0.48792
 H697 H 0.54984 0.02188 0.44464
 H698 H 0.55261 -0.01941 0.44651
 H699 H 0.46071 0.01468 0.56608
 H700 H 0.43650 -0.01237 0.54038
 H701 H 0.53802 0.06716 0.45915
 H702 H 0.46216 0.04043 0.43245
 H703 H 0.51548 -0.04085 0.56488
 H704 H 0.48769 -0.06371 0.54089
 H705 H 0.43662 0.03966 0.48863
 H706 H 0.46005 0.06530 0.51487
 H707 H 0.53969 -0.06480 0.48875
 H708 H 0.56698 -0.03903 0.51493
 O709 O 0.43530 0.49805 -0.03162
 O710 O 0.44310 0.53985 -0.02802
 O711 O 0.49836 0.46824 -0.06459
 O712 O 0.54197 0.46967 -0.05491
 O713 O 0.46896 0.43456 -0.00134
 O714 O 0.47074 0.44349 0.04130
 O715 O 0.56346 0.53184 0.00185
 O716 O 0.55761 0.52664 -0.03903
 O717 O 0.50196 0.56327 0.03168
 O718 O 0.45792 0.55483 0.02975
 O719 O 0.53128 0.50153 0.06403
 O720 O 0.52973 0.45754 0.05535
 O721 O 0.56360 0.50239 0.03109
 O722 O 0.55510 0.45746 0.02887
 O723 O 0.50185 0.53065 0.06411
 O724 O 0.45713 0.52799 0.05478
 O725 O 0.53145 0.56322 0.00263
 O726 O 0.52368 0.55489 -0.04158
 O727 O 0.43509 0.46903 -0.00187
 O728 O 0.44403 0.47095 0.04138
 O729 O 0.49841 0.43447 -0.03049
 O730 O 0.54129 0.44345 -0.02806
 O731 O 0.46911 0.49762 -0.06473
 O732 O 0.47467 0.54156 -0.05509
 Zr733 Zr 0.47058 0.51283 -0.02954
 O734 O 0.49176 0.53618 -0.00767
 Zr735 Zr 0.51329 0.46983 -0.02925
 O736 O 0.53641 0.49165 -0.00786
 Zr737 Zr 0.47039 0.46999 0.01338
 O738 O 0.49192 0.49139 0.03690
 Zr739 Zr 0.52870 0.52865 -0.01365
 O740 O 0.50764 0.50689 -0.03765
 Zr741 Zr 0.48601 0.52844 0.02929
 O742 O 0.46248 0.50702 0.00753
 Zr743 Zr 0.52898 0.48581 0.02915
 O744 O 0.50745 0.46188 0.00781
 O745 O 0.47654 0.47596 -0.02336
 O746 O 0.52296 0.52277 0.02340
 C747 C 0.42491 0.48107 -0.01926
 C748 C 0.48127 0.48044 -0.07495
 C749 C 0.48125 0.42419 -0.01835
 C750 C 0.57359 0.52004 0.01934
 C751 C 0.51958 0.57332 0.02005
 C752 C 0.51938 0.51890 0.07419
 H753 H 0.48794 0.55333 -0.01169
 H754 H 0.48797 0.48732 0.05397
 H755 H 0.46616 0.46549 -0.03373
 H756 H 0.55353 0.48802 -0.01204
 H757 H 0.55035 0.52183 -0.05480
 H758 H 0.53958 0.48397 -0.06560
 H759 H 0.45979 0.51406 0.06590
 H760 H 0.43581 0.48695 0.04013
 H761 H 0.53754 0.56645 -0.04085
 H762 H 0.46170 0.54008 -0.06760
 H763 H 0.51475 0.45885 0.06523
 H764 H 0.48705 0.43584 0.04086
 H765 H 0.43607 0.53918 -0.01145
 H766 H 0.45952 0.56485 0.01487
 H767 H 0.54023 0.43553 -0.01190
 H768 H 0.56594 0.46010 0.01474
 O769 O 0.78225 0.31454 0.49863
 O770 O 0.77874 0.30656 0.54044
 O771 O 0.81524 0.25091 0.46901
 O772 O 0.80806 0.21054 0.46884
 O773 O 0.75183 0.28124 0.43514
 O774 O 0.70921 0.27937 0.44403
 O775 O 0.74851 0.18612 0.53193
 O776 O 0.79012 0.19258 0.52701
 O777 O 0.71890 0.24790 0.56361
 O778 O 0.72092 0.29192 0.55530
 O779 O 0.68653 0.21876 0.50164
 O780 O 0.69512 0.22019 0.45786
 O781 O 0.71915 0.18635 0.50258
 O782 O 0.72177 0.19498 0.45753
 O783 O 0.68652 0.24807 0.53093
 O784 O 0.69592 0.29285 0.52839
 O785 O 0.74767 0.21810 0.56346
 O786 O 0.79176 0.22585 0.55558
 O787 O 0.75246 0.31489 0.46965
 O788 O 0.70921 0.30605 0.47160
 O789 O 0.78094 0.25173 0.43497
 O790 O 0.77685 0.20774 0.44467
 O791 O 0.81526 0.28060 0.49800
 O792 O 0.80582 0.27487 0.54189
 Zr793 Zr 0.78014 0.27917 0.51330
 O794 O 0.75826 0.25797 0.53657
 Zr795 Zr 0.77970 0.23653 0.47018
 O796 O 0.75840 0.21327 0.49199
 Zr797 Zr 0.73717 0.27963 0.47050
 O798 O 0.71369 0.25804 0.49178
 Zr799 Zr 0.76410 0.22095 0.52900
 O800 O 0.78799 0.24203 0.50727
 Zr801 Zr 0.72133 0.26386 0.52882
 O802 O 0.74310 0.28743 0.50753
 Zr803 Zr 0.72141 0.22096 0.48605
 O804 O 0.74269 0.24258 0.46221
 O805 O 0.77391 0.27332 0.47643
 O806 O 0.72712 0.22686 0.52303
 C807 C 0.76988 0.32500 0.48168
 C808 C 0.82553 0.26823 0.48100
 C809 C 0.76885 0.26899 0.42476
 C810 C 0.73085 0.17618 0.52016
 C811 C 0.73038 0.23013 0.57360
 C812 C 0.67642 0.23061 0.51907
 H813 H 0.76230 0.26176 0.55372
 H814 H 0.69662 0.26203 0.48770
 H815 H 0.78434 0.28369 0.46604
 H816 H 0.76238 0.19609 0.48835
 H817 H 0.80560 0.20020 0.52180
 H818 H 0.80382 0.19751 0.48051
 H819 H 0.68473 0.29019 0.51452
 H820 H 0.71055 0.31429 0.48758
 H821 H 0.79097 0.21192 0.56705
 H822 H 0.81829 0.28788 0.54048
 H823 H 0.68549 0.23537 0.45897
 H824 H 0.70973 0.26312 0.43621
 H825 H 0.76223 0.31373 0.53975
 H826 H 0.73586 0.29033 0.56524
 H827 H 0.76176 0.21058 0.43521
 H828 H 0.73544 0.18364 0.46054
 O829 O 0.78108 0.81552 -0.00188
 O830 O 0.77771 0.80764 0.03985
 O831 O 0.81443 0.75179 -0.03131
 O832 O 0.80731 0.71151 -0.03179
 O833 O 0.75088 0.78203 -0.06532
 O834 O 0.70826 0.77985 -0.05646
 O835 O 0.74822 0.68697 0.03161
 O836 O 0.78972 0.69372 0.02672
 O837 O 0.71817 0.74866 0.06323
 O838 O 0.71986 0.79266 0.05477
 O839 O 0.68594 0.71904 0.00141
 O840 O 0.69423 0.72043 -0.04224
 O841 O 0.71888 0.68691 0.00223
 O842 O 0.72138 0.69573 -0.04294
 O843 O 0.68577 0.74843 0.03062
 O844 O 0.69481 0.79332 0.02790
 O845 O 0.74708 0.71899 0.06310
 O846 O 0.79113 0.72706 0.05521
 O847 O 0.75128 0.81567 -0.03086
 O848 O 0.70805 0.80655 -0.02886
 O849 O 0.78014 0.75267 -0.06544
 O850 O 0.77610 0.70858 -0.05570
 O851 O 0.81434 0.78162 -0.00245
 O852 O 0.80484 0.77607 0.04146
 Zr853 Zr 0.77918 0.78015 0.01281
 O854 O 0.75742 0.75889 0.03614
 Zr855 Zr 0.77891 0.73744 -0.03025
 O856 O 0.75780 0.71410 -0.00835
 Zr857 Zr 0.73619 0.78032 -0.02996
 O858 O 0.71283 0.75861 -0.00864
 Zr859 Zr 0.76349 0.72191 0.02864
 O860 O 0.78723 0.74305 0.00682
 Zr861 Zr 0.72045 0.76453 0.02840
 O862 O 0.74209 0.78819 0.00706
 Zr863 Zr 0.72076 0.72155 -0.01428
 O864 O 0.74187 0.74328 -0.03820
 O865 O 0.77297 0.77421 -0.02405
 O866 O 0.72647 0.72756 0.02268
 C867 C 0.76863 0.82590 -0.01882
 C868 C 0.82468 0.76914 -0.01934
 C869 C 0.76799 0.76988 -0.07566
 C870 C 0.73069 0.67685 0.01981
 C871 C 0.72976 0.73096 0.07324
 C872 C 0.67578 0.73083 0.01886
 H873 H 0.76144 0.76275 0.05328
 H874 H 0.69574 0.76247 -0.01270
 H875 H 0.78338 0.78462 -0.03442
 H876 H 0.76190 0.69694 -0.01198
 H877 H 0.80515 0.70145 0.02148
 H878 H 0.80337 0.69869 -0.01979
 H879 H 0.68358 0.79049 0.01409
 H880 H 0.70935 0.81480 -0.01288
 H881 H 0.79043 0.71315 0.06671
 H882 H 0.81731 0.78907 0.03998
 H883 H 0.68482 0.73577 -0.04143
 H884 H 0.70886 0.76358 -0.06424
 H885 H 0.76110 0.81461 0.03927
 H886 H 0.73480 0.79120 0.06473
 H887 H 0.76114 0.71151 -0.06534
 H888 H 0.73496 0.68432 -0.03982
 O889 O 1.06486 0.21821 0.24824
 O890 O 1.05694 0.22148 0.28996
 O891 O 1.00165 0.18515 0.21813
 O892 O 0.95814 0.19486 0.21940
 O893 O 1.03142 0.24844 0.18476
 O894 O 1.02948 0.29112 0.19363
 O895 O 0.93668 0.25166 0.28159
 O896 O 0.94246 0.21070 0.27649
 O897 O 0.99836 0.28139 0.31327
 O898 O 1.04235 0.27943 0.30490
 O899 O 0.96891 0.31373 0.25170
 O900 O 0.97077 0.30524 0.20756
 O901 O 0.93665 0.28087 0.25210
 O902 O 0.94523 0.27878 0.20735
 O903 O 0.99830 0.31375 0.28089
 O904 O 1.04317 0.30452 0.27804
 O905 O 0.96867 0.25247 0.31311
 O906 O 0.97633 0.20815 0.30481
 O907 O 1.06513 0.24809 0.21935
 O908 O 1.05618 0.29129 0.22116
 O909 O 1.00190 0.21928 0.18451
 O910 O 0.95889 0.22189 0.19332
 O911 O 1.03095 0.18493 0.24750
 O912 O 1.02528 0.19447 0.29145
 Zr913 Zr 1.02952 0.22012 0.26285
 O914 O 1.00838 0.24201 0.28617
 Zr915 Zr 0.98687 0.22054 0.21976
 O916 O 0.96378 0.24191 0.24156
 Zr917 Zr 1.02984 0.26320 0.22013
 O918 O 1.00836 0.28672 0.24149
 Zr919 Zr 0.97142 0.23610 0.27856
 O920 O 0.99243 0.21208 0.25681
 Zr921 Zr 1.01424 0.27900 0.27849
 O922 O 1.03771 0.25723 0.25713
 Zr923 Zr 0.97131 0.27895 0.23577
 O924 O 0.99279 0.25763 0.21188
 O925 O 1.02362 0.22641 0.22602
 O926 O 0.97729 0.27314 0.27270
 C927 C 1.07530 0.23071 0.23139
 C928 C 1.01873 0.17473 0.23030
 C929 C 1.01917 0.23138 0.17435
 C930 C 0.92661 0.26915 0.26972
 C931 C 0.98063 0.26986 0.32325
 C932 C 0.98070 0.32379 0.26923
 H933 H 1.01218 0.23796 0.30331
 H934 H 1.01233 0.30383 0.23749
 H935 H 1.03403 0.21605 0.21560
 H936 H 0.94666 0.23774 0.23786
 H937 H 0.94969 0.19492 0.27165
 H938 H 0.96037 0.18425 0.23378
 H939 H 1.04026 0.31595 0.26442
 H940 H 1.06431 0.29013 0.23721
 H941 H 0.96248 0.20895 0.31636
 H942 H 1.03818 0.18190 0.28996
 H943 H 0.98561 0.31532 0.20917
 H944 H 1.01317 0.29067 0.18597
 H945 H 1.06395 0.23809 0.28947
 H946 H 1.04070 0.26454 0.31492
 H947 H 0.96019 0.23798 0.18528
 H948 H 0.93450 0.26451 0.20978
 O949 O 0.74844 1.06503 0.71832
 O950 O 0.79016 1.05719 0.72186
 O951 O 0.71892 1.00146 0.68489
 O952 O 0.71881 0.96109 0.69182
 O953 O 0.68495 1.03140 0.74839
 O954 O 0.69380 1.02945 0.79098
 O955 O 0.78207 0.93660 0.75127
 O956 O 0.77718 0.94333 0.70974
 O957 O 0.81339 0.99823 0.78165
 O958 O 0.80504 1.04221 0.77989
 O959 O 0.75154 0.96867 0.81353
 O960 O 0.70798 0.96983 0.80494
 O961 O 0.75269 0.93647 0.78053
 O962 O 0.70747 0.94513 0.77777
 O963 O 0.78067 0.99814 0.81388
 O964 O 0.77800 1.04301 0.80469
 O965 O 0.81339 0.96862 0.75264
 O966 O 0.80563 0.97673 0.70852
 O967 O 0.71941 1.06519 0.74799
 O968 O 0.72139 1.05609 0.79130
 O969 O 0.68489 1.00200 0.71912
 O970 O 0.69478 0.95799 0.72297
 O971 O 0.74782 1.03125 0.68510
 O972 O 0.79175 1.02557 0.69469
 Zr973 Zr 0.76313 1.02970 0.72029
 O974 O 0.78644 1.00851 0.74216
 Zr975 Zr 0.72014 0.98694 0.72035
 O976 O 0.74203 0.96363 0.74154
 Zr977 Zr 0.72032 1.02984 0.76313
 O978 O 0.74158 1.00814 0.78656
 Zr979 Zr 0.77900 0.97152 0.73601
 O980 O 0.75720 0.99260 0.71218
 Zr981 Zr 0.77861 1.01413 0.77913
 O982 O 0.75732 1.03775 0.75738
 Zr983 Zr 0.73603 0.97105 0.77857
 O984 O 0.71214 0.99277 0.75738
 O985 O 0.72628 1.02372 0.72637
 O986 O 0.77296 0.97715 0.77304
 C987 C 0.73147 1.07541 0.73067
 C988 C 0.73085 1.01887 0.67472
 C989 C 0.67462 1.01916 0.73129
 C990 C 0.77031 0.92647 0.76878
 C991 C 0.82344 0.98053 0.77011
 C992 C 0.76887 0.98056 0.82383
 H993 H 0.80358 1.01238 0.73824
 H994 H 0.73747 1.01200 0.80365
 H995 H 0.71586 1.03411 0.71597
 H996 H 0.73845 0.94646 0.73740
 H997 H 0.77199 0.95105 0.69428
 H998 H 0.73072 0.94821 0.69587
 H999 H 0.76416 1.04019 0.81586
 H1000 H 0.73730 1.06447 0.78995
 H1001 H 0.81715 0.96284 0.70926
 H1002 H 0.79028 1.03857 0.68222
 H1003 H 0.70869 0.98519 0.81434
 H1004 H 0.68610 1.01314 0.79044
 H1005 H 0.78960 1.06414 0.73849
 H1006 H 0.81498 1.04078 0.76496
 H1007 H 0.68520 0.96079 0.73797
 H1008 H 0.71072 0.93366 0.76427
 O1009 O 0.74877 0.56502 0.21845
 O1010 O 0.79048 0.55714 0.22195
 O1011 O 0.71918 0.50139 0.18515
 O1012 O 0.71892 0.46105 0.19219
 O1013 O 0.68527 0.53144 0.24874
 O1014 O 0.69426 0.52959 0.29130
 O1015 O 0.78215 0.43654 0.25138
 O1016 O 0.77729 0.44333 0.20986
 O1017 O 0.81375 0.49815 0.28170
 O1018 O 0.80544 0.54226 0.27979
 O1019 O 0.75214 0.46870 0.31374
 O1020 O 0.70842 0.47011 0.30535
 O1021 O 0.75289 0.43651 0.28075
 O1022 O 0.70775 0.44530 0.27829
 O1023 O 0.78124 0.49820 0.31395
 O1024 O 0.77858 0.54303 0.30480
 O1025 O 0.81358 0.46843 0.25280
 O1026 O 0.80586 0.47662 0.20868
 O1027 O 0.71980 0.56525 0.24819
 O1028 O 0.72184 0.55623 0.29148
 O1029 O 0.68514 0.50204 0.21948
 O1030 O 0.69496 0.45807 0.22334
 O1031 O 0.74810 0.53116 0.18528
 O1032 O 0.79200 0.52551 0.19480
 Zr1033 Zr 0.76342 0.52967 0.22044
 O1034 O 0.78676 0.50846 0.24225
 Zr1035 Zr 0.72037 0.48696 0.22065
 O1036 O 0.74225 0.46366 0.24184
 Zr1037 Zr 0.72069 0.52992 0.26337
 O1038 O 0.74201 0.50824 0.28679
 Zr1039 Zr 0.77922 0.47148 0.23617
 O1040 O 0.75741 0.49258 0.21238
 Zr1041 Zr 0.77902 0.51416 0.27922
 O1042 O 0.75769 0.53778 0.25752
 Zr1043 Zr 0.73637 0.47116 0.27888
 O1044 O 0.71246 0.49285 0.25770
 O1045 O 0.72656 0.52375 0.22660
 O1046 O 0.77329 0.47718 0.27320
 C1047 C 0.73185 0.57543 0.23085
 C1048 C 0.73114 0.51874 0.17493
 C1049 C 0.67489 0.51918 0.23169
 C1050 C 0.77040 0.42644 0.26891
 C1051 C 0.82368 0.48034 0.27023
 C1052 C 0.76956 0.48057 0.32393
 H1053 H 0.80389 0.51229 0.23828
 H1054 H 0.73797 0.51213 0.30388
 H1055 H 0.71614 0.53413 0.21620
 H1056 H 0.73862 0.44650 0.23772
 H1057 H 0.77212 0.45109 0.19442
 H1058 H 0.73085 0.44819 0.19621
 H1059 H 0.76474 0.54028 0.31598
 H1060 H 0.73779 0.56452 0.29015
 H1061 H 0.81734 0.46269 0.20942
 H1062 H 0.79054 0.53852 0.18234
 H1063 H 0.70939 0.48536 0.31490
 H1064 H 0.68663 0.51325 0.29089
 H1065 H 0.78995 0.56410 0.23857
 H1066 H 0.81550 0.54063 0.26496
 H1067 H 0.68545 0.46087 0.23838
 H1068 H 0.71081 0.43392 0.26466
 O1069 O 0.50161 0.18496 0.71790
 O1070 O 0.45989 0.19272 0.72143
 O1071 O 0.53144 0.24835 0.68524
 O1072 O 0.53024 0.29185 0.69508
 O1073 O 0.56501 0.21848 0.74845
 O1074 O 0.55610 0.22010 0.79107
 O1075 O 0.46800 0.31313 0.75167
 O1076 O 0.47317 0.30737 0.71079
 O1077 O 0.43651 0.25147 0.78137
 O1078 O 0.44483 0.20742 0.77934
 O1079 O 0.49825 0.28069 0.81386
 O1080 O 0.54206 0.27926 0.80536
 O1081 O 0.49741 0.31316 0.78098
 O1082 O 0.54235 0.30457 0.77877
 O1083 O 0.46910 0.25124 0.81384
 O1084 O 0.47172 0.20646 0.80434
 O1085 O 0.43661 0.28112 0.75241
 O1086 O 0.44486 0.27342 0.70820
 O1087 O 0.53055 0.18461 0.74774
 O1088 O 0.52858 0.19340 0.79104
 O1089 O 0.56516 0.24806 0.71937
 O1090 O 0.55628 0.29106 0.72210
 O1091 O 0.50209 0.21904 0.68491
 O1092 O 0.45817 0.22447 0.69453
 Zr1093 Zr 0.48687 0.22027 0.72009
 O1094 O 0.46356 0.24137 0.74200
 Zr1095 Zr 0.52989 0.26303 0.72065
 O1096 O 0.50809 0.28609 0.74202
 Zr1097 Zr 0.52963 0.21989 0.76311
 O1098 O 0.50829 0.24138 0.78665
 Zr1099 Zr 0.47113 0.27837 0.73614
 O1100 O 0.49287 0.25740 0.71213
 Zr1101 Zr 0.47127 0.23550 0.77897
 O1102 O 0.49263 0.21201 0.75716
 Zr1103 Zr 0.51392 0.27851 0.77901
 O1104 O 0.53781 0.25701 0.75769
 O1105 O 0.52370 0.22622 0.72637
 O1106 O 0.47699 0.27251 0.77318
 C1107 C 0.51855 0.17450 0.73028
 C1108 C 0.51924 0.23131 0.67477
 C1109 C 0.57539 0.23081 0.73147
 C1110 C 0.47981 0.32321 0.76920
 C1111 C 0.42651 0.26918 0.76979
 C1112 C 0.48087 0.26875 0.82397
 H1113 H 0.44643 0.23757 0.73794
 H1114 H 0.51235 0.23737 0.80372
 H1115 H 0.53414 0.21587 0.71597
 H1116 H 0.51175 0.30324 0.73789
 H1117 H 0.47787 0.30012 0.69499
 H1118 H 0.51582 0.28969 0.68450
 H1119 H 0.48558 0.20913 0.81555
 H1120 H 0.51260 0.18515 0.78969
 H1121 H 0.43335 0.28730 0.70894
 H1122 H 0.45967 0.21158 0.68194
 H1123 H 0.54092 0.26409 0.81501
 H1124 H 0.56378 0.23642 0.79070
 H1125 H 0.46047 0.18567 0.73802
 H1126 H 0.43490 0.20901 0.76439
 H1127 H 0.56431 0.28976 0.73819
 H1128 H 0.53964 0.31558 0.76476
 O1129 O 0.24868 0.68523 0.53168
 O1130 O 0.29037 0.69319 0.52836
 O1131 O 0.21876 0.74838 0.56492
 O1132 O 0.21999 0.79195 0.55536
 O1133 O 0.18515 0.71890 0.50144
 O1134 O 0.19410 0.72076 0.45885
 O1135 O 0.28201 0.81375 0.49865
 O1136 O 0.27694 0.80777 0.53959
 O1137 O 0.31364 0.75224 0.46872
 O1138 O 0.30531 0.70815 0.47054
 O1139 O 0.25198 0.78164 0.43651
 O1140 O 0.20788 0.77964 0.44506
 O1141 O 0.25250 0.81379 0.46945
 O1142 O 0.20778 0.80516 0.47152
 O1143 O 0.28117 0.75227 0.43636
 O1144 O 0.27842 0.70733 0.44548
 O1145 O 0.31351 0.78183 0.49775
 O1146 O 0.30534 0.77393 0.54196
 O1147 O 0.21972 0.68504 0.50185
 O1148 O 0.22153 0.69408 0.45874
 O1149 O 0.18499 0.74834 0.53068
 O1150 O 0.19390 0.79129 0.52845
 O1151 O 0.24812 0.71911 0.56505
 O1152 O 0.29201 0.72479 0.55545
 Zr1153 Zr 0.26332 0.72063 0.52985
 O1154 O 0.28660 0.74193 0.50805
 Zr1155 Zr 0.22028 0.76328 0.52960
 O1156 O 0.24202 0.78650 0.50830
 Zr1157 Zr 0.22055 0.72041 0.48683
 O1158 O 0.24187 0.74203 0.46338
 Zr1159 Zr 0.27901 0.77890 0.51409
 O1160 O 0.25732 0.75772 0.53801
 Zr1161 Zr 0.27889 0.73621 0.47106
 O1162 O 0.25755 0.71258 0.49274
 Zr1163 Zr 0.23616 0.77908 0.47127
 O1164 O 0.21233 0.75747 0.49252
 O1165 O 0.22647 0.72651 0.52362
 O1166 O 0.27310 0.77316 0.47705
 C1167 C 0.23181 0.67480 0.51916
 C1168 C 0.23099 0.73132 0.57530
 C1169 C 0.17474 0.73119 0.51842
 C1170 C 0.27012 0.82385 0.48119
 C1171 C 0.32362 0.76997 0.48032
 C1172 C 0.26947 0.76989 0.42639
 H1173 H 0.30374 0.73815 0.51208
 H1174 H 0.23784 0.73811 0.44629
 H1175 H 0.21604 0.71607 0.53395
 H1176 H 0.23833 0.80363 0.51252
 H1177 H 0.27226 0.80044 0.55536
 H1178 H 0.23440 0.78971 0.56593
 H1179 H 0.26472 0.71019 0.43413
 H1180 H 0.23760 0.68601 0.45985
 H1181 H 0.31682 0.78786 0.54126
 H1182 H 0.29055 0.71182 0.56796
 H1183 H 0.20955 0.76490 0.43483
 H1184 H 0.18648 0.73710 0.45927
 H1185 H 0.28985 0.68627 0.51172
 H1186 H 0.31534 0.70977 0.48543
 H1187 H 0.18593 0.79020 0.51231
 H1188 H 0.21027 0.81589 0.48578
 O1189 O 0.31461 0.25074 0.96850
 O1190 O 0.30641 0.20898 0.97197
 O1191 O 0.25174 0.28107 0.93540
 O1192 O 0.20808 0.27986 0.94502
 O1193 O 0.28145 0.31451 0.99865
 O1194 O 0.27959 0.30563 1.04132
 O1195 O 0.18620 0.21801 1.00187
 O1196 O 0.19200 0.22315 0.96094
 O1197 O 0.24751 0.18609 1.03166
 O1198 O 0.29160 0.19415 1.02971
 O1199 O 0.21880 0.24810 1.06401
 O1200 O 0.22075 0.29216 1.05522
 O1201 O 0.18638 0.24748 1.03112
 O1202 O 0.19512 0.29223 1.02892
 O1203 O 0.24800 0.21874 1.06408
 O1204 O 0.29271 0.22101 1.05472
 O1205 O 0.21794 0.18636 1.00262
 O1206 O 0.22566 0.19458 0.95840
 O1207 O 0.31504 0.27976 0.99826
 O1208 O 0.30614 0.27803 1.04143
 O1209 O 0.25192 0.31481 0.96951
 O1210 O 0.20901 0.30617 0.97182
 O1211 O 0.28082 0.25152 0.93528
 O1212 O 0.27479 0.20762 0.94483
 Zr1213 Zr 0.27919 0.23626 0.97045
 O1214 O 0.25785 0.21308 0.99230
 Zr1215 Zr 0.23681 0.27957 0.97071
 O1216 O 0.21356 0.25796 0.99211
 Zr1217 Zr 0.27975 0.27911 1.01340
 O1218 O 0.25813 0.25788 1.03690
 Zr1219 Zr 0.22095 0.22090 0.98633
 O1220 O 0.24215 0.24246 0.96232
 Zr1221 Zr 0.26374 0.22078 1.02926
 O1222 O 0.28739 0.24203 1.00753
 Zr1223 Zr 0.22111 0.26376 1.02913
 O1224 O 0.24275 0.28751 1.00778
 O1225 O 0.27351 0.27317 0.97664
 O1226 O 0.22683 0.22675 1.02337
 C1227 C 0.32513 0.26763 0.98092
 C1228 C 0.26877 0.26880 0.92506
 C1229 C 0.26920 0.32496 0.98164
 C1230 C 0.17622 0.22990 1.01938
 C1231 C 0.22976 0.17617 1.02004
 C1232 C 0.23061 0.23065 1.07417
 H1233 H 0.26152 0.19590 0.98827
 H1234 H 0.26216 0.26192 1.05397
 H1235 H 0.28398 0.28356 0.96631
 H1236 H 0.19645 0.26173 0.98793
 H1237 H 0.19926 0.22790 0.94517
 H1238 H 0.21044 0.26560 0.93426
 H1239 H 0.29018 0.23493 1.06588
 H1240 H 0.31420 0.26195 1.04026
 H1241 H 0.21170 0.18315 0.95914
 H1242 H 0.28778 0.20898 0.93235
 H1243 H 0.23561 0.29058 1.06527
 H1244 H 0.26337 0.31346 1.04079
 H1245 H 0.31347 0.20957 0.98855
 H1246 H 0.28986 0.18411 1.01485
 H1247 H 0.21008 0.31403 0.98802
 H1248 H 0.18436 0.28978 1.01467
 N1249 N 0.27395 0.36842 0.80339
 C1250 C 0.29336 0.35740 0.79273
 N1251 N 0.30431 0.36875 0.77366
 N1252 N 0.29638 0.39030 0.76578
 C1253 C 0.27716 0.40136 0.77666
 N1254 N 0.26602 0.38996 0.79554
 N1255 N 0.30508 -0.13099 0.27494
 C1256 C 0.29439 -0.14211 0.29432
 N1257 N 0.27484 -0.13108 0.30477
 N1258 N 0.26664 -0.10979 0.29652
 C1259 C 0.27760 -0.09864 0.27739
 N1260 N 0.29690 -0.10969 0.26667
 N1261 N 0.77465 0.86917 0.80332
 C1262 C 0.79423 0.85813 0.79295
 N1263 N 0.80527 0.86946 0.77388
 N1264 N 0.79734 0.89094 0.76582
 C1265 C 0.77799 0.90199 0.77646
 N1266 N 0.76672 0.89065 0.79528
 N1267 N 0.47610 0.88161 0.30332
 C1268 C 0.45669 0.89271 0.29270
 N1269 N 0.44554 0.88137 0.27372
 N1270 N 0.45328 0.85975 0.26587
 C1271 C 0.47250 0.84861 0.27669
 N1272 N 0.48384 0.86000 0.29549
 N1273 N -0.05435 0.88138 0.77408
 C1274 C -0.04340 0.89257 0.79328
 N1275 N -0.02398 0.88147 0.80387
 N1276 N -0.01605 0.86000 0.79582
 C1277 C -0.02719 0.84876 0.77682
 N1278 N -0.04642 0.85991 0.76601
 N1279 N -0.02354 -0.13247 -0.05344
 C1280 C -0.04274 -0.14384 -0.04270
 N1281 N -0.05334 -0.13287 -0.02318
 N1282 N -0.04549 -0.11135 -0.01513
 C1283 C -0.02660 -0.09992 -0.02620
 N1284 N -0.01566 -0.11096 -0.04540
 N1285 N -0.05404 0.36820 0.47550
 C1286 C -0.04345 0.35724 0.45597
 N1287 N -0.02430 0.36865 0.44519
 N1288 N -0.01637 0.39013 0.45328
 C1289 C -0.02723 0.40111 0.47256
 N1290 N -0.04614 0.38969 0.48360
 N1291 N 0.44640 -0.13225 0.47685
 C1292 C 0.45702 -0.14336 0.45742
 N1293 N 0.47663 -0.13237 0.44702
 N1294 N 0.48487 -0.11108 0.45527
 C1295 C 0.47392 -0.09989 0.47438
 N1296 N 0.45463 -0.11095 0.48512
 N1297 N 0.47777 0.36643 -0.05220
 C1298 C 0.45852 0.35516 -0.04149
 N1299 N 0.44757 0.36633 -0.02231
 N1300 N 0.45526 0.38797 -0.01445
 C1301 C 0.47428 0.39932 -0.02541
 N1302 N 0.48548 0.38807 -0.04434
 N1303 N 0.77376 0.38248 0.44749
 C1304 C 0.79336 0.39348 0.45788
 N1305 N 0.80439 0.38227 0.47701
 N1306 N 0.79644 0.36083 0.48512
 C1307 C 0.77709 0.34974 0.47446
 N1308 N 0.76580 0.36104 0.45559
 N1309 N 0.80233 0.88372 -0.02284
 C1310 C 0.79161 0.89475 -0.04227
 N1311 N 0.77238 0.88339 -0.05303
 N1312 N 0.76458 0.86183 -0.04507
 C1313 C 0.77564 0.85072 -0.02596
 N1314 N 0.79456 0.86214 -0.01488
 N1315 N 0.77333 0.30342 0.36747
 C1316 C 0.79253 0.29250 0.35632
 N1317 N 0.80303 0.27299 0.36736
 N1318 N 0.79497 0.26501 0.38879
 C1319 C 0.77603 0.27618 0.40004
 N1320 N 0.76526 0.29545 0.38890
 N1321 N 0.77279 0.80454 -0.13281
 C1322 C 0.79203 0.79365 -0.14390
 N1323 N 0.80244 0.77407 -0.13289
 N1324 N 0.79425 0.76601 -0.11154
 C1325 C 0.77527 0.77715 -0.10035
 N1326 N 0.76459 0.79649 -0.11145
 N1327 N 0.30434 0.47583 0.88097
 C1328 C 0.29338 0.45682 0.89243
 N1329 N 0.27412 0.44588 0.88133
 N1330 N 0.26630 0.45346 0.85964
 C1331 C 0.27745 0.47231 0.84817
 N1332 N 0.29654 0.48342 0.85929
 N1333 N 0.30411 -0.02444 0.38089
 C1334 C 0.29329 -0.04362 0.39219
 N1335 N 0.27408 -0.05458 0.38103
 N1336 N 0.26620 -0.04686 0.35941
 C1337 C 0.27721 -0.02785 0.34809
 N1338 N 0.29625 -0.01671 0.35928
 N1339 N -0.05365 -0.02357 -0.13225
 C1340 C -0.04312 -0.04302 -0.14342
 N1341 N -0.02365 -0.05368 -0.13240
 N1342 N -0.01546 -0.04564 -0.11101
 C1343 C -0.02632 -0.02650 -0.09977
 N1344 N -0.04547 -0.01551 -0.11087
 N1345 N -0.05504 0.47447 0.36942
 C1346 C -0.04436 0.45513 0.35822
 N1347 N -0.02487 0.44453 0.36926
 N1348 N -0.01672 0.45261 0.39064
 C1349 C -0.02766 0.47171 0.40186
 N1350 N -0.04690 0.48257 0.39080
 N1351 N 0.47759 -0.05293 0.36749
 C1352 C 0.45825 -0.04206 0.35651
 N1353 N 0.44767 -0.02272 0.36774
 N1354 N 0.45579 -0.01487 0.38921
 C1355 C 0.47487 -0.02599 0.40030
 N1356 N 0.48573 -0.04508 0.38898
 N1357 N 0.44717 0.47660 -0.13246
 C1358 C 0.45771 0.45714 -0.14354
 N1359 N 0.47689 0.44619 -0.13237
 N1360 N 0.48492 0.45408 -0.11087
 C1361 C 0.47410 0.47329 -0.09969
 N1362 N 0.45518 0.48450 -0.11096
 N1363 N 0.44610 0.77458 0.38125
 C1364 C 0.45682 0.79391 0.39243
 N1365 N 0.47608 0.80476 0.38130
 N1366 N 0.48408 0.79682 0.35982
 C1367 C 0.47316 0.77767 0.34861
 N1368 N 0.45409 0.76662 0.35978
 N1369 N -0.05401 0.77451 0.88087
 C1370 C -0.04298 0.79356 0.89225
 N1371 N -0.02377 0.80444 0.88107
 N1372 N -0.01607 0.79677 0.85938
 C1373 C -0.02729 0.77789 0.84799
 N1374 N -0.04634 0.76684 0.85919
 N1375 N 0.36974 0.80518 0.27504
 C1376 C 0.35856 0.79444 0.29431
 N1377 N 0.36960 0.77507 0.30508
 N1378 N 0.39101 0.76696 0.29710
 C1379 C 0.40223 0.77790 0.27799
 N1380 N 0.39114 0.79709 0.26705
 N1381 N -0.13070 0.80470 0.77387
 C1382 C -0.14211 0.79407 0.79307
 N1383 N -0.13118 0.77475 0.80406
 N1384 N -0.10967 0.76660 0.79637
 C1385 C -0.09823 0.77743 0.77734
 N1386 N -0.10920 0.79656 0.76616
 N1387 N 0.88269 0.30288 0.47670
 C1388 C 0.89375 0.29233 0.45725
 N1389 N 0.88273 0.27290 0.44651
 N1390 N 0.86139 0.26467 0.45457
 C1391 C 0.85023 0.27551 0.47376
 N1392 N 0.86135 0.29467 0.48477
 N1393 N 0.88230 0.80309 -0.02312
 C1394 C 0.89346 0.79233 -0.04240
 N1395 N 0.88228 0.77305 -0.05325
 N1396 N 0.86073 0.76516 -0.04543
 C1397 C 0.84949 0.77620 -0.02640
 N1398 N 0.86075 0.79522 -0.01530
 N1399 N -0.13347 -0.05216 -0.02244
 C1400 C -0.14459 -0.04145 -0.04180
 N1401 N -0.13332 -0.02231 -0.05274
 N1402 N -0.11171 -0.01450 -0.04494
 C1403 C -0.10051 -0.02548 -0.02583
 N1404 N -0.11187 -0.04436 -0.01463
 N1405 N -0.13111 0.44609 0.47534
 C1406 C -0.14223 0.45663 0.45587
 N1407 N -0.13091 0.47573 0.44485
 N1408 N -0.10935 0.48366 0.45269
 C1409 C -0.09822 0.47285 0.47193
 N1410 N -0.10955 0.45400 0.48319
 N1411 N 0.36797 -0.05253 0.47717
 C1412 C 0.35695 -0.04207 0.45763
 N1413 N 0.36815 -0.02292 0.44663
 N1414 N 0.38962 -0.01486 0.45457
 C1415 C 0.40073 -0.02559 0.47387
 N1416 N 0.38944 -0.04448 0.48512
 N1417 N 0.36762 0.47665 -0.05374
 C1418 C 0.35626 0.45757 -0.04275
 N1419 N 0.36722 0.44718 -0.02310
 N1420 N 0.38873 0.45513 -0.01516
 C1421 C 0.40016 0.47390 -0.02646
 N1422 N 0.38912 0.48462 -0.04580
 N1423 N 0.38066 0.44601 0.77390
 C1424 C 0.39209 0.45675 0.79307
 N1425 N 0.38111 0.47604 0.80404
 N1426 N 0.35954 0.48406 0.79638
 C1427 C 0.34808 0.47312 0.77739
 N1428 N 0.35910 0.45402 0.76622
 N1429 N 0.38096 -0.05345 0.27412
 C1430 C 0.39226 -0.04267 0.29335
 N1431 N 0.38110 -0.02353 0.30438
 N1432 N 0.35946 -0.01568 0.29671
 C1433 C 0.34813 -0.02666 0.27766
 N1434 N 0.35934 -0.04561 0.26644
 N1435 N 0.11649 0.52198 0.69863
 C1436 C 0.10532 0.54134 0.70926
 N1437 N 0.11670 0.55260 0.72817
 N1438 N 0.13844 0.54507 0.73586
 C1439 C 0.14968 0.52594 0.72497
 N1440 N 0.13822 0.51444 0.70631
 N1441 N 0.11719 0.02191 0.19699
 C1442 C 0.10598 0.04130 0.20752
 N1443 N 0.11705 0.05231 0.22676
 N1444 N 0.13857 0.04455 0.23484
 C1445 C 0.14986 0.02540 0.22405
 N1446 N 0.13869 0.01413 0.20506
 N1447 N 0.63298 0.69768 0.22746
 C1448 C 0.64403 0.70864 0.20822
 N1449 N 0.63277 0.72795 0.19758
 N1450 N 0.61124 0.73570 0.20556
 C1451 C 0.60009 0.72448 0.22454
 N1452 N 0.61143 0.70542 0.23545
 N1453 N 0.13291 0.69751 0.72815
 C1454 C 0.14427 0.70871 0.70923
 N1455 N 0.13307 0.72801 0.69850
 N1456 N 0.11132 0.73554 0.70610
 C1457 C 0.09989 0.72410 0.72478
 N1458 N 0.11116 0.70503 0.73576
 N1459 N 0.61890 0.22677 0.55307
 C1460 C 0.60768 0.20751 0.54228
 N1461 N 0.61893 0.19647 0.52320
 N1462 N 0.64056 0.20417 0.51544
 C1463 C 0.65183 0.22324 0.52645
 N1464 N 0.64054 0.23448 0.54533
 N1465 N 0.61873 0.69595 0.02355
 C1466 C 0.60747 0.70693 0.04265
 N1467 N 0.61852 0.72640 0.05326
 N1468 N 0.64000 0.73436 0.04532
 C1469 C 0.65131 0.72318 0.02642
 N1470 N 0.64022 0.70389 0.01559
 N1471 N 0.13026 0.05497 0.02462
 C1472 C 0.14163 0.04395 0.04368
 N1473 N 0.13058 0.02440 0.05418
 N1474 N 0.10906 0.01649 0.04625
 C1475 C 0.09768 0.02775 0.02742
 N1476 N 0.10874 0.04705 0.01666
 N1477 N 0.13305 0.55226 0.52166
 C1478 C 0.14443 0.54101 0.54055
 N1479 N 0.13323 0.52169 0.55124
 N1480 N 0.11145 0.51418 0.54363
 C1481 C 0.09999 0.52568 0.52499
 N1482 N 0.11126 0.54476 0.51404
 N1483 N 0.63150 0.02545 0.55379
 C1484 C 0.64247 0.04509 0.54338
 N1485 N 0.63111 0.05603 0.52426
 N1486 N 0.60968 0.04797 0.51619
 C1487 C 0.59870 0.02856 0.52687
 N1488 N 0.61008 0.01738 0.54575
 N1489 N 0.63075 0.55480 0.02388
 C1490 C 0.64210 0.54378 0.04292
 N1491 N 0.63105 0.52437 0.05360
 N1492 N 0.60948 0.51649 0.04577
 C1493 C 0.59809 0.52769 0.02691
 N1494 N 0.60917 0.54693 0.01603
 N1495 N 0.05415 0.02338 0.13132
 C1496 C 0.04325 0.04259 0.14255
 N1497 N 0.02403 0.05336 0.13122
 N1498 N 0.01630 0.04554 0.10959
 C1499 C 0.02744 0.02657 0.09835
 N1500 N 0.04644 0.01555 0.10967
 N1501 N 0.02173 0.55150 0.63319
 C1502 C 0.04098 0.54079 0.64447
 N1503 N 0.05214 0.52178 0.63319
 N1504 N 0.04462 0.51407 0.61143
 C1505 C 0.02560 0.52504 0.60008
 N1506 N 0.01420 0.54380 0.61144
 N1507 N 0.52410 0.05411 0.63143
 C1508 C 0.54328 0.04339 0.64287
 N1509 N 0.55422 0.02413 0.63174
 N1510 N 0.54659 0.01622 0.61009
 C1511 C 0.52764 0.02720 0.59866
 N1512 N 0.51645 0.04621 0.60980
 N1513 N 0.55334 0.52304 0.13188
 C1514 C 0.54224 0.54208 0.14316
 N1515 N 0.52304 0.55287 0.13187
 N1516 N 0.51544 0.54516 0.11015
 C1517 C 0.52673 0.52632 0.09883
 N1518 N 0.54575 0.51532 0.11015
 N1519 N 0.22786 0.55135 0.61669
 C1520 C 0.20864 0.54058 0.60537
 N1521 N 0.19742 0.52161 0.61667
 N1522 N 0.20485 0.51399 0.63848
 C1523 C 0.22383 0.52503 0.64986
 N1524 N 0.23529 0.54374 0.63849
 N1525 N 0.19571 0.02240 0.11754
 C1526 C 0.20649 0.04173 0.10644
 N1527 N 0.22606 0.05222 0.11740
 N1528 N 0.23422 0.04403 0.13873
 C1529 C 0.22318 0.02497 0.14994
 N1530 N 0.20386 0.01420 0.13887
 N1531 N 0.69641 0.22607 0.63123
 C1532 C 0.70730 0.20684 0.64240
 N1533 N 0.72629 0.19582 0.63102
 N1534 N 0.73392 0.20353 0.60933
 C1535 C 0.72286 0.22259 0.59813
 N1536 N 0.70403 0.23379 0.60953
 N1537 N 0.72598 0.69680 0.13078
 C1538 C 0.70698 0.70778 0.14219
 N1539 N 0.69597 0.72693 0.13098
 N1540 N 0.70348 0.73461 0.10924
 C1541 C 0.72232 0.72345 0.09782
 N1542 N 0.73350 0.70447 0.10904
 N1543 N 0.55335 0.72705 0.11779
 C1544 C 0.54252 0.70773 0.10668
 N1545 N 0.52317 0.69706 0.11779
 N1546 N 0.51523 0.70508 0.13925
 C1547 C 0.52631 0.72415 0.15046
 N1548 N 0.54543 0.73508 0.13926
 N1549 N 0.02186 0.69848 0.61655
 C1550 C 0.04107 0.70926 0.60530
 N1551 N 0.05219 0.72832 0.61658
 N1552 N 0.04466 0.73601 0.63832
 C1553 C 0.02568 0.72497 0.64964
 N1554 N 0.01432 0.70616 0.63828
 N1555 N 0.52217 0.61738 0.19723
 C1556 C 0.54118 0.60606 0.20832
 N1557 N 0.55182 0.61717 0.22773
 N1558 N 0.54406 0.63882 0.23547
 C1559 C 0.52529 0.65022 0.22412
 N1560 N 0.51439 0.63903 0.20495
 N1561 N 0.05141 0.61699 0.72792
 C1562 C 0.04056 0.60564 0.70876
 N1563 N 0.02146 0.61686 0.69770
 N1564 N 0.01379 0.63863 0.70522
 C1565 C 0.02489 0.65005 0.72414
 N1566 N 0.04375 0.63875 0.73544
 N1567 N 0.02358 0.13130 0.05422
 C1568 C 0.04275 0.14250 0.04329
 N1569 N 0.05342 0.13131 0.02397
 N1570 N 0.04548 0.10976 0.01611
 C1571 C 0.02651 0.09851 0.02725
 N1572 N 0.01563 0.10973 0.04638
 N1573 N 0.02196 0.63292 0.55225
 C1574 C 0.04095 0.64427 0.54115
 N1575 N 0.05178 0.63299 0.52198
 N1576 N 0.04420 0.61118 0.51446
 C1577 C 0.02546 0.59977 0.52580
 N1578 N 0.01437 0.61111 0.54475
 N1579 N 0.55436 0.13139 0.52371
 C1580 C 0.54334 0.14284 0.54267
 N1581 N 0.52411 0.13170 0.55356
 N1582 N 0.51640 0.10996 0.54599
 C1583 C 0.52762 0.09849 0.52722
 N1584 N 0.54666 0.10966 0.51613
 N1585 N 0.52400 0.63088 0.05421
 C1586 C 0.54324 0.64200 0.04333
 N1587 N 0.55411 0.63064 0.02423
 N1588 N 0.54625 0.60901 0.01651
 C1589 C 0.52719 0.59785 0.02758
 N1590 N 0.51613 0.60923 0.04651
 N1591 N 0.69524 0.11953 0.52469
 C1592 C 0.70592 0.10800 0.54385
 N1593 N 0.72554 0.11880 0.55451
 N1594 N 0.73383 0.14023 0.54667
 C1595 C 0.72289 0.15175 0.52774
 N1596 N 0.70352 0.14094 0.51682
 N1597 N 0.72609 0.61940 0.05411
 C1598 C 0.70683 0.60828 0.04318
 N1599 N 0.69606 0.61959 0.02398
 N1600 N 0.70400 0.64116 0.01621
 C1601 C 0.72307 0.65232 0.02732
 N1602 N 0.73404 0.64099 0.04636
 N1603 N 0.22818 0.63326 0.69821
 C1604 C 0.20903 0.64446 0.70916
 N1605 N 0.19810 0.63310 0.72823
 N1606 N 0.20573 0.61134 0.73577
 C1607 C 0.22462 0.60005 0.72457
 N1608 N 0.23582 0.61149 0.70575
 N1609 N 0.19799 0.13254 0.22745
 C1610 C 0.20886 0.14378 0.20828
 N1611 N 0.22801 0.13253 0.19737
 N1612 N 0.23569 0.11083 0.20504
 C1613 C 0.22455 0.09951 0.22397
 N1614 N 0.20566 0.11083 0.23513
 N1615 N 0.69763 1.13311 0.72688
 C1616 C 0.70803 1.14411 0.70727
 N1617 N 0.72713 1.13278 0.69632
 N1618 N 0.73509 1.11127 0.70424
 C1619 C 0.72435 1.10019 0.72353
 N1620 N 0.70557 1.11159 0.73481
 N1621 N 0.72764 0.63293 0.19666
 C1622 C 0.70866 0.64426 0.20775
 N1623 N 0.69817 0.63324 0.22726
 N1624 N 0.70604 0.61166 0.23509
 C1625 C 0.72477 0.60025 0.22375
 N1626 N 0.73553 0.61135 0.20448
 N1627 N 0.55239 0.11680 0.72635
 C1628 C 0.54203 0.10586 0.70665
 N1629 N 0.52297 0.11726 0.69564
 N1630 N 0.51501 0.13875 0.70361
 C1631 C 0.52570 0.14975 0.72301
 N1632 N 0.54444 0.13829 0.73433
 N1633 N 1.02259 0.11726 0.19598
 C1634 C 1.04162 0.10588 0.20697
 N1635 N 1.05229 0.11688 0.22643
 N1636 N 1.04453 0.13847 0.23432
 C1637 C 1.02574 0.14993 0.22309
 N1638 N 1.01481 0.13886 0.20386
 N1639 N 0.22813 0.61671 0.55242
 C1640 C 0.20920 0.60539 0.54114
 N1641 N 0.19853 0.61666 0.52186
 N1642 N 0.20619 0.63846 0.51442
 C1643 C 0.22487 0.64986 0.52595
 N1644 N 0.23580 0.63851 0.54500
 N1645 N 0.22498 0.11867 1.05423
 C1646 C 0.20555 0.10773 1.04342
 N1647 N 0.19468 0.11920 1.02437
 N1648 N 0.20271 0.14075 1.01662
 C1649 C 0.22196 0.15172 1.02760
 N1650 N 0.23302 0.14023 1.04649
 N1651 N 0.19755 0.72793 0.63323
 C1652 C 0.20862 0.70892 0.64459
 N1653 N 0.22780 0.69805 0.63337
 N1654 N 0.23535 0.70562 0.61160
 C1655 C 0.22405 0.72440 0.60018
 N1656 N 0.20510 0.73551 0.61146
 N1657 N 0.19685 0.22681 1.13190
 C1658 C 0.20791 0.20775 1.14320
 N1659 N 0.22702 0.19684 1.13190
 N1660 N 0.23457 0.20447 1.11016
 C1661 C 0.22331 0.22333 1.09882
 N1662 N 0.20439 0.23445 1.11015
 N1663 N 0.69689 0.52308 0.11749
 C1664 C 0.70762 0.54249 0.10648
 N1665 N 0.72696 0.55317 0.11765
 N1666 N 0.73496 0.54508 0.13907
 C1667 C 0.72397 0.52593 0.15019
 N1668 N 0.70487 0.51498 0.13892
 N1669 N 0.69627 1.02363 0.61747
 C1670 C 0.70696 1.04310 0.60653
 N1671 N 0.72639 1.05368 0.61766
 N1672 N 0.73450 1.04543 0.63899
 C1673 C 0.72356 1.02621 0.65003
 N1674 N 0.70438 1.01536 0.63880
 N1675 N 0.55339 0.22755 0.61734
 C1676 C 0.54247 0.20841 0.60601
 N1677 N 0.52307 0.19770 0.61700
 N1678 N 0.51519 0.20549 0.63856
 C1679 C 0.52637 0.22436 0.64998
 N1680 N 0.54552 0.23536 0.63890
 N1681 N 1.05373 0.22677 0.11719
 C1682 C 1.04296 0.20741 0.10603
 N1683 N 1.02339 0.19697 0.11704
 N1684 N 1.01532 0.20511 0.13841
 C1685 C 1.02642 0.22414 0.14965
 N1686 N 1.04567 0.23493 0.13856
 N1687 N 0.63295 0.19683 0.72736
 C1688 C 0.64408 0.20773 0.70814
 N1689 N 0.63292 0.22708 0.69747
 N1690 N 0.61139 0.23492 0.70540
 C1691 C 0.60017 0.22375 0.72437
 N1692 N 0.61143 0.20465 0.73530
 N1693 N 1.13307 0.19708 0.22758
 C1694 C 1.14432 0.20820 0.20854
 N1695 N 1.13312 0.22753 0.19787
 N1696 N 1.11147 0.23516 0.20563
 C1697 C 1.10014 0.22379 0.22442
 N1698 N 1.11141 0.20470 0.23535
 N1699 N 0.11666 0.72814 0.55154
 C1700 C 0.10543 0.70888 0.54074
 N1701 N 0.11677 0.69773 0.52178
 N1702 N 0.13853 0.70527 0.51419
 C1703 C 0.14983 0.72430 0.52525
 N1704 N 0.13842 0.73569 0.54396
 N1705 N 0.11881 0.19561 1.02406
 C1706 C 0.10769 0.20664 1.04322
 N1707 N 0.11898 0.22592 1.05392
 N1708 N 0.14055 0.23366 1.04600
 C1709 C 0.15171 0.22244 1.02702
 N1710 N 0.14038 0.20334 1.01612
 N1711 N 0.61713 0.52249 0.19793
 C1712 C 0.60588 0.54174 0.20865
 N1713 N 0.61706 0.55277 0.22781
 N1714 N 0.63872 0.54514 0.23565
 C1715 C 0.65004 0.52612 0.22466
 N1716 N 0.63877 0.51484 0.20575
 N1717 N 0.61705 1.05315 0.72703
 C1718 C 0.60594 1.04224 0.70777
 N1719 N 0.61712 1.02289 0.69713
 N1720 N 0.63863 1.01505 0.70512
 C1721 C 0.64983 1.02622 0.72413
 N1722 N 0.63857 1.04532 0.73504
 N1723 N 0.88047 0.44519 0.27527
 C1724 C 0.89163 0.45594 0.29459
 N1725 N 0.88060 0.47534 0.30529
 N1726 N 0.85922 0.48347 0.29721
 C1727 C 0.84802 0.47252 0.27807
 N1728 N 0.85909 0.45330 0.26718
 N1729 N 0.88061 0.94594 0.77472
 C1730 C 0.89185 0.95682 0.79392
 N1731 N 0.88069 0.97609 0.80474
 N1732 N 0.85914 0.98398 0.79686
 C1733 C 0.84788 0.97290 0.77783
 N1734 N 0.85906 0.95380 0.76684
 N1735 N 0.36939 0.30389 0.77413
 C1736 C 0.35805 0.29298 0.79322
 N1737 N 0.36911 0.27364 0.80404
 N1738 N 0.39067 0.26572 0.79628
 C1739 C 0.40204 0.27683 0.77736
 N1740 N 0.39094 0.29599 0.76636
 N1741 N 0.86925 0.27384 0.30398
 C1742 C 0.85815 0.29307 0.29300
 N1743 N 0.86944 0.30380 0.27378
 N1744 N 0.89098 0.29584 0.26604
 C1745 C 0.90212 0.27680 0.27721
 N1746 N 0.89080 0.26587 0.29625
 N1747 N 0.38080 0.77470 0.44572
 C1748 C 0.39196 0.79398 0.45658
 N1749 N 0.38075 0.80477 0.47582
 N1750 N 0.35924 0.79682 0.48369
 C1751 C 0.34806 0.77770 0.47265
 N1752 N 0.35929 0.76673 0.45358
 N1753 N 0.38311 0.30102 0.97759
 C1754 C 0.39411 0.29045 0.95812
 N1755 N 0.38270 0.27150 0.94696
 N1756 N 0.36106 0.26372 0.95468
 C1757 C 0.34998 0.27456 0.97391
 N1758 N 0.36148 0.29326 0.98532
 N1759 N 0.77441 0.44604 0.38121
 C1760 C 0.79362 0.45704 0.39234
 N1761 N 0.80423 0.47639 0.38113
 N1762 N 0.79620 0.48422 0.35962
 C1763 C 0.77719 0.47303 0.34844
 N1764 N 0.76636 0.45386 0.35968
 N1765 N 0.80254 0.97678 0.88169
 C1766 C 0.79171 0.95751 0.89284
 N1767 N 0.77275 0.94640 0.88140
 N1768 N 0.76513 0.95405 0.85966
 C1769 C 0.77617 0.97314 0.84848
 N1770 N 0.79494 0.98444 0.85996
 N1771 N 0.30436 0.77485 0.36946
 C1772 C 0.29373 0.79430 0.35843
 N1773 N 0.27444 0.80506 0.36956
 N1774 N 0.26632 0.79692 0.39091
 C1775 C 0.27716 0.77766 0.40199
 N1776 N 0.29625 0.76670 0.39081
 N1777 N 0.27322 0.30311 0.86770
 C1778 C 0.29247 0.29223 0.85660
 N1779 N 0.30305 0.27281 0.86771
 N1780 N 0.29501 0.26486 0.88916
 C1781 C 0.27601 0.27599 0.90035
 N1782 N 0.26517 0.29517 0.88916
 N1783 N 0.44702 0.27238 0.88165
 C1784 C 0.45790 0.29155 0.89296
 N1785 N 0.47694 0.30263 0.88170
 N1786 N 0.48459 0.29505 0.85996
 C1787 C 0.47351 0.27606 0.84862
 N1788 N 0.45466 0.26479 0.85992
 N1789 N 0.94621 0.27448 0.38052
 C1790 C 0.95708 0.29375 0.39169
 N1791 N 0.97629 0.30458 0.38046
 N1792 N 0.98412 0.29665 0.35891
 C1793 C 0.97306 0.27756 0.34772
 N1794 N 0.95402 0.26655 0.35898
 N1795 N 0.47564 0.38069 0.80347
 C1796 C 0.45629 0.39180 0.79276
 N1797 N 0.44525 0.38047 0.77370
 N1798 N 0.45305 0.35887 0.76586
 C1799 C 0.47223 0.34773 0.77677
 N1800 N 0.48345 0.35909 0.79566
 N1801 N 0.97583 0.38056 0.30454
 C1802 C 0.95637 0.39165 0.29399
 N1803 N 0.94560 0.38063 0.27459
 N1804 N 0.95372 0.35932 0.26630
 C1805 C 0.97298 0.34818 0.27706
 N1806 N 0.98396 0.35925 0.29626
 N1807 N 0.27417 0.88107 0.44657
 C1808 C 0.29344 0.89237 0.45727
 N1809 N 0.30443 0.88128 0.47649
 N1810 N 0.29668 0.85971 0.48448
 C1811 C 0.27760 0.84837 0.47357
 N1812 N 0.26641 0.85951 0.45455
 N1813 N 0.30345 0.38245 0.97747
 C1814 C 0.29251 0.39366 0.95829
 N1815 N 0.27308 0.38257 0.94768
 N1816 N 0.26518 0.36105 0.95562
 C1817 C 0.27637 0.34975 0.97454
 N1818 N 0.29556 0.36092 0.98542
 N1819 N 0.77454 0.36902 0.30325
 C1820 C 0.79386 0.35786 0.29258
 N1821 N 0.80487 0.36912 0.27350
 N1822 N 0.79708 0.39071 0.26560
 C1823 C 0.77794 0.40190 0.27647
 N1824 N 0.76674 0.39060 0.29537
   
