data_POSCAR
  _audit_creation_date              2014-09-24
  _audit_creation_method            'ToBaCCo'
  _symmetry_space_group_name_H-M    'P1'
  _symmetry_Int_Tables_number       1
  _symmetry_cell_setting            triclinic
  loop_
  _symmetry_equiv_pos_as_xyz
 x,y,z
_cell_length_a 46.9534
_cell_length_b 46.9908
_cell_length_c 46.9687
_cell_angle_alpha 89.951100
_cell_angle_beta 90.006200
_cell_angle_gamma 90.027400
loop_
  _atom_site_label
  _atom_site_type_symbol
  _atom_site_fract_x
  _atom_site_fract_y
  _atom_site_fract_z
C1 C 0.35933 1.36071 0.32501
 N2 N 0.37105 1.33703 0.33676
 C3 C 0.35859 1.32400 0.35935
 N4 N 0.33420 1.33489 0.37043
 C5 C 0.32236 1.35886 0.35927
 N6 N 0.33504 1.37151 0.33650
 C7 C 0.35865 0.86103 0.82585
 N8 N 0.36994 0.83676 0.83675
 C9 C 0.35772 0.82386 0.85957
 N10 N 0.33384 0.83522 0.87126
 C11 C 0.32235 0.85961 0.86069
 N12 N 0.33500 0.87242 0.83799
 C13 C 0.85897 1.36014 0.82451
 N14 N 0.83450 1.37066 0.83588
 C15 C 0.82286 1.35875 0.85955
 N16 N 0.83557 1.33578 0.87167
 C17 C 0.85992 1.32495 0.86047
 N18 N 0.87156 1.33730 0.83706
 C19 C 0.85864 0.85974 0.32433
 N20 N 0.83414 0.87026 0.33563
 C21 C 0.82231 0.85820 0.35913
 N22 N 0.83485 0.83507 0.37114
 C23 C 0.85922 0.82423 0.35999
 N24 N 0.87106 0.83673 0.33675
 C25 C 0.63964 0.63989 0.32359
 N26 N 0.62726 0.66269 0.33646
 C27 C 0.64027 0.67587 0.35872
 N28 N 0.66549 0.66569 0.36855
 C29 C 0.67760 0.64241 0.35653
 N30 N 0.66478 0.62987 0.33390
 C31 C 0.64127 0.13852 0.82477
 N32 N 0.66642 0.12860 0.83512
 C33 C 0.68001 0.14199 0.85686
 N34 N 0.66835 0.16601 0.86794
 C35 C 0.64289 0.17588 0.85836
 N36 N 0.62932 0.16190 0.83695
 C37 C 1.14038 0.63970 0.82437
 N38 N 1.12889 0.66322 0.83660
 C39 C 1.14074 0.67468 0.86034
 N40 N 1.16437 0.66252 0.87179
 C41 C 1.17605 0.63898 0.85972
 N42 N 1.16399 0.62771 0.83597
 C43 C 1.14171 0.14013 0.32433
 N44 N 1.16440 0.12767 0.33743
 C45 C 1.17814 0.14107 0.35922
 N46 N 1.16826 0.16669 0.36841
 C47 C 1.14488 0.17866 0.35642
 N48 N 1.13203 0.16550 0.33422
 C49 C 0.63997 1.36157 0.67484
 N50 N 0.62856 1.33752 0.66358
 C51 C 0.64195 1.32373 0.64199
 N52 N 0.66689 1.33419 0.63169
 C53 C 0.67812 1.35872 0.64213
 N54 N 0.66452 1.37221 0.66381
 C55 C 0.64137 0.86108 1.17557
 N56 N 0.62901 0.83827 1.16264
 C57 C 0.64214 0.82504 1.14050
 N58 N 0.66743 0.83517 1.13082
 C59 C 0.67952 0.85844 1.14286
 N60 N 0.66661 0.87105 1.16540
 C61 C 1.14087 1.36132 1.17510
 N62 N 1.16603 1.37132 1.16481
 C63 C 1.17975 1.35792 1.14318
 N64 N 1.16822 1.33379 1.13213
 C65 C 1.14275 1.32384 1.14167
 N66 N 1.12907 1.33784 1.16297
 C67 C 1.14034 0.86169 0.67387
 N68 N 1.12905 0.83747 0.66285
 C69 C 1.14247 0.82358 0.64133
 N70 N 1.16732 0.83412 0.63087
 C71 C 1.17841 0.85882 0.64107
 N72 N 1.16478 0.87239 0.66267
 C73 C 0.35844 0.64110 0.67576
 N74 N 0.33484 0.62896 0.66422
 C75 C 0.32331 0.63934 0.63974
 N76 N 0.33563 0.66229 0.62703
 C77 C 0.35900 0.67483 0.63861
 N78 N 0.37032 0.66412 0.66295
 C79 C 0.35932 0.14003 1.17486
 N80 N 0.33633 0.12729 1.16267
 C81 C 0.32456 0.13782 1.13837
 N82 N 0.33629 0.16129 1.12611
 C83 C 0.35915 0.17432 1.13810
 N84 N 0.37042 0.16373 1.16252
 C85 C 0.85962 0.64019 1.17516
 N86 N 0.83587 0.62815 1.16385
 C87 C 0.82349 0.63944 1.14026
 N88 N 0.83500 0.66302 1.12803
 C89 C 0.85878 0.67521 1.13918
 N90 N 0.87092 0.66373 1.16277
 C91 C 0.85748 0.14293 0.67656
 N92 N 0.83213 0.13293 0.66665
 C93 C 0.82087 0.14279 0.64186
 N94 N 0.83465 0.16390 0.62766
 C95 C 0.85948 0.17481 0.63769
 N96 N 0.87109 0.16385 0.66181
 C97 C 1.35956 0.35910 0.67636
 N98 N 1.33397 0.36847 0.66662
 C99 C 1.32067 0.35526 0.64468
 N100 N 1.33275 0.33188 0.63285
 C101 C 1.35856 0.32232 0.64192
 N102 N 1.37204 0.33637 0.66342
 C103 C 1.35850 0.85964 1.17514
 N104 N 1.37034 0.83596 1.16353
 C105 C 1.35947 0.82433 1.13934
 N106 N 1.33633 0.83659 1.12701
 C107 C 1.32403 0.86000 1.13866
 N108 N 1.33522 0.87147 1.16271
 C109 C 0.85852 0.35864 1.17649
 N110 N 0.83534 0.37081 1.16403
 C111 C 0.82184 0.35770 1.14201
 N112 N 0.83215 0.33262 1.13194
 C113 C 0.85582 0.32076 1.14353
 N114 N 0.86860 0.33366 1.16597
 C115 C 0.85894 0.85970 0.67429
 N116 N 0.87069 0.83599 0.66271
 C117 C 0.85896 0.82373 0.63931
 N118 N 0.83519 0.83529 0.62754
 C119 C 0.82324 0.85901 0.63896
 N120 N 0.83517 0.87109 0.66237
 C121 C 0.63987 0.63886 0.67526
 N122 N 0.62795 0.66245 0.66350
 C123 C 0.64061 0.67563 0.64104
 N124 N 0.66523 0.66490 0.63027
 C125 C 0.67692 0.64093 0.64142
 N126 N 0.66427 0.62815 0.66403
 C127 C 0.64035 1.13853 1.17486
 N128 N 0.66579 1.12906 1.16485
 C129 C 0.67886 1.14220 1.14272
 N130 N 0.66676 1.16566 1.13102
 C131 C 0.64109 1.17531 1.14038
 N132 N 0.62779 1.16128 1.16201
 C133 C 0.14082 0.63973 1.17593
 N134 N 0.12835 0.66245 1.16295
 C135 C 0.14172 0.67635 1.14127
 N136 N 0.16739 0.66660 1.13201
 C137 C 0.17943 0.64316 1.14387
 N138 N 0.16626 0.63016 1.16603
 C139 C 0.14149 1.14151 0.67588
 N140 N 0.12839 1.16363 0.66256
 C141 C 0.14070 1.17643 0.63963
 N142 N 0.16587 1.16616 0.62963
 C143 C 0.17877 1.14364 0.64232
 N144 N 0.16672 1.13173 0.66571
 C145 C 1.35824 0.64196 0.32289
 N146 N 1.33306 0.63183 0.33308
 C147 C 1.32144 0.64265 0.35723
 N148 N 1.33459 0.66456 0.37067
 C149 C 1.35945 0.67530 0.36052
 N150 N 1.37144 0.66360 0.33694
 C151 C 1.35529 1.14290 0.82200
 N152 N 1.33411 1.12897 0.83593
 C153 C 1.32331 1.13928 0.86067
 N154 N 1.33451 1.16340 0.87209
 C155 C 1.35554 1.17785 0.85828
 N156 N 1.36536 1.16766 0.83302
 C157 C 0.85935 0.64021 0.82488
 N158 N 0.83576 0.62813 0.83650
 C159 C 0.82367 0.63939 0.86023
 N160 N 0.83529 0.66298 0.87229
 C161 C 0.85891 0.67520 0.86084
 N162 N 0.87078 0.66376 0.83711
 C163 C 0.85500 1.14382 0.32198
 N164 N 0.83378 1.12999 0.33593
 C165 C 0.82291 1.14047 0.36058
 N166 N 0.83414 1.16464 0.37191
 C167 C 0.85524 1.17896 0.35804
 N168 N 0.86507 1.16861 0.33287
 C169 C 0.63889 0.36099 0.32523
 N170 N 0.62662 0.33824 0.33837
 C171 C 0.64024 0.32449 0.35999
 N172 N 0.66592 0.33439 0.36900
 C173 C 0.67776 0.35783 0.35699
 N174 N 0.66437 0.37073 0.33492
 C175 C 0.64128 0.86096 0.82537
 N176 N 0.62953 0.83752 0.83759
 C177 C 0.64259 0.82452 0.85991
 N178 N 0.66745 0.83529 0.87010
 C179 C 0.67901 0.85912 0.85850
 N180 N 0.66594 0.87172 0.83601
 C181 C 0.13969 0.36092 0.82506
 N182 N 0.12782 0.33760 0.83748
 C183 C 0.14138 0.32395 0.85919
 N184 N 0.16677 0.33425 0.86862
 C185 C 0.17826 0.35812 0.85709
 N186 N 0.16477 0.37118 0.83516
 C187 C 0.14058 0.86086 0.32454
 N188 N 0.12829 0.83800 0.33747
 C189 C 0.14149 0.82473 0.35959
 N190 N 0.16681 0.83488 0.36921
 C191 C 0.17883 0.85820 0.35714
 N192 N 0.16582 0.87083 0.33465
 O193 O 0.97244 0.89615 0.85649
 O194 O 0.97232 0.86302 0.82328
 C195 C 0.96268 0.88619 0.83333
 C196 C 0.93956 0.90156 0.81837
 C197 C 0.92881 0.89158 0.79230
 H198 H 0.93761 0.87238 0.78313
 O199 O 1.02814 1.10381 0.85782
 O200 O 1.02847 1.13718 0.82477
 C201 C 1.03800 1.11389 0.83475
 C202 C 1.06128 1.09868 0.81993
 C203 C 1.07183 1.10860 0.79376
 H204 H 1.06259 1.12748 0.78430
 O205 O 0.86140 0.97306 0.89533
 O206 O 0.82790 0.97301 0.86244
 C207 C 0.83820 0.96323 0.88549
 C208 C 0.82343 0.93977 0.90066
 C209 C 0.79755 0.92888 0.89025
 H210 H 0.78843 0.93786 0.87108
 O211 O 1.14016 1.02691 0.89803
 O212 O 1.17390 1.02693 0.86538
 C213 C 1.16366 1.03641 0.88857
 C214 C 1.17877 1.05938 0.90415
 C215 C 1.20580 1.06849 0.89515
 H216 H 1.21633 1.05710 0.87814
 O217 O 0.89880 0.85852 0.97190
 O218 O 0.86509 0.82582 0.97186
 C219 C 0.88845 0.83548 0.96222
 C220 C 0.90323 0.82026 0.93890
 C221 C 0.89331 0.79370 0.92948
 H222 H 0.87598 0.78353 0.94078
 O223 O 1.10222 1.14282 0.97314
 O224 O 1.13578 1.17566 0.97319
 C225 C 1.11247 1.16593 0.96350
 C226 C 1.09766 1.18099 0.94003
 C227 C 1.10732 1.20764 0.93044
 H228 H 1.12415 1.21813 0.94212
 O229 O 0.90009 1.02852 0.85578
 O230 O 0.86668 1.02853 0.82277
 C231 C 0.88987 1.03830 0.83272
 C232 C 0.90443 1.06217 0.81811
 C233 C 0.89425 1.07252 0.79198
 H234 H 0.87738 1.06099 0.78137
 O235 O 1.10103 0.97254 0.85735
 O236 O 1.13454 0.97279 0.82444
 C237 C 1.11114 0.96318 0.83408
 C238 C 1.09606 0.94017 0.81866
 C239 C 1.10539 0.93126 0.79172
 H240 H 1.12239 0.94288 0.78136
 O241 O 1.02791 0.85738 0.89559
 O242 O 1.02806 0.82403 0.86260
 C243 C 1.03773 0.83423 0.88571
 C244 C 1.06100 0.81946 0.90109
 C245 C 1.07165 0.79328 0.89132
 H246 H 1.06268 0.78391 0.87228
 O247 O 0.97346 1.14291 0.89753
 O248 O 0.97365 1.17659 0.86481
 C249 C 0.96400 1.16632 0.88794
 C250 C 0.94081 1.18113 0.90331
 C251 C 0.93103 1.20777 0.89399
 H252 H 0.94212 1.21838 0.87679
 O253 O 0.85998 1.10221 0.97187
 O254 O 0.82651 1.13512 0.97188
 C255 C 0.83680 1.11211 0.96206
 C256 C 0.82233 1.09741 0.93817
 C257 C 0.79614 1.10749 0.92777
 H258 H 0.78550 1.12434 0.93924
 O259 O 1.13979 0.89674 0.97262
 O260 O 1.17328 0.86386 0.97263
 C261 C 1.16312 0.88701 0.96301
 C262 C 1.17804 0.90218 0.93968
 C263 C 1.20486 0.89288 0.93027
 H264 H 1.21548 0.87628 0.94214
 O265 O 0.97258 1.10514 0.85740
 O266 O 0.97271 1.13863 0.82450
 C267 C 0.96277 1.11552 0.83441
 C268 C 0.93932 1.10064 0.81940
 C269 C 0.92796 1.11152 0.79391
 H270 H 0.93634 1.13128 0.78556
 O271 O 1.02780 0.89638 0.85670
 O272 O 1.02798 0.86333 0.82340
 C273 C 1.03755 0.88654 0.83350
 C274 C 1.06055 0.90217 0.81858
 C275 C 1.07075 0.89297 0.79201
 H276 H 1.06166 0.87410 0.78243
 O277 O 1.13971 0.97123 0.89662
 O278 O 1.17331 0.97129 0.86384
 C279 C 1.16281 0.96127 0.88668
 C280 C 1.17742 0.93765 0.90171
 C281 C 1.20349 0.92695 0.89161
 H282 H 1.21221 0.93577 0.87223
 O283 O 0.86141 1.02882 0.89498
 O284 O 0.82794 1.02881 0.86205
 C285 C 0.83828 1.03871 0.88500
 C286 C 0.82356 1.06228 0.89994
 C287 C 0.79817 1.07369 0.88896
 H288 H 0.78999 1.06532 0.86915
 O289 O 0.89831 1.14195 0.97218
 O290 O 0.86495 1.17495 0.97220
 C291 C 0.88818 1.16510 0.96250
 C292 C 0.90332 1.18031 0.93935
 C293 C 0.89326 1.20657 0.92913
 H294 H 0.87423 1.21568 0.93839
 O295 O 1.10108 0.85733 0.97227
 O296 O 1.13449 0.82435 0.97233
 C297 C 1.11130 0.83426 0.96256
 C298 C 1.09656 0.81931 0.93904
 C299 C 1.10637 0.79278 0.92949
 H300 H 1.12355 0.78242 0.94084
 O301 O 1.10192 1.02797 0.85799
 O302 O 1.13555 1.02817 0.82521
 C303 C 1.11227 1.03785 0.83501
 C304 C 1.09746 1.06133 0.82001
 C305 C 1.10728 1.07112 0.79351
 H306 H 1.12477 1.06018 0.78326
 O307 O 0.89988 0.97302 0.85579
 O308 O 0.86646 0.97309 0.82279
 C309 C 0.88965 0.96332 0.83271
 C310 C 0.90430 0.93973 0.81785
 C311 C 0.89436 0.92997 0.79142
 H312 H 0.87721 0.94128 0.78098
 O313 O 1.02892 1.14274 0.89658
 O314 O 1.02922 1.17628 0.86371
 C315 C 1.03894 1.16584 0.88670
 C316 C 1.06236 1.18046 0.90192
 C317 C 1.07320 1.20642 0.89179
 H318 H 1.06452 1.21518 0.87235
 O319 O 0.97238 0.85760 0.89573
 O320 O 0.97221 0.82419 0.86279
 C321 C 0.96249 0.83447 0.88587
 C322 C 0.93907 0.81989 0.90121
 C323 C 0.92832 0.79370 0.89156
 H324 H 0.93736 0.78415 0.87265
 O325 O 1.14036 1.10286 0.97298
 O326 O 1.17408 1.13553 0.97296
 C327 C 1.16369 1.11250 0.96325
 C328 C 1.17858 1.09698 0.94011
 C329 C 1.20524 1.10635 0.93015
 H330 H 1.21476 1.12514 0.93945
 O331 O 0.86070 0.89852 0.97184
 O332 O 0.82695 0.86588 0.97176
 C333 C 0.83742 0.88885 0.96202
 C334 C 0.82287 0.90385 0.93835
 C335 C 0.79664 0.89383 0.92807
 H336 H 0.78621 0.87640 0.93897
 Cu337 Cu 1.00015 0.88017 0.87945
 Cu338 Cu 1.00016 0.84025 0.83971
 Cu339 Cu 1.00072 1.12027 0.88059
 Cu340 Cu 1.00101 1.16054 0.84113
 Cu341 Cu 0.88403 1.00083 0.87878
 Cu342 Cu 0.84385 1.00083 0.83925
 Cu343 Cu 1.11736 0.99968 0.88079
 Cu344 Cu 1.15773 0.99986 0.84148
 C345 C 0.92719 0.92569 0.83091
 H346 H 0.93485 0.93307 0.85137
 C347 C 0.90621 0.90568 0.77852
 C348 C 1.07418 1.07497 0.83280
 H349 H 1.06661 1.06762 0.85332
 C350 C 1.09481 1.09494 0.78025
 C351 C 0.83590 0.92711 0.92476
 H352 H 0.85621 0.93485 0.93247
 C353 C 0.78389 0.90591 0.90381
 C354 C 1.16556 1.07346 0.92697
 H355 H 1.14466 1.06661 0.93396
 C356 C 1.21914 1.09225 0.90765
 C357 C 0.92639 0.83293 0.92493
 H358 H 0.93405 0.85347 0.93207
 C359 C 0.90546 0.78027 0.90562
 C360 C 1.07477 1.16790 0.92600
 H361 H 1.06713 1.14742 0.93336
 C362 C 1.09554 1.22055 0.90600
 C363 C 0.92733 1.07602 0.83131
 H364 H 0.93532 1.06806 0.85143
 C365 C 0.90544 1.09755 0.77975
 C366 C 1.07332 0.92583 0.83165
 H367 H 1.06611 0.93257 0.85249
 C368 C 1.09318 0.90742 0.77826
 C369 C 1.07358 0.83225 0.92501
 H370 H 1.06600 0.85277 0.93224
 C371 C 1.09432 0.77962 0.90543
 C372 C 0.92714 1.16782 0.92632
 H373 H 0.93452 1.14721 0.93354
 C374 C 0.90700 1.22061 0.90646
 C375 C 0.83553 1.07439 0.92448
 H376 H 0.85564 1.06640 0.93248
 C377 C 0.78391 1.09617 0.90281
 C378 C 1.16481 0.92498 0.92566
 H379 H 1.14423 0.93241 0.93296
 C380 C 1.21778 0.90469 0.90585
 O381 O 1.02753 0.89647 1.14284
 O382 O 1.02752 0.86344 1.17621
 C383 C 1.03726 0.88657 1.16604
 C384 C 1.06041 0.90201 1.18096
 C385 C 1.07091 0.89229 1.20726
 H386 H 1.06214 0.87296 1.21616
 O387 O 0.97280 1.10312 1.14420
 O388 O 0.97279 1.13633 1.17735
 C389 C 0.96308 1.11318 1.16735
 C390 C 0.93940 1.09839 1.18199
 C391 C 0.92849 1.10876 1.20783
 H392 H 0.93944 1.12609 1.21826
 O393 O 0.86011 1.02808 1.10362
 O394 O 0.82640 1.02777 1.13631
 C395 C 0.83678 1.03768 1.11336
 C396 C 0.82203 1.06116 1.09831
 C397 C 0.79648 1.07237 1.10909
 H398 H 0.78753 1.06346 1.12838
 O399 O 1.14026 0.97112 1.10389
 O400 O 1.17382 0.97075 1.13674
 C401 C 1.16333 0.96102 1.11379
 C402 C 1.17786 0.93754 1.09860
 C403 C 1.20433 0.92734 1.10812
 H404 H 1.21391 0.93662 1.12690
 O405 O 1.10087 0.85701 1.02786
 O406 O 1.13427 0.82403 1.02782
 C407 C 1.11099 0.83385 1.03749
 C408 C 1.09612 0.81881 1.06093
 C409 C 1.10580 0.79221 1.07054
 H410 H 1.12259 0.78173 1.05880
 O411 O 0.89857 1.14117 1.02785
 O412 O 0.86519 1.17416 1.02785
 C413 C 0.88832 1.16414 1.03773
 C414 C 0.90283 1.17878 1.06165
 C415 C 0.89210 1.20454 1.07233
 H416 H 0.87438 1.21465 1.06160
 O417 O 0.89937 0.97334 1.14356
 O418 O 0.86586 0.97319 1.17646
 C419 C 0.88925 0.96369 1.16672
 C420 C 0.90412 0.94026 1.18173
 C421 C 0.89448 0.93074 1.20840
 H422 H 0.87797 0.94274 1.21899
 O423 O 1.10324 1.02817 1.14249
 O424 O 1.13677 1.02797 1.17536
 C425 C 1.11371 1.03799 1.16542
 C426 C 1.09891 1.06142 1.18044
 C427 C 1.10902 1.07164 1.20669
 H428 H 1.12831 1.06260 1.21538
 O429 O 0.97215 0.85760 1.10376
 O430 O 0.97184 0.82424 1.13680
 C431 C 0.96223 0.83447 1.11364
 C432 C 0.93887 0.81984 1.09824
 C433 C 0.92809 0.79366 1.10793
 H434 H 0.93707 0.78414 1.12690
 O435 O 1.02826 1.14191 1.10492
 O436 O 1.02837 1.17523 1.13793
 C437 C 1.03809 1.16507 1.11484
 C438 C 1.06150 1.17987 1.09965
 C439 C 1.07233 1.20587 1.10977
 H440 H 1.06328 1.21521 1.12879
 O441 O 0.86038 0.89803 1.02761
 O442 O 0.82664 0.86537 1.02742
 C443 C 0.83710 0.88824 1.03735
 C444 C 0.82260 0.90297 1.06117
 C445 C 0.79654 0.89266 1.07171
 H446 H 0.78616 0.87513 1.06097
 O447 O 1.14075 1.10311 1.02865
 O448 O 1.17445 1.13580 1.02867
 C449 C 1.16407 1.11279 1.03840
 C450 C 1.17906 1.09723 1.06147
 C451 C 1.20549 1.10684 1.07172
 H452 H 1.21425 1.12622 1.06295
 O453 O 1.02811 1.10234 1.14340
 O454 O 1.02821 1.13542 1.17668
 C455 C 1.03776 1.11218 1.16664
 C456 C 1.06105 1.09693 1.18149
 C457 C 1.07043 1.10581 1.20843
 H458 H 1.05856 1.12228 1.21922
 O459 O 0.97199 0.89625 1.14290
 O460 O 0.97172 0.86314 1.17619
 C461 C 0.96208 0.88628 1.16602
 C462 C 0.93886 0.90166 1.18089
 C463 C 0.92786 0.89149 1.20681
 H464 H 0.93625 0.87185 1.21535
 O465 O 1.14118 1.02661 1.10245
 O466 O 1.17487 1.02625 1.13517
 C467 C 1.16474 1.03587 1.11198
 C468 C 1.17987 1.05890 1.09656
 C469 C 1.20703 1.06780 1.10537
 H470 H 1.21776 1.05562 1.12167
 O471 O 0.86085 0.97243 1.10401
 O472 O 0.82725 0.97211 1.13681
 C473 C 0.83775 0.96237 1.11387
 C474 C 0.82322 0.93876 1.09886
 C475 C 0.79758 0.92764 1.10951
 H476 H 0.78862 0.93649 1.12880
 O477 O 1.10189 1.14220 1.02866
 O478 O 1.13546 1.17504 1.02873
 C479 C 1.11219 1.16519 1.03845
 C480 C 1.09743 1.18006 1.06202
 C481 C 1.10753 1.20633 1.07203
 H482 H 1.12504 1.21658 1.06108
 O483 O 0.89884 0.85847 1.02743
 O484 O 0.86515 0.82576 1.02724
 C485 C 0.88846 0.83539 1.03702
 C486 C 0.90315 0.82015 1.06041
 C487 C 0.89317 0.79361 1.06990
 H488 H 0.87585 0.78345 1.05860
 O489 O 1.10114 0.97271 1.14282
 O490 O 1.13454 0.97249 1.17584
 C491 C 1.11104 0.96318 1.16611
 C492 C 1.09568 0.94021 1.18140
 C493 C 1.10478 0.93119 1.20840
 H494 H 1.12127 0.94327 1.21897
 O495 O 0.89815 1.02888 1.14327
 O496 O 0.86448 1.02868 1.17600
 C497 C 0.88753 1.03876 1.16609
 C498 C 0.90185 1.06260 1.18086
 C499 C 0.89033 1.07413 1.20590
 H500 H 0.87055 1.06551 1.21395
 O501 O 0.97252 1.14108 1.10434
 O502 O 0.97241 1.17441 1.13735
 C503 C 0.96254 1.16410 1.11434
 C504 C 0.93875 1.17857 1.09937
 C505 C 0.92719 1.20394 1.11016
 H506 H 0.93593 1.21293 1.12948
 O507 O 1.02771 0.85728 1.10426
 O508 O 1.02767 0.82400 1.13738
 C509 C 1.03750 0.83415 1.11430
 C510 C 1.06085 0.81932 1.09910
 C511 C 1.07176 0.79337 1.10928
 H512 H 1.06310 0.78459 1.12872
 O513 O 1.13962 0.89642 1.02814
 O514 O 1.17311 0.86352 1.02804
 C515 C 1.16291 0.88659 1.03777
 C516 C 1.17789 0.90165 1.06105
 C517 C 1.20475 0.89234 1.07030
 H518 H 1.21521 0.87526 1.05894
 O519 O 0.85949 1.10226 1.02749
 O520 O 0.82604 1.13518 1.02746
 C521 C 0.83626 1.11213 1.03722
 C522 C 0.82159 1.09726 1.06086
 C523 C 0.79566 1.10767 1.07150
 H524 H 0.78542 1.12538 1.06089
 Cu525 Cu 0.99986 0.88019 1.12012
 Cu526 Cu 0.99967 0.84036 1.15998
 Cu527 Cu 1.00045 1.11883 1.12087
 Cu528 Cu 1.00052 1.15876 1.16059
 Cu529 Cu 0.88304 0.88168 0.99970
 Cu530 Cu 0.84253 0.84249 0.99953
 Cu531 Cu 1.11697 0.88016 1.00023
 Cu532 Cu 1.15714 0.84063 1.00021
 Cu533 Cu 0.88244 1.11861 0.99981
 Cu534 Cu 0.84232 1.15815 0.99983
 Cu535 Cu 1.11795 1.11948 1.00083
 Cu536 Cu 1.15832 1.15878 1.00087
 Cu537 Cu 0.88300 1.00068 1.12033
 Cu538 Cu 0.84259 1.00033 1.15966
 Cu539 Cu 1.11810 0.99969 1.11963
 Cu540 Cu 1.15838 0.99931 1.15907
 C541 C 1.07304 0.92591 1.16818
 H542 H 1.06583 0.93287 1.14741
 C543 C 1.09305 0.90681 1.22148
 C544 C 0.92633 1.07492 1.16906
 H545 H 0.93473 1.06674 1.14921
 C546 C 0.90359 1.09709 1.21993
 C547 C 0.83437 1.07372 1.07413
 H548 H 0.85447 1.06570 1.06616
 C549 C 0.78300 1.09560 1.09582
 C550 C 1.16482 0.92456 1.07505
 H551 H 1.14409 0.93184 1.06803
 C552 C 1.21811 0.90478 1.09404
 C553 C 1.07326 0.83186 1.07498
 H554 H 1.06563 0.85233 1.06759
 C555 C 1.09419 0.77933 1.09508
 C556 C 0.92643 1.16619 1.07507
 H557 H 0.93472 1.14624 1.06704
 C558 C 0.90389 1.21723 1.09676
 C559 C 0.92675 0.92599 1.16850
 H560 H 0.93437 0.93334 1.14801
 C561 C 0.90576 0.90598 1.22111
 C562 C 1.07503 1.07432 1.16799
 H563 H 1.06775 1.06721 1.14730
 C564 C 1.09485 1.09378 1.22119
 C565 C 0.92629 0.83283 1.07442
 H566 H 0.93399 0.85335 1.06725
 C567 C 0.90526 0.78021 1.09384
 C568 C 1.07415 1.16723 1.07570
 H569 H 1.06639 1.14686 1.06819
 C570 C 1.09535 1.21937 1.09608
 C571 C 0.83556 0.92630 1.07464
 H572 H 0.85571 0.93429 1.06674
 C573 C 0.78393 0.90466 1.09607
 C574 C 1.16638 1.07332 1.07414
 H575 H 1.14552 1.06643 1.06710
 C576 C 1.22006 1.09216 1.09355
 O577 O 0.97261 0.39729 0.35714
 O578 O 0.97244 0.36419 0.32389
 C579 C 0.96303 0.38752 0.33383
 C580 C 0.94002 0.40295 0.31870
 C581 C 0.93060 0.39377 0.29186
 H582 H 0.94229 0.37699 0.28136
 O583 O 1.02867 0.60388 0.35812
 O584 O 1.02869 0.63711 0.32494
 C585 C 1.03845 0.61398 0.33501
 C586 C 1.06160 0.59870 0.32002
 C587 C 1.07192 0.60842 0.29365
 H588 H 1.06310 0.62773 0.28477
 O589 O 0.85897 0.47258 0.39603
 O590 O 0.82583 0.47262 0.36276
 C591 C 0.83587 0.46283 0.38592
 C592 C 0.82099 0.43938 0.40088
 C593 C 0.79550 0.42812 0.38998
 H594 H 0.78669 0.43691 0.37058
 O595 O 1.14049 0.52711 0.39685
 O596 O 1.17386 0.52717 0.36383
 C597 C 1.16369 0.53688 0.38694
 C598 C 1.17845 0.56047 0.40187
 C599 C 1.20445 0.57105 0.39150
 H600 H 1.21462 0.56052 0.37372
 O601 O 0.89677 0.35948 0.47089
 O602 O 0.86333 0.32652 0.47091
 C603 C 0.88636 0.33659 0.46091
 C604 C 0.90094 0.32178 0.43717
 C605 C 0.88985 0.29628 0.42621
 H606 H 0.87027 0.28801 0.43506
 O607 O 1.10240 0.64228 0.47266
 O608 O 1.13588 0.67520 0.47271
 C609 C 1.11254 0.66546 0.46310
 C610 C 1.09751 0.68065 0.43990
 C611 C 1.10726 0.70721 0.43020
 H612 H 1.12475 0.71745 0.44117
 O613 O 0.89836 0.52795 0.35722
 O614 O 0.86535 0.52813 0.32382
 C615 C 0.88843 0.53784 0.33409
 C616 C 0.90352 0.56137 0.31943
 C617 C 0.89355 0.57185 0.29325
 H618 H 0.87475 0.56243 0.28382
 O619 O 1.10128 0.47224 0.35705
 O620 O 1.13453 0.47240 0.32388
 C621 C 1.11117 0.46290 0.33368
 C622 C 1.09591 0.44001 0.31835
 C623 C 1.10483 0.43134 0.29121
 H624 H 1.12114 0.44366 0.28063
 O625 O 1.02797 0.35810 0.39613
 O626 O 1.02794 0.32485 0.36302
 C627 C 1.03790 0.33510 0.38599
 C628 C 1.06180 0.32068 0.40067
 C629 C 1.07342 0.29544 0.38965
 H630 H 1.06455 0.28646 0.37038
 O631 O 0.97288 0.64209 0.39732
 O632 O 0.97277 0.67555 0.36437
 C633 C 0.96311 0.66530 0.38750
 C634 C 0.93969 0.68001 0.40268
 C635 C 0.92989 0.70662 0.39326
 H636 H 0.94099 0.71720 0.37605
 O637 O 0.85825 0.60209 0.47159
 O638 O 0.82491 0.63513 0.47163
 C639 C 0.83511 0.61212 0.46179
 C640 C 0.82053 0.59743 0.43801
 C641 C 0.79456 0.60778 0.42739
 H642 H 0.78423 0.62534 0.43811
 O643 O 1.14100 0.39761 0.47271
 O644 O 1.17434 0.36458 0.47278
 C645 C 1.16429 0.38778 0.46312
 C646 C 1.17912 0.40278 0.43960
 C647 C 1.20567 0.39315 0.42977
 H648 H 1.21631 0.37651 0.44156
 O649 O 0.97319 0.60336 0.35796
 O650 O 0.97309 0.63661 0.32480
 C651 C 0.96356 0.61331 0.33472
 C652 C 0.94045 0.59803 0.31959
 C653 C 0.93068 0.60768 0.29301
 H654 H 0.94151 0.62526 0.28277
 O655 O 1.02794 0.39644 0.35685
 O656 O 1.02787 0.36335 0.32358
 C657 C 1.03765 0.38645 0.33368
 C658 C 1.06077 0.40183 0.31871
 C659 C 1.07111 0.39233 0.29228
 H660 H 1.06229 0.37307 0.28332
 O661 O 1.14020 0.47131 0.39623
 O662 O 1.17354 0.47132 0.36319
 C663 C 1.16327 0.46139 0.38618
 C664 C 1.17807 0.43789 0.40127
 C665 C 1.20384 0.42686 0.39078
 H666 H 1.21223 0.43539 0.37112
 O667 O 0.85898 0.52813 0.39569
 O668 O 0.82584 0.52827 0.36242
 C669 C 0.83594 0.53802 0.38553
 C670 C 0.82117 0.56156 0.40041
 C671 C 0.79559 0.57271 0.38963
 H672 H 0.78668 0.56383 0.37033
 O673 O 0.89714 0.64115 0.47177
 O674 O 0.86392 0.67430 0.47182
 C675 C 0.88708 0.66430 0.46205
 C676 C 0.90221 0.67935 0.43876
 C677 C 0.89216 0.70558 0.42844
 H678 H 0.87315 0.71474 0.43770
 O679 O 1.10238 0.35820 0.47169
 O680 O 1.13565 0.32509 0.47165
 C681 C 1.11260 0.33521 0.46178
 C682 C 1.09807 0.32062 0.43793
 C683 C 1.10889 0.29498 0.42709
 H684 H 1.12677 0.28495 0.43763
 O685 O 1.10169 0.52747 0.35752
 O686 O 1.13495 0.52753 0.32436
 C687 C 1.11171 0.53715 0.33432
 C688 C 1.09669 0.56047 0.31933
 C689 C 1.10567 0.56947 0.29229
 H690 H 1.12200 0.55733 0.28158
 O691 O 0.89771 0.47228 0.35694
 O692 O 0.86469 0.47242 0.32355
 C693 C 0.88766 0.46248 0.33381
 C694 C 0.90261 0.43895 0.31906
 C695 C 0.89242 0.42838 0.29299
 H696 H 0.87316 0.43741 0.28423
 O697 O 1.02839 0.64260 0.39714
 O698 O 1.02839 0.67602 0.36415
 C699 C 1.03810 0.66583 0.38725
 C700 C 1.06136 0.68068 0.40251
 C701 C 1.07182 0.70692 0.39266
 H702 H 1.06258 0.71638 0.37378
 O703 O 0.97226 0.35804 0.39616
 O704 O 0.97200 0.32470 0.36316
 C705 C 0.96234 0.33491 0.38628
 C706 C 0.93857 0.32046 0.40131
 C707 C 0.92798 0.29424 0.39154
 H708 H 0.93907 0.28357 0.37444
 O709 O 1.14070 0.60262 0.47203
 O710 O 1.17429 0.63542 0.47198
 C711 C 1.16381 0.61253 0.46205
 C712 C 1.17828 0.59769 0.43823
 C713 C 1.20391 0.60836 0.42707
 H714 H 1.21304 0.62747 0.43612
 O715 O 0.85813 0.39860 0.47194
 O716 O 0.82466 0.36566 0.47203
 C717 C 0.83487 0.38874 0.46227
 C718 C 0.82023 0.40357 0.43860
 C719 C 0.79436 0.39310 0.42785
 H720 H 0.78404 0.37547 0.43852
 Cu721 Cu 1.00016 0.38073 0.37993
 Cu722 Cu 0.99993 0.34084 0.34016
 Cu723 Cu 1.00078 0.61966 0.38095
 Cu724 Cu 1.00066 0.65969 0.34125
 Cu725 Cu 0.88183 0.50022 0.37979
 Cu726 Cu 0.84211 0.50038 0.33978
 Cu727 Cu 1.11764 0.49951 0.38029
 Cu728 Cu 1.15766 0.49961 0.34059
 C729 C 0.92631 0.42599 0.33179
 H730 H 0.93361 0.43331 0.35240
 C731 C 0.90634 0.40585 0.27885
 C732 C 1.07424 0.57481 0.33271
 H733 H 1.06710 0.56781 0.35350
 C734 C 1.09392 0.59387 0.27928
 C735 C 0.83312 0.42700 0.42525
 H736 H 0.85318 0.43505 0.43331
 C737 C 0.78190 0.40499 0.40334
 C738 C 1.16575 0.57368 0.42551
 H739 H 1.14561 0.56576 0.43353
 C740 C 1.21731 0.59518 0.40375
 C741 C 0.92524 0.33374 0.42452
 H742 H 0.93333 0.35388 0.43227
 C743 C 0.90327 0.28198 0.40352
 C744 C 1.07427 0.66782 0.42620
 H745 H 1.06677 0.64725 0.43347
 C746 C 1.09477 0.72048 0.40638
 C747 C 0.92703 0.57457 0.33238
 H748 H 0.93436 0.56709 0.35294
 C749 C 0.90703 0.59493 0.27970
 C750 C 1.07344 0.42557 0.33159
 H751 H 1.06635 0.43234 0.35246
 C752 C 1.09313 0.40704 0.27801
 C753 C 1.07426 0.33307 0.42485
 H754 H 1.06590 0.35292 0.43304
 C755 C 1.09695 0.28229 0.40275
 C756 C 0.92601 0.66678 0.42574
 H757 H 0.93341 0.64621 0.43305
 C758 C 0.90589 0.71954 0.40572
 C759 C 0.83343 0.57404 0.42465
 H760 H 0.85353 0.56604 0.43265
 C761 C 0.78197 0.59578 0.40300
 C762 C 1.16584 0.42559 0.42560
 H763 H 1.14545 0.43325 0.43319
 C764 C 1.21822 0.40461 0.40498
 O765 O 1.02659 0.39676 0.64225
 O766 O 1.02663 0.36357 0.67546
 C767 C 1.03621 0.38685 0.66549
 C768 C 1.05917 0.40240 0.68061
 C769 C 1.06929 0.39289 0.70714
 H770 H 1.06011 0.37398 0.71659
 O771 O 0.97224 0.60331 0.64193
 O772 O 0.97219 0.63653 0.67507
 C773 C 0.96255 0.61334 0.66510
 C774 C 0.93926 0.59827 0.68010
 C775 C 0.92945 0.60792 0.70663
 H776 H 0.94037 0.62539 0.71694
 O777 O 0.85886 0.52747 0.60325
 O778 O 0.82548 0.52747 0.63627
 C779 C 0.83563 0.53717 0.61312
 C780 C 0.82072 0.56048 0.59792
 C781 C 0.79484 0.57131 0.60831
 H782 H 0.78572 0.56228 0.62746
 O783 O 1.14033 0.47064 0.60384
 O784 O 1.17343 0.47052 0.63714
 C785 C 1.16315 0.46049 0.61425
 C786 C 1.17753 0.43643 0.59985
 C787 C 1.20278 0.42493 0.61102
 H788 H 1.21162 0.43382 0.63035
 O789 O 1.10114 0.35778 0.52718
 O790 O 1.13421 0.32446 0.52708
 C791 C 1.11091 0.33441 0.53662
 C792 C 1.09566 0.31927 0.55976
 C793 C 1.10485 0.29235 0.56892
 H794 H 1.12133 0.28176 0.55688
 O795 O 0.89699 0.64096 0.52743
 O796 O 0.86374 0.67409 0.52750
 C797 C 0.88689 0.66403 0.53726
 C798 C 0.90195 0.67896 0.56064
 C799 C 0.89178 0.70508 0.57105
 H800 H 0.87275 0.71424 0.56181
 O801 O 0.89841 0.47286 0.64305
 O802 O 0.86522 0.47293 0.67628
 C803 C 0.88846 0.46331 0.66632
 C804 C 0.90337 0.43985 0.68122
 C805 C 0.89393 0.43039 0.70796
 H806 H 0.87755 0.44245 0.71869
 O807 O 1.10272 0.52799 0.64150
 O808 O 1.13590 0.52802 0.67473
 C809 C 1.11292 0.53794 0.66449
 C810 C 1.09807 0.56152 0.67920
 C811 C 1.10815 0.57194 0.70536
 H812 H 1.12709 0.56267 0.71465
 O813 O 0.97175 0.35767 0.60258
 O814 O 0.97155 0.32410 0.63541
 C815 C 0.96202 0.33436 0.61223
 C816 C 0.93900 0.31951 0.59651
 C817 C 0.92895 0.29281 0.60558
 H818 H 0.93820 0.28310 0.62432
 O819 O 1.02813 0.64203 0.60316
 O820 O 1.02810 0.67534 0.63621
 C821 C 1.03799 0.66511 0.61323
 C822 C 1.06166 0.67975 0.59839
 C823 C 1.07255 0.70560 0.60877
 H824 H 1.06332 0.71490 0.62772
 O825 O 0.85871 0.39793 0.52759
 O826 O 0.82530 0.36494 0.52761
 C827 C 0.83557 0.38794 0.53746
 C828 C 0.82104 0.40262 0.56132
 C829 C 0.79470 0.39269 0.57150
 H830 H 0.78409 0.37582 0.56001
 O831 O 1.14115 0.60242 0.52786
 O832 O 1.17480 0.63515 0.52788
 C833 C 1.16443 0.61215 0.53766
 C834 C 1.17927 0.59678 0.56096
 C835 C 1.20533 0.60686 0.57169
 H836 H 1.21398 0.62631 0.56298
 O837 O 1.02763 0.60265 0.64158
 O838 O 1.02764 0.63581 0.67479
 C839 C 1.03729 0.61262 0.66477
 C840 C 1.06066 0.59758 0.67963
 C841 C 1.07049 0.60717 0.70616
 H842 H 1.05946 0.62447 0.71661
 O843 O 0.97111 0.39603 0.64207
 O844 O 0.97090 0.36272 0.67516
 C845 C 0.96120 0.38589 0.66512
 C846 C 0.93800 0.40118 0.68011
 C847 C 0.92719 0.39104 0.70613
 H848 H 0.93563 0.37141 0.71466
 O849 O 1.14128 0.52624 0.60197
 O850 O 1.17458 0.52613 0.63508
 C851 C 1.16470 0.53564 0.61172
 C852 C 1.17988 0.55873 0.59640
 C853 C 1.20670 0.56816 0.60576
 H854 H 1.21724 0.55636 0.62246
 O855 O 0.85955 0.47178 0.60400
 O856 O 0.82624 0.47169 0.63708
 C857 C 0.83657 0.46174 0.61415
 C858 C 0.82198 0.43800 0.59933
 C859 C 0.79640 0.42677 0.61009
 H860 H 0.78800 0.43535 0.62970
 O861 O 1.10260 0.64183 0.52806
 O862 O 1.13614 0.67470 0.52811
 C863 C 1.11288 0.66485 0.53781
 C864 C 1.09807 0.67977 0.56129
 C865 C 1.10826 0.70593 0.57153
 H866 H 1.12600 0.71608 0.56085
 O867 O 0.89771 0.35864 0.52652
 O868 O 0.86441 0.32554 0.52643
 C869 C 0.88781 0.33529 0.53592
 C870 C 0.90315 0.31982 0.55879
 C871 C 0.89400 0.29276 0.56758
 H872 H 0.87696 0.28243 0.55602
 O873 O 1.10079 0.47252 0.64218
 O874 O 1.13379 0.47257 0.67560
 C875 C 1.11045 0.46312 0.66563
 C876 C 1.09498 0.44018 0.68086
 C877 C 1.10421 0.43091 0.70773
 H878 H 1.12132 0.44225 0.71819
 O879 O 0.89756 0.52833 0.64242
 O880 O 0.86429 0.52840 0.67556
 C881 C 0.88735 0.53825 0.66540
 C882 C 0.90219 0.56185 0.68006
 C883 C 0.89213 0.57230 0.70620
 H884 H 0.87328 0.56290 0.71558
 O885 O 0.97252 0.64162 0.60213
 O886 O 0.97242 0.67499 0.63511
 C887 C 0.96280 0.66483 0.61194
 C888 C 0.93940 0.67958 0.59675
 C889 C 0.92945 0.70607 0.60630
 H890 H 0.94043 0.71657 0.62362
 O891 O 1.02730 0.35776 0.60338
 O892 O 1.02733 0.32432 0.63633
 C893 C 1.03716 0.33462 0.61331
 C894 C 1.06047 0.31982 0.59800
 C895 C 1.07105 0.29362 0.60786
 H896 H 1.06233 0.28479 0.62724
 O897 O 1.14070 0.39627 0.52838
 O898 O 1.17386 0.36306 0.52842
 C899 C 1.16366 0.38600 0.53838
 C900 C 1.17806 0.40037 0.56246
 C901 C 1.20372 0.38963 0.57348
 H902 H 1.21393 0.37186 0.56297
 O903 O 0.85827 0.60165 0.52715
 O904 O 0.82490 0.63466 0.52720
 C905 C 0.83506 0.61152 0.53688
 C906 C 0.82029 0.59652 0.56039
 C907 C 0.79406 0.60654 0.57063
 H908 H 0.78372 0.62407 0.55980
 Cu909 Cu 0.99919 0.38037 0.61928
 Cu910 Cu 0.99910 0.34031 0.65890
 Cu911 Cu 1.00010 0.61910 0.61886
 Cu912 Cu 1.00003 0.65905 0.65860
 Cu913 Cu 0.88116 0.38199 0.49930
 Cu914 Cu 0.84106 0.34238 0.49934
 Cu915 Cu 1.11801 0.38082 0.50000
 Cu916 Cu 1.15787 0.34100 0.49999
 Cu917 Cu 0.88101 0.61817 0.49949
 Cu918 Cu 0.84102 0.65786 0.49956
 Cu919 Cu 1.11840 0.61896 0.50016
 Cu920 Cu 1.15872 0.65834 0.50017
 Cu921 Cu 0.88191 0.50012 0.61984
 Cu922 Cu 0.84192 0.50010 0.65959
 Cu923 Cu 1.11799 0.49939 0.61903
 Cu924 Cu 1.15778 0.49933 0.65895
 C925 C 1.07212 0.42611 0.66773
 H926 H 1.06501 0.43306 0.64692
 C927 C 1.09186 0.40700 0.72096
 C928 C 0.92579 0.57495 0.66723
 H929 H 0.93321 0.56745 0.64673
 C930 C 0.90568 0.59527 0.71984
 C931 C 0.83322 0.57319 0.57389
 H932 H 0.85355 0.56547 0.56621
 C933 C 0.78123 0.59434 0.59480
 C934 C 1.16536 0.42402 0.57556
 H935 H 1.14554 0.43235 0.56722
 C936 C 1.21623 0.40160 0.59793
 C937 C 1.07303 0.33251 0.57403
 H938 H 1.06573 0.35320 0.56694
 C939 C 1.09320 0.27938 0.59340
 C940 C 0.92580 0.66643 0.57361
 H941 H 0.93330 0.64594 0.56620
 C942 C 0.90542 0.71895 0.59385
 C943 C 0.92584 0.42552 0.66781
 H944 H 0.93332 0.43286 0.64726
 C945 C 0.90524 0.40561 0.72059
 C946 C 1.07429 0.57446 0.66655
 H947 H 1.06685 0.56700 0.64604
 C948 C 1.09444 0.59471 0.71917
 C949 C 0.92598 0.33277 0.57305
 H950 H 0.93305 0.35370 0.56643
 C951 C 0.90644 0.27911 0.59123
 C952 C 1.07450 0.66709 0.57459
 H953 H 1.06664 0.64683 0.56689
 C954 C 1.09583 0.71898 0.59545
 C955 C 0.83419 0.42567 0.57502
 H956 H 0.85439 0.43357 0.56717
 C957 C 0.78221 0.40426 0.59622
 C958 C 1.16669 0.57277 0.57354
 H959 H 1.14608 0.56553 0.56612
 C960 C 1.21963 0.59260 0.59397
 O961 O 0.47198 0.89729 0.35699
 O962 O 0.47170 0.86421 0.32373
 C963 C 0.46211 0.88738 0.33386
 C964 C 0.43886 0.90274 0.31900
 C965 C 0.42796 0.89258 0.29308
 H966 H 0.43677 0.87334 0.28399
 O967 O 0.52886 1.10374 0.35730
 O968 O 0.52913 1.13693 0.32408
 C969 C 0.53878 1.11379 0.33424
 C970 C 0.56199 1.09846 0.31946
 C971 C 0.57222 1.10786 0.29296
 H972 H 0.56326 1.12699 0.28384
 O973 O 0.36013 0.97294 0.39595
 O974 O 0.32665 0.97302 0.36302
 C975 C 0.33706 0.96301 0.38591
 C976 C 0.32255 0.93915 0.40064
 C977 C 0.29696 0.92800 0.38986
 H978 H 0.28792 0.93704 0.37069
 O979 O 0.64022 1.02707 0.39794
 O980 O 0.67395 1.02712 0.36528
 C981 C 0.66367 1.03666 0.38844
 C982 C 0.67868 1.05975 0.40398
 C983 C 0.70563 1.06908 0.39494
 H984 H 0.71618 1.05782 0.37785
 O985 O 0.39840 0.85838 0.47208
 O986 O 0.36496 0.82541 0.47202
 C987 C 0.38831 0.83520 0.46248
 C988 C 0.40337 0.82000 0.43934
 C989 C 0.39404 0.79312 0.43027
 H990 H 0.37699 0.78270 0.44176
 O991 O 0.60159 1.14273 0.47281
 O992 O 0.63506 1.17568 0.47286
 C993 C 0.61176 1.16589 0.46320
 C994 C 0.59685 1.18100 0.43985
 C995 C 0.60623 1.20785 0.43057
 H996 H 0.62293 1.21839 0.44240
 O997 O 0.39814 1.02948 0.35732
 O998 O 0.36467 1.02965 0.32438
 C999 C 0.38778 1.03949 0.33442
 C1000 C 0.40260 1.06307 0.31959
 C1001 C 0.39203 1.07385 0.29378
 H1002 H 0.37248 1.06507 0.28545
 O1003 O 0.60124 0.97240 0.35750
 O1004 O 0.63480 0.97252 0.32463
 C1005 C 0.61135 0.96299 0.33425
 C1006 C 0.59622 0.93998 0.31886
 C1007 C 0.60555 0.93096 0.29195
 H1008 H 0.62219 0.94298 0.28155
 O1009 O 0.52725 0.85802 0.39593
 O1010 O 0.52724 0.82475 0.36284
 C1011 C 0.53691 0.83481 0.38602
 C1012 C 0.56000 0.81981 0.40140
 C1013 C 0.57048 0.79363 0.39148
 H1014 H 0.56145 0.78436 0.37241
 O1015 O 0.47311 1.14216 0.39621
 O1016 O 0.47314 1.17560 0.36324
 C1017 C 0.46338 1.16536 0.38634
 C1018 C 0.43989 1.18002 0.40145
 C1019 C 0.42974 1.20643 0.39180
 H1020 H 0.44058 1.21692 0.37438
 O1021 O 0.35936 1.10251 0.47290
 O1022 O 0.32598 1.13551 0.47295
 C1023 C 0.33594 1.11223 0.46344
 C1024 C 0.32080 1.09693 0.44032
 C1025 C 0.29400 1.10627 0.43085
 H1026 H 0.28345 1.12306 0.44250
 O1027 O 0.63954 0.89644 0.47219
 O1028 O 0.67281 0.86333 0.47229
 C1029 C 0.66273 0.88644 0.46250
 C1030 C 0.67763 0.90136 0.43900
 C1031 C 0.70399 0.89139 0.42898
 H1032 H 0.71424 0.87387 0.43988
 O1033 O 0.47343 1.10367 0.35668
 O1034 O 0.47351 1.13688 0.32348
 C1035 C 0.46384 1.11366 0.33343
 C1036 C 0.44042 1.09862 0.31855
 C1037 C 0.43057 1.10808 0.29192
 H1038 H 0.44218 1.12484 0.28127
 O1039 O 0.52755 0.89674 0.35683
 O1040 O 0.52753 0.86373 0.32350
 C1041 C 0.53737 0.88676 0.33371
 C1042 C 0.56076 0.90201 0.31896
 C1043 C 0.57143 0.89227 0.29276
 H1044 H 0.56260 0.87301 0.28379
 O1045 O 0.64001 0.97133 0.39671
 O1046 O 0.67367 0.97140 0.36399
 C1047 C 0.66314 0.96139 0.38681
 C1048 C 0.67762 0.93763 0.40172
 C1049 C 0.70358 0.92683 0.39150
 H1050 H 0.71289 0.93603 0.37252
 O1051 O 0.35961 1.02861 0.39665
 O1052 O 0.32605 1.02872 0.36382
 C1053 C 0.33631 1.03833 0.38693
 C1054 C 0.32137 1.06144 0.40238
 C1055 C 0.29524 1.07203 0.39235
 H1056 H 0.28643 1.06324 0.37299
 O1057 O 0.39824 1.14174 0.47159
 O1058 O 0.36497 1.17484 0.47149
 C1059 C 0.38798 1.16468 0.46157
 C1060 C 0.40271 1.17941 0.43784
 C1061 C 0.39233 1.20540 0.42732
 H1062 H 0.37333 1.21448 0.43664
 O1063 O 0.60051 0.85739 0.47241
 O1064 O 0.63369 0.82419 0.47255
 C1065 C 0.61053 0.83421 0.46278
 C1066 C 0.59564 0.81933 0.43929
 C1067 C 0.60537 0.79283 0.42951
 H1068 H 0.62266 0.78240 0.44063
 O1069 O 0.60207 1.02768 0.35773
 O1070 O 0.63566 1.02774 0.32492
 C1071 C 0.61231 1.03731 0.33461
 C1072 C 0.59731 1.06045 0.31932
 C1073 C 0.60623 1.06912 0.29214
 H1074 H 0.62263 1.05691 0.28160
 O1075 O 0.39874 0.97387 0.35664
 O1076 O 0.36535 0.97405 0.32361
 C1077 C 0.38859 0.96429 0.33346
 C1078 C 0.40336 0.94076 0.31852
 C1079 C 0.39328 0.93076 0.29220
 H1080 H 0.37595 0.94187 0.28184
 O1081 O 0.52861 1.14250 0.39616
 O1082 O 0.52883 1.17592 0.36316
 C1083 C 0.53845 1.16568 0.38629
 C1084 C 0.56159 1.18053 0.40170
 C1085 C 0.57215 1.20672 0.39186
 H1086 H 0.56338 1.21562 0.37253
 O1087 O 0.47186 0.85812 0.39575
 O1088 O 0.47162 0.82479 0.36274
 C1089 C 0.46206 0.83494 0.38591
 C1090 C 0.43900 0.82004 0.40146
 C1091 C 0.42882 0.79351 0.39214
 H1092 H 0.43797 0.78395 0.37328
 O1093 O 0.64006 1.10298 0.47295
 O1094 O 0.67366 1.13577 0.47293
 C1095 C 0.66338 1.11269 0.46324
 C1096 C 0.67835 1.09724 0.44008
 C1097 C 0.70492 1.10680 0.43008
 H1098 H 0.71434 1.12563 0.43942
 O1099 O 0.35986 0.89790 0.47158
 O1100 O 0.32635 0.86500 0.47143
 C1101 C 0.33671 0.88802 0.46167
 C1102 C 0.32218 0.90287 0.43793
 C1103 C 0.29619 0.89255 0.42731
 H1104 H 0.28591 0.87487 0.43793
 Cu1105 Cu 0.49967 0.88087 0.37966
 Cu1106 Cu 0.49948 0.84106 0.33982
 Cu1107 Cu 0.50096 1.11968 0.37989
 Cu1108 Cu 0.50112 1.15971 0.34017
 Cu1109 Cu 0.38251 1.00122 0.37993
 Cu1110 Cu 0.34231 1.00137 0.34042
 Cu1111 Cu 0.61757 0.99966 0.38079
 Cu1112 Cu 0.65797 0.99977 0.34150
 C1113 C 0.42646 0.92689 0.33149
 H1114 H 0.43423 0.93440 0.35186
 C1115 C 0.40522 0.90647 0.27934
 C1116 C 0.57477 1.07484 0.33249
 H1117 H 0.56767 1.06808 0.35337
 C1118 C 0.59425 1.09321 0.27876
 C1119 C 0.33498 0.92645 0.42470
 H1120 H 0.35508 0.93445 0.43271
 C1121 C 0.28348 0.90473 0.40307
 C1122 C 0.66545 1.07367 0.42690
 H1123 H 0.64462 1.06668 0.43393
 C1124 C 0.71887 1.09288 0.40750
 C1125 C 0.42617 0.83305 0.42511
 H1126 H 0.43338 0.85385 0.43196
 C1127 C 0.40633 0.77973 0.40644
 C1128 C 0.57413 1.16784 0.42566
 H1129 H 0.56673 1.14719 0.43278
 C1130 C 0.59436 1.22089 0.40624
 C1131 C 0.42671 1.07567 0.33184
 H1132 H 0.43434 1.06811 0.35226
 C1133 C 0.40602 1.09615 0.27929
 C1134 C 0.57340 0.92579 0.33185
 H1135 H 0.56601 0.93279 0.35254
 C1136 C 0.59378 0.90669 0.27873
 C1137 C 0.57266 0.83240 0.42537
 H1138 H 0.56517 0.85293 0.43271
 C1139 C 0.59318 0.77986 0.40540
 C1140 C 0.42651 1.16691 0.42478
 H1141 H 0.43418 1.14652 0.43232
 C1142 C 0.40575 1.21927 0.40437
 C1143 C 0.33399 1.07408 0.42633
 H1144 H 0.35462 1.06672 0.43355
 C1145 C 0.28106 1.09437 0.40649
 C1146 C 0.66485 0.92476 0.42550
 H1147 H 0.64449 0.93251 0.43307
 C1148 C 0.71712 0.90376 0.40503
 O1149 O 0.52689 0.89650 0.64322
 O1150 O 0.52682 0.86343 0.67656
 C1151 C 0.53664 0.88651 0.66638
 C1152 C 0.56004 0.90170 0.68112
 C1153 C 0.57049 0.89205 0.70747
 H1154 H 0.56123 0.87326 0.71708
 O1155 O 0.47252 1.10295 0.64362
 O1156 O 0.47248 1.13604 0.67688
 C1157 C 0.46274 1.11293 0.66676
 C1158 C 0.43893 1.09814 0.68126
 C1159 C 0.42811 1.10837 0.70720
 H1160 H 0.43921 1.12553 0.71777
 O1161 O 0.35890 1.02769 0.60282
 O1162 O 0.32518 1.02751 0.63550
 C1163 C 0.33557 1.03732 0.61252
 C1164 C 0.32110 1.06107 0.59762
 C1165 C 0.29514 1.07182 0.60788
 H1166 H 0.28465 1.06112 0.62540
 O1167 O 0.64015 0.97159 0.60330
 O1168 O 0.67367 0.97136 0.63617
 C1169 C 0.66330 0.96165 0.61315
 C1170 C 0.67794 0.93819 0.59795
 C1171 C 0.70420 0.92769 0.60776
 H1172 H 0.71371 0.93693 0.62660
 O1173 O 0.60058 0.85757 0.52803
 O1174 O 0.63380 0.82441 0.52810
 C1175 C 0.61064 0.83445 0.53782
 C1176 C 0.59577 0.81959 0.56138
 C1177 C 0.60569 0.79323 0.57135
 H1178 H 0.62311 0.78291 0.56036
 O1179 O 0.39921 1.14249 0.52732
 O1180 O 0.36611 1.17575 0.52716
 C1181 C 0.38932 1.16577 0.53687
 C1182 C 0.40427 1.18066 0.56039
 C1183 C 0.39463 1.20724 0.57010
 H1184 H 0.37791 1.21786 0.55837
 O1185 O 0.39823 0.97325 0.64306
 O1186 O 0.36475 0.97328 0.67600
 C1187 C 0.38813 0.96374 0.66629
 C1188 C 0.40314 0.94056 0.68152
 C1189 C 0.39353 0.93120 0.70823
 H1190 H 0.37644 0.94263 0.71861
 O1191 O 0.60161 1.02717 0.64269
 O1192 O 0.63496 1.02690 0.67576
 C1193 C 0.61165 1.03657 0.66597
 C1194 C 0.59657 1.05964 0.68128
 C1195 C 0.60565 1.06840 0.70837
 H1196 H 0.62208 1.05619 0.71886
 O1197 O 0.47122 0.85802 0.60421
 O1198 O 0.47088 0.82463 0.63722
 C1199 C 0.46130 0.83488 0.61407
 C1200 C 0.43805 0.82018 0.59858
 C1201 C 0.42757 0.79379 0.60804
 H1202 H 0.43660 0.78425 0.62697
 O1203 O 0.52778 1.14209 0.60444
 O1204 O 0.52789 1.17533 0.63756
 C1205 C 0.53756 1.16524 0.61441
 C1206 C 0.56086 1.18012 0.59920
 C1207 C 0.57174 1.20600 0.60948
 H1208 H 0.56277 1.21518 0.62861
 O1209 O 0.35935 0.89795 0.52725
 O1210 O 0.32579 0.86511 0.52703
 C1211 C 0.33603 0.88814 0.53684
 C1212 C 0.32128 0.90300 0.56044
 C1213 C 0.29486 0.89312 0.57043
 H1214 H 0.28429 0.87626 0.55888
 O1215 O 0.63988 1.10339 0.52879
 O1216 O 0.67341 1.13626 0.52879
 C1217 C 0.66297 1.11337 0.53877
 C1218 C 0.67753 1.09853 0.56257
 C1219 C 0.70299 1.10943 0.57391
 H1220 H 0.71138 1.12904 0.56527
 O1221 O 0.52807 1.10309 0.64327
 O1222 O 0.52822 1.13611 0.67659
 C1223 C 0.53796 1.11305 0.66637
 C1224 C 0.56126 1.09770 0.68113
 C1225 C 0.57174 1.10723 0.70750
 H1226 H 0.56290 1.12645 0.71650
 O1227 O 0.47144 0.89686 0.64323
 O1228 O 0.47111 0.86375 0.67652
 C1229 C 0.46161 0.88698 0.66641
 C1230 C 0.43857 0.90252 0.68134
 C1231 C 0.42809 0.89291 0.70767
 H1232 H 0.43703 0.87386 0.71706
 O1233 O 0.64041 1.02732 0.60324
 O1234 O 0.67388 1.02713 0.63617
 C1235 C 0.66366 1.03701 0.61313
 C1236 C 0.67834 1.06074 0.59829
 C1237 C 0.70456 1.07113 0.60838
 H1238 H 0.71503 1.05990 0.62553
 O1239 O 0.35969 0.97200 0.60359
 O1240 O 0.32611 0.97181 0.63641
 C1241 C 0.33662 0.96194 0.61353
 C1242 C 0.32209 0.93827 0.59854
 C1243 C 0.29643 0.92708 0.60912
 H1244 H 0.28792 0.93561 0.62871
 O1245 O 0.60127 1.14257 0.52826
 O1246 O 0.63473 1.17552 0.52827
 C1247 C 0.61148 1.16564 0.53797
 C1248 C 0.59670 1.18049 0.56152
 C1249 C 0.60686 1.20668 0.57168
 H1250 H 0.62441 1.21696 0.56081
 O1251 O 0.39804 0.85856 0.52758
 O1252 O 0.36455 0.82563 0.52738
 C1253 C 0.38778 0.83544 0.53719
 C1254 C 0.40252 0.82030 0.56060
 C1255 C 0.39290 0.79354 0.56980
 H1256 H 0.37584 0.78320 0.55826
 O1257 O 0.60129 0.97185 0.64245
 O1258 O 0.63470 0.97166 0.67546
 C1259 C 0.61134 0.96218 0.66562
 C1260 C 0.59619 0.93908 0.68083
 C1261 C 0.60576 0.92972 0.70752
 H1262 H 0.62308 0.94095 0.71778
 O1263 O 0.39716 1.02879 0.64234
 O1264 O 0.36350 1.02879 0.67507
 C1265 C 0.38659 1.03879 0.66513
 C1266 C 0.40107 1.06259 0.67991
 C1267 C 0.38969 1.07403 0.70507
 H1268 H 0.36990 1.06547 0.71314
 O1269 O 0.47226 1.14166 0.60438
 O1270 O 0.47216 1.17494 0.63745
 C1271 C 0.46244 1.16479 0.61431
 C1272 C 0.43923 1.17972 0.59891
 C1273 C 0.42837 1.20564 0.60911
 H1274 H 0.43690 1.21427 0.62867
 O1275 O 0.52675 0.85778 0.60423
 O1276 O 0.52668 0.82444 0.63730
 C1277 C 0.53648 0.83461 0.61420
 C1278 C 0.55984 0.81980 0.59902
 C1279 C 0.57055 0.79376 0.60914
 H1280 H 0.56148 0.78446 0.62818
 O1281 O 0.63951 0.89679 0.52774
 O1282 O 0.67282 0.86372 0.52778
 C1283 C 0.66278 0.88691 0.53739
 C1284 C 0.67783 0.90203 0.56061
 C1285 C 0.70446 0.89239 0.57019
 H1286 H 0.71476 0.87505 0.55909
 O1287 O 0.36010 1.10354 0.52843
 O1288 O 0.32692 1.13673 0.52845
 C1289 C 0.33708 1.11371 0.53835
 C1290 C 0.32225 1.09887 0.56192
 C1291 C 0.29669 1.10976 0.57298
 H1292 H 0.28796 1.12917 0.56413
 Cu1293 Cu 0.49907 0.88059 0.62041
 Cu1294 Cu 0.49883 0.84069 0.66023
 Cu1295 Cu 0.50016 1.11912 0.62064
 Cu1296 Cu 0.50017 1.15894 0.66046
 Cu1297 Cu 0.38225 0.88152 0.49964
 Cu1298 Cu 0.34201 0.84203 0.49945
 Cu1299 Cu 0.61669 0.88035 0.50009
 Cu1300 Cu 0.65660 0.84058 0.50021
 Cu1301 Cu 0.38258 1.11929 0.50005
 Cu1302 Cu 0.34269 1.15905 0.49999
 Cu1303 Cu 0.61738 1.11960 0.50063
 Cu1304 Cu 0.65763 1.15904 0.50064
 Cu1305 Cu 0.38185 1.00041 0.61966
 Cu1306 Cu 0.34148 1.00028 0.65901
 Cu1307 Cu 0.61758 0.99953 0.61956
 Cu1308 Cu 0.65772 0.99926 0.65913
 C1309 C 0.57302 0.92526 0.66803
 H1310 H 0.56562 0.93236 0.64737
 C1311 C 0.59340 0.90595 0.72094
 C1312 C 0.42562 1.07486 0.66815
 H1313 H 0.43393 1.06677 0.64822
 C1314 C 0.40315 1.09680 0.71926
 C1315 C 0.33424 1.07448 0.57434
 H1316 H 0.35433 1.06641 0.56641
 C1317 C 0.28283 1.09637 0.59592
 C1318 C 0.66497 0.92524 0.57433
 H1319 H 0.64438 0.93270 0.56710
 C1320 C 0.71778 0.90481 0.59398
 C1321 C 0.57256 0.83248 0.57508
 H1322 H 0.56490 0.85289 0.56758
 C1323 C 0.59349 0.78020 0.59544
 C1324 C 0.42698 1.16739 0.57459
 H1325 H 0.43456 1.14693 0.56718
 C1326 C 0.40613 1.21987 0.59481
 C1327 C 0.42598 0.92641 0.66851
 H1328 H 0.43339 0.93347 0.64783
 C1329 C 0.40558 0.90715 0.72144
 C1330 C 0.57395 1.07400 0.66817
 H1331 H 0.56672 1.06717 0.64737
 C1332 C 0.59387 1.09262 0.72166
 C1333 C 0.42539 0.83321 0.57482
 H1334 H 0.43285 0.85389 0.56785
 C1335 C 0.40502 0.78013 0.59371
 C1336 C 0.57342 1.16762 0.57514
 H1337 H 0.56561 1.14731 0.56752
 C1338 C 0.59474 1.21955 0.59585
 C1339 C 0.33441 0.92599 0.57427
 H1340 H 0.35470 0.93383 0.56658
 C1341 C 0.28228 0.90463 0.59512
 C1342 C 0.66533 1.07424 0.57499
 H1343 H 0.64521 1.06629 0.56700
 C1344 C 0.71707 1.09579 0.59666
 O1345 O 0.47190 0.39543 0.85814
 O1346 O 0.47173 0.36237 0.82485
 C1347 C 0.46216 0.38557 0.83492
 C1348 C 0.43934 0.40123 0.81971
 C1349 C 0.42894 0.39148 0.79340
 H1350 H 0.43742 0.37192 0.78476
 O1351 O 0.52832 0.60367 0.85867
 O1352 O 0.52863 0.63678 0.82537
 C1353 C 0.53816 0.61357 0.83552
 C1354 C 0.56125 0.59810 0.82065
 C1355 C 0.57144 0.60757 0.79415
 H1356 H 0.56227 0.62644 0.78464
 O1357 O 0.36036 0.47178 0.89550
 O1358 O 0.32726 0.47172 0.86219
 C1359 C 0.33734 0.46189 0.88529
 C1360 C 0.32241 0.43847 0.90023
 C1361 C 0.29678 0.42743 0.88942
 H1362 H 0.28805 0.43614 0.86995
 O1363 O 0.64054 0.52652 0.89805
 O1364 O 0.67391 0.52639 0.86502
 C1365 C 0.66389 0.53605 0.88822
 C1366 C 0.67903 0.55922 0.90339
 C1367 C 0.70565 0.56886 0.89371
 H1368 H 0.71593 0.55783 0.87630
 O1369 O 0.39671 0.35855 0.97154
 O1370 O 0.36290 0.32596 0.97167
 C1371 C 0.38610 0.33569 0.96171
 C1372 C 0.40068 0.32060 0.93813
 C1373 C 0.38952 0.29512 0.92714
 H1374 H 0.36987 0.28692 0.93591
 O1375 O 0.60280 0.64202 0.97254
 O1376 O 0.63658 0.67464 0.97250
 C1377 C 0.61320 0.66502 0.96284
 C1378 C 0.59838 0.68019 0.93951
 C1379 C 0.60839 0.70660 0.92971
 H1380 H 0.62600 0.71669 0.94062
 O1381 O 0.39855 0.52864 0.85755
 O1382 O 0.36535 0.52877 0.82434
 C1383 C 0.38831 0.53872 0.83463
 C1384 C 0.40295 0.56259 0.82012
 C1385 C 0.39255 0.57329 0.79422
 H1386 H 0.37362 0.56393 0.78499
 O1387 O 0.60093 0.47178 0.85840
 O1388 O 0.63415 0.47182 0.82521
 C1389 C 0.61083 0.46230 0.83510
 C1390 C 0.59560 0.43929 0.81984
 C1391 C 0.60483 0.43038 0.79289
 H1392 H 0.62179 0.44199 0.78246
 O1393 O 0.52765 0.35657 0.89689
 O1394 O 0.52769 0.32335 0.86377
 C1395 C 0.53751 0.33352 0.88683
 C1396 C 0.56108 0.31886 0.90185
 C1397 C 0.57202 0.29300 0.89158
 H1398 H 0.56293 0.28368 0.87256
 O1399 O 0.47295 0.64268 0.89762
 O1400 O 0.47304 0.67603 0.86457
 C1401 C 0.46323 0.66585 0.88767
 C1402 C 0.43958 0.68044 0.90262
 C1403 C 0.42924 0.70670 0.89275
 H1404 H 0.44010 0.71722 0.87536
 O1405 O 0.35876 0.60221 0.97199
 O1406 O 0.32505 0.63487 0.97186
 C1407 C 0.33550 0.61190 0.96214
 C1408 C 0.32086 0.59664 0.93872
 C1409 C 0.29455 0.60638 0.92830
 H1410 H 0.28503 0.62514 0.93763
 O1411 O 0.64023 0.39622 0.97298
 O1412 O 0.67379 0.36341 0.97322
 C1413 C 0.66355 0.38644 0.96339
 C1414 C 0.67834 0.40144 0.93988
 C1415 C 0.70475 0.39164 0.92983
 H1416 H 0.71519 0.37429 0.94081
 O1417 O 0.47289 0.60420 0.85815
 O1418 O 0.47305 0.63736 0.82490
 C1419 C 0.46327 0.61421 0.83493
 C1420 C 0.43988 0.59920 0.82000
 C1421 C 0.42968 0.60911 0.79367
 H1422 H 0.44036 0.62677 0.78341
 O1423 O 0.52731 0.39559 0.85807
 O1424 O 0.52736 0.36261 0.82469
 C1425 C 0.53698 0.38579 0.83481
 C1426 C 0.55999 0.40139 0.81984
 C1427 C 0.57014 0.39216 0.79323
 H1428 H 0.56100 0.37332 0.78363
 O1429 O 0.64001 0.47088 0.89736
 O1430 O 0.67332 0.47078 0.86428
 C1431 C 0.66307 0.46094 0.88730
 C1432 C 0.67782 0.43741 0.90230
 C1433 C 0.70383 0.42676 0.89205
 H1434 H 0.71296 0.43589 0.87296
 O1435 O 0.35975 0.52720 0.89670
 O1436 O 0.32644 0.52715 0.86359
 C1437 C 0.33636 0.53663 0.88691
 C1438 C 0.32108 0.55954 0.90230
 C1439 C 0.29439 0.56907 0.89272
 H1440 H 0.28415 0.55810 0.87524
 O1441 O 0.39739 0.64154 0.97193
 O1442 O 0.36381 0.67433 0.97175
 C1443 C 0.38708 0.66450 0.96204
 C1444 C 0.40201 0.67953 0.93861
 C1445 C 0.39147 0.70539 0.92791
 H1446 H 0.37226 0.71429 0.93700
 O1447 O 0.60159 0.35684 0.97257
 O1448 O 0.63506 0.32393 0.97276
 C1449 C 0.61189 0.33380 0.96288
 C1450 C 0.59721 0.31887 0.93928
 C1451 C 0.60745 0.29271 0.92911
 H1452 H 0.62511 0.28257 0.93992
 O1453 O 0.60170 0.52721 0.85869
 O1454 O 0.63497 0.52714 0.82555
 C1455 C 0.61181 0.53690 0.83554
 C1456 C 0.59691 0.56029 0.82052
 C1457 C 0.60627 0.56953 0.79368
 H1458 H 0.62333 0.55811 0.78321
 O1459 O 0.39967 0.47298 0.85673
 O1460 O 0.36667 0.47317 0.82332
 C1461 C 0.38988 0.46352 0.83336
 C1462 C 0.40493 0.44014 0.81844
 C1463 C 0.39585 0.43098 0.79147
 H1464 H 0.37964 0.44317 0.78061
 O1465 O 0.52855 0.64287 0.89722
 O1466 O 0.52881 0.67619 0.86414
 C1467 C 0.53851 0.66595 0.88722
 C1468 C 0.56206 0.68053 0.90230
 C1469 C 0.57280 0.70661 0.89233
 H1470 H 0.56357 0.71614 0.87348
 O1471 O 0.47208 0.35664 0.89737
 O1472 O 0.47188 0.32335 0.86432
 C1473 C 0.46222 0.33351 0.88748
 C1474 C 0.43847 0.31906 0.90248
 C1475 C 0.42785 0.29290 0.89267
 H1476 H 0.43900 0.28219 0.87564
 O1477 O 0.64111 0.60238 0.97269
 O1478 O 0.67503 0.63485 0.97267
 C1479 C 0.66446 0.61194 0.96291
 C1480 C 0.67911 0.59659 0.93955
 C1481 C 0.70535 0.60640 0.92902
 H1482 H 0.71480 0.62529 0.93822
 O1483 O 0.35866 0.39824 0.97207
 O1484 O 0.32481 0.36569 0.97232
 C1485 C 0.33535 0.38853 0.96237
 C1486 C 0.32105 0.40320 0.93842
 C1487 C 0.29507 0.39295 0.92775
 H1488 H 0.28446 0.37561 0.93862
 Cu1489 Cu 0.49973 0.37933 0.88096
 Cu1490 Cu 0.49963 0.33953 0.84111
 Cu1491 Cu 0.50065 0.62006 0.88125
 Cu1492 Cu 0.50088 0.65997 0.84144
 Cu1493 Cu 0.38294 0.50013 0.87991
 Cu1494 Cu 0.34313 0.50020 0.83999
 Cu1495 Cu 0.61749 0.49912 0.88147
 Cu1496 Cu 0.65746 0.49904 0.84173
 C1497 C 0.42711 0.42551 0.83207
 H1498 H 0.43429 0.43254 0.85282
 C1499 C 0.40724 0.40625 0.77879
 C1500 C 0.57409 0.57442 0.83360
 H1501 H 0.56684 0.56744 0.85436
 C1502 C 0.59393 0.59337 0.78035
 C1503 C 0.33433 0.42624 0.92477
 H1504 H 0.35445 0.43416 0.93281
 C1505 C 0.28284 0.40468 0.90305
 C1506 C 0.66616 0.57294 0.92662
 H1507 H 0.64557 0.56572 0.93412
 C1508 C 0.71895 0.59266 0.90614
 C1509 C 0.42510 0.33240 0.92560
 H1510 H 0.43323 0.35253 0.93334
 C1511 C 0.40300 0.28078 0.90449
 C1512 C 0.57493 0.66758 0.92596
 H1513 H 0.56721 0.64714 0.93333
 C1514 C 0.59595 0.71995 0.90593
 C1515 C 0.42665 0.57564 0.83281
 H1516 H 0.43434 0.56792 0.85314
 C1517 C 0.40584 0.59646 0.78061
 C1518 C 0.57287 0.42500 0.83290
 H1519 H 0.56574 0.43176 0.85377
 C1520 C 0.59260 0.40655 0.77946
 C1521 C 0.57376 0.33154 0.92576
 H1522 H 0.56588 0.35180 0.93339
 C1523 C 0.59520 0.27964 0.90508
 C1524 C 0.42611 0.66728 0.92585
 H1525 H 0.43390 0.64698 0.93350
 C1526 C 0.40498 0.71932 0.90504
 C1527 C 0.33390 0.57316 0.92562
 H1528 H 0.35454 0.56602 0.93302
 C1529 C 0.28099 0.59271 0.90533
 C1530 C 0.66528 0.42462 0.92625
 H1531 H 0.64488 0.43223 0.93383
 C1532 C 0.71764 0.40394 0.90571
 O1533 O 0.52692 0.39535 1.14258
 O1534 O 0.52677 0.36221 1.17585
 C1535 C 0.53652 0.38539 1.16581
 C1536 C 0.55945 0.40092 1.18093
 C1537 C 0.56965 0.39143 1.20743
 H1538 H 0.56088 0.37212 1.21637
 O1539 O 0.47210 0.60553 1.14135
 O1540 O 0.47204 0.63886 1.17437
 C1541 C 0.46222 0.61574 1.16437
 C1542 C 0.43889 0.60064 1.17935
 C1543 C 0.42785 0.61112 1.20512
 H1544 H 0.43628 0.63078 1.21358
 O1545 O 0.36039 0.52799 1.10410
 O1546 O 0.32717 0.52801 1.13728
 C1547 C 0.33726 0.53780 1.11415
 C1548 C 0.32239 0.56133 1.09921
 C1549 C 0.29701 0.57269 1.11027
 H1550 H 0.28829 0.56394 1.12973
 O1551 O 0.63914 0.47105 1.10418
 O1552 O 0.67224 0.47100 1.13748
 C1553 C 0.66215 0.46114 1.11440
 C1554 C 0.67699 0.43759 1.09950
 C1555 C 0.70313 0.42711 1.10970
 H1556 H 0.71242 0.43639 1.12863
 O1557 O 0.60101 0.35660 1.02806
 O1558 O 0.63443 0.32365 1.02821
 C1559 C 0.61105 0.33341 1.03769
 C1560 C 0.59595 0.31823 1.06088
 C1561 C 0.60549 0.29154 1.07032
 H1562 H 0.62233 0.28113 1.05861
 O1563 O 0.39701 0.64195 1.02758
 O1564 O 0.36347 0.67477 1.02747
 C1565 C 0.38669 0.66498 1.03731
 C1566 C 0.40173 0.68017 1.06056
 C1567 C 0.39131 0.70612 1.07121
 H1568 H 0.37171 0.71448 1.06252
 O1569 O 0.39977 0.47295 1.14362
 O1570 O 0.36666 0.47314 1.17693
 C1571 C 0.38985 0.46347 1.16694
 C1572 C 0.40469 0.44004 1.18191
 C1573 C 0.39546 0.43101 1.20886
 H1574 H 0.37941 0.44344 1.21964
 O1575 O 0.60034 0.52734 1.14241
 O1576 O 0.63337 0.52734 1.17579
 C1577 C 0.61024 0.53705 1.16563
 C1578 C 0.59526 0.56053 1.18042
 C1579 C 0.60432 0.56966 1.20739
 H1580 H 0.62060 0.55751 1.21819
 O1581 O 0.47156 0.35696 1.10311
 O1582 O 0.47111 0.32347 1.13602
 C1583 C 0.46156 0.33384 1.11289
 C1584 C 0.43820 0.31931 1.09743
 C1585 C 0.42761 0.29300 1.10693
 H1586 H 0.43672 0.28339 1.12578
 O1587 O 0.52831 0.64372 1.10263
 O1588 O 0.52841 0.67717 1.13554
 C1589 C 0.53820 0.66684 1.11256
 C1590 C 0.56172 0.68141 1.09750
 C1591 C 0.57227 0.70761 1.10730
 H1592 H 0.56292 0.71720 1.12604
 O1593 O 0.35917 0.39814 1.02780
 O1594 O 0.32541 0.36551 1.02799
 C1595 C 0.33598 0.38841 1.03778
 C1596 C 0.32175 0.40316 1.06179
 C1597 C 0.29566 0.39305 1.07239
 H1598 H 0.28494 0.37619 1.06098
 O1599 O 0.64066 0.60239 1.02846
 O1600 O 0.67458 0.63486 1.02849
 C1601 C 0.66393 0.61201 1.03835
 C1602 C 0.67841 0.59677 1.06193
 C1603 C 0.70467 0.60652 1.07243
 H1604 H 0.71419 0.62533 1.06311
 O1605 O 0.52766 0.60451 1.14120
 O1606 O 0.52781 0.63775 1.17431
 C1607 C 0.53741 0.61450 1.16435
 C1608 C 0.56039 0.59901 1.17946
 C1609 C 0.57082 0.60882 1.20574
 H1610 H 0.56217 0.62826 1.21446
 O1611 O 0.47155 0.39524 1.14261
 O1612 O 0.47111 0.36202 1.17580
 C1613 C 0.46166 0.38529 1.16575
 C1614 C 0.43880 0.40095 1.18082
 C1615 C 0.42812 0.39118 1.20704
 H1616 H 0.43639 0.37150 1.21562
 O1617 O 0.63969 0.52675 1.10352
 O1618 O 0.67284 0.52670 1.13676
 C1619 C 0.66295 0.53634 1.11348
 C1620 C 0.67816 0.55953 1.09831
 C1621 C 0.70482 0.56914 1.10799
 H1622 H 0.71505 0.55814 1.12547
 O1623 O 0.36089 0.47213 1.10450
 O1624 O 0.32772 0.47211 1.13772
 C1625 C 0.33791 0.46213 1.11473
 C1626 C 0.32317 0.43838 1.09999
 C1627 C 0.29787 0.42688 1.11116
 H1628 H 0.28975 0.43528 1.13098
 O1629 O 0.60283 0.64252 1.02788
 O1630 O 0.63662 0.67514 1.02786
 C1631 C 0.61317 0.66561 1.03742
 C1632 C 0.59818 0.68098 1.06047
 C1633 C 0.60803 0.70750 1.07009
 H1634 H 0.62568 0.71758 1.05921
 O1635 O 0.39750 0.35830 1.02712
 O1636 O 0.36382 0.32558 1.02718
 C1637 C 0.38726 0.33516 1.03670
 C1638 C 0.40226 0.31978 1.05981
 C1639 C 0.39255 0.29306 1.06906
 H1640 H 0.37526 0.28289 1.05772
 O1641 O 0.59988 0.47193 1.14303
 O1642 O 0.63287 0.47203 1.17646
 C1643 C 0.60962 0.46249 1.16645
 C1644 C 0.59435 0.43940 1.18159
 C1645 C 0.60316 0.43063 1.20877
 H1646 H 0.61936 0.44294 1.21950
 O1647 O 0.39952 0.52840 1.14298
 O1648 O 0.36636 0.52844 1.17623
 C1649 C 0.38946 0.53823 1.16608
 C1650 C 0.40411 0.56206 1.18061
 C1651 C 0.39434 0.57197 1.20705
 H1652 H 0.37774 0.56016 1.21779
 O1653 O 0.47290 0.64351 1.10138
 O1654 O 0.47288 0.67705 1.13419
 C1655 C 0.46331 0.66684 1.11102
 C1656 C 0.43994 0.68153 1.09576
 C1657 C 0.43026 0.70822 1.10497
 H1658 H 0.44214 0.71904 1.12142
 O1659 O 0.52715 0.35635 1.10385
 O1660 O 0.52698 0.32294 1.13685
 C1661 C 0.53690 0.33320 1.11385
 C1662 C 0.56034 0.31846 1.09872
 C1663 C 0.57114 0.29243 1.10880
 H1664 H 0.56231 0.28350 1.12809
 O1665 O 0.63966 0.39616 1.02864
 O1666 O 0.67320 0.36333 1.02884
 C1667 C 0.66285 0.38636 1.03854
 C1668 C 0.67748 0.40142 1.06212
 C1669 C 0.70393 0.39174 1.07219
 H1670 H 0.71439 0.37435 1.06130
 O1671 O 0.35899 0.60206 1.02766
 O1672 O 0.32533 0.63477 1.02757
 C1673 C 0.33578 0.61186 1.03748
 C1674 C 0.32144 0.59714 1.06144
 C1675 C 0.29568 0.60766 1.07238
 H1676 H 0.28531 0.62527 1.06173
 Cu1677 Cu 0.49932 0.37926 1.11971
 Cu1678 Cu 0.49895 0.33926 1.15942
 Cu1679 Cu 0.50023 0.62097 1.11836
 Cu1680 Cu 0.50026 0.66106 1.15794
 Cu1681 Cu 0.38138 0.38159 0.99966
 Cu1682 Cu 0.34080 0.34246 0.99989
 Cu1683 Cu 0.61729 0.37976 1.00056
 Cu1684 Cu 0.65751 0.34032 1.00082
 Cu1685 Cu 0.38140 0.61868 0.99979
 Cu1686 Cu 0.34102 0.65794 0.99963
 Cu1687 Cu 0.61850 0.61903 1.00040
 Cu1688 Cu 0.65918 0.65807 1.00038
 Cu1689 Cu 0.38342 0.50036 1.12043
 Cu1690 Cu 0.34359 0.50043 1.16030
 Cu1691 Cu 0.61650 0.49927 1.11992
 Cu1692 Cu 0.65618 0.49929 1.15992
 C1693 C 0.57206 0.42483 1.16816
 H1694 H 0.56507 0.43163 1.14726
 C1695 C 0.59150 0.40621 1.22182
 C1696 C 0.42677 0.57618 1.16724
 H1697 H 0.43449 0.56853 1.14691
 C1698 C 0.40559 0.59687 1.21943
 C1699 C 0.33440 0.57369 1.07475
 H1700 H 0.35436 0.56558 1.06653
 C1701 C 0.28337 0.59585 1.09700
 C1702 C 0.66440 0.42461 1.07566
 H1703 H 0.64394 0.43210 1.06809
 C1704 C 0.71688 0.40417 1.09618
 C1705 C 0.57297 0.33120 1.07482
 H1706 H 0.56545 0.35174 1.06753
 C1707 C 0.59368 0.27849 1.09467
 C1708 C 0.42596 0.66802 1.07311
 H1709 H 0.43348 0.64750 1.06579
 C1710 C 0.40551 0.72067 1.09336
 C1711 C 0.42681 0.42531 1.16840
 H1712 H 0.43414 0.43234 1.14769
 C1713 C 0.40652 0.40617 1.22159
 C1714 C 0.57287 0.57494 1.16694
 H1715 H 0.56567 0.56786 1.14621
 C1716 C 0.59274 0.59422 1.22019
 C1717 C 0.42540 0.33248 1.07381
 H1718 H 0.43292 0.35314 1.06683
 C1719 C 0.40485 0.27952 1.09280
 C1720 C 0.57474 0.66836 1.07402
 H1721 H 0.56714 0.64783 1.06679
 C1722 C 0.59540 0.72096 1.09370
 C1723 C 0.33503 0.42622 1.07539
 H1724 H 0.35506 0.43425 1.06722
 C1725 C 0.28359 0.40430 1.09744
 C1726 C 0.66537 0.57321 1.07498
 H1727 H 0.64478 0.56602 1.06747
 C1728 C 0.71825 0.59281 1.09538
 C1729 C 1.11120 1.14432 1.28252
 C1730 C 1.12923 1.12794 1.29998
 C1731 C 1.13515 1.09977 1.29180
 C1732 C 1.12323 1.08834 1.26697
 C1733 C 1.10614 1.10515 1.24884
 C1734 C 1.10052 1.13341 1.25709
 H1735 H 1.10632 1.16625 1.28768
 H1736 H 1.14861 1.08629 1.30481
 H1737 H 1.12752 1.06626 1.26219
 H1738 H 1.08848 1.14771 1.24368
 C1739 C 1.11456 0.64608 0.77840
 C1740 C 1.12801 0.62801 0.79799
 C1741 C 1.13007 0.59886 0.79187
 C1742 C 1.11869 0.58795 0.76663
 C1743 C 1.10566 0.60608 0.74661
 C1744 C 1.10384 0.63533 0.75285
 H1745 H 1.11302 0.66872 0.78247
 H1746 H 1.14016 0.58445 0.80678
 H1747 H 1.11999 0.56526 0.76295
 H1748 H 1.09468 0.65015 0.73777
 C1749 C 0.60067 1.13218 0.79252
 C1750 C 0.62878 1.12578 0.80070
 C1751 C 0.64476 1.10732 0.78339
 C1752 C 0.63361 1.09693 0.75789
 C1753 C 0.60548 1.10326 0.74951
 C1754 C 0.58899 1.12052 0.76772
 H1755 H 0.58745 1.14592 0.80548
 H1756 H 0.66660 1.10203 0.78862
 H1757 H 0.64769 1.08464 0.74452
 H1758 H 0.56696 1.12526 0.76300
 C1759 C 0.59933 0.63395 1.29092
 C1760 C 0.62745 0.62765 1.29912
 C1761 C 0.64363 0.60951 1.28165
 C1762 C 0.63256 0.59911 1.25614
 C1763 C 0.60435 0.60516 1.24787
 C1764 C 0.58775 0.62233 1.26605
 H1765 H 0.58597 0.64748 1.30395
 H1766 H 0.66550 0.60434 1.28687
 H1767 H 0.64668 0.58693 1.24270
 H1768 H 0.56570 0.62691 1.26128
 C1769 C 0.89856 0.86536 1.29128
 C1770 C 0.87054 0.87189 1.29965
 C1771 C 0.85450 0.89040 1.28242
 C1772 C 0.86568 0.90101 1.25697
 C1773 C 0.89384 0.89476 1.24860
 C1774 C 0.91024 0.87719 1.26658
 H1775 H 0.91186 0.85160 1.30415
 H1776 H 0.83273 0.89575 1.28785
 H1777 H 0.85170 0.91357 1.24369
 H1778 H 0.93227 0.87248 1.26186
 C1779 C 0.89861 0.36548 0.79108
 C1780 C 0.87066 0.37208 0.79964
 C1781 C 0.85445 0.39041 0.78237
 C1782 C 0.86542 0.40080 0.75674
 C1783 C 0.89352 0.39451 0.74820
 C1784 C 0.91008 0.37708 0.76617
 H1785 H 0.91203 0.35184 0.80396
 H1786 H 0.83272 0.39580 0.78793
 H1787 H 0.85134 0.41324 0.74346
 H1788 H 0.93206 0.37234 0.76129
 C1789 C 0.40017 0.87134 0.79405
 C1790 C 0.37100 0.87398 0.80001
 C1791 C 0.35340 0.88812 0.78047
 C1792 C 0.36459 0.89878 0.75507
 C1793 C 0.39384 0.89625 0.74891
 C1794 C 0.41154 0.88267 0.76896
 H1795 H 0.41422 0.86067 0.80891
 H1796 H 0.33075 0.89009 0.78437
 H1797 H 0.35005 0.90836 0.73998
 H1798 H 0.43423 0.88081 0.76537
 C1799 C 0.35574 0.39203 1.28362
 C1800 C 0.37149 0.37306 1.30059
 C1801 C 0.39929 0.36593 1.29195
 C1802 C 0.41098 0.37750 1.26714
 C1803 C 0.39477 0.39540 1.24932
 C1804 C 0.36687 0.40236 1.25804
 H1805 H 0.33414 0.39786 1.28925
 H1806 H 0.41236 0.35179 1.30465
 H1807 H 0.43283 0.37226 1.26216
 H1808 H 0.35301 0.41519 1.24492
 C1809 C 0.89773 1.13773 0.70941
 C1810 C 0.86929 1.13194 0.70184
 C1811 C 0.85290 1.11481 0.72018
 C1812 C 0.86438 1.10431 0.74552
 C1813 C 0.89305 1.10943 0.75282
 C1814 C 0.90958 1.12616 0.73417
 H1815 H 0.91124 1.15055 0.69579
 H1816 H 0.83081 1.11013 0.71548
 H1817 H 0.85040 1.09252 0.75951
 H1818 H 0.93187 1.13015 0.73835
 C1819 C 0.87092 0.59921 0.20721
 C1820 C 0.87245 0.62844 0.20132
 C1821 C 0.88591 0.64653 0.22089
 C1822 C 0.89706 0.63570 0.24624
 C1823 C 0.89569 0.60637 0.25230
 C1824 C 0.88275 0.58824 0.23223
 H1825 H 0.86088 0.58479 0.19229
 H1826 H 0.88708 0.66921 0.21696
 H1827 H 0.90616 0.65052 0.26134
 H1828 H 0.88182 0.56549 0.23572
 C1829 C 0.36482 1.10134 0.20927
 C1830 C 0.37118 1.12911 0.20010
 C1831 C 0.38961 1.14576 0.21683
 C1832 C 0.40044 1.13536 0.24252
 C1833 C 0.39450 1.10737 0.25163
 C1834 C 0.37693 1.09039 0.23415
 H1835 H 0.35116 1.08759 0.19678
 H1836 H 0.39483 1.16739 0.21075
 H1837 H 0.41298 1.14975 0.25534
 H1838 H 0.37251 1.06842 0.23931
 C1839 C 0.36923 0.60049 0.70837
 C1840 C 0.37083 0.62966 0.70226
 C1841 C 0.38435 0.64786 0.72170
 C1842 C 0.39559 0.63716 0.74709
 C1843 C 0.39423 0.60786 0.75330
 C1844 C 0.38114 0.58964 0.73339
 H1845 H 0.35919 0.58597 0.69353
 H1846 H 0.38563 0.67050 0.71757
 H1847 H 0.40482 0.65203 0.76205
 H1848 H 0.38023 0.56691 0.73697
 C1849 C 1.14522 0.88899 0.71905
 C1850 C 1.12767 0.87491 0.69942
 C1851 C 1.09849 0.87223 0.70531
 C1852 C 1.08710 0.88341 0.73047
 C1853 C 1.10480 0.89687 0.75062
 C1854 C 1.13403 0.89949 0.74447
 H1855 H 1.16790 0.89096 0.71528
 H1856 H 1.08449 0.86155 0.69043
 H1857 H 1.06442 0.88146 0.73409
 H1858 H 1.14859 0.90892 0.75962
 C1859 C 1.14414 0.39257 0.21642
 C1860 C 1.12826 0.37403 0.19909
 C1861 C 1.10017 0.36747 0.20722
 C1862 C 1.08839 0.37906 0.23200
 C1863 C 1.10479 0.39642 0.25021
 C1864 C 1.13291 0.40289 0.24188
 H1865 H 1.16596 0.39797 0.21123
 H1866 H 1.08703 0.35364 0.19425
 H1867 H 1.06640 0.37418 0.23672
 H1868 H 1.14694 0.41523 0.25528
 C1869 C 0.60080 0.86718 0.20788
 C1870 C 0.62904 0.87336 0.19995
 C1871 C 0.64516 0.89138 0.21761
 C1872 C 0.63391 0.90176 0.24307
 C1873 C 0.60559 0.89581 0.25108
 C1874 C 0.58906 0.87880 0.23267
 H1875 H 0.58748 0.85376 0.19468
 H1876 H 0.66710 0.89646 0.21260
 H1877 H 0.64800 0.91382 0.25667
 H1878 H 0.56693 0.87431 0.23717
 C1879 C 0.64478 0.38843 0.72029
 C1880 C 0.62726 0.37458 0.70048
 C1881 C 0.59806 0.37183 0.70631
 C1882 C 0.58662 0.38274 0.73157
 C1883 C 0.60428 0.39603 0.75185
 C1884 C 0.63354 0.39866 0.74579
 H1885 H 0.66746 0.39042 0.71658
 H1886 H 0.58408 0.36128 0.69131
 H1887 H 0.56394 0.38075 0.73514
 H1888 H 0.64808 0.40794 0.76105
 C1889 C 1.29088 1.13204 1.09899
 C1890 C 1.29988 1.12539 1.12678
 C1891 C 1.28304 1.10675 1.14310
 C1892 C 1.25725 1.09633 1.13254
 C1893 C 1.24812 1.10286 1.10467
 C1894 C 1.26585 1.12036 1.08787
 H1895 H 1.30346 1.14587 1.08547
 H1896 H 1.28897 1.10127 1.16472
 H1897 H 1.24429 1.08380 1.14683
 H1898 H 1.26063 1.12521 1.06599
 C1899 C 1.28145 0.60867 0.64454
 C1900 C 1.29854 0.62705 0.62817
 C1901 C 1.28994 0.63324 0.60014
 C1902 C 1.26518 0.62123 0.58878
 C1903 C 1.24730 0.60384 0.60552
 C1904 C 1.25591 0.59789 0.63368
 H1905 H 1.28705 0.60354 0.66632
 H1906 H 1.30271 0.64687 0.58659
 H1907 H 1.26034 0.62567 0.56673
 H1908 H 1.24277 0.58546 0.64790
 C1909 C 0.78719 1.13657 0.60262
 C1910 C 0.79542 1.13127 0.63094
 C1911 C 0.77777 1.11393 0.64786
 C1912 C 0.75231 1.10290 0.63701
 C1913 C 0.74429 1.10771 0.60847
 C1914 C 0.76247 1.12442 0.59139
 H1915 H 0.80034 1.14939 0.58864
 H1916 H 0.78310 1.10952 0.66987
 H1917 H 0.73882 1.09099 0.65136
 H1918 H 0.75799 1.12801 0.56910
 C1919 C 0.79103 0.62854 1.09944
 C1920 C 0.79716 0.62676 1.12861
 C1921 C 0.77764 0.61319 1.14674
 C1922 C 0.75214 0.60221 1.13601
 C1923 C 0.74583 0.60389 1.10674
 C1924 C 0.76586 0.61691 1.08856
 H1925 H 0.80588 0.63864 1.08496
 H1926 H 0.78173 0.61178 1.16939
 H1927 H 0.73712 0.59303 1.15088
 H1928 H 0.76222 0.61806 1.06584
 C1929 C 1.28860 0.89893 0.86612
 C1930 C 1.29727 0.87098 0.87249
 C1931 C 1.27995 0.85447 0.89050
 C1932 C 1.25418 0.86514 0.90083
 C1933 C 1.24554 0.89326 0.89481
 C1934 C 1.26357 0.91012 0.87770
 H1935 H 1.30153 0.91258 0.85273
 H1936 H 1.28559 0.83272 0.89570
 H1937 H 1.24090 0.85083 0.91300
 H1938 H 1.25866 0.93213 0.87319
 C1939 C 1.27998 0.35392 0.38923
 C1940 C 1.29713 0.37019 0.37082
 C1941 C 1.28835 0.39802 0.36410
 C1942 C 1.26349 0.40941 0.37585
 C1943 C 1.24570 0.39286 0.39352
 C1944 C 1.25435 0.36478 0.39975
 H1945 H 1.28571 0.33227 0.39469
 H1946 H 1.30113 0.41149 0.35040
 H1947 H 1.25859 0.43137 0.37112
 H1948 H 1.24123 0.35067 0.41232
 C1949 C 0.77608 0.85192 0.38476
 C1950 C 0.79573 0.86987 0.37119
 C1951 C 0.78968 0.89903 0.36906
 C1952 C 0.76453 0.91010 0.38049
 C1953 C 0.74445 0.89213 0.39367
 C1954 C 0.75058 0.86283 0.39553
 H1955 H 0.78011 0.82928 0.38641
 H1956 H 0.80465 0.91338 0.35894
 H1957 H 0.76102 0.93282 0.37917
 H1958 H 0.73547 0.84811 0.40482
 C1959 C 0.77682 0.35236 0.88547
 C1960 C 0.79627 0.37035 0.87166
 C1961 C 0.79002 0.39945 0.86934
 C1962 C 0.76486 0.41043 0.88084
 C1963 C 0.74499 0.39242 0.89428
 C1964 C 0.75132 0.36318 0.89631
 H1965 H 0.78102 0.32977 0.88727
 H1966 H 0.80483 0.41382 0.85902
 H1967 H 0.76118 0.43312 0.87937
 H1968 H 0.73637 0.34843 0.90580
 C1969 C 0.71211 0.89933 1.13320
 C1970 C 0.70632 0.87010 1.13130
 C1971 C 0.72601 0.85225 1.11770
 C1972 C 0.75123 0.86338 1.10649
 C1973 C 0.75701 0.89275 1.10800
 C1974 C 0.73699 0.91058 1.12138
 H1975 H 0.69707 0.91361 1.14325
 H1976 H 0.72212 0.82958 1.11615
 H1977 H 0.76635 0.84882 1.09702
 H1978 H 0.74030 0.93335 1.12245
 C1979 C 0.71189 0.39802 0.63668
 C1980 C 0.70354 0.36987 0.63081
 C1981 C 0.72116 0.35320 0.61327
 C1982 C 0.74674 0.36407 0.60261
 C1983 C 0.75489 0.39246 0.60792
 C1984 C 0.73675 0.40933 0.62484
 H1985 H 0.69877 0.41178 0.64971
 H1986 H 0.71577 0.33130 0.60848
 H1987 H 0.76021 0.34982 0.59060
 H1988 H 0.74137 0.43151 0.62885
 C1989 C 0.22142 0.85339 0.61217
 C1990 C 0.20372 0.87006 0.62963
 C1991 C 0.21190 0.89829 0.63534
 C1992 C 0.23671 0.90967 0.62348
 C1993 C 0.25496 0.89279 0.60670
 C1994 C 0.24695 0.86435 0.60148
 H1995 H 0.21615 0.83144 0.60749
 H1996 H 0.19870 0.91205 0.64829
 H1997 H 0.24123 0.93188 0.62739
 H1998 H 0.26052 0.85011 0.58955
 C1999 C 0.21380 0.39709 1.13866
 C2000 C 0.20538 0.36905 1.13231
 C2001 C 0.22300 0.35264 1.11453
 C2002 C 0.24852 0.36373 1.10393
 C2003 C 0.25660 0.39211 1.10952
 C2004 C 0.23858 0.40864 1.12689
 H2005 H 0.20072 0.41066 1.15194
 H2006 H 0.21758 0.33082 1.10941
 H2007 H 0.26195 0.34968 1.09165
 H2008 H 0.24317 0.43076 1.13121
 C2009 C 0.72310 1.14748 0.88570
 C2010 C 0.70561 1.13097 0.86785
 C2011 C 0.71410 1.10295 0.86160
 C2012 C 0.73885 1.09153 0.87350
 C2013 C 0.75680 1.10817 0.89085
 C2014 C 0.74861 1.13651 0.89641
 H2015 H 0.71759 1.16928 0.89077
 H2016 H 0.70108 1.08931 0.84832
 H2017 H 0.74349 1.06941 0.86926
 H2018 H 0.76196 1.15062 0.90872
 C2019 C 0.71010 0.60143 0.36599
 C2020 C 0.70435 0.63065 0.36810
 C2021 C 0.72413 0.64841 0.38170
 C2022 C 0.74939 0.63719 0.39273
 C2023 C 0.75511 0.60781 0.39105
 C2024 C 0.73502 0.59008 0.37763
 H2025 H 0.69501 0.58722 0.35588
 H2026 H 0.72029 0.67107 0.38338
 H2027 H 0.76457 0.65169 0.40222
 H2028 H 0.73828 0.56731 0.37641
 C2029 C 0.21045 1.10069 0.36638
 C2030 C 0.20272 1.12914 0.37156
 C2031 C 0.22055 1.14573 0.38903
 C2032 C 0.24584 1.13460 0.40001
 C2033 C 0.25358 1.10607 0.39508
 C2034 C 0.23513 1.08916 0.37849
 H2035 H 0.19715 1.08701 0.35341
 H2036 H 0.21569 1.16784 0.39337
 H2037 H 0.25954 1.14887 0.41176
 H2038 H 0.23951 1.06689 0.37478
 C2039 C 0.22202 0.61306 0.85360
 C2040 C 0.20231 0.62644 0.87159
 C2041 C 0.20821 0.62822 0.90082
 C2042 C 0.23335 0.61671 0.91188
 C2043 C 0.25352 0.60381 0.89383
 C2044 C 0.24747 0.60221 0.86450
 H2045 H 0.21812 0.61171 0.83090
 H2046 H 0.19320 0.63823 0.91518
 H2047 H 0.23685 0.61784 0.93462
 H2048 H 0.26265 0.59317 0.84973
 C2049 C 1.10109 1.29215 1.13122
 C2050 C 1.13048 1.29749 1.12959
 C2051 C 1.14819 1.27718 1.11672
 C2052 C 1.13683 1.25187 1.10606
 C2053 C 1.10736 1.24648 1.10744
 C2054 C 1.08962 1.26706 1.12004
 H2055 H 1.08689 1.30755 1.14086
 H2056 H 1.17097 1.28055 1.11547
 H2057 H 1.15131 1.23631 1.09721
 H2058 H 1.06680 1.26395 1.12105
 C2059 C 1.10111 0.79157 0.63102
 C2060 C 1.13048 0.79697 0.62965
 C2061 C 1.14838 0.77673 0.61692
 C2062 C 1.13719 0.75143 0.60605
 C2063 C 1.10771 0.74602 0.60707
 C2064 C 1.08981 0.76653 0.61959
 H2065 H 1.08679 0.80695 0.64048
 H2066 H 1.17116 0.78021 0.61584
 H2067 H 1.15178 0.73593 0.59727
 H2068 H 1.06698 0.76342 0.62031
 C2069 C 0.64755 1.27711 0.61708
 C2070 C 0.62980 1.29728 0.63011
 C2071 C 0.60043 1.29192 0.63171
 C2072 C 0.58898 1.26696 0.62025
 C2073 C 0.60675 1.24653 0.60744
 C2074 C 0.63622 1.25191 0.60615
 H2075 H 0.67033 1.28055 0.61582
 H2076 H 0.58622 1.30725 0.64143
 H2077 H 0.56616 1.26386 0.62119
 H2078 H 0.65070 1.23644 0.59714
 C2079 C 0.60047 0.79373 1.12901
 C2080 C 0.62986 0.79901 1.12786
 C2081 C 0.64775 0.77885 1.11499
 C2082 C 0.63658 0.75364 1.10395
 C2083 C 0.60712 0.74822 1.10493
 C2084 C 0.58917 0.76875 1.11738
 H2085 H 0.58618 0.80904 1.13863
 H2086 H 0.67056 0.78219 1.11412
 H2087 H 0.65122 0.73814 1.09525
 H2088 H 0.56634 0.76563 1.11807
 C2089 C 0.87036 1.29283 0.90173
 C2090 C 0.87275 1.29897 0.87259
 C2091 C 0.88678 1.27960 0.85476
 C2092 C 0.89770 1.25424 0.86571
 C2093 C 0.89559 1.24795 0.89496
 C2094 C 0.88199 1.26777 0.91288
 H2095 H 0.85977 1.30756 0.91594
 H2096 H 0.88854 1.28364 0.83212
 H2097 H 0.90722 1.23931 0.85100
 H2098 H 0.88040 1.26406 0.93556
 C2099 C 0.86947 0.79190 0.40113
 C2100 C 0.87192 0.79813 0.37202
 C2101 C 0.88591 0.77876 0.35415
 C2102 C 0.89674 0.75332 0.36503
 C2103 C 0.89456 0.74695 0.39426
 C2104 C 0.88101 0.76677 0.41222
 H2105 H 0.85892 0.80662 0.41538
 H2106 H 0.88772 0.78288 0.33152
 H2107 H 0.90624 0.73841 0.35029
 H2108 H 0.87939 0.76302 0.43489
 C2109 C 0.36881 1.29135 0.40015
 C2110 C 0.37098 1.29764 0.37105
 C2111 C 0.38489 1.27837 0.35300
 C2112 C 0.39597 1.25297 0.36374
 C2113 C 0.39413 1.24658 0.39298
 C2114 C 0.38061 1.26630 0.41109
 H2115 H 0.35839 1.30605 0.41453
 H2116 H 0.38654 1.28261 0.33038
 H2117 H 0.40546 1.23814 0.34891
 H2118 H 0.37928 1.26257 0.43378
 C2119 C 0.36775 0.79118 0.90036
 C2120 C 0.37001 0.79741 0.87123
 C2121 C 0.38403 0.77812 0.85329
 C2122 C 0.39516 0.75278 0.86418
 C2123 C 0.39322 0.74648 0.89345
 C2124 C 0.37955 0.76619 0.91141
 H2125 H 0.35728 0.80588 0.91468
 H2126 H 0.38579 0.78231 0.83068
 H2127 H 0.40482 0.73794 0.84946
 H2128 H 0.37814 0.76252 0.93412
 C2129 C 1.09950 0.70682 0.87027
 C2130 C 1.12868 0.70086 0.87279
 C2131 C 1.14643 0.72057 0.88648
 C2132 C 1.13534 0.74609 0.89691
 C2133 C 1.10605 0.75220 0.89455
 C2134 C 1.08824 0.73203 0.88134
 H2135 H 1.08532 0.69184 0.85997
 H2136 H 1.16908 0.71665 0.88837
 H2137 H 1.14993 0.76128 0.90624
 H2138 H 1.06554 0.73559 0.87963
 C2139 C 1.15050 0.22544 0.38118
 C2140 C 1.13293 0.20534 0.36784
 C2141 C 1.10357 0.21060 0.36592
 C2142 C 1.09190 0.23533 0.37750
 C2143 C 1.10941 0.25574 0.39069
 C2144 C 1.13894 0.25055 0.39215
 H2145 H 1.17325 0.22196 0.38272
 H2146 H 1.08950 0.19524 0.35604
 H2147 H 1.06905 0.23818 0.37647
 H2148 H 1.15325 0.26600 0.40148
 C2149 C 0.64562 0.72187 0.38471
 C2150 C 0.62789 0.70190 0.37130
 C2151 C 0.59856 0.70739 0.36951
 C2152 C 0.58717 0.73237 0.38103
 C2153 C 0.60497 0.75267 0.39407
 C2154 C 0.63437 0.74706 0.39566
 H2155 H 0.66838 0.71838 0.38607
 H2156 H 0.58439 0.69225 0.35945
 H2157 H 0.56439 0.73566 0.37983
 H2158 H 0.64891 0.76241 0.40482
 C2159 C 0.64821 0.22238 0.88359
 C2160 C 0.63053 0.20208 0.87062
 C2161 C 0.60110 0.20720 0.86926
 C2162 C 0.58957 0.23208 0.88082
 C2163 C 0.60728 0.25268 0.89350
 C2164 C 0.63678 0.24749 0.89461
 H2165 H 0.67102 0.21916 0.88466
 H2166 H 0.58694 0.19179 0.85959
 H2167 H 0.56672 0.23503 0.88000
 H2168 H 0.65123 0.26307 0.90352
 C2169 C 0.90002 0.70725 1.12880
 C2170 C 0.87080 0.70136 1.12651
 C2171 C 0.85304 0.72113 1.11289
 C2172 C 0.86416 0.74666 1.10240
 C2173 C 0.89348 0.75272 1.10462
 C2174 C 0.91129 0.73245 1.11768
 H2175 H 0.91422 0.69222 1.13901
 H2176 H 0.83036 0.71726 1.11115
 H2177 H 0.84957 0.76190 1.09316
 H2178 H 0.93402 0.73594 1.11926
 C2179 C 0.90137 0.20607 0.62645
 C2180 C 0.87217 0.20017 0.62402
 C2181 C 0.85455 0.21977 0.60994
 C2182 C 0.86569 0.24517 0.59930
 C2183 C 0.89493 0.25137 0.60175
 C2184 C 0.91270 0.23122 0.61512
 H2185 H 0.91544 0.19124 0.63713
 H2186 H 0.83186 0.21602 0.60816
 H2187 H 0.85105 0.26030 0.58994
 H2188 H 0.93539 0.23485 0.61694
 C2189 C 0.40020 0.70704 0.62851
 C2190 C 0.37109 0.70086 0.62581
 C2191 C 0.35330 0.72041 0.61193
 C2192 C 0.36427 0.74606 0.60162
 C2193 C 0.39348 0.75245 0.60425
 C2194 C 0.41135 0.73236 0.61752
 H2195 H 0.41439 0.69217 0.63898
 H2196 H 0.33069 0.71632 0.60993
 H2197 H 0.34960 0.76114 0.59224
 H2198 H 0.43402 0.73611 0.61942
 C2199 C 0.35312 0.22001 1.11168
 C2200 C 0.37102 0.20047 1.12542
 C2201 C 0.40017 0.20656 1.12778
 C2202 C 0.41127 0.23179 1.11657
 C2203 C 0.39330 0.25190 1.10345
 C2204 C 0.36404 0.24561 1.10118
 H2205 H 0.33048 0.21593 1.10991
 H2206 H 0.41444 0.19165 1.13808
 H2207 H 0.43397 0.23543 1.11816
 H2208 H 0.34932 0.26071 1.09191
 C2209 C 1.14709 1.11597 0.72214
 C2210 C 1.12923 1.12900 0.70203
 C2211 C 1.09987 1.13043 0.70746
 C2212 C 1.08859 1.11891 0.73252
 C2213 C 1.10652 1.10624 0.75297
 C2214 C 1.13594 1.10501 0.74741
 H2215 H 1.16987 1.11488 0.71869
 H2216 H 1.08560 1.14020 0.69220
 H2217 H 1.06579 1.11980 0.73574
 H2218 H 1.15057 1.09614 0.76285
 C2219 C 1.10029 0.63332 0.20829
 C2220 C 1.12850 0.62724 0.20022
 C2221 C 1.14474 0.60921 0.21780
 C2222 C 1.13368 0.59879 0.24331
 C2223 C 1.10543 0.60471 0.25151
 C2224 C 1.08873 0.62169 0.23320
 H2225 H 1.08689 0.64677 0.19518
 H2226 H 1.16666 0.60419 0.21269
 H2227 H 1.14787 0.58676 0.25685
 H2228 H 1.06665 0.62616 0.23791
 C2229 C 0.64459 1.10809 0.21675
 C2230 C 0.62818 1.12598 0.19919
 C2231 C 0.59998 1.13194 0.20734
 C2232 C 0.58862 1.12041 0.23237
 C2233 C 0.60552 1.10370 0.25075
 C2234 C 0.63373 1.09779 0.24241
 H2235 H 0.66651 1.10314 0.21155
 H2236 H 0.58645 1.14524 0.19422
 H2237 H 0.56653 1.12478 0.23714
 H2238 H 0.64805 1.08592 0.25594
 C2239 C 0.59847 0.62839 0.70728
 C2240 C 0.62765 0.62611 0.70128
 C2241 C 0.64552 0.61250 0.72098
 C2242 C 0.63459 0.60197 0.74651
 C2243 C 0.60534 0.60411 0.75271
 C2244 C 0.58736 0.61720 0.73257
 H2245 H 0.58422 0.63866 0.69234
 H2246 H 0.66820 0.61082 0.71708
 H2247 H 0.64932 0.59279 0.76167
 H2248 H 0.56467 0.61878 0.73625
 C2249 C 0.90043 0.86966 0.70617
 C2250 C 0.87123 0.87224 0.70034
 C2251 C 0.85366 0.88621 0.72002
 C2252 C 0.86496 0.89689 0.74535
 C2253 C 0.89428 0.89452 0.75129
 C2254 C 0.91190 0.88097 0.73119
 H2255 H 0.91447 0.85915 0.69120
 H2256 H 0.83100 0.88815 0.71620
 H2257 H 0.85051 0.90646 0.76051
 H2258 H 0.93462 0.87922 0.73465
 C2259 C 0.86527 0.39908 0.20877
 C2260 C 0.87121 0.37089 0.20069
 C2261 C 0.88958 0.35471 0.21797
 C2262 C 0.90053 0.36586 0.24322
 C2263 C 0.89488 0.39416 0.25137
 C2264 C 0.87751 0.41075 0.23330
 H2265 H 0.85161 0.41243 0.19584
 H2266 H 0.89449 0.33278 0.21283
 H2267 H 0.91281 0.35169 0.25654
 H2268 H 0.87323 0.43288 0.23785
 C2269 C 0.39969 0.86966 0.20734
 C2270 C 0.37050 0.87204 0.20140
 C2271 C 0.35283 0.88615 0.22088
 C2272 C 0.36402 0.89719 0.24614
 C2273 C 0.39333 0.89503 0.25218
 C2274 C 0.41105 0.88133 0.23225
 H2275 H 0.41383 0.85912 0.19249
 H2276 H 0.33017 0.88802 0.21693
 H2277 H 0.34950 0.90689 0.26115
 H2278 H 0.43377 0.87976 0.23572
 C2279 C 0.40031 0.36586 0.70842
 C2280 C 0.37207 0.37191 0.70041
 C2281 C 0.35603 0.39030 0.71777
 C2282 C 0.36731 0.40113 0.74302
 C2283 C 0.39556 0.39517 0.75118
 C2284 C 0.41206 0.37782 0.73307
 H2285 H 0.41358 0.35215 0.69548
 H2286 H 0.33410 0.39536 0.71269
 H2287 H 0.35329 0.41349 0.75641
 H2288 H 0.43414 0.37331 0.73778
 C2289 C 1.10000 0.86700 1.29222
 C2290 C 1.12822 0.87319 1.30019
 C2291 C 1.14433 0.89133 1.28260
 C2292 C 1.13309 0.90181 1.25718
 C2293 C 1.10480 0.89586 1.24912
 C2294 C 1.08827 0.87871 1.26745
 H2295 H 1.08670 0.85348 1.30536
 H2296 H 1.16626 0.89642 1.28765
 H2297 H 1.14718 0.91394 1.24363
 H2298 H 1.06616 0.87421 1.26287
 C2299 C 1.14434 0.38742 0.77935
 C2300 C 1.12685 0.37371 0.79933
 C2301 C 1.09756 0.37135 0.79376
 C2302 C 1.08601 0.38264 0.76867
 C2303 C 1.10364 0.39595 0.74834
 C2304 C 1.13298 0.39806 0.75407
 H2305 H 1.16709 0.38913 0.78282
 H2306 H 1.08359 0.36094 0.80887
 H2307 H 1.06327 0.38099 0.76530
 H2308 H 1.14748 0.40731 0.73873
 C2309 C 0.64612 0.88668 0.77923
 C2310 C 0.62858 0.87342 0.79945
 C2311 C 0.59927 0.87116 0.79404
 C2312 C 0.58769 0.88215 0.76887
 C2313 C 0.60531 0.89502 0.74828
 C2314 C 0.63472 0.89700 0.75383
 H2315 H 0.66888 0.88828 0.78264
 H2316 H 0.58528 0.86110 0.80938
 H2317 H 0.56491 0.88065 0.76565
 H2318 H 0.64919 0.90594 0.73829
 C2319 C 0.59821 0.36700 1.29294
 C2320 C 0.62640 0.37332 1.30094
 C2321 C 0.64249 0.39140 1.28327
 C2322 C 0.63131 0.40165 1.25775
 C2323 C 0.60309 0.39552 1.24962
 C2324 C 0.58653 0.37846 1.26800
 H2325 H 0.58494 0.35348 1.30611
 H2326 H 0.66439 0.39661 1.28831
 H2327 H 0.64542 0.41371 1.24415
 H2328 H 0.56448 0.37379 1.26330
 C2329 C 0.88405 1.14922 1.27908
 C2330 C 0.86658 1.13252 1.29681
 C2331 C 0.86141 1.10408 1.28902
 C2332 C 0.87399 1.09248 1.26473
 C2333 C 0.89098 1.10929 1.24657
 C2334 C 0.89548 1.13799 1.25404
 H2335 H 0.88831 1.17133 1.28404
 H2336 H 0.84845 1.09032 1.30225
 H2337 H 0.87056 1.07011 1.26058
 H2338 H 0.90750 1.15216 1.24045
 C2339 C 0.88516 0.64666 0.77891
 C2340 C 0.87181 0.62853 0.79854
 C2341 C 0.87002 0.59936 0.79253
 C2342 C 0.88154 0.58846 0.76735
 C2343 C 0.89444 0.60664 0.74727
 C2344 C 0.89601 0.63592 0.75342
 H2345 H 0.88651 0.66932 0.78291
 H2346 H 0.86003 0.58491 0.80748
 H2347 H 0.88045 0.56574 0.76377
 H2348 H 0.90507 0.65077 0.73830
 C2349 C 0.36140 1.10342 0.78867
 C2350 C 0.36676 1.13176 0.79669
 C2351 C 0.38422 1.14852 0.77901
 C2352 C 0.39546 1.13744 0.75380
 C2353 C 0.39075 1.10884 0.74608
 C2354 C 0.37376 1.09196 0.76418
 H2355 H 0.34843 1.08960 0.80183
 H2356 H 0.38863 1.17056 0.78416
 H2357 H 0.40750 1.15167 0.74028
 H2358 H 0.37018 1.06966 0.75984
 C2359 C 0.39840 0.63669 1.28997
 C2360 C 0.37010 0.63063 1.29783
 C2361 C 0.35374 0.61319 1.27979
 C2362 C 0.36502 0.60283 1.25434
 C2363 C 0.39351 0.60835 1.24665
 C2364 C 0.41009 0.62520 1.26511
 H2365 H 0.41188 0.64973 1.30338
 H2366 H 0.33174 0.60829 1.28473
 H2367 H 0.35097 0.59092 1.24054
 H2368 H 0.43229 0.62945 1.26068
 C2369 C 1.14657 1.28139 0.88871
 C2370 C 1.12980 1.29912 0.87131
 C2371 C 1.10138 1.29120 0.86611
 C2372 C 1.09004 1.26645 0.87817
 C2373 C 1.10712 1.24807 0.89468
 C2374 C 1.13563 1.25599 0.89962
 H2375 H 1.16866 1.28645 0.89306
 H2376 H 1.08755 1.30444 0.85324
 H2377 H 1.06775 1.26196 0.87452
 H2378 H 1.14997 1.24236 0.91138
 C2379 C 1.09986 0.79321 0.37081
 C2380 C 1.12922 0.79865 0.37224
 C2381 C 1.14707 0.77858 0.38535
 C2382 C 1.13590 0.75334 0.39635
 C2383 C 1.10648 0.74776 0.39510
 C2384 C 1.08856 0.76818 0.38238
 H2385 H 1.08558 0.80843 0.36099
 H2386 H 1.16985 0.78204 0.38643
 H2387 H 1.15053 0.73793 0.40525
 H2388 H 1.06576 0.76494 0.38147
 C2389 C 0.64529 1.28192 0.38948
 C2390 C 0.62850 1.29979 0.37224
 C2391 C 0.60004 1.29196 0.36708
 C2392 C 0.58872 1.26708 0.37892
 C2393 C 0.60584 1.24856 0.39521
 C2394 C 0.63436 1.25644 0.40019
 H2395 H 0.66740 1.28689 0.39379
 H2396 H 0.58621 1.30530 0.35432
 H2397 H 0.56644 1.26257 0.37524
 H2398 H 0.64874 1.24270 0.41177
 C2399 C 0.60113 0.79282 0.87081
 C2400 C 0.63049 0.79827 0.87228
 C2401 C 0.64836 0.77812 0.88521
 C2402 C 0.63719 0.75277 0.89600
 C2403 C 0.60775 0.74722 0.89472
 C2404 C 0.58984 0.76773 0.88218
 H2405 H 0.58685 0.80814 0.86115
 H2406 H 0.67114 0.78163 0.88633
 H2407 H 0.65181 0.73729 0.90480
 H2408 H 0.56703 0.76454 0.88129
 C2409 C 0.89723 1.28892 1.13375
 C2410 C 0.86789 1.29428 1.13169
 C2411 C 0.85039 1.27431 1.11804
 C2412 C 0.86197 1.24924 1.10698
 C2413 C 0.89145 1.24390 1.10869
 C2414 C 0.90892 1.26421 1.12211
 H2415 H 0.91126 1.30415 1.14388
 H2416 H 0.82765 1.27783 1.11638
 H2417 H 0.84767 1.23389 1.09746
 H2418 H 0.93175 1.26126 1.12334
 C2419 C 0.86914 0.79131 0.59832
 C2420 C 0.87131 0.79740 0.62748
 C2421 C 0.88500 0.77788 0.64546
 C2422 C 0.89586 0.75245 0.63460
 C2423 C 0.89399 0.74626 0.60532
 C2424 C 0.88067 0.76620 0.58729
 H2425 H 0.85887 0.80617 0.58398
 H2426 H 0.88663 0.78191 0.66810
 H2427 H 0.90521 0.73744 0.64936
 H2428 H 0.87929 0.76256 0.56459
 C2429 C 0.35419 1.27980 0.61225
 C2430 C 0.37065 1.29777 0.62970
 C2431 C 0.39918 1.29025 0.63498
 C2432 C 0.41090 1.26566 0.62296
 C2433 C 0.39416 1.24713 0.60630
 C2434 C 0.36554 1.25463 0.60131
 H2435 H 0.33203 1.28450 0.60785
 H2436 H 0.41275 1.30364 0.64795
 H2437 H 0.43321 1.26139 0.62675
 H2438 H 0.35143 1.24083 0.58949
 C2439 C 0.38989 0.78239 1.14394
 C2440 C 0.37141 0.79947 1.12773
 C2441 C 0.36469 0.79074 1.09986
 C2442 C 0.37644 0.76591 1.08845
 C2443 C 0.39411 0.74816 1.10500
 C2444 C 0.40038 0.75681 1.13307
 H2445 H 0.39533 0.78805 1.16563
 H2446 H 0.35090 0.80348 1.08646
 H2447 H 0.37165 0.76095 1.06650
 H2448 H 0.41290 0.74369 1.14722
 C2449 C 0.90019 0.70725 0.87094
 C2450 C 0.87097 0.70139 0.87329
 C2451 C 0.85322 0.72121 0.88678
 C2452 C 0.86435 0.74677 0.89712
 C2453 C 0.89367 0.75279 0.89490
 C2454 C 0.91148 0.73248 0.88193
 H2455 H 0.91437 0.69217 0.86080
 H2456 H 0.83054 0.71736 0.88855
 H2457 H 0.84976 0.76205 0.90627
 H2458 H 0.93421 0.73596 0.88034
 C2459 C 0.88399 0.22199 0.35234
 C2460 C 0.86682 0.20419 0.36932
 C2461 C 0.86185 0.21214 0.39775
 C2462 C 0.87429 0.23675 0.40902
 C2463 C 0.89095 0.25494 0.39186
 C2464 C 0.89529 0.24722 0.36323
 H2465 H 0.88809 0.21696 0.33021
 H2466 H 0.84911 0.19890 0.41170
 H2467 H 0.87097 0.24116 0.43136
 H2468 H 0.90703 0.26079 0.34880
 C2469 C 0.40124 0.70678 0.37134
 C2470 C 0.37201 0.70095 0.37367
 C2471 C 0.35434 0.72069 0.38744
 C2472 C 0.36548 0.74609 0.39802
 C2473 C 0.39476 0.75215 0.39576
 C2474 C 0.41256 0.73195 0.38257
 H2475 H 0.41534 0.69184 0.36090
 H2476 H 0.33163 0.71697 0.38916
 H2477 H 0.35087 0.76129 0.40727
 H2478 H 0.43527 0.73552 0.38088
 C2479 C 0.38410 0.22103 0.85290
 C2480 C 0.36697 0.20307 0.86972
 C2481 C 0.36178 0.21090 0.89816
 C2482 C 0.37399 0.23554 0.90959
 C2483 C 0.39069 0.25384 0.89261
 C2484 C 0.39519 0.24627 0.86395
 H2485 H 0.38834 0.21612 0.83077
 H2486 H 0.34901 0.19755 0.91198
 H2487 H 0.37049 0.23990 0.93192
 H2488 H 0.40693 0.25996 0.84964
 C2489 C 1.10117 0.70857 1.13468
 C2490 C 1.12965 0.70100 1.12920
 C2491 C 1.14608 0.71908 1.11183
 C2492 C 1.13476 0.74442 1.10121
 C2493 C 1.10618 0.75197 1.10639
 C2494 C 1.08946 0.73332 1.12294
 H2495 H 1.08761 0.69510 1.14761
 H2496 H 1.16820 0.71434 1.10731
 H2497 H 1.14890 0.75830 1.08949
 H2498 H 1.06718 0.73759 1.12686
 C2499 C 1.10019 0.20879 0.63345
 C2500 C 1.12838 0.20076 0.62722
 C2501 C 1.14447 0.21827 0.60900
 C2502 C 1.13325 0.24367 0.59845
 C2503 C 1.10497 0.25178 0.60444
 C2504 C 1.08847 0.23353 0.62168
 H2505 H 1.08690 0.19571 0.64703
 H2506 H 1.16638 0.21318 0.60387
 H2507 H 1.14732 0.25716 0.58623
 H2508 H 1.06638 0.23812 0.62621
 C2509 C 0.59906 0.70754 0.63106
 C2510 C 0.62837 0.70201 0.62908
 C2511 C 0.64608 0.72212 0.61586
 C2512 C 0.63481 0.74746 0.60517
 C2513 C 0.60539 0.75304 0.60683
 C2514 C 0.58764 0.73263 0.61979
 H2515 H 0.58489 0.69227 0.64097
 H2516 H 0.66882 0.71857 0.61436
 H2517 H 0.64933 0.76288 0.59609
 H2518 H 0.56486 0.73587 0.62103
 C2519 C 0.64552 0.21822 1.11130
 C2520 C 0.62903 0.20001 1.12846
 C2521 C 0.60052 0.20751 1.13390
 C2522 C 0.58883 0.23232 1.12226
 C2523 C 0.60562 0.25109 1.10589
 C2524 C 0.63423 0.24362 1.10082
 H2525 H 0.66767 0.21355 1.10685
 H2526 H 0.58693 0.19394 1.14668
 H2527 H 0.56653 0.23654 1.12610
 H2528 H 0.64843 0.25760 1.08929
 C2529 C 1.27828 1.11167 0.85580
 C2530 C 1.29784 1.12582 0.87340
 C2531 C 1.29190 1.12826 0.90259
 C2532 C 1.26680 1.11674 0.91392
 C2533 C 1.24676 1.10317 0.89616
 C2534 C 1.25294 1.10085 0.86692
 H2535 H 1.28203 1.10988 0.83312
 H2536 H 1.30669 1.13901 0.91664
 H2537 H 1.26316 1.11852 0.93660
 H2538 H 1.23788 1.09139 0.85229
 C2539 C 1.28933 0.63196 0.39830
 C2540 C 1.29485 0.63056 0.36896
 C2541 C 1.27494 0.61728 0.35109
 C2542 C 1.24976 0.60598 0.36229
 C2543 C 1.24422 0.60711 0.39174
 C2544 C 1.26449 0.62010 0.40960
 H2545 H 1.30450 0.64177 0.41262
 H2546 H 1.27858 0.61610 0.32835
 H2547 H 1.23446 0.59679 0.34772
 H2548 H 1.26138 0.62086 0.43242
 C2549 C 0.77791 1.11279 0.35568
 C2550 C 0.79739 1.12704 0.37330
 C2551 C 0.79141 1.12945 0.40247
 C2552 C 0.76638 1.11774 0.41378
 C2553 C 0.74642 1.10403 0.39601
 C2554 C 0.75264 1.10179 0.36678
 H2555 H 0.78170 1.11101 0.33301
 H2556 H 0.80614 1.14026 0.41654
 H2557 H 0.76273 1.11947 0.43646
 H2558 H 0.73765 1.09224 0.35213
 C2559 C 0.77784 0.61307 0.85426
 C2560 C 0.79747 0.62672 0.87217
 C2561 C 0.79156 0.62863 0.90138
 C2562 C 0.76649 0.61701 0.91251
 C2563 C 0.74638 0.60386 0.89455
 C2564 C 0.75245 0.60210 0.86523
 H2565 H 0.78174 0.61159 0.83158
 H2566 H 0.80650 0.63882 0.91569
 H2567 H 0.76299 0.61825 0.93525
 H2568 H 0.73733 0.59284 0.85053
 C2569 C 1.27813 0.85374 1.11275
 C2570 C 1.29770 0.87180 1.12624
 C2571 C 1.29139 0.90087 1.12865
 C2572 C 1.26593 0.91172 1.11765
 C2573 C 1.24588 0.89357 1.10467
 C2574 C 1.25238 0.86440 1.10244
 H2575 H 1.28233 0.83114 1.11098
 H2576 H 1.30627 0.91526 1.13882
 H2577 H 1.26208 0.93437 1.11925
 H2578 H 1.23731 0.84954 1.09333
 C2579 C 1.27393 0.34895 0.61978
 C2580 C 1.29373 0.36679 0.63327
 C2581 C 1.28797 0.39603 0.63515
 C2582 C 1.26309 0.40732 0.62341
 C2583 C 1.24299 0.38953 0.61008
 C2584 C 1.24868 0.36012 0.60862
 H2585 H 1.27779 0.32628 0.61822
 H2586 H 1.30308 0.41034 0.64511
 H2587 H 1.25990 0.43010 0.62442
 H2588 H 1.23351 0.34560 0.59916
 C2589 C 0.79085 0.90009 0.62892
 C2590 C 0.79682 0.87091 0.62676
 C2591 C 0.77697 0.85300 0.61346
 C2592 C 0.75136 0.86394 0.60303
 C2593 C 0.74528 0.89323 0.60495
 C2594 C 0.76554 0.91119 0.61784
 H2595 H 0.80594 0.91439 0.63891
 H2596 H 0.78089 0.83034 0.61185
 H2597 H 0.73611 0.84923 0.59400
 H2598 H 0.76200 0.93390 0.61923
 C2599 C 0.78976 0.39916 1.13169
 C2600 C 0.79544 0.36988 1.12987
 C2601 C 0.77533 0.35204 1.11683
 C2602 C 0.74990 0.36313 1.10615
 C2603 C 0.74415 0.39250 1.10763
 C2604 C 0.76453 0.41039 1.12044
 H2605 H 0.80498 0.41344 1.14150
 H2606 H 0.77893 0.32932 1.11548
 H2607 H 0.73452 0.34849 1.09722
 H2608 H 0.76116 0.43315 1.12157
 C2609 C 0.71123 1.10128 1.13289
 C2610 C 0.70563 1.13056 1.13109
 C2611 C 0.72547 1.14837 1.11761
 C2612 C 0.75065 1.13712 1.10642
 C2613 C 0.75621 1.10769 1.10784
 C2614 C 0.73605 1.08993 1.12112
 H2615 H 0.69608 1.08702 1.14286
 H2616 H 0.72172 1.17106 1.11612
 H2617 H 0.76589 1.15162 1.09702
 H2618 H 0.73918 1.06713 1.12211
 C2619 C 0.70902 0.59977 0.63119
 C2620 C 0.70338 0.62904 0.62932
 C2621 C 0.72326 0.64684 0.61589
 C2622 C 0.74853 0.63565 0.60491
 C2623 C 0.75420 0.60625 0.60647
 C2624 C 0.73397 0.58845 0.61961
 H2625 H 0.69388 0.58553 0.64119
 H2626 H 0.71956 0.66955 0.61443
 H2627 H 0.76381 0.65020 0.59564
 H2628 H 0.73723 0.56568 0.62074
 C2629 C 0.21133 1.13407 0.60139
 C2630 C 0.20550 1.13199 0.63061
 C2631 C 0.22511 1.11818 0.64842
 C2632 C 0.25025 1.10688 0.63726
 C2633 C 0.25605 1.10852 0.60788
 C2634 C 0.23615 1.12218 0.59009
 H2635 H 0.19638 1.14432 0.58713
 H2636 H 0.22120 1.11650 0.67109
 H2637 H 0.26530 1.09722 0.65179
 H2638 H 0.23948 1.12338 0.56732
 C2639 C 0.21188 0.60212 1.13462
 C2640 C 0.20621 0.63137 1.13237
 C2641 C 0.22601 0.64896 1.11856
 C2642 C 0.25116 0.63755 1.10744
 C2643 C 0.25674 0.60814 1.10923
 C2644 C 0.23667 0.59059 1.12292
 H2645 H 0.19679 0.58799 1.14486
 H2646 H 0.22225 0.67163 1.11674
 H2647 H 0.26634 0.65192 1.09773
 H2648 H 0.23982 0.56781 1.12424
 C2649 C 0.71146 0.90030 0.86779
 C2650 C 0.70573 0.87105 0.87001
 C2651 C 0.72572 0.85332 0.88334
 C2652 C 0.75113 0.86456 0.89399
 C2653 C 0.75684 0.89394 0.89220
 C2654 C 0.73657 0.91167 0.87904
 H2655 H 0.69625 0.91448 0.85783
 H2656 H 0.72197 0.83064 0.88504
 H2657 H 0.76645 0.85005 0.90324
 H2658 H 0.73987 0.93442 0.87771
 C2659 C 0.71022 0.39890 0.36614
 C2660 C 0.70462 0.36963 0.36825
 C2661 C 0.72453 0.35197 0.38180
 C2662 C 0.74970 0.36335 0.39286
 C2663 C 0.75522 0.39278 0.39124
 C2664 C 0.73506 0.41040 0.37778
 H2665 H 0.69504 0.41305 0.35609
 H2666 H 0.72080 0.32928 0.38351
 H2667 H 0.76497 0.34894 0.40237
 H2668 H 0.73819 0.43318 0.37659
 C2669 C 0.22561 0.85211 0.38179
 C2670 C 0.20568 0.86993 0.36850
 C2671 C 0.21137 0.89918 0.36653
 C2672 C 0.23636 0.91051 0.37803
 C2673 C 0.25659 0.89272 0.39117
 C2674 C 0.25095 0.86331 0.39268
 H2675 H 0.22183 0.82942 0.38335
 H2676 H 0.19616 0.91344 0.35665
 H2677 H 0.23957 0.93329 0.37694
 H2678 H 0.26623 0.84877 0.40193
 C2679 C 0.22493 0.35212 0.88201
 C2680 C 0.20512 0.36988 0.86842
 C2681 C 0.21096 0.39909 0.86615
 C2682 C 0.23596 0.41042 0.87762
 C2683 C 0.25600 0.39269 0.89111
 C2684 C 0.25023 0.36333 0.89293
 H2685 H 0.22106 0.32947 0.88382
 H2686 H 0.19588 0.41332 0.85604
 H2687 H 0.23934 0.43317 0.87626
 H2688 H 0.26539 0.34885 0.90248
   
