data_POSCAR
  _audit_creation_date              2014-09-24
  _audit_creation_method            'ToBaCCo'
  _symmetry_space_group_name_H-M    'P1'
  _symmetry_Int_Tables_number       1
  _symmetry_cell_setting            triclinic
  loop_
  _symmetry_equiv_pos_as_xyz
 x,y,z
_cell_length_a 50.9510
_cell_length_b 50.5962
_cell_length_c 53.7863
_cell_angle_alpha 90.205300
_cell_angle_beta 89.713800
_cell_angle_gamma 89.872500
loop_
  _atom_site_label
  _atom_site_type_symbol
  _atom_site_fract_x
  _atom_site_fract_y
  _atom_site_fract_z
C1 C 0.41265 0.01821 0.29648
 H2 H 0.39718 0.03243 0.29370
 C3 C 0.42683 0.01884 0.31864
 H4 H 0.42144 0.03326 0.33269
 C5 C 0.43747 -0.01841 0.28230
 H6 H 0.44160 -0.03295 0.26805
 C7 C 0.45234 -0.01837 0.30419
 H8 H 0.46706 -0.03352 0.30657
 N9 N 0.41764 -0.00066 0.27902
 C10 C 0.41019 -0.02204 0.20213
 H11 H 0.39221 -0.03327 0.20364
 C12 C 0.42427 -0.02210 0.17977
 H13 H 0.41685 -0.03351 0.16427
 C14 C 0.44039 0.00797 0.21985
 H15 H 0.44609 0.02031 0.23537
 C16 C 0.45518 0.00843 0.19777
 H17 H 0.47202 0.02130 0.19682
 Zn18 Zn 0.39585 -0.00352 0.25003
 N19 N 0.41821 -0.00691 0.22155
 C20 C 0.37927 0.04349 0.22520
 N21 N 0.37479 0.02828 0.24566
 C22 C 0.35662 0.03596 0.26290
 C23 C 0.34292 0.05989 0.26028
 C24 C 0.36590 0.06748 0.22178
 C25 C 0.38628 -0.05872 0.25622
 C26 C 0.37169 -0.08201 0.25893
 C27 C 0.33208 -0.05624 0.25611
 C28 C 0.34750 -0.03340 0.25352
 N29 N 0.37418 -0.03491 0.25338
 H30 H 0.39370 0.03741 0.21155
 H31 H 0.35312 0.02378 0.27907
 H32 H 0.32925 0.06586 0.27472
 H33 H 0.37094 0.07923 0.20575
 H34 H 0.40743 -0.05982 0.25615
 H35 H 0.38215 -0.10051 0.26116
 H36 H 0.31107 -0.05356 0.25677
 H37 H 0.33798 -0.01443 0.25158
 C38 C 0.44707 -0.00658 0.17712
 C39 C 0.44704 0.00039 0.32294
 C40 C 0.34395 -0.08154 0.25803
 C41 C 0.34725 0.07616 0.23941
 C42 C 0.08474 0.02297 0.70537
 H43 H 0.09947 0.03807 0.70795
 C44 C 0.06995 0.02252 0.68354
 H45 H 0.07378 0.03731 0.66950
 C46 C 0.06370 -0.01584 0.71949
 H47 H 0.06195 -0.03121 0.73333
 C48 C 0.04830 -0.01693 0.69796
 H49 H 0.03516 -0.03346 0.69553
 N50 N 0.08154 0.00385 0.72278
 C51 C 0.09820 0.00353 0.80245
 H52 H 0.11923 0.00064 0.80175
 C53 C 0.08559 0.00663 0.82533
 H54 H 0.09711 0.00532 0.84215
 C55 C 0.05790 0.00853 0.78131
 H56 H 0.04722 0.00958 0.76403
 C57 C 0.04445 0.01216 0.80394
 H58 H 0.02347 0.01511 0.80356
 Zn59 Zn 0.10429 0.00222 0.75089
 N60 N 0.08431 0.00421 0.78098
 C61 C 0.11691 0.05602 0.75694
 N62 N 0.12777 0.03195 0.75204
 C63 C 0.15430 0.02910 0.75047
 C64 C 0.17090 0.05104 0.75328
 C65 C 0.13275 0.07836 0.76014
 C66 C 0.12220 -0.04890 0.76683
 C67 C 0.13516 -0.07321 0.76440
 C68 C 0.14976 -0.06033 0.72356
 C69 C 0.13678 -0.03603 0.72691
 N70 N 0.12327 -0.03072 0.74828
 H71 H 0.09582 0.05780 0.75873
 H72 H 0.16271 0.00974 0.74733
 H73 H 0.19175 0.04767 0.75197
 H74 H 0.12352 0.09724 0.76403
 H75 H 0.11124 -0.04471 0.78361
 H76 H 0.13465 -0.08671 0.77994
 H77 H 0.16078 -0.06365 0.70660
 H78 H 0.13742 -0.02137 0.71233
 C79 C 0.05838 0.01152 0.82648
 C80 C 0.05124 0.00246 0.67947
 C81 C 0.14865 -0.07974 0.74224
 C82 C 0.16025 0.07640 0.75797
 C83 C 0.58585 0.52206 0.20353
 H84 H 0.60031 0.53735 0.20639
 C85 C 0.57220 0.52092 0.18109
 H86 H 0.57652 0.53547 0.16694
 C87 C 0.56464 0.48326 0.21750
 H88 H 0.56250 0.46812 0.23151
 C89 C 0.55037 0.48147 0.19531
 H90 H 0.53759 0.46471 0.19265
 N91 N 0.58208 0.50326 0.22113
 C92 C 0.59832 0.50389 0.30085
 H93 H 0.61942 0.50155 0.29995
 C94 C 0.58594 0.50700 0.32382
 H95 H 0.59772 0.50616 0.34050
 C96 C 0.55765 0.50754 0.28007
 H97 H 0.54677 0.50805 0.26288
 C98 C 0.54441 0.51118 0.30282
 H99 H 0.52335 0.51357 0.30268
 Zn100 Zn 0.60426 0.50231 0.24960
 N101 N 0.58416 0.50392 0.27954
 C102 C 0.61475 0.55640 0.25536
 N103 N 0.62663 0.53273 0.25090
 C104 C 0.65324 0.53087 0.24978
 C105 C 0.66892 0.55343 0.25283
 C106 C 0.62963 0.57935 0.25874
 C107 C 0.62326 0.45178 0.26591
 C108 C 0.63651 0.42764 0.26353
 C109 C 0.65103 0.44062 0.22269
 C110 C 0.63780 0.46479 0.22600
 N111 N 0.62413 0.46993 0.24732
 H112 H 0.59357 0.55739 0.25663
 H113 H 0.66241 0.51183 0.24674
 H114 H 0.68987 0.55089 0.25142
 H115 H 0.61963 0.59793 0.26213
 H116 H 0.61212 0.45580 0.28262
 H117 H 0.63600 0.41400 0.27898
 H118 H 0.66206 0.43745 0.20572
 H119 H 0.63824 0.47942 0.21139
 C120 C 0.55866 0.51127 0.32520
 C121 C 0.55408 0.50046 0.17656
 C122 C 0.65007 0.42123 0.24139
 C123 C 0.65722 0.57834 0.25744
 C124 C 0.91372 0.51899 0.79613
 H125 H 0.89790 0.53294 0.79385
 C126 C 0.92860 0.51975 0.81788
 H127 H 0.92318 0.53400 0.83209
 C128 C 0.93860 0.48285 0.78111
 H129 H 0.94248 0.46844 0.76668
 C130 C 0.95415 0.48294 0.80259
 H131 H 0.96893 0.46774 0.80438
 N132 N 0.91845 0.50034 0.77843
 C133 C 0.91039 0.48022 0.70132
 H134 H 0.89313 0.46793 0.70293
 C135 C 0.92387 0.48165 0.67866
 H136 H 0.91682 0.47015 0.66305
 C137 C 0.93926 0.51149 0.71914
 H138 H 0.94460 0.52374 0.73483
 C139 C 0.95339 0.51348 0.69677
 H140 H 0.96949 0.52726 0.69586
 Zn141 Zn 0.89607 0.49746 0.74977
 N142 N 0.91802 0.49529 0.72092
 C143 C 0.87745 0.54383 0.72519
 N144 N 0.87413 0.52877 0.74595
 C145 C 0.85619 0.53604 0.76356
 C146 C 0.84146 0.55937 0.76094
 C147 C 0.86306 0.56719 0.72177
 C148 C 0.88698 0.44196 0.75658
 C149 C 0.87234 0.41871 0.75963
 C150 C 0.83279 0.44423 0.75506
 C151 C 0.84820 0.46705 0.75228
 N152 N 0.87488 0.46568 0.75302
 H153 H 0.89163 0.53807 0.71121
 H154 H 0.85356 0.52395 0.77993
 H155 H 0.82804 0.56507 0.77568
 H156 H 0.86722 0.57893 0.70551
 H157 H 0.90813 0.44090 0.75694
 H158 H 0.88259 0.40017 0.76231
 H159 H 0.81180 0.44663 0.75428
 H160 H 0.83868 0.48588 0.74937
 C161 C 0.94557 0.49867 0.67589
 C162 C 0.94946 0.50167 0.82164
 C163 C 0.84472 0.41929 0.75860
 C164 C 0.84449 0.57537 0.73967
 C165 C 0.21757 0.39022 0.97644
 H166 H 0.23260 0.38976 0.96216
 C167 C 0.19392 0.40383 0.97210
 H168 H 0.19164 0.41423 0.95474
 C169 C 0.20290 0.37742 1.01633
 H170 H 0.20604 0.36675 1.03341
 C171 C 0.17922 0.39109 1.01292
 H172 H 0.16499 0.39133 1.02793
 N173 N 0.22165 0.37717 0.99822
 C174 C 0.30754 0.36453 1.00656
 H175 H 0.30755 0.34323 1.00824
 C176 C 0.33111 0.37849 1.00902
 H177 H 0.34910 0.36763 1.01229
 C178 C 0.28395 0.40426 1.00079
 H179 H 0.26543 0.41430 0.99806
 C180 C 0.30715 0.41903 1.00299
 H181 H 0.30549 0.44020 1.00174
 Zn182 Zn 0.25328 0.35613 1.00137
 N183 N 0.28453 0.37744 1.00231
 C184 C 0.27280 0.33591 0.95568
 N185 N 0.25396 0.33290 0.97337
 C186 C 0.23400 0.31536 0.97017
 C187 C 0.23241 0.30006 0.94843
 C188 C 0.27180 0.32131 0.93364
 C189 C 0.25314 0.35019 1.05309
 C190 C 0.25620 0.33747 1.07587
 C191 C 0.26179 0.29609 1.05407
 C192 C 0.25817 0.30962 1.03159
 N193 N 0.25394 0.33623 1.03149
 H194 H 0.28800 0.35054 0.95812
 H195 H 0.21880 0.31386 0.98421
 H196 H 0.21571 0.28718 0.94597
 H197 H 0.28628 0.32530 0.91935
 H198 H 0.25038 0.37139 1.05259
 H199 H 0.25479 0.34907 1.09278
 H200 H 0.26470 0.27495 1.05352
 H201 H 0.25938 0.29888 1.01423
 C202 C 0.33149 0.40621 1.00691
 C203 C 0.17391 0.40400 0.99028
 C204 C 0.26128 0.31010 1.07673
 C205 C 0.25155 0.30282 0.92968
 C206 C 0.78617 0.10831 0.97881
 H207 H 0.77181 0.10654 0.96415
 C208 C 0.81092 0.09628 0.97599
 H209 H 0.81463 0.08462 0.95944
 C210 C 0.79800 0.12512 1.01817
 H211 H 0.79329 0.13670 1.03449
 C212 C 0.82276 0.11318 1.01629
 H213 H 0.83583 0.11497 1.03200
 N214 N 0.78018 0.12265 0.99956
 C215 C 0.69353 0.13163 1.00522
 H216 H 0.69271 0.15296 1.00648
 C217 C 0.67044 0.11687 1.00793
 H218 H 0.65206 0.12718 1.01101
 C219 C 0.71866 0.09262 1.00064
 H220 H 0.73760 0.08317 0.99845
 C221 C 0.69593 0.07705 1.00299
 H222 H 0.69829 0.05588 1.00254
 Zn223 Zn 0.74752 0.14216 1.00072
 N224 N 0.71709 0.11947 1.00146
 C225 C 0.72999 0.15967 0.95340
 N226 N 0.74759 0.16412 0.97182
 C227 C 0.76735 0.18193 0.96875
 C228 C 0.77005 0.19600 0.94643
 C229 C 0.73212 0.17303 0.93077
 C230 C 0.74481 0.14909 1.05200
 C231 C 0.74182 0.16203 1.07477
 C232 C 0.73820 0.20347 1.05304
 C233 C 0.74169 0.18968 1.03051
 N234 N 0.74506 0.16295 1.03042
 H235 H 0.71491 0.14489 0.95582
 H236 H 0.78160 0.18459 0.98339
 H237 H 0.78654 0.20920 0.94435
 H238 H 0.71850 0.16822 0.91606
 H239 H 0.74708 0.12783 1.05148
 H240 H 0.74259 0.15047 1.09166
 H241 H 0.73616 0.22472 1.05253
 H242 H 0.74144 0.20035 1.01314
 C243 C 0.67106 0.08908 1.00632
 C244 C 0.83034 0.09931 0.99449
 C245 C 0.73797 0.18959 1.07570
 C246 C 0.75230 0.19164 0.92688
 C247 C 0.28657 0.60959 0.47801
 H248 H 0.27225 0.60802 0.46329
 C249 C 0.31122 0.59728 0.47525
 H250 H 0.31515 0.58575 0.45867
 C251 C 0.29854 0.62628 0.51740
 H252 H 0.29397 0.63795 0.53369
 C253 C 0.32319 0.61404 0.51555
 H254 H 0.33641 0.61571 0.53113
 N255 N 0.28067 0.62397 0.49879
 C256 C 0.19402 0.63427 0.50454
 H257 H 0.19364 0.65562 0.50574
 C258 C 0.17060 0.62004 0.50707
 H259 H 0.15239 0.63073 0.50988
 C260 C 0.21835 0.59475 0.49999
 H261 H 0.23708 0.58491 0.49774
 C262 C 0.19528 0.57968 0.50224
 H263 H 0.19724 0.55850 0.50144
 Zn264 Zn 0.24808 0.64379 0.50019
 N265 N 0.21734 0.62160 0.50092
 C266 C 0.22986 0.66145 0.45333
 N267 N 0.24780 0.66598 0.47144
 C268 C 0.26725 0.68408 0.46811
 C269 C 0.26923 0.69839 0.44585
 C270 C 0.23126 0.67504 0.43080
 C271 C 0.24550 0.64998 0.55147
 C272 C 0.24230 0.66249 0.57442
 C273 C 0.23867 0.70429 0.55330
 C274 C 0.24237 0.69091 0.53059
 N275 N 0.24581 0.66420 0.53011
 H276 H 0.21503 0.64645 0.45590
 H277 H 0.28177 0.68684 0.48249
 H278 H 0.28547 0.71186 0.44354
 H279 H 0.21735 0.67018 0.41634
 H280 H 0.24782 0.62873 0.55064
 H281 H 0.24306 0.65064 0.59112
 H282 H 0.23660 0.72555 0.55313
 H283 H 0.24218 0.70188 0.51338
 C284 C 0.17067 0.59225 0.50565
 C285 C 0.33041 0.59996 0.49388
 C286 C 0.23826 0.69000 0.57574
 C287 C 0.25106 0.69397 0.42665
 C288 C 0.71194 0.89125 0.47850
 H289 H 0.72697 0.89168 0.46422
 C290 C 0.68816 0.90477 0.47480
 H291 H 0.68574 0.91610 0.45796
 C292 C 0.69740 0.87616 0.51772
 H293 H 0.70065 0.86459 0.53426
 C294 C 0.67357 0.88969 0.51495
 H295 H 0.65937 0.88900 0.52996
 N296 N 0.71612 0.87708 0.49962
 C297 C 0.80202 0.86414 0.50640
 H298 H 0.80214 0.84277 0.50685
 C299 C 0.82553 0.87805 0.50966
 H300 H 0.84356 0.86706 0.51231
 C301 C 0.77817 0.90407 0.50334
 H302 H 0.75956 0.91419 0.50158
 C303 C 0.80130 0.91879 0.50638
 H304 H 0.79955 0.94002 0.50691
 Zn305 Zn 0.74765 0.85592 0.50152
 N306 N 0.77892 0.87720 0.50307
 C307 C 0.76547 0.83824 0.45418
 N308 N 0.74752 0.83409 0.47249
 C309 C 0.72732 0.81687 0.46916
 C310 C 0.72453 0.80306 0.44665
 C311 C 0.76324 0.82516 0.43137
 C312 C 0.74808 0.84850 0.55278
 C313 C 0.75101 0.83532 0.57531
 C314 C 0.75556 0.79420 0.55285
 C315 C 0.75210 0.80823 0.53059
 N316 N 0.74844 0.83493 0.53096
 H317 H 0.78086 0.85263 0.45682
 H318 H 0.71280 0.81451 0.48373
 H319 H 0.70772 0.79034 0.44435
 H320 H 0.77714 0.82977 0.41673
 H321 H 0.74577 0.86976 0.55263
 H322 H 0.75010 0.84665 0.59241
 H323 H 0.75815 0.77304 0.55194
 H324 H 0.75295 0.79781 0.51302
 C325 C 0.82576 0.90587 0.50913
 C326 C 0.66812 0.90364 0.49290
 C327 C 0.75538 0.80782 0.57574
 C328 C 0.74264 0.80711 0.42721
 C329 C 0.02003 0.27949 0.40383
 H330 H 0.03528 0.26458 0.40422
 C331 C 0.02165 0.30159 0.41907
 H332 H 0.03865 0.30366 0.43079
 C333 C -0.01955 0.29533 0.38608
 H334 H -0.03501 0.29322 0.37259
 C335 C -0.01870 0.31771 0.40085
 H336 H -0.03365 0.33275 0.39860
 N337 N -0.00061 0.27665 0.38822
 C338 C -0.00563 0.19434 0.37317
 H339 H -0.00508 0.19498 0.35306
 C340 C -0.00826 0.17041 0.38524
 H341 H -0.00849 0.15274 0.37392
 C342 C -0.00406 0.21739 0.41162
 H343 H -0.00273 0.23581 0.42170
 C344 C -0.00688 0.19396 0.42454
 H345 H -0.00663 0.19459 0.44468
 Zn346 Zn -0.00107 0.24733 0.36807
 N347 N -0.00316 0.21697 0.38646
 C348 C 0.04631 0.22766 0.35109
 N349 N 0.02893 0.24784 0.34933
 C350 C 0.03400 0.26990 0.33591
 C351 C 0.05791 0.27254 0.32371
 C352 C 0.07017 0.22926 0.33899
 C353 C -0.05276 0.24467 0.36205
 C354 C -0.07643 0.24273 0.34998
 C355 C -0.05330 0.24535 0.31055
 C356 C -0.02988 0.24740 0.32354
 N357 N -0.03031 0.24721 0.34875
 H358 H 0.04212 0.21064 0.36243
 H359 H 0.01962 0.28565 0.33523
 H360 H 0.06137 0.29023 0.31308
 H361 H 0.08389 0.21296 0.34051
 H362 H -0.05211 0.24429 0.38215
 H363 H -0.09429 0.24153 0.36093
 H364 H -0.05266 0.24643 0.29052
 H365 H -0.01148 0.24900 0.31360
 C366 C -0.00955 0.16990 0.41143
 C367 C 0.00176 0.32082 0.41800
 C368 C -0.07694 0.24263 0.32391
 C369 C 0.07660 0.25223 0.32575
 C370 C 0.01352 0.71471 0.09187
 H371 H 0.03013 0.72773 0.08936
 C372 C 0.01316 0.69019 0.08037
 H373 H 0.02932 0.68461 0.06828
 C374 C -0.02768 0.70624 0.11102
 H375 H -0.04334 0.71251 0.12329
 C376 C -0.02880 0.68147 0.09998
 H377 H -0.04603 0.66957 0.10316
 N378 N -0.00656 0.72199 0.10704
 C379 C -0.00375 0.80518 0.11735
 H380 H -0.00522 0.80547 0.13742
 C381 C -0.00289 0.82859 0.10429
 H382 H -0.00397 0.84713 0.11440
 C383 C -0.00102 0.78038 0.07987
 H384 H -0.00078 0.76143 0.07058
 C385 C 0.00009 0.80345 0.06596
 H386 H 0.00090 0.80172 0.04598
 Zn387 Zn -0.00233 0.75256 0.12513
 N388 N -0.00219 0.78184 0.10504
 C389 C 0.04726 0.76915 0.13932
 N390 N 0.02911 0.74977 0.14160
 C391 C 0.03366 0.72754 0.15496
 C392 C 0.05736 0.72432 0.16724
 C393 C 0.07102 0.76690 0.15139
 C394 C -0.05275 0.76355 0.13692
 C395 C -0.07506 0.76512 0.15149
 C396 C -0.04896 0.75376 0.18745
 C397 C -0.02696 0.75282 0.17208
 N398 N -0.02962 0.75657 0.14726
 H399 H 0.04341 0.78640 0.12819
 H400 H 0.01873 0.71242 0.15613
 H401 H 0.06006 0.70683 0.17835
 H402 H 0.08505 0.78288 0.14993
 H403 H -0.05388 0.76714 0.11714
 H404 H -0.09349 0.77023 0.14273
 H405 H -0.04610 0.75062 0.20708
 H406 H -0.00797 0.74853 0.17991
 C407 C -0.00014 0.82797 0.07832
 C408 C -0.00761 0.67272 0.08527
 C409 C -0.07383 0.75849 0.17692
 C410 C 0.07653 0.74413 0.16529
 C411 C 0.51421 0.21356 0.59647
 H412 H 0.53076 0.22639 0.59290
 C413 C 0.51315 0.18873 0.58563
 H414 H 0.52876 0.18263 0.57312
 C415 C 0.47363 0.20622 0.61714
 H416 H 0.45852 0.21312 0.62976
 C417 C 0.47180 0.18112 0.60679
 H418 H 0.45456 0.16958 0.61090
 N419 N 0.49461 0.22169 0.61179
 C420 C 0.50480 0.30465 0.61562
 H421 H 0.50581 0.30606 0.63567
 C422 C 0.50583 0.32718 0.60138
 H423 H 0.50777 0.34617 0.61057
 C424 C 0.50035 0.27789 0.57951
 H425 H 0.49762 0.25855 0.57137
 C426 C 0.50111 0.30016 0.56437
 H427 H 0.49923 0.29746 0.54457
 Zn428 Zn 0.49920 0.25384 0.62714
 N429 N 0.50231 0.28074 0.60454
 C430 C 0.55047 0.26567 0.63861
 N431 N 0.52925 0.25151 0.64585
 C432 C 0.53011 0.23447 0.66526
 C433 C 0.55278 0.23242 0.67941
 C434 C 0.57348 0.26404 0.65193
 C435 C 0.44817 0.26603 0.63314
 C436 C 0.42484 0.27138 0.64535
 C437 C 0.44830 0.27121 0.68442
 C438 C 0.47133 0.26604 0.67132
 N439 N 0.47048 0.26256 0.64631
 H440 H 0.54981 0.27782 0.62218
 H441 H 0.51315 0.22251 0.66968
 H442 H 0.55310 0.21849 0.69455
 H443 H 0.59039 0.27516 0.64565
 H444 H 0.44845 0.26354 0.61315
 H445 H 0.40692 0.27215 0.63464
 H446 H 0.44912 0.27185 0.70447
 H447 H 0.48959 0.26406 0.68121
 C448 C 0.50376 0.32524 0.57543
 C449 C 0.49212 0.17183 0.59127
 C450 C 0.42456 0.27357 0.67138
 C451 C 0.57466 0.24788 0.67306
 C452 C 0.50876 0.78518 0.90230
 H453 H 0.52545 0.77249 0.90577
 C454 C 0.50588 0.80858 0.91524
 H455 H 0.52044 0.81395 0.92896
 C456 C 0.46995 0.79377 0.87937
 H457 H 0.45643 0.78789 0.86497
 C458 C 0.46645 0.81770 0.89169
 H459 H 0.44984 0.82971 0.88664
 N460 N 0.49102 0.77844 0.88476
 C461 C 0.50703 0.69692 0.87618
 H462 H 0.51278 0.69665 0.85679
 C463 C 0.50604 0.67371 0.88956
 H464 H 0.51193 0.65545 0.88057
 C465 C 0.49302 0.72157 0.91153
 H466 H 0.48753 0.74028 0.91976
 C467 C 0.49153 0.69876 0.92560
 H468 H 0.48615 0.70048 0.94500
 Zn469 Zn 0.49936 0.74886 0.86688
 N470 N 0.50055 0.72007 0.88734
 C471 C 0.55251 0.74182 0.86263
 N472 N 0.53172 0.75492 0.85298
 C473 C 0.53462 0.77383 0.83537
 C474 C 0.55905 0.77794 0.82449
 C475 C 0.57725 0.74575 0.85285
 C476 C 0.45138 0.73295 0.85484
 C477 C 0.42896 0.72989 0.84095
 C478 C 0.45319 0.74379 0.80442
 C479 C 0.47557 0.74576 0.81905
 N480 N 0.47370 0.74176 0.84394
 H481 H 0.54998 0.72838 0.87798
 H482 H 0.51790 0.78544 0.82960
 H483 H 0.56069 0.79257 0.81004
 H484 H 0.59362 0.73467 0.86033
 H485 H 0.45070 0.72961 0.87467
 H486 H 0.41094 0.72414 0.85023
 H487 H 0.45478 0.74862 0.78497
 H488 H 0.49392 0.75164 0.81069
 C489 C 0.49715 0.67432 0.91431
 C490 C 0.48499 0.82560 0.90951
 C491 C 0.42921 0.73706 0.81579
 C492 C 0.58052 0.76283 0.83258
 C493 C -0.22509 0.66379 0.95582
 H494 H -0.21028 0.64883 0.95885
 C495 C -0.22493 0.67815 0.93366
 H496 H -0.21001 0.67369 0.91988
 C497 C -0.26383 0.68565 0.96900
 H498 H -0.27944 0.68783 0.98257
 C499 C -0.26431 0.70065 0.94711
 H500 H -0.28062 0.71393 0.94412
 N501 N -0.24444 0.66758 0.97294
 C502 C -0.24590 0.65155 1.05288
 H503 H -0.24845 0.63033 1.05226
 C504 C -0.24315 0.66431 1.07574
 H505 H -0.24456 0.65255 1.09248
 C506 C -0.24164 0.69213 1.03164
 H507 H -0.24084 0.70288 1.01433
 C508 C -0.23844 0.70579 1.05423
 H509 H -0.23631 0.72701 1.05359
 Zn510 Zn -0.24657 0.64503 1.00135
 N511 N -0.24532 0.66546 1.03137
 C512 C -0.19310 0.63351 1.00802
 N513 N -0.21650 0.62189 1.00277
 C514 C -0.21822 0.59515 1.00046
 C515 C -0.19574 0.57917 1.00272
 C516 C -0.17028 0.61831 1.01071
 C517 C -0.29757 0.62680 1.01705
 C518 C -0.32182 0.61409 1.01440
 C519 C -0.30850 0.59944 0.97362
 C520 C -0.28426 0.61215 0.97719
 N521 N -0.27921 0.62565 0.99861
 H522 H -0.19218 0.65474 1.01030
 H523 H -0.23706 0.58612 0.99691
 H524 H -0.19818 0.55813 1.00067
 H525 H -0.15195 0.62818 1.01477
 H526 H -0.29361 0.63772 1.03389
 H527 H -0.33555 0.61477 1.02980
 H528 H -0.31161 0.58853 0.95658
 H529 H -0.26950 0.61144 0.96267
 C530 C -0.23858 0.69187 1.07698
 C531 C -0.24459 0.69713 0.92896
 C532 C -0.32812 0.60075 0.99214
 C533 C -0.17103 0.59067 1.00764
 C534 C -0.23292 0.33816 0.55086
 H535 H -0.21903 0.35411 0.54906
 C536 C -0.23371 0.32420 0.57196
 H537 H -0.22056 0.32950 0.58692
 C538 C -0.26704 0.31264 0.53272
 H539 H -0.28016 0.30831 0.51751
 C540 C -0.26866 0.29662 0.55573
 H541 H -0.28371 0.28168 0.55671
 N542 N -0.25066 0.33233 0.53091
 C543 C -0.27065 0.33984 0.45420
 H544 H -0.28246 0.35754 0.45599
 C545 C -0.27015 0.32598 0.43168
 H546 H -0.28180 0.33322 0.41636
 C547 C -0.23971 0.31020 0.47135
 H548 H -0.22723 0.30469 0.48671
 C549 C -0.23864 0.29568 0.44911
 H550 H -0.22525 0.27916 0.44793
 Zn551 Zn -0.25205 0.35442 0.50188
 N552 N -0.25525 0.33205 0.47338
 C553 C -0.20494 0.37015 0.47700
 N554 N -0.21996 0.37482 0.49763
 C555 C -0.21221 0.39312 0.51469
 C556 C -0.18845 0.40682 0.51166
 C557 C -0.18116 0.38347 0.47319
 C558 C -0.30631 0.36592 0.50985
 C559 C -0.32895 0.38146 0.51273
 C560 C -0.30290 0.42017 0.50476
 C561 C -0.28066 0.40385 0.50231
 N562 N -0.28262 0.37717 0.50486
 H563 H -0.21113 0.35578 0.46338
 H564 H -0.22436 0.39698 0.53086
 H565 H -0.18249 0.42074 0.52587
 H566 H -0.16967 0.37832 0.45698
 H567 H -0.30780 0.34473 0.51151
 H568 H -0.34747 0.37173 0.51644
 H569 H -0.30010 0.44102 0.50175
 H570 H -0.26185 0.41259 0.49800
 C571 C -0.25376 0.30369 0.42862
 C572 C -0.25271 0.30200 0.57506
 C573 C -0.32781 0.40920 0.51029
 C574 C -0.17244 0.40233 0.49057
 C575 C 0.26670 -0.16088 0.05010
 H576 H 0.28070 -0.14503 0.04821
 C577 C 0.26622 -0.17512 0.07103
 H578 H 0.27971 -0.17014 0.08581
 C579 C 0.23208 -0.18594 0.03223
 H580 H 0.21874 -0.19006 0.01716
 C581 C 0.23076 -0.20223 0.05510
 H582 H 0.21559 -0.21704 0.05617
 N583 N 0.24852 -0.16630 0.03040
 C584 C 0.22984 -0.15847 -0.04680
 H585 H 0.21756 -0.14108 -0.04519
 C586 C 0.23160 -0.17196 -0.06948
 H587 H 0.22034 -0.16481 -0.08511
 C588 C 0.26083 -0.18759 -0.02897
 H589 H 0.27289 -0.19299 -0.01328
 C590 C 0.26316 -0.20173 -0.05136
 H591 H 0.27696 -0.21791 -0.05225
 Zn592 Zn 0.24681 -0.14400 0.00152
 N593 N 0.24466 -0.16618 -0.02720
 C594 C 0.29328 -0.12626 -0.02310
 N595 N 0.27821 -0.12267 -0.00233
 C596 C 0.28520 -0.10439 0.01505
 C597 C 0.30820 -0.08946 0.01211
 C598 C 0.31632 -0.11169 -0.02682
 C599 C 0.19241 -0.13265 0.01038
 C600 C 0.16995 -0.11690 0.01358
 C601 C 0.19588 -0.07858 0.00380
 C602 C 0.21793 -0.09507 0.00109
 N603 N 0.21598 -0.12165 0.00444
 H604 H 0.28771 -0.14068 -0.03692
 H605 H 0.27301 -0.10149 0.03135
 H606 H 0.31367 -0.07573 0.02665
 H607 H 0.32811 -0.11601 -0.04308
 H608 H 0.19089 -0.15377 0.01268
 H609 H 0.15151 -0.12641 0.01808
 H610 H 0.19864 -0.05787 0.00004
 H611 H 0.23659 -0.08654 -0.00405
 C612 C 0.24869 -0.19375 -0.07227
 C613 C 0.24710 -0.19722 0.07422
 C614 C 0.17117 -0.08923 0.01050
 C615 C 0.32410 -0.09261 -0.00927
 C616 C 0.26875 1.16254 0.45606
 H617 H 0.28388 1.14802 0.45949
 C618 C 0.26864 1.17635 0.43360
 H619 H 0.28376 1.17203 0.41996
 C620 C 0.22956 1.18395 0.46873
 H621 H 0.21394 1.18619 0.48227
 C622 C 0.22880 1.19838 0.44653
 H623 H 0.21227 1.21130 0.44333
 N624 N 0.24931 1.16641 0.47308
 C625 C 0.24737 1.15339 0.55339
 H626 H 0.24507 1.13213 0.55349
 C627 C 0.24945 1.16713 0.57580
 H628 H 0.24808 1.15621 0.59303
 C629 C 0.25189 1.19312 0.53075
 H630 H 0.25318 1.20314 0.51308
 C631 C 0.25452 1.20771 0.55290
 H632 H 0.25711 1.22885 0.55175
 Zn633 Zn 0.24750 1.14485 0.50212
 N634 N 0.24830 1.16643 0.53140
 C635 C 0.30114 1.13407 0.50920
 N636 N 0.27783 1.12210 0.50427
 C637 C 0.27635 1.09529 0.50265
 C638 C 0.29899 1.07959 0.50524
 C639 C 0.32411 1.11917 0.51219
 C640 C 0.19657 1.12701 0.51821
 C641 C 0.17237 1.11417 0.51587
 C642 C 0.18602 1.09788 0.47573
 C643 C 0.21022 1.11074 0.47900
 N644 N 0.21508 1.12512 0.49995
 H645 H 0.30186 1.15537 0.51095
 H646 H 0.25760 1.08598 0.49940
 H647 H 0.29673 1.05847 0.50381
 H648 H 0.34235 1.12933 0.51599
 H649 H 0.20034 1.13869 0.53463
 H650 H 0.15849 1.11552 0.53111
 H651 H 0.18306 1.08628 0.45906
 H652 H 0.22508 1.10949 0.46460
 C653 C 0.25353 1.19466 0.57596
 C654 C 0.24860 1.19478 0.42847
 C655 C 0.16626 1.09994 0.49407
 C656 C 0.32363 1.09146 0.50971
 C657 C 0.13741 0.46058 0.27196
 H658 H 0.13750 0.47557 0.28636
 C659 C 0.15053 0.43648 0.27584
 H660 H 0.16125 0.43374 0.29295
 C661 C 0.12360 0.44644 0.23222
 H662 H 0.11274 0.44999 0.21537
 C663 C 0.13674 0.42230 0.23519
 H664 H 0.13653 0.40827 0.21997
 N665 N 0.12409 0.46511 0.25048
 C666 C 0.11167 0.55170 0.24335
 H667 H 0.09048 0.55181 0.24216
 C668 C 0.12558 0.57540 0.24068
 H669 H 0.11479 0.59357 0.23771
 C670 C 0.15116 0.52770 0.24786
 H671 H 0.16113 0.50897 0.25004
 C672 C 0.16588 0.55103 0.24543
 H673 H 0.18696 0.54927 0.24579
 Zn674 Zn 0.10327 0.49694 0.24810
 N675 N 0.12449 0.52843 0.24711
 C676 C 0.08444 0.51522 0.29481
 N677 N 0.08090 0.49686 0.27666
 C678 C 0.06403 0.47631 0.28000
 C679 C 0.05008 0.47351 0.30239
 C680 C 0.07116 0.51303 0.31749
 C681 C 0.09747 0.49802 0.19675
 C682 C 0.08509 0.50070 0.17385
 C683 C 0.04334 0.50325 0.19509
 C684 C 0.05666 0.50019 0.21774
 N685 N 0.08327 0.49766 0.21814
 H686 H 0.09854 0.53090 0.29219
 H687 H 0.06217 0.46148 0.26559
 H688 H 0.03772 0.45638 0.30477
 H689 H 0.07534 0.52724 0.33203
 H690 H 0.11863 0.49636 0.19751
 H691 H 0.09711 0.50020 0.15718
 H692 H 0.02219 0.50453 0.19562
 H693 H 0.04568 0.50024 0.23498
 C694 C 0.15316 0.57565 0.24219
 C695 C 0.14980 0.41647 0.25758
 C696 C 0.05757 0.50415 0.17246
 C697 C 0.05359 0.49199 0.32170
 C698 C -0.13897 1.03838 0.27463
 H699 H -0.13966 1.02361 0.28911
 C700 C -0.15245 1.06242 0.27786
 H701 H -0.16396 1.06535 0.29459
 C702 C -0.12356 1.05189 0.23518
 H703 H -0.11201 1.04808 0.21866
 C704 C -0.13698 1.07598 0.23751
 H705 H -0.13621 1.08974 0.22218
 N706 N -0.12475 1.03353 0.25357
 C707 C -0.11385 0.94695 0.24640
 H708 H -0.09265 0.94637 0.24531
 C709 C -0.12823 0.92360 0.24342
 H710 H -0.11782 0.90517 0.24043
 C711 C -0.15289 0.97178 0.25118
 H712 H -0.16247 0.99069 0.25376
 C713 C -0.16807 0.94882 0.24849
 H714 H -0.18907 0.95102 0.24951
 Zn715 Zn -0.10441 1.00136 0.25157
 N716 N -0.12624 0.97046 0.25033
 C717 C -0.08686 0.98242 0.29817
 N718 N -0.08259 1.00087 0.28034
 C719 C -0.06513 1.02084 0.28403
 C720 C -0.05128 1.02288 0.30644
 C721 C -0.07369 0.98385 0.32085
 C722 C -0.09802 0.99956 0.20034
 C723 C -0.08547 0.99652 0.17744
 C724 C -0.04399 0.99328 0.19867
 C725 C -0.05745 0.99676 0.22133
 N726 N -0.08401 0.99987 0.22173
 H727 H -0.10139 0.96719 0.29529
 H728 H -0.06263 1.03575 0.26986
 H729 H -0.03840 1.03957 0.30909
 H730 H -0.07839 0.96955 0.33511
 H731 H -0.11915 1.00164 0.20112
 H732 H -0.09728 0.99723 0.16076
 H733 H -0.02287 0.99156 0.19910
 H734 H -0.04666 0.99661 0.23858
 C735 C -0.15584 0.92402 0.24459
 C736 C -0.15112 1.08207 0.25941
 C737 C -0.05804 0.99265 0.17610
 C738 C -0.05547 1.00422 0.32539
 C739 C 0.36163 0.53901 -0.22641
 H740 H 0.36055 0.52445 -0.21176
 C741 C 0.34920 0.56363 -0.22327
 H742 H 0.33800 0.56725 -0.20646
 C743 C 0.37717 0.55148 -0.26613
 H744 H 0.38839 0.54703 -0.28270
 C745 C 0.36480 0.57614 -0.26388
 H746 H 0.36593 0.58964 -0.27939
 N747 N 0.37544 0.53337 -0.24754
 C748 C 0.38502 0.44488 -0.25283
 H749 H 0.40622 0.44396 -0.25386
 C750 C 0.37087 0.42271 -0.25540
 H751 H 0.38099 0.40412 -0.25844
 C752 C 0.34685 0.47181 -0.24903
 H753 H 0.33753 0.49096 -0.24749
 C754 C 0.33037 0.44770 -0.25139
 H755 H 0.30940 0.45056 -0.25133
 Zn756 Zn 0.39490 0.50063 -0.24916
 N757 N 0.37236 0.47009 -0.24935
 C758 C 0.41358 0.48286 -0.20241
 N759 N 0.41740 0.50071 -0.22085
 C760 C 0.43513 0.52064 -0.21824
 C761 C 0.44977 0.52328 -0.19633
 C762 C 0.42754 0.48491 -0.18019
 C763 C 0.40084 0.49774 -0.30055
 C764 C 0.41332 0.49414 -0.32344
 C765 C 0.45469 0.49000 -0.30220
 C766 C 0.44137 0.49405 -0.27956
 N767 N 0.41490 0.49795 -0.27917
 H768 H 0.39889 0.46764 -0.20447
 H769 H 0.43730 0.53506 -0.23291
 H770 H 0.46292 0.53988 -0.19457
 H771 H 0.42327 0.47107 -0.16541
 H772 H 0.37978 0.50041 -0.29978
 H773 H 0.40165 0.49493 -0.34019
 H774 H 0.47576 0.48757 -0.30194
 H775 H 0.45219 0.49374 -0.26233
 C776 C 0.34163 0.42352 -0.25391
 C777 C 0.35119 0.58305 -0.24188
 C778 C 0.44059 0.48970 -0.32466
 C779 C 0.44605 0.50528 -0.17675
 C780 C 0.64040 -0.03851 -0.22563
 H781 H 0.64106 -0.02301 -0.21173
 C782 C 0.65338 -0.06134 -0.22181
 H783 H 0.66477 -0.06342 -0.20503
 C784 C 0.62482 -0.05261 -0.26511
 H785 H 0.61306 -0.04982 -0.28153
 C786 C 0.63959 -0.07767 -0.26209
 H787 H 0.63947 -0.09159 -0.27743
 N788 N 0.62544 -0.03438 -0.24797
 C789 C 0.61293 0.05224 -0.25517
 H790 H 0.59171 0.05256 -0.25558
 C791 C 0.62694 0.07588 -0.25786
 H792 H 0.61604 0.09411 -0.26017
 C793 C 0.65234 0.02779 -0.25274
 H794 H 0.66219 0.00890 -0.25147
 C795 C 0.66719 0.05099 -0.25539
 H796 H 0.68823 0.04879 -0.25643
 Zn797 Zn 0.60437 -0.00258 -0.25044
 N798 N 0.62567 0.02880 -0.25222
 C799 C 0.58538 0.01714 -0.20419
 N800 N 0.58219 -0.00191 -0.22176
 C801 C 0.56479 -0.02197 -0.21827
 C802 C 0.54964 -0.02334 -0.19646
 C803 C 0.57093 0.01636 -0.18207
 C804 C 0.59648 -0.00307 -0.30190
 C805 C 0.58293 -0.00055 -0.32423
 C806 C 0.54261 0.00498 -0.30109
 C807 C 0.55698 0.00193 -0.27906
 N808 N 0.58344 -0.00208 -0.27984
 H809 H 0.59989 0.03243 -0.20687
 H810 H 0.56313 -0.03733 -0.23222
 H811 H 0.53677 -0.04007 -0.19385
 H812 H 0.57492 0.03106 -0.16793
 H813 H 0.61757 -0.00561 -0.30211
 H814 H 0.59380 -0.00196 -0.34154
 H815 H 0.52165 0.00785 -0.29980
 H816 H 0.54697 0.00337 -0.26135
 C817 C 0.65468 0.07602 -0.25712
 C818 C 0.65265 -0.08294 -0.24080
 C819 C 0.55564 0.00405 -0.32421
 C820 C 0.55243 -0.00388 -0.17792
 C821 C 0.03689 0.25507 0.83613
 H822 H 0.02445 0.27160 0.83125
 C823 C 0.06063 0.25141 0.82414
 H824 H 0.06638 0.26511 0.80967
 C825 C 0.04510 0.21827 0.86227
 H826 H 0.03912 0.20607 0.87773
 C827 C 0.06943 0.21416 0.85106
 H828 H 0.08159 0.19837 0.85797
 N829 N 0.02990 0.23886 0.85497
 C830 C -0.05009 0.26034 0.86533
 H831 H -0.04921 0.26690 0.88448
 C832 C -0.07387 0.25949 0.85310
 H833 H -0.09139 0.26622 0.86271
 C834 C -0.02794 0.24363 0.82962
 H835 H -0.01003 0.23689 0.82084
 C836 C -0.05136 0.24233 0.81668
 H837 H -0.05081 0.23587 0.79753
 Zn838 Zn 0.00133 0.24978 0.87311
 N839 N -0.02793 0.25221 0.85353
 C840 C -0.00266 0.30394 0.87730
 N841 N 0.00976 0.28227 0.88619
 C842 C 0.02885 0.28401 0.90362
 C843 C 0.03359 0.30801 0.91540
 C844 C 0.00188 0.32834 0.88803
 C845 C -0.01557 0.20227 0.88762
 C846 C -0.01986 0.18091 0.90297
 C847 C -0.00724 0.20784 0.93823
 C848 C -0.00390 0.22906 0.92212
 N849 N -0.00673 0.22533 0.89726
 H850 H -0.01644 0.30227 0.86220
 H851 H 0.03962 0.26652 0.90901
 H852 H 0.04802 0.30857 0.92998
 H853 H -0.00898 0.34535 0.88145
 H854 H -0.01813 0.20022 0.86776
 H855 H -0.02557 0.16221 0.89477
 H856 H -0.00328 0.21090 0.95770
 H857 H 0.00195 0.24802 0.92942
 C858 C -0.07489 0.24912 0.82889
 C859 C 0.07781 0.23155 0.83232
 C860 C -0.01417 0.18305 0.92841
 C861 C 0.01890 0.33028 0.90841
 C862 C 0.46472 0.27348 0.14890
 H863 H 0.47845 0.28974 0.14802
 C864 C 0.44206 0.27565 0.16313
 H865 H 0.43823 0.29408 0.17267
 C866 C 0.45272 0.23038 0.13564
 H867 H 0.45678 0.21309 0.12444
 C868 C 0.42977 0.23175 0.14942
 H869 H 0.41609 0.21542 0.14862
 N870 N 0.46989 0.25077 0.13633
 C871 C 0.55223 0.24419 0.12953
 H872 H 0.55326 0.24005 0.10980
 C873 C 0.57473 0.24382 0.14362
 H874 H 0.59334 0.23954 0.13463
 C875 C 0.52640 0.25447 0.16515
 H876 H 0.50737 0.25797 0.17342
 C877 C 0.54856 0.25444 0.18008
 H878 H 0.54603 0.25831 0.19966
 Zn879 Zn 0.50089 0.24894 0.11906
 N880 N 0.52887 0.25003 0.14035
 C881 C 0.52293 0.29310 0.09725
 N882 N 0.50186 0.27683 0.09748
 C883 C 0.48003 0.28175 0.08391
 C884 C 0.47824 0.30483 0.07012
 C885 C 0.52222 0.31599 0.08343
 C886 C 0.50709 0.19608 0.11691
 C887 C 0.51172 0.17173 0.10606
 C888 C 0.51002 0.19260 0.06559
 C889 C 0.50553 0.21664 0.07729
 N890 N 0.50395 0.21768 0.10242
 H891 H 0.53992 0.28897 0.10842
 H892 H 0.46366 0.26819 0.08465
 H893 H 0.46043 0.30849 0.05997
 H894 H 0.53900 0.32911 0.08379
 H895 H 0.50591 0.19794 0.13693
 H896 H 0.51292 0.15449 0.11786
 H897 H 0.50975 0.19191 0.04551
 H898 H 0.50321 0.23436 0.06637
 C899 C 0.57319 0.24942 0.16916
 C900 C 0.42478 0.25411 0.16428
 C901 C 0.51368 0.16981 0.08009
 C902 C 0.49927 0.32271 0.07056
 C903 C -0.03416 0.76470 0.65775
 H904 H -0.02059 0.78088 0.66036
 C905 C -0.05742 0.76496 0.66897
 H906 H -0.06235 0.78124 0.68126
 C907 C -0.04208 0.72250 0.63910
 H908 H -0.03653 0.70670 0.62659
 C909 C -0.06762 0.72161 0.65159
 H910 H -0.07929 0.70394 0.64939
 N911 N -0.02716 0.74307 0.64179
 C912 C 0.05478 0.74649 0.62824
 H913 H 0.05456 0.74844 0.60821
 C914 C 0.07833 0.74447 0.64068
 H915 H 0.09633 0.74601 0.63006
 C916 C 0.03096 0.74391 0.66623
 H917 H 0.01235 0.74365 0.67591
 C918 C 0.05412 0.74167 0.67948
 H919 H 0.05317 0.74072 0.69955
 Zn920 Zn 0.00212 0.74752 0.62231
 N921 N 0.03189 0.74641 0.64116
 C922 C 0.01784 0.79819 0.61008
 N923 N -0.00110 0.77974 0.60694
 C924 C -0.02334 0.78474 0.59399
 C925 C -0.02688 0.80916 0.58277
 C926 C 0.01524 0.82268 0.59912
 C927 C 0.01351 0.69745 0.60968
 C928 C 0.01499 0.67498 0.59519
 C929 C -0.00060 0.70031 0.56007
 C930 C -0.00122 0.72262 0.57526
 N931 N 0.00492 0.72040 0.59969
 H932 H 0.03496 0.79407 0.62111
 H933 H -0.03825 0.76964 0.59237
 H934 H -0.04431 0.81222 0.57184
 H935 H 0.03093 0.83692 0.60115
 H936 H 0.01849 0.69652 0.62918
 H937 H 0.02125 0.65661 0.60363
 H938 H -0.00635 0.70243 0.54092
 H939 H -0.00729 0.74139 0.56772
 C940 C 0.07819 0.74124 0.66660
 C941 C -0.07613 0.74294 0.66442
 C942 C 0.00678 0.67591 0.57035
 C943 C -0.00742 0.82857 0.58545
 C944 C 0.53079 0.76538 0.33334
 H945 H 0.51803 0.78251 0.33334
 C946 C 0.55249 0.76447 0.31776
 H947 H 0.55657 0.78144 0.30624
 C948 C 0.54232 0.72409 0.35108
 H949 H 0.53885 0.70904 0.36488
 C950 C 0.56423 0.72229 0.33578
 H951 H 0.57765 0.70594 0.33836
 N952 N 0.52640 0.74553 0.34966
 C953 C 0.44648 0.75012 0.37229
 H954 H 0.44904 0.75211 0.39217
 C955 C 0.42152 0.74820 0.36238
 H956 H 0.40497 0.74956 0.37491
 C957 C 0.46576 0.74717 0.33208
 H958 H 0.48309 0.74650 0.32048
 C959 C 0.44121 0.74529 0.32135
 H960 H 0.43977 0.74388 0.30131
 Zn961 Zn 0.49988 0.75092 0.37237
 N962 N 0.46778 0.74972 0.35707
 C963 C 0.48608 0.80224 0.38371
 N964 N 0.50495 0.78362 0.38669
 C965 C 0.52761 0.78873 0.39894
 C966 C 0.53133 0.81323 0.41020
 C967 C 0.48891 0.82681 0.39457
 C968 C 0.49102 0.70098 0.38619
 C969 C 0.48940 0.67913 0.40135
 C970 C 0.50485 0.70580 0.43577
 C971 C 0.50573 0.72745 0.41987
 N972 N 0.49950 0.72431 0.39553
 H973 H 0.46865 0.79805 0.37314
 H974 H 0.54248 0.77352 0.40040
 H975 H 0.54888 0.81630 0.42097
 H976 H 0.47303 0.84097 0.39300
 H977 H 0.48577 0.69941 0.36678
 H978 H 0.48296 0.66051 0.39347
 H979 H 0.51043 0.70868 0.45489
 H980 H 0.51159 0.74654 0.42691
 C981 C 0.41870 0.74527 0.33657
 C982 C 0.56960 0.74269 0.31885
 C983 C 0.49704 0.68111 0.42631
 C984 C 0.51163 0.83259 0.40818
 Zr985 Zr 0.02226 -0.01493 1.03598
 O986 O 0.04845 -0.00245 1.06407
 O987 O 0.01728 -0.05470 1.04457
 O988 O 0.00440 -0.01572 1.07195
 O989 O 0.07117 -0.02240 0.99139
 O990 O -0.03586 0.00279 1.06520
 O991 O 0.06016 -0.03253 1.03142
 O992 O -0.01148 -0.06961 1.01529
 O993 O -0.01747 -0.02181 1.02802
 O994 O 0.02070 -0.03185 1.00045
 O995 O 0.00364 0.02221 1.03809
 O996 O 0.04115 0.01228 1.01221
 Zr997 Zr -0.02034 0.02569 0.96871
 Zr998 Zr -0.03548 0.01533 1.02823
 Zr999 Zr 0.03754 -0.00434 0.97665
 Zr1000 Zr -0.01867 -0.03730 0.99202
 O1001 O 0.07095 0.01881 0.96824
 O1002 O -0.05550 -0.05140 1.00480
 O1003 O -0.00154 -0.01144 0.96629
 O1004 O -0.03876 -0.00130 0.99271
 O1005 O -0.01907 0.04300 1.00415
 O1006 O 0.01927 0.03256 0.97693
 C1007 C 0.00317 -0.07269 1.03443
 C1008 C 0.07604 -0.03313 1.01252
 C1009 C -0.01852 -0.00775 1.07933
 O1010 O -0.07054 -0.00601 1.03457
 O1011 O -0.06719 0.03737 1.01458
 O1012 O -0.05808 0.04354 0.97342
 C1013 C -0.07294 0.04629 0.99289
 O1014 O 0.04874 0.05265 1.04133
 Zr1015 Zr 0.02047 0.04829 1.01269
 O1016 O -0.01632 0.06577 0.96086
 O1017 O -0.04251 0.04819 1.05183
 O1018 O 0.00578 0.07649 1.03855
 O1019 O 0.05475 0.06577 0.99746
 O1020 O 0.00792 0.08178 0.99316
 C1021 C -0.00578 0.08459 0.97337
 O1022 O -0.04710 0.01384 0.94084
 O1023 O 0.04646 -0.03840 0.95521
 O1024 O -0.00324 0.02440 0.93239
 O1025 O 0.03629 0.00422 0.93877
 O1026 O -0.00295 -0.06812 0.96959
 O1027 O -0.04215 -0.04285 0.95988
 C1028 C 0.01897 0.01484 0.92469
 H1029 H 0.03009 -0.04895 0.99917
 H1030 H -0.05732 -0.00409 0.98802
 H1031 H 0.02774 0.04461 0.96486
 H1032 H 0.00507 0.02990 1.05498
 H1033 H -0.05629 -0.07055 1.00095
 H1034 H -0.08101 0.00432 1.04679
 H1035 H -0.05986 0.04539 1.05980
 H1036 H 0.01568 0.09312 1.03606
 H1037 H -0.01377 -0.08409 0.97249
 H1038 H 0.06386 -0.03542 0.94738
 H1039 H 0.08160 0.00856 0.95610
 H1040 H 0.05441 0.08476 1.00202
 H1041 H -0.05014 -0.06066 0.96031
 H1042 H -0.05081 0.02961 0.93050
 H1043 H 0.05239 -0.01814 1.07442
 H1044 H 0.05384 0.07147 1.04278
 Zr1045 Zr 0.52218 0.48183 0.53433
 O1046 O 0.54802 0.49296 0.56321
 O1047 O 0.51665 0.44184 0.54162
 O1048 O 0.50389 0.48047 0.57010
 O1049 O 0.57171 0.47527 0.49016
 O1050 O 0.46394 0.49963 0.56334
 O1051 O 0.56015 0.46434 0.52986
 O1052 O 0.48890 0.42768 0.51115
 O1053 O 0.48247 0.47563 0.52579
 O1054 O 0.52092 0.46593 0.49838
 O1055 O 0.50400 0.51913 0.53713
 O1056 O 0.54169 0.50941 0.51143
 Zr1057 Zr 0.48088 0.52494 0.46769
 Zr1058 Zr 0.46491 0.51305 0.52667
 Zr1059 Zr 0.53833 0.49385 0.47542
 Zr1060 Zr 0.48158 0.46117 0.48939
 O1061 O 0.57204 0.51682 0.46766
 O1062 O 0.44477 0.44696 0.50209
 O1063 O 0.49925 0.48761 0.46454
 O1064 O 0.46190 0.49743 0.49075
 O1065 O 0.48197 0.54129 0.50352
 O1066 O 0.52052 0.53092 0.47646
 C1067 C 0.50326 0.42400 0.53038
 C1068 C 0.57632 0.46418 0.51118
 C1069 C 0.48102 0.48864 0.57744
 O1070 O 0.42957 0.49192 0.53215
 O1071 O 0.43349 0.53573 0.51329
 O1072 O 0.44337 0.54330 0.47252
 C1073 C 0.42821 0.54548 0.49184
 O1074 O 0.54887 0.54907 0.54214
 Zr1075 Zr 0.52152 0.54566 0.51260
 O1076 O 0.48626 0.56507 0.46054
 O1077 O 0.45794 0.54537 0.55095
 O1078 O 0.50618 0.57360 0.53837
 O1079 O 0.55679 0.56245 0.49881
 O1080 O 0.51102 0.57975 0.49305
 C1081 C 0.49788 0.58326 0.47305
 O1082 O 0.45402 0.51459 0.43938
 O1083 O 0.54718 0.46018 0.45342
 O1084 O 0.49805 0.52384 0.43144
 O1085 O 0.53740 0.50328 0.43769
 O1086 O 0.49705 0.43132 0.46568
 O1087 O 0.45787 0.45689 0.45723
 C1088 C 0.52018 0.51418 0.42369
 H1089 H 0.53027 0.44885 0.49673
 H1090 H 0.44336 0.49501 0.48582
 H1091 H 0.52944 0.54304 0.46474
 H1092 H 0.50530 0.52639 0.55419
 H1093 H 0.44377 0.42796 0.49768
 H1094 H 0.41908 0.50198 0.54455
 H1095 H 0.44045 0.54257 0.55865
 H1096 H 0.51635 0.59016 0.53647
 H1097 H 0.48608 0.41532 0.46785
 H1098 H 0.56467 0.46319 0.44581
 H1099 H 0.58265 0.50674 0.45537
 H1100 H 0.55695 0.58131 0.50385
 H1101 H 0.44953 0.43923 0.45732
 H1102 H 0.45081 0.53071 0.42937
 H1103 H 0.55163 0.47685 0.57311
 H1104 H 0.55384 0.56784 0.54432
 Zr1105 Zr 0.47461 1.01774 0.53523
 O1106 O 0.44721 1.00164 0.56065
 O1107 O 0.47851 1.05612 0.54858
 O1108 O 0.49093 1.01532 0.57171
 O1109 O 0.42889 1.03084 0.48919
 O1110 O 0.53124 0.99690 0.56455
 O1111 O 0.43665 1.03528 0.53078
 O1112 O 0.50972 1.07402 0.52313
 O1113 O 0.51482 1.02500 0.52996
 O1114 O 0.47860 1.03897 0.50205
 O1115 O 0.49290 0.98041 0.53406
 O1116 O 0.45736 0.99398 0.50742
 Zr1117 Zr 0.52146 0.98495 0.46597
 Zr1118 Zr 0.53262 0.98789 0.52676
 Zr1119 Zr 0.46354 1.01482 0.47424
 Zr1120 Zr 0.51850 1.04492 0.49630
 O1121 O 0.43057 0.99369 0.46106
 O1122 O 0.55443 1.05682 0.51259
 O1123 O 0.50326 1.02252 0.46674
 O1124 O 0.53833 1.00875 0.49370
 O1125 O 0.51769 0.96343 0.49900
 O1126 O 0.48133 0.97787 0.47153
 C1127 C 0.49359 1.07495 0.54160
 C1128 C 0.42217 1.03827 0.51121
 C1129 C 0.51361 1.00674 0.57898
 O1130 O 0.56775 1.00746 0.53667
 O1131 O 0.56472 0.96673 0.51241
 O1132 O 0.55870 0.96606 0.47040
 C1133 C 0.57193 0.96046 0.49022
 O1134 O 0.44827 0.94967 0.53209
 Zr1135 Zr 0.47762 0.95784 0.50498
 O1136 O 0.51862 0.94611 0.45355
 O1137 O 0.53755 0.95271 0.54742
 O1138 O 0.49170 0.92627 0.52711
 O1139 O 0.44337 0.94336 0.48735
 O1140 O 0.48964 0.92743 0.48079
 C1141 C 0.50530 0.92660 0.46198
 O1142 O 0.54938 1.00096 0.44099
 O1143 O 0.45656 1.05156 0.45673
 O1144 O 0.50576 0.98801 0.42942
 O1145 O 0.46755 1.01085 0.43567
 O1146 O 0.50426 1.07835 0.47683
 O1147 O 0.54442 1.05465 0.46665
 C1148 C 0.48447 0.99918 0.42160
 H1149 H 0.46925 1.05614 0.50236
 H1150 H 0.55719 1.01180 0.49028
 H1151 H 0.47332 0.96741 0.45796
 H1152 H 0.49045 0.97090 0.54995
 H1153 H 0.55542 1.07634 0.51141
 H1154 H 0.57725 0.99567 0.54825
 H1155 H 0.55450 0.95423 0.55627
 H1156 H 0.48225 0.91007 0.52196
 H1157 H 0.51441 1.09389 0.48255
 H1158 H 0.43976 1.04989 0.44764
 H1159 H 0.42103 1.00563 0.44965
 H1160 H 0.44317 0.92391 0.48946
 H1161 H 0.55190 1.07243 0.46957
 H1162 H 0.55418 0.98665 0.42916
 H1163 H 0.44250 1.01599 0.57249
 H1164 H 0.44394 0.93061 0.53166
 Zr1165 Zr -0.01989 0.51710 1.03187
 O1166 O -0.04691 0.50054 1.05741
 O1167 O -0.01657 0.55560 1.04509
 O1168 O -0.00347 0.51481 1.06825
 O1169 O -0.06629 0.52938 0.98632
 O1170 O 0.03720 0.49727 1.06098
 O1171 O -0.05808 0.53419 1.02777
 O1172 O 0.01378 0.57421 1.01916
 O1173 O 0.02012 0.52522 1.02635
 O1174 O -0.01658 0.53835 0.99867
 O1175 O -0.00087 0.48013 1.03056
 O1176 O -0.03691 0.49289 1.00428
 Zr1177 Zr 0.02697 0.48532 0.96215
 Zr1178 Zr 0.03860 0.48848 1.02304
 Zr1179 Zr -0.03152 0.51389 0.97111
 Zr1180 Zr 0.02314 0.54510 0.99257
 O1181 O -0.06414 0.49189 0.95841
 O1182 O 0.05885 0.55776 1.00877
 O1183 O 0.00796 0.52246 0.96317
 O1184 O 0.04363 0.50935 0.98985
 O1185 O 0.02400 0.46377 0.99528
 O1186 O -0.01295 0.47735 0.96811
 C1187 C -0.00221 0.57485 1.03773
 C1188 C -0.07280 0.53694 1.00835
 C1189 C 0.01934 0.50661 1.07552
 O1190 O 0.07338 0.50882 1.03265
 O1191 O 0.07087 0.46778 1.00848
 O1192 O 0.06442 0.46660 0.96651
 C1193 C 0.07790 0.46129 0.98630
 O1194 O -0.04515 0.44856 1.02858
 Zr1195 Zr -0.01582 0.45720 1.00158
 O1196 O 0.02415 0.44677 0.94911
 O1197 O 0.04448 0.45342 1.04367
 O1198 O -0.00122 0.42615 1.02405
 O1199 O -0.04943 0.44146 0.98379
 O1200 O -0.00236 0.42693 0.97783
 C1201 C 0.01225 0.42672 0.95824
 O1202 O 0.05462 0.50177 0.93719
 O1203 O -0.03956 0.55041 0.95358
 O1204 O 0.01081 0.48859 0.92563
 O1205 O -0.02797 0.51017 0.93258
 O1206 O 0.00821 0.57815 0.97300
 O1207 O 0.04876 0.55520 0.96280
 C1208 C -0.01094 0.49921 0.91815
 H1209 H -0.02625 0.55534 0.99898
 H1210 H 0.06241 0.51273 0.98629
 H1211 H -0.02085 0.46675 0.95459
 H1212 H -0.00304 0.47057 1.04646
 H1213 H 0.05947 0.57729 1.00753
 H1214 H 0.08320 0.49725 1.04418
 H1215 H 0.06143 0.45534 1.05246
 H1216 H -0.01026 0.40969 1.01896
 H1217 H 0.01817 0.59391 0.97851
 H1218 H -0.05645 0.54837 0.94471
 H1219 H -0.07414 0.50356 0.94710
 H1220 H -0.04901 0.42204 0.98613
 H1221 H 0.05602 0.57308 0.96571
 H1222 H 0.05946 0.48756 0.92526
 H1223 H -0.05181 0.51479 1.06928
 H1224 H -0.04910 0.42941 1.02823
 Zr1225 Zr -0.02085 0.47441 0.46525
 O1226 O -0.04760 0.48481 0.43690
 O1227 O -0.01340 0.43489 0.45676
 O1228 O -0.00313 0.47410 0.42916
 O1229 O -0.06883 0.46487 0.51056
 O1230 O 0.03466 0.49749 0.43487
 O1231 O -0.05830 0.45609 0.47005
 O1232 O 0.01703 0.42209 0.48536
 O1233 O 0.01934 0.47012 0.47269
 O1234 O -0.01776 0.45768 0.50066
 O1235 O -0.00489 0.51265 0.46306
 O1236 O -0.04108 0.50038 0.48951
 Zr1237 Zr 0.01996 0.51817 0.53211
 Zr1238 Zr 0.03476 0.50834 0.47236
 Zr1239 Zr -0.03580 0.48419 0.52497
 Zr1240 Zr 0.02205 0.45489 0.50864
 O1241 O -0.07022 0.50537 0.53478
 O1242 O 0.05963 0.44294 0.49563
 O1243 O 0.00383 0.47984 0.53472
 O1244 O 0.03961 0.49210 0.50778
 O1245 O 0.01694 0.53512 0.49673
 O1246 O -0.02018 0.52224 0.52450
 C1247 C 0.00234 0.41801 0.46644
 C1248 C -0.07394 0.45490 0.48910
 C1249 C 0.01845 0.48468 0.42120
 O1250 O 0.07025 0.48819 0.46428
 O1251 O 0.06631 0.53052 0.48590
 O1252 O 0.05667 0.53799 0.52682
 C1253 C 0.07164 0.54029 0.50737
 O1254 O -0.05206 0.53976 0.46058
 Zr1255 Zr -0.02308 0.53763 0.48880
 O1256 O 0.01336 0.55805 0.53984
 O1257 O 0.03973 0.54237 0.45007
 O1258 O -0.01089 0.56665 0.46283
 O1259 O -0.05832 0.55274 0.50455
 O1260 O -0.01286 0.57198 0.50816
 C1261 C 0.00107 0.57593 0.52761
 O1262 O 0.04767 0.50832 0.55979
 O1263 O -0.04235 0.44932 0.54574
 O1264 O 0.00320 0.51651 0.56859
 O1265 O -0.03389 0.49195 0.56304
 O1266 O 0.00830 0.42347 0.53119
 O1267 O 0.04636 0.45097 0.54042
 C1268 C -0.01768 0.50471 0.57675
 H1269 H -0.02620 0.44012 0.50183
 H1270 H 0.05836 0.49032 0.51220
 H1271 H -0.02928 0.53374 0.53675
 H1272 H -0.00718 0.52022 0.44627
 H1273 H 0.06177 0.42394 0.49960
 H1274 H 0.08004 0.49919 0.45219
 H1275 H 0.05695 0.54058 0.44156
 H1276 H -0.02204 0.58252 0.46542
 H1277 H 0.01991 0.40804 0.52813
 H1278 H -0.05971 0.45124 0.55396
 H1279 H -0.07988 0.49441 0.54701
 H1280 H -0.05954 0.57165 0.49993
 H1281 H 0.05488 0.43336 0.54022
 H1282 H 0.05047 0.52444 0.56999
 H1283 H -0.05069 0.46867 0.42680
 H1284 H -0.05852 0.55816 0.45919
 Zr1285 Zr 0.47486 -0.01998 -0.03531
 O1286 O 0.44827 -0.00290 -0.06075
 O1287 O 0.47703 -0.05853 -0.04817
 O1288 O 0.49163 -0.01888 -0.07181
 O1289 O 0.42888 -0.03259 0.01104
 O1290 O 0.53116 0.00116 -0.06548
 O1291 O 0.43656 -0.03637 -0.03070
 O1292 O 0.50794 -0.07735 -0.02320
 O1293 O 0.51490 -0.02835 -0.03050
 O1294 O 0.47834 -0.04126 -0.00214
 O1295 O 0.49385 0.01682 -0.03435
 O1296 O 0.45785 0.00408 -0.00743
 Zr1297 Zr 0.52213 0.01161 0.03357
 Zr1298 Zr 0.53339 0.00833 -0.02738
 Zr1299 Zr 0.46360 -0.01684 0.02572
 Zr1300 Zr 0.51806 -0.04830 0.00319
 O1301 O 0.43102 0.00528 0.03884
 O1302 O 0.55347 -0.06121 -0.01386
 O1303 O 0.50319 -0.02551 0.03285
 O1304 O 0.53857 -0.01261 0.00568
 O1305 O 0.51880 0.03308 0.00048
 O1306 O 0.48213 0.01966 0.02834
 C1307 C 0.49129 -0.07792 -0.04113
 C1308 C 0.42211 -0.03954 -0.01103
 C1309 C 0.51389 -0.00956 -0.07953
 O1310 O 0.56741 -0.01275 -0.03854
 O1311 O 0.56663 0.02733 -0.01322
 O1312 O 0.55940 0.03042 0.02860
 C1313 C 0.57331 0.03465 0.00875
 O1314 O 0.44922 0.04803 -0.03171
 Zr1315 Zr 0.47885 0.03964 -0.00519
 O1316 O 0.51956 0.05042 0.04626
 O1317 O 0.53959 0.04405 -0.04691
 O1318 O 0.49277 0.07082 -0.02793
 O1319 O 0.44538 0.05537 0.01329
 O1320 O 0.49232 0.06985 0.01807
 C1321 C 0.50754 0.07034 0.03702
 O1322 O 0.55013 -0.00477 0.05803
 O1323 O 0.45581 -0.05327 0.04353
 O1324 O 0.50651 0.00814 0.07036
 O1325 O 0.46753 -0.01306 0.06421
 O1326 O 0.50341 -0.08122 0.02319
 O1327 O 0.54413 -0.05867 0.03233
 C1328 C 0.48490 -0.00245 0.07826
 H1329 H 0.46861 -0.05817 -0.00221
 H1330 H 0.55736 -0.01616 0.00895
 H1331 H 0.47439 0.03031 0.04202
 H1332 H 0.49153 0.02641 -0.05020
 H1333 H 0.55392 -0.08075 -0.01284
 H1334 H 0.57728 -0.00115 -0.05006
 H1335 H 0.55634 0.04209 -0.05620
 H1336 H 0.48348 0.08718 -0.02276
 H1337 H 0.51318 -0.09705 0.01737
 H1338 H 0.43896 -0.05118 0.05263
 H1339 H 0.42115 -0.00633 0.05035
 H1340 H 0.44567 0.07479 0.01099
 H1341 H 0.55138 -0.07654 0.02916
 H1342 H 0.55506 0.00946 0.06985
 H1343 H 0.44311 -0.01712 -0.07248
 H1344 H 0.44479 0.06709 -0.03108
 Zr1345 Zr 0.52312 0.52331 -0.03461
 O1346 O 0.55038 0.51236 -0.06265
 O1347 O 0.51509 0.56230 -0.04404
 O1348 O 0.50571 0.52266 -0.07073
 O1349 O 0.56937 0.53622 0.01117
 O1350 O 0.46843 0.49849 -0.06476
 O1351 O 0.56035 0.54219 -0.02999
 O1352 O 0.48402 0.57547 -0.01582
 O1353 O 0.48271 0.52694 -0.02753
 O1354 O 0.51887 0.54114 0.00041
 O1355 O 0.50799 0.48471 -0.03618
 O1356 O 0.54336 0.49870 -0.00951
 Zr1357 Zr 0.48174 0.48080 0.03275
 Zr1358 Zr 0.46809 0.48842 -0.02722
 Zr1359 Zr 0.53685 0.51588 0.02555
 Zr1360 Zr 0.47888 0.54330 0.00801
 O1361 O 0.57175 0.49608 0.03589
 O1362 O 0.44148 0.55410 -0.00585
 O1363 O 0.49695 0.51957 0.03483
 O1364 O 0.46212 0.50571 0.00774
 O1365 O 0.48597 0.46278 -0.00220
 O1366 O 0.52213 0.47749 0.02559
 C1367 C 0.49892 0.57917 -0.03478
 C1368 C 0.57518 0.54491 -0.01062
 C1369 C 0.48434 0.51161 -0.07853
 O1370 O 0.43223 0.50735 -0.03596
 O1371 O 0.43675 0.46600 -0.01352
 O1372 O 0.44529 0.46055 0.02776
 C1373 C 0.43090 0.45722 0.00819
 O1374 O 0.55545 0.45844 -0.03795
 Zr1375 Zr 0.52622 0.46105 -0.00970
 O1376 O 0.48806 0.44107 0.04084
 O1377 O 0.46447 0.45367 -0.04895
 O1378 O 0.51468 0.43064 -0.03458
 O1379 O 0.56191 0.44768 0.00610
 O1380 O 0.51733 0.42746 0.01115
 C1381 C 0.50226 0.42350 0.02993
 O1382 O 0.45369 0.49148 0.06018
 O1383 O 0.54184 0.55138 0.04596
 O1384 O 0.49818 0.48273 0.06914
 O1385 O 0.53428 0.50884 0.06375
 O1386 O 0.49147 0.57558 0.03020
 O1387 O 0.45355 0.54784 0.03927
 C1388 C 0.51851 0.49531 0.07735
 H1389 H 0.52691 0.55891 0.00128
 H1390 H 0.44324 0.50728 0.01194
 H1391 H 0.53130 0.46652 0.03806
 H1392 H 0.51072 0.47673 -0.05282
 H1393 H 0.43890 0.57319 -0.00241
 H1394 H 0.42293 0.49573 -0.04789
 H1395 H 0.44738 0.45476 -0.05761
 H1396 H 0.52600 0.41507 -0.03140
 H1397 H 0.47977 0.59075 0.02659
 H1398 H 0.55903 0.55014 0.05444
 H1399 H 0.58079 0.50765 0.04802
 H1400 H 0.56381 0.42868 0.00189
 H1401 H 0.44477 0.56530 0.03853
 H1402 H 0.45071 0.47565 0.07066
 H1403 H 0.55337 0.52822 -0.07309
 H1404 H 0.56185 0.43999 -0.03925
 Zr1405 Zr 0.01759 1.02229 0.46892
 O1406 O 0.04532 1.00963 0.44194
 O1407 O 0.00986 1.06077 0.45751
 O1408 O 0.00092 1.02051 0.43266
 O1409 O 0.06291 1.03730 0.51484
 O1410 O -0.03657 0.99668 0.43861
 O1411 O 0.05477 1.04119 0.47331
 O1412 O -0.02206 1.07515 0.48429
 O1413 O -0.02291 1.02641 0.47507
 O1414 O 0.01271 1.04188 0.50300
 O1415 O 0.00232 0.98370 0.46862
 O1416 O 0.03709 0.99872 0.49537
 Zr1417 Zr -0.02543 0.98331 0.53723
 Zr1418 Zr -0.03772 0.98804 0.47658
 Zr1419 Zr 0.03003 1.01774 0.52947
 Zr1420 Zr -0.02743 1.04448 0.50978
 O1421 O 0.06478 0.99849 0.54107
 O1422 O -0.06466 1.05473 0.49516
 O1423 O -0.01002 1.02205 0.53797
 O1424 O -0.04436 1.00698 0.51071
 O1425 O -0.02066 0.96354 0.50314
 O1426 O 0.01506 0.97948 0.53084
 C1427 C -0.00679 1.07797 0.46543
 C1428 C 0.06923 1.04479 0.49279
 C1429 C -0.02035 1.00940 0.42478
 O1430 O -0.07338 1.00661 0.46655
 O1431 O -0.06925 0.96621 0.49058
 O1432 O -0.06177 0.96269 0.53226
 C1433 C -0.07561 0.95836 0.51247
 O1434 O 0.04932 0.95654 0.46885
 Zr1435 Zr 0.01969 0.96115 0.49650
 O1436 O -0.01951 0.94423 0.54760
 O1437 O -0.04102 0.95250 0.45597
 O1438 O 0.00793 0.92962 0.47299
 O1439 O 0.05512 0.94839 0.51321
 O1440 O 0.01033 0.92887 0.51920
 C1441 C -0.00503 0.92608 0.53801
 O1442 O -0.05391 0.99584 0.56352
 O1443 O 0.03453 1.05410 0.54858
 O1444 O -0.00922 0.98631 0.57375
 O1445 O 0.02704 1.01209 0.56781
 O1446 O -0.01504 1.07798 0.53041
 O1447 O -0.05313 1.05062 0.54053
 C1448 C 0.01130 0.99883 0.58168
 H1449 H 0.02078 1.05966 0.50319
 H1450 H -0.06333 1.00878 0.51448
 H1451 H 0.02403 0.96907 0.54385
 H1452 H 0.00534 0.97499 0.45234
 H1453 H -0.06721 1.07397 0.49778
 H1454 H -0.08244 0.99454 0.45487
 H1455 H -0.05795 0.95330 0.44700
 H1456 H 0.01877 0.91400 0.47724
 H1457 H -0.02664 1.09293 0.52587
 H1458 H 0.05159 1.05330 0.55734
 H1459 H 0.07366 1.01060 0.55284
 H1460 H 0.05683 0.92914 0.51006
 H1461 H -0.06165 1.06815 0.53907
 H1462 H -0.05726 0.98063 0.57467
 H1463 H 0.04870 1.02487 0.43083
 H1464 H 0.05515 0.93787 0.46829
 Zr1465 Zr 0.72701 0.27119 0.21692
 O1466 O 0.73999 0.29806 0.18942
 O1467 O 0.68820 0.26538 0.20664
 O1468 O 0.72821 0.25364 0.18076
 O1469 O 0.71385 0.31833 0.26242
 O1470 O 0.74849 0.21406 0.18757
 O1471 O 0.70927 0.30922 0.22106
 O1472 O 0.67303 0.23462 0.23414
 O1473 O 0.72163 0.23070 0.22361
 O1474 O 0.70806 0.26776 0.25142
 O1475 O 0.76475 0.25437 0.21626
 O1476 O 0.75123 0.29082 0.24275
 Zr1477 Zr 0.76525 0.22840 0.28522
 Zr1478 Zr 0.75932 0.21442 0.22496
 Zr1479 Zr 0.73280 0.28514 0.27729
 Zr1480 Zr 0.70413 0.22763 0.25863
 O1481 O 0.75327 0.31967 0.28800
 O1482 O 0.69272 0.19056 0.24371
 O1483 O 0.72729 0.24517 0.28625
 O1484 O 0.74087 0.20925 0.25943
 O1485 O 0.78437 0.23173 0.25079
 O1486 O 0.77035 0.26883 0.27831
 C1487 C 0.67038 0.25017 0.21549
 C1488 C 0.70612 0.32424 0.24040
 C1489 C 0.73738 0.23104 0.17336
 O1490 O 0.74072 0.17801 0.21702
 O1491 O 0.78229 0.18347 0.23902
 O1492 O 0.78503 0.19145 0.28071
 C1493 C 0.78995 0.17744 0.26103
 O1494 O 0.79242 0.30126 0.21551
 Zr1495 Zr 0.78795 0.27204 0.24348
 O1496 O 0.80451 0.23322 0.29460
 O1497 O 0.79340 0.20993 0.20265
 O1498 O 0.81845 0.25911 0.21932
 O1499 O 0.80222 0.30734 0.25990
 O1500 O 0.82028 0.26146 0.26509
 C1501 C 0.82296 0.24616 0.28389
 O1502 O 0.75256 0.20052 0.31193
 O1503 O 0.69723 0.29154 0.29695
 O1504 O 0.76261 0.24509 0.32164
 O1505 O 0.73879 0.28281 0.31564
 O1506 O 0.67178 0.24124 0.28015
 O1507 O 0.69764 0.20215 0.28938
 C1508 C 0.75094 0.26629 0.32957
 H1509 H 0.69068 0.27655 0.25197
 H1510 H 0.73880 0.19031 0.26353
 H1511 H 0.78118 0.27765 0.29112
 H1512 H 0.77318 0.25663 0.19978
 H1513 H 0.67354 0.18877 0.24633
 H1514 H 0.75220 0.16841 0.20508
 H1515 H 0.79207 0.19251 0.19427
 H1516 H 0.83420 0.26989 0.22296
 H1517 H 0.65650 0.22999 0.27601
 H1518 H 0.69872 0.30891 0.30542
 H1519 H 0.74172 0.32938 0.29978
 H1520 H 0.82127 0.30832 0.25622
 H1521 H 0.68028 0.19359 0.28771
 H1522 H 0.76770 0.19694 0.32296
 H1523 H 0.72479 0.30178 0.17851
 H1524 H 0.81097 0.30699 0.21475
 Zr1525 Zr 0.77108 0.72752 0.71667
 O1526 O 0.75591 0.70017 0.69062
 O1527 O 0.80925 0.73228 0.70378
 O1528 O 0.76854 0.74426 0.68034
 O1529 O 0.78429 0.68070 0.76212
 O1530 O 0.75026 0.78478 0.68780
 O1531 O 0.78857 0.68933 0.72065
 O1532 O 0.82680 0.76275 0.73031
 O1533 O 0.77801 0.76796 0.72257
 O1534 O 0.79173 0.73107 0.75011
 O1535 O 0.73390 0.74561 0.71769
 O1536 O 0.74737 0.70934 0.74395
 Zr1537 Zr 0.73731 0.77304 0.78632
 Zr1538 Zr 0.74098 0.78551 0.72563
 Zr1539 Zr 0.76760 0.71509 0.77742
 Zr1540 Zr 0.79723 0.77120 0.75658
 O1541 O 0.74654 0.68154 0.78972
 O1542 O 0.80904 0.80763 0.74073
 O1543 O 0.77477 0.75504 0.78562
 O1544 O 0.76111 0.79080 0.75907
 O1545 O 0.71656 0.76969 0.75291
 O1546 O 0.73070 0.73267 0.78006
 C1547 C 0.82792 0.74711 0.71144
 C1548 C 0.79165 0.67440 0.73997
 C1549 C 0.75993 0.76710 0.67321
 O1550 O 0.76028 0.82122 0.71654
 O1551 O 0.71926 0.81722 0.74020
 O1552 O 0.71763 0.81019 0.78207
 C1553 C 0.71223 0.82381 0.76235
 O1554 O 0.70459 0.69956 0.71921
 Zr1555 Zr 0.71135 0.72945 0.74628
 O1556 O 0.69882 0.76899 0.79872
 O1557 O 0.70625 0.79061 0.70472
 O1558 O 0.68040 0.74275 0.72321
 O1559 O 0.69618 0.69534 0.76404
 O1560 O 0.68047 0.74245 0.76913
 C1561 C 0.67940 0.75694 0.78879
 O1562 O 0.75241 0.80119 0.81164
 O1563 O 0.80388 0.70791 0.79522
 O1564 O 0.74064 0.75674 0.82274
 O1565 O 0.76336 0.71838 0.81601
 O1566 O 0.83011 0.75685 0.77650
 O1567 O 0.80617 0.79704 0.78658
 C1568 C 0.75185 0.73523 0.83031
 H1569 H 0.80885 0.72179 0.74983
 H1570 H 0.76387 0.80977 0.76282
 H1571 H 0.72018 0.72436 0.79343
 H1572 H 0.72465 0.74329 0.70169
 H1573 H 0.82839 0.80876 0.74217
 H1574 H 0.74866 0.83090 0.70497
 H1575 H 0.70777 0.80782 0.69607
 H1576 H 0.66438 0.73287 0.72797
 H1577 H 0.84559 0.76730 0.77122
 H1578 H 0.80222 0.69080 0.80401
 H1579 H 0.75828 0.67173 0.80109
 H1580 H 0.67698 0.69520 0.76123
 H1581 H 0.82378 0.80481 0.78394
 H1582 H 0.73800 0.80555 0.82343
 H1583 H 0.77039 0.69578 0.67890
 H1584 H 0.68580 0.69461 0.71937
 Zr1585 Zr 0.23568 0.22602 0.78662
 O1586 O 0.25247 0.19930 0.81222
 O1587 O 0.19685 0.22747 0.79854
 O1588 O 0.23590 0.24279 0.82317
 O1589 O 0.22576 0.17930 0.74029
 O1590 O 0.25471 0.28319 0.81702
 O1591 O 0.21940 0.18746 0.78167
 O1592 O 0.17824 0.25755 0.77237
 O1593 O 0.22651 0.26612 0.78140
 O1594 O 0.21571 0.22891 0.75281
 O1595 O 0.27183 0.24609 0.78632
 O1596 O 0.26115 0.20948 0.75959
 Zr1597 Zr 0.26784 0.27422 0.71820
 Zr1598 Zr 0.26256 0.28565 0.77906
 Zr1599 Zr 0.24132 0.21445 0.72588
 Zr1600 Zr 0.20779 0.26866 0.74709
 O1601 O 0.26461 0.18200 0.71415
 O1602 O 0.19353 0.30390 0.76384
 O1603 O 0.23164 0.25398 0.71818
 O1604 O 0.24265 0.29028 0.74544
 O1605 O 0.28829 0.27163 0.75182
 O1606 O 0.27701 0.23425 0.72383
 C1607 C 0.17740 0.24096 0.79044
 C1608 C 0.21729 0.17277 0.76197
 C1609 C 0.24452 0.26540 0.83098
 O1610 O 0.24037 0.31933 0.78954
 O1611 O 0.28116 0.31946 0.76518
 O1612 O 0.28544 0.31218 0.72344
 C1613 C 0.28889 0.32627 0.74334
 O1614 O 0.30480 0.20230 0.78469
 Zr1615 Zr 0.29596 0.23169 0.75784
 O1616 O 0.30673 0.27289 0.70653
 O1617 O 0.29722 0.29302 0.79947
 O1618 O 0.32569 0.24688 0.78134
 O1619 O 0.31292 0.19837 0.73984
 O1620 O 0.32636 0.24627 0.73522
 C1621 C 0.32679 0.26174 0.71629
 O1622 O 0.25164 0.30205 0.69330
 O1623 O 0.20620 0.20560 0.70670
 O1624 O 0.26508 0.25849 0.68131
 O1625 O 0.24680 0.21787 0.68762
 O1626 O 0.17611 0.25326 0.72614
 O1627 O 0.19792 0.29454 0.71752
 C1628 C 0.25607 0.23602 0.67350
 H1629 H 0.19912 0.21880 0.75230
 H1630 H 0.23874 0.30909 0.74202
 H1631 H 0.28822 0.22679 0.71044
 H1632 H 0.28099 0.24404 0.80239
 H1633 H 0.17416 0.30388 0.76222
 H1634 H 0.25131 0.32964 0.80125
 H1635 H 0.29456 0.30990 0.80857
 H1636 H 0.34244 0.23820 0.77656
 H1637 H 0.16003 0.26292 0.73131
 H1638 H 0.20905 0.18858 0.69790
 H1639 H 0.25387 0.17161 0.70233
 H1640 H 0.33216 0.19939 0.74225
 H1641 H 0.18011 0.30185 0.72038
 H1642 H 0.26596 0.30730 0.68179
 H1643 H 0.23817 0.19385 0.82367
 H1644 H 0.32385 0.19839 0.78428
 Zr1645 Zr 0.26794 0.76958 0.28349
 O1646 O 0.25513 0.79756 0.31028
 O1647 O 0.30629 0.76225 0.29474
 O1648 O 0.26643 0.75263 0.31979
 O1649 O 0.28161 0.81559 0.23753
 O1650 O 0.24291 0.71477 0.31388
 O1651 O 0.28711 0.80688 0.27880
 O1652 O 0.32037 0.72977 0.26824
 O1653 O 0.27220 0.72880 0.27736
 O1654 O 0.28721 0.76479 0.24928
 O1655 O 0.22970 0.75390 0.28393
 O1656 O 0.24420 0.78903 0.25716
 Zr1657 Zr 0.22927 0.72601 0.21534
 Zr1658 Zr 0.23418 0.71359 0.27596
 Zr1659 Zr 0.26296 0.78210 0.22295
 Zr1660 Zr 0.29007 0.72439 0.24259
 O1661 O 0.24347 0.81686 0.21124
 O1662 O 0.30047 0.68684 0.25699
 O1663 O 0.26761 0.74182 0.21447
 O1664 O 0.25296 0.70706 0.24178
 O1665 O 0.20965 0.73061 0.24948
 O1666 O 0.22512 0.76672 0.22173
 C1667 C 0.32328 0.74539 0.28688
 C1668 C 0.29001 0.82169 0.25932
 C1669 C 0.25554 0.73110 0.32767
 O1670 O 0.25290 0.67780 0.28591
 O1671 O 0.21266 0.68166 0.26201
 O1672 O 0.20905 0.68932 0.22036
 C1673 C 0.20487 0.67527 0.24012
 O1674 O 0.20197 0.80082 0.28392
 Zr1675 Zr 0.20699 0.77120 0.25615
 O1676 O 0.19044 0.73178 0.20504
 O1677 O 0.19900 0.71001 0.29675
 O1678 O 0.17584 0.75885 0.27967
 O1679 O 0.19420 0.80695 0.23960
 O1680 O 0.17497 0.76178 0.23338
 C1681 C 0.17234 0.74634 0.21453
 O1682 O 0.24184 0.69739 0.18906
 O1683 O 0.29903 0.78704 0.20383
 O1684 O 0.23217 0.74230 0.17878
 O1685 O 0.25724 0.77917 0.18463
 O1686 O 0.32338 0.73709 0.22210
 O1687 O 0.29629 0.69879 0.21169
 C1688 C 0.24431 0.76313 0.17079
 H1689 H 0.30482 0.77302 0.24896
 H1690 H 0.25487 0.68799 0.23801
 H1691 H 0.21470 0.77570 0.20874
 H1692 H 0.22108 0.75685 0.30024
 H1693 H 0.31958 0.68441 0.25431
 H1694 H 0.24101 0.66858 0.29766
 H1695 H 0.19992 0.69291 0.30566
 H1696 H 0.16017 0.76954 0.27544
 H1697 H 0.33825 0.72544 0.22667
 H1698 H 0.29807 0.80423 0.19510
 H1699 H 0.25539 0.82593 0.19942
 H1700 H 0.17506 0.80852 0.24265
 H1701 H 0.31374 0.69028 0.21307
 H1702 H 0.22674 0.69394 0.17793
 H1703 H 0.27025 0.80106 0.32137
 H1704 H 0.18336 0.80648 0.28446
 Zr1705 Zr 0.22787 0.77136 0.71695
 O1706 O 0.23829 0.79827 0.68852
 O1707 O 0.18909 0.76293 0.70799
 O1708 O 0.22845 0.75338 0.68100
 O1709 O 0.21619 0.81950 0.76184
 O1710 O 0.24958 0.71424 0.68775
 O1711 O 0.20894 0.80883 0.72117
 O1712 O 0.17612 0.73300 0.73726
 O1713 O 0.22389 0.73096 0.72491
 O1714 O 0.21080 0.76844 0.75233
 O1715 O 0.26597 0.75543 0.71492
 O1716 O 0.25302 0.79225 0.74108
 Zr1717 Zr 0.27081 0.73138 0.78435
 Zr1718 Zr 0.26193 0.71561 0.72473
 Zr1719 Zr 0.23656 0.78712 0.77655
 Zr1720 Zr 0.20835 0.72847 0.76081
 O1721 O 0.25698 0.82222 0.78556
 O1722 O 0.19714 0.69038 0.74821
 O1723 O 0.23255 0.74732 0.78674
 O1724 O 0.24551 0.71100 0.76020
 O1725 O 0.28788 0.73414 0.74892
 O1726 O 0.27459 0.77171 0.77632
 C1727 C 0.17238 0.74710 0.71781
 C1728 C 0.20675 0.82445 0.74022
 C1729 C 0.23782 0.73086 0.67363
 O1730 O 0.24345 0.67883 0.71819
 O1731 O 0.28583 0.68525 0.73844
 O1732 O 0.29077 0.69448 0.77972
 C1733 C 0.29462 0.67986 0.76021
 O1734 O 0.29161 0.80380 0.71255
 Zr1735 Zr 0.29018 0.77431 0.74056
 O1736 O 0.31043 0.73787 0.79170
 O1737 O 0.29522 0.71121 0.70137
 O1738 O 0.31918 0.76299 0.71412
 O1739 O 0.30546 0.80936 0.75664
 O1740 O 0.32439 0.76298 0.75905
 C1741 C 0.32833 0.74909 0.77858
 O1742 O 0.26097 0.70385 0.81243
 O1743 O 0.20182 0.79354 0.79752
 O1744 O 0.26862 0.74863 0.82062
 O1745 O 0.24402 0.78583 0.81466
 O1746 O 0.17661 0.74229 0.78300
 O1747 O 0.20434 0.70441 0.79291
 C1748 C 0.25662 0.76966 0.82856
 H1749 H 0.19318 0.77670 0.75331
 H1750 H 0.24403 0.69215 0.76485
 H1751 H 0.28587 0.78095 0.78850
 H1752 H 0.27354 0.75749 0.69806
 H1753 H 0.17824 0.68814 0.75210
 H1754 H 0.25454 0.66910 0.70603
 H1755 H 0.29380 0.69364 0.69328
 H1756 H 0.33463 0.77456 0.71660
 H1757 H 0.16151 0.73040 0.78000
 H1758 H 0.20339 0.81115 0.80552
 H1759 H 0.24584 0.83206 0.79760
 H1760 H 0.32422 0.81041 0.75178
 H1761 H 0.18701 0.69559 0.79270
 H1762 H 0.27689 0.70120 0.82270
 H1763 H 0.22244 0.80109 0.67819
 H1764 H 0.30961 0.81104 0.71139
 Zr1765 Zr 0.27491 0.22899 0.21741
 O1766 O 0.26395 0.20161 0.18949
 O1767 O 0.31359 0.23692 0.20745
 O1768 O 0.27360 0.24646 0.18132
 O1769 O 0.28709 0.18144 0.26247
 O1770 O 0.25193 0.28533 0.18832
 O1771 O 0.29375 0.19151 0.22157
 O1772 O 0.32653 0.26864 0.23508
 O1773 O 0.27858 0.26961 0.22466
 O1774 O 0.29288 0.23288 0.25218
 O1775 O 0.23659 0.24445 0.21638
 O1776 O 0.25062 0.20853 0.24269
 Zr1777 Zr 0.23321 0.27025 0.28554
 Zr1778 Zr 0.24036 0.28452 0.22556
 Zr1779 Zr 0.26793 0.21464 0.27755
 Zr1780 Zr 0.29506 0.27314 0.25995
 O1781 O 0.24832 0.17964 0.28836
 O1782 O 0.30544 0.31113 0.24661
 O1783 O 0.27172 0.25474 0.28702
 O1784 O 0.25769 0.29022 0.26032
 O1785 O 0.21511 0.26637 0.25082
 O1786 O 0.22984 0.22967 0.27814
 C1787 C 0.33020 0.25353 0.21616
 C1788 C 0.29595 0.17602 0.24060
 C1789 C 0.26376 0.26873 0.17405
 O1790 O 0.25820 0.32140 0.21805
 O1791 O 0.21638 0.31485 0.23945
 O1792 O 0.21268 0.30684 0.28104
 C1793 C 0.20810 0.32080 0.26137
 O1794 O 0.21031 0.19690 0.21460
 Zr1795 Zr 0.21325 0.22596 0.24308
 O1796 O 0.19390 0.26400 0.29434
 O1797 O 0.20664 0.28802 0.20296
 O1798 O 0.18286 0.23815 0.21883
 O1799 O 0.20009 0.18988 0.25871
 O1800 O 0.18013 0.23488 0.26465
 C1801 C 0.17638 0.24985 0.28364
 O1802 O 0.24428 0.29823 0.31287
 O1803 O 0.30351 0.20920 0.29707
 O1804 O 0.23502 0.25322 0.32173
 O1805 O 0.26108 0.21689 0.31590
 O1806 O 0.32766 0.26009 0.28103
 O1807 O 0.29981 0.29796 0.29156
 C1808 C 0.24742 0.23257 0.32969
 H1809 H 0.31053 0.22468 0.25267
 H1810 H 0.25906 0.30921 0.26463
 H1811 H 0.21900 0.22036 0.29066
 H1812 H 0.22862 0.24196 0.19979
 H1813 H 0.32442 0.31366 0.24978
 H1814 H 0.24674 0.33074 0.20609
 H1815 H 0.20765 0.30547 0.19468
 H1816 H 0.16738 0.22686 0.22218
 H1817 H 0.34256 0.27199 0.27719
 H1818 H 0.30235 0.19182 0.30543
 H1819 H 0.25999 0.17034 0.30017
 H1820 H 0.18116 0.18817 0.25486
 H1821 H 0.31715 0.30672 0.29073
 H1822 H 0.22869 0.30129 0.32364
 H1823 H 0.27961 0.19863 0.17879
 H1824 H 0.19195 0.19065 0.21351
 Zr1825 Zr 0.72800 0.73077 0.28422
 O1826 O 0.73858 0.70468 0.31319
 O1827 O 0.68806 0.73644 0.29125
 O1828 O 0.72616 0.74924 0.32000
 O1829 O 0.72221 0.68121 0.23987
 O1830 O 0.74768 0.78825 0.31396
 O1831 O 0.71080 0.69259 0.27960
 O1832 O 0.67479 0.76447 0.26057
 O1833 O 0.72217 0.77085 0.27577
 O1834 O 0.71278 0.73231 0.24817
 O1835 O 0.76522 0.74853 0.28701
 O1836 O 0.75566 0.71103 0.26130
 Zr1837 Zr 0.77188 0.77214 0.21759
 Zr1838 Zr 0.75948 0.78798 0.27673
 Zr1839 Zr 0.74072 0.71469 0.22525
 Zr1840 Zr 0.70838 0.77200 0.23924
 O1841 O 0.76344 0.68054 0.21749
 O1842 O 0.69410 0.80900 0.25216
 O1843 O 0.73477 0.75406 0.21434
 O1844 O 0.74445 0.79138 0.24075
 O1845 O 0.78769 0.77077 0.25348
 O1846 O 0.77759 0.73218 0.22630
 C1847 C 0.67062 0.74999 0.27972
 C1848 C 0.71100 0.67645 0.26082
 C1849 C 0.73561 0.77152 0.32776
 O1850 O 0.73773 0.82302 0.28325
 O1851 O 0.78094 0.82012 0.26314
 O1852 O 0.79066 0.80950 0.22284
 C1853 C 0.79174 0.82503 0.24203
 O1854 O 0.79505 0.70310 0.29183
 Zr1855 Zr 0.79182 0.73089 0.26244
 O1856 O 0.81167 0.76652 0.21040
 O1857 O 0.79207 0.79515 0.30006
 O1858 O 0.81932 0.74604 0.28830
 O1859 O 0.80839 0.69525 0.24854
 O1860 O 0.82591 0.74141 0.24287
 C1861 C 0.82963 0.75474 0.22288
 O1862 O 0.76186 0.79949 0.18948
 O1863 O 0.70748 0.70612 0.20318
 O1864 O 0.77139 0.75475 0.18126
 O1865 O 0.75049 0.71546 0.18759
 O1866 O 0.67919 0.75680 0.21515
 O1867 O 0.70457 0.79640 0.20737
 C1868 C 0.76178 0.73250 0.17352
 H1869 H 0.69583 0.72299 0.24638
 H1870 H 0.74211 0.81009 0.23589
 H1871 H 0.78971 0.72312 0.21460
 H1872 H 0.77233 0.74696 0.30403
 H1873 H 0.67527 0.81011 0.24774
 H1874 H 0.74778 0.83364 0.29544
 H1875 H 0.78930 0.81270 0.30793
 H1876 H 0.83583 0.73583 0.28627
 H1877 H 0.66322 0.76783 0.21730
 H1878 H 0.71044 0.68846 0.19561
 H1879 H 0.75355 0.66996 0.20516
 H1880 H 0.82715 0.69502 0.25333
 H1881 H 0.68696 0.80471 0.20737
 H1882 H 0.77797 0.80264 0.17949
 H1883 H 0.72242 0.70112 0.32299
 H1884 H 0.81369 0.69806 0.29397
 Zr1885 Zr 0.77083 0.26749 0.78393
 O1886 O 0.75899 0.29483 0.81169
 O1887 O 0.80983 0.26048 0.79346
 O1888 O 0.77017 0.24994 0.82005
 O1889 O 0.78165 0.31507 0.73867
 O1890 O 0.74735 0.21169 0.81391
 O1891 O 0.78946 0.30508 0.77933
 O1892 O 0.82381 0.23004 0.76485
 O1893 O 0.77557 0.22693 0.77676
 O1894 O 0.78866 0.26391 0.74890
 O1895 O 0.73284 0.25122 0.78520
 O1896 O 0.74568 0.28721 0.75892
 Zr1897 Zr 0.73017 0.22501 0.71613
 Zr1898 Zr 0.73768 0.21120 0.77624
 Zr1899 Zr 0.76314 0.28154 0.72391
 Zr1900 Zr 0.79198 0.22374 0.74120
 O1901 O 0.74239 0.31607 0.71361
 O1902 O 0.80374 0.18644 0.75523
 O1903 O 0.76815 0.24155 0.71436
 O1904 O 0.75516 0.20579 0.74129
 O1905 O 0.71184 0.22842 0.75101
 O1906 O 0.72556 0.26550 0.72353
 C1907 C 0.82719 0.24508 0.78380
 C1908 C 0.79115 0.32052 0.76018
 C1909 C 0.75966 0.22815 0.82781
 O1910 O 0.75740 0.17552 0.78472
 O1911 O 0.71589 0.17944 0.76240
 O1912 O 0.71034 0.18807 0.72114
 C1913 C 0.70709 0.17352 0.74073
 O1914 O 0.70441 0.29782 0.78707
 Zr1915 Zr 0.70874 0.26877 0.75868
 O1916 O 0.69111 0.23114 0.70680
 O1917 O 0.70337 0.20643 0.79811
 O1918 O 0.67889 0.25556 0.78327
 O1919 O 0.69452 0.30446 0.74309
 O1920 O 0.67585 0.25878 0.73727
 C1921 C 0.67297 0.24458 0.71761
 O1922 O 0.74185 0.19687 0.68904
 O1923 O 0.79838 0.28795 0.70380
 O1924 O 0.73229 0.24180 0.67974
 O1925 O 0.75644 0.27927 0.68571
 O1926 O 0.82372 0.23719 0.71896
 O1927 O 0.79724 0.19836 0.70999
 C1928 C 0.74386 0.26299 0.67184
 H1929 H 0.80608 0.27250 0.74800
 H1930 H 0.75716 0.18683 0.73707
 H1931 H 0.71458 0.27457 0.71103
 H1932 H 0.72472 0.25367 0.80181
 H1933 H 0.82278 0.18441 0.75185
 H1934 H 0.74609 0.16578 0.79659
 H1935 H 0.70485 0.18910 0.80654
 H1936 H 0.66288 0.26608 0.77989
 H1937 H 0.83905 0.22573 0.72249
 H1938 H 0.79668 0.30534 0.69552
 H1939 H 0.75363 0.32568 0.70160
 H1940 H 0.67549 0.30556 0.74688
 H1941 H 0.81469 0.18978 0.71088
 H1942 H 0.72640 0.19360 0.67831
 H1943 H 0.77453 0.29819 0.82228
 H1944 H 0.68579 0.30333 0.78825
 C1945 C 0.45964 0.99925 0.34867
 C1946 C 0.48529 0.98312 0.35209
 C1947 C 0.49432 0.98268 0.37609
 C1948 C 0.47702 0.99842 0.39444
 C1949 C 0.47537 1.02621 0.38315
 C1950 C 0.46652 1.02666 0.35934
 C1951 C 0.44044 0.98723 0.36753
 C1952 C 0.44945 0.98667 0.39117
 H1953 H 0.49619 0.97384 0.33706
 H1954 H 0.51235 0.97271 0.38128
 H1955 H 0.48154 1.04400 0.39281
 H1956 H 0.46539 1.04485 0.34876
 H1957 H 0.42141 0.97922 0.36254
 H1958 H 0.43809 0.97811 0.40625
 C1959 C -0.03781 0.50042 0.84590
 C1960 C -0.03208 0.52650 0.85652
 C1961 C -0.02204 0.52559 0.88127
 C1962 C -0.01906 0.49884 0.89099
 C1963 C -0.04481 0.48650 0.88836
 C1964 C -0.05507 0.48748 0.86383
 C1965 C -0.01258 0.48615 0.84783
 C1966 C -0.00231 0.48522 0.87287
 H1967 H -0.03289 0.54485 0.84613
 H1968 H -0.01531 0.54321 0.89090
 H1969 H -0.05500 0.47631 0.90330
 H1970 H -0.07361 0.47822 0.85905
 H1971 H -0.00082 0.47970 0.83208
 H1972 H 0.01688 0.47712 0.87715
 C1973 C 0.04527 0.01392 0.85203
 C1974 C 0.01647 0.02380 0.85408
 C1975 C 0.00684 0.02454 0.87799
 C1976 C 0.02679 0.01540 0.89756
 C1977 C 0.03536 -0.01223 0.88864
 C1978 C 0.04504 -0.01294 0.86514
 C1979 C 0.06029 0.03251 0.86965
 C1980 C 0.05080 0.03311 0.89329
 H1981 H 0.00487 0.03061 0.83854
 H1982 H -0.01278 0.03153 0.88248
 H1983 H 0.03348 -0.02998 0.89979
 H1984 H 0.05142 -0.03124 0.85637
 H1985 H 0.07656 0.04488 0.86381
 H1986 H 0.05907 0.04586 0.90750
 C1987 C 0.54584 0.51359 0.35087
 C1988 C 0.56089 0.53229 0.36838
 C1989 C 0.55165 0.53277 0.39210
 C1990 C 0.52784 0.51486 0.39654
 C1991 C 0.50761 0.52387 0.37716
 C1992 C 0.51700 0.52323 0.35316
 C1993 C 0.54597 0.48671 0.36394
 C1994 C 0.53653 0.48731 0.38751
 H1995 H 0.57695 0.54485 0.36240
 H1996 H 0.55994 0.54558 0.40626
 H1997 H 0.48799 0.53070 0.38182
 H1998 H 0.50521 0.52996 0.33772
 H1999 H 0.55239 0.46847 0.35508
 H2000 H 0.53488 0.46953 0.39865
 C2001 C 0.54215 0.49776 0.15062
 C2002 C 0.51855 0.47889 0.14673
 C2003 C 0.51000 0.47745 0.12258
 C2004 C 0.52571 0.49499 0.10459
 C2005 C 0.52403 0.52278 0.11610
 C2006 C 0.53239 0.52421 0.14002
 C2007 C 0.56290 0.48793 0.13197
 C2008 C 0.55438 0.48637 0.10817
 H2009 H 0.50855 0.46845 0.16155
 H2010 H 0.49332 0.46554 0.11707
 H2011 H 0.51605 0.53980 0.10646
 H2012 H 0.53131 0.54243 0.15070
 H2013 H 0.58264 0.48210 0.13719
 H2014 H 0.56688 0.47916 0.09319
 C2015 C 0.03800 1.00036 0.65404
 C2016 C 0.02863 1.02716 0.64387
 C2017 C 0.01912 1.02608 0.62032
 C2018 C 0.01936 0.99828 0.60872
 C2019 C 0.04788 0.98867 0.61117
 C2020 C 0.05753 0.98989 0.63458
 C2021 C 0.01360 0.98231 0.65109
 C2022 C 0.00391 0.98122 0.62730
 H2023 H 0.02859 1.04536 0.65462
 H2024 H 0.01122 1.04337 0.61106
 H2025 H 0.05945 0.98098 0.59573
 H2026 H 0.07728 0.98334 0.63898
 H2027 H 0.00397 0.97217 0.66631
 H2028 H -0.01340 0.96990 0.62245
 C2029 C -0.04206 0.50174 0.65003
 C2030 C -0.01683 0.51860 0.64677
 C2031 C -0.00800 0.52019 0.62264
 C2032 C -0.02503 0.50484 0.60404
 C2033 C -0.02592 0.47659 0.61445
 C2034 C -0.03465 0.47499 0.63830
 C2035 C -0.06168 0.51418 0.63188
 C2036 C -0.05286 0.51584 0.60810
 H2037 H -0.00620 0.52788 0.66182
 H2038 H 0.00961 0.53093 0.61748
 H2039 H -0.01952 0.45927 0.60407
 H2040 H -0.03559 0.45633 0.64816
 H2041 H -0.08083 0.52166 0.63745
 H2042 H -0.06452 0.52473 0.59348
 C2043 C 0.45995 -0.00458 0.15140
 C2044 C 0.44178 0.01000 0.13335
 C2045 C 0.45090 0.01119 0.10967
 C2046 C 0.47756 -0.00245 0.10555
 C2047 C 0.49586 0.01084 0.12448
 C2048 C 0.48672 0.00972 0.14853
 C2049 C 0.46484 -0.03177 0.13930
 C2050 C 0.47386 -0.03064 0.11549
 H2051 H 0.42339 0.01923 0.13892
 H2052 H 0.44026 0.02145 0.09515
 H2053 H 0.51454 0.01975 0.11960
 H2054 H 0.49816 0.01745 0.16383
 H2055 H 0.46208 -0.05040 0.14889
 H2056 H 0.47865 -0.04831 0.10487
 C2057 C 0.35803 0.42080 0.00809
 C2058 C 0.37800 0.40966 -0.01083
 C2059 C 0.40212 0.42110 -0.00989
 C2060 C 0.40456 0.44322 0.00964
 C2061 C 0.38194 0.46228 0.00373
 C2062 C 0.35784 0.45080 0.00283
 C2063 C 0.37214 0.41844 0.03340
 C2064 C 0.39638 0.43015 0.03422
 H2065 H 0.37351 0.39399 -0.02397
 H2066 H 0.41810 0.41496 -0.02205
 H2067 H 0.38470 0.48324 0.00034
 H2068 H 0.34074 0.46250 -0.00164
 H2069 H 0.36367 0.40845 0.04935
 H2070 H 0.40849 0.42998 0.05076
 C2071 C -0.14785 0.92070 0.51089
 C2072 C -0.12684 0.90917 0.49322
 C2073 C -0.10297 0.92104 0.49481
 C2074 C -0.10179 0.94400 0.51359
 C2075 C -0.12441 0.96238 0.50598
 C2076 C -0.14822 0.95040 0.50442
 C2077 C -0.13492 0.91962 0.53684
 C2078 C -0.11093 0.93181 0.53827
 H2079 H -0.13045 0.89304 0.48033
 H2080 H -0.08636 0.91473 0.48351
 H2081 H -0.12175 0.98312 0.50151
 H2082 H -0.16514 0.96131 0.49795
 H2083 H -0.14397 0.91008 0.55275
 H2084 H -0.09960 0.93253 0.55529
 C2085 C -0.14402 0.08618 0.99266
 C2086 C -0.12282 0.09966 1.00608
 C2087 C -0.09833 0.08573 1.00558
 C2088 C -0.09905 0.06108 0.99143
 C2089 C -0.12055 0.04582 1.00227
 C2090 C -0.14506 0.05958 1.00306
 C2091 C -0.13312 0.08266 0.96742
 C2092 C -0.10835 0.06870 0.96678
 H2093 H -0.12399 0.11983 1.01296
 H2094 H -0.08041 0.09435 1.01283
 H2095 H -0.11859 0.02556 1.00864
 H2096 H -0.16284 0.05048 1.01021
 H2097 H -0.14119 0.09173 0.95087
 H2098 H -0.09714 0.06592 0.94975
 C2099 C 0.35727 0.58599 0.49190
 C2100 C 0.37959 0.59935 0.50661
 C2101 C 0.40281 0.58598 0.50598
 C2102 C 0.40232 0.56048 0.49043
 C2103 C 0.37930 0.54445 0.50118
 C2104 C 0.35605 0.55771 0.50202
 C2105 C 0.36916 0.58282 0.46548
 C2106 C 0.39263 0.56947 0.46474
 H2107 H 0.37798 0.61859 0.51546
 H2108 H 0.42042 0.59366 0.51467
 H2109 H 0.38110 0.52414 0.50742
 H2110 H 0.33818 0.54869 0.50903
 H2111 H 0.36043 0.59110 0.44888
 H2112 H 0.40347 0.56622 0.44758
 C2113 C 0.14427 0.57735 0.50698
 C2114 C 0.12466 0.58741 0.48747
 C2115 C 0.10064 0.57575 0.48848
 C2116 C 0.09791 0.55449 0.50868
 C2117 C 0.12088 0.53543 0.50368
 C2118 C 0.14489 0.54714 0.50272
 C2119 C 0.12951 0.58066 0.53201
 C2120 C 0.10536 0.56874 0.53291
 H2121 H 0.12931 0.60254 0.47389
 H2122 H 0.08491 0.58118 0.47592
 H2123 H 0.11841 0.51429 0.50101
 H2124 H 0.16226 0.53544 0.49899
 H2125 H 0.13749 0.59141 0.54774
 H2126 H 0.09288 0.56946 0.54931
 C2127 C 0.64508 0.07346 0.00770
 C2128 C 0.62398 0.08483 -0.00968
 C2129 C 0.60036 0.07243 -0.00833
 C2130 C 0.59948 0.04911 0.00993
 C2131 C 0.62251 0.03134 0.00186
 C2132 C 0.64613 0.04386 0.00058
 C2133 C 0.63191 0.07379 0.03367
 C2134 C 0.60818 0.06108 0.03486
 H2135 H 0.62736 0.10128 -0.02219
 H2136 H 0.58373 0.07861 -0.01947
 H2137 H 0.62031 0.01061 -0.00301
 H2138 H 0.66341 0.03342 -0.00594
 H2139 H 0.64062 0.08321 0.04980
 H2140 H 0.59676 0.05980 0.05190
 C2141 C 0.64198 0.91864 0.49019
 C2142 C 0.63286 0.92592 0.46360
 C2143 C 0.60972 0.93984 0.46286
 C2144 C 0.59763 0.94522 0.48866
 C2145 C 0.59526 0.91772 0.50046
 C2146 C 0.61816 0.90384 0.50110
 C2147 C 0.64253 0.94513 0.50415
 C2148 C 0.61965 0.95896 0.50326
 H2149 H 0.64284 0.91970 0.44672
 H2150 H 0.60058 0.94566 0.44554
 H2151 H 0.57680 0.90938 0.50683
 H2152 H 0.61892 0.88365 0.50780
 H2153 H 0.65974 0.95262 0.51365
 H2154 H 0.61750 0.97823 0.51199
 C2155 C 0.14790 0.41919 0.98702
 C2156 C 0.13907 0.42633 0.96029
 C2157 C 0.11596 0.44033 0.95923
 C2158 C 0.10363 0.44597 0.98487
 C2159 C 0.10107 0.41855 0.99684
 C2160 C 0.12391 0.40460 0.99781
 C2161 C 0.14839 0.44580 1.00078
 C2162 C 0.12558 0.45972 0.99957
 H2163 H 0.14923 0.42002 0.94353
 H2164 H 0.10705 0.44612 0.94179
 H2165 H 0.08253 0.41036 1.00318
 H2166 H 0.12456 0.38450 1.00477
 H2167 H 0.16555 0.45333 1.01034
 H2168 H 0.12345 0.47910 1.00809
 C2169 C 0.00295 0.34611 0.43256
 C2170 C 0.02238 0.34768 0.45444
 C2171 C 0.02256 0.37164 0.46595
 C2172 C 0.00315 0.39158 0.45466
 C2173 C 0.01050 0.39302 0.42707
 C2174 C 0.01038 0.36924 0.41551
 C2175 C -0.02364 0.35383 0.44428
 C2176 C -0.02355 0.37774 0.45569
 H2177 H 0.03366 0.33128 0.46169
 H2178 H 0.03444 0.37543 0.48226
 H2179 H 0.01566 0.41117 0.41749
 H2180 H 0.01547 0.36700 0.39598
 H2181 H -0.04085 0.34121 0.44428
 H2182 H -0.04068 0.38569 0.46524
 C2183 C 0.48465 -0.14783 -0.07803
 C2184 C 0.51041 -0.13281 -0.08306
 C2185 C 0.51236 -0.10958 -0.07069
 C2186 C 0.48830 -0.10320 -0.05470
 C2187 C 0.46483 -0.10455 -0.07263
 C2188 C 0.46287 -0.12796 -0.08490
 C2189 C 0.48276 -0.15029 -0.04958
 C2190 C 0.48468 -0.12691 -0.03737
 H2191 H 0.52565 -0.13969 -0.09572
 H2192 H 0.52921 -0.09663 -0.07264
 H2193 H 0.45072 -0.08871 -0.07531
 H2194 H 0.44709 -0.13138 -0.09788
 H2195 H 0.47957 -0.16882 -0.03992
 H2196 H 0.48319 -0.12541 -0.01727
 C2197 C 0.00163 -0.14604 1.06505
 C2198 C -0.02417 -0.13045 1.06757
 C2199 C -0.02327 -0.10599 1.05752
 C2200 C 0.00328 -0.09931 1.04572
 C2201 C 0.02361 -0.10349 1.06634
 C2202 C 0.02286 -0.12803 1.07631
 C2203 C 0.00789 -0.14615 1.03694
 C2204 C 0.00872 -0.12156 1.02688
 H2205 H -0.04176 -0.13814 1.07642
 H2206 H -0.03999 -0.09264 1.05787
 H2207 H 0.03799 -0.08892 1.07208
 H2208 H 0.03665 -0.13431 1.09044
 H2209 H 0.01284 -0.16338 1.02589
 H2210 H 0.01384 -0.11820 1.00753
 C2211 C 0.50373 0.35068 0.56117
 C2212 C 0.48106 0.36871 0.56982
 C2213 C 0.48126 0.39299 0.55942
 C2214 C 0.50384 0.39707 0.54104
 C2215 C 0.52900 0.39081 0.55549
 C2216 C 0.52895 0.36653 0.56594
 C2217 C 0.50132 0.34993 0.53257
 C2218 C 0.50142 0.37438 0.52205
 H2219 H 0.46586 0.36268 0.58283
 H2220 H 0.46639 0.40780 0.56359
 H2221 H 0.54584 0.40387 0.55669
 H2222 H 0.54571 0.35891 0.57607
 H2223 H 0.50016 0.33228 0.52123
 H2224 H 0.50037 0.37723 0.50208
 C2225 C 0.49148 1.14496 0.57921
 C2226 C 0.51797 1.13029 0.58068
 C2227 C 0.51843 1.10694 0.56822
 C2228 C 0.49232 1.10016 0.55573
 C2229 C 0.47185 1.10130 0.57686
 C2230 C 0.47146 1.12473 0.58928
 C2231 C 0.48551 1.14719 0.55134
 C2232 C 0.48591 1.12378 0.53907
 H2233 H 0.53468 1.13725 0.59128
 H2234 H 0.53551 1.09406 0.56801
 H2235 H 0.45961 1.08481 0.58248
 H2236 H 0.45938 1.12732 0.60572
 H2237 H 0.48098 1.16569 0.54210
 H2238 H 0.48174 1.12219 0.51934
 C2239 C -0.00699 0.64563 1.07371
 C2240 C 0.02013 0.63217 1.07533
 C2241 C 0.02150 0.60853 1.06342
 C2242 C -0.00439 0.60030 1.05132
 C2243 C -0.02472 0.60109 1.07257
 C2244 C -0.02600 0.62479 1.08443
 C2245 C -0.01325 0.64688 1.04586
 C2246 C -0.01195 0.62317 1.03416
 H2247 H 0.03658 0.64006 1.08571
 H2248 H 0.03909 0.59637 1.06343
 H2249 H -0.03609 0.58420 1.07875
 H2250 H -0.03792 0.62729 1.10100
 H2251 H -0.01859 0.66492 1.03623
 H2252 H -0.01618 0.62088 1.01450
 C2253 C 0.49616 0.64909 -0.07129
 C2254 C 0.52363 0.64137 -0.06223
 C2255 C 0.52431 0.61827 -0.04966
 C2256 C 0.49745 0.60492 -0.04743
 C2257 C 0.47940 0.62571 -0.03524
 C2258 C 0.47857 0.64888 -0.04785
 C2259 C 0.48639 0.62525 -0.08656
 C2260 C 0.48733 0.60208 -0.07408
 H2261 H 0.54106 0.65329 -0.06521
 H2262 H 0.54228 0.61034 -0.04184
 H2263 H 0.46728 0.62222 -0.01893
 H2264 H 0.46509 0.66451 -0.04248
 H2265 H 0.47824 0.62659 -0.10512
 H2266 H 0.48040 0.58363 -0.08208
 C2267 C -0.01013 1.14558 0.42505
 C2268 C 0.01600 1.13942 0.43462
 C2269 C 0.01686 1.11604 0.44912
 C2270 C -0.00848 1.10299 0.45118
 C2271 C -0.02650 1.12288 0.46140
 C2272 C -0.02758 1.14633 0.44681
 C2273 C -0.01850 1.12191 0.41132
 C2274 C -0.01728 1.09837 0.42578
 H2275 H 0.03338 1.15134 0.43124
 H2276 H 0.03478 1.10899 0.45778
 H2277 H -0.03918 1.12004 0.47744
 H2278 H -0.04160 1.16203 0.45074
 H2279 H -0.02944 1.12204 0.39408
 H2280 H -0.02555 1.07980 0.41932
 C2281 C 0.75373 0.70979 0.90318
 C2282 C 0.73717 0.73533 0.90016
 C2283 C 0.73607 0.74455 0.87620
 C2284 C 0.75166 0.72754 0.85748
 C2285 C 0.77950 0.72635 0.86827
 C2286 C 0.78059 0.71733 0.89203
 C2287 C 0.74183 0.69032 0.88449
 C2288 C 0.74061 0.69952 0.86088
 H2289 H 0.72806 0.74598 0.91545
 H2290 H 0.72573 0.76255 0.87127
 H2291 H 0.79684 0.73306 0.85834
 H2292 H 0.79887 0.71668 0.90228
 H2293 H 0.73442 0.67095 0.88955
 H2294 H 0.73209 0.68796 0.84592
 C2295 C 0.24720 0.20722 0.40259
 C2296 C 0.22905 0.23149 0.39867
 C2297 C 0.22859 0.24056 0.37466
 C2298 C 0.24632 0.22471 0.35679
 C2299 C 0.27355 0.22555 0.36891
 C2300 C 0.27401 0.21664 0.39273
 C2301 C 0.23774 0.18690 0.38341
 C2302 C 0.23716 0.19596 0.35971
 H2303 H 0.21843 0.24157 0.41342
 H2304 H 0.21729 0.25777 0.36918
 H2305 H 0.29090 0.23339 0.35977
 H2306 H 0.29174 0.21712 0.40382
 H2307 H 0.23146 0.16705 0.38818
 H2308 H 0.23034 0.18381 0.34438
 C2309 C 0.74864 0.29111 0.40277
 C2310 C 0.76453 0.26511 0.39941
 C2311 C 0.76577 0.25614 0.37531
 C2312 C 0.75104 0.27382 0.35681
 C2313 C 0.72305 0.27576 0.36746
 C2314 C 0.72180 0.28462 0.39133
 C2315 C 0.76156 0.31038 0.38444
 C2316 C 0.76285 0.30142 0.36066
 H2317 H 0.77328 0.25399 0.41441
 H2318 H 0.77576 0.23796 0.37013
 H2319 H 0.70564 0.26995 0.35725
 H2320 H 0.70334 0.28626 0.40139
 H2321 H 0.76957 0.32940 0.38987
 H2322 H 0.77196 0.31284 0.34591
 C2323 C 0.25224 0.79397 0.90185
 C2324 C 0.22592 0.78647 0.88992
 C2325 C 0.22798 0.77780 0.86605
 C2326 C 0.25621 0.77708 0.85583
 C2327 C 0.26682 0.80512 0.86002
 C2328 C 0.26472 0.81387 0.88383
 C2329 C 0.26924 0.76866 0.89861
 C2330 C 0.27129 0.75990 0.87448
 H2331 H 0.20723 0.78730 0.89966
 H2332 H 0.21100 0.77135 0.85553
 H2333 H 0.27575 0.81698 0.84548
 H2334 H 0.27187 0.83317 0.88950
 H2335 H 0.27828 0.75789 0.91368
 H2336 H 0.28217 0.74222 0.86936
 C2337 C 0.24514 0.78999 0.09830
 C2338 C 0.22843 0.76446 0.10128
 C2339 C 0.22762 0.75478 0.12511
 C2340 C 0.24360 0.77121 0.14373
 C2341 C 0.27127 0.77231 0.13230
 C2342 C 0.27209 0.78188 0.10872
 C2343 C 0.23358 0.80913 0.11770
 C2344 C 0.23269 0.79941 0.14114
 H2345 H 0.21913 0.75390 0.08615
 H2346 H 0.21734 0.73674 0.12995
 H2347 H 0.28873 0.76526 0.14170
 H2348 H 0.29027 0.78274 0.09814
 H2349 H 0.22606 0.82865 0.11325
 H2350 H 0.22439 0.81067 0.15651
 C2351 C 0.74511 0.28940 0.59921
 C2352 C 0.77200 0.28155 0.60993
 C2353 C 0.77100 0.27217 0.63355
 C2354 C 0.74323 0.27097 0.64475
 C2355 C 0.73216 0.29906 0.64188
 C2356 C 0.73323 0.30861 0.61838
 C2357 C 0.72853 0.26378 0.60221
 C2358 C 0.72755 0.25428 0.62609
 H2359 H 0.79028 0.28244 0.59950
 H2360 H 0.78842 0.26530 0.64315
 H2361 H 0.72367 0.31039 0.65712
 H2362 H 0.72565 0.32805 0.61373
 H2363 H 0.71944 0.25306 0.58707
 H2364 H 0.71735 0.23620 0.63096
 C2365 C 0.25539 0.20876 0.60111
 C2366 C 0.22895 0.20780 0.61482
 C2367 C 0.22944 0.21799 0.63814
 C2368 C 0.25646 0.22825 0.64632
 C2369 C 0.27539 0.20501 0.64195
 C2370 C 0.27497 0.19502 0.61853
 C2371 C 0.26348 0.23832 0.60247
 C2372 C 0.26405 0.24848 0.62625
 H2373 H 0.21102 0.20033 0.60655
 H2374 H 0.21189 0.21920 0.64964
 H2375 H 0.28877 0.19762 0.65597
 H2376 H 0.28809 0.17922 0.61268
 H2377 H 0.26901 0.25015 0.58656
 H2378 H 0.26970 0.26870 0.63027
 C2379 C 0.76304 0.70467 0.10132
 C2380 C 0.77304 0.73201 0.10285
 C2381 C 0.77301 0.74272 0.12787
 C2382 C 0.76315 0.72407 0.14639
 C2383 C 0.73717 0.71649 0.13749
 C2384 C 0.73714 0.70579 0.11299
 C2385 C 0.77975 0.69010 0.11870
 C2386 C 0.77958 0.70059 0.14337
 H2387 H 0.78255 0.74242 0.08772
 H2388 H 0.78141 0.76181 0.13244
 H2389 H 0.71909 0.71975 0.14788
 H2390 H 0.71904 0.70031 0.10369
 H2391 H 0.79299 0.67421 0.11326
 H2392 H 0.79231 0.69290 0.15780
 C2393 C 0.16787 0.60228 0.24086
 C2394 C 0.19735 0.60195 0.24740
 C2395 C 0.20911 0.62603 0.24620
 C2396 C 0.19078 0.64882 0.23882
 C2397 C 0.17884 0.63992 0.21399
 C2398 C 0.16686 0.61569 0.21508
 C2399 C 0.15621 0.62311 0.25874
 C2400 C 0.16789 0.64724 0.25752
 H2401 H 0.20830 0.58485 0.25351
 H2402 H 0.22969 0.62874 0.25070
 H2403 H 0.17956 0.65159 0.19711
 H2404 H 0.15753 0.60678 0.19902
 H2405 H 0.14008 0.61919 0.27147
 H2406 H 0.16148 0.66376 0.26899
 C2407 C 0.66896 0.10123 0.74182
 C2408 C 0.66832 0.11363 0.71714
 C2409 C 0.68135 0.13890 0.71593
 C2410 C 0.69261 0.14713 0.73963
 C2411 C 0.67076 0.14637 0.75734
 C2412 C 0.65803 0.12124 0.75878
 C2413 C 0.69692 0.10029 0.74837
 C2414 C 0.70980 0.12534 0.74688
 H2415 H 0.65906 0.10470 0.70103
 H2416 H 0.68252 0.15043 0.69899
 H2417 H 0.66484 0.16302 0.76890
 H2418 H 0.64235 0.11753 0.77207
 H2419 H 0.70672 0.08390 0.75733
 H2420 H 0.72997 0.12797 0.75286
 C2421 C 0.83350 0.10818 0.26158
 C2422 C 0.82730 0.11864 0.28809
 C2423 C 0.81286 0.14155 0.28862
 C2424 C 0.80592 0.15212 0.26267
 C2425 C 0.83254 0.15461 0.24937
 C2426 C 0.84696 0.13193 0.24895
 C2427 C 0.80659 0.10611 0.24906
 C2428 C 0.79225 0.12880 0.24971
 H2429 H 0.83455 0.10965 0.30499
 H2430 H 0.80762 0.15153 0.30585
 H2431 H 0.83998 0.17308 0.24193
 H2432 H 0.86675 0.13144 0.24142
 H2433 H 0.79923 0.08807 0.24065
 H2434 H 0.77267 0.12996 0.24188
 C2435 C 0.33671 0.60968 0.76029
 C2436 C 0.33252 0.62111 0.78679
 C2437 C 0.31865 0.64439 0.78752
 C2438 C 0.31025 0.65431 0.76175
 C2439 C 0.33599 0.65574 0.74684
 C2440 C 0.34984 0.63269 0.74621
 C2441 C 0.30898 0.60790 0.74946
 C2442 C 0.29522 0.63093 0.75031
 H2443 H 0.34062 0.61236 0.80347
 H2444 H 0.31476 0.65499 0.80473
 H2445 H 0.34340 0.67380 0.73857
 H2446 H 0.36916 0.63158 0.73770
 H2447 H 0.30066 0.58980 0.74203
 H2448 H 0.27519 0.63231 0.74364
 C2449 C 0.32690 0.39877 0.74487
 C2450 C 0.33826 0.37744 0.76219
 C2451 C 0.32610 0.35359 0.76068
 C2452 C 0.30301 0.35271 0.74238
 C2453 C 0.28517 0.37569 0.75059
 C2454 C 0.29743 0.39954 0.75208
 C2455 C 0.32735 0.38569 0.71883
 C2456 C 0.31488 0.36174 0.71752
 H2457 H 0.35439 0.38083 0.77492
 H2458 H 0.33220 0.33683 0.77183
 H2459 H 0.26468 0.37321 0.75569
 H2460 H 0.28695 0.41661 0.75921
 H2461 H 0.33663 0.39461 0.70271
 H2462 H 0.31371 0.35038 0.70041
 C2463 C 0.82909 0.89771 0.24286
 C2464 C 0.79888 0.89877 0.24543
 C2465 C 0.78706 0.87469 0.24438
 C2466 C 0.80601 0.85132 0.24088
 C2467 C 0.82168 0.85812 0.21727
 C2468 C 0.83371 0.88231 0.21831
 C2469 C 0.83768 0.87832 0.26324
 C2470 C 0.82591 0.85427 0.26210
 H2471 H 0.78718 0.91650 0.24748
 H2472 H 0.76589 0.87250 0.24559
 H2473 H 0.82319 0.84520 0.20117
 H2474 H 0.84536 0.88992 0.20299
 H2475 H 0.85198 0.88312 0.27745
 H2476 H 0.83039 0.83864 0.27522
 C2477 C 0.66771 0.89264 0.76186
 C2478 C 0.65427 0.86794 0.75079
 C2479 C 0.66907 0.84554 0.75162
 C2480 C 0.69603 0.84910 0.76383
 C2481 C 0.70896 0.87189 0.74946
 C2482 C 0.69428 0.89433 0.74834
 C2483 C 0.67483 0.88365 0.78858
 C2484 C 0.68966 0.86097 0.78954
 H2485 H 0.63428 0.86769 0.74390
 H2486 H 0.66173 0.82661 0.74514
 H2487 H 0.72835 0.87059 0.74106
 H2488 H 0.70122 0.91197 0.73896
 H2489 H 0.66774 0.89321 0.80540
 H2490 H 0.69541 0.85192 0.80695
 C2491 C 0.16486 0.39028 0.26049
 C2492 C 0.19237 0.39204 0.24892
 C2493 C 0.20652 0.36929 0.25017
 C2494 C 0.19209 0.34616 0.26270
 C2495 C 0.18396 0.35706 0.28836
 C2496 C 0.16970 0.38008 0.28724
 C2497 C 0.15189 0.36646 0.24749
 C2498 C 0.16612 0.34369 0.24850
 H2499 H 0.20027 0.40994 0.24075
 H2500 H 0.22648 0.36797 0.24310
 H2501 H 0.18834 0.34726 0.30577
 H2502 H 0.16174 0.38939 0.30384
 H2503 H 0.13248 0.36696 0.23930
 H2504 H 0.15892 0.32519 0.24087
 C2505 C 0.10529 0.23185 0.82207
 C2506 C 0.10571 0.22852 0.79367
 C2507 C 0.12986 0.23120 0.78337
 C2508 C 0.15148 0.23695 0.80239
 C2509 C 0.14240 0.26145 0.81671
 C2510 C 0.11837 0.25876 0.82716
 C2511 C 0.12538 0.21135 0.83152
 C2512 C 0.14964 0.21409 0.82117
 H2513 H 0.08852 0.22379 0.78267
 H2514 H 0.13335 0.22879 0.76356
 H2515 H 0.15415 0.27917 0.81901
 H2516 H 0.10961 0.27425 0.83852
 H2517 H 0.12141 0.19572 0.84467
 H2518 H 0.16575 0.20091 0.82567
 C2519 C 0.59619 0.74418 0.30684
 C2520 C 0.61584 0.75694 0.32483
 C2521 C 0.64048 0.75903 0.31556
 C2522 C 0.64332 0.74818 0.28913
 C2523 C 0.63331 0.71959 0.29023
 C2524 C 0.60852 0.71746 0.29939
 C2525 C 0.59786 0.76071 0.28289
 C2526 C 0.62260 0.76301 0.27372
 H2527 H 0.61071 0.76384 0.34337
 H2528 H 0.65645 0.76770 0.32608
 H2529 H 0.64434 0.70263 0.28340
 H2530 H 0.59829 0.69868 0.29994
 H2531 H 0.58105 0.76841 0.27293
 H2532 H 0.62663 0.77320 0.25639
 C2533 C 0.59846 0.25019 0.18325
 C2534 C 0.61303 0.22356 0.18170
 C2535 C 0.63712 0.22386 0.19220
 C2536 C 0.64435 0.25063 0.20354
 C2537 C 0.64145 0.27072 0.18238
 C2538 C 0.61739 0.27057 0.17191
 C2539 C 0.59783 0.25702 0.21124
 C2540 C 0.62200 0.25726 0.22179
 H2541 H 0.60492 0.20586 0.17325
 H2542 H 0.64974 0.20654 0.19261
 H2543 H 0.65662 0.28437 0.17642
 H2544 H 0.61209 0.28414 0.15715
 H2545 H 0.58051 0.26168 0.22213
 H2546 H 0.62497 0.26204 0.24128
 C2547 C 0.10348 0.74138 0.68066
 C2548 C 0.11083 0.76970 0.68819
 C2549 C 0.13354 0.77144 0.70100
 C2550 C 0.14694 0.74468 0.70500
 C2551 C 0.12620 0.72737 0.71794
 C2552 C 0.10342 0.72549 0.70506
 C2553 C 0.12748 0.73050 0.66631
 C2554 C 0.15026 0.73252 0.67903
 H2555 H 0.09897 0.78695 0.68395
 H2556 H 0.14117 0.79013 0.70782
 H2557 H 0.12931 0.71677 0.73519
 H2558 H 0.08748 0.71285 0.71115
 H2559 H 0.12660 0.72026 0.64859
 H2560 H 0.16869 0.72473 0.67185
 C2561 C 0.89838 0.74383 0.67552
 C2562 C 0.89908 0.73436 0.70258
 C2563 C 0.87548 0.73531 0.71425
 C2564 C 0.85325 0.74570 0.69786
 C2565 C 0.86250 0.77268 0.68844
 C2566 C 0.88603 0.77174 0.67655
 C2567 C 0.87695 0.72702 0.66279
 C2568 C 0.85342 0.72781 0.67467
 H2569 H 0.91668 0.72731 0.71178
 H2570 H 0.87284 0.72907 0.73340
 H2571 H 0.85096 0.79069 0.68988
 H2572 H 0.89421 0.78903 0.66749
 H2573 H 0.87913 0.71712 0.64497
 H2574 H 0.83623 0.71804 0.66716
 C2575 C 0.40003 0.25500 0.17945
 C2576 C 0.39418 0.22879 0.19287
 C2577 C 0.37091 0.22863 0.20514
 C2578 C 0.35582 0.25477 0.20325
 C2579 C 0.37503 0.27591 0.21272
 C2580 C 0.39833 0.27595 0.20034
 C2581 C 0.37611 0.26020 0.16291
 C2582 C 0.35297 0.26015 0.17537
 H2583 H 0.40761 0.21212 0.19348
 H2584 H 0.36432 0.21181 0.21597
 H2585 H 0.37134 0.28877 0.22856
 H2586 H 0.41438 0.28839 0.20639
 H2587 H 0.37734 0.26392 0.14307
 H2588 H 0.33434 0.26383 0.16624
 C2589 C 0.39234 0.74426 0.32434
 C2590 C 0.38651 0.77036 0.31093
 C2591 C 0.36359 0.77040 0.29834
 C2592 C 0.34849 0.74438 0.30033
 C2593 C 0.36777 0.72285 0.29142
 C2594 C 0.39064 0.72268 0.30416
 C2595 C 0.36806 0.73920 0.34096
 C2596 C 0.34508 0.73939 0.32828
 H2597 H 0.39934 0.78745 0.31142
 H2598 H 0.35680 0.78746 0.28796
 H2599 H 0.36363 0.70840 0.27701
 H2600 H 0.40580 0.70799 0.30069
 H2601 H 0.36854 0.73379 0.36042
 H2602 H 0.32639 0.73492 0.33708
 C2603 C 0.89902 0.24675 0.81628
 C2604 C 0.87677 0.23712 0.83356
 C2605 C 0.85287 0.23655 0.82258
 C2606 C 0.85348 0.24521 0.79533
 C2607 C 0.86592 0.27276 0.79534
 C2608 C 0.88975 0.27356 0.80635
 C2609 C 0.89775 0.22767 0.79389
 C2610 C 0.87393 0.22702 0.78281
 H2611 H 0.87966 0.23027 0.85245
 H2612 H 0.83537 0.22960 0.83213
 H2613 H 0.85681 0.29014 0.78725
 H2614 H 0.90111 0.29163 0.80771
 H2615 H 0.91318 0.21409 0.78831
 H2616 H 0.86979 0.21357 0.76757
 C2617 C 0.54160 1.00620 0.65080
 C2618 C 0.54170 0.97942 0.63739
 C2619 C 0.53134 0.97999 0.61426
 C2620 C 0.52180 1.00742 0.60595
 C2621 C 0.50215 1.01591 0.62627
 C2622 C 0.51247 1.01529 0.64986
 C2623 C 0.55559 1.02529 0.63292
 C2624 C 0.54542 1.02579 0.60966
 H2625 H 0.54872 0.96124 0.64574
 H2626 H 0.52952 0.96223 0.60301
 H2627 H 0.48222 1.02233 0.62253
 H2628 H 0.50109 1.02158 0.66588
 H2629 H 0.57168 1.03807 0.63836
 H2630 H 0.55292 1.03889 0.59535
 C2631 C 0.04533 0.50609 1.14803
 C2632 C 0.04622 0.48055 1.13532
 C2633 C 0.03621 0.48110 1.11066
 C2634 C 0.02717 0.50715 1.10273
 C2635 C 0.00760 0.51501 1.12134
 C2636 C 0.01761 0.51452 1.14649
 C2637 C 0.05907 0.52458 1.13157
 C2638 C 0.04926 0.52495 1.10676
 H2639 H 0.05264 0.46228 1.14397
 H2640 H 0.03447 0.46327 1.09949
 H2641 H -0.01174 0.52258 1.11684
 H2642 H 0.00632 0.52282 1.16176
 H2643 H 0.07390 0.53850 1.13776
 H2644 H 0.05641 0.53884 1.09294
 C2645 C -0.04556 -0.00906 1.15182
 C2646 C -0.06009 -0.02761 1.13367
 C2647 C -0.05045 -0.02749 1.11008
 C2648 C -0.02673 -0.00928 1.10634
 C2649 C -0.03580 0.01799 1.11574
 C2650 C -0.04564 0.01807 1.13917
 C2651 C -0.01658 -0.01850 1.14972
 C2652 C -0.00678 -0.01853 1.12587
 H2653 H -0.07602 -0.04061 1.13915
 H2654 H -0.05828 -0.04017 1.09558
 H2655 H -0.03406 0.03602 1.10497
 H2656 H -0.05228 0.03615 1.14819
 H2657 H -0.00505 -0.02594 1.16506
 H2658 H 0.01287 -0.02539 1.12134
 C2659 C 0.45374 0.48761 0.64978
 C2660 C 0.43872 0.46960 0.63160
 C2661 C 0.44846 0.46950 0.60803
 C2662 C 0.47267 0.48708 0.60441
 C2663 C 0.46426 0.51455 0.61390
 C2664 C 0.45434 0.51476 0.63729
 C2665 C 0.48244 0.47749 0.64779
 C2666 C 0.49233 0.47726 0.62396
 H2667 H 0.42234 0.45717 0.63703
 H2668 H 0.44028 0.45715 0.59345
 H2669 H 0.46648 0.53259 0.60322
 H2670 H 0.44808 0.53291 0.64641
 H2671 H 0.49375 0.47007 0.66329
 H2672 H 0.51189 0.47010 0.61951
 C2673 C 0.45874 0.50865 -0.15119
 C2674 C 0.48247 0.52759 -0.14812
 C2675 C 0.49171 0.52936 -0.12419
 C2676 C 0.47647 0.51210 -0.10561
 C2677 C 0.44772 0.52074 -0.10860
 C2678 C 0.43853 0.51881 -0.13216
 C2679 C 0.46879 0.48238 -0.14050
 C2680 C 0.47781 0.48416 -0.11685
 H2681 H 0.49193 0.53796 -0.16329
 H2682 H 0.50845 0.54144 -0.11919
 H2683 H 0.43568 0.52832 -0.09344
 H2684 H 0.41869 0.52468 -0.13698
 H2685 H 0.46957 0.46401 -0.15096
 H2686 H 0.48607 0.46726 -0.10724
 C2687 C -0.04377 1.00700 0.35144
 C2688 C -0.01999 1.02563 0.35538
 C2689 C -0.01159 1.02708 0.37957
 C2690 C -0.02760 1.00981 0.39756
 C2691 C -0.05615 1.01875 0.39379
 C2692 C -0.06453 1.01716 0.36993
 C2693 C -0.03436 0.98050 0.36222
 C2694 C -0.02617 0.98196 0.38618
 H2695 H -0.00983 1.03596 0.34059
 H2696 H 0.00513 1.03892 0.38515
 H2697 H -0.06864 1.02620 0.40867
 H2698 H -0.08416 1.02321 0.36456
 H2699 H -0.03339 0.96222 0.35162
 H2700 H -0.01845 0.96489 0.39593
 C2701 C 0.04189 0.48838 0.34774
 C2702 C 0.06292 0.47857 0.36588
 C2703 C 0.05454 0.47637 0.38976
 C2704 C 0.02574 0.48442 0.39391
 C2705 C 0.02352 0.51237 0.38304
 C2706 C 0.03170 0.51441 0.35908
 C2707 C 0.01865 0.46899 0.35150
 C2708 C 0.01024 0.46695 0.37574
 H2709 H 0.08271 0.47317 0.36023
 H2710 H 0.06721 0.46905 0.40439
 H2711 H 0.01524 0.52907 0.39315
 H2712 H 0.03015 0.53280 0.34884
 H2713 H 0.00887 0.45855 0.33658
 H2714 H -0.00612 0.45454 0.38124
 C2715 C 0.53955 -0.00645 -0.15230
 C2716 C 0.51425 -0.02325 -0.14964
 C2717 C 0.50486 -0.02497 -0.12569
 C2718 C 0.52156 -0.00974 -0.10671
 C2719 C 0.54946 -0.02081 -0.11035
 C2720 C 0.55880 -0.01892 -0.13390
 C2721 C 0.53179 0.02028 -0.14061
 C2722 C 0.52267 0.01855 -0.11692
 H2723 H 0.50397 -0.03215 -0.16515
 H2724 H 0.48706 -0.03559 -0.12092
 H2725 H 0.56080 -0.02990 -0.09562
 H2726 H 0.57808 -0.02631 -0.13915
 H2727 H 0.53223 0.03894 -0.15050
 H2728 H 0.51572 0.03576 -0.10668
 C2729 C 0.64548 0.58619 -0.01040
 C2730 C 0.62228 0.60008 0.00280
 C2731 C 0.59932 0.58639 0.00208
 C2732 C 0.60096 0.56002 -0.01209
 C2733 C 0.61175 0.56760 -0.03787
 C2734 C 0.63497 0.58130 -0.03702
 C2735 C 0.64664 0.55857 0.00123
 C2736 C 0.62367 0.54495 0.00026
 H2737 H 0.62334 0.61969 0.01095
 H2738 H 0.58123 0.59426 0.00991
 H2739 H 0.60178 0.56324 -0.05518
 H2740 H 0.64425 0.58881 -0.05374
 H2741 H 0.66429 0.55020 0.00927
 H2742 H 0.62190 0.52500 0.00744
 C2743 C 0.13984 1.08544 0.49188
 C2744 C 0.11655 1.10031 0.50395
 C2745 C 0.09349 1.08679 0.50364
 C2746 C 0.09513 1.05958 0.49098
 C2747 C 0.10642 1.06544 0.46499
 C2748 C 0.12974 1.07897 0.46542
 C2749 C 0.14056 1.05859 0.50506
 C2750 C 0.11749 1.04513 0.50449
 H2751 H 0.11768 1.12036 0.51108
 H2752 H 0.07534 1.09524 0.51080
 H2753 H 0.09671 1.06008 0.44779
 H2754 H 0.13932 1.08536 0.44844
 H2755 H 0.15800 1.05061 0.51382
 H2756 H 0.11541 1.02569 0.51275
 C2757 C 0.14707 -0.07358 1.01215
 C2758 C 0.12796 -0.08091 0.99119
 C2759 C 0.10460 -0.06795 0.99213
 C2760 C 0.10191 -0.04815 1.01376
 C2761 C 0.10745 -0.06467 1.03711
 C2762 C 0.13098 -0.07785 1.03632
 C2763 C 0.14938 -0.04307 1.01055
 C2764 C 0.12591 -0.03007 1.01124
 H2765 H 0.13239 -0.09536 0.97677
 H2766 H 0.08925 -0.07160 0.97863
 H2767 H 0.09425 -0.06578 1.05297
 H2768 H 0.13769 -0.08997 1.05165
 H2769 H 0.16750 -0.03199 1.01076
 H2770 H 0.12463 -0.00865 1.01136
 C2771 C 0.64789 0.42461 0.51158
 C2772 C 0.62923 0.41721 0.49025
 C2773 C 0.60569 0.42987 0.49091
 C2774 C 0.60236 0.44944 0.51264
 C2775 C 0.60772 0.43281 0.53596
 C2776 C 0.63142 0.41995 0.53545
 C2777 C 0.64983 0.45515 0.51018
 C2778 C 0.62618 0.46784 0.51062
 H2779 H 0.63412 0.40300 0.47576
 H2780 H 0.59064 0.42620 0.47711
 H2781 H 0.59427 0.43141 0.55161
 H2782 H 0.63801 0.40779 0.55080
 H2783 H 0.66781 0.46647 0.51046
 H2784 H 0.62463 0.48925 0.51070
 C2785 C -0.14577 0.41642 0.48817
 C2786 C -0.13104 0.41489 0.46286
 C2787 C -0.10721 0.42741 0.46260
 C2788 C -0.10010 0.44057 0.48745
 C2789 C -0.12357 0.45879 0.49327
 C2790 C -0.14725 0.44631 0.49355
 C2791 C -0.12586 0.40577 0.50703
 C2792 C -0.10221 0.41820 0.50662
 H2793 H -0.13888 0.40613 0.44609
 H2794 H -0.09511 0.42857 0.44598
 H2795 H -0.12176 0.47993 0.49635
 H2796 H -0.16549 0.45692 0.49676
 H2797 H -0.12995 0.38945 0.51952
 H2798 H -0.08624 0.41240 0.51875
 C2799 C 0.35030 -0.07778 -0.01158
 C2800 C 0.36293 -0.07578 -0.03781
 C2801 C 0.38670 -0.06318 -0.03828
 C2802 C 0.39577 -0.05341 -0.01263
 C2803 C 0.37288 -0.03623 -0.00309
 C2804 C 0.34925 -0.04882 -0.00264
 C2805 C 0.37157 -0.09074 0.00441
 C2806 C 0.39512 -0.07821 0.00381
 H2807 H 0.35357 -0.08223 -0.05483
 H2808 H 0.39743 -0.05965 -0.05543
 H2809 H 0.37496 -0.01561 0.00216
 H2810 H 0.33130 -0.03871 0.00279
 H2811 H 0.36843 -0.10861 0.01512
 H2812 H 0.41199 -0.08549 0.01399
 C2813 C 0.34969 1.07591 0.51095
 C2814 C 0.36309 1.07684 0.53667
 C2815 C 0.38703 1.06443 0.53759
 C2816 C 0.39566 1.05214 0.51267
 C2817 C 0.37287 1.03393 0.50534
 C2818 C 0.34901 1.04614 0.50436
 C2819 C 0.37039 1.08722 0.49301
 C2820 C 0.39419 1.07513 0.49409
 H2821 H 0.35436 1.08635 0.55283
 H2822 H 0.39860 1.06350 0.55445
 H2823 H 0.37534 1.01309 0.50101
 H2824 H 0.33176 1.03523 0.49882
 H2825 H 0.36662 1.10346 0.48037
 H2826 H 0.41059 1.08135 0.48255
 C2827 C -0.14511 0.57489 1.00868
 C2828 C -0.13142 0.57581 1.03426
 C2829 C -0.10754 0.56329 1.03497
 C2830 C -0.09926 0.55087 1.01001
 C2831 C -0.12223 0.53275 1.00296
 C2832 C -0.14604 0.54510 1.00221
 C2833 C -0.12455 0.58603 0.99051
 C2834 C -0.10081 0.57381 0.99137
 H2835 H -0.13993 0.58540 1.05049
 H2836 H -0.09580 0.56234 1.05172
 H2837 H -0.11993 0.51186 0.99882
 H2838 H -0.16346 0.53420 0.99714
 H2839 H -0.12836 0.60230 0.97791
 H2840 H -0.08450 0.57994 0.97969
 C2841 C 0.00479 0.65006 0.55674
 C2842 C -0.00635 0.64974 0.53011
 C2843 C -0.00756 0.62509 0.52000
 C2844 C 0.00246 0.60322 0.53743
 C2845 C 0.03038 0.61168 0.54432
 C2846 C 0.03160 0.63621 0.55444
 C2847 C -0.01286 0.63068 0.57117
 C2848 C -0.01384 0.60617 0.56119
 H2849 H -0.01283 0.66683 0.51976
 H2850 H -0.01480 0.62166 0.50132
 H2851 H 0.04776 0.59969 0.54100
 H2852 H 0.05005 0.64524 0.55978
 H2853 H -0.02410 0.63600 0.58766
 H2854 H -0.02574 0.59051 0.56914
 C2855 C 0.51403 0.14301 0.06832
 C2856 C 0.53050 0.12202 0.08200
 C2857 C 0.52862 0.09742 0.07194
 C2858 C 0.51076 0.09636 0.04900
 C2859 C 0.48433 0.10752 0.05772
 C2860 C 0.48603 0.13193 0.06773
 C2861 C 0.52406 0.14150 0.04128
 C2862 C 0.52216 0.11701 0.03114
 H2863 H 0.54345 0.12628 0.09745
 H2864 H 0.53965 0.08073 0.07907
 H2865 H 0.46582 0.09702 0.05629
 H2866 H 0.46892 0.14243 0.07481
 H2867 H 0.53378 0.15748 0.03153
 H2868 H 0.52962 0.11238 0.01267
 C2869 C -0.01229 0.15773 0.94281
 C2870 C -0.00473 0.15878 0.97057
 C2871 C -0.00271 0.13447 0.98118
 C2872 C -0.00850 0.11156 0.96311
 C2873 C -0.03598 0.11759 0.95297
 C2874 C -0.03796 0.14179 0.94234
 C2875 C 0.00858 0.13959 0.93083
 C2876 C 0.01036 0.11546 0.94130
 H2877 H -0.00200 0.17656 0.98148
 H2878 H 0.00179 0.13193 1.00073
 H2879 H -0.05263 0.10433 0.95463
 H2880 H -0.05630 0.14924 0.93489
 H2881 H 0.02128 0.14547 0.91556
 H2882 H 0.02440 0.10069 0.93496
 C2883 C 0.49758 0.65598 0.44108
 C2884 C 0.50735 0.65672 0.46820
 C2885 C 0.50731 0.63260 0.47933
 C2886 C 0.49752 0.61015 0.46234
 C2887 C 0.47025 0.61910 0.45385
 C2888 C 0.47028 0.64311 0.44274
 C2889 C 0.51530 0.63532 0.42825
 C2890 C 0.51506 0.61137 0.43923
 H2891 H 0.51363 0.67417 0.47820
 H2892 H 0.51337 0.62993 0.49848
 H2893 H 0.45239 0.60784 0.45686
 H2894 H 0.45238 0.65244 0.43623
 H2895 H 0.52745 0.63938 0.41206
 H2896 H 0.52685 0.59493 0.43241
 C2897 C 0.51199 0.85796 0.42272
 C2898 C 0.50347 0.88197 0.40720
 C2899 C 0.50093 0.90456 0.42058
 C2900 C 0.50772 0.90132 0.44815
 C2901 C 0.48985 0.87907 0.45758
 C2902 C 0.49217 0.85646 0.44429
 C2903 C 0.53792 0.86683 0.43487
 C2904 C 0.53556 0.88959 0.44830
 H2905 H 0.50029 0.88140 0.38726
 H2906 H 0.49527 0.92320 0.41216
 H2907 H 0.47669 0.88066 0.47344
 H2908 H 0.48105 0.83884 0.44891
 H2909 H 0.55680 0.85731 0.43225
 H2910 H 0.55214 0.89887 0.45743
 C2911 C 0.01884 0.35579 0.92278
 C2912 C 0.02864 0.37905 0.90700
 C2913 C 0.02663 0.40284 0.91856
 C2914 C 0.01506 0.40114 0.94499
 C2915 C -0.01133 0.38712 0.94191
 C2916 C -0.00933 0.36330 0.93065
 C2917 C 0.03473 0.35754 0.94712
 C2918 C 0.03265 0.38141 0.95869
 H2919 H 0.03664 0.37694 0.88835
 H2920 H 0.03274 0.42103 0.90963
 H2921 H -0.03000 0.39505 0.94831
 H2922 H -0.02633 0.35077 0.92776
 H2923 H 0.04629 0.34180 0.95513
 H2924 H 0.04253 0.38579 0.97607
 C2925 C 0.49828 0.34951 0.05881
 C2926 C 0.47246 0.35886 0.04672
 C2927 C 0.47406 0.38353 0.03689
 C2928 C 0.50109 0.39642 0.04007
 C2929 C 0.50646 0.39580 0.06802
 C2930 C 0.50468 0.37133 0.07790
 C2931 C 0.51911 0.35218 0.03825
 C2932 C 0.52069 0.37672 0.02845
 H2933 H 0.45425 0.34792 0.04617
 H2934 H 0.45752 0.39312 0.02796
 H2935 H 0.51079 0.41316 0.07919
 H2936 H 0.50726 0.36784 0.09765
 H2937 H 0.53141 0.33598 0.03177
 H2938 H 0.53452 0.38141 0.01371
 C2939 C -0.00857 0.85475 0.57249
 C2940 C -0.03474 0.86335 0.56062
 C2941 C -0.03329 0.88703 0.54881
 C2942 C -0.00607 0.89989 0.55014
 C2943 C 0.00024 0.90154 0.57794
 C2944 C -0.00136 0.87798 0.58972
 C2945 C 0.01159 0.85557 0.55116
 C2946 C 0.01298 0.87914 0.53947
 H2947 H -0.05324 0.85301 0.56235
 H2948 H -0.05021 0.89622 0.54014
 H2949 H 0.00495 0.91977 0.58766
 H2950 H 0.00168 0.87615 0.60960
 H2951 H 0.02364 0.83881 0.54559
 H2952 H 0.02631 0.88245 0.52399
 C2953 C 0.26367 0.29671 0.10208
 C2954 C 0.23671 0.29491 0.11470
 C2955 C 0.23725 0.28469 0.13793
 C2956 C 0.26482 0.27723 0.14714
 C2957 C 0.27543 0.25803 0.12724
 C2958 C 0.27487 0.26820 0.10357
 C2959 C 0.28089 0.31235 0.12041
 C2960 C 0.28132 0.30233 0.14381
 H2961 H 0.21849 0.30060 0.10578
 H2962 H 0.21943 0.28164 0.14869
 H2963 H 0.28333 0.23861 0.13135
 H2964 H 0.28275 0.25727 0.08786
 H2965 H 0.29261 0.32936 0.11519
 H2966 H 0.29323 0.31091 0.15843
 C2967 C 0.75802 0.79423 0.60098
 C2968 C 0.73169 0.79457 0.61488
 C2969 C 0.73271 0.78458 0.63819
 C2970 C 0.76012 0.77515 0.64616
 C2971 C 0.76818 0.75501 0.62601
 C2972 C 0.76710 0.76496 0.60227
 C2973 C 0.77729 0.80868 0.61828
 C2974 C 0.77823 0.79889 0.64173
 H2975 H 0.71346 0.80148 0.60675
 H2976 H 0.71530 0.78297 0.64981
 H2977 H 0.77468 0.73504 0.62997
 H2978 H 0.77308 0.75322 0.58633
 H2979 H 0.78985 0.82480 0.61233
 H2980 H 0.79146 0.80674 0.65568
 C2981 C 0.23644 0.70318 0.60135
 C2982 C 0.21897 0.68788 0.61982
 C2983 C 0.21909 0.69771 0.64337
 C2984 C 0.23629 0.72232 0.64670
 C2985 C 0.26354 0.71415 0.63689
 C2986 C 0.26356 0.70412 0.61351
 C2987 C 0.22606 0.73195 0.60341
 C2988 C 0.22602 0.74193 0.62720
 H2989 H 0.20670 0.67127 0.61460
 H2990 H 0.20714 0.68933 0.65813
 H2991 H 0.28154 0.71655 0.64737
 H2992 H 0.28152 0.69795 0.60418
 H2993 H 0.21834 0.74319 0.58796
 H2994 H 0.21870 0.76154 0.63169
 C2995 C 0.73625 0.20313 0.10115
 C2996 C 0.76322 0.20332 0.11364
 C2997 C 0.76318 0.21350 0.13698
 C2998 C 0.73606 0.22256 0.14640
 C2999 C 0.72667 0.24237 0.12667
 C3000 C 0.72675 0.23223 0.10292
 C3001 C 0.71807 0.18851 0.11947
 C3002 C 0.71816 0.19848 0.14296
 H3003 H 0.78112 0.19657 0.10457
 H3004 H 0.78111 0.21544 0.14767
 H3005 H 0.71997 0.26225 0.13097
 H3006 H 0.71966 0.24365 0.08732
 H3007 H 0.70543 0.17220 0.11420
 H3008 H 0.70574 0.19056 0.15760
 C3009 C 0.75579 0.20376 0.90098
 C3010 C 0.72973 0.21318 0.88970
 C3011 C 0.73176 0.22174 0.86586
 C3012 C 0.75972 0.22062 0.85504
 C3013 C 0.77626 0.23666 0.87355
 C3014 C 0.77424 0.22789 0.89764
 C3015 C 0.76651 0.18314 0.88252
 C3016 C 0.76869 0.19188 0.85878
 H3017 H 0.71129 0.21391 0.89988
 H3018 H 0.71502 0.22954 0.85583
 H3019 H 0.78804 0.25364 0.86837
 H3020 H 0.78405 0.23799 0.91275
 H3021 H 0.77250 0.16335 0.88785
 H3022 H 0.77658 0.17953 0.84397
 C3023 C 0.25370 0.70631 0.40077
 C3024 C 0.22724 0.71559 0.39020
 C3025 C 0.22852 0.72430 0.36636
 C3026 C 0.25617 0.72347 0.35486
 C3027 C 0.27312 0.73952 0.37303
 C3028 C 0.27186 0.73059 0.39711
 C3029 C 0.26406 0.68589 0.38194
 C3030 C 0.26547 0.69478 0.35821
 H3031 H 0.20909 0.71609 0.40085
 H3032 H 0.21144 0.73201 0.35677
 H3033 H 0.28462 0.75662 0.36766
 H3034 H 0.28205 0.74067 0.41201
 H3035 H 0.27038 0.66613 0.38701
 H3036 H 0.27304 0.68258 0.34314
 C3037 C 0.73912 0.79532 0.40117
 C3038 C 0.72874 0.81625 0.38308
 C3039 C 0.72658 0.80777 0.35921
 C3040 C 0.73523 0.77896 0.35503
 C3041 C 0.76312 0.77741 0.36570
 C3042 C 0.76512 0.78569 0.38964
 C3043 C 0.72042 0.77145 0.39758
 C3044 C 0.71842 0.76292 0.37337
 H3045 H 0.72297 0.83606 0.38875
 H3046 H 0.71892 0.82035 0.34462
 H3047 H 0.77983 0.76949 0.35548
 H3048 H 0.78349 0.78458 0.39973
 H3049 H 0.71042 0.76132 0.41259
 H3050 H 0.70648 0.74613 0.36798
 C3051 C 0.24855 0.29018 0.90399
 C3052 C 0.27489 0.28239 0.89186
 C3053 C 0.27281 0.27358 0.86810
 C3054 C 0.24458 0.27274 0.85824
 C3055 C 0.22964 0.25571 0.87724
 C3056 C 0.23170 0.26482 0.90128
 C3057 C 0.23600 0.30988 0.88598
 C3058 C 0.23376 0.30082 0.86235
 H3059 H 0.29354 0.28254 0.90152
 H3060 H 0.28972 0.26660 0.85758
 H3061 H 0.21894 0.23791 0.87241
 H3062 H 0.22300 0.25431 0.91679
 H3063 H 0.22882 0.32925 0.89155
 H3064 H 0.22457 0.31250 0.84788
 C3065 C 0.82927 0.39306 0.76001
 C3066 C 0.79922 0.39434 0.75619
 C3067 C 0.78704 0.37041 0.75707
 C3068 C 0.80548 0.34689 0.76161
 C3069 C 0.82657 0.34922 0.74116
 C3070 C 0.83868 0.37313 0.74020
 C3071 C 0.83238 0.37810 0.78485
 C3072 C 0.81998 0.35406 0.78571
 H3073 H 0.78793 0.41209 0.75294
 H3074 H 0.76598 0.36839 0.75475
 H3075 H 0.83157 0.33330 0.72839
 H3076 H 0.85375 0.37746 0.72647
 H3077 H 0.84334 0.38586 0.80050
 H3078 H 0.82052 0.34146 0.80198
 C3079 C 0.32910 0.89355 0.25884
 C3080 C 0.30117 0.89503 0.25217
 C3081 C 0.28784 0.87015 0.25339
 C3082 C 0.30462 0.84805 0.26060
 C3083 C 0.32659 0.84858 0.24301
 C3084 C 0.33976 0.87349 0.24180
 C3085 C 0.32938 0.88096 0.28343
 C3086 C 0.31590 0.85593 0.28440
 H3087 H 0.29167 0.91170 0.24340
 H3088 H 0.26767 0.86788 0.24729
 H3089 H 0.33232 0.83194 0.23135
 H3090 H 0.35555 0.87702 0.22859
 H3091 H 0.33865 0.88962 0.29966
 H3092 H 0.31439 0.84434 0.30129
 C3093 C 0.16378 0.89404 0.73998
 C3094 C 0.15100 0.87076 0.75393
 C3095 C 0.16529 0.84803 0.75336
 C3096 C 0.19109 0.84995 0.73860
 C3097 C 0.18267 0.85976 0.71278
 C3098 C 0.16836 0.88277 0.71347
 C3099 C 0.19142 0.89633 0.75099
 C3100 C 0.20563 0.87356 0.75017
 H3101 H 0.13162 0.87148 0.76235
 H3102 H 0.15820 0.82983 0.76165
 H3103 H 0.18697 0.84931 0.69558
 H3104 H 0.16026 0.89141 0.69676
 H3105 H 0.19933 0.91457 0.75850
 H3106 H 0.22564 0.87252 0.75695
 C3107 C 0.66491 0.39485 0.23921
 C3108 C 0.65046 0.37144 0.25138
 C3109 C 0.66423 0.34838 0.25118
 C3110 C 0.69124 0.35017 0.23851
 C3111 C 0.68529 0.36107 0.21246
 C3112 C 0.67151 0.38439 0.21278
 C3113 C 0.69154 0.39607 0.25238
 C3114 C 0.70526 0.37299 0.25192
 H3115 H 0.63055 0.37251 0.25858
 H3116 H 0.65611 0.33013 0.25846
 H3117 H 0.69075 0.35107 0.19531
 H3118 H 0.66498 0.39366 0.19575
 H3119 H 0.69919 0.41385 0.26104
 H3120 H 0.72459 0.37121 0.26016
 C3121 C 0.67282 0.60427 0.25954
 C3122 C 0.66506 0.62369 0.23893
 C3123 C 0.67721 0.64751 0.24025
 C3124 C 0.69666 0.65021 0.26188
 C3125 C 0.68029 0.64380 0.28517
 C3126 C 0.66788 0.61982 0.28395
 C3127 C 0.70307 0.60264 0.25768
 C3128 C 0.71531 0.62652 0.25887
 H3129 H 0.65098 0.61911 0.22446
 H3130 H 0.67324 0.66316 0.22702
 H3131 H 0.67863 0.65680 0.30119
 H3132 H 0.65576 0.61246 0.29905
 H3133 H 0.71448 0.58464 0.25635
 H3134 H 0.73654 0.62835 0.25834
 C3135 C 0.17692 0.10171 0.75988
 C3136 C 0.16727 0.12309 0.74184
 C3137 C 0.18033 0.14639 0.74350
 C3138 C 0.20257 0.14669 0.76275
 C3139 C 0.18911 0.13864 0.78721
 C3140 C 0.17575 0.11521 0.78570
 C3141 C 0.20664 0.09949 0.75416
 C3142 C 0.21983 0.12286 0.75571
 H3143 H 0.15139 0.12016 0.72874
 H3144 H 0.17526 0.16323 0.73199
 H3145 H 0.18999 0.15021 0.80421
 H3146 H 0.16535 0.10691 0.80150
 H3147 H 0.21685 0.08156 0.74887
 H3148 H 0.24076 0.12430 0.75208
 C3149 C 0.33345 0.10321 0.23772
 C3150 C 0.33439 0.11813 0.21257
 C3151 C 0.32220 0.14230 0.21295
 C3152 C 0.30994 0.14953 0.23825
 C3153 C 0.29178 0.12615 0.24427
 C3154 C 0.30392 0.10212 0.24389
 C3155 C 0.34479 0.12300 0.25653
 C3156 C 0.33269 0.14699 0.25676
 H3157 H 0.34254 0.11014 0.19549
 H3158 H 0.32070 0.15459 0.19652
 H3159 H 0.27090 0.12827 0.24792
 H3160 H 0.29326 0.08389 0.24709
 H3161 H 0.36131 0.11857 0.26851
 H3162 H 0.33897 0.16293 0.26892
 C3163 C 0.82987 0.60195 0.73784
 C3164 C 0.84238 0.62293 0.75469
 C3165 C 0.82991 0.64672 0.75463
 C3166 C 0.80562 0.64789 0.73781
 C3167 C 0.81584 0.63937 0.71206
 C3168 C 0.82839 0.61538 0.71199
 C3169 C 0.80094 0.60080 0.74628
 C3170 C 0.78842 0.62465 0.74636
 H3171 H 0.85992 0.61943 0.76560
 H3172 H 0.83691 0.66341 0.76545
 H3173 H 0.81265 0.65061 0.69519
 H3174 H 0.83513 0.60641 0.69478
 H3175 H 0.79087 0.58263 0.75109
 H3176 H 0.76786 0.62669 0.75140
 C3177 C 0.90196 0.75680 0.19066
 C3178 C 0.90274 0.74570 0.21590
 C3179 C 0.87754 0.74513 0.22777
 C3180 C 0.85653 0.75549 0.21208
 C3181 C 0.86471 0.78211 0.20536
 C3182 C 0.88975 0.78284 0.19352
 C3183 C 0.88271 0.74032 0.17765
 C3184 C 0.85767 0.73990 0.18930
 H3185 H 0.91907 0.73509 0.22398
 H3186 H 0.87449 0.73562 0.24562
 H3187 H 0.85366 0.79991 0.20982
 H3188 H 0.89908 0.80132 0.18831
 H3189 H 0.88719 0.72788 0.16166
 H3190 H 0.84176 0.72757 0.18256
 C3191 C 0.39853 0.27232 0.68445
 C3192 C 0.37707 0.28965 0.67267
 C3193 C 0.35298 0.28639 0.68306
 C3194 C 0.35269 0.26635 0.70454
 C3195 C 0.36403 0.24083 0.69361
 C3196 C 0.38797 0.24392 0.68318
 C3197 C 0.39758 0.27985 0.71225
 C3198 C 0.37348 0.27658 0.72277
 H3199 H 0.38070 0.30406 0.65815
 H3200 H 0.33612 0.29789 0.67719
 H3201 H 0.35406 0.22188 0.69404
 H3202 H 0.39859 0.22751 0.67474
 H3203 H 0.41353 0.28888 0.72245
 H3204 H 0.36925 0.28218 0.74188
 C3205 C 0.40303 0.74033 0.80351
 C3206 C 0.38712 0.71455 0.80334
 C3207 C 0.36236 0.71744 0.79467
 C3208 C 0.35575 0.74587 0.78697
 C3209 C 0.36139 0.76306 0.80967
 C3210 C 0.38613 0.76040 0.81819
 C3211 C 0.40198 0.75021 0.77643
 C3212 C 0.37710 0.75314 0.76779
 H3213 H 0.39495 0.69551 0.80893
 H3214 H 0.34897 0.70088 0.79285
 H3215 H 0.34735 0.77671 0.81795
 H3216 H 0.39328 0.77199 0.83378
 H3217 H 0.41875 0.75417 0.76462
 H3218 H 0.37314 0.75949 0.74892
 C3219 C 0.89675 0.24231 0.31170
 C3220 C 0.88259 0.26877 0.31615
 C3221 C 0.85797 0.26962 0.30700
 C3222 C 0.84969 0.24401 0.29413
 C3223 C 0.87080 0.23864 0.27421
 C3224 C 0.89559 0.23772 0.28338
 C3225 C 0.87835 0.22103 0.32247
 C3226 C 0.85360 0.22206 0.31343
 H3227 H 0.89136 0.28554 0.32562
 H3228 H 0.84554 0.28701 0.30870
 H3229 H 0.86649 0.23455 0.25482
 H3230 H 0.91207 0.23223 0.27165
 H3231 H 0.88454 0.20582 0.33537
 H3232 H 0.83872 0.20779 0.31873
 C3233 C 0.10326 0.25345 0.31396
 C3234 C 0.12513 0.24664 0.33259
 C3235 C 0.14933 0.24501 0.32223
 C3236 C 0.14963 0.25091 0.29433
 C3237 C 0.13002 0.23141 0.28279
 C3238 C 0.10578 0.23284 0.29306
 C3239 C 0.11235 0.27968 0.30216
 C3240 C 0.13672 0.27821 0.29182
 H3241 H 0.12189 0.24381 0.35237
 H3242 H 0.16673 0.24051 0.33304
 H3243 H 0.13455 0.21774 0.26777
 H3244 H 0.08970 0.22053 0.28672
 H3245 H 0.10166 0.29818 0.30267
 H3246 H 0.14624 0.29513 0.28330
 C3247 C 0.60679 0.76289 0.81989
 C3248 C 0.62853 0.77361 0.83687
 C3249 C 0.65296 0.77187 0.82685
 C3250 C 0.65332 0.75958 0.80068
 C3251 C 0.63975 0.73278 0.80348
 C3252 C 0.61531 0.73452 0.81313
 C3253 C 0.60990 0.77834 0.79536
 C3254 C 0.63439 0.77654 0.78537
 H3255 H 0.62493 0.78204 0.85517
 H3256 H 0.67025 0.77866 0.83668
 H3257 H 0.64844 0.71401 0.79801
 H3258 H 0.60301 0.71721 0.81554
 H3259 H 0.59454 0.78915 0.78595
 H3260 H 0.63970 0.78602 0.76799
 C3261 C 0.60033 0.24618 0.68650
 C3262 C 0.60099 0.23241 0.71207
 C3263 C 0.62538 0.23158 0.72227
 C3264 C 0.64660 0.24462 0.70612
 C3265 C 0.64499 0.23057 0.68079
 C3266 C 0.62078 0.23140 0.67061
 C3267 C 0.61227 0.27361 0.69153
 C3268 C 0.63660 0.27275 0.70146
 H3269 H 0.58400 0.22522 0.72213
 H3270 H 0.62907 0.22317 0.74047
 H3271 H 0.66129 0.22066 0.67159
 H3272 H 0.61646 0.22213 0.65286
 H3273 H 0.60223 0.29216 0.68802
 H3274 H 0.64746 0.29053 0.70610
 C3275 C 0.10218 0.74300 0.17887
 C3276 C 0.11044 0.71661 0.19089
 C3277 C 0.13368 0.71801 0.20313
 C3278 C 0.14651 0.74540 0.20207
 C3279 C 0.14875 0.75183 0.17430
 C3280 C 0.12564 0.75027 0.16209
 C3281 C 0.10255 0.76326 0.20023
 C3282 C 0.12572 0.76458 0.21238
 H3283 H 0.10019 0.69800 0.18898
 H3284 H 0.14257 0.70095 0.21198
 H3285 H 0.16706 0.75660 0.16492
 H3286 H 0.12428 0.75340 0.14218
 H3287 H 0.08581 0.77540 0.20550
 H3288 H 0.12870 0.77793 0.22795
   
