data_POSCAR
  _audit_creation_date              2014-09-24
  _audit_creation_method            'ToBaCCo'
  _symmetry_space_group_name_H-M    'P1'
  _symmetry_Int_Tables_number       1
  _symmetry_cell_setting            triclinic
  loop_
  _symmetry_equiv_pos_as_xyz
 x,y,z
_cell_length_a 67.9866
_cell_length_b 67.9598
_cell_length_c 67.4080
_cell_angle_alpha 90.116900
_cell_angle_beta 89.948600
_cell_angle_gamma 90.123000
loop_
  _atom_site_label
  _atom_site_type_symbol
  _atom_site_fract_x
  _atom_site_fract_y
  _atom_site_fract_z
O1 O 0.31896 0.34664 0.02070
 O2 O 0.34709 0.32158 -0.01833
 O3 O 0.31949 0.34814 -0.01776
 O4 O 0.34650 0.32010 0.01998
 O5 O 0.32408 0.29663 0.01867
 O6 O 0.29687 0.32490 -0.01902
 O7 O 0.32461 0.29818 -0.01981
 O8 O 0.29637 0.32332 0.01954
 Cu9 Cu 0.33523 0.33646 0.00126
 Cu10 Cu 0.30820 0.30843 -0.00030
 C11 C 0.30280 0.33940 0.02674
 C12 C 0.34087 0.30546 -0.02557
 C13 C 0.30343 0.34149 -0.02475
 C14 C 0.34008 0.30345 0.02562
 O15 O 0.65352 0.68192 -0.01875
 O16 O 0.68067 0.65564 0.02008
 O17 O 0.65414 0.68317 0.01972
 O18 O 0.68018 0.65438 -0.01822
 O19 O 0.70350 0.67691 -0.01953
 O20 O 0.67745 0.70577 0.01877
 O21 O 0.70416 0.67805 0.01896
 O22 O 0.67674 0.70460 -0.01982
 Cu23 Cu 0.66478 0.66656 0.00079
 Cu24 Cu 0.69279 0.69362 -0.00052
 C25 C 0.66033 0.69785 -0.02581
 C26 C 0.69719 0.66215 0.02599
 C27 C 0.66123 0.69944 0.02569
 C28 C 0.69646 0.66047 -0.02520
 O29 O 0.68315 0.34324 0.98002
 O30 O 0.65655 0.31499 1.01787
 O31 O 0.68314 0.34256 1.01834
 O32 O 0.65652 0.31559 0.97939
 O33 O 0.67974 0.29299 0.97892
 O34 O 0.70659 0.32023 1.01784
 O35 O 0.67981 0.29242 1.01752
 O36 O 0.70652 0.32079 0.97934
 Cu37 Cu 0.66749 0.33131 0.99893
 Cu38 Cu 0.69549 0.30432 0.99835
 C39 C 0.69951 0.33707 0.97339
 C40 C 0.66351 0.29882 1.02411
 C41 C 0.69957 0.33623 1.02462
 C42 C 0.66343 0.29958 0.97261
 O43 O 0.31851 0.65380 0.97973
 O44 O 0.34726 0.67891 1.01834
 O45 O 0.32000 0.65178 1.01803
 O46 O 0.34568 0.68078 0.98004
 O47 O 0.32297 0.70382 0.98219
 O48 O 0.29716 0.67462 1.02039
 O49 O 0.32453 0.70190 1.02067
 O50 O 0.29559 0.67662 0.98190
 Cu51 Cu 0.33513 0.66403 0.99885
 Cu52 Cu 0.30776 0.69154 1.00153
 C53 C 0.30206 0.66076 0.97430
 C54 C 0.34102 0.69485 1.02590
 C55 C 0.30403 0.65800 1.02555
 C56 C 0.33887 0.69734 0.97472
 O57 O -0.02006 0.34857 0.31977
 O58 O 0.01612 0.32071 0.34864
 O59 O 0.01794 0.34773 0.32131
 O60 O -0.02189 0.32162 0.34718
 O61 O -0.02147 0.29840 0.32434
 O62 O 0.01816 0.32487 0.29804
 O63 O 0.01673 0.29769 0.32554
 O64 O -0.02005 0.32548 0.29674
 Cu65 Cu -0.00201 0.33695 0.33652
 Cu66 Cu -0.00163 0.30929 0.30884
 C67 C -0.02612 0.34196 0.30323
 C68 C 0.02249 0.30434 0.34219
 C69 C 0.02470 0.34096 0.30511
 C70 C -0.02835 0.30537 0.34043
 O71 O 0.01893 0.67969 0.65291
 O72 O -0.01989 0.65461 0.68121
 O73 O -0.01907 0.68138 0.65374
 O74 O 0.01810 0.65252 0.68022
 O75 O 0.01989 0.67535 0.70345
 O76 O -0.01729 0.70458 0.67656
 O77 O -0.01829 0.67762 0.70428
 O78 O 0.02088 0.70265 0.67600
 Cu79 Cu -0.00062 0.66476 0.66473
 Cu80 Cu 0.00149 0.69236 0.69240
 C81 C 0.02636 0.69561 0.65943
 C82 C -0.02565 0.66170 0.69766
 C83 C -0.02445 0.69803 0.66040
 C84 C 0.02515 0.65877 0.69650
 O85 O 1.01938 0.65622 0.31652
 O86 O 0.97944 0.68216 0.34232
 O87 O 0.98137 0.65490 0.31511
 O88 O 1.01741 0.68331 0.34380
 O89 O 1.01792 0.70617 0.32067
 O90 O 0.98127 0.67775 0.29192
 O91 O 0.97973 0.70519 0.31932
 O92 O 1.01950 0.67892 0.29318
 Cu93 Cu 0.99936 0.66687 0.33173
 Cu94 Cu 0.99961 0.69431 0.30393
 C95 C 1.02614 0.66297 0.30032
 C96 C 0.97295 0.69828 0.33544
 C97 C 0.97529 0.66127 0.29853
 C98 C 1.02374 0.69970 0.33736
 O99 O 0.98103 0.31745 0.65584
 O100 O 1.02067 0.34284 0.68273
 O101 O 1.01912 0.31525 0.65596
 O102 O 0.98272 0.34516 0.68259
 O103 O 0.98110 0.32285 0.70625
 O104 O 1.01769 0.29274 0.67940
 O105 O 1.01926 0.32051 0.70638
 O106 O 0.97950 0.29498 0.67935
 Cu107 Cu 1.00102 0.33238 0.66691
 Cu108 Cu 0.99923 0.30551 0.69521
 C109 C 0.97359 0.30178 0.66285
 C110 C 1.02662 0.33619 0.69926
 C111 C 1.02458 0.29879 0.66294
 C112 C 0.97585 0.33931 0.69909
 O113 O 0.34193 0.01983 0.31523
 O114 O 0.31396 -0.01797 0.34190
 O115 O 0.34146 -0.01821 0.31511
 O116 O 0.31408 0.02018 0.34191
 O117 O 0.29162 0.02037 0.31833
 O118 O 0.31908 -0.01814 0.29145
 O119 O 0.29137 -0.01789 0.31844
 O120 O 0.31963 0.02011 0.29150
 Cu121 Cu 0.33008 0.00099 0.33090
 Cu122 Cu 0.30316 0.00116 0.30256
 C123 C 0.33582 0.02623 0.29867
 C124 C 0.29784 -0.02434 0.33487
 C125 C 0.33507 -0.02465 0.29862
 C126 C 0.29805 0.02669 0.33486
 O127 O 0.65283 0.01704 0.68012
 O128 O 0.68206 -0.01954 0.65315
 O129 O 0.65459 -0.02097 0.68015
 O130 O 0.68038 0.01849 0.65332
 O131 O 0.70304 0.01951 0.67669
 O132 O 0.67704 -0.01990 0.70373
 O133 O 0.70467 -0.01871 0.67658
 O134 O 0.67530 0.01833 0.70367
 Cu135 Cu 0.66522 -0.00137 0.66434
 Cu136 Cu 0.69228 -0.00010 0.69253
 C137 C 0.65888 0.02382 0.69658
 C138 C 0.69846 -0.02523 0.66003
 C139 C 0.66121 -0.02701 0.69667
 C140 C 0.69624 0.02561 0.66026
 O141 O 0.31772 1.01774 0.65308
 O142 O 0.34603 0.98155 0.68132
 O143 O 0.31892 0.97974 0.65406
 O144 O 0.34448 1.01959 0.68067
 O145 O 0.32150 1.01925 0.70377
 O146 O 0.29583 0.97939 0.67706
 O147 O 0.32312 0.98102 0.70449
 O148 O 0.29457 1.01758 0.67601
 Cu149 Cu 0.33409 0.99969 0.66500
 Cu150 Cu 0.30644 0.99927 0.69266
 C151 C 0.30121 1.02369 0.65949
 C152 C 0.33963 0.97524 0.69782
 C153 C 0.30285 0.97292 0.66084
 C154 C 0.33751 1.02610 0.69689
 O155 O 0.65285 0.98138 0.32299
 O156 O 0.68005 1.02100 0.34790
 O157 O 0.65242 1.01930 0.32126
 O158 O 0.68075 0.98294 0.34952
 O159 O 0.70305 0.98192 0.32576
 O160 O 0.67485 1.01890 0.29760
 O161 O 0.70267 1.02021 0.32449
 O162 O 0.67499 0.98071 0.29907
 Cu163 Cu 0.66432 1.00120 0.33780
 Cu164 Cu 0.69116 1.00035 0.30936
 C165 C 0.65897 0.97452 0.30658
 C166 C 0.69614 1.02730 0.34068
 C167 C 0.65862 1.02517 0.30450
 C168 C 0.69683 0.97633 0.34262
 C169 C 0.86884 0.80773 0.48136
 C170 C 0.87615 0.80061 0.49935
 C171 C 0.86959 0.80798 0.51756
 C172 C 0.85540 0.82318 0.51794
 C173 C 0.84788 0.83063 0.49980
 C174 C 0.85465 0.82294 0.48144
 C175 C 0.84754 0.83106 0.46368
 C176 C 0.83383 0.84624 0.46390
 C177 C 0.82667 0.85388 0.48188
 C178 C 0.83386 0.84612 0.50003
 C179 C 0.84901 0.83154 0.53591
 C180 C 0.83528 0.84668 0.53613
 C181 C 0.82739 0.85408 0.51840
 C182 C 0.81365 0.86967 0.51848
 C183 C 0.80676 0.87714 0.50048
 C184 C 0.81297 0.86952 0.48226
 H185 H 0.85273 0.82597 0.44939
 H186 H 0.82911 0.85210 0.44978
 H187 H 0.85479 0.82666 0.55001
 H188 H 0.83115 0.85274 0.55039
 H189 H 0.88697 0.78890 0.49917
 H190 H 0.79610 0.88900 0.50067
 C191 C 0.18749 0.12859 0.51609
 C192 C 0.19417 0.12227 0.49752
 C193 C 0.18693 0.13031 0.47992
 C194 C 0.17230 0.14507 0.48076
 C195 C 0.16537 0.15171 0.49950
 C196 C 0.17295 0.14342 0.51723
 C197 C 0.16534 0.14971 0.53557
 C198 C 0.15092 0.16417 0.53654
 C199 C 0.14343 0.17283 0.51922
 C200 C 0.15054 0.16638 0.50049
 C201 C 0.16399 0.15290 0.46342
 C202 C 0.14937 0.16718 0.46439
 C203 C 0.14257 0.17428 0.48275
 C204 C 0.12757 0.18865 0.48390
 C205 C 0.12082 0.19487 0.50247
 C206 C 0.12856 0.18733 0.52008
 H207 H 0.17027 0.14334 0.54938
 H208 H 0.14546 0.16826 0.55106
 H209 H 0.16849 0.14783 0.44888
 H210 H 0.14329 0.17239 0.45055
 H211 H 0.20545 0.11102 0.49675
 H212 H 0.10948 0.20606 0.50325
 C213 C 0.13131 0.80977 0.48052
 C214 C 0.12440 0.80260 0.49864
 C215 C 0.13237 0.80884 0.51671
 C216 C 0.14780 0.82282 0.51679
 C217 C 0.15504 0.83026 0.49851
 C218 C 0.14672 0.82378 0.48030
 C219 C 0.15358 0.83194 0.46245
 C220 C 0.16854 0.84593 0.46239
 C221 C 0.17724 0.85233 0.48019
 C222 C 0.17031 0.84458 0.49845
 C223 C 0.15575 0.83002 0.53463
 C224 C 0.17070 0.84405 0.53457
 C225 C 0.17829 0.85143 0.51666
 C226 C 0.19323 0.86597 0.51645
 C227 C 0.19988 0.87344 0.49833
 C228 C 0.19226 0.86677 0.48027
 H229 H 0.14723 0.82782 0.44832
 H230 H 0.17299 0.85190 0.44821
 H231 H 0.15028 0.82510 0.54887
 H232 H 0.17604 0.84925 0.54876
 H233 H 0.11266 0.79176 0.49869
 H234 H 0.21142 0.88450 0.49828
 C235 C 0.80263 0.13886 0.48152
 C236 C 0.79568 0.13135 0.49951
 C237 C 0.80240 0.13856 0.51773
 C238 C 0.81676 0.15366 0.51811
 C239 C 0.82405 0.16139 0.49997
 C240 C 0.81700 0.15396 0.48161
 C241 C 0.82493 0.16135 0.46386
 C242 C 0.83930 0.17596 0.46408
 C243 C 0.84633 0.18374 0.48206
 C244 C 0.83875 0.17630 0.50020
 C245 C 0.82446 0.16079 0.53609
 C246 C 0.83887 0.17536 0.53631
 C247 C 0.84615 0.18341 0.51856
 C248 C 0.86108 0.19794 0.51863
 C249 C 0.86841 0.20507 0.50064
 C250 C 0.86121 0.19833 0.48243
 H251 H 0.82034 0.15571 0.44957
 H252 H 0.84506 0.18086 0.44996
 H253 H 0.81964 0.15494 0.55020
 H254 H 0.84445 0.18005 0.55059
 H255 H 0.78461 0.11983 0.49933
 H256 H 0.87980 0.21628 0.50082
 C257 C 0.51697 0.80620 0.86605
 C258 C 0.49886 0.79978 0.87347
 C259 C 0.48110 0.80746 0.86653
 C260 C 0.48135 0.82234 0.85186
 C261 C 0.49962 0.82902 0.84415
 C262 C 0.51750 0.82094 0.85128
 C263 C 0.53543 0.82826 0.84391
 C264 C 0.53583 0.84297 0.82959
 C265 C 0.51832 0.85099 0.82209
 C266 C 0.50003 0.84409 0.82957
 C267 C 0.46389 0.83115 0.84519
 C268 C 0.46429 0.84598 0.83098
 C269 C 0.48216 0.85254 0.82282
 C270 C 0.48274 0.86778 0.80856
 C271 C 0.50088 0.87436 0.80135
 C272 C 0.51860 0.86618 0.80777
 H273 H 0.54938 0.82287 0.84934
 H274 H 0.55007 0.84820 0.82470
 H275 H 0.44971 0.82691 0.85113
 H276 H 0.45041 0.85243 0.82667
 H277 H 0.49859 0.78835 0.88469
 H278 H 0.50120 0.88594 0.79029
 C279 C 0.48328 0.19127 0.13064
 C280 C 0.50144 0.19807 0.12370
 C281 C 0.51917 0.19059 0.13095
 C282 C 0.51887 0.17562 0.14551
 C283 C 0.50056 0.16848 0.15266
 C284 C 0.48269 0.17624 0.14513
 C285 C 0.46476 0.16834 0.15181
 C286 C 0.46432 0.15337 0.16586
 C287 C 0.48180 0.14575 0.17385
 C288 C 0.50012 0.15325 0.16707
 C289 C 0.53636 0.16719 0.15263
 C290 C 0.53593 0.15231 0.16677
 C291 C 0.51800 0.14525 0.17435
 C292 C 0.51741 0.12994 0.18854
 C293 C 0.49924 0.12277 0.19502
 C294 C 0.48150 0.13039 0.18796
 H295 H 0.45084 0.17342 0.14600
 H296 H 0.45009 0.14766 0.17019
 H297 H 0.55058 0.17182 0.14713
 H298 H 0.54984 0.14619 0.17146
 H299 H 0.50179 0.20965 0.11264
 H300 H 0.49888 0.11111 0.20600
 C301 C 0.51884 0.19315 0.86423
 C302 C 0.50136 0.20080 0.87192
 C303 C 0.48297 0.19442 0.86517
 C304 C 0.48190 0.17981 0.85021
 C305 C 0.49953 0.17182 0.84230
 C306 C 0.51807 0.17843 0.84940
 C307 C 0.53529 0.16969 0.84198
 C308 C 0.53439 0.15493 0.82768
 C309 C 0.51625 0.14840 0.82013
 C310 C 0.49862 0.15683 0.82759
 C311 C 0.46373 0.17253 0.84344
 C312 C 0.46284 0.15796 0.82894
 C313 C 0.48008 0.14998 0.82072
 C314 C 0.47932 0.13487 0.80628
 C315 C 0.49681 0.12669 0.79917
 C316 C 0.51518 0.13320 0.80580
 H317 H 0.54966 0.17394 0.84741
 H318 H 0.54812 0.14850 0.82282
 H319 H 0.44998 0.17783 0.84948
 H320 H 0.44845 0.15276 0.82448
 H321 H 0.50208 0.21211 0.88329
 H322 H 0.49611 0.11513 0.78806
 C323 C 0.51955 0.80825 0.13507
 C324 C 0.50207 0.80070 0.12724
 C325 C 0.48368 0.80701 0.13399
 C326 C 0.48260 0.82151 0.14905
 C327 C 0.50022 0.82934 0.15719
 C328 C 0.51877 0.82276 0.15013
 C329 C 0.53599 0.83130 0.15783
 C330 C 0.53509 0.84579 0.17242
 C331 C 0.51692 0.85228 0.17993
 C332 C 0.49930 0.84413 0.17211
 C333 C 0.46443 0.82883 0.15571
 C334 C 0.46353 0.84331 0.17032
 C335 C 0.48075 0.85106 0.17882
 C336 C 0.47998 0.86603 0.19341
 C337 C 0.49746 0.87384 0.20098
 C338 C 0.51585 0.86719 0.19458
 H339 H 0.55037 0.82709 0.15244
 H340 H 0.54882 0.85206 0.17750
 H341 H 0.45070 0.82367 0.14949
 H342 H 0.44914 0.84856 0.17466
 H343 H 0.50279 0.78949 0.11577
 H344 H 0.49673 0.88523 0.21227
 C345 C 0.86763 0.52046 0.80929
 C346 C 0.87557 0.50281 0.80229
 C347 C 0.86908 0.48457 0.80932
 C348 C 0.85417 0.48384 0.82396
 C349 C 0.84596 0.50165 0.83126
 C350 C 0.85278 0.52004 0.82398
 C351 C 0.84506 0.53747 0.83206
 C352 C 0.83068 0.53693 0.84674
 C353 C 0.82338 0.51893 0.85389
 C354 C 0.83121 0.50110 0.84621
 C355 C 0.84772 0.46587 0.83196
 C356 C 0.83325 0.46532 0.84657
 C357 C 0.82469 0.48272 0.85379
 C358 C 0.81023 0.48232 0.86888
 C359 C 0.80266 0.50001 0.87622
 C360 C 0.80895 0.51823 0.86901
 H361 H 0.85030 0.55176 0.82735
 H362 H 0.82555 0.55082 0.85263
 H363 H 0.85400 0.45202 0.82723
 H364 H 0.82908 0.45108 0.85237
 H365 H 0.88691 0.50327 0.79096
 H366 H 0.79148 0.49956 0.88771
 C367 C 0.19433 0.48028 0.13695
 C368 C 0.20133 0.49788 0.12889
 C369 C 0.19467 0.51618 0.13559
 C370 C 0.18038 0.51702 0.15085
 C371 C 0.17307 0.49926 0.15919
 C372 C 0.18000 0.48083 0.15217
 C373 C 0.17197 0.46345 0.16007
 C374 C 0.15765 0.46411 0.17480
 C375 C 0.15078 0.48217 0.18223
 C376 C 0.15845 0.49993 0.17426
 C377 C 0.17274 0.53506 0.15753
 C378 C 0.15845 0.53571 0.17232
 C379 C 0.15120 0.51835 0.18099
 C380 C 0.13641 0.51885 0.19576
 C381 C 0.12898 0.50123 0.20340
 C382 C 0.13597 0.48297 0.19698
 H383 H 0.17646 0.44913 0.15472
 H384 H 0.15181 0.45026 0.18009
 H385 H 0.17750 0.54887 0.15118
 H386 H 0.15293 0.55000 0.17666
 H387 H 0.21239 0.49733 0.11728
 H388 H 0.11767 0.50173 0.21476
 C389 C 0.80691 0.48120 0.13047
 C390 C 0.79953 0.49905 0.12344
 C391 C 0.80677 0.51710 0.13026
 C392 C 0.82215 0.51745 0.14440
 C393 C 0.82980 0.49945 0.15171
 C394 C 0.82219 0.48125 0.14471
 C395 C 0.83047 0.46362 0.15165
 C396 C 0.84571 0.46382 0.16541
 C397 C 0.85329 0.48164 0.17279
 C398 C 0.84540 0.49966 0.16573
 C399 C 0.83049 0.53527 0.15091
 C400 C 0.84580 0.53547 0.16459
 C401 C 0.85335 0.51787 0.17234
 C402 C 0.86908 0.51792 0.18606
 C403 C 0.87662 0.50006 0.19287
 C404 C 0.86897 0.48200 0.18655
 H405 H 0.82544 0.44947 0.14630
 H406 H 0.85170 0.44981 0.16998
 H407 H 0.82549 0.54927 0.14525
 H408 H 0.85183 0.54961 0.16880
 H409 H 0.78773 0.49889 0.11261
 H410 H 0.88855 0.50022 0.20355
 C411 C 0.19409 0.48265 0.86627
 C412 C 0.20034 0.50094 0.87342
 C413 C 0.19265 0.51853 0.86604
 C414 C 0.17796 0.51793 0.85119
 C415 C 0.17143 0.49948 0.84377
 C416 C 0.17949 0.48176 0.85135
 C417 C 0.17232 0.46366 0.84427
 C418 C 0.15773 0.46291 0.82983
 C419 C 0.14973 0.48024 0.82188
 C420 C 0.15652 0.49872 0.82902
 C421 C 0.16918 0.53523 0.84405
 C422 C 0.15454 0.53449 0.82964
 C423 C 0.14812 0.51642 0.82177
 C424 C 0.13306 0.51550 0.80732
 C425 C 0.12656 0.49717 0.80047
 C426 C 0.13467 0.47961 0.80742
 H427 H 0.17772 0.44984 0.85003
 H428 H 0.15258 0.44855 0.82519
 H429 H 0.17330 0.54954 0.84976
 H430 H 0.14811 0.54826 0.82496
 H431 H 0.21166 0.50149 0.88475
 H432 H 0.11509 0.49656 0.78930
 C433 C 0.26815 0.37233 0.06867
 C434 C 0.28698 0.37884 0.06307
 C435 C 0.29838 0.36787 0.04986
 C436 C 0.29123 0.35012 0.04190
 C437 C 0.27262 0.34330 0.04790
 C438 C 0.26118 0.35431 0.06113
 C439 C 0.25551 0.38496 0.08136
 C440 C 0.23548 0.38744 0.07688
 C441 C 0.22411 0.40106 0.08735
 C442 C 0.23251 0.41253 0.10254
 C443 C 0.25230 0.40940 0.10762
 C444 C 0.26366 0.39576 0.09716
 C445 C 0.22119 0.42871 0.11198
 C446 C 0.22334 0.43300 0.13230
 C447 C 0.21408 0.44942 0.14063
 C448 C 0.20242 0.46172 0.12883
 C449 C 0.19988 0.45724 0.10869
 C450 C 0.20912 0.44088 0.10034
 H451 H 0.29266 0.39279 0.06835
 H452 H 0.31264 0.37356 0.04555
 H453 H 0.26672 0.32965 0.04208
 H454 H 0.24682 0.34881 0.06534
 H455 H 0.22879 0.37945 0.06471
 H456 H 0.20883 0.40294 0.08327
 H457 H 0.25927 0.41809 0.11912
 H458 H 0.27898 0.39398 0.10116
 H459 H 0.23241 0.42382 0.14167
 H460 H 0.21637 0.45281 0.15617
 H461 H 0.19111 0.46672 0.09932
 H462 H 0.20744 0.43821 0.08459
 C463 C 0.73161 0.62678 0.06580
 C464 C 0.73913 0.64463 0.05847
 C465 C 0.72774 0.65649 0.04605
 C466 C 0.70861 0.65070 0.04065
 C467 C 0.70090 0.63316 0.04850
 C468 C 0.71226 0.62135 0.06092
 C469 C 0.74419 0.61321 0.07745
 C470 C 0.73634 0.60250 0.09343
 C471 C 0.74762 0.58827 0.10308
 C472 C 0.76701 0.58442 0.09695
 C473 C 0.77510 0.59565 0.08146
 C474 C 0.76382 0.60989 0.07182
 C475 C 0.77829 0.56798 0.10586
 C476 C 0.78942 0.55537 0.09370
 C477 C 0.79902 0.53910 0.10176
 C478 C 0.79780 0.53520 0.12213
 C479 C 0.78692 0.54785 0.13439
 C480 C 0.77727 0.56414 0.12634
 H481 H 0.75392 0.64932 0.06217
 H482 H 0.73410 0.66994 0.04030
 H483 H 0.68622 0.62826 0.04463
 H484 H 0.70612 0.60757 0.06609
 H485 H 0.72134 0.60489 0.09825
 H486 H 0.74091 0.57977 0.11485
 H487 H 0.79007 0.59321 0.07658
 H488 H 0.77025 0.61777 0.05946
 H489 H 0.79020 0.55771 0.07784
 H490 H 0.80719 0.52936 0.09206
 H491 H 0.78565 0.54491 0.15013
 H492 H 0.76893 0.57366 0.13610
 C493 C 0.73382 0.37505 0.93592
 C494 C 0.71514 0.38082 0.94260
 C495 C 0.70371 0.36815 0.95410
 C496 C 0.71074 0.34942 0.95928
 C497 C 0.72911 0.34331 0.95192
 C498 C 0.74053 0.35600 0.94027
 C499 C 0.74665 0.38938 0.92556
 C500 C 0.75722 0.38409 0.90844
 C501 C 0.76911 0.39795 0.89877
 C502 C 0.77084 0.41719 0.90626
 C503 C 0.76040 0.42234 0.92348
 C504 C 0.74842 0.40862 0.93299
 C505 C 0.78303 0.43220 0.89609
 C506 C 0.79499 0.44498 0.90723
 C507 C 0.80461 0.46069 0.89812
 C508 C 0.80253 0.46390 0.87770
 C509 C 0.79124 0.45074 0.86635
 C510 C 0.78165 0.43490 0.87546
 H511 H 0.70950 0.39532 0.93919
 H512 H 0.68958 0.37329 0.95942
 H513 H 0.73492 0.32896 0.95563
 H514 H 0.75492 0.35123 0.93536
 H515 H 0.75605 0.36936 0.90241
 H516 H 0.77705 0.39361 0.88554
 H517 H 0.76125 0.43713 0.92944
 H518 H 0.74063 0.41302 0.94629
 H519 H 0.79649 0.44308 0.92311
 H520 H 0.81320 0.47076 0.90711
 H521 H 0.78925 0.45319 0.85060
 H522 H 0.77239 0.42538 0.86657
 C523 C 0.26660 0.62733 0.93341
 C524 C 0.28583 0.62138 0.93804
 C525 C 0.29748 0.63253 0.95089
 C526 C 0.29019 0.64993 0.95944
 C527 C 0.27116 0.65622 0.95439
 C528 C 0.25947 0.64502 0.94153
 C529 C 0.25377 0.61447 0.92110
 C530 C 0.23405 0.61125 0.92647
 C531 C 0.22260 0.59746 0.91626
 C532 C 0.23061 0.58657 0.90046
 C533 C 0.25008 0.59041 0.89455
 C534 C 0.26152 0.60421 0.90475
 C535 C 0.21929 0.57027 0.89114
 C536 C 0.22065 0.56654 0.87064
 C537 C 0.21143 0.55007 0.86231
 C538 C 0.20060 0.53713 0.87430
 C539 C 0.19884 0.54105 0.89465
 C540 C 0.20804 0.55747 0.90299
 H541 H 0.29166 0.60769 0.93229
 H542 H 0.31206 0.62724 0.95447
 H543 H 0.26513 0.66958 0.96069
 H544 H 0.24479 0.65009 0.93806
 H545 H 0.22768 0.61880 0.93909
 H546 H 0.20757 0.59501 0.92100
 H547 H 0.25676 0.58217 0.88256
 H548 H 0.27658 0.60656 0.90009
 H549 H 0.22908 0.57621 0.86111
 H550 H 0.21313 0.54713 0.84660
 H551 H 0.19071 0.53108 0.90415
 H552 H 0.20698 0.55971 0.91886
 C553 C 0.05915 0.26907 0.37994
 C554 C 0.05508 0.26290 0.36047
 C555 C 0.04361 0.27458 0.34792
 C556 C 0.03614 0.29272 0.35460
 C557 C 0.04093 0.29919 0.37382
 C558 C 0.05225 0.28748 0.38635
 C559 C 0.06964 0.25602 0.39397
 C560 C 0.06243 0.25361 0.41334
 C561 C 0.07209 0.24138 0.42674
 C562 C 0.08924 0.23132 0.42111
 C563 C 0.09652 0.23371 0.40174
 C564 C 0.08671 0.24585 0.38822
 C565 C 0.09954 0.21874 0.43572
 C566 C 0.12003 0.22007 0.43819
 C567 C 0.12936 0.20971 0.45343
 C568 C 0.11837 0.19767 0.46621
 C569 C 0.09802 0.19581 0.46332
 C570 C 0.08870 0.20622 0.44820
 H571 H 0.06016 0.24873 0.35520
 H572 H 0.04020 0.26920 0.33319
 H573 H 0.03550 0.31310 0.37941
 H574 H 0.05543 0.29272 0.40119
 H575 H 0.04918 0.26109 0.41809
 H576 H 0.06628 0.24002 0.44164
 H577 H 0.10968 0.22606 0.39703
 H578 H 0.09260 0.24752 0.37339
 H579 H 0.12869 0.22978 0.42890
 H580 H 0.14503 0.21157 0.45566
 H581 H 0.08930 0.18666 0.47311
 H582 H 0.07293 0.20475 0.44648
 C583 C 0.06504 0.72901 0.62184
 C584 C 0.06137 0.73526 0.64137
 C585 C 0.04933 0.72408 0.65390
 C586 C 0.04089 0.70637 0.64716
 C587 C 0.04538 0.69971 0.62794
 C588 C 0.05728 0.71093 0.61541
 C589 C 0.07577 0.74183 0.60773
 C590 C 0.06824 0.74472 0.58858
 C591 C 0.07791 0.75700 0.57519
 C592 C 0.09541 0.76661 0.58059
 C593 C 0.10308 0.76366 0.59971
 C594 C 0.09325 0.75149 0.61324
 C595 C 0.10559 0.77936 0.56601
 C596 C 0.12592 0.77754 0.56267
 C597 C 0.13494 0.78785 0.54716
 C598 C 0.12380 0.80030 0.53498
 C599 C 0.10369 0.80277 0.53888
 C600 C 0.09467 0.79243 0.55426
 H601 H 0.06711 0.74919 0.64665
 H602 H 0.04618 0.72959 0.66864
 H603 H 0.03920 0.68610 0.62230
 H604 H 0.06012 0.70564 0.60052
 H605 H 0.05467 0.73766 0.58402
 H606 H 0.07180 0.75880 0.56047
 H607 H 0.11654 0.77095 0.60423
 H608 H 0.09938 0.74944 0.62791
 H609 H 0.13461 0.76743 0.57141
 H610 H 0.15042 0.78554 0.54415
 H611 H 0.09486 0.81225 0.52957
 H612 H 0.07903 0.79428 0.55667
 C613 C 0.93236 0.73215 0.37057
 C614 C 0.93921 0.73940 0.35230
 C615 C 0.95185 0.72813 0.34050
 C616 C 0.95794 0.70939 0.34676
 C617 C 0.95052 0.70188 0.36469
 C618 C 0.93788 0.71312 0.37644
 C619 C 0.92062 0.74477 0.38413
 C620 C 0.90517 0.73675 0.39542
 C621 C 0.89553 0.74814 0.40970
 C622 C 0.90114 0.76779 0.41303
 C623 C 0.91605 0.77603 0.40119
 C624 C 0.92568 0.76465 0.38690
 C625 C 0.89239 0.77921 0.42963
 C626 C 0.90447 0.79088 0.44186
 C627 C 0.89665 0.80054 0.45836
 C628 C 0.87660 0.79884 0.46289
 C629 C 0.86439 0.78748 0.45059
 C630 C 0.87222 0.77777 0.43407
 H631 H 0.93501 0.75392 0.34726
 H632 H 0.95726 0.73432 0.32674
 H633 H 0.95493 0.68750 0.36995
 H634 H 0.93308 0.70720 0.39054
 H635 H 0.90079 0.72155 0.39346
 H636 H 0.88421 0.74132 0.41867
 H637 H 0.92052 0.79120 0.40323
 H638 H 0.93762 0.77122 0.37857
 H639 H 0.92012 0.79201 0.43906
 H640 H 0.90631 0.80908 0.46784
 H641 H 0.84891 0.78586 0.45402
 H642 H 0.86253 0.76900 0.42485
 C643 C 0.93153 0.26949 0.62781
 C644 C 0.93820 0.28810 0.62170
 C645 C 0.95146 0.29878 0.63333
 C646 C 0.95834 0.29111 0.65138
 C647 C 0.95123 0.27276 0.65780
 C648 C 0.93799 0.26204 0.64612
 C649 C 0.91879 0.25753 0.61454
 C650 C 0.92246 0.23736 0.61184
 C651 C 0.91181 0.22649 0.59788
 C652 C 0.89721 0.23554 0.58632
 C653 C 0.89300 0.25553 0.58958
 C654 C 0.90368 0.26641 0.60352
 C655 C 0.88737 0.22459 0.57002
 C656 C 0.86724 0.22724 0.56606
 C657 C 0.85847 0.21806 0.54969
 C658 C 0.86968 0.20606 0.53708
 C659 C 0.88966 0.20311 0.54118
 C660 C 0.89842 0.21221 0.55753
 H661 H 0.93372 0.29414 0.60756
 H662 H 0.95665 0.31287 0.62795
 H663 H 0.95620 0.26646 0.67166
 H664 H 0.93292 0.24784 0.65132
 H665 H 0.93410 0.23013 0.61998
 H666 H 0.91522 0.21106 0.59586
 H667 H 0.88196 0.26297 0.58080
 H668 H 0.90036 0.28187 0.60544
 H669 H 0.85833 0.23657 0.57549
 H670 H 0.84306 0.22065 0.54659
 H671 H 0.89856 0.19406 0.53145
 H672 H 0.91401 0.21014 0.55997
 C673 C 0.37387 0.06350 0.26427
 C674 C 0.37960 0.05689 0.28310
 C675 C 0.36690 0.04546 0.29456
 C676 C 0.34818 0.04028 0.28740
 C677 C 0.34211 0.04756 0.26888
 C678 C 0.35483 0.05916 0.25744
 C679 C 0.38825 0.07380 0.25142
 C680 C 0.38313 0.09095 0.24104
 C681 C 0.39707 0.10063 0.22923
 C682 C 0.41623 0.09309 0.22737
 C683 C 0.42120 0.07582 0.23759
 C684 C 0.40739 0.06633 0.24952
 C685 C 0.43134 0.10327 0.21529
 C686 C 0.44388 0.09234 0.20291
 C687 C 0.45963 0.10142 0.19330
 C688 C 0.46312 0.12161 0.19583
 C689 C 0.45024 0.13274 0.20763
 C690 C 0.43436 0.12366 0.21718
 H691 H 0.39410 0.06028 0.28882
 H692 H 0.37202 0.04020 0.30880
 H693 H 0.32776 0.04385 0.26297
 H694 H 0.35010 0.06404 0.24293
 H695 H 0.36846 0.09701 0.24232
 H696 H 0.39288 0.11389 0.22145
 H697 H 0.43592 0.06983 0.23663
 H698 H 0.41166 0.05301 0.25718
 H699 H 0.44174 0.07664 0.20104
 H700 H 0.46948 0.09260 0.18432
 H701 H 0.45291 0.14829 0.20999
 H702 H 0.42502 0.13237 0.22679
 C703 C 0.62051 0.06129 0.73043
 C704 C 0.61474 0.05405 0.71180
 C705 C 0.62748 0.04244 0.70059
 C706 C 0.64628 0.03770 0.70777
 C707 C 0.65232 0.04548 0.72614
 C708 C 0.63957 0.05724 0.73734
 C709 C 0.60623 0.07217 0.74291
 C710 C 0.61167 0.08950 0.75292
 C711 C 0.59786 0.09978 0.76435
 C712 C 0.57849 0.09272 0.76617
 C713 C 0.57319 0.07528 0.75632
 C714 C 0.58688 0.06515 0.74480
 C715 C 0.56358 0.10357 0.77790
 C716 C 0.55051 0.09327 0.79028
 C717 C 0.53523 0.10311 0.79990
 C718 C 0.53277 0.12343 0.79739
 C719 C 0.54608 0.13388 0.78545
 C720 C 0.56147 0.12404 0.77587
 H721 H 0.60024 0.05720 0.70600
 H722 H 0.62237 0.03678 0.68646
 H723 H 0.66673 0.04211 0.73206
 H724 H 0.64433 0.06259 0.75170
 H725 H 0.62648 0.09525 0.75164
 H726 H 0.60233 0.11316 0.77186
 H727 H 0.55832 0.06962 0.75726
 H728 H 0.58236 0.05170 0.73744
 H729 H 0.55193 0.07753 0.79227
 H730 H 0.52504 0.09481 0.80901
 H731 H 0.54419 0.14953 0.78311
 H732 H 0.57120 0.13229 0.76624
 C733 C 0.37730 0.93860 0.73315
 C734 C 0.38336 0.94525 0.71442
 C735 C 0.37084 0.95657 0.70273
 C736 C 0.35196 0.96160 0.70954
 C737 C 0.34561 0.95439 0.72802
 C738 C 0.35815 0.94291 0.73969
 C739 C 0.39137 0.92805 0.74608
 C740 C 0.38581 0.91093 0.75633
 C741 C 0.39950 0.90083 0.76800
 C742 C 0.41888 0.90788 0.76984
 C743 C 0.42427 0.92517 0.75981
 C744 C 0.41069 0.93510 0.74805
 C745 C 0.43376 0.89711 0.78162
 C746 C 0.44697 0.90750 0.79380
 C747 C 0.46239 0.89775 0.80321
 C748 C 0.46486 0.87742 0.80069
 C749 C 0.45136 0.86686 0.78906
 C750 C 0.43583 0.87661 0.77969
 H751 H 0.39794 0.94187 0.70889
 H752 H 0.37619 0.96178 0.68854
 H753 H 0.33114 0.95800 0.73366
 H754 H 0.35316 0.93800 0.75412
 H755 H 0.37100 0.90516 0.75500
 H756 H 0.39496 0.88758 0.77565
 H757 H 0.43915 0.93081 0.76075
 H758 H 0.41531 0.94839 0.74050
 H759 H 0.44558 0.92327 0.79572
 H760 H 0.47273 0.90614 0.81207
 H761 H 0.45324 0.85120 0.78671
 H762 H 0.42599 0.86829 0.77021
 C763 C 0.62120 0.93582 0.27341
 C764 C 0.61569 0.94249 0.29234
 C765 C 0.62835 0.95435 0.30343
 C766 C 0.64679 0.95991 0.29582
 C767 C 0.65267 0.95252 0.27723
 C768 C 0.64000 0.94052 0.26616
 C769 C 0.60680 0.92513 0.26087
 C770 C 0.61223 0.90829 0.25005
 C771 C 0.59839 0.89843 0.23825
 C772 C 0.57901 0.90546 0.23684
 C773 C 0.57368 0.92235 0.24758
 C774 C 0.58739 0.93203 0.25949
 C775 C 0.56415 0.89523 0.22446
 C776 C 0.55134 0.90617 0.21243
 C777 C 0.53614 0.89687 0.20213
 C778 C 0.53345 0.87647 0.20362
 C779 C 0.54650 0.86540 0.21523
 C780 C 0.56184 0.87470 0.22546
 H781 H 0.60139 0.93882 0.29840
 H782 H 0.62339 0.95968 0.31773
 H783 H 0.66680 0.95652 0.27097
 H784 H 0.64457 0.93562 0.25157
 H785 H 0.62708 0.90265 0.25092
 H786 H 0.60287 0.88547 0.23005
 H787 H 0.55879 0.92795 0.24696
 H788 H 0.58287 0.94511 0.26747
 H789 H 0.55293 0.92199 0.21123
 H790 H 0.52616 0.90566 0.19331
 H791 H 0.54444 0.84967 0.21682
 H792 H 0.57139 0.86597 0.23479
 C793 C 0.37860 0.27267 0.93533
 C794 C 0.38441 0.29115 0.94262
 C795 C 0.37182 0.30211 0.95468
 C796 C 0.35315 0.29480 0.95980
 C797 C 0.34700 0.27665 0.95185
 C798 C 0.35960 0.26572 0.93966
 C799 C 0.39283 0.26026 0.92434
 C800 C 0.38728 0.25002 0.90709
 C801 C 0.40094 0.23829 0.89696
 C802 C 0.42025 0.23639 0.90412
 C803 C 0.42570 0.24658 0.92142
 C804 C 0.41217 0.25840 0.93138
 C805 C 0.43492 0.22405 0.89365
 C806 C 0.44748 0.21173 0.90452
 C807 C 0.46258 0.20150 0.89504
 C808 C 0.46539 0.20334 0.87452
 C809 C 0.45256 0.21520 0.86350
 C810 C 0.43732 0.22538 0.87298
 H811 H 0.39886 0.29699 0.93926
 H812 H 0.37699 0.31608 0.96045
 H813 H 0.33269 0.27063 0.95549
 H814 H 0.35480 0.25146 0.93429
 H815 H 0.37247 0.25126 0.90133
 H816 H 0.39637 0.23053 0.88370
 H817 H 0.44055 0.24558 0.92713
 H818 H 0.41678 0.26593 0.94477
 H819 H 0.44581 0.21027 0.92043
 H820 H 0.47241 0.19247 0.90379
 H821 H 0.45472 0.21703 0.84769
 H822 H 0.42796 0.23493 0.86430
 C823 C 0.62494 0.73116 0.93342
 C824 C 0.64330 0.73839 0.93969
 C825 C 0.65509 0.72735 0.95249
 C826 C 0.64873 0.70887 0.95934
 C827 C 0.63062 0.70142 0.95261
 C828 C 0.61888 0.71243 0.93980
 C829 C 0.61160 0.74346 0.92122
 C830 C 0.60018 0.73497 0.90606
 C831 C 0.58624 0.74616 0.89589
 C832 C 0.58340 0.76610 0.90067
 C833 C 0.59532 0.77476 0.91532
 C834 C 0.60927 0.76357 0.92547
 C835 C 0.56725 0.77744 0.89131
 C836 C 0.55538 0.78989 0.90291
 C837 C 0.53934 0.79958 0.89453
 C838 C 0.53493 0.79713 0.87437
 C839 C 0.54685 0.78495 0.86263
 C840 C 0.56292 0.77521 0.87102
 H841 H 0.64847 0.75267 0.93483
 H842 H 0.66900 0.73348 0.95736
 H843 H 0.62528 0.68725 0.95760
 H844 H 0.60470 0.70655 0.93546
 H845 H 0.60180 0.71956 0.90229
 H846 H 0.57719 0.73902 0.88479
 H847 H 0.59363 0.79014 0.91916
 H848 H 0.61771 0.77051 0.93717
 H849 H 0.55811 0.79164 0.91864
 H850 H 0.53014 0.80876 0.90384
 H851 H 0.54350 0.78276 0.84707
 H852 H 0.57187 0.76582 0.86168
 C853 C 0.37922 0.72795 0.06438
 C854 C 0.36006 0.73464 0.06051
 C855 C 0.34734 0.72360 0.04853
 C856 C 0.35351 0.70560 0.04031
 C857 C 0.37237 0.69855 0.04494
 C858 C 0.38508 0.70961 0.05680
 C859 C 0.39350 0.74048 0.07525
 C860 C 0.41277 0.74255 0.06802
 C861 C 0.42632 0.75448 0.07788
 C862 C 0.42097 0.76458 0.09525
 C863 C 0.40172 0.76247 0.10260
 C864 C 0.38805 0.75062 0.09259
 C865 C 0.43566 0.77702 0.10564
 C866 C 0.43804 0.77581 0.12632
 C867 C 0.45325 0.78612 0.13575
 C868 C 0.46610 0.79799 0.12467
 C869 C 0.46332 0.79971 0.10413
 C870 C 0.44823 0.78936 0.09471
 H871 H 0.35521 0.74878 0.06609
 H872 H 0.33290 0.72942 0.04526
 H873 H 0.37757 0.68470 0.03895
 H874 H 0.39966 0.70396 0.05981
 H875 H 0.41731 0.73511 0.05456
 H876 H 0.44112 0.75563 0.07202
 H877 H 0.39720 0.77015 0.11592
 H878 H 0.37330 0.74921 0.09851
 H879 H 0.42868 0.76626 0.13506
 H880 H 0.45538 0.78438 0.15157
 H881 H 0.47316 0.80874 0.09534
 H882 H 0.44658 0.79075 0.07880
 C883 C 0.62881 0.26417 0.06453
 C884 C 0.64674 0.25689 0.05718
 C885 C 0.65834 0.26833 0.04446
 C886 C 0.65217 0.28722 0.03877
 C887 C 0.63449 0.29465 0.04654
 C888 C 0.62295 0.28327 0.05925
 C889 C 0.61560 0.25161 0.07670
 C890 C 0.60495 0.25969 0.09262
 C891 C 0.59091 0.24846 0.10267
 C892 C 0.58720 0.22888 0.09703
 C893 C 0.59844 0.22054 0.08166
 C894 C 0.61250 0.23178 0.07161
 C895 C 0.57076 0.21771 0.10621
 C896 C 0.55818 0.20626 0.09429
 C897 C 0.54173 0.19701 0.10250
 C898 C 0.53761 0.19892 0.12279
 C899 C 0.55028 0.21003 0.13484
 C900 C 0.56676 0.21930 0.12663
 H901 H 0.65173 0.24230 0.06115
 H902 H 0.67191 0.26220 0.03877
 H903 H 0.62930 0.30914 0.04246
 H904 H 0.60909 0.28919 0.06441
 H905 H 0.60720 0.27486 0.09704
 H906 H 0.58240 0.25537 0.11433
 H907 H 0.59610 0.20542 0.07715
 H908 H 0.62036 0.22517 0.05932
 H909 H 0.56064 0.20502 0.07846
 H910 H 0.53197 0.18866 0.09296
 H911 H 0.54716 0.21182 0.15050
 H912 H 0.57625 0.22790 0.13621
 C913 C 0.26568 0.05992 0.62158
 C914 C 0.28445 0.05375 0.61555
 C915 C 0.29620 0.04260 0.62817
 C916 C 0.28943 0.03724 0.64712
 C917 C 0.27092 0.04400 0.65346
 C918 C 0.25917 0.05532 0.64082
 C919 C 0.25268 0.07020 0.60737
 C920 C 0.24203 0.08701 0.61301
 C921 C 0.23016 0.09678 0.59922
 C922 C 0.22853 0.08972 0.57968
 C923 C 0.23901 0.07277 0.57418
 C924 C 0.25097 0.06316 0.58785
 C925 C 0.21639 0.10008 0.56475
 C926 C 0.20446 0.08929 0.55162
 C927 C 0.19450 0.09874 0.53628
 C928 C 0.19621 0.11915 0.53380
 C929 C 0.20771 0.13007 0.54717
 C930 C 0.21761 0.12062 0.56263
 H931 H 0.28994 0.05736 0.60091
 H932 H 0.31042 0.03774 0.62284
 H933 H 0.26530 0.04014 0.66798
 H934 H 0.24472 0.05985 0.64579
 H935 H 0.24315 0.09275 0.62797
 H936 H 0.22217 0.10977 0.60384
 H937 H 0.23822 0.06713 0.55916
 H938 H 0.25883 0.05011 0.58317
 H939 H 0.20311 0.07347 0.55304
 H940 H 0.18576 0.09007 0.52604
 H941 H 0.20944 0.14580 0.54527
 H942 H 0.22689 0.12925 0.57241
 C943 C 0.72952 0.06891 0.37333
 C944 C 0.71091 0.06283 0.38002
 C945 C 0.69974 0.04948 0.36901
 C946 C 0.70687 0.04180 0.35096
 C947 C 0.72527 0.04840 0.34396
 C948 C 0.73648 0.06174 0.35506
 C949 C 0.74194 0.08176 0.38604
 C950 C 0.76204 0.07768 0.38857
 C951 C 0.77323 0.08830 0.40231
 C952 C 0.76457 0.10326 0.41380
 C953 C 0.74470 0.10792 0.41061
 C954 C 0.73351 0.09729 0.39689
 C955 C 0.77575 0.11295 0.43004
 C956 C 0.77340 0.13313 0.43407
 C957 C 0.78263 0.14175 0.45048
 C958 C 0.79443 0.13036 0.46305
 C959 C 0.79712 0.11034 0.45886
 C960 C 0.78793 0.10172 0.44248
 H961 H 0.70524 0.06786 0.39416
 H962 H 0.68566 0.04487 0.37495
 H963 H 0.73126 0.04297 0.33010
 H964 H 0.75068 0.06635 0.34944
 H965 H 0.76893 0.06572 0.38055
 H966 H 0.78857 0.08454 0.40425
 H967 H 0.73755 0.11924 0.41932
 H968 H 0.71812 0.10095 0.39507
 H969 H 0.76423 0.14219 0.42468
 H970 H 0.78024 0.15720 0.45364
 H971 H 0.80601 0.10129 0.46855
 H972 H 0.78976 0.08608 0.44001
 C973 C 0.73535 0.93819 0.62364
 C974 C 0.71689 0.94443 0.61684
 C975 C 0.70465 0.95567 0.62897
 C976 C 0.71065 0.96106 0.64818
 C977 C 0.72884 0.95422 0.65528
 C978 C 0.74105 0.94279 0.64314
 C979 C 0.74892 0.92791 0.60993
 C980 C 0.75900 0.91085 0.61577
 C981 C 0.77129 0.90100 0.60234
 C982 C 0.77393 0.90828 0.58301
 C983 C 0.76408 0.92552 0.57738
 C984 C 0.75169 0.93519 0.59066
 C985 C 0.78628 0.89775 0.56833
 C986 C 0.79891 0.90836 0.55577
 C987 C 0.80860 0.89895 0.54017
 C988 C 0.80590 0.87875 0.53688
 C989 C 0.79393 0.86792 0.54987
 C990 C 0.78428 0.87733 0.56558
 H991 H 0.71203 0.94083 0.60196
 H992 H 0.69071 0.96060 0.62305
 H993 H 0.73385 0.95810 0.67003
 H994 H 0.75525 0.93819 0.64869
 H995 H 0.75705 0.90494 0.63055
 H996 H 0.77877 0.88776 0.60705
 H997 H 0.76563 0.93132 0.56250
 H998 H 0.74426 0.94843 0.58586
 H999 H 0.80087 0.92407 0.55770
 H1000 H 0.81772 0.90755 0.53023
 H1001 H 0.79144 0.85236 0.54734
 H1002 H 0.77447 0.86885 0.57492
 C1003 C 0.26379 0.93507 0.36985
 C1004 C 0.28301 0.94025 0.37547
 C1005 C 0.29417 0.95305 0.36384
 C1006 C 0.28641 0.96097 0.34628
 C1007 C 0.26738 0.95539 0.34034
 C1008 C 0.25616 0.94260 0.35205
 C1009 C 0.25152 0.92276 0.38320
 C1010 C 0.23181 0.92775 0.38693
 C1011 C 0.22090 0.91753 0.40117
 C1012 C 0.22946 0.90207 0.41196
 C1013 C 0.24890 0.89655 0.40761
 C1014 C 0.25981 0.90678 0.39339
 C1015 C 0.21866 0.89262 0.42856
 C1016 C 0.22024 0.87227 0.43201
 C1017 C 0.21125 0.86374 0.44857
 C1018 C 0.20047 0.87538 0.46188
 C1019 C 0.19862 0.89561 0.45835
 C1020 C 0.20758 0.90415 0.44181
 H1021 H 0.28921 0.93494 0.38925
 H1022 H 0.30878 0.95704 0.36885
 H1023 H 0.26100 0.96122 0.32687
 H1024 H 0.24145 0.93872 0.34726
 H1025 H 0.22506 0.94008 0.37943
 H1026 H 0.20587 0.92195 0.40401
 H1027 H 0.25597 0.88482 0.41577
 H1028 H 0.27488 0.90244 0.39065
 H1029 H 0.22856 0.86299 0.42200
 H1030 H 0.21298 0.84812 0.45122
 H1031 H 0.19051 0.90483 0.46860
 H1032 H 0.20638 0.91990 0.43978
 C1033 C 0.06812 0.37020 0.73332
 C1034 C 0.06089 0.35223 0.74066
 C1035 C 0.04785 0.34084 0.72938
 C1036 C 0.04176 0.34721 0.71053
 C1037 C 0.04949 0.36486 0.70296
 C1038 C 0.06249 0.37622 0.71422
 C1039 C 0.08048 0.38329 0.74588
 C1040 C 0.09595 0.39425 0.73752
 C1041 C 0.10612 0.40819 0.74884
 C1042 C 0.10108 0.41146 0.76880
 C1043 C 0.08620 0.39988 0.77740
 C1044 C 0.07601 0.38596 0.76607
 C1045 C 0.11029 0.42784 0.78013
 C1046 C 0.09867 0.43993 0.79236
 C1047 C 0.10681 0.45637 0.80172
 C1048 C 0.12675 0.46101 0.79915
 C1049 C 0.13854 0.44881 0.78729
 C1050 C 0.13040 0.43232 0.77790
 H1051 H 0.06514 0.34708 0.75522
 H1052 H 0.04222 0.32728 0.73561
 H1053 H 0.04509 0.37021 0.68851
 H1054 H 0.06755 0.39011 0.70823
 H1055 H 0.09993 0.39234 0.72208
 H1056 H 0.11740 0.41696 0.74171
 H1057 H 0.08216 0.40186 0.79281
 H1058 H 0.06408 0.37788 0.77294
 H1059 H 0.08308 0.43713 0.79410
 H1060 H 0.09746 0.46577 0.81064
 H1061 H 0.15391 0.45232 0.78496
 H1062 H 0.13976 0.42321 0.76870
 C1063 C 0.06804 0.62852 0.26738
 C1064 C 0.06203 0.62271 0.28644
 C1065 C 0.04887 0.63420 0.29734
 C1066 C 0.04140 0.65178 0.28944
 C1067 C 0.04789 0.65793 0.27064
 C1068 C 0.06104 0.64640 0.25970
 C1069 C 0.08056 0.61530 0.25518
 C1070 C 0.07627 0.61220 0.23502
 C1071 C 0.08666 0.59819 0.22404
 C1072 C 0.10157 0.58698 0.23295
 C1073 C 0.10641 0.59067 0.25289
 C1074 C 0.09601 0.60467 0.26388
 C1075 C 0.11106 0.57057 0.22199
 C1076 C 0.13125 0.56665 0.22421
 C1077 C 0.13970 0.55017 0.21514
 C1078 C 0.12811 0.53740 0.20367
 C1079 C 0.10807 0.54146 0.20112
 C1080 C 0.09963 0.55792 0.21013
 H1081 H 0.06693 0.60889 0.29267
 H1082 H 0.04418 0.62903 0.31178
 H1083 H 0.04245 0.67144 0.26416
 H1084 H 0.06559 0.65137 0.24515
 H1085 H 0.06435 0.62003 0.22792
 H1086 H 0.08276 0.59585 0.20864
 H1087 H 0.11771 0.58218 0.26024
 H1088 H 0.09981 0.60691 0.27932
 H1089 H 0.14045 0.57620 0.23314
 H1090 H 0.15516 0.54711 0.21743
 H1091 H 0.09888 0.53162 0.19249
 H1092 H 0.08398 0.56032 0.20841
 C1093 C 0.93732 0.37862 0.26676
 C1094 C 0.94136 0.35918 0.26097
 C1095 C 0.95280 0.34699 0.27304
 C1096 C 0.96025 0.35399 0.29120
 C1097 C 0.95548 0.37319 0.29730
 C1098 C 0.94421 0.38537 0.28519
 C1099 C 0.92690 0.39227 0.25329
 C1100 C 0.93431 0.41134 0.25032
 C1101 C 0.92463 0.42446 0.23784
 C1102 C 0.90724 0.41887 0.22810
 C1103 C 0.89979 0.39978 0.23100
 C1104 C 0.90963 0.38652 0.24337
 C1105 C 0.89681 0.43330 0.21547
 C1106 C 0.87642 0.43613 0.21743
 C1107 C 0.86709 0.45147 0.20733
 C1108 C 0.87798 0.46400 0.19492
 C1109 C 0.89816 0.46064 0.19231
 C1110 C 0.90749 0.44542 0.20246
 H1111 H 0.93628 0.35366 0.24678
 H1112 H 0.95620 0.33226 0.26795
 H1113 H 0.96090 0.37904 0.31122
 H1114 H 0.94106 0.40021 0.29013
 H1115 H 0.94771 0.41607 0.25760
 H1116 H 0.93058 0.43915 0.23609
 H1117 H 0.88643 0.39511 0.22361
 H1118 H 0.90360 0.37191 0.24547
 H1119 H 0.86789 0.42712 0.22752
 H1120 H 0.85156 0.45406 0.20976
 H1121 H 0.90680 0.47022 0.18286
 H1122 H 0.92317 0.44341 0.20051
 C1123 C 0.93329 0.62854 0.73300
 C1124 C 0.93862 0.62211 0.71391
 C1125 C 0.95150 0.63317 0.70225
 C1126 C 0.95939 0.65095 0.70940
 C1127 C 0.95362 0.65772 0.72824
 C1128 C 0.94071 0.64662 0.73993
 C1129 C 0.92106 0.61577 0.74596
 C1130 C 0.92587 0.61339 0.76609
 C1131 C 0.91580 0.59971 0.77777
 C1132 C 0.90072 0.58808 0.76958
 C1133 C 0.89534 0.59108 0.74969
 C1134 C 0.90538 0.60478 0.73802
 C1135 C 0.89167 0.57188 0.78124
 C1136 C 0.87151 0.56747 0.77947
 C1137 C 0.86349 0.55110 0.78911
 C1138 C 0.87547 0.53896 0.80076
 C1139 C 0.89547 0.54355 0.80290
 C1140 C 0.90349 0.55987 0.79328
 H1141 H 0.93341 0.60812 0.70824
 H1142 H 0.95565 0.62752 0.68782
 H1143 H 0.95939 0.67139 0.73414
 H1144 H 0.93669 0.65208 0.75447
 H1145 H 0.93796 0.62152 0.77262
 H1146 H 0.92011 0.59792 0.79312
 H1147 H 0.88390 0.58226 0.74289
 H1148 H 0.90116 0.60648 0.72264
 H1149 H 0.86200 0.57653 0.77042
 H1150 H 0.84806 0.54762 0.78713
 H1151 H 0.90496 0.53419 0.81166
 H1152 H 0.91911 0.56263 0.79467
 C1153 C 0.72960 0.62306 0.93731
 C1154 C 0.73647 0.64206 0.94178
 C1155 C 0.72530 0.65471 0.95370
 C1156 C 0.70694 0.64865 0.96131
 C1157 C 0.69974 0.62993 0.95593
 C1158 C 0.71097 0.61729 0.94417
 C1159 C 0.74222 0.60880 0.92658
 C1160 C 0.74403 0.58949 0.93371
 C1161 C 0.75606 0.57595 0.92400
 C1162 C 0.76649 0.58135 0.90685
 C1163 C 0.76462 0.60062 0.89958
 C1164 C 0.75270 0.61430 0.90947
 C1165 C 0.77904 0.56666 0.89664
 C1166 C 0.77792 0.56402 0.87598
 C1167 C 0.78823 0.54870 0.86677
 C1168 C 0.80005 0.53603 0.87804
 C1169 C 0.80173 0.53913 0.89855
 C1170 C 0.79134 0.55429 0.90776
 H1171 H 0.75083 0.64683 0.93672
 H1172 H 0.73135 0.66902 0.95736
 H1173 H 0.68563 0.62471 0.96126
 H1174 H 0.70520 0.60283 0.94066
 H1175 H 0.73631 0.58492 0.94698
 H1176 H 0.75704 0.56113 0.92979
 H1177 H 0.77255 0.60515 0.88642
 H1178 H 0.75150 0.62908 0.90364
 H1179 H 0.76840 0.57323 0.86711
 H1180 H 0.78651 0.54632 0.85097
 H1181 H 0.81070 0.52944 0.90749
 H1182 H 0.79264 0.55615 0.92367
 C1183 C 0.27018 0.37661 0.93574
 C1184 C 0.26329 0.35798 0.94152
 C1185 C 0.27445 0.34614 0.95419
 C1186 C 0.29274 0.35274 0.96149
 C1187 C 0.29978 0.37123 0.95524
 C1188 C 0.28865 0.38298 0.94254
 C1189 C 0.25782 0.38983 0.92344
 C1190 C 0.26631 0.40140 0.90844
 C1191 C 0.25497 0.41504 0.89801
 C1192 C 0.23491 0.41745 0.90240
 C1193 C 0.22628 0.40544 0.91698
 C1194 C 0.23761 0.39176 0.92736
 C1195 C 0.22333 0.43321 0.89265
 C1196 C 0.21051 0.44501 0.90390
 C1197 C 0.20063 0.46075 0.89515
 C1198 C 0.20325 0.46490 0.87496
 C1199 C 0.21576 0.45300 0.86356
 C1200 C 0.22572 0.43727 0.87232
 H1201 H 0.24921 0.35258 0.93632
 H1202 H 0.26852 0.33198 0.95851
 H1203 H 0.31377 0.37689 0.96045
 H1204 H 0.29425 0.39737 0.93855
 H1205 H 0.28180 0.40009 0.90494
 H1206 H 0.26208 0.42419 0.88698
 H1207 H 0.21081 0.40681 0.92054
 H1208 H 0.23067 0.38317 0.93894
 H1209 H 0.20861 0.44247 0.91964
 H1210 H 0.19119 0.46994 0.90420
 H1211 H 0.21809 0.45616 0.84799
 H1212 H 0.23539 0.42836 0.86325
 C1213 C 0.27138 0.62059 0.06353
 C1214 C 0.28973 0.61470 0.05605
 C1215 C 0.30078 0.62730 0.04408
 C1216 C 0.29370 0.64613 0.03912
 C1217 C 0.27563 0.65229 0.04730
 C1218 C 0.26463 0.63966 0.05941
 C1219 C 0.25897 0.60643 0.07467
 C1220 C 0.24897 0.61209 0.09203
 C1221 C 0.23735 0.59848 0.10237
 C1222 C 0.23531 0.57909 0.09536
 C1223 C 0.24524 0.57354 0.07795
 C1224 C 0.25695 0.58702 0.06776
 C1225 C 0.22320 0.56443 0.10617
 C1226 C 0.21088 0.55149 0.09562
 C1227 C 0.20095 0.53637 0.10540
 C1228 C 0.20307 0.53389 0.12594
 C1229 C 0.21486 0.54713 0.13666
 C1230 C 0.22476 0.56238 0.12687
 H1231 H 0.29544 0.60019 0.05928
 H1232 H 0.31467 0.62199 0.03830
 H1233 H 0.26968 0.66668 0.04396
 H1234 H 0.25050 0.64455 0.06493
 H1235 H 0.25035 0.62694 0.09771
 H1236 H 0.22980 0.60316 0.11572
 H1237 H 0.24415 0.55863 0.07234
 H1238 H 0.26428 0.58231 0.05430
 H1239 H 0.20921 0.55288 0.07970
 H1240 H 0.19198 0.52623 0.09688
 H1241 H 0.21692 0.54525 0.15247
 H1242 H 0.23430 0.57202 0.13533
 C1243 C 0.73277 0.37128 0.06447
 C1244 C 0.71382 0.37703 0.05864
 C1245 C 0.70267 0.36522 0.04592
 C1246 C 0.71020 0.34729 0.03865
 C1247 C 0.72894 0.34122 0.04509
 C1248 C 0.74011 0.35312 0.05779
 C1249 C 0.74517 0.38478 0.07651
 C1250 C 0.76508 0.38768 0.07168
 C1251 C 0.77626 0.40187 0.08163
 C1252 C 0.76780 0.41346 0.09667
 C1253 C 0.74811 0.41002 0.10204
 C1254 C 0.73692 0.39585 0.09205
 C1255 C 0.77902 0.42991 0.10580
 C1256 C 0.77736 0.43408 0.12619
 C1257 C 0.78688 0.45046 0.13438
 C1258 C 0.79824 0.46288 0.12234
 C1259 C 0.80015 0.45862 0.10208
 C1260 C 0.79070 0.44226 0.09389
 H1261 H 0.70784 0.39104 0.06333
 H1262 H 0.68832 0.37045 0.04142
 H1263 H 0.73525 0.32749 0.03999
 H1264 H 0.75458 0.34819 0.06225
 H1265 H 0.77183 0.37951 0.05967
 H1266 H 0.79146 0.40402 0.07733
 H1267 H 0.74112 0.41880 0.11344
 H1268 H 0.72168 0.39379 0.09627
 H1269 H 0.76858 0.42476 0.13576
 H1270 H 0.78510 0.45368 0.15003
 H1271 H 0.80869 0.46820 0.09254
 H1272 H 0.79199 0.43966 0.07809
 C1273 C 0.93673 0.73283 0.62611
 C1274 C 0.94406 0.73993 0.64426
 C1275 C 0.95649 0.72830 0.65589
 C1276 C 0.96201 0.70933 0.64954
 C1277 C 0.95421 0.70212 0.63157
 C1278 C 0.94175 0.71372 0.62005
 C1279 C 0.92471 0.74553 0.61295
 C1280 C 0.90873 0.73764 0.60235
 C1281 C 0.89868 0.74903 0.58843
 C1282 C 0.90440 0.76858 0.58477
 C1283 C 0.91990 0.77670 0.59592
 C1284 C 0.92993 0.76532 0.60988
 C1285 C 0.89507 0.77996 0.56852
 C1286 C 0.90672 0.79138 0.55568
 C1287 C 0.89829 0.80089 0.53943
 C1288 C 0.87806 0.79929 0.53579
 C1289 C 0.86629 0.78819 0.54872
 C1290 C 0.87472 0.77864 0.56498
 H1291 H 0.94026 0.75454 0.64941
 H1292 H 0.96206 0.73438 0.66965
 H1293 H 0.95800 0.68762 0.62611
 H1294 H 0.93657 0.70791 0.60602
 H1295 H 0.90421 0.72252 0.60458
 H1296 H 0.88692 0.74228 0.57999
 H1297 H 0.92449 0.79179 0.59360
 H1298 H 0.94226 0.77178 0.61770
 H1299 H 0.92248 0.79242 0.55778
 H1300 H 0.90761 0.80923 0.52946
 H1301 H 0.85067 0.78664 0.54599
 H1302 H 0.86535 0.77007 0.57469
 C1303 C 0.93072 0.27252 0.37440
 C1304 C 0.93750 0.26530 0.35609
 C1305 C 0.95057 0.27636 0.34455
 C1306 C 0.95729 0.29489 0.35113
 C1307 C 0.94994 0.30232 0.36920
 C1308 C 0.93686 0.29128 0.38066
 C1309 C 0.91822 0.26019 0.38755
 C1310 C 0.90285 0.26864 0.39860
 C1311 C 0.89238 0.25745 0.41243
 C1312 C 0.89707 0.23756 0.41555
 C1313 C 0.91195 0.22893 0.40396
 C1314 C 0.92239 0.24011 0.39011
 C1315 C 0.88737 0.22626 0.43169
 C1316 C 0.89859 0.21399 0.44405
 C1317 C 0.88990 0.20450 0.46020
 C1318 C 0.86982 0.20696 0.46422
 C1319 C 0.85847 0.21889 0.45175
 C1320 C 0.86716 0.22844 0.43558
 H1321 H 0.93282 0.25100 0.35076
 H1322 H 0.95573 0.27013 0.33069
 H1323 H 0.95464 0.31651 0.37482
 H1324 H 0.93210 0.29717 0.39481
 H1325 H 0.89914 0.28402 0.39679
 H1326 H 0.88112 0.26457 0.42123
 H1327 H 0.91574 0.21358 0.40585
 H1328 H 0.93425 0.23320 0.38195
 H1329 H 0.91424 0.21227 0.44167
 H1330 H 0.89892 0.19551 0.46982
 H1331 H 0.84298 0.22111 0.45479
 H1332 H 0.85812 0.23769 0.42625
 C1333 C 0.06315 0.26301 0.62917
 C1334 C 0.05791 0.28187 0.62257
 C1335 C 0.04551 0.29378 0.63389
 C1336 C 0.03797 0.28716 0.65218
 C1337 C 0.04365 0.26843 0.65902
 C1338 C 0.05604 0.25648 0.64760
 C1339 C 0.07519 0.24997 0.61629
 C1340 C 0.07014 0.23004 0.61388
 C1341 C 0.08012 0.21830 0.60012
 C1342 C 0.09539 0.22621 0.58851
 C1343 C 0.10098 0.24591 0.59155
 C1344 C 0.09099 0.25765 0.60528
 C1345 C 0.10446 0.21451 0.57227
 C1346 C 0.12469 0.21604 0.56810
 C1347 C 0.13273 0.20656 0.55154
 C1348 C 0.12071 0.19532 0.53895
 C1349 C 0.10065 0.19333 0.54336
 C1350 C 0.09261 0.20277 0.55990
 H1351 H 0.06291 0.28722 0.60831
 H1352 H 0.04157 0.30807 0.62804
 H1353 H 0.03828 0.26279 0.67304
 H1354 H 0.06000 0.24208 0.65315
 H1355 H 0.05796 0.22372 0.62204
 H1356 H 0.07563 0.20311 0.59828
 H1357 H 0.11255 0.25251 0.58274
 H1358 H 0.09538 0.27289 0.60700
 H1359 H 0.13422 0.22485 0.57744
 H1360 H 0.14821 0.20844 0.54821
 H1361 H 0.09112 0.18489 0.53367
 H1362 H 0.07693 0.20155 0.56249
 C1363 C 0.06018 0.73447 0.37439
 C1364 C 0.05545 0.74096 0.35522
 C1365 C 0.04379 0.72932 0.34271
 C1366 C 0.03675 0.71085 0.34909
 C1367 C 0.04233 0.70410 0.36802
 C1368 C 0.05380 0.71579 0.38050
 C1369 C 0.07086 0.74738 0.38848
 C1370 C 0.06401 0.74935 0.40803
 C1371 C 0.07402 0.76118 0.42161
 C1372 C 0.09120 0.77125 0.41599
 C1373 C 0.09807 0.76938 0.39640
 C1374 C 0.08788 0.75766 0.38270
 C1375 C 0.10203 0.78312 0.43089
 C1376 C 0.12251 0.78123 0.43301
 C1377 C 0.13228 0.79057 0.44870
 C1378 C 0.12175 0.80215 0.46230
 C1379 C 0.10145 0.80469 0.45969
 C1380 C 0.09169 0.79530 0.44413
 H1381 H 0.06017 0.75534 0.35020
 H1382 H 0.03995 0.73502 0.32823
 H1383 H 0.03743 0.68993 0.37350
 H1384 H 0.05753 0.71031 0.39510
 H1385 H 0.05081 0.74177 0.41281
 H1386 H 0.06853 0.76214 0.43666
 H1387 H 0.11125 0.77705 0.39170
 H1388 H 0.09348 0.75633 0.36771
 H1389 H 0.13079 0.77177 0.42314
 H1390 H 0.14791 0.78820 0.45068
 H1391 H 0.09308 0.81351 0.47010
 H1392 H 0.07594 0.79719 0.44269
 C1393 C 0.62670 0.93226 0.73114
 C1394 C 0.62056 0.93802 0.71211
 C1395 C 0.63207 0.95075 0.70070
 C1396 C 0.64999 0.95807 0.70804
 C1397 C 0.65646 0.95184 0.72681
 C1398 C 0.64493 0.93909 0.73823
 C1399 C 0.61355 0.92017 0.74388
 C1400 C 0.61134 0.92464 0.76413
 C1401 C 0.59756 0.91458 0.77572
 C1402 C 0.58566 0.89981 0.76734
 C1403 C 0.58840 0.89482 0.74728
 C1404 C 0.60219 0.90488 0.73569
 C1405 C 0.56956 0.89060 0.77906
 C1406 C 0.56501 0.87050 0.77691
 C1407 C 0.54882 0.86234 0.78677
 C1408 C 0.53699 0.87411 0.79902
 C1409 C 0.54171 0.89405 0.80151
 C1410 C 0.55786 0.90221 0.79169
 H1411 H 0.60649 0.93326 0.70630
 H1412 H 0.62663 0.95527 0.68632
 H1413 H 0.67023 0.95716 0.73287
 H1414 H 0.65020 0.93472 0.75272
 H1415 H 0.61973 0.93644 0.77088
 H1416 H 0.59598 0.91860 0.79119
 H1417 H 0.57936 0.88364 0.74032
 H1418 H 0.60373 0.90090 0.72020
 H1419 H 0.57383 0.86115 0.76741
 H1420 H 0.54523 0.84696 0.78449
 H1421 H 0.53259 0.90340 0.81073
 H1422 H 0.56073 0.91780 0.79340
 C1423 C 0.37039 0.93445 0.26520
 C1424 C 0.37613 0.94049 0.28429
 C1425 C 0.36442 0.95338 0.29530
 C1426 C 0.34668 0.96056 0.28748
 C1427 C 0.34066 0.95413 0.26860
 C1428 C 0.35241 0.94124 0.25756
 C1429 C 0.38369 0.92200 0.25299
 C1430 C 0.38659 0.92613 0.23277
 C1431 C 0.40053 0.91570 0.22173
 C1432 C 0.41188 0.90089 0.23065
 C1433 C 0.40843 0.89623 0.25066
 C1434 C 0.39450 0.90667 0.26170
 C1435 C 0.42820 0.89132 0.21958
 C1436 C 0.43229 0.87117 0.22202
 C1437 C 0.44874 0.86271 0.21292
 C1438 C 0.46131 0.87422 0.20117
 C1439 C 0.45703 0.89419 0.19835
 C1440 C 0.44062 0.90265 0.20740
 H1441 H 0.39003 0.93578 0.29050
 H1442 H 0.36951 0.95806 0.30978
 H1443 H 0.32705 0.95934 0.26217
 H1444 H 0.34748 0.93667 0.24299
 H1445 H 0.37863 0.93794 0.22565
 H1446 H 0.40268 0.91947 0.20628
 H1447 H 0.41703 0.88502 0.25802
 H1448 H 0.39242 0.90296 0.27718
 H1449 H 0.42292 0.86204 0.23119
 H1450 H 0.45197 0.84731 0.21543
 H1451 H 0.46672 0.90333 0.18952
 H1452 H 0.43810 0.91825 0.20549
 C1453 C 0.62129 0.06177 0.26871
 C1454 C 0.61500 0.05511 0.28738
 C1455 C 0.62740 0.04384 0.29925
 C1456 C 0.64638 0.03883 0.29269
 C1457 C 0.65293 0.04604 0.27428
 C1458 C 0.64052 0.05748 0.26244
 C1459 C 0.60738 0.07220 0.25549
 C1460 C 0.61308 0.08921 0.24511
 C1461 C 0.59965 0.09900 0.23288
 C1462 C 0.58040 0.09175 0.23058
 C1463 C 0.57483 0.07465 0.24082
 C1464 C 0.58813 0.06503 0.25317
 C1465 C 0.56586 0.10206 0.21795
 C1466 C 0.55337 0.09121 0.20541
 C1467 C 0.53822 0.10051 0.19513
 C1468 C 0.53527 0.12084 0.19713
 C1469 C 0.54811 0.13185 0.20912
 C1470 C 0.56339 0.12255 0.21935
 H1471 H 0.60033 0.05845 0.29269
 H1472 H 0.62190 0.03860 0.31337
 H1473 H 0.66748 0.04245 0.26882
 H1474 H 0.64570 0.06236 0.24806
 H1475 H 0.62782 0.09507 0.24671
 H1476 H 0.60433 0.11213 0.22509
 H1477 H 0.56002 0.06887 0.23953
 H1478 H 0.58340 0.05183 0.26080
 H1479 H 0.55509 0.07544 0.20389
 H1480 H 0.52840 0.09176 0.18602
 H1481 H 0.54585 0.14751 0.21110
 H1482 H 0.57269 0.13122 0.22906
 C1483 C 0.37126 0.06775 0.73107
 C1484 C 0.37771 0.06166 0.71222
 C1485 C 0.36647 0.04859 0.70089
 C1486 C 0.34849 0.04130 0.70815
 C1487 C 0.34172 0.04787 0.72672
 C1488 C 0.35300 0.06094 0.73807
 C1489 C 0.38415 0.08018 0.74377
 C1490 C 0.38625 0.07601 0.76407
 C1491 C 0.39989 0.08632 0.77562
 C1492 C 0.41174 0.10105 0.76714
 C1493 C 0.40906 0.10578 0.74703
 C1494 C 0.39543 0.09546 0.73548
 C1495 C 0.42782 0.11039 0.77876
 C1496 C 0.43231 0.13049 0.77653
 C1497 C 0.44863 0.13870 0.78611
 C1498 C 0.46067 0.12698 0.79813
 C1499 C 0.45596 0.10707 0.80078
 C1500 C 0.43966 0.09886 0.79125
 H1501 H 0.39183 0.06641 0.70650
 H1502 H 0.37213 0.04382 0.68666
 H1503 H 0.32791 0.04258 0.73271
 H1504 H 0.34752 0.06556 0.75242
 H1505 H 0.37792 0.06422 0.77088
 H1506 H 0.40144 0.08250 0.79113
 H1507 H 0.41807 0.11693 0.74000
 H1508 H 0.39396 0.09920 0.71994
 H1509 H 0.42337 0.13977 0.76712
 H1510 H 0.45221 0.15406 0.78373
 H1511 H 0.46524 0.09777 0.80982
 H1512 H 0.43683 0.08328 0.79302
 C1513 C 0.62756 0.73459 0.06666
 C1514 C 0.64557 0.74159 0.05916
 C1515 C 0.65678 0.73002 0.04622
 C1516 C 0.65019 0.71123 0.04046
 C1517 C 0.63241 0.70409 0.04833
 C1518 C 0.62125 0.71562 0.06126
 C1519 C 0.61482 0.74728 0.07921
 C1520 C 0.60415 0.73923 0.09513
 C1521 C 0.59055 0.75065 0.10558
 C1522 C 0.58731 0.77039 0.10036
 C1523 C 0.59859 0.77867 0.08499
 C1524 C 0.61219 0.76725 0.07453
 C1525 C 0.57120 0.78177 0.10988
 C1526 C 0.55882 0.79363 0.09826
 C1527 C 0.54247 0.80283 0.10668
 C1528 C 0.53822 0.80047 0.12690
 C1529 C 0.55079 0.78908 0.13869
 C1530 C 0.56718 0.77985 0.13027
 H1531 H 0.65092 0.75606 0.06321
 H1532 H 0.67044 0.73593 0.04046
 H1533 H 0.62688 0.68970 0.04419
 H1534 H 0.60731 0.70990 0.06652
 H1535 H 0.60604 0.72397 0.09927
 H1536 H 0.58200 0.74377 0.11722
 H1537 H 0.59660 0.79391 0.08078
 H1538 H 0.62007 0.77386 0.06226
 H1539 H 0.56128 0.79515 0.08247
 H1540 H 0.53278 0.81139 0.09732
 H1541 H 0.54759 0.78692 0.15428
 H1542 H 0.57653 0.77094 0.13963
 C1543 C 0.37563 0.26829 0.06469
 C1544 C 0.35760 0.26103 0.05751
 C1545 C 0.34575 0.27263 0.04527
 C1546 C 0.35170 0.29172 0.03991
 C1547 C 0.36947 0.29915 0.04754
 C1548 C 0.38128 0.28758 0.05978
 C1549 C 0.38903 0.25554 0.07636
 C1550 C 0.39989 0.26330 0.09231
 C1551 C 0.41379 0.25176 0.10215
 C1552 C 0.41717 0.23220 0.09625
 C1553 C 0.40584 0.22425 0.08074
 C1554 C 0.39193 0.23578 0.07091
 C1555 C 0.43321 0.22056 0.10546
 C1556 C 0.44559 0.20889 0.09356
 C1557 C 0.46153 0.19897 0.10189
 C1558 C 0.46534 0.20040 0.12228
 C1559 C 0.45289 0.21178 0.13428
 C1560 C 0.43693 0.22174 0.12596
 H1561 H 0.35273 0.24632 0.06123
 H1562 H 0.33212 0.26649 0.03968
 H1563 H 0.37451 0.31378 0.04369
 H1564 H 0.39519 0.29352 0.06483
 H1565 H 0.39783 0.27840 0.09702
 H1566 H 0.42239 0.25838 0.11392
 H1567 H 0.40792 0.20916 0.07601
 H1568 H 0.38393 0.22941 0.05858
 H1569 H 0.44334 0.20795 0.07769
 H1570 H 0.47113 0.19043 0.09238
 H1571 H 0.45578 0.21322 0.15002
 H1572 H 0.42758 0.23049 0.13552
 C1573 C 0.62860 0.26572 0.93152
 C1574 C 0.62266 0.28464 0.93740
 C1575 C 0.63423 0.29581 0.95033
 C1576 C 0.65204 0.28832 0.95768
 C1577 C 0.65829 0.26963 0.95135
 C1578 C 0.64666 0.25842 0.93844
 C1579 C 0.61538 0.25332 0.91915
 C1580 C 0.61253 0.23334 0.92372
 C1581 C 0.59855 0.22217 0.91347
 C1582 C 0.58714 0.23071 0.89840
 C1583 C 0.59058 0.25046 0.89327
 C1584 C 0.60453 0.26164 0.90355
 C1585 C 0.57076 0.21955 0.88906
 C1586 C 0.56664 0.22149 0.86870
 C1587 C 0.55013 0.21232 0.86041
 C1588 C 0.53751 0.20103 0.87233
 C1589 C 0.54181 0.19871 0.89252
 C1590 C 0.55830 0.20782 0.90080
 H1591 H 0.60870 0.29058 0.93257
 H1592 H 0.62897 0.31015 0.95490
 H1593 H 0.67196 0.26346 0.95671
 H1594 H 0.65173 0.24397 0.93399
 H1595 H 0.62053 0.22654 0.93576
 H1596 H 0.59639 0.20692 0.91759
 H1597 H 0.58192 0.25751 0.88186
 H1598 H 0.60658 0.27692 0.89952
 H1599 H 0.57604 0.23031 0.85926
 H1600 H 0.54689 0.21443 0.84483
 H1601 H 0.53209 0.19022 0.90196
 H1602 H 0.56086 0.20631 0.91658
 C1603 C 0.37290 0.73299 0.93453
 C1604 C 0.37863 0.71363 0.93894
 C1605 C 0.36730 0.70194 0.95157
 C1606 C 0.34994 0.70931 0.96012
 C1607 C 0.34390 0.72849 0.95531
 C1608 C 0.35528 0.74022 0.94268
 C1609 C 0.38589 0.74580 0.92236
 C1610 C 0.38930 0.76547 0.92792
 C1611 C 0.40309 0.77692 0.91772
 C1612 C 0.41376 0.76899 0.90173
 C1613 C 0.40977 0.74958 0.89569
 C1614 C 0.39599 0.73813 0.90588
 C1615 C 0.42993 0.78037 0.89227
 C1616 C 0.43329 0.77921 0.87170
 C1617 C 0.44957 0.78857 0.86317
 C1618 C 0.46270 0.79934 0.87505
 C1619 C 0.45917 0.80087 0.89548
 C1620 C 0.44292 0.79154 0.90401
 H1621 H 0.39225 0.70771 0.93316
 H1622 H 0.37240 0.68725 0.95496
 H1623 H 0.33058 0.73458 0.96162
 H1624 H 0.35038 0.75501 0.93939
 H1625 H 0.38188 0.77178 0.94064
 H1626 H 0.40566 0.79191 0.92258
 H1627 H 0.41784 0.74296 0.88355
 H1628 H 0.39350 0.72311 0.90108
 H1629 H 0.42347 0.77085 0.86224
 H1630 H 0.45221 0.78704 0.84740
 H1631 H 0.46928 0.80893 0.90490
 H1632 H 0.44097 0.79244 0.91993
 C1633 C 0.73277 0.93920 0.37932
 C1634 C 0.73820 0.94288 0.35956
 C1635 C 0.72629 0.95454 0.34739
 C1636 C 0.70867 0.96256 0.35473
 C1637 C 0.70292 0.95819 0.37426
 C1638 C 0.71486 0.94669 0.38642
 C1639 C 0.74611 0.92846 0.39290
 C1640 C 0.74956 0.93581 0.41207
 C1641 C 0.76199 0.92589 0.42508
 C1642 C 0.77122 0.90832 0.41928
 C1643 C 0.76781 0.90092 0.40009
 C1644 C 0.75548 0.91099 0.38695
 C1645 C 0.78390 0.89770 0.43357
 C1646 C 0.78182 0.87730 0.43640
 C1647 C 0.79202 0.86783 0.45168
 C1648 C 0.80463 0.87858 0.46415
 C1649 C 0.80737 0.89875 0.46075
 C1650 C 0.79715 0.90821 0.44560
 H1651 H 0.75198 0.93735 0.35375
 H1652 H 0.73111 0.95761 0.33239
 H1653 H 0.68941 0.96406 0.38037
 H1654 H 0.71019 0.94383 0.40151
 H1655 H 0.74272 0.94936 0.41697
 H1656 H 0.76413 0.93181 0.43985
 H1657 H 0.77480 0.88743 0.39525
 H1658 H 0.75300 0.90499 0.37227
 H1659 H 0.77158 0.86889 0.42747
 H1660 H 0.78948 0.85231 0.45429
 H1661 H 0.81697 0.90729 0.47030
 H1662 H 0.79922 0.92389 0.44359
 C1663 C 0.26941 0.93200 0.62549
 C1664 C 0.28819 0.93820 0.61936
 C1665 C 0.29930 0.95098 0.63114
 C1666 C 0.29190 0.95787 0.64934
 C1667 C 0.27342 0.95114 0.65582
 C1668 C 0.26228 0.93836 0.64401
 C1669 C 0.25691 0.91998 0.61204
 C1670 C 0.23683 0.92434 0.60980
 C1671 C 0.22543 0.91434 0.59578
 C1672 C 0.23383 0.89975 0.58366
 C1673 C 0.25373 0.89487 0.58640
 C1674 C 0.26514 0.90489 0.60042
 C1675 C 0.22226 0.89056 0.56740
 C1676 C 0.22421 0.87043 0.56292
 C1677 C 0.21429 0.86223 0.54669
 C1678 C 0.20225 0.87401 0.53474
 C1679 C 0.20005 0.89401 0.53933
 C1680 C 0.20990 0.90220 0.55554
 H1681 H 0.29400 0.93378 0.60507
 H1682 H 0.31348 0.95589 0.62570
 H1683 H 0.26732 0.95611 0.66980
 H1684 H 0.24798 0.93363 0.64925
 H1685 H 0.23008 0.93600 0.61838
 H1686 H 0.21008 0.91826 0.59418
 H1687 H 0.26067 0.88381 0.57720
 H1688 H 0.28051 0.90104 0.60195
 H1689 H 0.23352 0.86107 0.57186
 H1690 H 0.21631 0.84680 0.54320
 H1691 H 0.19099 0.90335 0.53010
 H1692 H 0.20835 0.91781 0.55837
 C1693 C 0.26312 0.06648 0.37000
 C1694 C 0.25634 0.05991 0.35143
 C1695 C 0.26791 0.04745 0.33971
 C1696 C 0.28649 0.04125 0.34635
 C1697 C 0.29349 0.04829 0.36465
 C1698 C 0.28195 0.06075 0.37633
 C1699 C 0.25028 0.07830 0.38329
 C1700 C 0.25815 0.09362 0.39487
 C1701 C 0.24647 0.10342 0.40881
 C1702 C 0.22666 0.09810 0.41149
 C1703 C 0.21859 0.08330 0.39936
 C1704 C 0.23026 0.07352 0.38541
 C1705 C 0.21491 0.10697 0.42781
 C1706 C 0.20280 0.09500 0.43968
 C1707 C 0.19313 0.10282 0.45618
 C1708 C 0.19524 0.12277 0.46107
 C1709 C 0.20689 0.13491 0.44900
 C1710 C 0.21662 0.12709 0.43248
 H1711 H 0.24200 0.06425 0.34604
 H1712 H 0.26211 0.04234 0.32566
 H1713 H 0.30772 0.04379 0.37022
 H1714 H 0.28751 0.06533 0.39067
 H1715 H 0.27346 0.09780 0.39341
 H1716 H 0.25318 0.11463 0.41802
 H1717 H 0.20331 0.07903 0.40092
 H1718 H 0.22378 0.06168 0.37684
 H1719 H 0.20143 0.07939 0.43670
 H1720 H 0.18439 0.09319 0.46548
 H1721 H 0.20886 0.15031 0.45271
 H1722 H 0.22572 0.13670 0.42353
 C1723 C 0.72912 0.06722 0.62526
 C1724 C 0.71044 0.06078 0.61911
 C1725 C 0.69958 0.04767 0.63072
 C1726 C 0.70712 0.04071 0.64880
 C1727 C 0.72556 0.04758 0.65524
 C1728 C 0.73646 0.06067 0.64358
 C1729 C 0.74124 0.07988 0.61206
 C1730 C 0.76140 0.07608 0.60950
 C1731 C 0.77246 0.08678 0.59573
 C1732 C 0.76361 0.10155 0.58424
 C1733 C 0.74362 0.10584 0.58732
 C1734 C 0.73256 0.09511 0.60106
 C1735 C 0.77483 0.11158 0.56824
 C1736 C 0.77230 0.13179 0.56453
 C1737 C 0.78178 0.14077 0.54848
 C1738 C 0.79397 0.12971 0.53592
 C1739 C 0.79679 0.10965 0.53977
 C1740 C 0.78738 0.10068 0.55581
 H1741 H 0.70448 0.06534 0.60496
 H1742 H 0.68543 0.04266 0.62531
 H1743 H 0.73177 0.04254 0.66911
 H1744 H 0.75071 0.06556 0.64882
 H1745 H 0.76850 0.06434 0.61762
 H1746 H 0.78788 0.08329 0.59386
 H1747 H 0.73634 0.11701 0.57859
 H1748 H 0.71712 0.09854 0.60287
 H1749 H 0.76284 0.14059 0.57393
 H1750 H 0.77927 0.15623 0.54557
 H1751 H 0.80598 0.10086 0.53007
 H1752 H 0.78938 0.08504 0.55804
 C1753 C 0.93875 0.62373 0.26261
 C1754 C 0.94279 0.64307 0.25649
 C1755 C 0.95426 0.65556 0.26836
 C1756 C 0.96170 0.64895 0.28663
 C1757 C 0.95692 0.62986 0.29303
 C1758 C 0.94564 0.61739 0.28114
 C1759 C 0.92824 0.60976 0.24943
 C1760 C 0.93561 0.59065 0.24680
 C1761 C 0.92575 0.57716 0.23477
 C1762 C 0.90822 0.58241 0.22516
 C1763 C 0.90084 0.60156 0.22768
 C1764 C 0.91087 0.61519 0.23959
 C1765 C 0.89754 0.56756 0.21313
 C1766 C 0.87717 0.56478 0.21548
 C1767 C 0.86764 0.54911 0.20598
 C1768 C 0.87829 0.53616 0.19381
 C1769 C 0.89845 0.53943 0.19081
 C1770 C 0.90798 0.55498 0.20034
 H1771 H 0.93769 0.64828 0.24222
 H1772 H 0.95765 0.67020 0.26303
 H1773 H 0.96233 0.62431 0.30705
 H1774 H 0.94249 0.60264 0.28633
 H1775 H 0.94909 0.58615 0.25403
 H1776 H 0.93165 0.56243 0.23331
 H1777 H 0.88738 0.60599 0.22037
 H1778 H 0.90487 0.62983 0.24144
 H1779 H 0.86883 0.57413 0.22540
 H1780 H 0.85213 0.54662 0.20871
 H1781 H 0.90691 0.52953 0.18153
 H1782 H 0.92364 0.55692 0.19810
 C1783 C 0.93903 0.37840 0.73294
 C1784 C 0.94286 0.35930 0.73987
 C1785 C 0.95440 0.34634 0.72867
 C1786 C 0.96220 0.35219 0.71026
 C1787 C 0.95769 0.37104 0.70305
 C1788 C 0.94629 0.38399 0.71427
 C1789 C 0.92835 0.39285 0.74544
 C1790 C 0.93546 0.41221 0.74712
 C1791 C 0.92560 0.42600 0.75878
 C1792 C 0.90834 0.42082 0.76899
 C1793 C 0.90117 0.40146 0.76734
 C1794 C 0.91117 0.38756 0.75576
 C1795 C 0.89783 0.43582 0.78098
 C1796 C 0.87730 0.43793 0.77956
 C1797 C 0.86776 0.45338 0.78935
 C1798 C 0.87855 0.46678 0.80091
 C1799 C 0.89893 0.46430 0.80286
 C1800 C 0.90847 0.44895 0.79302
 H1801 H 0.93753 0.35465 0.75426
 H1802 H 0.95759 0.33191 0.73463
 H1803 H 0.96337 0.37601 0.68890
 H1804 H 0.94330 0.39851 0.70842
 H1805 H 0.94879 0.41664 0.73952
 H1806 H 0.93134 0.44086 0.75956
 H1807 H 0.88794 0.39706 0.77513
 H1808 H 0.90534 0.37276 0.75465
 H1809 H 0.86878 0.42814 0.77021
 H1810 H 0.85206 0.45527 0.78743
 H1811 H 0.90751 0.47455 0.81164
 H1812 H 0.92426 0.44753 0.79458
 C1813 C 0.06245 0.62050 0.73051
 C1814 C 0.05853 0.63967 0.73726
 C1815 C 0.04686 0.65240 0.72598
 C1816 C 0.03903 0.64621 0.70769
 C1817 C 0.04366 0.62730 0.70064
 C1818 C 0.05519 0.61459 0.71193
 C1819 C 0.07321 0.60627 0.74313
 C1820 C 0.06617 0.58692 0.74505
 C1821 C 0.07611 0.57332 0.75679
 C1822 C 0.09338 0.57870 0.76687
 C1823 C 0.10048 0.59806 0.76499
 C1824 C 0.09039 0.61177 0.75333
 C1825 C 0.10400 0.56389 0.77891
 C1826 C 0.12453 0.56183 0.77736
 C1827 C 0.13417 0.54650 0.78718
 C1828 C 0.12348 0.53318 0.79889
 C1829 C 0.10310 0.53562 0.80097
 C1830 C 0.09346 0.55084 0.79111
 H1831 H 0.06387 0.64456 0.75158
 H1832 H 0.04358 0.66688 0.73181
 H1833 H 0.03797 0.62208 0.68658
 H1834 H 0.05826 0.60001 0.70623
 H1835 H 0.05283 0.58233 0.73756
 H1836 H 0.07042 0.55845 0.75775
 H1837 H 0.11372 0.60261 0.77267
 H1838 H 0.09617 0.62657 0.75204
 H1839 H 0.13297 0.57154 0.76789
 H1840 H 0.14987 0.54464 0.78516
 H1841 H 0.09461 0.52543 0.80987
 H1842 H 0.07768 0.55222 0.79276
 C1843 C 0.06610 0.37581 0.27185
 C1844 C 0.05931 0.35773 0.26430
 C1845 C 0.04633 0.34608 0.27534
 C1846 C 0.03981 0.35229 0.29413
 C1847 C 0.04707 0.37009 0.30189
 C1848 C 0.06005 0.38170 0.29089
 C1849 C 0.07851 0.38907 0.25956
 C1850 C 0.09386 0.40002 0.26819
 C1851 C 0.10431 0.41387 0.25702
 C1852 C 0.09962 0.41709 0.23699
 C1853 C 0.08474 0.40565 0.22819
 C1854 C 0.07431 0.39180 0.23934
 C1855 C 0.10939 0.43312 0.22568
 C1856 C 0.09826 0.44538 0.21323
 C1857 C 0.10707 0.46128 0.20355
 C1858 C 0.12718 0.46515 0.20602
 C1859 C 0.13843 0.45284 0.21821
 C1860 C 0.12962 0.43692 0.22793
 H1861 H 0.06390 0.35268 0.24977
 H1862 H 0.04105 0.33242 0.26895
 H1863 H 0.04234 0.37533 0.31631
 H1864 H 0.06479 0.39566 0.29703
 H1865 H 0.09761 0.39809 0.28367
 H1866 H 0.11558 0.42254 0.26429
 H1867 H 0.08095 0.40762 0.21272
 H1868 H 0.06247 0.38373 0.23229
 H1869 H 0.08260 0.44308 0.21146
 H1870 H 0.09813 0.47078 0.19437
 H1871 H 0.15394 0.45577 0.22043
 H1872 H 0.13860 0.42766 0.23731
   
