data_POSCAR
  _audit_creation_date              2014-09-24
  _audit_creation_method            'ToBaCCo'
  _symmetry_space_group_name_H-M    'P1'
  _symmetry_Int_Tables_number       1
  _symmetry_cell_setting            triclinic
  loop_
  _symmetry_equiv_pos_as_xyz
 x,y,z
_cell_length_a 61.7143
_cell_length_b 61.5663
_cell_length_c 61.5962
_cell_angle_alpha 89.949100
_cell_angle_beta 89.986200
_cell_angle_gamma 89.950400
loop_
  _atom_site_label
  _atom_site_type_symbol
  _atom_site_fract_x
  _atom_site_fract_y
  _atom_site_fract_z
N1 N 0.36545 1.35185 0.30587
 N2 N 0.34988 1.36646 0.30562
 C3 C 0.35311 1.38008 0.28877
 C4 C 0.37162 1.37350 0.27808
 C5 C 0.37909 1.35561 0.28923
 H6 H 0.34285 1.39370 0.28460
 H7 H 0.39333 1.34604 0.28551
 Cu8 Cu 0.32694 1.36629 0.32736
 Cu9 Cu 0.36695 1.32905 0.32768
 Cu10 Cu 0.32701 1.32884 0.36724
 N11 N 0.30509 1.36633 0.35019
 N12 N 0.30520 1.35160 0.36569
 C13 C 0.28851 1.35529 0.37927
 C14 C 0.27749 1.37328 0.37185
 C15 C 0.28829 1.37997 0.35342
 H16 H 0.28468 1.34562 0.39343
 H17 H 0.28421 1.39367 0.34320
 N18 N 0.35048 1.30716 0.36610
 N19 N 0.36573 1.30729 0.35105
 C20 C 0.37937 1.29057 0.35464
 C21 C 0.37230 1.27955 0.37275
 C22 C 0.35401 1.29034 0.37966
 H23 H 0.39334 1.28663 0.34481
 H24 H 0.34405 1.28618 0.39349
 H25 H 0.33413 1.32796 0.33450
 H26 H 0.35098 1.34638 0.35168
 N27 N 0.36626 0.85150 0.80645
 N28 N 0.35129 0.86672 0.80682
 C29 C 0.35454 0.88037 0.79001
 C30 C 0.37244 0.87322 0.77869
 C31 C 0.37953 0.85492 0.78944
 H32 H 0.34470 0.89442 0.78626
 H33 H 0.39330 0.84490 0.78522
 Cu34 Cu 0.32910 0.86722 0.82925
 Cu35 Cu 0.36757 0.82849 0.82809
 Cu36 Cu 0.32771 0.82843 0.86774
 N37 N 0.30655 0.86664 0.85132
 N38 N 0.30611 0.85140 0.86629
 C39 C 0.28908 0.85480 0.87952
 C40 C 0.27840 0.87312 0.87240
 C41 C 0.28977 0.88029 0.85452
 H42 H 0.28481 0.84475 0.89327
 H43 H 0.28607 0.89435 0.84466
 N44 N 0.35101 0.80658 0.86646
 N45 N 0.36620 0.80660 0.85134
 C46 C 0.37974 0.78979 0.85488
 C47 C 0.37266 0.77882 0.87301
 C48 C 0.35449 0.78974 0.88002
 H49 H 0.39368 0.78578 0.84502
 H50 H 0.34459 0.78567 0.89392
 H51 H 0.33467 0.82843 0.83498
 H52 H 0.35230 0.84543 0.85281
 N53 N 0.86636 1.35137 0.80521
 N54 N 0.85086 1.36606 0.80501
 C55 C 0.85410 1.37966 0.78815
 C56 C 0.87254 1.37300 0.77742
 C57 C 0.87996 1.35506 0.78852
 H58 H 0.84385 1.39329 0.78397
 H59 H 0.89413 1.34542 0.78475
 Cu60 Cu 0.82791 1.36598 0.82673
 Cu61 Cu 0.86790 1.32864 0.82710
 Cu62 Cu 0.82813 1.32869 0.86675
 N63 N 0.80611 1.36610 0.84962
 N64 N 0.80629 1.35140 0.86514
 C65 C 0.78959 1.35506 0.87872
 C66 C 0.77847 1.37299 0.87130
 C67 C 0.78925 1.37966 0.85285
 H68 H 0.78581 1.34540 0.89289
 H69 H 0.78507 1.39330 0.84258
 N70 N 0.85158 1.30701 0.86569
 N71 N 0.86676 1.30699 0.85056
 C72 C 0.88038 1.29026 0.85422
 C73 C 0.87338 1.27942 0.87247
 C74 C 0.85516 1.29031 0.87938
 H75 H 0.89430 1.28619 0.84435
 H76 H 0.84526 1.28628 0.89329
 H77 H 0.83506 1.32770 0.83408
 H78 H 0.85199 1.34621 0.85112
 N79 N 0.86600 0.85142 0.30529
 N80 N 0.85064 0.86626 0.30516
 C81 C 0.85406 0.87998 0.28844
 C82 C 0.87246 0.87324 0.27768
 C83 C 0.87968 0.85513 0.28866
 H84 H 0.84398 0.89378 0.28438
 H85 H 0.89379 0.84540 0.28486
 Cu86 Cu 0.82762 0.86618 0.32680
 Cu87 Cu 0.86727 0.82858 0.32708
 Cu88 Cu 0.82733 0.82866 0.36664
 N89 N 0.80570 0.86629 0.34954
 N90 N 0.80564 0.85151 0.36498
 C91 C 0.78890 0.85529 0.37848
 C92 C 0.77802 0.87338 0.37108
 C93 C 0.78898 0.88003 0.35274
 H94 H 0.78495 0.84564 0.39262
 H95 H 0.78507 0.89381 0.34257
 N96 N 0.85068 0.80686 0.36559
 N97 N 0.86588 0.80681 0.35049
 C98 C 0.87945 0.79005 0.35416
 C99 C 0.87241 0.77920 0.37240
 C100 C 0.85419 0.79013 0.37928
 H101 H 0.89341 0.78600 0.34435
 H102 H 0.84428 0.78615 0.39320
 H103 H 0.83448 0.82778 0.33396
 H104 H 0.85149 0.84603 0.35115
 N105 N 0.63405 0.64907 0.30623
 N106 N 0.64961 0.63446 0.30588
 C107 C 0.64621 0.62079 0.28915
 C108 C 0.62763 0.62732 0.27860
 C109 C 0.62027 0.64526 0.28972
 H110 H 0.65638 0.60710 0.28498
 H111 H 0.60599 0.65479 0.28610
 Cu112 Cu 0.67270 0.63454 0.32736
 Cu113 Cu 0.63270 0.67181 0.32803
 Cu114 Cu 0.67266 0.67171 0.36748
 N115 N 0.69449 0.63435 0.35014
 N116 N 0.69439 0.64891 0.36576
 C117 C 0.71106 0.64503 0.37929
 C118 C 0.72205 0.62710 0.37172
 C119 C 0.71123 0.62064 0.35326
 H120 H 0.71491 0.65452 0.39355
 H121 H 0.71525 0.60700 0.34297
 N122 N 0.64930 0.69345 0.36648
 N123 N 0.63407 0.69348 0.35142
 C124 C 0.62050 0.71024 0.35508
 C125 C 0.62759 0.72110 0.37325
 C126 C 0.64583 0.71019 0.38012
 H127 H 0.60655 0.71430 0.34526
 H128 H 0.65580 0.71420 0.39397
 H129 H 0.66551 0.67280 0.33475
 H130 H 0.64869 0.65415 0.35183
 N131 N 0.63374 0.14891 0.80527
 N132 N 0.64925 0.13423 0.80500
 C133 C 0.64594 0.12062 0.78820
 C134 C 0.62745 0.12727 0.77754
 C135 C 0.62005 0.14520 0.78866
 H136 H 0.65615 0.10696 0.78403
 H137 H 0.60583 0.15479 0.78496
 Cu138 Cu 0.67225 0.13422 0.82662
 Cu139 Cu 0.63237 0.17165 0.82714
 Cu140 Cu 0.67229 0.17141 0.86668
 N141 N 0.69408 0.13397 0.84942
 N142 N 0.69400 0.14858 0.86499
 C143 C 0.71067 0.14471 0.87855
 C144 C 0.72167 0.12675 0.87104
 C145 C 0.71084 0.12025 0.85258
 H146 H 0.71448 0.15421 0.89280
 H147 H 0.71485 0.10659 0.84231
 N148 N 0.64891 0.19321 0.86565
 N149 N 0.63369 0.19331 0.85057
 C150 C 0.62016 0.21011 0.85424
 C151 C 0.62728 0.22093 0.87244
 C152 C 0.64546 0.20995 0.87930
 H153 H 0.60622 0.21422 0.84443
 H154 H 0.65541 0.21393 0.89318
 H155 H 0.66530 0.17253 0.83406
 H156 H 0.64837 0.15405 0.85114
 N157 N 1.13409 0.64917 0.80626
 N158 N 1.14980 0.63472 0.80582
 C159 C 1.14658 0.62117 0.78895
 C160 C 1.12791 0.62757 0.77845
 C161 C 1.12036 0.64533 0.78972
 H162 H 1.15695 0.60770 0.78461
 H163 H 1.10598 0.65472 0.78614
 Cu164 Cu 1.17286 0.63484 0.82737
 Cu165 Cu 1.13253 0.67178 0.82819
 Cu166 Cu 1.17244 0.67179 0.86770
 N167 N 1.19460 0.63466 0.85025
 N168 N 1.19434 0.64914 0.86595
 C169 C 1.21097 0.64524 0.87956
 C170 C 1.22211 0.62741 0.87194
 C171 C 1.21143 0.62104 0.85336
 H172 H 1.21467 0.65462 0.89393
 H173 H 1.21560 0.60752 0.84298
 N174 N 1.14890 0.69339 0.86673
 N175 N 1.13366 0.69336 0.85167
 C176 C 1.12008 0.71012 0.85525
 C177 C 1.12717 0.72106 0.87337
 C178 C 1.14541 0.71020 0.88029
 H179 H 1.10617 0.71417 0.84537
 H180 H 1.15542 0.71434 0.89408
 H181 H 1.16538 0.67301 0.83503
 H182 H 1.14869 0.65420 0.85199
 N183 N 1.13373 0.14851 0.30631
 N184 N 1.14869 0.13328 0.30667
 C185 C 1.14543 0.11967 0.28986
 C186 C 1.12751 0.12684 0.27858
 C187 C 1.12045 0.14513 0.28931
 H188 H 1.15528 0.10564 0.28608
 H189 H 1.10671 0.15519 0.28508
 Cu190 Cu 1.17088 0.13272 0.32909
 Cu191 Cu 1.13249 0.17150 0.32790
 Cu192 Cu 1.17240 0.17151 0.36751
 N193 N 1.19344 0.13323 0.35114
 N194 N 1.19394 0.14847 0.36609
 C195 C 1.21102 0.14503 0.37926
 C196 C 1.22165 0.12670 0.37213
 C197 C 1.21022 0.11957 0.35429
 H198 H 1.21537 0.15508 0.39298
 H199 H 1.21387 0.10552 0.34442
 N200 N 1.14917 0.19341 0.36620
 N201 N 1.13395 0.19339 0.35112
 C202 C 1.12044 0.21023 0.35464
 C203 C 1.12756 0.22122 0.37273
 C204 C 1.14574 0.21027 0.37971
 H205 H 1.10648 0.21423 0.34482
 H206 H 1.15567 0.21432 0.39359
 H207 H 1.16531 0.17150 0.33473
 H208 H 1.14767 0.15454 0.35262
 N209 N 0.63435 1.35105 0.69376
 N210 N 0.64991 1.36563 0.69399
 C211 C 0.64668 1.37926 0.71080
 C212 C 0.62819 1.37275 0.72153
 C213 C 0.62073 1.35485 0.71041
 H214 H 0.65694 1.39287 0.71494
 H215 H 0.60648 1.34534 0.71416
 Cu216 Cu 0.67284 1.36550 0.67229
 Cu217 Cu 0.63279 1.32837 0.67187
 Cu218 Cu 0.67265 1.32830 0.63223
 N219 N 0.69459 1.36561 0.64942
 N220 N 0.69448 1.35097 0.63387
 C221 C 0.71116 1.35476 0.62029
 C222 C 0.72216 1.37271 0.62777
 C223 C 0.71135 1.37926 0.64622
 H224 H 0.71498 1.34521 0.60607
 H225 H 0.71541 1.39291 0.65647
 N226 N 0.64917 1.30669 0.63329
 N227 N 0.63395 1.30674 0.64838
 C228 C 0.62033 1.29004 0.64475
 C229 C 0.62737 1.27913 0.62657
 C230 C 0.64562 1.28996 0.61966
 H231 H 0.60639 1.28603 0.65460
 H232 H 0.65557 1.28587 0.60580
 H233 H 0.66558 1.32723 0.66495
 H234 H 0.64873 1.34582 0.64789
 N235 N 0.63367 0.85108 1.19331
 N236 N 0.64861 0.86629 1.19293
 C237 C 0.64533 0.87993 1.20972
 C238 C 0.62743 0.87277 1.22103
 C239 C 0.62038 0.85449 1.21030
 H240 H 0.65513 0.89399 1.21344
 H241 H 0.60662 0.84446 1.21452
 Cu242 Cu 0.67081 0.86683 1.17050
 Cu243 Cu 0.63238 0.82813 1.17171
 Cu244 Cu 0.67233 0.82799 1.13214
 N245 N 0.69340 0.86622 1.14848
 N246 N 0.69393 0.85095 1.13357
 C247 C 0.71101 0.85433 1.12039
 C248 C 0.72163 0.87268 1.12747
 C249 C 0.71017 0.87987 1.14528
 H250 H 0.71537 0.84424 1.10671
 H251 H 0.71381 0.89395 1.15511
 N252 N 0.64903 0.80619 1.13341
 N253 N 0.63379 0.80627 1.14848
 C254 C 0.62021 0.78953 1.14491
 C255 C 0.62731 0.77855 1.12681
 C256 C 0.64554 0.78938 1.11986
 H257 H 0.60623 0.78556 1.15472
 H258 H 0.65547 0.78528 1.10599
 H259 H 0.66523 0.82802 1.16493
 H260 H 0.64764 0.84501 1.14702
 N261 N 1.13395 1.35099 1.19364
 N262 N 1.14881 1.36630 1.19319
 C263 C 1.14552 1.37995 1.20996
 C264 C 1.12770 1.37272 1.22134
 C265 C 1.12070 1.35438 1.21066
 H266 H 1.15527 1.39406 1.21363
 H267 H 1.10697 1.34433 1.21490
 Cu268 Cu 1.17095 1.36688 1.17074
 Cu269 Cu 1.13265 1.32800 1.17204
 Cu270 Cu 1.17253 1.32794 1.13244
 N271 N 1.19350 1.36629 1.14871
 N272 N 1.19408 1.35094 1.13387
 C273 C 1.21115 1.35434 1.12069
 C274 C 1.22173 1.37273 1.12772
 C275 C 1.21024 1.37997 1.14548
 H276 H 1.21548 1.34426 1.10699
 H277 H 1.21381 1.39412 1.15525
 N278 N 1.14927 1.30608 1.13371
 N279 N 1.13404 1.30612 1.14879
 C280 C 1.12048 1.28936 1.14521
 C281 C 1.12758 1.27840 1.12708
 C282 C 1.14579 1.28929 1.12013
 H283 H 1.10648 1.28539 1.15500
 H284 H 1.15569 1.28525 1.10623
 H285 H 1.16553 1.32805 1.16524
 H286 H 1.14783 1.34495 1.14730
 N287 N 1.13421 0.85091 0.69374
 N288 N 1.14965 0.86563 0.69402
 C289 C 1.14626 0.87922 0.71081
 C290 C 1.12780 0.87254 0.72148
 C291 C 1.12051 0.85459 0.71036
 H292 H 1.15639 0.89292 0.71498
 H293 H 1.10633 0.84496 0.71405
 Cu294 Cu 1.17265 0.86566 0.67242
 Cu295 Cu 1.13286 0.82827 0.67182
 Cu296 Cu 1.17278 0.82850 0.63227
 N297 N 1.19447 0.86593 0.64960
 N298 N 1.19448 0.85130 0.63405
 C299 C 1.21118 0.85518 0.62053
 C300 C 1.22207 0.87318 0.62804
 C301 C 1.21117 0.87967 0.64646
 H302 H 1.21510 0.84566 0.60631
 H303 H 1.21513 0.89334 0.65673
 N304 N 1.14943 0.80676 0.63322
 N305 N 1.13420 0.80669 0.64830
 C306 C 1.12067 0.78993 0.64461
 C307 C 1.12779 0.77910 0.62641
 C308 C 1.14599 0.79004 0.61954
 H309 H 1.10674 0.78582 0.65442
 H310 H 1.15599 0.78605 0.60569
 H311 H 1.16561 0.82738 0.66499
 H312 H 1.14867 0.84590 0.64794
 N313 N 0.36612 0.64865 0.69390
 N314 N 0.35126 0.63334 0.69350
 C315 C 0.35462 0.61965 0.71025
 C316 C 0.37247 0.62687 0.72157
 C317 C 0.37942 0.64524 0.71088
 H318 H 0.34489 0.60553 0.71396
 H319 H 0.39313 0.65532 0.71512
 Cu320 Cu 0.32905 0.63281 0.67111
 Cu321 Cu 0.36732 0.67168 0.67231
 Cu322 Cu 0.32742 0.67169 0.63273
 N323 N 0.30647 0.63333 0.64908
 N324 N 0.30590 0.64864 0.63418
 C325 C 0.28885 0.64522 0.62100
 C326 C 0.27827 0.62683 0.62807
 C327 C 0.28975 0.61962 0.64588
 H328 H 0.28450 0.65530 0.60729
 H329 H 0.28618 0.60549 0.65568
 N330 N 0.35064 0.69361 0.63399
 N331 N 0.36585 0.69359 0.64909
 C332 C 0.37936 0.71040 0.64554
 C333 C 0.37225 0.72138 0.62742
 C334 C 0.35409 0.71045 0.62044
 H335 H 0.39332 0.71439 0.65536
 H336 H 0.34418 0.71449 0.60653
 H337 H 0.33442 0.67162 0.66546
 H338 H 0.35212 0.65472 0.64758
 N339 N 0.36542 0.14862 1.19369
 N340 N 0.34993 0.13396 1.19390
 C341 C 0.35326 0.12027 1.21065
 C342 C 0.37172 0.12684 1.22134
 C343 C 0.37909 0.14482 1.21029
 H344 H 0.34308 0.10658 1.21477
 H345 H 0.39329 0.15439 1.21403
 Cu346 Cu 0.32694 0.13411 1.17230
 Cu347 Cu 0.36689 0.17139 1.17192
 Cu348 Cu 0.32693 0.17160 1.13245
 N349 N 0.30523 0.13402 1.14943
 N350 N 0.30521 0.14883 1.13402
 C351 C 0.28856 0.14505 1.12044
 C352 C 0.27771 0.12694 1.12777
 C353 C 0.28858 0.12026 1.14613
 H354 H 0.28466 0.15471 1.10629
 H355 H 0.28467 0.10645 1.15626
 N356 N 0.35034 0.19329 1.13355
 N357 N 0.36562 0.19312 1.14856
 C358 C 0.37928 0.20978 1.14493
 C359 C 0.37221 0.22080 1.12683
 C360 C 0.35388 0.21008 1.11996
 H361 H 0.39329 0.21367 1.15471
 H362 H 0.34390 0.21426 1.10615
 H363 H 0.33415 0.17242 1.16520
 H364 H 0.35100 0.15399 1.14797
 N365 N 0.86605 0.64835 1.19333
 N366 N 0.85112 0.63310 1.19297
 C367 C 0.85447 0.61942 1.20974
 C368 C 0.87238 0.62658 1.22101
 C369 C 0.87938 0.64490 1.21028
 H370 H 0.84469 0.60533 1.21347
 H371 H 0.89313 0.65493 1.21447
 Cu372 Cu 0.82889 0.63267 1.17058
 Cu373 Cu 0.86726 0.67140 1.17178
 Cu374 Cu 0.82729 0.67157 1.13225
 N375 N 0.80633 0.63322 1.14855
 N376 N 0.80576 0.64853 1.13365
 C377 C 0.78870 0.64512 1.12047
 C378 C 0.77814 0.62673 1.12755
 C379 C 0.78960 0.61953 1.14536
 H380 H 0.78432 0.65521 1.10678
 H381 H 0.78600 0.60543 1.15519
 N382 N 0.85052 0.69346 1.13354
 N383 N 0.86577 0.69336 1.14860
 C384 C 0.87932 0.71013 1.14505
 C385 C 0.87221 0.72116 1.12696
 C386 C 0.85399 0.71032 1.12001
 H387 H 0.89332 0.71406 1.15484
 H388 H 0.84408 0.71442 1.10612
 H389 H 0.83442 0.67147 1.16505
 H390 H 0.85204 0.65455 1.14710
 N391 N 0.86580 0.14861 0.69323
 N392 N 0.85079 0.13344 0.69285
 C393 C 0.85403 0.11975 0.70963
 C394 C 0.87196 0.12682 0.72093
 C395 C 0.87907 0.14511 0.71021
 H396 H 0.84417 0.10573 0.71337
 H397 H 0.89287 0.15507 0.71443
 Cu398 Cu 0.82864 0.13307 0.67037
 Cu399 Cu 0.86719 0.17163 0.67167
 Cu400 Cu 0.82739 0.17191 0.63196
 N401 N 0.80616 0.13369 0.64824
 N402 N 0.80576 0.14896 0.63329
 C403 C 0.78878 0.14559 0.62000
 C404 C 0.77808 0.12726 0.62706
 C405 C 0.78940 0.12006 0.64496
 H406 H 0.78455 0.15565 0.60624
 H407 H 0.78568 0.10598 0.65479
 N408 N 0.85071 0.19369 0.63334
 N409 N 0.86589 0.19356 0.64846
 C410 C 0.87949 0.21031 0.64496
 C411 C 0.87247 0.22134 0.62684
 C412 C 0.85427 0.21053 0.61982
 H413 H 0.89344 0.21422 0.65483
 H414 H 0.84441 0.21466 0.60591
 H415 H 0.83434 0.17184 0.66473
 H416 H 0.85195 0.15480 0.64689
 N417 N 1.35172 0.36570 0.69389
 N418 N 1.36694 0.35073 0.69339
 C419 C 1.38065 0.35397 0.71010
 C420 C 1.37355 0.37187 0.72152
 C421 C 1.35521 0.37896 0.71091
 H422 H 1.39471 0.34412 0.71373
 H423 H 1.34519 0.39271 0.71523
 Cu424 Cu 1.36730 0.32857 0.67088
 Cu425 Cu 1.32865 0.36710 0.67239
 Cu426 Cu 1.32848 0.32730 0.63261
 N427 N 1.36679 0.30612 0.64868
 N428 N 1.35148 0.30568 0.63382
 C429 C 1.35487 0.28870 0.62048
 C430 C 1.37325 0.27808 0.62742
 C431 C 1.38050 0.28940 0.64529
 H432 H 1.34478 0.28445 0.60678
 H433 H 1.39464 0.28575 0.65501
 N434 N 1.30662 0.35056 0.63404
 N435 N 1.30670 0.36575 0.64918
 C436 C 1.28993 0.37935 0.64569
 C437 C 1.27894 0.37232 0.62756
 C438 C 1.28981 0.35410 0.62053
 H439 H 1.28599 0.39334 0.65552
 H440 H 1.28577 0.34423 0.60660
 H441 H 1.32860 0.33437 0.66555
 H442 H 1.34549 0.35212 0.64770
 N443 N 1.35145 0.86586 1.19441
 N444 N 1.36602 0.85024 1.19454
 C445 C 1.37968 0.85339 1.21132
 C446 C 1.37313 0.87184 1.22217
 C447 C 1.35523 0.87941 1.21114
 H448 H 1.39335 0.84313 1.21530
 H449 H 1.34566 0.89361 1.21503
 Cu450 Cu 1.36582 0.82731 1.17277
 Cu451 Cu 1.32863 0.86747 1.17265
 Cu452 Cu 1.32845 0.82762 1.13296
 N453 N 1.36586 0.80558 1.14977
 N454 N 1.35115 0.80576 1.13431
 C455 C 1.35483 0.78907 1.12066
 C456 C 1.37282 0.77802 1.12797
 C457 C 1.37951 0.78880 1.14641
 H458 H 1.34509 0.78519 1.10658
 H459 H 1.39322 0.78474 1.15657
 N460 N 1.30679 0.85107 1.13422
 N461 N 1.30687 0.86631 1.14930
 C462 C 1.29018 0.87998 1.14570
 C463 C 1.27923 0.87294 1.12752
 C464 C 1.29006 0.85464 1.12063
 H465 H 1.28622 0.89396 1.15556
 H466 H 1.28601 0.84468 1.10677
 H467 H 1.32768 0.83469 1.16578
 H468 H 1.34606 0.85168 1.14860
 N469 N 0.85119 0.36655 1.19473
 N470 N 0.86580 0.35096 1.19477
 C471 C 0.87954 0.35413 1.21149
 C472 C 0.87308 0.37262 1.22231
 C473 C 0.85509 0.38014 1.21139
 H474 H 0.89315 0.34381 1.21551
 H475 H 0.84557 0.39438 1.21528
 Cu476 Cu 0.86553 0.32806 1.17300
 Cu477 Cu 0.82835 0.36818 1.17301
 Cu478 Cu 0.82813 0.32847 1.13320
 N479 N 0.86547 0.30630 1.15008
 N480 N 0.85079 0.30654 1.13460
 C481 C 0.85448 0.28989 1.12093
 C482 C 0.87240 0.27873 1.12827
 C483 C 0.87903 0.28945 1.14676
 H484 H 0.84487 0.28617 1.10673
 H485 H 0.89268 0.28526 1.15695
 N486 N 0.80653 0.35200 1.13448
 N487 N 0.80657 0.36712 1.14969
 C488 C 0.78981 0.38075 1.14623
 C489 C 0.77887 0.37380 1.12804
 C490 C 0.78975 0.35561 1.12095
 H491 H 0.78578 0.39462 1.15620
 H492 H 0.78566 0.34574 1.10704
 H493 H 0.82730 0.33531 1.16591
 H494 H 0.84570 0.35233 1.14882
 N495 N 0.85056 0.86632 0.69394
 N496 N 0.86519 0.85077 0.69415
 C497 C 0.87877 0.85400 0.71096
 C498 C 0.87221 0.87250 0.72171
 C499 C 0.85430 0.87995 0.71061
 H500 H 0.89236 0.84372 0.71513
 H501 H 0.84473 0.89419 0.71437
 Cu502 Cu 0.86515 0.82780 0.67246
 Cu503 Cu 0.82786 0.86783 0.67211
 Cu504 Cu 0.82791 0.82797 0.63246
 N505 N 0.86536 0.80611 0.64950
 N506 N 0.85071 0.80620 0.63400
 C507 C 0.85458 0.78956 0.62036
 C508 C 0.87260 0.77861 0.62775
 C509 C 0.87910 0.78941 0.64622
 H510 H 0.84506 0.78575 0.60613
 H511 H 0.89278 0.78537 0.65642
 N512 N 0.80618 0.85136 0.63356
 N513 N 0.80620 0.86660 0.64865
 C514 C 0.78946 0.88021 0.64505
 C515 C 0.77855 0.87314 0.62689
 C516 C 0.78942 0.85488 0.61997
 H517 H 0.78543 0.89417 0.65489
 H518 H 0.78536 0.84491 0.60611
 H519 H 0.82692 0.83512 0.66531
 H520 H 0.84536 0.85209 0.64824
 N521 N 0.64917 0.63342 0.69379
 N522 N 0.63391 0.64835 0.69331
 C523 C 0.62031 0.64514 0.71012
 C524 C 0.62749 0.62727 0.72155
 C525 C 0.64580 0.62020 0.71088
 H526 H 0.60627 0.65498 0.71382
 H527 H 0.65589 0.60650 0.71521
 Cu528 Cu 0.63334 0.67051 0.67080
 Cu529 Cu 0.67214 0.63208 0.67218
 Cu530 Cu 0.67223 0.67198 0.63247
 N531 N 0.63393 0.69308 0.64868
 N532 N 0.64924 0.69362 0.63382
 C533 C 0.64590 0.71077 0.62067
 C534 C 0.62756 0.72142 0.62770
 C535 C 0.62031 0.70990 0.64546
 H536 H 0.65600 0.71513 0.60700
 H537 H 0.60619 0.71351 0.65522
 N538 N 0.69409 0.64868 0.63383
 N539 N 0.69403 0.63344 0.64894
 C540 C 0.71088 0.61993 0.64550
 C541 C 0.72191 0.62709 0.62744
 C542 C 0.71098 0.64528 0.62039
 H543 H 0.71491 0.60596 0.65537
 H544 H 0.71510 0.65524 0.60652
 H545 H 0.67207 0.66492 0.66525
 H546 H 0.65523 0.64718 0.64738
 N547 N 0.64880 1.13308 1.19429
 N548 N 0.63360 1.14809 1.19378
 C549 C 0.61989 1.14488 1.21051
 C550 C 0.62697 1.12696 1.22190
 C551 C 0.64529 1.11981 1.21132
 H552 H 0.60587 1.15479 1.21415
 H553 H 0.65529 1.10603 1.21566
 Cu554 Cu 0.63324 1.17030 1.17129
 Cu555 Cu 0.67186 1.13173 1.17282
 Cu556 Cu 0.67211 1.17162 1.13304
 N557 N 0.63388 1.19285 1.14918
 N558 N 0.64915 1.19330 1.13428
 C559 C 0.64578 1.21038 1.12104
 C560 C 0.62747 1.22109 1.12807
 C561 C 0.62026 1.20967 1.14592
 H562 H 0.65584 1.21467 1.10731
 H563 H 0.60620 1.21335 1.15573
 N564 N 0.69391 1.14826 1.13454
 N565 N 0.69382 1.13308 1.14971
 C566 C 0.71063 1.11952 1.14634
 C567 C 0.72169 1.12658 1.12826
 C568 C 0.71080 1.14475 1.12112
 H569 H 0.71457 1.10557 1.15627
 H570 H 0.71492 1.15465 1.10721
 H571 H 0.67195 1.16469 1.16581
 H572 H 0.65507 1.14698 1.14795
 N573 N 0.14864 0.63424 1.19430
 N574 N 0.13400 0.64979 1.19438
 C575 C 0.12035 0.64660 1.21118
 C576 C 0.12694 0.62812 1.22200
 C577 C 0.14488 0.62065 1.21101
 H578 H 0.10674 0.65688 1.21527
 H579 H 0.15446 0.60644 1.21486
 Cu580 Cu 0.13420 0.67266 1.17252
 Cu581 Cu 0.17142 0.63261 1.17256
 Cu582 Cu 0.17170 0.67248 1.13282
 N583 N 0.13422 0.69452 1.14967
 N584 N 0.14900 0.69440 1.13426
 C585 C 0.14538 0.71115 1.12066
 C586 C 0.12741 0.72221 1.12799
 C587 C 0.12064 0.71137 1.14637
 H588 H 0.15507 0.71496 1.10652
 H589 H 0.10693 0.71546 1.15653
 N590 N 0.19333 0.64892 1.13408
 N591 N 0.19318 0.63370 1.14922
 C592 C 0.20993 0.62007 1.14581
 C593 C 0.22099 0.62708 1.12770
 C594 C 0.21019 0.64535 1.12063
 H595 H 0.21389 0.60614 1.15575
 H596 H 0.21441 0.65528 1.10678
 H597 H 0.17248 0.66538 1.16561
 H598 H 0.15421 0.64841 1.14842
 N599 N 0.14846 1.13393 0.69398
 N600 N 0.13334 1.14902 0.69357
 C601 C 0.11969 1.14585 0.71036
 C602 C 0.12667 1.12781 0.72165
 C603 C 0.14491 1.12059 0.71095
 H604 H 0.10578 1.15588 0.71411
 H605 H 0.15481 1.10670 0.71516
 Cu606 Cu 0.13303 1.17124 0.67107
 Cu607 Cu 0.17153 1.13263 0.67245
 Cu608 Cu 0.17161 1.17251 0.63261
 N609 N 0.13336 1.19371 0.64880
 N610 N 0.14854 1.19409 0.63379
 C611 C 0.14506 1.21107 0.62043
 C612 C 0.12679 1.22181 0.62755
 C613 C 0.11972 1.21051 0.64555
 H614 H 0.15502 1.21527 0.60661
 H615 H 0.10579 1.21429 0.65551
 N616 N 0.19354 1.14929 0.63411
 N617 N 0.19350 1.13408 0.64925
 C618 C 0.21037 1.12059 0.64584
 C619 C 0.22140 1.12772 0.62775
 C620 C 0.21044 1.14588 0.62067
 H621 H 0.21435 1.10662 0.65572
 H622 H 0.21450 1.15580 0.60677
 H623 H 0.17164 1.16546 0.66559
 H624 H 0.15473 1.14772 0.64778
 N625 N 1.35122 0.63438 0.30698
 N626 N 1.36641 0.64936 0.30731
 C627 C 1.37998 0.64608 0.29048
 C628 C 1.37280 0.62816 0.27919
 C629 C 1.35459 0.62108 0.28998
 H630 H 1.39397 0.65595 0.28666
 H631 H 1.34454 0.60732 0.28579
 Cu632 Cu 1.36695 0.67156 0.32975
 Cu633 Cu 1.32829 0.63310 0.32855
 Cu634 Cu 1.32819 0.67309 0.36815
 N635 N 1.36647 0.69412 0.35186
 N636 N 1.35119 0.69465 0.36677
 C637 C 1.35464 0.71168 0.38003
 C638 C 1.37299 0.72225 0.37296
 C639 C 1.38018 0.71084 0.35512
 H640 H 1.34459 0.71602 0.39374
 H641 H 1.39425 0.71446 0.34529
 N642 N 1.30636 0.64983 0.36685
 N643 N 1.30647 0.63456 0.35180
 C644 C 1.28977 0.62095 0.35536
 C645 C 1.27876 0.62805 0.37344
 C646 C 1.28957 0.64632 0.38040
 H647 H 1.28588 0.60691 0.34558
 H648 H 1.28551 0.65625 0.39429
 H649 H 1.32826 0.66593 0.33520
 H650 H 1.34520 0.64822 0.35311
 N651 N 1.35098 1.13383 0.80619
 N652 N 1.36545 1.14950 0.80595
 C653 C 1.37907 1.14634 0.78914
 C654 C 1.37268 1.12775 0.77847
 C655 C 1.35486 1.12018 0.78957
 H656 H 1.39255 1.15672 0.78493
 H657 H 1.34544 1.10586 0.78583
 Cu658 Cu 1.36520 1.17248 0.82762
 Cu659 Cu 1.32829 1.13220 0.82797
 Cu660 Cu 1.32796 1.17201 0.86766
 N661 N 1.36524 1.19413 0.85061
 N662 N 1.35061 1.19390 0.86615
 C663 C 1.35439 1.21052 0.87983
 C664 C 1.37230 1.22162 0.87242
 C665 C 1.37885 1.21091 0.85390
 H666 H 1.34489 1.21422 0.89412
 H667 H 1.39249 1.21504 0.84369
 N668 N 1.30641 1.14848 0.86644
 N669 N 1.30660 1.13326 0.85133
 C670 C 1.28988 1.11963 0.85476
 C671 C 1.27881 1.12667 0.87282
 C672 C 1.28956 1.14493 0.87988
 H673 H 1.28593 1.10572 0.84482
 H674 H 1.28530 1.15490 0.89368
 H675 H 1.32704 1.16501 0.83486
 H676 H 1.34562 1.14814 0.85193
 N677 N 0.85071 0.63372 0.80613
 N678 N 0.86527 0.64932 0.80600
 C679 C 0.87893 0.64615 0.78922
 C680 C 0.87246 0.62768 0.77842
 C681 C 0.85456 0.62014 0.78945
 H682 H 0.89255 0.65642 0.78516
 H683 H 0.84505 0.60591 0.78561
 Cu684 Cu 0.86512 0.67216 0.82779
 Cu685 Cu 0.82795 0.63213 0.82789
 Cu686 Cu 0.82769 0.67203 0.86756
 N687 N 0.86517 0.69391 0.85066
 N688 N 0.85044 0.69384 0.86610
 C689 C 0.85417 0.71054 0.87969
 C690 C 0.87219 0.72152 0.87234
 C691 C 0.87884 0.71066 0.85395
 H692 H 0.84451 0.71443 0.89381
 H693 H 0.89256 0.71467 0.84379
 N694 N 0.80606 0.64857 0.86633
 N695 N 0.80622 0.63330 0.85127
 C696 C 0.78952 0.61966 0.85483
 C697 C 0.77848 0.62676 0.87291
 C698 C 0.78926 0.64505 0.87985
 H699 H 0.78559 0.60566 0.84500
 H700 H 0.78510 0.65503 0.89367
 H701 H 0.82688 0.66494 0.83477
 H702 H 0.84523 0.64796 0.85197
 N703 N 0.85068 1.13402 0.30628
 N704 N 0.86524 1.14961 0.30617
 C705 C 0.87892 1.14643 0.28941
 C706 C 0.87246 1.12793 0.27860
 C707 C 0.85454 1.12043 0.28961
 H708 H 0.89252 1.15672 0.28535
 H709 H 0.84505 1.10617 0.28580
 Cu710 Cu 0.86498 1.17251 0.32791
 Cu711 Cu 0.82795 1.13240 0.32807
 Cu712 Cu 0.82763 1.17219 0.36783
 N713 N 0.86496 1.19423 0.35084
 N714 N 0.85028 1.19408 0.36633
 C715 C 0.85403 1.21074 0.37998
 C716 C 0.87201 1.22175 0.37261
 C717 C 0.87860 1.21097 0.35415
 H718 H 0.84447 1.21453 0.39420
 H719 H 0.89230 1.21503 0.34399
 N720 N 0.80608 1.14869 0.36661
 N721 N 0.80622 1.13350 0.35148
 C722 C 0.78951 1.11986 0.35500
 C723 C 0.77852 1.12687 0.37314
 C724 C 0.78930 1.14512 0.38015
 H725 H 0.78553 1.10593 0.34509
 H726 H 0.78515 1.15506 0.39400
 H727 H 0.82678 1.16510 0.33499
 H728 H 0.84523 1.14815 0.35209
 N729 N 0.64878 0.36603 0.30610
 N730 N 0.63431 0.35035 0.30595
 C731 C 0.62058 0.35354 0.28923
 C732 C 0.62701 0.37207 0.27843
 C733 C 0.64489 0.37965 0.28942
 H734 H 0.60693 0.34328 0.28526
 H735 H 0.65439 0.39389 0.28554
 Cu736 Cu 0.63463 0.32736 0.32767
 Cu737 Cu 0.67163 0.36758 0.32777
 Cu738 Cu 0.67201 0.32768 0.36750
 N739 N 0.63469 0.30561 0.35064
 N740 N 0.64933 0.30580 0.36617
 C741 C 0.64562 0.28910 0.37982
 C742 C 0.62766 0.27805 0.37244
 C743 C 0.62105 0.28883 0.35396
 H744 H 0.65530 0.28522 0.39395
 H745 H 0.60737 0.28480 0.34377
 N746 N 0.69362 0.35117 0.36613
 N747 N 0.69346 0.36640 0.35100
 C748 C 0.71018 0.38003 0.35444
 C749 C 0.72125 0.37300 0.37255
 C750 C 0.71045 0.35473 0.37959
 H751 H 0.71407 0.39399 0.34451
 H752 H 0.71460 0.34477 0.39345
 H753 H 0.67276 0.33472 0.33476
 H754 H 0.65424 0.35162 0.35190
 N755 N 0.64870 0.86631 0.80655
 N756 N 0.63356 0.85128 0.80703
 C757 C 0.61987 0.85451 0.79028
 C758 C 0.62690 0.87246 0.77890
 C759 C 0.64517 0.87959 0.78954
 H760 H 0.60587 0.84462 0.78662
 H761 H 0.65513 0.89339 0.78524
 Cu762 Cu 0.63322 0.82911 0.82956
 Cu763 Cu 0.67174 0.86771 0.82806
 Cu764 Cu 0.67214 0.82775 0.86776
 N765 N 0.63385 0.80660 0.85174
 N766 N 0.64920 0.80611 0.86656
 C767 C 0.64583 0.78909 0.87987
 C768 C 0.62744 0.77847 0.87297
 C769 C 0.62018 0.78988 0.85514
 H770 H 0.65594 0.78478 0.89356
 H771 H 0.60603 0.78627 0.84545
 N772 N 0.69391 0.85110 0.86628
 N773 N 0.69370 0.86637 0.85121
 C774 C 0.71039 0.88003 0.85469
 C775 C 0.72149 0.87292 0.87274
 C776 C 0.71075 0.85462 0.87975
 H777 H 0.71422 0.89409 0.84489
 H778 H 0.71490 0.84470 0.89363
 H779 H 0.67194 0.83483 0.83491
 H780 H 0.65504 0.85249 0.85285
 N781 N 0.14912 0.36566 0.80665
 N782 N 0.13387 0.35075 0.80721
 C783 C 0.12024 0.35394 0.79040
 C784 C 0.12739 0.37176 0.77891
 C785 C 0.14570 0.37886 0.78954
 H786 H 0.10623 0.34406 0.78675
 H787 H 0.15572 0.39260 0.78520
 Cu788 Cu 0.13340 0.32859 0.82975
 Cu789 Cu 0.17207 0.36705 0.82826
 Cu790 Cu 0.17222 0.32716 0.86804
 N791 N 0.13397 0.30608 0.85192
 N792 N 0.14930 0.30550 0.86675
 C793 C 0.14589 0.28842 0.88000
 C794 C 0.12750 0.27787 0.87298
 C795 C 0.12029 0.28934 0.85518
 H796 H 0.15596 0.28407 0.89371
 H797 H 0.10621 0.28575 0.84537
 N798 N 0.19399 0.35050 0.86668
 N799 N 0.19389 0.36572 0.85154
 C800 C 0.21065 0.37930 0.85501
 C801 C 0.22166 0.37223 0.87312
 C802 C 0.21082 0.35401 0.88017
 H803 H 0.21459 0.39326 0.84511
 H804 H 0.21493 0.34407 0.89406
 H805 H 0.17207 0.33425 0.83512
 H806 H 0.15519 0.35202 0.85299
 N807 N 0.14882 0.86601 0.30673
 N808 N 0.13359 0.85107 0.30723
 C809 C 0.11991 0.85438 0.29049
 C810 C 0.12705 0.87227 0.27909
 C811 C 0.14538 0.87929 0.28971
 H812 H 0.10586 0.84456 0.28682
 H813 H 0.15544 0.89300 0.28537
 Cu814 Cu 0.13321 0.82879 0.32966
 Cu815 Cu 0.17180 0.86733 0.32826
 Cu816 Cu 0.17210 0.82737 0.36793
 N817 N 0.13393 0.80613 0.35169
 N818 N 0.14924 0.80562 0.36655
 C819 C 0.14594 0.78848 0.37974
 C820 C 0.12762 0.77782 0.37270
 C821 C 0.12033 0.78930 0.35491
 H822 H 0.15604 0.78416 0.39343
 H823 H 0.10622 0.78570 0.34516
 N824 N 0.19381 0.85081 0.36659
 N825 N 0.19369 0.86601 0.35143
 C826 C 0.21043 0.87962 0.35485
 C827 C 0.22147 0.87259 0.37295
 C828 C 0.21065 0.85436 0.38005
 H829 H 0.21436 0.89357 0.34493
 H830 H 0.21479 0.84446 0.39395
 H831 H 0.17191 0.83439 0.33517
 H832 H 0.15499 0.85207 0.35308
 O833 O 0.97876 0.92151 0.89221
 O834 O 0.97874 0.89614 0.86696
 C835 C 0.97129 0.91378 0.87463
 C836 C 0.95327 0.92504 0.86340
 C837 C 0.94495 0.91683 0.84385
 H838 H 0.95251 0.90283 0.83636
 O839 O 1.02086 1.07867 0.89131
 O840 O 1.02072 1.10402 0.86599
 C841 C 1.02826 1.08641 0.87368
 C842 C 1.04629 1.07519 0.86243
 C843 C 1.05457 1.08340 0.84284
 H844 H 1.04696 1.09737 0.83533
 O845 O 0.89185 0.97884 0.92157
 O846 O 0.86653 0.97876 0.89632
 C847 C 0.87426 0.97134 0.91394
 C848 C 0.86308 0.95335 0.92535
 C849 C 0.84353 0.94491 0.91726
 H850 H 0.83630 0.95199 0.90288
 O851 O 1.10765 1.02129 0.92078
 O852 O 1.13292 1.02124 0.89546
 C853 C 1.12527 1.02868 0.91311
 C854 C 1.13657 1.04657 0.92450
 C855 C 1.15613 1.05493 0.91636
 H856 H 1.16332 1.04783 0.90197
 O857 O 0.92146 0.89197 0.97899
 O858 O 0.89619 0.86668 0.97905
 C859 C 0.91376 0.87437 0.97153
 C860 C 0.92499 0.86315 0.95346
 C861 C 0.91679 0.84360 0.94505
 H862 H 0.90279 0.83612 0.95255
 O863 O 1.07830 1.10810 0.97806
 O864 O 1.10358 1.13339 0.97801
 C865 C 1.08599 1.12570 0.97055
 C866 C 1.07469 1.13694 0.95251
 C867 C 1.08281 1.15652 0.94406
 H868 H 1.09716 1.16373 0.95113
 O869 O 0.92149 1.02117 0.89171
 O870 O 0.89624 1.02114 0.86638
 C871 C 0.91381 1.02863 0.87408
 C872 C 0.92509 1.04665 0.86283
 C873 C 0.91696 1.05499 0.84322
 H874 H 0.90266 1.04782 0.83599
 O875 O 1.07775 0.97906 0.89121
 O876 O 1.10292 0.97892 0.86580
 C877 C 1.08537 0.97149 0.87361
 C878 C 1.07408 0.95336 0.86259
 C879 C 1.08212 0.94492 0.84299
 H880 H 1.09631 0.95215 0.83559
 O881 O 1.02109 0.89183 0.92202
 O882 O 1.02110 0.86640 0.89683
 C883 C 1.02857 0.87418 0.91441
 C884 C 1.04661 0.86302 0.92572
 C885 C 1.05500 0.84341 0.91762
 H886 H 1.04782 0.83608 0.90335
 O887 O 0.97855 1.10822 0.92127
 O888 O 0.97840 1.13364 0.89603
 C889 C 0.97102 1.12586 0.91365
 C890 C 0.95305 1.13707 0.92505
 C891 C 0.94474 1.15674 0.91700
 H892 H 0.95185 1.16401 0.90265
 O893 O 0.89183 1.07861 0.97878
 O894 O 0.86645 1.10383 0.97877
 C895 C 0.87422 1.08625 0.97128
 C896 C 0.86310 1.07493 0.95319
 C897 C 0.84347 1.08296 0.94482
 H898 H 0.83588 1.09692 0.95233
 O899 O 1.10813 0.92181 0.97871
 O900 O 1.13351 0.89658 0.97853
 C901 C 1.12566 0.91416 0.97106
 C902 C 1.13664 0.92548 0.95286
 C903 C 1.15629 0.91753 0.94446
 H904 H 1.16373 0.90332 0.95169
 O905 O 0.97855 1.07848 0.89157
 O906 O 0.97836 1.10382 0.86624
 C907 C 0.97101 1.08615 0.87397
 C908 C 0.95303 1.07478 0.86279
 C909 C 0.94470 1.08284 0.84315
 H910 H 0.95221 1.09680 0.83555
 O911 O 1.02105 0.92138 0.89205
 O912 O 1.02106 0.89602 0.86680
 C913 C 1.02848 0.91368 0.87443
 C914 C 1.04635 0.92503 0.86305
 C915 C 1.05461 0.91686 0.84344
 H916 H 1.04716 0.90277 0.83604
 O917 O 1.10738 0.97891 0.92090
 O918 O 1.13265 0.97883 0.89557
 C919 C 1.12496 0.97140 0.91323
 C920 C 1.13624 0.95342 0.92459
 C921 C 1.15589 0.94525 0.91651
 H922 H 1.16335 0.95284 0.90250
 O923 O 0.89199 1.02127 0.92157
 O924 O 0.86666 1.02122 0.89633
 C925 C 0.87439 1.02874 0.91390
 C926 C 0.86318 1.04679 0.92518
 C927 C 0.84357 1.05507 0.91707
 H928 H 0.83636 1.04785 0.90276
 O929 O 0.92154 1.10826 0.97878
 O930 O 0.89626 1.13359 0.97879
 C931 C 0.91385 1.12588 0.97130
 C932 C 0.92512 1.13709 0.95322
 C933 C 0.91709 1.15679 0.94496
 H934 H 0.90322 1.16442 0.95258
 O935 O 1.07854 0.89206 0.97906
 O936 O 1.10383 0.86674 0.97887
 C937 C 1.08618 0.87444 0.97154
 C938 C 1.07479 0.86319 0.95362
 C939 C 1.08291 0.84359 0.94529
 H940 H 1.09694 0.83608 0.95276
 O941 O 1.07797 1.02153 0.89108
 O942 O 1.10316 1.02146 0.86568
 C943 C 1.08564 1.02902 0.87345
 C944 C 1.07438 1.04715 0.86229
 C945 C 1.08248 1.05566 0.84271
 H946 H 1.09680 1.04856 0.83542
 O947 O 0.92159 0.97874 0.89195
 O948 O 0.89634 0.97865 0.86662
 C949 C 0.91392 0.97119 0.87438
 C950 C 0.92522 0.95310 0.86326
 C951 C 0.91711 0.94461 0.84371
 H952 H 0.90279 0.95172 0.83643
 O953 O 1.02094 1.10825 0.92112
 O954 O 1.02081 1.13366 0.89587
 C955 C 1.02838 1.12588 0.91342
 C956 C 1.04650 1.13702 0.92460
 C957 C 1.05483 1.15662 0.91644
 H958 H 1.04720 1.16424 0.90255
 O959 O 0.97869 0.89174 0.92186
 O960 O 0.97870 0.86631 0.89667
 C961 C 0.97119 0.87412 0.91422
 C962 C 0.95310 0.86299 0.92547
 C963 C 0.94463 0.84346 0.91729
 H964 H 0.95177 0.83619 0.90296
 O965 O 1.10786 1.07822 0.97818
 O966 O 1.13321 1.10344 0.97817
 C967 C 1.12548 1.08584 0.97072
 C968 C 1.13665 1.07451 0.95268
 C969 C 1.15622 1.08260 0.94433
 H970 H 1.16379 1.09653 0.95191
 O971 O 0.89191 0.92182 0.97907
 O972 O 0.86657 0.89659 0.97918
 C973 C 0.87430 0.91416 0.97165
 C974 C 0.86312 0.92541 0.95357
 C975 C 0.84356 0.91724 0.94527
 H976 H 0.83605 0.90329 0.95289
 Cu977 Cu 0.99991 0.90915 0.90957
 Cu978 Cu 0.99992 0.87866 0.87929
 Cu979 Cu 0.99974 1.09088 0.90884
 Cu980 Cu 0.99954 1.12134 0.87850
 Cu981 Cu 0.90926 1.00000 0.90922
 Cu982 Cu 0.87890 0.99994 0.87886
 Cu983 Cu 1.09015 1.00023 0.90850
 Cu984 Cu 1.12044 1.00009 0.87806
 C985 C 0.94342 0.94330 0.87287
 H986 H 0.94955 0.94952 0.88813
 C987 C 0.92683 0.92644 0.83393
 C988 C 1.05619 1.05695 0.87192
 H989 H 1.05012 1.05077 0.88722
 C990 C 1.07272 1.07385 0.83291
 C991 C 0.87263 0.94360 0.94363
 H992 H 0.88789 0.94978 0.94974
 C993 C 0.83368 0.92683 0.92708
 C994 C 1.12709 1.05633 0.94280
 H995 H 1.11184 1.05018 0.94897
 C996 C 1.16605 1.07298 0.92614
 C997 C 0.94327 0.87259 0.94368
 H998 H 0.94949 0.88783 0.94987
 C999 C 0.92644 0.83368 0.92692
 C1000 C 1.05643 1.12742 0.94277
 H1001 H 1.05030 1.11214 0.94896
 C1002 C 1.07302 1.16646 0.92599
 C1003 C 0.94324 1.05655 0.87238
 H1004 H 0.94936 1.05045 0.88770
 C1005 C 0.92661 1.07312 0.83330
 C1006 C 1.05607 0.94342 0.87239
 H1007 H 1.05001 0.94960 0.88769
 C1008 C 1.07254 0.92664 0.83332
 C1009 C 1.05650 0.87266 0.94386
 H1010 H 1.05035 0.88796 0.94999
 C1011 C 1.07320 0.83363 0.92724
 C1012 C 0.94324 1.12747 0.94327
 H1013 H 0.94931 1.11211 0.94934
 C1014 C 0.92673 1.16668 0.92680
 C1015 C 0.87272 1.05673 0.94335
 H1016 H 0.88803 1.05066 0.94947
 C1017 C 0.83362 1.07318 0.92672
 C1018 C 1.12684 0.94355 0.94289
 H1019 H 1.11150 0.94955 0.94901
 C1020 C 1.16599 0.92726 0.92624
 O1021 O 1.02140 0.92118 1.10805
 O1022 O 1.02141 0.89585 1.13339
 C1023 C 1.02887 0.91347 1.12566
 C1024 C 1.04689 0.92474 1.13684
 C1025 C 1.05520 0.91658 1.15644
 H1026 H 1.04765 0.90260 1.16397
 O1027 O 0.97901 1.07860 1.10808
 O1028 O 0.97910 1.10397 1.13333
 C1029 C 0.97163 1.08634 1.12571
 C1030 C 0.95370 1.07507 1.13704
 C1031 C 0.94547 1.08325 1.15664
 H1032 H 0.95303 1.09726 1.16409
 O1033 O 0.89245 1.02130 1.07881
 O1034 O 0.86722 1.02135 1.10416
 C1035 C 0.87486 1.02878 1.08650
 C1036 C 0.86359 1.04674 1.07514
 C1037 C 0.84405 1.05510 1.08333
 H1038 H 0.83691 1.04797 1.09773
 O1039 O 1.10821 0.97866 1.07849
 O1040 O 1.13352 0.97874 1.10376
 C1041 C 1.12585 0.97127 1.08614
 C1042 C 1.13715 0.95332 1.07478
 C1043 C 1.15672 0.94498 1.08293
 H1044 H 1.16415 0.95248 1.09698
 O1045 O 1.07884 0.89204 1.02146
 O1046 O 1.10414 0.86672 1.02133
 C1047 C 1.08657 0.87440 1.02890
 C1048 C 1.07533 0.86308 1.04694
 C1049 C 1.08353 0.84348 1.05528
 H1050 H 1.09759 0.83606 1.04780
 O1051 O 0.92139 1.10841 1.02121
 O1052 O 0.89609 1.13372 1.02130
 C1053 C 0.91369 1.12601 1.02875
 C1054 C 0.92502 1.13717 1.04682
 C1055 C 0.91691 1.15672 1.05537
 H1056 H 0.90255 1.16401 1.04834
 O1057 O 0.92224 0.97891 1.10847
 O1058 O 0.89707 0.97889 1.13389
 C1059 C 0.91461 0.97139 1.12609
 C1060 C 0.92586 0.95326 1.13721
 C1061 C 0.91773 0.94484 1.15679
 H1062 H 0.90347 0.95206 1.16408
 O1063 O 1.07827 1.02087 1.10821
 O1064 O 1.10351 1.02100 1.13354
 C1065 C 1.08590 1.02841 1.12581
 C1066 C 1.07457 1.04646 1.13695
 C1067 C 1.08260 1.05481 1.15659
 H1068 H 1.09683 1.04759 1.16394
 O1069 O 0.97905 0.89153 1.07837
 O1070 O 0.97901 0.86612 1.10363
 C1071 C 0.97154 0.87392 1.08605
 C1072 C 0.95345 0.86282 1.07478
 C1073 C 0.94497 0.84327 1.08294
 H1074 H 0.95209 0.83592 1.09724
 O1075 O 1.02121 1.10819 1.07806
 O1076 O 1.02136 1.13360 1.10327
 C1077 C 1.02874 1.12581 1.08566
 C1078 C 1.04674 1.13694 1.07427
 C1079 C 1.05529 1.15644 1.08244
 H1080 H 1.04831 1.16367 1.09686
 O1081 O 0.89197 0.92171 1.02153
 O1082 O 0.86661 0.89649 1.02165
 C1083 C 0.87440 0.91407 1.02911
 C1084 C 0.86333 0.92542 1.04721
 C1085 C 0.84372 0.91744 1.05563
 H1086 H 0.83636 0.90318 1.04848
 O1087 O 1.10775 1.07831 1.02065
 O1088 O 1.13310 1.10353 1.02064
 C1089 C 1.12532 1.08597 1.02818
 C1090 C 1.13639 1.07472 1.04635
 C1091 C 1.15595 1.08285 1.05470
 H1092 H 1.16351 1.09679 1.04712
 O1093 O 1.02130 1.07843 1.10780
 O1094 O 1.02141 1.10377 1.13308
 C1095 C 1.02879 1.08610 1.12540
 C1096 C 1.04671 1.07471 1.13669
 C1097 C 1.05495 1.08279 1.15633
 H1098 H 1.04744 1.09682 1.16382
 O1099 O 0.97908 0.92124 1.10810
 O1100 O 0.97904 0.89591 1.13343
 C1101 C 0.97162 0.91357 1.12573
 C1102 C 0.95367 0.92494 1.13700
 C1103 C 0.94531 0.91680 1.15660
 H1104 H 0.95275 0.90273 1.16409
 O1105 O 1.10769 1.02108 1.07830
 O1106 O 1.13303 1.02121 1.10354
 C1107 C 1.12524 1.02866 1.08593
 C1108 C 1.13634 1.04674 1.07456
 C1109 C 1.15588 1.05514 1.08267
 H1110 H 1.16309 1.04803 1.09705
 O1111 O 0.89248 0.97889 1.07889
 O1112 O 0.86723 0.97891 1.10423
 C1113 C 0.87490 0.97143 1.08660
 C1114 C 0.86363 0.95344 1.07532
 C1115 C 0.84401 0.94525 1.08346
 H1116 H 0.83654 0.95285 1.09744
 O1117 O 1.07810 1.10803 1.02049
 O1118 O 1.10339 1.13331 1.02048
 C1119 C 1.08580 1.12563 1.02797
 C1120 C 1.07462 1.13684 1.04606
 C1121 C 1.08289 1.15635 1.05445
 H1122 H 1.09687 1.16383 1.04688
 O1123 O 0.92167 0.89201 1.02138
 O1124 O 0.89639 0.86672 1.02148
 C1125 C 0.91401 0.87439 1.02887
 C1126 C 0.92532 0.86310 1.04684
 C1127 C 0.91712 0.84356 1.05520
 H1128 H 0.90309 0.83612 1.04772
 O1129 O 1.07846 0.97841 1.10812
 O1130 O 1.10368 0.97849 1.13347
 C1131 C 1.08615 0.97093 1.12574
 C1132 C 1.07490 0.95282 1.13692
 C1133 C 1.08298 0.94439 1.15653
 H1134 H 1.09726 0.95154 1.16383
 O1135 O 0.92207 1.02138 1.10857
 O1136 O 0.89691 1.02140 1.13399
 C1137 C 0.91444 1.02889 1.12620
 C1138 C 0.92574 1.04697 1.13732
 C1139 C 0.91771 1.05543 1.15693
 H1140 H 0.90344 1.04830 1.16429
 O1141 O 0.97879 1.10816 1.07817
 O1142 O 0.97895 1.13357 1.10338
 C1143 C 0.97135 1.12580 1.08586
 C1144 C 0.95322 1.13701 1.07471
 C1145 C 0.94489 1.15656 1.08298
 H1146 H 0.95252 1.16405 1.09693
 O1147 O 1.02145 0.89143 1.07843
 O1148 O 1.02146 0.86601 1.10367
 C1149 C 1.02897 0.87380 1.08610
 C1150 C 1.04710 0.86271 1.07484
 C1151 C 1.05557 0.84311 1.08293
 H1152 H 1.04838 0.83573 1.09719
 O1153 O 1.10855 0.92173 1.02118
 O1154 O 1.13392 0.89650 1.02105
 C1155 C 1.12619 0.91409 1.02857
 C1156 C 1.13738 0.92541 1.04659
 C1157 C 1.15696 0.91730 1.05498
 H1158 H 1.16427 0.90303 1.04777
 O1159 O 0.89203 1.07841 1.02126
 O1160 O 0.86664 1.10363 1.02130
 C1161 C 0.87445 1.08604 1.02879
 C1162 C 0.86339 1.07473 1.04694
 C1163 C 0.84383 1.08282 1.05537
 H1164 H 0.83621 1.09676 1.04781
 Cu1165 Cu 1.00024 0.90886 1.09069
 Cu1166 Cu 1.00022 0.87842 1.12107
 Cu1167 Cu 1.00007 1.09082 1.09049
 Cu1168 Cu 1.00023 1.12129 1.12078
 Cu1169 Cu 0.90927 0.90941 1.00024
 Cu1170 Cu 0.87889 0.87908 1.00035
 Cu1171 Cu 1.09101 0.90945 1.00013
 Cu1172 Cu 1.12140 0.87910 0.99993
 Cu1173 Cu 0.90922 1.09090 1.00001
 Cu1174 Cu 0.87881 1.12122 1.00004
 Cu1175 Cu 1.09048 1.09063 0.99932
 Cu1176 Cu 1.12086 1.12095 0.99932
 Cu1177 Cu 0.90984 1.00014 1.09116
 Cu1178 Cu 0.87958 1.00013 1.12163
 Cu1179 Cu 1.09063 0.99972 1.09077
 Cu1180 Cu 1.12098 0.99988 1.12113
 C1181 C 1.05674 0.94298 1.12731
 H1182 H 1.05062 0.94915 1.11202
 C1183 C 1.07328 0.92622 1.16636
 C1184 C 0.94386 1.05680 1.12761
 H1185 H 0.94991 1.05062 1.11231
 C1186 C 0.92743 1.07362 1.16667
 C1187 C 0.87302 1.05654 1.05682
 H1188 H 0.88828 1.05041 1.05063
 C1189 C 0.83408 1.07317 1.07360
 C1190 C 1.12773 0.94356 1.05647
 H1191 H 1.11248 0.94971 1.05029
 C1192 C 1.16671 0.92692 1.07321
 C1193 C 1.05699 0.87245 1.05672
 H1194 H 1.05076 0.88772 1.05058
 C1195 C 1.07382 0.83340 1.07331
 C1196 C 0.94329 1.12755 1.05651
 H1197 H 0.94943 1.11231 1.05024
 C1198 C 0.92670 1.16651 1.07350
 C1199 C 0.94395 0.94331 1.12755
 H1200 H 0.95009 0.94950 1.11227
 C1201 C 0.92729 0.92659 1.16658
 C1202 C 1.05651 1.05641 1.12724
 H1203 H 1.05047 1.05030 1.11190
 C1204 C 1.07294 1.07303 1.16635
 C1205 C 0.94362 0.87250 1.05660
 H1206 H 0.94982 0.88776 1.05044
 C1207 C 0.92674 0.83358 1.07331
 C1208 C 1.05640 1.12738 1.05596
 H1209 H 1.05014 1.11216 1.04980
 C1210 C 1.07340 1.16622 1.07267
 C1211 C 0.87305 0.94354 1.05707
 H1212 H 0.88835 0.94957 1.05091
 C1213 C 0.83397 0.92721 1.07380
 C1214 C 1.12681 1.05654 1.05628
 H1215 H 1.11156 1.05040 1.05015
 C1216 C 1.16578 1.07320 1.07289
 O1217 O 1.07829 0.52088 0.60832
 O1218 O 1.10350 0.52088 0.63368
 C1219 C 1.08594 0.52838 0.62593
 C1220 C 1.07472 0.54651 0.63708
 C1221 C 1.08286 0.55482 0.65667
 H1222 H 1.09673 0.54715 0.66425
 O1223 O 0.92210 0.47898 0.60808
 O1224 O 0.89682 0.47902 0.63338
 C1225 C 0.91437 0.47147 0.62565
 C1226 C 0.92549 0.45325 0.63679
 C1227 C 0.91717 0.44479 0.65625
 H1228 H 0.90323 0.45241 0.66375
 O1229 O 1.02148 0.60821 0.57827
 O1230 O 1.02147 0.63360 0.60350
 C1231 C 1.02894 0.62584 0.58591
 C1232 C 1.04697 0.63702 0.57461
 C1233 C 1.05535 0.65659 0.58275
 H1234 H 1.04785 0.66413 0.59674
 O1235 O 0.97903 0.39178 0.57824
 O1236 O 0.97894 0.36633 0.60345
 C1237 C 0.97152 0.37415 0.58586
 C1238 C 0.95348 0.36304 0.57451
 C1239 C 0.94501 0.34349 0.58266
 H1240 H 0.95209 0.33617 0.59700
 O1241 O 1.10801 0.57821 0.52120
 O1242 O 1.13336 0.60343 0.52123
 C1243 C 1.12558 0.58585 0.52873
 C1244 C 1.13669 0.57456 0.54686
 C1245 C 1.15626 0.58266 0.55521
 H1246 H 1.16381 0.59661 0.54762
 O1247 O 0.89206 0.42182 0.52116
 O1248 O 0.86673 0.39659 0.52126
 C1249 C 0.87452 0.41415 0.52874
 C1250 C 0.86347 0.42545 0.54689
 C1251 C 0.84394 0.41737 0.55542
 H1252 H 0.83663 0.40304 0.54834
 O1253 O 0.97920 0.57848 0.60809
 O1254 O 0.97920 0.60379 0.63340
 C1255 C 0.97177 0.58616 0.62572
 C1256 C 0.95380 0.57487 0.63698
 C1257 C 0.94555 0.58301 0.65660
 H1258 H 0.95318 0.59694 0.66414
 O1259 O 1.02123 0.42143 0.60814
 O1260 O 1.02116 0.39606 0.63344
 C1261 C 1.02864 0.41369 0.62576
 C1262 C 1.04664 0.42490 0.63702
 C1263 C 1.05492 0.41662 0.65658
 H1264 H 1.04730 0.40265 0.66406
 O1265 O 1.10814 0.47847 0.57867
 O1266 O 1.13343 0.47849 0.60395
 C1267 C 1.12577 0.47103 0.58632
 C1268 C 1.13708 0.45308 0.57498
 C1269 C 1.15665 0.44473 0.58313
 H1270 H 1.16409 0.45223 0.59717
 O1271 O 0.89255 0.52155 0.57830
 O1272 O 0.86721 0.52160 0.60355
 C1273 C 0.87494 0.52905 0.58593
 C1274 C 0.86371 0.54706 0.57456
 C1275 C 0.84418 0.55549 0.58273
 H1276 H 0.83699 0.54839 0.59713
 O1277 O 0.92201 0.60823 0.52088
 O1278 O 0.89676 0.63359 0.52087
 C1279 C 0.91430 0.62583 0.52841
 C1280 C 0.92548 0.63695 0.54658
 C1281 C 0.91728 0.65651 0.55498
 H1282 H 0.90333 0.66406 0.54741
 O1283 O 1.07890 0.39209 0.52137
 O1284 O 1.10413 0.36670 0.52136
 C1285 C 1.08657 0.37445 0.52888
 C1286 C 1.07529 0.36323 0.54696
 C1287 C 1.08344 0.34363 0.55535
 H1288 H 1.09746 0.33614 0.54787
 O1289 O 0.92200 0.52144 0.60827
 O1290 O 0.89673 0.52152 0.63359
 C1291 C 0.91433 0.52894 0.62588
 C1292 C 0.92568 0.54693 0.63709
 C1293 C 0.91761 0.55538 0.65668
 H1294 H 0.90326 0.54832 0.66395
 O1295 O 1.07846 0.47843 0.60841
 O1296 O 1.10366 0.47836 0.63378
 C1297 C 1.08610 0.47090 0.62603
 C1298 C 1.07477 0.45284 0.63719
 C1299 C 1.08284 0.44428 0.65675
 H1300 H 1.09717 0.45132 0.66404
 O1301 O 1.02143 0.39175 0.57844
 O1302 O 1.02139 0.36631 0.60367
 C1303 C 1.02894 0.37413 0.58612
 C1304 C 1.04710 0.36302 0.57489
 C1305 C 1.05552 0.34342 0.58303
 H1306 H 1.04832 0.33611 0.59731
 O1307 O 0.97907 0.60823 0.57839
 O1308 O 0.97902 0.63362 0.60361
 C1309 C 0.97153 0.62583 0.58604
 C1310 C 0.95344 0.63697 0.57474
 C1311 C 0.94495 0.65652 0.58289
 H1312 H 0.95202 0.66375 0.59726
 O1313 O 0.89227 0.57864 0.52075
 O1314 O 0.86694 0.60393 0.52076
 C1315 C 0.87468 0.58632 0.52824
 C1316 C 0.86357 0.57504 0.54635
 C1317 C 0.84404 0.58321 0.55477
 H1318 H 0.83646 0.59719 0.54723
 O1319 O 1.10868 0.42167 0.52116
 O1320 O 1.13399 0.39637 0.52114
 C1321 C 1.12627 0.41397 0.52863
 C1322 C 1.13739 0.42522 0.54672
 C1323 C 1.15694 0.41708 0.55515
 H1324 H 1.16427 0.40280 0.54794
 O1325 O 0.97891 0.42133 0.60810
 O1326 O 0.97879 0.39596 0.63340
 C1327 C 0.97136 0.41360 0.62568
 C1328 C 0.95331 0.42493 0.63683
 C1329 C 0.94469 0.41668 0.65628
 H1330 H 0.95165 0.40222 0.66349
 O1331 O 1.02151 0.57860 0.60816
 O1332 O 1.02155 0.60392 0.63346
 C1333 C 1.02898 0.58627 0.62577
 C1334 C 1.04693 0.57486 0.63702
 C1335 C 1.05537 0.58296 0.65660
 H1336 H 1.04836 0.59739 0.66381
 O1337 O 0.89244 0.47910 0.57843
 O1338 O 0.86711 0.47915 0.60369
 C1339 C 0.87485 0.47164 0.58611
 C1340 C 0.86366 0.45358 0.57489
 C1341 C 0.84413 0.44529 0.58313
 H1342 H 0.83667 0.45290 0.59710
 O1343 O 1.10799 0.52092 0.57867
 O1344 O 1.13327 0.52097 0.60396
 C1345 C 1.12554 0.52845 0.58635
 C1346 C 1.13669 0.54652 0.57502
 C1347 C 1.15625 0.55490 0.58312
 H1348 H 1.16348 0.54774 0.59746
 O1349 O 0.92177 0.39215 0.52096
 O1350 O 0.89653 0.36683 0.52104
 C1351 C 0.91414 0.37452 0.52846
 C1352 C 0.92544 0.36326 0.54646
 C1353 C 0.91726 0.34368 0.55482
 H1354 H 0.90328 0.33619 0.54729
 O1355 O 1.07860 0.60820 0.52104
 O1356 O 1.10389 0.63349 0.52108
 C1357 C 1.08628 0.62581 0.52852
 C1358 C 1.07499 0.63703 0.54654
 C1359 C 1.08314 0.65659 0.55494
 H1360 H 1.09748 0.66382 0.54781
 Cu1361 Cu 1.09070 0.49965 0.59099
 Cu1362 Cu 1.12099 0.49967 0.62139
 Cu1363 Cu 0.90981 0.50028 0.59076
 Cu1364 Cu 0.87942 0.50034 0.62109
 Cu1365 Cu 1.00033 0.59086 0.59070
 Cu1366 Cu 1.00031 0.62130 0.62102
 Cu1367 Cu 1.00015 0.40910 0.59070
 Cu1368 Cu 1.00006 0.37860 0.62102
 C1369 C 1.05662 0.55652 0.62749
 H1370 H 1.05047 0.55042 0.61221
 C1371 C 1.07338 0.57309 0.66650
 C1372 C 0.94370 0.44334 0.62732
 H1373 H 0.95003 0.44959 0.61215
 C1374 C 0.92658 0.42647 0.66607
 C1375 C 1.05677 0.62750 0.55635
 H1376 H 1.05060 0.61225 0.55016
 C1377 C 1.07345 0.66649 0.57305
 C1378 C 0.94369 0.37270 0.55630
 H1379 H 0.94987 0.38798 0.55016
 C1380 C 0.92685 0.33374 0.57297
 C1381 C 1.12713 0.55637 0.55678
 H1382 H 1.11185 0.55024 0.55066
 C1383 C 1.16612 0.57301 0.57338
 C1384 C 0.87311 0.44367 0.55666
 H1385 H 0.88835 0.44978 0.55043
 C1386 C 0.83419 0.42715 0.57358
 C1387 C 0.94388 0.55669 0.62747
 H1388 H 0.94995 0.55053 0.61216
 C1389 C 0.92739 0.57347 0.66650
 C1390 C 1.05654 0.44314 0.62757
 H1391 H 1.05043 0.44942 0.61232
 C1392 C 1.07306 0.42612 0.66653
 C1393 C 1.12771 0.44334 0.55664
 H1394 H 1.11245 0.44947 0.55046
 C1395 C 1.16665 0.42667 0.57341
 C1396 C 0.87315 0.55682 0.55623
 H1397 H 0.88837 0.55063 0.55003
 C1398 C 0.83426 0.57358 0.57299
 C1399 C 0.94368 0.62741 0.55647
 H1400 H 0.94989 0.61216 0.55031
 C1401 C 0.92685 0.66639 0.57316
 C1402 C 1.05700 0.37269 0.55674
 H1403 H 1.05083 0.38799 0.55059
 C1404 C 1.07372 0.33361 0.57341
 O1405 O 1.07843 0.47908 0.39157
 O1406 O 1.10364 0.47902 0.36618
 C1407 C 1.08605 0.47159 0.37394
 C1408 C 1.07470 0.45359 0.36278
 C1409 C 1.08272 0.44523 0.34314
 H1410 H 1.09696 0.45241 0.33579
 O1411 O 0.92210 0.52110 0.39161
 O1412 O 0.89695 0.52121 0.36619
 C1413 C 0.91451 0.52863 0.37398
 C1414 C 0.92583 0.54668 0.36282
 C1415 C 0.91774 0.55504 0.34321
 H1416 H 0.90347 0.54786 0.33593
 O1417 O 0.97914 0.60843 0.42121
 O1418 O 0.97912 0.63381 0.39592
 C1419 C 0.97165 0.62606 0.41352
 C1420 C 0.95359 0.63724 0.42477
 C1421 C 0.94523 0.65684 0.41661
 H1422 H 0.95276 0.66438 0.40262
 O1423 O 1.02150 0.39197 0.42172
 O1424 O 1.02159 0.36655 0.39653
 C1425 C 1.02903 0.37433 0.41411
 C1426 C 1.04706 0.36315 0.42544
 C1427 C 1.05547 0.34354 0.41734
 H1428 H 1.04833 0.33625 0.40303
 O1429 O 1.10848 0.42165 0.47867
 O1430 O 1.13379 0.39635 0.47862
 C1431 C 1.12602 0.41393 0.47109
 C1432 C 1.13707 0.42518 0.45289
 C1433 C 1.15653 0.41696 0.44430
 H1434 H 1.16380 0.40259 0.45139
 O1435 O 0.89243 0.57862 0.47832
 O1436 O 0.86709 0.60389 0.47829
 C1437 C 0.87484 0.58628 0.47082
 C1438 C 0.86367 0.57495 0.45279
 C1439 C 0.84403 0.58299 0.44449
 H1440 H 0.83647 0.59697 0.45202
 O1441 O 1.02149 0.57869 0.39151
 O1442 O 1.02146 0.60400 0.36616
 C1443 C 1.02892 0.58636 0.37387
 C1444 C 1.04691 0.57507 0.36264
 C1445 C 1.05519 0.58325 0.34305
 H1446 H 1.04758 0.59721 0.33551
 O1447 O 0.97907 0.42152 0.39180
 O1448 O 0.97918 0.39617 0.36654
 C1449 C 0.97165 0.41378 0.37420
 C1450 C 0.95358 0.42499 0.36295
 C1451 C 0.94521 0.41673 0.34343
 H1452 H 0.95277 0.40273 0.33595
 O1453 O 1.10814 0.52138 0.42128
 O1454 O 1.13345 0.52138 0.39601
 C1455 C 1.12573 0.52884 0.41363
 C1456 C 1.13693 0.54682 0.42499
 C1457 C 1.15652 0.55515 0.41690
 H1458 H 1.16405 0.54765 0.40290
 O1459 O 0.89210 0.47882 0.42116
 O1460 O 0.86685 0.47889 0.39583
 C1461 C 0.87449 0.47142 0.41349
 C1462 C 0.86322 0.45349 0.42488
 C1463 C 0.84369 0.44508 0.41673
 H1464 H 0.83652 0.45218 0.40233
 O1465 O 1.07852 0.60803 0.47862
 O1466 O 1.10382 0.63331 0.47863
 C1467 C 1.08624 0.62564 0.47112
 C1468 C 1.07502 0.63690 0.45304
 C1469 C 1.08318 0.65652 0.44475
 H1470 H 1.09710 0.66402 0.45237
 O1471 O 0.92150 0.39214 0.47856
 O1472 O 0.89628 0.36680 0.47858
 C1473 C 0.91385 0.37453 0.47107
 C1474 C 0.92519 0.36332 0.45305
 C1475 C 0.91712 0.34372 0.44461
 H1476 H 0.90276 0.33648 0.45166
 O1477 O 0.92184 0.47863 0.39154
 O1478 O 0.89669 0.47870 0.36612
 C1479 C 0.91421 0.47114 0.37392
 C1480 C 0.92549 0.45303 0.36281
 C1481 C 0.91732 0.44447 0.34332
 H1482 H 0.90296 0.45154 0.33607
 O1483 O 1.07864 0.52151 0.39140
 O1484 O 1.10388 0.52150 0.36605
 C1485 C 1.08631 0.52900 0.37377
 C1486 C 1.07500 0.54706 0.36255
 C1487 C 1.08311 0.55554 0.34297
 H1488 H 1.09745 0.54846 0.33571
 O1489 O 0.97906 0.39201 0.42171
 O1490 O 0.97916 0.36660 0.39650
 C1491 C 0.97160 0.37440 0.41404
 C1492 C 0.95345 0.36328 0.42521
 C1493 C 0.94516 0.34368 0.41705
 H1494 H 0.95283 0.33610 0.40317
 O1495 O 1.02152 0.60836 0.42125
 O1496 O 1.02154 0.63374 0.39597
 C1497 C 1.02902 0.62597 0.41357
 C1498 C 1.04706 0.63711 0.42490
 C1499 C 1.05552 0.65670 0.41681
 H1500 H 1.04844 0.66401 0.40247
 O1501 O 0.89188 0.42194 0.47869
 O1502 O 0.86658 0.39667 0.47873
 C1503 C 0.87429 0.41428 0.47123
 C1504 C 0.86313 0.42556 0.45313
 C1505 C 0.84360 0.41741 0.44474
 H1506 H 0.83605 0.40348 0.45236
 O1507 O 1.10827 0.57837 0.47873
 O1508 O 1.13363 0.60358 0.47876
 C1509 C 1.12588 0.58601 0.47126
 C1510 C 1.13704 0.57472 0.45320
 C1511 C 1.15661 0.58284 0.44485
 H1512 H 1.16389 0.59711 0.45207
 O1513 O 1.02140 0.42172 0.39192
 O1514 O 1.02152 0.39636 0.36667
 C1515 C 1.02888 0.41404 0.37431
 C1516 C 1.04678 0.42543 0.36301
 C1517 C 1.05500 0.41737 0.34334
 H1518 H 1.04744 0.40340 0.33582
 O1519 O 0.97919 0.57856 0.39169
 O1520 O 0.97912 0.60385 0.36631
 C1521 C 0.97171 0.58621 0.37407
 C1522 C 0.95374 0.57485 0.36288
 C1523 C 0.94543 0.58293 0.34324
 H1524 H 0.95293 0.59691 0.33567
 O1525 O 0.89233 0.52121 0.42116
 O1526 O 0.86709 0.52135 0.39583
 C1527 C 0.87479 0.52877 0.41346
 C1528 C 0.86363 0.54681 0.42478
 C1529 C 0.84401 0.55511 0.41673
 H1530 H 0.83675 0.54792 0.40244
 O1531 O 1.10813 0.47892 0.42122
 O1532 O 1.13342 0.47889 0.39592
 C1533 C 1.12570 0.47139 0.41352
 C1534 C 1.13687 0.45327 0.42477
 C1535 C 1.15634 0.44484 0.41649
 H1536 H 1.16379 0.45239 0.40247
 O1537 O 1.07881 0.39199 0.47896
 O1538 O 1.10404 0.36661 0.47889
 C1539 C 1.08644 0.37436 0.47147
 C1540 C 1.07512 0.36318 0.45347
 C1541 C 1.08325 0.34359 0.44513
 H1542 H 1.09723 0.33605 0.45265
 O1543 O 0.92196 0.60846 0.47840
 O1544 O 0.89669 0.63380 0.47834
 C1545 C 0.91428 0.62608 0.47088
 C1546 C 0.92556 0.63728 0.45282
 C1547 C 0.91742 0.65687 0.44439
 H1548 H 0.90310 0.66411 0.45152
 Cu1549 Cu 1.09081 0.50024 0.40889
 Cu1550 Cu 1.12114 0.50019 0.37851
 Cu1551 Cu 0.90961 0.49991 0.40889
 Cu1552 Cu 0.87937 0.50006 0.37841
 Cu1553 Cu 1.09083 0.59068 0.49989
 Cu1554 Cu 1.12122 0.62099 0.49993
 Cu1555 Cu 1.09121 0.40939 0.50005
 Cu1556 Cu 1.12153 0.37896 0.50001
 Cu1557 Cu 0.90970 0.59097 0.49958
 Cu1558 Cu 0.87934 0.62136 0.49956
 Cu1559 Cu 0.90931 0.40955 0.49982
 Cu1560 Cu 0.87898 0.37918 0.49991
 Cu1561 Cu 1.00034 0.59100 0.40896
 Cu1562 Cu 1.00030 0.62140 0.37855
 Cu1563 Cu 1.00027 0.40933 0.40932
 Cu1564 Cu 1.00039 0.37885 0.37904
 C1565 C 1.05660 0.44370 0.37248
 H1566 H 1.05055 0.44983 0.38780
 C1567 C 1.07304 0.42706 0.33335
 C1568 C 0.94395 0.55658 0.37244
 H1569 H 0.95004 0.55046 0.38776
 C1570 C 0.92738 0.57319 0.33334
 C1571 C 0.94377 0.62770 0.44301
 H1572 H 0.94991 0.61241 0.44918
 C1573 C 0.92712 0.66676 0.42627
 C1574 C 1.05691 0.37274 0.44363
 H1575 H 1.05079 0.38806 0.44975
 C1576 C 1.07361 0.33370 0.42701
 C1577 C 1.12747 0.44344 0.44309
 H1578 H 1.11228 0.44965 0.44937
 C1579 C 1.16624 0.42664 0.42605
 C1580 C 0.87323 0.55672 0.44294
 H1581 H 0.88854 0.55062 0.44903
 C1582 C 0.83412 0.57322 0.42643
 C1583 C 1.05678 0.55683 0.37214
 H1584 H 1.05066 0.55063 0.38742
 C1585 C 1.07336 0.57371 0.33315
 C1586 C 0.94374 0.44328 0.37238
 H1587 H 0.94993 0.44956 0.38759
 C1588 C 0.92703 0.42629 0.33354
 C1589 C 1.12742 0.55660 0.44326
 H1590 H 1.11213 0.55049 0.44937
 C1591 C 1.16643 0.57322 0.42666
 C1592 C 0.87268 0.44376 0.44322
 H1593 H 0.88790 0.44995 0.44941
 C1594 C 0.83380 0.42699 0.42649
 C1595 C 1.05684 0.62744 0.44312
 H1596 H 1.05066 0.61213 0.44922
 C1597 C 1.07363 0.66650 0.42658
 C1598 C 0.94347 0.37286 0.44334
 H1599 H 0.94957 0.38814 0.44952
 C1600 C 0.92697 0.33381 0.42657
 O1601 O 0.57790 1.02148 0.60851
 O1602 O 0.60315 1.02145 0.63383
 C1603 C 0.58560 1.02899 0.62610
 C1604 C 0.57439 1.04715 0.63721
 C1605 C 0.58251 1.05559 0.65677
 H1606 H 0.59674 1.04835 0.66411
 O1607 O 0.42181 0.97933 0.60809
 O1608 O 0.39662 0.97931 0.63349
 C1609 C 0.41417 0.97180 0.62571
 C1610 C 0.42544 0.95366 0.63685
 C1611 C 0.41737 0.94528 0.65647
 H1612 H 0.40315 0.95252 0.66382
 O1613 O 0.52116 1.10864 0.57807
 O1614 O 0.52118 1.13409 0.60324
 C1615 C 0.52864 1.12628 0.58567
 C1616 C 0.54666 1.13740 0.57431
 C1617 C 0.55516 1.15694 0.58241
 H1618 H 0.54809 1.16425 0.59675
 O1619 O 0.47870 0.89179 0.57821
 O1620 O 0.47869 0.86639 0.60347
 C1621 C 0.47122 0.87416 0.58588
 C1622 C 0.45317 0.86301 0.57460
 C1623 C 0.44468 0.84348 0.58281
 H1624 H 0.45179 0.83618 0.59715
 O1625 O 0.60775 1.07855 0.52094
 O1626 O 0.63320 1.10367 0.52092
 C1627 C 0.62536 1.08615 0.52846
 C1628 C 0.63641 1.07483 0.54661
 C1629 C 0.65601 1.08284 0.55502
 H1630 H 0.66339 1.09709 0.54782
 O1631 O 0.39214 0.92201 0.52111
 O1632 O 0.36674 0.89684 0.52118
 C1633 C 0.37454 0.91442 0.52864
 C1634 C 0.36342 0.92577 0.54672
 C1635 C 0.34383 0.91771 0.55509
 H1636 H 0.33626 0.90376 0.54756
 O1637 O 0.47891 1.07896 0.60787
 O1638 O 0.47885 1.10432 0.63313
 C1639 C 0.47144 1.08667 0.62546
 C1640 C 0.45347 1.07537 0.63669
 C1641 C 0.44523 1.08349 0.65632
 H1642 H 0.45280 1.09744 0.66385
 O1643 O 0.52097 0.92153 0.60795
 O1644 O 0.52094 0.89620 0.63328
 C1645 C 0.52837 0.91385 0.62560
 C1646 C 0.54625 0.92519 0.63693
 C1647 C 0.55444 0.91705 0.65658
 H1648 H 0.54691 0.90302 0.66405
 O1649 O 0.60740 0.97897 0.57870
 O1650 O 0.63272 0.97892 0.60396
 C1651 C 0.62502 0.97148 0.58634
 C1652 C 0.63628 0.95351 0.57498
 C1653 C 0.65589 0.94521 0.58308
 H1654 H 0.66336 0.95272 0.59710
 O1655 O 0.39200 1.02182 0.57847
 O1656 O 0.36671 1.02183 0.60377
 C1657 C 0.37439 1.02929 0.58613
 C1658 C 0.36313 1.04728 0.57473
 C1659 C 0.34357 1.05572 0.58283
 H1660 H 0.33638 1.04866 0.59724
 O1661 O 0.42162 1.10841 0.52104
 O1662 O 0.39629 1.13370 0.52094
 C1663 C 0.41387 1.12602 0.52848
 C1664 C 0.42508 1.13727 0.54655
 C1665 C 0.41687 1.15685 0.55489
 H1666 H 0.40286 1.16432 0.54736
 O1667 O 0.57836 0.89218 0.52109
 O1668 O 0.60370 0.86690 0.52118
 C1669 C 0.58606 0.87456 0.52860
 C1670 C 0.57476 0.86329 0.54659
 C1671 C 0.58292 0.84369 0.55494
 H1672 H 0.59693 0.83620 0.54745
 O1673 O 0.42178 1.02179 0.60808
 O1674 O 0.39658 1.02182 0.63346
 C1675 C 0.41414 1.02929 0.62569
 C1676 C 0.42545 1.04732 0.63684
 C1677 C 0.41741 1.05572 0.65646
 H1678 H 0.40313 1.04858 0.66378
 O1679 O 0.57777 0.97900 0.60848
 O1680 O 0.60301 0.97892 0.63381
 C1681 C 0.58543 0.97147 0.62609
 C1682 C 0.57413 0.95338 0.63724
 C1683 C 0.58211 0.94497 0.65690
 H1684 H 0.59632 0.95216 0.66429
 O1685 O 0.52108 0.89189 0.57816
 O1686 O 0.52109 0.86649 0.60343
 C1687 C 0.52857 0.87426 0.58584
 C1688 C 0.54663 0.86310 0.57455
 C1689 C 0.55506 0.84350 0.58268
 H1690 H 0.54791 0.83620 0.59699
 O1691 O 0.47879 1.10874 0.57823
 O1692 O 0.47875 1.13418 0.60341
 C1693 C 0.47126 1.12637 0.58586
 C1694 C 0.45316 1.13747 0.57456
 C1695 C 0.44470 1.15705 0.58265
 H1696 H 0.45184 1.16437 0.59694
 O1697 O 0.39188 1.07878 0.52095
 O1698 O 0.36649 1.10400 0.52081
 C1699 C 0.37424 1.08643 0.52836
 C1700 C 0.36306 1.07518 0.54645
 C1701 C 0.34349 1.08335 0.55477
 H1702 H 0.33594 1.09730 0.54715
 O1703 O 0.60791 0.92199 0.52111
 O1704 O 0.63331 0.89678 0.52115
 C1705 C 0.62550 0.91435 0.52863
 C1706 C 0.63657 0.92564 0.54673
 C1707 C 0.65618 0.91757 0.55510
 H1708 H 0.66354 0.90333 0.54786
 O1709 O 0.47869 0.92162 0.60780
 O1710 O 0.47862 0.89629 0.63313
 C1711 C 0.47120 0.91395 0.62541
 C1712 C 0.45326 0.92534 0.63665
 C1713 C 0.44495 0.91723 0.65627
 H1714 H 0.45241 0.90316 0.66377
 O1715 O 0.52120 1.07911 0.60802
 O1716 O 0.52120 1.10448 0.63327
 C1717 C 0.52865 1.08682 0.62562
 C1718 C 0.54660 1.07549 0.63692
 C1719 C 0.55496 1.08367 0.65648
 H1720 H 0.54752 1.09777 0.66390
 O1721 O 0.39217 0.97938 0.57840
 O1722 O 0.36690 0.97934 0.60371
 C1723 C 0.37461 0.97187 0.58610
 C1724 C 0.36344 0.95384 0.57479
 C1725 C 0.34387 0.94550 0.58294
 H1726 H 0.33666 0.95265 0.59729
 O1727 O 0.60728 1.02140 0.57854
 O1728 O 0.63261 1.02137 0.60378
 C1729 C 0.62489 1.02885 0.58617
 C1730 C 0.63612 1.04684 0.57482
 C1731 C 0.65572 1.05508 0.58294
 H1732 H 0.66318 1.04751 0.59696
 O1733 O 0.42160 0.89202 0.52103
 O1734 O 0.39625 0.86680 0.52114
 C1735 C 0.41387 0.87444 0.52855
 C1736 C 0.42512 0.86319 0.54660
 C1737 C 0.41688 0.84367 0.55502
 H1738 H 0.40287 0.83621 0.54753
 O1739 O 0.57813 1.10832 0.52072
 O1740 O 0.60351 1.13351 0.52071
 C1741 C 0.58587 1.12590 0.52818
 C1742 C 0.57465 1.13719 0.54620
 C1743 C 0.58289 1.15673 0.55454
 H1744 H 0.59689 1.16418 0.54699
 Cu1745 Cu 0.59004 1.00020 0.59106
 Cu1746 Cu 0.62041 1.00016 0.62138
 Cu1747 Cu 0.40946 1.00060 0.59074
 Cu1748 Cu 0.37917 1.00057 0.62117
 Cu1749 Cu 0.50003 1.09134 0.59052
 Cu1750 Cu 0.50000 1.12183 0.62080
 Cu1751 Cu 0.49986 0.90922 0.59048
 Cu1752 Cu 0.49983 0.87878 0.62086
 C1753 C 0.55630 1.05710 0.62754
 H1754 H 0.55014 1.05089 0.61229
 C1755 C 0.57294 1.07387 0.66650
 C1756 C 0.44351 0.94368 0.62717
 H1757 H 0.44960 0.94981 0.61185
 C1758 C 0.42696 0.92702 0.66625
 C1759 C 0.55640 1.12777 0.55606
 H1760 H 0.55016 1.11252 0.54993
 C1761 C 0.57331 1.16669 0.57267
 C1762 C 0.44339 0.87262 0.55637
 H1763 H 0.44962 0.88785 0.55017
 C1764 C 0.42649 0.83374 0.57317
 C1765 C 0.62669 1.05672 0.55654
 H1766 H 0.61139 1.05069 0.55041
 C1767 C 0.66574 1.07311 0.57323
 C1768 C 0.37298 0.94398 0.55656
 H1769 H 0.38825 0.95010 0.55041
 C1770 C 0.33398 0.92740 0.57325
 C1771 C 0.44360 1.05716 0.62718
 H1772 H 0.44966 1.05103 0.61186
 C1773 C 0.42715 1.07384 0.66626
 C1774 C 0.55608 0.94348 0.62749
 H1775 H 0.55006 0.94962 0.61215
 C1776 C 0.57243 0.92675 0.66664
 C1777 C 0.62685 0.94372 0.55668
 H1778 H 0.61156 0.94981 0.55055
 C1779 C 0.66592 0.92720 0.57331
 C1780 C 0.37262 1.05701 0.55640
 H1781 H 0.38786 1.05082 0.55025
 C1782 C 0.33366 1.07379 0.57300
 C1783 C 0.44335 1.12782 0.55638
 H1784 H 0.44957 1.11255 0.55026
 C1785 C 0.42652 1.16683 0.57297
 C1786 C 0.55648 0.87274 0.55637
 H1787 H 0.55029 0.88803 0.55021
 C1788 C 0.57323 0.83371 0.57303
 O1789 O 0.57780 0.97891 0.39121
 O1790 O 0.60302 0.97888 0.36585
 C1791 C 0.58546 0.97141 0.37361
 C1792 C 0.57418 0.95335 0.36248
 C1793 C 0.58221 0.94500 0.34284
 H1794 H 0.59642 0.95225 0.33547
 O1795 O 0.42218 1.02102 0.39142
 O1796 O 0.39698 1.02113 0.36605
 C1797 C 0.41455 1.02855 0.37380
 C1798 C 0.42583 1.04661 0.36264
 C1799 C 0.41777 1.05488 0.34298
 H1800 H 0.40358 1.04759 0.33566
 O1801 O 0.47871 1.10877 0.42128
 O1802 O 0.47863 1.13413 0.39599
 C1803 C 0.47119 1.12638 0.41360
 C1804 C 0.45316 1.13755 0.42493
 C1805 C 0.44472 1.15717 0.41685
 H1806 H 0.45181 1.16449 0.40252
 O1807 O 0.52117 0.89175 0.42153
 O1808 O 0.52129 0.86627 0.39640
 C1809 C 0.52872 0.87412 0.41396
 C1810 C 0.54678 0.86302 0.42532
 C1811 C 0.55523 0.84340 0.41730
 H1812 H 0.54810 0.83602 0.40304
 O1813 O 0.60798 0.92189 0.47862
 O1814 O 0.63338 0.89668 0.47866
 C1815 C 0.62557 0.91423 0.47111
 C1816 C 0.63663 0.92548 0.45294
 C1817 C 0.65625 0.91744 0.44459
 H1818 H 0.66392 0.90358 0.45224
 O1819 O 0.39233 1.07854 0.47847
 O1820 O 0.36693 1.10376 0.47834
 C1821 C 0.37476 1.08617 0.47089
 C1822 C 0.36369 1.07486 0.45277
 C1823 C 0.34407 1.08292 0.44445
 H1824 H 0.33646 1.09684 0.45204
 O1825 O 0.52105 1.07902 0.39163
 O1826 O 0.52102 1.10430 0.36624
 C1827 C 0.52847 1.08667 0.37398
 C1828 C 0.54641 1.07532 0.36274
 C1829 C 0.55473 1.08347 0.34314
 H1830 H 0.54724 1.09751 0.33565
 O1831 O 0.47879 0.92128 0.39164
 O1832 O 0.47888 0.89588 0.36641
 C1833 C 0.47138 0.91353 0.37403
 C1834 C 0.45338 0.92479 0.36274
 C1835 C 0.44502 0.91651 0.34322
 H1836 H 0.45255 0.90246 0.33579
 O1837 O 0.60749 1.02115 0.42100
 O1838 O 0.63278 1.02121 0.39570
 C1839 C 0.62509 1.02860 0.41336
 C1840 C 0.63633 1.04652 0.42476
 C1841 C 0.65595 1.05477 0.41670
 H1842 H 0.66346 1.04725 0.40270
 O1843 O 0.39224 0.97874 0.42106
 O1844 O 0.36694 0.97884 0.39578
 C1845 C 0.37462 0.97134 0.41340
 C1846 C 0.36337 0.95337 0.42476
 C1847 C 0.34390 0.94489 0.41654
 H1848 H 0.33675 0.95194 0.40210
 O1849 O 0.57832 1.10832 0.47832
 O1850 O 0.60372 1.13350 0.47825
 C1851 C 0.58610 1.12588 0.47079
 C1852 C 0.57489 1.13716 0.45272
 C1853 C 0.58311 1.15671 0.44433
 H1854 H 0.59715 1.16413 0.45181
 O1855 O 0.42161 0.89209 0.47860
 O1856 O 0.39628 0.86684 0.47868
 C1857 C 0.41388 0.87448 0.47115
 C1858 C 0.42510 0.86319 0.45310
 C1859 C 0.41690 0.84362 0.44478
 H1860 H 0.40289 0.83617 0.45232
 O1861 O 0.42182 0.97855 0.39125
 O1862 O 0.39660 0.97861 0.36590
 C1863 C 0.41414 0.97105 0.37365
 C1864 C 0.42538 0.95291 0.36251
 C1865 C 0.41722 0.94435 0.34301
 H1866 H 0.40289 0.95145 0.33573
 O1867 O 0.57787 1.02139 0.39128
 O1868 O 0.60307 1.02140 0.36590
 C1869 C 0.58554 1.02893 0.37368
 C1870 C 0.57430 1.04708 0.36257
 C1871 C 0.58240 1.05551 0.34298
 H1872 H 0.59665 1.04831 0.33565
 O1873 O 0.47877 0.89163 0.42143
 O1874 O 0.47885 0.86616 0.39628
 C1875 C 0.47131 0.87398 0.41381
 C1876 C 0.45321 0.86289 0.42511
 C1877 C 0.44474 0.84333 0.41701
 H1878 H 0.45186 0.83599 0.40271
 O1879 O 0.52112 1.10874 0.42128
 O1880 O 0.52109 1.13410 0.39598
 C1881 C 0.52862 1.12634 0.41356
 C1882 C 0.54674 1.13745 0.42479
 C1883 C 0.55522 1.15701 0.41662
 H1884 H 0.54807 1.16433 0.40232
 O1885 O 0.39198 0.92187 0.47863
 O1886 O 0.36661 0.89668 0.47870
 C1887 C 0.37438 0.91423 0.47116
 C1888 C 0.36327 0.92547 0.45302
 C1889 C 0.34380 0.91725 0.44458
 H1890 H 0.33626 0.90329 0.45216
 O1891 O 0.60769 1.07826 0.47846
 O1892 O 0.63315 1.10337 0.47845
 C1893 C 0.62534 1.08580 0.47100
 C1894 C 0.63650 1.07441 0.45298
 C1895 C 0.65613 1.08243 0.44467
 H1896 H 0.66348 1.09666 0.45190
 O1897 O 0.52105 0.92139 0.39169
 O1898 O 0.52119 0.89599 0.36648
 C1899 C 0.52854 0.91368 0.37410
 C1900 C 0.54640 0.92507 0.36278
 C1901 C 0.55465 0.91698 0.34314
 H1902 H 0.54719 0.90293 0.33568
 O1903 O 0.47881 1.07891 0.39171
 O1904 O 0.47871 1.10417 0.36630
 C1905 C 0.47135 1.08651 0.37405
 C1906 C 0.45351 1.07501 0.36279
 C1907 C 0.44522 1.08301 0.34312
 H1908 H 0.45262 1.09706 0.33557
 O1909 O 0.39244 1.02118 0.42101
 O1910 O 0.36715 1.02131 0.39573
 C1911 C 0.37489 1.02876 0.41333
 C1912 C 0.36375 1.04683 0.42465
 C1913 C 0.34416 1.05520 0.41655
 H1914 H 0.33694 1.04807 0.40220
 O1915 O 0.60746 0.97878 0.42091
 O1916 O 0.63275 0.97878 0.39562
 C1917 C 0.62506 0.97131 0.41325
 C1918 C 0.63635 0.95335 0.42463
 C1919 C 0.65594 0.94504 0.41651
 H1920 H 0.66307 0.95214 0.40209
 O1921 O 0.57837 0.89218 0.47875
 O1922 O 0.60370 0.86689 0.47878
 C1923 C 0.58609 0.87456 0.47131
 C1924 C 0.57484 0.86329 0.45334
 C1925 C 0.58302 0.84368 0.44509
 H1926 H 0.59700 0.83621 0.45267
 O1927 O 0.42168 1.10855 0.47862
 O1928 O 0.39634 1.13383 0.47850
 C1929 C 0.41396 1.12616 0.47110
 C1930 C 0.42521 1.13740 0.45307
 C1931 C 0.41704 1.15702 0.44477
 H1932 H 0.40309 1.16454 0.45236
 Cu1933 Cu 0.59012 1.00005 0.40861
 Cu1934 Cu 0.62044 1.00007 0.37820
 Cu1935 Cu 0.40970 0.99984 0.40870
 Cu1936 Cu 0.37938 1.00000 0.37831
 Cu1937 Cu 0.59044 1.09084 0.49961
 Cu1938 Cu 0.62095 1.12104 0.49957
 Cu1939 Cu 0.59064 0.90960 0.49989
 Cu1940 Cu 0.62109 0.87928 0.49996
 Cu1941 Cu 0.40940 1.09104 0.49979
 Cu1942 Cu 0.37896 1.12135 0.49962
 Cu1943 Cu 0.40936 0.90952 0.49983
 Cu1944 Cu 0.37892 0.87927 0.49994
 Cu1945 Cu 0.49991 1.09136 0.40903
 Cu1946 Cu 0.49984 1.12174 0.37859
 Cu1947 Cu 0.49994 0.90903 0.40911
 Cu1948 Cu 0.50007 0.87851 0.37887
 C1949 C 0.55615 0.94338 0.37221
 H1950 H 0.55011 0.94948 0.38756
 C1951 C 0.57261 0.92677 0.33310
 C1952 C 0.44384 1.05667 0.37232
 H1953 H 0.44992 1.05061 0.38767
 C1954 C 0.42729 1.07312 0.33315
 C1955 C 0.44340 1.12791 0.44316
 H1956 H 0.44957 1.11260 0.44927
 C1957 C 0.42662 1.16697 0.42663
 C1958 C 0.55659 0.87273 0.44347
 H1959 H 0.55040 0.88803 0.44954
 C1960 C 0.57340 0.83366 0.42703
 C1961 C 0.62692 0.94358 0.44296
 H1962 H 0.61163 0.94967 0.44910
 C1963 C 0.66599 0.92706 0.42634
 C1964 C 0.37330 1.05669 0.44287
 H1965 H 0.38860 1.05058 0.44897
 C1966 C 0.33423 1.07326 0.42631
 C1967 C 0.55619 1.05700 0.37222
 H1968 H 0.55007 1.05083 0.38751
 C1969 C 0.57277 1.07375 0.33319
 C1970 C 0.44359 0.94312 0.37213
 H1971 H 0.44975 0.94938 0.38735
 C1972 C 0.42689 0.92610 0.33328
 C1973 C 0.62684 1.05631 0.44304
 H1974 H 0.61154 1.05023 0.44915
 C1975 C 0.66594 1.07276 0.42649
 C1976 C 0.37281 0.94367 0.44313
 H1977 H 0.38800 0.94989 0.44935
 C1978 C 0.33403 0.92678 0.42630
 C1979 C 0.55658 1.12778 0.44296
 H1980 H 0.55036 1.11253 0.44914
 C1981 C 0.57346 1.16673 0.42623
 C1982 C 0.44338 0.87259 0.44327
 H1983 H 0.44960 0.88785 0.44938
 C1984 C 0.42655 0.83361 0.42669
 O1985 O 0.47942 0.42111 0.89239
 O1986 O 0.47948 0.39574 0.86714
 C1987 C 0.47200 0.41339 0.87479
 C1988 C 0.45403 0.42463 0.86350
 C1989 C 0.44583 0.41643 0.84390
 H1990 H 0.45345 0.40244 0.83644
 O1991 O 0.52108 0.57827 0.89230
 O1992 O 0.52106 0.60362 0.86698
 C1993 C 0.52852 0.58596 0.87466
 C1994 C 0.54649 0.57465 0.86338
 C1995 C 0.55471 0.58279 0.84373
 H1996 H 0.54713 0.59677 0.83621
 O1997 O 0.39227 0.47827 0.92151
 O1998 O 0.36706 0.47820 0.89615
 C1999 C 0.37471 0.47076 0.91380
 C2000 C 0.36351 0.45275 0.92515
 C2001 C 0.34406 0.44419 0.91694
 H2002 H 0.33690 0.45120 0.90249
 O2003 O 0.60797 0.52102 0.92173
 O2004 O 0.63328 0.52114 0.89645
 C2005 C 0.62556 0.52853 0.91409
 C2006 C 0.63674 0.54649 0.92551
 C2007 C 0.65627 0.55496 0.91742
 H2008 H 0.66347 0.54796 0.90299
 O2009 O 0.42192 0.39184 0.97910
 O2010 O 0.39667 0.36652 0.97913
 C2011 C 0.41425 0.37423 0.97164
 C2012 C 0.42551 0.36298 0.95362
 C2013 C 0.41729 0.34345 0.94525
 H2014 H 0.40325 0.33601 0.95275
 O2015 O 0.57826 0.60753 0.97923
 O2016 O 0.60353 0.63283 0.97928
 C2017 C 0.58597 0.62514 0.97175
 C2018 C 0.57478 0.63639 0.95366
 C2019 C 0.58299 0.65596 0.94531
 H2020 H 0.59697 0.66343 0.95285
 O2021 O 0.42201 0.52071 0.89189
 O2022 O 0.39689 0.52070 0.86644
 C2023 C 0.41441 0.52821 0.87425
 C2024 C 0.42567 0.54633 0.86314
 C2025 C 0.41764 0.55472 0.84351
 H2026 H 0.40344 0.54749 0.83615
 O2027 O 0.57838 0.47861 0.89205
 O2028 O 0.60358 0.47868 0.86666
 C2029 C 0.58605 0.47115 0.87442
 C2030 C 0.57483 0.45306 0.86326
 C2031 C 0.58289 0.44478 0.84361
 H2032 H 0.59707 0.45209 0.83626
 O2033 O 0.52168 0.39140 0.92223
 O2034 O 0.52173 0.36595 0.89706
 C2035 C 0.52916 0.37374 0.91464
 C2036 C 0.54718 0.36258 0.92599
 C2037 C 0.55556 0.34295 0.91794
 H2038 H 0.54839 0.33561 0.90367
 O2039 O 0.47871 0.60801 0.92208
 O2040 O 0.47872 0.63344 0.89685
 C2041 C 0.47123 0.62566 0.91443
 C2042 C 0.45316 0.63684 0.92573
 C2043 C 0.44473 0.65642 0.91756
 H2044 H 0.45189 0.66373 0.90326
 O2045 O 0.39177 0.57809 0.97899
 O2046 O 0.36634 0.60326 0.97880
 C2047 C 0.37421 0.58570 0.97135
 C2048 C 0.36323 0.57436 0.95318
 C2049 C 0.34368 0.58242 0.94464
 H2050 H 0.33630 0.59672 0.95173
 O2051 O 0.60853 0.42155 0.97914
 O2052 O 0.63392 0.39634 0.97929
 C2053 C 0.62614 0.41387 0.97167
 C2054 C 0.63721 0.42511 0.95347
 C2055 C 0.65670 0.41695 0.94487
 H2056 H 0.66405 0.40264 0.95199
 O2057 O 0.47879 0.57830 0.89233
 O2058 O 0.47874 0.60366 0.86703
 C2059 C 0.47134 0.58599 0.87471
 C2060 C 0.45345 0.57463 0.86343
 C2061 C 0.44519 0.58275 0.84379
 H2062 H 0.45265 0.59682 0.83633
 O2063 O 0.52171 0.42101 0.89236
 O2064 O 0.52181 0.39565 0.86710
 C2065 C 0.52919 0.41332 0.87475
 C2066 C 0.54710 0.42471 0.86347
 C2067 C 0.55540 0.41668 0.84381
 H2068 H 0.54796 0.40264 0.83631
 O2069 O 0.60800 0.47861 0.92174
 O2070 O 0.63328 0.47868 0.89643
 C2071 C 0.62559 0.47116 0.91404
 C2072 C 0.63685 0.45311 0.92529
 C2073 C 0.65631 0.44474 0.91697
 H2074 H 0.66368 0.45227 0.90289
 O2075 O 0.39238 0.52072 0.92161
 O2076 O 0.36717 0.52070 0.89624
 C2077 C 0.37481 0.52820 0.91387
 C2078 C 0.36356 0.54627 0.92510
 C2079 C 0.34400 0.55455 0.91687
 H2080 H 0.33656 0.54695 0.90289
 O2081 O 0.42135 0.60788 0.97923
 O2082 O 0.39599 0.63313 0.97901
 C2083 C 0.41366 0.62547 0.97167
 C2084 C 0.42500 0.63671 0.95368
 C2085 C 0.41684 0.65628 0.94527
 H2086 H 0.40281 0.66378 0.95274
 O2087 O 0.57888 0.39180 0.97929
 O2088 O 0.60420 0.36650 0.97943
 C2089 C 0.58659 0.37414 0.97191
 C2090 C 0.57531 0.36281 0.95394
 C2091 C 0.58345 0.34317 0.94565
 H2092 H 0.59746 0.33569 0.95315
 O2093 O 0.57831 0.52104 0.89201
 O2094 O 0.60353 0.52117 0.86665
 C2095 C 0.58594 0.52858 0.87439
 C2096 C 0.57456 0.54660 0.86322
 C2097 C 0.58257 0.55502 0.84358
 H2098 H 0.59688 0.54791 0.83627
 O2099 O 0.42212 0.47824 0.89198
 O2100 O 0.39700 0.47818 0.86653
 C2101 C 0.41455 0.47071 0.87435
 C2102 C 0.42592 0.45264 0.86324
 C2103 C 0.41793 0.44415 0.84364
 H2104 H 0.40364 0.45123 0.83628
 O2105 O 0.52113 0.60796 0.92201
 O2106 O 0.52116 0.63338 0.89676
 C2107 C 0.52865 0.62557 0.91433
 C2108 C 0.54674 0.63664 0.92561
 C2109 C 0.55522 0.65621 0.91749
 H2110 H 0.54810 0.66356 0.90318
 O2111 O 0.47929 0.39139 0.92208
 O2112 O 0.47932 0.36596 0.89689
 C2113 C 0.47179 0.37378 0.91443
 C2114 C 0.45366 0.36270 0.92568
 C2115 C 0.44517 0.34316 0.91754
 H2116 H 0.45232 0.33582 0.90326
 O2117 O 0.60794 0.57779 0.97938
 O2118 O 0.63326 0.60305 0.97948
 C2119 C 0.62555 0.58547 0.97195
 C2120 C 0.63674 0.57427 0.95384
 C2121 C 0.65631 0.58246 0.94554
 H2122 H 0.66385 0.59635 0.95321
 O2123 O 0.39215 0.42143 0.97906
 O2124 O 0.36685 0.39616 0.97912
 C2125 C 0.37458 0.41372 0.97158
 C2126 C 0.36347 0.42488 0.95343
 C2127 C 0.34403 0.41658 0.94500
 H2128 H 0.33654 0.40260 0.95260
 Cu2129 Cu 0.50053 0.40875 0.90980
 Cu2130 Cu 0.50060 0.37826 0.87952
 Cu2131 Cu 0.49992 0.59062 0.90972
 Cu2132 Cu 0.49991 0.62109 0.87937
 Cu2133 Cu 0.40971 0.49947 0.90927
 Cu2134 Cu 0.37950 0.49944 0.87879
 Cu2135 Cu 0.59064 0.49983 0.90941
 Cu2136 Cu 0.62096 0.49993 0.87899
 C2137 C 0.44409 0.44286 0.87295
 H2138 H 0.45011 0.44904 0.88826
 C2139 C 0.42774 0.42599 0.83390
 C2140 C 0.55639 0.55642 0.87287
 H2141 H 0.55035 0.55025 0.88820
 C2142 C 0.57280 0.57315 0.83377
 C2143 C 0.37295 0.44311 0.94354
 H2144 H 0.38811 0.44940 0.94978
 C2145 C 0.33422 0.42609 0.92675
 C2146 C 0.62722 0.55614 0.94385
 H2147 H 0.61198 0.54992 0.94998
 C2148 C 0.66616 0.57296 0.92730
 C2149 C 0.44382 0.37238 0.94384
 H2150 H 0.45005 0.38762 0.95000
 C2151 C 0.42694 0.33346 0.92717
 C2152 C 0.55654 0.62697 0.94381
 H2153 H 0.55033 0.61169 0.94994
 C2154 C 0.57338 0.66596 0.92719
 C2155 C 0.44370 0.55629 0.87287
 H2156 H 0.44976 0.55015 0.88820
 C2157 C 0.42724 0.57297 0.83376
 C2158 C 0.55681 0.44303 0.87295
 H2159 H 0.55071 0.44912 0.88828
 C2160 C 0.57334 0.42655 0.83380
 C2161 C 0.55704 0.37226 0.94412
 H2162 H 0.55087 0.38756 0.95020
 C2163 C 0.57373 0.33317 0.92761
 C2164 C 0.44329 0.62722 0.94392
 H2165 H 0.44945 0.61194 0.95009
 C2166 C 0.42651 0.66620 0.92717
 C2167 C 0.37295 0.55618 0.94337
 H2168 H 0.38820 0.55010 0.94960
 C2169 C 0.33400 0.57267 0.92644
 C2170 C 0.62753 0.44331 0.94365
 H2171 H 0.61233 0.44948 0.94994
 C2172 C 0.66632 0.42661 0.92655
 O2173 O 0.52085 0.42110 1.10897
 O2174 O 0.52080 0.39566 1.13418
 C2175 C 0.52824 0.41333 1.12659
 C2176 C 0.54614 0.42460 1.13793
 C2177 C 0.55445 0.41636 1.15751
 H2178 H 0.54697 0.40228 1.16494
 O2179 O 0.47828 0.57869 1.10843
 O2180 O 0.47827 0.60405 1.13370
 C2181 C 0.47082 0.58642 1.12602
 C2182 C 0.45284 0.57516 1.13725
 C2183 C 0.44452 0.58336 1.15680
 H2184 H 0.45206 0.59738 1.16426
 O2185 O 0.39179 0.52118 1.07904
 O2186 O 0.36645 0.52112 1.10428
 C2187 C 0.37415 0.52860 1.08666
 C2188 C 0.36286 0.54654 1.07526
 C2189 C 0.34332 0.55498 1.08342
 H2190 H 0.33617 0.54794 1.09786
 O2191 O 0.60719 0.47850 1.07948
 O2192 O 0.63240 0.47855 1.10485
 C2193 C 0.62482 0.47112 1.08718
 C2194 C 0.63625 0.45329 1.07581
 C2195 C 0.65588 0.44514 1.08397
 H2196 H 0.66319 0.45265 1.09808
 O2197 O 0.57868 0.39207 1.02168
 O2198 O 0.60401 0.36679 1.02191
 C2199 C 0.58636 0.37449 1.02928
 C2200 C 0.57499 0.36326 1.04729
 C2201 C 0.58306 0.34360 1.05560
 H2202 H 0.59706 0.33609 1.04809
 O2203 O 0.42099 0.60798 1.02164
 O2204 O 0.39564 0.63324 1.02149
 C2205 C 0.41322 0.62559 1.02907
 C2206 C 0.42443 0.63688 1.04713
 C2207 C 0.41623 0.65647 1.05548
 H2208 H 0.40220 0.66392 1.04798
 O2209 O 0.42166 0.47888 1.10882
 O2210 O 0.39639 0.47878 1.13413
 C2211 C 0.41399 0.47134 1.12642
 C2212 C 0.42526 0.45325 1.13760
 C2213 C 0.41715 0.44488 1.15721
 H2214 H 0.40293 0.45215 1.16452
 O2215 O 0.57729 0.52081 1.10906
 O2216 O 0.60244 0.52090 1.13449
 C2217 C 0.58489 0.52835 1.12666
 C2218 C 0.57361 0.54646 1.13773
 C2219 C 0.58170 0.55485 1.15731
 H2220 H 0.59594 0.54762 1.16463
 O2221 O 0.47872 0.39151 1.07893
 O2222 O 0.47865 0.36600 1.10409
 C2223 C 0.47124 0.37384 1.08650
 C2224 C 0.45328 0.36269 1.07511
 C2225 C 0.44482 0.34309 1.08319
 H2226 H 0.45188 0.33574 1.09752
 O2227 O 0.52064 0.60822 1.07870
 O2228 O 0.52071 0.63366 1.10389
 C2229 C 0.52818 0.62582 1.08634
 C2230 C 0.54628 0.63685 1.07503
 C2231 C 0.55476 0.65640 1.08313
 H2232 H 0.54764 0.66377 1.09741
 O2233 O 0.39226 0.42159 1.02151
 O2234 O 0.36695 0.39632 1.02155
 C2235 C 0.37468 0.41392 1.02902
 C2236 C 0.36352 0.42520 1.04709
 C2237 C 0.34390 0.41712 1.05534
 H2238 H 0.33634 0.40321 1.04771
 O2239 O 0.60774 0.57785 1.02189
 O2240 O 0.63307 0.60309 1.02197
 C2241 C 0.62528 0.58552 1.02948
 C2242 C 0.63631 0.57423 1.04766
 C2243 C 0.65593 0.58222 1.05604
 H2244 H 0.66335 0.59642 1.04879
 O2245 O 0.52053 0.57855 1.10848
 O2246 O 0.52057 0.60389 1.13375
 C2247 C 0.52796 0.58621 1.12611
 C2248 C 0.54583 0.57479 1.13743
 C2249 C 0.55415 0.58291 1.15704
 H2250 H 0.54670 0.59699 1.16450
 O2251 O 0.47857 0.42128 1.10860
 O2252 O 0.47845 0.39585 1.13383
 C2253 C 0.47103 0.41354 1.12617
 C2254 C 0.45305 0.42489 1.13742
 C2255 C 0.44466 0.41676 1.15701
 H2256 H 0.45207 0.40265 1.16448
 O2257 O 0.60714 0.52087 1.07958
 O2258 O 0.63236 0.52094 1.10494
 C2259 C 0.62470 0.52837 1.08729
 C2260 C 0.63596 0.54634 1.07594
 C2261 C 0.65556 0.55455 1.08406
 H2262 H 0.66300 0.54702 1.09810
 O2263 O 0.39215 0.47876 1.07900
 O2264 O 0.36678 0.47866 1.10422
 C2265 C 0.37457 0.47121 1.08663
 C2266 C 0.36346 0.45317 1.07525
 C2267 C 0.34385 0.44481 1.08328
 H2268 H 0.33656 0.45195 1.09759
 O2269 O 0.57804 0.60757 1.02164
 O2270 O 0.60332 0.63287 1.02170
 C2271 C 0.58570 0.62520 1.02911
 C2272 C 0.57439 0.63650 1.04706
 C2273 C 0.58258 0.65608 1.05535
 H2274 H 0.59657 0.66354 1.04781
 O2275 O 0.42181 0.39176 1.02149
 O2276 O 0.39655 0.36644 1.02152
 C2277 C 0.41413 0.37414 1.02897
 C2278 C 0.42536 0.36290 1.04699
 C2279 C 0.41715 0.34332 1.05529
 H2280 H 0.40319 0.33585 1.04770
 O2281 O 0.57767 0.47833 1.10937
 O2282 O 0.60281 0.47839 1.13480
 C2283 C 0.58531 0.47085 1.12702
 C2284 C 0.57405 0.45275 1.13818
 C2285 C 0.58214 0.44425 1.15775
 H2286 H 0.59642 0.45138 1.16507
 O2287 O 0.42143 0.52137 1.10876
 O2288 O 0.39617 0.52133 1.13408
 C2289 C 0.41370 0.52888 1.12634
 C2290 C 0.42490 0.54703 1.13745
 C2291 C 0.41678 0.55552 1.15701
 H2292 H 0.40251 0.54839 1.16435
 O2293 O 0.47823 0.60835 1.07868
 O2294 O 0.47825 0.63378 1.10387
 C2295 C 0.47073 0.62599 1.08632
 C2296 C 0.45261 0.63712 1.07506
 C2297 C 0.44415 0.65670 1.08317
 H2298 H 0.45132 0.66402 1.09744
 O2299 O 0.52112 0.39178 1.07889
 O2300 O 0.52107 0.36624 1.10402
 C2301 C 0.52862 0.37412 1.08649
 C2302 C 0.54675 0.36302 1.07520
 C2303 C 0.55512 0.34336 1.08325
 H2304 H 0.54790 0.33598 1.09749
 O2305 O 0.60833 0.42179 1.02167
 O2306 O 0.63375 0.39660 1.02186
 C2307 C 0.62591 0.41419 1.02928
 C2308 C 0.63688 0.42553 1.04744
 C2309 C 0.65654 0.41762 1.05587
 H2310 H 0.66407 0.40349 1.04862
 O2311 O 0.39153 0.57805 1.02148
 O2312 O 0.36611 0.60324 1.02131
 C2313 C 0.37388 0.58568 1.02887
 C2314 C 0.36272 0.57443 1.04697
 C2315 C 0.34317 0.58259 1.05534
 H2316 H 0.33560 0.59653 1.04773
 Cu2317 Cu 0.49982 0.40895 1.09132
 Cu2318 Cu 0.49973 0.37837 1.12155
 Cu2319 Cu 0.49943 0.59094 1.09103
 Cu2320 Cu 0.49946 0.62142 1.12133
 Cu2321 Cu 0.40955 0.40920 1.00029
 Cu2322 Cu 0.37921 0.37881 1.00034
 Cu2323 Cu 0.59110 0.40935 1.00041
 Cu2324 Cu 0.62152 0.37904 1.00065
 Cu2325 Cu 0.40893 0.59047 1.00036
 Cu2326 Cu 0.37847 0.62074 1.00013
 Cu2327 Cu 0.59048 0.59014 1.00053
 Cu2328 Cu 0.62083 0.62049 1.00062
 Cu2329 Cu 0.40931 0.50007 1.09139
 Cu2330 Cu 0.37892 0.49996 1.12172
 Cu2331 Cu 0.58978 0.49960 1.09186
 Cu2332 Cu 0.62003 0.49970 1.12234
 C2333 C 0.55592 0.44293 1.12853
 H2334 H 0.54980 0.44916 1.11326
 C2335 C 0.57249 0.42602 1.16751
 C2336 C 0.44304 0.55688 1.12780
 H2337 H 0.44916 0.55069 1.11252
 C2338 C 0.42644 0.57374 1.16675
 C2339 C 0.37230 0.55626 1.05691
 H2340 H 0.38754 0.55007 1.05074
 C2341 C 0.33338 0.57303 1.07359
 C2342 C 0.62699 0.44352 1.05741
 H2343 H 0.61167 0.44951 1.05124
 C2344 C 0.66611 0.42728 1.07418
 C2345 C 0.55672 0.37275 1.05710
 H2346 H 0.55062 0.38810 1.05102
 C2347 C 0.57332 0.33358 1.07363
 C2348 C 0.44275 0.62746 1.05691
 H2349 H 0.44898 0.61221 1.05076
 C2350 C 0.42594 0.66649 1.07353
 C2351 C 0.44335 0.44327 1.12795
 H2352 H 0.44948 0.44942 1.11266
 C2353 C 0.42668 0.42661 1.16700
 C2354 C 0.55554 0.55642 1.12803
 H2355 H 0.54943 0.55025 1.11274
 C2356 C 0.57213 0.57310 1.16704
 C2357 C 0.44356 0.37234 1.05687
 H2358 H 0.44977 0.38762 1.05074
 C2359 C 0.42671 0.33333 1.07341
 C2360 C 0.55611 0.62712 1.05689
 H2361 H 0.54991 0.61183 1.05080
 C2362 C 0.57297 0.66608 1.07344
 C2363 C 0.37308 0.44335 1.05705
 H2364 H 0.38839 0.44946 1.05100
 C2365 C 0.33399 0.42674 1.07348
 C2366 C 0.62656 0.55617 1.05763
 H2367 H 0.61125 0.55014 1.05150
 C2368 C 0.66563 0.57252 1.07429
 C2369 C 1.10056 1.10026 1.22431
 C2370 C 1.09335 1.11389 1.20762
 C2371 C 1.08426 1.10505 1.18884
 C2372 C 1.11810 1.11729 1.25954
 C2373 C 1.08944 1.06883 1.20342
 C2374 C 1.09853 1.07772 1.22221
 C2375 C 1.11012 1.10944 1.24352
 C2376 C 1.08221 1.08240 1.18651
 H2377 H 1.09487 1.13137 1.20907
 H2378 H 1.07919 1.11591 1.17596
 H2379 H 1.08789 1.05135 1.20219
 H2380 H 1.10398 1.06703 1.23508
 C2381 C 1.10103 0.60041 0.72442
 C2382 C 1.07850 0.59890 0.72225
 C2383 C 1.06946 0.58995 0.70346
 C2384 C 1.11837 0.61787 0.75955
 C2385 C 1.10550 0.58397 0.68897
 C2386 C 1.11449 0.59292 0.70775
 C2387 C 1.11039 0.60986 0.74360
 C2388 C 1.08287 0.58237 0.68660
 H2389 H 1.06794 0.60466 0.73506
 H2390 H 1.05200 0.58878 0.70218
 H2391 H 1.11625 0.57863 0.67614
 H2392 H 1.13194 0.59412 0.70922
 C2393 C 0.60085 1.10105 0.72439
 C2394 C 0.59877 1.07851 0.72227
 C2395 C 0.58956 1.06965 0.70353
 C2396 C 0.61846 1.11816 0.75958
 C2397 C 0.58440 1.10587 0.68897
 C2398 C 0.59361 1.11470 0.70772
 C2399 C 0.61045 1.11025 0.74359
 C2400 C 0.58229 1.08324 0.68664
 H2401 H 0.60428 1.06780 0.73510
 H2402 H 0.58795 1.05218 0.70230
 H2403 H 0.57927 1.11675 0.67614
 H2404 H 0.59521 1.13216 0.70915
 C2405 C 0.60021 0.60039 1.22474
 C2406 C 0.59805 0.57785 1.22274
 C2407 C 0.58881 0.56893 1.20404
 C2408 C 0.61802 0.61761 1.25974
 C2409 C 0.58377 0.60512 1.18932
 C2410 C 0.59301 0.61399 1.20801
 C2411 C 0.60991 0.60964 1.24384
 C2412 C 0.58155 0.58249 1.18712
 H2413 H 0.60353 0.56718 1.23562
 H2414 H 0.58719 0.55146 1.20287
 H2415 H 0.57872 0.61594 1.17641
 H2416 H 0.59468 0.63145 1.20936
 C2417 C 0.89930 0.89945 1.22453
 C2418 C 0.90135 0.92198 1.22235
 C2419 C 0.91057 0.93084 1.20357
 C2420 C 0.88153 0.88236 1.25973
 C2421 C 0.91579 0.89461 1.18913
 C2422 C 0.90658 0.88580 1.20790
 C2423 C 0.88962 0.89027 1.24374
 C2424 C 0.91790 0.91724 1.18674
 H2425 H 0.89581 0.93271 1.23514
 H2426 H 0.91212 0.94831 1.20228
 H2427 H 0.92092 0.88373 1.17631
 H2428 H 0.90501 0.86833 1.20938
 C2429 C 0.89875 0.39927 0.72404
 C2430 C 0.88534 0.40660 0.70725
 C2431 C 0.89438 0.41547 0.68843
 C2432 C 0.88146 0.38206 0.75938
 C2433 C 0.93037 0.40969 0.70309
 C2434 C 0.92129 0.40083 0.72192
 C2435 C 0.88938 0.38997 0.74332
 C2436 C 0.91701 0.41714 0.68614
 H2437 H 0.86788 0.40536 0.70866
 H2438 H 0.88367 0.42071 0.67552
 H2439 H 0.94783 0.41094 0.70188
 H2440 H 0.93183 0.39520 0.73482
 C2441 C 0.39925 0.89980 0.72424
 C2442 C 0.40141 0.92233 0.72215
 C2443 C 0.41052 0.93122 0.70335
 C2444 C 0.38180 0.88276 0.75959
 C2445 C 0.41544 0.89501 0.68871
 C2446 C 0.40631 0.88617 0.70750
 C2447 C 0.38973 0.89062 0.74351
 C2448 C 0.41763 0.91765 0.68641
 H2449 H 0.39606 0.93303 0.73504
 H2450 H 0.41219 0.94868 0.70212
 H2451 H 0.42044 0.88416 0.67582
 H2452 H 0.40466 0.86870 0.70893
 C2453 C 0.39848 0.39956 1.22489
 C2454 C 0.40071 0.42208 1.22275
 C2455 C 0.41000 0.43091 1.20401
 C2456 C 0.38062 0.38259 1.26008
 C2457 C 0.41501 0.39466 1.18951
 C2458 C 0.40570 0.38588 1.20825
 C2459 C 0.38873 0.39043 1.24408
 C2460 C 0.41725 0.41729 1.18716
 H2461 H 0.39524 0.43282 1.23557
 H2462 H 0.41167 0.44837 1.20275
 H2463 H 0.42009 0.38377 1.17669
 H2464 H 0.40403 0.36843 1.20971
 C2465 C 0.89885 1.10026 0.77530
 C2466 C 0.90074 1.07771 0.77756
 C2467 C 0.90985 1.06885 0.79637
 C2468 C 0.88133 1.11725 0.73999
 C2469 C 0.91529 1.10510 0.81069
 C2470 C 0.90617 1.11392 0.79188
 C2471 C 0.88930 1.10941 0.75605
 C2472 C 0.91724 1.08245 0.81314
 H2473 H 0.89516 1.06700 0.76478
 H2474 H 0.91128 1.05137 0.79772
 H2475 H 0.92046 1.11598 0.82347
 H2476 H 0.90474 1.13139 0.79032
 C2477 C 0.89947 0.60020 0.27538
 C2478 C 0.90153 0.57767 0.27761
 C2479 C 0.91073 0.56885 0.29640
 C2480 C 0.88182 0.61707 0.24007
 C2481 C 0.91591 0.60513 0.31076
 C2482 C 0.90670 0.61390 0.29197
 C2483 C 0.88985 0.60928 0.25613
 C2484 C 0.91802 0.58250 0.31318
 H2485 H 0.89602 0.56692 0.26484
 H2486 H 0.91227 0.55138 0.29774
 H2487 H 0.92100 0.61602 0.32357
 H2488 H 0.90512 0.63136 0.29045
 C2489 C 0.39913 1.10013 0.27534
 C2490 C 0.40144 1.07761 0.27741
 C2491 C 0.41073 1.06878 0.29615
 C2492 C 0.38127 1.11717 0.24025
 C2493 C 0.41550 1.10502 0.31074
 C2494 C 0.40621 1.11381 0.29201
 C2495 C 0.38939 1.10928 0.25620
 C2496 C 0.41786 1.08241 0.31302
 H2497 H 0.39604 1.06689 0.26457
 H2498 H 0.41246 1.05132 0.29739
 H2499 H 0.42047 1.11590 0.32361
 H2500 H 0.40442 1.13126 0.29060
 C2501 C 0.39950 0.60022 0.77582
 C2502 C 0.40159 0.57768 0.77793
 C2503 C 0.41074 0.56878 0.79671
 C2504 C 0.38192 0.61729 0.74059
 C2505 C 0.41583 0.60499 0.81126
 C2506 C 0.40668 0.61384 0.79249
 C2507 C 0.38992 0.60941 0.75661
 C2508 C 0.41794 0.58235 0.81360
 H2509 H 0.39613 0.56699 0.76509
 H2510 H 0.41235 0.55131 0.79795
 H2511 H 0.42090 0.61585 0.82411
 H2512 H 0.40508 0.63131 0.79103
 C2513 C 1.10035 0.89934 0.77544
 C2514 C 1.09828 0.92188 0.77751
 C2515 C 1.08909 0.93080 0.79626
 C2516 C 1.11817 0.88218 0.74038
 C2517 C 1.08392 0.89460 0.81087
 C2518 C 1.09310 0.88573 0.79212
 C2519 C 1.11005 0.89011 0.75631
 C2520 C 1.08183 0.91724 0.81317
 H2521 H 1.10381 0.93256 0.76467
 H2522 H 1.08752 0.94827 0.79747
 H2523 H 1.07883 0.88374 0.82373
 H2524 H 1.09468 0.86826 0.79071
 C2525 C 1.10074 0.39956 0.27552
 C2526 C 1.09884 0.42212 0.27759
 C2527 C 1.08972 0.43111 0.29633
 C2528 C 1.11827 0.38232 0.24035
 C2529 C 1.08432 0.39495 0.31096
 C2530 C 1.09345 0.38601 0.29223
 C2531 C 1.11029 0.39026 0.25635
 C2532 C 1.08236 0.41761 0.31323
 H2533 H 1.10444 0.43276 0.26474
 H2534 H 1.08824 0.44859 0.29753
 H2535 H 1.07913 0.38414 0.32382
 H2536 H 1.09495 0.36853 0.29084
 C2537 C 0.60038 0.89942 0.27525
 C2538 C 0.59826 0.92196 0.27728
 C2539 C 0.58913 0.93090 0.29603
 C2540 C 0.61800 0.88234 0.24006
 C2541 C 0.58409 0.89471 0.31074
 C2542 C 0.59322 0.88583 0.29198
 C2543 C 0.60999 0.89021 0.25607
 C2544 C 0.58194 0.91736 0.31298
 H2545 H 0.60368 0.93263 0.26438
 H2546 H 0.58754 0.94837 0.29723
 H2547 H 0.57907 0.88389 0.32366
 H2548 H 0.59482 0.86835 0.29060
 C2549 C 0.60113 0.39952 0.77575
 C2550 C 0.59902 0.42206 0.77791
 C2551 C 0.58989 0.43089 0.79673
 C2552 C 0.61872 0.38243 0.74050
 C2553 C 0.58488 0.39464 0.81125
 C2554 C 0.59401 0.38585 0.79244
 C2555 C 0.61071 0.39035 0.75651
 C2556 C 0.58270 0.41727 0.81361
 H2557 H 0.60444 0.43280 0.76507
 H2558 H 0.58830 0.44836 0.79801
 H2559 H 0.57988 0.38374 0.82412
 H2560 H 0.59563 0.36839 0.79098
 C2561 C 1.22371 1.10017 1.10063
 C2562 C 1.22142 1.07764 1.09881
 C2563 C 1.20265 1.06883 1.08966
 C2564 C 1.25882 1.11723 1.11828
 C2565 C 1.18845 1.10513 1.08404
 C2566 C 1.20723 1.11389 1.09318
 C2567 C 1.24288 1.10931 1.11025
 C2568 C 1.18593 1.08249 1.08220
 H2569 H 1.23413 1.06687 1.10447
 H2570 H 1.20126 1.05136 1.08827
 H2571 H 1.17574 1.11606 1.07878
 H2572 H 1.20883 1.13136 1.09456
 C2573 C 1.22404 0.60016 0.60114
 C2574 C 1.22177 0.57761 0.59937
 C2575 C 1.20300 0.56875 0.59023
 C2576 C 1.25925 0.61722 0.61870
 C2577 C 1.18876 0.60501 0.58451
 C2578 C 1.20752 0.61382 0.59365
 C2579 C 1.24324 0.60934 0.61072
 C2580 C 1.18627 0.58236 0.58271
 H2581 H 1.23449 0.56689 0.60505
 H2582 H 1.20165 0.55127 0.58889
 H2583 H 1.17603 0.61590 0.57921
 H2584 H 1.20908 0.63130 0.59498
 C2585 C 0.72378 1.10032 0.60060
 C2586 C 0.70700 1.09331 0.61417
 C2587 C 0.68820 1.08435 0.60528
 C2588 C 0.75905 1.11770 0.61767
 C2589 C 0.70288 1.08935 0.56912
 C2590 C 0.72170 1.09829 0.57806
 C2591 C 0.74302 1.10974 0.60984
 C2592 C 0.68590 1.08230 0.58264
 H2593 H 0.70840 1.09489 0.63164
 H2594 H 0.67529 1.07938 0.61610
 H2595 H 0.70168 1.08777 0.55165
 H2596 H 0.73461 1.10365 0.56740
 C2597 C 0.72377 0.59961 1.10148
 C2598 C 0.70699 0.59272 1.11511
 C2599 C 0.68814 0.58380 1.10628
 C2600 C 0.75908 0.61711 1.11831
 C2601 C 0.70282 0.58854 1.07008
 C2602 C 0.72168 0.59745 1.07895
 C2603 C 0.74302 0.60909 1.11060
 C2604 C 0.68582 0.58166 1.08365
 H2605 H 0.70841 0.59437 1.13256
 H2606 H 0.67523 0.57891 1.11714
 H2607 H 0.70160 0.58685 1.05263
 H2608 H 0.73461 0.60268 1.06826
 C2609 C 1.22407 0.90011 0.89882
 C2610 C 1.20730 0.90715 0.88526
 C2611 C 1.18848 0.91609 0.89418
 C2612 C 1.25935 0.88272 0.88173
 C2613 C 1.20316 0.91103 0.93033
 C2614 C 1.22200 0.90211 0.92137
 C2615 C 1.24331 0.89069 0.88957
 C2616 C 1.18618 0.91810 0.91683
 H2617 H 1.20871 0.90562 0.86780
 H2618 H 1.17557 0.92108 0.88337
 H2619 H 1.20196 0.91258 0.94780
 H2620 H 1.23492 0.89675 0.93201
 C2621 C 1.22419 0.39953 0.39815
 C2622 C 1.20737 0.40675 0.38472
 C2623 C 1.18856 0.41557 0.39379
 C2624 C 1.25947 0.38235 0.38078
 C2625 C 1.20329 0.40999 0.42985
 C2626 C 1.22211 0.40118 0.42073
 C2627 C 1.24344 0.39024 0.38873
 C2628 C 1.18631 0.41732 0.41647
 H2629 H 1.20876 0.40545 0.36724
 H2630 H 1.17565 0.42072 0.38306
 H2631 H 1.20212 0.41130 0.44734
 H2632 H 1.23504 0.39566 0.43128
 C2633 C 0.72396 0.90015 0.39834
 C2634 C 0.70763 0.88642 0.40609
 C2635 C 0.68887 0.89516 0.41532
 C2636 C 0.75908 0.88311 0.38054
 C2637 C 0.70274 0.93148 0.40923
 C2638 C 0.72151 0.92269 0.39999
 C2639 C 0.74313 0.89103 0.38862
 C2640 C 0.68618 0.91780 0.41698
 H2641 H 0.70935 0.86895 0.40486
 H2642 H 0.67629 0.88420 0.42080
 H2643 H 0.70124 0.94896 0.41047
 H2644 H 0.73407 0.93348 0.39411
 C2645 C 0.72417 0.39956 0.89840
 C2646 C 0.70723 0.40661 0.88505
 C2647 C 0.68846 0.41545 0.89420
 C2648 C 0.75944 0.38252 0.88082
 C2649 C 0.70348 0.41020 0.93018
 C2650 C 0.72226 0.40138 0.92098
 C2651 C 0.74341 0.39034 0.88887
 C2652 C 0.68636 0.41734 0.91688
 H2653 H 0.70848 0.40519 0.86756
 H2654 H 0.67547 0.42053 0.88353
 H2655 H 0.70244 0.41168 0.94766
 H2656 H 0.73529 0.39600 0.93148
 C2657 C 0.77594 0.89985 1.10117
 C2658 C 0.79261 0.90708 1.11476
 C2659 C 0.81139 0.91611 1.10586
 C2660 C 0.74069 0.88231 1.11818
 C2661 C 0.79689 0.91081 1.06969
 C2662 C 0.77810 0.90179 1.07863
 C2663 C 0.75673 0.89033 1.11038
 C2664 C 0.81378 0.91804 1.08322
 H2665 H 0.79114 0.90561 1.13222
 H2666 H 0.82422 0.92123 1.11670
 H2667 H 0.79814 0.91230 1.05222
 H2668 H 0.76526 0.89630 1.06797
 C2669 C 0.77618 0.40009 0.60119
 C2670 C 0.79286 0.40737 0.61472
 C2671 C 0.81167 0.41625 0.60575
 C2672 C 0.74108 0.38246 0.61835
 C2673 C 0.79715 0.41070 0.56962
 C2674 C 0.77833 0.40182 0.57863
 C2675 C 0.75702 0.39056 0.61048
 C2676 C 0.81406 0.41798 0.58308
 H2677 H 0.79138 0.40606 0.63220
 H2678 H 0.82451 0.42142 0.61655
 H2679 H 0.79841 0.41206 0.55213
 H2680 H 0.76549 0.39628 0.56801
 C2681 C 0.27611 0.90020 0.60106
 C2682 C 0.29268 0.88657 0.59366
 C2683 C 0.31144 0.89541 0.58454
 C2684 C 0.24098 0.88298 0.61863
 C2685 C 0.29710 0.93165 0.59012
 C2686 C 0.27833 0.92275 0.59923
 C2687 C 0.25693 0.89097 0.61064
 C2688 C 0.31387 0.91806 0.58265
 H2689 H 0.29115 0.86909 0.59504
 H2690 H 0.32421 0.88453 0.57931
 H2691 H 0.29842 0.94913 0.58874
 H2692 H 0.26557 0.93346 0.60486
 C2693 C 0.27602 0.39948 1.10101
 C2694 C 0.29260 0.38585 1.09361
 C2695 C 0.31137 0.39471 1.08453
 C2696 C 0.24078 0.38233 1.11839
 C2697 C 0.29705 0.43094 1.09017
 C2698 C 0.27827 0.42204 1.09925
 C2699 C 0.25680 0.39025 1.11049
 C2700 C 0.31383 0.41736 1.08273
 H2701 H 0.29108 0.36838 1.09500
 H2702 H 0.32412 0.38383 1.07925
 H2703 H 0.29837 0.44842 1.08877
 H2704 H 0.26553 0.43275 1.10492
 C2705 C 0.77572 1.09999 0.89842
 C2706 C 0.77805 1.07746 0.90043
 C2707 C 0.79679 1.06871 0.90978
 C2708 C 0.74060 1.11700 0.88053
 C2709 C 0.81088 1.10503 0.91524
 C2710 C 0.79215 1.11374 0.90589
 C2711 C 0.75655 1.10909 0.88864
 C2712 C 0.81344 1.08241 0.91728
 H2713 H 0.76542 1.06667 0.89476
 H2714 H 0.79821 1.05124 0.91127
 H2715 H 0.82354 1.11600 0.92050
 H2716 H 0.79054 1.13120 0.90436
 C2717 C 0.77617 0.60017 0.39857
 C2718 C 0.77842 0.57763 0.40055
 C2719 C 0.79720 0.56882 0.40974
 C2720 C 0.74099 0.61732 0.38108
 C2721 C 0.81148 0.60510 0.41503
 C2722 C 0.79271 0.61386 0.40585
 C2723 C 0.75697 0.60934 0.38902
 C2724 C 0.81394 0.58248 0.41709
 H2725 H 0.76568 0.56688 0.39501
 H2726 H 0.79857 0.55134 0.41125
 H2727 H 0.82423 0.61602 0.42016
 H2728 H 0.79114 0.63133 0.40433
 C2729 C 0.27611 1.10018 0.39873
 C2730 C 0.29258 1.11390 0.40612
 C2731 C 0.31141 1.10516 0.41520
 C2732 C 0.24074 1.11712 0.38139
 C2733 C 0.29733 1.06885 0.40961
 C2734 C 0.27849 1.07764 0.40053
 C2735 C 0.25682 1.10928 0.38926
 C2736 C 0.31402 1.08252 0.41704
 H2737 H 0.29091 1.13137 0.40477
 H2738 H 0.32410 1.11610 0.42043
 H2739 H 0.29877 1.05137 0.41099
 H2740 H 0.26579 1.06687 0.39492
 C2741 C 0.27605 0.59987 0.89869
 C2742 C 0.29285 0.59273 0.88522
 C2743 C 0.31164 0.58380 0.89423
 C2744 C 0.24098 0.61757 0.88141
 C2745 C 0.29686 0.58906 0.93032
 C2746 C 0.27807 0.59798 0.92125
 C2747 C 0.25690 0.60943 0.88934
 C2748 C 0.31387 0.58188 0.91690
 H2749 H 0.29150 0.59422 0.86774
 H2750 H 0.32457 0.57873 0.88348
 H2751 H 0.29803 0.58760 0.94780
 H2752 H 0.26514 0.60345 0.93183
 C2753 C 1.10097 1.22413 1.10009
 C2754 C 1.11447 1.20737 1.09282
 C2755 C 1.10551 1.18857 1.08384
 C2756 C 1.11811 1.25938 1.11752
 C2757 C 1.06946 1.20325 1.08934
 C2758 C 1.07846 1.22205 1.09830
 C2759 C 1.11025 1.24335 1.10954
 C2760 C 1.08290 1.18630 1.08199
 H2761 H 1.13191 1.20877 1.09420
 H2762 H 1.11626 1.17566 1.07868
 H2763 H 1.05201 1.20203 1.08798
 H2764 H 1.06787 1.23494 1.10385
 C2765 C 1.10085 0.72474 0.59993
 C2766 C 1.09362 0.70814 0.61365
 C2767 C 1.08462 0.68925 0.60493
 C2768 C 1.11834 0.76007 0.61685
 C2769 C 1.08996 0.70353 0.56863
 C2770 C 1.09895 0.72243 0.57741
 C2771 C 1.11036 0.74403 0.60902
 C2772 C 1.08270 0.68672 0.58231
 H2773 H 1.09507 0.70974 0.63111
 H2774 H 1.07952 0.67646 0.61587
 H2775 H 1.08852 0.70213 0.55117
 H2776 H 1.10444 0.73522 0.56663
 C2777 C 0.60076 1.22483 0.59968
 C2778 C 0.61428 1.20797 0.59269
 C2779 C 0.60535 1.18909 0.58387
 C2780 C 0.61788 1.26013 0.61701
 C2781 C 0.56929 1.20387 0.58897
 C2782 C 0.57826 1.22276 0.59777
 C2783 C 0.61001 1.24410 0.60906
 C2784 C 0.58275 1.18683 0.58190
 H2785 H 0.63171 1.20937 0.59416
 H2786 H 0.61612 1.17611 0.57892
 H2787 H 0.55184 1.20266 0.58750
 H2788 H 0.56765 1.23574 0.60309
 C2789 C 0.60064 0.72412 1.10034
 C2790 C 0.61408 0.70712 1.09358
 C2791 C 0.60507 0.68826 1.08482
 C2792 C 0.61785 0.75950 1.11737
 C2793 C 0.56908 0.70332 1.08961
 C2794 C 0.57813 0.72220 1.09834
 C2795 C 0.60996 0.74342 1.10956
 C2796 C 0.58247 0.68617 1.08269
 H2797 H 0.63152 0.70840 1.09517
 H2798 H 0.61576 0.67516 1.08002
 H2799 H 0.55164 0.70222 1.08807
 H2800 H 0.56760 0.73530 1.10353
 C2801 C 0.89974 1.22508 0.89967
 C2802 C 0.92223 1.22275 0.90144
 C2803 C 0.93106 1.20378 0.91029
 C2804 C 0.88284 1.26043 0.88211
 C2805 C 0.89487 1.18948 0.91572
 C2806 C 0.88609 1.20843 0.90686
 C2807 C 0.89063 1.24438 0.89017
 C2808 C 0.91746 1.18694 0.91757
 H2809 H 0.93293 1.23558 0.89595
 H2810 H 0.94850 1.20235 0.91161
 H2811 H 0.88400 1.17663 0.92077
 H2812 H 0.86866 1.21004 0.90549
 C2813 C 0.89964 0.72502 0.39919
 C2814 C 0.90701 0.70845 0.38552
 C2815 C 0.91604 0.68957 0.39431
 C2816 C 0.88200 0.76026 0.38207
 C2817 C 0.91048 0.70381 0.43057
 C2818 C 0.90144 0.72269 0.42173
 C2819 C 0.89005 0.74427 0.39001
 C2820 C 0.91786 0.68701 0.41695
 H2821 H 0.90564 0.71006 0.36806
 H2822 H 0.92125 0.67681 0.38341
 H2823 H 0.91186 0.70240 0.44804
 H2824 H 0.89585 0.73546 0.43246
 C2825 C 0.39905 1.22516 0.39957
 C2826 C 0.42156 1.22309 0.40149
 C2827 C 0.43058 1.20419 0.41031
 C2828 C 0.38183 1.26051 0.38227
 C2829 C 0.39454 1.18942 0.41546
 C2830 C 0.38557 1.20830 0.40661
 C2831 C 0.38975 1.24445 0.39020
 C2832 C 0.41715 1.18715 0.41740
 H2833 H 0.43214 1.23608 0.39615
 H2834 H 0.44802 1.20299 0.41179
 H2835 H 0.38380 1.17645 0.42046
 H2836 H 0.36813 1.20970 0.40516
 C2837 C 0.39910 0.72427 0.89976
 C2838 C 0.42159 0.72223 0.90184
 C2839 C 0.43054 0.70336 0.91078
 C2840 C 0.38207 0.75970 0.88248
 C2841 C 0.39448 0.68855 0.91565
 C2842 C 0.38557 0.70741 0.90669
 C2843 C 0.38988 0.74359 0.89039
 C2844 C 0.41708 0.68632 0.91781
 H2845 H 0.43219 0.73521 0.89656
 H2846 H 0.44797 0.70218 0.91239
 H2847 H 0.38371 0.67557 0.92056
 H2848 H 0.36814 0.70878 0.90506
 C2849 C 1.10065 0.77554 0.90005
 C2850 C 1.11415 0.79242 0.90694
 C2851 C 1.10522 0.81129 0.91580
 C2852 C 1.11775 0.74015 0.88283
 C2853 C 1.06917 0.79645 0.91094
 C2854 C 1.07815 0.77757 0.90209
 C2855 C 1.10990 0.75624 0.89072
 C2856 C 1.08262 0.81350 0.91793
 H2857 H 1.13159 0.79105 0.90538
 H2858 H 1.11597 0.82429 0.92068
 H2859 H 1.05173 0.79764 0.91253
 H2860 H 1.06756 0.76456 0.89686
 C2861 C 1.10100 0.27565 0.39957
 C2862 C 1.11453 0.29240 0.40670
 C2863 C 1.10564 0.31123 0.41570
 C2864 C 1.11810 0.24029 0.38222
 C2865 C 1.06955 0.29662 0.41048
 C2866 C 1.07849 0.27778 0.40149
 C2867 C 1.11024 0.25636 0.39015
 C2868 C 1.08303 0.31355 0.41769
 H2869 H 1.13197 0.29096 0.40520
 H2870 H 1.11643 0.32412 0.42078
 H2871 H 1.05211 0.29787 0.41198
 H2872 H 1.06786 0.26490 0.39604
 C2873 C 0.60092 0.77545 0.40011
 C2874 C 0.61442 0.79228 0.40713
 C2875 C 0.60547 0.81117 0.41594
 C2876 C 0.61812 0.74012 0.38283
 C2877 C 0.56942 0.79646 0.41079
 C2878 C 0.57841 0.77756 0.40199
 C2879 C 0.61021 0.75617 0.39076
 C2880 C 0.58286 0.81348 0.41786
 H2881 H 0.63186 0.79086 0.40566
 H2882 H 0.61623 0.82412 0.42093
 H2883 H 0.55197 0.79769 0.41228
 H2884 H 0.56781 0.76461 0.39664
 C2885 C 0.60094 0.27510 0.90000
 C2886 C 0.61452 0.29185 0.90707
 C2887 C 0.60567 0.31068 0.91613
 C2888 C 0.61786 0.23991 0.88216
 C2889 C 0.56956 0.29603 0.91118
 C2890 C 0.57845 0.27720 0.90213
 C2891 C 0.61009 0.25590 0.89033
 C2892 C 0.58309 0.31298 0.91830
 H2893 H 0.63194 0.29043 0.90543
 H2894 H 0.61648 0.32360 0.92108
 H2895 H 0.55213 0.29727 0.91275
 H2896 H 0.56780 0.26429 0.89677
 C2897 C 0.89898 0.77560 1.10045
 C2898 C 0.88556 0.79257 1.09352
 C2899 C 0.89459 0.81140 1.08468
 C2900 C 0.88170 0.74022 1.11751
 C2901 C 0.93058 0.79640 1.08971
 C2902 C 0.92150 0.77755 1.09854
 C2903 C 0.88962 0.75631 1.10968
 C2904 C 0.91721 0.81351 1.08264
 H2905 H 0.86811 0.79127 1.09503
 H2906 H 0.88390 0.82445 1.07973
 H2907 H 0.94802 0.79750 1.08819
 H2908 H 0.93202 0.76450 1.10385
 C2909 C 0.89920 0.27575 0.60018
 C2910 C 0.92171 0.27775 0.59831
 C2911 C 0.93076 0.29660 0.58947
 C2912 C 0.88198 0.24040 0.61739
 C2913 C 0.89474 0.31148 0.58428
 C2914 C 0.88574 0.29264 0.59314
 C2915 C 0.88988 0.25647 0.60950
 C2916 C 0.91736 0.31366 0.58230
 H2917 H 0.93226 0.26474 0.60369
 H2918 H 0.94821 0.29776 0.58804
 H2919 H 0.88403 0.32449 0.57928
 H2920 H 0.86830 0.29130 0.59458
 C2921 C 0.39887 0.77577 0.60057
 C2922 C 0.38540 0.79263 0.59347
 C2923 C 0.39438 0.81145 0.58453
 C2924 C 0.38171 0.74044 0.61788
 C2925 C 0.43041 0.79662 0.58975
 C2926 C 0.42138 0.77779 0.59868
 C2927 C 0.38958 0.75650 0.60995
 C2928 C 0.41699 0.81365 0.58255
 H2929 H 0.36796 0.79127 0.59494
 H2930 H 0.38364 0.82443 0.57949
 H2931 H 0.44785 0.79778 0.58828
 H2932 H 0.43195 0.76481 0.60409
 C2933 C 0.39914 0.27513 1.10025
 C2934 C 0.42165 0.27718 1.09841
 C2935 C 0.43067 0.29609 1.08966
 C2936 C 0.38181 0.23979 1.11734
 C2937 C 0.39463 0.31091 1.08448
 C2938 C 0.38566 0.29201 1.09325
 C2939 C 0.38980 0.25582 1.10949
 C2940 C 0.41724 0.31316 1.08260
 H2941 H 0.43223 0.26417 1.10374
 H2942 H 0.44811 0.29729 1.08820
 H2943 H 0.38388 0.32389 1.07948
 H2944 H 0.36822 0.29061 1.09466
 C2945 C 1.09990 1.10163 0.77486
 C2946 C 1.09265 1.11510 0.79164
 C2947 C 1.08373 1.10607 0.81046
 C2948 C 1.11748 1.11891 0.73965
 C2949 C 1.08919 1.06997 0.79577
 C2950 C 1.09810 1.07905 0.77694
 C2951 C 1.10941 1.11100 0.75565
 C2952 C 1.08193 1.08339 0.81276
 H2953 H 1.09403 1.13259 0.79026
 H2954 H 1.07857 1.11684 0.82336
 H2955 H 1.08779 1.05248 0.79697
 H2956 H 1.10362 1.06846 0.76403
 C2957 C 1.10045 0.60169 0.27518
 C2958 C 1.09314 0.61510 0.29198
 C2959 C 1.08431 0.60599 0.31079
 C2960 C 1.11778 0.61915 0.23997
 C2961 C 1.09006 0.56994 0.29608
 C2962 C 1.09889 0.57910 0.27726
 C2963 C 1.10981 0.61116 0.25596
 C2964 C 1.08264 0.58330 0.31306
 H2965 H 1.09437 0.63260 0.29060
 H2966 H 1.07909 0.61670 0.32371
 H2967 H 1.08882 0.55243 0.29727
 H2968 H 1.10451 0.56856 0.26435
 C2969 C 0.60029 1.10115 0.27522
 C2970 C 0.59829 1.07859 0.27731
 C2971 C 0.58925 1.06964 0.29611
 C2972 C 0.61783 1.11817 0.23994
 C2973 C 0.58415 1.10582 0.31077
 C2974 C 0.59319 1.11473 0.29197
 C2975 C 0.60979 1.11038 0.25599
 C2976 C 0.58208 1.08317 0.31306
 H2977 H 0.60372 1.06794 0.26441
 H2978 H 0.58767 1.05217 0.29733
 H2979 H 0.57911 1.11664 0.32367
 H2980 H 0.59476 1.13220 0.29056
 C2981 C 0.60023 0.60076 0.77582
 C2982 C 0.59311 0.61427 0.79263
 C2983 C 0.58409 0.60529 0.81140
 C2984 C 0.61785 0.61790 0.74061
 C2985 C 0.58921 0.56917 0.79662
 C2986 C 0.59821 0.57820 0.77782
 C2987 C 0.60978 0.61006 0.75663
 C2988 C 0.58205 0.58263 0.81362
 H2989 H 0.59463 0.63175 0.79128
 H2990 H 0.57906 0.61604 0.82436
 H2991 H 0.58769 0.55169 0.79779
 H2992 H 0.60360 0.56760 0.76487
 C2993 C 0.89941 0.89900 0.77595
 C2994 C 0.90662 0.88542 0.79269
 C2995 C 0.91564 0.89433 0.81148
 C2996 C 0.88186 0.88193 0.74070
 C2997 C 0.91029 0.93051 0.79687
 C2998 C 0.90129 0.92156 0.77806
 C2999 C 0.88990 0.88977 0.75672
 C3000 C 0.91756 0.91699 0.81380
 H3001 H 0.90517 0.86794 0.79127
 H3002 H 0.92077 0.88351 0.82437
 H3003 H 0.91175 0.94799 0.79810
 H3004 H 0.89579 0.93222 0.76519
 C3005 C 0.89971 0.39859 0.27560
 C3006 C 0.90696 0.38509 0.29238
 C3007 C 0.91588 0.39409 0.31119
 C3008 C 0.88229 0.38144 0.24031
 C3009 C 0.91028 0.43021 0.29653
 C3010 C 0.90138 0.42116 0.27772
 C3011 C 0.89031 0.38927 0.25635
 C3012 C 0.91769 0.41676 0.31346
 H3013 H 0.90562 0.36760 0.29099
 H3014 H 0.92105 0.38333 0.32410
 H3015 H 0.91157 0.44771 0.29775
 H3016 H 0.89579 0.43177 0.26484
 C3017 C 0.39971 0.89811 0.27538
 C3018 C 0.40691 0.88471 0.29226
 C3019 C 0.41574 0.89381 0.31105
 C3020 C 0.38228 0.88071 0.24019
 C3021 C 0.41030 0.92986 0.29615
 C3022 C 0.40147 0.92070 0.27735
 C3023 C 0.39028 0.88864 0.25620
 C3024 C 0.41757 0.91650 0.31322
 H3025 H 0.40556 0.86721 0.29095
 H3026 H 0.42081 0.88311 0.32405
 H3027 H 0.41162 0.94736 0.29728
 H3028 H 0.39600 0.93124 0.26436
 C3029 C 0.40062 0.39832 0.77587
 C3030 C 0.40770 0.38481 0.79272
 C3031 C 0.41663 0.39380 0.81153
 C3032 C 0.38319 0.38118 0.74058
 C3033 C 0.41147 0.42992 0.79670
 C3034 C 0.40257 0.42088 0.77788
 C3035 C 0.39119 0.38902 0.75663
 C3036 C 0.41858 0.41647 0.81375
 H3037 H 0.40620 0.36733 0.79138
 H3038 H 0.42168 0.38303 0.82449
 H3039 H 0.41299 0.44740 0.79785
 H3040 H 0.39719 0.43149 0.76492
 C3041 C 1.10032 0.89875 1.22456
 C3042 C 1.09322 0.88519 1.20781
 C3043 C 1.08437 0.89412 1.18893
 C3044 C 1.11751 0.88162 1.25998
 C3045 C 1.08969 0.93030 1.20349
 C3046 C 1.09852 0.92131 1.22238
 C3047 C 1.10963 0.88947 1.24389
 C3048 C 1.08250 0.91679 1.18655
 H3049 H 1.09463 0.86770 1.20929
 H3050 H 1.07931 0.88331 1.17604
 H3051 H 1.08827 0.94778 1.20221
 H3052 H 1.10395 0.93195 1.23528
 C3053 C 1.10029 0.39831 0.72453
 C3054 C 1.09862 0.42090 0.72238
 C3055 C 1.08966 0.42997 0.70358
 C3056 C 1.11775 0.38109 0.75981
 C3057 C 1.08396 0.39386 0.68902
 C3058 C 1.09293 0.38483 0.70782
 C3059 C 1.10974 0.38896 0.74377
 C3060 C 1.08227 0.41654 0.68667
 H3061 H 1.10427 0.43150 0.73521
 H3062 H 1.08831 0.44746 0.70235
 H3063 H 1.07868 0.38309 0.67619
 H3064 H 1.09425 0.36734 0.70926
 C3065 C 0.59974 0.89906 0.72463
 C3066 C 0.59264 0.88557 0.70782
 C3067 C 0.58365 0.89457 0.68903
 C3068 C 0.61723 0.88183 0.75987
 C3069 C 0.58880 0.93068 0.70380
 C3070 C 0.59777 0.92163 0.72260
 C3071 C 0.60921 0.88972 0.74385
 C3072 C 0.58165 0.91724 0.68679
 H3073 H 0.59416 0.86808 0.70918
 H3074 H 0.57862 0.88380 0.67609
 H3075 H 0.58726 0.94816 0.70264
 H3076 H 0.60319 0.93222 0.73554
 C3077 C 0.59999 0.39827 1.22539
 C3078 C 0.59285 0.38479 1.20858
 C3079 C 0.58383 0.39381 1.18982
 C3080 C 0.61774 0.38097 1.26048
 C3081 C 0.58897 0.42991 1.20463
 C3082 C 0.59798 0.42084 1.22341
 C3083 C 0.60960 0.38889 1.24453
 C3084 C 0.58179 0.41648 1.18761
 H3085 H 0.59439 0.36731 1.20993
 H3086 H 0.57881 0.38307 1.17686
 H3087 H 0.58745 0.44740 1.20348
 H3088 H 0.60339 0.43142 1.23635
 C3089 C 0.90006 1.10124 1.22463
 C3090 C 0.90716 1.11475 1.20780
 C3091 C 0.91618 1.10578 1.18903
 C3092 C 0.88229 1.11847 1.25970
 C3093 C 0.91110 1.06965 1.20385
 C3094 C 0.90210 1.07867 1.22264
 C3095 C 0.89045 1.11056 1.24377
 C3096 C 0.91821 1.08311 1.18682
 H3097 H 0.90558 1.13223 1.20913
 H3098 H 0.92122 1.11656 1.17608
 H3099 H 0.91267 1.05217 1.20270
 H3100 H 0.89668 1.06806 1.23558
 C3101 C 0.90001 0.60119 0.72437
 C3102 C 0.90734 0.61469 0.70764
 C3103 C 0.91632 0.60568 0.68887
 C3104 C 0.88226 0.61831 0.75948
 C3105 C 0.91072 0.56956 0.70352
 C3106 C 0.90175 0.57862 0.72230
 C3107 C 0.89041 0.61048 0.74352
 C3108 C 0.91812 0.58300 0.68660
 H3109 H 0.90598 0.63219 0.70903
 H3110 H 0.92150 0.61644 0.67596
 H3111 H 0.91202 0.55207 0.70230
 H3112 H 0.89615 0.56803 0.73518
 C3113 C 0.39989 1.10123 0.72430
 C3114 C 0.40180 1.07867 0.72220
 C3115 C 0.41075 1.06972 0.70336
 C3116 C 0.38240 1.11834 0.75952
 C3117 C 0.41596 1.10591 0.68872
 C3118 C 0.40700 1.11481 0.70754
 C3119 C 0.39044 1.11048 0.74353
 C3120 C 0.41792 1.08325 0.68641
 H3121 H 0.39635 1.06802 0.73509
 H3122 H 0.41225 1.05224 0.70212
 H3123 H 0.42102 1.11673 0.67581
 H3124 H 0.40549 1.13229 0.70896
 C3125 C 0.39933 0.60151 1.22471
 C3126 C 0.40125 0.57894 1.22275
 C3127 C 0.41010 0.56986 1.20392
 C3128 C 0.38226 0.61880 1.26007
 C3129 C 0.41512 0.60595 1.18897
 C3130 C 0.40626 0.61498 1.20779
 C3131 C 0.39009 0.61089 1.24399
 C3132 C 0.41715 0.58328 1.18683
 H3133 H 0.39592 0.56836 1.23575
 H3134 H 0.41167 0.55238 1.20282
 H3135 H 0.42011 0.61668 1.17597
 H3136 H 0.40472 0.63246 1.20910
 C3137 C 1.10054 1.22460 0.89876
 C3138 C 1.09883 1.22226 0.92130
 C3139 C 1.08976 1.20343 0.93019
 C3140 C 1.11831 1.25984 0.88180
 C3141 C 1.08400 1.18922 0.89396
 C3142 C 1.09307 1.20805 0.88512
 C3143 C 1.11018 1.24382 0.88958
 C3144 C 1.08228 1.18667 0.91661
 H3145 H 1.10455 1.23497 0.93202
 H3146 H 1.08844 1.20204 0.94766
 H3147 H 1.07869 1.17649 0.88309
 H3148 H 1.09441 1.20964 0.86765
 C3149 C 1.10124 0.72451 0.39909
 C3150 C 1.07871 0.72239 0.40083
 C3151 C 1.06970 0.70358 0.40984
 C3152 C 1.11853 0.75977 0.38162
 C3153 C 1.10574 0.68899 0.41553
 C3154 C 1.11471 0.70779 0.40651
 C3155 C 1.11056 0.74374 0.38958
 C3156 C 1.08312 0.68665 0.41729
 H3157 H 1.06813 0.73527 0.39521
 H3158 H 1.05224 0.70236 0.41116
 H3159 H 1.11649 0.67612 0.42079
 H3160 H 1.13216 0.70922 0.40522
 C3161 C 0.60116 1.22474 0.39876
 C3162 C 0.57864 1.22272 0.40065
 C3163 C 0.56958 1.20389 0.40961
 C3164 C 0.61854 1.26002 0.38137
 C3165 C 0.60559 1.18909 0.41495
 C3166 C 0.61459 1.20791 0.40599
 C3167 C 0.61054 1.24399 0.38930
 C3168 C 0.58297 1.18686 0.41687
 H3169 H 0.56807 1.23568 0.39520
 H3170 H 0.55213 1.20274 0.41103
 H3171 H 0.61632 1.17613 0.42003
 H3172 H 0.63204 1.20927 0.40459
 C3173 C 0.60076 0.72406 0.89982
 C3174 C 0.57826 0.72199 0.90182
 C3175 C 0.56932 0.70314 0.91078
 C3176 C 0.61788 0.75940 0.88241
 C3177 C 0.60540 0.68841 0.91589
 C3178 C 0.61430 0.70725 0.90690
 C3179 C 0.61000 0.74334 0.89035
 C3180 C 0.58280 0.68613 0.91792
 H3181 H 0.56764 0.73494 0.89643
 H3182 H 0.55188 0.70193 0.91231
 H3183 H 0.61619 0.67546 0.92090
 H3184 H 0.63173 0.70864 0.90536
 C3185 C 0.89943 1.22453 1.10132
 C3186 C 0.90689 1.20780 1.11478
 C3187 C 0.91584 1.18900 1.10574
 C3188 C 0.88203 1.25975 1.11871
 C3189 C 0.90995 1.20358 1.06966
 C3190 C 0.90101 1.22239 1.07874
 C3191 C 0.89001 1.24376 1.11072
 C3192 C 0.91746 1.18666 1.08306
 H3193 H 0.90566 1.20923 1.13226
 H3194 H 0.92117 1.17615 1.11650
 H3195 H 0.91118 1.20236 1.05217
 H3196 H 0.89531 1.23525 1.06817
 C3197 C 0.89958 0.72447 0.60074
 C3198 C 0.88601 0.70786 0.59333
 C3199 C 0.89486 0.68903 0.58429
 C3200 C 0.88237 0.75968 0.61827
 C3201 C 0.93099 0.70337 0.58996
 C3202 C 0.92208 0.72220 0.59900
 C3203 C 0.89035 0.74370 0.61027
 C3204 C 0.91747 0.68656 0.58249
 H3205 H 0.86857 0.70942 0.59465
 H3206 H 0.88403 0.67625 0.57904
 H3207 H 0.94843 0.70202 0.58863
 H3208 H 0.93274 0.73498 0.60464
 C3209 C 0.39930 1.22482 0.60076
 C3210 C 0.38570 1.20818 0.59347
 C3211 C 0.39454 1.18939 0.58431
 C3212 C 0.38229 1.26006 0.61844
 C3213 C 0.43067 1.20388 0.58959
 C3214 C 0.42179 1.22266 0.59875
 C3215 C 0.39014 1.24403 0.61040
 C3216 C 0.41714 1.18701 0.58228
 H3217 H 0.36827 1.20966 0.59499
 H3218 H 0.38371 1.17656 0.57917
 H3219 H 0.44810 1.20261 0.58807
 H3220 H 0.43245 1.23548 0.60429
 C3221 C 0.39879 0.72467 1.10120
 C3222 C 0.38518 0.70801 1.09395
 C3223 C 0.39399 0.68917 1.08485
 C3224 C 0.38184 0.75996 1.11898
 C3225 C 0.43013 0.70362 1.09005
 C3226 C 0.42127 0.72247 1.09913
 C3227 C 0.38965 0.74391 1.11090
 C3228 C 0.41658 0.68672 1.08282
 H3229 H 0.36775 0.70952 1.09548
 H3230 H 0.38314 0.67632 1.07979
 H3231 H 0.44756 0.70231 1.08853
 H3232 H 0.43197 0.73530 1.10458
 C3233 C 0.89904 0.77577 0.89920
 C3234 C 0.92155 0.77787 0.90111
 C3235 C 0.93049 0.79665 0.91019
 C3236 C 0.88184 0.74051 0.88178
 C3237 C 0.89441 0.81128 0.91554
 C3238 C 0.88551 0.79251 0.90645
 C3239 C 0.88979 0.75653 0.88972
 C3240 C 0.91702 0.81357 0.91753
 H3241 H 0.93217 0.76499 0.89559
 H3242 H 0.94793 0.79786 0.91166
 H3243 H 0.88362 0.82416 0.92069
 H3244 H 0.86808 0.79110 0.90498
 C3245 C 0.89966 0.27570 0.39923
 C3246 C 0.90716 0.29228 0.38563
 C3247 C 0.91615 0.31111 0.39451
 C3248 C 0.88182 0.24062 0.38212
 C3249 C 0.91030 0.29679 0.43070
 C3250 C 0.90131 0.27795 0.42178
 C3251 C 0.89000 0.25655 0.39000
 C3252 C 0.91778 0.31360 0.41716
 H3253 H 0.90590 0.29073 0.36815
 H3254 H 0.92146 0.32388 0.38365
 H3255 H 0.91156 0.29813 0.44818
 H3256 H 0.89559 0.26519 0.43245
 C3257 C 0.39917 0.77559 0.39923
 C3258 C 0.38563 0.79236 0.40637
 C3259 C 0.39452 0.81118 0.41537
 C3260 C 0.38205 0.74030 0.38182
 C3261 C 0.43060 0.79649 0.41017
 C3262 C 0.42166 0.77767 0.40118
 C3263 C 0.38993 0.75635 0.38976
 C3264 C 0.41712 0.81347 0.41737
 H3265 H 0.36819 0.79095 0.40487
 H3266 H 0.38374 0.82409 0.42046
 H3267 H 0.44804 0.79767 0.41171
 H3268 H 0.43230 0.76476 0.39573
 C3269 C 0.39940 0.27560 0.89956
 C3270 C 0.38591 0.29244 0.90667
 C3271 C 0.39486 0.31119 0.91575
 C3272 C 0.38205 0.24050 0.88198
 C3273 C 0.43089 0.29633 0.91071
 C3274 C 0.42190 0.27756 0.90164
 C3275 C 0.39007 0.25644 0.89001
 C3276 C 0.41746 0.31336 0.91785
 H3277 H 0.36848 0.29113 0.90507
 H3278 H 0.38411 0.32415 0.92079
 H3279 H 0.44833 0.29745 0.91232
 H3280 H 0.43249 0.26460 0.89623
 C3281 C 1.10115 0.77539 1.10118
 C3282 C 1.11470 0.79209 1.09388
 C3283 C 1.10583 0.81085 1.08467
 C3284 C 1.11830 0.74020 1.11894
 C3285 C 1.06974 0.79628 1.08992
 C3286 C 1.07865 0.77751 1.09913
 C3287 C 1.11038 0.75619 1.11086
 C3288 C 1.08323 0.81320 1.08263
 H3289 H 1.13213 0.79065 1.09545
 H3290 H 1.11665 0.82370 1.07951
 H3291 H 1.05230 0.79750 1.08835
 H3292 H 1.06800 0.76466 1.10467
 C3293 C 1.10073 0.27534 0.60112
 C3294 C 1.11436 0.29198 0.59385
 C3295 C 1.10560 0.31084 0.58470
 C3296 C 1.11773 0.23992 0.61866
 C3297 C 1.06943 0.29649 0.58999
 C3298 C 1.07824 0.27763 0.59913
 C3299 C 1.10987 0.25602 0.61070
 C3300 C 1.08302 0.31334 0.58270
 H3301 H 1.13179 0.29044 0.59536
 H3302 H 1.11649 0.32364 0.57958
 H3303 H 1.05200 0.29784 0.58848
 H3304 H 1.06752 0.26484 0.60466
 C3305 C 0.60068 0.77578 0.60083
 C3306 C 0.61418 0.79256 0.59365
 C3307 C 0.60526 0.81132 0.58450
 C3308 C 0.61793 0.74051 0.61832
 C3309 C 0.56921 0.79660 0.58962
 C3310 C 0.57817 0.77781 0.59875
 C3311 C 0.60997 0.75655 0.61037
 C3312 C 0.58267 0.81357 0.58239
 H3313 H 0.63161 0.79119 0.59522
 H3314 H 0.61603 0.82424 0.57942
 H3315 H 0.55177 0.79778 0.58803
 H3316 H 0.56756 0.76490 0.60419
 C3317 C 0.60069 0.27553 1.10128
 C3318 C 0.61421 0.29234 1.09422
 C3319 C 0.60531 0.31115 1.08513
 C3320 C 0.61788 0.24019 1.11870
 C3321 C 0.56925 0.29640 1.09009
 C3322 C 0.57819 0.27757 1.09916
 C3323 C 0.60995 0.25626 1.11077
 C3324 C 0.58272 0.31340 1.08297
 H3325 H 0.63164 0.29097 1.09584
 H3326 H 0.61609 0.32409 1.08013
 H3327 H 0.55182 0.29758 1.08845
 H3328 H 0.56758 0.26463 1.10452
 C3329 C 1.22418 1.10015 0.89897
 C3330 C 1.22185 1.07760 0.90055
 C3331 C 1.20296 1.06871 0.90941
 C3332 C 1.25967 1.11720 0.88207
 C3333 C 1.18872 1.10497 0.91513
 C3334 C 1.20759 1.11381 0.90627
 C3335 C 1.24354 1.10935 0.88978
 C3336 C 1.18620 1.08232 0.91685
 H3337 H 1.23461 1.06689 0.89495
 H3338 H 1.20156 1.05123 0.91066
 H3339 H 1.17595 1.11586 0.92033
 H3340 H 1.20921 1.13128 0.90502
 C3341 C 1.22447 0.60079 0.39964
 C3342 C 1.22224 0.59875 0.42216
 C3343 C 1.20340 0.58973 0.43098
 C3344 C 1.25974 0.61846 0.38286
 C3345 C 1.18901 0.58464 0.39473
 C3346 C 1.20784 0.59367 0.38595
 C3347 C 1.24371 0.61038 0.39058
 C3348 C 1.18658 0.58255 0.41735
 H3349 H 1.23504 0.60416 0.43290
 H3350 H 1.20206 0.58821 0.44844
 H3351 H 1.17618 0.57964 0.38384
 H3352 H 1.20937 0.59522 0.36849
 C3353 C 0.72417 1.09991 0.39950
 C3354 C 0.72194 1.09787 0.42202
 C3355 C 0.70304 1.08898 0.43085
 C3356 C 0.75950 1.11732 0.38257
 C3357 C 0.68858 1.08406 0.39459
 C3358 C 0.70747 1.09295 0.38582
 C3359 C 0.74345 1.10935 0.39038
 C3360 C 0.68614 1.08197 0.41721
 H3361 H 0.73480 1.10315 0.43276
 H3362 H 0.70169 1.08741 0.44831
 H3363 H 0.67572 1.07915 0.38370
 H3364 H 0.70900 1.09452 0.36836
 C3365 C 0.72421 0.60021 0.89989
 C3366 C 0.72184 0.57765 0.90144
 C3367 C 0.70303 0.56876 0.91045
 C3368 C 0.75947 0.61725 0.88243
 C3369 C 0.68889 0.60501 0.91644
 C3370 C 0.70771 0.61385 0.90743
 C3371 C 0.74344 0.60940 0.89040
 C3372 C 0.68633 0.58235 0.91805
 H3373 H 0.73452 0.56693 0.89566
 H3374 H 0.70161 0.55127 0.91163
 H3375 H 0.67618 0.61589 0.92179
 H3376 H 0.70933 0.63134 0.90621
 C3377 C 1.22482 0.89960 1.10065
 C3378 C 1.22262 0.90141 1.07809
 C3379 C 1.20376 0.91032 1.06913
 C3380 C 1.26019 0.88243 1.11795
 C3381 C 1.18922 0.91564 1.10528
 C3382 C 1.20806 0.90672 1.11420
 C3383 C 1.24414 0.89029 1.10997
 C3384 C 1.18685 0.91758 1.08263
 H3385 H 1.23546 0.89594 1.06741
 H3386 H 1.20248 0.91175 1.05165
 H3387 H 1.17634 0.92071 1.11610
 H3388 H 1.20951 0.90528 1.13167
 C3389 C 1.22465 0.39933 0.60095
 C3390 C 1.22251 0.40113 0.57839
 C3391 C 1.20367 0.41003 0.56939
 C3392 C 1.25993 0.38191 0.61808
 C3393 C 1.18907 0.41539 0.60553
 C3394 C 1.20790 0.40650 0.61448
 C3395 C 1.24390 0.38990 0.61022
 C3396 C 1.18675 0.41732 0.58287
 H3397 H 1.23539 0.39566 0.56777
 H3398 H 1.20243 0.41140 0.55191
 H3399 H 1.17617 0.42045 0.61632
 H3400 H 1.20934 0.40510 0.63196
 C3401 C 0.72419 0.90010 0.60042
 C3402 C 0.72198 0.90209 0.57789
 C3403 C 0.70306 0.91094 0.56903
 C3404 C 0.75953 0.88268 0.61740
 C3405 C 0.68854 0.91593 0.60525
 C3406 C 0.70745 0.90708 0.61407
 C3407 C 0.74348 0.89066 0.60957
 C3408 C 0.68613 0.91798 0.58263
 H3409 H 0.73487 0.89680 0.56719
 H3410 H 0.70175 0.91246 0.55156
 H3411 H 0.67565 0.92085 0.61613
 H3412 H 0.70896 0.90557 0.63153
 C3413 C 0.72437 0.40041 1.10153
 C3414 C 0.70749 0.40716 1.11511
 C3415 C 0.68861 0.41601 1.10623
 C3416 C 0.75979 0.38327 1.11862
 C3417 C 0.70343 0.41143 1.07007
 C3418 C 0.72232 0.40259 1.07900
 C3419 C 0.74370 0.39112 1.11076
 C3420 C 0.68634 0.41820 1.08359
 H3421 H 0.70888 0.40548 1.13257
 H3422 H 0.67564 0.42082 1.11706
 H3423 H 0.70226 0.41317 1.05262
 H3424 H 0.73532 0.39746 1.06834
 C3425 C 0.77617 1.10021 1.10151
 C3426 C 0.77851 1.07767 1.09974
 C3427 C 0.79729 1.06884 1.09058
 C3428 C 0.74080 1.11713 1.11889
 C3429 C 0.81145 1.10512 1.08491
 C3430 C 0.79267 1.11391 1.09407
 C3431 C 0.75689 1.10934 1.11098
 C3432 C 0.81397 1.08248 1.08304
 H3433 H 0.76582 1.06692 1.10542
 H3434 H 0.79869 1.05136 1.08922
 H3435 H 0.82416 1.11603 1.07962
 H3436 H 0.79107 1.13138 1.09544
 C3437 C 0.77630 0.60070 0.60060
 C3438 C 0.77853 0.57816 0.59868
 C3439 C 0.79734 0.56930 0.58963
 C3440 C 0.74098 0.61766 0.61798
 C3441 C 0.81172 0.60556 0.58433
 C3442 C 0.79291 0.61437 0.59340
 C3443 C 0.75704 0.60985 0.61005
 C3444 C 0.81414 0.58292 0.58234
 H3445 H 0.76574 0.56744 0.60417
 H3446 H 0.79867 0.55183 0.58813
 H3447 H 0.82450 0.61645 0.57919
 H3448 H 0.79138 0.63184 0.59490
 C3449 C 0.27575 1.10118 0.60071
 C3450 C 0.27804 1.07862 0.59905
 C3451 C 0.29680 1.06968 0.58993
 C3452 C 0.24047 1.11824 0.61826
 C3453 C 0.31103 1.10589 0.58403
 C3454 C 0.29228 1.11478 0.59315
 C3455 C 0.25652 1.11040 0.61026
 C3456 C 0.31352 1.08322 0.58232
 H3457 H 0.26533 1.06794 0.60479
 H3458 H 0.29815 1.05220 0.58866
 H3459 H 0.32375 1.11674 0.57864
 H3460 H 0.29072 1.13227 0.59440
 C3461 C 0.27535 0.60032 1.10104
 C3462 C 0.27770 0.57776 1.09949
 C3463 C 0.29652 0.56884 1.09050
 C3464 C 0.24003 0.61750 1.11832
 C3465 C 0.31068 0.60507 1.08453
 C3466 C 0.29186 0.61394 1.09352
 C3467 C 0.25608 0.60957 1.11044
 C3468 C 0.31323 0.58241 1.08291
 H3469 H 0.26499 0.56706 1.10524
 H3470 H 0.29793 0.55135 1.08929
 H3471 H 0.32339 0.61594 1.07917
 H3472 H 0.29025 0.63142 1.09471
 C3473 C 0.77575 0.89956 0.89957
 C3474 C 0.77800 0.92212 0.90127
 C3475 C 0.79678 0.93102 0.91033
 C3476 C 0.74049 0.88247 0.88220
 C3477 C 0.81109 0.89478 0.91606
 C3478 C 0.79232 0.88593 0.90699
 C3479 C 0.75651 0.89036 0.89012
 C3480 C 0.81355 0.91744 0.91781
 H3481 H 0.76526 0.93282 0.89561
 H3482 H 0.79811 0.94850 0.91166
 H3483 H 0.82384 0.88391 0.92135
 H3484 H 0.79077 0.86845 0.90567
 C3485 C 0.77574 0.39966 0.39913
 C3486 C 0.77808 0.42223 0.40068
 C3487 C 0.79693 0.43114 0.40959
 C3488 C 0.74033 0.38252 0.38196
 C3489 C 0.81121 0.39493 0.41543
 C3490 C 0.79236 0.38605 0.40651
 C3491 C 0.75642 0.39041 0.38981
 C3492 C 0.81370 0.41759 0.41712
 H3493 H 0.76534 0.43295 0.39502
 H3494 H 0.79831 0.44863 0.41080
 H3495 H 0.82399 0.38407 0.42070
 H3496 H 0.79080 0.36857 0.40529
 C3497 C 0.27603 0.89929 0.39911
 C3498 C 0.27831 0.92187 0.40057
 C3499 C 0.29715 0.93084 0.40943
 C3500 C 0.24058 0.88209 0.38223
 C3501 C 0.31150 0.89466 0.41535
 C3502 C 0.29267 0.88573 0.40649
 C3503 C 0.25670 0.89001 0.38994
 C3504 C 0.31395 0.91733 0.41696
 H3505 H 0.26552 0.93252 0.39490
 H3506 H 0.29848 0.94834 0.41061
 H3507 H 0.32429 0.88383 0.42064
 H3508 H 0.29112 0.86824 0.40533
 C3509 C 0.27617 0.39876 0.89956
 C3510 C 0.27847 0.42132 0.90114
 C3511 C 0.29731 0.43023 0.91004
 C3512 C 0.24075 0.38170 0.88248
 C3513 C 0.31160 0.39401 0.91585
 C3514 C 0.29276 0.38514 0.90695
 C3515 C 0.25684 0.38955 0.89029
 C3516 C 0.31410 0.41667 0.91749
 H3517 H 0.26570 0.43202 0.89551
 H3518 H 0.29867 0.44772 0.91130
 H3519 H 0.32436 0.38314 0.92114
 H3520 H 0.29118 0.36765 0.90575
   
