data_POSCAR
  _audit_creation_date              2014-09-24
  _audit_creation_method            'ToBaCCo'
  _symmetry_space_group_name_H-M    'P1'
  _symmetry_Int_Tables_number       1
  _symmetry_cell_setting            triclinic
  loop_
  _symmetry_equiv_pos_as_xyz
 x,y,z
_cell_length_a 55.7376
_cell_length_b 55.6965
_cell_length_c 55.6687
_cell_angle_alpha 90.020600
_cell_angle_beta 89.974400
_cell_angle_gamma 89.975900
loop_
  _atom_site_label
  _atom_site_type_symbol
  _atom_site_fract_x
  _atom_site_fract_y
  _atom_site_fract_z
O1 O 0.87562 0.15784 0.81233
 O2 O 0.90237 0.12654 0.80582
 O3 O 0.81337 0.12372 0.84192
 O4 O 0.80436 0.10057 0.87340
 O5 O 0.84250 0.18727 0.87554
 O6 O 0.87576 0.19422 0.90143
 O7 O 0.87683 0.06207 0.90717
 O8 O 0.84898 0.05600 0.87701
 O9 O 0.93779 0.09186 0.87594
 O10 O 0.94555 0.12579 0.84892
 O11 O 0.90870 0.12378 0.93701
 O12 O 0.87486 0.15018 0.94514
 O13 O 0.87686 0.09088 0.93614
 O14 O 0.84868 0.12548 0.94378
 O15 O 0.93756 0.12411 0.90823
 O16 O 0.94448 0.15207 0.87361
 O17 O 0.90914 0.06296 0.87653
 O18 O 0.87771 0.05891 0.84491
 O19 O 0.87621 0.18667 0.84133
 O20 O 0.90254 0.19376 0.87509
 O21 O 0.81368 0.15844 0.87552
 O22 O 0.80835 0.12416 0.90348
 O23 O 0.84208 0.12466 0.81293
 O24 O 0.87556 0.09568 0.80830
 Zr25 Zr 0.87473 0.12560 0.83193
 O26 O 0.89752 0.10348 0.85245
 Zr27 Zr 0.83269 0.12577 0.87431
 O28 O 0.85340 0.10300 0.89625
 Zr29 Zr 0.87486 0.16783 0.87414
 O30 O 0.89720 0.14728 0.89669
 Zr31 Zr 0.87660 0.08202 0.87522
 O32 O 0.85348 0.10242 0.85299
 Zr33 Zr 0.91854 0.12438 0.87563
 O34 O 0.89795 0.14681 0.85294
 Zr35 Zr 0.87628 0.12392 0.91768
 O36 O 0.85371 0.14695 0.89747
 O37 O 0.85251 0.14796 0.85196
 O38 O 0.89889 0.10174 0.89789
 C39 C 0.87645 0.17989 0.81921
 C40 C 0.82008 0.12360 0.81981
 C41 C 0.82045 0.18050 0.87613
 C42 C 0.87704 0.06881 0.92926
 C43 C 0.93119 0.06973 0.87651
 C44 C 0.93075 0.12382 0.93028
 H45 H 0.90743 0.09348 0.84161
 H46 H 0.90700 0.15816 0.90671
 H47 H 0.84220 0.15820 0.84173
 H48 H 0.84267 0.09273 0.90597
 H49 H 0.83794 0.05940 0.86350
 H50 H 0.81090 0.08528 0.87957
 H51 H 0.94174 0.16312 0.88725
 H52 H 0.91503 0.18824 0.86372
 H53 H 0.88126 0.04244 0.85068
 H54 H 0.87055 0.10103 0.79205
 H55 H 0.88649 0.16292 0.94098
 H56 H 0.86524 0.18832 0.91449
 H57 H 0.91539 0.13659 0.81252
 H58 H 0.94181 0.11342 0.83674
 H59 H 0.81283 0.13720 0.91470
 H60 H 0.83792 0.11160 0.94117
 O61 O 0.84190 0.68756 0.37487
 O62 O 0.87316 0.69411 0.40165
 O63 O 0.87610 0.65781 0.31263
 O64 O 0.89926 0.62632 0.30370
 O65 O 0.81258 0.62430 0.34185
 O66 O 0.80561 0.59850 0.37523
 O67 O 0.93765 0.59274 0.37635
 O68 O 0.94372 0.62277 0.34833
 O69 O 0.90781 0.62424 0.43729
 O70 O 0.87383 0.65124 0.44493
 O71 O 0.87599 0.56305 0.40835
 O72 O 0.84963 0.55482 0.37451
 O73 O 0.90888 0.56380 0.37646
 O74 O 0.87432 0.55608 0.34828
 O75 O 0.87564 0.59192 0.43715
 O76 O 0.84766 0.62648 0.44401
 O77 O 0.93674 0.62355 0.40855
 O78 O 0.94078 0.65498 0.37696
 O79 O 0.81310 0.65859 0.37553
 O80 O 0.80599 0.62490 0.40196
 O81 O 0.84144 0.62424 0.31302
 O82 O 0.87566 0.59627 0.30776
 O83 O 0.87510 0.68684 0.34131
 O84 O 0.90399 0.69160 0.37480
 Zr85 Zr 0.87413 0.66795 0.37404
 O86 O 0.89623 0.64751 0.39688
 Zr87 Zr 0.87404 0.62548 0.33206
 O88 O 0.89677 0.60360 0.35284
 Zr89 Zr 0.83195 0.62578 0.37427
 O90 O 0.85248 0.60331 0.39671
 Zr91 Zr 0.91770 0.62468 0.37599
 O92 O 0.89733 0.64686 0.35281
 Zr93 Zr 0.87533 0.62442 0.41801
 O94 O 0.85291 0.64703 0.39733
 Zr95 Zr 0.87586 0.58226 0.37583
 O96 O 0.85286 0.60240 0.35317
 O97 O 0.85182 0.64788 0.35184
 O98 O 0.89799 0.60211 0.39840
 C99 C 0.81987 0.68070 0.37572
 C100 C 0.87619 0.67992 0.31931
 C101 C 0.81939 0.62366 0.31979
 C102 C 0.93092 0.57066 0.37662
 C103 C 0.92988 0.62370 0.43059
 C104 C 0.87595 0.56986 0.43041
 H105 H 0.90620 0.65838 0.40676
 H106 H 0.84161 0.59333 0.40655
 H107 H 0.84160 0.65808 0.34148
 H108 H 0.90704 0.59384 0.34214
 H109 H 0.94032 0.63623 0.33722
 H110 H 0.91451 0.62006 0.31024
 H111 H 0.83661 0.61286 0.44127
 H112 H 0.81151 0.63627 0.41446
 H113 H 0.95724 0.64923 0.38050
 H114 H 0.89863 0.70782 0.36976
 H115 H 0.83688 0.55902 0.38613
 H116 H 0.81152 0.58543 0.36473
 H117 H 0.86302 0.68750 0.41466
 H118 H 0.88620 0.66339 0.44117
 H119 H 0.86265 0.58505 0.31230
 H120 H 0.88818 0.55866 0.33749
 O121 O 0.37462 0.15766 0.31306
 O122 O 0.40142 0.12626 0.30670
 O123 O 0.31244 0.12361 0.34291
 O124 O 0.30352 0.10056 0.37450
 O125 O 0.34166 0.18728 0.37622
 O126 O 0.37495 0.19435 0.40203
 O127 O 0.37594 0.06226 0.40845
 O128 O 0.34802 0.05608 0.37834
 O129 O 0.43689 0.09189 0.37677
 O130 O 0.44460 0.12568 0.34964
 O131 O 0.40800 0.12405 0.43784
 O132 O 0.37415 0.15058 0.44589
 O133 O 0.37605 0.09120 0.43723
 O134 O 0.34802 0.12586 0.44481
 O135 O 0.43676 0.12425 0.40896
 O136 O 0.44361 0.15208 0.37422
 O137 O 0.40820 0.06297 0.37764
 O138 O 0.37670 0.05877 0.34618
 O139 O 0.37529 0.18658 0.34196
 O140 O 0.40169 0.19379 0.37564
 O141 O 0.31283 0.15846 0.37635
 O142 O 0.30750 0.12440 0.40447
 O143 O 0.34111 0.12442 0.31388
 O144 O 0.37456 0.09546 0.30928
 Zr145 Zr 0.37379 0.12546 0.33282
 O146 O 0.39655 0.10340 0.35342
 Zr147 Zr 0.33182 0.12580 0.37528
 O148 O 0.35255 0.10315 0.39733
 Zr149 Zr 0.37401 0.16786 0.37485
 O150 O 0.39639 0.14740 0.39745
 Zr151 Zr 0.37568 0.08205 0.37637
 O152 O 0.35258 0.10236 0.35403
 Zr153 Zr 0.41766 0.12441 0.37643
 O154 O 0.39705 0.14675 0.35369
 Zr155 Zr 0.37551 0.12415 0.41860
 O156 O 0.35290 0.14707 0.39831
 O157 O 0.35161 0.14790 0.35280
 O158 O 0.39806 0.10187 0.39886
 C159 C 0.37547 0.17974 0.31986
 C160 C 0.31912 0.12339 0.32079
 C161 C 0.31962 0.18051 0.37684
 C162 C 0.37617 0.06904 0.43056
 C163 C 0.43020 0.06982 0.37745
 C164 C 0.43003 0.12405 0.43103
 H165 H 0.40643 0.09335 0.34260
 H166 H 0.40622 0.15832 0.40739
 H167 H 0.34128 0.15809 0.34253
 H168 H 0.34184 0.09294 0.40712
 H169 H 0.33696 0.05944 0.36484
 H170 H 0.31001 0.08536 0.38097
 H171 H 0.44091 0.16318 0.38783
 H172 H 0.41416 0.18822 0.36426
 H173 H 0.38020 0.04232 0.35204
 H174 H 0.36957 0.10077 0.29302
 H175 H 0.38588 0.16323 0.44171
 H176 H 0.36447 0.18849 0.41514
 H177 H 0.41437 0.13650 0.31325
 H178 H 0.44076 0.11333 0.33747
 H179 H 0.31208 0.13742 0.41567
 H180 H 0.33715 0.11206 0.44220
 O181 O 0.12471 0.34238 0.31242
 O182 O 0.09796 0.37383 0.30614
 O183 O 0.18708 0.37632 0.34192
 O184 O 0.19627 0.39932 0.37342
 O185 O 0.15774 0.31273 0.37558
 O186 O 0.12441 0.30591 0.40148
 O187 O 0.12409 0.43802 0.40762
 O188 O 0.15191 0.44403 0.37742
 O189 O 0.06285 0.40853 0.37625
 O190 O 0.05498 0.37462 0.34923
 O191 O 0.09196 0.37638 0.43728
 O192 O 0.12577 0.34973 0.44517
 O193 O 0.12396 0.40911 0.43647
 O194 O 0.15191 0.37443 0.44397
 O195 O 0.06304 0.37618 0.40858
 O196 O 0.05589 0.34839 0.37394
 O197 O 0.09171 0.43743 0.37683
 O198 O 0.12321 0.44128 0.34526
 O199 O 0.12401 0.31352 0.34136
 O200 O 0.09770 0.30648 0.37513
 O201 O 0.18676 0.34149 0.37549
 O202 O 0.19223 0.37569 0.40349
 O203 O 0.15830 0.37551 0.31303
 O204 O 0.12493 0.40453 0.30852
 Zr205 Zr 0.12570 0.37461 0.33212
 O206 O 0.10310 0.39680 0.35278
 Zr207 Zr 0.16785 0.37422 0.37438
 O208 O 0.14728 0.39701 0.39645
 Zr209 Zr 0.12547 0.33230 0.37422
 O210 O 0.10327 0.35291 0.39688
 Zr211 Zr 0.12415 0.41816 0.37556
 O212 O 0.14709 0.39768 0.35318
 Zr213 Zr 0.08199 0.37593 0.37593
 O214 O 0.10243 0.35345 0.35313
 Zr215 Zr 0.12434 0.37614 0.41787
 O216 O 0.14676 0.35307 0.39753
 O217 O 0.14788 0.35213 0.35203
 O218 O 0.10178 0.39846 0.39821
 C219 C 0.12378 0.32032 0.31925
 C220 C 0.18031 0.37653 0.31983
 C221 C 0.17971 0.31957 0.37614
 C222 C 0.12391 0.43120 0.42969
 C223 C 0.06978 0.43049 0.37676
 C224 C 0.06989 0.37640 0.43060
 H225 H 0.09323 0.40685 0.34197
 H226 H 0.09344 0.34205 0.40689
 H227 H 0.15814 0.34188 0.34174
 H228 H 0.15807 0.40720 0.40618
 H229 H 0.16293 0.44060 0.36389
 H230 H 0.18985 0.41459 0.37979
 H231 H 0.05869 0.33723 0.38747
 H232 H 0.08520 0.31209 0.36381
 H233 H 0.11983 0.45778 0.35105
 H234 H 0.12983 0.39916 0.29224
 H235 H 0.11384 0.33722 0.44119
 H236 H 0.13493 0.31177 0.41455
 H237 H 0.08504 0.36358 0.31274
 H238 H 0.05884 0.38690 0.33700
 H239 H 0.18766 0.36271 0.41474
 H240 H 0.16281 0.38819 0.44129
 O241 O 0.62466 0.84219 0.31202
 O242 O 0.59789 0.87356 0.30569
 O243 O 0.68698 0.87620 0.34151
 O244 O 0.69604 0.89936 0.37298
 O245 O 0.65777 0.81262 0.37517
 O246 O 0.62450 0.80571 0.40107
 O247 O 0.62377 0.93784 0.40713
 O248 O 0.65154 0.94392 0.37693
 O249 O 0.56260 0.90812 0.37588
 O250 O 0.55481 0.87423 0.34885
 O251 O 0.59178 0.87613 0.43689
 O252 O 0.62569 0.84959 0.44479
 O253 O 0.62368 0.90897 0.43603
 O254 O 0.65176 0.87438 0.44357
 O255 O 0.56287 0.87578 0.40818
 O256 O 0.55588 0.84792 0.37350
 O257 O 0.59137 0.93711 0.37643
 O258 O 0.62283 0.94105 0.34480
 O259 O 0.62405 0.81333 0.34096
 O260 O 0.59774 0.80622 0.37475
 O261 O 0.68671 0.84147 0.37511
 O262 O 0.69210 0.87570 0.40308
 O263 O 0.65821 0.87533 0.31261
 O264 O 0.62477 0.90435 0.30813
 Zr265 Zr 0.62560 0.87441 0.33171
 O266 O 0.60289 0.89652 0.35235
 Zr267 Zr 0.66772 0.87415 0.37397
 O268 O 0.64707 0.89689 0.39603
 Zr269 Zr 0.62545 0.83211 0.37382
 O270 O 0.60319 0.85266 0.39649
 Zr271 Zr 0.62387 0.91795 0.37511
 O272 O 0.64691 0.89755 0.35275
 Zr273 Zr 0.58184 0.87559 0.37553
 O274 O 0.60237 0.85319 0.35272
 Zr275 Zr 0.62418 0.87597 0.41747
 O276 O 0.64668 0.85296 0.39713
 O277 O 0.64781 0.85199 0.35164
 O278 O 0.60157 0.89820 0.39778
 C279 C 0.62380 0.82013 0.31885
 C280 C 0.68023 0.87635 0.31941
 C281 C 0.67973 0.81952 0.37573
 C282 C 0.62358 0.93106 0.42921
 C283 C 0.56946 0.93010 0.37641
 C284 C 0.56971 0.87606 0.43022
 H285 H 0.59298 0.90653 0.34154
 H286 H 0.59340 0.84177 0.40651
 H287 H 0.65809 0.84176 0.34136
 H288 H 0.65782 0.90712 0.40575
 H289 H 0.66258 0.94052 0.36340
 H290 H 0.68957 0.91460 0.37938
 H291 H 0.55865 0.83683 0.38709
 H292 H 0.58525 0.81177 0.36339
 H293 H 0.61938 0.95754 0.35059
 H294 H 0.62973 0.89901 0.29185
 H295 H 0.61382 0.83703 0.44080
 H296 H 0.63497 0.81162 0.41416
 H297 H 0.58495 0.86337 0.31231
 H298 H 0.55865 0.88650 0.33661
 H299 H 0.68754 0.86273 0.41435
 H300 H 0.66260 0.88818 0.44089
 O301 O 0.62517 0.65759 0.18723
 O302 O 0.59852 0.62621 0.19370
 O303 O 0.68753 0.62345 0.15738
 O304 O 0.69641 0.60030 0.12583
 O305 O 0.65823 0.68704 0.12390
 O306 O 0.62493 0.69402 0.09812
 O307 O 0.62394 0.56189 0.09217
 O308 O 0.65188 0.55580 0.12227
 O309 O 0.56300 0.59166 0.12364
 O310 O 0.55528 0.62558 0.15069
 O311 O 0.59195 0.62360 0.06252
 O312 O 0.62574 0.64999 0.05434
 O313 O 0.62382 0.59069 0.06328
 O314 O 0.65194 0.62532 0.05561
 O315 O 0.56315 0.62391 0.09136
 O316 O 0.55628 0.65187 0.12604
 O317 O 0.59171 0.56273 0.12294
 O318 O 0.62321 0.55865 0.15443
 O319 O 0.62453 0.68651 0.15820
 O320 O 0.59814 0.69352 0.12445
 O321 O 0.68706 0.65820 0.12381
 O322 O 0.69236 0.62398 0.09582
 O323 O 0.65883 0.62436 0.18652
 O324 O 0.62535 0.59536 0.19109
 Zr325 Zr 0.62613 0.62534 0.16756
 O326 O 0.60334 0.60325 0.14703
 Zr327 Zr 0.66809 0.62554 0.12505
 O328 O 0.64736 0.60280 0.10312
 Zr329 Zr 0.62588 0.66763 0.12538
 O330 O 0.60351 0.64708 0.10284
 Zr331 Zr 0.62422 0.58181 0.12416
 O332 O 0.64735 0.60219 0.14639
 Zr333 Zr 0.58223 0.62418 0.12392
 O334 O 0.60286 0.64657 0.14660
 Zr335 Zr 0.62440 0.62373 0.08178
 O336 O 0.64699 0.64675 0.10198
 O337 O 0.64829 0.64773 0.14749
 O338 O 0.60185 0.60154 0.10159
 C339 C 0.62428 0.67955 0.18022
 C340 C 0.68071 0.62328 0.17942
 C341 C 0.68027 0.68026 0.12322
 C342 C 0.62368 0.56857 0.07004
 C343 C 0.56970 0.56958 0.12305
 C344 C 0.56991 0.62364 0.06930
 H345 H 0.59345 0.59325 0.15786
 H346 H 0.59368 0.65796 0.09286
 H347 H 0.65861 0.65796 0.15770
 H348 H 0.65806 0.59253 0.09335
 H349 H 0.66294 0.55920 0.13576
 H350 H 0.68988 0.58505 0.11955
 H351 H 0.55893 0.66288 0.11236
 H352 H 0.58567 0.68798 0.13582
 H353 H 0.61970 0.54218 0.14863
 H354 H 0.63036 0.60067 0.20735
 H355 H 0.61411 0.66274 0.05854
 H356 H 0.63539 0.68810 0.08502
 H357 H 0.58546 0.63623 0.18702
 H358 H 0.55902 0.61316 0.16283
 H359 H 0.68781 0.63700 0.08461
 H360 H 0.66270 0.61143 0.05816
 O361 O 0.37486 0.84257 0.68765
 O362 O 0.40174 0.87382 0.69404
 O363 O 0.31265 0.87692 0.65822
 O364 O 0.30367 0.90012 0.62678
 O365 O 0.34160 0.81330 0.62450
 O366 O 0.37479 0.80621 0.59855
 O367 O 0.37605 0.93844 0.59274
 O368 O 0.34828 0.94451 0.62302
 O369 O 0.43710 0.90840 0.62401
 O370 O 0.44487 0.87448 0.65080
 O371 O 0.40783 0.87650 0.56278
 O372 O 0.37386 0.85023 0.55482
 O373 O 0.37591 0.90959 0.56368
 O374 O 0.34775 0.87500 0.55621
 O375 O 0.43681 0.87608 0.59155
 O376 O 0.44357 0.84809 0.62624
 O377 O 0.40848 0.93742 0.62349
 O378 O 0.37706 0.94154 0.65504
 O379 O 0.37534 0.81375 0.65863
 O380 O 0.40164 0.80663 0.62478
 O381 O 0.31284 0.84221 0.62461
 O382 O 0.30750 0.87646 0.59669
 O383 O 0.34141 0.87589 0.68713
 O384 O 0.37497 0.90474 0.69168
 Zr385 Zr 0.37403 0.87484 0.66803
 O386 O 0.39680 0.89689 0.64743
 Zr387 Zr 0.33192 0.87482 0.62576
 O388 O 0.35263 0.89751 0.60375
 Zr389 Zr 0.37400 0.83263 0.62581
 O390 O 0.39633 0.85312 0.60318
 Zr391 Zr 0.37590 0.91845 0.62470
 O392 O 0.35280 0.89810 0.64703
 Zr393 Zr 0.41778 0.87593 0.62419
 O394 O 0.39718 0.85357 0.64695
 Zr395 Zr 0.37543 0.87654 0.58221
 O396 O 0.35286 0.85358 0.60253
 O397 O 0.35173 0.85255 0.64806
 O398 O 0.39813 0.89866 0.60197
 C399 C 0.37562 0.82052 0.68077
 C400 C 0.31940 0.87702 0.68032
 C401 C 0.31957 0.82014 0.62398
 C402 C 0.37611 0.93156 0.57072
 C403 C 0.43047 0.93050 0.62358
 C404 C 0.42981 0.87635 0.56962
 H405 H 0.40674 0.90684 0.65826
 H406 H 0.40607 0.84219 0.59315
 H407 H 0.34141 0.84235 0.65832
 H408 H 0.34189 0.90780 0.59407
 H409 H 0.33726 0.94110 0.63655
 H410 H 0.31018 0.91536 0.62044
 H411 H 0.44078 0.83704 0.61261
 H412 H 0.41410 0.81203 0.63623
 H413 H 0.38057 0.95801 0.64927
 H414 H 0.37000 0.89939 0.70794
 H415 H 0.38542 0.83742 0.55900
 H416 H 0.36423 0.81212 0.58553
 H417 H 0.41465 0.86358 0.68738
 H418 H 0.44099 0.88663 0.66316
 H419 H 0.31193 0.86340 0.58545
 H420 H 0.33692 0.88880 0.55897
 O421 O 0.87517 0.34231 0.68772
 O422 O 0.90184 0.37369 0.69416
 O423 O 0.81281 0.37640 0.65815
 O424 O 0.80374 0.39952 0.62670
 O425 O 0.84202 0.31288 0.62447
 O426 O 0.87528 0.30594 0.59856
 O427 O 0.87603 0.43817 0.59292
 O428 O 0.84823 0.44413 0.62317
 O429 O 0.93717 0.40835 0.62414
 O430 O 0.94498 0.37440 0.65104
 O431 O 0.90810 0.37640 0.56294
 O432 O 0.87433 0.35005 0.55483
 O433 O 0.87606 0.40934 0.56383
 O434 O 0.84801 0.37460 0.55631
 O435 O 0.93704 0.37606 0.59175
 O436 O 0.94392 0.34811 0.62639
 O437 O 0.90844 0.43727 0.62362
 O438 O 0.87700 0.44123 0.65519
 O439 O 0.87578 0.31341 0.65865
 O440 O 0.90212 0.30645 0.62478
 O441 O 0.81317 0.34169 0.62457
 O442 O 0.80778 0.37595 0.59662
 O443 O 0.84152 0.37548 0.68711
 O444 O 0.87494 0.40446 0.69175
 Zr445 Zr 0.87417 0.37455 0.66810
 O446 O 0.89690 0.39669 0.64757
 Zr447 Zr 0.83213 0.37436 0.62575
 O448 O 0.85278 0.39716 0.60382
 Zr449 Zr 0.87437 0.33232 0.62585
 O450 O 0.89664 0.35293 0.60329
 Zr451 Zr 0.87594 0.41817 0.62484
 O452 O 0.85288 0.39772 0.64708
 Zr453 Zr 0.91797 0.37581 0.62435
 O454 O 0.89742 0.35336 0.64705
 Zr455 Zr 0.87568 0.37628 0.58231
 O456 O 0.85318 0.35320 0.60255
 O457 O 0.85199 0.35217 0.64808
 O458 O 0.89826 0.39847 0.60213
 C459 C 0.87606 0.32036 0.68068
 C460 C 0.81952 0.37654 0.68025
 C461 C 0.81997 0.31964 0.62391
 C462 C 0.87615 0.43130 0.57091
 C463 C 0.93046 0.43043 0.62368
 C464 C 0.93006 0.37632 0.56981
 H465 H 0.90679 0.40668 0.65841
 H466 H 0.90645 0.34205 0.59327
 H467 H 0.84169 0.34193 0.65832
 H468 H 0.84201 0.40741 0.59413
 H469 H 0.83721 0.44067 0.63669
 H470 H 0.81025 0.41483 0.62054
 H471 H 0.94117 0.33704 0.61277
 H472 H 0.91457 0.31193 0.63620
 H473 H 0.88047 0.45772 0.64944
 H474 H 0.86994 0.39910 0.70800
 H475 H 0.88581 0.33720 0.55910
 H476 H 0.86470 0.31181 0.58554
 H477 H 0.91487 0.36364 0.68746
 H478 H 0.94122 0.38675 0.66325
 H479 H 0.81222 0.36287 0.58543
 H480 H 0.83719 0.38843 0.55898
 O481 O 0.81243 0.87491 0.15717
 O482 O 0.80624 0.90155 0.12566
 O483 O 0.84225 0.81235 0.12333
 O484 O 0.87382 0.80329 0.10036
 O485 O 0.87552 0.84182 0.18708
 O486 O 0.90127 0.87516 0.19405
 O487 O 0.90790 0.87554 0.06187
 O488 O 0.87782 0.84767 0.05572
 O489 O 0.87637 0.93679 0.09131
 O490 O 0.84928 0.94465 0.12517
 O491 O 0.93728 0.90771 0.12360
 O492 O 0.94518 0.87395 0.15024
 O493 O 0.93660 0.87569 0.09084
 O494 O 0.94399 0.84768 0.12562
 O495 O 0.90858 0.93663 0.12373
 O496 O 0.87387 0.94372 0.15150
 O497 O 0.87710 0.90790 0.06238
 O498 O 0.84566 0.87636 0.05837
 O499 O 0.84126 0.87559 0.18625
 O500 O 0.87499 0.90198 0.19332
 O501 O 0.87565 0.81278 0.15826
 O502 O 0.90375 0.80736 0.12417
 O503 O 0.81322 0.84115 0.12401
 O504 O 0.80889 0.87458 0.09491
 Zr505 Zr 0.83225 0.87382 0.12501
 O506 O 0.85295 0.89648 0.10293
 Zr507 Zr 0.87459 0.83170 0.12554
 O508 O 0.89667 0.85231 0.10282
 Zr509 Zr 0.87416 0.87412 0.16753
 O510 O 0.89685 0.89635 0.14699
 Zr511 Zr 0.87582 0.87544 0.08163
 O512 O 0.85345 0.85245 0.10201
 Zr513 Zr 0.87598 0.91763 0.12391
 O514 O 0.85314 0.89714 0.14627
 Zr515 Zr 0.91794 0.87530 0.12379
 O516 O 0.89757 0.85285 0.14680
 O517 O 0.85213 0.85167 0.14757
 O518 O 0.89833 0.89785 0.10141
 C519 C 0.81930 0.87586 0.17918
 C520 C 0.82026 0.81922 0.12302
 C521 C 0.87618 0.81983 0.18021
 C522 C 0.92997 0.87574 0.06867
 C523 C 0.87697 0.92985 0.06934
 C524 C 0.93060 0.92978 0.12354
 H525 H 0.84219 0.90636 0.09285
 H526 H 0.90681 0.90619 0.15789
 H527 H 0.84184 0.84140 0.15779
 H528 H 0.90645 0.84154 0.09265
 H529 H 0.86432 0.83662 0.05910
 H530 H 0.88028 0.80972 0.08514
 H531 H 0.88744 0.94102 0.16263
 H532 H 0.86368 0.91446 0.18766
 H533 H 0.85150 0.87975 0.04189
 H534 H 0.79261 0.86965 0.10016
 H535 H 0.94106 0.88579 0.16283
 H536 H 0.91440 0.86472 0.18818
 H537 H 0.81283 0.91456 0.13580
 H538 H 0.83715 0.94083 0.11279
 H539 H 0.91491 0.81195 0.13721
 H540 H 0.94151 0.83687 0.11174
 O541 O 0.37474 0.34227 0.18798
 O542 O 0.40144 0.37371 0.19433
 O543 O 0.31257 0.37627 0.15770
 O544 O 0.30378 0.39914 0.12598
 O545 O 0.34205 0.31244 0.12469
 O546 O 0.37547 0.30533 0.09905
 O547 O 0.37626 0.43746 0.09236
 O548 O 0.34828 0.44370 0.12237
 O549 O 0.43725 0.40788 0.12431
 O550 O 0.44477 0.37408 0.15158
 O551 O 0.40855 0.37561 0.06321
 O552 O 0.37488 0.34910 0.05503
 O553 O 0.37655 0.40843 0.06361
 O554 O 0.34856 0.37367 0.05612
 O555 O 0.43721 0.37541 0.09216
 O556 O 0.44398 0.34772 0.12697
 O557 O 0.40847 0.43688 0.12333
 O558 O 0.37676 0.44102 0.15469
 O559 O 0.37555 0.31318 0.15910
 O560 O 0.40214 0.30602 0.12549
 O561 O 0.31319 0.34126 0.12437
 O562 O 0.30801 0.37528 0.09613
 O563 O 0.34113 0.37554 0.18695
 O564 O 0.37457 0.40451 0.19154
 Zr565 Zr 0.37391 0.37442 0.16813
 O566 O 0.39675 0.39642 0.14755
 Zr567 Zr 0.33214 0.37394 0.12546
 O568 O 0.35295 0.39658 0.10349
 Zr569 Zr 0.37438 0.33188 0.12617
 O570 O 0.39682 0.35232 0.10361
 Zr571 Zr 0.37596 0.41774 0.12449
 O572 O 0.35277 0.39744 0.14675
 Zr573 Zr 0.41799 0.37536 0.12465
 O574 O 0.39729 0.35307 0.14737
 Zr575 Zr 0.37601 0.37553 0.08234
 O576 O 0.35336 0.35261 0.10258
 O577 O 0.35185 0.35191 0.14809
 O578 O 0.39845 0.39786 0.10211
 C579 C 0.37566 0.32026 0.18109
 C580 C 0.31928 0.37658 0.17976
 C581 C 0.32000 0.31920 0.12393
 C582 C 0.37656 0.43055 0.07031
 C583 C 0.43039 0.42987 0.12360
 C584 C 0.43055 0.37559 0.07008
 H585 H 0.40658 0.40649 0.15838
 H586 H 0.40670 0.34139 0.09373
 H587 H 0.34148 0.34174 0.15833
 H588 H 0.34226 0.40675 0.09363
 H589 H 0.33714 0.44035 0.13582
 H590 H 0.31032 0.41437 0.11966
 H591 H 0.44133 0.33656 0.11340
 H592 H 0.41454 0.31162 0.13692
 H593 H 0.38026 0.45748 0.14884
 H594 H 0.36954 0.39926 0.20782
 H595 H 0.38648 0.33638 0.05937
 H596 H 0.36506 0.31117 0.08589
 H597 H 0.41445 0.36349 0.18783
 H598 H 0.44092 0.38652 0.16366
 H599 H 0.31257 0.36215 0.08505
 H600 H 0.33775 0.38754 0.05855
 O601 O 0.37491 0.65788 0.81237
 O602 O 0.40168 0.62650 0.80595
 O603 O 0.31262 0.62372 0.84201
 O604 O 0.30360 0.60060 0.87346
 O605 O 0.34174 0.68728 0.87565
 O606 O 0.37498 0.69424 0.90154
 O607 O 0.37596 0.56197 0.90724
 O608 O 0.34814 0.55602 0.87701
 O609 O 0.43704 0.59183 0.87591
 O610 O 0.44481 0.62579 0.84905
 O611 O 0.40790 0.62379 0.93718
 O612 O 0.37411 0.65010 0.94531
 O613 O 0.37592 0.59081 0.93632
 O614 O 0.34778 0.62556 0.94380
 O615 O 0.43685 0.62412 0.90835
 O616 O 0.44369 0.65209 0.87371
 O617 O 0.40835 0.56290 0.87646
 O618 O 0.37690 0.55892 0.84495
 O619 O 0.37548 0.68678 0.84143
 O620 O 0.40185 0.69372 0.87529
 O621 O 0.31293 0.65844 0.87557
 O622 O 0.30760 0.62419 0.90355
 O623 O 0.34133 0.62465 0.81302
 O624 O 0.37481 0.59571 0.80836
 Zr625 Zr 0.37399 0.62562 0.83201
 O626 O 0.39674 0.60349 0.85255
 Zr627 Zr 0.33195 0.62578 0.87439
 O628 O 0.35262 0.60299 0.89633
 Zr629 Zr 0.37412 0.66786 0.87425
 O630 O 0.39641 0.64725 0.89681
 Zr631 Zr 0.37582 0.58199 0.87530
 O632 O 0.35274 0.60243 0.85306
 Zr633 Zr 0.41779 0.62437 0.87575
 O634 O 0.39721 0.64681 0.85305
 Zr635 Zr 0.37549 0.62388 0.91782
 O636 O 0.35297 0.64695 0.89757
 O637 O 0.35177 0.64798 0.85205
 O638 O 0.39811 0.60170 0.89799
 C639 C 0.37575 0.67984 0.81940
 C640 C 0.31933 0.62359 0.81990
 C641 C 0.31969 0.68050 0.87621
 C642 C 0.37607 0.56884 0.92926
 C643 C 0.43036 0.56974 0.87636
 C644 C 0.42986 0.62387 0.93030
 H645 H 0.40665 0.59351 0.84169
 H646 H 0.40620 0.65813 0.90683
 H647 H 0.34146 0.65821 0.84181
 H648 H 0.34187 0.59273 0.90602
 H649 H 0.33712 0.55947 0.86350
 H650 H 0.31011 0.58531 0.87966
 H651 H 0.44092 0.66315 0.88733
 H652 H 0.41430 0.68825 0.86383
 H653 H 0.38038 0.54243 0.85070
 H654 H 0.36983 0.60108 0.79211
 H655 H 0.38552 0.66299 0.94099
 H656 H 0.36441 0.68837 0.91456
 H657 H 0.41466 0.63662 0.81262
 H658 H 0.44102 0.61350 0.83680
 H659 H 0.31201 0.63729 0.91473
 H660 H 0.33702 0.61169 0.94118
 O661 O 0.12464 0.65849 0.68765
 O662 O 0.09797 0.62712 0.69411
 O663 O 0.18705 0.62442 0.65799
 O664 O 0.19614 0.60142 0.62643
 O665 O 0.15756 0.68804 0.62441
 O666 O 0.12423 0.69481 0.59854
 O667 O 0.12394 0.56263 0.59270
 O668 O 0.15177 0.55672 0.62289
 O669 O 0.06267 0.59228 0.62416
 O670 O 0.05482 0.62622 0.65105
 O671 O 0.09169 0.62428 0.56288
 O672 O 0.12546 0.65087 0.55486
 O673 O 0.12384 0.59149 0.56367
 O674 O 0.15170 0.62624 0.55612
 O675 O 0.06275 0.62455 0.59172
 O676 O 0.05582 0.65252 0.62639
 O677 O 0.09154 0.56336 0.62356
 O678 O 0.12308 0.55956 0.65505
 O679 O 0.12388 0.68730 0.65866
 O680 O 0.09750 0.69427 0.62491
 O681 O 0.18660 0.65927 0.62445
 O682 O 0.19201 0.62504 0.59641
 O683 O 0.15829 0.62528 0.68707
 O684 O 0.12484 0.59630 0.69163
 Zr685 Zr 0.12564 0.62623 0.66803
 O686 O 0.10298 0.60403 0.64747
 Zr687 Zr 0.16771 0.62653 0.62561
 O688 O 0.14708 0.60369 0.60367
 Zr689 Zr 0.12531 0.66846 0.62583
 O690 O 0.10308 0.64780 0.60325
 Zr691 Zr 0.12399 0.58260 0.62468
 O692 O 0.14699 0.60312 0.64693
 Zr693 Zr 0.08181 0.62486 0.62431
 O694 O 0.10232 0.64735 0.64702
 Zr695 Zr 0.12411 0.62452 0.58222
 O696 O 0.14656 0.64764 0.60248
 O697 O 0.14777 0.64866 0.64799
 O698 O 0.10159 0.60226 0.60203
 C699 C 0.12368 0.68054 0.68078
 C700 C 0.18019 0.62422 0.68002
 C701 C 0.17954 0.68120 0.62382
 C702 C 0.12381 0.56952 0.57070
 C703 C 0.06960 0.57031 0.62369
 C704 C 0.06973 0.62429 0.56977
 H705 H 0.09312 0.59402 0.65832
 H706 H 0.09324 0.65866 0.59325
 H707 H 0.15803 0.65892 0.65825
 H708 H 0.15787 0.59348 0.59395
 H709 H 0.16281 0.56020 0.63639
 H710 H 0.18967 0.58612 0.62019
 H711 H 0.05854 0.66358 0.61276
 H712 H 0.08507 0.68874 0.63635
 H713 H 0.11970 0.54305 0.64932
 H714 H 0.12978 0.60166 0.70790
 H715 H 0.11369 0.66350 0.55898
 H716 H 0.13478 0.68896 0.58548
 H717 H 0.08499 0.63729 0.68749
 H718 H 0.05877 0.61405 0.66336
 H719 H 0.18748 0.63810 0.58523
 H720 H 0.16265 0.61253 0.55885
 O721 O 0.12482 0.15744 0.18790
 O722 O 0.09809 0.12602 0.19413
 O723 O 0.18736 0.12338 0.15844
 O724 O 0.19648 0.10027 0.12695
 O725 O 0.15815 0.18702 0.12475
 O726 O 0.12492 0.19392 0.09879
 O727 O 0.12431 0.06182 0.09268
 O728 O 0.15204 0.05572 0.12289
 O729 O 0.06305 0.09146 0.12399
 O730 O 0.05517 0.12540 0.15092
 O731 O 0.09241 0.12358 0.06289
 O732 O 0.12635 0.15009 0.05512
 O733 O 0.12437 0.09067 0.06385
 O734 O 0.15236 0.12527 0.05634
 O735 O 0.06333 0.12382 0.09159
 O736 O 0.05627 0.15169 0.12628
 O737 O 0.09187 0.06249 0.12347
 O738 O 0.12331 0.05856 0.15503
 O739 O 0.12431 0.18638 0.15890
 O740 O 0.09807 0.19339 0.12506
 O741 O 0.18712 0.15818 0.12485
 O742 O 0.19259 0.12398 0.09688
 O743 O 0.15846 0.12421 0.18739
 O744 O 0.12499 0.09521 0.19171
 Zr745 Zr 0.12590 0.12521 0.16820
 O746 O 0.10328 0.10310 0.14748
 Zr747 Zr 0.16815 0.12550 0.12597
 O748 O 0.14758 0.10276 0.10387
 Zr749 Zr 0.12584 0.16754 0.12607
 O750 O 0.10365 0.14697 0.10337
 Zr751 Zr 0.12434 0.08168 0.12473
 O752 O 0.14728 0.10209 0.14714
 Zr753 Zr 0.08225 0.12401 0.12428
 O754 O 0.10271 0.14642 0.14712
 Zr755 Zr 0.12473 0.12368 0.08240
 O756 O 0.14714 0.14669 0.10279
 O757 O 0.14815 0.14763 0.14829
 O758 O 0.10207 0.10142 0.10204
 C759 C 0.12396 0.17941 0.18091
 C760 C 0.18040 0.12316 0.18043
 C761 C 0.18012 0.18013 0.12420
 C762 C 0.12425 0.06854 0.07056
 C763 C 0.06994 0.06947 0.12353
 C764 C 0.07041 0.12362 0.06967
 H765 H 0.09336 0.09308 0.15827
 H766 H 0.09389 0.15786 0.09334
 H767 H 0.15840 0.15786 0.15858
 H768 H 0.15836 0.09253 0.09416
 H769 H 0.16306 0.05913 0.13642
 H770 H 0.19005 0.08505 0.12048
 H771 H 0.05909 0.16280 0.11271
 H772 H 0.08556 0.18783 0.13639
 H773 H 0.11992 0.04207 0.14924
 H774 H 0.12985 0.10052 0.20802
 H775 H 0.11450 0.16269 0.05913
 H776 H 0.13551 0.18806 0.08577
 H777 H 0.08515 0.13620 0.18747
 H778 H 0.05897 0.11311 0.16317
 H779 H 0.18804 0.13696 0.08562
 H780 H 0.16324 0.11151 0.05906
 O781 O 0.68783 0.37533 0.84249
 O782 O 0.69423 0.40201 0.87390
 O783 O 0.65843 0.31278 0.87663
 O784 O 0.62703 0.30375 0.89986
 O785 O 0.62472 0.34197 0.81313
 O786 O 0.59876 0.37518 0.80623
 O787 O 0.59313 0.37596 0.93850
 O788 O 0.62339 0.34823 0.94443
 O789 O 0.62420 0.43729 0.90866
 O790 O 0.65103 0.44511 0.87464
 O791 O 0.56309 0.40799 0.87672
 O792 O 0.55514 0.37412 0.85032
 O793 O 0.56408 0.37593 0.90967
 O794 O 0.55661 0.34788 0.87495
 O795 O 0.59179 0.43703 0.87635
 O796 O 0.62640 0.44396 0.84836
 O797 O 0.62379 0.40848 0.93766
 O798 O 0.65538 0.37705 0.94148
 O799 O 0.65877 0.37586 0.81362
 O800 O 0.62490 0.40210 0.80670
 O801 O 0.62485 0.31311 0.84195
 O802 O 0.59699 0.30765 0.87622
 O803 O 0.68739 0.34162 0.87569
 O804 O 0.69184 0.37515 0.90473
 Zr805 Zr 0.66827 0.37426 0.87479
 O806 O 0.64767 0.39698 0.89695
 Zr807 Zr 0.62604 0.33209 0.87464
 O808 O 0.60408 0.35274 0.89746
 Zr809 Zr 0.62604 0.37435 0.83258
 O810 O 0.60345 0.39662 0.85321
 Zr811 Zr 0.62503 0.37596 0.91847
 O812 O 0.64730 0.35292 0.89799
 Zr813 Zr 0.62442 0.41804 0.87610
 O814 O 0.64715 0.39748 0.85363
 Zr815 Zr 0.58254 0.37560 0.87659
 O816 O 0.60282 0.35311 0.85350
 O817 O 0.64829 0.35202 0.85241
 O818 O 0.60228 0.39825 0.89879
 C819 C 0.68077 0.37620 0.82054
 C820 C 0.68041 0.31968 0.87675
 C821 C 0.62419 0.31991 0.81989
 C822 C 0.57115 0.37602 0.93164
 C823 C 0.62380 0.43041 0.93066
 C824 C 0.56988 0.43000 0.87662
 H825 H 0.65849 0.40691 0.90692
 H826 H 0.59341 0.40640 0.84234
 H827 H 0.65853 0.34173 0.84214
 H828 H 0.59443 0.34195 0.90771
 H829 H 0.63691 0.33722 0.94095
 H830 H 0.62071 0.31023 0.91513
 H831 H 0.61278 0.44120 0.83732
 H832 H 0.63626 0.41461 0.81219
 H833 H 0.64965 0.38044 0.95801
 H834 H 0.70809 0.37019 0.89937
 H835 H 0.55932 0.38570 0.83752
 H836 H 0.58578 0.36456 0.81211
 H837 H 0.68750 0.41502 0.86384
 H838 H 0.66328 0.44132 0.88691
 H839 H 0.58578 0.31211 0.86318
 H840 H 0.55935 0.33701 0.88872
 O841 O 0.12478 0.84294 0.81277
 O842 O 0.09818 0.87447 0.80656
 O843 O 0.18726 0.87666 0.84268
 O844 O 0.19626 0.89958 0.87435
 O845 O 0.15774 0.81292 0.87589
 O846 O 0.12438 0.80602 0.90171
 O847 O 0.12407 0.93817 0.90839
 O848 O 0.15191 0.94425 0.87825
 O849 O 0.06281 0.90879 0.87674
 O850 O 0.05501 0.87500 0.84961
 O851 O 0.09176 0.87629 0.93782
 O852 O 0.12556 0.84967 0.94565
 O853 O 0.12392 0.90912 0.93724
 O854 O 0.15176 0.87430 0.94457
 O855 O 0.06285 0.87624 0.90897
 O856 O 0.05595 0.84858 0.87410
 O857 O 0.09168 0.93768 0.87750
 O858 O 0.12326 0.94164 0.84607
 O859 O 0.12404 0.81386 0.84163
 O860 O 0.09763 0.80677 0.87537
 O861 O 0.18677 0.84168 0.87606
 O862 O 0.19215 0.87573 0.90426
 O863 O 0.15852 0.87604 0.81359
 O864 O 0.12514 0.90518 0.80926
 Zr865 Zr 0.12584 0.87507 0.83263
 O866 O 0.10315 0.89714 0.85335
 Zr867 Zr 0.16786 0.87444 0.87505
 O868 O 0.14720 0.89714 0.89715
 Zr869 Zr 0.12547 0.83253 0.87457
 O870 O 0.10321 0.85307 0.89727
 Zr871 Zr 0.12413 0.91841 0.87628
 O872 O 0.14717 0.89801 0.85390
 Zr873 Zr 0.08196 0.87618 0.87637
 O874 O 0.10250 0.85383 0.85352
 Zr875 Zr 0.12421 0.87620 0.91847
 O876 O 0.14668 0.85321 0.89805
 O877 O 0.14794 0.85247 0.85253
 O878 O 0.10171 0.89862 0.89880
 C879 C 0.12381 0.82094 0.81965
 C880 C 0.18043 0.87699 0.82065
 C881 C 0.17972 0.81974 0.87655
 C882 C 0.12392 0.93114 0.93035
 C883 C 0.06973 0.93076 0.87733
 C884 C 0.06980 0.87632 0.93093
 H885 H 0.09331 0.90723 0.84256
 H886 H 0.09336 0.84216 0.90720
 H887 H 0.15821 0.84226 0.84223
 H888 H 0.15798 0.90728 0.90694
 H889 H 0.16297 0.94084 0.86473
 H890 H 0.18980 0.91480 0.88079
 H891 H 0.05866 0.83740 0.88763
 H892 H 0.08520 0.81240 0.86399
 H893 H 0.11988 0.95813 0.85191
 H894 H 0.13008 0.89993 0.79296
 H895 H 0.11379 0.83707 0.94144
 H896 H 0.13493 0.81179 0.91480
 H897 H 0.08516 0.86433 0.81314
 H898 H 0.05889 0.88735 0.83745
 H899 H 0.18758 0.86265 0.91538
 H900 H 0.16273 0.88801 0.94191
 O901 O 0.68798 0.12476 0.65779
 O902 O 0.69429 0.09815 0.62626
 O903 O 0.65820 0.18731 0.62401
 O904 O 0.62666 0.19638 0.60103
 O905 O 0.62482 0.15776 0.68767
 O906 O 0.59904 0.12438 0.69452
 O907 O 0.59282 0.12417 0.56228
 O908 O 0.62294 0.15205 0.55629
 O909 O 0.62430 0.06286 0.59171
 O910 O 0.65128 0.05498 0.62558
 O911 O 0.56320 0.09188 0.62405
 O912 O 0.55527 0.12565 0.65070
 O913 O 0.56391 0.12404 0.59126
 O914 O 0.55649 0.15194 0.62611
 O915 O 0.59199 0.06291 0.62414
 O916 O 0.62671 0.05593 0.65195
 O917 O 0.62365 0.09177 0.56283
 O918 O 0.65507 0.12334 0.55896
 O919 O 0.65906 0.12402 0.68682
 O920 O 0.62534 0.09759 0.69380
 O921 O 0.62475 0.18682 0.65891
 O922 O 0.59671 0.19226 0.62477
 O923 O 0.68725 0.15854 0.62468
 O924 O 0.69170 0.12513 0.59555
 Zr925 Zr 0.66825 0.12585 0.62561
 O926 O 0.64763 0.10318 0.60345
 Zr927 Zr 0.62587 0.16793 0.62614
 O928 O 0.60389 0.14731 0.60335
 Zr929 Zr 0.62622 0.12548 0.66805
 O930 O 0.60361 0.10325 0.64743
 Zr931 Zr 0.62482 0.12422 0.58213
 O932 O 0.64710 0.14723 0.60261
 Zr933 Zr 0.62456 0.08198 0.62435
 O934 O 0.64732 0.10249 0.64679
 Zr935 Zr 0.58253 0.12431 0.62424
 O936 O 0.60284 0.14675 0.64733
 O937 O 0.64829 0.14796 0.64817
 O938 O 0.60225 0.10180 0.60186
 C939 C 0.68104 0.12378 0.67979
 C940 C 0.68019 0.18046 0.62372
 C941 C 0.62417 0.17976 0.68085
 C942 C 0.57086 0.12402 0.56925
 C943 C 0.62379 0.06981 0.56974
 C944 C 0.57007 0.06990 0.62400
 H945 H 0.65844 0.09332 0.59338
 H946 H 0.59365 0.09340 0.65831
 H947 H 0.65855 0.15823 0.65842
 H948 H 0.59415 0.15812 0.59318
 H949 H 0.63643 0.16309 0.55974
 H950 H 0.62031 0.18994 0.58576
 H951 H 0.61313 0.05864 0.66308
 H952 H 0.63673 0.08516 0.68819
 H953 H 0.64929 0.11999 0.54245
 H954 H 0.70796 0.13007 0.60084
 H955 H 0.55944 0.11389 0.66332
 H956 H 0.58597 0.13493 0.68872
 H957 H 0.68768 0.08512 0.63638
 H958 H 0.66347 0.05886 0.61327
 H959 H 0.58556 0.18771 0.63785
 H960 H 0.55912 0.16286 0.61235
 C961 C 0.37657 0.78981 0.74169
 C962 C 0.37707 0.76558 0.73506
 C963 C 0.37728 0.75929 0.71073
 C964 C 0.37692 0.77714 0.69307
 C965 C 0.37634 0.80159 0.69952
 C966 C 0.37621 0.80771 0.72407
 C967 C 0.37715 0.74714 0.75319
 C968 C 0.37708 0.73167 0.76834
 C969 C 0.37682 0.71355 0.78607
 C970 C 0.37644 0.69812 0.80125
 H971 H 0.37638 0.79488 0.76048
 H972 H 0.37764 0.74059 0.70539
 H973 H 0.37701 0.77173 0.67439
 H974 H 0.37575 0.82631 0.72971
 C975 C 0.37624 0.21035 0.25888
 C976 C 0.37687 0.23459 0.26549
 C977 C 0.37723 0.24090 0.28981
 C978 C 0.37688 0.22308 0.30748
 C979 C 0.37617 0.19862 0.30106
 C980 C 0.37589 0.19247 0.27652
 C981 C 0.37694 0.25303 0.24736
 C982 C 0.37688 0.26852 0.23223
 C983 C 0.37665 0.28666 0.21452
 C984 C 0.37629 0.30207 0.19933
 H985 H 0.37594 0.20527 0.24010
 H986 H 0.37770 0.25961 0.29513
 H987 H 0.37710 0.22850 0.32616
 H988 H 0.37532 0.17386 0.27091
 C989 C 0.62334 0.78950 0.25789
 C990 C 0.62237 0.76528 0.26450
 C991 C 0.62163 0.75899 0.28880
 C992 C 0.62195 0.77681 0.30648
 C993 C 0.62303 0.80125 0.30007
 C994 C 0.62366 0.80738 0.27553
 C995 C 0.62242 0.74686 0.24636
 C996 C 0.62261 0.73138 0.23123
 C997 C 0.62300 0.71325 0.21353
 C998 C 0.62349 0.69781 0.19837
 H999 H 0.62395 0.79457 0.23911
 H1000 H 0.62090 0.74029 0.29411
 H1001 H 0.62144 0.77140 0.32515
 H1002 H 0.62452 0.82598 0.26993
 C1003 C 0.12321 0.28958 0.25834
 C1004 C 0.12213 0.26537 0.26499
 C1005 C 0.12134 0.25914 0.28931
 C1006 C 0.12174 0.27699 0.30694
 C1007 C 0.12294 0.30142 0.30049
 C1008 C 0.12361 0.30750 0.27594
 C1009 C 0.12211 0.24689 0.24690
 C1010 C 0.12225 0.23135 0.23183
 C1011 C 0.12262 0.21315 0.21419
 C1012 C 0.12312 0.19767 0.19906
 H1013 H 0.12385 0.29460 0.23955
 H1014 H 0.12052 0.24045 0.29466
 H1015 H 0.12120 0.27162 0.32563
 H1016 H 0.12456 0.32608 0.27031
 C1017 C 0.12163 0.74174 0.71077
 C1018 C 0.12197 0.73546 0.73509
 C1019 C 0.12262 0.71124 0.74171
 C1020 C 0.12304 0.69334 0.72409
 C1021 C 0.12282 0.69945 0.69954
 C1022 C 0.12204 0.72390 0.69311
 C1023 C 0.12195 0.75389 0.75322
 C1024 C 0.12211 0.76934 0.76838
 C1025 C 0.12248 0.78742 0.78615
 C1026 C 0.12298 0.80279 0.80139
 H1027 H 0.12114 0.76045 0.70544
 H1028 H 0.12292 0.70618 0.76050
 H1029 H 0.12364 0.67474 0.72972
 H1030 H 0.12185 0.72929 0.67442
 C1031 C 0.87730 0.21052 0.75830
 C1032 C 0.87784 0.23474 0.76494
 C1033 C 0.87814 0.24106 0.78925
 C1034 C 0.87782 0.22323 0.80691
 C1035 C 0.87717 0.19878 0.80046
 C1036 C 0.87697 0.19264 0.77592
 C1037 C 0.87783 0.25315 0.74682
 C1038 C 0.87768 0.26860 0.73168
 C1039 C 0.87732 0.28669 0.71396
 C1040 C 0.87685 0.30211 0.69880
 H1041 H 0.87703 0.20545 0.73951
 H1042 H 0.87854 0.25977 0.79458
 H1043 H 0.87797 0.22864 0.82559
 H1044 H 0.87646 0.17403 0.77029
 C1045 C 0.78930 0.37819 0.74133
 C1046 C 0.76505 0.37827 0.73491
 C1047 C 0.75854 0.37806 0.71064
 C1048 C 0.77622 0.37766 0.69282
 C1049 C 0.80070 0.37744 0.69907
 C1050 C 0.80702 0.37779 0.72357
 C1051 C 0.74687 0.37824 0.75327
 C1052 C 0.73171 0.37804 0.76871
 C1053 C 0.71400 0.37761 0.78681
 C1054 C 0.69886 0.37707 0.80225
 H1055 H 0.79453 0.37833 0.76007
 H1056 H 0.73979 0.37808 0.70549
 H1057 H 0.77069 0.37738 0.67418
 H1058 H 0.82565 0.37764 0.72906
 C1059 C 0.25833 0.62206 0.78957
 C1060 C 0.26481 0.62189 0.76528
 C1061 C 0.28907 0.62199 0.75884
 C1062 C 0.30680 0.62237 0.77658
 C1063 C 0.30050 0.62268 0.80109
 C1064 C 0.27602 0.62244 0.80737
 C1065 C 0.24661 0.62195 0.74696
 C1066 C 0.23141 0.62218 0.73156
 C1067 C 0.21362 0.62266 0.71354
 C1068 C 0.19840 0.62326 0.69818
 H1069 H 0.23959 0.62202 0.79475
 H1070 H 0.29429 0.62188 0.74009
 H1071 H 0.32543 0.62254 0.77106
 H1072 H 0.27050 0.62270 0.82602
 C1073 C 0.25814 0.12136 0.29040
 C1074 C 0.26466 0.12137 0.26611
 C1075 C 0.28892 0.12179 0.25971
 C1076 C 0.30662 0.12230 0.27747
 C1077 C 0.30030 0.12240 0.30197
 C1078 C 0.27582 0.12186 0.30822
 C1079 C 0.24649 0.12127 0.24774
 C1080 C 0.23135 0.12137 0.23228
 C1081 C 0.21367 0.12173 0.21414
 C1082 C 0.19852 0.12225 0.19869
 H1083 H 0.23940 0.12106 0.29556
 H1084 H 0.29416 0.12183 0.24096
 H1085 H 0.32525 0.12272 0.27197
 H1086 H 0.27028 0.12195 0.32687
 C1087 C 0.75910 0.12171 0.78943
 C1088 C 0.76560 0.12191 0.76515
 C1089 C 0.78986 0.12241 0.75872
 C1090 C 0.80758 0.12281 0.77648
 C1091 C 0.80126 0.12273 0.80098
 C1092 C 0.77679 0.12211 0.80725
 C1093 C 0.74740 0.12189 0.74681
 C1094 C 0.73221 0.12205 0.73141
 C1095 C 0.71444 0.12244 0.71336
 C1096 C 0.69923 0.12294 0.69799
 H1097 H 0.74036 0.12136 0.79461
 H1098 H 0.79508 0.12259 0.73997
 H1099 H 0.82620 0.12329 0.77097
 H1100 H 0.77126 0.12206 0.82590
 C1101 C 0.71038 0.87718 0.25823
 C1102 C 0.73464 0.87796 0.26459
 C1103 C 0.74116 0.87849 0.28886
 C1104 C 0.72350 0.87813 0.30672
 C1105 C 0.69902 0.87722 0.30053
 C1106 C 0.69268 0.87682 0.27604
 C1107 C 0.75283 0.87791 0.24621
 C1108 C 0.76802 0.87770 0.23078
 C1109 C 0.78582 0.87726 0.21273
 C1110 C 0.80106 0.87672 0.19736
 H1111 H 0.70512 0.87673 0.23950
 H1112 H 0.75990 0.87907 0.29399
 H1113 H 0.72905 0.87845 0.32535
 H1114 H 0.67405 0.87609 0.27058
 C1115 C 0.78928 0.74160 0.37663
 C1116 C 0.76507 0.73501 0.37722
 C1117 C 0.75875 0.71071 0.37751
 C1118 C 0.77656 0.69304 0.37713
 C1119 C 0.80099 0.69945 0.37645
 C1120 C 0.80714 0.72397 0.37625
 C1121 C 0.74669 0.75315 0.37729
 C1122 C 0.73128 0.76833 0.37721
 C1123 C 0.71325 0.78610 0.37692
 C1124 C 0.69790 0.80133 0.37649
 H1125 H 0.79436 0.76038 0.37637
 H1126 H 0.74005 0.70541 0.37794
 H1127 H 0.77114 0.67437 0.37728
 H1128 H 0.82573 0.72958 0.37571
 C1129 C 0.75892 0.28948 0.62253
 C1130 C 0.76532 0.26520 0.62200
 C1131 C 0.78957 0.25867 0.62188
 C1132 C 0.80737 0.27635 0.62237
 C1133 C 0.80114 0.30085 0.62301
 C1134 C 0.77668 0.30719 0.62302
 C1135 C 0.74700 0.24700 0.62190
 C1136 C 0.73163 0.23178 0.62200
 C1137 C 0.71364 0.21396 0.62233
 C1138 C 0.69832 0.19870 0.62284
 H1139 H 0.74020 0.29473 0.62266
 H1140 H 0.79471 0.23991 0.62150
 H1141 H 0.82599 0.27079 0.62234
 H1142 H 0.77120 0.32584 0.62352
 C1143 C 0.71075 0.74121 0.12151
 C1144 C 0.73498 0.73465 0.12114
 C1145 C 0.74134 0.71035 0.12120
 C1146 C 0.72357 0.69266 0.12173
 C1147 C 0.69911 0.69904 0.12223
 C1148 C 0.69292 0.72356 0.12204
 C1149 C 0.75333 0.75282 0.12105
 C1150 C 0.76874 0.76800 0.12116
 C1151 C 0.78677 0.78578 0.12154
 C1152 C 0.80211 0.80100 0.12208
 H1153 H 0.70562 0.75998 0.12150
 H1154 H 0.76005 0.70507 0.12095
 H1155 H 0.72902 0.67400 0.12186
 H1156 H 0.67431 0.72914 0.12241
 C1157 C 0.25897 0.28903 0.12210
 C1158 C 0.26536 0.26474 0.12223
 C1159 C 0.28960 0.25821 0.12265
 C1160 C 0.30740 0.27588 0.12305
 C1161 C 0.30118 0.30040 0.12305
 C1162 C 0.27672 0.30675 0.12250
 C1163 C 0.24703 0.24656 0.12225
 C1164 C 0.23164 0.23136 0.12243
 C1165 C 0.21363 0.21357 0.12284
 C1166 C 0.19829 0.19833 0.12336
 H1167 H 0.24025 0.29429 0.12180
 H1168 H 0.29474 0.23944 0.12277
 H1169 H 0.32602 0.27032 0.12347
 H1170 H 0.27125 0.32540 0.12249
 C1171 C 0.28918 0.74147 0.87813
 C1172 C 0.26494 0.73493 0.87800
 C1173 C 0.25858 0.71064 0.87751
 C1174 C 0.27636 0.69294 0.87706
 C1175 C 0.30083 0.69929 0.87708
 C1176 C 0.30701 0.72380 0.87768
 C1177 C 0.24658 0.75314 0.87809
 C1178 C 0.23119 0.76836 0.87801
 C1179 C 0.21318 0.78619 0.87772
 C1180 C 0.19786 0.80147 0.87729
 H1181 H 0.29430 0.76023 0.87849
 H1182 H 0.23987 0.70538 0.87738
 H1183 H 0.27092 0.67428 0.87659
 H1184 H 0.32562 0.72937 0.87771
 C1185 C 0.28915 0.24148 0.37792
 C1186 C 0.26492 0.23493 0.37821
 C1187 C 0.25856 0.21064 0.37830
 C1188 C 0.27633 0.19294 0.37800
 C1189 C 0.30078 0.19930 0.37760
 C1190 C 0.30698 0.22382 0.37763
 C1191 C 0.24658 0.25310 0.37814
 C1192 C 0.23118 0.26829 0.37793
 C1193 C 0.21317 0.28609 0.37750
 C1194 C 0.19784 0.30133 0.37697
 H1195 H 0.29427 0.26025 0.37783
 H1196 H 0.23984 0.20538 0.37850
 H1197 H 0.27088 0.17428 0.37798
 H1198 H 0.32559 0.22938 0.37730
 C1199 C 0.50882 0.62320 1.03920
 C1200 C 0.51518 0.62304 1.01489
 C1201 C 0.53942 0.62295 1.00832
 C1202 C 0.55725 0.62310 1.02598
 C1203 C 0.55105 0.62336 1.05051
 C1204 C 0.52660 0.62335 1.05690
 C1205 C 0.49683 0.62310 0.99671
 C1206 C 0.48143 0.62322 0.98153
 C1207 C 0.46340 0.62343 0.96374
 C1208 C 0.44804 0.62363 0.94852
 H1209 H 0.49011 0.62326 1.04448
 H1210 H 0.54454 0.62281 0.98954
 H1211 H 0.57586 0.62305 1.02040
 H1212 H 0.52115 0.62349 1.07557
 C1213 C 0.46077 0.12344 0.49190
 C1214 C 0.48498 0.12342 0.48522
 C1215 C 0.49123 0.12350 0.46089
 C1216 C 0.47338 0.12367 0.44327
 C1217 C 0.44895 0.12378 0.44976
 C1218 C 0.44286 0.12361 0.47432
 C1219 C 0.50344 0.12344 0.50329
 C1220 C 0.51896 0.12352 0.51836
 C1221 C 0.53714 0.12367 0.53599
 C1222 C 0.55261 0.12383 0.55111
 H1223 H 0.45574 0.12337 0.51070
 H1224 H 0.50992 0.12347 0.45552
 H1225 H 0.47875 0.12374 0.42458
 H1226 H 0.42426 0.12364 0.47997
 C1227 C 0.53938 0.87730 0.49133
 C1228 C 0.51513 0.87666 0.48486
 C1229 C 0.50871 0.87590 0.46059
 C1230 C 0.52644 0.87573 0.44282
 C1231 C 0.55091 0.87630 0.44910
 C1232 C 0.55717 0.87712 0.47359
 C1233 C 0.49680 0.87669 0.50310
 C1234 C 0.48140 0.87666 0.51832
 C1235 C 0.46335 0.87657 0.53612
 C1236 C 0.44798 0.87647 0.55136
 H1237 H 0.54455 0.87790 0.51008
 H1238 H 0.48999 0.87540 0.45538
 H1239 H 0.52094 0.87511 0.42418
 H1240 H 0.57579 0.87763 0.47910
 C1241 C 1.03960 0.37759 0.49169
 C1242 C 1.01536 0.37700 0.48521
 C1243 C 1.00892 0.37632 0.46094
 C1244 C 1.02664 0.37616 0.44318
 C1245 C 1.05111 0.37667 0.44947
 C1246 C 1.05738 0.37743 0.47396
 C1247 C 0.99705 0.37698 0.50343
 C1248 C 0.98165 0.37689 0.51863
 C1249 C 0.96361 0.37672 0.53639
 C1250 C 0.94824 0.37654 0.55161
 H1251 H 1.04477 0.37813 0.51044
 H1252 H 0.99020 0.37586 0.45574
 H1253 H 1.02114 0.37559 0.42454
 H1254 H 1.07601 0.37788 0.47946
 C1255 C -0.04009 0.87626 1.00865
 C1256 C -0.01590 0.87650 1.01531
 C1257 C -0.00967 0.87659 1.03963
 C1258 C -0.02751 0.87637 1.05727
 C1259 C -0.05203 0.87604 1.05088
 C1260 C -0.05802 0.87604 1.02623
 C1261 C 0.00256 0.87657 0.99720
 C1262 C 0.01804 0.87656 0.98207
 C1263 C 0.03616 0.87650 0.96434
 C1264 C 0.05158 0.87642 0.94914
 H1265 H -0.04511 0.87620 0.98985
 H1266 H 0.00902 0.87679 1.04498
 H1267 H -0.02198 0.87643 1.07592
 H1268 H -0.07656 0.87583 1.02041
 C1269 C -0.03888 0.12307 -0.00868
 C1270 C -0.01463 0.12306 -0.01521
 C1271 C -0.00822 0.12318 -0.03950
 C1272 C -0.02596 0.12339 -0.05724
 C1273 C -0.05043 0.12350 -0.05090
 C1274 C -0.05667 0.12328 -0.02638
 C1275 C 0.00369 0.12305 0.00301
 C1276 C 0.01905 0.12312 0.01824
 C1277 C 0.03702 0.12327 0.03608
 C1278 C 0.05232 0.12343 0.05137
 H1279 H -0.04403 0.12297 0.01008
 H1280 H 0.01050 0.12316 -0.04475
 H1281 H -0.02048 0.12350 -0.07590
 H1282 H -0.07530 0.12331 -0.02083
 C1283 C 0.12379 1.03941 1.01019
 C1284 C 0.12367 1.01512 1.01646
 C1285 C 0.12368 1.00850 1.04070
 C1286 C 0.12385 1.02609 1.05863
 C1287 C 0.12403 1.05072 1.05259
 C1288 C 0.12396 1.05707 1.02802
 C1289 C 0.12361 0.99702 0.99799
 C1290 C 0.12362 0.98195 0.98244
 C1291 C 0.12368 0.96433 0.96421
 C1292 C 0.12378 0.94923 0.94869
 H1293 H 0.12378 1.04473 0.99146
 H1294 H 0.12358 0.98971 1.04575
 H1295 H 0.12387 1.02031 1.07720
 H1296 H 0.12407 1.07570 1.02245
 C1297 C 0.12389 0.49205 0.46053
 C1298 C 0.12327 0.48538 0.48476
 C1299 C 0.12276 0.46106 0.49099
 C1300 C 0.12293 0.44345 0.47309
 C1301 C 0.12363 0.44993 0.44864
 C1302 C 0.12406 0.47447 0.44258
 C1303 C 0.12328 0.50344 0.50326
 C1304 C 0.12335 0.51851 0.51881
 C1305 C 0.12348 0.53616 0.53701
 C1306 C 0.12363 0.55131 0.55247
 H1307 H 0.12429 0.51084 0.45552
 H1308 H 0.12227 0.45569 0.50969
 H1309 H 0.12253 0.42477 0.47846
 H1310 H 0.12458 0.48013 0.42398
 C1311 C 0.37781 0.46026 1.00894
 C1312 C 0.37719 0.48460 1.01511
 C1313 C 0.37653 0.49133 1.03933
 C1314 C 0.37640 0.47379 1.05732
 C1315 C 0.37691 0.44923 1.05130
 C1316 C 0.37768 0.44269 1.02687
 C1317 C 0.37708 0.50264 0.99659
 C1318 C 0.37691 0.51773 0.98105
 C1319 C 0.37664 0.53542 0.96289
 C1320 C 0.37638 0.55061 0.94746
 H1321 H 0.37833 0.45485 0.99025
 H1322 H 0.37605 0.51013 1.04432
 H1323 H 0.37583 0.47950 1.07590
 H1324 H 0.37813 0.42400 1.02154
 C1325 C 0.87659 0.53996 0.49164
 C1326 C 0.87677 0.51565 0.48534
 C1327 C 0.87680 0.50900 0.46110
 C1328 C 0.87657 0.52660 0.44319
 C1329 C 0.87629 0.55113 0.44933
 C1330 C 0.87636 0.55759 0.47379
 C1331 C 0.87679 0.49755 0.50377
 C1332 C 0.87673 0.48244 0.51925
 C1333 C 0.87657 0.46472 0.53735
 C1334 C 0.87639 0.44952 0.55274
 H1335 H 0.87659 0.54529 0.51036
 H1336 H 0.87694 0.49022 0.45603
 H1337 H 0.87657 0.52097 0.42457
 H1338 H 0.87621 0.57627 0.47919
 C1339 C 0.87791 1.03860 -0.00967
 C1340 C 0.87823 1.01432 -0.01609
 C1341 C 0.87832 1.00780 -0.04037
 C1342 C 0.87798 1.02549 -0.05818
 C1343 C 0.87754 1.04999 -0.05192
 C1344 C 0.87757 1.05632 -0.02742
 C1345 C 0.87826 0.99613 0.00224
 C1346 C 0.87814 0.98096 0.01766
 C1347 C 0.87786 0.96321 0.03572
 C1348 C 0.87750 0.94802 0.05112
 H1349 H 0.87784 1.04384 0.00908
 H1350 H 0.87858 0.98905 -0.04553
 H1351 H 0.87804 1.01996 -0.07683
 H1352 H 0.87729 1.07497 -0.02192
 C1353 C 0.62335 -0.00799 0.45982
 C1354 C 0.62276 -0.01457 0.48407
 C1355 C 0.62232 -0.03886 0.49040
 C1356 C 0.62255 -0.05654 0.47258
 C1357 C 0.62323 -0.05015 0.44810
 C1358 C 0.62357 -0.02563 0.44194
 C1359 C 0.62276 0.00358 0.50248
 C1360 C 0.62286 0.01874 0.51794
 C1361 C 0.62309 0.03647 0.53605
 C1362 C 0.62337 0.05165 0.55148
 H1363 H 0.62369 0.01078 0.45472
 H1364 H 0.62185 -0.04415 0.50912
 H1365 H 0.62221 -0.07521 0.47801
 H1366 H 0.62407 -0.02005 0.42332
 C1367 C 0.49122 1.03951 0.37788
 C1368 C 0.48475 1.01525 0.37853
 C1369 C 0.46050 1.00881 0.37907
 C1370 C 0.44276 1.02654 0.37884
 C1371 C 0.44904 1.05102 0.37803
 C1372 C 0.47351 1.05730 0.37765
 C1373 C 0.50296 0.99695 0.37834
 C1374 C 0.51819 0.98158 0.37804
 C1375 C 0.53600 0.96359 0.37755
 C1376 C 0.55124 0.94826 0.37705
 H1377 H 0.50995 1.04469 0.37746
 H1378 H 0.45531 0.99008 0.37958
 H1379 H 0.42413 1.02104 0.37921
 H1380 H 0.47901 1.07593 0.37707
 C1381 C -0.03904 -0.00921 0.12341
 C1382 C -0.01480 -0.01569 0.12268
 C1383 C -0.00837 -0.03997 0.12216
 C1384 C -0.02609 -0.05773 0.12243
 C1385 C -0.05055 -0.05142 0.12322
 C1386 C -0.05681 -0.02692 0.12367
 C1387 C 0.00344 0.00260 0.12261
 C1388 C 0.01867 0.01795 0.12266
 C1389 C 0.03650 0.03595 0.12284
 C1390 C 0.05174 0.05129 0.12310
 H1391 H -0.04423 0.00953 0.12382
 H1392 H 0.01036 -0.04518 0.12159
 H1393 H -0.02061 -0.07638 0.12201
 H1394 H -0.07542 -0.02139 0.12426
 C1395 C 0.50867 0.53928 0.12251
 C1396 C 0.51515 0.51501 0.12191
 C1397 C 0.53940 0.50856 0.12146
 C1398 C 0.55715 0.52629 0.12173
 C1399 C 0.55086 0.55078 0.12248
 C1400 C 0.52638 0.55706 0.12278
 C1401 C 0.49693 0.49670 0.12202
 C1402 C 0.48170 0.48134 0.12224
 C1403 C 0.46388 0.46335 0.12263
 C1404 C 0.44862 0.44802 0.12305
 H1405 H 0.48994 0.54446 0.12286
 H1406 H 0.54461 0.48983 0.12099
 H1407 H 0.57578 0.52078 0.12143
 H1408 H 0.52087 0.57570 0.12331
 C1409 C -0.03928 0.49147 0.62245
 C1410 C -0.01502 0.48503 0.62268
 C1411 C -0.00853 0.46076 0.62310
 C1412 C -0.02623 0.44298 0.62335
 C1413 C -0.05071 0.44924 0.62321
 C1414 C -0.05701 0.47373 0.62271
 C1415 C 0.00319 0.50335 0.62268
 C1416 C 0.01840 0.51872 0.62279
 C1417 C 0.03620 0.53673 0.62302
 C1418 C 0.05142 0.55209 0.62329
 H1419 H -0.04450 0.51021 0.62213
 H1420 H 0.01021 0.45558 0.62328
 H1421 H -0.02071 0.42434 0.62372
 H1422 H -0.07565 0.47924 0.62257
 C1423 C 0.49143 0.53942 0.87679
 C1424 C 0.48498 0.51514 0.87720
 C1425 C 0.46073 0.50870 0.87746
 C1426 C 0.44297 0.52643 0.87725
 C1427 C 0.44923 0.55093 0.87677
 C1428 C 0.47371 0.55721 0.87659
 C1429 C 0.50323 0.49683 0.87720
 C1430 C 0.51847 0.48146 0.87713
 C1431 C 0.53633 0.46347 0.87698
 C1432 C 0.55161 0.44815 0.87682
 H1433 H 0.51016 0.54461 0.87659
 H1434 H 0.45553 0.48996 0.87777
 H1435 H 0.42434 0.52092 0.87742
 H1436 H 0.47920 0.57585 0.87623
 C1437 C 0.62269 0.53924 1.00978
 C1438 C 0.62263 0.51497 1.01616
 C1439 C 0.62275 0.50844 1.04042
 C1440 C 0.62304 0.52610 1.05827
 C1441 C 0.62323 0.55070 1.05213
 C1442 C 0.62298 0.55697 1.02755
 C1443 C 0.62264 0.49678 0.99779
 C1444 C 0.62276 0.48161 0.98235
 C1445 C 0.62303 0.46385 0.96426
 C1446 C 0.62335 0.44863 0.94887
 H1447 H 0.62259 0.54448 0.99104
 H1448 H 0.62269 0.48968 1.04555
 H1449 H 0.62315 0.52039 1.07687
 H1450 H 0.62306 0.57558 1.02191
 C1451 C 0.37701 1.04005 0.49100
 C1452 C 0.37705 1.01573 0.48477
 C1453 C 0.37695 1.00906 0.46054
 C1454 C 0.37673 1.02662 0.44258
 C1455 C 0.37657 1.05126 0.44857
 C1456 C 0.37679 1.05767 0.47313
 C1457 C 0.37701 0.99766 0.50328
 C1458 C 0.37689 0.98259 0.51883
 C1459 C 0.37666 0.96494 0.53704
 C1460 C 0.37642 0.94978 0.55250
 H1461 H 0.37710 1.04542 0.50971
 H1462 H 0.37699 0.99027 0.45552
 H1463 H 0.37663 1.02079 0.42401
 H1464 H 0.37674 1.07632 0.47867
 C1465 C -0.03980 0.62344 0.49166
 C1466 C -0.01556 0.62290 0.48515
 C1467 C -0.00914 0.62239 0.46086
 C1468 C -0.02686 0.62254 0.44312
 C1469 C -0.05133 0.62324 0.44944
 C1470 C -0.05759 0.62360 0.47395
 C1471 C 0.00276 0.62306 0.50336
 C1472 C 0.01815 0.62329 0.51855
 C1473 C 0.03619 0.62363 0.53633
 C1474 C 0.05155 0.62395 0.55156
 H1475 H -0.04496 0.62383 0.51042
 H1476 H 0.00959 0.62195 0.45563
 H1477 H -0.02137 0.62220 0.42446
 H1478 H -0.07621 0.62409 0.47948
 C1479 C 0.46136 0.37677 1.00926
 C1480 C 0.48555 0.37622 1.01594
 C1481 C 0.49178 0.37550 1.04026
 C1482 C 0.47391 0.37530 1.05787
 C1483 C 0.44950 0.37581 1.05137
 C1484 C 0.44343 0.37657 1.02683
 C1485 C 0.50400 0.37630 0.99787
 C1486 C 0.51949 0.37630 0.98277
 C1487 C 0.53760 0.37625 0.96507
 C1488 C 0.55300 0.37616 0.94987
 H1489 H 0.45635 0.37734 0.99046
 H1490 H 0.51046 0.37507 1.04562
 H1491 H 0.47926 0.37472 1.07656
 H1492 H 0.42485 0.37703 1.02117
 C1493 C 0.46097 -0.00858 0.62264
 C1494 C 0.48520 -0.01511 0.62295
 C1495 C 0.49159 -0.03940 0.62329
 C1496 C 0.47383 -0.05712 0.62341
 C1497 C 0.44937 -0.05076 0.62320
 C1498 C 0.44316 -0.02624 0.62275
 C1499 C 0.50348 0.00314 0.62307
 C1500 C 0.51874 0.01846 0.62324
 C1501 C 0.53659 0.03641 0.62350
 C1502 C 0.55186 0.05173 0.62374
 H1503 H 0.45582 0.01018 0.62236
 H1504 H 0.51031 -0.04465 0.62354
 H1505 H 0.47928 -0.07578 0.62374
 H1506 H 0.42455 -0.02066 0.62256
 C1507 C -0.00810 0.54025 0.37789
 C1508 C -0.01462 0.51599 0.37791
 C1509 C -0.03888 0.50959 0.37767
 C1510 C -0.05659 0.52735 0.37731
 C1511 C -0.05026 0.55184 0.37716
 C1512 C -0.02578 0.55807 0.37753
 C1513 C 0.00356 0.49764 0.37796
 C1514 C 0.01872 0.48221 0.37786
 C1515 C 0.03645 0.46413 0.37760
 C1516 C 0.05163 0.44872 0.37726
 H1517 H 0.01064 0.54540 0.37808
 H1518 H -0.04411 0.49086 0.37769
 H1519 H -0.07522 0.52187 0.37708
 H1520 H -0.02024 0.57671 0.37749
 C1521 C -0.00860 1.04031 0.87760
 C1522 C -0.01503 1.01605 0.87812
 C1523 C -0.03927 1.00960 0.87828
 C1524 C -0.05705 1.02729 0.87782
 C1525 C -0.05088 1.05188 0.87716
 C1526 C -0.02632 1.05810 0.87714
 C1527 C 0.00323 0.99775 0.87825
 C1528 C 0.01847 0.98238 0.87822
 C1529 C 0.03630 0.96436 0.87804
 C1530 C 0.05154 0.94899 0.87777
 H1531 H 0.01013 1.04551 0.87748
 H1532 H -0.04444 0.99085 0.87868
 H1533 H -0.07563 1.02160 0.87792
 H1534 H -0.02068 1.07670 0.87671
 C1535 C 0.75854 0.62207 0.28915
 C1536 C 0.76515 0.62170 0.26490
 C1537 C 0.78945 0.62176 0.25858
 C1538 C 0.80708 0.62227 0.27642
 C1539 C 0.80065 0.62273 0.30089
 C1540 C 0.77614 0.62257 0.30704
 C1541 C 0.74704 0.62157 0.24647
 C1542 C 0.73191 0.62164 0.23101
 C1543 C 0.71417 0.62194 0.21293
 C1544 C 0.69896 0.62242 0.19756
 H1545 H 0.73977 0.62206 0.29423
 H1546 H 0.79477 0.62151 0.23986
 H1547 H 0.82574 0.62239 0.27100
 H1548 H 0.77052 0.62294 0.32566
 C1549 C 0.28928 0.87834 0.74150
 C1550 C 0.26501 0.87891 0.73516
 C1551 C 0.25847 0.87911 0.71089
 C1552 C 0.27612 0.87865 0.69302
 C1553 C 0.30061 0.87796 0.69920
 C1554 C 0.30697 0.87788 0.72369
 C1555 C 0.24684 0.87898 0.75356
 C1556 C 0.23166 0.87884 0.76900
 C1557 C 0.21389 0.87846 0.78709
 C1558 C 0.19866 0.87792 0.80247
 H1559 H 0.29455 0.87815 0.76024
 H1560 H 0.23972 0.87952 0.70576
 H1561 H 0.27056 0.87871 0.67438
 H1562 H 0.32561 0.87733 0.72915
 C1563 C 0.21034 0.37775 0.25864
 C1564 C 0.23460 0.37858 0.26499
 C1565 C 0.24116 0.37899 0.28924
 C1566 C 0.22354 0.37847 0.30712
 C1567 C 0.19906 0.37751 0.30094
 C1568 C 0.19268 0.37722 0.27646
 C1569 C 0.25274 0.37867 0.24660
 C1570 C 0.26791 0.37855 0.23117
 C1571 C 0.28570 0.37815 0.21314
 C1572 C 0.30097 0.37757 0.19782
 H1573 H 0.20506 0.37739 0.23992
 H1574 H 0.25991 0.37961 0.29434
 H1575 H 0.22912 0.37870 0.32575
 H1576 H 0.17404 0.37647 0.27102
 C1577 C 0.87814 0.71022 0.25825
 C1578 C 0.87798 0.73449 0.26475
 C1579 C 0.87749 0.74093 0.28903
 C1580 C 0.87706 0.72320 0.30677
 C1581 C 0.87710 0.69870 0.30046
 C1582 C 0.87771 0.69243 0.27596
 C1583 C 0.87801 0.75281 0.24655
 C1584 C 0.87787 0.76823 0.23138
 C1585 C 0.87749 0.78630 0.21363
 C1586 C 0.87700 0.80167 0.19843
 H1587 H 0.87848 0.70505 0.23949
 H1588 H 0.87734 0.75967 0.29426
 H1589 H 0.87658 0.72871 0.32542
 H1590 H 0.87773 0.67378 0.27043
 C1591 C 0.62260 0.28938 0.75891
 C1592 C 0.62238 0.26513 0.76548
 C1593 C 0.62249 0.25878 0.78978
 C1594 C 0.62294 0.27658 0.80748
 C1595 C 0.62330 0.30105 0.80110
 C1596 C 0.62305 0.30723 0.77657
 C1597 C 0.62233 0.24675 0.74731
 C1598 C 0.62247 0.23131 0.73213
 C1599 C 0.62284 0.21326 0.71435
 C1600 C 0.62334 0.19790 0.69911
 H1601 H 0.62254 0.29449 0.74013
 H1602 H 0.62234 0.24006 0.79506
 H1603 H 0.62311 0.27113 0.82615
 H1604 H 0.62331 0.32585 0.77099
 C1605 C 0.78998 0.24150 0.87777
 C1606 C 0.76574 0.23497 0.87805
 C1607 C 0.75937 0.21068 0.87790
 C1608 C 0.77714 0.19296 0.87739
 C1609 C 0.80160 0.19931 0.87702
 C1610 C 0.80780 0.22382 0.87726
 C1611 C 0.74739 0.25318 0.87822
 C1612 C 0.73199 0.26840 0.87819
 C1613 C 0.71396 0.28622 0.87795
 C1614 C 0.69861 0.30146 0.87754
 H1615 H 0.79511 0.26026 0.87785
 H1616 H 0.74066 0.20542 0.87808
 H1617 H 0.77168 0.17431 0.87720
 H1618 H 0.82641 0.22938 0.87697
 C1619 C 0.25844 0.79015 0.62244
 C1620 C 0.26477 0.76584 0.62228
 C1621 C 0.28899 0.75924 0.62247
 C1622 C 0.30685 0.77687 0.62289
 C1623 C 0.30069 0.80139 0.62315
 C1624 C 0.27624 0.80781 0.62286
 C1625 C 0.24639 0.74769 0.62219
 C1626 C 0.23099 0.73251 0.62228
 C1627 C 0.21299 0.71471 0.62258
 C1628 C 0.19766 0.69945 0.62303
 H1629 H 0.23974 0.79546 0.62232
 H1630 H 0.29408 0.74047 0.62237
 H1631 H 0.32545 0.77125 0.62312
 H1632 H 0.27082 0.82648 0.62307
   
