data_POSCAR
  _audit_creation_date              2014-09-24
  _audit_creation_method            'ToBaCCo'
  _symmetry_space_group_name_H-M    'P1'
  _symmetry_Int_Tables_number       1
  _symmetry_cell_setting            triclinic
  loop_
  _symmetry_equiv_pos_as_xyz
 x,y,z
_cell_length_a 47.7782
_cell_length_b 47.5355
_cell_length_c 57.4626
_cell_angle_alpha 91.151100
_cell_angle_beta 89.987600
_cell_angle_gamma 89.364500
loop_
  _atom_site_label
  _atom_site_type_symbol
  _atom_site_fract_x
  _atom_site_fract_y
  _atom_site_fract_z
C1 C 1.20532 0.24559 0.28972
 H2 H 1.21053 0.22380 0.29288
 C3 C 1.18580 0.25967 0.30390
 H4 H 1.17651 0.24860 0.31819
 C5 C 1.21212 0.28657 0.26770
 H6 H 1.22240 0.29690 0.25351
 C7 C 1.19241 0.30134 0.28123
 H8 H 1.18755 0.32296 0.27708
 N9 N 1.21831 0.25925 0.27223
 C10 C 1.24179 0.19943 0.21707
 H11 H 1.26357 0.20428 0.21435
 C12 C 1.22823 0.18142 0.20135
 H13 H 1.23988 0.17252 0.18676
 C14 C 1.19962 0.20728 0.23797
 H15 H 1.18825 0.21774 0.25191
 C16 C 1.18535 0.18915 0.22289
 H17 H 1.16331 0.18554 0.22583
 Zn18 Zn 1.24545 0.23960 0.25392
 N19 N 1.22731 0.21230 0.23477
 C20 C 1.29022 0.20249 0.26512
 N21 N 1.27188 0.22208 0.27373
 C22 C 1.27233 0.22984 0.29658
 C23 C 1.29027 0.21645 0.31202
 C24 C 1.30887 0.18870 0.27988
 C25 C 1.25814 0.26715 0.21208
 C26 C 1.27370 0.28443 0.19776
 C27 C 1.30126 0.29857 0.23118
 C28 C 1.28530 0.28081 0.24484
 N29 N 1.26457 0.26518 0.23504
 H30 H 1.29008 0.19701 0.24682
 H31 H 1.25894 0.24673 0.30295
 H32 H 1.29016 0.22428 0.32981
 H33 H 1.32170 0.17216 0.27215
 H34 H 1.24108 0.25514 0.20478
 H35 H 1.26857 0.28548 0.17944
 H36 H 1.31824 0.31026 0.23908
 H37 H 1.28983 0.27898 0.26320
 C38 C 1.19949 0.17643 0.20394
 C39 C 1.17918 0.28802 0.29985
 C40 C 1.29583 0.30009 0.20723
 C41 C 1.30874 0.19479 0.30413
 C42 C 0.72710 -0.22070 0.27315
 H43 H 0.72504 -0.24331 0.27178
 C44 C 0.70837 -0.20489 0.28686
 H45 H 0.69210 -0.21559 0.29622
 C46 C 0.75160 -0.17954 0.26320
 H47 H 0.76863 -0.16984 0.25407
 C48 C 0.73334 -0.16291 0.27676
 H49 H 0.73629 -0.14037 0.27771
 N50 N 0.74833 -0.20791 0.26186
 C51 C 0.75780 -0.28397 0.22362
 H52 H 0.77564 -0.29285 0.23245
 C53 C 0.74084 -0.30153 0.20993
 H54 H 0.74630 -0.32362 0.20808
 C55 C 0.72904 -0.24462 0.21519
 H56 H 0.72409 -0.22253 0.21775
 C57 C 0.71146 -0.26138 0.20154
 H58 H 0.69316 -0.25185 0.19372
 Zn59 Zn 0.77362 -0.23100 0.24457
 N60 N 0.75187 -0.25596 0.22576
 C61 C 0.81755 -0.26854 0.25748
 N62 N 0.79682 -0.25115 0.26569
 C63 C 0.79290 -0.24704 0.28898
 C64 C 0.80989 -0.26087 0.30496
 C65 C 0.83516 -0.28269 0.27289
 C66 C 0.78372 -0.19395 0.20766
 C67 C 0.79961 -0.17727 0.19303
 C68 C 0.84077 -0.18955 0.21513
 C69 C 0.82407 -0.20591 0.22940
 N70 N 0.79611 -0.20813 0.22531
 H71 H 0.82071 -0.27106 0.23891
 H72 H 0.77666 -0.23290 0.29530
 H73 H 0.80593 -0.25763 0.32338
 H74 H 0.85179 -0.29605 0.26595
 H75 H 0.76146 -0.19559 0.20484
 H76 H 0.78939 -0.16663 0.17882
 H77 H 0.86295 -0.18801 0.21874
 H78 H 0.83353 -0.21663 0.24385
 C79 C 0.71731 -0.29026 0.19858
 C80 C 0.71151 -0.17561 0.28898
 C81 C 0.82859 -0.17507 0.19656
 C82 C 0.83144 -0.27896 0.29703
 C83 C 0.71635 0.26794 -0.20790
 H84 H 0.71961 0.24546 -0.20664
 C85 C 0.70052 0.28247 -0.19097
 H86 H 0.69189 0.27097 -0.17663
 C87 C 0.72458 0.31024 -0.22774
 H88 H 0.73409 0.32106 -0.24202
 C89 C 0.70881 0.32557 -0.21129
 H90 H 0.70604 0.34800 -0.21342
 N91 N 0.72792 0.28192 -0.22587
 C92 C 0.73901 0.22617 -0.28634
 H93 H 0.76075 0.23025 -0.29014
 C94 C 0.72361 0.20863 -0.30114
 H95 H 0.73364 0.19957 -0.31648
 C96 C 0.69952 0.23383 -0.26199
 H97 H 0.69021 0.24376 -0.24675
 C98 C 0.68333 0.21631 -0.27631
 H99 H 0.66172 0.21266 -0.27170
 Zn100 Zn 0.74991 0.26143 -0.24810
 N101 N 0.72693 0.23814 -0.26708
 C102 C 0.77735 0.21037 -0.23664
 N103 N 0.77624 0.23854 -0.23194
 C104 C 0.79262 0.25027 -0.21506
 C105 C 0.81107 0.23352 -0.20225
 C106 C 0.79553 0.19292 -0.22436
 C107 C 0.75232 0.29885 -0.28490
 C108 C 0.76426 0.31706 -0.30080
 C109 C 0.80864 0.31069 -0.28155
 C110 C 0.79581 0.29228 -0.26626
 N111 N 0.76810 0.28681 -0.26812
 H112 H 0.76397 0.20121 -0.24980
 H113 H 0.79101 0.27262 -0.21130
 H114 H 0.82349 0.24321 -0.18860
 H115 H 0.79621 0.17065 -0.22869
 H116 H 0.73032 0.29388 -0.28621
 H117 H 0.75055 0.32450 -0.31429
 H118 H 0.83036 0.31505 -0.27813
 H119 H 0.80806 0.28259 -0.25275
 C120 C 0.69540 0.20331 -0.29615
 C121 C 0.69654 0.31174 -0.19252
 C122 C 0.79317 0.32362 -0.29968
 C123 C 0.81261 0.20434 -0.20676
 C124 C 1.22496 -0.25702 -0.22435
 H125 H 1.22415 -0.27960 -0.22248
 C126 C 1.20769 -0.23947 -0.21069
 H127 H 1.19368 -0.24870 -0.19822
 C128 C 1.24504 -0.21756 -0.24226
 H129 H 1.26000 -0.20900 -0.25420
 C130 C 1.22825 -0.19926 -0.22891
 H131 H 1.23005 -0.17679 -0.23117
 N132 N 1.24292 -0.24588 -0.23996
 C133 C 1.25930 -0.31506 -0.28938
 H134 H 1.28194 -0.31559 -0.28891
 C135 C 1.24493 -0.33362 -0.30410
 H136 H 1.25667 -0.34868 -0.31471
 C137 C 1.21660 -0.29461 -0.27609
 H138 H 1.20565 -0.27894 -0.26560
 C139 C 1.20139 -0.31277 -0.29055
 H140 H 1.17880 -0.31083 -0.29098
 Zn141 Zn 1.26640 -0.27088 -0.25733
 N142 N 1.24503 -0.29620 -0.27565
 C143 C 1.28637 -0.31882 -0.23345
 N144 N 1.28868 -0.29052 -0.23574
 C145 C 1.30571 -0.27516 -0.22158
 C146 C 1.32165 -0.28828 -0.20450
 C147 C 1.30176 -0.33278 -0.21646
 C148 C 1.27499 -0.23529 -0.29431
 C149 C 1.28977 -0.21903 -0.30995
 C150 C 1.33291 -0.23557 -0.29277
 C151 C 1.31724 -0.25133 -0.27727
 N152 N 1.28880 -0.25052 -0.27808
 H153 H 1.27208 -0.33055 -0.24439
 H154 H 1.30679 -0.25261 -0.22354
 H155 H 1.33538 -0.27567 -0.19366
 H156 H 1.29905 -0.35520 -0.21456
 H157 H 1.25235 -0.23536 -0.29476
 H158 H 1.27820 -0.20629 -0.32212
 H159 H 1.35553 -0.23665 -0.29196
 H160 H 1.32786 -0.26426 -0.26472
 C161 C 1.21556 -0.33258 -0.30485
 C162 C 1.20925 -0.21015 -0.21287
 C163 C 1.31916 -0.21890 -0.30927
 C164 C 1.31966 -0.31749 -0.20163
 C165 C 0.27011 0.23039 0.71003
 H166 H 0.24823 0.23391 0.70605
 C167 C 0.28603 0.21160 0.69639
 H168 H 0.27634 0.20093 0.68170
 C169 C 0.30935 0.24042 0.73391
 H170 H 0.31823 0.25151 0.74872
 C171 C 0.32610 0.22194 0.72064
 H172 H 0.34784 0.21890 0.72538
 N173 N 0.28189 0.24419 0.72846
 C174 C 0.21522 0.26037 0.77913
 H175 H 0.21552 0.28307 0.78095
 C176 C 0.19740 0.24485 0.79313
 H177 H 0.18482 0.25640 0.80577
 C178 C 0.23345 0.21868 0.76160
 H179 H 0.24765 0.20841 0.74945
 C180 C 0.21589 0.20234 0.77508
 H181 H 0.21649 0.17986 0.77189
 Zn182 Zn 0.25887 0.26875 0.74649
 N183 N 0.23300 0.24717 0.76388
 C184 C 0.21116 0.29553 0.72684
 N185 N 0.23949 0.29276 0.72569
 C186 C 0.25432 0.30540 0.70865
 C187 C 0.24068 0.32157 0.69195
 C188 C 0.19671 0.31149 0.71055
 C189 C 0.27950 0.28531 0.79066
 C190 C 0.29508 0.30106 0.80663
 C191 C 0.31570 0.32572 0.77467
 C192 C 0.29943 0.30966 0.75927
 N193 N 0.28143 0.29017 0.76746
 H194 H 0.19951 0.28493 0.74005
 H195 H 0.27668 0.30205 0.70744
 H196 H 0.25276 0.33076 0.67815
 H197 H 0.17415 0.31336 0.71182
 H198 H 0.26604 0.26904 0.79693
 H199 H 0.29315 0.29693 0.82502
 H200 H 0.32959 0.34145 0.76791
 H201 H 0.30120 0.31285 0.74080
 C202 C 0.19763 0.21512 0.79164
 C203 C 0.31442 0.20715 0.70166
 C204 C 0.31327 0.32174 0.79870
 C205 C 0.21143 0.32448 0.69262
 C206 C 0.73689 0.69992 0.71769
 H207 H 0.71451 0.70344 0.71674
 C208 C 0.75012 0.68220 0.70141
 H209 H 0.73767 0.67189 0.68808
 C210 C 0.78000 0.70867 0.73677
 H211 H 0.79146 0.71897 0.75067
 C212 C 0.79415 0.69114 0.72074
 H213 H 0.81660 0.68848 0.72226
 N214 N 0.75188 0.71270 0.73491
 C215 C 0.68839 0.72634 0.78811
 H216 H 0.68726 0.74907 0.78916
 C217 C 0.67113 0.71045 0.80217
 H218 H 0.65740 0.72169 0.81418
 C219 C 0.70967 0.68504 0.77232
 H220 H 0.72488 0.67519 0.76077
 C221 C 0.69306 0.66828 0.78627
 H222 H 0.69533 0.64569 0.78434
 Zn223 Zn 0.73136 0.73611 0.75576
 N224 N 0.70717 0.71352 0.77352
 C225 C 0.68145 0.76071 0.73772
 N226 N 0.70994 0.76145 0.73748
 C227 C 0.72370 0.77890 0.72301
 C228 C 0.70886 0.79707 0.70863
 C229 C 0.66579 0.77848 0.72359
 C230 C 0.75264 0.75265 0.79985
 C231 C 0.76871 0.76812 0.81569
 C232 C 0.79207 0.78955 0.78343
 C233 C 0.77540 0.77376 0.76816
 N234 N 0.75567 0.75614 0.77651
 H235 H 0.67067 0.74592 0.74838
 H236 H 0.74622 0.77820 0.72204
 H237 H 0.72024 0.81043 0.69697
 H238 H 0.64316 0.77766 0.72417
 H239 H 0.73774 0.73790 0.80638
 H240 H 0.76582 0.76508 0.83416
 H241 H 0.80722 0.80390 0.77643
 H242 H 0.77840 0.77559 0.74966
 C243 C 0.67338 0.68080 0.80173
 C244 C 0.77916 0.67766 0.70273
 C245 C 0.78848 0.78714 0.80755
 C246 C 0.67950 0.79697 0.70880
 C247 C 0.75796 0.19779 0.20882
 H248 H 0.73548 0.19847 0.21111
 C249 C 0.76976 0.18156 0.19073
 H250 H 0.75623 0.16938 0.17937
 C251 C 0.80283 0.21300 0.22091
 H252 H 0.81560 0.22578 0.23235
 C253 C 0.81548 0.19715 0.20305
 H254 H 0.83798 0.19795 0.20100
 N255 N 0.77457 0.21286 0.22357
 C256 C 0.72345 0.22749 0.28543
 H257 H 0.72487 0.25015 0.28690
 C258 C 0.70780 0.21283 0.30156
 H259 H 0.69680 0.22454 0.31514
 C260 C 0.73575 0.18502 0.26548
 H261 H 0.74705 0.17427 0.25160
 C262 C 0.72057 0.16945 0.28142
 H263 H 0.72045 0.14674 0.27962
 Zn264 Zn 0.75713 0.23560 0.24682
 N265 N 0.73660 0.21355 0.26761
 C266 C 0.70518 0.26211 0.23601
 N267 N 0.73312 0.26109 0.23147
 C268 C 0.74466 0.27753 0.21501
 C269 C 0.72800 0.29633 0.20264
 C270 C 0.68778 0.28071 0.22414
 C271 C 0.80200 0.23979 0.27789
 C272 C 0.82113 0.25310 0.29268
 C273 C 0.80285 0.29801 0.28040
 C274 C 0.78408 0.28385 0.26584
 N275 N 0.78403 0.25524 0.26481
 H276 H 0.69621 0.24839 0.24868
 H277 H 0.76686 0.27587 0.21144
 H278 H 0.73755 0.30889 0.18936
 H279 H 0.66568 0.28151 0.22829
 H280 H 0.80122 0.21706 0.27697
 H281 H 0.83534 0.24043 0.30287
 H282 H 0.80209 0.32077 0.28139
 H283 H 0.76914 0.29576 0.25583
 C284 C 0.70617 0.18337 0.29971
 C285 C 0.79892 0.18106 0.18769
 C286 C 0.82161 0.28262 0.29417
 C287 C 0.69913 0.29811 0.20715
 C288 C 0.23871 0.71517 0.22625
 H289 H 0.21613 0.71417 0.22528
 C290 C 0.25516 0.69658 0.21280
 H291 H 0.24491 0.68092 0.20196
 C292 C 0.27924 0.73692 0.24161
 H293 H 0.28860 0.75316 0.25236
 C294 C 0.29646 0.71904 0.22822
 H295 H 0.31889 0.72191 0.22891
 N296 N 0.25091 0.73466 0.24048
 C297 C 0.18471 0.75888 0.29007
 H298 H 0.18561 0.78153 0.28884
 C299 C 0.16572 0.74671 0.30528
 H300 H 0.15179 0.76016 0.31550
 C301 C 0.20185 0.71391 0.27815
 H302 H 0.21638 0.70118 0.26800
 C303 C 0.18313 0.70087 0.29307
 H304 H 0.18346 0.67815 0.29412
 Zn305 Zn 0.22766 0.76088 0.25698
 N306 N 0.20208 0.74243 0.27670
 C307 C 0.17978 0.78154 0.23278
 N308 N 0.20820 0.78198 0.23431
 C309 C 0.22381 0.79574 0.21845
 C310 C 0.21090 0.81009 0.20033
 C311 C 0.16600 0.79555 0.21486
 C312 C 0.26419 0.77095 0.29354
 C313 C 0.28229 0.78579 0.30818
 C314 C 0.27053 0.82810 0.28768
 C315 C 0.25266 0.81228 0.27337
 N316 N 0.25022 0.78415 0.27629
 H317 H 0.16774 0.76991 0.24517
 H318 H 0.24640 0.79519 0.21972
 H319 H 0.22377 0.82055 0.18771
 H320 H 0.14337 0.79510 0.21402
 H321 H 0.26134 0.74863 0.29583
 H322 H 0.29179 0.77406 0.32206
 H323 H 0.27263 0.85004 0.28358
 H324 H 0.24112 0.82249 0.25969
 C325 C 0.16467 0.71730 0.30685
 C326 C 0.28452 0.69850 0.21348
 C327 C 0.28640 0.81505 0.30545
 C328 C 0.18159 0.81005 0.19829
 O329 O 1.06548 0.03378 -0.00070
 O330 O 0.96686 -0.00936 0.01179
 O331 O 0.98058 0.04159 0.01065
 O332 O 1.03746 -0.05344 -0.00463
 O333 O 0.94745 0.03111 -0.01102
 O334 O 1.06256 -0.01775 0.00766
 O335 O 0.98751 -0.04856 0.00436
 O336 O 1.02732 0.04606 0.01548
 C337 C 1.05298 0.04386 0.01651
 C338 C 0.97302 -0.03350 0.01791
 C339 C 0.95548 0.04488 0.00616
 C340 C 1.05513 -0.04281 0.00947
 O341 O 1.06402 -0.02895 -0.03660
 O342 O 0.96881 0.01164 -0.04863
 O343 O 1.03517 0.05812 -0.03084
 O344 O 0.97640 -0.03927 -0.04170
 O345 O 0.93951 -0.02116 -0.02506
 O346 O 1.06062 0.02293 -0.04462
 O347 O 1.02477 -0.04274 -0.05024
 O348 O 0.98480 0.05216 -0.03674
 Co349 Co 1.05830 0.00250 -0.01840
 Co350 Co 0.96965 0.00025 -0.01850
 Co351 Co 1.00719 0.04601 -0.01101
 Co352 Co 1.00691 -0.04186 -0.02243
 O353 O 1.01222 0.00289 -0.01706
 C354 C 1.05047 -0.04106 -0.05231
 C355 C 0.97299 0.03720 -0.05231
 C356 C 1.05228 0.04794 -0.04579
 C357 C 0.95042 -0.04140 -0.03762
 O358 O 1.04567 0.53085 0.50838
 O359 O 0.93016 0.47874 0.50862
 O360 O 0.96415 0.53372 0.53306
 O361 O 1.01578 0.45357 0.52550
 O362 O 0.93133 0.52954 0.50857
 O363 O 1.04812 0.47887 0.50917
 O364 O 0.96400 0.46323 0.53018
 O365 O 1.01344 0.53708 0.53335
 C366 C 1.03871 0.53556 0.52902
 C367 C 0.93880 0.46953 0.52789
 C368 C 0.93880 0.53378 0.52913
 C369 C 1.04066 0.46111 0.52391
 O370 O 1.03371 0.47571 0.46524
 O371 O 0.95507 0.52784 0.46540
 O372 O 1.01261 0.56081 0.49015
 O373 O 0.95706 0.44559 0.48671
 O374 O 0.95130 0.47868 0.46345
 O375 O 1.02577 0.52866 0.46515
 O376 O 1.00847 0.44266 0.48100
 O377 O 0.96215 0.56010 0.49076
 Co378 Co 1.03348 0.50355 0.48792
 Co379 Co 0.94577 0.50348 0.48753
 Co380 Co 0.98802 0.54414 0.51066
 Co381 Co 0.98641 0.45620 0.50517
 O382 O 0.98889 0.50148 0.49785
 C383 C 1.02472 0.45106 0.46529
 C384 C 0.95712 0.55318 0.47006
 C385 C 1.02074 0.55387 0.46989
 C386 C 0.95206 0.45318 0.46659
 O387 O 0.55861 0.03009 0.51782
 O388 O 0.45154 -0.03466 0.51499
 O389 O 0.47319 0.05119 0.51913
 O390 O 0.53707 -0.05569 0.51560
 O391 O 0.45700 0.01235 0.53050
 O392 O 0.55268 -0.01731 0.52968
 O393 O 0.48995 -0.05084 0.52756
 O394 O 0.51999 0.04512 0.53129
 C395 C 0.54542 0.04222 0.53390
 C396 C 0.46449 -0.04794 0.53013
 C397 C 0.46100 0.03764 0.53445
 C398 C 0.54854 -0.04268 0.53206
 O399 O 0.55860 -0.03474 0.48460
 O400 O 0.45189 0.03200 0.48659
 O401 O 0.53740 0.05140 0.48628
 O402 O 0.47326 -0.05433 0.48196
 O403 O 0.45696 -0.01484 0.47134
 O404 O 0.55305 0.01264 0.47254
 O405 O 0.52062 -0.04912 0.47012
 O406 O 0.49025 0.04697 0.47357
 Co407 Co 0.55081 -0.00226 0.50111
 Co408 Co 0.45932 -0.00134 0.50088
 Co409 Co 0.50522 0.04384 0.50238
 Co410 Co 0.50524 -0.04767 0.49898
 O411 O 0.50514 -0.00187 0.50085
 C412 C 0.54598 -0.04555 0.46777
 C413 C 0.46483 0.04406 0.47090
 C414 C 0.54972 0.03817 0.47027
 C415 C 0.46010 -0.04027 0.46731
 O416 O 0.54455 0.51959 0.04680
 O417 O 0.45072 0.48456 0.04563
 O418 O 0.48056 0.54925 0.04825
 O419 O 0.51340 0.45391 0.04538
 O420 O 0.44304 0.53168 0.03487
 O421 O 0.55150 0.47223 0.03424
 O422 O 0.46708 0.44673 0.03100
 O423 O 0.52733 0.55751 0.03417
 C424 C 0.54117 0.54521 0.04936
 C425 C 0.45439 0.45899 0.04728
 C426 C 0.45539 0.54448 0.05097
 C427 C 0.53834 0.45884 0.04915
 O428 O 0.54645 0.48862 -0.01124
 O429 O 0.44961 0.51589 -0.01110
 O430 O 0.50876 0.55163 -0.00998
 O431 O 0.48617 0.45409 -0.01320
 O432 O 0.44680 0.46834 -0.00040
 O433 O 0.54833 0.53632 0.00146
 O434 O 0.53310 0.44961 0.00140
 O435 O 0.46173 0.55481 0.00375
 Co436 Co 0.54297 0.50398 0.01780
 Co437 Co 0.45224 0.50032 0.01729
 Co438 Co 0.49486 0.54825 0.01898
 Co439 Co 0.49964 0.45613 0.01625
 O440 O 0.49747 0.50218 0.01762
 C441 C 0.54475 0.46295 -0.01423
 C442 C 0.45139 0.54156 -0.01300
 C443 C 0.53394 0.54787 -0.01389
 C444 C 0.46088 0.45761 -0.01665
 C445 C 1.15483 0.12961 0.15106
 C446 C 1.14231 0.15291 0.16251
 C447 C 1.15673 0.16781 0.17976
 C448 C 1.18395 0.15963 0.18623
 C449 C 1.19635 0.13603 0.17505
 C450 C 1.18197 0.12123 0.15757
 C451 C 1.13973 0.11479 0.13207
 N452 N 1.15321 0.09630 0.11750
 N453 N 1.13967 0.08395 0.09984
 C454 C 1.11209 0.08954 0.09611
 N455 N 1.09862 0.10782 0.11083
 N456 N 1.11215 0.12020 0.12840
 C457 C 1.09706 0.07677 0.07609
 C458 C 1.06795 0.08046 0.07402
 C459 C 1.05370 0.06953 0.05476
 C460 C 1.06824 0.05479 0.03704
 C461 C 1.09728 0.05070 0.03918
 C462 C 1.11156 0.06153 0.05857
 H463 H 1.12152 0.16010 0.15780
 H464 H 1.14675 0.18623 0.18759
 H465 H 1.21715 0.12896 0.17981
 H466 H 1.19212 0.10326 0.14917
 H467 H 1.05609 0.09196 0.08723
 H468 H 1.03129 0.07292 0.05366
 H469 H 1.10896 0.03922 0.02584
 H470 H 1.13399 0.05831 0.05964
 C471 C 1.16828 0.61495 0.64777
 C472 C 1.19399 0.62627 0.64090
 C473 C 1.20955 0.64290 0.65639
 C474 C 1.19978 0.64856 0.67910
 C475 C 1.17442 0.63671 0.68613
 C476 C 1.15885 0.62010 0.67067
 C477 C 1.15079 0.59897 0.63091
 N478 N 1.12497 0.59005 0.63704
 N479 N 1.10850 0.57721 0.62156
 C480 C 1.11714 0.57267 0.59927
 N481 N 1.14313 0.58123 0.59320
 N482 N 1.15960 0.59411 0.60869
 C483 C 1.09788 0.56043 0.58166
 C484 C 1.10680 0.55513 0.55863
 C485 C 1.08780 0.54612 0.54160
 C486 C 1.05950 0.54241 0.54724
 C487 C 1.05084 0.54660 0.57042
 C488 C 1.06981 0.55543 0.58744
 H489 H 1.20186 0.62280 0.62340
 H490 H 1.22885 0.65198 0.65034
 H491 H 1.16656 0.64032 0.70363
 H492 H 1.13923 0.61160 0.67661
 H493 H 1.12833 0.55856 0.55362
 H494 H 1.09509 0.54283 0.52389
 H495 H 1.02920 0.54364 0.57534
 H496 H 1.06221 0.55913 0.60500
 C497 C 0.64786 0.14936 0.65760
 C498 C 0.67589 0.14291 0.66292
 C499 C 0.69112 0.16018 0.67814
 C500 C 0.67877 0.18443 0.68834
 C501 C 0.65062 0.19067 0.68329
 C502 C 0.63533 0.17332 0.66813
 C503 C 0.63207 0.13160 0.64073
 N504 N 0.60437 0.13631 0.63689
 N505 N 0.59044 0.12092 0.62121
 C506 C 0.60361 0.10017 0.60865
 N507 N 0.63127 0.09535 0.61259
 N508 N 0.64518 0.11070 0.62831
 C509 C 0.58840 0.08389 0.59044
 C510 C 0.60291 0.06541 0.57516
 C511 C 0.58886 0.05145 0.55706
 C512 C 0.55996 0.05553 0.55392
 C513 C 0.54526 0.07329 0.56961
 C514 C 0.55934 0.08739 0.58761
 H515 H 0.68616 0.12453 0.65529
 H516 H 0.71259 0.15445 0.68199
 H517 H 0.64055 0.20934 0.69062
 H518 H 0.61381 0.17898 0.66436
 H519 H 0.62528 0.06213 0.57685
 H520 H 0.60069 0.03775 0.54532
 H521 H 0.52295 0.07676 0.56770
 H522 H 0.54746 0.10131 0.59914
 C523 C 0.66233 0.65823 0.15631
 C524 C 0.66848 0.68591 0.15005
 C525 C 0.68657 0.70235 0.16355
 C526 C 0.69882 0.69168 0.18385
 C527 C 0.69286 0.66388 0.19004
 C528 C 0.67490 0.64731 0.17639
 C529 C 0.64286 0.64107 0.14193
 N530 N 0.64044 0.61292 0.14504
 N531 N 0.62318 0.59763 0.13180
 C532 C 0.60747 0.60988 0.11499
 N533 N 0.60981 0.63802 0.11200
 N534 N 0.62712 0.65326 0.12515
 C535 C 0.58886 0.59295 0.09962
 C536 C 0.57032 0.60642 0.08433
 C537 C 0.55415 0.59079 0.06862
 C538 C 0.55620 0.56129 0.06770
 C539 C 0.57401 0.54768 0.08349
 C540 C 0.59011 0.56336 0.09935
 H541 H 0.65942 0.69492 0.13458
 H542 H 0.69112 0.72341 0.15794
 H543 H 0.70161 0.65508 0.20571
 H544 H 0.67055 0.62610 0.18175
 H545 H 0.56858 0.62914 0.08420
 H546 H 0.54054 0.60190 0.05677
 H547 H 0.57599 0.52495 0.08322
 H548 H 0.60409 0.55230 0.11094
 C549 C 0.87847 -0.12679 0.14944
 C550 C 0.85238 -0.11648 0.15738
 C551 C 0.83634 -0.13198 0.17282
 C552 C 0.84603 -0.15810 0.18078
 C553 C 0.87231 -0.16819 0.17318
 C554 C 0.88831 -0.15276 0.15767
 C555 C 0.89489 -0.11105 0.13213
 N556 N 0.91855 -0.12243 0.12258
 N557 N 0.93261 -0.10892 0.10628
 C558 C 0.92370 -0.08339 0.09885
 N559 N 0.90021 -0.07185 0.10859
 N560 N 0.88611 -0.08539 0.12487
 C561 C 0.93833 -0.06924 0.07960
 C562 C 0.92986 -0.04229 0.07251
 C563 C 0.94199 -0.03010 0.05303
 C564 C 0.96271 -0.04468 0.04013
 C565 C 0.97198 -0.07109 0.04772
 C566 C 0.96000 -0.08320 0.06727
 H567 H 0.84415 -0.09656 0.15146
 H568 H 0.81635 -0.12347 0.17861
 H569 H 0.88025 -0.18836 0.17881
 H570 H 0.90828 -0.16137 0.15194
 H571 H 0.91338 -0.03085 0.08168
 H572 H 0.93444 -0.00968 0.04759
 H573 H 0.98803 -0.08277 0.03821
 H574 H 0.96716 -0.10390 0.07227
 C575 C 0.83132 0.37730 0.65164
 C576 C 0.80215 0.37611 0.65344
 C577 C 0.78947 0.35872 0.66967
 C578 C 0.80552 0.34129 0.68463
 C579 C 0.83508 0.34291 0.68236
 C580 C 0.84757 0.36063 0.66638
 C581 C 0.84500 0.39548 0.63438
 N582 N 0.87249 0.40183 0.63662
 N583 N 0.88531 0.41715 0.62079
 C584 C 0.87129 0.42680 0.60194
 N585 N 0.84368 0.42064 0.59974
 N586 N 0.83077 0.40539 0.61569
 C587 C 0.88662 0.44197 0.58362
 C588 C 0.87489 0.44636 0.56146
 C589 C 0.89125 0.45701 0.54340
 C590 C 0.91957 0.46324 0.54723
 C591 C 0.93057 0.46071 0.56976
 C592 C 0.91434 0.45027 0.58770
 H593 H 0.78900 0.38903 0.64251
 H594 H 0.76698 0.36027 0.67063
 H595 H 0.84931 0.32974 0.69193
 H596 H 0.87019 0.36070 0.66521
 H597 H 0.85352 0.44038 0.55779
 H598 H 0.88224 0.45890 0.52620
 H599 H 0.95220 0.46587 0.57335
 H600 H 0.92395 0.44774 0.60460
 C601 C 0.36440 -0.16591 0.64402
 C602 C 0.34005 -0.17973 0.63661
 C603 C 0.32574 -0.19730 0.65159
 C604 C 0.33522 -0.20123 0.67448
 C605 C 0.35976 -0.18759 0.68182
 C606 C 0.37428 -0.17025 0.66671
 C607 C 0.37919 -0.14695 0.62815
 N608 N 0.40586 -0.13880 0.63259
 N609 N 0.41916 -0.12195 0.61810
 C610 C 0.40625 -0.11240 0.59868
 N611 N 0.37954 -0.12042 0.59435
 N612 N 0.36631 -0.13737 0.60875
 C613 C 0.42114 -0.09433 0.58216
 C614 C 0.40619 -0.07987 0.56497
 C615 C 0.42026 -0.06410 0.54850
 C616 C 0.44959 -0.06270 0.54871
 C617 C 0.46455 -0.07655 0.56624
 C618 C 0.45044 -0.09211 0.58287
 H619 H 0.33208 -0.17712 0.61914
 H620 H 0.30728 -0.20794 0.64517
 H621 H 0.36744 -0.18979 0.69941
 H622 H 0.39293 -0.15981 0.67296
 H623 H 0.38359 -0.08095 0.56407
 H624 H 0.40818 -0.05356 0.53524
 H625 H 0.48718 -0.07570 0.56688
 H626 H 0.46256 -0.10300 0.59590
 C627 C 0.34830 0.34872 0.16273
 C628 C 0.33866 0.36018 0.18406
 C629 C 0.32170 0.34440 0.19862
 C630 C 0.31377 0.31702 0.19198
 C631 C 0.32335 0.30562 0.17067
 C632 C 0.34052 0.32122 0.15627
 C633 C 0.36612 0.36527 0.14710
 N634 N 0.37932 0.35258 0.12872
 N635 N 0.39477 0.36742 0.11423
 C636 C 0.39765 0.39561 0.11744
 N637 N 0.38456 0.40833 0.13590
 N638 N 0.36917 0.39345 0.15047
 C639 C 0.41381 0.41213 0.10059
 C640 C 0.41233 0.44170 0.10092
 C641 C 0.42600 0.45705 0.08388
 C642 C 0.44152 0.44312 0.06626
 C643 C 0.44379 0.41366 0.06641
 C644 C 0.43003 0.39833 0.08333
 H645 H 0.34432 0.38128 0.18956
 H646 H 0.31448 0.35370 0.21493
 H647 H 0.31784 0.28443 0.16528
 H648 H 0.34751 0.31176 0.13996
 H649 H 0.40005 0.45298 0.11399
 H650 H 0.42400 0.47978 0.08425
 H651 H 0.45577 0.40236 0.05315
 H652 H 0.43183 0.37560 0.08268
 C653 C 0.86688 0.15017 -0.16673
 C654 C 0.87559 0.17720 -0.17293
 C655 C 0.85807 0.19476 -0.18590
 C656 C 0.83139 0.18576 -0.19296
 C657 C 0.82272 0.15874 -0.18672
 C658 C 0.84024 0.14117 -0.17385
 C659 C 0.88515 0.13169 -0.15253
 N660 N 0.87742 0.10500 -0.14770
 N661 N 0.89327 0.08877 -0.13425
 C662 C 0.91758 0.09850 -0.12504
 N663 N 0.92544 0.12510 -0.13005
 N664 N 0.90962 0.14131 -0.14353
 C665 C 0.93418 0.08122 -0.10862
 C666 C 0.95684 0.09302 -0.09640
 C667 C 0.97040 0.07804 -0.07893
 C668 C 0.96179 0.05082 -0.07335
 C669 C 0.94028 0.03830 -0.08645
 C670 C 0.92653 0.05339 -0.10385
 H671 H 0.89598 0.18483 -0.16779
 H672 H 0.86558 0.21527 -0.19063
 H673 H 0.80213 0.15127 -0.19148
 H674 H 0.83271 0.12061 -0.16926
 H675 H 0.96348 0.11428 -0.09968
 H676 H 0.98705 0.08818 -0.06923
 H677 H 0.93314 0.01738 -0.08250
 H678 H 0.90933 0.04355 -0.11304
 C679 C 0.88199 0.67647 0.34692
 C680 C 0.87364 0.70452 0.35131
 C681 C 0.85773 0.71913 0.33497
 C682 C 0.84962 0.70600 0.31389
 C683 C 0.85843 0.67812 0.30934
 C684 C 0.87446 0.66357 0.32561
 C685 C 0.89752 0.66033 0.36473
 N686 N 0.90718 0.63393 0.35975
 N687 N 0.91974 0.61873 0.37600
 C688 C 0.92322 0.62920 0.39796
 N689 N 0.91388 0.65576 0.40291
 N690 N 0.90134 0.67102 0.38662
 C691 C 0.93511 0.61112 0.41637
 C692 C 0.93679 0.62061 0.43971
 C693 C 0.94507 0.60219 0.45726
 C694 C 0.95155 0.57395 0.45177
 C695 C 0.95124 0.56493 0.42835
 C696 C 0.94323 0.58327 0.41089
 H697 H 0.87923 0.71517 0.36745
 H698 H 0.85178 0.74075 0.33886
 H699 H 0.85229 0.66723 0.29345
 H700 H 0.88042 0.64196 0.32166
 H701 H 0.93090 0.64201 0.44452
 H702 H 0.94536 0.60973 0.47517
 H703 H 0.95663 0.54340 0.42353
 H704 H 0.94257 0.57525 0.39313
 C705 C 0.35812 0.14841 0.35098
 C706 C 0.33429 0.16325 0.35867
 C707 C 0.31829 0.17899 0.34328
 C708 C 0.32525 0.18019 0.31933
 C709 C 0.34956 0.16511 0.31188
 C710 C 0.36581 0.14974 0.32752
 C711 C 0.37441 0.13135 0.36751
 N712 N 0.40144 0.12380 0.36310
 N713 N 0.41600 0.10879 0.37838
 C714 C 0.40399 0.10055 0.39854
 N715 N 0.37693 0.10796 0.40280
 N716 N 0.36248 0.12309 0.38764
 C717 C 0.41996 0.08449 0.41593
 C718 C 0.40565 0.07022 0.43340
 C719 C 0.42036 0.05653 0.45086
 C720 C 0.44972 0.05704 0.45141
 C721 C 0.46416 0.07065 0.43362
 C722 C 0.44938 0.08416 0.41594
 H723 H 0.32778 0.16260 0.37671
 H724 H 0.29947 0.18860 0.35037
 H725 H 0.35717 0.16590 0.29421
 H726 H 0.38427 0.13864 0.32113
 H727 H 0.38300 0.06983 0.43374
 H728 H 0.40866 0.04602 0.46422
 H729 H 0.48682 0.07119 0.43357
 H730 H 0.46096 0.09499 0.40270
 C731 C 0.36418 0.64063 -0.14666
 C732 C 0.35342 0.66803 -0.14321
 C733 C 0.33915 0.68162 -0.16105
 C734 C 0.33546 0.66824 -0.18286
 C735 C 0.34655 0.64095 -0.18641
 C736 C 0.36066 0.62727 -0.16849
 C737 C 0.37853 0.62597 -0.12746
 N738 N 0.38421 0.59793 -0.12901
 N739 N 0.39647 0.58466 -0.11146
 C740 C 0.40366 0.59891 -0.09166
 N741 N 0.39814 0.62698 -0.09018
 N742 N 0.38580 0.64021 -0.10768
 C743 C 0.41667 0.58413 -0.07187
 C744 C 0.42777 0.59949 -0.05293
 C745 C 0.43929 0.58564 -0.03392
 C746 C 0.43976 0.55612 -0.03336
 C747 C 0.42898 0.54070 -0.05238
 C748 C 0.41763 0.55456 -0.07148
 H749 H 0.35558 0.67887 -0.12656
 H750 H 0.33047 0.70241 -0.15755
 H751 H 0.34449 0.63020 -0.20310
 H752 H 0.36888 0.60625 -0.17179
 H753 H 0.42753 0.62228 -0.05273
 H754 H 0.44761 0.59807 -0.01957
 H755 H 0.42922 0.51791 -0.05246
 H756 H 0.40926 0.54209 -0.08578
 C757 C 1.15857 -0.15473 -0.16960
 C758 C 1.14708 -0.17919 -0.17971
 C759 C 1.16349 -0.19717 -0.19378
 C760 C 1.19167 -0.19100 -0.19815
 C761 C 1.20308 -0.16645 -0.18821
 C762 C 1.18674 -0.14854 -0.17409
 C763 C 1.14156 -0.13608 -0.15403
 N764 N 1.15344 -0.11391 -0.14269
 N765 N 1.13851 -0.09766 -0.12808
 C766 C 1.11102 -0.10282 -0.12421
 N767 N 1.09904 -0.12485 -0.13571
 N768 N 1.11400 -0.14114 -0.15031
 C769 C 1.09489 -0.08556 -0.10701
 C770 C 1.06603 -0.08966 -0.10388
 C771 C 1.05132 -0.07459 -0.08656
 C772 C 1.06523 -0.05529 -0.07192
 C773 C 1.09388 -0.05063 -0.07547
 C774 C 1.10851 -0.06551 -0.09285
 H775 H 1.12546 -0.18460 -0.17663
 H776 H 1.15405 -0.21579 -0.20142
 H777 H 1.22483 -0.16132 -0.19101
 H778 H 1.19631 -0.12993 -0.16657
 H779 H 1.05485 -0.10483 -0.11456
 H780 H 1.02923 -0.07860 -0.08424
 H781 H 1.10512 -0.03574 -0.06456
 H782 H 1.13068 -0.06172 -0.09481
 C783 C 1.12264 0.33399 0.34561
 C784 C 1.11810 0.30541 0.34043
 C785 C 1.13615 0.29054 0.32531
 C786 C 1.15933 0.30384 0.31534
 C787 C 1.16382 0.33240 0.32071
 C788 C 1.14561 0.34732 0.33549
 C789 C 1.10394 0.35007 0.36163
 N790 N 1.10392 0.37858 0.36159
 N791 N 1.08824 0.39342 0.37658
 C792 C 1.07192 0.38047 0.39236
 N793 N 1.07169 0.35188 0.39234
 N794 N 1.08733 0.33696 0.37719
 C795 C 1.05630 0.39761 0.40995
 C796 C 1.04418 0.38551 0.42968
 C797 C 1.03268 0.40269 0.44750
 C798 C 1.03334 0.43212 0.44582
 C799 C 1.04399 0.44395 0.42550
 C800 C 1.05524 0.42696 0.40782
 H801 H 1.10047 0.29464 0.34786
 H802 H 1.13177 0.26868 0.32130
 H803 H 1.18177 0.34321 0.31386
 H804 H 1.14990 0.36924 0.33934
 H805 H 1.04453 0.36293 0.43177
 H806 H 1.02439 0.39304 0.46292
 H807 H 1.04427 0.46655 0.42343
 H808 H 1.06388 0.43704 0.39273
 C809 C 0.65801 -0.12875 0.33658
 C810 C 0.68658 -0.12235 0.33467
 C811 C 0.70375 -0.13714 0.31888
 C812 C 0.69280 -0.15867 0.30460
 C813 C 0.66410 -0.16462 0.30608
 C814 C 0.64689 -0.14982 0.32187
 C815 C 0.64028 -0.11427 0.35443
 N816 N 0.61280 -0.12073 0.35682
 N817 N 0.59729 -0.10863 0.37360
 C818 C 0.60862 -0.08958 0.38871
 N819 N 0.63602 -0.08296 0.38616
 N820 N 0.65150 -0.09503 0.36940
 C821 C 0.59192 -0.07715 0.40818
 C822 C 0.60473 -0.05957 0.42491
 C823 C 0.58964 -0.04913 0.44406
 C824 C 0.56132 -0.05587 0.44691
 C825 C 0.54819 -0.07277 0.42991
 C826 C 0.56337 -0.08340 0.41077
 H827 H 0.69588 -0.10626 0.34569
 H828 H 0.72583 -0.13227 0.31837
 H829 H 0.65495 -0.18082 0.29507
 H830 H 0.62497 -0.15520 0.32278
 H831 H 0.62661 -0.05419 0.42347
 H832 H 0.60025 -0.03590 0.45675
 H833 H 0.52633 -0.07818 0.43162
 H834 H 0.55281 -0.09678 0.39816
 C835 C 0.64819 0.35849 -0.14081
 C836 C 0.64025 0.33125 -0.14797
 C837 C 0.65586 0.31613 -0.16472
 C838 C 0.67989 0.32780 -0.17466
 C839 C 0.68785 0.35500 -0.16743
 C840 C 0.67217 0.37017 -0.15078
 C841 C 0.63172 0.37451 -0.12294
 N842 N 0.63745 0.40190 -0.11786
 N843 N 0.62293 0.41616 -0.10161
 C844 C 0.60207 0.40365 -0.08968
 N845 N 0.59629 0.37629 -0.09481
 N846 N 0.61076 0.36205 -0.11110
 C847 C 0.58646 0.41924 -0.07105
 C848 C 0.56790 0.40507 -0.05646
 C849 C 0.55416 0.41938 -0.03822
 C850 C 0.55845 0.44826 -0.03422
 C851 C 0.57642 0.46266 -0.04912
 C852 C 0.59037 0.44828 -0.06727
 H853 H 0.62184 0.32162 -0.14074
 H854 H 0.64885 0.29543 -0.17011
 H855 H 0.70648 0.36449 -0.17439
 H856 H 0.67903 0.39100 -0.14558
 H857 H 0.56431 0.38275 -0.05886
 H858 H 0.54029 0.40776 -0.02713
 H859 H 0.58008 0.48495 -0.04650
 H860 H 0.60438 0.45991 -0.07823
 C861 C 1.14808 0.16584 -0.16286
 C862 C 1.14054 0.19382 -0.16730
 C863 C 1.15652 0.20997 -0.18238
 C864 C 1.18075 0.19867 -0.19345
 C865 C 1.18796 0.17039 -0.18881
 C866 C 1.17189 0.15434 -0.17389
 C867 C 1.13169 0.14862 -0.14659
 N868 N 1.13749 0.12076 -0.14459
 N869 N 1.12353 0.10521 -0.12962
 C870 C 1.10313 0.11677 -0.11590
 N871 N 1.09716 0.14465 -0.11794
 N872 N 1.11112 0.16024 -0.13301
 C873 C 1.08857 0.09928 -0.09865
 C874 C 1.06921 0.11111 -0.08268
 C875 C 1.05692 0.09446 -0.06567
 C876 C 1.06377 0.06570 -0.06433
 C877 C 1.08253 0.05383 -0.08071
 C878 C 1.09475 0.07036 -0.09760
 H879 H 1.12211 0.20327 -0.15926
 H880 H 1.14904 0.23103 -0.18573
 H881 H 1.20679 0.16057 -0.19569
 H882 H 1.17858 0.13293 -0.17068
 H883 H 1.06391 0.13330 -0.08305
 H884 H 1.04241 0.10418 -0.05337
 H885 H 1.08815 0.03170 -0.08034
 H886 H 1.10937 0.06042 -0.10968
 C887 C 1.10817 0.67662 0.35388
 C888 C 1.12183 0.70151 0.36072
 C889 C 1.13984 0.71495 0.34538
 C890 C 1.14468 0.70376 0.32288
 C891 C 1.13065 0.67919 0.31591
 C892 C 1.11260 0.66581 0.33118
 C893 C 1.09037 0.66127 0.37048
 N894 N 1.07783 0.63693 0.36380
 N895 N 1.06330 0.62210 0.37895
 C896 C 1.06059 0.63094 0.40147
 N897 N 1.07276 0.65553 0.40811
 N898 N 1.08733 0.67039 0.39293
 C899 C 1.04670 0.61283 0.41870
 C900 C 1.04351 0.62160 0.44212
 C901 C 1.03360 0.60294 0.45875
 C902 C 1.02709 0.57513 0.45228
 C903 C 1.02880 0.56692 0.42871
 C904 C 1.03833 0.58556 0.41212
 H905 H 1.11895 0.71041 0.37806
 H906 H 1.15053 0.73372 0.35134
 H907 H 1.13359 0.67029 0.29857
 H908 H 1.10240 0.64676 0.32524
 H909 H 1.04951 0.64255 0.44774
 H910 H 1.03232 0.60984 0.47680
 H911 H 1.02348 0.54573 0.42317
 H912 H 1.04018 0.57811 0.39425
 C913 C 0.65680 0.13822 0.34916
 C914 C 0.67202 0.16202 0.35620
 C915 C 0.68835 0.17631 0.34026
 C916 C 0.68958 0.16741 0.31680
 C917 C 0.67447 0.14346 0.30979
 C918 C 0.65838 0.12892 0.32584
 C919 C 0.63930 0.12341 0.36613
 N920 N 0.63063 0.09668 0.36181
 N921 N 0.61520 0.08333 0.37734
 C922 C 0.60763 0.09625 0.39772
 N923 N 0.61615 0.12302 0.40194
 N924 N 0.63170 0.13630 0.38649
 C925 C 0.59119 0.08134 0.41536
 C926 C 0.57805 0.09650 0.43363
 C927 C 0.56389 0.08246 0.45109
 C928 C 0.56286 0.05296 0.45082
 C929 C 0.57540 0.03777 0.43228
 C930 C 0.58931 0.05185 0.41463
 H931 H 0.67151 0.16951 0.37412
 H932 H 0.70020 0.19426 0.34642
 H933 H 0.67459 0.13624 0.29181
 H934 H 0.64677 0.11072 0.31987
 H935 H 0.57891 0.11925 0.43456
 H936 H 0.55431 0.09472 0.46512
 H937 H 0.57479 0.01499 0.43158
 H938 H 0.59922 0.03958 0.40078
 C939 C 0.62637 0.63331 -0.15024
 C940 C 0.61592 0.65897 -0.15840
 C941 C 0.63105 0.67432 -0.17448
 C942 C 0.65710 0.66435 -0.18310
 C943 C 0.66683 0.63789 -0.17551
 C944 C 0.65177 0.62275 -0.15922
 C945 C 0.61150 0.61835 -0.13169
 N946 N 0.62423 0.59703 -0.12023
 N947 N 0.61151 0.58470 -0.10258
 C948 C 0.58550 0.59313 -0.09570
 N949 N 0.57263 0.61421 -0.10735
 N950 N 0.58538 0.62660 -0.12494
 C951 C 0.57195 0.58049 -0.07532
 C952 C 0.54377 0.58662 -0.07006
 C953 C 0.53134 0.57577 -0.05022
 C954 C 0.54691 0.55881 -0.03511
 C955 C 0.57494 0.55233 -0.04050
 C956 C 0.58730 0.56297 -0.06046
 H957 H 0.59622 0.66759 -0.15202
 H958 H 0.62178 0.69375 -0.18041
 H959 H 0.68691 0.62934 -0.18093
 H960 H 0.66040 0.60298 -0.15331
 H961 H 0.53131 0.59993 -0.08120
 H962 H 0.50962 0.58095 -0.04657
 H963 H 0.58734 0.53908 -0.02926
 H964 H 0.60905 0.55784 -0.06400
 C965 C 0.83662 -0.16303 -0.14380
 C966 C 0.84945 -0.17560 -0.16352
 C967 C 0.83383 -0.19163 -0.17938
 C968 C 0.80509 -0.19562 -0.17580
 C969 C 0.79225 -0.18309 -0.15611
 C970 C 0.80781 -0.16691 -0.14033
 C971 C 0.85321 -0.14597 -0.12703
 N972 N 0.84056 -0.13121 -0.10938
 N973 N 0.85554 -0.11569 -0.09447
 C974 C 0.88381 -0.11436 -0.09655
 N975 N 0.89643 -0.12920 -0.11415
 N976 N 0.88147 -0.14464 -0.12907
 C977 C 0.90062 -0.09668 -0.08039
 C978 C 0.92998 -0.09730 -0.08179
 C979 C 0.94599 -0.07979 -0.06746
 C980 C 0.93309 -0.06114 -0.05140
 C981 C 0.90379 -0.06089 -0.04951
 C982 C 0.88768 -0.07854 -0.06387
 H983 H 0.87159 -0.17304 -0.16675
 H984 H 0.84433 -0.20126 -0.19427
 H985 H 0.77005 -0.18554 -0.15306
 H986 H 0.79725 -0.15751 -0.12537
 H987 H 0.94068 -0.11111 -0.09417
 H988 H 0.96855 -0.08053 -0.06929
 H989 H 0.89330 -0.04677 -0.03724
 H990 H 0.86511 -0.07758 -0.06230
 C991 C 0.87409 0.32738 0.34308
 C992 C 0.87019 0.33732 0.32041
 C993 C 0.85370 0.32247 0.30439
 C994 C 0.84072 0.29734 0.31064
 C995 C 0.84527 0.28698 0.33308
 C996 C 0.86178 0.30181 0.34911
 C997 C 0.88969 0.34430 0.36062
 N998 N 0.89358 0.33486 0.38256
 N999 N 0.90604 0.35088 0.39870
 C1000 C 0.91510 0.37703 0.39359
 N1001 N 0.91153 0.38630 0.37157
 N1002 N 0.89913 0.37028 0.35544
 C1003 C 0.92695 0.39577 0.41193
 C1004 C 0.93228 0.42412 0.40723
 C1005 C 0.94100 0.44255 0.42492
 C1006 C 0.94475 0.43305 0.44770
 C1007 C 0.94058 0.40449 0.45228
 C1008 C 0.93165 0.38604 0.43458
 H1009 H 0.87950 0.35683 0.31509
 H1010 H 0.85098 0.33076 0.28711
 H1011 H 0.83531 0.26785 0.33854
 H1012 H 0.86429 0.29355 0.36642
 H1013 H 0.92901 0.43234 0.39000
 H1014 H 0.94436 0.46440 0.42083
 H1015 H 0.94353 0.39657 0.46966
 H1016 H 0.92793 0.36429 0.43876
 C1017 C 0.34288 -0.13989 0.34872
 C1018 C 0.34473 -0.16923 0.34636
 C1019 C 0.32622 -0.18407 0.33202
 C1020 C 0.30485 -0.17018 0.31932
 C1021 C 0.30361 -0.14039 0.32165
 C1022 C 0.32220 -0.12564 0.33610
 C1023 C 0.36216 -0.12445 0.36460
 N1024 N 0.36017 -0.09605 0.36752
 N1025 N 0.37697 -0.08243 0.38233
 C1026 C 0.39652 -0.09661 0.39483
 N1027 N 0.39861 -0.12496 0.39177
 N1028 N 0.38183 -0.13856 0.37698
 C1029 C 0.41438 -0.08173 0.41217
 C1030 C 0.43343 -0.09686 0.42593
 C1031 C 0.44885 -0.08324 0.44339
 C1032 C 0.44564 -0.05416 0.44749
 C1033 C 0.42736 -0.03881 0.43323
 C1034 C 0.41187 -0.05245 0.41579
 H1035 H 0.36068 -0.18095 0.35555
 H1036 H 0.33004 -0.20645 0.33037
 H1037 H 0.28748 -0.12797 0.31345
 H1038 H 0.32003 -0.10298 0.33762
 H1039 H 0.43605 -0.11939 0.42357
 H1040 H 0.46289 -0.09561 0.45400
 H1041 H 0.42450 -0.01634 0.43592
 H1042 H 0.39753 -0.04010 0.40545
 C1043 C 0.35965 0.37040 -0.15084
 C1044 C 0.33077 0.36617 -0.14810
 C1045 C 0.31580 0.35061 -0.16461
 C1046 C 0.32924 0.33914 -0.18439
 C1047 C 0.35795 0.34389 -0.18753
 C1048 C 0.37308 0.35923 -0.17081
 C1049 C 0.37554 0.38575 -0.13254
 N1050 N 0.40399 0.38518 -0.13219
 N1051 N 0.41804 0.39796 -0.11501
 C1052 C 0.40419 0.41190 -0.09754
 N1053 N 0.37579 0.41269 -0.09809
 N1054 N 0.36178 0.39987 -0.11518
 C1055 C 0.41943 0.42503 -0.07773
 C1056 C 0.40465 0.44089 -0.06077
 C1057 C 0.41832 0.45179 -0.04121
 C1058 C 0.44711 0.44708 -0.03807
 C1059 C 0.46218 0.43193 -0.05529
 C1060 C 0.44845 0.42100 -0.07496
 H1061 H 0.31974 0.37448 -0.13295
 H1062 H 0.29361 0.34752 -0.16193
 H1063 H 0.36881 0.33514 -0.20260
 H1064 H 0.39528 0.36218 -0.17346
 H1065 H 0.38235 0.44464 -0.06240
 H1066 H 0.40620 0.46365 -0.02838
 H1067 H 0.48445 0.42814 -0.05337
 H1068 H 0.46047 0.40894 -0.08772
 C1069 C 1.14162 -0.14748 0.14120
 C1070 C 1.13189 -0.17370 0.14847
 C1071 C 1.14466 -0.18739 0.16710
 C1072 C 1.16751 -0.17522 0.17884
 C1073 C 1.17711 -0.14897 0.17164
 C1074 C 1.16433 -0.13526 0.15310
 C1075 C 1.12841 -0.13282 0.12134
 N1076 N 1.13771 -0.10724 0.11493
 N1077 N 1.12611 -0.09391 0.09716
 C1078 C 1.10469 -0.10552 0.08492
 N1079 N 1.09533 -0.13116 0.09127
 N1080 N 1.10695 -0.14453 0.10912
 C1081 C 1.09193 -0.09018 0.06521
 C1082 C 1.07024 -0.10189 0.05167
 C1083 C 1.05836 -0.08682 0.03328
 C1084 C 1.06790 -0.05976 0.02818
 C1085 C 1.08964 -0.04825 0.04168
 C1086 C 1.10148 -0.06323 0.05987
 H1087 H 1.11448 -0.18374 0.13971
 H1088 H 1.13698 -0.20776 0.17205
 H1089 H 1.19440 -0.13884 0.18051
 H1090 H 1.17236 -0.11506 0.14809
 H1091 H 1.06238 -0.12262 0.05530
 H1092 H 1.04155 -0.09620 0.02326
 H1093 H 1.09756 -0.02747 0.03828
 H1094 H 1.11810 -0.05346 0.06984
 C1095 C 1.16580 0.36751 0.63892
 C1096 C 1.15636 0.34190 0.64772
 C1097 C 1.17126 0.32810 0.66500
 C1098 C 1.19605 0.33946 0.67404
 C1099 C 1.20588 0.36486 0.66508
 C1100 C 1.19084 0.37881 0.64771
 C1101 C 1.14903 0.38210 0.62097
 N1102 N 1.15710 0.40700 0.61193
 N1103 N 1.14125 0.41998 0.59618
 C1104 C 1.11670 0.40856 0.58890
 N1105 N 1.10888 0.38366 0.59788
 N1106 N 1.12465 0.37075 0.61351
 C1107 C 1.09808 0.42274 0.57198
 C1108 C 1.07139 0.41169 0.56778
 C1109 C 1.05321 0.42433 0.55221
 C1110 C 1.06105 0.44842 0.54016
 C1111 C 1.08780 0.45964 0.54411
 C1112 C 1.10616 0.44694 0.56002
 H1113 H 1.13729 0.33238 0.64132
 H1114 H 1.16345 0.30827 0.67114
 H1115 H 1.22491 0.37416 0.67178
 H1116 H 1.19872 0.39847 0.64131
 H1117 H 1.06427 0.39320 0.57663
 H1118 H 1.03286 0.41496 0.54955
 H1119 H 1.09436 0.47826 0.53513
 H1120 H 1.12661 0.45597 0.56289
 C1121 C 0.63385 -0.15107 0.66106
 C1122 C 0.62552 -0.17883 0.66506
 C1123 C 0.64007 -0.19551 0.68081
 C1124 C 0.66334 -0.18484 0.69289
 C1125 C 0.67145 -0.15697 0.68918
 C1126 C 0.65682 -0.14023 0.67347
 C1127 C 0.61922 -0.13394 0.64347
 N1128 N 0.62648 -0.10679 0.63999
 N1129 N 0.61407 -0.09181 0.62350
 C1130 C 0.59392 -0.10336 0.60978
 N1131 N 0.58651 -0.13042 0.61340
 N1132 N 0.59888 -0.14537 0.62990
 C1133 C 0.58112 -0.08726 0.59064
 C1134 C 0.56307 -0.10056 0.57465
 C1135 C 0.55229 -0.08595 0.55578
 C1136 C 0.55917 -0.05766 0.55254
 C1137 C 0.57657 -0.04406 0.56883
 C1138 C 0.58753 -0.05875 0.58764
 H1139 H 0.60793 -0.18788 0.65580
 H1140 H 0.63354 -0.21702 0.68310
 H1141 H 0.68911 -0.14811 0.69845
 H1142 H 0.66377 -0.11893 0.67085
 H1143 H 0.55761 -0.12246 0.57645
 H1144 H 0.53870 -0.09687 0.54361
 H1145 H 0.58210 -0.02221 0.56681
 H1146 H 0.60126 -0.04783 0.59969
 C1147 C 0.64674 0.35346 0.16712
 C1148 C 0.63709 0.32694 0.17366
 C1149 C 0.65399 0.30912 0.18679
 C1150 C 0.68087 0.31747 0.19382
 C1151 C 0.69032 0.34421 0.18765
 C1152 C 0.67347 0.36198 0.17440
 C1153 C 0.62942 0.37162 0.15207
 N1154 N 0.64033 0.39494 0.14244
 N1155 N 0.62521 0.41042 0.12791
 C1156 C 0.59851 0.40330 0.12247
 N1157 N 0.58749 0.38018 0.13234
 N1158 N 0.60263 0.36466 0.14682
 C1159 C 0.58235 0.41934 0.10510
 C1160 C 0.55410 0.41312 0.10073
 C1161 C 0.53951 0.42661 0.08301
 C1162 C 0.55293 0.44640 0.06917
 C1163 C 0.58084 0.45335 0.07403
 C1164 C 0.59538 0.44003 0.09186
 H1165 H 0.61667 0.31963 0.16823
 H1166 H 0.64622 0.28851 0.19093
 H1167 H 0.71073 0.35145 0.19312
 H1168 H 0.68148 0.38234 0.16978
 H1169 H 0.54337 0.39744 0.11070
 H1170 H 0.51794 0.42096 0.07974
 H1171 H 0.59162 0.46874 0.06377
 H1172 H 0.61707 0.44541 0.09481
 C1173 C 0.83954 0.13500 0.13158
 C1174 C 0.85125 0.13580 0.15402
 C1175 C 0.83771 0.15016 0.17225
 C1176 C 0.81217 0.16424 0.16852
 C1177 C 0.79997 0.16277 0.14625
 C1178 C 0.81350 0.14824 0.12796
 C1179 C 0.85527 0.12148 0.11207
 N1180 N 0.84313 0.11624 0.09103
 N1181 N 0.85794 0.10480 0.07348
 C1182 C 0.88552 0.09839 0.07627
 N1183 N 0.89750 0.10355 0.09731
 N1184 N 0.88272 0.11480 0.11481
 C1185 C 0.90267 0.08625 0.05702
 C1186 C 0.93195 0.08711 0.05872
 C1187 C 0.94874 0.07445 0.04167
 C1188 C 0.93678 0.06039 0.02247
 C1189 C 0.90750 0.06015 0.02021
 C1190 C 0.89052 0.07312 0.03736
 H1191 H 0.87111 0.12553 0.15752
 H1192 H 0.84735 0.15033 0.18931
 H1193 H 0.78040 0.17360 0.14277
 H1194 H 0.80396 0.14805 0.11086
 H1195 H 0.94204 0.09736 0.07343
 H1196 H 0.97124 0.07518 0.04385
 H1197 H 0.89779 0.04941 0.00555
 H1198 H 0.86799 0.07218 0.03558
 C1199 C 0.82105 0.62386 0.65202
 C1200 C 0.82914 0.62366 0.67555
 C1201 C 0.81556 0.64105 0.69201
 C1202 C 0.79362 0.65908 0.68531
 C1203 C 0.78548 0.65919 0.66180
 C1204 C 0.79898 0.64175 0.64538
 C1205 C 0.83611 0.60623 0.63440
 N1206 N 0.82734 0.60515 0.61191
 N1207 N 0.84169 0.59047 0.59582
 C1208 C 0.86543 0.57623 0.60154
 N1209 N 0.87400 0.57703 0.62408
 N1210 N 0.85963 0.59166 0.64017
 C1211 C 0.88277 0.56201 0.58333
 C1212 C 0.90971 0.55190 0.58870
 C1213 C 0.92750 0.54174 0.57112
 C1214 C 0.91869 0.54125 0.54781
 C1215 C 0.89122 0.54972 0.54253
 C1216 C 0.87346 0.56014 0.56012
 H1217 H 0.84601 0.61008 0.68130
 H1218 H 0.82205 0.64014 0.71003
 H1219 H 0.76895 0.67314 0.65599
 H1220 H 0.79232 0.64261 0.62739
 H1221 H 0.91752 0.55279 0.60638
 H1222 H 0.94847 0.53495 0.57571
 H1223 H 0.88385 0.54937 0.52471
 H1224 H 0.85273 0.56750 0.55542
 C1225 C 0.36401 0.15064 0.65847
 C1226 C 0.37491 0.17650 0.66634
 C1227 C 0.35898 0.19463 0.68063
 C1228 C 0.33174 0.18740 0.68727
 C1229 C 0.32098 0.16139 0.67971
 C1230 C 0.33697 0.14316 0.66553
 C1231 C 0.38037 0.13212 0.64231
 N1232 N 0.37101 0.10618 0.63599
 N1233 N 0.38509 0.09015 0.62060
 C1234 C 0.40909 0.09943 0.61084
 N1235 N 0.41857 0.12525 0.61734
 N1236 N 0.40455 0.14122 0.63276
 C1237 C 0.42380 0.08256 0.59253
 C1238 C 0.44490 0.09482 0.57917
 C1239 C 0.45728 0.07992 0.56064
 C1240 C 0.44912 0.05229 0.55516
 C1241 C 0.42883 0.03953 0.56901
 C1242 C 0.41616 0.05459 0.58745
 H1243 H 0.39567 0.18293 0.66127
 H1244 H 0.36773 0.21464 0.68603
 H1245 H 0.30018 0.15510 0.68481
 H1246 H 0.32793 0.12341 0.65982
 H1247 H 0.45137 0.11627 0.58260
 H1248 H 0.47302 0.09022 0.55037
 H1249 H 0.42221 0.01821 0.56520
 H1250 H 0.40010 0.04447 0.59749
 C1251 C 0.33725 0.64630 0.16880
 C1252 C 0.34639 0.65447 0.19114
 C1253 C 0.32915 0.67095 0.20579
 C1254 C 0.30251 0.67999 0.19832
 C1255 C 0.29346 0.67172 0.17594
 C1256 C 0.31051 0.65495 0.16146
 C1257 C 0.35544 0.62914 0.15303
 N1258 N 0.34434 0.61542 0.13433
 N1259 N 0.36058 0.60055 0.11972
 C1260 C 0.38868 0.59884 0.12308
 N1261 N 0.39985 0.61251 0.14183
 N1262 N 0.38354 0.62728 0.15656
 C1263 C 0.40658 0.58314 0.10608
 C1264 C 0.43570 0.58718 0.10526
 C1265 C 0.45193 0.57405 0.08774
 C1266 C 0.43931 0.55653 0.07087
 C1267 C 0.41044 0.55159 0.07238
 C1268 C 0.39428 0.56479 0.08968
 H1269 H 0.36679 0.64795 0.19738
 H1270 H 0.33667 0.67644 0.22303
 H1271 H 0.27341 0.67871 0.16932
 H1272 H 0.30292 0.64924 0.14426
 H1273 H 0.44581 0.60115 0.11768
 H1274 H 0.47416 0.57815 0.08706
 H1275 H 0.40011 0.53797 0.05980
 H1276 H 0.37199 0.56091 0.08997
   
