data_POSCAR
  _audit_creation_date              2014-09-24
  _audit_creation_method            'ToBaCCo'
  _symmetry_space_group_name_H-M    'P1'
  _symmetry_Int_Tables_number       1
  _symmetry_cell_setting            triclinic
  loop_
  _symmetry_equiv_pos_as_xyz
 x,y,z
_cell_length_a 47.1024
_cell_length_b 47.1097
_cell_length_c 47.1276
_cell_angle_alpha 89.962600
_cell_angle_beta 89.985700
_cell_angle_gamma 89.991800
loop_
  _atom_site_label
  _atom_site_type_symbol
  _atom_site_fract_x
  _atom_site_fract_y
  _atom_site_fract_z
C1 C 0.35956 1.36031 0.32305
 C2 C 0.33468 1.37150 0.33548
 C3 C 0.32177 1.35866 0.35930
 C4 C 0.33445 1.33405 0.37068
 C5 C 0.35946 1.32281 0.35910
 C6 C 0.37200 1.33616 0.33562
 H7 H 0.32507 1.39019 0.32631
 H8 H 0.32535 1.32375 0.38909
 H9 H 0.39082 1.32670 0.32648
 C10 C 0.35914 0.86037 0.82385
 C11 C 0.33507 0.87235 0.83677
 C12 C 0.32204 0.85938 0.86045
 C13 C 0.33437 0.83433 0.87136
 C14 C 0.35887 0.82251 0.85915
 C15 C 0.37104 0.83562 0.83535
 H16 H 0.32583 0.89113 0.82731
 H17 H 0.32538 0.82411 0.88986
 H18 H 0.38964 0.82632 0.82553
 C19 C 0.85922 1.36035 0.82351
 C20 C 0.87108 1.33558 0.83500
 C21 C 0.85886 1.32244 0.85875
 C22 C 0.83435 1.33424 0.87094
 C23 C 0.82201 1.35929 0.86002
 C24 C 0.83509 1.37229 0.83638
 H25 H 0.88970 1.32629 0.82521
 H26 H 0.82536 1.32398 0.88942
 H27 H 0.82587 1.39108 0.82691
 C28 C 0.85919 0.85986 0.32251
 C29 C 0.87212 0.83616 0.33555
 C30 C 0.86008 0.82319 0.35956
 C31 C 0.83527 0.83463 0.37138
 C32 C 0.82215 0.85842 0.35918
 C33 C 0.83407 0.87071 0.33476
 H34 H 0.89094 0.82672 0.32638
 H35 H 0.82593 0.82476 0.38993
 H36 H 0.82385 0.88922 0.32578
 C37 C 0.64061 0.64058 0.32272
 C38 C 0.62838 0.66489 0.33492
 C39 C 0.64033 0.67742 0.35917
 C40 C 0.66462 0.66516 0.37138
 C41 C 0.67719 0.64091 0.35948
 C42 C 0.66494 0.62866 0.33524
 H43 H 0.61021 0.67476 0.32485
 H44 H 0.67362 0.67438 0.39041
 H45 H 0.67462 0.61005 0.32584
 C46 C 0.64132 0.14118 0.82135
 C47 C 0.66502 0.12859 0.83476
 C48 C 0.67741 0.14089 0.85893
 C49 C 0.66538 0.16554 0.87047
 C50 C 0.64168 0.17833 0.85787
 C51 C 0.62990 0.16618 0.83336
 H52 H 0.67528 0.11032 0.82536
 H53 H 0.67432 0.17465 0.88958
 H54 H 0.61138 0.17612 0.82412
 C55 C 1.14084 0.64102 0.82244
 C56 C 1.16514 0.62896 0.83484
 C57 C 1.17750 0.64109 0.85910
 C58 C 1.16505 0.66537 0.87111
 C59 C 1.14080 0.67776 0.85902
 C60 C 1.12874 0.66534 0.83477
 H61 H 1.17514 0.61078 0.82492
 H62 H 1.17413 0.67449 0.89016
 H63 H 1.11013 0.67489 0.82521
 C64 C 1.14080 0.14045 0.32236
 C65 C 1.12860 0.16472 0.33493
 C66 C 1.14123 0.17785 0.35847
 C67 C 1.16607 0.16623 0.37006
 C68 C 1.17858 0.14161 0.35860
 C69 C 1.16557 0.12896 0.33478
 H70 H 1.11034 0.17481 0.32532
 H71 H 1.17478 0.17581 0.38902
 H72 H 1.17501 0.11019 0.32560
 C73 C 0.64069 1.35988 0.67683
 C74 C 0.66473 1.37215 0.66411
 C75 C 0.67808 1.35937 0.64053
 C76 C 0.66611 1.33422 0.62953
 C77 C 0.64175 1.32200 0.64163
 C78 C 0.62920 1.33497 0.66529
 H79 H 0.67367 1.39103 0.67363
 H80 H 0.67485 1.32462 0.61059
 H81 H 0.61109 1.32505 0.67542
 C82 C 0.64106 0.85923 1.17728
 C83 C 0.66549 0.87142 1.16522
 C84 C 0.67814 0.85947 1.14102
 C85 C 0.66588 0.83525 1.12871
 C86 C 0.64150 0.82275 1.14045
 C87 C 0.62915 0.83498 1.16465
 H88 H 0.67533 0.88955 1.17536
 H89 H 0.67518 0.82625 1.10971
 H90 H 0.61045 0.82535 1.17393
 C91 C 1.14128 1.35991 1.17774
 C92 C 1.16610 1.37152 1.16552
 C93 C 1.17923 1.35907 1.14166
 C94 C 1.16682 1.33452 1.12997
 C95 C 1.14194 1.32279 1.14135
 C96 C 1.12915 1.33575 1.16491
 H97 H 1.17547 1.39022 1.17490
 H98 H 1.17564 1.32509 1.11098
 H99 H 1.11084 1.32559 1.17436
 C100 C 1.14076 0.85922 0.67712
 C101 C 1.16502 0.87132 0.66465
 C102 C 1.17739 0.85920 0.64042
 C103 C 1.16504 0.83488 0.62846
 C104 C 1.14083 0.82243 0.64061
 C105 C 1.12871 0.83485 0.66485
 H106 H 1.17456 0.88997 0.67410
 H107 H 1.17415 0.82576 0.60943
 H108 H 1.11056 0.82488 0.67486
 C109 C 0.35889 0.64139 0.67761
 C110 C 0.37106 0.66522 0.66456
 C111 C 0.35923 0.67673 0.63979
 C112 C 0.33521 0.66380 0.62774
 C113 C 0.32218 0.64007 0.64065
 C114 C 0.33446 0.62914 0.66571
 H115 H 0.38961 0.67505 0.67392
 H116 H 0.32602 0.67327 0.60895
 H117 H 0.32549 0.61061 0.67589
 C118 C 0.35907 0.14093 1.17716
 C119 C 0.37098 0.16517 1.16448
 C120 C 0.35863 0.17739 1.14027
 C121 C 0.33423 0.16491 1.12859
 C122 C 0.32195 0.14071 1.14097
 C123 C 0.33463 0.12876 1.16517
 H124 H 0.38969 0.17479 1.17373
 H125 H 0.32491 0.17390 1.10958
 H126 H 0.32479 0.11064 1.17536
 C127 C 0.85973 0.64039 1.17754
 C128 C 0.87064 0.66542 1.16517
 C129 C 0.85846 0.67720 1.14065
 C130 C 0.83468 0.66407 1.12848
 C131 C 0.82318 0.63932 1.14041
 C132 C 0.83607 0.62740 1.16452
 H133 H 0.88912 0.67567 1.17415
 H134 H 0.82487 0.67334 1.10987
 H135 H 0.82662 0.60862 1.17378
 C136 C 0.85887 0.14112 0.67790
 C137 C 0.87015 0.16580 0.66527
 C138 C 0.85851 0.17709 0.64031
 C139 C 0.83506 0.16371 0.62777
 C140 C 0.82257 0.13950 0.64017
 C141 C 0.83506 0.12827 0.66501
 H142 H 0.88854 0.17612 0.67435
 H143 H 0.82586 0.17319 0.60898
 H144 H 0.82593 0.10954 0.67459
 C145 C 1.35867 0.35875 0.67750
 C146 C 1.37091 0.33431 0.66561
 C147 C 1.35999 0.32206 0.64054
 C148 C 1.33629 0.33510 0.62764
 C149 C 1.32335 0.35912 0.63969
 C150 C 1.33486 0.37095 0.66445
 H151 H 1.38942 0.32530 0.67579
 H152 H 1.32683 0.32593 0.60885
 H153 H 1.32502 0.38950 0.67380
 C154 C 1.35761 0.85850 1.17807
 C155 C 1.33373 0.87079 1.16531
 C156 C 1.32175 0.85901 1.14076
 C157 C 1.33440 0.83492 1.12852
 C158 C 1.35829 0.82182 1.14110
 C159 C 1.36962 0.83406 1.16600
 H160 H 1.32459 0.88985 1.17437
 H161 H 1.32422 0.82533 1.11031
 H162 H 1.38826 0.82504 1.17592
 C163 C 0.85804 0.35859 1.17823
 C164 C 0.87006 0.33418 1.16611
 C165 C 0.85876 0.32201 1.14116
 C166 C 0.83488 0.33512 1.12860
 C167 C 0.82220 0.35916 1.14089
 C168 C 0.83415 0.37090 1.16548
 H169 H 0.88870 0.32513 1.17602
 H170 H 0.82472 0.32555 1.11037
 H171 H 0.82499 0.38992 1.17457
 C172 C 0.85920 0.85991 0.67680
 C173 C 0.87164 0.83565 0.66474
 C174 C 0.85990 0.82292 0.64048
 C175 C 0.83553 0.83488 0.62815
 C176 C 0.82276 0.85913 0.63990
 C177 C 0.83483 0.87157 0.66415
 H178 H 0.89030 0.82640 0.67450
 H179 H 0.82623 0.82506 0.60958
 H180 H 0.82499 0.89015 0.67343
 C181 C 0.64100 0.64053 0.67757
 C182 C 0.62876 0.66489 0.66544
 C183 C 0.64068 0.67750 0.64120
 C184 C 0.66495 0.66528 0.62892
 C185 C 0.67752 0.64097 0.64073
 C186 C 0.66530 0.62865 0.66497
 H187 H 0.61060 0.67471 0.67557
 H188 H 0.67393 0.67456 0.60989
 H189 H 0.67498 0.61000 0.67431
 C190 C 0.64085 1.14020 1.17701
 C191 C 0.62844 1.16436 1.16464
 C192 C 0.64097 1.17785 1.14096
 C193 C 0.66598 1.16593 1.12954
 C194 C 0.67832 1.14148 1.14131
 C195 C 0.66560 1.12878 1.16501
 H196 H 0.61013 1.17370 1.17489
 H197 H 0.67538 1.17479 1.11055
 H198 H 0.67524 1.11014 1.17441
 C199 C 0.14040 0.64048 1.17762
 C200 C 0.16465 0.62835 1.16493
 C201 C 0.17763 0.64101 1.14130
 C202 C 0.16580 0.66575 1.12968
 C203 C 0.14114 0.67812 1.14122
 C204 C 0.12870 0.66513 1.16517
 H205 H 0.17486 0.61016 1.17457
 H206 H 0.17527 0.67449 1.11066
 H207 H 0.10994 0.67449 1.17445
 C208 C 0.14109 1.14066 0.67707
 C209 C 0.12881 1.16509 0.66520
 C210 C 0.13965 1.17738 0.64010
 C211 C 0.16333 1.16436 0.62713
 C212 C 0.17630 1.14032 0.63914
 C213 C 0.16487 1.12847 0.66394
 H214 H 0.11032 1.17408 0.67544
 H215 H 0.17275 1.17356 0.60832
 H216 H 0.17475 1.10992 0.67328
 C217 C 1.36030 0.64064 0.32348
 C218 C 1.37227 0.66471 0.33637
 C219 C 1.35940 0.67765 0.36012
 C220 C 1.33442 0.66525 0.37114
 C221 C 1.32260 0.64075 0.35895
 C222 C 1.33564 0.62865 0.33509
 H223 H 1.39098 0.67401 0.32683
 H224 H 1.32426 0.67419 0.38968
 H225 H 1.32635 0.61005 0.32529
 C226 C 1.35791 1.14206 0.82178
 C227 C 1.36971 1.16660 0.83385
 C228 C 1.35838 1.17864 0.85886
 C229 C 1.33475 1.16521 0.87157
 C230 C 1.32233 1.14100 0.85935
 C231 C 1.33427 1.12945 0.83467
 H232 H 1.38820 1.17584 0.82383
 H233 H 1.32456 1.17463 0.88986
 H234 H 1.32530 1.11032 0.82560
 C235 C 0.85908 0.64113 0.82242
 C236 C 0.87103 0.66539 0.83496
 C237 C 0.85888 0.67748 0.85937
 C238 C 0.83467 0.66482 0.87138
 C239 C 0.82245 0.64055 0.85913
 C240 C 0.83492 0.62879 0.83477
 H241 H 0.88914 0.67553 0.82505
 H242 H 0.82506 0.67412 0.89007
 H243 H 0.82595 0.60974 0.82555
 C244 C 0.85908 1.14118 0.32267
 C245 C 0.87105 1.16540 0.33527
 C246 C 0.85888 1.17748 0.35966
 C247 C 0.83460 1.16489 0.37158
 C248 C 0.82234 1.14067 0.35929
 C249 C 0.83485 1.12889 0.33495
 H250 H 0.88918 1.17553 0.32540
 H251 H 0.82497 1.17422 0.39025
 H252 H 0.82585 1.10987 0.32568
 C253 C 0.64081 0.35879 0.32194
 C254 C 0.66614 0.36978 0.33347
 C255 C 0.67878 0.35756 0.35744
 C256 C 0.66630 0.33362 0.36988
 C257 C 0.64099 0.32186 0.35909
 C258 C 0.62813 0.33519 0.33548
 H259 H 0.67597 0.38839 0.32427
 H260 H 0.67582 0.32506 0.38896
 H261 H 0.60977 0.32540 0.32584
 C262 C 0.64101 0.85937 0.82282
 C263 C 0.66532 0.87145 0.83518
 C264 C 0.67776 0.85934 0.85940
 C265 C 0.66543 0.83501 0.87142
 C266 C 0.64117 0.82257 0.85937
 C267 C 0.62899 0.83501 0.83516
 H268 H 0.67483 0.89011 0.82568
 H269 H 0.67459 0.82587 0.89043
 H270 H 0.61081 0.82505 0.82522
 C271 C 0.14105 0.35887 0.82166
 C272 C 0.16601 0.37033 0.83370
 C273 C 0.17813 0.35860 0.85825
 C274 C 0.16536 0.33488 0.87086
 C275 C 0.14075 0.32280 0.85929
 C276 C 0.12847 0.33518 0.83508
 H277 H 0.17594 0.38885 0.82443
 H278 H 0.17447 0.32594 0.88999
 H279 H 0.11023 0.32489 0.82563
 C280 C 0.14123 0.85875 0.32199
 C281 C 0.16623 0.87016 0.33399
 C282 C 0.17847 0.85831 0.35843
 C283 C 0.16578 0.83451 0.37097
 C284 C 0.14111 0.82248 0.35944
 C285 C 0.12873 0.83497 0.33534
 H286 H 0.17610 0.88874 0.32478
 H287 H 0.17497 0.82548 0.39001
 H288 H 0.11047 0.82472 0.32591
 O289 O 0.97190 0.89779 0.85810
 O290 O 0.97177 0.86477 0.82495
 C291 C 0.96215 0.88788 0.83501
 C292 C 0.93888 0.90305 0.82022
 C293 C 0.92849 0.89320 0.79407
 H294 H 0.93799 0.87469 0.78429
 O295 O 1.02830 1.10247 0.85829
 O296 O 1.02853 1.13555 0.82516
 C297 C 1.03817 1.11247 0.83527
 C298 C 1.06159 1.09745 0.82060
 C299 C 1.07209 1.10742 0.79453
 H300 H 1.06257 1.12591 0.78472
 O301 O 0.85880 0.97295 0.89722
 O302 O 0.82551 0.97295 0.86433
 C303 C 0.83567 0.96323 0.88735
 C304 C 0.82092 0.93990 0.90244
 C305 C 0.79481 0.92947 0.89248
 H306 H 0.78505 0.93897 0.87395
 O307 O 1.14131 1.02711 0.89785
 O308 O 1.17465 1.02702 0.86500
 C309 C 1.16450 1.03673 0.88802
 C310 C 1.17933 1.06003 0.90308
 C311 C 1.20552 1.07024 0.89311
 H312 H 1.21558 1.06011 0.87510
 O313 O 0.89764 0.85906 0.97227
 O314 O 0.86434 0.82615 0.97228
 C315 C 0.88747 0.83606 0.96254
 C316 C 0.90227 0.82120 0.93912
 C317 C 0.89216 0.79506 0.92897
 H318 H 0.87421 0.78504 0.93926
 O319 O 1.10245 1.14116 0.97237
 O320 O 1.13573 1.17408 0.97227
 C321 C 1.11258 1.16416 0.96260
 C322 C 1.09765 1.17905 0.93926
 C323 C 1.10760 1.20528 0.92917
 H324 H 1.12556 1.21533 0.93941
 O325 O 0.89744 1.02850 0.85834
 O326 O 0.86427 1.02866 0.82533
 C327 C 0.88736 1.03835 0.83536
 C328 C 0.90238 1.06172 0.82055
 C329 C 0.89213 1.07242 0.79467
 H330 H 0.87317 1.06330 0.78545
 O331 O 1.10233 0.97204 0.85861
 O332 O 1.13555 0.97192 0.82563
 C333 C 1.11236 0.96233 0.83555
 C334 C 1.09732 0.93911 0.82062
 C335 C 1.10740 0.92886 0.79452
 H336 H 1.12550 0.93897 0.78456
 O337 O 1.02718 0.85882 0.89701
 O338 O 1.02719 0.82562 0.86404
 C339 C 1.03690 0.83571 0.88709
 C340 C 1.06023 0.82092 0.90216
 C341 C 1.07071 0.79485 0.89215
 H342 H 1.06123 0.78514 0.87360
 O343 O 0.97270 1.14121 0.89699
 O344 O 0.97282 1.17441 0.86398
 C345 C 0.96301 1.16431 0.88700
 C346 C 0.93960 1.17910 0.90190
 C347 C 0.92922 1.20513 0.89171
 H348 H 0.93929 1.21510 0.87359
 O349 O 0.85898 1.10301 0.97227
 O350 O 0.82580 1.13604 0.97223
 C351 C 0.83584 1.11294 0.96259
 C352 C 0.82093 1.09788 0.93937
 C353 C 0.79468 1.10779 0.92926
 H354 H 0.78463 1.12580 0.93941
 O355 O 1.14069 0.89734 0.97278
 O356 O 1.17385 0.86429 0.97289
 C357 C 1.16388 0.88741 0.96323
 C358 C 1.17889 0.90240 0.94002
 C359 C 1.20528 0.89258 0.93022
 H360 H 1.21549 0.87508 0.94105
 O361 O 0.97288 1.10248 0.85803
 O362 O 0.97304 1.13554 0.82488
 C363 C 0.96325 1.11249 0.83492
 C364 C 0.93975 1.09768 0.82017
 C365 C 0.92957 1.10771 0.79400
 H366 H 0.94029 1.12525 0.78373
 O367 O 1.02728 0.89758 0.85808
 O368 O 1.02728 0.86457 0.82493
 C369 C 1.03703 0.88760 0.83502
 C370 C 1.06047 0.90256 0.82031
 C371 C 1.07091 0.89258 0.79422
 H372 H 1.06128 0.87414 0.78443
 O373 O 1.14114 0.97169 0.89753
 O374 O 1.17449 0.97155 0.86468
 C375 C 1.16423 0.96185 0.88766
 C376 C 1.17890 0.93850 0.90279
 C377 C 1.20500 0.92798 0.89289
 H378 H 1.21447 0.93721 0.87409
 O379 O 0.85874 1.02829 0.89737
 O380 O 0.82542 1.02836 0.86451
 C381 C 0.83556 1.03798 0.88755
 C382 C 0.82075 1.06120 0.90271
 C383 C 0.79450 1.07142 0.89290
 H384 H 0.78468 1.06180 0.87448
 O385 O 0.89807 1.14171 0.97207
 O386 O 0.86503 1.17487 0.97196
 C387 C 0.88807 1.16474 0.96224
 C388 C 0.90299 1.17938 0.93871
 C389 C 0.89290 1.20539 0.92817
 H390 H 0.87443 1.21517 0.93775
 O391 O 1.10155 0.85869 0.97233
 O392 O 1.13461 0.82553 0.97233
 C393 C 1.11159 0.83566 0.96255
 C394 C 1.09676 0.82097 0.93904
 C395 C 1.10688 0.79490 0.92874
 H396 H 1.12486 0.78483 0.93895
 O397 O 1.10277 1.02743 0.85867
 O398 O 1.13599 1.02735 0.82569
 C399 C 1.11293 1.03716 0.83567
 C400 C 1.09817 1.06063 0.82084
 C401 C 1.10835 1.07088 0.79478
 H402 H 1.12637 1.06067 0.78478
 O403 O 0.89757 0.97306 0.85826
 O404 O 0.86442 0.97314 0.82521
 C405 C 0.88751 0.96338 0.83520
 C406 C 0.90240 0.93999 0.82035
 C407 C 0.89234 0.92985 0.79421
 H408 H 0.87438 0.94011 0.78417
 O409 O 1.02809 1.14131 0.89715
 O410 O 1.02827 1.17455 0.86418
 C411 C 1.03784 1.16445 0.88729
 C412 C 1.06106 1.17925 0.90246
 C413 C 1.07133 1.20549 0.89268
 H414 H 1.06175 1.21533 0.87424
 O415 O 0.97181 0.85886 0.89695
 O416 O 0.97169 0.82566 0.86398
 C417 C 0.96204 0.83577 0.88705
 C418 C 0.93873 0.82103 0.90218
 C419 C 0.92828 0.79490 0.89230
 H420 H 0.93776 0.78513 0.87379
 O421 O 1.14135 1.10222 0.97257
 O422 O 1.17476 1.13501 0.97251
 C423 C 1.16457 1.11198 0.96288
 C424 C 1.17939 1.09680 0.93968
 C425 C 1.20559 1.10670 0.92938
 H426 H 1.21534 1.12520 0.93892
 O427 O 0.85899 0.89820 0.97233
 O428 O 0.82560 0.86538 0.97240
 C429 C 0.83581 0.88837 0.96266
 C430 C 0.82104 0.90335 0.93929
 C431 C 0.79492 0.89328 0.92906
 H432 H 0.78487 0.87529 0.93927
 Cu433 Cu 0.99954 0.88157 0.88083
 Cu434 Cu 0.99947 0.84183 0.84115
 Cu435 Cu 1.00049 1.11855 0.88091
 Cu436 Cu 1.00068 1.15834 0.84122
 Cu437 Cu 0.88147 1.00070 0.88108
 Cu438 Cu 0.84158 1.00078 0.84152
 Cu439 Cu 1.11856 0.99957 0.88146
 Cu440 Cu 1.15852 0.99945 0.84195
 C441 C 0.92585 0.92663 0.83303
 H442 H 0.93344 0.93407 0.85340
 C443 C 0.90518 0.90643 0.78094
 C444 C 1.07461 1.07389 0.83344
 H445 H 1.06691 1.06634 0.85375
 C446 C 1.09550 1.09429 0.78148
 C447 C 0.83373 0.92684 0.92601
 H448 H 0.85408 0.93446 0.93353
 C449 C 0.78171 0.90610 0.90560
 C450 C 1.16659 1.07328 0.92655
 H451 H 1.14618 1.06581 0.93408
 C452 C 1.21875 1.09363 0.90604
 C453 C 0.92574 0.83385 0.92575
 H454 H 0.93338 0.85421 0.93321
 C455 C 0.90497 0.78178 0.90553
 C456 C 1.07420 1.16636 0.92594
 H457 H 1.06668 1.14592 0.93333
 C458 C 1.09463 1.21863 0.90585
 C459 C 0.92627 1.07443 0.83304
 H460 H 0.93388 1.06673 0.85332
 C461 C 0.90561 1.09539 0.78112
 C462 C 1.07367 0.92600 0.83319
 H463 H 1.06605 0.93352 0.85352
 C464 C 1.09441 0.90555 0.78120
 C465 C 1.07326 0.83366 0.92577
 H466 H 1.06559 0.85397 0.93334
 C467 C 1.09408 0.78173 0.90526
 C468 C 0.92651 1.16654 0.92558
 H469 H 0.93414 1.14627 0.93330
 C470 C 0.90585 1.21840 0.90464
 C471 C 0.83364 1.07439 0.92613
 H472 H 0.85409 1.06691 0.93352
 C473 C 0.78135 1.09476 0.90598
 C474 C 1.16609 0.92563 0.92643
 H475 H 1.14565 0.93318 0.93377
 C476 C 1.21847 0.90503 0.90648
 O477 O 1.02723 0.89675 1.14198
 O478 O 1.02714 0.86369 1.17512
 C479 C 1.03694 0.88672 1.16504
 C480 C 1.06031 0.90171 1.17982
 C481 C 1.07106 0.89143 1.20568
 H482 H 1.06195 0.87246 1.21493
 O483 O 0.97266 1.10368 1.14138
 O484 O 0.97261 1.13676 1.17446
 C485 C 0.96292 1.11368 1.16443
 C486 C 0.93960 1.09863 1.17925
 C487 C 0.92914 1.10867 1.20531
 H488 H 0.93860 1.12725 1.21499
 O489 O 0.85942 1.02830 1.10278
 O490 O 0.82616 1.02839 1.13573
 C491 C 0.83629 1.03805 1.11267
 C492 C 0.82151 1.06138 1.09761
 C493 C 0.79544 1.07184 1.10767
 H494 H 0.78571 1.06230 1.12620
 O495 O 1.14004 0.97202 1.10309
 O496 O 1.17327 0.97191 1.13604
 C497 C 1.16314 0.96224 1.11300
 C498 C 1.17791 0.93888 1.09798
 C499 C 1.20411 0.92866 1.10787
 H500 H 1.21422 0.93880 1.12585
 O501 O 1.10138 0.85817 1.02775
 O502 O 1.13443 0.82501 1.02774
 C503 C 1.11132 0.83502 1.03739
 C504 C 1.09640 0.82013 1.06073
 C505 C 1.10646 0.79395 1.07083
 H506 H 1.12403 0.78376 1.06008
 O507 O 0.89787 1.14206 1.02756
 O508 O 0.86481 1.17521 1.02750
 C509 C 0.88783 1.16513 1.03729
 C510 C 0.90274 1.17993 1.06070
 C511 C 0.89237 1.20579 1.07136
 H512 H 0.87344 1.21500 1.06215
 O513 O 0.89824 0.97295 1.14189
 O514 O 0.86513 0.97309 1.17498
 C515 C 0.88820 0.96332 1.16499
 C516 C 0.90299 0.93985 1.17985
 C517 C 0.89307 0.92995 1.20615
 H518 H 0.87565 0.94086 1.21642
 O519 O 1.10138 1.02755 1.14205
 O520 O 1.13447 1.02742 1.17515
 C521 C 1.11141 1.03720 1.16513
 C522 C 1.09660 1.06069 1.17990
 C523 C 1.10642 1.07058 1.20622
 H524 H 1.12375 1.05960 1.21658
 O525 O 0.97186 0.85816 1.10295
 O526 O 0.97162 0.82489 1.13588
 C527 C 0.96203 0.83507 1.11282
 C528 C 0.93866 0.82045 1.09768
 C529 C 0.92805 0.79438 1.10756
 H530 H 0.93749 0.78451 1.12606
 O531 O 1.02817 1.14233 1.10252
 O532 O 1.02821 1.17560 1.13542
 C533 C 1.03791 1.16544 1.11241
 C534 C 1.06130 1.18011 1.09737
 C535 C 1.07180 1.20617 1.10732
 H536 H 1.06224 1.21601 1.12577
 O537 O 0.85917 0.89824 1.02776
 O538 O 0.82578 0.86543 1.02780
 C539 C 0.83604 0.88840 1.03753
 C540 C 0.82139 0.90336 1.06099
 C541 C 0.79532 0.89332 1.07138
 H542 H 0.78520 0.87534 1.06123
 O543 O 1.14087 1.10210 1.02797
 O544 O 1.17428 1.13488 1.02794
 C545 C 1.16399 1.11192 1.03772
 C546 C 1.17859 1.09695 1.06122
 C547 C 1.20466 1.10696 1.07160
 H548 H 1.21482 1.12491 1.06143
 O549 O 1.02804 1.10357 1.14146
 O550 O 1.02811 1.13666 1.17453
 C551 C 1.03776 1.11354 1.16453
 C552 C 1.06092 1.09833 1.17946
 C553 C 1.07147 1.10835 1.20550
 H554 H 1.06242 1.12733 1.21475
 O555 O 0.97184 0.89697 1.14180
 O556 O 0.97158 0.86391 1.17494
 C557 C 0.96200 0.88703 1.16485
 C558 C 0.93876 0.90227 1.17963
 C559 C 0.92815 0.89230 1.20567
 H560 H 0.93722 0.87337 1.21503
 O561 O 1.14034 1.02747 1.10320
 O562 O 1.17355 1.02738 1.13618
 C563 C 1.16348 1.03712 1.11313
 C564 C 1.17838 1.06041 1.09810
 C565 C 1.20446 1.07080 1.10821
 H566 H 1.21408 1.06128 1.12680
 O567 O 0.85947 0.97290 1.10288
 O568 O 0.82623 0.97296 1.13584
 C569 C 0.83634 0.96321 1.11282
 C570 C 0.82151 0.93990 1.09782
 C571 C 0.79544 0.92948 1.10793
 H572 H 0.78579 0.93898 1.12651
 O573 O 1.10272 1.14168 1.02776
 O574 O 1.13602 1.17457 1.02768
 C575 C 1.11288 1.16472 1.03741
 C576 C 1.09803 1.17970 1.06072
 C577 C 1.10828 1.20574 1.07102
 H578 H 1.12645 1.21562 1.06097
 O579 O 0.89760 0.85889 1.02770
 O580 O 0.86429 0.82600 1.02768
 C581 C 0.88742 0.83587 1.03740
 C582 C 0.90218 0.82090 1.06078
 C583 C 0.89191 0.79482 1.07094
 H584 H 0.87389 0.78490 1.06067
 O585 O 1.10127 0.97215 1.14214
 O586 O 1.13439 0.97204 1.17520
 C587 C 1.11127 0.96241 1.16521
 C588 C 1.09636 0.93900 1.18003
 C589 C 1.10637 0.92884 1.20619
 H590 H 1.12393 0.93957 1.21640
 O591 O 0.89833 1.02840 1.14159
 O592 O 0.86519 1.02853 1.17466
 C593 C 0.88827 1.03822 1.16459
 C594 C 0.90314 1.06169 1.17929
 C595 C 0.89304 1.07199 1.20535
 H596 H 0.87508 1.06176 1.21544
 O597 O 0.97283 1.14230 1.10221
 O598 O 0.97277 1.17556 1.13512
 C599 C 0.96314 1.16545 1.11205
 C600 C 0.93980 1.18022 1.09698
 C601 C 0.92956 1.20639 1.10688
 H602 H 0.94018 1.21664 1.12448
 O603 O 1.02725 0.85806 1.10310
 O604 O 1.02718 0.82481 1.13605
 C605 C 1.03697 0.83497 1.11306
 C606 C 1.06037 0.82024 1.09803
 C607 C 1.07116 0.79437 1.10825
 H608 H 1.06207 0.78508 1.12720
 O609 O 1.14015 0.89720 1.02814
 O610 O 1.17331 0.86416 1.02823
 C611 C 1.16320 0.88721 1.03792
 C612 C 1.17797 0.90220 1.06128
 C613 C 1.20419 0.89229 1.07151
 H614 H 1.21398 0.87386 1.06185
 O615 O 0.85933 1.10292 1.02763
 O616 O 0.82615 1.13595 1.02762
 C617 C 0.83627 1.11291 1.03737
 C618 C 0.82155 1.09801 1.06083
 C619 C 0.79552 1.10816 1.07122
 H620 H 0.78548 1.12622 1.06113
 Cu621 Cu 0.99955 0.88079 1.11916
 Cu622 Cu 0.99934 0.84098 1.15882
 Cu623 Cu 1.00043 1.11965 1.11861
 Cu624 Cu 1.00040 1.15949 1.15820
 Cu625 Cu 0.88170 0.88188 1.00001
 Cu626 Cu 0.84165 0.84245 1.00004
 Cu627 Cu 1.11762 0.88116 1.00025
 Cu628 Cu 1.15736 0.84141 1.00030
 Cu629 Cu 0.88189 1.11914 0.99987
 Cu630 Cu 0.84214 1.15885 0.99981
 Cu631 Cu 1.11851 1.11851 1.00016
 Cu632 Cu 1.15856 1.15792 1.00007
 Cu633 Cu 0.88219 1.00062 1.11898
 Cu634 Cu 0.84236 1.00075 1.15862
 Cu635 Cu 1.11745 0.99981 1.11931
 Cu636 Cu 1.15725 0.99967 1.15895
 C637 C 1.07305 0.92556 1.16724
 H638 H 1.06535 0.93318 1.14697
 C639 C 1.09411 0.90485 1.21912
 C640 C 0.92660 1.07498 1.16656
 H641 H 0.93425 1.06740 1.14625
 C642 C 0.90581 1.09553 1.21848
 C643 C 0.83424 1.07445 1.07400
 H644 H 0.85454 1.06678 1.06639
 C645 C 0.78235 1.09527 1.09467
 C646 C 1.16515 0.92567 1.07450
 H647 H 1.14474 0.93316 1.06701
 C648 C 1.21738 0.90533 1.09484
 C649 C 1.07308 0.83287 1.07420
 H650 H 1.06535 0.85317 1.06662
 C651 C 1.09422 0.78096 1.09478
 C652 C 0.92652 1.16739 1.07361
 H653 H 0.93419 1.14710 1.06597
 C654 C 0.90563 1.21928 1.09447
 C655 C 0.92611 0.92613 1.16698
 H656 H 0.93373 0.93354 1.14659
 C657 C 0.90530 0.90602 1.21919
 C658 C 1.07357 1.07443 1.16692
 H659 H 1.06602 1.06701 1.14653
 C660 C 1.09424 1.09460 1.21915
 C661 C 0.92573 0.83339 1.07411
 H662 H 0.93348 0.85371 1.06665
 C663 C 0.90465 0.78142 1.09435
 C664 C 1.07437 1.16722 1.07388
 H665 H 1.06664 1.14692 1.06636
 C666 C 1.09533 1.21910 1.09433
 C667 C 0.83418 0.92684 1.07418
 H668 H 0.85449 0.93444 1.06655
 C669 C 0.78224 0.90614 1.09491
 C670 C 1.16576 1.07349 1.07444
 H671 H 1.14544 1.06592 1.06681
 C672 C 1.21771 1.09413 1.09516
 O673 O 0.97213 0.39769 0.35842
 O674 O 0.97193 0.36465 0.32530
 C675 C 0.96232 0.38776 0.33538
 C676 C 0.93895 0.40284 0.32065
 C677 C 0.92833 0.39271 0.29470
 H678 H 0.93775 0.37410 0.28503
 O679 O 1.02804 0.60206 0.35846
 O680 O 1.02819 0.63515 0.32534
 C681 C 1.03775 0.61199 0.33535
 C682 C 1.06102 0.59694 0.32049
 C683 C 1.07094 0.60667 0.29414
 H684 H 1.06012 0.62414 0.28385
 O685 O 0.85847 0.47279 0.39715
 O686 O 0.82530 0.47286 0.36413
 C687 C 0.83541 0.46305 0.38713
 C688 C 0.82074 0.43951 0.40196
 C689 C 0.79496 0.42872 0.39155
 H690 H 0.78532 0.43816 0.37294
 O691 O 1.14149 0.52686 0.39761
 O692 O 1.17472 0.52676 0.36464
 C693 C 1.16466 0.53647 0.38770
 C694 C 1.17953 0.55979 0.40267
 C695 C 1.20557 0.57013 0.39248
 H696 H 1.21555 0.56001 0.37442
 O697 O 0.89746 0.35909 0.47229
 O698 O 0.86431 0.32604 0.47227
 C699 C 0.88744 0.33601 0.46261
 C700 C 0.90238 0.32112 0.43931
 C701 C 0.89232 0.29496 0.42919
 H702 H 0.87434 0.28494 0.43946
 O703 O 1.10300 0.64068 0.47225
 O704 O 1.13611 0.67377 0.47220
 C705 C 1.11302 0.66375 0.46251
 C706 C 1.09805 0.67861 0.43917
 C707 C 1.10799 0.70483 0.42906
 H708 H 1.12598 0.71488 0.43926
 O709 O 0.89730 0.52833 0.35847
 O710 O 0.86426 0.52851 0.32534
 C711 C 0.88732 0.53817 0.33544
 C712 C 0.90240 0.56149 0.32067
 C713 C 0.89240 0.57201 0.29462
 H714 H 0.87356 0.56279 0.28525
 O715 O 1.10208 0.47216 0.35830
 O716 O 1.13516 0.47208 0.32518
 C717 C 1.11196 0.46256 0.33513
 C718 C 1.09684 0.43940 0.32018
 C719 C 1.10665 0.42947 0.29387
 H720 H 1.12416 0.44028 0.28364
 O721 O 1.02739 0.35861 0.39728
 O722 O 1.02731 0.32540 0.36431
 C723 C 1.03703 0.33546 0.38736
 C724 C 1.06032 0.32061 0.40242
 C725 C 1.07078 0.29458 0.39230
 H726 H 1.06128 0.28490 0.37374
 O727 O 0.97283 0.64119 0.39738
 O728 O 0.97297 0.67440 0.36438
 C729 C 0.96323 0.66435 0.38744
 C730 C 0.93999 0.67930 0.40246
 C731 C 0.92996 0.70556 0.39253
 H732 H 0.94020 0.71559 0.37456
 O733 O 0.85904 0.60296 0.47225
 O734 O 0.82598 0.63611 0.47223
 C735 C 0.83596 0.61299 0.46256
 C736 C 0.82105 0.59801 0.43929
 C737 C 0.79485 0.60801 0.42917
 H738 H 0.78484 0.62603 0.43934
 O739 O 1.14094 0.39706 0.47244
 O740 O 1.17397 0.36389 0.47245
 C741 C 1.16400 0.38700 0.46273
 C742 C 1.17882 0.40182 0.43927
 C743 C 1.20505 0.39181 0.42921
 H744 H 1.21526 0.37426 0.43996
 O745 O 0.97269 0.60240 0.35841
 O746 O 0.97283 0.63548 0.32528
 C747 C 0.96306 0.61242 0.33530
 C748 C 0.93967 0.59755 0.32047
 C749 C 0.92975 0.60738 0.29414
 H750 H 0.94056 0.62487 0.28386
 O751 O 1.02757 0.39724 0.35818
 O752 O 1.02749 0.36420 0.32506
 C753 C 1.03729 0.38722 0.33512
 C754 C 1.06066 0.40223 0.32032
 C755 C 1.07124 0.39214 0.29431
 H756 H 1.06203 0.37329 0.28497
 O757 O 1.14111 0.47138 0.39704
 O758 O 1.17433 0.47122 0.36406
 C759 C 1.16410 0.46145 0.38703
 C760 C 1.17870 0.43792 0.40200
 C761 C 1.20464 0.42720 0.39186
 H762 H 1.21400 0.43639 0.37299
 O763 O 0.85860 0.52819 0.39749
 O764 O 0.82540 0.52833 0.36451
 C765 C 0.83551 0.53796 0.38758
 C766 C 0.82076 0.56128 0.40266
 C767 C 0.79457 0.57162 0.39281
 H768 H 0.78474 0.56201 0.37440
 O769 O 0.89805 0.64172 0.47222
 O770 O 0.86515 0.67502 0.47219
 C771 C 0.88818 0.66486 0.46249
 C772 C 0.90329 0.67960 0.43916
 C773 C 0.89351 0.70585 0.42887
 H774 H 0.87510 0.71571 0.43849
 O775 O 1.10190 0.35834 0.47244
 O776 O 1.13482 0.32506 0.47245
 C777 C 1.11182 0.33524 0.46270
 C778 C 1.09691 0.32055 0.43923
 C779 C 1.10708 0.29457 0.42876
 H780 H 1.12518 0.28453 0.43879
 O781 O 1.10297 0.52751 0.35846
 O782 O 1.13607 0.52747 0.32536
 C783 C 1.11307 0.53731 0.33546
 C784 C 1.09817 0.56076 0.32070
 C785 C 1.10826 0.57126 0.29467
 H786 H 1.12711 0.56199 0.28533
 O787 O 0.89754 0.47290 0.35854
 O788 O 0.86450 0.47301 0.32539
 C789 C 0.88755 0.46322 0.33547
 C790 C 0.90241 0.43974 0.32072
 C791 C 0.89215 0.42931 0.29477
 H792 H 0.87408 0.43944 0.28478
 O793 O 1.02825 0.64101 0.39729
 O794 O 1.02842 0.67423 0.36430
 C795 C 1.03806 0.66409 0.38736
 C796 C 1.06139 0.67883 0.40245
 C797 C 1.07166 0.70506 0.39263
 H798 H 1.06205 0.71492 0.37422
 O799 O 0.97204 0.35870 0.39718
 O800 O 0.97185 0.32548 0.36423
 C801 C 0.96223 0.33562 0.38730
 C802 C 0.93891 0.32090 0.40244
 C803 C 0.92849 0.29475 0.39259
 H804 H 0.93800 0.28494 0.37410
 O805 O 1.14184 0.60173 0.47240
 O806 O 1.17509 0.63467 0.47232
 C807 C 1.16496 0.61162 0.46265
 C808 C 1.17971 0.59655 0.43929
 C809 C 1.20575 0.60660 0.42875
 H810 H 1.21548 0.62514 0.43823
 O811 O 0.85859 0.39796 0.47195
 O812 O 0.82536 0.36498 0.47191
 C813 C 0.83554 0.38797 0.46215
 C814 C 0.82089 0.40278 0.43861
 C815 C 0.79512 0.39231 0.42791
 H816 H 0.78521 0.37409 0.43785
 Cu817 Cu 0.99980 0.38138 0.38105
 Cu818 Cu 0.99962 0.34162 0.34140
 Cu819 Cu 1.00044 0.61836 0.38120
 Cu820 Cu 1.00062 0.65815 0.34151
 Cu821 Cu 0.88129 0.50056 0.38122
 Cu822 Cu 0.84154 0.50070 0.34151
 Cu823 Cu 1.11861 0.49948 0.38117
 Cu824 Cu 1.15842 0.49935 0.34152
 C825 C 0.92599 0.42653 0.33334
 H826 H 0.93375 0.43418 0.35358
 C827 C 0.90489 0.40576 0.28165
 C828 C 1.07449 0.57370 0.33338
 H829 H 1.06702 0.56618 0.35378
 C830 C 1.09478 0.59423 0.28111
 C831 C 0.83339 0.42655 0.42565
 H832 H 0.85349 0.43446 0.43353
 C833 C 0.78205 0.40506 0.40434
 C834 C 1.16692 0.57296 0.42626
 H835 H 1.14662 0.56538 0.43396
 C836 C 1.21880 0.59357 0.40530
 C837 C 0.92587 0.33376 0.42597
 H838 H 0.93348 0.35414 0.43340
 C839 C 0.90515 0.28166 0.40580
 C840 C 1.07456 0.66593 0.42590
 H841 H 1.06704 0.64550 0.43331
 C842 C 1.09501 0.71818 0.40576
 C843 C 0.92612 0.57434 0.33334
 H844 H 0.93355 0.56677 0.35374
 C845 C 0.90595 0.59494 0.28108
 C846 C 1.07356 0.42592 0.33300
 H847 H 1.06601 0.43336 0.35339
 C848 C 1.09427 0.40563 0.28083
 C849 C 1.07335 0.33326 0.42607
 H850 H 1.06568 0.35354 0.43373
 C851 C 1.09423 0.28147 0.40526
 C852 C 0.92670 0.66665 0.42596
 H853 H 0.93407 0.64620 0.43348
 C854 C 0.90667 0.71897 0.40552
 C855 C 0.83368 0.57446 0.42608
 H856 H 0.85409 0.56690 0.43350
 C857 C 0.78149 0.59502 0.40589
 C858 C 1.16604 0.42513 0.42577
 H859 H 1.14573 0.43284 0.43332
 C860 C 1.21810 0.40418 0.40535
 O861 O 1.02734 0.39689 0.64141
 O862 O 1.02732 0.36379 0.67452
 C863 C 1.03718 0.38678 0.66439
 C864 C 1.06072 0.40163 0.67906
 C865 C 1.07139 0.39135 0.70495
 H866 H 1.06215 0.37247 0.71425
 O867 O 0.97260 0.60243 0.64141
 O868 O 0.97270 0.63547 0.67454
 C869 C 0.96290 0.61246 0.66447
 C870 C 0.93944 0.59759 0.67924
 C871 C 0.92901 0.60772 0.70527
 H872 H 0.93864 0.62620 0.71497
 O873 O 0.85871 0.52793 0.60242
 O874 O 0.82545 0.52804 0.63536
 C875 C 0.83560 0.53771 0.61231
 C876 C 0.82088 0.56109 0.59725
 C877 C 0.79473 0.57148 0.60716
 H878 H 0.78490 0.56186 0.62559
 O879 O 1.14140 0.47154 0.60278
 O880 O 1.17457 0.47134 0.63579
 C881 C 1.16447 0.46172 0.61272
 C882 C 1.17923 0.43843 0.59759
 C883 C 1.20553 0.42818 0.60727
 H884 H 1.21541 0.43775 0.62567
 O885 O 1.10194 0.35831 0.52790
 O886 O 1.13485 0.32501 0.52795
 C887 C 1.11183 0.33519 0.53766
 C888 C 1.09672 0.32040 0.56097
 C889 C 1.10673 0.29431 0.57145
 H890 H 1.12556 0.28493 0.56220
 O891 O 0.89799 0.64174 0.52760
 O892 O 0.86508 0.67503 0.52765
 C893 C 0.88811 0.66486 0.53734
 C894 C 0.90318 0.67956 0.56069
 C895 C 0.89331 0.70572 0.57107
 H896 H 0.87487 0.71558 0.56149
 O897 O 0.89753 0.47258 0.64146
 O898 O 0.86445 0.47271 0.67459
 C899 C 0.88754 0.46297 0.66459
 C900 C 0.90252 0.43969 0.67953
 C901 C 0.89260 0.42973 0.70580
 H902 H 0.87469 0.44008 0.71585
 O903 O 1.10281 0.52721 0.64149
 O904 O 1.13582 0.52711 0.67466
 C905 C 1.11281 0.53692 0.66456
 C906 C 1.09787 0.56036 0.67928
 C907 C 1.10793 0.57083 0.70533
 H908 H 1.12644 0.56128 0.71508
 O909 O 0.97135 0.35858 0.60291
 O910 O 0.97117 0.32535 0.63588
 C911 C 0.96149 0.33553 0.61286
 C912 C 0.93808 0.32090 0.59780
 C913 C 0.92763 0.29474 0.60763
 H914 H 0.93713 0.28488 0.62611
 O915 O 1.02814 0.64104 0.60248
 O916 O 1.02828 0.67423 0.63545
 C917 C 1.03793 0.66412 0.61240
 C918 C 1.06126 0.67888 0.59733
 C919 C 1.07160 0.70502 0.60726
 H920 H 1.06201 0.71477 0.62574
 O921 O 0.85843 0.39831 0.52734
 O922 O 0.82514 0.36539 0.52728
 C923 C 0.83524 0.38846 0.53696
 C924 C 0.82041 0.40344 0.56029
 C925 C 0.79414 0.39356 0.57033
 H926 H 0.78386 0.37606 0.55958
 O927 O 1.14174 0.60192 0.52785
 O928 O 1.17499 0.63486 0.52784
 C929 C 1.16481 0.61187 0.53763
 C930 C 1.17952 0.59686 0.56106
 C931 C 1.20552 0.60695 0.57164
 H932 H 1.21490 0.62578 0.56239
 O933 O 1.02804 0.60207 0.64127
 O934 O 1.02816 0.63514 0.67437
 C935 C 1.03780 0.61204 0.66432
 C936 C 1.06116 0.59705 0.67912
 C937 C 1.07147 0.60715 0.70517
 H938 H 1.06133 0.62520 0.71517
 O939 O 0.97190 0.39744 0.64177
 O940 O 0.97176 0.36439 0.67492
 C941 C 0.96220 0.38755 0.66491
 C942 C 0.93903 0.40279 0.67977
 C943 C 0.92875 0.39308 0.70605
 H944 H 0.93829 0.37462 0.71590
 O945 O 1.14147 0.52689 0.60238
 O946 O 1.17463 0.52675 0.63541
 C947 C 1.16464 0.53646 0.61230
 C948 C 1.17957 0.55975 0.59730
 C949 C 1.20586 0.56973 0.60717
 H950 H 1.21606 0.55901 0.62475
 O951 O 0.85861 0.47249 0.60265
 O952 O 0.82540 0.47252 0.63563
 C953 C 0.83552 0.46276 0.61262
 C954 C 0.82070 0.43945 0.59758
 C955 C 0.79471 0.42886 0.60771
 H956 H 0.78540 0.43802 0.62661
 O957 O 1.10292 0.64082 0.52762
 O958 O 1.13604 0.67391 0.52761
 C959 C 1.11292 0.66391 0.53730
 C960 C 1.09793 0.67876 0.56062
 C961 C 1.10793 0.70492 0.57082
 H962 H 1.12594 0.71498 0.56065
 O963 O 0.89701 0.35909 0.52771
 O964 O 0.86382 0.32607 0.52766
 C965 C 0.88688 0.33606 0.53744
 C966 C 0.90164 0.32119 0.56089
 C967 C 0.89154 0.29502 0.57097
 H968 H 0.87361 0.28500 0.56064
 O969 O 1.10215 0.47181 0.64133
 O970 O 1.13517 0.47164 0.67449
 C971 C 1.11203 0.46207 0.66444
 C972 C 1.09698 0.43873 0.67924
 C973 C 1.10689 0.42857 0.70544
 H974 H 1.12447 0.43925 0.71567
 O975 O 0.89754 0.52794 0.64132
 O976 O 0.86442 0.52812 0.67441
 C977 C 0.88754 0.53773 0.66436
 C978 C 0.90257 0.56107 0.67913
 C979 C 0.89250 0.57146 0.70518
 H980 H 0.87440 0.56141 0.71520
 O981 O 0.97276 0.64116 0.60239
 O982 O 0.97287 0.67432 0.63540
 C983 C 0.96314 0.66429 0.61234
 C984 C 0.93987 0.67922 0.59737
 C985 C 0.92974 0.70539 0.60740
 H986 H 0.93994 0.71537 0.62541
 O987 O 1.02669 0.35828 0.60237
 O988 O 1.02661 0.32501 0.63531
 C989 C 1.03626 0.33507 0.61220
 C990 C 1.05951 0.32018 0.59712
 C991 C 1.06943 0.29382 0.60688
 H992 H 1.05866 0.28353 0.62438
 O993 O 1.14096 0.39705 0.52781
 O994 O 1.17400 0.36388 0.52782
 C995 C 1.16404 0.38700 0.53749
 C996 C 1.17898 0.40193 0.56076
 C997 C 1.20528 0.39203 0.57068
 H998 H 1.21535 0.37414 0.56032
 O999 O 0.85913 0.60286 0.52760
 O1000 O 0.82606 0.63600 0.52764
 C1001 C 0.83606 0.61288 0.53732
 C1002 C 0.82117 0.59788 0.56062
 C1003 C 0.79501 0.60790 0.57080
 H1004 H 0.78501 0.62595 0.56064
 Cu1005 Cu 0.99931 0.38112 0.61883
 Cu1006 Cu 0.99921 0.34131 0.65849
 Cu1007 Cu 1.00037 0.61835 0.61859
 Cu1008 Cu 1.00052 0.65811 0.65827
 Cu1009 Cu 0.88120 0.38191 0.49984
 Cu1010 Cu 0.84132 0.34231 0.49979
 Cu1011 Cu 1.11812 0.38100 0.50016
 Cu1012 Cu 1.15771 0.34111 0.50017
 Cu1013 Cu 0.88187 0.61901 0.49991
 Cu1014 Cu 0.84225 0.65888 0.49993
 Cu1015 Cu 1.11907 0.61798 0.50003
 Cu1016 Cu 1.15890 0.65761 0.49998
 Cu1017 Cu 0.88140 0.50022 0.61864
 Cu1018 Cu 0.84159 0.50036 0.65831
 Cu1019 Cu 1.11865 0.49938 0.61869
 Cu1020 Cu 1.15836 0.49919 0.65842
 C1021 C 1.07362 0.42537 0.66644
 H1022 H 1.06598 0.43299 0.64614
 C1023 C 1.09449 0.40468 0.71840
 C1024 C 0.92622 0.57410 0.66649
 H1025 H 0.93385 0.56646 0.64619
 C1026 C 0.90550 0.59484 0.71837
 C1027 C 0.83379 0.57428 0.57381
 H1028 H 0.85417 0.56670 0.56634
 C1029 C 0.78166 0.59492 0.59411
 C1030 C 1.16628 0.42532 0.57417
 H1031 H 1.14580 0.43281 0.56686
 C1032 C 1.21869 0.40493 0.59397
 C1033 C 1.07303 0.33308 0.57389
 H1034 H 1.06561 0.35352 0.56639
 C1035 C 1.09321 0.28076 0.59440
 C1036 C 0.92663 0.66663 0.57383
 H1037 H 0.93407 0.64624 0.56625
 C1038 C 0.90642 0.71876 0.59447
 C1039 C 0.92593 0.42628 0.66685
 H1040 H 0.93341 0.43360 0.64638
 C1041 C 0.90548 0.40638 0.71919
 C1042 C 1.07432 0.57347 0.66650
 H1043 H 1.06673 0.56583 0.64620
 C1044 C 1.09491 0.59428 0.71839
 C1045 C 0.92508 0.33381 0.57427
 H1046 H 0.93274 0.35418 0.56683
 C1047 C 0.90433 0.28165 0.59437
 C1048 C 1.07441 0.66607 0.57384
 H1049 H 1.06684 0.64570 0.56635
 C1050 C 1.09496 0.71818 0.59419
 C1051 C 0.83330 0.42665 0.57379
 H1052 H 0.85367 0.43424 0.56627
 C1053 C 0.78118 0.40590 0.59423
 C1054 C 1.16680 0.57319 0.57397
 H1055 H 1.14643 0.56571 0.56637
 C1056 C 1.21897 0.59351 0.59470
 O1057 O 0.47172 0.89771 0.35811
 O1058 O 0.47159 0.86470 0.32495
 C1059 C 0.46195 0.88779 0.33504
 C1060 C 0.43860 0.90285 0.32032
 C1061 C 0.42797 0.89274 0.29438
 H1062 H 0.43740 0.87414 0.28469
 O1063 O 0.52808 1.10232 0.35839
 O1064 O 0.52825 1.13534 0.32521
 C1065 C 0.53782 1.11221 0.33528
 C1066 C 0.56104 1.09703 0.32046
 C1067 C 0.57132 1.10683 0.29423
 H1068 H 0.56174 1.12528 0.28439
 O1069 O 0.35865 0.97299 0.39738
 O1070 O 0.32539 0.97304 0.36447
 C1071 C 0.33555 0.96326 0.38746
 C1072 C 0.32090 0.93975 0.40241
 C1073 C 0.29497 0.92909 0.39222
 H1074 H 0.28524 0.93860 0.37368
 O1075 O 0.64112 1.02709 0.39772
 O1076 O 0.67441 1.02704 0.36481
 C1077 C 0.66425 1.03679 0.38781
 C1078 C 0.67900 1.06021 0.40275
 C1079 C 0.70514 1.07045 0.39271
 H1080 H 0.71522 1.06024 0.37475
 O1081 O 0.39770 0.85874 0.47245
 O1082 O 0.36455 0.82569 0.47251
 C1083 C 0.38768 0.83564 0.46283
 C1084 C 0.40256 0.82073 0.43951
 C1085 C 0.39273 0.79437 0.42970
 H1086 H 0.37532 0.78409 0.44062
 O1087 O 0.60250 1.14140 0.47263
 O1088 O 0.63561 1.17449 0.47257
 C1089 C 0.61247 1.16451 0.46294
 C1090 C 0.59748 1.17938 0.43960
 C1091 C 0.60726 1.20572 0.42963
 H1092 H 0.62476 1.21601 0.44039
 O1093 O 0.39762 1.02819 0.35834
 O1094 O 0.36452 1.02835 0.32525
 C1095 C 0.38766 1.03795 0.33527
 C1096 C 0.40276 1.06122 0.32045
 C1097 C 0.39281 1.07161 0.29434
 H1098 H 0.37428 1.06209 0.28462
 O1099 O 0.60235 0.97180 0.35859
 O1100 O 0.63552 0.97171 0.32555
 C1101 C 0.61237 0.96208 0.33552
 C1102 C 0.59731 0.93885 0.32063
 C1103 C 0.60736 0.92849 0.29453
 H1104 H 0.62594 0.93800 0.28489
 O1105 O 0.52683 0.85860 0.39707
 O1106 O 0.52682 0.82543 0.36407
 C1107 C 0.53648 0.83546 0.38716
 C1108 C 0.55967 0.82055 0.40229
 C1109 C 0.57010 0.79447 0.39225
 H1110 H 0.56067 0.78485 0.37363
 O1111 O 0.47290 1.14135 0.39739
 O1112 O 0.47300 1.17454 0.36437
 C1113 C 0.46326 1.16449 0.38744
 C1114 C 0.43994 1.17937 0.40243
 C1115 C 0.42972 1.20550 0.39236
 H1116 H 0.43989 1.21550 0.37432
 O1117 O 0.35898 1.10298 0.47221
 O1118 O 0.32595 1.13617 0.47217
 C1119 C 0.33591 1.11304 0.46251
 C1120 C 0.32104 1.09814 0.43915
 C1121 C 0.29483 1.10814 0.42904
 H1122 H 0.28465 1.12576 0.43969
 O1123 O 0.64035 0.89679 0.47231
 O1124 O 0.67328 0.86352 0.47233
 C1125 C 0.66338 0.88665 0.46260
 C1126 C 0.67832 0.90150 0.43925
 C1127 C 0.70439 0.89127 0.42900
 H1128 H 0.71429 0.87316 0.43914
 O1129 O 0.47270 1.10263 0.35840
 O1130 O 0.47281 1.13568 0.32524
 C1131 C 0.46301 1.11266 0.33532
 C1132 C 0.43960 1.09778 0.32052
 C1133 C 0.42936 1.10783 0.29440
 H1134 H 0.43957 1.12582 0.28433
 O1135 O 0.52712 0.89749 0.35822
 O1136 O 0.52709 0.86449 0.32506
 C1137 C 0.53688 0.88750 0.33517
 C1138 C 0.56038 0.90238 0.32049
 C1139 C 0.57071 0.89236 0.29440
 H1140 H 0.56050 0.87443 0.28427
 O1141 O 0.64112 0.97162 0.39755
 O1142 O 0.67442 0.97152 0.36466
 C1143 C 0.66420 0.96179 0.38764
 C1144 C 0.67879 0.93828 0.40263
 C1145 C 0.70485 0.92772 0.39267
 H1146 H 0.71471 0.93730 0.37424
 O1147 O 0.35876 1.02849 0.39717
 O1148 O 0.32552 1.02861 0.36423
 C1149 C 0.33573 1.03836 0.38720
 C1150 C 0.32109 1.06186 0.40213
 C1151 C 0.29519 1.07257 0.39192
 H1152 H 0.28586 1.06334 0.37307
 O1153 O 0.39803 1.14173 0.47226
 O1154 O 0.36515 1.17504 0.47224
 C1155 C 0.38817 1.16487 0.46252
 C1156 C 0.40324 1.17960 0.43914
 C1157 C 0.39328 1.20572 0.42869
 H1158 H 0.37479 1.21550 0.43825
 O1159 O 0.60114 0.85823 0.47241
 O1160 O 0.63399 0.82487 0.47245
 C1161 C 0.61100 0.83509 0.46271
 C1162 C 0.59606 0.82040 0.43928
 C1163 C 0.60613 0.79432 0.42896
 H1164 H 0.62407 0.78420 0.43918
 O1165 O 0.60249 1.02717 0.35861
 O1166 O 0.63565 1.02713 0.32557
 C1167 C 0.61255 1.03686 0.33554
 C1168 C 0.59762 1.06021 0.32066
 C1169 C 0.60760 1.07031 0.29445
 H1170 H 0.62559 1.06009 0.28441
 O1171 O 0.39731 0.97284 0.35834
 O1172 O 0.36418 0.97294 0.32529
 C1173 C 0.38723 0.96314 0.33530
 C1174 C 0.40203 0.93969 0.32051
 C1175 C 0.39173 0.92928 0.29456
 H1176 H 0.37364 0.93941 0.28461
 O1177 O 0.52833 1.14125 0.39719
 O1178 O 0.52849 1.17442 0.36416
 C1179 C 0.53815 1.16431 0.38722
 C1180 C 0.56143 1.17911 0.40232
 C1181 C 0.57190 1.20519 0.39229
 H1182 H 0.56267 1.21454 0.37344
 O1183 O 0.47149 0.85877 0.39686
 O1184 O 0.47137 0.82560 0.36387
 C1185 C 0.46170 0.83571 0.38692
 C1186 C 0.43843 0.82093 0.40208
 C1187 C 0.42791 0.79484 0.39216
 H1188 H 0.43707 0.78546 0.37330
 O1189 O 0.64122 1.10229 0.47239
 O1190 O 0.67449 1.13521 0.47227
 C1191 C 0.66432 1.11217 0.46261
 C1192 C 0.67906 1.09707 0.43927
 C1193 C 0.70520 1.10702 0.42887
 H1194 H 0.71495 1.12553 0.43838
 O1195 O 0.35907 0.89793 0.47217
 O1196 O 0.32583 0.86497 0.47217
 C1197 C 0.33598 0.88799 0.46242
 C1198 C 0.32121 0.90293 0.43900
 C1199 C 0.29527 0.89264 0.42854
 H1200 H 0.28535 0.87448 0.43858
 Cu1201 Cu 0.49929 0.88146 0.38086
 Cu1202 Cu 0.49922 0.84174 0.34114
 Cu1203 Cu 0.50050 1.11858 0.38115
 Cu1204 Cu 0.50065 1.15833 0.34143
 Cu1205 Cu 0.38139 1.00062 0.38113
 Cu1206 Cu 0.34155 1.00075 0.34151
 Cu1207 Cu 0.61846 0.99942 0.38142
 Cu1208 Cu 0.65835 0.99936 0.34185
 C1209 C 0.42565 0.92650 0.33307
 H1210 H 0.43343 0.93414 0.35329
 C1211 C 0.40449 0.90577 0.28139
 C1212 C 0.57416 1.07353 0.33334
 H1213 H 0.56663 1.06613 0.35377
 C1214 C 0.59464 1.09365 0.28111
 C1215 C 0.33371 0.92666 0.42597
 H1216 H 0.35393 0.93445 0.43366
 C1217 C 0.28205 0.90548 0.40509
 C1218 C 0.66627 1.07350 0.42622
 H1219 H 0.64591 1.06598 0.43382
 C1220 C 0.71835 1.09389 0.40555
 C1221 C 0.42568 0.83361 0.42583
 H1222 H 0.43323 0.85404 0.43318
 C1223 C 0.40507 0.78129 0.40586
 C1224 C 0.57429 1.16647 0.42606
 H1225 H 0.56677 1.14605 0.43350
 C1226 C 0.59481 1.21876 0.40580
 C1227 C 0.42633 1.07428 0.33322
 H1228 H 0.43385 1.06668 0.35358
 C1229 C 0.40593 1.09495 0.28118
 C1230 C 0.57365 0.92580 0.33328
 H1231 H 0.56606 0.93338 0.35361
 C1232 C 0.59423 0.90521 0.28129
 C1233 C 0.57264 0.83320 0.42598
 H1234 H 0.56503 0.85353 0.43356
 C1235 C 0.59339 0.78126 0.40539
 C1236 C 0.42674 1.16674 0.42600
 H1237 H 0.43425 1.14638 0.43363
 C1238 C 0.40634 1.21880 0.40527
 C1239 C 0.33377 1.07473 0.42582
 H1240 H 0.35407 1.06702 0.43339
 C1241 C 0.28177 1.09568 0.40525
 C1242 C 0.66584 0.92518 0.42609
 H1243 H 0.64554 0.93291 0.43362
 C1244 C 0.71780 0.90419 0.40569
 O1245 O 0.52704 0.89764 0.64209
 O1246 O 0.52703 0.86468 0.67534
 C1247 C 0.53680 0.88769 0.66517
 C1248 C 0.56028 0.90266 0.67980
 C1249 C 0.57076 0.89268 0.70588
 H1250 H 0.56116 0.87424 0.71572
 O1251 O 0.47224 1.10256 0.64158
 O1252 O 0.47227 1.13557 0.67472
 C1253 C 0.46243 1.11261 0.66459
 C1254 C 0.43882 1.09783 0.67921
 C1255 C 0.42819 1.10808 0.70512
 H1256 H 0.43776 1.12659 0.71482
 O1257 O 0.35827 1.02806 0.60241
 O1258 O 0.32488 1.02814 0.63523
 C1259 C 0.33510 1.03779 0.61220
 C1260 C 0.32037 1.06107 0.59700
 C1261 C 0.29402 1.07128 0.60660
 H1262 H 0.28406 1.06163 0.62494
 O1263 O 0.64119 0.97164 0.60245
 O1264 O 0.67449 0.97143 0.63534
 C1265 C 0.66425 0.96176 0.61235
 C1266 C 0.67886 0.93834 0.59730
 C1267 C 0.70508 0.92797 0.60704
 H1268 H 0.71501 0.93758 0.62541
 O1269 O 0.60119 0.85831 0.52788
 O1270 O 0.63405 0.82496 0.52789
 C1271 C 0.61108 0.83520 0.53765
 C1272 C 0.59619 0.82057 0.56119
 C1273 C 0.60630 0.79452 0.57156
 H1274 H 0.62424 0.78439 0.56134
 O1275 O 0.39787 1.14161 0.52774
 O1276 O 0.36496 1.17491 0.52778
 C1277 C 0.38794 1.16468 0.53754
 C1278 C 0.40297 1.17935 0.56096
 C1279 C 0.39293 1.20538 0.57153
 H1280 H 0.37414 1.21481 0.56226
 O1281 O 0.39702 0.97273 0.64157
 O1282 O 0.36384 0.97284 0.67459
 C1283 C 0.38696 0.96311 0.66467
 C1284 C 0.40193 0.93984 0.67967
 C1285 C 0.39200 0.92989 0.70595
 H1286 H 0.37405 0.94020 0.71597
 O1287 O 0.60296 1.02755 0.64118
 O1288 O 0.63613 1.02748 0.67419
 C1289 C 0.61310 1.03732 0.66416
 C1290 C 0.59819 1.06073 0.67898
 C1291 C 0.60854 1.07142 0.70482
 H1292 H 0.62753 1.06229 0.71399
 O1293 O 0.47158 0.85884 0.60338
 O1294 O 0.47142 0.82566 0.63641
 C1295 C 0.46182 0.83574 0.61330
 C1296 C 0.43861 0.82093 0.59808
 C1297 C 0.42833 0.79463 0.60774
 H1298 H 0.43782 0.78477 0.62622
 O1299 O 0.52819 1.14104 0.60304
 O1300 O 0.52826 1.17415 0.63609
 C1301 C 0.53800 1.16406 0.61307
 C1302 C 0.56145 1.17879 0.59816
 C1303 C 0.57201 1.20474 0.60836
 H1304 H 0.56250 1.21440 0.62692
 O1305 O 0.35879 0.89797 0.52758
 O1306 O 0.32553 0.86503 0.52755
 C1307 C 0.33563 0.88808 0.53723
 C1308 C 0.32075 0.90307 0.56050
 C1309 C 0.29461 0.89302 0.57068
 H1310 H 0.28459 0.87501 0.56050
 O1311 O 0.64158 1.10234 0.52778
 O1312 O 0.67488 1.13524 0.52774
 C1313 C 0.66475 1.11220 0.53745
 C1314 C 0.67961 1.09700 0.56066
 C1315 C 0.70575 1.10691 0.57109
 H1316 H 0.71514 1.12575 0.56187
 O1317 O 0.52771 1.10183 0.64160
 O1318 O 0.52777 1.13482 0.67477
 C1319 C 0.53741 1.11172 0.66471
 C1320 C 0.56085 1.09676 0.67944
 C1321 C 0.57110 1.10671 0.70557
 H1322 H 0.56039 1.12424 0.71587
 O1323 O 0.47162 0.89775 0.64219
 O1324 O 0.47148 0.86479 0.67542
 C1325 C 0.46185 0.88787 0.66529
 C1326 C 0.43855 0.90305 0.68003
 C1327 C 0.42828 0.89336 0.70631
 H1328 H 0.43788 0.87496 0.71621
 O1329 O 0.64156 1.02699 0.60198
 O1330 O 0.67486 1.02681 0.63487
 C1331 C 0.66481 1.03649 0.61178
 C1332 C 0.67977 1.05969 0.59670
 C1333 C 0.70620 1.06947 0.60638
 H1334 H 0.71649 1.05858 0.62381
 O1335 O 0.35839 0.97269 0.60246
 O1336 O 0.32505 0.97270 0.63532
 C1337 C 0.33525 0.96298 0.61232
 C1338 C 0.32052 0.93966 0.59725
 C1339 C 0.29438 0.92926 0.60716
 H1340 H 0.28458 0.93878 0.62564
 O1341 O 0.60271 1.14115 0.52803
 O1342 O 0.63587 1.17420 0.52802
 C1343 C 0.61283 1.16414 0.53781
 C1344 C 0.59805 1.17881 0.56137
 C1345 C 0.60831 1.20475 0.57188
 H1346 H 0.62639 1.21477 0.56181
 O1347 O 0.39760 0.85900 0.52785
 O1348 O 0.36443 0.82597 0.52784
 C1349 C 0.38750 0.83597 0.53759
 C1350 C 0.40232 0.82110 0.56100
 C1351 C 0.39239 0.79481 0.57092
 H1352 H 0.37458 0.78471 0.56047
 O1353 O 0.60227 0.97211 0.64129
 O1354 O 0.63543 0.97198 0.67433
 C1355 C 0.61224 0.96241 0.66439
 C1356 C 0.59716 0.93920 0.67936
 C1357 C 0.60726 0.92896 0.70546
 H1358 H 0.62538 0.93905 0.71538
 O1359 O 0.39712 1.02811 0.64127
 O1360 O 0.36389 1.02829 0.67423
 C1361 C 0.38703 1.03793 0.66424
 C1362 C 0.40194 1.06132 0.67901
 C1363 C 0.39168 1.07182 0.70493
 H1364 H 0.37352 1.06181 0.71487
 O1365 O 0.47282 1.14117 0.60241
 O1366 O 0.47287 1.17432 0.63543
 C1367 C 0.46325 1.16435 0.61230
 C1368 C 0.44004 1.17932 0.59723
 C1369 C 0.43011 1.20564 0.60706
 H1370 H 0.44084 1.21583 0.62463
 O1371 O 0.52691 0.85872 0.60336
 O1372 O 0.52689 0.82557 0.63641
 C1373 C 0.53658 0.83560 0.61332
 C1374 C 0.55983 0.82072 0.59823
 C1375 C 0.57031 0.79467 0.60833
 H1376 H 0.56090 0.78505 0.62698
 O1377 O 0.64039 0.89688 0.52770
 O1378 O 0.67335 0.86362 0.52770
 C1379 C 0.66345 0.88677 0.53737
 C1380 C 0.67843 0.90167 0.56062
 C1381 C 0.70466 0.89164 0.57064
 H1382 H 0.71463 0.87364 0.56040
 O1383 O 0.35893 1.10282 0.52751
 O1384 O 0.32588 1.13598 0.52750
 C1385 C 0.33581 1.11282 0.53714
 C1386 C 0.32078 1.09776 0.56030
 C1387 C 0.29443 1.10760 0.57014
 H1388 H 0.28441 1.12554 0.55981
 Cu1389 Cu 0.49928 0.88155 0.61946
 Cu1390 Cu 0.49918 0.84187 0.65924
 Cu1391 Cu 0.50023 1.11832 0.61886
 Cu1392 Cu 0.50029 1.15802 0.65859
 Cu1393 Cu 0.38163 0.88172 0.50001
 Cu1394 Cu 0.34174 0.84211 0.50001
 Cu1395 Cu 0.61747 0.88088 0.50007
 Cu1396 Cu 0.65695 0.84088 0.50010
 Cu1397 Cu 0.38177 1.11899 0.49992
 Cu1398 Cu 0.34220 1.15888 0.49992
 Cu1399 Cu 0.61868 1.11850 0.50021
 Cu1400 Cu 0.65854 1.15810 0.50011
 Cu1401 Cu 0.38102 1.00038 0.61863
 Cu1402 Cu 0.34108 1.00049 0.65816
 Cu1403 Cu 0.61867 0.99959 0.61844
 Cu1404 Cu 0.65855 0.99941 0.65800
 C1405 C 0.57348 0.92610 0.66686
 H1406 H 0.56583 0.93362 0.64653
 C1407 C 0.59430 0.90564 0.71883
 C1408 C 0.42569 1.07430 0.66647
 H1409 H 0.43347 1.06656 0.64627
 C1410 C 0.40459 1.09525 0.71811
 C1411 C 0.33343 1.07430 0.57367
 H1412 H 0.35395 1.06686 0.56644
 C1413 C 0.28092 1.09459 0.59334
 C1414 C 0.66585 0.92520 0.57392
 H1415 H 0.64543 0.93279 0.56656
 C1416 C 0.71812 0.90460 0.59387
 C1417 C 0.57277 0.83336 0.57449
 H1418 H 0.56513 0.85366 0.56686
 C1419 C 0.59360 0.78147 0.59519
 C1420 C 0.42660 1.16657 0.57390
 H1421 H 0.43404 1.14617 0.56633
 C1422 C 0.40637 1.21879 0.59457
 C1423 C 0.42539 0.92646 0.66704
 H1424 H 0.43290 0.93377 0.64657
 C1425 C 0.40496 0.90661 0.71941
 C1426 C 0.57428 1.07350 0.66653
 H1427 H 0.56660 1.06583 0.64628
 C1428 C 0.59514 1.09443 0.71837
 C1429 C 0.42561 0.83384 0.57454
 H1430 H 0.43311 0.85431 0.56723
 C1431 C 0.40518 0.78144 0.59432
 C1432 C 0.57446 1.16614 0.57450
 H1433 H 0.56670 1.14593 0.56679
 C1434 C 0.59547 1.21784 0.59539
 C1435 C 0.33340 0.92658 0.57374
 H1436 H 0.35377 0.93418 0.56627
 C1437 C 0.28132 0.90588 0.59406
 C1438 C 0.66687 1.07332 0.57355
 H1439 H 0.64639 1.06600 0.56610
 C1440 C 0.71931 1.09328 0.59397
 O1441 O 0.60181 0.52756 1.14150
 O1442 O 0.63485 0.52747 1.17465
 C1443 C 0.61186 0.53732 1.16452
 C1444 C 0.59710 0.56087 1.17920
 C1445 C 0.60716 0.57108 1.20531
 H1446 H 0.62504 0.56075 1.21544
 O1447 O 0.39827 0.47296 1.14222
 O1448 O 0.36525 0.47305 1.17540
 C1449 C 0.38834 0.46335 1.16538
 C1450 C 0.40325 0.43998 1.18024
 C1451 C 0.39353 0.43021 1.20666
 H1452 H 0.37622 0.44121 1.21702
 O1453 O 0.52809 0.64198 1.10223
 O1454 O 0.52823 0.67524 1.13513
 C1455 C 0.53792 0.66504 1.11213
 C1456 C 0.56138 0.67964 1.09711
 C1457 C 0.57182 0.70578 1.10694
 H1458 H 0.56220 0.71569 1.12532
 O1459 O 0.47186 0.35842 1.10271
 O1460 O 0.47160 0.32512 1.13561
 C1461 C 0.46204 0.33532 1.11254
 C1462 C 0.43875 0.32066 1.09732
 C1463 C 0.42831 0.29448 1.10708
 H1464 H 0.43779 0.28459 1.12554
 O1465 O 0.64167 0.60186 1.02785
 O1466 O 0.67510 0.63463 1.02783
 C1467 C 0.66484 0.61164 1.03755
 C1468 C 0.67952 0.59649 1.06089
 C1469 C 0.70580 0.60616 1.07116
 H1470 H 0.71574 0.62452 1.06153
 O1471 O 0.35889 0.39834 1.02759
 O1472 O 0.32554 0.36549 1.02770
 C1473 C 0.33578 0.38847 1.03740
 C1474 C 0.32121 0.40334 1.06099
 C1475 C 0.29508 0.39334 1.07126
 H1476 H 0.28474 0.37585 1.06054
 O1477 O 0.47250 0.60340 1.14112
 O1478 O 0.47260 0.63649 1.17419
 C1479 C 0.46285 0.61341 1.16421
 C1480 C 0.43958 0.59842 1.17915
 C1481 C 0.42958 0.60830 1.20542
 H1482 H 0.43982 0.62628 1.21543
 O1483 O 0.52717 0.39696 1.14184
 O1484 O 0.52708 0.36386 1.17495
 C1485 C 0.53685 0.38693 1.16491
 C1486 C 0.56014 0.40196 1.17975
 C1487 C 0.57071 0.39181 1.20573
 H1488 H 0.56150 0.37294 1.21507
 O1489 O 0.64032 0.47168 1.10294
 O1490 O 0.67345 0.47156 1.13599
 C1491 C 0.66336 0.46187 1.11295
 C1492 C 0.67813 0.43848 1.09801
 C1493 C 0.70434 0.42831 1.10793
 H1494 H 0.71442 0.43849 1.12590
 O1495 O 0.35907 0.52796 1.10302
 O1496 O 0.32588 0.52799 1.13602
 C1497 C 0.33592 0.53762 1.11291
 C1498 C 0.32101 0.56086 1.09779
 C1499 C 0.29488 0.57121 1.10781
 H1500 H 0.28516 0.56164 1.12632
 O1501 O 0.39743 0.64169 1.02791
 O1502 O 0.36433 0.67479 1.02787
 C1503 C 0.38738 0.66475 1.03763
 C1504 C 0.40232 0.67961 1.06097
 C1505 C 0.39196 0.70547 1.07162
 H1506 H 0.37296 0.71461 1.06248
 O1507 O 0.60149 0.35801 1.02775
 O1508 O 0.63450 0.32481 1.02778
 C1509 C 0.61138 0.33485 1.03740
 C1510 C 0.59638 0.31999 1.06073
 C1511 C 0.60632 0.29377 1.07084
 H1512 H 0.62386 0.28352 1.06011
 O1513 O 0.39799 0.52835 1.14186
 O1514 O 0.36494 0.52847 1.17501
 C1515 C 0.38799 0.53818 1.16488
 C1516 C 0.40299 0.56161 1.17954
 C1517 C 0.39325 0.57185 1.20580
 H1518 H 0.37491 0.56214 1.21573
 O1519 O 0.60144 0.47213 1.14190
 O1520 O 0.63446 0.47205 1.17506
 C1521 C 0.61132 0.46247 1.16505
 C1522 C 0.59628 0.43918 1.17994
 C1523 C 0.60616 0.42910 1.20619
 H1524 H 0.62374 0.43979 1.21642
 O1525 O 0.52725 0.35813 1.10307
 O1526 O 0.52713 0.32486 1.13601
 C1527 C 0.53694 0.33501 1.11302
 C1528 C 0.56030 0.32023 1.09800
 C1529 C 0.57098 0.29431 1.10822
 H1530 H 0.56184 0.28505 1.12716
 O1531 O 0.47268 0.64218 1.10210
 O1532 O 0.47275 0.67543 1.13502
 C1533 C 0.46302 0.66533 1.11198
 C1534 C 0.43958 0.68007 1.09704
 C1535 C 0.42932 0.70623 1.10696
 H1536 H 0.43999 0.71653 1.12450
 O1537 O 0.35884 0.60255 1.02787
 O1538 O 0.32561 0.63553 1.02786
 C1539 C 0.33574 0.61248 1.03759
 C1540 C 0.32099 0.59751 1.06101
 C1541 C 0.29490 0.60756 1.07137
 H1542 H 0.28483 0.62561 1.06128
 O1543 O 0.64048 0.39684 1.02816
 O1544 O 0.67362 0.36377 1.02826
 C1545 C 0.66353 0.38682 1.03796
 C1546 C 0.67828 0.40180 1.06133
 C1547 C 0.70450 0.39192 1.07157
 H1548 H 0.71433 0.37352 1.06192
 O1549 O 0.47182 0.39698 1.14188
 O1550 O 0.47158 0.36387 1.17498
 C1551 C 0.46203 0.38702 1.16495
 C1552 C 0.43892 0.40232 1.17986
 C1553 C 0.42848 0.39244 1.20601
 H1554 H 0.43756 0.37351 1.21536
 O1555 O 0.52785 0.60320 1.14118
 O1556 O 0.52803 0.63630 1.17424
 C1557 C 0.53760 0.61315 1.16425
 C1558 C 0.56080 0.59797 1.17912
 C1559 C 0.57119 0.60789 1.20524
 H1560 H 0.56176 0.62648 1.21494
 O1561 O 0.35948 0.47252 1.10331
 O1562 O 0.32632 0.47248 1.13634
 C1563 C 0.33646 0.46269 1.11334
 C1564 C 0.32171 0.43926 1.09839
 C1565 C 0.29588 0.42851 1.10874
 H1566 H 0.28670 0.43758 1.12775
 O1567 O 0.64081 0.52709 1.10274
 O1568 O 0.67395 0.52696 1.13579
 C1569 C 0.66399 0.53665 1.11267
 C1570 C 0.67906 0.55980 1.09761
 C1571 C 0.70536 0.56973 1.10752
 H1572 H 0.71533 0.55945 1.12551
 O1573 O 0.39744 0.35908 1.02741
 O1574 O 0.36419 0.32613 1.02748
 C1575 C 0.38735 0.33603 1.03712
 C1576 C 0.40225 0.32106 1.06043
 C1577 C 0.39215 0.29487 1.07048
 H1578 H 0.37417 0.28490 1.06019
 O1579 O 0.60308 0.64104 1.02773
 O1580 O 0.63635 0.67396 1.02768
 C1581 C 0.61318 0.66409 1.03736
 C1582 C 0.59822 0.67911 1.06057
 C1583 C 0.60833 0.70527 1.07067
 H1584 H 0.62643 0.71517 1.06052
 Cu1585 Cu 0.61778 0.49962 1.11896
 Cu1586 Cu 0.65749 0.49949 1.15870
 Cu1587 Cu 0.38201 0.50046 1.11929
 Cu1588 Cu 0.34226 0.50050 1.15901
 Cu1589 Cu 0.50027 0.61939 1.11835
 Cu1590 Cu 0.50040 0.65921 1.15795
 Cu1591 Cu 0.49953 0.38093 1.11908
 Cu1592 Cu 0.49931 0.34107 1.15870
 C1593 C 0.57374 0.57429 1.16642
 H1594 H 0.56613 0.56678 1.14607
 C1595 C 0.59442 0.59462 1.21845
 C1596 C 0.42623 0.42617 1.16724
 H1597 H 0.43370 0.43349 1.14676
 C1598 C 0.40577 0.40626 1.21967
 C1599 C 0.57457 0.66663 1.07375
 H1600 H 0.56692 0.64626 1.06633
 C1601 C 0.59533 0.71872 1.09390
 C1602 C 0.42573 0.33364 1.07381
 H1603 H 0.43336 0.35404 1.06644
 C1604 C 0.40498 0.28146 1.09383
 C1605 C 0.66647 0.57313 1.07411
 H1606 H 0.64599 0.56585 1.06661
 C1607 C 0.71886 0.59295 1.09452
 C1608 C 0.33416 0.42656 1.07445
 H1609 H 0.35441 0.43427 1.06674
 C1610 C 0.28230 0.40555 1.09532
 C1611 C 0.42632 0.57490 1.16654
 H1612 H 0.43368 0.56740 1.14609
 C1613 C 0.40638 0.59522 1.21888
 C1614 C 0.57300 0.42573 1.16712
 H1615 H 0.56542 0.43325 1.14676
 C1616 C 0.59375 0.40523 1.21919
 C1617 C 0.66541 0.42525 1.07453
 H1618 H 0.64500 0.43272 1.06702
 C1619 C 0.71765 0.40500 1.09491
 C1620 C 0.33373 0.57398 1.07420
 H1621 H 0.35408 0.56640 1.06663
 C1622 C 0.28173 0.59461 1.09479
 C1623 C 0.42620 0.66716 1.07376
 H1624 H 0.43389 0.64688 1.06612
 C1625 C 0.40531 0.71905 1.09462
 C1626 C 0.57309 0.33282 1.07418
 H1627 H 0.56544 0.35315 1.06661
 C1628 C 0.59401 0.28082 1.09479
 O1629 O 0.60210 0.47187 0.85862
 O1630 O 0.63519 0.47183 0.82551
 C1631 C 0.61203 0.46225 0.83548
 C1632 C 0.59692 0.43912 0.82050
 C1633 C 0.60687 0.42908 0.79428
 H1634 H 0.62487 0.43932 0.78428
 O1635 O 0.39763 0.52810 0.85836
 O1636 O 0.36459 0.52833 0.82523
 C1637 C 0.38768 0.53794 0.83532
 C1638 C 0.40274 0.56133 0.82063
 C1639 C 0.39272 0.57190 0.79460
 H1640 H 0.37419 0.56241 0.78484
 O1641 O 0.47266 0.64136 0.89777
 O1642 O 0.47277 0.67458 0.86478
 C1643 C 0.46297 0.66447 0.88779
 C1644 C 0.43951 0.67923 0.90266
 C1645 C 0.42914 0.70525 0.89246
 H1646 H 0.43928 0.71527 0.87442
 O1647 O 0.52745 0.35864 0.89709
 O1648 O 0.52743 0.32545 0.86411
 C1649 C 0.53720 0.33557 0.88712
 C1650 C 0.56064 0.32084 0.90205
 C1651 C 0.57129 0.29494 0.89181
 H1652 H 0.56188 0.28533 0.87318
 O1653 O 0.64086 0.39714 0.97280
 O1654 O 0.67402 0.36409 0.97289
 C1655 C 0.66403 0.38720 0.96321
 C1656 C 0.67895 0.40216 0.93990
 C1657 C 0.70530 0.39235 0.93000
 H1658 H 0.71557 0.37485 0.94081
 O1659 O 0.35877 0.60268 0.97247
 O1660 O 0.32555 0.63568 0.97242
 C1661 C 0.33567 0.61263 0.96272
 C1662 C 0.32091 0.59770 0.93933
 C1663 C 0.29477 0.60772 0.92909
 H1664 H 0.28467 0.62568 0.93930
 O1665 O 0.52803 0.60248 0.85886
 O1666 O 0.52823 0.63557 0.82574
 C1667 C 0.53783 0.61245 0.83580
 C1668 C 0.56114 0.59736 0.82103
 C1669 C 0.57156 0.60732 0.79491
 H1670 H 0.56205 0.62585 0.78516
 O1671 O 0.47181 0.39736 0.85839
 O1672 O 0.47167 0.36430 0.82529
 C1673 C 0.46200 0.38738 0.83536
 C1674 C 0.43862 0.40242 0.82062
 C1675 C 0.42806 0.39235 0.79462
 H1676 H 0.43750 0.37376 0.78494
 O1677 O 0.64130 0.52683 0.89777
 O1678 O 0.67451 0.52675 0.86478
 C1679 C 0.66447 0.53645 0.88785
 C1680 C 0.67938 0.55971 0.90284
 C1681 C 0.70552 0.56991 0.89276
 H1682 H 0.71552 0.55976 0.87472
 O1683 O 0.35857 0.47281 0.89716
 O1684 O 0.32538 0.47291 0.86416
 C1685 C 0.33545 0.46315 0.88721
 C1686 C 0.32064 0.43982 0.90222
 C1687 C 0.29469 0.42921 0.89202
 H1688 H 0.28507 0.43863 0.87338
 O1689 O 0.60304 0.64087 0.97239
 O1690 O 0.63629 0.67381 0.97228
 C1691 C 0.61314 0.66389 0.96263
 C1692 C 0.59816 0.67880 0.93933
 C1693 C 0.60821 0.70494 0.92910
 H1694 H 0.62628 0.71492 0.93921
 O1695 O 0.39715 0.35912 0.97196
 O1696 O 0.36389 0.32618 0.97205
 C1697 C 0.38697 0.33612 0.96223
 C1698 C 0.40181 0.32124 0.93883
 C1699 C 0.39142 0.29536 0.92824
 H1700 H 0.37248 0.28619 0.93748
 O1701 O 0.39747 0.47266 0.85838
 O1702 O 0.36442 0.47282 0.82524
 C1703 C 0.38742 0.46296 0.83533
 C1704 C 0.40218 0.43941 0.82062
 C1705 C 0.39196 0.42904 0.79463
 H1706 H 0.37396 0.43924 0.78459
 O1707 O 0.60245 0.52724 0.85891
 O1708 O 0.63554 0.52721 0.82579
 C1709 C 0.61251 0.53700 0.83587
 C1710 C 0.59767 0.56048 0.82112
 C1711 C 0.60774 0.57072 0.79500
 H1712 H 0.62571 0.56048 0.78494
 O1713 O 0.47206 0.35860 0.89740
 O1714 O 0.47195 0.32537 0.86447
 C1715 C 0.46233 0.33547 0.88755
 C1716 C 0.43894 0.32077 0.90260
 C1717 C 0.42866 0.29460 0.89274
 H1718 H 0.43928 0.28429 0.87517
 O1719 O 0.52811 0.64135 0.89771
 O1720 O 0.52826 0.67458 0.86473
 C1721 C 0.53793 0.66442 0.88777
 C1722 C 0.56134 0.67910 0.90277
 C1723 C 0.57173 0.70523 0.89281
 H1724 H 0.56210 0.71505 0.87439
 O1725 O 0.35856 0.39827 0.97216
 O1726 O 0.32522 0.36541 0.97229
 C1727 C 0.33539 0.38839 0.96252
 C1728 C 0.32065 0.40330 0.93909
 C1729 C 0.29469 0.39306 0.92864
 H1730 H 0.28467 0.37500 0.93877
 O1731 O 0.64173 0.60179 0.97247
 O1732 O 0.67513 0.63459 0.97239
 C1733 C 0.66490 0.61158 0.96274
 C1734 C 0.67962 0.59644 0.93945
 C1735 C 0.70575 0.60636 0.92903
 H1736 H 0.71554 0.62485 0.93855
 O1737 O 0.52720 0.39737 0.85811
 O1738 O 0.52716 0.36435 0.82496
 C1739 C 0.53687 0.38742 0.83499
 C1740 C 0.56018 0.40249 0.82018
 C1741 C 0.57052 0.39265 0.79398
 H1742 H 0.56092 0.37423 0.78416
 O1743 O 0.47262 0.60270 0.85875
 O1744 O 0.47277 0.63580 0.82564
 C1745 C 0.46296 0.61276 0.83568
 C1746 C 0.43953 0.59794 0.82085
 C1747 C 0.42922 0.60817 0.79483
 H1748 H 0.43937 0.62624 0.78486
 O1749 O 0.35880 0.52815 0.89728
 O1750 O 0.32560 0.52833 0.86430
 C1751 C 0.33570 0.53793 0.88737
 C1752 C 0.32091 0.56120 0.90248
 C1753 C 0.29477 0.57157 0.89252
 H1754 H 0.28505 0.56206 0.87399
 O1755 O 0.64098 0.47140 0.89750
 O1756 O 0.67419 0.47129 0.86452
 C1757 C 0.66403 0.46157 0.88754
 C1758 C 0.67877 0.43822 0.90261
 C1759 C 0.70484 0.42770 0.89262
 H1760 H 0.71423 0.43693 0.87378
 O1761 O 0.60186 0.35841 0.97233
 O1762 O 0.63490 0.32524 0.97234
 C1763 C 0.61192 0.33540 0.96252
 C1764 C 0.59716 0.32079 0.93892
 C1765 C 0.60746 0.29489 0.92839
 H1766 H 0.62551 0.28485 0.93850
 O1767 O 0.39768 0.64154 0.97248
 O1768 O 0.36460 0.67467 0.97237
 C1769 C 0.38769 0.66460 0.96269
 C1770 C 0.40270 0.67935 0.93927
 C1771 C 0.39261 0.70537 0.92872
 H1772 H 0.37406 0.71509 0.93821
 Cu1773 Cu 0.61840 0.49933 0.88152
 Cu1774 Cu 0.65819 0.49926 0.84183
 Cu1775 Cu 0.38145 0.50042 0.88109
 Cu1776 Cu 0.34169 0.50063 0.84139
 Cu1777 Cu 0.61905 0.61809 1.00012
 Cu1778 Cu 0.65907 0.65755 1.00004
 Cu1779 Cu 0.61786 0.38091 1.00027
 Cu1780 Cu 0.65756 0.34113 1.00034
 Cu1781 Cu 0.38150 0.61882 1.00019
 Cu1782 Cu 0.34169 0.65848 1.00011
 Cu1783 Cu 0.38135 0.38199 0.99976
 Cu1784 Cu 0.34136 0.34251 0.99991
 Cu1785 Cu 0.50036 0.61866 0.88158
 Cu1786 Cu 0.50053 0.65847 0.84191
 Cu1787 Cu 0.49964 0.38131 0.88104
 Cu1788 Cu 0.49953 0.34153 0.84140
 C1789 C 0.57338 0.42589 0.83311
 H1790 H 0.56586 0.43328 0.85353
 C1791 C 0.59393 0.40578 0.78091
 C1792 C 0.42633 0.57434 0.83343
 H1793 H 0.43390 0.56660 0.85371
 C1794 C 0.40578 0.59535 0.78157
 C1795 C 0.42632 0.66660 0.92624
 H1796 H 0.43395 0.64632 0.93396
 C1797 C 0.40566 0.71845 0.90528
 C1798 C 0.57358 0.33346 0.92577
 H1799 H 0.56577 0.35365 0.93352
 C1800 C 0.59474 0.28185 0.90479
 C1801 C 0.66608 0.42537 0.92633
 H1802 H 0.64566 0.43292 0.93374
 C1803 C 0.71839 0.40478 0.90619
 C1804 C 0.33366 0.57425 0.92606
 H1805 H 0.35403 0.56667 0.93357
 C1806 C 0.28158 0.59487 0.90565
 C1807 C 0.57419 0.57377 0.83381
 H1808 H 0.56657 0.56625 0.85416
 C1809 C 0.59490 0.59417 0.78177
 C1810 C 0.42568 0.42612 0.83330
 H1811 H 0.43342 0.43374 0.85356
 C1812 C 0.40470 0.40549 0.78150
 C1813 C 0.66675 0.57294 0.92637
 H1814 H 0.64638 0.56546 0.93399
 C1815 C 0.71882 0.59329 0.90564
 C1816 C 0.33330 0.42686 0.92592
 H1817 H 0.35354 0.43460 0.93360
 C1818 C 0.28161 0.40577 0.90505
 C1819 C 0.57454 0.66620 0.92620
 H1820 H 0.56693 0.64584 0.93370
 C1821 C 0.59519 0.71829 0.90580
 C1822 C 0.42564 0.33369 0.92592
 H1823 H 0.43334 0.35397 0.93351
 C1824 C 0.40470 0.28178 0.90518
 C1825 C 1.14662 1.11529 1.27689
 C1826 C 1.12909 1.12854 1.29726
 C1827 C 1.09970 1.13011 1.29151
 C1828 C 1.08837 1.11873 1.26656
 C1829 C 1.10606 1.10595 1.24622
 C1830 C 1.13533 1.10450 1.25173
 H1831 H 1.16944 1.11455 1.27939
 H1832 H 1.08507 1.13914 1.30675
 H1833 H 1.06563 1.11967 1.26340
 H1834 H 1.14982 1.09568 1.23624
 C1835 C 1.12651 0.59937 0.79235
 C1836 C 1.12877 0.62891 0.79598
 C1837 C 1.11980 0.64688 0.77393
 C1838 C 1.10877 0.63562 0.74886
 C1839 C 1.10644 0.60610 0.74522
 C1840 C 1.11546 0.58809 0.76723
 H1841 H 1.13299 0.58501 0.80909
 H1842 H 1.12181 0.66970 0.77584
 H1843 H 1.10255 0.65003 0.73207
 H1844 H 1.11364 0.56527 0.76516
 C1845 C 0.61670 1.14702 0.77558
 C1846 C 0.62972 1.12949 0.79611
 C1847 C 0.63106 1.10007 0.79054
 C1848 C 0.61954 1.08869 0.76567
 C1849 C 0.60685 1.10635 0.74525
 C1850 C 0.60577 1.13568 0.75051
 H1851 H 0.61613 1.16986 0.77795
 H1852 H 0.63990 1.08543 0.80588
 H1853 H 0.62023 1.06592 0.76269
 H1854 H 0.59704 1.15013 0.73492
 C1855 C 0.59914 0.62610 1.29245
 C1856 C 0.62866 0.62833 1.29626
 C1857 C 0.64676 0.61924 1.27437
 C1858 C 0.63562 0.60820 1.24924
 C1859 C 0.60612 0.60599 1.24540
 C1860 C 0.58799 0.61506 1.26728
 H1861 H 0.58468 0.63265 1.30907
 H1862 H 0.66957 0.62121 1.27642
 H1863 H 0.65013 0.60191 1.23256
 H1864 H 0.56517 0.61332 1.26504
 C1865 C 0.85304 0.88490 1.27697
 C1866 C 0.87074 0.87194 1.29740
 C1867 C 0.90017 0.87094 1.29176
 C1868 C 0.91137 0.88238 1.26677
 C1869 C 0.89354 0.89474 1.24632
 C1870 C 0.86423 0.89581 1.25178
 H1871 H 0.83022 0.88534 1.27946
 H1872 H 0.91497 0.86233 1.30707
 H1873 H 0.93414 0.88182 1.26368
 H1874 H 0.84968 0.90440 1.23622
 C1875 C 0.85314 0.38204 0.77532
 C1876 C 0.87123 0.37296 0.79722
 C1877 C 0.90075 0.37520 0.79341
 C1878 C 0.91192 0.38619 0.76818
 C1879 C 0.89379 0.39517 0.74625
 C1880 C 0.86428 0.39301 0.75014
 H1881 H 0.83033 0.38003 0.77737
 H1882 H 0.91520 0.36862 0.81003
 H1883 H 0.93473 0.38790 0.76591
 H1884 H 0.84977 0.39923 0.73344
 C1885 C 0.35286 0.88206 0.77567
 C1886 C 0.37104 0.87298 0.79750
 C1887 C 0.40054 0.87533 0.79361
 C1888 C 0.41159 0.88644 0.76839
 C1889 C 0.39338 0.89541 0.74652
 C1890 C 0.36389 0.89314 0.75049
 H1891 H 0.33006 0.87998 0.77778
 H1892 H 0.41505 0.86876 0.81018
 H1893 H 0.43439 0.88822 0.76607
 H1894 H 0.34931 0.89934 0.73384
 C1895 C 0.40062 0.37115 1.29227
 C1896 C 0.37121 0.37241 1.29799
 C1897 C 0.35357 0.38548 1.27759
 C1898 C 0.36477 0.39630 1.25238
 C1899 C 0.39405 0.39504 1.24685
 C1900 C 0.41185 0.38252 1.26725
 H1901 H 0.41536 0.36235 1.30754
 H1902 H 0.33075 0.38602 1.28009
 H1903 H 0.35022 0.40496 1.23685
 H1904 H 0.43460 0.38176 1.26407
 C1905 C 0.87003 1.10031 0.70882
 C1906 C 0.87088 1.12974 0.70311
 C1907 C 0.88384 1.14753 0.72343
 C1908 C 0.89495 1.13643 0.74858
 C1909 C 0.89408 1.10712 0.75408
 C1910 C 0.88168 1.08921 0.73374
 H1911 H 0.86149 1.08545 0.69356
 H1912 H 0.88419 1.17034 0.72083
 H1913 H 0.90358 1.15103 0.76405
 H1914 H 0.88128 1.06644 0.73685
 C1915 C 0.87087 0.59960 0.20851
 C1916 C 0.87175 0.62901 0.20274
 C1917 C 0.88458 0.64685 0.22310
 C1918 C 0.89553 0.63582 0.24833
 C1919 C 0.89464 0.60654 0.25390
 C1920 C 0.88238 0.58856 0.23352
 H1921 H 0.86233 0.58472 0.19325
 H1922 H 0.88489 0.66967 0.22051
 H1923 H 0.90402 0.65049 0.26383
 H1924 H 0.88195 0.56581 0.23671
 C1925 C 0.37392 1.09954 0.20737
 C1926 C 0.37151 1.12904 0.20356
 C1927 C 0.38073 1.14718 0.22535
 C1928 C 0.39205 1.13610 0.25040
 C1929 C 0.39443 1.10661 0.25425
 C1930 C 0.38527 1.08844 0.23245
 H1931 H 0.36729 1.08506 0.19081
 H1932 H 0.37864 1.16998 0.22329
 H1933 H 0.39839 1.15063 0.26702
 H1934 H 0.38713 1.06564 0.23469
 C1935 C 0.38045 0.64769 0.72587
 C1936 C 0.37137 0.62956 0.70402
 C1937 C 0.37403 0.60006 0.70771
 C1938 C 0.38535 0.58895 0.73278
 C1939 C 0.39429 0.60709 0.75468
 C1940 C 0.39177 0.63659 0.75092
 H1941 H 0.37825 0.67048 0.72382
 H1942 H 0.36760 0.58558 0.69107
 H1943 H 0.38737 0.56615 0.73493
 H1944 H 0.39801 0.65109 0.76760
 C1945 C 1.14681 0.88041 0.72552
 C1946 C 1.12874 0.87139 0.70358
 C1947 C 1.09923 0.87378 0.70729
 C1948 C 1.08804 0.88500 0.73238
 C1949 C 1.10614 0.89403 0.75431
 C1950 C 1.13564 0.89159 0.75058
 H1951 H 1.16962 0.87832 0.72354
 H1952 H 1.08481 0.86727 0.69062
 H1953 H 1.06523 0.88690 0.73452
 H1954 H 1.15013 0.89781 0.76730
 C1955 C 1.10002 0.37016 0.20843
 C1956 C 1.12945 0.37163 0.20286
 C1957 C 1.14692 0.38465 0.22342
 C1958 C 1.13553 0.39539 0.24854
 C1959 C 1.10620 0.39417 0.25384
 C1960 C 1.08858 0.38153 0.23335
 H1961 H 1.08546 0.36126 0.19307
 H1962 H 1.16976 0.38526 0.22106
 H1963 H 1.14997 0.40404 0.26417
 H1964 H 1.06581 0.38073 0.23635
 C1965 C 0.61941 0.85300 0.22549
 C1966 C 0.62866 0.87114 0.20369
 C1967 C 0.62633 0.90064 0.20750
 C1968 C 0.61502 0.91174 0.23259
 C1969 C 0.60581 0.89356 0.25440
 C1970 C 0.60812 0.86408 0.25054
 H1971 H 0.62144 0.83020 0.22344
 H1972 H 0.63299 0.91513 0.19094
 H1973 H 0.61321 0.93454 0.23483
 H1974 H 0.60173 0.84954 0.26717
 C1975 C 0.64651 0.38134 0.72510
 C1976 C 0.62853 0.37222 0.70315
 C1977 C 0.59899 0.37430 0.70686
 C1978 C 0.58769 0.38532 0.73201
 C1979 C 0.60571 0.39443 0.75397
 C1980 C 0.63524 0.39229 0.75021
 H1981 H 0.66933 0.37943 0.72313
 H1982 H 0.58464 0.36763 0.69020
 H1983 H 0.56487 0.38697 0.73418
 H1984 H 0.64968 0.39856 0.76694
 C1985 C 1.29160 1.09906 1.12708
 C1986 C 1.29537 1.12858 1.12914
 C1987 C 1.27341 1.14660 1.12002
 C1988 C 1.24831 1.13538 1.10899
 C1989 C 1.24455 1.10588 1.10678
 C1990 C 1.26645 1.08782 1.11601
 H1991 H 1.30827 1.08466 1.13367
 H1992 H 1.27543 1.16942 1.12187
 H1993 H 1.23160 1.14984 1.10262
 H1994 H 1.26427 1.06500 1.11431
 C1995 C 1.29143 0.62891 0.59972
 C1996 C 1.29706 0.62800 0.62914
 C1997 C 1.27663 0.61507 0.64686
 C1998 C 1.25148 0.60405 0.63572
 C1999 C 1.24606 0.60495 0.60642
 C2000 C 1.26650 0.61732 0.58856
 H2001 H 1.30674 0.63754 0.58492
 H2002 H 1.27911 0.61472 0.66968
 H2003 H 1.23592 0.59550 0.65031
 H2004 H 1.26345 0.61777 0.56579
 C2005 C 0.79185 1.12857 0.59912
 C2006 C 0.79755 1.12734 0.62852
 C2007 C 0.77715 1.11426 0.64616
 C2008 C 0.75196 1.10339 0.63497
 C2009 C 0.74647 1.10457 0.60569
 C2010 C 0.76688 1.11710 0.58790
 H2011 H 0.80713 1.13739 0.58441
 H2012 H 0.77963 1.11375 0.66898
 H2013 H 0.73643 1.09474 0.64953
 H2014 H 0.76375 1.11781 0.56515
 C2015 C 0.79306 0.62426 1.09902
 C2016 C 0.79687 0.62668 1.12850
 C2017 C 0.77499 0.61762 1.14665
 C2018 C 0.74984 0.60650 1.13560
 C2019 C 0.74595 0.60417 1.10613
 C2020 C 0.76787 0.61311 1.08795
 H2021 H 0.80966 0.63080 1.08453
 H2022 H 0.77704 0.61976 1.16943
 H2023 H 0.73315 0.60033 1.15016
 H2024 H 0.76561 0.61127 1.06516
 C2025 C 1.27644 0.85302 0.88531
 C2026 C 1.29686 0.87082 0.87247
 C2027 C 1.29116 0.90023 0.87156
 C2028 C 1.26613 0.91132 0.88301
 C2029 C 1.24568 0.89339 0.89526
 C2030 C 1.25119 0.86409 0.89620
 H2031 H 1.27899 0.83020 0.88567
 H2032 H 1.30646 0.91508 0.86302
 H2033 H 1.26299 0.93408 0.88254
 H2034 H 1.23564 0.84946 0.90468
 C2035 C 1.27611 0.35217 0.38409
 C2036 C 1.29647 0.37000 0.37119
 C2037 C 1.29069 0.39940 0.37025
 C2038 C 1.26565 0.41045 0.38171
 C2039 C 1.24525 0.39250 0.39400
 C2040 C 1.25083 0.36321 0.39498
 H2041 H 1.27878 0.32936 0.38452
 H2042 H 1.30598 0.41430 0.36176
 H2043 H 1.26250 0.43321 0.38124
 H2044 H 1.23533 0.34856 0.40354
 C2045 C 0.77381 0.85198 0.38064
 C2046 C 0.79566 0.87017 0.37162
 C2047 C 0.79187 0.89966 0.37422
 C2048 C 0.76671 0.91070 0.38544
 C2049 C 0.74479 0.89251 0.39431
 C2050 C 0.74866 0.86302 0.39185
 H2051 H 0.77593 0.82919 0.37849
 H2052 H 0.80851 0.91419 0.36784
 H2053 H 0.76451 0.93349 0.38743
 H2054 H 0.73198 0.84846 0.39803
 C2055 C 0.77641 0.35286 0.88490
 C2056 C 0.79679 0.37068 0.87202
 C2057 C 0.79102 0.40009 0.87108
 C2058 C 0.76598 0.41114 0.88258
 C2059 C 0.74559 0.39318 0.89488
 C2060 C 0.75116 0.36389 0.89583
 H2061 H 0.77900 0.33005 0.88526
 H2062 H 0.80628 0.41497 0.86251
 H2063 H 0.76280 0.43389 0.88210
 H2064 H 0.73565 0.34924 0.90436
 C2065 C 0.70839 0.90114 1.12694
 C2066 C 0.70468 0.87161 1.12911
 C2067 C 0.72666 0.85361 1.11999
 C2068 C 0.75172 0.86485 1.10886
 C2069 C 0.75542 0.89436 1.10656
 C2070 C 0.73350 0.91240 1.11578
 H2071 H 0.69171 0.91552 1.13353
 H2072 H 0.72467 0.83079 1.12191
 H2073 H 0.76844 0.85041 1.10250
 H2074 H 0.73564 0.93522 1.11401
 C2075 C 0.72374 0.35346 0.61571
 C2076 C 0.70320 0.37107 0.62862
 C2077 C 0.70874 0.40051 0.62967
 C2078 C 0.73367 0.41181 0.61816
 C2079 C 0.75417 0.39406 0.60574
 C2080 C 0.74886 0.36473 0.60478
 H2081 H 0.72133 0.33062 0.61529
 H2082 H 0.69338 0.41523 0.63830
 H2083 H 0.73668 0.43459 0.61870
 H2084 H 0.76448 0.35022 0.59620
 C2085 C 0.22577 0.85334 0.61913
 C2086 C 0.20375 0.87133 0.62812
 C2087 C 0.20733 0.90086 0.62568
 C2088 C 0.23243 0.91212 0.61450
 C2089 C 0.25444 0.89408 0.60553
 C2090 C 0.25082 0.86457 0.60797
 H2091 H 0.22387 0.83052 0.62124
 H2092 H 0.19060 0.91523 0.63213
 H2093 H 0.23451 0.93493 0.61259
 H2094 H 0.26761 0.85015 0.60177
 C2095 C 0.21009 0.40012 1.13114
 C2096 C 0.20446 0.37070 1.12993
 C2097 C 0.22488 0.35309 1.11686
 C2098 C 0.25001 0.36435 1.10590
 C2099 C 0.25538 0.39367 1.10698
 C2100 C 0.23500 0.41141 1.11959
 H2101 H 0.19477 0.41484 1.13985
 H2102 H 0.22233 0.33027 1.11629
 H2103 H 0.26554 0.34986 1.09715
 H2104 H 0.23803 0.43418 1.12020
 C2105 C 0.70739 1.09935 0.87415
 C2106 C 0.70375 1.12885 0.87143
 C2107 C 0.72572 1.14695 0.88037
 C2108 C 0.75072 1.13586 0.89177
 C2109 C 0.75440 1.10639 0.89448
 C2110 C 0.73246 1.08824 0.88555
 H2111 H 0.69072 1.08490 0.86771
 H2112 H 0.72382 1.16974 0.87802
 H2113 H 0.76745 1.15037 0.89790
 H2114 H 0.73460 1.06545 0.88764
 C2115 C 0.70743 0.59951 0.37434
 C2116 C 0.70363 0.62900 0.37184
 C2117 C 0.72550 0.64716 0.38086
 C2118 C 0.75062 0.63612 0.39204
 C2119 C 0.75448 0.60664 0.39450
 C2120 C 0.73259 0.58844 0.38556
 H2121 H 0.69081 0.58500 0.36789
 H2122 H 0.72342 0.66996 0.37871
 H2123 H 0.76730 0.65067 0.39823
 H2124 H 0.73483 0.56565 0.38750
 C2125 C 0.22413 1.14787 0.38351
 C2126 C 0.20377 1.13013 0.37054
 C2127 C 0.20945 1.10071 0.36962
 C2128 C 0.23435 1.08956 0.38129
 C2129 C 0.25473 1.10743 0.39372
 C2130 C 0.24927 1.13674 0.39459
 H2131 H 0.22153 1.17069 0.38390
 H2132 H 0.19416 1.08589 0.36101
 H2133 H 0.23741 1.06679 0.38088
 H2134 H 0.26477 1.15134 0.40320
 C2135 C 0.20772 0.59958 0.87366
 C2136 C 0.20395 0.62909 0.87134
 C2137 C 0.22581 0.64718 0.88053
 C2138 C 0.25086 0.63605 0.89177
 C2139 C 0.25467 0.60656 0.89412
 C2140 C 0.23282 0.58843 0.88494
 H2141 H 0.19112 0.58513 0.86704
 H2142 H 0.22376 0.66999 0.87851
 H2143 H 0.26752 0.65056 0.89812
 H2144 H 0.23504 0.56562 0.88676
 C2145 C 1.10034 1.29306 1.12594
 C2146 C 1.12984 1.29638 1.12903
 C2147 C 1.14782 1.27417 1.12045
 C2148 C 1.13661 1.24925 1.10900
 C2149 C 1.10714 1.24590 1.10593
 C2150 C 1.08911 1.26806 1.11453
 H2151 H 1.08596 1.30993 1.13204
 H2152 H 1.17060 1.27584 1.12306
 H2153 H 1.15101 1.23234 1.10307
 H2154 H 1.06632 1.26617 1.11215
 C2155 C 1.09941 0.79205 0.62614
 C2156 C 1.12890 0.79590 0.62849
 C2157 C 1.14707 0.77407 0.61936
 C2158 C 1.13604 0.74899 0.60810
 C2159 C 1.10656 0.74512 0.60570
 C2160 C 1.08835 0.76693 0.61485
 H2161 H 1.08490 0.80863 0.63272
 H2162 H 1.16988 0.77617 0.62140
 H2163 H 1.15061 0.73237 0.60179
 H2164 H 1.06555 0.76468 0.61298
 C2165 C 0.64785 1.27332 0.62094
 C2166 C 0.62977 1.29535 0.62978
 C2167 C 0.60026 1.29171 0.62721
 C2168 C 0.58910 1.26661 0.61598
 C2169 C 0.60721 1.24464 0.60707
 C2170 C 0.63670 1.24827 0.60971
 H2171 H 0.67065 1.27527 0.62313
 H2172 H 0.58582 1.30844 0.63350
 H2173 H 0.56630 1.26452 0.61392
 H2174 H 0.65117 1.23151 0.60353
 C2175 C 0.60004 0.79277 1.12535
 C2176 C 0.62954 0.79642 1.12797
 C2177 C 0.64764 0.77447 1.11902
 C2178 C 0.63653 0.74940 1.10781
 C2179 C 0.60704 0.74568 1.10526
 C2180 C 0.58890 0.76767 1.11411
 H2181 H 0.58557 0.80946 1.13174
 H2182 H 0.67044 0.77643 1.12125
 H2183 H 0.65103 0.73265 1.10169
 H2184 H 0.56610 0.76554 1.11209
 C2185 C 0.87402 1.29229 0.90002
 C2186 C 0.87137 1.29602 0.87054
 C2187 C 0.88044 1.27418 0.85238
 C2188 C 0.89176 1.24910 0.86345
 C2189 C 0.89431 1.24531 0.89293
 C2190 C 0.88536 1.26720 0.91109
 H2191 H 0.86759 1.30892 0.91451
 H2192 H 0.87824 1.27626 0.82960
 H2193 H 0.89800 1.23243 0.84893
 H2194 H 0.88740 1.26504 0.93388
 C2195 C 0.87510 0.79305 0.40098
 C2196 C 0.87272 0.79688 0.37150
 C2197 C 0.88186 0.77505 0.35336
 C2198 C 0.89303 0.74992 0.36442
 C2199 C 0.89535 0.74601 0.39390
 C2200 C 0.88631 0.76788 0.41207
 H2201 H 0.86849 0.80963 0.41546
 H2202 H 0.87975 0.77712 0.33057
 H2203 H 0.89927 0.73326 0.34988
 H2204 H 0.88814 0.76561 0.43486
 C2205 C 0.38132 1.27468 0.35293
 C2206 C 0.37204 1.29647 0.37103
 C2207 C 0.37439 1.29269 0.40052
 C2208 C 0.38569 1.26759 0.41166
 C2209 C 0.39487 1.24574 0.39354
 C2210 C 0.39258 1.24961 0.36405
 H2211 H 0.37931 1.27678 0.33013
 H2212 H 0.36771 1.30927 0.41497
 H2213 H 0.38750 1.26538 0.43446
 H2214 H 0.39895 1.23297 0.34954
 C2215 C 0.38051 0.77424 0.85290
 C2216 C 0.37137 0.79609 0.87100
 C2217 C 0.37389 0.79236 0.90050
 C2218 C 0.38514 0.76725 0.91163
 C2219 C 0.39414 0.74535 0.89352
 C2220 C 0.39175 0.74915 0.86402
 H2221 H 0.37841 0.77631 0.83011
 H2222 H 0.36741 0.80899 0.91496
 H2223 H 0.38706 0.76508 0.93443
 H2224 H 0.39804 0.73247 0.84953
 C2225 C 1.09912 0.70782 0.87349
 C2226 C 1.12866 0.70416 0.87121
 C2227 C 1.14665 0.72613 0.88031
 C2228 C 1.13541 0.75118 0.89143
 C2229 C 1.10589 0.75487 0.89374
 C2230 C 1.08785 0.73292 0.88464
 H2231 H 1.08474 0.69113 0.86695
 H2232 H 1.16947 0.72418 0.87832
 H2233 H 1.14984 0.76792 0.89774
 H2234 H 1.06503 0.73504 0.88645
 C2235 C 1.09947 0.20760 0.37348
 C2236 C 1.12900 0.20431 0.37056
 C2237 C 1.14690 0.22658 0.37915
 C2238 C 1.13559 0.25148 0.39052
 C2239 C 1.10610 0.25477 0.39350
 C2240 C 1.08814 0.23260 0.38480
 H2241 H 1.08516 0.19070 0.36736
 H2242 H 1.16970 0.22494 0.37665
 H2243 H 1.14992 0.26842 0.39652
 H2244 H 1.06534 0.23447 0.38710
 C2245 C 0.64607 0.72583 0.38039
 C2246 C 0.62813 0.70386 0.37120
 C2247 C 0.59858 0.70749 0.37336
 C2248 C 0.58725 0.73255 0.38453
 C2249 C 0.60524 0.75448 0.39378
 C2250 C 0.63476 0.75084 0.39153
 H2251 H 0.66890 0.72391 0.37848
 H2252 H 0.58424 0.69079 0.36672
 H2253 H 0.56442 0.73465 0.38627
 H2254 H 0.64916 0.76757 0.39793
 C2255 C 0.59999 0.20827 0.87241
 C2256 C 0.62953 0.20471 0.87008
 C2257 C 0.64749 0.22662 0.87937
 C2258 C 0.63618 0.25155 0.89071
 C2259 C 0.60665 0.25515 0.89305
 C2260 C 0.58867 0.23323 0.88377
 H2261 H 0.58565 0.19158 0.86578
 H2262 H 0.67031 0.22468 0.87741
 H2263 H 0.65057 0.26827 0.89718
 H2264 H 0.56584 0.23526 0.88562
 C2265 C 0.85220 0.72549 1.11904
 C2266 C 0.87031 0.70361 1.12815
 C2267 C 0.89982 0.70733 1.12567
 C2268 C 0.91097 0.73248 1.11455
 C2269 C 0.89286 0.75444 1.10562
 C2270 C 0.86334 0.75062 1.10792
 H2271 H 0.82939 0.72341 1.12109
 H2272 H 0.91429 0.69067 1.13213
 H2273 H 0.93378 0.73466 1.11268
 H2274 H 0.84885 0.76734 1.10167
 C2275 C 0.89983 0.20747 0.62563
 C2276 C 0.87033 0.20353 0.62785
 C2277 C 0.85214 0.22531 0.61868
 C2278 C 0.86319 0.25054 0.60768
 C2279 C 0.89268 0.25456 0.60557
 C2280 C 0.91089 0.23271 0.61461
 H2281 H 0.91435 0.19090 0.63222
 H2282 H 0.82934 0.22310 0.62059
 H2283 H 0.84861 0.26717 0.60138
 H2284 H 0.93370 0.23505 0.61291
 C2285 C 0.35300 0.72498 0.61824
 C2286 C 0.37116 0.70312 0.62732
 C2287 C 0.40067 0.70707 0.62520
 C2288 C 0.41176 0.73240 0.61435
 C2289 C 0.39357 0.75429 0.60539
 C2290 C 0.36407 0.75026 0.60741
 H2291 H 0.33020 0.72283 0.62015
 H2292 H 0.41517 0.69049 0.63177
 H2293 H 0.43457 0.73477 0.61274
 H2294 H 0.34951 0.76693 0.60119
 C2295 C 0.40015 0.20737 1.12523
 C2296 C 0.37064 0.20371 1.12774
 C2297 C 0.35256 0.22566 1.11869
 C2298 C 0.36372 0.25074 1.10752
 C2299 C 0.39323 0.25448 1.10513
 C2300 C 0.41133 0.23250 1.11405
 H2301 H 0.41459 0.19069 1.13169
 H2302 H 0.32976 0.22369 1.12083
 H2303 H 0.34925 0.26749 1.10133
 H2304 H 0.43414 0.23465 1.11214
 C2305 C 1.14762 1.11924 0.72538
 C2306 C 1.12938 1.12823 0.70356
 C2307 C 1.09990 1.12565 0.70741
 C2308 C 1.08889 1.11449 0.73260
 C2309 C 1.10713 1.10564 0.75448
 C2310 C 1.13662 1.10807 0.75055
 H2311 H 1.17040 1.12138 0.72322
 H2312 H 1.08534 1.13202 0.69080
 H2313 H 1.06610 1.11252 0.73487
 H2314 H 1.15120 1.10189 0.76721
 C2315 C 1.11563 0.64645 0.22325
 C2316 C 1.12869 0.62884 0.20284
 C2317 C 1.13021 0.59947 0.20863
 C2318 C 1.11883 0.58821 0.23365
 C2319 C 1.10618 0.60597 0.25400
 C2320 C 1.10491 0.63525 0.24848
 H2321 H 1.11499 0.66927 0.22070
 H2322 H 1.13913 0.58481 0.19338
 H2323 H 1.11966 0.56547 0.23681
 H2324 H 1.09625 0.64980 0.26399
 C2325 C 0.64690 1.11898 0.22544
 C2326 C 0.62882 1.12774 0.20338
 C2327 C 0.59932 1.12500 0.20698
 C2328 C 0.58817 1.11379 0.23212
 C2329 C 0.60631 1.10505 0.25415
 C2330 C 0.63578 1.10775 0.25050
 H2331 H 0.66969 1.12137 0.22358
 H2332 H 0.58488 1.13130 0.19025
 H2333 H 0.56538 1.11169 0.23424
 H2334 H 0.65027 1.10173 0.26730
 C2335 C 0.64720 0.61907 0.72588
 C2336 C 0.62908 0.62818 0.70400
 C2337 C 0.59957 0.62583 0.70780
 C2338 C 0.58844 0.61466 0.73295
 C2339 C 0.60659 0.60561 0.75483
 C2340 C 0.63608 0.60792 0.75099
 H2341 H 0.67000 0.62112 0.72382
 H2342 H 0.58510 0.63238 0.69118
 H2343 H 0.56563 0.61283 0.73518
 H2344 H 0.65060 0.60164 0.76766
 C2345 C 0.90058 0.87498 0.70691
 C2346 C 0.87108 0.87246 0.70316
 C2347 C 0.85294 0.88149 0.72504
 C2348 C 0.86402 0.89267 0.75014
 C2349 C 0.89351 0.89508 0.75396
 C2350 C 0.91168 0.88616 0.73205
 H2351 H 0.91508 0.86854 0.69029
 H2352 H 0.83014 0.87933 0.72302
 H2353 H 0.84949 0.89887 0.76683
 H2354 H 0.93448 0.88807 0.73427
 C2355 C 0.85218 0.38025 0.22646
 C2356 C 0.87015 0.37100 0.20453
 C2357 C 0.89968 0.37349 0.20804
 C2358 C 0.91098 0.38490 0.23298
 C2359 C 0.89299 0.39408 0.25492
 C2360 C 0.86346 0.39165 0.25137
 H2361 H 0.82936 0.37817 0.22456
 H2362 H 0.91404 0.36691 0.19134
 H2363 H 0.93380 0.38683 0.23498
 H2364 H 0.84907 0.39805 0.26810
 C2365 C 0.35176 0.88019 0.22627
 C2366 C 0.36973 0.87095 0.20434
 C2367 C 0.39925 0.87350 0.20779
 C2368 C 0.41056 0.88495 0.23271
 C2369 C 0.39258 0.89411 0.25467
 C2370 C 0.36305 0.89162 0.25116
 H2371 H 0.32894 0.87807 0.22441
 H2372 H 0.41360 0.86694 0.19108
 H2373 H 0.43338 0.88692 0.23468
 H2374 H 0.34867 0.89800 0.26791
 C2375 C 0.35236 0.38034 0.72575
 C2376 C 0.37050 0.37120 0.70392
 C2377 C 0.40001 0.37371 0.70766
 C2378 C 0.41112 0.38496 0.73275
 C2379 C 0.39296 0.39399 0.75462
 C2380 C 0.36346 0.39161 0.75081
 H2381 H 0.32956 0.37826 0.72368
 H2382 H 0.41450 0.36722 0.69105
 H2383 H 0.43392 0.38688 0.73493
 H2384 H 0.34895 0.39793 0.76748
 C2385 C 1.14691 0.88344 1.27624
 C2386 C 1.12945 0.87040 1.29681
 C2387 C 1.10000 0.86905 1.29133
 C2388 C 1.08853 0.88054 1.26648
 C2389 C 1.10613 0.89322 1.24599
 C2390 C 1.13548 0.89433 1.25118
 H2391 H 1.16975 0.88403 1.27856
 H2392 H 1.08542 0.86020 1.30672
 H2393 H 1.06575 0.87984 1.26357
 H2394 H 1.14988 0.90305 1.23554
 C2395 C 1.14699 0.38328 0.77579
 C2396 C 1.12941 0.37040 0.79636
 C2397 C 1.09998 0.36910 0.79077
 C2398 C 1.08864 0.38054 0.76583
 C2399 C 1.10636 0.39308 0.74535
 C2400 C 1.13569 0.39411 0.75064
 H2401 H 1.16982 0.38381 0.77821
 H2402 H 1.08532 0.36036 0.80614
 H2403 H 1.06587 0.37990 0.76283
 H2404 H 1.15019 0.40271 0.73503
 C2405 C 0.59937 0.87391 0.79279
 C2406 C 0.62890 0.87154 0.79638
 C2407 C 0.64689 0.88054 0.77436
 C2408 C 0.63563 0.89168 0.74931
 C2409 C 0.60612 0.89411 0.74569
 C2410 C 0.58810 0.88509 0.76770
 H2411 H 0.58501 0.86741 0.80952
 H2412 H 0.66970 0.87846 0.77625
 H2413 H 0.65006 0.89790 0.73253
 H2414 H 0.56528 0.88698 0.76564
 C2415 C 0.64648 0.38327 1.27608
 C2416 C 0.62896 0.37059 1.29684
 C2417 C 0.59945 0.36970 1.29157
 C2418 C 0.58801 0.38127 1.26672
 C2419 C 0.60568 0.39360 1.24608
 C2420 C 0.63506 0.39429 1.25108
 H2421 H 0.66935 0.38346 1.27819
 H2422 H 0.58484 0.36113 1.30709
 H2423 H 0.56521 0.38087 1.26390
 H2424 H 0.64949 0.40273 1.23531
 C2425 C 0.85324 1.12020 1.27417
 C2426 C 0.87122 1.12929 1.29614
 C2427 C 0.90076 1.12721 1.29240
 C2428 C 0.91204 1.11619 1.26725
 C2429 C 0.89401 1.10704 1.24533
 C2430 C 0.86449 1.10922 1.24907
 H2431 H 0.83041 1.12206 1.27617
 H2432 H 0.91514 1.13377 1.30908
 H2433 H 0.93486 1.11449 1.26509
 H2434 H 0.85005 1.10289 1.23235
 C2435 C 0.85310 0.62011 0.77396
 C2436 C 0.87116 0.62918 0.79589
 C2437 C 0.90067 0.62690 0.79216
 C2438 C 0.91187 0.61566 0.76707
 C2439 C 0.89377 0.60651 0.74519
 C2440 C 0.86427 0.60892 0.74892
 H2441 H 0.83029 0.62211 0.77598
 H2442 H 0.91509 0.63345 0.80881
 H2443 H 0.93468 0.61379 0.76493
 H2444 H 0.84979 0.60262 0.73223
 C2445 C 0.35197 1.12066 0.77348
 C2446 C 0.36999 1.12985 0.79538
 C2447 C 0.39951 1.12744 0.79178
 C2448 C 0.41077 1.11611 0.76678
 C2449 C 0.39274 1.10696 0.74485
 C2450 C 0.36321 1.10938 0.74850
 H2451 H 0.32916 1.12268 0.77547
 H2452 H 0.41389 1.13399 0.80846
 H2453 H 0.43359 1.11419 0.76472
 H2454 H 0.34878 1.10302 0.73179
 C2455 C 0.38170 0.64710 1.27522
 C2456 C 0.37281 0.62884 1.29707
 C2457 C 0.37530 0.59937 1.29316
 C2458 C 0.38637 0.58841 1.26789
 C2459 C 0.39517 0.60670 1.24601
 C2460 C 0.39274 0.63617 1.24999
 H2461 H 0.37950 0.66988 1.27735
 H2462 H 0.36888 0.58480 1.30975
 H2463 H 0.38828 0.56563 1.26556
 H2464 H 0.39880 0.65080 1.23333
 C2465 C 1.09921 1.29273 0.87429
 C2466 C 1.12872 1.29643 0.87173
 C2467 C 1.14683 1.27446 0.88068
 C2468 C 1.13574 1.24939 0.89192
 C2469 C 1.10626 1.24563 0.89445
 C2470 C 1.08810 1.26758 0.88553
 H2471 H 1.08474 1.30939 0.86785
 H2472 H 1.16963 1.27642 0.87845
 H2473 H 1.15026 1.23266 0.89806
 H2474 H 1.06530 1.26539 0.88750
 C2475 C 1.14720 0.77405 0.38064
 C2476 C 1.12909 0.79607 0.37181
 C2477 C 1.09959 0.79237 0.37441
 C2478 C 1.08847 0.76718 0.38557
 C2479 C 1.10664 0.74519 0.39437
 C2480 C 1.13611 0.74894 0.39179
 H2481 H 1.17000 0.77600 0.37838
 H2482 H 1.08512 0.80907 0.36807
 H2483 H 1.06568 0.76500 0.38757
 H2484 H 1.15063 0.73217 0.39786
 C2485 C 0.64703 1.27626 0.38401
 C2486 C 0.62934 1.29677 0.37115
 C2487 C 0.59989 1.29121 0.37027
 C2488 C 0.58867 1.26629 0.38191
 C2489 C 0.60652 1.24583 0.39431
 C2490 C 0.63584 1.25117 0.39510
 H2491 H 0.66988 1.27864 0.38428
 H2492 H 0.58514 1.30655 0.36161
 H2493 H 0.56590 1.26325 0.38148
 H2494 H 0.65041 1.23558 0.40364
 C2495 C 0.59973 0.79226 0.87396
 C2496 C 0.62923 0.79606 0.87155
 C2497 C 0.64738 0.77418 0.88061
 C2498 C 0.63632 0.74908 0.89184
 C2499 C 0.60683 0.74525 0.89429
 C2500 C 0.58865 0.76712 0.88523
 H2501 H 0.58524 0.80887 0.86744
 H2502 H 0.67018 0.77625 0.87853
 H2503 H 0.65087 0.73241 0.89809
 H2504 H 0.56584 0.76490 0.88715
 C2505 C 0.86940 1.29133 1.10007
 C2506 C 0.87062 1.29688 1.12948
 C2507 C 0.88376 1.27643 1.14702
 C2508 C 0.89485 1.25141 1.13570
 C2509 C 0.89385 1.24615 1.10637
 C2510 C 0.88111 1.26654 1.08870
 H2511 H 0.86048 1.30663 1.08544
 H2512 H 0.88426 1.27882 1.16985
 H2513 H 0.90361 1.23586 1.15017
 H2514 H 0.88050 1.26358 1.06593
 C2515 C 0.88147 0.77465 0.64672
 C2516 C 0.87246 0.79657 0.62860
 C2517 C 0.87500 0.79285 0.59911
 C2518 C 0.88617 0.76770 0.58800
 C2519 C 0.89506 0.74574 0.60615
 C2520 C 0.89263 0.74954 0.63563
 H2521 H 0.87930 0.77667 0.66950
 H2522 H 0.86856 0.80950 0.58463
 H2523 H 0.88811 0.76552 0.56521
 H2524 H 0.89879 0.73281 0.65015
 C2525 C 0.37116 1.29134 0.59960
 C2526 C 0.37205 1.29693 0.62903
 C2527 C 0.38490 1.27646 0.64675
 C2528 C 0.39586 1.25129 0.63560
 C2529 C 0.39498 1.24590 0.60630
 C2530 C 0.38270 1.26638 0.58843
 H2531 H 0.36259 1.30668 0.58481
 H2532 H 0.38522 1.27893 0.66957
 H2533 H 0.40435 1.23570 0.65019
 H2534 H 0.38226 1.26335 0.56567
 C2535 C 0.36891 0.79103 1.10008
 C2536 C 0.37016 0.79667 1.12947
 C2537 C 0.38340 0.77631 1.14705
 C2538 C 0.39456 0.75129 1.13577
 C2539 C 0.39352 0.74594 1.10647
 C2540 C 0.38068 0.76624 1.08876
 H2541 H 0.35992 0.80626 1.08541
 H2542 H 0.38394 0.77875 1.16987
 H2543 H 0.40341 0.73581 1.15027
 H2544 H 0.38003 0.76321 1.06601
 C2545 C 0.85268 0.72577 0.88088
 C2546 C 0.87080 0.70394 0.87167
 C2547 C 0.90031 0.70779 0.87389
 C2548 C 0.91143 0.73295 0.88504
 C2549 C 0.89328 0.75479 0.89418
 C2550 C 0.86378 0.75089 0.89199
 H2551 H 0.82987 0.72368 0.87893
 H2552 H 0.91479 0.69121 0.86727
 H2553 H 0.93424 0.73521 0.88677
 H2554 H 0.84925 0.76754 0.89834
 C2555 C 0.85276 0.22580 0.38108
 C2556 C 0.87084 0.20390 0.37198
 C2557 C 0.90036 0.20764 0.37429
 C2558 C 0.91153 0.23279 0.38541
 C2559 C 0.89342 0.25470 0.39445
 C2560 C 0.86392 0.25091 0.39217
 H2561 H 0.82995 0.22378 0.37906
 H2562 H 0.91480 0.19100 0.36774
 H2563 H 0.93435 0.23498 0.38720
 H2564 H 0.84942 0.26761 0.39843
 C2565 C 0.40024 0.70862 0.37100
 C2566 C 0.37084 0.70284 0.37209
 C2567 C 0.35306 0.72321 0.38502
 C2568 C 0.36414 0.74849 0.39581
 C2569 C 0.39342 0.75408 0.39468
 C2570 C 0.41134 0.73368 0.38235
 H2571 H 0.41508 0.69335 0.36240
 H2572 H 0.33025 0.72060 0.38551
 H2573 H 0.34951 0.76400 0.40436
 H2574 H 0.43409 0.73687 0.38174
 C2575 C 0.36879 0.20956 0.89985
 C2576 C 0.36999 0.20393 0.87044
 C2577 C 0.38291 0.22446 0.85282
 C2578 C 0.39388 0.24956 0.86406
 C2579 C 0.39295 0.25487 0.89337
 C2580 C 0.38035 0.23446 0.91113
 H2581 H 0.36003 0.19423 0.91455
 H2582 H 0.38336 0.22204 0.83000
 H2583 H 0.40252 0.26513 0.84954
 H2584 H 0.37978 0.23748 0.93389
 C2585 C 1.09994 0.70871 1.13047
 C2586 C 1.12940 0.70321 1.12931
 C2587 C 1.14693 0.72367 1.11618
 C2588 C 1.13556 0.74876 1.10521
 C2589 C 1.10621 0.75403 1.10632
 C2590 C 1.08855 0.73355 1.11891
 H2591 H 1.08528 0.69333 1.13919
 H2592 H 1.16976 0.72122 1.11561
 H2593 H 1.15000 0.76435 1.09648
 H2594 H 1.06576 0.73649 1.11952
 C2595 C 1.11473 0.22294 0.64643
 C2596 C 1.12758 0.20253 0.62865
 C2597 C 1.12843 0.20821 0.59923
 C2598 C 1.11688 0.23320 0.58813
 C2599 C 1.10460 0.25362 0.60605
 C2600 C 1.10374 0.24814 0.63534
 H2601 H 1.11444 0.22042 0.66924
 H2602 H 1.13699 0.19292 0.58440
 H2603 H 1.11730 0.23632 0.56537
 H2604 H 1.09525 0.26368 0.64996
 C2605 C 0.59889 0.70764 0.62721
 C2606 C 0.62844 0.70399 0.62925
 C2607 C 0.64635 0.72599 0.62003
 C2608 C 0.63502 0.75103 0.60896
 C2609 C 0.60548 0.75468 0.60681
 C2610 C 0.58752 0.73273 0.61610
 H2611 H 0.58457 0.69093 0.63386
 H2612 H 0.66919 0.72406 0.62186
 H2613 H 0.64940 0.76778 0.60253
 H2614 H 0.56469 0.73483 0.61444
 C2615 C 0.64668 0.22359 1.11627
 C2616 C 0.62919 0.20306 1.12934
 C2617 C 0.59975 0.20860 1.13069
 C2618 C 0.58833 0.23346 1.11915
 C2619 C 0.60596 0.25391 1.10643
 C2620 C 0.63530 0.24866 1.10533
 H2621 H 0.66952 0.22120 1.11566
 H2622 H 0.58515 0.19325 1.13958
 H2623 H 0.56555 0.23642 1.11985
 H2624 H 0.64974 0.26426 1.09659
 C2625 C 1.27404 1.11941 0.85358
 C2626 C 1.29606 1.12846 0.87155
 C2627 C 1.29256 1.12581 0.90105
 C2628 C 1.26757 1.11434 0.91230
 C2629 C 1.24559 1.10528 0.89428
 C2630 C 1.24913 1.10794 0.86480
 H2631 H 1.27583 1.12171 0.83078
 H2632 H 1.30927 1.13233 0.91542
 H2633 H 1.26554 1.11229 0.93510
 H2634 H 1.23236 1.10171 0.85038
 C2635 C 1.27438 0.61898 0.35281
 C2636 C 1.29625 0.62816 0.37087
 C2637 C 1.29262 0.62557 0.40037
 C2638 C 1.26758 0.61420 0.41156
 C2639 C 1.24566 0.60515 0.39349
 C2640 C 1.24937 0.60761 0.36399
 H2641 H 1.27637 0.62112 0.33002
 H2642 H 1.30927 0.63208 0.41480
 H2643 H 1.26548 0.61223 0.43436
 H2644 H 1.23266 0.60130 0.34953
 C2645 C 0.79228 1.12571 0.40079
 C2646 C 0.79599 1.12819 0.37129
 C2647 C 0.77409 1.11907 0.35322
 C2648 C 0.74904 1.10781 0.36436
 C2649 C 0.74527 1.10538 0.39384
 C2650 C 0.76718 1.11443 0.41195
 H2651 H 0.80892 1.13223 0.41524
 H2652 H 0.77609 1.12120 0.33042
 H2653 H 0.73234 1.10153 0.34987
 H2654 H 0.76501 1.11252 0.43474
 C2655 C 0.79262 0.62537 0.90070
 C2656 C 0.79619 0.62797 0.87120
 C2657 C 0.77426 0.61882 0.85318
 C2658 C 0.74931 0.60739 0.86437
 C2659 C 0.74568 0.60485 0.89386
 C2660 C 0.76762 0.61393 0.91192
 H2661 H 0.80928 0.63193 0.91510
 H2662 H 0.77616 0.62103 0.83039
 H2663 H 0.73258 0.60110 0.84993
 H2664 H 0.76554 0.61193 0.93471
 C2665 C 1.29149 0.87376 1.09928
 C2666 C 1.29523 0.87117 1.12876
 C2667 C 1.27323 0.87998 1.14689
 C2668 C 1.24812 0.89118 1.13585
 C2669 C 1.24436 0.89382 1.10640
 C2670 C 1.26630 0.88497 1.08821
 H2671 H 1.30817 0.86741 1.08479
 H2672 H 1.27521 0.87772 1.16967
 H2673 H 1.23139 0.89726 1.15039
 H2674 H 1.26410 0.88700 1.06543
 C2675 C 1.29301 0.40052 0.62497
 C2676 C 1.29695 0.37102 0.62721
 C2677 C 1.27510 0.35285 0.61818
 C2678 C 1.24985 0.36388 0.60727
 C2679 C 1.24583 0.39336 0.60510
 C2680 C 1.26771 0.41158 0.61402
 H2681 H 1.30959 0.41504 0.63150
 H2682 H 1.27726 0.33005 0.62019
 H2683 H 1.23320 0.34930 0.60110
 H2684 H 1.26535 0.43438 0.61231
 C2685 C 0.77442 0.85262 0.61861
 C2686 C 0.79628 0.87087 0.62747
 C2687 C 0.79240 0.90034 0.62487
 C2688 C 0.76714 0.91131 0.61379
 C2689 C 0.74523 0.89304 0.60506
 C2690 C 0.74919 0.86358 0.60754
 H2691 H 0.77656 0.82984 0.62082
 H2692 H 0.80901 0.91491 0.63119
 H2693 H 0.76483 0.93410 0.61180
 H2694 H 0.73251 0.84897 0.60149
 C2695 C 0.79192 0.37383 1.09940
 C2696 C 0.79567 0.37128 1.12888
 C2697 C 0.77362 0.37998 1.14700
 C2698 C 0.74845 0.39102 1.13595
 C2699 C 0.74467 0.39360 1.10649
 C2700 C 0.76667 0.38487 1.08831
 H2701 H 0.80864 0.36756 1.08492
 H2702 H 0.77561 0.37774 1.16979
 H2703 H 0.73168 0.39702 1.15048
 H2704 H 0.76446 0.38688 1.06553
 C2705 C 0.70837 1.10003 1.12627
 C2706 C 0.70481 1.12953 1.12907
 C2707 C 0.72686 1.14761 1.12030
 C2708 C 0.75191 1.13648 1.10902
 C2709 C 0.75550 1.10700 1.10626
 C2710 C 0.73347 1.08889 1.11501
 H2711 H 0.69161 1.08558 1.13247
 H2712 H 0.72496 1.17040 1.12265
 H2713 H 0.76871 1.15095 1.10295
 H2714 H 0.73554 1.06610 1.11283
 C2715 C 0.72579 0.64715 0.61921
 C2716 C 0.70390 0.62902 0.62827
 C2717 C 0.70764 0.59953 0.62577
 C2718 C 0.73278 0.58842 0.61452
 C2719 C 0.75469 0.60658 0.60554
 C2720 C 0.75089 0.63607 0.60800
 H2721 H 0.72376 0.66995 0.62136
 H2722 H 0.69101 0.58504 0.63224
 H2723 H 0.73497 0.56563 0.61258
 H2724 H 0.76759 0.65060 0.60178
 C2725 C 0.22452 1.14664 0.61760
 C2726 C 0.20266 1.12844 0.62659
 C2727 C 0.20657 1.09895 0.62428
 C2728 C 0.23186 1.08791 0.61331
 C2729 C 0.25376 1.10614 0.60443
 C2730 C 0.24976 1.13562 0.60666
 H2731 H 0.22238 1.16943 0.61966
 H2732 H 0.18998 1.08443 0.63079
 H2733 H 0.23420 1.06512 0.61154
 H2734 H 0.26644 1.15021 0.60054
 C2735 C 0.20769 0.59943 1.12638
 C2736 C 0.20416 0.62894 1.12919
 C2737 C 0.22632 0.64697 1.12054
 C2738 C 0.25135 0.63580 1.10927
 C2739 C 0.25488 0.60633 1.10643
 C2740 C 0.23280 0.58824 1.11514
 H2741 H 0.19088 0.58502 1.13255
 H2742 H 0.22451 0.66975 1.12295
 H2743 H 0.26820 0.65024 1.10326
 H2744 H 0.23483 0.56545 1.11295
 C2745 C 0.72617 0.85351 0.88066
 C2746 C 0.70415 0.87149 0.87161
 C2747 C 0.70775 0.90102 0.87395
 C2748 C 0.73285 0.91230 0.88507
 C2749 C 0.75485 0.89429 0.89411
 C2750 C 0.75122 0.86477 0.89177
 H2751 H 0.72427 0.83070 0.87862
 H2752 H 0.69101 0.91539 0.86746
 H2753 H 0.73493 0.93512 0.88692
 H2754 H 0.76800 0.85036 0.89802
 C2755 C 0.72739 0.35200 0.37842
 C2756 C 0.70519 0.36982 0.36952
 C2757 C 0.70841 0.39936 0.37222
 C2758 C 0.73332 0.41082 0.38354
 C2759 C 0.75550 0.39298 0.39247
 C2760 C 0.75227 0.36345 0.38976
 H2761 H 0.72570 0.32918 0.37619
 H2762 H 0.69150 0.41360 0.36594
 H2763 H 0.73509 0.43364 0.38569
 H2764 H 0.76919 0.34919 0.39598
 C2765 C 0.20830 0.90005 0.37300
 C2766 C 0.20484 0.87051 0.37062
 C2767 C 0.22688 0.85261 0.37976
 C2768 C 0.25184 0.86398 0.39100
 C2769 C 0.25533 0.89351 0.39340
 C2770 C 0.23329 0.91143 0.38428
 H2771 H 0.19153 0.91436 0.36649
 H2772 H 0.22502 0.82979 0.37775
 H2773 H 0.26864 0.84962 0.39734
 H2774 H 0.23523 0.93426 0.38618
 C2775 C 0.22643 0.35291 0.87980
 C2776 C 0.20448 0.37081 0.87047
 C2777 C 0.20799 0.40036 0.87271
 C2778 C 0.23295 0.41174 0.88402
 C2779 C 0.25491 0.39381 0.89333
 C2780 C 0.25137 0.36428 0.89108
 H2781 H 0.22453 0.33008 0.87791
 H2782 H 0.19127 0.41466 0.86604
 H2783 H 0.23495 0.43457 0.88580
 H2784 H 0.26811 0.34992 0.89757
   
