data_POSCAR
  _audit_creation_date              2014-09-24
  _audit_creation_method            'ToBaCCo'
  _symmetry_space_group_name_H-M    'P1'
  _symmetry_Int_Tables_number       1
  _symmetry_cell_setting            triclinic
  loop_
  _symmetry_equiv_pos_as_xyz
 x,y,z
_cell_length_a 59.7981
_cell_length_b 59.3430
_cell_length_c 59.7468
_cell_angle_alpha 89.889700
_cell_angle_beta 89.963400
_cell_angle_gamma 89.826800
loop_
  _atom_site_label
  _atom_site_type_symbol
  _atom_site_fract_x
  _atom_site_fract_y
  _atom_site_fract_z
N1 N 0.34621 1.35020 0.34712
 N2 N 0.35075 0.85193 0.84989
 N3 N 0.85292 1.35245 0.85355
 N4 N 0.85424 0.85800 0.35520
 N5 N 0.64668 0.64850 0.35007
 N6 N 0.64759 0.14425 0.85149
 N7 N 1.15703 0.65706 0.84417
 N8 N 1.15129 0.15284 0.34793
 N9 N 0.64882 1.35321 0.64614
 N10 N 0.65033 0.84693 1.15047
 N11 N 1.15321 1.34965 1.15403
 N12 N 1.16027 0.84041 0.66012
 N13 N 0.34818 0.65176 0.64979
 N14 N 0.35190 0.14361 1.14597
 N15 N 0.84524 0.65152 1.15276
 N16 N 0.84923 0.14837 0.65067
 N17 N 1.35043 0.35330 0.64735
 N18 N 1.35109 0.85037 1.14986
 N19 N 0.84951 0.35166 1.15224
 N20 N 0.84874 0.85092 0.65336
 N21 N 0.64939 0.64957 0.64899
 N22 N 0.64696 1.14414 1.14741
 N23 N 0.15467 0.65165 1.15408
 N24 N 0.14732 1.14779 0.64831
 N25 N 1.34904 0.65059 0.34884
 N26 N 1.35357 1.14252 0.85400
 N27 N 0.84747 0.65038 0.85093
 N28 N 0.84857 1.15015 0.35108
 N29 N 0.65182 0.35013 0.34821
 N30 N 0.65225 0.84863 0.84676
 N31 N 0.15347 0.34662 0.84682
 N32 N 0.14820 0.85482 0.35346
 O33 O 0.97958 0.91844 0.89053
 O34 O 0.97989 0.89201 0.86463
 C35 C 0.97223 0.91046 0.87225
 C36 C 0.95419 0.92252 0.86012
 C37 C 0.94753 0.91563 0.83864
 H38 H 0.95627 0.90192 0.83045
 O39 O 1.02357 1.07905 0.88803
 O40 O 1.02386 1.10510 0.86166
 C41 C 1.03149 1.08688 0.86988
 C42 C 1.05019 1.07491 0.85871
 C43 C 1.05872 1.08246 0.83807
 H44 H 1.05120 1.09689 0.82984
 O45 O 0.88825 0.97762 0.91934
 O46 O 0.86250 0.97741 0.89293
 C47 C 0.87013 0.96992 0.91135
 C48 C 0.85818 0.95175 0.92344
 C49 C 0.83722 0.94412 0.91605
 H50 H 0.82926 0.95218 0.90184
 O51 O 1.11298 1.02124 0.92171
 O52 O 1.13954 1.02106 0.89609
 C53 C 1.13118 1.02904 0.91398
 C54 C 1.14234 1.04791 0.92574
 C55 C 1.16300 1.05633 0.91822
 H56 H 1.17098 1.04880 0.90378
 O57 O 0.91842 0.88864 0.97954
 O58 O 0.89252 0.86226 0.97949
 C59 C 0.91076 0.87023 0.97196
 C60 C 0.92302 0.85828 0.95392
 C61 C 0.91599 0.83696 0.94656
 H62 H 0.90200 0.82881 0.95474
 O63 O 1.08008 1.11190 0.97930
 O64 O 1.10594 1.13832 0.97916
 C65 C 1.08790 1.13015 0.97144
 C66 C 1.07614 1.14158 0.95278
 C67 C 1.08291 1.16298 0.94536
 H68 H 1.09634 1.17163 0.95391
 O69 O 0.91949 1.02101 0.88859
 O70 O 0.89390 1.02088 0.86202
 C71 C 0.91204 1.02846 0.87008
 C72 C 0.92444 1.04638 0.85810
 C73 C 0.91756 1.05374 0.83681
 H74 H 0.90351 1.04568 0.82869
 O75 O 1.08314 0.97649 0.89172
 O76 O 1.10954 0.97604 0.86593
 C77 C 1.09125 0.96848 0.87375
 C78 C 1.07946 0.94991 0.86216
 C79 C 1.08722 0.94181 0.84147
 H80 H 1.10142 0.94980 0.83352
 O81 O 1.02241 0.88755 0.92245
 O82 O 1.02267 0.86093 0.89675
 C83 C 1.03006 0.86906 0.91496
 C84 C 1.04823 0.85728 0.92716
 C85 C 1.05562 0.83594 0.92019
 H86 H 1.04746 0.82760 0.90630
 O87 O 0.97949 1.10976 0.91820
 O88 O 0.97963 1.13595 0.89195
 C89 C 0.97196 1.12812 0.91021
 C90 C 0.95391 1.14030 0.92214
 C91 C 0.94716 1.16183 0.91503
 H92 H 0.95539 1.16965 0.90086
 O93 O 0.88887 1.08125 0.97735
 O94 O 0.86295 1.10775 0.97663
 C95 C 0.87081 1.08925 0.96939
 C96 C 0.85914 1.07727 0.95111
 C97 C 0.83854 1.08524 0.94306
 H98 H 0.83063 1.09960 0.95100
 O99 O 1.11273 0.91838 0.98181
 O100 O 1.13887 0.89210 0.98235
 C101 C 1.13111 0.91046 0.97458
 C102 C 1.14325 0.92249 0.95661
 C103 C 1.16445 0.91513 0.94957
 H104 H 1.17220 0.90075 0.95769
 O105 O 0.97985 1.07877 0.88779
 O106 O 0.98008 1.10478 0.86138
 C107 C 0.97236 1.08656 0.86945
 C108 C 0.95409 1.07464 0.85774
 C109 C 0.94699 1.08175 0.83648
 H110 H 0.95529 1.09578 0.82839
 O111 O 1.02332 0.91796 0.89134
 O112 O 1.02362 0.89147 0.86551
 C113 C 1.03131 0.90975 0.87339
 C114 C 1.05009 0.92130 0.86193
 C115 C 1.05813 0.91342 0.84125
 H116 H 1.05027 0.89903 0.83343
 O117 O 1.11363 0.97727 0.92249
 O118 O 1.14020 0.97699 0.89688
 C119 C 1.13205 0.96959 0.91509
 C120 C 1.14372 0.95143 0.92749
 C121 C 1.16494 0.94387 0.92068
 H122 H 1.17332 0.95210 0.90684
 O123 O 0.88864 1.02154 0.91901
 O124 O 0.86287 1.02149 0.89262
 C125 C 0.87059 1.02930 0.91083
 C126 C 0.85893 1.04799 0.92242
 C127 C 0.83830 1.05622 0.91455
 H128 H 0.83053 1.04851 0.90011
 O129 O 0.92018 1.11136 0.97730
 O130 O 0.89436 1.13797 0.97651
 C131 C 0.91261 1.12967 0.96927
 C132 C 0.92493 1.14111 0.95101
 C133 C 0.91842 1.16264 0.94365
 H134 H 0.90480 1.17133 0.95196
 O135 O 1.08175 0.88798 0.98129
 O136 O 1.10771 0.86151 0.98166
 C137 C 1.08962 0.86958 0.97380
 C138 C 1.07770 0.85772 0.95556
 C139 C 1.08511 0.83657 0.94803
 H140 H 1.09941 0.82854 0.95585
 O141 O 1.08295 1.02038 0.89059
 O142 O 1.10939 1.02001 0.86483
 C143 C 1.09102 1.02774 0.87232
 C144 C 1.07928 1.04592 0.86003
 C145 C 1.08751 1.05363 0.83942
 H146 H 1.10188 1.04540 0.83194
 O147 O 0.91980 0.97723 0.88963
 O148 O 0.89427 0.97701 0.86300
 C149 C 0.91240 0.96948 0.87130
 C150 C 0.92488 0.95133 0.85975
 C151 C 0.91848 0.94424 0.83831
 H152 H 0.90442 0.95227 0.83008
 O153 O 1.02294 1.10993 0.91864
 O154 O 1.02308 1.13613 0.89240
 C155 C 1.03040 1.12835 0.91083
 C156 C 1.04801 1.14065 0.92315
 C157 C 1.05493 1.16207 0.91602
 H158 H 1.04711 1.16980 0.90156
 O159 O 0.97873 0.88790 0.92158
 O160 O 0.97901 0.86133 0.89583
 C161 C 0.97110 0.86955 0.91381
 C162 C 0.95255 0.85794 0.92555
 C163 C 0.94523 0.83666 0.91842
 H164 H 0.95344 0.82854 0.90441
 O165 O 1.11095 1.08115 0.98018
 O166 O 1.13691 1.10746 0.98012
 C167 C 1.12923 1.08900 0.97268
 C168 C 1.14137 1.07697 0.95466
 C169 C 1.16219 1.08484 0.94720
 H170 H 1.16993 1.09888 0.95573
 O171 O 0.88750 0.91927 0.97922
 O172 O 0.86141 0.89308 0.97922
 C173 C 0.86937 0.91134 0.97150
 C174 C 0.85779 0.92320 0.95299
 C175 C 0.83684 0.91583 0.94540
 H176 H 0.82885 0.90162 0.95350
 Cu177 Cu 1.00096 0.90563 0.90903
 Cu178 Cu 1.00132 0.87378 0.87809
 Cu179 Cu 1.00147 1.09170 0.90574
 Cu180 Cu 1.00167 1.12307 0.87416
 Cu181 Cu 0.90657 0.99937 0.90682
 Cu182 Cu 0.87578 0.99915 0.87499
 Cu183 Cu 1.09555 0.99886 0.90922
 Cu184 Cu 1.12733 0.99847 0.87835
 C185 C 0.94289 0.94052 0.87042
 H186 H 0.94774 0.94574 0.88708
 C187 C 0.92975 0.92648 0.82758
 C188 C 1.06049 1.05651 0.86942
 H189 H 1.05427 1.05082 0.88549
 C190 C 1.07746 1.07194 0.82836
 C191 C 0.86820 0.94131 0.94205
 H192 H 0.88449 0.94689 0.94764
 C193 C 0.82639 0.92621 0.92699
 C194 C 1.13172 1.05832 0.94402
 H195 H 1.11557 1.05229 0.94961
 C196 C 1.17308 1.07485 0.92886
 C197 C 0.94144 0.86852 0.94343
 H198 H 0.94680 0.88505 0.94883
 C199 C 0.92701 0.82599 0.92884
 C200 C 1.05855 1.13066 0.94168
 H201 H 1.05345 1.11402 0.94711
 C202 C 1.07233 1.17339 0.92704
 C203 C 0.94286 1.05680 0.86831
 H204 H 0.94808 1.05143 0.88484
 C205 C 0.92878 1.07139 0.82585
 C206 C 1.06077 0.93966 0.87214
 H207 H 1.05486 0.94564 0.88821
 C208 C 1.07666 0.92358 0.83087
 C209 C 1.05917 0.86789 0.94508
 H210 H 1.05364 0.88441 0.95046
 C211 C 1.07405 0.82556 0.93047
 C212 C 0.94283 1.13017 0.94028
 H213 H 0.94778 1.11345 0.94568
 C214 C 0.92950 1.17316 0.92572
 C215 C 0.86908 1.05851 0.94084
 H216 H 0.88514 1.05251 0.94679
 C217 C 0.82803 1.07490 0.92475
 C218 C 1.13314 0.94079 0.94562
 H219 H 1.11664 0.94633 0.95074
 C220 C 1.17544 0.92573 0.93164
 O221 O 1.02089 0.91883 1.11228
 O222 O 1.02049 0.89278 1.13865
 C223 C 1.02826 0.91101 1.13067
 C224 C 1.04625 0.92307 1.14271
 C225 C 1.05350 0.91554 1.16378
 H226 H 1.04578 0.90082 1.17119
 O227 O 0.97653 1.08294 1.11152
 O228 O 0.97626 1.10929 1.13750
 C229 C 0.96876 1.09091 1.12966
 C230 C 0.95041 1.07906 1.14144
 C231 C 0.94266 1.08696 1.16216
 H232 H 0.95118 1.10090 1.17008
 O233 O 0.88785 1.02301 1.08093
 O234 O 0.86153 1.02341 1.10679
 C235 C 0.86961 1.03086 1.08852
 C236 C 0.85812 1.04927 1.07625
 C237 C 0.83745 1.05772 1.08369
 H238 H 0.82948 1.05034 1.09824
 O239 O 1.11009 0.97856 1.08347
 O240 O 1.13575 0.97882 1.10996
 C241 C 1.12817 0.97095 1.09172
 C242 C 1.14015 0.95233 1.08034
 C243 C 1.16075 0.94455 1.08857
 H244 H 1.16844 0.95301 1.10263
 O245 O 1.08127 0.88764 1.02487
 O246 O 1.10722 0.86116 1.02536
 C247 C 1.08891 0.86922 1.03262
 C248 C 1.07656 0.85736 1.05058
 C249 C 1.08379 0.83622 1.05834
 H250 H 1.09814 0.82813 1.05068
 O251 O 0.91904 1.11260 1.02100
 O252 O 0.89306 1.13904 1.02014
 C253 C 0.91104 1.13107 1.02824
 C254 C 0.92233 1.14303 1.04678
 C255 C 0.91369 1.16347 1.05487
 H256 H 0.89936 1.17112 1.04673
 O257 O 0.91841 0.97948 1.11223
 O258 O 0.89227 0.97952 1.13828
 C259 C 0.91053 0.97181 1.13043
 C260 C 0.92248 0.95331 1.14214
 C261 C 0.91508 0.94542 1.16307
 H262 H 0.90077 0.95325 1.17106
 O263 O 1.07878 1.02275 1.11323
 O264 O 1.10431 1.02293 1.13985
 C265 C 1.08626 1.03056 1.13153
 C266 C 1.07414 1.04909 1.14291
 C267 C 1.08108 1.05671 1.16403
 H268 H 1.09476 1.04827 1.17250
 O269 O 0.97725 0.88812 1.08167
 O270 O 0.97690 0.86197 1.10795
 C271 C 0.96946 0.86990 1.08964
 C272 C 0.95121 0.85813 1.07774
 C273 C 0.94380 0.83693 1.08505
 H274 H 0.95178 0.82895 1.09928
 O275 O 1.02047 1.11387 1.08134
 O276 O 1.02019 1.14027 1.10725
 C277 C 1.02806 1.13219 1.08921
 C278 C 1.04674 1.14371 1.07762
 C279 C 1.05564 1.16389 1.08608
 H280 H 1.04835 1.17153 1.10084
 O281 O 0.88743 0.91958 1.02295
 O282 O 0.86133 0.89341 1.02303
 C283 C 0.86921 0.91175 1.03061
 C284 C 0.85745 0.92388 1.04888
 C285 C 0.83631 0.91678 1.05633
 H286 H 0.82809 0.90287 1.04802
 O287 O 1.11007 1.08168 1.02387
 O288 O 1.13612 1.10791 1.02379
 C289 C 1.12810 1.08973 1.03166
 C290 C 1.13951 1.07813 1.05044
 C291 C 1.15971 1.08649 1.05895
 H292 H 1.16743 1.10111 1.05133
 O293 O 1.02009 1.08280 1.11182
 O294 O 1.01982 1.10908 1.13787
 C295 C 1.02748 1.09068 1.13011
 C296 C 1.04546 1.07851 1.14220
 C297 C 1.05268 1.08593 1.16328
 H298 H 1.04480 1.10047 1.17091
 O299 O 0.97729 0.91944 1.11184
 O300 O 0.97693 0.89338 1.13821
 C301 C 0.96952 0.91176 1.13011
 C302 C 0.95135 0.92401 1.14182
 C303 C 0.94377 0.91648 1.16273
 H304 H 0.95203 0.90235 1.17076
 O305 O 1.11000 1.02253 1.08316
 O306 O 1.13567 1.02286 1.10964
 C307 C 1.12801 1.03038 1.09123
 C308 C 1.13967 1.04892 1.07940
 C309 C 1.16009 1.05732 1.08744
 H310 H 1.16792 1.04969 1.10196
 O311 O 0.88753 0.97910 1.08184
 O312 O 0.86120 0.97937 1.10769
 C313 C 0.86924 0.97152 1.08961
 C314 C 0.85750 0.95310 1.07771
 C315 C 0.83638 0.94573 1.08493
 H316 H 0.82848 0.95380 1.09914
 O317 O 1.07973 1.11284 1.02302
 O318 O 1.10574 1.13911 1.02285
 C319 C 1.08755 1.13124 1.03051
 C320 C 1.07583 1.14316 1.04887
 C321 C 1.08451 1.16328 1.05758
 H322 H 1.09919 1.17076 1.05002
 O323 O 0.91793 0.88848 1.02314
 O324 O 0.89200 0.86214 1.02317
 C325 C 0.91015 0.87011 1.03078
 C326 C 0.92214 0.85824 1.04902
 C327 C 0.91495 0.83702 1.05655
 H328 H 0.90101 0.82883 1.04837
 O329 O 1.07909 0.97875 1.11372
 O330 O 1.10461 0.97891 1.14035
 C331 C 1.08663 0.97113 1.13212
 C332 C 1.07464 0.95258 1.14361
 C333 C 1.08149 0.94498 1.16484
 H334 H 1.09496 0.95353 1.17340
 O335 O 0.91764 1.02352 1.11231
 O336 O 0.89151 1.02372 1.13835
 C337 C 0.90964 1.03145 1.13038
 C338 C 0.92132 1.05021 1.14183
 C339 C 0.91350 1.05869 1.16241
 H340 H 0.89887 1.05126 1.17012
 O341 O 0.97684 1.11372 1.08072
 O342 O 0.97643 1.14018 1.10657
 C343 C 0.96901 1.13207 1.08837
 C344 C 0.95065 1.14361 1.07624
 C345 C 0.94175 1.16407 1.08412
 H346 H 0.94877 1.17186 1.09891
 O347 O 1.02091 0.88753 1.08208
 O348 O 1.02051 0.86137 1.10835
 C349 C 1.02834 0.86915 1.09015
 C350 C 1.04672 0.85714 1.07854
 C351 C 1.05399 0.83583 1.08590
 H352 H 1.04562 0.82762 1.09978
 O353 O 1.11167 0.91856 1.02538
 O354 O 1.13779 0.89226 1.02604
 C355 C 1.12970 0.91063 1.03344
 C356 C 1.14095 0.92273 1.05194
 C357 C 1.16154 0.91511 1.06049
 H358 H 1.16953 0.90043 1.05323
 O359 O 0.88886 1.08141 1.02104
 O360 O 0.86283 1.10781 1.02029
 C361 C 0.87062 1.08956 1.02836
 C362 C 0.85871 1.07801 1.04684
 C363 C 0.83809 1.08624 1.05457
 H364 H 0.83035 1.10054 1.04632
 Cu365 Cu 0.99915 0.90606 1.09430
 Cu366 Cu 0.99866 0.87477 1.12594
 Cu367 Cu 0.99852 1.09573 1.09372
 Cu368 Cu 0.99814 1.12737 1.12490
 Cu369 Cu 0.90539 0.90663 1.00123
 Cu370 Cu 0.87418 0.87510 1.00122
 Cu371 Cu 1.09426 0.90579 1.00328
 Cu372 Cu 1.12552 0.87410 1.00388
 Cu373 Cu 0.90685 1.09401 0.99923
 Cu374 Cu 0.87570 1.12579 0.99829
 Cu375 Cu 1.09258 1.09428 1.00158
 Cu376 Cu 1.12379 1.12583 1.00143
 Cu377 Cu 0.90549 1.00125 1.09428
 Cu378 Cu 0.87401 1.00151 1.12539
 Cu379 Cu 1.09193 1.00063 1.09575
 Cu380 Cu 1.12267 1.00091 1.12761
 C381 C 1.05683 0.94168 1.13284
 H382 H 1.05156 0.94733 1.11641
 C383 C 1.07099 0.92643 1.17511
 C384 C 0.93983 1.06050 1.13155
 H385 H 0.94566 1.05444 1.11548
 C386 C 0.92406 1.07713 1.17273
 C387 C 0.86849 1.05940 1.05766
 H388 H 0.88458 1.05320 1.05200
 C389 C 0.82738 1.07624 1.07299
 C390 C 1.13051 0.94146 1.06189
 H391 H 1.11447 0.94721 1.05565
 C392 C 1.17152 0.92590 1.07886
 C393 C 1.05793 0.86759 1.06068
 H394 H 1.05255 0.88410 1.05505
 C395 C 1.07256 0.82532 1.07592
 C396 C 0.94095 1.13336 1.05743
 H397 H 0.94746 1.11741 1.05148
 C398 C 0.92317 1.17404 1.07359
 C399 C 0.94075 0.94258 1.13174
 H400 H 0.94634 0.94827 1.11544
 C401 C 0.92560 0.92694 1.17343
 C402 C 1.05616 1.05996 1.13224
 H403 H 1.05090 1.05436 1.11582
 C404 C 1.07046 1.07512 1.17434
 C405 C 0.94042 0.86854 1.05958
 H406 H 0.94587 0.88503 1.05405
 C407 C 0.92572 0.82621 1.07453
 C408 C 1.05682 1.13364 1.05887
 H409 H 1.05030 1.11791 1.05249
 C410 C 1.07464 1.17369 1.07625
 C411 C 0.86779 0.94218 1.05955
 H412 H 0.88419 0.94759 1.05409
 C413 C 0.82560 0.92763 1.07433
 C414 C 1.12969 1.05926 1.06070
 H415 H 1.11385 1.05302 1.05452
 C416 C 1.17009 1.07616 1.07737
 O417 O 0.97728 0.42019 0.39001
 O418 O 0.97727 0.39416 0.36370
 C419 C 0.96984 0.41260 0.37161
 C420 C 0.95204 0.42510 0.35960
 C421 C 0.94516 0.41833 0.33817
 H422 H 0.95360 0.40443 0.32999
 O423 O 1.02166 0.58324 0.39001
 O424 O 1.02199 0.60950 0.36384
 C425 C 1.02938 0.59103 0.37177
 C426 C 1.04743 0.57868 0.35996
 C427 C 1.05493 0.58591 0.33887
 H428 H 1.04725 0.60048 0.33104
 O429 O 0.88788 0.48069 0.41967
 O430 O 0.86212 0.48089 0.39327
 C431 C 0.86972 0.47319 0.41163
 C432 C 0.85761 0.45502 0.42353
 C433 C 0.83651 0.44792 0.41611
 H434 H 0.82885 0.45606 0.40179
 O435 O 1.11106 0.52222 0.41965
 O436 O 1.13708 0.52180 0.39348
 C437 C 1.12938 0.52956 0.41173
 C438 C 1.14155 0.54760 0.42369
 C439 C 1.16269 0.55471 0.41634
 H440 H 1.17034 0.54666 0.40198
 O441 O 0.91671 0.38944 0.47837
 O442 O 0.89014 0.36375 0.47825
 C443 C 0.90847 0.37137 0.47061
 C444 C 0.92011 0.35963 0.45204
 C445 C 0.91163 0.33949 0.44305
 H446 H 0.89673 0.33198 0.45015
 O447 O 1.08175 0.61184 0.47878
 O448 O 1.10809 0.63776 0.47895
 C449 C 1.08981 0.63012 0.47124
 C450 C 1.07807 0.64230 0.45297
 C451 C 1.08633 0.66289 0.44490
 H452 H 1.10085 0.67039 0.45272
 O453 O 0.91917 0.52450 0.38951
 O454 O 0.89360 0.52461 0.36293
 C455 C 0.91167 0.53220 0.37114
 C456 C 0.92382 0.55049 0.35945
 C457 C 0.91695 0.55770 0.33816
 H458 H 0.90291 0.54955 0.33012
 O459 O 1.07979 0.47870 0.38925
 O460 O 1.10565 0.47830 0.36292
 C461 C 1.08745 0.47086 0.37100
 C462 C 1.07536 0.45247 0.35949
 C463 C 1.08231 0.44482 0.33833
 H464 H 1.09594 0.45325 0.32984
 O465 O 1.02000 0.38833 0.42103
 O466 O 1.01993 0.36204 0.39499
 C467 C 1.02747 0.36987 0.41326
 C468 C 1.04558 0.35785 0.42530
 C469 C 1.05283 0.33646 0.41826
 H470 H 1.04463 0.32823 0.40434
 O471 O 0.97822 0.61462 0.42043
 O472 O 0.97837 0.64105 0.39443
 C473 C 0.97058 0.63299 0.41255
 C474 C 0.95197 0.64457 0.42428
 C475 C 0.94360 0.66533 0.41650
 H476 H 0.95120 0.67336 0.40210
 O477 O 0.88753 0.58310 0.47817
 O478 O 0.86146 0.60947 0.47844
 C479 C 0.86936 0.59124 0.47057
 C480 C 0.85772 0.57974 0.45196
 C481 C 0.83730 0.58803 0.44370
 H482 H 0.82941 0.60234 0.45174
 O483 O 1.10977 0.41915 0.47970
 O484 O 1.13588 0.39283 0.47964
 C485 C 1.12799 0.41122 0.47206
 C486 C 1.13979 0.42323 0.45381
 C487 C 1.16089 0.41585 0.44652
 H488 H 1.16877 0.40154 0.45462
 O489 O 0.97813 0.58391 0.38972
 O490 O 0.97836 0.61014 0.36353
 C491 C 0.97064 0.59184 0.37142
 C492 C 0.95249 0.57979 0.35955
 C493 C 0.94529 0.58684 0.33823
 H494 H 0.95353 0.60083 0.33001
 O495 O 1.02083 0.41931 0.39038
 O496 O 1.02076 0.39313 0.36423
 C497 C 1.02847 0.41136 0.37218
 C498 C 1.04669 0.42325 0.36027
 C499 C 1.05404 0.41567 0.33927
 H500 H 1.04624 0.40104 0.33184
 O501 O 1.11011 0.47836 0.42017
 O502 O 1.13616 0.47787 0.39403
 C503 C 1.12823 0.47042 0.41235
 C504 C 1.13988 0.45204 0.42450
 C505 C 1.16100 0.44442 0.41745
 H506 H 1.16923 0.45259 0.40348
 O507 O 0.88760 0.52460 0.41919
 O508 O 0.86190 0.52484 0.39272
 C509 C 0.86955 0.53244 0.41104
 C510 C 0.85777 0.55096 0.42277
 C511 C 0.83734 0.55949 0.41470
 H512 H 0.82980 0.55210 0.39997
 O513 O 0.91868 0.61335 0.47854
 O514 O 0.89267 0.63978 0.47883
 C515 C 0.91088 0.63183 0.47113
 C516 C 0.92276 0.64385 0.45295
 C517 C 0.91473 0.66459 0.44501
 H518 H 0.90040 0.67236 0.45303
 O519 O 1.07927 0.38822 0.47954
 O520 O 1.10525 0.36175 0.47944
 C521 C 1.08706 0.36984 0.47187
 C522 C 1.07499 0.35803 0.45373
 C523 C 1.08222 0.33681 0.44622
 H524 H 1.09640 0.32866 0.45414
 O525 O 1.07983 0.52271 0.38963
 O526 O 1.10570 0.52237 0.36330
 C527 C 1.08764 0.53032 0.37137
 C528 C 1.07587 0.54898 0.35974
 C529 C 1.08309 0.55642 0.33863
 H530 H 1.09676 0.54780 0.33034
 O531 O 0.91880 0.48053 0.38926
 O532 O 0.89320 0.48065 0.36271
 C533 C 0.91126 0.47291 0.37091
 C534 C 0.92341 0.45458 0.35926
 C535 C 0.91673 0.44754 0.33786
 H536 H 0.90278 0.45582 0.32969
 O537 O 1.02198 0.61407 0.42056
 O538 O 1.02231 0.64052 0.39459
 C539 C 1.02993 0.63228 0.41272
 C540 C 1.04869 0.64350 0.42447
 C541 C 1.05723 0.66412 0.41666
 H542 H 1.04964 0.67225 0.40229
 O543 O 0.97629 0.38909 0.42043
 O544 O 0.97623 0.36299 0.39421
 C545 C 0.96840 0.37103 0.41228
 C546 C 0.94947 0.35962 0.42353
 C547 C 0.94073 0.33959 0.41477
 H548 H 0.94858 0.33186 0.40034
 O549 O 1.11242 0.58089 0.47880
 O550 O 1.13891 0.60666 0.47900
 C551 C 1.13075 0.58855 0.47122
 C552 C 1.14228 0.57649 0.45279
 C553 C 1.16343 0.58342 0.44518
 H554 H 1.17189 0.59719 0.45347
 O555 O 0.88673 0.42098 0.47842
 O556 O 0.86000 0.39546 0.47851
 C557 C 0.86834 0.41356 0.47082
 C558 C 0.85690 0.42585 0.45247
 C559 C 0.83580 0.41895 0.44478
 H560 H 0.82735 0.40506 0.45295
 Cu561 Cu 0.99863 0.40682 0.40812
 Cu562 Cu 0.99856 0.37542 0.37668
 Cu563 Cu 0.99995 0.59638 0.40782
 Cu564 Cu 1.00030 0.62799 0.37652
 Cu565 Cu 0.90592 0.50256 0.40707
 Cu566 Cu 0.87514 0.50274 0.37523
 Cu567 Cu 1.09259 0.50054 0.40727
 Cu568 Cu 1.12373 0.50005 0.37577
 C569 C 0.94121 0.44339 0.36990
 H570 H 0.94624 0.44853 0.38653
 C571 C 0.92753 0.42946 0.32716
 C572 C 1.05789 0.56008 0.37017
 H573 H 1.05240 0.55460 0.38658
 C574 C 1.07272 0.57488 0.32806
 C575 C 0.86756 0.44404 0.44185
 H576 H 0.88396 0.44926 0.44747
 C577 C 0.82546 0.42993 0.42664
 C578 C 1.13161 0.55845 0.44205
 H579 H 1.11518 0.55321 0.44762
 C580 C 1.17382 0.57256 0.42699
 C581 C 0.93917 0.36940 0.44227
 H582 H 0.94564 0.38507 0.44887
 C583 C 0.92179 0.32947 0.42430
 C584 C 1.05912 0.63285 0.44277
 H585 H 1.05286 0.61679 0.44867
 C586 C 1.07609 0.67389 0.42673
 C587 C 0.94175 0.56148 0.36991
 H588 H 0.94697 0.55613 0.38645
 C589 C 0.92761 0.57577 0.32736
 C590 C 1.05735 0.44174 0.37017
 H591 H 1.05201 0.44742 0.38655
 C592 C 1.07173 0.42640 0.32804
 C593 C 1.05658 0.36833 0.44325
 H594 H 1.05120 0.38490 0.44866
 C595 C 1.07117 0.32590 0.42860
 C596 C 0.94153 0.63409 0.44263
 H597 H 0.94761 0.61791 0.44849
 C598 C 0.92490 0.67540 0.42673
 C599 C 0.86767 0.56108 0.44152
 H600 H 0.88358 0.55481 0.44762
 C601 C 0.82699 0.57807 0.42504
 C602 C 1.12952 0.44147 0.44283
 H603 H 1.11311 0.44705 0.44818
 C604 C 1.17166 0.42636 0.42840
 O605 O 1.01976 0.41817 0.61156
 O606 O 1.01952 0.39184 0.63765
 C607 C 1.02731 0.41013 0.62976
 C608 C 1.04553 0.42200 0.64170
 C609 C 1.05300 0.41421 0.66260
 H610 H 1.04532 0.39943 0.66992
 O611 O 0.97785 0.58317 0.61186
 O612 O 0.97806 0.60967 0.63769
 C613 C 0.97027 0.59136 0.62999
 C614 C 0.95176 0.57983 0.64180
 C615 C 0.94325 0.58849 0.66194
 H616 H 0.95103 0.60309 0.66948
 O617 O 0.88911 0.52364 0.58193
 O618 O 0.86277 0.52374 0.60780
 C619 C 0.87072 0.53120 0.58951
 C620 C 0.85864 0.54908 0.57711
 C621 C 0.83719 0.55590 0.58385
 H622 H 0.82931 0.54779 0.59807
 O623 O 1.10967 0.47759 0.58262
 O624 O 1.13552 0.47718 0.60892
 C625 C 1.12775 0.46968 0.59061
 C626 C 1.13947 0.45117 0.57877
 C627 C 1.16004 0.44288 0.58667
 H628 H 1.16786 0.45052 0.60114
 O629 O 1.07901 0.38809 0.52315
 O630 O 1.10503 0.36166 0.52309
 C631 C 1.08684 0.36967 0.53074
 C632 C 1.07495 0.35779 0.54900
 C633 C 1.08329 0.33736 0.55751
 H634 H 1.09813 0.32981 0.55025
 O635 O 0.91846 0.61309 0.52217
 O636 O 0.89233 0.63939 0.52246
 C637 C 0.91055 0.63134 0.52999
 C638 C 0.92227 0.64304 0.54841
 C639 C 0.91375 0.66334 0.55691
 H640 H 0.89916 0.67098 0.54925
 O641 O 0.91956 0.47985 0.61311
 O642 O 0.89348 0.48013 0.63922
 C643 C 0.91163 0.47227 0.63134
 C644 C 0.92333 0.45372 0.64311
 C645 C 0.91640 0.44677 0.66447
 H646 H 0.90268 0.45543 0.67264
 O647 O 1.07916 0.52198 0.61290
 O648 O 1.10494 0.52166 0.63927
 C649 C 1.08697 0.52966 0.63111
 C650 C 1.07538 0.54854 0.64251
 C651 C 1.08291 0.55640 0.66334
 H652 H 1.09663 0.54787 0.67165
 O653 O 0.97556 0.38803 0.58119
 O654 O 0.97528 0.36151 0.60709
 C655 C 0.96771 0.36975 0.58894
 C656 C 0.94930 0.35829 0.57691
 C657 C 0.94162 0.33704 0.58388
 H658 H 0.94975 0.32853 0.59772
 O659 O 1.02159 0.61322 0.58061
 O660 O 1.02178 0.63984 0.60631
 C661 C 1.02935 0.63157 0.58821
 C662 C 1.04784 0.64301 0.57627
 C663 C 1.05551 0.66412 0.58349
 H664 H 1.04734 0.67254 0.59736
 O665 O 0.88707 0.42108 0.52209
 O666 O 0.86034 0.39557 0.52229
 C667 C 0.86873 0.41368 0.52985
 C668 C 0.85746 0.42601 0.54824
 C669 C 0.83590 0.41986 0.55534
 H670 H 0.82704 0.40666 0.54658
 O671 O 1.11184 0.58035 0.52256
 O672 O 1.13832 0.60613 0.52283
 C673 C 1.13007 0.58793 0.53040
 C674 C 1.14138 0.57571 0.54890
 C675 C 1.16255 0.58250 0.55651
 H676 H 1.17113 0.59619 0.54814
 O677 O 1.02143 0.58275 0.61178
 O678 O 1.02170 0.60923 0.63762
 C679 C 1.02912 0.59070 0.62992
 C680 C 1.04718 0.57847 0.64188
 C681 C 1.05498 0.58611 0.66270
 H682 H 1.04750 0.60090 0.67024
 O683 O 0.97626 0.41849 0.61228
 O684 O 0.97594 0.39216 0.63838
 C685 C 0.96870 0.41074 0.63062
 C686 C 0.95105 0.42339 0.64271
 C687 C 0.94388 0.41662 0.66410
 H688 H 0.95183 0.40237 0.67223
 O689 O 1.10990 0.52146 0.58234
 O690 O 1.13582 0.52109 0.60857
 C691 C 1.12818 0.52883 0.59024
 C692 C 1.14040 0.54686 0.57818
 C693 C 1.16155 0.55390 0.58554
 H694 H 1.16909 0.54588 0.59999
 O695 O 0.88924 0.47983 0.58217
 O696 O 0.86302 0.48000 0.60815
 C697 C 0.87093 0.47235 0.58992
 C698 C 0.85875 0.45447 0.57773
 C699 C 0.83735 0.44789 0.58475
 H700 H 0.82990 0.45590 0.59922
 O701 O 1.08173 0.61181 0.52240
 O702 O 1.10804 0.63776 0.52267
 C703 C 1.08969 0.63003 0.53012
 C704 C 1.07764 0.64207 0.54820
 C705 C 1.08531 0.66300 0.55598
 H706 H 1.09985 0.67074 0.54839
 O707 O 0.91690 0.38940 0.52201
 O708 O 0.89040 0.36364 0.52205
 C709 C 0.90876 0.37119 0.52963
 C710 C 0.92055 0.35900 0.54782
 C711 C 0.91313 0.33776 0.55500
 H712 H 0.89888 0.33005 0.54690
 O713 O 1.07857 0.47786 0.61287
 O714 O 1.10428 0.47749 0.63931
 C715 C 1.08615 0.46997 0.63115
 C716 C 1.07408 0.45141 0.64259
 C717 C 1.08109 0.44355 0.66368
 H718 H 1.09468 0.45198 0.67218
 O719 O 0.91939 0.52394 0.61294
 O720 O 0.89317 0.52424 0.63890
 C721 C 0.91134 0.53190 0.63097
 C722 C 0.92293 0.55071 0.64237
 C723 C 0.91464 0.55963 0.66253
 H724 H 0.89994 0.55229 0.67021
 O725 O 0.97787 0.61372 0.58094
 O726 O 0.97802 0.64030 0.60669
 C727 C 0.97020 0.63211 0.58869
 C728 C 0.95148 0.64361 0.57703
 C729 C 0.94268 0.66397 0.58528
 H730 H 0.95007 0.67176 0.59989
 O731 O 1.01924 0.38718 0.58118
 O732 O 1.01907 0.36069 0.60712
 C733 C 1.02679 0.36874 0.58897
 C734 C 1.04531 0.35707 0.57723
 C735 C 1.05366 0.33642 0.58523
 H736 H 1.04591 0.32834 0.59953
 O737 O 1.10983 0.41858 0.52346
 O738 O 1.13592 0.39223 0.52340
 C739 C 1.12794 0.41047 0.53120
 C740 C 1.13945 0.42206 0.54984
 C741 C 1.15983 0.41379 0.55822
 H742 H 1.16765 0.39922 0.55056
 O743 O 0.88792 0.58223 0.52188
 O744 O 0.86169 0.60843 0.52212
 C745 C 0.86969 0.59004 0.52959
 C746 C 0.85806 0.57785 0.54781
 C747 C 0.83661 0.58449 0.55483
 H748 H 0.82807 0.59813 0.54625
 Cu749 Cu 0.99767 0.40556 0.59392
 Cu750 Cu 0.99741 0.37386 0.62514
 Cu751 Cu 0.99968 0.59558 0.59370
 Cu752 Cu 0.99997 0.62745 0.62464
 Cu753 Cu 0.90451 0.40778 0.50020
 Cu754 Cu 0.87254 0.37703 0.50032
 Cu755 Cu 1.09189 0.40617 0.50145
 Cu756 Cu 1.12315 0.37448 0.50135
 Cu757 Cu 0.90573 0.59526 0.50015
 Cu758 Cu 0.87443 0.62693 0.50050
 Cu759 Cu 1.09434 0.59361 0.50060
 Cu760 Cu 1.12600 0.62466 0.50089
 Cu761 Cu 0.90703 0.50181 0.59500
 Cu762 Cu 0.87552 0.50203 0.62618
 Cu763 Cu 1.09171 0.49975 0.59510
 Cu764 Cu 1.12269 0.49932 0.62670
 C765 C 1.05609 0.44069 0.63189
 H766 H 1.05069 0.44652 0.61557
 C767 C 1.07066 0.42492 0.67386
 C768 C 0.94163 0.56081 0.63228
 H769 H 0.94789 0.55427 0.61656
 C770 C 0.92465 0.57858 0.67240
 C771 C 0.86884 0.55998 0.55892
 H772 H 0.88551 0.55497 0.55381
 C773 C 0.82601 0.57352 0.57278
 C774 C 1.12948 0.44084 0.56016
 H775 H 1.11353 0.44702 0.55409
 C776 C 1.17023 0.42415 0.57655
 C777 C 1.05587 0.36744 0.55888
 H778 H 1.04967 0.38347 0.55275
 C779 C 1.07272 0.32661 0.57554
 C780 C 0.94127 0.63339 0.55845
 H781 H 0.94769 0.61752 0.55220
 C782 C 0.92371 0.67384 0.57540
 C783 C 0.94081 0.44208 0.63249
 H784 H 0.94603 0.44721 0.61588
 C785 C 0.92663 0.42831 0.67516
 C786 C 1.05737 0.55956 0.63203
 H787 H 1.05166 0.55377 0.61584
 C788 C 1.07283 0.57518 0.67357
 C789 C 0.93877 0.36901 0.55874
 H790 H 0.94441 0.38552 0.55345
 C791 C 0.92359 0.32660 0.57296
 C792 C 1.05881 0.63227 0.55840
 H793 H 1.05309 0.61591 0.55284
 C794 C 1.07425 0.67413 0.57350
 C795 C 0.86862 0.44354 0.55938
 H796 H 0.88528 0.44831 0.55410
 C797 C 0.82567 0.43075 0.57359
 C798 C 1.13056 0.55773 0.55972
 H799 H 1.11413 0.55258 0.55414
 C800 C 1.17280 0.57166 0.57479
 O801 O 0.47947 0.91919 0.38882
 O802 O 0.47994 0.89290 0.36279
 C803 C 0.47188 0.91105 0.37072
 C804 C 0.45304 0.92238 0.35913
 C805 C 0.44526 0.91412 0.33860
 H806 H 0.45387 0.90017 0.33068
 O807 O 0.51754 1.08260 0.38832
 O808 O 0.51649 1.10886 0.36216
 C809 C 0.52462 1.09065 0.36993
 C810 C 0.54288 1.07904 0.35779
 C811 C 0.54951 1.08645 0.33649
 H812 H 0.54028 1.09994 0.32844
 O813 O 0.38771 0.97641 0.41934
 O814 O 0.36144 0.97574 0.39347
 C815 C 0.36964 0.96832 0.41169
 C816 C 0.35852 0.94964 0.42379
 C817 C 0.33802 0.94102 0.41626
 H818 H 0.32978 0.94857 0.40193
 O819 O 0.60888 1.02565 0.41761
 O820 O 0.63478 1.02652 0.39133
 C821 C 0.62686 1.03375 0.40971
 C822 C 0.63852 1.05195 0.42186
 C823 C 0.65999 1.05873 0.41531
 H824 H 0.66815 1.05042 0.40137
 O825 O 0.42139 0.88724 0.47864
 O826 O 0.39601 0.86036 0.47900
 C827 C 0.41391 0.86874 0.47110
 C828 C 0.42577 0.85731 0.45247
 C829 C 0.41764 0.83697 0.44365
 H830 H 0.40294 0.82923 0.45093
 O831 O 0.57725 1.11522 0.47675
 O832 O 0.60258 1.14215 0.47614
 C833 C 0.58448 1.13372 0.46888
 C834 C 0.57197 1.14516 0.45073
 C835 C 0.57868 1.16641 0.44283
 H836 H 0.59244 1.17499 0.45090
 O837 O 0.41711 1.02067 0.38813
 O838 O 0.39121 1.02000 0.36189
 C839 C 0.40919 1.02808 0.36981
 C840 C 0.42080 1.04669 0.35809
 C841 C 0.41425 1.05356 0.33651
 H842 H 0.40116 1.04449 0.32788
 O843 O 0.57952 0.98085 0.38718
 O844 O 0.60533 0.98177 0.36082
 C845 C 0.58757 0.97338 0.36896
 C846 C 0.57659 0.95426 0.35755
 C847 C 0.58518 0.94594 0.33732
 H848 H 0.59916 0.95438 0.32943
 O849 O 0.52416 0.88917 0.41904
 O850 O 0.52446 0.86270 0.39319
 C851 C 0.53215 0.87096 0.41121
 C852 C 0.55110 0.85977 0.42275
 C853 C 0.55956 0.83910 0.41498
 H854 H 0.55166 0.83076 0.40095
 O855 O 0.47376 1.11258 0.41966
 O856 O 0.47277 1.13900 0.39366
 C857 C 0.46564 1.13082 0.41199
 C858 C 0.44744 1.14235 0.42431
 C859 C 0.44006 1.16384 0.41775
 H860 H 0.44804 1.17223 0.40376
 O861 O 0.38581 1.07894 0.47861
 O862 O 0.35906 1.10461 0.47883
 C863 C 0.36748 1.08659 0.47097
 C864 C 0.35620 1.07491 0.45224
 C865 C 0.33605 1.08339 0.44361
 H866 H 0.32815 1.09780 0.45147
 O867 O 0.61385 0.92314 0.47671
 O868 O 0.64086 0.89775 0.47641
 C869 C 0.63229 0.91590 0.46896
 C870 C 0.64345 0.92846 0.45069
 C871 C 0.66501 0.92246 0.44349
 H872 H 0.67402 0.90925 0.45221
 O873 O 0.47403 1.08174 0.38897
 O874 O 0.47305 1.10804 0.36285
 C875 C 0.46610 1.08946 0.37078
 C876 C 0.44851 1.07682 0.35882
 C877 C 0.44163 1.08360 0.33741
 H878 H 0.44927 1.09823 0.32975
 O879 O 0.52313 0.91959 0.38785
 O880 O 0.52363 0.89321 0.36192
 C881 C 0.53088 0.91172 0.36964
 C882 C 0.54895 0.92399 0.35779
 C883 C 0.55783 0.91586 0.33751
 H884 H 0.55104 0.90073 0.33006
 O885 O 0.61057 0.98186 0.41730
 O886 O 0.63648 0.98279 0.39102
 C887 C 0.62902 0.97487 0.40933
 C888 C 0.64172 0.95714 0.42136
 C889 C 0.66316 0.95071 0.41417
 H890 H 0.67043 0.95886 0.39968
 O891 O 0.38672 1.02030 0.41897
 O892 O 0.36060 1.01987 0.39294
 C893 C 0.36841 1.02776 0.41109
 C894 C 0.35655 1.04624 0.42287
 C895 C 0.33634 1.05501 0.41448
 H896 H 0.32896 1.04784 0.39955
 O897 O 0.41515 1.11094 0.47876
 O898 O 0.38850 1.13671 0.47910
 C899 C 0.40687 1.12924 0.47136
 C900 C 0.41858 1.14158 0.45327
 C901 C 0.41136 1.16309 0.44644
 H902 H 0.39752 1.17114 0.45501
 O903 O 0.58442 0.89126 0.47658
 O904 O 0.61126 0.86570 0.47621
 C905 C 0.59278 0.87321 0.46877
 C906 C 0.58105 0.86110 0.45058
 C907 C 0.58949 0.84063 0.44230
 H908 H 0.60440 0.83325 0.44959
 O909 O 0.57818 1.02487 0.38703
 O910 O 0.60391 1.02585 0.36058
 C911 C 0.58556 1.03291 0.36875
 C912 C 0.57284 1.05097 0.35722
 C913 C 0.57949 1.05888 0.33605
 H914 H 0.59400 1.05154 0.32800
 O915 O 0.41826 0.97677 0.38863
 O916 O 0.39219 0.97594 0.36255
 C917 C 0.41059 0.96872 0.37052
 C918 C 0.42298 0.95043 0.35898
 C919 C 0.41538 0.94182 0.33844
 H920 H 0.40055 0.94888 0.33070
 O921 O 0.51741 1.11353 0.41882
 O922 O 0.51636 1.13986 0.39274
 C923 C 0.52450 1.13201 0.41078
 C924 C 0.54271 1.14424 0.42226
 C925 C 0.54985 1.16532 0.41437
 H926 H 0.54179 1.17269 0.39986
 O927 O 0.48042 0.88828 0.41944
 O928 O 0.48073 0.86191 0.39348
 C929 C 0.47300 0.86985 0.41167
 C930 C 0.45467 0.85792 0.42345
 C931 C 0.44630 0.83760 0.41495
 H932 H 0.45409 0.83001 0.40041
 O933 O 0.60859 1.08502 0.47665
 O934 O 0.63414 1.11174 0.47616
 C935 C 0.62657 1.09317 0.46882
 C936 C 0.63846 1.08106 0.45071
 C937 C 0.65995 1.08769 0.44388
 H938 H 0.66828 1.10141 0.45239
 O939 O 0.38990 0.91731 0.47862
 O940 O 0.36443 0.89052 0.47903
 C941 C 0.37187 0.90892 0.47113
 C942 C 0.35977 0.92040 0.45269
 C943 C 0.33944 0.91180 0.44467
 H944 H 0.33209 0.89708 0.45247
 Cu945 Cu 0.50181 0.90669 0.40639
 Cu946 Cu 0.50221 0.87502 0.37526
 Cu947 Cu 0.49577 1.09500 0.40660
 Cu948 Cu 0.49453 1.12661 0.37524
 Cu949 Cu 0.40505 0.99861 0.40635
 Cu950 Cu 0.37371 0.99780 0.37511
 Cu951 Cu 0.59165 1.00324 0.40488
 Cu952 Cu 0.62267 1.00436 0.37323
 C953 C 0.44193 0.94068 0.36910
 H954 H 0.44768 0.94694 0.38511
 C955 C 0.42638 0.92359 0.32819
 C956 C 0.55444 1.06109 0.36788
 H957 H 0.54950 1.05541 0.38439
 C958 C 0.56788 1.07661 0.32549
 C959 C 0.36910 0.93940 0.44222
 H960 H 0.38501 0.94582 0.44800
 C961 C 0.32846 0.92206 0.42655
 C962 C 0.62798 1.06304 0.43972
 H963 H 0.61131 1.05800 0.44471
 C964 C 0.67090 1.07647 0.42628
 C965 C 0.44442 0.86754 0.44235
 H966 H 0.45055 0.88342 0.44877
 C967 C 0.42771 0.82708 0.42480
 C968 C 0.55379 1.13437 0.44053
 H969 H 0.54863 1.11791 0.44641
 C970 C 0.56777 1.17663 0.42457
 C971 C 0.43814 1.05826 0.36894
 H972 H 0.44319 1.05319 0.38562
 C973 C 0.42470 1.07197 0.32596
 C974 C 0.55835 0.94331 0.36753
 H975 H 0.55188 0.94947 0.38332
 C976 C 0.57606 0.92668 0.32725
 C977 C 0.56178 0.87046 0.44077
 H978 H 0.55546 0.88648 0.44675
 C979 C 0.57878 0.82951 0.42459
 C980 C 0.43675 1.13148 0.44222
 H981 H 0.44221 1.11478 0.44719
 C982 C 0.42211 1.17441 0.42876
 C983 C 0.36622 1.05620 0.44189
 H984 H 0.38198 1.04982 0.44825
 C985 C 0.32611 1.07372 0.42466
 C986 C 0.63208 0.94601 0.43971
 H987 H 0.61538 0.95062 0.44507
 C988 C 0.67505 0.93348 0.42521
 O989 O 0.52534 0.91970 0.61023
 O990 O 0.52654 0.89332 0.63625
 C991 C 0.53357 0.91184 0.62824
 C992 C 0.55179 0.92421 0.63967
 C993 C 0.56036 0.91658 0.66027
 H994 H 0.55345 0.90159 0.66791
 O995 O 0.47686 1.08200 0.61093
 O996 O 0.47652 1.10828 0.63699
 C997 C 0.46931 1.08974 0.62925
 C998 C 0.45157 1.07737 0.64138
 C999 C 0.44374 1.08516 0.66211
 H1000 H 0.45145 1.09974 0.66976
 O1001 O 0.38894 1.02042 0.58227
 O1002 O 0.36312 1.01968 0.60864
 C1003 C 0.37054 1.02753 0.59028
 C1004 C 0.35790 1.04533 0.57824
 C1005 C 0.33658 1.05208 0.58557
 H1006 H 0.32919 1.04403 0.60007
 O1007 O 0.61309 0.98190 0.57894
 O1008 O 0.63931 0.98264 0.60486
 C1009 C 0.63156 0.97473 0.58672
 C1010 C 0.64375 0.95659 0.57480
 C1011 C 0.66499 0.94949 0.58203
 H1012 H 0.67298 0.95802 0.59588
 O1013 O 0.58431 0.89117 0.52017
 O1014 O 0.61099 0.86544 0.51990
 C1015 C 0.59257 0.87290 0.52758
 C1016 C 0.58078 0.86052 0.54558
 C1017 C 0.58818 0.83914 0.55250
 H1018 H 0.60248 0.83145 0.54437
 O1019 O 0.41568 1.11038 0.52232
 O1020 O 0.38883 1.13594 0.52265
 C1021 C 0.40734 1.12848 0.53006
 C1022 C 0.41901 1.14068 0.54818
 C1023 C 0.41071 1.16136 0.55599
 H1024 H 0.39621 1.16888 0.54803
 O1025 O 0.42123 0.97712 0.61236
 O1026 O 0.39556 0.97626 0.63885
 C1027 C 0.41382 0.96905 0.63061
 C1028 C 0.42627 0.95063 0.64193
 C1029 C 0.41872 0.94176 0.66241
 H1030 H 0.40399 0.94883 0.67033
 O1031 O 0.58100 1.02485 0.60954
 O1032 O 0.60700 1.02553 0.63570
 C1033 C 0.58856 1.03267 0.62779
 C1034 C 0.57602 1.05058 0.63966
 C1035 C 0.58265 1.05763 0.66105
 H1036 H 0.59648 1.04922 0.66932
 O1037 O 0.48177 0.88814 0.58032
 O1038 O 0.48280 0.86173 0.60631
 C1039 C 0.47458 0.86968 0.58833
 C1040 C 0.45593 0.85783 0.57707
 C1041 C 0.44749 0.83756 0.58586
 H1042 H 0.45522 0.82996 0.60045
 O1043 O 0.51905 1.11402 0.57952
 O1044 O 0.51872 1.14037 0.60550
 C1045 C 0.52625 1.13258 0.58719
 C1046 C 0.54394 1.14490 0.57493
 C1047 C 0.55078 1.16636 0.58197
 H1048 H 0.54273 1.17419 0.59624
 O1049 O 0.39029 0.91763 0.52236
 O1050 O 0.36469 0.89096 0.52278
 C1051 C 0.37232 0.90944 0.53026
 C1052 C 0.36063 0.92128 0.54874
 C1053 C 0.33973 0.91377 0.55651
 H1054 H 0.33159 0.89972 0.54837
 O1055 O 0.60911 1.08538 0.52027
 O1056 O 0.63447 1.11228 0.51986
 C1057 C 0.62712 1.09382 0.52771
 C1058 C 0.63929 1.08231 0.54607
 C1059 C 0.65965 1.09088 0.55399
 H1060 H 0.66702 1.10545 0.54594
 O1061 O 0.52038 1.08301 0.61006
 O1062 O 0.52008 1.10917 0.63623
 C1063 C 0.52800 1.09099 0.62821
 C1064 C 0.54648 1.07916 0.63985
 C1065 C 0.55342 1.08602 0.66123
 H1066 H 0.54502 1.09997 0.66938
 O1067 O 0.48167 0.91906 0.61083
 O1068 O 0.48282 0.89272 0.63690
 C1069 C 0.47454 0.91088 0.62914
 C1070 C 0.45597 0.92220 0.64115
 C1071 C 0.44815 0.91358 0.66159
 H1072 H 0.45647 0.89923 0.66917
 O1073 O 0.61169 1.02587 0.57897
 O1074 O 0.63783 1.02668 0.60497
 C1075 C 0.62961 1.03416 0.58681
 C1076 C 0.64058 1.05310 0.57495
 C1077 C 0.66096 1.06192 0.58264
 H1078 H 0.66905 1.05446 0.59709
 O1079 O 0.39040 0.97660 0.58193
 O1080 O 0.36457 0.97583 0.60829
 C1081 C 0.37243 0.96852 0.58990
 C1082 C 0.36080 0.95017 0.57787
 C1083 C 0.33991 0.94250 0.58532
 H1084 H 0.33216 0.95030 0.59977
 O1085 O 0.57757 1.11530 0.52028
 O1086 O 0.60277 1.14236 0.51979
 C1087 C 0.58489 1.13392 0.52764
 C1088 C 0.57268 1.14553 0.54586
 C1089 C 0.57931 1.16698 0.55312
 H1090 H 0.59291 1.17554 0.54470
 O1091 O 0.42166 0.88748 0.52239
 O1092 O 0.39618 0.86070 0.52285
 C1093 C 0.41420 0.86912 0.53034
 C1094 C 0.42622 0.85778 0.54892
 C1095 C 0.41784 0.83776 0.55821
 H1096 H 0.40295 0.83009 0.55129
 O1097 O 0.58242 0.98091 0.60954
 O1098 O 0.60852 0.98159 0.63559
 C1099 C 0.59057 0.97339 0.62772
 C1100 C 0.57942 0.95448 0.63947
 C1101 C 0.58746 0.94687 0.66022
 H1102 H 0.60100 0.95584 0.66822
 O1103 O 0.41994 1.02112 0.61257
 O1104 O 0.39429 1.02040 0.63909
 C1105 C 0.41212 1.02859 0.63089
 C1106 C 0.42361 1.04743 0.64232
 C1107 C 0.41599 1.05547 0.66312
 H1108 H 0.40191 1.04745 0.67126
 O1109 O 0.47545 1.11279 0.58024
 O1110 O 0.47505 1.13918 0.60618
 C1111 C 0.46735 1.13091 0.58817
 C1112 C 0.44839 1.14201 0.57657
 C1113 C 0.43981 1.16271 0.58418
 H1114 H 0.44744 1.17095 0.59841
 O1115 O 0.52541 0.88923 0.57924
 O1116 O 0.52646 0.86269 0.60511
 C1117 C 0.53357 0.87096 0.58682
 C1118 C 0.55187 0.85958 0.57450
 C1119 C 0.55948 0.83820 0.58117
 H1120 H 0.55123 0.82954 0.59484
 O1121 O 0.61432 0.92256 0.52031
 O1122 O 0.64120 0.89703 0.52010
 C1123 C 0.63280 0.91511 0.52781
 C1124 C 0.64434 0.92740 0.54599
 C1125 C 0.66557 0.92052 0.55345
 H1126 H 0.67376 0.90629 0.54559
 O1127 O 0.38579 1.07889 0.52242
 O1128 O 0.35882 1.10431 0.52265
 C1129 C 0.36740 1.08623 0.53023
 C1130 C 0.35630 1.07392 0.54875
 C1131 C 0.33497 1.08038 0.55627
 H1132 H 0.32610 1.09380 0.54772
 Cu1133 Cu 0.50346 0.90667 0.59256
 Cu1134 Cu 0.50479 0.87497 0.62375
 Cu1135 Cu 0.49798 1.09535 0.59256
 Cu1136 Cu 0.49760 1.12691 0.62384
 Cu1137 Cu 0.40834 0.90510 0.50046
 Cu1138 Cu 0.37780 0.87292 0.50096
 Cu1139 Cu 0.59655 0.90959 0.49848
 Cu1140 Cu 0.62878 0.87890 0.49814
 Cu1141 Cu 0.40326 1.09220 0.50050
 Cu1142 Cu 0.37106 1.12291 0.50085
 Cu1143 Cu 0.59061 1.09752 0.49851
 Cu1144 Cu 0.62105 1.12984 0.49792
 Cu1145 Cu 0.40774 0.99892 0.59469
 Cu1146 Cu 0.37683 0.99795 0.62641
 Cu1147 Cu 0.59446 1.00331 0.59162
 Cu1148 Cu 0.62579 1.00419 0.62290
 C1149 C 0.56140 0.94322 0.62947
 H1150 H 0.55523 0.94892 0.61338
 C1151 C 0.57821 0.92782 0.67072
 C1152 C 0.44155 1.05837 0.63173
 H1153 H 0.44730 1.05250 0.61556
 C1154 C 0.42593 1.07441 0.67306
 C1155 C 0.36751 1.05623 0.55971
 H1156 H 0.38408 1.05134 0.55416
 C1157 C 0.32495 1.06957 0.57467
 C1158 C 0.63369 0.94557 0.55664
 H1159 H 0.61719 0.95077 0.55117
 C1160 C 0.67605 0.93148 0.57144
 C1161 C 0.56248 0.87050 0.55655
 H1162 H 0.55688 0.88712 0.55151
 C1163 C 0.57760 0.82783 0.57026
 C1164 C 0.43798 1.13125 0.55843
 H1165 H 0.44427 1.11514 0.55267
 C1166 C 0.42092 1.17247 0.57400
 C1167 C 0.44505 0.94086 0.63156
 H1168 H 0.45076 0.94735 0.61560
 C1169 C 0.42950 0.92317 0.67229
 C1170 C 0.55778 1.06130 0.62929
 H1171 H 0.55272 1.05611 0.61268
 C1172 C 0.57144 1.07531 0.67199
 C1173 C 0.44534 0.86763 0.55840
 H1174 H 0.45158 0.88336 0.55167
 C1175 C 0.42835 0.82760 0.57664
 C1176 C 0.55484 1.13474 0.55673
 H1177 H 0.54985 1.11805 0.55142
 C1178 C 0.56844 1.17753 0.57116
 C1179 C 0.37091 0.93963 0.55941
 H1180 H 0.38716 0.94531 0.55375
 C1181 C 0.32921 0.92438 0.57474
 C1182 C 0.63000 1.06330 0.55652
 H1183 H 0.61413 1.05681 0.55070
 C1184 C 0.67059 1.08084 0.57228
 O1185 O 0.58075 0.51958 1.10948
 O1186 O 0.60702 0.51930 1.13536
 C1187 C 0.58872 0.52705 1.12771
 C1188 C 0.57696 0.54539 1.13982
 C1189 C 0.58536 0.55342 1.16022
 H1190 H 0.59983 0.54534 1.16766
 O1191 O 0.41961 0.47449 1.10983
 O1192 O 0.39340 0.47371 1.13579
 C1193 C 0.41172 0.46631 1.12783
 C1194 C 0.42369 0.44760 1.13920
 C1195 C 0.41575 0.43878 1.15955
 H1196 H 0.40104 0.44605 1.16732
 O1197 O 0.52068 0.60955 1.08134
 O1198 O 0.52060 0.63561 1.10760
 C1199 C 0.52826 0.62783 1.08932
 C1200 C 0.54669 0.63965 1.07758
 C1201 C 0.55528 0.65994 1.08606
 H1202 H 0.54785 0.66757 1.10077
 O1203 O 0.47916 0.38436 1.07835
 O1204 O 0.47954 0.35780 1.10422
 C1205 C 0.47166 0.36593 1.08617
 C1206 C 0.45312 0.35429 1.07447
 C1207 C 0.44462 0.33377 1.08261
 H1208 H 0.45208 0.32599 1.09724
 O1209 O 0.61045 0.58028 1.02029
 O1210 O 0.63651 0.60650 1.02042
 C1211 C 0.62876 0.58802 1.02781
 C1212 C 0.64076 0.57569 1.04575
 C1213 C 0.66176 0.58307 1.05324
 H1214 H 0.66947 0.59760 1.04545
 O1215 O 0.38972 0.41564 1.01931
 O1216 O 0.36338 0.38971 1.01906
 C1217 C 0.37137 0.40792 1.02678
 C1218 C 0.35952 0.41995 1.04500
 C1219 C 0.33842 0.41263 1.05232
 H1220 H 0.33055 0.39837 1.04427
 O1221 O 0.47736 0.57829 1.11206
 O1222 O 0.47711 0.60419 1.13846
 C1223 C 0.46956 0.58596 1.13033
 C1224 C 0.45107 0.57383 1.14169
 C1225 C 0.44222 0.58163 1.16211
 H1226 H 0.44936 0.59636 1.17003
 O1227 O 0.52277 0.41533 1.10886
 O1228 O 0.52332 0.38882 1.13476
 C1229 C 0.53071 0.40727 1.12692
 C1230 C 0.54917 0.41919 1.13847
 C1231 C 0.55792 0.41091 1.15874
 H1232 H 0.55074 0.39604 1.16641
 O1233 O 0.61169 0.47616 1.07810
 O1234 O 0.63802 0.47597 1.10392
 C1235 C 0.63004 0.46849 1.08570
 C1236 C 0.64191 0.45031 1.07350
 C1237 C 0.66305 0.44279 1.08063
 H1238 H 0.67117 0.45097 1.09462
 O1239 O 0.38870 0.51884 1.07977
 O1240 O 0.36244 0.51832 1.10569
 C1241 C 0.37044 0.52640 1.08768
 C1242 C 0.35883 0.54523 1.07612
 C1243 C 0.33867 0.55405 1.08459
 H1244 H 0.33114 0.54664 1.09936
 O1245 O 0.41916 0.60965 1.02145
 O1246 O 0.39281 0.63573 1.02170
 C1247 C 0.41103 0.62776 1.02934
 C1248 C 0.42250 0.63932 1.04804
 C1249 C 0.41428 0.65990 1.05616
 H1250 H 0.40023 0.66790 1.04788
 O1251 O 0.58180 0.38608 1.01841
 O1252 O 0.60810 0.35995 1.01822
 C1253 C 0.58980 0.36771 1.02589
 C1254 C 0.57786 0.35556 1.04399
 C1255 C 0.58498 0.33410 1.05102
 H1256 H 0.59917 0.32617 1.04292
 O1257 O 0.41924 0.51852 1.11050
 O1258 O 0.39306 0.51778 1.13649
 C1259 C 0.41117 0.52583 1.12878
 C1260 C 0.42255 0.54437 1.14082
 C1261 C 0.41401 0.55237 1.16120
 H1262 H 0.39972 0.54411 1.16873
 O1263 O 0.58104 0.47551 1.10876
 O1264 O 0.60730 0.47525 1.13465
 C1265 C 0.58915 0.46752 1.12675
 C1266 C 0.57774 0.44862 1.13825
 C1267 C 0.58626 0.44003 1.15843
 H1268 H 0.60063 0.44795 1.16613
 O1269 O 0.52282 0.38514 1.07755
 O1270 O 0.52323 0.35848 1.10331
 C1271 C 0.53065 0.36674 1.08512
 C1272 C 0.54890 0.35512 1.07291
 C1273 C 0.55622 0.33367 1.07966
 H1274 H 0.54780 0.32515 1.09330
 O1275 O 0.47709 0.60932 1.08152
 O1276 O 0.47683 0.63542 1.10773
 C1277 C 0.46928 0.62755 1.08946
 C1278 C 0.45085 0.63929 1.07754
 C1279 C 0.44229 0.65989 1.08548
 H1280 H 0.44950 0.66757 1.10023
 O1281 O 0.38873 0.57877 1.02106
 O1282 O 0.36232 0.60479 1.02126
 C1283 C 0.37047 0.58649 1.02880
 C1284 C 0.35896 0.57454 1.04728
 C1285 C 0.33885 0.58305 1.05597
 H1286 H 0.33115 0.59771 1.04833
 O1287 O 0.61205 0.41723 1.01855
 O1288 O 0.63854 0.39129 1.01833
 C1289 C 0.63040 0.40949 1.02606
 C1290 C 0.64209 0.42151 1.04431
 C1291 C 0.66324 0.41427 1.05164
 H1292 H 0.67125 0.40003 1.04359
 O1293 O 0.47908 0.41538 1.10875
 O1294 O 0.47954 0.38893 1.13471
 C1295 C 0.47159 0.40722 1.12692
 C1296 C 0.45299 0.41874 1.13871
 C1297 C 0.44480 0.41018 1.15903
 H1298 H 0.45284 0.39572 1.16667
 O1299 O 0.52108 0.57842 1.11171
 O1300 O 0.52105 0.60430 1.13814
 C1301 C 0.52889 0.58618 1.12988
 C1302 C 0.54773 0.57432 1.14102
 C1303 C 0.55649 0.58217 1.16140
 H1304 H 0.54904 0.59672 1.16943
 O1305 O 0.38920 0.47485 1.07892
 O1306 O 0.36285 0.47429 1.10476
 C1307 C 0.37096 0.46697 1.08649
 C1308 C 0.35936 0.44875 1.07421
 C1309 C 0.33827 0.44117 1.08129
 H1310 H 0.33002 0.44936 1.09523
 O1311 O 0.61128 0.52013 1.07860
 O1312 O 0.63762 0.51989 1.10441
 C1313 C 0.62952 0.52776 1.08636
 C1314 C 0.64109 0.54633 1.07450
 C1315 C 0.66210 0.55396 1.08177
 H1316 H 0.67035 0.54559 1.09563
 O1317 O 0.42044 0.38475 1.01941
 O1318 O 0.39423 0.35869 1.01941
 C1319 C 0.41243 0.36651 1.02711
 C1320 C 0.42410 0.35469 1.04563
 C1321 C 0.41585 0.33423 1.05402
 H1322 H 0.40143 0.32652 1.04622
 O1323 O 0.57925 0.61060 1.02154
 O1324 O 0.60522 0.63690 1.02189
 C1325 C 0.58720 0.62865 1.02964
 C1326 C 0.57571 0.63982 1.04864
 C1327 C 0.58427 0.65984 1.05767
 H1328 H 0.59896 0.66757 1.05035
 Cu1329 Cu 0.59356 0.49789 1.09114
 Cu1330 Cu 0.62509 0.49759 1.12222
 Cu1331 Cu 0.40681 0.49673 1.09217
 Cu1332 Cu 0.37532 0.49593 1.12329
 Cu1333 Cu 0.49904 0.59129 1.09408
 Cu1334 Cu 0.49888 0.62247 1.12564
 Cu1335 Cu 0.50093 0.40270 1.09080
 Cu1336 Cu 0.50148 0.37086 1.12186
 C1337 C 0.55801 0.55580 1.13047
 H1338 H 0.55164 0.54988 1.11457
 C1339 C 0.57538 0.57187 1.17107
 C1340 C 0.44246 0.43758 1.12904
 H1341 H 0.44847 0.44405 1.11318
 C1342 C 0.42616 0.42001 1.16952
 C1343 C 0.55685 0.62990 1.05866
 H1344 H 0.55047 0.61417 1.05212
 C1345 C 0.57414 0.66996 1.07630
 C1346 C 0.44286 0.36447 1.05584
 H1347 H 0.44909 0.38044 1.04967
 C1348 C 0.42591 0.32369 1.07255
 C1349 C 0.63069 0.55717 1.05635
 H1350 H 0.61436 0.55160 1.05086
 C1351 C 0.67259 0.57229 1.07121
 C1352 C 0.36975 0.43817 1.05592
 H1353 H 0.38615 0.44371 1.05057
 C1354 C 0.32767 0.42313 1.07045
 C1355 C 0.44121 0.55506 1.13133
 H1356 H 0.44766 0.54917 1.11543
 C1357 C 0.42359 0.57106 1.17192
 C1358 C 0.55908 0.43820 1.12850
 H1359 H 0.55267 0.44449 1.11272
 C1360 C 0.57656 0.42116 1.16873
 C1361 C 0.63168 0.43969 1.05520
 H1362 H 0.61524 0.44518 1.04981
 C1363 C 0.67386 0.42481 1.06977
 C1364 C 0.36872 0.55550 1.05733
 H1365 H 0.38445 0.54908 1.05094
 C1366 C 0.32868 0.57308 1.07470
 C1367 C 0.44092 0.62925 1.05871
 H1368 H 0.44714 0.61320 1.05271
 C1369 C 0.42393 0.67024 1.07492
 C1370 C 0.55968 0.36583 1.05493
 H1371 H 0.55429 0.38250 1.04981
 C1372 C 0.57423 0.32301 1.06883
 O1373 O 0.57995 0.47777 0.88642
 O1374 O 0.60590 0.47818 0.86019
 C1375 C 0.58790 0.47016 0.86821
 C1376 C 0.57649 0.45133 0.85667
 C1377 C 0.58470 0.44306 0.83620
 H1378 H 0.59909 0.45092 0.82844
 O1379 O 0.42012 0.52142 0.88678
 O1380 O 0.39397 0.52149 0.86076
 C1381 C 0.41207 0.52927 0.86868
 C1382 C 0.42362 0.54797 0.85707
 C1383 C 0.41640 0.55543 0.83594
 H1384 H 0.40282 0.54681 0.82761
 O1385 O 0.47733 0.61199 0.91860
 O1386 O 0.47707 0.63872 0.89290
 C1387 C 0.46961 0.63045 0.91105
 C1388 C 0.45149 0.64211 0.92337
 C1389 C 0.44435 0.66372 0.91692
 H1390 H 0.45239 0.67209 0.90295
 O1391 O 0.52208 0.38548 0.91683
 O1392 O 0.52235 0.35950 0.89048
 C1393 C 0.52990 0.36730 0.90878
 C1394 C 0.54850 0.35565 0.92044
 C1395 C 0.55683 0.33499 0.91251
 H1396 H 0.54904 0.32692 0.89826
 O1397 O 0.61200 0.41756 0.97492
 O1398 O 0.63851 0.39165 0.97461
 C1399 C 0.63029 0.40996 0.96714
 C1400 C 0.64169 0.42228 0.94881
 C1401 C 0.66232 0.41473 0.94032
 H1402 H 0.67034 0.40005 0.94759
 O1403 O 0.38883 0.57930 0.97735
 O1404 O 0.36237 0.60526 0.97755
 C1405 C 0.37053 0.58709 0.96977
 C1406 C 0.35898 0.57513 0.95138
 C1407 C 0.33792 0.58240 0.94375
 H1408 H 0.32960 0.59637 0.95195
 O1409 O 0.52100 0.58170 0.88761
 O1410 O 0.52081 0.60817 0.86165
 C1411 C 0.52845 0.58972 0.86937
 C1412 C 0.54642 0.57759 0.85727
 C1413 C 0.55344 0.58481 0.83602
 H1414 H 0.54544 0.59925 0.82827
 O1415 O 0.47872 0.41687 0.88634
 O1416 O 0.47895 0.39119 0.85970
 C1417 C 0.47134 0.40944 0.86786
 C1418 C 0.45344 0.42200 0.85606
 C1419 C 0.44629 0.41542 0.83465
 H1420 H 0.45450 0.40148 0.82630
 O1421 O 0.61005 0.52194 0.91718
 O1422 O 0.63603 0.52250 0.89098
 C1423 C 0.62807 0.52996 0.90927
 C1424 C 0.63946 0.54863 0.92109
 C1425 C 0.65980 0.55725 0.91302
 H1426 H 0.66772 0.54970 0.89853
 O1427 O 0.39053 0.47662 0.91735
 O1428 O 0.36439 0.47673 0.89132
 C1429 C 0.37245 0.46883 0.90939
 C1430 C 0.36097 0.44997 0.92082
 C1431 C 0.34071 0.44175 0.91236
 H1432 H 0.33296 0.45003 0.89817
 O1433 O 0.57914 0.61224 0.97778
 O1434 O 0.60493 0.63872 0.97812
 C1435 C 0.58678 0.63081 0.97045
 C1436 C 0.57475 0.64286 0.95233
 C1437 C 0.58184 0.66421 0.94503
 H1438 H 0.59562 0.67246 0.95342
 O1439 O 0.42029 0.38451 0.97571
 O1440 O 0.39418 0.35836 0.97563
 C1441 C 0.41237 0.36626 0.96799
 C1442 C 0.42406 0.35462 0.94942
 C1443 C 0.41617 0.33397 0.94116
 H1444 H 0.40189 0.32596 0.94898
 O1445 O 0.42088 0.47741 0.88646
 O1446 O 0.39481 0.47758 0.86036
 C1447 C 0.41308 0.46992 0.86816
 C1448 C 0.42508 0.45174 0.85618
 C1449 C 0.41816 0.44493 0.83480
 H1450 H 0.40421 0.45341 0.82681
 O1451 O 0.57951 0.52182 0.88643
 O1452 O 0.60539 0.52222 0.86011
 C1453 C 0.58717 0.52970 0.86819
 C1454 C 0.57507 0.54816 0.85664
 C1455 C 0.58188 0.55561 0.83537
 H1456 H 0.59552 0.54713 0.82689
 O1457 O 0.47841 0.38534 0.91642
 O1458 O 0.47854 0.35950 0.88995
 C1459 C 0.47079 0.36718 0.90822
 C1460 C 0.45239 0.35525 0.91987
 C1461 C 0.44402 0.33477 0.91162
 H1462 H 0.45149 0.32715 0.89693
 O1463 O 0.52083 0.61236 0.91844
 O1464 O 0.52067 0.63902 0.89268
 C1465 C 0.52826 0.63089 0.91085
 C1466 C 0.54618 0.64281 0.92310
 C1467 C 0.55345 0.66416 0.91607
 H1468 H 0.54562 0.67213 0.90174
 O1469 O 0.39016 0.41591 0.97563
 O1470 O 0.36392 0.38988 0.97532
 C1471 C 0.37202 0.40816 0.96777
 C1472 C 0.36064 0.42026 0.94925
 C1473 C 0.34037 0.41222 0.94043
 H1474 H 0.33267 0.39734 0.94753
 O1475 O 0.60948 0.58106 0.97660
 O1476 O 0.63538 0.60744 0.97671
 C1477 C 0.62746 0.58928 0.96877
 C1478 C 0.63896 0.57787 0.94993
 C1479 C 0.65905 0.58649 0.94131
 H1480 H 0.66659 0.60124 0.94880
 O1481 O 0.52223 0.41691 0.88677
 O1482 O 0.52255 0.39109 0.86028
 C1483 C 0.53004 0.40931 0.86849
 C1484 C 0.54834 0.42149 0.85696
 C1485 C 0.55684 0.41348 0.83656
 H1486 H 0.54937 0.39884 0.82878
 O1487 O 0.47751 0.58176 0.88747
 O1488 O 0.47722 0.60828 0.86156
 C1489 C 0.46983 0.58979 0.86930
 C1490 C 0.45186 0.57762 0.85737
 C1491 C 0.44444 0.58487 0.83624
 H1492 H 0.45216 0.59937 0.82840
 O1493 O 0.38983 0.52059 0.91781
 O1494 O 0.36359 0.52064 0.89188
 C1495 C 0.37146 0.52814 0.91014
 C1496 C 0.35944 0.54620 0.92231
 C1497 C 0.33839 0.55366 0.91497
 H1498 H 0.33071 0.54580 0.90056
 O1499 O 0.61071 0.47794 0.91686
 O1500 O 0.63674 0.47850 0.89070
 C1501 C 0.62898 0.47051 0.90884
 C1502 C 0.64095 0.45194 0.92035
 C1503 C 0.66152 0.44413 0.91210
 H1504 H 0.66919 0.45248 0.89791
 O1505 O 0.58180 0.38637 0.97476
 O1506 O 0.60819 0.36033 0.97451
 C1507 C 0.58988 0.36817 0.96698
 C1508 C 0.57810 0.35633 0.94867
 C1509 C 0.58639 0.33585 0.94028
 H1510 H 0.60113 0.32824 0.94767
 O1511 O 0.41883 0.61078 0.97775
 O1512 O 0.39250 0.63688 0.97804
 C1513 C 0.41081 0.62921 0.97038
 C1514 C 0.42269 0.64151 0.95238
 C1515 C 0.41572 0.66314 0.94569
 H1516 H 0.40200 0.67131 0.95435
 Cu1517 Cu 0.59244 0.49984 0.90433
 Cu1518 Cu 0.62362 0.50041 0.87287
 Cu1519 Cu 0.40799 0.49904 0.90469
 Cu1520 Cu 0.37654 0.49912 0.87349
 Cu1521 Cu 0.59198 0.59343 0.99902
 Cu1522 Cu 0.62309 0.62505 0.99932
 Cu1523 Cu 0.59428 0.40441 0.99668
 Cu1524 Cu 0.62599 0.37319 0.99642
 Cu1525 Cu 0.40653 0.59202 0.99931
 Cu1526 Cu 0.37484 0.62327 0.99965
 Cu1527 Cu 0.40778 0.40279 0.99753
 Cu1528 Cu 0.37630 0.37154 0.99737
 Cu1529 Cu 0.49920 0.59429 0.90561
 Cu1530 Cu 0.49894 0.62624 0.87459
 Cu1531 Cu 0.50030 0.40369 0.90427
 Cu1532 Cu 0.50061 0.37270 0.87246
 C1533 C 0.55816 0.44054 0.86680
 H1534 H 0.55194 0.44660 0.88273
 C1535 C 0.57504 0.42407 0.82612
 C1536 C 0.44147 0.55905 0.86753
 H1537 H 0.44693 0.55354 0.88394
 C1538 C 0.42675 0.57384 0.82535
 C1539 C 0.44071 0.63126 0.94125
 H1540 H 0.44599 0.61448 0.94614
 C1541 C 0.42653 0.67442 0.92803
 C1542 C 0.55906 0.36600 0.93873
 H1543 H 0.55288 0.38204 0.94480
 C1544 C 0.57582 0.32509 0.92228
 C1545 C 0.63126 0.44104 0.93883
 H1546 H 0.61520 0.44677 0.94503
 C1547 C 0.67228 0.42551 0.92189
 C1548 C 0.36948 0.55688 0.94067
 H1549 H 0.38586 0.55140 0.94623
 C1550 C 0.32748 0.57171 0.92557
 C1551 C 0.55719 0.55912 0.86733
 H1552 H 0.55205 0.55365 0.88386
 C1553 C 0.57111 0.57389 0.82490
 C1554 C 0.44286 0.44032 0.86657
 H1555 H 0.44807 0.44531 0.88319
 C1556 C 0.42870 0.42685 0.82386
 C1557 C 0.62934 0.55887 0.93975
 H1558 H 0.61359 0.55243 0.94598
 C1559 C 0.66957 0.57623 0.92295
 C1560 C 0.37072 0.43925 0.93940
 H1561 H 0.38653 0.44533 0.94581
 C1562 C 0.33040 0.42280 0.92188
 C1563 C 0.55677 0.63243 0.94139
 H1564 H 0.55144 0.61583 0.94671
 C1565 C 0.57124 0.67501 0.92694
 C1566 C 0.44237 0.36493 0.93885
 H1567 H 0.44841 0.38095 0.94502
 C1568 C 0.42599 0.32400 0.92223
 C1569 C 1.15861 1.13657 1.31059
 C1570 C 1.15099 1.12838 1.29009
 C1571 C 1.12802 1.12766 1.28536
 C1572 C 1.11279 1.13591 1.30138
 C1573 C 1.12045 1.14420 1.32186
 C1574 C 1.14341 1.14441 1.32672
 C1575 C 1.12080 1.11881 1.26336
 C1576 C 1.10060 1.10976 1.25970
 C1577 C 1.09347 1.10066 1.23774
 C1578 C 1.07051 1.09877 1.23329
 C1579 C 1.06301 1.09040 1.21279
 C1580 C 1.07836 1.08354 1.19632
 C1581 C 1.10135 1.08501 1.20091
 C1582 C 1.10885 1.09337 1.22140
 H1583 H 1.17642 1.13695 1.31382
 H1584 H 1.16307 1.12240 1.27794
 H1585 H 1.09501 1.13638 1.29808
 H1586 H 1.10848 1.15037 1.33401
 H1587 H 1.13293 1.11950 1.24995
 H1588 H 1.08852 1.10911 1.27318
 H1589 H 1.05831 1.10398 1.24567
 H1590 H 1.04519 1.08912 1.20989
 H1591 H 1.11359 1.07996 1.18852
 H1592 H 1.12667 1.09376 1.22436
 C1593 C 1.16400 0.63866 0.80765
 C1594 C 1.15614 0.62937 0.78768
 C1595 C 1.13310 0.62803 0.78337
 C1596 C 1.11803 0.63657 0.79940
 C1597 C 1.12591 0.64588 0.81936
 C1598 C 1.14896 0.64698 0.82372
 C1599 C 1.12563 0.61851 0.76168
 C1600 C 1.10514 0.61000 0.75820
 C1601 C 1.09751 0.60086 0.73638
 C1602 C 1.07444 0.59943 0.73231
 C1603 C 1.06642 0.59107 0.71199
 C1604 C 1.08132 0.58376 0.69531
 C1605 C 1.10442 0.58482 0.69950
 C1606 C 1.11245 0.59318 0.71982
 H1607 H 1.18185 0.63966 0.81043
 H1608 H 1.16812 0.62319 0.77554
 H1609 H 1.10019 0.63660 0.79649
 H1610 H 1.11399 0.65230 0.83143
 H1611 H 1.13773 0.61853 0.74822
 H1612 H 1.09309 0.60996 0.77171
 H1613 H 1.06255 0.60497 0.74485
 H1614 H 1.04852 0.59013 0.70941
 H1615 H 1.11634 0.57942 0.68695
 H1616 H 1.13033 0.59327 0.72245
 C1617 C 0.65598 1.13014 0.81348
 C1618 C 0.64890 1.12286 0.79244
 C1619 C 0.62604 1.12139 0.78740
 C1620 C 0.61031 1.12778 0.80379
 C1621 C 0.61742 1.13510 0.82482
 C1622 C 0.64030 1.13626 0.82990
 C1623 C 0.61942 1.11392 0.76471
 C1624 C 0.59945 1.10484 0.75996
 C1625 C 0.59288 1.09733 0.73723
 C1626 C 0.57004 1.09532 0.73225
 C1627 C 0.56306 1.08824 0.71109
 C1628 C 0.57881 1.08282 0.69448
 C1629 C 0.60168 1.08453 0.69954
 C1630 C 0.60867 1.09159 0.72068
 H1631 H 0.67373 1.13128 0.81688
 H1632 H 0.66136 1.11831 0.78006
 H1633 H 0.59256 1.12764 0.80037
 H1634 H 0.60506 1.13991 0.83719
 H1635 H 0.63177 1.11582 0.75162
 H1636 H 0.58712 1.10296 0.77308
 H1637 H 0.55753 1.09936 0.74475
 H1638 H 0.54532 1.08673 0.70782
 H1639 H 0.61423 1.08058 0.68705
 H1640 H 0.62643 1.09215 0.72397
 C1641 C 0.61331 0.63922 1.32755
 C1642 C 0.60355 0.63157 1.30774
 C1643 C 0.61688 0.62441 1.28974
 C1644 C 0.64034 0.62539 1.29192
 C1645 C 0.65008 0.63302 1.31177
 C1646 C 0.63667 0.63997 1.32979
 C1647 C 0.60564 0.61683 1.26890
 C1648 C 0.61557 0.60396 1.25332
 C1649 C 0.60452 0.59652 1.23236
 C1650 C 0.61808 0.58991 1.21436
 C1651 C 0.60861 0.58223 1.19444
 C1652 C 0.58528 0.58073 1.19210
 C1653 C 0.57162 0.58738 1.21008
 C1654 C 0.58111 0.59511 1.23005
 H1655 H 0.60263 0.64452 1.34120
 H1656 H 0.58548 0.63118 1.30649
 H1657 H 0.65131 0.62086 1.27826
 H1658 H 0.66812 0.63393 1.31293
 H1659 H 0.58845 0.62204 1.26660
 H1660 H 0.63275 0.59871 1.25563
 H1661 H 0.63613 0.59078 1.21567
 H1662 H 0.61961 0.57758 1.18079
 H1663 H 0.55360 0.58607 1.20889
 H1664 H 0.57003 0.59937 1.24371
 C1665 C 0.86561 0.89188 1.33394
 C1666 C 0.87299 0.90200 1.31412
 C1667 C 0.87773 0.88887 1.29516
 C1668 C 0.87462 0.86537 1.29635
 C1669 C 0.86732 0.85531 1.31616
 C1670 C 0.86269 0.86845 1.33509
 C1671 C 0.88495 0.90025 1.27425
 C1672 C 0.89665 0.88971 1.25819
 C1673 C 0.90323 0.90014 1.23662
 C1674 C 0.90900 0.88578 1.21891
 C1675 C 0.91585 0.89452 1.19836
 C1676 C 0.91732 0.91790 1.19506
 C1677 C 0.91140 0.93239 1.21268
 C1678 C 0.90448 0.92362 1.23332
 H1679 H 0.86207 0.90229 1.34839
 H1680 H 0.87502 0.92012 1.31359
 H1681 H 0.87716 0.85469 1.28194
 H1682 H 0.86473 0.83726 1.31658
 H1683 H 0.88039 0.91779 1.27226
 H1684 H 0.90144 0.87228 1.26057
 H1685 H 0.90816 0.86765 1.22096
 H1686 H 0.91995 0.88292 1.18499
 H1687 H 0.91267 0.95048 1.21068
 H1688 H 0.90074 0.93531 1.24667
 C1689 C 0.86949 0.34397 0.81656
 C1690 C 0.87944 0.35099 0.79659
 C1691 C 0.88308 0.37396 0.79233
 C1692 C 0.87688 0.38981 0.80876
 C1693 C 0.86693 0.38274 0.82876
 C1694 C 0.86311 0.35977 0.83285
 C1695 C 0.89371 0.38044 0.77081
 C1696 C 0.89191 0.40101 0.76160
 C1697 C 0.90185 0.40724 0.73967
 C1698 C 0.90506 0.43016 0.73485
 C1699 C 0.91349 0.43696 0.71411
 C1700 C 0.91876 0.42097 0.69759
 C1701 C 0.91567 0.39801 0.70240
 C1702 C 0.90722 0.39119 0.72315
 H1703 H 0.86659 0.32617 0.81923
 H1704 H 0.88413 0.33842 0.78432
 H1705 H 0.88003 0.40759 0.80654
 H1706 H 0.86245 0.39519 0.84123
 H1707 H 0.90292 0.36740 0.76213
 H1708 H 0.88273 0.41406 0.77028
 H1709 H 0.90099 0.44288 0.74719
 H1710 H 0.91588 0.45477 0.71098
 H1711 H 0.91915 0.38534 0.68984
 H1712 H 0.90431 0.37342 0.72579
 C1713 C 0.36591 0.88497 0.82975
 C1714 C 0.37627 0.89448 0.81102
 C1715 C 0.38335 0.88087 0.79317
 C1716 C 0.38063 0.85735 0.79484
 C1717 C 0.37025 0.84786 0.81357
 C1718 C 0.36256 0.86160 0.83109
 C1719 C 0.39356 0.89184 0.77331
 C1720 C 0.39392 0.88243 0.75290
 C1721 C 0.40350 0.89351 0.73282
 C1722 C 0.41025 0.87993 0.71484
 C1723 C 0.41886 0.88955 0.69532
 C1724 C 0.42069 0.91306 0.69324
 C1725 C 0.41372 0.92674 0.71111
 C1726 C 0.40519 0.91710 0.73072
 H1727 H 0.36033 0.89586 0.84317
 H1728 H 0.37840 0.91259 0.81031
 H1729 H 0.38657 0.84614 0.78189
 H1730 H 0.36788 0.82979 0.81424
 H1731 H 0.40042 0.90851 0.77566
 H1732 H 0.38702 0.86579 0.75053
 H1733 H 0.40887 0.86176 0.71590
 H1734 H 0.42371 0.87859 0.68167
 H1735 H 0.41494 0.94491 0.70995
 H1736 H 0.39953 0.92821 0.74388
 C1737 C 0.36163 0.38299 1.32681
 C1738 C 0.37211 0.39231 1.30807
 C1739 C 0.37917 0.37854 1.29033
 C1740 C 0.37631 0.35504 1.29215
 C1741 C 0.36583 0.34574 1.31092
 C1742 C 0.35815 0.35964 1.32831
 C1743 C 0.38950 0.38932 1.27044
 C1744 C 0.38978 0.37984 1.25007
 C1745 C 0.39949 0.39077 1.22996
 C1746 C 0.40615 0.37707 1.21203
 C1747 C 0.41493 0.38656 1.19253
 C1748 C 0.41704 0.41004 1.19041
 C1749 C 0.41012 0.42383 1.20821
 C1750 C 0.40141 0.41432 1.22780
 H1751 H 0.35607 0.39401 1.34014
 H1752 H 0.37434 0.41040 1.30724
 H1753 H 0.38222 0.34372 1.27928
 H1754 H 0.36337 0.32769 1.31172
 H1755 H 0.39652 0.40594 1.27273
 H1756 H 0.38274 0.36324 1.24776
 H1757 H 0.40458 0.35891 1.21313
 H1758 H 0.41973 0.37552 1.17892
 H1759 H 0.41154 0.44198 1.20702
 H1760 H 0.39582 0.42553 1.24091
 C1761 C 0.84183 1.12929 0.68671
 C1762 C 0.84941 1.11872 0.70619
 C1763 C 0.87240 1.11607 0.71023
 C1764 C 0.88770 1.12378 0.69400
 C1765 C 0.88008 1.13436 0.67451
 C1766 C 0.85709 1.13729 0.67073
 C1767 C 0.87950 1.10495 0.73134
 C1768 C 0.89986 1.10740 0.74044
 C1769 C 0.90659 1.09709 0.76206
 C1770 C 0.92946 1.09420 0.76650
 C1771 C 0.93665 1.08547 0.78701
 C1772 C 0.92110 1.07959 0.80365
 C1773 C 0.89819 1.08239 0.79922
 C1774 C 0.89098 1.09112 0.77870
 H1775 H 0.82402 1.13144 0.68418
 H1776 H 0.83726 1.11283 0.71831
 H1777 H 0.90551 1.12141 0.69600
 H1778 H 0.89210 1.14010 0.66221
 H1779 H 0.86711 1.09484 0.73986
 H1780 H 0.91234 1.11742 0.73194
 H1781 H 0.94183 1.09876 0.75405
 H1782 H 0.95441 1.08332 0.78986
 H1783 H 0.88583 1.07848 0.81189
 H1784 H 0.87325 1.09380 0.77633
 C1785 C 0.86382 0.66031 0.18864
 C1786 C 0.87505 0.65346 0.20800
 C1787 C 0.87929 0.63054 0.21210
 C1788 C 0.87240 0.61458 0.19609
 C1789 C 0.86113 0.62147 0.17674
 C1790 C 0.85670 0.64438 0.17285
 C1791 C 0.89120 0.62420 0.23301
 C1792 C 0.89032 0.60357 0.24221
 C1793 C 0.90139 0.59730 0.26358
 C1794 C 0.90470 0.57435 0.26825
 C1795 C 0.91378 0.56742 0.28867
 C1796 C 0.91964 0.58331 0.30503
 C1797 C 0.91671 0.60633 0.30030
 C1798 C 0.90759 0.61329 0.27984
 H1799 H 0.86052 0.67807 0.18604
 H1800 H 0.88026 0.66612 0.21993
 H1801 H 0.87598 0.59684 0.19811
 H1802 H 0.85613 0.60895 0.16459
 H1803 H 0.90055 0.63736 0.24125
 H1804 H 0.88093 0.59044 0.23397
 H1805 H 0.90006 0.56167 0.25609
 H1806 H 0.91607 0.54957 0.29173
 H1807 H 0.92071 0.61893 0.31274
 H1808 H 0.90476 0.63110 0.27731
 C1809 C 0.35742 1.10980 0.16969
 C1810 C 0.36416 1.09974 0.18974
 C1811 C 0.37431 1.11259 0.20652
 C1812 C 0.37736 1.13583 0.20304
 C1813 C 0.37030 1.14598 0.18311
 C1814 C 0.36025 1.13308 0.16618
 C1815 C 0.38061 1.10154 0.22782
 C1816 C 0.39832 1.10800 0.23987
 C1817 C 0.40467 1.09720 0.26127
 C1818 C 0.42727 1.09679 0.26743
 C1819 C 0.43380 1.08786 0.28805
 C1820 C 0.41779 1.07961 0.30325
 C1821 C 0.39514 1.07979 0.29694
 C1822 C 0.38863 1.08846 0.27614
 H1823 H 0.34979 1.09941 0.15695
 H1824 H 0.36153 1.08184 0.19211
 H1825 H 0.38456 1.14632 0.21595
 H1826 H 0.37221 1.16400 0.18115
 H1827 H 0.37102 1.08700 0.23307
 H1828 H 0.40923 1.12102 0.23338
 H1829 H 0.43991 1.10343 0.25625
 H1830 H 0.45143 1.08759 0.29216
 H1831 H 0.38234 1.07395 0.30838
 H1832 H 0.37100 1.08905 0.27211
 C1833 C 0.33996 0.63547 0.68709
 C1834 C 0.34717 0.62659 0.70754
 C1835 C 0.37007 0.62390 0.71207
 C1836 C 0.38568 0.63061 0.69571
 C1837 C 0.37844 0.63947 0.67526
 C1838 C 0.35553 0.64199 0.67072
 C1839 C 0.37686 0.61499 0.73431
 C1840 C 0.39698 0.60581 0.73855
 C1841 C 0.40394 0.59748 0.76093
 C1842 C 0.42689 0.59580 0.76565
 C1843 C 0.43429 0.58815 0.78652
 C1844 C 0.41888 0.58178 0.80310
 C1845 C 0.39591 0.58307 0.79829
 C1846 C 0.38849 0.59077 0.77743
 H1847 H 0.32221 0.63758 0.68416
 H1848 H 0.33479 0.62183 0.71991
 H1849 H 0.40347 0.62959 0.69869
 H1850 H 0.39077 0.64449 0.66296
 H1851 H 0.36460 0.61613 0.74757
 H1852 H 0.40926 0.60467 0.72531
 H1853 H 0.43915 0.60061 0.75319
 H1854 H 0.45210 0.58700 0.78959
 H1855 H 0.38362 0.57835 0.81076
 H1856 H 0.37069 0.59108 0.77431
 C1857 C 1.16758 0.85900 0.69646
 C1858 C 1.15991 0.86845 0.71647
 C1859 C 1.13690 0.86999 0.72099
 C1860 C 1.12169 0.86151 0.70514
 C1861 C 1.12939 0.85204 0.68515
 C1862 C 1.15240 0.85071 0.68057
 C1863 C 1.12960 0.87960 0.74274
 C1864 C 1.10919 0.88843 0.74629
 C1865 C 1.10156 0.89760 0.76813
 C1866 C 1.07848 0.89992 0.77189
 C1867 C 1.07040 0.90835 0.79218
 C1868 C 1.08525 0.91485 0.80919
 C1869 C 1.10837 0.91287 0.80534
 C1870 C 1.11646 0.90444 0.78505
 H1871 H 1.18541 0.85785 0.69352
 H1872 H 1.17200 0.87458 0.72848
 H1873 H 1.10388 0.86163 0.70822
 H1874 H 1.11735 0.84567 0.67323
 H1875 H 1.14174 0.87936 0.75614
 H1876 H 1.09719 0.88874 0.73276
 H1877 H 1.06662 0.89503 0.75911
 H1878 H 1.05251 0.91001 0.79448
 H1879 H 1.12025 0.91762 0.81815
 H1880 H 1.13436 0.90363 0.78272
 C1881 C 1.14642 0.38419 0.17628
 C1882 C 1.13843 0.39484 0.19554
 C1883 C 1.12712 0.38251 0.21205
 C1884 C 1.12416 0.35920 0.20908
 C1885 C 1.13246 0.34848 0.18998
 C1886 C 1.14373 0.36084 0.17336
 C1887 C 1.11967 0.39412 0.23264
 C1888 C 1.10141 0.38793 0.24406
 C1889 C 1.09419 0.39913 0.26497
 C1890 C 1.07136 0.39980 0.27024
 C1891 C 1.06404 0.40925 0.29036
 C1892 C 1.07947 0.41779 0.30594
 C1893 C 1.10238 0.41719 0.30057
 C1894 C 1.10967 0.40802 0.28029
 H1895 H 1.15493 0.39415 0.16371
 H1896 H 1.14102 0.41278 0.19752
 H1897 H 1.11607 0.34909 0.22181
 H1898 H 1.13053 0.33042 0.18841
 H1899 H 1.12901 0.40878 0.23796
 H1900 H 1.09079 0.37477 0.23744
 H1901 H 1.05914 0.39301 0.25871
 H1902 H 1.04626 0.40977 0.29372
 H1903 H 1.11476 0.42316 0.31234
 H1904 H 1.12745 0.40719 0.27700
 C1905 C 0.61670 0.85914 0.17127
 C1906 C 0.60654 0.86744 0.19064
 C1907 C 0.61947 0.87391 0.20913
 C1908 C 0.64292 0.87181 0.20781
 C1909 C 0.65308 0.86348 0.18839
 C1910 C 0.64006 0.85696 0.16997
 C1911 C 0.60775 0.88169 0.22966
 C1912 C 0.61746 0.89419 0.24560
 C1913 C 0.60606 0.90172 0.26640
 C1914 C 0.61936 0.90902 0.28430
 C1915 C 0.60961 0.91677 0.30408
 C1916 C 0.58624 0.91760 0.30643
 C1917 C 0.57283 0.91020 0.28863
 C1918 C 0.58259 0.90244 0.26876
 H1919 H 0.60630 0.85421 0.15730
 H1920 H 0.58848 0.86874 0.19121
 H1921 H 0.65353 0.87584 0.22188
 H1922 H 0.67108 0.86151 0.18798
 H1923 H 0.59041 0.87688 0.23140
 H1924 H 0.63476 0.89910 0.24366
 H1925 H 0.63743 0.90867 0.28300
 H1926 H 0.62042 0.92204 0.31763
 H1927 H 0.55478 0.91096 0.28986
 H1928 H 0.57162 0.89762 0.25524
 C1929 C 0.63589 0.38694 0.66685
 C1930 C 0.62693 0.39686 0.68610
 C1931 C 0.62108 0.38360 0.70469
 C1932 C 0.62375 0.36006 0.70333
 C1933 C 0.63276 0.35018 0.68414
 C1934 C 0.63908 0.36351 0.66577
 C1935 C 0.61177 0.39481 0.72485
 C1936 C 0.61247 0.38555 0.74536
 C1937 C 0.60273 0.39615 0.76560
 C1938 C 0.59697 0.38218 0.78365
 C1939 C 0.58789 0.39125 0.80318
 C1940 C 0.58458 0.41459 0.80522
 C1941 C 0.59068 0.42870 0.78733
 C1942 C 0.59966 0.41959 0.76767
 H1943 H 0.64036 0.39752 0.65277
 H1944 H 0.62476 0.41499 0.68656
 H1945 H 0.61866 0.34907 0.71685
 H1946 H 0.63497 0.33207 0.68370
 H1947 H 0.60431 0.41128 0.72256
 H1948 H 0.62010 0.36916 0.74764
 H1949 H 0.59940 0.36411 0.78259
 H1950 H 0.58374 0.38001 0.81686
 H1951 H 0.58834 0.44676 0.78849
 H1952 H 0.60449 0.43101 0.75441
 C1953 C 1.33102 1.12838 1.11383
 C1954 C 1.31145 1.11938 1.10472
 C1955 C 1.29193 1.11782 1.11769
 C1956 C 1.29240 1.12511 1.14008
 C1957 C 1.31203 1.13378 1.14924
 C1958 C 1.33147 1.13542 1.13620
 C1959 C 1.27164 1.10769 1.10786
 C1960 C 1.25099 1.11432 1.11358
 C1961 C 1.23064 1.10420 1.10390
 C1962 C 1.21170 1.11781 1.10068
 C1963 C 1.19210 1.10871 1.09184
 C1964 C 1.19093 1.08569 1.08658
 C1965 C 1.20971 1.07193 1.09022
 C1966 C 1.22948 1.08113 1.09868
 H1967 H 1.34596 1.12943 1.10364
 H1968 H 1.31151 1.11370 1.08750
 H1969 H 1.27780 1.12360 1.15069
 H1970 H 1.31220 1.13910 1.16657
 H1971 H 1.27383 1.09520 1.09482
 H1972 H 1.24884 1.12845 1.12484
 H1973 H 1.21215 1.13557 1.10482
 H1974 H 1.17771 1.11957 1.08938
 H1975 H 1.20912 1.05412 1.08633
 H1976 H 1.24366 1.07011 1.10152
 C1977 C 1.31321 0.65870 0.62874
 C1978 C 1.29384 0.65085 0.61835
 C1979 C 1.28908 0.62771 0.61765
 C1980 C 1.30457 0.61247 0.62709
 C1981 C 1.32397 0.62036 0.63749
 C1982 C 1.32839 0.64356 0.63860
 C1983 C 1.26799 0.62039 0.60677
 C1984 C 1.25825 0.60036 0.61045
 C1985 C 1.23661 0.59362 0.60033
 C1986 C 1.23161 0.57059 0.59873
 C1987 C 1.21109 0.56345 0.59014
 C1988 C 1.19497 0.57923 0.58311
 C1989 C 1.19994 0.60230 0.58470
 C1990 C 1.22048 0.60945 0.59327
 H1991 H 1.31619 0.67668 0.62939
 H1992 H 1.28233 0.66296 0.61109
 H1993 H 1.30205 0.59447 0.62627
 H1994 H 1.33565 0.60835 0.64460
 H1995 H 1.25999 0.63241 0.59571
 H1996 H 1.26621 0.58819 0.62135
 H1997 H 1.24365 0.55804 0.60416
 H1998 H 1.20786 0.54555 0.58893
 H1999 H 1.18768 0.61487 0.57990
 H2000 H 1.22327 0.62735 0.59495
 C2001 C 0.82851 1.11590 0.63534
 C2002 C 0.80966 1.10689 0.62491
 C2003 C 0.79210 1.12095 0.61787
 C2004 C 0.79420 1.14441 0.62070
 C2005 C 0.81308 1.15341 0.63112
 C2006 C 0.83029 1.13923 0.63878
 C2007 C 0.77209 1.11047 0.60759
 C2008 C 0.75181 1.12022 0.60747
 C2009 C 0.73153 1.10952 0.59800
 C2010 C 0.71354 1.12339 0.59174
 C2011 C 0.69387 1.11410 0.58326
 C2012 C 0.69165 1.09064 0.58103
 C2013 C 0.70954 1.07669 0.58751
 C2014 C 0.72927 1.08599 0.59593
 H2015 H 0.84169 1.10467 0.64090
 H2016 H 0.80861 1.08881 0.62270
 H2017 H 0.78145 1.15593 0.61481
 H2018 H 0.81412 1.17146 0.63356
 H2019 H 0.77421 1.09383 0.60054
 H2020 H 0.74969 1.13685 0.61456
 H2021 H 0.71472 1.14152 0.59342
 H2022 H 0.68023 1.12527 0.57879
 H2023 H 0.70830 1.05855 0.58596
 H2024 H 0.74242 1.07463 0.60121
 C2025 C 0.80961 0.63176 1.16025
 C2026 C 0.79042 0.62078 1.15265
 C2027 C 0.78684 0.61743 1.12967
 C2028 C 0.80332 0.62468 1.11443
 C2029 C 0.82251 0.63566 1.12205
 C2030 C 0.82575 0.63949 1.14500
 C2031 C 0.76592 0.60619 1.12241
 C2032 C 0.75704 0.60866 1.10191
 C2033 C 0.73564 0.59829 1.09475
 C2034 C 0.73134 0.59631 1.07174
 C2035 C 0.71107 0.58756 1.06410
 C2036 C 0.69451 0.58071 1.07934
 C2037 C 0.69878 0.58261 1.10238
 C2038 C 0.71907 0.59137 1.11004
 H2039 H 0.81169 0.63458 1.17802
 H2040 H 0.77812 0.61521 1.16476
 H2041 H 0.80171 0.62171 1.09666
 H2042 H 0.83493 0.64112 1.11003
 H2043 H 0.75736 0.59607 1.13479
 H2044 H 0.76561 0.61885 1.08959
 H2045 H 0.74372 0.60160 1.05959
 H2046 H 0.70836 0.58612 1.04625
 H2047 H 0.68617 0.57792 1.11452
 H2048 H 0.72130 0.59327 1.12788
 C2049 C 1.31482 0.87153 0.84325
 C2050 C 1.29532 0.88168 0.85126
 C2051 C 1.29118 0.88313 0.87434
 C2052 C 1.30735 0.87466 0.88934
 C2053 C 1.32688 0.86451 0.88129
 C2054 C 1.33075 0.86276 0.85819
 C2055 C 1.27002 0.89379 0.88189
 C2056 C 1.26077 0.89019 0.90204
 C2057 C 1.23909 0.90012 0.90905
 C2058 C 1.23451 0.90217 0.93200
 C2059 C 1.21400 0.91075 0.93935
 C2060 C 1.19752 0.91730 0.92388
 C2061 C 1.20204 0.91517 0.90090
 C2062 C 1.22254 0.90660 0.89354
 H2063 H 1.31740 0.87026 0.82536
 H2064 H 1.28324 0.88817 0.83934
 H2065 H 1.30525 0.87609 0.90725
 H2066 H 1.33911 0.85814 0.89309
 H2067 H 1.26157 0.90458 0.86995
 H2068 H 1.26920 0.87955 0.91411
 H2069 H 1.24688 0.89716 0.94429
 H2070 H 1.21106 0.91234 0.95717
 H2071 H 1.18947 0.91956 0.88859
 H2072 H 1.22500 0.90450 0.87574
 C2073 C 1.31036 0.36981 0.34015
 C2074 C 1.29093 0.38027 0.34799
 C2075 C 1.28687 0.38223 0.37105
 C2076 C 1.30301 0.37395 0.38618
 C2077 C 1.32244 0.36348 0.37831
 C2078 C 1.32625 0.36123 0.35524
 C2079 C 1.26581 0.39322 0.37843
 C2080 C 1.25665 0.39015 0.39871
 C2081 C 1.23510 0.40041 0.40567
 C2082 C 1.23068 0.40279 0.42862
 C2083 C 1.21027 0.41155 0.43599
 C2084 C 1.19371 0.41796 0.42055
 C2085 C 1.19809 0.41559 0.39757
 C2086 C 1.21852 0.40684 0.39018
 H2087 H 1.31290 0.36817 0.32229
 H2088 H 1.27888 0.38660 0.33597
 H2089 H 1.30098 0.37578 0.40406
 H2090 H 1.33466 0.35728 0.39020
 H2091 H 1.25738 0.40381 0.36631
 H2092 H 1.26505 0.37967 0.41093
 H2093 H 1.24310 0.39785 0.44090
 H2094 H 1.20745 0.41336 0.45381
 H2095 H 1.18546 0.41991 0.38530
 H2096 H 1.22087 0.40454 0.37239
 C2097 C 0.83120 0.86446 0.38911
 C2098 C 0.81147 0.87196 0.39926
 C2099 C 0.79463 0.88225 0.38648
 C2100 C 0.79767 0.88459 0.36327
 C2101 C 0.81722 0.87679 0.35308
 C2102 C 0.83425 0.86665 0.36586
 C2103 C 0.77359 0.88929 0.39748
 C2104 C 0.76159 0.90704 0.39045
 C2105 C 0.73996 0.91352 0.40059
 C2106 C 0.73352 0.93625 0.40043
 C2107 C 0.71270 0.94279 0.40888
 C2108 C 0.69765 0.92665 0.41723
 C2109 C 0.70415 0.90384 0.41731
 C2110 C 0.72510 0.89735 0.40916
 H2111 H 0.84406 0.85681 0.39939
 H2112 H 0.80940 0.86983 0.41715
 H2113 H 0.78469 0.89181 0.35284
 H2114 H 0.81882 0.87829 0.33509
 H2115 H 0.76829 0.88002 0.41218
 H2116 H 0.76811 0.91768 0.37724
 H2117 H 0.74466 0.94899 0.39381
 H2118 H 0.70842 0.96053 0.40887
 H2119 H 0.69282 0.89089 0.42310
 H2120 H 0.72931 0.87960 0.40888
 C2121 C 0.83228 0.36777 0.88598
 C2122 C 0.81317 0.37770 0.89517
 C2123 C 0.79533 0.38434 0.88140
 C2124 C 0.79746 0.38187 0.85804
 C2125 C 0.81660 0.37195 0.84886
 C2126 C 0.83402 0.36447 0.86278
 C2127 C 0.77489 0.39367 0.89203
 C2128 C 0.75459 0.39262 0.88255
 C2129 C 0.73392 0.40120 0.89330
 C2130 C 0.71577 0.40700 0.87957
 C2131 C 0.69582 0.41488 0.88887
 C2132 C 0.69348 0.41691 0.91218
 C2133 C 0.71146 0.41070 0.92601
 C2134 C 0.73151 0.40292 0.91669
 H2135 H 0.84562 0.36232 0.89699
 H2136 H 0.81210 0.37969 0.91316
 H2137 H 0.78447 0.38754 0.84677
 H2138 H 0.81761 0.36961 0.83092
 H2139 H 0.77670 0.40092 0.90853
 H2140 H 0.75279 0.38531 0.86608
 H2141 H 0.71707 0.40554 0.86154
 H2142 H 0.68209 0.41915 0.87782
 H2143 H 0.71007 0.41206 0.94403
 H2144 H 0.74484 0.39792 0.92789
 C2145 C 0.68776 0.83961 1.13437
 C2146 C 0.70824 0.84725 1.12611
 C2147 C 0.71286 0.87039 1.12486
 C2148 C 0.69658 0.88581 1.13247
 C2149 C 0.67609 0.87813 1.14083
 C2150 C 0.67146 0.85495 1.14184
 C2151 C 0.73506 0.87751 1.11625
 C2152 C 0.73925 0.89794 1.10754
 C2153 C 0.76150 0.90490 1.09883
 C2154 C 0.76615 0.92799 1.09689
 C2155 C 0.78686 0.93537 1.08887
 C2156 C 0.80339 0.91979 1.08242
 C2157 C 0.79862 0.89666 1.08396
 C2158 C 0.77791 0.88927 1.09198
 H2159 H 0.68473 0.82165 1.13517
 H2160 H 0.72051 0.83500 1.12057
 H2161 H 0.69968 0.90375 1.13243
 H2162 H 0.66379 0.89027 1.14649
 H2163 H 0.74827 0.86505 1.11695
 H2164 H 0.72601 0.91039 1.10689
 H2165 H 0.75377 0.94041 1.10175
 H2166 H 0.78986 0.95331 1.08753
 H2167 H 0.81102 0.88422 1.07923
 H2168 H 0.77487 0.87134 1.09244
 C2169 C 0.67081 0.36117 0.61193
 C2170 C 0.69016 0.36914 0.60153
 C2171 C 0.70689 0.37971 0.61409
 C2172 C 0.70398 0.38211 0.63733
 C2173 C 0.68478 0.37383 0.64778
 C2174 C 0.66802 0.36315 0.63522
 C2175 C 0.72773 0.38676 0.60280
 C2176 C 0.73976 0.40447 0.60955
 C2177 C 0.76113 0.41090 0.59892
 C2178 C 0.76736 0.43364 0.59864
 C2179 C 0.78798 0.44014 0.58980
 C2180 C 0.80308 0.42394 0.58150
 C2181 C 0.79674 0.40114 0.58170
 C2182 C 0.77597 0.39468 0.59026
 H2183 H 0.65812 0.35311 0.60184
 H2184 H 0.69210 0.36700 0.58363
 H2185 H 0.71688 0.38961 0.64757
 H2186 H 0.68330 0.37518 0.66579
 H2187 H 0.73286 0.37749 0.58805
 H2188 H 0.73342 0.41514 0.62283
 H2189 H 0.75621 0.44641 0.60528
 H2190 H 0.79212 0.45789 0.58955
 H2191 H 0.80811 0.38817 0.57590
 H2192 H 0.77190 0.37693 0.59082
 C2193 C 0.19557 0.83397 0.63954
 C2194 C 0.21419 0.84207 0.62800
 C2195 C 0.21752 0.86531 0.62527
 C2196 C 0.20149 0.88035 0.63410
 C2197 C 0.18283 0.87220 0.64567
 C2198 C 0.17972 0.84893 0.64854
 C2199 C 0.23765 0.87289 0.61284
 C2200 C 0.24636 0.89364 0.61448
 C2201 C 0.26713 0.90077 0.60288
 C2202 C 0.27099 0.92390 0.59993
 C2203 C 0.29085 0.93153 0.59025
 C2204 C 0.30743 0.91617 0.58344
 C2205 C 0.30352 0.89300 0.58611
 C2206 C 0.28365 0.88535 0.59581
 H2207 H 0.19359 0.81595 0.64158
 H2208 H 0.22615 0.83010 0.62131
 H2209 H 0.20295 0.89835 0.63179
 H2210 H 0.17061 0.88402 0.65211
 H2211 H 0.24580 0.86050 0.60236
 H2212 H 0.23820 0.90612 0.62483
 H2213 H 0.25863 0.93615 0.60527
 H2214 H 0.29330 0.94949 0.58821
 H2215 H 0.31619 0.88080 0.58144
 H2216 H 0.28177 0.86743 0.59842
 C2217 C 0.19247 0.36104 1.15998
 C2218 C 0.21305 0.36835 1.15168
 C2219 C 0.21619 0.37177 1.12864
 C2220 C 0.19837 0.36713 1.11394
 C2221 C 0.17777 0.35979 1.12228
 C2222 C 0.17459 0.35687 1.14538
 C2223 C 0.23837 0.37973 1.12080
 C2224 C 0.24183 0.38996 1.10105
 C2225 C 0.26402 0.39837 1.09375
 C2226 C 0.26821 0.40088 1.07076
 C2227 C 0.28884 0.40889 1.06317
 C2228 C 0.30566 0.41482 1.07846
 C2229 C 0.30136 0.41266 1.10149
 C2230 C 0.28077 0.40460 1.10907
 H2231 H 0.19046 0.35858 1.17783
 H2232 H 0.22652 0.37153 1.16336
 H2233 H 0.20024 0.36880 1.09602
 H2234 H 0.16422 0.35650 1.11074
 H2235 H 0.25225 0.37736 1.13217
 H2236 H 0.22809 0.39223 1.08950
 H2237 H 0.25551 0.39649 1.05861
 H2238 H 0.29154 0.41069 1.04534
 H2239 H 0.31403 0.41699 1.11367
 H2240 H 0.27800 0.40368 1.12693
 C2241 C 0.66919 1.11037 0.86242
 C2242 C 0.68821 1.10043 0.87185
 C2243 C 0.70502 1.11380 0.88134
 C2244 C 0.70192 1.13731 0.88219
 C2245 C 0.68289 1.14723 0.87282
 C2246 C 0.66650 1.13389 0.86252
 C2247 C 0.72539 1.10270 0.89030
 C2248 C 0.74532 1.11300 0.89101
 C2249 C 0.76612 1.10244 0.89965
 C2250 C 0.78387 1.11660 0.90566
 C2251 C 0.80390 1.10765 0.91375
 C2252 C 0.80674 1.08424 0.91589
 C2253 C 0.78917 1.06996 0.90953
 C2254 C 0.76905 1.07893 0.90147
 H2255 H 0.65663 1.09973 0.85484
 H2256 H 0.69004 1.08227 0.87128
 H2257 H 0.71407 1.14813 0.89013
 H2258 H 0.68117 1.16539 0.87319
 H2259 H 0.72380 1.08541 0.89578
 H2260 H 0.74667 1.13020 0.88512
 H2261 H 0.78220 1.13473 0.90418
 H2262 H 0.81729 1.11907 0.91810
 H2263 H 0.79091 1.05185 0.91100
 H2264 H 0.75610 1.06735 0.89642
 C2265 C 0.66917 0.61459 0.35932
 C2266 C 0.68845 0.60463 0.36823
 C2267 C 0.70553 0.61794 0.37735
 C2268 C 0.70261 0.64150 0.37794
 C2269 C 0.68335 0.65143 0.36904
 C2270 C 0.66648 0.63812 0.35949
 C2271 C 0.72573 0.60667 0.38662
 C2272 C 0.74561 0.61696 0.38862
 C2273 C 0.76599 0.60622 0.39811
 C2274 C 0.78344 0.62024 0.40526
 C2275 C 0.80311 0.61111 0.41409
 C2276 C 0.80591 0.58766 0.41584
 C2277 C 0.78859 0.57355 0.40846
 C2278 C 0.76884 0.58269 0.39966
 H2279 H 0.65627 0.60393 0.35237
 H2280 H 0.69011 0.58645 0.36783
 H2281 H 0.71492 0.65237 0.38555
 H2282 H 0.68169 0.66959 0.36948
 H2283 H 0.72399 0.58924 0.39162
 H2284 H 0.74723 0.63432 0.38330
 H2285 H 0.78184 0.63839 0.40406
 H2286 H 0.81630 0.62244 0.41921
 H2287 H 0.79026 0.55541 0.40962
 H2288 H 0.75615 0.57120 0.39381
 C2289 C 0.17033 1.11788 0.36021
 C2290 C 0.18864 1.10691 0.36991
 C2291 C 0.20642 1.11934 0.37887
 C2292 C 0.20500 1.14303 0.37894
 C2293 C 0.18669 1.15398 0.36927
 C2294 C 0.16936 1.14153 0.35945
 C2295 C 0.22604 1.10711 0.38807
 C2296 C 0.24662 1.11603 0.38845
 C2297 C 0.26660 1.10438 0.39757
 C2298 C 0.28487 1.11759 0.40408
 C2299 C 0.30414 1.10758 0.41277
 C2300 C 0.30568 1.08406 0.41498
 C2301 C 0.28763 1.07071 0.40799
 C2302 C 0.26823 1.08076 0.39938
 H2303 H 0.15701 1.10793 0.35301
 H2304 H 0.18916 1.08866 0.36996
 H2305 H 0.21793 1.15322 0.38648
 H2306 H 0.18630 1.17222 0.36899
 H2307 H 0.22334 1.09014 0.39409
 H2308 H 0.24913 1.13293 0.38209
 H2309 H 0.28419 1.13578 0.40260
 H2310 H 0.31796 1.11827 0.41761
 H2311 H 0.28843 1.05254 0.40946
 H2312 H 0.25481 1.06992 0.39391
 C2313 C 0.19250 0.66297 0.86449
 C2314 C 0.21127 0.65457 0.87563
 C2315 C 0.21464 0.63127 0.87790
 C2316 C 0.19848 0.61647 0.86914
 C2317 C 0.17965 0.62492 0.85801
 C2318 C 0.17652 0.64825 0.85550
 C2319 C 0.23499 0.62337 0.88979
 C2320 C 0.24387 0.60273 0.88736
 C2321 C 0.26494 0.59542 0.89834
 C2322 C 0.26905 0.57226 0.90088
 C2323 C 0.28912 0.56457 0.91016
 C2324 C 0.30563 0.57989 0.91697
 C2325 C 0.30151 0.60308 0.91456
 C2326 C 0.28145 0.61079 0.90526
 H2327 H 0.19053 0.68103 0.86273
 H2328 H 0.22335 0.66635 0.88229
 H2329 H 0.20000 0.59842 0.87113
 H2330 H 0.16734 0.61327 0.85157
 H2331 H 0.24320 0.63547 0.90049
 H2332 H 0.23564 0.59051 0.87681
 H2333 H 0.25670 0.56006 0.89559
 H2334 H 0.29175 0.54659 0.91196
 H2335 H 0.31412 0.61527 0.91919
 H2336 H 0.27938 0.62874 0.90290
 C2337 C 1.11885 1.33052 1.14095
 C2338 C 1.10817 1.31180 1.13166
 C2339 C 1.12048 1.29264 1.12537
 C2340 C 1.14389 1.29288 1.12801
 C2341 C 1.15453 1.31155 1.13735
 C2342 C 1.14213 1.33051 1.14405
 C2343 C 1.10843 1.27311 1.11562
 C2344 C 1.11678 1.25208 1.11537
 C2345 C 1.10526 1.23252 1.10519
 C2346 C 1.11827 1.21400 1.09852
 C2347 C 1.10832 1.19504 1.08904
 C2348 C 1.08503 1.19403 1.08619
 C2349 C 1.07188 1.21239 1.09318
 C2350 C 1.08187 1.23148 1.10256
 H2351 H 1.10897 1.34507 1.14570
 H2352 H 1.09018 1.31222 1.12955
 H2353 H 1.15420 1.27891 1.12264
 H2354 H 1.17251 1.31116 1.13948
 H2355 H 1.09206 1.27635 1.10860
 H2356 H 1.13308 1.24882 1.12252
 H2357 H 1.13627 1.21423 1.10058
 H2358 H 1.11885 1.18098 1.08422
 H2359 H 1.05388 1.21203 1.09123
 H2360 H 1.07117 1.24510 1.10808
 C2361 C 1.14656 0.80161 0.66530
 C2362 C 1.13744 0.78184 0.65657
 C2363 C 1.13049 0.78093 0.63415
 C2364 C 1.13297 0.80013 0.62053
 C2365 C 1.14242 0.81976 0.62920
 C2366 C 1.14933 0.82061 0.65161
 C2367 C 1.12202 0.75942 0.62510
 C2368 C 1.10671 0.75839 0.60879
 C2369 C 1.09870 0.73673 0.59969
 C2370 C 1.07629 0.73472 0.59309
 C2371 C 1.06829 0.71434 0.58461
 C2372 C 1.08275 0.69584 0.58203
 C2373 C 1.10532 0.69803 0.58807
 C2374 C 1.11322 0.71825 0.59694
 H2375 H 1.15205 0.80195 0.68256
 H2376 H 1.13587 0.76719 0.66729
 H2377 H 1.12831 0.79978 0.60304
 H2378 H 1.14461 0.83427 0.61841
 H2379 H 1.12798 0.74396 0.63277
 H2380 H 1.09894 0.77373 0.60270
 H2381 H 1.06489 0.74883 0.59486
 H2382 H 1.05085 0.71304 0.57990
 H2383 H 1.11674 0.68395 0.58624
 H2384 H 1.13072 0.71951 0.60137
 C2385 C 0.65537 1.31402 0.63394
 C2386 C 0.64739 1.29335 0.62630
 C2387 C 0.62442 1.29002 0.62288
 C2388 C 0.60946 1.30771 0.62784
 C2389 C 0.61748 1.32841 0.63553
 C2390 C 0.64050 1.33178 0.63845
 C2391 C 0.61693 1.26776 0.61462
 C2392 C 0.59737 1.26431 0.60420
 C2393 C 0.59046 1.24199 0.59559
 C2394 C 0.56757 1.23740 0.59328
 C2395 C 0.56039 1.21652 0.58530
 C2396 C 0.57600 1.19987 0.57921
 C2397 C 0.59892 1.20462 0.58108
 C2398 C 0.60610 1.22547 0.58909
 H2399 H 0.67317 1.31619 0.63642
 H2400 H 0.65924 1.27995 0.62287
 H2401 H 0.59159 1.30565 0.62618
 H2402 H 0.60577 1.34188 0.63911
 H2403 H 0.62838 1.25380 0.61692
 H2404 H 0.58571 1.27810 0.60201
 H2405 H 0.55521 1.24994 0.59787
 H2406 H 0.54262 1.21344 0.58371
 H2407 H 0.61133 1.19210 0.57659
 H2408 H 0.62388 1.22860 0.58984
 C2409 C 0.63455 0.82756 1.11761
 C2410 C 0.62414 0.80885 1.10800
 C2411 C 0.61956 0.78966 1.12096
 C2412 C 0.62502 0.78969 1.14385
 C2413 C 0.63504 0.80854 1.15351
 C2414 C 0.63997 0.82754 1.14044
 C2415 C 0.60862 0.77005 1.11043
 C2416 C 0.61368 0.74883 1.11621
 C2417 C 0.60326 0.72906 1.10549
 C2418 C 0.61611 0.70954 1.10229
 C2419 C 0.60669 0.69045 1.09249
 C2420 C 0.58406 0.69038 1.08626
 C2421 C 0.57102 0.70975 1.08984
 C2422 C 0.58059 0.72903 1.09921
 H2423 H 0.63814 0.84218 1.10737
 H2424 H 0.61991 0.80924 1.09038
 H2425 H 0.62121 0.77533 1.15437
 H2426 H 0.63910 0.80833 1.17117
 H2427 H 0.59716 0.77316 1.09672
 H2428 H 0.62691 0.74573 1.12823
 H2429 H 0.63355 0.70914 1.10721
 H2430 H 0.61696 0.67559 1.09008
 H2431 H 0.55351 0.70997 1.08522
 H2432 H 0.57016 0.74371 1.10197
 C2433 C 0.84511 1.31613 0.87222
 C2434 C 0.85247 1.29624 0.88234
 C2435 C 0.87541 1.29171 0.88459
 C2436 C 0.89091 1.30785 0.87701
 C2437 C 0.88351 1.32778 0.86690
 C2438 C 0.86056 1.33204 0.86431
 C2439 C 0.88229 1.27014 0.89509
 C2440 C 0.90224 1.26036 0.89165
 C2441 C 0.90862 1.23822 0.90126
 C2442 C 0.93142 1.23297 0.90340
 C2443 C 0.93821 1.21200 0.91163
 C2444 C 0.92231 1.19572 0.91773
 C2445 C 0.89948 1.20091 0.91557
 C2446 C 0.89268 1.22189 0.90734
 H2447 H 0.82733 1.31902 0.87030
 H2448 H 0.84019 1.28418 0.88815
 H2449 H 0.90870 1.30542 0.87911
 H2450 H 0.89567 1.34001 0.86122
 H2451 H 0.87002 1.26181 0.90551
 H2452 H 0.91458 1.26867 0.88132
 H2453 H 0.94403 1.24517 0.89870
 H2454 H 0.95592 1.20853 0.91329
 H2455 H 0.88687 1.18852 0.91966
 H2456 H 0.87497 1.22488 0.90518
 C2457 C 0.88784 0.83567 0.36473
 C2458 C 0.89783 0.81550 0.37166
 C2459 C 0.88469 0.79669 0.37707
 C2460 C 0.86127 0.79837 0.37498
 C2461 C 0.85132 0.81854 0.36810
 C2462 C 0.86449 0.83739 0.36302
 C2463 C 0.89603 0.77554 0.38407
 C2464 C 0.88589 0.75940 0.39610
 C2465 C 0.89672 0.73797 0.40300
 C2466 C 0.88290 0.71990 0.40906
 C2467 C 0.89208 0.69955 0.41636
 C2468 C 0.91536 0.69681 0.41801
 C2469 C 0.92929 0.71480 0.41180
 C2470 C 0.92009 0.73523 0.40444
 H2471 H 0.89829 0.84998 0.36072
 H2472 H 0.91589 0.81462 0.37288
 H2473 H 0.85052 0.78408 0.37805
 H2474 H 0.83332 0.81935 0.36631
 H2475 H 0.91334 0.77350 0.37923
 H2476 H 0.86865 0.76166 0.40109
 H2477 H 0.86487 0.72152 0.40811
 H2478 H 0.88090 0.68588 0.42068
 H2479 H 0.94729 0.71326 0.41321
 H2480 H 0.93136 0.74889 0.40054
 C2481 C 0.33771 1.31263 0.36291
 C2482 C 0.34465 1.29223 0.37236
 C2483 C 0.36740 1.28796 0.37635
 C2484 C 0.38318 1.30448 0.37029
 C2485 C 0.37621 1.32489 0.36080
 C2486 C 0.35341 1.32918 0.35706
 C2487 C 0.37390 1.26580 0.38594
 C2488 C 0.39333 1.26196 0.39655
 C2489 C 0.40001 1.23956 0.40544
 C2490 C 0.42287 1.23490 0.40818
 C2491 C 0.43002 1.21386 0.41595
 C2492 C 0.41443 1.19705 0.42140
 C2493 C 0.39151 1.20190 0.41931
 C2494 C 0.38435 1.22293 0.41145
 H2495 H 0.32006 1.31542 0.35992
 H2496 H 0.33217 1.27974 0.37662
 H2497 H 0.40092 1.30165 0.37236
 H2498 H 0.38861 1.33738 0.35636
 H2499 H 0.36201 1.25223 0.38410
 H2500 H 0.40528 1.27547 0.39837
 H2501 H 0.43528 1.24748 0.40396
 H2502 H 0.44778 1.21076 0.41776
 H2503 H 0.37910 1.18927 0.42336
 H2504 H 0.36656 1.22607 0.41034
 C2505 C 0.34236 0.81406 0.86498
 C2506 C 0.34938 0.79347 0.87395
 C2507 C 0.37215 0.78915 0.87777
 C2508 C 0.38787 0.80586 0.87208
 C2509 C 0.38083 0.82646 0.86308
 C2510 C 0.35802 0.83077 0.85946
 C2511 C 0.37870 0.76677 0.88681
 C2512 C 0.39824 0.76260 0.89709
 C2513 C 0.40484 0.74001 0.90552
 C2514 C 0.42768 0.73508 0.90790
 C2515 C 0.43471 0.71388 0.91535
 C2516 C 0.41902 0.69718 0.92082
 C2517 C 0.39613 0.70227 0.91901
 C2518 C 0.38908 0.72346 0.91150
 H2519 H 0.32470 0.81687 0.86207
 H2520 H 0.33693 0.78085 0.87794
 H2521 H 0.40562 0.80303 0.87405
 H2522 H 0.39318 0.83908 0.85888
 H2523 H 0.36672 0.75330 0.88484
 H2524 H 0.41031 0.77599 0.89901
 H2525 H 0.44016 0.74759 0.90369
 H2526 H 0.45247 0.71058 0.91694
 H2527 H 0.38364 0.68973 0.92307
 H2528 H 0.37132 0.72679 0.91067
 C2529 C 1.14382 0.69613 0.83906
 C2530 C 1.13509 0.71610 0.84786
 C2531 C 1.12833 0.71718 0.87033
 C2532 C 1.13058 0.69794 0.88394
 C2533 C 1.13964 0.67809 0.87521
 C2534 C 1.14639 0.67707 0.85274
 C2535 C 1.12031 0.73889 0.87943
 C2536 C 1.10511 0.74031 0.89585
 C2537 C 1.09749 0.76217 0.90489
 C2538 C 1.07510 0.76477 0.91143
 C2539 C 1.06744 0.78541 0.91974
 C2540 C 1.08222 0.80357 0.92223
 C2541 C 1.10477 0.80078 0.91630
 C2542 C 1.11234 0.78030 0.90758
 H2543 H 1.14920 0.69566 0.82175
 H2544 H 1.13369 0.73078 0.83713
 H2545 H 1.12605 0.69840 0.90147
 H2546 H 1.14169 0.66354 0.88599
 H2547 H 1.12647 0.75420 0.87169
 H2548 H 1.09712 0.72516 0.90203
 H2549 H 1.06345 0.75094 0.90971
 H2550 H 1.05001 0.78718 0.92437
 H2551 H 1.11644 0.81459 0.91806
 H2552 H 1.12982 0.77858 0.90319
 C2553 C 1.14184 0.19297 0.34268
 C2554 C 1.13402 0.21348 0.35108
 C2555 C 1.12626 0.21504 0.37319
 C2556 C 1.12685 0.19577 0.38694
 C2557 C 1.13506 0.17533 0.37863
 C2558 C 1.14252 0.17378 0.35643
 C2559 C 1.11863 0.23715 0.38167
 C2560 C 1.10226 0.23938 0.39683
 C2561 C 1.09459 0.26165 0.40488
 C2562 C 1.07193 0.26485 0.41013
 C2563 C 1.06424 0.28579 0.41764
 C2564 C 1.07921 0.30373 0.42057
 C2565 C 1.10197 0.30040 0.41577
 C2566 C 1.10959 0.27960 0.40790
 H2567 H 1.14777 0.19210 0.32558
 H2568 H 1.13392 0.22815 0.34026
 H2569 H 1.12149 0.19659 0.40423
 H2570 H 1.13560 0.16069 0.38946
 H2571 H 1.12590 0.25210 0.37421
 H2572 H 1.09331 0.22460 0.40255
 H2573 H 1.06012 0.25119 0.40812
 H2574 H 1.04665 0.28793 0.42144
 H2575 H 1.11382 0.31400 0.41788
 H2576 H 1.12726 0.27748 0.40451
 C2577 C 0.63120 0.66811 0.38303
 C2578 C 0.62195 0.68734 0.39294
 C2579 C 0.61924 0.70724 0.38048
 C2580 C 0.62537 0.70741 0.35775
 C2581 C 0.63424 0.68808 0.34777
 C2582 C 0.63734 0.66835 0.36037
 C2583 C 0.60938 0.72733 0.39133
 C2584 C 0.61583 0.74832 0.38617
 C2585 C 0.60615 0.76856 0.39689
 C2586 C 0.61969 0.78757 0.39995
 C2587 C 0.61090 0.80721 0.40940
 C2588 C 0.58824 0.80837 0.41546
 C2589 C 0.57458 0.78946 0.41218
 C2590 C 0.58348 0.76965 0.40310
 H2591 H 0.63337 0.65295 0.39290
 H2592 H 0.61716 0.68678 0.41041
 H2593 H 0.62296 0.72234 0.34757
 H2594 H 0.63885 0.68848 0.33025
 H2595 H 0.59743 0.72468 0.40471
 H2596 H 0.62948 0.75078 0.37449
 H2597 H 0.63714 0.78717 0.39508
 H2598 H 0.62167 0.82169 0.41153
 H2599 H 0.55704 0.79002 0.41668
 H2600 H 0.57249 0.75545 0.40044
 C2601 C 0.62980 0.16387 0.88327
 C2602 C 0.61973 0.18305 0.89244
 C2603 C 0.61743 0.20278 0.87965
 C2604 C 0.62476 0.20280 0.85727
 C2605 C 0.63450 0.18353 0.84803
 C2606 C 0.63722 0.16398 0.86099
 C2607 C 0.60695 0.22293 0.88979
 C2608 C 0.61352 0.24387 0.88464
 C2609 C 0.60354 0.26420 0.89488
 C2610 C 0.61704 0.28319 0.89819
 C2611 C 0.60807 0.30284 0.90742
 C2612 C 0.58530 0.30403 0.91301
 C2613 C 0.57166 0.28518 0.90939
 C2614 C 0.58072 0.26535 0.90053
 H2615 H 0.63166 0.14886 0.89343
 H2616 H 0.61403 0.18261 0.90965
 H2617 H 0.62271 0.21758 0.84681
 H2618 H 0.64012 0.18389 0.83081
 H2619 H 0.59451 0.22037 0.90273
 H2620 H 0.62761 0.24625 0.87347
 H2621 H 0.63460 0.28274 0.89375
 H2622 H 0.61884 0.31728 0.90982
 H2623 H 0.55403 0.28578 0.91354
 H2624 H 0.56978 0.25115 0.89765
 C2625 C 0.83761 0.68746 1.13312
 C2626 C 0.84513 0.70685 1.12220
 C2627 C 0.86808 0.71053 1.11891
 C2628 C 0.88338 0.69395 1.12614
 C2629 C 0.87584 0.67457 1.13706
 C2630 C 0.85291 0.67122 1.14082
 C2631 C 0.87525 0.73169 1.10778
 C2632 C 0.89566 0.74069 1.11031
 C2633 C 0.90266 0.76236 1.10009
 C2634 C 0.92561 0.76669 1.09781
 C2635 C 0.93309 0.78723 1.08920
 C2636 C 0.91775 0.80402 1.08280
 C2637 C 0.89476 0.79971 1.08501
 C2638 C 0.88726 0.77916 1.09362
 H2639 H 0.81986 0.68526 1.13590
 H2640 H 0.83298 0.71923 1.11665
 H2641 H 0.90113 0.69564 1.12320
 H2642 H 0.88789 0.66206 1.14253
 H2643 H 0.86288 0.74035 1.09771
 H2644 H 0.90799 0.73204 1.12041
 H2645 H 0.93783 0.75412 1.10276
 H2646 H 0.95091 0.78997 1.08750
 H2647 H 0.88255 0.81251 1.08067
 H2648 H 0.86947 0.77689 1.09579
 C2649 C 0.86631 0.18540 0.65873
 C2650 C 0.87629 0.20539 0.65153
 C2651 C 0.87964 0.20959 0.62864
 C2652 C 0.87320 0.19303 0.61307
 C2653 C 0.86323 0.17301 0.62030
 C2654 C 0.85962 0.16902 0.64320
 C2655 C 0.89026 0.23115 0.62191
 C2656 C 0.88797 0.24044 0.60153
 C2657 C 0.89799 0.26235 0.59492
 C2658 C 0.90036 0.26717 0.57203
 C2659 C 0.90896 0.28785 0.56492
 C2660 C 0.91527 0.30430 0.58056
 C2661 C 0.91295 0.29951 0.60348
 C2662 C 0.90432 0.27883 0.61062
 H2663 H 0.86360 0.18278 0.67647
 H2664 H 0.88120 0.21775 0.66389
 H2665 H 0.87616 0.19518 0.59534
 H2666 H 0.85855 0.16047 0.60805
 H2667 H 0.89987 0.23977 0.63458
 H2668 H 0.87833 0.23180 0.58889
 H2669 H 0.89554 0.25487 0.55958
 H2670 H 0.91073 0.29095 0.54714
 H2671 H 0.91723 0.31203 0.61591
 H2672 H 0.90210 0.27622 0.62838
 C2673 C 0.36745 0.67046 0.61833
 C2674 C 0.37883 0.68897 0.60940
 C2675 C 0.38250 0.70825 0.62245
 C2676 C 0.37524 0.70843 0.64485
 C2677 C 0.36419 0.68978 0.65386
 C2678 C 0.36005 0.67076 0.64061
 C2679 C 0.39411 0.72779 0.61242
 C2680 C 0.38870 0.74907 0.61762
 C2681 C 0.39928 0.76880 0.60686
 C2682 C 0.38639 0.78823 0.60323
 C2683 C 0.39581 0.80722 0.59316
 C2684 C 0.41848 0.80730 0.58704
 C2685 C 0.43157 0.78805 0.59110
 C2686 C 0.42202 0.76886 0.60079
 H2687 H 0.36450 0.65583 0.60796
 H2688 H 0.38443 0.68840 0.59217
 H2689 H 0.37831 0.72285 0.65548
 H2690 H 0.35862 0.69023 0.67110
 H2691 H 0.40621 0.72459 0.59929
 H2692 H 0.37491 0.75222 0.62898
 H2693 H 0.36890 0.78863 0.60797
 H2694 H 0.38548 0.82199 0.59043
 H2695 H 0.44912 0.78781 0.58658
 H2696 H 0.43249 0.75427 0.60388
 C2697 C 0.38616 0.16434 1.13511
 C2698 C 0.39656 0.18350 1.12628
 C2699 C 0.38379 0.20182 1.11855
 C2700 C 0.36030 0.20023 1.11912
 C2701 C 0.34994 0.18112 1.12796
 C2702 C 0.36274 0.16308 1.13629
 C2703 C 0.39546 0.22197 1.10954
 C2704 C 0.38611 0.24257 1.10901
 C2705 C 0.39709 0.26290 1.09962
 C2706 C 0.38350 0.28111 1.09322
 C2707 C 0.39287 0.30073 1.08441
 C2708 C 0.41614 0.30272 1.08196
 C2709 C 0.42986 0.28468 1.08870
 C2710 C 0.42046 0.26493 1.09744
 H2711 H 0.39639 0.15049 1.14106
 H2712 H 0.41466 0.18411 1.12572
 H2713 H 0.34977 0.21350 1.11252
 H2714 H 0.33185 0.18052 1.12853
 H2715 H 0.41233 0.21957 1.10346
 H2716 H 0.36932 0.24485 1.11539
 H2717 H 0.36549 0.28012 1.09495
 H2718 H 0.38188 0.31451 1.07978
 H2719 H 0.44786 0.28577 1.08703
 H2720 H 0.43160 0.25158 1.10275
 C2721 C 1.11423 1.13535 0.66973
 C2722 C 1.10450 1.12725 0.68940
 C2723 C 1.11781 1.12144 0.70789
 C2724 C 1.14118 1.12399 0.70626
 C2725 C 1.15090 1.13208 0.68654
 C2726 C 1.13751 1.13794 0.66812
 C2727 C 1.10656 1.11391 0.72875
 C2728 C 1.11684 1.10204 0.74490
 C2729 C 1.10595 1.09502 0.76611
 C2730 C 1.11968 1.08915 0.78425
 C2731 C 1.11041 1.08201 0.80448
 C2732 C 1.08712 1.08035 0.80704
 C2733 C 1.07328 1.08627 0.78896
 C2734 C 1.08256 1.09343 0.76865
 H2735 H 1.10357 1.13980 0.65575
 H2736 H 1.08648 1.12562 0.69023
 H2737 H 1.15205 1.12051 0.72030
 H2738 H 1.16884 1.13442 0.68588
 H2739 H 1.08913 1.11844 0.73064
 H2740 H 1.13423 1.09743 0.74288
 H2741 H 1.13771 1.09018 0.78279
 H2742 H 1.12152 1.07786 0.81821
 H2743 H 1.05528 1.08482 0.79035
 H2744 H 1.07133 1.09712 0.75496
 C2745 C 1.16194 0.63455 0.19113
 C2746 C 1.15429 0.62620 0.21161
 C2747 C 1.13133 0.62578 0.21649
 C2748 C 1.11614 0.63441 0.20061
 C2749 C 1.12383 0.64283 0.18015
 C2750 C 1.14677 0.64284 0.17517
 C2751 C 1.12407 0.61696 0.23853
 C2752 C 1.10370 0.60835 0.24235
 C2753 C 1.09638 0.59952 0.26441
 C2754 C 1.07337 0.59797 0.26880
 C2755 C 1.06567 0.58990 0.28938
 C2756 C 1.08085 0.58303 0.30601
 C2757 C 1.10388 0.58419 0.30150
 C2758 C 1.11159 0.59223 0.28091
 H2759 H 1.17973 0.63475 0.18781
 H2760 H 1.16634 0.61993 0.22365
 H2761 H 1.09839 0.63512 0.20402
 H2762 H 1.11188 0.64933 0.16814
 H2763 H 1.13628 0.61738 0.25186
 H2764 H 1.09157 0.60793 0.22892
 H2765 H 1.06129 0.60319 0.25630
 H2766 H 1.04782 0.58886 0.29223
 H2767 H 1.11600 0.57912 0.31401
 H2768 H 1.12943 0.59238 0.27803
 C2769 C 0.65268 1.12230 0.18236
 C2770 C 0.64430 1.11206 0.20167
 C2771 C 0.62141 1.11310 0.20664
 C2772 C 0.60687 1.12392 0.19154
 C2773 C 0.61521 1.13387 0.17203
 C2774 C 0.63824 1.13334 0.16731
 C2775 C 0.61324 1.10261 0.22755
 C2776 C 0.59624 1.11126 0.23938
 C2777 C 0.58914 1.10190 0.26119
 C2778 C 0.58070 1.11660 0.27748
 C2779 C 0.57404 1.10843 0.29837
 C2780 C 0.57520 1.08525 0.30327
 C2781 C 0.58333 1.07048 0.28675
 C2782 C 0.59030 1.07871 0.26595
 H2783 H 0.67052 1.12180 0.17931
 H2784 H 0.65579 1.10374 0.21302
 H2785 H 0.58904 1.12447 0.19463
 H2786 H 0.60368 1.14195 0.16056
 H2787 H 0.62268 1.08853 0.23428
 H2788 H 0.58838 1.12677 0.23383
 H2789 H 0.57964 1.13453 0.27418
 H2790 H 0.56827 1.12038 0.31078
 H2791 H 0.58400 1.05250 0.28976
 H2792 H 0.59617 1.06688 0.25348
 C2793 C 0.65725 0.63025 0.68486
 C2794 C 0.64987 0.61956 0.70435
 C2795 C 0.62695 0.61644 0.70832
 C2796 C 0.61152 0.62360 0.69196
 C2797 C 0.61892 0.63426 0.67245
 C2798 C 0.64183 0.63787 0.66880
 C2799 C 0.61997 0.60557 0.72957
 C2800 C 0.59977 0.60862 0.73891
 C2801 C 0.59307 0.59876 0.76073
 C2802 C 0.57019 0.59690 0.76563
 C2803 C 0.56305 0.58855 0.78631
 C2804 C 0.57868 0.58201 0.80265
 C2805 C 0.60159 0.58385 0.79779
 C2806 C 0.60874 0.59221 0.77711
 H2807 H 0.67499 0.63292 0.68248
 H2808 H 0.66211 0.61407 0.71658
 H2809 H 0.59377 0.62079 0.69394
 H2810 H 0.60678 0.63967 0.66011
 H2811 H 0.63234 0.59531 0.73801
 H2812 H 0.58743 0.61891 0.73044
 H2813 H 0.55777 0.60194 0.75340
 H2814 H 0.54528 0.58715 0.78950
 H2815 H 0.61401 0.57941 0.81023
 H2816 H 0.62651 0.59410 0.77442
 C2817 C 0.86527 0.84222 0.69025
 C2818 C 0.87452 0.84915 0.71053
 C2819 C 0.87715 0.87214 0.71526
 C2820 C 0.86984 0.88815 0.69941
 C2821 C 0.86050 0.88118 0.67913
 C2822 C 0.85824 0.85816 0.67434
 C2823 C 0.88678 0.87860 0.73717
 C2824 C 0.89704 0.89830 0.74089
 C2825 C 0.90621 0.90487 0.76298
 C2826 C 0.90866 0.92787 0.76776
 C2827 C 0.91658 0.93487 0.78859
 C2828 C 0.92244 0.91899 0.80506
 C2829 C 0.92068 0.89595 0.80007
 C2830 C 0.91272 0.88893 0.77923
 H2831 H 0.86342 0.82438 0.68700
 H2832 H 0.87976 0.83649 0.72254
 H2833 H 0.87087 0.90602 0.70271
 H2834 H 0.85507 0.89372 0.66711
 H2835 H 0.88541 0.86638 0.75055
 H2836 H 0.89837 0.91052 0.72749
 H2837 H 0.90407 0.94048 0.75544
 H2838 H 0.91814 0.95275 0.79182
 H2839 H 0.92504 0.88332 0.81244
 H2840 H 0.91188 0.87104 0.77597
 C2841 C 0.86598 0.34346 0.18928
 C2842 C 0.87484 0.35070 0.20964
 C2843 C 0.87722 0.37377 0.21417
 C2844 C 0.87024 0.38954 0.19795
 C2845 C 0.86132 0.38226 0.17759
 C2846 C 0.85912 0.35918 0.17308
 C2847 C 0.88616 0.38054 0.23629
 C2848 C 0.89578 0.40054 0.24027
 C2849 C 0.90432 0.40733 0.26256
 C2850 C 0.90653 0.43039 0.26725
 C2851 C 0.91417 0.43759 0.28814
 C2852 C 0.91996 0.42185 0.30476
 C2853 C 0.91824 0.39876 0.29993
 C2854 C 0.91061 0.39155 0.27904
 H2855 H 0.86417 0.32558 0.18626
 H2856 H 0.87986 0.33822 0.22192
 H2857 H 0.87110 0.40746 0.20101
 H2858 H 0.85603 0.39464 0.16533
 H2859 H 0.88475 0.36831 0.24965
 H2860 H 0.89714 0.41278 0.22691
 H2861 H 0.90208 0.44289 0.25478
 H2862 H 0.91568 0.45549 0.29124
 H2863 H 0.92250 0.38621 0.31242
 H2864 H 0.90995 0.37363 0.27592
 C2865 C 0.36044 0.88463 0.17135
 C2866 C 0.36800 0.89495 0.19095
 C2867 C 0.37486 0.88192 0.20936
 C2868 C 0.37363 0.85827 0.20788
 C2869 C 0.36613 0.84799 0.18829
 C2870 C 0.35948 0.86105 0.16984
 C2871 C 0.38237 0.89357 0.22998
 C2872 C 0.39557 0.88380 0.24536
 C2873 C 0.40271 0.89478 0.26644
 C2874 C 0.40997 0.88096 0.28408
 C2875 C 0.41733 0.89032 0.30415
 C2876 C 0.41785 0.91381 0.30701
 C2877 C 0.41055 0.92773 0.28940
 C2878 C 0.40312 0.91834 0.26927
 H2879 H 0.35534 0.89501 0.15733
 H2880 H 0.36856 0.91318 0.19170
 H2881 H 0.37785 0.84756 0.22192
 H2882 H 0.36504 0.82979 0.18767
 H2883 H 0.37679 0.91076 0.23230
 H2884 H 0.40129 0.86669 0.24280
 H2885 H 0.40984 0.86279 0.28238
 H2886 H 0.42251 0.87913 0.31753
 H2887 H 0.41108 0.94589 0.29102
 H2888 H 0.39829 0.92964 0.25590
 C2889 C 0.36525 0.34414 0.68490
 C2890 C 0.37362 0.35086 0.70564
 C2891 C 0.37588 0.37380 0.71079
 C2892 C 0.36894 0.38997 0.69494
 C2893 C 0.36047 0.38322 0.67421
 C2894 C 0.35876 0.36025 0.66891
 C2895 C 0.38491 0.38005 0.73300
 C2896 C 0.39516 0.39970 0.73711
 C2897 C 0.40419 0.40599 0.75935
 C2898 C 0.40711 0.42891 0.76422
 C2899 C 0.41525 0.43568 0.78506
 C2900 C 0.42085 0.41961 0.80145
 C2901 C 0.41848 0.39663 0.79640
 C2902 C 0.41031 0.38986 0.77557
 H2903 H 0.36373 0.32633 0.68133
 H2904 H 0.37855 0.33808 0.71765
 H2905 H 0.36965 0.40780 0.69854
 H2906 H 0.35541 0.39591 0.66218
 H2907 H 0.38329 0.36769 0.74622
 H2908 H 0.39678 0.41202 0.72384
 H2909 H 0.40282 0.44167 0.75194
 H2910 H 0.41726 0.45350 0.78832
 H2911 H 0.42261 0.38387 0.80872
 H2912 H 0.40909 0.37200 0.77227
 C2913 C 1.14261 0.88822 1.32912
 C2914 C 1.13545 0.89798 1.30907
 C2915 C 1.12500 0.88488 1.29265
 C2916 C 1.12221 0.86166 1.29646
 C2917 C 1.12969 0.85182 1.31639
 C2918 C 1.13990 0.86499 1.33302
 C2919 C 1.11805 0.89567 1.27142
 C2920 C 1.10010 0.88895 1.25985
 C2921 C 1.09304 0.89969 1.23862
 C2922 C 1.07028 0.90005 1.23310
 C2923 C 1.06309 0.90928 1.21281
 C2924 C 1.07860 0.91792 1.19731
 C2925 C 1.10145 0.91757 1.20289
 C2926 C 1.10860 0.90861 1.22335
 H2927 H 1.15035 0.89884 1.34161
 H2928 H 1.13791 0.91587 1.30643
 H2929 H 1.11481 0.85097 1.28383
 H2930 H 1.12786 0.83381 1.31862
 H2931 H 1.12733 0.91030 1.26585
 H2932 H 1.08950 0.87584 1.26666
 H2933 H 1.05799 0.89325 1.24459
 H2934 H 1.04534 0.90961 1.20927
 H2935 H 1.11390 0.92360 1.19118
 H2936 H 1.12635 0.90802 1.22684
 C2937 C 1.14545 0.38155 0.82537
 C2938 C 1.13725 0.39244 0.80630
 C2939 C 1.12672 0.38015 0.78932
 C2940 C 1.12474 0.35666 0.79163
 C2941 C 1.13328 0.34571 0.81053
 C2942 C 1.14381 0.35800 0.82764
 C2943 C 1.11903 0.39204 0.76893
 C2944 C 1.10102 0.38555 0.75731
 C2945 C 1.09359 0.39700 0.73658
 C2946 C 1.07076 0.39736 0.73135
 C2947 C 1.06327 0.40703 0.71136
 C2948 C 1.07855 0.41608 0.69585
 C2949 C 1.10147 0.41577 0.70119
 C2950 C 1.10891 0.40640 0.72136
 H2951 H 1.15327 0.39154 0.83831
 H2952 H 1.13906 0.41055 0.80483
 H2953 H 1.11725 0.34663 0.77853
 H2954 H 1.13209 0.32754 0.81152
 H2955 H 1.12794 0.40711 0.76393
 H2956 H 1.09078 0.37191 0.76363
 H2957 H 1.05866 0.39017 0.74280
 H2958 H 1.04548 0.40733 0.70804
 H2959 H 1.11376 0.42211 0.68948
 H2960 H 1.12670 0.40583 0.72464
 C2961 C 0.63019 0.84138 0.81236
 C2962 C 0.61929 0.84911 0.79311
 C2963 C 0.61899 0.87214 0.78785
 C2964 C 0.62906 0.88746 0.80264
 C2965 C 0.63965 0.87977 0.82206
 C2966 C 0.64057 0.85662 0.82704
 C2967 C 0.60795 0.87975 0.76699
 C2968 C 0.61574 0.89704 0.75486
 C2969 C 0.60570 0.90417 0.73336
 C2970 C 0.61960 0.91343 0.71687
 C2971 C 0.61074 0.92072 0.69648
 C2972 C 0.58762 0.91944 0.69229
 C2973 C 0.57366 0.91029 0.70894
 C2974 C 0.58260 0.90266 0.72924
 H2975 H 0.63076 0.82344 0.81563
 H2976 H 0.61153 0.83702 0.78202
 H2977 H 0.62854 0.90540 0.79936
 H2978 H 0.64712 0.89194 0.83325
 H2979 H 0.59416 0.86982 0.76068
 H2980 H 0.63097 0.90537 0.76005
 H2981 H 0.63744 0.91477 0.71967
 H2982 H 0.62210 0.92719 0.68393
 H2983 H 0.55575 0.90943 0.70649
 H2984 H 0.57137 0.89613 0.74188
 C2985 C 0.61811 0.36366 1.32818
 C2986 C 0.60788 0.37240 1.30899
 C2987 C 0.62061 0.37774 1.28996
 C2988 C 0.64400 0.37491 1.29086
 C2989 C 0.65420 0.36613 1.31003
 C2990 C 0.64134 0.36016 1.32879
 C2991 C 0.60898 0.38656 1.26979
 C2992 C 0.61763 0.38538 1.24908
 C2993 C 0.60638 0.39447 1.22887
 C2994 C 0.61966 0.40044 1.21045
 C2995 C 0.60995 0.40907 1.19099
 C2996 C 0.58665 0.41168 1.18940
 C2997 C 0.57323 0.40523 1.20761
 C2998 C 0.58298 0.39673 1.22721
 H2999 H 0.60789 0.35948 1.34256
 H3000 H 0.58990 0.37471 1.30889
 H3001 H 0.65460 0.37962 1.27697
 H3002 H 0.67215 0.36369 1.31012
 H3003 H 0.59261 0.39398 1.27223
 H3004 H 0.63395 0.37788 1.24660
 H3005 H 0.63768 0.39861 1.21118
 H3006 H 0.62067 0.41352 1.17706
 H3007 H 0.55522 0.40701 1.20678
 H3008 H 0.57212 0.39166 1.24078
 C3009 C 0.84067 1.12931 1.31596
 C3010 C 0.84793 1.11866 1.29641
 C3011 C 0.87067 1.11833 1.29075
 C3012 C 0.88617 1.12832 1.30535
 C3013 C 0.87896 1.13863 1.32513
 C3014 C 0.85609 1.13937 1.33065
 C3015 C 0.87775 1.10717 1.26975
 C3016 C 0.89461 1.11498 1.25720
 C3017 C 0.90110 1.10484 1.23552
 C3018 C 0.90956 1.11890 1.21870
 C3019 C 0.91642 1.10996 1.19821
 C3020 C 0.91557 1.08660 1.19424
 C3021 C 0.90702 1.07250 1.21115
 C3022 C 0.89978 1.08153 1.23157
 H3023 H 0.82293 1.12977 1.31951
 H3024 H 0.83570 1.11102 1.28544
 H3025 H 0.90390 1.12783 1.30170
 H3026 H 0.89129 1.14586 1.33622
 H3027 H 0.86776 1.09327 1.26369
 H3028 H 0.90302 1.13033 1.26216
 H3029 H 0.91068 1.13691 1.22135
 H3030 H 0.92235 1.12146 1.18545
 H3031 H 0.90644 1.05442 1.20885
 H3032 H 0.89378 1.07019 1.24444
 C3033 C 0.86026 0.61699 0.82973
 C3034 C 0.86980 0.60731 0.81067
 C3035 C 0.87701 0.62083 0.79278
 C3036 C 0.87504 0.64442 0.79467
 C3037 C 0.86551 0.65410 0.81377
 C3038 C 0.85794 0.64049 0.83146
 C3039 C 0.88685 0.60968 0.77282
 C3040 C 0.88752 0.61923 0.75245
 C3041 C 0.89719 0.60814 0.73239
 C3042 C 0.90399 0.62174 0.71441
 C3043 C 0.91297 0.61216 0.69504
 C3044 C 0.91517 0.58866 0.69309
 C3045 C 0.90807 0.57496 0.71092
 C3046 C 0.89914 0.58456 0.73036
 H3047 H 0.85472 0.60614 0.84321
 H3048 H 0.87132 0.58913 0.80978
 H3049 H 0.88103 0.65554 0.78165
 H3050 H 0.86385 0.67225 0.81465
 H3051 H 0.89335 0.59282 0.77515
 H3052 H 0.88096 0.63608 0.75014
 H3053 H 0.90243 0.63991 0.71538
 H3054 H 0.91788 0.62315 0.68142
 H3055 H 0.90955 0.55680 0.70988
 H3056 H 0.89347 0.57339 0.74349
 C3057 C 0.36785 1.10925 0.83354
 C3058 C 0.37757 1.09970 0.81448
 C3059 C 0.38470 1.11339 0.79669
 C3060 C 0.38301 1.13697 0.79887
 C3061 C 0.37331 1.14649 0.81791
 C3062 C 0.36521 1.13271 0.83520
 C3063 C 0.39378 1.10256 0.77624
 C3064 C 0.39270 1.11226 0.75596
 C3065 C 0.40133 1.10180 0.73515
 C3066 C 0.40625 1.11593 0.71697
 C3067 C 0.41420 1.10701 0.69689
 C3068 C 0.41722 1.08366 0.69442
 C3069 C 0.41191 1.06939 0.71243
 C3070 C 0.40404 1.07835 0.73263
 H3071 H 0.36203 1.09836 0.84686
 H3072 H 0.37901 1.08153 0.81339
 H3073 H 0.38916 1.14816 0.78597
 H3074 H 0.37162 1.16463 0.81895
 H3075 H 0.40089 1.08588 0.77805
 H3076 H 0.38532 1.12885 0.75430
 H3077 H 0.40405 1.13400 0.71835
 H3078 H 0.41775 1.11839 0.68315
 H3079 H 0.41405 1.05133 0.71096
 H3080 H 0.39980 1.06680 0.74598
 C3081 C 0.38272 0.63711 1.32880
 C3082 C 0.39302 0.62858 1.30958
 C3083 C 0.38034 0.62300 1.29063
 C3084 C 0.35698 0.62623 1.29135
 C3085 C 0.34669 0.63476 1.31060
 C3086 C 0.35947 0.64044 1.32946
 C3087 C 0.39222 0.61497 1.27026
 C3088 C 0.38230 0.60323 1.25386
 C3089 C 0.39373 0.59563 1.23306
 C3090 C 0.38040 0.58894 1.21495
 C3091 C 0.39010 0.58126 1.19511
 C3092 C 0.41346 0.57990 1.19289
 C3093 C 0.42691 0.58666 1.21093
 C3094 C 0.41719 0.59435 1.23086
 H3095 H 0.39292 0.64131 1.34316
 H3096 H 0.41102 0.62640 1.30949
 H3097 H 0.34658 0.62292 1.27694
 H3098 H 0.32879 0.63757 1.31055
 H3099 H 0.40979 0.61898 1.26903
 H3100 H 0.36477 0.59907 1.25537
 H3101 H 0.36233 0.58972 1.21610
 H3102 H 0.37927 0.57650 1.18140
 H3103 H 0.44495 0.58549 1.20982
 H3104 H 0.42817 0.59873 1.24451
 C3105 C 1.15909 1.30726 0.85887
 C3106 C 1.15082 1.28697 0.86722
 C3107 C 1.12795 1.28445 0.87184
 C3108 C 1.11335 1.30260 0.86733
 C3109 C 1.12168 1.32294 0.85889
 C3110 C 1.14463 1.32546 0.85475
 C3111 C 1.12026 1.26254 0.88095
 C3112 C 1.10098 1.25964 0.89208
 C3113 C 1.09413 1.23759 0.90148
 C3114 C 1.07126 1.23299 0.90398
 C3115 C 1.06417 1.21223 0.91244
 C3116 C 1.07983 1.19574 0.91887
 C3117 C 1.10273 1.20059 0.91698
 C3118 C 1.10983 1.22130 0.90844
 H3119 H 1.17683 1.30881 0.85560
 H3120 H 1.16240 1.27324 0.87033
 H3121 H 1.09553 1.30119 0.87000
 H3122 H 1.11028 1.33680 0.85577
 H3123 H 1.13138 1.24830 0.87870
 H3124 H 1.08953 1.27361 0.89419
 H3125 H 1.05885 1.24537 0.89905
 H3126 H 1.04641 1.20909 0.91404
 H3127 H 1.11518 1.18820 0.92176
 H3128 H 1.12760 1.22451 0.90756
 C3129 C 1.11422 0.83374 0.36453
 C3130 C 1.10409 0.81452 0.37350
 C3131 C 1.11711 0.79636 0.38122
 C3132 C 1.14058 0.79819 0.38046
 C3133 C 1.15067 0.81737 0.37146
 C3134 C 1.13762 0.83524 0.36318
 C3135 C 1.10571 0.77614 0.39039
 C3136 C 1.11527 0.75563 0.39093
 C3137 C 1.10447 0.73519 0.40032
 C3138 C 1.11820 0.71698 0.40644
 C3139 C 1.10899 0.69721 0.41510
 C3140 C 1.08575 0.69508 0.41769
 C3141 C 1.07190 0.71316 0.41130
 C3142 C 1.08113 0.73303 0.40270
 H3143 H 1.10383 0.84748 0.35860
 H3144 H 1.08601 0.81371 0.37420
 H3145 H 1.15129 0.78505 0.38703
 H3146 H 1.16874 0.81818 0.37078
 H3147 H 1.08885 0.77839 0.39654
 H3148 H 1.13204 0.75350 0.38448
 H3149 H 1.13619 0.71807 0.40457
 H3150 H 1.12008 0.68342 0.41947
 H3151 H 1.05392 0.71198 0.41311
 H3152 H 1.06988 0.74637 0.39761
 C3153 C 0.64371 1.32826 0.38260
 C3154 C 0.63512 1.30914 0.39319
 C3155 C 0.62392 1.29262 0.38081
 C3156 C 0.62164 1.29541 0.35755
 C3157 C 0.63054 1.31436 0.34690
 C3158 C 0.64172 1.33099 0.35930
 C3159 C 0.61599 1.27208 0.39234
 C3160 C 0.59781 1.26075 0.38579
 C3161 C 0.59042 1.23973 0.39681
 C3162 C 0.56756 1.23465 0.39750
 C3163 C 0.56016 1.21447 0.40701
 C3164 C 0.57554 1.19868 0.41558
 C3165 C 0.59848 1.20380 0.41479
 C3166 C 0.60585 1.22413 0.40558
 H3167 H 0.65214 1.34085 0.39257
 H3168 H 0.63720 1.30726 0.41111
 H3169 H 0.61365 1.28264 0.34744
 H3170 H 0.62915 1.31577 0.32889
 H3171 H 0.62498 1.26664 0.40714
 H3172 H 0.58747 1.26748 0.37246
 H3173 H 0.55539 1.24639 0.39076
 H3174 H 0.54236 1.21126 0.40763
 H3175 H 0.61085 1.19183 0.42069
 H3176 H 0.62365 1.22726 0.40468
 C3177 C 0.65954 0.81233 0.86579
 C3178 C 0.65197 0.79315 0.87703
 C3179 C 0.62909 0.79012 0.88130
 C3180 C 0.61395 0.80710 0.87469
 C3181 C 0.62156 0.82632 0.86349
 C3182 C 0.64440 0.82901 0.85874
 C3183 C 0.62189 0.76919 0.89283
 C3184 C 0.60128 0.76048 0.89094
 C3185 C 0.59428 0.73887 0.90134
 C3186 C 0.57133 0.73453 0.90363
 C3187 C 0.56385 0.71400 0.91230
 C3188 C 0.57919 0.69725 0.91879
 C3189 C 0.60218 0.70158 0.91665
 C3190 C 0.60967 0.72210 0.90794
 H3191 H 0.67723 0.81403 0.86231
 H3192 H 0.66401 0.78045 0.88208
 H3193 H 0.59629 0.80585 0.87837
 H3194 H 0.60966 0.83920 0.85859
 H3195 H 0.63443 0.76041 0.90256
 H3196 H 0.58882 0.76931 0.88114
 H3197 H 0.55910 0.74705 0.89860
 H3198 H 0.54603 0.71123 0.91393
 H3199 H 0.61438 0.68881 0.92107
 H3200 H 0.62748 0.72431 0.90580
 C3201 C 0.88299 1.33154 1.13837
 C3202 C 0.89292 1.31285 1.12817
 C3203 C 0.87975 1.29511 1.12007
 C3204 C 0.85630 1.29689 1.12158
 C3205 C 0.84638 1.31560 1.13177
 C3206 C 0.85964 1.33298 1.14050
 C3207 C 0.89108 1.27525 1.11010
 C3208 C 0.88185 1.25468 1.10944
 C3209 C 0.89312 1.23453 1.09999
 C3210 C 0.87983 1.21635 1.09319
 C3211 C 0.88960 1.19683 1.08455
 C3212 C 0.91295 1.19493 1.08269
 C3213 C 0.92634 1.21296 1.08979
 C3214 C 0.91655 1.23258 1.09837
 H3215 H 0.89352 1.34485 1.14479
 H3216 H 0.91098 1.31205 1.12698
 H3217 H 0.84549 1.28401 1.11483
 H3218 H 0.82835 1.31635 1.13321
 H3219 H 0.90783 1.27774 1.10371
 H3220 H 0.86515 1.25225 1.11596
 H3221 H 0.86178 1.21728 1.09452
 H3222 H 0.87885 1.18304 1.07963
 H3223 H 0.94438 1.21194 1.08857
 H3224 H 0.92745 1.24589 1.10407
 C3225 C 0.88240 0.83141 0.63914
 C3226 C 0.89256 0.81280 0.62903
 C3227 C 0.87962 0.79475 0.62127
 C3228 C 0.85615 0.79616 0.62291
 C3229 C 0.84601 0.81480 0.63299
 C3230 C 0.85905 0.83245 0.64147
 C3231 C 0.89115 0.77490 0.61153
 C3232 C 0.88232 0.75415 0.61173
 C3233 C 0.89364 0.73400 0.60238
 C3234 C 0.88044 0.71550 0.59633
 C3235 C 0.89023 0.69604 0.58760
 C3236 C 0.91353 0.69454 0.58492
 C3237 C 0.92686 0.71284 0.59139
 C3238 C 0.91704 0.73242 0.60004
 H3239 H 0.89276 0.84494 0.64539
 H3240 H 0.91062 0.81227 0.62771
 H3241 H 0.84552 0.78301 0.61638
 H3242 H 0.82798 0.81526 0.63460
 H3243 H 0.90766 0.77757 0.60463
 H3244 H 0.86587 0.75159 0.61883
 H3245 H 0.86243 0.71615 0.59823
 H3246 H 0.87957 0.68202 0.58317
 H3247 H 0.94487 0.71209 0.58954
 H3248 H 0.92789 0.74600 0.60518
 C3249 C 0.38406 1.33220 0.63537
 C3250 C 0.39396 1.31325 0.62561
 C3251 C 0.38071 1.29618 0.61634
 C3252 C 0.35732 1.29898 0.61601
 C3253 C 0.34744 1.31797 0.62571
 C3254 C 0.36069 1.33456 0.63583
 C3255 C 0.39180 1.27583 0.60719
 C3256 C 0.38191 1.25556 0.60681
 C3257 C 0.39266 1.23471 0.59829
 C3258 C 0.37888 1.21649 0.59267
 C3259 C 0.38806 1.19635 0.58483
 C3260 C 0.41132 1.19388 0.58256
 C3261 C 0.42522 1.21195 0.58851
 C3262 C 0.41602 1.23217 0.59632
 H3263 H 0.39462 1.34493 0.64282
 H3264 H 0.41202 1.31165 0.62579
 H3265 H 0.34657 1.28662 0.60826
 H3266 H 0.32939 1.31946 0.62576
 H3267 H 0.40883 1.27767 0.60138
 H3268 H 0.36496 1.25396 0.61297
 H3269 H 0.36088 1.21786 0.59428
 H3270 H 0.37694 1.18258 0.58079
 H3271 H 0.44320 1.21051 0.58691
 H3272 H 0.42733 1.24549 0.60109
 C3273 C 0.38509 0.82858 1.14031
 C3274 C 0.39534 0.80875 1.13288
 C3275 C 0.38243 0.79014 1.12643
 C3276 C 0.35896 0.79168 1.12793
 C3277 C 0.34874 0.81151 1.13530
 C3278 C 0.36169 0.83015 1.14155
 C3279 C 0.39402 0.76928 1.11904
 C3280 C 0.38425 0.75357 1.10625
 C3281 C 0.39522 0.73231 1.09913
 C3282 C 0.38155 0.71447 1.09225
 C3283 C 0.39088 0.69427 1.08478
 C3284 C 0.41420 0.69148 1.08377
 C3285 C 0.42798 0.70926 1.09078
 C3286 C 0.41862 0.72953 1.09832
 H3287 H 0.39538 0.84275 1.14511
 H3288 H 0.41343 0.80797 1.13210
 H3289 H 0.34835 0.77751 1.12403
 H3290 H 0.33069 0.81217 1.13661
 H3291 H 0.41118 0.76707 1.12432
 H3292 H 0.36716 0.75602 1.10082
 H3293 H 0.36350 0.71613 1.09271
 H3294 H 0.37980 0.68076 1.07985
 H3295 H 0.44601 0.70769 1.08987
 H3296 H 0.42980 0.74304 1.10287
 C3297 C 0.84000 0.68789 0.86728
 C3298 C 0.84749 0.70836 0.87593
 C3299 C 0.87045 0.71278 0.87792
 C3300 C 0.88584 0.69628 0.87074
 C3301 C 0.87831 0.67579 0.86201
 C3302 C 0.85532 0.67141 0.86016
 C3303 C 0.87744 0.73505 0.88673
 C3304 C 0.89752 0.73906 0.89593
 C3305 C 0.90443 0.76144 0.90460
 C3306 C 0.92735 0.76594 0.90690
 C3307 C 0.93468 0.78680 0.91484
 C3308 C 0.91922 0.80363 0.92084
 C3309 C 0.89626 0.79900 0.91896
 C3310 C 0.88892 0.77814 0.91104
 H3311 H 0.82218 0.68502 0.86584
 H3312 H 0.83527 0.72082 0.88113
 H3313 H 0.90366 0.69921 0.87135
 H3314 H 0.89043 0.66333 0.85665
 H3315 H 0.86524 0.74849 0.88566
 H3316 H 0.90971 0.72560 0.89695
 H3317 H 0.93966 0.75333 0.90236
 H3318 H 0.95247 0.78970 0.91645
 H3319 H 0.88393 0.81163 0.92335
 H3320 H 0.87111 0.77521 0.91029
 C3321 C 0.86469 0.16990 0.38354
 C3322 C 0.87429 0.18902 0.39309
 C3323 C 0.87962 0.20779 0.37983
 C3324 C 0.87608 0.20662 0.35653
 C3325 C 0.86651 0.18743 0.34698
 C3326 C 0.86044 0.16905 0.36045
 C3327 C 0.88877 0.22809 0.39099
 C3328 C 0.88714 0.24894 0.38240
 C3329 C 0.89581 0.26928 0.39380
 C3330 C 0.90168 0.28798 0.38069
 C3331 C 0.90997 0.30751 0.39063
 C3332 C 0.91231 0.30889 0.41399
 C3333 C 0.90585 0.29045 0.42723
 C3334 C 0.89770 0.27079 0.41725
 H3335 H 0.86020 0.15584 0.39419
 H3336 H 0.87706 0.18935 0.41101
 H3337 H 0.88067 0.22038 0.34559
 H3338 H 0.86332 0.18711 0.32915
 H3339 H 0.89651 0.22568 0.40719
 H3340 H 0.87946 0.25143 0.36620
 H3341 H 0.90007 0.28738 0.36264
 H3342 H 0.91444 0.32163 0.38004
 H3343 H 0.90743 0.29112 0.44527
 H3344 H 0.89263 0.25703 0.42798
 C3345 C 0.36009 0.67100 0.38313
 C3346 C 0.36968 0.68966 0.39362
 C3347 C 0.37869 0.70736 0.38091
 C3348 C 0.37855 0.70566 0.35739
 C3349 C 0.36897 0.68701 0.34693
 C3350 C 0.35952 0.66957 0.35968
 C3351 C 0.38847 0.72697 0.39272
 C3352 C 0.38998 0.74754 0.38346
 C3353 C 0.39981 0.76741 0.39480
 C3354 C 0.40678 0.78560 0.38151
 C3355 C 0.41591 0.80484 0.39125
 C3356 C 0.41815 0.80645 0.41460
 C3357 C 0.41091 0.78840 0.42800
 C3358 C 0.40181 0.76907 0.41824
 H3359 H 0.35309 0.65764 0.39329
 H3360 H 0.36982 0.69040 0.41174
 H3361 H 0.38603 0.71850 0.34696
 H3362 H 0.36873 0.68625 0.32883
 H3363 H 0.39416 0.72423 0.40968
 H3364 H 0.38400 0.75014 0.36656
 H3365 H 0.40520 0.78491 0.36346
 H3366 H 0.42090 0.81865 0.38050
 H3367 H 0.41242 0.78919 0.44605
 H3368 H 0.39607 0.75576 0.42918
 C3369 C 0.38471 0.16215 0.87258
 C3370 C 0.39382 0.18148 0.88227
 C3371 C 0.38129 0.20148 0.88344
 C3372 C 0.35918 0.20160 0.87539
 C3373 C 0.34995 0.18213 0.86607
 C3374 C 0.36272 0.16233 0.86444
 C3375 C 0.39151 0.22175 0.89354
 C3376 C 0.38718 0.24264 0.88610
 C3377 C 0.39784 0.26297 0.89563
 C3378 C 0.40192 0.28152 0.88164
 C3379 C 0.41151 0.30116 0.89019
 C3380 C 0.41674 0.30280 0.91304
 C3381 C 0.41245 0.28434 0.92713
 C3382 C 0.40320 0.26454 0.91850
 H3383 H 0.39474 0.14696 0.87148
 H3384 H 0.41081 0.18095 0.88852
 H3385 H 0.34893 0.21663 0.87654
 H3386 H 0.33295 0.18252 0.85984
 H3387 H 0.40403 0.21924 0.90641
 H3388 H 0.37646 0.24490 0.87165
 H3389 H 0.39774 0.28077 0.86401
 H3390 H 0.41440 0.31528 0.87904
 H3391 H 0.41629 0.28524 0.94482
 H3392 H 0.39977 0.25073 0.92984
 C3393 C 1.14542 0.69171 1.15996
 C3394 C 1.13732 0.71232 1.15202
 C3395 C 1.12907 0.71423 1.13012
 C3396 C 1.12951 0.69521 1.11608
 C3397 C 1.13800 0.67468 1.12393
 C3398 C 1.14590 0.67277 1.14595
 C3399 C 1.12109 0.73644 1.12214
 C3400 C 1.10437 0.73882 1.10740
 C3401 C 1.09644 0.76117 1.09970
 C3402 C 1.07373 0.76425 1.09461
 C3403 C 1.06586 0.78520 1.08719
 C3404 C 1.08070 0.80325 1.08422
 C3405 C 1.10348 0.80008 1.08899
 C3406 C 1.11129 0.77927 1.09674
 H3407 H 1.15166 0.69055 1.17693
 H3408 H 1.13736 0.72680 1.16304
 H3409 H 1.12377 0.69631 1.09893
 H3410 H 1.13836 0.66022 1.11291
 H3411 H 1.12844 0.75129 1.12962
 H3412 H 1.09539 0.72407 1.10170
 H3413 H 1.06204 0.75048 1.09658
 H3414 H 1.04825 0.78721 1.08341
 H3415 H 1.11523 0.81377 1.08686
 H3416 H 1.12899 0.77727 1.09999
 C3417 C 1.13146 0.16741 0.61550
 C3418 C 1.12112 0.18627 0.60592
 C3419 C 1.11648 0.20538 0.61895
 C3420 C 1.12172 0.20507 0.64189
 C3421 C 1.13167 0.18609 0.65151
 C3422 C 1.13674 0.16720 0.63836
 C3423 C 1.10584 0.22525 0.60843
 C3424 C 1.11115 0.24631 0.61438
 C3425 C 1.10104 0.26640 0.60379
 C3426 C 1.11410 0.28580 0.60111
 C3427 C 1.10495 0.30524 0.59156
 C3428 C 1.08240 0.30578 0.58508
 C3429 C 1.06917 0.28651 0.58809
 C3430 C 1.07846 0.26688 0.59722
 H3431 H 1.13519 0.15288 0.60520
 H3432 H 1.11707 0.18611 0.58825
 H3433 H 1.11784 0.21936 0.65246
 H3434 H 1.13564 0.18613 0.66919
 H3435 H 1.09445 0.22248 0.59462
 H3436 H 1.12433 0.24901 0.62651
 H3437 H 1.13146 0.28585 0.60626
 H3438 H 1.11536 0.32002 0.58960
 H3439 H 1.05172 0.28665 0.58326
 H3440 H 1.06787 0.25230 0.59959
 C3441 C 0.63037 0.68579 0.65670
 C3442 C 0.62012 0.70558 0.64920
 C3443 C 0.61730 0.70965 0.62622
 C3444 C 0.62415 0.69303 0.61086
 C3445 C 0.63435 0.67321 0.61839
 C3446 C 0.63779 0.66952 0.64135
 C3447 C 0.60713 0.73129 0.61907
 C3448 C 0.61086 0.74073 0.59899
 C3449 C 0.60172 0.76296 0.59220
 C3450 C 0.60004 0.76799 0.56930
 C3451 C 0.59209 0.78896 0.56214
 C3452 C 0.58579 0.80545 0.57778
 C3453 C 0.58765 0.80052 0.60071
 C3454 C 0.59560 0.77956 0.60788
 H3455 H 0.63293 0.68335 0.67448
 H3456 H 0.61483 0.71801 0.66138
 H3457 H 0.62152 0.69510 0.59307
 H3458 H 0.63963 0.66071 0.60630
 H3459 H 0.59686 0.73997 0.63124
 H3460 H 0.62113 0.73203 0.58684
 H3461 H 0.60481 0.75558 0.55689
 H3462 H 0.59070 0.79222 0.54435
 H3463 H 0.58343 0.81309 0.61315
 H3464 H 0.59744 0.77677 0.62567
 C3465 C 0.63280 0.18255 1.15515
 C3466 C 0.62477 0.20338 1.14769
 C3467 C 0.62144 0.20748 1.12477
 C3468 C 0.62652 0.19023 1.10939
 C3469 C 0.63453 0.16939 1.11689
 C3470 C 0.63777 0.16536 1.13982
 C3471 C 0.61356 0.23016 1.11776
 C3472 C 0.60437 0.23471 1.09774
 C3473 C 0.59677 0.25754 1.09091
 C3474 C 0.59513 0.26255 1.06800
 C3475 C 0.58795 0.28380 1.06080
 C3476 C 0.58203 0.30046 1.07641
 C3477 C 0.58342 0.29539 1.09935
 C3478 C 0.59061 0.27416 1.10655
 H3479 H 0.63552 0.17996 1.17289
 H3480 H 0.62122 0.21639 1.15989
 H3481 H 0.62490 0.19277 1.09155
 H3482 H 0.63841 0.15640 1.10478
 H3483 H 0.61547 0.24358 1.12983
 H3484 H 0.60256 0.22144 1.08551
 H3485 H 0.59953 0.24999 1.05560
 H3486 H 0.58672 0.28709 1.04301
 H3487 H 0.57907 0.30791 1.11179
 H3488 H 0.59090 0.27084 1.12434
 C3489 C 1.31789 1.12277 0.84620
 C3490 C 1.29786 1.11319 0.85350
 C3491 C 1.29155 1.11449 0.87605
 C3492 C 1.30583 1.12528 0.89132
 C3493 C 1.32606 1.13457 0.88408
 C3494 C 1.33239 1.13336 0.86144
 C3495 C 1.27034 1.10388 0.88320
 C3496 C 1.25767 1.11226 0.89970
 C3497 C 1.23602 1.10225 0.90632
 C3498 C 1.21907 1.11645 0.91433
 C3499 C 1.19856 1.10760 0.92115
 C3500 C 1.19468 1.08422 0.92066
 C3501 C 1.21175 1.06997 0.91267
 C3502 C 1.23219 1.07889 0.90551
 H3503 H 1.32206 1.12186 0.82859
 H3504 H 1.28713 1.10495 0.84144
 H3505 H 1.30167 1.12608 0.90893
 H3506 H 1.33696 1.14238 0.89625
 H3507 H 1.26434 1.08966 0.87360
 H3508 H 1.26253 1.12786 0.90771
 H3509 H 1.22164 1.13449 0.91510
 H3510 H 1.18568 1.11917 0.92671
 H3511 H 1.20952 1.05187 0.91242
 H3512 H 1.24516 1.06744 0.89993
 C3513 C 1.31087 0.65834 0.36280
 C3514 C 1.29027 0.65092 0.37096
 C3515 C 1.28591 0.62782 0.37343
 C3516 C 1.30246 0.61221 0.36688
 C3517 C 1.32307 0.61967 0.35861
 C3518 C 1.32754 0.64281 0.35669
 C3519 C 1.26378 0.62092 0.38236
 C3520 C 1.25987 0.60097 0.39222
 C3521 C 1.23774 0.59433 0.40140
 C3522 C 1.23296 0.57132 0.40385
 C3523 C 1.21232 0.56426 0.41228
 C3524 C 1.19602 0.58010 0.41870
 C3525 C 1.20096 0.60316 0.41676
 C3526 C 1.22160 0.61022 0.40826
 H3527 H 1.31381 0.67626 0.36119
 H3528 H 1.27777 0.66331 0.37561
 H3529 H 1.29955 0.59426 0.36779
 H3530 H 1.33565 0.60740 0.35391
 H3531 H 1.25038 0.63314 0.38104
 H3532 H 1.27321 0.58869 0.39349
 H3533 H 1.24518 0.55872 0.39900
 H3534 H 1.20916 0.54638 0.41392
 H3535 H 1.18873 0.61577 0.42150
 H3536 H 1.22483 0.62812 0.40741
 C3537 C 0.81219 1.15892 0.36857
 C3538 C 0.79259 1.15212 0.37927
 C3539 C 0.78853 1.12923 0.38347
 C3540 C 0.80484 1.11323 0.37724
 C3541 C 0.82451 1.12008 0.36657
 C3542 C 0.82826 1.14296 0.36200
 C3543 C 0.76727 1.12293 0.39457
 C3544 C 0.75779 1.10259 0.39256
 C3545 C 0.73585 1.09663 0.40250
 C3546 C 0.73064 1.07375 0.40526
 C3547 C 0.70976 1.06723 0.41343
 C3548 C 0.69352 1.08348 0.41890
 C3549 C 0.69875 1.10639 0.41637
 C3550 C 0.71964 1.11293 0.40815
 H3551 H 0.81480 1.17666 0.36524
 H3552 H 0.78040 1.16479 0.38403
 H3553 H 0.80275 1.09551 0.38087
 H3554 H 0.83693 1.10759 0.36201
 H3555 H 0.75891 1.13596 0.40408
 H3556 H 0.76619 1.08958 0.38304
 H3557 H 0.74275 1.06085 0.40096
 H3558 H 0.70627 1.04944 0.41542
 H3559 H 0.68640 1.11925 0.42004
 H3560 H 0.72259 1.13071 0.40560
 C3561 C 0.82777 0.63394 0.88331
 C3562 C 0.80893 0.62363 0.89264
 C3563 C 0.78995 0.61953 0.87948
 C3564 C 0.79036 0.62527 0.85663
 C3565 C 0.80935 0.63516 0.84723
 C3566 C 0.82810 0.63972 0.86054
 C3567 C 0.77014 0.60886 0.88980
 C3568 C 0.74925 0.61468 0.88409
 C3569 C 0.72930 0.60458 0.89467
 C3570 C 0.71020 0.61798 0.89789
 C3571 C 0.69094 0.60884 0.90748
 C3572 C 0.69025 0.58597 0.91348
 C3573 C 0.70921 0.57243 0.90996
 C3574 C 0.72866 0.58169 0.90079
 H3575 H 0.84218 0.63727 0.89373
 H3576 H 0.80903 0.61918 0.91023
 H3577 H 0.77614 0.62183 0.84597
 H3578 H 0.80941 0.63951 0.82962
 H3579 H 0.77285 0.59703 0.90337
 H3580 H 0.74661 0.62827 0.87223
 H3581 H 0.71027 0.63559 0.89310
 H3582 H 0.67640 0.61951 0.90983
 H3583 H 0.70898 0.55473 0.91442
 H3584 H 0.74299 0.57084 0.89803
 C3585 C 1.32903 0.85971 1.11607
 C3586 C 1.30926 0.86730 1.10605
 C3587 C 1.29099 0.87409 1.11921
 C3588 C 1.29277 0.87271 1.14268
 C3589 C 1.31254 0.86518 1.15266
 C3590 C 1.33087 0.85865 1.13947
 C3591 C 1.27020 0.88171 1.10788
 C3592 C 1.25482 0.89484 1.11779
 C3593 C 1.23363 0.90211 1.10705
 C3594 C 1.21597 0.90901 1.12091
 C3595 C 1.19579 0.91644 1.11175
 C3596 C 1.19285 0.91739 1.08844
 C3597 C 1.21051 0.91049 1.07448
 C3598 C 1.23074 0.90298 1.08366
 H3599 H 1.34295 0.85469 1.10559
 H3600 H 1.30828 0.86797 1.08796
 H3601 H 1.27886 0.87686 1.15349
 H3602 H 1.31341 0.86401 1.17073
 H3603 H 1.26776 0.87629 1.09078
 H3604 H 1.25745 0.90039 1.13481
 H3605 H 1.21773 0.90853 1.13895
 H3606 H 1.18240 0.92130 1.12297
 H3607 H 1.20885 0.91138 1.05646
 H3608 H 1.24413 0.89846 1.07235
 C3609 C 1.33078 0.37173 0.61592
 C3610 C 1.31164 0.38183 0.60689
 C3611 C 1.29208 0.38381 0.61973
 C3612 C 1.29220 0.37620 0.64205
 C3613 C 1.31146 0.36647 0.65117
 C3614 C 1.33082 0.36398 0.63812
 C3615 C 1.27194 0.39421 0.60966
 C3616 C 1.25125 0.38709 0.61450
 C3617 C 1.23098 0.39690 0.60414
 C3618 C 1.21247 0.38296 0.60029
 C3619 C 1.19289 0.39176 0.59094
 C3620 C 1.19127 0.41479 0.58577
 C3621 C 1.20966 0.42885 0.58989
 C3622 C 1.22941 0.41996 0.59887
 H3623 H 1.34564 0.37004 0.60569
 H3624 H 1.31197 0.38775 0.58974
 H3625 H 1.27752 0.37799 0.65252
 H3626 H 1.31122 0.36058 0.66834
 H3627 H 1.27433 0.40700 0.59693
 H3628 H 1.24908 0.37268 0.62544
 H3629 H 1.21323 0.36519 0.60442
 H3630 H 1.17882 0.38066 0.58815
 H3631 H 1.20873 0.44668 0.58608
 H3632 H 1.24323 0.43123 0.60214
 C3633 C 0.81092 0.86646 0.66025
 C3634 C 0.79087 0.87565 0.65241
 C3635 C 0.78762 0.87965 0.62947
 C3636 C 0.80491 0.87400 0.61444
 C3637 C 0.82498 0.86479 0.62231
 C3638 C 0.82819 0.86091 0.64528
 C3639 C 0.76571 0.88884 0.62206
 C3640 C 0.76224 0.89890 0.60221
 C3641 C 0.74010 0.90759 0.59492
 C3642 C 0.73584 0.90978 0.57192
 C3643 C 0.71513 0.91761 0.56429
 C3644 C 0.69825 0.92366 0.57953
 C3645 C 0.70266 0.92196 0.60258
 C3646 C 0.72336 0.91409 0.61022
 H3647 H 0.81284 0.86336 0.67801
 H3648 H 0.77780 0.87962 0.66435
 H3649 H 0.80296 0.87613 0.59658
 H3650 H 0.83804 0.86060 0.61046
 H3651 H 0.75193 0.88715 0.63368
 H3652 H 0.77587 0.90050 0.59042
 H3653 H 0.74852 0.90518 0.55979
 H3654 H 0.71236 0.91909 0.54643
 H3655 H 0.68997 0.92642 0.61474
 H3656 H 0.72616 0.91342 0.62808
 C3657 C 0.81199 0.36795 1.15905
 C3658 C 0.79225 0.37779 1.15122
 C3659 C 0.78898 0.38151 1.12824
 C3660 C 0.80620 0.37560 1.11323
 C3661 C 0.82600 0.36581 1.12111
 C3662 C 0.82908 0.36183 1.14408
 C3663 C 0.76766 0.39199 1.12086
 C3664 C 0.75918 0.38969 1.10020
 C3665 C 0.73742 0.39946 1.09306
 C3666 C 0.73322 0.40199 1.07008
 C3667 C 0.71273 0.41046 1.06251
 C3668 C 0.69590 0.41650 1.07779
 C3669 C 0.70003 0.41394 1.10080
 C3670 C 0.72049 0.40543 1.10838
 H3671 H 0.81387 0.36494 1.17683
 H3672 H 0.77934 0.38229 1.16315
 H3673 H 0.80470 0.37885 1.09549
 H3674 H 0.83908 0.36155 1.10930
 H3675 H 0.75851 0.40147 1.13332
 H3676 H 0.76839 0.38021 1.08778
 H3677 H 0.74587 0.39741 1.05790
 H3678 H 0.71009 0.41238 1.04468
 H3679 H 0.68718 0.41797 1.11295
 H3680 H 0.72259 0.40302 1.12619
 C3681 C 0.66754 1.11152 1.13184
 C3682 C 0.68667 1.10230 1.12197
 C3683 C 0.70485 1.11608 1.11623
 C3684 C 0.70310 1.13949 1.11974
 C3685 C 0.68401 1.14866 1.12967
 C3686 C 0.66617 1.13474 1.13608
 C3687 C 0.72515 1.10547 1.10657
 C3688 C 0.74548 1.11493 1.10752
 C3689 C 0.76594 1.10438 1.09825
 C3690 C 0.78386 1.11838 1.09234
 C3691 C 0.80370 1.10925 1.08398
 C3692 C 0.80615 1.08583 1.08160
 C3693 C 0.78835 1.07173 1.08778
 C3694 C 0.76841 1.08089 1.09602
 H3695 H 0.65384 1.10053 1.13640
 H3696 H 0.68745 1.08428 1.11917
 H3697 H 0.71628 1.15087 1.11477
 H3698 H 0.68328 1.16663 1.13269
 H3699 H 0.72320 1.08908 1.09893
 H3700 H 0.74749 1.13128 1.11521
 H3701 H 0.78249 1.13650 1.09415
 H3702 H 0.81729 1.12049 1.07972
 H3703 H 0.78983 1.05361 1.08613
 H3704 H 0.75525 1.06949 1.10105
 C3705 C 0.68538 0.65802 0.63045
 C3706 C 0.70488 0.65095 0.61967
 C3707 C 0.70899 0.62796 0.61600
 C3708 C 0.69282 0.61215 0.62282
 C3709 C 0.67328 0.61926 0.63358
 C3710 C 0.66944 0.64224 0.63760
 C3711 C 0.73017 0.62133 0.60487
 C3712 C 0.73969 0.60097 0.60731
 C3713 C 0.76150 0.59463 0.59726
 C3714 C 0.76665 0.57166 0.59500
 C3715 C 0.78740 0.56481 0.58665
 C3716 C 0.80355 0.58082 0.58050
 C3717 C 0.79840 0.60382 0.58261
 C3718 C 0.77765 0.61069 0.59098
 H3719 H 0.68282 0.67583 0.63346
 H3720 H 0.71697 0.66347 0.61447
 H3721 H 0.69493 0.59435 0.61962
 H3722 H 0.66103 0.60686 0.63865
 H3723 H 0.73842 0.63410 0.59495
 H3724 H 0.73142 0.58824 0.61727
 H3725 H 0.75459 0.55894 0.59979
 H3726 H 0.79083 0.54696 0.58502
 H3727 H 0.81069 0.61652 0.57844
 H3728 H 0.77475 0.62853 0.59315
 C3729 C 0.18461 1.15543 0.63213
 C3730 C 0.20531 1.14797 0.62420
 C3731 C 0.21040 1.12489 0.62343
 C3732 C 0.19435 1.10934 0.63108
 C3733 C 0.17363 1.11684 0.63910
 C3734 C 0.16856 1.13996 0.63972
 C3735 C 0.23286 1.11801 0.61529
 C3736 C 0.23769 1.09748 0.60716
 C3737 C 0.26019 1.09093 0.59880
 C3738 C 0.26570 1.06794 0.59765
 C3739 C 0.28666 1.06098 0.58984
 C3740 C 0.30258 1.07689 0.58283
 C3741 C 0.29698 1.09989 0.58368
 C3742 C 0.27602 1.10684 0.59144
 H3743 H 0.18125 1.17336 0.63266
 H3744 H 0.21740 1.16032 0.61861
 H3745 H 0.19779 1.09145 0.63139
 H3746 H 0.16152 1.10461 0.64488
 H3747 H 0.24575 1.13074 0.61583
 H3748 H 0.22483 1.08471 0.60671
 H3749 H 0.25377 1.05530 0.60293
 H3750 H 0.29032 1.04312 0.58906
 H3751 H 0.30890 1.11258 0.57852
 H3752 H 0.27231 1.12468 0.59128
 C3753 C 0.17356 0.61687 1.14120
 C3754 C 0.19174 0.60603 1.13113
 C3755 C 0.20946 0.61857 1.12211
 C3756 C 0.20809 0.64226 1.12237
 C3757 C 0.18990 0.65308 1.13240
 C3758 C 0.17264 0.64050 1.14226
 C3759 C 0.22892 0.60643 1.11248
 C3760 C 0.24952 0.61531 1.11182
 C3761 C 0.26938 0.60369 1.10237
 C3762 C 0.28771 0.61689 1.09591
 C3763 C 0.30689 0.60691 1.08700
 C3764 C 0.30829 0.58342 1.08450
 C3765 C 0.29017 0.57007 1.09138
 C3766 C 0.27086 0.58009 1.10022
 H3767 H 0.16029 0.60682 1.14840
 H3768 H 0.19222 0.58778 1.13083
 H3769 H 0.22095 0.65255 1.11481
 H3770 H 0.18955 0.67132 1.13291
 H3771 H 0.22611 0.58953 1.10637
 H3772 H 0.25217 0.63212 1.11826
 H3773 H 0.28714 0.63505 1.09763
 H3774 H 0.32076 0.61760 1.08226
 H3775 H 0.29085 0.55192 1.08969
 H3776 H 0.25741 0.56924 1.10563
 C3777 C 0.68909 0.86576 0.83882
 C3778 C 0.70868 0.87621 0.84611
 C3779 C 0.71210 0.88065 0.86893
 C3780 C 0.69515 0.87492 0.88430
 C3781 C 0.67556 0.86448 0.87698
 C3782 C 0.67237 0.85974 0.85420
 C3783 C 0.73329 0.89158 0.87586
 C3784 C 0.74181 0.88995 0.89659
 C3785 C 0.76330 0.90023 0.90360
 C3786 C 0.76734 0.90302 0.92657
 C3787 C 0.78763 0.91177 0.93413
 C3788 C 0.80446 0.91783 0.91887
 C3789 C 0.80045 0.91515 0.89586
 C3790 C 0.78014 0.90637 0.88828
 H3791 H 0.68702 0.86215 0.82119
 H3792 H 0.72136 0.88057 0.83390
 H3793 H 0.69668 0.87875 0.90191
 H3794 H 0.66273 0.86024 0.88906
 H3795 H 0.74227 0.90080 0.86310
 H3796 H 0.73280 0.88060 0.90925
 H3797 H 0.75474 0.89837 0.93876
 H3798 H 0.79014 0.91384 0.95196
 H3799 H 0.81327 0.91924 0.88373
 H3800 H 0.77812 0.90385 0.87049
 C3801 C 0.69064 0.34313 0.36059
 C3802 C 0.71114 0.35093 0.36856
 C3803 C 0.71466 0.37403 0.37205
 C3804 C 0.69738 0.38931 0.36667
 C3805 C 0.67686 0.38147 0.35863
 C3806 C 0.67324 0.35831 0.35577
 C3807 C 0.73664 0.38133 0.38090
 C3808 C 0.73997 0.40093 0.39155
 C3809 C 0.76196 0.40777 0.40075
 C3810 C 0.76637 0.43081 0.40353
 C3811 C 0.78691 0.43800 0.41204
 C3812 C 0.80340 0.42227 0.41822
 C3813 C 0.79882 0.39918 0.41593
 C3814 C 0.77831 0.39198 0.40735
 H3815 H 0.68829 0.32522 0.35818
 H3816 H 0.72422 0.33883 0.37229
 H3817 H 0.69962 0.40730 0.36835
 H3818 H 0.66369 0.39344 0.35484
 H3819 H 0.75046 0.36969 0.37889
 H3820 H 0.72628 0.41271 0.39350
 H3821 H 0.75396 0.44330 0.39888
 H3822 H 0.78983 0.45590 0.41394
 H3823 H 0.81123 0.38667 0.42049
 H3824 H 0.77531 0.37406 0.40623
 C3825 C 0.16786 0.87069 0.38605
 C3826 C 0.18710 0.87969 0.39581
 C3827 C 0.20707 0.88116 0.38354
 C3828 C 0.20735 0.87390 0.36113
 C3829 C 0.18801 0.86526 0.35129
 C3830 C 0.16817 0.86357 0.36369
 C3831 C 0.22707 0.89108 0.39415
 C3832 C 0.24785 0.88407 0.38939
 C3833 C 0.26796 0.89402 0.39975
 C3834 C 0.28675 0.88031 0.40347
 C3835 C 0.30625 0.88934 0.41262
 C3836 C 0.30748 0.91239 0.41771
 C3837 C 0.28879 0.92621 0.41377
 C3838 C 0.26913 0.91709 0.40499
 H3839 H 0.15260 0.86958 0.39576
 H3840 H 0.18647 0.88535 0.41303
 H3841 H 0.22233 0.87533 0.35107
 H3842 H 0.18845 0.85985 0.33400
 H3843 H 0.22451 0.90371 0.40697
 H3844 H 0.25024 0.86981 0.37833
 H3845 H 0.28629 0.86255 0.39935
 H3846 H 0.32057 0.87843 0.41527
 H3847 H 0.28941 0.94404 0.41752
 H3848 H 0.25510 0.92820 0.40179
 C3849 C 0.17451 0.35669 0.88086
 C3850 C 0.19402 0.36422 0.89125
 C3851 C 0.21263 0.37067 0.87846
 C3852 C 0.21142 0.36910 0.85495
 C3853 C 0.19189 0.36160 0.84459
 C3854 C 0.17327 0.35538 0.85745
 C3855 C 0.23314 0.37809 0.89026
 C3856 C 0.24886 0.39097 0.88067
 C3857 C 0.26966 0.39820 0.89202
 C3858 C 0.28771 0.40502 0.87866
 C3859 C 0.30749 0.41260 0.88838
 C3860 C 0.30963 0.41378 0.91177
 C3861 C 0.29166 0.40683 0.92524
 C3862 C 0.27180 0.39919 0.91549
 H3863 H 0.16035 0.35180 0.89105
 H3864 H 0.19456 0.36504 0.90936
 H3865 H 0.22562 0.37302 0.84445
 H3866 H 0.19142 0.36016 0.82653
 H3867 H 0.23506 0.37276 0.90747
 H3868 H 0.24676 0.39640 0.86350
 H3869 H 0.28653 0.40443 0.86057
 H3870 H 0.32118 0.41751 0.87756
 H3871 H 0.29275 0.40787 0.94330
 H3872 H 0.25810 0.39473 0.92642
   
