data_POSCAR
  _audit_creation_date              2014-09-24
  _audit_creation_method            'ToBaCCo'
  _symmetry_space_group_name_H-M    'P1'
  _symmetry_Int_Tables_number       1
  _symmetry_cell_setting            triclinic
  loop_
  _symmetry_equiv_pos_as_xyz
 x,y,z
_cell_length_a 41.7600
_cell_length_b 44.6764
_cell_length_c 48.6507
_cell_angle_alpha 89.850500
_cell_angle_beta 89.917700
_cell_angle_gamma 89.921700
loop_
  _atom_site_label
  _atom_site_type_symbol
  _atom_site_fract_x
  _atom_site_fract_y
  _atom_site_fract_z
Zr1 Zr 0.25427 0.24683 0.29668
 O2 O 0.27764 0.26305 0.33228
 O3 O 0.21722 0.22072 0.31384
 O4 O 0.22466 0.27490 0.32028
 O5 O 0.31069 0.19155 0.28474
 O6 O 0.20563 0.30914 0.28947
 O7 O 0.27976 0.21316 0.31792
 O8 O 0.18991 0.20398 0.27632
 O9 O 0.21526 0.25567 0.27096
 O10 O 0.25234 0.21134 0.26890
 O11 O 0.26407 0.28865 0.27846
 O12 O 0.29938 0.24636 0.27695
 Zr13 Zr 0.26727 0.26136 0.20217
 Zr14 Zr 0.22593 0.29627 0.25145
 Zr15 Zr 0.29582 0.21205 0.24782
 Zr16 Zr 0.21482 0.22105 0.24223
 O17 O 0.34642 0.20959 0.24897
 O18 O 0.16624 0.23438 0.23857
 O19 O 0.25794 0.21922 0.22022
 O20 O 0.22266 0.26189 0.22233
 O21 O 0.26940 0.29718 0.22978
 O22 O 0.30612 0.25241 0.22799
 C23 C 0.19419 0.20623 0.30235
 C24 C 0.30151 0.19468 0.30986
 C25 C 0.20802 0.29813 0.31392
 O26 O 0.17566 0.29892 0.24665
 O27 O 0.21505 0.32024 0.21531
 O28 O 0.24429 0.29721 0.18175
 C29 C 0.22431 0.31719 0.19021
 O30 O 0.32642 0.29605 0.29587
 Zr31 Zr 0.30712 0.28716 0.25631
 O32 O 0.30343 0.28790 0.18454
 O33 O 0.23612 0.34196 0.25856
 O34 O 0.30536 0.33415 0.26224
 O35 O 0.35625 0.27511 0.25731
 O36 O 0.32901 0.30743 0.22179
 C37 C 0.32469 0.30477 0.19572
 O38 O 0.24231 0.24751 0.16652
 O39 O 0.28603 0.16570 0.24465
 O40 O 0.29299 0.23002 0.17819
 O41 O 0.31096 0.19578 0.20950
 O42 O 0.21481 0.17375 0.23863
 O43 O 0.19959 0.20869 0.20216
 C44 C 0.30749 0.20554 0.18477
 H45 H 0.24913 0.19176 0.27807
 H46 H 0.20497 0.26546 0.20920
 H47 H 0.32662 0.25083 0.21784
 H48 H 0.26556 0.30459 0.29250
 H49 H 0.15290 0.21610 0.23986
 H50 H 0.16964 0.32018 0.24935
 H51 H 0.21544 0.35281 0.25756
 H52 H 0.32741 0.34194 0.25990
 H53 H 0.19230 0.16694 0.24020
 H54 H 0.30690 0.15517 0.24559
 H55 H 0.35220 0.18823 0.24666
 H56 H 0.36888 0.29378 0.25559
 H57 H 0.17961 0.19685 0.20349
 H58 H 0.25365 0.25609 0.15038
 H59 H 0.26684 0.25408 0.34850
 H60 H 0.34364 0.31117 0.29425
 Zr61 Zr 0.74713 0.75168 0.29718
 O62 O 0.72279 0.72457 0.32622
 O63 O 0.77479 0.77946 0.32265
 O64 O 0.77941 0.72499 0.31978
 O65 O 0.68375 0.80046 0.28703
 O66 O 0.80975 0.70223 0.28688
 O67 O 0.71314 0.77628 0.31982
 O68 O 0.80437 0.80645 0.29196
 O69 O 0.79038 0.75459 0.27561
 O70 O 0.74561 0.79205 0.27545
 O71 O 0.74866 0.71333 0.27219
 O72 O 0.70560 0.74925 0.27252
 Zr73 Zr 0.75007 0.75495 0.20142
 Zr74 Zr 0.79091 0.71766 0.24932
 Zr75 Zr 0.70607 0.78904 0.24949
 Zr76 Zr 0.78776 0.79402 0.25277
 O77 O 0.65603 0.78291 0.24576
 O78 O 0.83831 0.78936 0.25282
 O79 O 0.74820 0.79363 0.22623
 O80 O 0.79110 0.75733 0.22630
 O81 O 0.75156 0.71435 0.22288
 O82 O 0.70691 0.75223 0.22311
 C83 C 0.79654 0.79875 0.31658
 C84 C 0.69017 0.79364 0.31220
 C85 C 0.80222 0.70752 0.31207
 O86 O 0.84115 0.72383 0.24892
 O87 O 0.80987 0.70236 0.21190
 O88 O 0.78149 0.72723 0.17890
 C89 C 0.80316 0.70853 0.18672
 O90 O 0.68661 0.69347 0.28054
 Zr91 Zr 0.70923 0.71261 0.24552
 O92 O 0.72281 0.72725 0.17575
 O93 O 0.78943 0.67033 0.24976
 O94 O 0.71955 0.66612 0.24528
 O95 O 0.65880 0.71596 0.24137
 O96 O 0.69767 0.69602 0.20599
 C97 C 0.70480 0.70477 0.18144
 O98 O 0.77674 0.77976 0.17215
 O99 O 0.70675 0.83621 0.25334
 O100 O 0.72149 0.78546 0.17923
 O101 O 0.69238 0.80950 0.21228
 O102 O 0.77918 0.84059 0.25690
 O103 O 0.80516 0.81700 0.21749
 C104 C 0.70106 0.80525 0.18717
 H105 H 0.74373 0.80972 0.28758
 H106 H 0.81073 0.75912 0.21498
 H107 H 0.68796 0.75244 0.21090
 H108 H 0.74885 0.69488 0.28350
 H109 H 0.84747 0.80873 0.25879
 H110 H 0.85098 0.70363 0.24945
 H111 H 0.81195 0.66330 0.24938
 H112 H 0.69999 0.65560 0.23905
 H113 H 0.79965 0.85001 0.26246
 H114 H 0.68415 0.84300 0.25331
 H115 H 0.64630 0.80315 0.24569
 H116 H 0.65086 0.69610 0.23548
 H117 H 0.82219 0.83115 0.22302
 H118 H 0.76987 0.77304 0.15365
 H119 H 0.72932 0.73139 0.34478
 H120 H 0.67305 0.67645 0.27474
 Zr121 Zr 0.76207 0.23720 -0.29577
 O122 O 0.73828 0.25975 -0.32824
 O123 O 0.79398 0.20912 -0.31741
 O124 O 0.79335 0.26438 -0.31881
 O125 O 0.70049 0.18688 -0.28461
 O126 O 0.81948 0.29204 -0.28650
 O127 O 0.73089 0.20898 -0.31792
 O128 O 0.82290 0.18692 -0.28320
 O129 O 0.80373 0.23892 -0.27197
 O130 O 0.76160 0.19886 -0.27115
 O131 O 0.75913 0.27762 -0.27364
 O132 O 0.71882 0.23951 -0.27324
 Zr133 Zr 0.75826 0.24228 -0.20000
 Zr134 Zr 0.79987 0.27803 -0.24861
 Zr135 Zr 0.72016 0.20195 -0.24734
 Zr136 Zr 0.80203 0.20146 -0.24633
 O137 O 0.66961 0.20524 -0.24606
 O138 O 0.85211 0.20881 -0.24390
 O139 O 0.76067 0.20162 -0.22184
 O140 O 0.80105 0.24045 -0.22275
 O141 O 0.75861 0.28107 -0.22425
 O142 O 0.71666 0.24079 -0.22377
 C143 C 0.81662 0.19197 -0.30860
 C144 C 0.70792 0.19181 -0.30991
 C145 C 0.81377 0.28435 -0.31154
 O146 O 0.85031 0.27481 -0.24588
 O147 O 0.81497 0.29761 -0.21148
 O148 O 0.78719 0.27258 -0.17816
 C149 C 0.80762 0.29228 -0.18622
 O150 O 0.69654 0.29324 -0.28614
 Zr151 Zr 0.71799 0.27843 -0.24891
 O152 O 0.72785 0.27077 -0.17782
 O153 O 0.79525 0.32503 -0.25230
 O154 O 0.72531 0.32530 -0.25176
 O155 O 0.66768 0.27237 -0.24684
 O156 O 0.70268 0.29767 -0.21136
 C157 C 0.70881 0.29158 -0.18597
 O158 O 0.78382 0.22121 -0.16770
 O159 O 0.72430 0.15473 -0.24797
 O160 O 0.72978 0.21231 -0.17698
 O161 O 0.70496 0.18402 -0.20960
 O162 O 0.79673 0.15427 -0.24761
 O163 O 0.81783 0.18272 -0.20850
 C164 C 0.71115 0.19090 -0.18450
 H165 H 0.76169 0.18018 -0.28206
 H166 H 0.81997 0.24073 -0.21051
 H167 H 0.69692 0.24056 -0.21248
 H168 H 0.75872 0.29506 -0.28624
 H169 H 0.86291 0.18944 -0.24750
 H170 H 0.85875 0.29547 -0.24731
 H171 H 0.81718 0.33342 -0.25144
 H172 H 0.70475 0.33520 -0.24716
 H173 H 0.81821 0.14559 -0.25111
 H174 H 0.70223 0.14664 -0.24844
 H175 H 0.66124 0.18453 -0.24502
 H176 H 0.65801 0.29211 -0.24266
 H177 H 0.83580 0.16875 -0.21198
 H178 H 0.77522 0.22907 -0.15011
 H179 H 0.74666 0.25155 -0.34578
 H180 H 0.68151 0.30986 -0.28219
 Zr181 Zr 0.22428 0.75646 -0.29260
 O182 O 0.24891 0.73499 -0.32517
 O183 O 0.18991 0.78218 -0.31393
 O184 O 0.19431 0.72688 -0.31426
 O185 O 0.28038 0.81265 -0.28452
 O186 O 0.17188 0.69781 -0.28079
 O187 O 0.25167 0.78658 -0.31624
 O188 O 0.16021 0.80291 -0.27954
 O189 O 0.18365 0.75183 -0.26779
 O190 O 0.22197 0.79512 -0.26865
 O191 O 0.23186 0.71686 -0.26994
 O192 O 0.26839 0.75819 -0.27133
 Zr193 Zr 0.23159 0.75352 -0.19706
 Zr194 Zr 0.19210 0.71363 -0.24390
 Zr195 Zr 0.26438 0.79605 -0.24613
 Zr196 Zr 0.18266 0.78968 -0.24281
 O197 O 0.31503 0.79669 -0.24696
 O198 O 0.13363 0.77781 -0.23977
 O199 O 0.22474 0.79345 -0.21954
 O200 O 0.18804 0.75129 -0.21853
 O201 O 0.23423 0.71453 -0.22068
 O202 O 0.27218 0.75804 -0.22195
 C203 C 0.16649 0.79840 -0.30508
 C204 C 0.27259 0.80639 -0.30954
 C205 C 0.17579 0.70565 -0.30607
 O206 O 0.14179 0.71257 -0.23879
 O207 O 0.18163 0.69264 -0.20624
 O208 O 0.20806 0.71998 -0.17397
 C209 C 0.19002 0.69798 -0.18124
 O210 O 0.29550 0.70634 -0.28372
 Zr211 Zr 0.27373 0.71993 -0.24626
 O212 O 0.26529 0.72858 -0.17504
 O213 O 0.20077 0.66715 -0.24785
 O214 O 0.27073 0.67260 -0.24816
 O215 O 0.32334 0.72999 -0.24539
 O216 O 0.29162 0.70257 -0.20848
 C217 C 0.28565 0.70891 -0.18308
 O218 O 0.20441 0.77265 -0.16479
 O219 O 0.25583 0.84275 -0.24679
 O220 O 0.25793 0.78609 -0.17533
 O221 O 0.27980 0.81536 -0.20902
 O222 O 0.18322 0.83713 -0.24423
 O223 O 0.16577 0.80727 -0.20491
 C224 C 0.27491 0.80843 -0.18364
 H225 H 0.21981 0.81363 -0.27974
 H226 H 0.16975 0.74941 -0.20567
 H227 H 0.29218 0.76004 -0.21121
 H228 H 0.23340 0.69935 -0.28231
 H229 H 0.12085 0.79605 -0.24359
 H230 H 0.13533 0.69127 -0.23973
 H231 H 0.17981 0.65698 -0.24586
 H232 H 0.29224 0.66450 -0.24378
 H233 H 0.16090 0.84396 -0.24721
 H234 H 0.27702 0.85258 -0.24826
 H235 H 0.32153 0.81800 -0.24649
 H236 H 0.33483 0.71116 -0.24098
 H237 H 0.14590 0.81887 -0.20813
 H238 H 0.21422 0.76593 -0.14726
 H239 H 0.23926 0.74207 -0.34265
 H240 H 0.31209 0.69105 -0.27985
 Zr241 Zr 1.24216 1.25243 0.80073
 O242 O 1.22063 1.22957 0.83416
 O243 O 1.27026 1.28383 0.82144
 O244 O 1.27633 1.22902 0.82457
 O245 O 1.17766 1.29939 0.78743
 O246 O 1.30367 1.20121 0.79303
 O247 O 1.20829 1.27900 0.82159
 O248 O 1.29742 1.30739 0.78690
 O249 O 1.28400 1.25210 0.77702
 O250 O 1.23904 1.28954 0.77453
 O251 O 1.24230 1.21090 0.78062
 O252 O 1.19913 1.24724 0.77857
 Zr253 Zr 1.23839 1.24181 0.70553
 Zr254 Zr 1.28272 1.21181 0.75509
 Zr255 Zr 1.19811 1.28332 0.75069
 Zr256 Zr 1.27980 1.28816 0.75006
 O257 O 1.14783 1.27762 0.74935
 O258 O 1.33026 1.28284 0.74962
 O259 O 1.23874 1.28392 0.72532
 O260 O 1.28105 1.24799 0.72779
 O261 O 1.24147 1.20470 0.73162
 O262 O 1.19695 1.24281 0.72961
 C263 C 1.29066 1.30301 0.81249
 C264 C 1.18488 1.29523 0.81290
 C265 C 1.29808 1.20994 0.81774
 O266 O 1.33285 1.21765 0.75169
 O267 O 1.29958 1.19156 0.71882
 O268 O 1.26816 1.21106 0.68492
 C269 C 1.29092 1.19405 0.69354
 O270 O 1.18123 1.19409 0.79530
 Zr271 Zr 1.20098 1.20687 0.75674
 O272 O 1.20759 1.21142 0.68552
 O273 O 1.28134 1.16486 0.76076
 O274 O 1.21095 1.16065 0.76202
 O275 O 1.15033 1.20974 0.75493
 O276 O 1.18636 1.18449 0.72104
 C277 C 1.19003 1.19024 0.69539
 O278 O 1.26290 1.26159 0.67192
 O279 O 1.19936 1.33066 0.74933
 O280 O 1.20869 1.26864 0.68101
 O281 O 1.18290 1.29886 0.71166
 O282 O 1.27068 1.33481 0.74766
 O283 O 1.29666 1.30555 0.71200
 C284 C 1.18968 1.29027 0.68701
 H285 H 1.23758 1.30875 0.78455
 H286 H 1.29986 1.24810 0.71537
 H287 H 1.17708 1.24154 0.71861
 H288 H 1.24330 1.19418 0.79398
 H289 H 1.33982 1.30272 0.75327
 H290 H 1.34275 1.19765 0.75414
 H291 H 1.30380 1.15771 0.76014
 H292 H 1.19075 1.14957 0.75886
 H293 H 1.29103 1.34527 0.75174
 H294 H 1.17683 1.33762 0.74929
 H295 H 1.13842 1.29786 0.74719
 H296 H 1.14199 1.18912 0.75283
 H297 H 1.31390 1.32026 0.71549
 H298 H 1.25467 1.25226 0.65483
 H299 H 1.22826 1.23923 0.85129
 H300 H 1.16740 1.17631 0.79287
 Zr301 Zr 0.76710 0.75939 0.80236
 O302 O 0.78733 0.78524 0.83434
 O303 O 0.73861 0.72942 0.82448
 O304 O 0.73118 0.78365 0.82325
 O305 O 0.83207 0.71203 0.79477
 O306 O 0.70481 0.80871 0.78915
 O307 O 0.79888 0.73366 0.82639
 O308 O 0.71351 0.70253 0.79104
 O309 O 0.72641 0.75743 0.77739
 O310 O 0.77179 0.72043 0.77897
 O311 O 0.76749 0.79924 0.77936
 O312 O 0.81119 0.76341 0.78146
 Zr313 Zr 0.77537 0.76213 0.70698
 Zr314 Zr 0.72832 0.79593 0.75268
 Zr315 Zr 0.81387 0.72527 0.75635
 Zr316 Zr 0.73216 0.71934 0.75333
 O317 O 0.86407 0.73168 0.75693
 O318 O 0.68173 0.72434 0.75137
 O319 O 0.77451 0.72184 0.72981
 O320 O 0.73163 0.75760 0.72818
 O321 O 0.77067 0.80130 0.73010
 O322 O 0.81560 0.76384 0.73236
 C323 C 0.71922 0.70901 0.81643
 C324 C 0.82281 0.71702 0.81959
 C325 C 0.70920 0.80155 0.81453
 O326 O 0.67854 0.78945 0.74725
 O327 O 0.71423 0.81378 0.71433
 O328 O 0.74650 0.79058 0.68306
 C329 C 0.72402 0.80890 0.68960
 O330 O 0.82734 0.81878 0.79446
 Zr331 Zr 0.80991 0.80184 0.75655
 O332 O 0.80611 0.79144 0.68552
 O333 O 0.72882 0.84316 0.75574
 O334 O 0.79881 0.84817 0.75716
 O335 O 0.86062 0.79943 0.75731
 O336 O 0.82685 0.82054 0.71960
 C337 C 0.82369 0.81309 0.69427
 O338 O 0.75270 0.73891 0.67446
 O339 O 0.81328 0.67792 0.75784
 O340 O 0.80708 0.73395 0.68558
 O341 O 0.83217 0.70736 0.71938
 O342 O 0.74144 0.67267 0.75428
 O343 O 0.71705 0.69901 0.71610
 C344 C 0.82665 0.71367 0.69395
 H345 H 0.77290 0.70195 0.79020
 H346 H 0.71347 0.75638 0.71517
 H347 H 0.83601 0.76449 0.72201
 H348 H 0.76560 0.81692 0.79149
 H349 H 0.67215 0.70474 0.75622
 H350 H 0.66844 0.80952 0.74796
 H351 H 0.70638 0.84997 0.75352
 H352 H 0.81894 0.85925 0.75359
 H353 H 0.72091 0.66244 0.75834
 H354 H 0.83585 0.67127 0.75941
 H355 H 0.87394 0.71150 0.75674
 H356 H 0.86893 0.81984 0.75370
 H357 H 0.69936 0.68488 0.72003
 H358 H 0.76163 0.74671 0.65693
 H359 H 0.77892 0.77714 0.85193
 H360 H 0.84061 0.83674 0.79095
 Zr361 Zr 1.25166 0.74678 0.20035
 O362 O 1.23170 0.77237 0.16790
 O363 O 1.27909 0.71579 0.17853
 O364 O 1.28742 0.77004 0.17836
 O365 O 1.18590 0.70105 0.21028
 O366 O 1.31510 0.79514 0.21151
 O367 O 1.21795 0.72210 0.17747
 O368 O 1.30423 0.68886 0.21211
 O369 O 1.29284 0.74416 0.22473
 O370 O 1.24640 0.70843 0.22466
 O371 O 1.25304 0.78707 0.22244
 O372 O 1.20822 0.75245 0.22184
 Zr373 Zr 1.24542 0.75192 0.29592
 Zr374 Zr 1.29261 0.78314 0.24866
 Zr375 Zr 1.20506 0.71502 0.24795
 Zr376 Zr 1.28649 0.70676 0.24976
 O377 O 1.15505 0.72274 0.24751
 O378 O 1.33707 0.71032 0.25115
 O379 O 1.24479 0.71109 0.27401
 O380 O 1.28856 0.74549 0.27411
 O381 O 1.25091 0.79031 0.27166
 O382 O 1.20486 0.75421 0.27096
 C383 C 1.29833 0.69520 0.18667
 C384 C 1.19414 0.70581 0.18516
 C385 C 1.30972 0.78788 0.18634
 O386 O 1.34230 0.77510 0.25292
 O387 O 1.30858 0.80100 0.28633
 O388 O 1.27581 0.78008 0.31862
 C389 C 1.29904 0.79722 0.31130
 O390 O 1.19333 0.80742 0.20750
 Zr391 Zr 1.21122 0.79137 0.24568
 O392 O 1.21607 0.78297 0.31693
 O393 O 1.29344 0.83035 0.24513
 O394 O 1.22349 0.83736 0.24324
 O395 O 1.16044 0.79053 0.24613
 O396 O 1.19618 0.81189 0.28216
 C397 C 1.19943 0.80513 0.30764
 O398 O 1.26783 0.72885 0.32879
 O399 O 1.20453 0.66765 0.24809
 O400 O 1.21306 0.72524 0.31842
 O401 O 1.18638 0.69900 0.28549
 O402 O 1.27558 0.66041 0.24980
 O403 O 1.30176 0.68657 0.28712
 C404 C 1.19236 0.70569 0.31070
 H405 H 1.24455 0.68981 0.21380
 H406 H 1.30695 0.74397 0.28686
 H407 H 1.18467 0.75580 0.28154
 H408 H 1.25511 0.80447 0.20993
 H409 H 1.34601 0.69040 0.24652
 H410 H 1.35305 0.79482 0.25166
 H411 H 1.31616 0.83652 0.24659
 H412 H 1.20372 0.84909 0.24662
 H413 H 1.29562 0.64946 0.24548
 H414 H 1.18179 0.66147 0.24688
 H415 H 1.14461 0.70285 0.24841
 H416 H 1.15292 0.81132 0.24914
 H417 H 1.31865 0.67161 0.28315
 H418 H 1.25946 0.73743 0.34618
 H419 H 1.23949 0.76357 0.15041
 H420 H 1.18049 0.82575 0.21060
 Zr421 Zr 0.73298 1.25541 0.20405
 O422 O 0.75291 1.23685 0.16782
 O423 O 0.70011 1.28601 0.18732
 O424 O 0.69909 1.23080 0.18122
 O425 O 0.79516 1.30518 0.21577
 O426 O 0.67775 1.19832 0.21250
 O427 O 0.76286 1.28551 0.18259
 O428 O 0.67401 1.30407 0.22501
 O429 O 0.69375 1.25006 0.23041
 O430 O 0.73537 1.29074 0.23208
 O431 O 0.73856 1.21272 0.22172
 O432 O 0.77824 1.25185 0.22308
 Zr433 Zr 0.74674 1.23855 0.29819
 Zr434 Zr 0.70069 1.20858 0.24972
 Zr435 Zr 0.77883 1.28593 0.25276
 Zr436 Zr 0.69741 1.28437 0.25916
 O437 O 0.82944 1.28419 0.25091
 O438 O 0.64782 1.27521 0.26324
 O439 O 0.74090 1.28168 0.28080
 O440 O 0.70178 1.24282 0.27897
 O441 O 0.74444 1.20314 0.27020
 O442 O 0.78551 1.24439 0.27151
 C443 C 0.67856 1.30232 0.19887
 C444 C 0.78618 1.30215 0.19061
 C445 C 0.68026 1.20922 0.18809
 O446 O 0.65060 1.21046 0.25613
 O447 O 0.68858 1.18499 0.28571
 O448 O 0.72087 1.20463 0.31883
 C449 C 0.69880 1.18665 0.31060
 O450 O 0.79913 1.20093 0.20241
 Zr451 Zr 0.78213 1.21017 0.24271
 O452 O 0.78162 1.20905 0.31436
 O453 O 0.70583 1.16230 0.24171
 O454 O 0.77553 1.16369 0.23602
 O455 O 0.83229 1.21731 0.24083
 O456 O 0.80269 1.18720 0.27603
 C457 C 0.80053 1.19047 0.30217
 O458 O 0.72421 1.25405 0.33453
 O459 O 0.77350 1.33286 0.25649
 O460 O 0.77634 1.26636 0.32207
 O461 O 0.79621 1.30021 0.29128
 O462 O 0.70266 1.33136 0.26324
 O463 O 0.68329 1.29793 0.29924
 C464 C 0.79275 1.28977 0.31585
 H465 H 0.73423 1.31060 0.22306
 H466 H 0.68418 1.24070 0.29248
 H467 H 0.80640 1.24399 0.28109
 H468 H 0.73788 1.19688 0.20754
 H469 H 0.63623 1.29451 0.26165
 H470 H 0.64227 1.18993 0.25328
 H471 H 0.68419 1.15335 0.24326
 H472 H 0.79682 1.15396 0.23731
 H473 H 0.68110 1.34041 0.26128
 H474 H 0.79527 1.34157 0.25533
 H475 H 0.83721 1.30494 0.25343
 H476 H 0.84281 1.19742 0.24141
 H477 H 0.66479 1.31175 0.29789
 H478 H 0.73496 1.24421 0.35035
 H479 H 0.74277 1.24713 0.15194
 H480 H 0.81452 1.18407 0.20309
 N481 N 0.46211 0.94307 0.02497
 N482 N 0.45706 0.92276 0.04424
 N483 N 0.43939 0.96527 -0.03164
 N484 N 0.41734 0.95968 -0.05040
 N485 N 0.46233 0.94514 -0.03275
 N486 N 0.45670 0.92554 -0.05238
 N487 N 0.44018 0.96413 0.02607
 N488 N 0.41971 0.95884 0.04618
 C489 C 0.43061 0.93302 0.05733
 C490 C 0.42869 0.93497 -0.06327
 N491 N 0.46128 1.05087 -0.02985
 N492 N 0.45467 1.07194 -0.04805
 N493 N 0.43966 1.02894 0.02739
 N494 N 0.41880 1.03409 0.04733
 N495 N 0.46253 1.04907 0.02777
 N496 N 0.45835 1.06803 0.04813
 N497 N 0.43934 1.02984 -0.03034
 N498 N 0.41743 1.03582 -0.04907
 Mn499 Mn 0.43927 0.99703 -0.00210
 C500 C 0.42742 1.06204 -0.05999
 C501 C 0.43106 1.05847 0.06011
 N502 N 0.53164 0.94509 -0.03279
 N503 N 0.53812 0.92555 -0.05240
 N504 N 0.55338 0.96388 0.02548
 N505 N 0.57364 0.95857 0.04576
 N506 N 0.53090 0.94336 0.02494
 N507 N 0.53498 0.92375 0.04491
 N508 N 0.55342 0.96626 -0.03229
 N509 N 0.57499 0.96200 -0.05171
 Mn510 Mn 0.49675 0.94385 -0.00398
 C511 C 0.56510 0.93664 -0.06412
 C512 C 0.56169 0.93348 0.05767
 N513 N 0.53114 1.04952 0.02718
 N514 N 0.53719 1.06955 0.04637
 N515 N 0.55321 1.03062 -0.03055
 N516 N 0.57451 1.03677 -0.04984
 N517 N 0.53029 1.05077 -0.03048
 N518 N 0.53514 1.07101 -0.04980
 N519 N 0.55314 1.02852 0.02713
 N520 N 0.57473 1.03361 0.04636
 Mn521 Mn 0.49630 1.05032 -0.00139
 Mn522 Mn 0.55364 0.99729 -0.00252
 Cl523 Cl 0.49648 0.99711 -0.00252
 C524 C 0.56431 1.05917 0.05826
 C525 C 0.56270 1.06192 -0.06172
 N526 N 1.05319 0.52571 0.53007
 N527 N 1.07517 0.54568 0.53667
 N528 N 1.02769 0.46264 0.54508
 N529 N 1.03149 0.44096 0.56310
 N530 N 1.05123 0.46289 0.52713
 N531 N 1.07227 0.44158 0.53306
 N532 N 1.03011 0.52539 0.54843
 N533 N 1.03579 0.54504 0.56803
 C534 C 1.06385 0.55768 0.56030
 C535 C 1.05912 0.42790 0.55537
 N536 N 0.93739 0.46562 0.52522
 N537 N 0.91517 0.44510 0.52979
 N538 N 0.96110 0.52714 0.54749
 N539 N 0.95599 0.54706 0.56695
 N540 N 0.93860 0.52853 0.52870
 N541 N 0.91756 0.54961 0.53489
 N542 N 0.95951 0.46445 0.54434
 N543 N 0.95319 0.44307 0.56221
 Mn544 Mn 0.99462 0.49499 0.54650
 C545 C 0.92567 0.43099 0.55281
 C546 C 0.92892 0.56108 0.55873
 N547 N 1.05253 0.46703 0.46700
 N548 N 1.07412 0.44690 0.45943
 N549 N 1.03209 0.53221 0.45212
 N550 N 1.03938 0.55325 0.43413
 N551 N 1.05458 0.52979 0.47085
 N552 N 1.07775 0.54927 0.46607
 N553 N 1.03014 0.46954 0.44818
 N554 N 1.03550 0.45101 0.42769
 Mn555 Mn 1.05330 0.49623 0.49877
 C556 C 1.06273 0.43687 0.43500
 C557 C 1.06771 0.56397 0.44326
 N558 N 0.93982 0.53257 0.46962
 N559 N 0.91808 0.55341 0.46484
 N560 N 0.96178 0.47124 0.44724
 N561 N 0.95680 0.45227 0.42706
 N562 N 0.93864 0.46977 0.46550
 N563 N 0.91696 0.44978 0.45792
 N564 N 0.96289 0.53393 0.45128
 N565 N 0.95738 0.55565 0.43346
 Mn566 Mn 0.93821 0.49903 0.49725
 Mn567 Mn 0.99673 0.50185 0.44955
 Cl568 Cl 0.99573 0.49801 0.49800
 C569 C 0.92955 0.56782 0.44242
 C570 C 0.92901 0.43889 0.43398
 N571 N 1.05265 0.46224 0.03303
 N572 N 1.07453 0.45584 0.05171
 N573 N 1.02925 0.44304 -0.02435
 N574 N 1.03345 0.42400 -0.04475
 N575 N 1.05168 0.46364 -0.02467
 N576 N 1.07159 0.45933 -0.04535
 N577 N 1.02957 0.44228 0.03346
 N578 N 1.03510 0.42183 0.05255
 C579 C 1.06313 0.43070 0.06382
 C580 C 1.05991 0.43456 -0.05766
 N581 N 0.93885 0.46647 -0.02395
 N582 N 0.91808 0.46284 -0.04409
 N583 N 0.96011 0.44404 0.03373
 N584 N 0.95384 0.42445 0.05342
 N585 N 0.93885 0.46574 0.03389
 N586 N 0.91792 0.46184 0.05388
 N587 N 0.96015 0.44482 -0.02396
 N588 N 0.95433 0.42573 -0.04400
 Mn589 Mn 0.99477 0.44316 0.00477
 C590 C 0.92810 0.43740 -0.05641
 C591 C 0.92755 0.43606 0.06585
 N592 N 1.05386 0.52832 -0.02371
 N593 N 1.07464 0.53365 -0.04368
 N594 N 1.03254 0.54799 0.03438
 N595 N 1.03923 0.56788 0.05347
 N596 N 1.05419 0.52666 0.03403
 N597 N 1.07607 0.53128 0.05309
 N598 N 1.03168 0.54914 -0.02322
 N599 N 1.03628 0.56886 -0.04299
 Mn600 Mn 1.05347 0.49518 0.00464
 C601 C 1.06311 0.55898 -0.05554
 C602 C 1.06626 0.55698 0.06508
 N603 N 0.94046 0.52993 0.03449
 N604 N 0.91802 0.53669 0.05256
 N605 N 0.96337 0.55100 -0.02268
 N606 N 0.95836 0.57186 -0.04137
 N607 N 0.94044 0.53097 -0.02312
 N608 N 0.91895 0.53783 -0.04203
 N609 N 0.96353 0.54986 0.03499
 N610 N 0.95739 0.57072 0.05342
 Mn611 Mn 0.93933 0.49822 0.00528
 Mn612 Mn 0.99781 0.54973 0.00594
 Cl613 Cl 0.99635 0.49655 0.00519
 C614 C 0.92914 0.56193 0.06444
 C615 C 0.93075 0.56321 -0.05340
 N616 N 0.55346 1.02681 0.53384
 N617 N 0.57682 1.04599 0.53855
 N618 N 0.52953 0.96615 0.55678
 N619 N 0.53526 0.94769 0.57735
 N620 N 0.55204 0.96414 0.53800
 N621 N 0.57410 0.94453 0.54563
 N622 N 0.53121 1.02893 0.55285
 N623 N 0.53901 1.04952 0.57110
 C624 C 0.56730 1.06026 0.56164
 C625 C 0.56289 0.93418 0.57004
 N626 N 0.43822 0.96599 0.53890
 N627 N 0.41562 0.94710 0.54698
 N628 N 0.46185 1.03003 0.55328
 N629 N 0.45510 1.05063 0.57180
 N630 N 0.43917 1.02875 0.53463
 N631 N 0.41653 1.04859 0.53990
 N632 N 0.46114 0.96731 0.55731
 N633 N 0.45513 0.94913 0.57804
 Mn634 Mn 0.49594 0.99821 0.55521
 C635 C 0.42691 0.93647 0.57130
 C636 C 0.42702 1.06231 0.56294
 N637 N 0.55146 0.95998 0.47836
 N638 N 0.57378 0.93985 0.47289
 N639 N 0.53054 1.02231 0.45597
 N640 N 0.53787 1.04073 0.43561
 N641 N 0.55295 1.02277 0.47489
 N642 N 0.57589 1.04166 0.46806
 N643 N 0.52907 0.95956 0.45941
 N644 N 0.53552 0.93909 0.44069
 Mn645 Mn 0.55274 0.99333 0.50626
 C646 C 0.56324 0.92670 0.44955
 C647 C 0.56604 1.05290 0.44368
 N648 N 0.43870 1.02474 0.47552
 N649 N 0.41647 1.04449 0.46884
 N650 N 0.46012 0.96080 0.45988
 N651 N 0.45280 0.94061 0.44121
 N652 N 0.43795 0.96193 0.47906
 N653 N 0.41488 0.94254 0.47377
 N654 N 0.46097 1.02352 0.45644
 N655 N 0.45429 1.04227 0.43619
 Mn656 Mn 0.43820 0.99526 0.50701
 Mn657 Mn 0.49516 0.99161 0.45771
 Cl658 Cl 0.49549 0.99460 0.50653
 C659 C 0.42666 1.05544 0.44440
 C660 C 0.42476 0.92912 0.45030
 N661 N 1.05806 1.03851 0.52737
 N662 N 1.07526 1.06248 0.53246
 N663 N 1.04131 0.97288 0.54279
 N664 N 1.04644 0.94956 0.55897
 N665 N 1.06500 0.97612 0.52528
 N666 N 1.08700 0.95535 0.52915
 N667 N 1.03455 1.03580 0.54514
 N668 N 1.03540 1.05796 0.56315
 C669 C 1.06096 1.07439 0.55473
 C670 C 1.07508 0.93891 0.55013
 N671 N 0.95324 0.96531 0.51662
 N672 N 0.93370 0.94229 0.51895
 N673 N 0.96574 1.02922 0.53983
 N674 N 0.95682 1.05049 0.55707
 N675 N 0.94573 1.02764 0.51909
 N676 N 0.92277 1.04771 0.52154
 N677 N 0.97289 0.96653 0.53765
 N678 N 0.96727 0.94420 0.55483
 Mn679 Mn 1.00358 1.00114 0.54179
 C680 C 0.94295 0.92916 0.54268
 C681 C 0.92998 1.06180 0.54524
 N682 N 1.07078 0.97968 0.46661
 N683 N 1.09228 0.95816 0.46493
 N684 N 1.04393 1.04165 0.44843
 N685 N 1.04900 1.06491 0.43214
 N686 N 1.06398 1.04196 0.46917
 N687 N 1.08314 1.06528 0.46768
 N688 N 1.05089 0.97871 0.44575
 N689 N 1.05821 0.95612 0.42939
 Mn690 Mn 1.06471 1.00904 0.49713
 C691 C 1.08420 0.94369 0.44166
 C692 C 1.07341 1.07950 0.44467
 N693 N 0.95151 1.03128 0.46069
 N694 N 0.92878 1.05128 0.45690
 N695 N 0.98268 0.97262 0.44023
 N696 N 0.98093 0.95278 0.42025
 N697 N 0.95900 0.96899 0.45770
 N698 N 0.94035 0.94674 0.44998
 N699 N 0.97505 1.03523 0.44313
 N700 N 0.96871 1.05813 0.42665
 Mn701 Mn 0.95212 0.99818 0.48851
 Mn702 Mn 1.01321 1.00717 0.44397
 Cl703 Cl 1.00837 1.00387 0.49285
 C704 C 0.93974 1.06788 0.43573
 C705 C 0.95459 0.93666 0.42676
 N706 N 0.56201 0.52933 0.02474
 N707 N 0.58342 0.54896 0.03354
 N708 N 0.53861 0.46380 0.03396
 N709 N 0.54557 0.44173 0.05103
 N710 N 0.56147 0.46714 0.01561
 N711 N 0.58448 0.44729 0.01973
 N712 N 0.53920 0.52582 0.04309
 N713 N 0.54418 0.54303 0.06458
 C714 C 0.57162 0.55744 0.05838
 C715 C 0.57399 0.43133 0.04165
 N716 N 0.44655 0.46880 0.01562
 N717 N 0.42332 0.44912 0.01924
 N718 N 0.47069 0.52683 0.04322
 N719 N 0.46587 0.54340 0.06516
 N720 N 0.44768 0.53080 0.02516
 N721 N 0.42616 0.54997 0.03478
 N722 N 0.46923 0.46481 0.03399
 N723 N 0.46193 0.44240 0.05058
 Mn724 Mn 0.50442 0.49519 0.03869
 C725 C 0.43347 0.43256 0.04088
 C726 C 0.43827 0.55784 0.05966
 N727 N 0.56138 0.47727 -0.04320
 N728 N 0.58210 0.45679 -0.05161
 N729 N 0.53903 0.54294 -0.05241
 N730 N 0.54496 0.56538 -0.06920
 N731 N 0.56239 0.53946 -0.03464
 N732 N 0.58539 0.55921 -0.03948
 N733 N 0.53845 0.48078 -0.06137
 N734 N 0.54279 0.46283 -0.08249
 Mn735 Mn 0.56222 0.50336 -0.00935
 C736 C 0.56991 0.44792 -0.07612
 C737 C 0.57366 0.57553 -0.06082
 N738 N 0.44752 0.54123 -0.03446
 N739 N 0.42466 0.56106 -0.03976
 N740 N 0.46983 0.48182 -0.06127
 N741 N 0.46475 0.46436 -0.08259
 N742 N 0.44670 0.47911 -0.04314
 N743 N 0.42501 0.45974 -0.05181
 N744 N 0.47092 0.54397 -0.05238
 N745 N 0.46513 0.56600 -0.06967
 Mn746 Mn 0.44671 0.50507 -0.00917
 Mn747 Mn 0.50457 0.51235 -0.05694
 Cl748 Cl 0.50447 0.50401 -0.00916
 C749 C 0.43652 0.57671 -0.06149
 C750 C 0.43691 0.45062 -0.07639
 C751 C 0.32046 1.18692 0.16239
 C752 C 0.33720 1.16051 0.16809
 C753 C 0.34851 1.13930 0.14693
 C754 C 0.37428 1.12039 0.15335
 C755 C 0.38557 1.09970 0.13420
 C756 C 0.37099 1.09725 0.10831
 C757 C 0.34441 1.11530 0.10220
 C758 C 0.33336 1.13637 0.12127
 C759 C 0.38400 1.07682 0.08722
 C760 C 0.41691 1.07375 0.08376
 H761 H 0.34309 1.15528 0.18926
 H762 H 0.38595 1.12184 0.17318
 H763 H 0.40567 1.08557 0.13970
 H764 H 0.33267 1.11356 0.08244
 H765 H 0.31277 1.14994 0.11603
 H766 H 0.36796 1.06735 0.07209
 H767 H 0.31621 1.19376 0.14135
 H768 H 0.43297 1.08658 0.09661
 C769 C 0.84349 0.69656 0.67251
 C770 C 0.86419 0.67291 0.67862
 C771 C 0.87958 0.65389 0.65742
 C772 C 0.86758 0.65148 0.63048
 C773 C 0.88221 0.63241 0.61143
 C774 C 0.90900 0.61513 0.61898
 C775 C 0.92102 0.61777 0.64581
 C776 C 0.90638 0.63676 0.66483
 C777 C 0.92508 0.59398 0.59995
 C778 C 0.91261 0.58444 0.57480
 H779 H 0.86974 0.66828 0.69997
 H780 H 0.84652 0.66370 0.62406
 H781 H 0.87233 0.63141 0.59094
 H782 H 0.94164 0.60479 0.65222
 H783 H 0.91604 0.63803 0.68545
 H784 H 0.94744 0.58417 0.60684
 H785 H 0.83899 0.70275 0.65136
 H786 H 0.89008 0.59292 0.56714
 C787 C 0.68702 0.82455 0.16583
 C788 C 0.66331 0.84558 0.17184
 C789 C 0.64967 0.86588 0.15091
 C790 C 0.61797 0.87570 0.15393
 C791 C 0.60410 0.89439 0.13422
 C792 C 0.62192 0.90396 0.11130
 C793 C 0.65408 0.89530 0.10893
 C794 C 0.66783 0.87621 0.12844
 C795 C 0.60727 0.92243 0.08948
 C796 C 0.57574 0.91792 0.08128
 H797 H 0.65319 0.84624 0.19236
 H798 H 0.60373 0.86845 0.17135
 H799 H 0.57948 0.90142 0.13698
 H800 H 0.66835 0.90276 0.09160
 H801 H 0.69269 0.86984 0.12605
 H802 H 0.62238 0.93748 0.07774
 H803 H 0.69553 0.82204 0.14492
 H804 H 0.56154 0.90062 0.09102
 C805 C 1.17542 0.30613 0.66348
 C806 C 1.15705 0.33199 0.66625
 C807 C 1.14465 0.34896 0.64232
 C808 C 1.11710 0.36647 0.64571
 C809 C 1.10454 0.38270 0.62366
 C810 C 1.11941 0.38191 0.59767
 C811 C 1.14767 0.36532 0.59448
 C812 C 1.16013 0.34882 0.61655
 C813 C 1.10623 0.39921 0.57423
 C814 C 1.07342 0.40392 0.57188
 H815 H 1.15063 0.33957 0.68667
 H816 H 1.10512 0.36746 0.66545
 H817 H 1.08347 0.39628 0.62721
 H818 H 1.15993 0.36492 0.57485
 H819 H 1.18213 0.33648 0.61344
 H820 H 1.12246 0.40924 0.55947
 H821 H 1.18038 0.29737 0.64319
 H822 H 1.05741 0.39247 0.58591
 C823 C 0.69593 1.17285 -0.16284
 C824 C 0.67254 1.15169 -0.16918
 C825 C 0.65725 1.13220 -0.14850
 C826 C 0.62621 1.12168 -0.15355
 C827 C 0.61096 1.10303 -0.13460
 C828 C 0.62674 1.09422 -0.11042
 C829 C 0.65822 1.10383 -0.10580
 C830 C 0.67333 1.12290 -0.12458
 C831 C 0.61070 1.07524 -0.08976
 C832 C 0.57824 1.07848 -0.08400
 H833 H 0.66395 1.15013 -0.19014
 H834 H 0.61361 1.12815 -0.17209
 H835 H 0.58697 1.09528 -0.13904
 H836 H 0.67091 1.09697 -0.08743
 H837 H 0.69768 1.12989 -0.12057
 H838 H 0.62519 1.06062 -0.07703
 H839 H 0.70295 1.17652 -0.14170
 H840 H 0.56432 1.09546 -0.09451
 C841 C 1.17431 0.69006 0.33250
 C842 C 1.15012 0.66955 0.32645
 C843 C 1.13160 0.65271 0.34744
 C844 C 1.14232 0.64873 0.37464
 C845 C 1.12451 0.63155 0.39332
 C846 C 1.09572 0.61788 0.38513
 C847 C 1.08495 0.62227 0.35811
 C848 C 1.10275 0.63929 0.33947
 C849 C 1.07629 0.59859 0.40360
 C850 C 1.08697 0.58642 0.42845
 H851 H 1.14375 0.66610 0.30511
 H852 H 1.16471 0.65822 0.38151
 H853 H 1.13351 0.62914 0.41402
 H854 H 1.06286 0.61209 0.35120
 H855 H 1.09394 0.64189 0.31866
 H856 H 1.05286 0.59196 0.39626
 H857 H 1.18001 0.69534 0.35361
 H858 H 1.11040 0.59169 0.43646
 C859 C 0.29002 0.82723 -0.16248
 C860 C 0.31334 0.84841 -0.16922
 C861 C 0.32972 0.86725 -0.14864
 C862 C 0.36088 0.87729 -0.15424
 C863 C 0.37721 0.89509 -0.13532
 C864 C 0.36244 0.90360 -0.11057
 C865 C 0.33087 0.89445 -0.10537
 C866 C 0.31469 0.87620 -0.12412
 C867 C 0.37943 0.92200 -0.09002
 C868 C 0.41220 0.91895 -0.08541
 H869 H 0.32143 0.85004 -0.19035
 H870 H 0.37275 0.87107 -0.17320
 H871 H 0.40122 0.90248 -0.14026
 H872 H 0.31889 0.90106 -0.08657
 H873 H 0.29033 0.86958 -0.11957
 H874 H 0.36544 0.93618 -0.07651
 H875 H 0.28359 0.82345 -0.14119
 H876 H 0.42578 0.90241 -0.09675
 C877 C 0.80825 0.30573 0.33876
 C878 C 0.82391 0.33303 0.33491
 C879 C 0.83859 0.35089 0.35728
 C880 C 0.85987 0.37383 0.34996
 C881 C 0.87418 0.39159 0.37002
 C882 C 0.86762 0.38685 0.39807
 C883 C 0.84560 0.36453 0.40548
 C884 C 0.83129 0.34659 0.38532
 C885 C 0.88306 0.40540 0.41957
 C886 C 0.91360 0.41720 0.41565
 H887 H 0.82606 0.34171 0.31417
 H888 H 0.86548 0.37806 0.32855
 H889 H 0.89000 0.40936 0.36338
 H890 H 0.83970 0.36080 0.42690
 H891 H 0.81426 0.32981 0.39185
 H892 H 0.87056 0.40941 0.43874
 H893 H 0.80661 0.29586 0.35903
 H894 H 0.92699 0.41112 0.39743
 C895 C 1.21035 0.33733 0.16938
 C896 C 1.18222 0.35335 0.17458
 C897 C 1.16472 0.37056 0.15331
 C898 C 1.13152 0.37438 0.15619
 C899 C 1.11398 0.39016 0.13643
 C900 C 1.12945 0.40279 0.11350
 C901 C 1.16280 0.39975 0.11104
 C902 C 1.18030 0.38361 0.13063
 C903 C 1.11164 0.41988 0.09234
 C904 C 1.07973 0.41409 0.08572
 H905 H 1.17088 0.35100 0.19452
 H906 H 1.11904 0.36487 0.17368
 H907 H 1.08846 0.39284 0.13942
 H908 H 1.17531 0.40968 0.09376
 H909 H 1.20599 0.38181 0.12818
 H910 H 1.12470 0.43632 0.08036
 H911 H 1.22059 0.33721 0.14893
 H912 H 1.06704 0.39594 0.09565
 C913 C 0.70849 0.82501 0.66680
 C914 C 0.68382 0.84558 0.67111
 C915 C 0.66623 0.86110 0.64875
 C916 C 0.63776 0.87607 0.65547
 C917 C 0.62003 0.89088 0.63530
 C918 C 0.63028 0.89094 0.60772
 C919 C 0.65917 0.87664 0.60104
 C920 C 0.67700 0.86181 0.62128
 C921 C 0.61216 0.90689 0.58594
 C922 C 0.57970 0.91353 0.58853
 H923 H 0.67603 0.84967 0.69202
 H924 H 0.62915 0.87635 0.67649
 H925 H 0.59870 0.90273 0.64166
 H926 H 0.66794 0.87689 0.58007
 H927 H 0.69926 0.85140 0.61521
 H928 H 0.62485 0.91405 0.56763
 H929 H 0.71626 0.81960 0.64621
 H930 H 0.56625 0.90523 0.60594
 C931 C 1.17966 0.67936 -0.16143
 C932 C 1.15981 0.65482 -0.16701
 C933 C 1.14810 0.63375 -0.14580
 C934 C 1.11920 0.61868 -0.15052
 C935 C 1.10698 0.59879 -0.13101
 C936 C 1.12369 0.59327 -0.10647
 C937 C 1.15332 0.60727 -0.10222
 C938 C 1.16537 0.62757 -0.12163
 C939 C 1.10998 0.57378 -0.08489
 C940 C 1.07737 0.57465 -0.07901
 H941 H 1.15090 0.65154 -0.18772
 H942 H 1.10576 0.62265 -0.16921
 H943 H 1.08446 0.58771 -0.13515
 H944 H 1.16674 0.60306 -0.08357
 H945 H 1.18826 0.63807 -0.11779
 H946 H 1.12594 0.56139 -0.07148
 H947 H 1.18683 0.68364 -0.14041
 H948 H 1.06207 0.59001 -0.09020
 C949 C 0.68357 1.16723 0.33142
 C950 C 0.65696 1.14956 0.32502
 C951 C 0.63794 1.13199 0.34521
 C952 C 0.64160 1.13489 0.37384
 C953 C 0.62224 1.11843 0.39189
 C954 C 0.59884 1.09870 0.38173
 C955 C 0.59495 1.09620 0.35320
 C956 C 0.61429 1.11257 0.33519
 C957 C 0.57787 1.08065 0.39999
 C958 C 0.58555 1.07358 0.42713
 H959 H 0.64910 1.14884 0.30381
 H960 H 0.65883 1.15015 0.38256
 H961 H 0.62534 1.12178 0.41373
 H962 H 0.57699 1.08135 0.34478
 H963 H 0.61066 1.11008 0.31327
 H964 H 0.55659 1.07077 0.39111
 H965 H 0.69284 1.16799 0.35212
 H966 H 0.60761 1.08150 0.43613
 C967 C 0.82147 0.69290 0.16530
 C968 C 0.85006 0.67813 0.17148
 C969 C 0.86825 0.66036 0.15127
 C970 C 0.85298 0.64540 0.12957
 C971 C 0.87063 0.62728 0.11175
 C972 C 0.90386 0.62387 0.11529
 C973 C 0.91915 0.63929 0.13659
 C974 C 0.90142 0.65703 0.15468
 C975 C 0.92308 0.60494 0.09670
 C976 C 0.91074 0.57925 0.08455
 H977 H 0.86010 0.68034 0.19191
 H978 H 0.82735 0.64707 0.12670
 H979 H 0.85828 0.61621 0.09509
 H980 H 0.94476 0.63713 0.13956
 H981 H 0.91363 0.66826 0.17136
 H982 H 0.94795 0.61078 0.09330
 H983 H 0.81272 0.69360 0.14437
 H984 H 0.88684 0.57167 0.08962
 C985 C 0.30847 1.17665 0.67272
 C986 C 0.33624 1.16067 0.67927
 C987 C 0.35617 1.14404 0.65916
 C988 C 0.35167 1.14609 0.63052
 C989 C 0.37128 1.12992 0.61254
 C990 C 0.39579 1.11139 0.62278
 C991 C 0.40073 1.10996 0.65126
 C992 C 0.38111 1.12602 0.66922
 C993 C 0.41663 1.09324 0.60466
 C994 C 0.40790 1.08427 0.57827
 H995 H 0.34397 1.16028 0.70053
 H996 H 0.33345 1.16031 0.62169
 H997 H 0.36740 1.13241 0.59069
 H998 H 0.41959 1.09604 0.65969
 H999 H 0.38539 1.12422 0.69112
 H1000 H 0.43856 1.08437 0.61337
 H1001 H 0.29953 1.17729 0.65191
 H1002 H 0.38533 1.09123 0.56946
 C1003 C 0.82426 0.30919 -0.16470
 C1004 C 0.84405 0.33347 -0.17068
 C1005 C 0.86282 0.34888 -0.14929
 C1006 C 0.86922 0.37954 -0.15208
 C1007 C 0.88691 0.39461 -0.13207
 C1008 C 0.89899 0.37905 -0.10915
 C1009 C 0.89355 0.34819 -0.10688
 C1010 C 0.87542 0.33324 -0.12664
 C1011 C 0.91757 0.39426 -0.08753
 C1012 C 0.91146 0.42368 -0.07970
 H1013 H 0.84500 0.34213 -0.19149
 H1014 H 0.86020 0.39190 -0.16964
 H1015 H 0.89150 0.41828 -0.13477
 H1016 H 0.90302 0.33570 -0.08959
 H1017 H 0.87177 0.30937 -0.12438
 H1018 H 0.93455 0.38110 -0.07575
 H1019 H 0.82084 0.30226 -0.14355
 H1020 H 0.89251 0.43632 -0.08952
 C1021 C 0.31570 0.81341 0.33339
 C1022 C 0.34304 0.83055 0.32845
 C1023 C 0.36086 0.84665 0.35021
 C1024 C 0.34692 0.85448 0.37556
 C1025 C 0.36444 0.87046 0.39516
 C1026 C 0.39628 0.87904 0.38977
 C1027 C 0.41007 0.87109 0.36448
 C1028 C 0.39256 0.85522 0.34492
 C1029 C 0.41568 0.89725 0.40905
 C1030 C 0.40538 0.90756 0.43469
 H1031 H 0.35271 0.83127 0.30778
 H1032 H 0.32227 0.84903 0.38017
 H1033 H 0.35261 0.87630 0.41415
 H1034 H 0.43446 0.87748 0.35964
 H1035 H 0.40386 0.84965 0.32553
 H1036 H 0.43926 0.90398 0.40206
 H1037 H 0.30670 0.81072 0.35410
 H1038 H 0.38241 0.90124 0.44307
 C1039 C 1.17068 1.19051 0.31946
 C1040 C 1.16715 1.19522 0.34759
 C1041 C 1.14307 1.17869 0.36403
 C1042 C 1.14851 1.17413 0.39213
 C1043 C 1.12784 1.15615 0.40760
 C1044 C 1.10128 1.14226 0.39512
 C1045 C 1.09463 1.14869 0.36750
 C1046 C 1.11515 1.16681 0.35212
 C1047 C 1.08099 1.11991 0.40947
 C1048 C 1.09002 1.10588 0.43384
 H1049 H 1.18363 1.21003 0.35806
 H1050 H 1.16937 1.18371 0.40195
 H1051 H 1.13325 1.15303 0.42911
 H1052 H 1.07396 1.13894 0.35752
 H1053 H 1.10910 1.17114 0.33088
 H1054 H 1.05968 1.11199 0.39909
 H1055 H 1.15533 1.17472 0.30905
 H1056 H 1.11130 1.11268 0.44471
 C1057 C 0.70352 0.69180 -0.16158
 C1058 C 0.68343 0.66754 -0.16641
 C1059 C 0.66892 0.65003 -0.14372
 C1060 C 0.63948 0.63588 -0.14812
 C1061 C 0.62473 0.61976 -0.12699
 C1062 C 0.63927 0.61727 -0.10097
 C1063 C 0.66937 0.63033 -0.09689
 C1064 C 0.68403 0.64672 -0.11799
 C1065 C 0.62380 0.60018 -0.07845
 C1066 C 0.59062 0.59875 -0.07635
 H1067 H 0.67691 0.66211 -0.18737
 H1068 H 0.62768 0.63757 -0.16788
 H1069 H 0.60216 0.60888 -0.13127
 H1070 H 0.68137 0.62812 -0.07726
 H1071 H 0.70735 0.65638 -0.11420
 H1072 H 0.63860 0.58777 -0.06412
 H1073 H 0.70835 0.69854 -0.14063
 H1074 H 0.57612 0.61244 -0.08988
 C1075 C 0.83768 1.17669 0.67180
 C1076 C 0.83381 1.17731 0.64341
 C1077 C 0.85584 1.16015 0.62559
 C1078 C 0.84382 1.14495 0.60271
 C1079 C 0.86359 1.12572 0.58763
 C1080 C 0.89601 1.12183 0.59496
 C1081 C 0.90827 1.13827 0.61707
 C1082 C 0.88849 1.15734 0.63215
 C1083 C 0.91727 1.09976 0.58136
 C1084 C 0.91000 1.08578 0.55663
 H1085 H 0.81297 1.18802 0.63450
 H1086 H 0.81875 1.14687 0.59727
 H1087 H 0.85287 1.11325 0.57104
 H1088 H 0.93314 1.13593 0.62303
 H1089 H 0.89870 1.16952 0.64923
 H1090 H 0.93953 1.09394 0.59151
 H1091 H 0.85698 1.16349 0.68049
 H1092 H 0.88900 1.09210 0.54504
 C1093 C 0.31384 0.67799 0.16457
 C1094 C 0.33232 0.65240 0.16886
 C1095 C 0.34661 0.63510 0.14582
 C1096 C 0.37342 0.61704 0.15094
 C1097 C 0.38796 0.60097 0.12966
 C1098 C 0.37596 0.60262 0.10262
 C1099 C 0.34837 0.61970 0.09771
 C1100 C 0.33382 0.63579 0.11901
 C1101 C 0.39112 0.58610 0.07949
 C1102 C 0.42324 0.57768 0.07998
 H1103 H 0.33748 0.64545 0.18975
 H1104 H 0.38334 0.61554 0.17146
 H1105 H 0.40827 0.58698 0.13469
 H1106 H 0.33817 0.62080 0.07727
 H1107 H 0.31235 0.64834 0.11435
 H1108 H 0.37678 0.58065 0.06166
 H1109 H 0.31008 0.68604 0.14383
 H1110 H 0.43817 0.58434 0.09704
 C1111 C 1.14721 0.81228 0.67698
 C1112 C 1.15093 0.81126 0.64842
 C1113 C 1.13102 0.83010 0.63004
 C1114 C 1.14421 0.84092 0.60546
 C1115 C 1.12729 0.86140 0.58921
 C1116 C 1.09666 0.87143 0.59730
 C1117 C 1.08271 0.85900 0.62095
 C1118 C 1.09958 0.83849 0.63710
 C1119 C 1.07884 0.89527 0.58243
 C1120 C 1.09227 0.91332 0.56206
 H1121 H 1.17086 0.79906 0.63954
 H1122 H 1.16813 0.83433 0.59929
 H1123 H 1.13868 0.86940 0.57067
 H1124 H 1.05892 0.86573 0.62737
 H1125 H 1.08801 0.82953 0.65525
 H1126 H 1.05457 0.90008 0.58902
 H1127 H 1.12834 0.82618 0.68540
 H1128 H 1.11639 0.90960 0.55485
 C1129 C 0.65758 0.32071 0.18123
 C1130 C 0.66031 0.32106 0.15256
 C1131 C 0.63998 0.33971 0.13423
 C1132 C 0.65036 0.34528 0.10723
 C1133 C 0.63219 0.36307 0.08936
 C1134 C 0.60301 0.37567 0.09815
 C1135 C 0.59222 0.36935 0.12490
 C1136 C 0.61039 0.35160 0.14274
 C1137 C 0.58315 0.39557 0.08052
 C1138 C 0.59331 0.40837 0.05575
 H1139 H 0.67913 0.30791 0.14308
 H1140 H 0.67283 0.33603 0.09998
 H1141 H 0.64118 0.36665 0.06879
 H1142 H 0.56966 0.37840 0.13215
 H1143 H 0.60086 0.34707 0.16299
 H1144 H 0.55985 0.40201 0.08839
 H1145 H 0.64013 0.33478 0.19137
 H1146 H 0.61660 0.40330 0.04726
 C1147 C 0.81369 0.81313 0.33942
 C1148 C 0.83939 0.83239 0.33432
 C1149 C 0.85809 0.84829 0.35557
 C1150 C 0.88524 0.86429 0.34704
 C1151 C 0.90311 0.88090 0.36574
 C1152 C 0.89433 0.88178 0.39365
 C1153 C 0.86727 0.86565 0.40228
 C1154 C 0.84929 0.84901 0.38349
 C1155 C 0.91134 0.90083 0.41376
 C1156 C 0.94140 0.91338 0.40890
 H1157 H 0.84660 0.83601 0.31316
 H1158 H 0.89242 0.86436 0.32562
 H1159 H 0.92308 0.89366 0.35788
 H1160 H 0.85975 0.86624 0.42359
 H1161 H 0.82832 0.83742 0.39096
 H1162 H 0.89915 0.90606 0.43284
 H1163 H 0.80632 0.80785 0.36016
 H1164 H 0.95517 0.90742 0.39091
 C1165 C 0.30671 0.32118 -0.16647
 C1166 C 0.32651 0.34533 -0.17288
 C1167 C 0.34220 0.36427 -0.15181
 C1168 C 0.36786 0.38251 -0.15986
 C1169 C 0.38353 0.40060 -0.14076
 C1170 C 0.37393 0.40078 -0.11299
 C1171 C 0.34763 0.38327 -0.10509
 C1172 C 0.33188 0.36520 -0.12422
 C1173 C 0.39016 0.41956 -0.09212
 C1174 C 0.42140 0.42983 -0.09548
 H1175 H 0.33145 0.35013 -0.19432
 H1176 H 0.37590 0.38273 -0.18104
 H1177 H 0.40275 0.41471 -0.14808
 H1178 H 0.33931 0.38347 -0.08398
 H1179 H 0.31145 0.35247 -0.11724
 H1180 H 0.37736 0.42507 -0.07341
 H1181 H 0.30242 0.31512 -0.14526
 H1182 H 0.43523 0.42324 -0.11326
 C1183 C 1.16499 0.30986 -0.16614
 C1184 C 1.14268 0.33196 -0.17278
 C1185 C 1.12273 0.34668 -0.15172
 C1186 C 1.11452 0.37691 -0.15501
 C1187 C 1.09656 0.39164 -0.13490
 C1188 C 1.08602 0.37613 -0.11141
 C1189 C 1.09296 0.34555 -0.10875
 C1190 C 1.11142 0.33097 -0.12860
 C1191 C 1.06810 0.39136 -0.08934
 C1192 C 1.07506 0.42061 -0.08160
 H1193 H 1.14128 0.34015 -0.19374
 H1194 H 1.12257 0.38929 -0.17290
 H1195 H 1.09079 0.41507 -0.13782
 H1196 H 1.08470 0.33311 -0.09096
 H1197 H 1.11659 0.30738 -0.12596
 H1198 H 1.05152 0.37832 -0.07704
 H1199 H 1.16868 0.30366 -0.14484
 H1200 H 1.09390 0.43286 -0.09198
 C1201 C 0.67056 0.80702 0.33421
 C1202 C 0.64558 0.82699 0.32875
 C1203 C 0.62674 0.84261 0.35031
 C1204 C 0.63740 0.84536 0.37764
 C1205 C 0.61949 0.86157 0.39691
 C1206 C 0.59065 0.87561 0.38922
 C1207 C 0.57990 0.87244 0.36205
 C1208 C 0.59778 0.85630 0.34283
 C1209 C 0.57135 0.89426 0.40833
 C1210 C 0.58185 0.90449 0.43391
 H1211 H 0.63925 0.83132 0.30751
 H1212 H 0.65987 0.83572 0.38423
 H1213 H 0.62857 0.86302 0.41764
 H1214 H 0.55778 0.88293 0.35550
 H1215 H 0.58901 0.85468 0.32194
 H1216 H 0.54827 0.90202 0.40101
 H1217 H 0.67635 0.80099 0.35515
 H1218 H 0.60488 0.89794 0.44202
 C1219 C 0.83997 0.70157 -0.15820
 C1220 C 0.86803 0.68556 -0.16332
 C1221 C 0.88310 0.66574 -0.14282
 C1222 C 0.86487 0.65069 -0.12280
 C1223 C 0.87955 0.63069 -0.10466
 C1224 C 0.91270 0.62547 -0.10622
 C1225 C 0.93089 0.64076 -0.12599
 C1226 C 0.91613 0.66041 -0.14441
 C1227 C 0.92910 0.60530 -0.08680
 C1228 C 0.91427 0.58068 -0.07463
 H1229 H 0.87956 0.68760 -0.18322
 H1230 H 0.83921 0.65382 -0.12147
 H1231 H 0.86500 0.61973 -0.08922
 H1232 H 0.95651 0.63721 -0.12740
 H1233 H 0.93056 0.67160 -0.15983
 H1234 H 0.95411 0.60964 -0.08239
 H1235 H 0.82983 0.70208 -0.13771
 H1236 H 0.89027 0.57421 -0.08049
 C1237 C 0.31698 1.17602 0.33114
 C1238 C 0.34280 1.15714 0.32505
 C1239 C 0.36077 1.13894 0.34553
 C1240 C 0.35548 1.14078 0.37409
 C1241 C 0.37347 1.12329 0.39238
 C1242 C 0.39713 1.10353 0.38255
 C1243 C 0.40267 1.10209 0.35414
 C1244 C 0.38469 1.11948 0.33589
 C1245 C 0.41674 1.08436 0.40101
 C1246 C 0.40806 1.07696 0.42791
 H1247 H 0.35058 1.15567 0.30384
 H1248 H 0.33785 1.15581 0.38264
 H1249 H 0.36904 1.12578 0.41414
 H1250 H 0.42086 1.08724 0.34597
 H1251 H 0.38954 1.11768 0.31408
 H1252 H 0.43802 1.07406 0.39243
 H1253 H 0.30808 1.17797 0.35191
 H1254 H 0.38611 1.08545 0.43674
 C1255 C 1.17519 0.69105 0.16375
 C1256 C 1.15449 0.66766 0.17046
 C1257 C 1.13549 0.65134 0.14997
 C1258 C 1.12769 0.62135 0.15516
 C1259 C 1.10947 0.60518 0.13637
 C1260 C 1.09834 0.61899 0.11224
 C1261 C 1.10530 0.64924 0.10742
 C1262 C 1.12399 0.66530 0.12603
 C1263 C 1.07906 0.60245 0.09209
 C1264 C 1.08419 0.57225 0.08667
 H1265 H 1.15362 0.65962 0.19149
 H1266 H 1.13593 0.61034 0.17373
 H1267 H 1.10370 0.58209 0.14095
 H1268 H 1.09655 0.66035 0.08909
 H1269 H 1.12887 0.68867 0.12191
 H1270 H 1.06222 0.61493 0.07957
 H1271 H 1.17878 0.69756 0.14252
 H1272 H 1.10323 0.56015 0.09693
 C1273 C 0.68886 1.17674 0.66869
 C1274 C 0.66212 1.15931 0.67541
 C1275 C 0.64129 1.14364 0.65535
 C1276 C 0.64872 1.14118 0.62721
 C1277 C 0.62853 1.12533 0.60947
 C1278 C 0.60061 1.11139 0.61951
 C1279 C 0.59302 1.11438 0.64746
 C1280 C 0.61313 1.13017 0.66514
 C1281 C 0.57905 1.09320 0.60197
 C1282 C 0.58751 1.08199 0.57621
 H1283 H 0.65560 1.15730 0.69691
 H1284 H 0.67016 1.15103 0.61869
 H1285 H 0.63502 1.12424 0.58799
 H1286 H 0.57165 1.10403 0.65580
 H1287 H 0.60669 1.13170 0.68668
 H1288 H 0.55626 1.08643 0.61065
 H1289 H 0.69572 1.18024 0.64751
 H1290 H 0.61043 1.08725 0.56711
 C1291 C 0.80436 0.31814 0.16922
 C1292 C 0.82893 0.33805 0.17570
 C1293 C 0.85004 0.35158 0.15471
 C1294 C 0.86344 0.37981 0.15969
 C1295 C 0.88379 0.39306 0.14037
 C1296 C 0.89155 0.37802 0.11591
 C1297 C 0.87910 0.34933 0.11137
 C1298 C 0.85828 0.33628 0.13047
 C1299 C 0.91224 0.39194 0.09482
 C1300 C 0.91036 0.42240 0.08897
 H1301 H 0.83247 0.34452 0.19693
 H1302 H 0.85789 0.39175 0.17846
 H1303 H 0.89371 0.41492 0.14473
 H1304 H 0.88507 0.33722 0.09278
 H1305 H 0.84916 0.31406 0.12647
 H1306 H 0.92652 0.37761 0.08168
 H1307 H 0.79881 0.31351 0.14792
 H1308 H 0.89336 0.43626 0.09995
 C1309 C 0.28679 0.82130 0.66971
 C1310 C 0.31004 0.84350 0.67371
 C1311 C 0.32672 0.85976 0.65111
 C1312 C 0.35422 0.87628 0.65762
 C1313 C 0.37093 0.89202 0.63733
 C1314 C 0.36065 0.89157 0.60978
 C1315 C 0.33267 0.87571 0.60330
 C1316 C 0.31587 0.85990 0.62367
 C1317 C 0.37789 0.90838 0.58785
 C1318 C 0.41017 0.91598 0.59015
 H1319 H 0.31742 0.84867 0.69453
 H1320 H 0.36287 0.87707 0.67859
 H1321 H 0.39151 0.90497 0.64357
 H1322 H 0.32384 0.87547 0.58238
 H1323 H 0.29429 0.84832 0.61774
 H1324 H 0.36487 0.91499 0.56957
 H1325 H 0.28006 0.81535 0.64897
 H1326 H 0.42387 0.90800 0.60754
 C1327 C 0.31784 1.19678 -0.16028
 C1328 C 0.33839 1.17284 -0.16585
 C1329 C 0.35761 1.15708 -0.14488
 C1330 C 0.36664 1.12737 -0.14999
 C1331 C 0.38497 1.11151 -0.13096
 C1332 C 0.39497 1.12523 -0.10651
 C1333 C 0.38683 1.15526 -0.10171
 C1334 C 0.36804 1.17106 -0.12065
 C1335 C 0.41411 1.10869 -0.08600
 C1336 C 0.40961 1.07822 -0.08127
 H1337 H 0.33900 1.16375 -0.18648
 H1338 H 0.35928 1.11629 -0.16874
 H1339 H 0.39167 1.08866 -0.13561
 H1340 H 0.39468 1.16635 -0.08314
 H1341 H 0.36225 1.19422 -0.11648
 H1342 H 0.43032 1.12112 -0.07294
 H1343 H 0.31499 1.20498 -0.13950
 H1344 H 0.39097 1.06624 -0.09207
 C1345 C 0.82088 0.69259 0.33380
 C1346 C 0.84714 0.67436 0.32763
 C1347 C 0.86650 0.65789 0.34827
 C1348 C 0.85744 0.65520 0.37605
 C1349 C 0.87588 0.63820 0.39432
 C1350 C 0.90358 0.62324 0.38516
 C1351 C 0.91297 0.62658 0.35763
 C1352 C 0.89460 0.64358 0.33940
 C1353 C 0.92287 0.60342 0.40317
 C1354 C 0.91176 0.59139 0.42790
 H1355 H 0.85413 0.67203 0.30628
 H1356 H 0.83595 0.66561 0.38387
 H1357 H 0.86816 0.63691 0.41549
 H1358 H 0.93427 0.61547 0.35002
 H1359 H 0.90223 0.64527 0.31816
 H1360 H 0.94590 0.59594 0.39549
 H1361 H 0.81383 0.69659 0.35484
 H1362 H 0.88853 0.59741 0.43598
 C1363 C 0.66061 1.19570 0.16632
 C1364 C 0.64452 1.16869 0.17067
 C1365 C 0.62658 1.15269 0.14907
 C1366 C 0.62286 1.12158 0.15148
 C1367 C 0.60613 1.10550 0.13157
 C1368 C 0.59246 1.12034 0.10894
 C1369 C 0.59535 1.15157 0.10693
 C1370 C 0.61244 1.16764 0.12670
 C1371 C 0.57451 1.10395 0.08759
 C1372 C 0.58152 1.07445 0.08043
 H1373 H 0.64704 1.15755 0.19036
 H1374 H 0.63314 1.10964 0.16876
 H1375 H 0.60350 1.08157 0.13421
 H1376 H 0.58459 1.16351 0.08987
 H1377 H 0.61404 1.19171 0.12465
 H1378 H 0.55666 1.11612 0.07588
 H1379 H 0.66057 1.20611 0.14621
 H1380 H 0.60126 1.06277 0.09008
 C1381 C 1.15819 0.68916 0.67254
 C1382 C 1.13716 0.66584 0.67889
 C1383 C 1.11997 0.64776 0.65807
 C1384 C 1.12968 0.64632 0.63037
 C1385 C 1.11338 0.62803 0.61172
 C1386 C 1.08719 0.61059 0.62041
 C1387 C 1.07735 0.61238 0.64796
 C1388 C 1.09365 0.63057 0.66658
 C1389 C 1.06954 0.59024 0.60174
 C1390 C 1.08122 0.58020 0.57646
 H1391 H 1.13256 0.66080 0.70034
 H1392 H 1.15018 0.65872 0.62301
 H1393 H 1.12143 0.62782 0.59061
 H1394 H 1.05720 0.59930 0.65523
 H1395 H 1.08569 0.63115 0.68778
 H1396 H 1.04695 0.58129 0.60903
 H1397 H 1.16192 0.69587 0.65141
 H1398 H 1.10419 0.58758 0.56878
 C1399 C 0.68742 0.81448 -0.16479
 C1400 C 0.66509 0.83661 -0.17159
 C1401 C 0.64298 0.85024 -0.15138
 C1402 C 0.63207 0.87954 -0.15596
 C1403 C 0.61142 0.89333 -0.13724
 C1404 C 0.60091 0.87788 -0.11370
 C1405 C 0.61078 0.84816 -0.10966
 C1406 C 0.63185 0.83449 -0.12820
 C1407 C 0.57994 0.89236 -0.09311
 C1408 C 0.58294 0.92261 -0.08670
 H1409 H 0.66498 0.84558 -0.19231
 H1410 H 0.63988 0.89194 -0.17392
 H1411 H 0.60350 0.91599 -0.14134
 H1412 H 0.60265 0.83570 -0.09184
 H1413 H 0.63899 0.81154 -0.12453
 H1414 H 0.56420 0.87845 -0.08081
 H1415 H 0.68961 0.80692 -0.14372
 H1416 H 0.60112 0.93594 -0.09680
 C1417 C 1.19115 0.31310 0.33669
 C1418 C 1.17452 0.33995 0.33318
 C1419 C 1.15840 0.35620 0.35589
 C1420 C 1.13484 0.37735 0.34919
 C1421 C 1.11909 0.39342 0.36975
 C1422 C 1.12655 0.38871 0.39764
 C1423 C 1.15082 0.36825 0.40438
 C1424 C 1.16655 0.35201 0.38375
 C1425 C 1.11000 0.40564 0.41970
 C1426 C 1.07867 0.41573 0.41641
 H1427 H 1.17244 0.34918 0.31264
 H1428 H 1.12853 0.38147 0.32792
 H1429 H 1.10150 0.40992 0.36361
 H1430 H 1.15746 0.36467 0.42565
 H1431 H 1.18536 0.33671 0.38976
 H1432 H 1.12258 0.41019 0.43869
 H1433 H 1.19231 0.30266 0.35674
 H1434 H 1.06538 0.40937 0.39826
 C1435 C 0.33024 0.80114 0.16498
 C1436 C 0.35066 0.82502 0.17072
 C1437 C 0.36952 0.84055 0.14935
 C1438 C 0.37639 0.87103 0.15274
 C1439 C 0.39342 0.88669 0.13262
 C1440 C 0.40430 0.87195 0.10889
 C1441 C 0.39860 0.84119 0.10602
 C1442 C 0.38113 0.82561 0.12596
 C1443 C 0.42170 0.88812 0.08701
 C1444 C 0.41480 0.91776 0.08032
 H1445 H 0.35082 0.83436 0.19125
 H1446 H 0.36810 0.88287 0.17082
 H1447 H 0.39829 0.91021 0.13580
 H1448 H 0.40720 0.82932 0.08807
 H1449 H 0.37705 0.80189 0.12318
 H1450 H 0.43841 0.87568 0.07435
 H1451 H 0.32770 0.79319 0.14409
 H1452 H 0.39591 0.92960 0.09103
 C1453 C 0.83125 0.29971 0.66624
 C1454 C 0.85422 0.32157 0.67157
 C1455 C 0.87090 0.33893 0.64989
 C1456 C 0.85821 0.34286 0.62332
 C1457 C 0.87410 0.36077 0.60397
 C1458 C 0.90291 0.37518 0.61089
 C1459 C 0.91566 0.37082 0.63729
 C1460 C 0.89974 0.35311 0.65660
 C1461 C 0.92037 0.39530 0.59182
 C1462 C 0.90791 0.40746 0.56757
 H1463 H 0.86083 0.32588 0.69272
 H1464 H 0.83567 0.33282 0.61753
 H1465 H 0.86362 0.36324 0.58379
 H1466 H 0.93782 0.38159 0.64321
 H1467 H 0.90997 0.35058 0.67693
 H1468 H 0.94390 0.40261 0.59831
 H1469 H 0.82568 0.29359 0.64528
 H1470 H 0.88447 0.40130 0.56012
 C1471 C 1.17162 1.17127 0.67677
 C1472 C 1.15603 1.18267 0.65373
 C1473 C 1.13095 1.16545 0.63925
 C1474 C 1.12509 1.17116 0.61138
 C1475 C 1.10280 1.15400 0.59693
 C1476 C 1.08591 1.13082 0.61021
 C1477 C 1.09004 1.12664 0.63851
 C1478 C 1.11231 1.14376 0.65293
 C1479 C 1.06580 1.10936 0.59485
 C1480 C 1.07375 1.10108 0.56818
 H1481 H 1.16196 1.20491 0.64640
 H1482 H 1.13841 1.18837 0.60059
 H1483 H 1.09922 1.15867 0.57532
 H1484 H 1.07686 1.10934 0.64930
 H1485 H 1.11487 1.13980 0.67476
 H1486 H 1.04800 1.09646 0.60594
 H1487 H 1.16646 1.14878 0.68375
 H1488 H 1.09334 1.11215 0.55774
 C1489 C 0.69154 0.68814 0.15789
 C1490 C 0.67413 0.66170 0.16126
 C1491 C 0.66041 0.64383 0.13839
 C1492 C 0.63895 0.62080 0.14504
 C1493 C 0.62505 0.60335 0.12452
 C1494 C 0.63215 0.60858 0.09663
 C1495 C 0.65440 0.63094 0.08990
 C1496 C 0.66835 0.64851 0.11051
 C1497 C 0.61702 0.59060 0.07452
 C1498 C 0.58675 0.57803 0.07793
 H1499 H 0.66969 0.65383 0.18201
 H1500 H 0.63280 0.61627 0.16629
 H1501 H 0.60910 0.58550 0.13070
 H1502 H 0.66072 0.63506 0.06862
 H1503 H 0.68542 0.66540 0.10438
 H1504 H 0.62953 0.58778 0.05517
 H1505 H 0.69598 0.69710 0.13759
 H1506 H 0.57326 0.58274 0.09642
 C1507 C 1.18159 0.82442 0.32652
 C1508 C 1.17403 0.81708 0.35356
 C1509 C 1.15105 0.83584 0.36897
 C1510 C 1.15600 0.84180 0.39688
 C1511 C 1.13625 0.86221 0.41067
 C1512 C 1.11111 0.87682 0.39665
 C1513 C 1.10483 0.86903 0.36933
 C1514 C 1.12454 0.84877 0.35561
 C1515 C 1.09159 0.90083 0.40928
 C1516 C 1.10204 0.91769 0.43151
 H1517 H 1.18538 0.79814 0.36353
 H1518 H 1.17583 0.83153 0.40772
 H1519 H 1.14103 0.86660 0.43211
 H1520 H 1.08523 0.87939 0.35825
 H1521 H 1.11929 0.84360 0.33436
 H1522 H 1.06943 0.90721 0.39925
 H1523 H 1.17158 0.84469 0.31774
 H1524 H 1.12444 0.91255 0.44157
 C1525 C 0.69322 0.30951 -0.16436
 C1526 C 0.67464 0.33471 -0.17034
 C1527 C 0.65953 0.35419 -0.14927
 C1528 C 0.63673 0.37526 -0.15794
 C1529 C 0.62196 0.39437 -0.13911
 C1530 C 0.62953 0.39279 -0.11095
 C1531 C 0.65289 0.37224 -0.10230
 C1532 C 0.66773 0.35308 -0.12119
 C1533 C 0.61424 0.41284 -0.09046
 C1534 C 0.58445 0.42609 -0.09491
 H1535 H 0.67057 0.34036 -0.19174
 H1536 H 0.63034 0.37703 -0.17946
 H1537 H 0.60511 0.41070 -0.14690
 H1538 H 0.65959 0.37092 -0.08083
 H1539 H 0.68584 0.33789 -0.11359
 H1540 H 0.62645 0.41682 -0.07117
 H1541 H 0.69704 0.30264 -0.14331
 H1542 H 0.57098 0.42082 -0.11323
 C1543 C 0.82232 1.17169 0.31842
 C1544 C 0.83266 1.17905 0.34476
 C1545 C 0.85859 1.16214 0.35868
 C1546 C 0.85965 1.16137 0.38746
 C1547 C 0.88289 1.14432 0.40105
 C1548 C 0.90564 1.12771 0.38603
 C1549 C 0.90584 1.13005 0.35731
 C1550 C 0.88260 1.14705 0.34373
 C1551 C 0.92846 1.10693 0.39954
 C1552 C 0.92082 1.09249 0.42405
 H1553 H 0.82131 1.19743 0.35554
 H1554 H 0.84200 1.17345 0.39945
 H1555 H 0.88283 1.14411 0.42328
 H1556 H 0.92348 1.11800 0.34529
 H1557 H 0.88362 1.14831 0.32155
 H1558 H 0.94980 1.10016 0.38847
 H1559 H 0.83261 1.15252 0.30810
 H1560 H 0.89837 1.09739 0.43422
 C1561 C 0.30266 0.69277 -0.16105
 C1562 C 0.32406 0.66937 -0.16581
 C1563 C 0.33958 0.65243 -0.14316
 C1564 C 0.36909 0.63848 -0.14808
 C1565 C 0.38452 0.62243 -0.12725
 C1566 C 0.37065 0.61981 -0.10093
 C1567 C 0.34059 0.63287 -0.09625
 C1568 C 0.32523 0.64916 -0.11707
 C1569 C 0.38652 0.60241 -0.07873
 C1570 C 0.41972 0.59971 -0.07756
 H1571 H 0.33060 0.66400 -0.18679
 H1572 H 0.38035 0.64012 -0.16810
 H1573 H 0.40701 0.61159 -0.13206
 H1574 H 0.32906 0.63060 -0.07639
 H1575 H 0.30191 0.65862 -0.11278
 H1576 H 0.37188 0.59088 -0.06367
 H1577 H 0.29761 0.69952 -0.14014
 H1578 H 0.43427 0.61252 -0.09176
 C1579 C 0.84277 0.83054 0.67466
 C1580 C 0.84883 0.82153 0.64775
 C1581 C 0.87199 0.83780 0.63019
 C1582 C 0.86767 0.83851 0.60164
 C1583 C 0.88824 0.85535 0.58495
 C1584 C 0.91366 0.87167 0.59665
 C1585 C 0.91905 0.86934 0.62500
 C1586 C 0.89853 0.85259 0.64161
 C1587 C 0.93430 0.89219 0.58054
 C1588 C 0.92577 0.90382 0.55499
 H1589 H 0.83601 0.80264 0.63926
 H1590 H 0.84786 0.82666 0.59232
 H1591 H 0.88391 0.85556 0.56306
 H1592 H 0.93878 0.88115 0.63449
 H1593 H 0.90354 0.85135 0.66339
 H1594 H 0.95548 0.90103 0.59049
 H1595 H 0.85413 0.85055 0.68247
 H1596 H 0.90450 0.89619 0.54454
 C1597 C 0.34612 0.32229 0.17781
 C1598 C 0.34401 0.32186 0.14914
 C1599 C 0.36509 0.33990 0.13095
 C1600 C 0.35495 0.34641 0.10410
 C1601 C 0.37378 0.36402 0.08658
 C1602 C 0.40336 0.37545 0.09560
 C1603 C 0.41396 0.36800 0.12213
 C1604 C 0.39516 0.35042 0.13960
 C1605 C 0.42375 0.39542 0.07852
 C1606 C 0.41381 0.40940 0.05427
 H1607 H 0.32515 0.30889 0.13963
 H1608 H 0.33214 0.33816 0.09675
 H1609 H 0.36492 0.36846 0.06613
 H1610 H 0.43683 0.37608 0.12952
 H1611 H 0.40451 0.34499 0.15972
 H1612 H 0.44722 0.40102 0.08648
 H1613 H 0.36349 0.33652 0.18778
 H1614 H 0.39044 0.40512 0.04568
   
