data_POSCAR
  _audit_creation_date              2014-09-24
  _audit_creation_method            'ToBaCCo'
  _symmetry_space_group_name_H-M    'P1'
  _symmetry_Int_Tables_number       1
  _symmetry_cell_setting            triclinic
  loop_
  _symmetry_equiv_pos_as_xyz
 x,y,z
_cell_length_a 80.8066
_cell_length_b 81.9153
_cell_length_c 79.8843
_cell_angle_alpha 89.954800
_cell_angle_beta 90.094600
_cell_angle_gamma 90.024500
loop_
  _atom_site_label
  _atom_site_type_symbol
  _atom_site_fract_x
  _atom_site_fract_y
  _atom_site_fract_z
C1 C 0.32201 0.42536 0.90783
 N2 N 0.33599 0.43200 0.91433
 C3 C 0.34297 0.42546 0.92826
 N4 N 0.33587 0.41237 0.93579
 C5 C 0.32188 0.40573 0.92929
 N6 N 0.31490 0.41227 0.91535
 C7 C 0.42157 0.84982 0.42347
 N8 N 0.42810 0.84367 0.40917
 C9 C 0.42140 0.83015 0.40207
 N10 N 0.40832 0.82263 0.40941
 C11 C 0.40179 0.82878 0.42372
 N12 N 0.40849 0.84230 0.43080
 C13 C 0.92082 0.90001 0.82845
 N14 N 0.92806 0.90678 0.84212
 C15 C 0.92108 0.91996 0.84958
 N16 N 0.90700 0.92652 0.84321
 C17 C 0.89975 0.91975 0.82954
 N18 N 0.90673 0.90657 0.82209
 C19 C 0.41883 -0.10244 0.32858
 N20 N 0.42628 -0.09569 0.34215
 C21 C 0.41996 -0.08197 0.34916
 N22 N 0.40634 -0.07484 0.34244
 C23 C 0.39887 -0.08157 0.32887
 N24 N 0.40521 -0.09529 0.32184
 C25 C 0.82242 0.32499 0.34236
 N26 N 0.83628 0.31805 0.33596
 C27 C 0.84397 0.32495 0.32262
 N28 N 0.83768 0.33869 0.31556
 C29 C 0.82383 0.34564 0.32197
 N30 N 0.81615 0.33874 0.33530
 C31 C -0.17141 0.85155 0.82795
 N32 N -0.15758 0.84460 0.82147
 C33 C -0.15111 0.83100 0.82866
 N34 N -0.15861 0.82422 0.84217
 C35 C -0.17243 0.83115 0.84865
 N36 N -0.17890 0.84475 0.84146
 C37 C 0.93007 0.34201 0.43142
 N38 N 0.91655 0.33493 0.43840
 C39 C 0.90969 0.32155 0.43120
 N40 N 0.91639 0.31519 0.41708
 C41 C 0.92989 0.32227 0.41009
 N42 N 0.93678 0.33565 0.41730
 C43 C 0.42462 0.42312 0.84504
 N44 N 0.43133 0.40964 0.83789
 C45 C 0.42422 0.40299 0.82408
 N46 N 0.41051 0.40994 0.81731
 C47 C 0.40380 0.42342 0.82446
 N48 N 0.41092 0.43006 0.83826
 C49 C 0.82677 0.90197 0.92553
 N50 N 0.84045 0.90905 0.93223
 C51 C 0.84714 0.92246 0.92488
 N52 N 0.84000 0.92892 0.91099
 C53 C 0.82633 0.92184 0.90430
 N54 N 0.81965 0.90844 0.91165
 C55 C 0.32578 0.84849 0.32449
 N56 N 0.31812 0.84165 0.33788
 C57 C 0.32447 0.82802 0.34508
 N58 N 0.33837 0.82109 0.33876
 C59 C 0.34604 0.82793 0.32538
 N60 N 0.33967 0.84156 0.31817
 C61 C 0.82143 0.40686 0.43000
 N62 N 0.83491 0.41404 0.43699
 C63 C 0.84154 0.42759 0.42989
 N64 N 0.83462 0.43403 0.41588
 C65 C 0.82115 0.42686 0.40889
 N66 N 0.81450 0.41331 0.41599
 C67 C 0.92166 0.85070 -0.07755
 N68 N 0.90813 0.84363 -0.07058
 C69 C 0.90109 0.83041 -0.07793
 N70 N 0.90773 0.82411 -0.09211
 C71 C 0.92125 0.83117 -0.09909
 N72 N 0.92830 0.84439 -0.09173
 C73 C 0.32235 0.34418 0.82083
 N74 N 0.31470 0.33733 0.83421
 C75 C 0.32104 0.32368 0.84139
 N76 N 0.33497 0.31680 0.83510
 C77 C 0.34263 0.32364 0.82172
 N78 N 0.33627 0.33729 0.81452
 C79 C 0.15677 0.57589 0.57129
 N80 N 0.16417 0.56868 0.58463
 C81 C 0.17793 0.57542 0.59148
 N82 N 0.18439 0.58929 0.58490
 C83 C 0.17699 0.59650 0.57155
 N84 N 0.16322 0.58976 0.56469
 C85 C 0.58915 0.67969 0.06757
 N86 N 0.58246 0.66598 0.06084
 C87 C 0.56877 0.65921 0.06780
 N88 N 0.56171 0.66620 0.08143
 C89 C 0.56840 0.67990 0.08816
 N90 N 0.58209 0.68667 0.08120
 C91 C 0.68484 0.18274 0.66560
 N92 N 0.67132 0.18992 0.67243
 C93 C 0.66445 0.18363 0.68651
 N94 N 0.67106 0.17014 0.69374
 C95 C 0.68459 0.16296 0.68691
 N96 N 0.69147 0.16925 0.67283
 C97 C 1.09148 0.07102 0.18024
 N98 N 1.08476 0.08461 0.18714
 C99 C 1.07095 0.09134 0.18034
 N100 N 1.06379 0.08440 0.16671
 C101 C 1.07050 0.07080 0.15981
 N102 N 1.08431 0.06408 0.16661
 C103 C 0.07167 0.15467 1.07139
 N104 N 0.08569 0.16141 1.06511
 C105 C 0.09222 0.17497 1.07230
 N106 N 0.08462 0.18189 1.08567
 C107 C 0.07059 0.17516 1.09195
 N108 N 0.06408 0.16159 1.08476
 C109 C 0.15718 0.67815 0.68027
 N110 N 0.16374 0.68509 0.66635
 C111 C 0.17720 0.67834 0.65896
 N112 N 0.18419 0.66472 0.66557
 C113 C 0.17762 0.65777 0.67948
 N114 N 0.16416 0.66453 0.68688
 C115 C 1.18072 0.15828 0.18180
 N116 N 1.18742 0.16470 0.16769
 C117 C 1.18047 0.17803 0.16043
 N118 N 1.16688 0.18500 0.16736
 C119 C 1.16018 0.17859 0.18147
 N120 N 1.16713 0.16525 0.18872
 C121 C 0.66441 1.06653 0.56370
 N122 N 0.67165 1.05987 0.57744
 C123 C 0.68522 1.06701 0.58428
 N124 N 0.69154 1.08081 0.57740
 C125 C 0.68430 1.08747 0.56366
 N126 N 0.67073 1.08033 0.55681
 C127 C 0.56927 0.57264 0.16051
 N128 N 0.56287 0.58639 0.16739
 C129 C 0.57018 0.59318 0.18101
 N130 N 0.58381 0.58614 0.18783
 C131 C 0.59021 0.57239 0.18095
 N132 N 0.58291 0.56561 0.16733
 C133 C 0.66335 0.68410 0.18534
 N134 N 0.66974 0.67027 0.19212
 C135 C 0.68316 0.66311 0.18508
 N136 N 0.69021 0.66979 0.17127
 C137 C 0.68383 0.68362 0.16449
 N138 N 0.67040 0.69077 0.17153
 C139 C 0.16283 0.06643 1.06459
 N140 N 0.16912 0.08028 1.05779
 C141 C 0.18265 0.08743 1.06470
 N142 N 0.18992 0.08070 1.07839
 C143 C 0.18363 0.06684 1.08518
 N144 N 0.17008 0.05970 1.07828
 C145 C 0.59103 0.17664 0.57007
 N146 N 0.58378 0.18358 0.58363
 C147 C 0.56981 0.17697 0.59016
 N148 N 0.56302 0.16349 0.58307
 C149 C 0.57026 0.15655 0.56952
 N150 N 0.58423 0.16316 0.56298
 C151 C 0.09230 0.57508 0.67889
 N152 N 0.08571 0.56862 0.66474
 C153 C 0.07233 0.57572 0.65748
 N154 N 0.06544 0.58918 0.66447
 C155 C 0.07204 0.59564 0.67862
 N156 N 0.08542 0.58854 0.68588
 C157 C 0.66368 0.56751 0.06300
 N158 N 0.67013 0.58110 0.05582
 C159 C 0.68386 0.58816 0.06242
 N160 N 0.69115 0.58163 0.07620
 C161 C 0.68469 0.56803 0.08337
 N162 N 0.67096 0.56098 0.07678
 C163 C 0.07318 0.67534 0.59421
 N164 N 0.06709 0.66148 0.58724
 C165 C 0.07480 0.65468 0.57387
 N166 N 0.08848 0.66188 0.56733
 C167 C 0.09457 0.67574 0.57430
 N168 N 0.08686 0.68252 0.58767
 C169 C 0.56810 1.07033 0.66032
 N170 N 0.58181 1.06335 0.66705
 C171 C 0.58907 1.07005 0.68076
 N172 N 0.58254 1.08367 0.68780
 C173 C 0.56883 1.09065 0.68107
 N174 N 0.56158 1.08395 0.66736
 C175 C 0.42703 0.34386 0.92997
 N176 N 0.43408 0.33758 0.91598
 C177 C 0.42761 0.32402 0.90875
 N178 N 0.41420 0.31664 0.91560
 C179 C 0.40716 0.32290 0.92959
 N180 N 0.41361 0.33647 0.93683
 C181 C 0.93041 0.42768 0.33979
 N182 N 0.91653 0.43442 0.33318
 C183 C 0.90911 0.42743 0.31972
 N184 N 0.91564 0.41376 0.31280
 C185 C 0.92952 0.40701 0.31941
 N186 N 0.93694 0.41400 0.33287
 C187 C 0.33114 0.91887 0.39895
 N188 N 0.32376 0.90600 0.40663
 C189 C 0.33055 0.89950 0.42068
 N190 N 0.34457 0.90605 0.42721
 C191 C 0.35197 0.91891 0.41954
 N192 N 0.34516 0.92541 0.40549
 O193 O 0.24919 0.54432 0.72863
 O194 O 0.27787 0.53877 0.73134
 O195 O 0.22838 0.50301 0.70543
 O196 O 0.22820 0.47563 0.70946
 O197 O 0.20634 0.52252 0.74946
 O198 O 0.21249 0.52017 0.77886
 O199 O 0.27145 0.45788 0.75002
 O200 O 0.26745 0.46285 0.72112
 O201 O 0.29299 0.49764 0.77164
 O202 O 0.28819 0.52763 0.77051
 O203 O 0.25138 0.47814 0.79279
 O204 O 0.22133 0.48013 0.78739
 O205 O 0.25179 0.45777 0.77047
 O206 O 0.22068 0.46369 0.76810
 O207 O 0.27165 0.49746 0.79324
 O208 O 0.26971 0.52806 0.78801
 O209 O 0.29240 0.47818 0.75129
 O210 O 0.28748 0.48483 0.72082
 O211 O 0.22957 0.54433 0.74919
 O212 O 0.23178 0.53788 0.77915
 O213 O 0.20576 0.50337 0.72877
 O214 O 0.21172 0.47347 0.73111
 O215 O 0.24851 0.52255 0.70584
 O216 O 0.27845 0.51795 0.71198
 Zr217 Zr 0.25923 0.52065 0.72982
 O218 O 0.27495 0.50583 0.74438
 Zr219 Zr 0.22941 0.49247 0.72947
 O220 O 0.24411 0.47625 0.74356
 Zr221 Zr 0.23033 0.52061 0.75955
 O222 O 0.24463 0.50546 0.77523
 Zr223 Zr 0.26929 0.48128 0.73959
 O224 O 0.25462 0.49602 0.72366
 Zr225 Zr 0.26980 0.50922 0.76989
 O226 O 0.25553 0.52564 0.75544
 Zr227 Zr 0.24027 0.48084 0.76913
 O228 O 0.22420 0.49600 0.75504
 O229 O 0.23422 0.51683 0.73423
 O230 O 0.26528 0.48475 0.76502
 C231 C 0.23747 0.55104 0.73702
 C232 C 0.23655 0.51482 0.69880
 C233 C 0.19926 0.51500 0.73731
 C234 C 0.26389 0.45131 0.76243
 C235 C 0.29918 0.48545 0.76375
 C236 C 0.26374 0.48538 0.79961
 H237 H 0.28665 0.50820 0.74169
 H238 H 0.24204 0.50778 0.78708
 H239 H 0.22720 0.52400 0.72726
 H240 H 0.24152 0.46482 0.74056
 H241 H 0.26409 0.46838 0.71062
 H242 H 0.23587 0.46662 0.71221
 H243 H 0.26071 0.52575 0.79605
 H244 H 0.24255 0.54350 0.77792
 H245 H 0.29511 0.47537 0.72121
 H246 H 0.27755 0.52694 0.70370
 H247 H 0.22253 0.48994 0.79449
 H248 H 0.20705 0.50936 0.77823
 H249 H 0.27737 0.54335 0.74279
 H250 H 0.29511 0.52639 0.76040
 H251 H 0.20527 0.47540 0.74145
 H252 H 0.22328 0.45568 0.75923
 O253 O 0.20692 0.02123 0.24839
 O254 O 0.21178 0.01742 0.27730
 O255 O 0.24968 0.04435 0.22958
 O256 O 0.27737 0.04018 0.23026
 O257 O 0.23024 0.00266 0.20460
 O258 O 0.23184 -0.02617 0.20952
 O259 O 0.29352 -0.00189 0.27259
 O260 O 0.28907 0.02676 0.26960
 O261 O 0.25265 -0.02343 0.29174
 O262 O 0.22216 -0.02132 0.28613
 O263 O 0.27340 -0.04193 0.24976
 O264 O 0.27183 -0.03537 0.21922
 O265 O 0.29394 -0.02085 0.25170
 O266 O 0.28909 -0.01686 0.22018
 O267 O 0.25317 -0.04308 0.26956
 O268 O 0.22211 -0.03768 0.26650
 O269 O 0.27265 -0.00384 0.29273
 O270 O 0.26624 0.02627 0.28932
 O271 O 0.20725 0.00216 0.22754
 O272 O 0.21341 -0.02716 0.22838
 O273 O 0.24997 0.02254 0.20561
 O274 O 0.27996 0.01985 0.21267
 O275 O 0.22931 0.04329 0.24929
 O276 O 0.23315 0.03591 0.27941
 Zr277 Zr 0.23067 0.01944 0.25907
 O278 O 0.24501 0.00432 0.27476
 Zr279 Zr 0.26010 0.02079 0.22989
 O280 O 0.27594 0.00616 0.24456
 Zr281 Zr 0.23117 -0.00820 0.22846
 O282 O 0.24588 -0.02436 0.24263
 Zr283 Zr 0.27012 0.00892 0.27002
 O284 O 0.25584 0.02533 0.25551
 Zr285 Zr 0.24138 -0.02024 0.26819
 O286 O 0.22538 -0.00527 0.25394
 Zr287 Zr 0.27102 -0.01850 0.23927
 O288 O 0.25635 -0.00382 0.22327
 O289 O 0.23519 0.01624 0.23370
 O290 O 0.26629 -0.01553 0.26454
 C291 C 0.20030 0.01361 0.23601
 C292 C 0.23757 0.05059 0.23777
 C293 C 0.23836 0.01461 0.19821
 C294 C 0.30011 -0.01386 0.26468
 C295 C 0.26511 -0.01638 0.29861
 C296 C 0.26577 -0.04892 0.26188
 H297 H 0.24233 0.00640 0.28664
 H298 H 0.24347 -0.03576 0.23940
 H299 H 0.22820 0.02340 0.22668
 H300 H 0.28764 0.00902 0.24248
 H301 H 0.28367 0.03725 0.26675
 H302 H 0.28622 0.03705 0.23819
 H303 H 0.22496 -0.04544 0.25747
 H304 H 0.20752 -0.02650 0.23921
 H305 H 0.27565 0.02538 0.29724
 H306 H 0.22420 0.04416 0.27862
 H307 H 0.26228 -0.04283 0.22042
 H308 H 0.24312 -0.02577 0.20470
 H309 H 0.20723 0.00624 0.27637
 H310 H 0.22381 -0.01222 0.29410
 H311 H 0.27822 0.01002 0.20569
 H312 H 0.29729 -0.00853 0.22357
 O313 O 0.50149 0.70786 0.22946
 O314 O 0.47278 0.71264 0.23199
 O315 O 0.52099 0.74953 0.20553
 O316 O 0.52032 0.77694 0.20919
 O317 O 0.54396 0.73133 0.24986
 O318 O 0.53791 0.73358 0.27912
 O319 O 0.47652 0.79362 0.25018
 O320 O 0.48076 0.78875 0.22104
 O321 O 0.45683 0.75370 0.27219
 O322 O 0.46251 0.72373 0.27119
 O323 O 0.49765 0.77485 0.29254
 O324 O 0.52804 0.77329 0.28707
 O325 O 0.49640 0.79454 0.27046
 O326 O 0.52777 0.78987 0.26758
 O327 O 0.47790 0.75500 0.29328
 O328 O 0.48131 0.72416 0.28872
 O329 O 0.45663 0.77301 0.25165
 O330 O 0.46134 0.76610 0.22109
 O331 O 0.52132 0.70867 0.24988
 O332 O 0.51918 0.71539 0.27973
 O333 O 0.54382 0.75027 0.22892
 O334 O 0.53676 0.77996 0.23073
 O335 O 0.50149 0.72941 0.20628
 O336 O 0.47144 0.73329 0.21249
 Zr337 Zr 0.49086 0.73127 0.23028
 O338 O 0.47477 0.74571 0.24476
 Zr339 Zr 0.51977 0.76032 0.22944
 O340 O 0.50467 0.77625 0.24341
 Zr341 Zr 0.51995 0.73247 0.25990
 O342 O 0.50533 0.74733 0.27550
 Zr343 Zr 0.47963 0.77038 0.23965
 O344 O 0.49464 0.75596 0.22380
 Zr345 Zr 0.48027 0.74272 0.27029
 O346 O 0.49492 0.72663 0.25593
 Zr347 Zr 0.50889 0.77199 0.26901
 O348 O 0.52529 0.75720 0.25502
 O349 O 0.51579 0.73586 0.23453
 O350 O 0.48406 0.76718 0.26501
 C351 C 0.51343 0.70155 0.23793
 C352 C 0.51312 0.73744 0.19906
 C353 C 0.55078 0.73903 0.23768
 C354 C 0.48379 0.80037 0.26268
 C355 C 0.45029 0.76578 0.26437
 C356 C 0.48530 0.76755 0.29931
 H357 H 0.46312 0.74297 0.24219
 H358 H 0.50806 0.74525 0.28737
 H359 H 0.52301 0.72883 0.22764
 H360 H 0.50683 0.78774 0.24029
 H361 H 0.48404 0.78323 0.21053
 H362 H 0.51225 0.78564 0.21177
 H363 H 0.48974 0.72733 0.29710
 H364 H 0.50853 0.70950 0.27867
 H365 H 0.45343 0.77534 0.22147
 H366 H 0.47256 0.72428 0.20426
 H367 H 0.52662 0.76400 0.29486
 H368 H 0.54276 0.74467 0.27861
 H369 H 0.47328 0.70835 0.24356
 H370 H 0.45521 0.72490 0.26131
 H371 H 0.54329 0.77843 0.24111
 H372 H 0.52456 0.79791 0.25892
 O373 O 0.04239 0.72920 0.75033
 O374 O 0.03711 0.73270 0.77919
 O375 O -0.00046 0.70672 0.73057
 O376 O -0.02820 0.71119 0.73123
 O377 O 0.01992 0.74786 0.70621
 O378 O 0.01837 0.77684 0.71095
 O379 O -0.04411 0.75325 0.77337
 O380 O -0.04004 0.72459 0.77038
 O381 O -0.00299 0.77413 0.79309
 O382 O 0.02746 0.77172 0.78771
 O383 O -0.02332 0.79313 0.75093
 O384 O -0.02159 0.78679 0.72044
 O385 O -0.04411 0.77234 0.75255
 O386 O -0.03896 0.76831 0.72099
 O387 O -0.00333 0.79386 0.77105
 O388 O 0.02777 0.78820 0.76813
 O389 O -0.02335 0.75489 0.79376
 O390 O -0.01738 0.72469 0.79035
 O391 O 0.04255 0.74832 0.72948
 O392 O 0.03665 0.77770 0.73016
 O393 O -0.00023 0.72836 0.70693
 O394 O -0.03029 0.73170 0.71348
 O395 O 0.01987 0.70742 0.75041
 O396 O 0.01547 0.71444 0.78063
 Zr397 Zr 0.01851 0.73114 0.76056
 O398 O 0.00428 0.74641 0.77610
 Zr399 Zr -0.01066 0.73035 0.73101
 O400 O -0.02642 0.74513 0.74553
 Zr401 Zr 0.01871 0.75892 0.72999
 O402 O 0.00409 0.77524 0.74402
 Zr403 Zr -0.02085 0.74217 0.77105
 O404 O -0.00669 0.72560 0.75666
 Zr405 Zr 0.00831 0.77094 0.76961
 O406 O 0.02421 0.75579 0.75554
 Zr407 Zr -0.02111 0.76974 0.74036
 O408 O -0.00649 0.75493 0.72448
 O409 O 0.01427 0.73457 0.73518
 O410 O -0.01663 0.76658 0.76567
 C411 C 0.04926 0.73677 0.73807
 C412 C 0.01169 0.70037 0.73865
 C413 C 0.01175 0.73595 0.69977
 C414 C -0.05049 0.76534 0.76542
 C415 C -0.01561 0.76725 0.79979
 C416 C -0.01580 0.79990 0.76327
 H417 H 0.00685 0.74424 0.78801
 H418 H 0.00667 0.78662 0.74087
 H419 H 0.02131 0.72739 0.72827
 H420 H -0.03814 0.74244 0.74330
 H421 H -0.03477 0.71406 0.76747
 H422 H -0.03721 0.71456 0.73884
 H423 H 0.02492 0.79619 0.75929
 H424 H 0.04238 0.77702 0.74110
 H425 H -0.02682 0.72572 0.79819
 H426 H 0.02429 0.70606 0.77988
 H427 H -0.01177 0.79391 0.72160
 H428 H 0.00717 0.77645 0.70592
 H429 H 0.04189 0.74380 0.77839
 H430 H 0.02565 0.76262 0.79564
 H431 H -0.02823 0.74146 0.70648
 H432 H -0.04745 0.76026 0.72438
 O433 O 0.00185 0.04265 0.02065
 O434 O -0.02692 0.03781 0.01800
 O435 O 0.02151 0.00103 0.04436
 O436 O 0.02081 -0.02638 0.04065
 O437 O 0.04426 0.01939 0.00009
 O438 O 0.03809 0.01726 -0.02917
 O439 O -0.02277 -0.04326 -0.00019
 O440 O -0.01875 -0.03825 0.02881
 O441 O -0.04295 -0.00311 -0.02223
 O442 O -0.03731 0.02677 -0.02122
 O443 O -0.00207 -0.02409 -0.04273
 O444 O 0.02830 -0.02246 -0.03728
 O445 O -0.00294 -0.04406 -0.02046
 O446 O 0.02825 -0.03905 -0.01798
 O447 O -0.02176 -0.00421 -0.04349
 O448 O -0.01860 0.02654 -0.03866
 O449 O -0.04298 -0.02257 -0.00184
 O450 O -0.03822 -0.01576 0.02871
 O451 O 0.02162 0.04198 0.00025
 O452 O 0.01930 0.03539 -0.02968
 O453 O 0.04422 0.00039 0.02098
 O454 O 0.03727 -0.02928 0.01912
 O455 O 0.00192 0.02106 0.04369
 O456 O -0.02813 0.01710 0.03748
 Zr457 Zr -0.00878 0.01923 0.01969
 O458 O -0.02487 0.00477 0.00516
 Zr459 Zr 0.02021 -0.00972 0.02044
 O460 O 0.00511 -0.02565 0.00640
 Zr461 Zr 0.02021 0.01822 -0.00992
 O462 O 0.00558 0.00336 -0.02557
 Zr463 Zr -0.01994 -0.01991 0.01017
 O464 O -0.00492 -0.00548 0.02608
 Zr465 Zr -0.01948 0.00785 -0.02036
 O466 O -0.00483 0.02397 -0.00595
 Zr467 Zr 0.00923 -0.02131 -0.01919
 O468 O 0.02563 -0.00651 -0.00514
 O469 O 0.01614 0.01473 0.01542
 O470 O -0.01565 -0.01666 -0.01521
 C471 C 0.01380 0.04900 0.01227
 C472 C 0.01364 0.01309 0.05086
 C473 C 0.05112 0.01168 0.01225
 C474 C -0.01536 -0.05007 -0.01255
 C475 C -0.04944 -0.01523 -0.01445
 C476 C -0.01433 -0.01669 -0.04958
 H477 H -0.03652 0.00746 0.00775
 H478 H 0.00827 0.00550 -0.03743
 H479 H 0.02338 0.02175 0.02233
 H480 H 0.00735 -0.03712 0.00951
 H481 H -0.01536 -0.03274 0.03930
 H482 H 0.01282 -0.03515 0.03800
 H483 H -0.00999 0.02360 -0.04691
 H484 H 0.00869 0.04132 -0.02851
 H485 H -0.04611 -0.02502 0.02829
 H486 H -0.02702 0.02609 0.04571
 H487 H 0.02685 -0.01313 -0.04500
 H488 H 0.04297 0.00619 -0.02871
 H489 H -0.02634 0.04224 0.00649
 H490 H -0.04441 0.02570 -0.01121
 H491 H 0.04373 -0.02772 0.00873
 H492 H 0.02542 -0.04687 -0.00898
 O493 O -0.04311 0.49943 0.47642
 O494 O -0.03754 0.52767 0.47765
 O495 O -0.00016 0.47805 0.45554
 O496 O 0.02738 0.47814 0.46065
 O497 O -0.02149 0.45799 0.49971
 O498 O -0.02013 0.46515 0.52883
 O499 O 0.04379 0.52243 0.49954
 O500 O 0.03946 0.51760 0.47070
 O501 O 0.00274 0.54430 0.51924
 O502 O -0.02776 0.53946 0.51680
 O503 O 0.02179 0.50454 0.54259
 O504 O 0.02011 0.47466 0.53859
 O505 O 0.04323 0.50403 0.52098
 O506 O 0.03738 0.47326 0.51994
 O507 O 0.00193 0.52424 0.54153
 O508 O -0.02881 0.52196 0.53513
 O509 O 0.02327 0.54302 0.49978
 O510 O 0.01726 0.53734 0.46919
 O511 O -0.04373 0.48090 0.49781
 O512 O -0.03808 0.48407 0.52780
 O513 O -0.00129 0.45671 0.47986
 O514 O 0.02890 0.46295 0.48305
 O515 O -0.02020 0.49762 0.45430
 O516 O -0.01572 0.52748 0.45919
 Zr517 Zr -0.01911 0.50931 0.47782
 O518 O -0.00472 0.52553 0.49223
 Zr519 Zr 0.00957 0.48012 0.47989
 O520 O 0.02543 0.49531 0.49389
 Zr521 Zr -0.01999 0.48204 0.50882
 O522 O -0.00527 0.49686 0.52441
 Zr523 Zr 0.02034 0.51993 0.48862
 O524 O 0.00608 0.50470 0.47281
 Zr525 Zr -0.00902 0.52143 0.51781
 O526 O -0.02505 0.50666 0.50338
 Zr527 Zr 0.01991 0.49251 0.51942
 O528 O 0.00513 0.47599 0.50552
 O529 O -0.01533 0.48486 0.48350
 O530 O 0.01596 0.51694 0.51405
 C531 C -0.05023 0.48829 0.48519
 C532 C -0.01197 0.48566 0.44810
 C533 C -0.01336 0.45057 0.48821
 C534 C 0.05006 0.51555 0.51251
 C535 C 0.01551 0.55007 0.51176
 C536 C 0.01407 0.51688 0.54863
 H537 H -0.00706 0.53695 0.48897
 H538 H -0.00803 0.49478 0.53626
 H539 H -0.02237 0.47764 0.47661
 H540 H 0.03711 0.49270 0.49140
 H541 H 0.03413 0.51393 0.46019
 H542 H 0.03618 0.48616 0.46318
 H543 H -0.02674 0.51342 0.54364
 H544 H -0.04377 0.49463 0.52597
 H545 H 0.02682 0.54492 0.46967
 H546 H -0.02446 0.52615 0.45057
 H547 H 0.00991 0.47607 0.54526
 H548 H -0.00908 0.45993 0.52891
 H549 H -0.04227 0.52801 0.48906
 H550 H -0.02574 0.54631 0.50681
 H551 H 0.02656 0.45692 0.49353
 H552 H 0.04575 0.47545 0.51119
 O553 O 0.54438 0.01917 0.50034
 O554 O 0.53960 0.01563 0.47153
 O555 O 0.50140 0.04277 0.51880
 O556 O 0.47370 0.03872 0.51762
 O557 O 0.52052 0.00147 0.54423
 O558 O 0.51862 -0.02748 0.53975
 O559 O 0.45791 -0.00367 0.47550
 O560 O 0.46236 0.02502 0.47836
 O561 O 0.49880 -0.02545 0.45716
 O562 O 0.52931 -0.02329 0.46310
 O563 O 0.47760 -0.04357 0.49913
 O564 O 0.47868 -0.03678 0.52948
 O565 O 0.45720 -0.02253 0.49652
 O566 O 0.46163 -0.01803 0.52818
 O567 O 0.49798 -0.04488 0.47950
 O568 O 0.52901 -0.03961 0.48282
 O569 O 0.47898 -0.00572 0.45568
 O570 O 0.48546 0.02439 0.45895
 O571 O 0.54374 0.00027 0.52138
 O572 O 0.53722 -0.02890 0.52116
 O573 O 0.50073 0.02126 0.54280
 O574 O 0.47082 0.01847 0.53546
 O575 O 0.52212 0.04151 0.49948
 O576 O 0.51833 0.03411 0.46926
 Zr577 Zr 0.52063 0.01765 0.48965
 O578 O 0.50642 0.00245 0.47393
 Zr579 Zr 0.49087 0.01927 0.51845
 O580 O 0.47514 0.00459 0.50373
 Zr581 Zr 0.51967 -0.00977 0.52053
 O582 O 0.50507 -0.02599 0.50633
 Zr583 Zr 0.48128 0.00716 0.47833
 O584 O 0.49545 0.02364 0.49285
 Zr585 Zr 0.50986 -0.02208 0.48079
 O586 O 0.52574 -0.00705 0.49509
 Zr587 Zr 0.47991 -0.02004 0.50932
 O588 O 0.49446 -0.00529 0.52537
 O589 O 0.51584 0.01463 0.51499
 O590 O 0.48495 -0.01725 0.48409
 C591 C 0.55090 0.01150 0.51274
 C592 C 0.51374 0.04888 0.51085
 C593 C 0.51234 0.01349 0.55038
 C594 C 0.45123 -0.01563 0.48338
 C595 C 0.48649 -0.01836 0.45004
 C596 C 0.48528 -0.05064 0.48711
 H597 H 0.50926 0.00444 0.46207
 H598 H 0.50738 -0.03738 0.50969
 H599 H 0.52288 0.02176 0.52198
 H600 H 0.46342 0.00749 0.50564
 H601 H 0.46774 0.03552 0.48122
 H602 H 0.46483 0.03547 0.50976
 H603 H 0.52606 -0.04723 0.49195
 H604 H 0.54314 -0.02855 0.51032
 H605 H 0.47615 0.02346 0.45090
 H606 H 0.52723 0.04241 0.47016
 H607 H 0.48844 -0.04401 0.52874
 H608 H 0.50735 -0.02683 0.54453
 H609 H 0.54392 0.00435 0.47231
 H610 H 0.52758 -0.01447 0.45482
 H611 H 0.47250 0.00873 0.54260
 H612 H 0.45327 -0.01003 0.52435
 O613 O 0.54300 0.52015 0.00094
 O614 O 0.53791 0.51658 -0.02787
 O615 O 0.50030 0.54375 0.01988
 O616 O 0.47258 0.53975 0.01897
 O617 O 0.51962 0.50241 0.04503
 O618 O 0.51762 0.47346 0.04054
 O619 O 0.45609 0.49774 -0.02276
 O620 O 0.46083 0.52613 -0.02024
 O621 O 0.49717 0.47582 -0.04196
 O622 O 0.52747 0.47754 -0.03619
 O623 O 0.47632 0.45735 0.00056
 O624 O 0.47744 0.46421 0.03067
 O625 O 0.45554 0.47889 -0.00173
 O626 O 0.46060 0.48285 0.02969
 O627 O 0.49654 0.45599 -0.01922
 O628 O 0.52744 0.46144 -0.01658
 O629 O 0.47728 0.49549 -0.04318
 O630 O 0.48367 0.52547 -0.03981
 O631 O 0.54257 0.50122 0.02195
 O632 O 0.53603 0.47206 0.02172
 O633 O 0.49984 0.52222 0.04384
 O634 O 0.46986 0.51949 0.03684
 O635 O 0.52080 0.54250 0.00033
 O636 O 0.51665 0.53515 -0.02984
 Zr637 Zr 0.51915 0.51865 -0.00951
 O638 O 0.50476 0.50346 -0.02506
 Zr639 Zr 0.48973 0.52027 0.01961
 O640 O 0.47384 0.50563 0.00504
 Zr641 Zr 0.51849 0.49120 0.02134
 O642 O 0.50370 0.47503 0.00729
 Zr643 Zr 0.47967 0.50819 -0.02044
 O644 O 0.49402 0.52465 -0.00604
 Zr645 Zr 0.50821 0.47892 -0.01830
 O646 O 0.52428 0.49393 -0.00417
 Zr647 Zr 0.47858 0.48098 0.01053
 O648 O 0.49333 0.49569 0.02645
 O649 O 0.51464 0.51560 0.01587
 O650 O 0.48326 0.48368 -0.01482
 C651 C 0.54965 0.51247 0.01326
 C652 C 0.51256 0.54987 0.01181
 C653 C 0.51153 0.51443 0.05127
 C654 C 0.44929 0.48603 -0.01460
 C655 C 0.48493 0.48303 -0.04906
 C656 C 0.48409 0.45011 -0.01130
 H657 H 0.50750 0.50548 -0.03695
 H658 H 0.50606 0.46365 0.01065
 H659 H 0.52176 0.52272 0.02279
 H660 H 0.46216 0.50859 0.00711
 H661 H 0.46626 0.53659 -0.01732
 H662 H 0.46361 0.53651 0.01123
 H663 H 0.52483 0.45402 -0.00717
 H664 H 0.54189 0.47247 0.01086
 H665 H 0.47428 0.52462 -0.04776
 H666 H 0.52560 0.54340 -0.02906
 H667 H 0.48745 0.45729 0.03015
 H668 H 0.50648 0.47426 0.04560
 H669 H 0.54239 0.50537 -0.02697
 H670 H 0.52608 0.48675 -0.04408
 H671 H 0.47163 0.50977 0.04399
 H672 H 0.45251 0.49130 0.02632
 O673 O 0.79338 0.25151 0.47727
 O674 O 0.78803 0.22316 0.47848
 O675 O 0.75009 0.27248 0.45634
 O676 O 0.72255 0.27191 0.46141
 O677 O 0.77153 0.29262 0.50019
 O678 O 0.76998 0.28561 0.52951
 O679 O 0.70684 0.22738 0.50067
 O680 O 0.71062 0.23258 0.47190
 O681 O 0.74845 0.20588 0.51962
 O682 O 0.77860 0.21130 0.51778
 O683 O 0.72906 0.24602 0.54362
 O684 O 0.72999 0.27558 0.53935
 O685 O 0.70723 0.24599 0.52189
 O686 O 0.71277 0.27680 0.52070
 O687 O 0.74886 0.22629 0.54243
 O688 O 0.77947 0.22867 0.53595
 O689 O 0.72803 0.20687 0.49996
 O690 O 0.73322 0.21337 0.46966
 O691 O 0.79386 0.26990 0.49876
 O692 O 0.78823 0.26692 0.52865
 O693 O 0.75116 0.29370 0.48044
 O694 O 0.72102 0.28727 0.48391
 O695 O 0.77037 0.25315 0.45513
 O696 O 0.76624 0.22325 0.45995
 Zr697 Zr 0.76946 0.24138 0.47862
 O698 O 0.75528 0.22503 0.49305
 Zr699 Zr 0.74044 0.27024 0.48068
 O700 O 0.72482 0.25488 0.49472
 Zr701 Zr 0.77012 0.26864 0.50960
 O702 O 0.75566 0.25362 0.52518
 Zr703 Zr 0.73012 0.23032 0.48948
 O704 O 0.74418 0.24570 0.47364
 Zr705 Zr 0.75961 0.22908 0.51863
 O706 O 0.77543 0.24406 0.50420
 Zr707 Zr 0.73042 0.25770 0.52024
 O708 O 0.74493 0.27442 0.50630
 O709 O 0.76541 0.26575 0.48429
 O710 O 0.73453 0.23324 0.51496
 C711 C 0.80042 0.26263 0.48614
 C712 C 0.76201 0.26506 0.44893
 C713 C 0.76334 0.29990 0.48860
 C714 C 0.70049 0.23435 0.51353
 C715 C 0.73609 0.19974 0.51171
 C716 C 0.73697 0.23381 0.54972
 H717 H 0.75778 0.21367 0.48972
 H718 H 0.75847 0.25576 0.53702
 H719 H 0.77241 0.27299 0.47739
 H720 H 0.71309 0.25736 0.49228
 H721 H 0.71568 0.23654 0.46137
 H722 H 0.71356 0.26423 0.46427
 H723 H 0.77745 0.23730 0.54436
 H724 H 0.79394 0.25636 0.52699
 H725 H 0.72375 0.20568 0.46999
 H726 H 0.77496 0.22469 0.45135
 H727 H 0.74059 0.27484 0.54551
 H728 H 0.75907 0.29110 0.52915
 H729 H 0.79307 0.22311 0.48979
 H730 H 0.77712 0.20490 0.50740
 H731 H 0.72344 0.29338 0.49432
 H732 H 0.70435 0.27449 0.51202
 O733 O 0.74855 0.70676 0.01836
 O734 O 0.77708 0.71176 0.01563
 O735 O 0.72951 0.74812 0.04388
 O736 O 0.72957 0.77549 0.04062
 O737 O 0.70560 0.73034 -0.00021
 O738 O 0.71082 0.73375 -0.02960
 O739 O 0.77250 0.79334 -0.00021
 O740 O 0.76913 0.78743 0.02865
 O741 O 0.79219 0.75391 -0.02390
 O742 O 0.78657 0.72390 -0.02353
 O743 O 0.75090 0.77533 -0.04305
 O744 O 0.72082 0.77373 -0.03717
 O745 O 0.75231 0.79470 -0.02015
 O746 O 0.72107 0.78951 -0.01715
 O747 O 0.77053 0.75546 -0.04471
 O748 O 0.76760 0.72466 -0.04068
 O749 O 0.79270 0.77273 -0.00292
 O750 O 0.78863 0.76499 0.02747
 O751 O 0.72847 0.70798 -0.00178
 O752 O 0.72960 0.71573 -0.03136
 O753 O 0.70613 0.74883 0.02110
 O754 O 0.71285 0.77871 0.01950
 O755 O 0.74885 0.72792 0.04228
 O756 O 0.77877 0.73193 0.03549
 Zr757 Zr 0.75898 0.73030 0.01807
 O758 O 0.77476 0.74516 0.00363
 Zr759 Zr 0.73001 0.75920 0.02012
 O760 O 0.74481 0.77551 0.00627
 Zr761 Zr 0.72931 0.73213 -0.01094
 O762 O 0.74362 0.74742 -0.02644
 Zr763 Zr 0.76993 0.76967 0.00943
 O764 O 0.75525 0.75481 0.02519
 Zr765 Zr 0.76880 0.74281 -0.02185
 O766 O 0.75445 0.72631 -0.00762
 Zr767 Zr 0.74014 0.77192 -0.01934
 O768 O 0.72401 0.75672 -0.00542
 O769 O 0.73397 0.73485 0.01443
 O770 O 0.76510 0.76717 -0.01596
 C771 C 0.73664 0.70055 0.00977
 C772 C 0.73749 0.73592 0.04995
 C773 C 0.69907 0.73764 0.01237
 C774 C 0.76485 0.80051 -0.01223
 C775 C 0.79886 0.76578 -0.01588
 C776 C 0.76296 0.76808 -0.05035
 H777 H 0.78646 0.74240 0.00591
 H778 H 0.74067 0.74560 -0.03830
 H779 H 0.72702 0.72755 0.02132
 H780 H 0.74264 0.78689 0.00975
 H781 H 0.76601 0.78159 0.03903
 H782 H 0.73781 0.78410 0.03825
 H783 H 0.75874 0.72776 -0.04862
 H784 H 0.74033 0.70993 -0.03085
 H785 H 0.79649 0.77429 0.02720
 H786 H 0.77778 0.72278 0.04358
 H787 H 0.72169 0.76423 -0.04475
 H788 H 0.70584 0.74474 -0.02851
 H789 H 0.77656 0.70792 0.00390
 H790 H 0.79414 0.72493 -0.01384
 H791 H 0.70594 0.77716 0.00937
 H792 H 0.72420 0.79719 -0.00813
 O793 O 1.04333 0.22781 0.24907
 O794 O 1.03838 0.23135 0.27794
 O795 O 1.00037 0.20485 0.22997
 O796 O 0.97263 0.20915 0.23098
 O797 O 1.02011 0.24604 0.20509
 O798 O 1.01845 0.27503 0.20972
 O799 O 0.95685 0.25116 0.27296
 O800 O 0.96112 0.22276 0.27022
 O801 O 0.99839 0.27233 0.29230
 O802 O 1.02858 0.27043 0.28637
 O803 O 0.97753 0.29143 0.24981
 O804 O 0.97838 0.28474 0.21972
 O805 O 0.95644 0.27010 0.25202
 O806 O 0.96137 0.26624 0.22055
 O807 O 0.99779 0.29241 0.26965
 O808 O 1.02859 0.28666 0.26693
 O809 O 0.97827 0.25289 0.29342
 O810 O 0.98409 0.22288 0.28971
 O811 O 1.04309 0.24683 0.22813
 O812 O 1.03695 0.27611 0.22858
 O813 O 1.00010 0.22643 0.20617
 O814 O 0.97016 0.22955 0.21313
 O815 O 1.02094 0.20579 0.24954
 O816 O 1.01690 0.21295 0.27974
 Zr817 Zr 1.01956 0.22957 0.25954
 O818 O 1.00543 0.24482 0.27517
 Zr819 Zr 0.99003 0.22843 0.23040
 O820 O 0.97439 0.24319 0.24506
 Zr821 Zr 1.01916 0.25718 0.22884
 O822 O 1.00463 0.27344 0.24298
 Zr823 Zr 0.98026 0.24041 0.27052
 O824 O 0.99435 0.22386 0.25603
 Zr825 Zr 1.00918 0.26936 0.26855
 O826 O 1.02501 0.25425 0.25433
 Zr827 Zr 0.97941 0.26781 0.23973
 O828 O 0.99392 0.25301 0.22371
 O829 O 1.01500 0.23281 0.23419
 O830 O 0.98414 0.26492 0.26508
 C831 C 1.05002 0.23543 0.23675
 C832 C 1.01263 0.19859 0.23797
 C833 C 1.01189 0.23409 0.19880
 C834 C 0.95015 0.26297 0.26486
 C835 C 0.98618 0.26514 0.29942
 C836 C 0.98542 0.29850 0.26172
 H837 H 1.00820 0.24270 0.28704
 H838 H 1.00712 0.28481 0.23969
 H839 H 1.02201 0.22566 0.22722
 H840 H 0.96266 0.24038 0.24298
 H841 H 0.96636 0.21226 0.26715
 H842 H 0.96366 0.21253 0.23862
 H843 H 1.02606 0.29414 0.25754
 H844 H 1.04285 0.27555 0.23943
 H845 H 0.97476 0.22379 0.29769
 H846 H 1.02579 0.20464 0.27894
 H847 H 0.98858 0.29139 0.22015
 H848 H 1.00730 0.27434 0.20462
 H849 H 1.04314 0.24244 0.27696
 H850 H 1.02723 0.26110 0.29411
 H851 H 0.97204 0.23929 0.20606
 H852 H 0.95316 0.25789 0.22388
 O853 O 0.74907 1.04383 0.73049
 O854 O 0.77755 1.03882 0.73360
 O855 O 0.73018 1.00219 0.70516
 O856 O 0.73033 0.97484 0.70868
 O857 O 0.70587 1.02035 0.74871
 O858 O 0.71081 1.01728 0.77819
 O859 O 0.77294 0.95755 0.75061
 O860 O 0.76962 0.96295 0.72146
 O861 O 0.79215 0.99704 0.77395
 O862 O 0.78663 1.02721 0.77286
 O863 O 0.75083 0.97593 0.79264
 O864 O 0.72065 0.97758 0.78632
 O865 O 0.75255 0.95645 0.77030
 O866 O 0.72128 0.96136 0.76656
 O867 O 0.77046 0.99584 0.79429
 O868 O 0.76752 1.02660 0.78992
 O869 O 0.79288 0.97805 0.75314
 O870 O 0.78916 0.98545 0.72254
 O871 O 0.72879 1.04280 0.75036
 O872 O 0.72953 1.03538 0.77998
 O873 O 0.70660 1.00158 0.72766
 O874 O 0.71336 0.97178 0.72962
 O875 O 0.74953 1.02241 0.70679
 O876 O 0.77937 1.01847 0.71397
 Zr877 Zr 0.75945 1.02028 0.73114
 O878 O 0.77509 1.00559 0.74595
 Zr879 Zr 0.73050 0.99132 0.72903
 O880 O 0.74515 0.97516 0.74329
 Zr881 Zr 0.72948 1.01874 0.75976
 O882 O 0.74365 1.00367 0.77565
 Zr883 Zr 0.77029 0.98100 0.74039
 O884 O 0.75579 0.99568 0.72426
 Zr885 Zr 0.76887 1.00826 0.77131
 O886 O 0.75465 1.02455 0.75670
 Zr887 Zr 0.74022 0.97909 0.76880
 O888 O 0.72424 0.99410 0.75445
 O889 O 0.73439 1.01574 0.73450
 O890 O 0.76517 0.98387 0.76564
 C891 C 0.73711 1.05014 0.73889
 C892 C 0.73823 1.01435 0.69906
 C893 C 0.69944 1.01285 0.73617
 C894 C 0.76529 0.95063 0.76277
 C895 C 0.79884 0.98503 0.76620
 C896 C 0.76291 0.98321 0.79994
 H897 H 0.78682 1.00831 0.74379
 H898 H 0.74060 1.00563 0.78746
 H899 H 0.72750 1.02297 0.72745
 H900 H 0.74302 0.96373 0.73996
 H901 H 0.76666 0.96864 0.71094
 H902 H 0.73845 0.96620 0.71133
 H903 H 0.75861 1.02356 0.79782
 H904 H 0.74031 1.04111 0.77962
 H905 H 0.79701 0.97616 0.72307
 H906 H 0.77847 1.02754 0.70578
 H907 H 0.72170 0.98695 0.79404
 H908 H 0.70591 1.00624 0.77721
 H909 H 0.77696 1.04276 0.74529
 H910 H 0.79452 1.02580 0.76352
 H911 H 0.70645 0.97333 0.73972
 H912 H 0.72465 0.95345 0.75786
 O913 O 0.74930 0.54453 0.22864
 O914 O 0.77789 0.53945 0.23124
 O915 O 0.72957 0.50281 0.20450
 O916 O 0.72950 0.47551 0.20837
 O917 O 0.70658 0.52158 0.24861
 O918 O 0.71243 0.51904 0.27797
 O919 O 0.77300 0.45824 0.24901
 O920 O 0.76922 0.46347 0.22018
 O921 O 0.79348 0.49820 0.27138
 O922 O 0.78806 0.52804 0.27063
 O923 O 0.75195 0.47762 0.29186
 O924 O 0.72206 0.47893 0.28615
 O925 O 0.75314 0.45749 0.26926
 O926 O 0.72190 0.46284 0.26654
 O927 O 0.77186 0.49728 0.29278
 O928 O 0.76935 0.52793 0.28786
 O929 O 0.79352 0.47898 0.25079
 O930 O 0.78876 0.48588 0.22035
 O931 O 0.72951 0.54391 0.24902
 O932 O 0.73135 0.53699 0.27882
 O933 O 0.70657 0.50268 0.22768
 O934 O 0.71316 0.47283 0.22982
 O935 O 0.74914 0.52286 0.20534
 O936 O 0.77913 0.51882 0.21181
 Zr937 Zr 0.75964 0.52097 0.22945
 O938 O 0.77553 0.50633 0.24403
 Zr939 Zr 0.73042 0.49223 0.22850
 O940 O 0.74535 0.47614 0.24251
 Zr941 Zr 0.73050 0.52002 0.25890
 O942 O 0.74492 0.50496 0.27454
 Zr943 Zr 0.77045 0.48172 0.23889
 O944 O 0.75561 0.49632 0.22298
 Zr945 Zr 0.77006 0.50928 0.26954
 O946 O 0.75562 0.52557 0.25510
 Zr947 Zr 0.74114 0.48034 0.26809
 O948 O 0.72489 0.49535 0.25405
 O949 O 0.73466 0.51666 0.23355
 O950 O 0.76612 0.48478 0.26432
 C951 C 0.73752 0.55100 0.23715
 C952 C 0.73756 0.51481 0.19803
 C953 C 0.69975 0.51405 0.23633
 C954 C 0.76544 0.45137 0.26124
 C955 C 0.80003 0.48626 0.26340
 C956 C 0.76407 0.48502 0.29893
 H957 H 0.78721 0.50897 0.24150
 H958 H 0.74215 0.50709 0.28639
 H959 H 0.72761 0.52381 0.22658
 H960 H 0.74303 0.46470 0.23933
 H961 H 0.76587 0.46904 0.20970
 H962 H 0.73770 0.46689 0.21083
 H963 H 0.76041 0.52526 0.29585
 H964 H 0.74204 0.54281 0.27785
 H965 H 0.79659 0.47657 0.22072
 H966 H 0.77809 0.52782 0.20355
 H967 H 0.72279 0.48881 0.29321
 H968 H 0.70721 0.50813 0.27718
 H969 H 0.77746 0.54367 0.24284
 H970 H 0.79511 0.52708 0.26057
 H971 H 0.70643 0.47464 0.24000
 H972 H 0.72486 0.45489 0.25773
 O973 O 0.54412 0.22975 0.74934
 O974 O 0.53931 0.23313 0.77817
 O975 O 0.50146 0.20560 0.73071
 O976 O 0.47372 0.20929 0.73168
 O977 O 0.52009 0.24729 0.70550
 O978 O 0.51766 0.27620 0.71009
 O979 O 0.45718 0.25090 0.77378
 O980 O 0.46224 0.22259 0.77113
 O981 O 0.49834 0.27318 0.79282
 O982 O 0.52852 0.27201 0.78665
 O983 O 0.47654 0.29157 0.75062
 O984 O 0.47757 0.28496 0.72038
 O985 O 0.45612 0.26971 0.75273
 O986 O 0.46099 0.26609 0.72131
 O987 O 0.49693 0.29311 0.77026
 O988 O 0.52794 0.28822 0.76713
 O989 O 0.47863 0.25333 0.79408
 O990 O 0.48530 0.22344 0.79050
 O991 O 0.54324 0.24879 0.72844
 O992 O 0.53627 0.27782 0.72875
 O993 O 0.50060 0.22719 0.70677
 O994 O 0.47063 0.22956 0.71396
 O995 O 0.52218 0.20707 0.75007
 O996 O 0.51832 0.21430 0.78028
 Zr997 Zr 0.52037 0.23088 0.75997
 O998 O 0.50596 0.24580 0.77568
 Zr999 Zr 0.49066 0.22896 0.73107
 O1000 O 0.47475 0.24334 0.74582
 Zr1001 Zr 0.51901 0.25843 0.72923
 O1002 O 0.50417 0.27436 0.74346
 Zr1003 Zr 0.48087 0.24076 0.77124
 O1004 O 0.49527 0.22456 0.75666
 Zr1005 Zr 0.50902 0.27041 0.76900
 O1006 O 0.52512 0.25568 0.75468
 Zr1007 Zr 0.47910 0.26807 0.74039
 O1008 O 0.49386 0.25361 0.72429
 O1009 O 0.51555 0.23395 0.73463
 O1010 O 0.48409 0.26533 0.76570
 C1011 C 0.55055 0.23762 0.73703
 C1012 C 0.51386 0.19961 0.73868
 C1013 C 0.51212 0.23515 0.69928
 C1014 C 0.45010 0.26248 0.76564
 C1015 C 0.48627 0.26579 0.79999
 C1016 C 0.48427 0.29882 0.76252
 H1017 H 0.50886 0.24378 0.78754
 H1018 H 0.50634 0.28578 0.74016
 H1019 H 0.52269 0.22693 0.72765
 H1020 H 0.46309 0.24023 0.74381
 H1021 H 0.46776 0.21221 0.76811
 H1022 H 0.46486 0.21234 0.73960
 H1023 H 0.52497 0.29577 0.75794
 H1024 H 0.54218 0.27754 0.73961
 H1025 H 0.47600 0.22415 0.79854
 H1026 H 0.52736 0.20616 0.77940
 H1027 H 0.48744 0.29208 0.72095
 H1028 H 0.50645 0.27528 0.70515
 H1029 H 0.54369 0.24437 0.77723
 H1030 H 0.52745 0.26269 0.79445
 H1031 H 0.47224 0.23930 0.70680
 H1032 H 0.45317 0.25736 0.72456
 O1033 O 0.24922 0.77599 0.45685
 O1034 O 0.22053 0.77378 0.46277
 O1035 O 0.27098 0.79632 0.49998
 O1036 O 0.27010 0.79145 0.52810
 O1037 O 0.29211 0.75462 0.47817
 O1038 O 0.28587 0.72579 0.47932
 O1039 O 0.22706 0.75124 0.54441
 O1040 O 0.23126 0.77962 0.54074
 O1041 O 0.20533 0.73236 0.50258
 O1042 O 0.21015 0.73509 0.47185
 O1043 O 0.24670 0.71044 0.52145
 O1044 O 0.27681 0.71548 0.51969
 O1045 O 0.24657 0.73114 0.54348
 O1046 O 0.27764 0.73338 0.53753
 O1047 O 0.22645 0.71116 0.50160
 O1048 O 0.22838 0.71781 0.47056
 O1049 O 0.20607 0.75115 0.52358
 O1050 O 0.21115 0.78113 0.51829
 O1051 O 0.26875 0.75584 0.45585
 O1052 O 0.26658 0.72641 0.46110
 O1053 O 0.29288 0.77358 0.49906
 O1054 O 0.28684 0.76999 0.52948
 O1055 O 0.25089 0.79713 0.47989
 O1056 O 0.22072 0.79173 0.48505
 Zr1057 Zr 0.23944 0.77400 0.48115
 O1058 O 0.22357 0.75922 0.49555
 Zr1059 Zr 0.26920 0.77261 0.51004
 O1060 O 0.25440 0.75819 0.52592
 Zr1061 Zr 0.26808 0.74470 0.47970
 O1062 O 0.25362 0.72882 0.49438
 Zr1063 Zr 0.22926 0.76256 0.52096
 O1064 O 0.24406 0.77873 0.50668
 Zr1065 Zr 0.22850 0.73449 0.49079
 O1066 O 0.24292 0.74925 0.47473
 Zr1067 Zr 0.25804 0.73348 0.51990
 O1068 O 0.27424 0.74783 0.50515
 O1069 O 0.26436 0.76914 0.48485
 O1070 O 0.23306 0.73794 0.51609
 C1071 C 0.26084 0.76802 0.44953
 C1072 C 0.26322 0.80329 0.48788
 C1073 C 0.29925 0.76600 0.48656
 C1074 C 0.23456 0.73877 0.55052
 C1075 C 0.19920 0.73943 0.51549
 C1076 C 0.23429 0.70428 0.51366
 H1077 H 0.21189 0.76208 0.49326
 H1078 H 0.25609 0.71737 0.49140
 H1079 H 0.27146 0.77605 0.47772
 H1080 H 0.25703 0.76050 0.53778
 H1081 H 0.23470 0.79009 0.53560
 H1082 H 0.26297 0.78803 0.53751
 H1083 H 0.23730 0.70976 0.47252
 H1084 H 0.25576 0.72786 0.45547
 H1085 H 0.20356 0.78033 0.52800
 H1086 H 0.22174 0.80020 0.47623
 H1087 H 0.27557 0.70912 0.50925
 H1088 H 0.29143 0.72600 0.49037
 H1089 H 0.22079 0.76285 0.45749
 H1090 H 0.20304 0.74471 0.47389
 H1091 H 0.29315 0.75991 0.52709
 H1092 H 0.27517 0.74169 0.54615
 O1093 O 0.24910 0.27353 0.95682
 O1094 O 0.22062 0.27133 0.96307
 O1095 O 0.27149 0.29230 1.00064
 O1096 O 0.27188 0.28616 1.02828
 O1097 O 0.29218 0.25085 0.97664
 O1098 O 0.28557 0.22223 0.97664
 O1099 O 0.22851 0.24623 1.04398
 O1100 O 0.23265 0.27457 1.04102
 O1101 O 0.20567 0.22865 1.00191
 O1102 O 0.20983 0.23233 0.97125
 O1103 O 0.24725 0.20577 1.01906
 O1104 O 0.27724 0.21064 1.01708
 O1105 O 0.24770 0.22591 1.04197
 O1106 O 0.27864 0.22796 1.03537
 O1107 O 0.22673 0.20726 0.99955
 O1108 O 0.22794 0.21512 0.96884
 O1109 O 0.20698 0.24674 1.02351
 O1110 O 0.21216 0.27682 1.01906
 O1111 O 0.26837 0.25323 0.95473
 O1112 O 0.26594 0.22369 0.95897
 O1113 O 0.29353 0.26919 0.99805
 O1114 O 0.28798 0.26463 1.02847
 O1115 O 0.25109 0.29397 0.98094
 O1116 O 0.22105 0.28832 0.98600
 Zr1117 Zr 0.23974 0.27076 0.98122
 O1118 O 0.22401 0.25562 0.99540
 Zr1119 Zr 0.27005 0.26812 1.00945
 O1120 O 0.25538 0.25334 1.02510
 Zr1121 Zr 0.26804 0.24131 0.97818
 O1122 O 0.25375 0.22506 0.99261
 Zr1123 Zr 0.23020 0.25807 1.02079
 O1124 O 0.24490 0.27455 1.00682
 Zr1125 Zr 0.22861 0.23101 0.98972
 O1126 O 0.24284 0.24621 0.97390
 Zr1127 Zr 0.25867 0.22881 1.01820
 O1128 O 0.27471 0.24348 1.00360
 O1129 O 0.26473 0.26566 0.98422
 O1130 O 0.23365 0.23356 1.01506
 C1131 C 0.26042 0.26563 0.94896
 C1132 C 0.26336 0.29988 0.98920
 C1133 C 0.29965 0.26180 0.98531
 C1134 C 0.23604 0.23356 1.04958
 C1135 C 0.19985 0.23536 1.01515
 C1136 C 0.23478 0.19988 1.01116
 H1137 H 0.21232 0.25863 0.99344
 H1138 H 0.25608 0.21371 0.98916
 H1139 H 0.27174 0.27285 0.97728
 H1140 H 0.25827 0.25526 1.03697
 H1141 H 0.23608 0.28515 1.03613
 H1142 H 0.26431 0.28288 1.03739
 H1143 H 0.23694 0.20705 0.97020
 H1144 H 0.25506 0.22549 0.95356
 H1145 H 0.20473 0.27577 1.02887
 H1146 H 0.22199 0.29716 0.97755
 H1147 H 0.27587 0.20474 1.00636
 H1148 H 0.29125 0.22185 0.98762
 H1149 H 0.22055 0.26050 0.95759
 H1150 H 0.20295 0.24202 0.97368
 H1151 H 0.29420 0.25462 1.02554
 H1152 H 0.27647 0.23606 1.04428
 C1153 C 0.28476 0.41045 0.78266
 C1154 C 0.28141 0.39437 0.77716
 C1155 C 0.28952 0.38093 0.78488
 C1156 C 0.30097 0.38365 0.79803
 C1157 C 0.30446 0.39975 0.80342
 C1158 C 0.29626 0.41319 0.79578
 C1159 C 0.29996 0.42918 0.80140
 C1160 C 0.31163 0.43181 0.81397
 C1161 C 0.31965 0.41869 0.82142
 C1162 C 0.31612 0.40280 0.81630
 C1163 C 0.28593 0.36496 0.77917
 C1164 C 0.27467 0.36235 0.76621
 C1165 C 0.26675 0.37550 0.75867
 C1166 C 0.27003 0.39136 0.76403
 C1167 C 0.30892 0.36985 0.80616
 C1168 C 0.31523 0.35823 0.81288
 C1169 C 0.27661 0.42424 0.77477
 C1170 C 0.27035 0.43621 0.76869
 H1171 H 0.29411 0.43982 0.79597
 H1172 H 0.31459 0.44411 0.81781
 H1173 H 0.32872 0.42083 0.83116
 H1174 H 0.32272 0.39298 0.82242
 H1175 H 0.29178 0.35433 0.78462
 H1176 H 0.27207 0.35005 0.76200
 H1177 H 0.25802 0.37341 0.74861
 H1178 H 0.26357 0.40121 0.75778
 C1179 C 0.28803 -0.08830 0.28350
 C1180 C 0.28454 -0.10471 0.27927
 C1181 C 0.29272 -0.11759 0.28785
 C1182 C 0.30436 -0.11397 0.30061
 C1183 C 0.30797 -0.09755 0.30474
 C1184 C 0.29975 -0.08467 0.29619
 C1185 C 0.30351 -0.06834 0.30061
 C1186 C 0.31509 -0.06487 0.31305
 C1187 C 0.32315 -0.07747 0.32137
 C1188 C 0.31966 -0.09365 0.31734
 C1189 C 0.28899 -0.13392 0.28343
 C1190 C 0.27751 -0.13740 0.27089
 C1191 C 0.26952 -0.12479 0.26250
 C1192 C 0.27295 -0.10861 0.26659
 C1193 C 0.31245 -0.12719 0.30951
 C1194 C 0.31888 -0.13847 0.31670
 C1195 C 0.27952 -0.07512 0.27495
 C1196 C 0.27283 -0.06362 0.26843
 H1197 H 0.29759 -0.05809 0.29451
 H1198 H 0.31784 -0.05232 0.31625
 H1199 H 0.33213 -0.07468 0.33102
 H1200 H 0.32623 -0.10305 0.32417
 H1201 H 0.29489 -0.14415 0.28958
 H1202 H 0.27481 -0.14996 0.26767
 H1203 H 0.26061 -0.12756 0.25277
 H1204 H 0.26642 -0.09921 0.25971
 C1205 C 0.78842 0.91247 0.78574
 C1206 C 0.80169 0.90410 0.77803
 C1207 C 0.81081 0.89225 0.78722
 C1208 C 0.80658 0.88884 0.80405
 C1209 C 0.79379 0.89772 0.81199
 C1210 C 0.78460 0.90950 0.80277
 C1211 C 0.77198 0.91836 0.81104
 C1212 C 0.76874 0.91586 0.82797
 C1213 C 0.77779 0.90441 0.83699
 C1214 C 0.79010 0.89533 0.82913
 C1215 C 0.82410 0.88413 0.77928
 C1216 C 0.82828 0.88760 0.76274
 C1217 C 0.81933 0.89914 0.75374
 C1218 C 0.80619 0.90735 0.76124
 C1219 C 0.81494 0.87575 0.81298
 C1220 C 0.82153 0.86454 0.82015
 C1221 C 0.77950 0.92503 0.77659
 C1222 C 0.77257 0.93618 0.76968
 H1223 H 0.76468 0.92749 0.80459
 H1224 H 0.75922 0.92292 0.83415
 H1225 H 0.77527 0.90257 0.85016
 H1226 H 0.79687 0.88662 0.83668
 H1227 H 0.83148 0.87511 0.78580
 H1228 H 0.83853 0.88132 0.75688
 H1229 H 0.82262 0.90180 0.74089
 H1230 H 0.79963 0.91627 0.75374
 C1231 C 0.45975 0.83757 0.28613
 C1232 C 0.46741 0.84577 0.29968
 C1233 C 0.45825 0.85724 0.30926
 C1234 C 0.44153 0.86055 0.30513
 C1235 C 0.43364 0.85176 0.29213
 C1236 C 0.44278 0.84024 0.28258
 C1237 C 0.43453 0.83133 0.26988
 C1238 C 0.41770 0.83361 0.26685
 C1239 C 0.40878 0.84488 0.27618
 C1240 C 0.41662 0.85395 0.28863
 C1241 C 0.46608 0.86509 0.32292
 C1242 C 0.48250 0.86171 0.32700
 C1243 C 0.49148 0.85057 0.31757
 C1244 C 0.48409 0.84264 0.30406
 C1245 C 0.43274 0.87343 0.31385
 C1246 C 0.42593 0.88457 0.32088
 C1247 C 0.46893 0.82541 0.27678
 C1248 C 0.47616 0.81455 0.26972
 H1249 H 0.44092 0.82236 0.26235
 H1250 H 0.41154 0.82655 0.25723
 H1251 H 0.39570 0.84658 0.27379
 H1252 H 0.40914 0.86249 0.29567
 H1253 H 0.45958 0.87380 0.33068
 H1254 H 0.48827 0.86775 0.33754
 H1255 H 0.50424 0.84799 0.32078
 H1256 H 0.49157 0.83402 0.29716
 C1257 C -0.03873 0.83844 0.78563
 C1258 C -0.05066 0.83415 0.79786
 C1259 C -0.05922 0.84657 0.80674
 C1260 C -0.05577 0.86318 0.80336
 C1261 C -0.04388 0.86746 0.79111
 C1262 C -0.03534 0.85504 0.78221
 C1263 C -0.02350 0.85960 0.77004
 C1264 C -0.02016 0.87598 0.76676
 C1265 C -0.02849 0.88814 0.77546
 C1266 C -0.04023 0.88400 0.78751
 C1267 C -0.07106 0.84201 0.81892
 C1268 C -0.07427 0.82564 0.82234
 C1269 C -0.06583 0.81350 0.81375
 C1270 C -0.05422 0.81761 0.80159
 C1271 C -0.06434 0.87592 0.81253
 C1272 C -0.07125 0.88675 0.81995
 C1273 C -0.02987 0.82569 0.77677
 C1274 C -0.02297 0.81445 0.77003
 H1275 H -0.01670 0.85058 0.76295
 H1276 H -0.01105 0.87926 0.75742
 H1277 H -0.02585 0.90085 0.77288
 H1278 H -0.04639 0.89390 0.79394
 H1279 H -0.07791 0.85103 0.82597
 H1280 H -0.08330 0.82235 0.83176
 H1281 H -0.06826 0.80080 0.81657
 H1282 H -0.04801 0.80769 0.79524
 C1283 C -0.03782 -0.08930 -0.03423
 C1284 C -0.05526 -0.09050 -0.03303
 C1285 C -0.06390 -0.10240 -0.04259
 C1286 C -0.05503 -0.11316 -0.05314
 C1287 C -0.03758 -0.11199 -0.05430
 C1288 C -0.02895 -0.10007 -0.04476
 C1289 C -0.01150 -0.09922 -0.04600
 C1290 C -0.00282 -0.10987 -0.05637
 C1291 C -0.01127 -0.12143 -0.06581
 C1292 C -0.02845 -0.12253 -0.06484
 C1293 C -0.08137 -0.10315 -0.04144
 C1294 C -0.09005 -0.09247 -0.03111
 C1295 C -0.08159 -0.08092 -0.02165
 C1296 C -0.06440 -0.07990 -0.02254
 C1297 C -0.06373 -0.12585 -0.06229
 C1298 C -0.07073 -0.13671 -0.06962
 C1299 C -0.02917 -0.07627 -0.02557
 C1300 C -0.02244 -0.06478 -0.01907
 H1301 H -0.00439 -0.09039 -0.03894
 H1302 H 0.01053 -0.10907 -0.05715
 H1303 H -0.00448 -0.12960 -0.07393
 H1304 H -0.03447 -0.13171 -0.07245
 H1305 H -0.08849 -0.11190 -0.04860
 H1306 H -0.10341 -0.09313 -0.03048
 H1307 H -0.08839 -0.07261 -0.01370
 H1308 H -0.05839 -0.07065 -0.01502
 C1309 C -0.03326 0.40819 0.47059
 C1310 C -0.05022 0.40888 0.46612
 C1311 C -0.05774 0.39544 0.45782
 C1312 C -0.04832 0.38129 0.45429
 C1313 C -0.03141 0.38054 0.45894
 C1314 C -0.02386 0.39404 0.46709
 C1315 C -0.00692 0.39307 0.47150
 C1316 C 0.00230 0.37912 0.46798
 C1317 C -0.00508 0.36590 0.46002
 C1318 C -0.02174 0.36653 0.45553
 C1319 C -0.07461 0.39656 0.45312
 C1320 C -0.08383 0.41051 0.45666
 C1321 C -0.07653 0.42356 0.46495
 C1322 C -0.05992 0.42288 0.46958
 C1323 C -0.05605 0.36746 0.44603
 C1324 C -0.06242 0.35590 0.43928
 C1325 C -0.02535 0.42246 0.47779
 C1326 C -0.01937 0.43491 0.48307
 H1327 H -0.00065 0.40304 0.47774
 H1328 H 0.01525 0.37857 0.47145
 H1329 H 0.00214 0.35509 0.45731
 H1330 H -0.02692 0.35595 0.44933
 H1331 H -0.08083 0.38670 0.44667
 H1332 H -0.09672 0.41116 0.45302
 H1333 H -0.08380 0.43425 0.46789
 H1334 H -0.05481 0.43339 0.47595
 C1335 C 0.46240 -0.08929 0.46493
 C1336 C 0.44860 -0.09698 0.47247
 C1337 C 0.43943 -0.10887 0.46342
 C1338 C 0.44415 -0.11303 0.44690
 C1339 C 0.45747 -0.10479 0.43909
 C1340 C 0.46667 -0.09294 0.44815
 C1341 C 0.47974 -0.08463 0.43997
 C1342 C 0.48343 -0.08779 0.42326
 C1343 C 0.47441 -0.09937 0.41439
 C1344 C 0.46163 -0.10788 0.42219
 C1345 C 0.42555 -0.11624 0.47112
 C1346 C 0.42083 -0.11195 0.48730
 C1347 C 0.42982 -0.10035 0.49617
 C1348 C 0.44356 -0.09291 0.48890
 C1349 C 0.43564 -0.12608 0.43815
 C1350 C 0.42887 -0.13726 0.43111
 C1351 C 0.47126 -0.07657 0.47383
 C1352 C 0.47812 -0.06526 0.48051
 H1353 H 0.48707 -0.07547 0.44631
 H1354 H 0.49333 -0.08118 0.41714
 H1355 H 0.47731 -0.10175 0.40140
 H1356 H 0.45490 -0.11670 0.41474
 H1357 H 0.41812 -0.12527 0.46469
 H1358 H 0.41013 -0.11765 0.49298
 H1359 H 0.42610 -0.09705 0.50873
 H1360 H 0.45012 -0.08391 0.49628
 C1361 C 0.46364 0.40853 -0.03032
 C1362 C 0.47331 0.39708 -0.03924
 C1363 C 0.46551 0.38389 -0.04769
 C1364 C 0.44807 0.38229 -0.04725
 C1365 C 0.43838 0.39380 -0.03841
 C1366 C 0.44620 0.40685 -0.02974
 C1367 C 0.43627 0.41806 -0.02076
 C1368 C 0.41910 0.41654 -0.02055
 C1369 C 0.41143 0.40396 -0.02926
 C1370 C 0.42090 0.39264 -0.03806
 C1371 C 0.47546 0.37260 -0.05654
 C1372 C 0.49261 0.37431 -0.05704
 C1373 C 0.50023 0.38722 -0.04878
 C1374 C 0.49075 0.39852 -0.03997
 C1375 C 0.44017 0.36862 -0.05562
 C1376 C 0.43386 0.35707 -0.06246
 C1377 C 0.47146 0.42263 -0.02268
 C1378 C 0.47759 0.43484 -0.01700
 H1379 H 0.44165 0.42811 -0.01386
 H1380 H 0.41171 0.42517 -0.01359
 H1381 H 0.39808 0.40292 -0.02914
 H1382 H 0.41438 0.38302 -0.04460
 H1383 H 0.47011 0.36238 -0.06319
 H1384 H 0.50002 0.36557 -0.06387
 H1385 H 0.51356 0.38850 -0.04921
 H1386 H 0.49725 0.40833 -0.03371
 C1387 C 0.78386 0.34105 0.46892
 C1388 C 0.79579 0.33811 0.45628
 C1389 C 0.80376 0.35146 0.44827
 C1390 C 0.79970 0.36765 0.45289
 C1391 C 0.78781 0.37057 0.46556
 C1392 C 0.77987 0.35721 0.47360
 C1393 C 0.76804 0.36040 0.48621
 C1394 C 0.76413 0.37636 0.49076
 C1395 C 0.77188 0.38943 0.48291
 C1396 C 0.78359 0.38664 0.47044
 C1397 C 0.81567 0.34824 0.43572
 C1398 C 0.81959 0.33227 0.43120
 C1399 C 0.81177 0.31921 0.43899
 C1400 C 0.80000 0.32202 0.45138
 C1401 C 0.80765 0.38134 0.44459
 C1402 C 0.81405 0.39289 0.43784
 C1403 C 0.77573 0.32734 0.47694
 C1404 C 0.76955 0.31528 0.48289
 H1405 H 0.76169 0.35062 0.49267
 H1406 H 0.75505 0.37858 0.50044
 H1407 H 0.76881 0.40180 0.48649
 H1408 H 0.78928 0.39721 0.46471
 H1409 H 0.82206 0.35800 0.42929
 H1410 H 0.82872 0.33002 0.42157
 H1411 H 0.81484 0.30683 0.43542
 H1412 H 0.79429 0.31144 0.45707
 C1413 C 0.78700 0.84056 -0.03259
 C1414 C 0.77803 0.85178 -0.04256
 C1415 C 0.78659 0.86406 -0.05167
 C1416 C 0.80406 0.86512 -0.05064
 C1417 C 0.81303 0.85390 -0.04066
 C1418 C 0.80447 0.84165 -0.03151
 C1419 C 0.81370 0.83059 -0.02158
 C1420 C 0.83091 0.83148 -0.02088
 C1421 C 0.83929 0.84337 -0.02994
 C1422 C 0.83051 0.85452 -0.03970
 C1423 C 0.77735 0.87505 -0.06168
 C1424 C 0.76016 0.87403 -0.06254
 C1425 C 0.75179 0.86211 -0.05350
 C1426 C 0.76057 0.85104 -0.04366
 C1427 C 0.81268 0.87809 -0.05945
 C1428 C 0.81950 0.88916 -0.06659
 C1429 C 0.77843 0.82719 -0.02443
 C1430 C 0.77177 0.81545 -0.01833
 H1431 H 0.80775 0.82106 -0.01438
 H1432 H 0.83779 0.82281 -0.01337
 H1433 H 0.85266 0.84393 -0.02946
 H1434 H 0.83757 0.86353 -0.04657
 H1435 H 0.78330 0.88453 -0.06895
 H1436 H 0.75330 0.88254 -0.07025
 H1437 H 0.73843 0.86137 -0.05420
 H1438 H 0.75351 0.84195 -0.03690
 C1439 C 0.78066 0.28629 0.40679
 C1440 C 0.78838 0.27707 0.39403
 C1441 C 0.79694 0.28518 0.38090
 C1442 C 0.79778 0.30245 0.38065
 C1443 C 0.78992 0.31167 0.39334
 C1444 C 0.78124 0.30357 0.40638
 C1445 C 0.77336 0.31306 0.41885
 C1446 C 0.77412 0.33005 0.41849
 C1447 C 0.78278 0.33796 0.40585
 C1448 C 0.79060 0.32894 0.39337
 C1449 C 0.80461 0.27569 0.36830
 C1450 C 0.80385 0.25870 0.36867
 C1451 C 0.79548 0.25079 0.38152
 C1452 C 0.78781 0.25981 0.39409
 C1453 C 0.80662 0.31068 0.36726
 C1454 C 0.81391 0.31732 0.35600
 C1455 C 0.77312 0.27805 0.42095
 C1456 C 0.76754 0.27168 0.43332
 H1457 H 0.76656 0.30747 0.42901
 H1458 H 0.76810 0.33711 0.42818
 H1459 H 0.78347 0.35116 0.40572
 H1460 H 0.79717 0.33565 0.38378
 H1461 H 0.81129 0.28128 0.35805
 H1462 H 0.80978 0.25164 0.35893
 H1463 H 0.79491 0.23758 0.38174
 H1464 H 0.78141 0.25311 0.40380
 C1465 C 0.78467 0.79085 -0.09011
 C1466 C 0.78136 0.80759 -0.09305
 C1467 C 0.79082 0.81636 -0.10506
 C1468 C 0.80324 0.80825 -0.11436
 C1469 C 0.80658 0.79153 -0.11137
 C1470 C 0.79730 0.78282 -0.09918
 C1471 C 0.80097 0.76616 -0.09631
 C1472 C 0.81343 0.75831 -0.10525
 C1473 C 0.82249 0.76681 -0.11719
 C1474 C 0.81916 0.78323 -0.12027
 C1475 C 0.78769 0.83322 -0.10735
 C1476 C 0.77550 0.84116 -0.09811
 C1477 C 0.76610 0.83252 -0.08655
 C1478 C 0.76895 0.81594 -0.08398
 C1479 C 0.81222 0.81692 -0.12736
 C1480 C 0.81953 0.82378 -0.13848
 C1481 C 0.77599 0.78226 -0.07686
 C1482 C 0.76948 0.77546 -0.06521
 H1483 H 0.79423 0.75901 -0.08718
 H1484 H 0.81607 0.74555 -0.10290
 H1485 H 0.83217 0.76066 -0.12409
 H1486 H 0.82659 0.78933 -0.12964
 H1487 H 0.79468 0.84044 -0.11621
 H1488 H 0.77329 0.85407 -0.09997
 H1489 H 0.75653 0.83869 -0.07954
 H1490 H 0.76138 0.80978 -0.07477
 C1491 C 0.28396 0.46435 0.84120
 C1492 C 0.27448 0.45457 0.85222
 C1493 C 0.28240 0.44607 0.86553
 C1494 C 0.29975 0.44731 0.86767
 C1495 C 0.30926 0.45688 0.85647
 C1496 C 0.30131 0.46559 0.84333
 C1497 C 0.31105 0.47532 0.83249
 C1498 C 0.32816 0.47623 0.83445
 C1499 C 0.33597 0.46749 0.84710
 C1500 C 0.32668 0.45795 0.85807
 C1501 C 0.27266 0.43640 0.87642
 C1502 C 0.25560 0.43514 0.87419
 C1503 C 0.24787 0.44343 0.86117
 C1504 C 0.25714 0.45306 0.85027
 C1505 C 0.30774 0.43919 0.88167
 C1506 C 0.31430 0.43272 0.89351
 C1507 C 0.27604 0.47243 0.82714
 C1508 C 0.26999 0.47870 0.81493
 H1509 H 0.30558 0.48228 0.82238
 H1510 H 0.33539 0.48377 0.82611
 H1511 H 0.34928 0.46817 0.84848
 H1512 H 0.33330 0.45141 0.86776
 H1513 H 0.27811 0.42968 0.88670
 H1514 H 0.24834 0.42767 0.88263
 H1515 H 0.23461 0.44241 0.85949
 H1516 H 0.25057 0.45931 0.84034
 C1517 C 0.28860 -0.04015 0.33667
 C1518 C 0.30197 -0.03253 0.34507
 C1519 C 0.31150 -0.04150 0.35688
 C1520 C 0.30754 -0.05800 0.36031
 C1521 C 0.29467 -0.06584 0.35135
 C1522 C 0.28514 -0.05688 0.33952
 C1523 C 0.27255 -0.06506 0.33047
 C1524 C 0.26959 -0.08165 0.33290
 C1525 C 0.27890 -0.09040 0.34448
 C1526 C 0.29126 -0.08263 0.35369
 C1527 C 0.32494 -0.03368 0.36495
 C1528 C 0.32887 -0.01747 0.36145
 C1529 C 0.31950 -0.00868 0.34996
 C1530 C 0.30620 -0.01606 0.34182
 C1531 C 0.31627 -0.06667 0.37350
 C1532 C 0.32324 -0.07348 0.38489
 C1533 C 0.27930 -0.03117 0.32413
 C1534 C 0.27225 -0.02404 0.31302
 H1535 H 0.26504 -0.05880 0.32126
 H1536 H 0.26003 -0.08775 0.32574
 H1537 H 0.27657 -0.10329 0.34630
 H1538 H 0.29827 -0.08997 0.36245
 H1539 H 0.33265 -0.04004 0.37393
 H1540 H 0.33925 -0.01171 0.36766
 H1541 H 0.32260 0.00391 0.34728
 H1542 H 0.29932 -0.00873 0.33294
 C1543 C -0.03672 -0.03931 -0.08901
 C1544 C -0.05043 -0.03192 -0.09704
 C1545 C -0.05966 -0.04080 -0.10916
 C1546 C -0.05517 -0.05705 -0.11311
 C1547 C -0.04174 -0.06460 -0.10475
 C1548 C -0.03237 -0.05564 -0.09280
 C1549 C -0.01897 -0.06343 -0.08462
 C1550 C -0.01503 -0.07964 -0.08807
 C1551 C -0.02431 -0.08846 -0.09959
 C1552 C -0.03749 -0.08107 -0.10793
 C1553 C -0.07333 -0.03315 -0.11701
 C1554 C -0.07778 -0.01720 -0.11298
 C1555 C -0.06877 -0.00853 -0.10111
 C1556 C -0.05524 -0.01574 -0.09319
 C1557 C -0.06399 -0.06575 -0.12620
 C1558 C -0.07113 -0.07264 -0.13742
 C1559 C -0.02792 -0.03059 -0.07594
 C1560 C -0.02122 -0.02382 -0.06439
 H1561 H -0.01144 -0.05712 -0.07547
 H1562 H -0.00470 -0.08536 -0.08176
 H1563 H -0.02126 -0.10108 -0.10212
 H1564 H -0.04437 -0.08842 -0.11678
 H1565 H -0.08076 -0.03941 -0.12628
 H1566 H -0.08828 -0.01154 -0.11910
 H1567 H -0.07228 0.00386 -0.09802
 H1568 H -0.04860 -0.00849 -0.08407
 C1569 C -0.03030 0.46481 0.40558
 C1570 C -0.03309 0.47349 0.39052
 C1571 C -0.04128 0.46572 0.37692
 C1572 C -0.04667 0.44933 0.37850
 C1573 C -0.04384 0.44063 0.39356
 C1574 C -0.03551 0.44835 0.40709
 C1575 C -0.03276 0.43938 0.42200
 C1576 C -0.03811 0.42328 0.42349
 C1577 C -0.04642 0.41580 0.41034
 C1578 C -0.04927 0.42431 0.39550
 C1579 C -0.04397 0.47466 0.36200
 C1580 C -0.03873 0.49081 0.36056
 C1581 C -0.03075 0.49840 0.37387
 C1582 C -0.02793 0.48990 0.38871
 C1583 C -0.05506 0.44141 0.36460
 C1584 C -0.06194 0.43490 0.35299
 C1585 C -0.02295 0.47298 0.41990
 C1586 C -0.01747 0.47923 0.43238
 H1587 H -0.02641 0.44466 0.43263
 H1588 H -0.03574 0.41656 0.43488
 H1589 H -0.05062 0.40330 0.41161
 H1590 H -0.05576 0.41795 0.38559
 H1591 H -0.05014 0.46929 0.35131
 H1592 H -0.04089 0.49747 0.34905
 H1593 H -0.02670 0.51095 0.37269
 H1594 H -0.02163 0.49630 0.39871
 C1595 C 0.46363 -0.04207 0.41153
 C1596 C 0.46680 -0.03897 0.39442
 C1597 C 0.45769 -0.04742 0.38190
 C1598 C 0.44549 -0.05898 0.38658
 C1599 C 0.44241 -0.06220 0.40370
 C1600 C 0.45146 -0.05368 0.41622
 C1601 C 0.44802 -0.05698 0.43327
 C1602 C 0.43603 -0.06838 0.43778
 C1603 C 0.42728 -0.07679 0.42554
 C1604 C 0.43036 -0.07377 0.40867
 C1605 C 0.46103 -0.04403 0.36485
 C1606 C 0.47303 -0.03264 0.36032
 C1607 C 0.48195 -0.02440 0.37257
 C1608 C 0.47892 -0.02748 0.38944
 C1609 C 0.43610 -0.06744 0.37373
 C1610 C 0.42855 -0.07422 0.36272
 C1611 C 0.47262 -0.03318 0.42435
 C1612 C 0.47951 -0.02607 0.43558
 H1613 H 0.45450 -0.05079 0.44328
 H1614 H 0.43349 -0.07069 0.45087
 H1615 H 0.41800 -0.08565 0.42915
 H1616 H 0.42319 -0.08057 0.39960
 H1617 H 0.45443 -0.05013 0.35486
 H1618 H 0.47541 -0.03020 0.34722
 H1619 H 0.49126 -0.01557 0.36898
 H1620 H 0.48619 -0.02078 0.39852
 C1621 C 0.46404 0.46081 -0.08963
 C1622 C 0.45186 0.44883 -0.08615
 C1623 C 0.44351 0.44088 -0.09953
 C1624 C 0.44751 0.44484 -0.11630
 C1625 C 0.45976 0.45674 -0.11976
 C1626 C 0.46803 0.46477 -0.10638
 C1627 C 0.48018 0.47666 -0.11014
 C1628 C 0.48406 0.48052 -0.12666
 C1629 C 0.47599 0.47268 -0.13976
 C1630 C 0.46397 0.46092 -0.13642
 C1631 C 0.43119 0.42915 -0.09576
 C1632 C 0.42716 0.42545 -0.07923
 C1633 C 0.43533 0.43321 -0.06616
 C1634 C 0.44763 0.44468 -0.06948
 C1635 C 0.43903 0.43674 -0.13002
 C1636 C 0.43216 0.43021 -0.14163
 C1637 C 0.47220 0.46921 -0.07592
 C1638 C 0.47846 0.47587 -0.06404
 H1639 H 0.48681 0.48308 -0.10037
 H1640 H 0.49339 0.48965 -0.12932
 H1641 H 0.47905 0.47572 -0.15257
 H1642 H 0.45803 0.45516 -0.14704
 H1643 H 0.42447 0.42283 -0.10552
 H1644 H 0.41760 0.41657 -0.07654
 H1645 H 0.43199 0.43048 -0.05337
 H1646 H 0.45358 0.45040 -0.05885
 C1647 C 0.46222 0.79091 0.33778
 C1648 C 0.44549 0.78690 0.34113
 C1649 C 0.43649 0.79590 0.35328
 C1650 C 0.44430 0.80876 0.36210
 C1651 C 0.46072 0.81333 0.35810
 C1652 C 0.46973 0.80434 0.34593
 C1653 C 0.48612 0.80915 0.34212
 C1654 C 0.49339 0.82249 0.35006
 C1655 C 0.48455 0.83134 0.36189
 C1656 C 0.46842 0.82684 0.36595
 C1657 C 0.41968 0.79196 0.35614
 C1658 C 0.41192 0.77958 0.34711
 C1659 C 0.42071 0.77075 0.33524
 C1660 C 0.43733 0.77425 0.33230
 C1661 C 0.43576 0.81675 0.37581
 C1662 C 0.42901 0.82304 0.38760
 C1663 C 0.47125 0.78195 0.32507
 C1664 C 0.47819 0.77495 0.31384
 H1665 H 0.49347 0.80270 0.33295
 H1666 H 0.50593 0.82603 0.34697
 H1667 H 0.49022 0.84176 0.36794
 H1668 H 0.46200 0.83414 0.37516
 H1669 H 0.41229 0.79858 0.36516
 H1670 H 0.39900 0.77684 0.34932
 H1671 H 0.41462 0.76117 0.32823
 H1672 H 0.44362 0.76710 0.32287
 C1673 C -0.03851 0.79108 0.83806
 C1674 C -0.05127 0.78329 0.84719
 C1675 C -0.06040 0.79221 0.85930
 C1676 C -0.05668 0.80886 0.86224
 C1677 C -0.04454 0.81687 0.85247
 C1678 C -0.03536 0.80794 0.84040
 C1679 C -0.02346 0.81627 0.83060
 C1680 C -0.02090 0.83299 0.83249
 C1681 C -0.02990 0.84172 0.84428
 C1682 C -0.04153 0.83380 0.85427
 C1683 C -0.07320 0.78420 0.86817
 C1684 C -0.07690 0.76786 0.86513
 C1685 C -0.06795 0.75912 0.85331
 C1686 C -0.05527 0.76668 0.84440
 C1687 C -0.06490 0.81748 0.87574
 C1688 C -0.07151 0.82417 0.88738
 C1689 C -0.02949 0.78206 0.82539
 C1690 C -0.02263 0.77491 0.81422
 H1691 H -0.01623 0.81002 0.82118
 H1692 H -0.01193 0.83921 0.82471
 H1693 H -0.02791 0.85472 0.84566
 H1694 H -0.04833 0.84112 0.86319
 H1695 H -0.08058 0.79051 0.87742
 H1696 H -0.08679 0.76194 0.87197
 H1697 H -0.07087 0.74642 0.85099
 H1698 H -0.04870 0.75938 0.83530
 C1699 C 0.41076 0.78787 0.28647
 C1700 C 0.39409 0.78414 0.28263
 C1701 C 0.38110 0.79251 0.29096
 C1702 C 0.38487 0.80456 0.30310
 C1703 C 0.40155 0.80827 0.30699
 C1704 C 0.41454 0.79992 0.29862
 C1705 C 0.43113 0.80391 0.30265
 C1706 C 0.43474 0.81576 0.31462
 C1707 C 0.42204 0.82386 0.32284
 C1708 C 0.40560 0.82022 0.31911
 C1709 C 0.36451 0.78858 0.28687
 C1710 C 0.36088 0.77672 0.27492
 C1711 C 0.37360 0.76854 0.26678
 C1712 C 0.39004 0.77215 0.27055
 C1713 C 0.37152 0.81315 0.31144
 C1714 C 0.36008 0.82004 0.31802
 C1715 C 0.42405 0.77935 0.27798
 C1716 C 0.43558 0.77270 0.27133
 H1717 H 0.44147 0.79796 0.29661
 H1718 H 0.44749 0.81868 0.31753
 H1719 H 0.42494 0.83304 0.33214
 H1720 H 0.39613 0.82686 0.32581
 H1721 H 0.35418 0.79459 0.29286
 H1722 H 0.34813 0.77387 0.27195
 H1723 H 0.37072 0.75934 0.25751
 H1724 H 0.39951 0.76546 0.26389
 C1725 C -0.08876 0.78889 0.78821
 C1726 C -0.09243 0.80512 0.78334
 C1727 C -0.10433 0.81431 0.79241
 C1728 C -0.11256 0.80719 0.80624
 C1729 C -0.10825 0.79129 0.81165
 C1730 C -0.09634 0.78209 0.80259
 C1731 C -0.09208 0.76630 0.80836
 C1732 C -0.09934 0.75980 0.82270
 C1733 C -0.11096 0.76879 0.83158
 C1734 C -0.11546 0.78434 0.82614
 C1735 C -0.10750 0.83063 0.78757
 C1736 C -0.09901 0.83775 0.77427
 C1737 C -0.08736 0.82878 0.76540
 C1738 C -0.08412 0.81262 0.76977
 C1739 C -0.12581 0.81600 0.81455
 C1740 C -0.13716 0.82303 0.82115
 C1741 C -0.07615 0.77973 0.77932
 C1742 C -0.06497 0.77267 0.77249
 H1743 H -0.08305 0.75885 0.80192
 H1744 H -0.09589 0.74773 0.82698
 H1745 H -0.11651 0.76371 0.84275
 H1746 H -0.12449 0.79091 0.83351
 H1747 H -0.11637 0.83814 0.79416
 H1748 H -0.10146 0.85031 0.77084
 H1749 H -0.08076 0.83438 0.75510
 H1750 H -0.07491 0.80617 0.76253
 C1751 C 0.84310 0.28274 0.46842
 C1752 C 0.85563 0.27351 0.46050
 C1753 C 0.86923 0.28159 0.45284
 C1754 C 0.87016 0.29886 0.45310
 C1755 C 0.85764 0.30809 0.46108
 C1756 C 0.84414 0.30000 0.46889
 C1757 C 0.83189 0.30949 0.47699
 C1758 C 0.83288 0.32647 0.47724
 C1759 C 0.84595 0.33438 0.46938
 C1760 C 0.85825 0.32536 0.46141
 C1761 C 0.88160 0.27209 0.44497
 C1762 C 0.88056 0.25511 0.44466
 C1763 C 0.86725 0.24723 0.45214
 C1764 C 0.85489 0.25626 0.45999
 C1765 C 0.88405 0.30708 0.44527
 C1766 C 0.89569 0.31378 0.43881
 C1767 C 0.82867 0.27463 0.47531
 C1768 C 0.81613 0.26858 0.48059
 H1769 H 0.82141 0.30391 0.48317
 H1770 H 0.82337 0.33353 0.48342
 H1771 H 0.84658 0.34758 0.46947
 H1772 H 0.86820 0.33207 0.45551
 H1773 H 0.89219 0.27767 0.43896
 H1774 H 0.89013 0.24804 0.43858
 H1775 H 0.86650 0.23403 0.45187
 H1776 H 0.84479 0.24958 0.46567
 C1777 C 0.83801 0.78853 -0.03805
 C1778 C 0.85480 0.78510 -0.03449
 C1779 C 0.86750 0.79393 -0.04281
 C1780 C 0.86332 0.80616 -0.05464
 C1781 C 0.84652 0.80962 -0.05819
 C1782 C 0.83382 0.80076 -0.04988
 C1783 C 0.81710 0.80457 -0.05349
 C1784 C 0.81307 0.81694 -0.06475
 C1785 C 0.82547 0.82549 -0.07298
 C1786 C 0.84204 0.82190 -0.06982
 C1787 C 0.88422 0.79028 -0.03903
 C1788 C 0.88826 0.77826 -0.02737
 C1789 C 0.87583 0.76963 -0.01923
 C1790 C 0.85927 0.77297 -0.02270
 C1791 C 0.87636 0.81512 -0.06313
 C1792 C 0.88747 0.82229 -0.07000
 C1793 C 0.82497 0.77966 -0.02950
 C1794 C 0.81353 0.77283 -0.02284
 H1795 H 0.80696 0.79829 -0.04742
 H1796 H 0.80025 0.82007 -0.06690
 H1797 H 0.82223 0.83508 -0.08174
 H1798 H 0.85126 0.82896 -0.07643
 H1799 H 0.89434 0.79665 -0.04502
 H1800 H 0.90111 0.77562 -0.02464
 H1801 H 0.87903 0.76031 -0.01018
 H1802 H 0.85003 0.76594 -0.01606
 C1803 C -0.08926 -0.03707 -0.03648
 C1804 C -0.10593 -0.03379 -0.03229
 C1805 C -0.11890 -0.04232 -0.04054
 C1806 C -0.11512 -0.05409 -0.05295
 C1807 C -0.09844 -0.05736 -0.05717
 C1808 C -0.08547 -0.04882 -0.04892
 C1809 C -0.06888 -0.05249 -0.05317
 C1810 C -0.06523 -0.06440 -0.06502
 C1811 C -0.07790 -0.07262 -0.07322
 C1812 C -0.09435 -0.06916 -0.06942
 C1813 C -0.13548 -0.03885 -0.03609
 C1814 C -0.13913 -0.02729 -0.02385
 C1815 C -0.12643 -0.01896 -0.01578
 C1816 C -0.11000 -0.02212 -0.01991
 C1817 C -0.12843 -0.06285 -0.06124
 C1818 C -0.13977 -0.06990 -0.06789
 C1819 C -0.07595 -0.02857 -0.02794
 C1820 C -0.06430 -0.02202 -0.02132
 H1821 H -0.05854 -0.04645 -0.04716
 H1822 H -0.05249 -0.06745 -0.06767
 H1823 H -0.07496 -0.08185 -0.08244
 H1824 H -0.10380 -0.07595 -0.07604
 H1825 H -0.14580 -0.04500 -0.04200
 H1826 H -0.15188 -0.02480 -0.02060
 H1827 H -0.12933 -0.01000 -0.00628
 H1828 H -0.10054 -0.01533 -0.01330
 C1829 C -0.09243 0.46851 0.46591
 C1830 C -0.10675 0.46519 0.47549
 C1831 C -0.12015 0.45645 0.46821
 C1832 C -0.11911 0.45103 0.45141
 C1833 C -0.10475 0.45429 0.44185
 C1834 C -0.09142 0.46317 0.44907
 C1835 C -0.07725 0.46640 0.43921
 C1836 C -0.07627 0.46100 0.42271
 C1837 C -0.08920 0.45212 0.41572
 C1838 C -0.10332 0.44879 0.42511
 C1839 C -0.13434 0.45326 0.47805
 C1840 C -0.13526 0.45854 0.49460
 C1841 C -0.12214 0.46707 0.50171
 C1842 C -0.10802 0.47040 0.49232
 C1843 C -0.13295 0.44243 0.44386
 C1844 C -0.14453 0.43551 0.43751
 C1845 C -0.07828 0.47648 0.47356
 C1846 C -0.06588 0.48241 0.47934
 H1847 H -0.06682 0.47320 0.44408
 H1848 H -0.06546 0.46378 0.41529
 H1849 H -0.08831 0.44787 0.40292
 H1850 H -0.11307 0.44187 0.41912
 H1851 H -0.14485 0.44663 0.47309
 H1852 H -0.14620 0.45598 0.50195
 H1853 H -0.12292 0.47115 0.51458
 H1854 H -0.09815 0.47711 0.49837
 C1855 C 0.41365 -0.03969 0.45987
 C1856 C 0.40519 -0.05254 0.46807
 C1857 C 0.39335 -0.06200 0.45916
 C1858 C 0.39001 -0.05851 0.44212
 C1859 C 0.39916 -0.04629 0.43367
 C1860 C 0.41100 -0.03683 0.44258
 C1861 C 0.42026 -0.02493 0.43378
 C1862 C 0.41803 -0.02259 0.41665
 C1863 C 0.40643 -0.03184 0.40795
 C1864 C 0.39700 -0.04350 0.41633
 C1865 C 0.38519 -0.07490 0.46756
 C1866 C 0.38866 -0.07840 0.48427
 C1867 C 0.40021 -0.06913 0.49299
 C1868 C 0.40842 -0.05633 0.48505
 C1869 C 0.37673 -0.06704 0.43353
 C1870 C 0.36528 -0.07381 0.42676
 C1871 C 0.42600 -0.03026 0.46887
 C1872 C 0.43696 -0.02302 0.47593
 H1873 H 0.42951 -0.01751 0.43997
 H1874 H 0.42538 -0.01359 0.41007
 H1875 H 0.40478 -0.03000 0.39464
 H1876 H 0.38823 -0.05050 0.40901
 H1877 H 0.37618 -0.08252 0.46127
 H1878 H 0.38237 -0.08838 0.49048
 H1879 H 0.40287 -0.07190 0.50597
 H1880 H 0.41736 -0.04952 0.49234
 C1881 C 0.40827 0.46500 -0.03518
 C1882 C 0.39660 0.45654 -0.02522
 C1883 C 0.38360 0.44763 -0.03299
 C1884 C 0.38223 0.44740 -0.05066
 C1885 C 0.39396 0.45577 -0.06063
 C1886 C 0.40696 0.46469 -0.05286
 C1887 C 0.41843 0.47314 -0.06308
 C1888 C 0.41719 0.47264 -0.08047
 C1889 C 0.40460 0.46376 -0.08807
 C1890 C 0.39306 0.45543 -0.07832
 C1891 C 0.37222 0.43907 -0.02277
 C1892 C 0.37360 0.43938 -0.00539
 C1893 C 0.38624 0.44821 0.00221
 C1894 C 0.39764 0.45672 -0.00753
 C1895 C 0.36834 0.43914 -0.05852
 C1896 C 0.35654 0.43256 -0.06484
 C1897 C 0.42213 0.47325 -0.02731
 C1898 C 0.43415 0.47954 -0.02114
 H1899 H 0.42852 0.48012 -0.05776
 H1900 H 0.42615 0.47906 -0.08809
 H1901 H 0.40379 0.46329 -0.10159
 H1902 H 0.38349 0.44867 -0.08480
 H1903 H 0.36219 0.43202 -0.02810
 H1904 H 0.36481 0.43275 0.00223
 H1905 H 0.38725 0.44843 0.01572
 H1906 H 0.40727 0.46339 -0.00105
 C1907 C 0.33974 0.46353 0.78424
 C1908 C 0.35139 0.47236 0.79390
 C1909 C 0.36399 0.46389 0.80278
 C1910 C 0.36502 0.44666 0.80174
 C1911 C 0.35341 0.43783 0.79201
 C1912 C 0.34081 0.44631 0.78313
 C1913 C 0.32949 0.43724 0.77328
 C1914 C 0.33051 0.42028 0.77236
 C1915 C 0.34269 0.41199 0.78123
 C1916 C 0.35406 0.42060 0.79095
 C1917 C 0.37533 0.47297 0.81258
 C1918 C 0.37433 0.48993 0.81347
 C1919 C 0.36212 0.49822 0.80462
 C1920 C 0.35074 0.48959 0.79493
 C1921 C 0.37844 0.43813 0.81010
 C1922 C 0.38986 0.43126 0.81679
 C1923 C 0.32609 0.47202 0.77627
 C1924 C 0.31419 0.47859 0.77017
 H1925 H 0.31972 0.44313 0.76625
 H1926 H 0.32169 0.41354 0.76486
 H1927 H 0.34331 0.39880 0.78062
 H1928 H 0.36331 0.41360 0.79763
 H1929 H 0.38506 0.46707 0.81968
 H1930 H 0.38310 0.49667 0.82103
 H1931 H 0.36141 0.51139 0.80532
 H1932 H 0.34144 0.49657 0.78830
 C1933 C 0.33808 -0.03780 0.28763
 C1934 C 0.34632 -0.03098 0.30163
 C1935 C 0.35793 -0.04052 0.31078
 C1936 C 0.36127 -0.05677 0.30582
 C1937 C 0.35251 -0.06381 0.29227
 C1938 C 0.34093 -0.05427 0.28310
 C1939 C 0.33212 -0.06166 0.26977
 C1940 C 0.33452 -0.07804 0.26578
 C1941 C 0.34580 -0.08737 0.27478
 C1942 C 0.35480 -0.08037 0.28783
 C1943 C 0.36586 -0.03351 0.32486
 C1944 C 0.36244 -0.01755 0.32975
 C1945 C 0.35116 -0.00820 0.32075
 C1946 C 0.34314 -0.01478 0.30685
 C1947 C 0.37414 -0.06602 0.31429
 C1948 C 0.38522 -0.07334 0.32107
 C1949 C 0.32564 -0.02835 0.27878
 C1950 C 0.31454 -0.02115 0.27190
 H1951 H 0.32314 -0.05494 0.26244
 H1952 H 0.32753 -0.08354 0.25567
 H1953 H 0.34758 -0.10011 0.27167
 H1954 H 0.36337 -0.08815 0.29455
 H1955 H 0.37468 -0.04033 0.33230
 H1956 H 0.36855 -0.01241 0.34060
 H1957 H 0.34855 0.00420 0.32460
 H1958 H 0.33443 -0.00705 0.30029
 C1959 C 0.15719 0.53578 0.71878
 C1960 C 0.15648 0.55306 0.71887
 C1961 C 0.14338 0.56125 0.71046
 C1962 C 0.13091 0.55210 0.70224
 C1963 C 0.13150 0.53482 0.70236
 C1964 C 0.14469 0.52663 0.71063
 C1965 C 0.14508 0.50936 0.71049
 C1966 C 0.13277 0.50042 0.70241
 C1967 C 0.11986 0.50841 0.69433
 C1968 C 0.11916 0.52541 0.69426
 C1969 C 0.14312 0.57853 0.71043
 C1970 C 0.15537 0.58747 0.71861
 C1971 C 0.16807 0.57947 0.72702
 C1972 C 0.16871 0.56247 0.72715
 C1973 C 0.11740 0.56043 0.69382
 C1974 C 0.10603 0.56721 0.68693
 C1975 C 0.17133 0.52753 0.72616
 C1976 C 0.18368 0.52128 0.73169
 H1977 H 0.15486 0.50260 0.71664
 H1978 H 0.13325 0.48721 0.70242
 H1979 H 0.11032 0.50140 0.68807
 H1980 H 0.10888 0.53106 0.68778
 H1981 H 0.13348 0.58530 0.70408
 H1982 H 0.15502 0.60068 0.71842
 H1983 H 0.17757 0.58647 0.73334
 H1984 H 0.17890 0.55682 0.73377
 C1985 C 0.15801 0.03306 0.21647
 C1986 C 0.15784 0.03579 0.19895
 C1987 C 0.14434 0.04417 0.19144
 C1988 C 0.13099 0.04960 0.20145
 C1989 C 0.13119 0.04691 0.21897
 C1990 C 0.14475 0.03862 0.22650
 C1991 C 0.14472 0.03615 0.24403
 C1992 C 0.13166 0.04170 0.25386
 C1993 C 0.11839 0.04979 0.24650
 C1994 C 0.11809 0.05239 0.22926
 C1995 C 0.14455 0.04694 0.17394
 C1996 C 0.15762 0.04140 0.16412
 C1997 C 0.17071 0.03301 0.17143
 C1998 C 0.17096 0.03031 0.18865
 C1999 C 0.11687 0.05758 0.19370
 C2000 C 0.10500 0.06400 0.18732
 C2001 C 0.17228 0.02534 0.22419
 C2002 C 0.18469 0.01951 0.23006
 H2003 H 0.15476 0.02990 0.25031
 H2004 H 0.13183 0.03971 0.26726
 H2005 H 0.10827 0.05408 0.25419
 H2006 H 0.10752 0.05879 0.22413
 H2007 H 0.13462 0.05338 0.16768
 H2008 H 0.15758 0.04360 0.15075
 H2009 H 0.18075 0.02859 0.16372
 H2010 H 0.18148 0.02382 0.19374
 C2011 C 0.59464 0.72045 0.22114
 C2012 C 0.59586 0.70320 0.22052
 C2013 C 0.60997 0.69576 0.21316
 C2014 C 0.62287 0.70560 0.20667
 C2015 C 0.62176 0.72284 0.20755
 C2016 C 0.60759 0.73028 0.21479
 C2017 C 0.60671 0.74752 0.21543
 C2018 C 0.61949 0.75715 0.20912
 C2019 C 0.63335 0.74988 0.20205
 C2020 C 0.63454 0.73292 0.20124
 C2021 C 0.61079 0.67851 0.21243
 C2022 C 0.59811 0.66888 0.21894
 C2023 C 0.58442 0.67615 0.22634
 C2024 C 0.58320 0.69310 0.22708
 C2025 C 0.63725 0.69800 0.19909
 C2026 C 0.64917 0.69166 0.19280
 C2027 C 0.57969 0.72796 0.22760
 C2028 C 0.56680 0.73355 0.23252
 H2029 H 0.59618 0.75373 0.22085
 H2030 H 0.61862 0.77032 0.20973
 H2031 H 0.64324 0.75741 0.19717
 H2032 H 0.64557 0.72784 0.19561
 H2033 H 0.62121 0.67228 0.20685
 H2034 H 0.59892 0.65570 0.21826
 H2035 H 0.57462 0.66861 0.23140
 H2036 H 0.57224 0.69816 0.23285
 C2037 C 0.09161 0.71646 0.71979
 C2038 C 0.09256 0.69919 0.72000
 C2039 C 0.10581 0.69114 0.71174
 C2040 C 0.11820 0.70042 0.70358
 C2041 C 0.11738 0.71769 0.70360
 C2042 C 0.10403 0.72573 0.71170
 C2043 C 0.10340 0.74300 0.71143
 C2044 C 0.11563 0.75207 0.70341
 C2045 C 0.12870 0.74422 0.69550
 C2046 C 0.12963 0.72723 0.69555
 C2047 C 0.10630 0.67386 0.71180
 C2048 C 0.09412 0.66480 0.71993
 C2049 C 0.08129 0.67266 0.72821
 C2050 C 0.08044 0.68966 0.72826
 C2051 C 0.13185 0.69224 0.69527
 C2052 C 0.14332 0.68567 0.68840
 C2053 C 0.07734 0.72456 0.72702
 C2054 C 0.06490 0.73068 0.73247
 H2055 H 0.09349 0.74965 0.71746
 H2056 H 0.11497 0.76527 0.70333
 H2057 H 0.13817 0.75133 0.68927
 H2058 H 0.14003 0.72169 0.68920
 H2059 H 0.11605 0.66719 0.70556
 H2060 H 0.09463 0.65159 0.71979
 H2061 H 0.07186 0.66557 0.73450
 H2062 H 0.07015 0.69520 0.73477
 C2063 C 0.65877 0.21417 0.53354
 C2064 C 0.65841 0.21200 0.55114
 C2065 C 0.64485 0.20380 0.55873
 C2066 C 0.63164 0.19798 0.54871
 C2067 C 0.63205 0.20008 0.53111
 C2068 C 0.64565 0.20820 0.52351
 C2069 C 0.64583 0.21008 0.50590
 C2070 C 0.63293 0.20411 0.49606
 C2071 C 0.61962 0.19617 0.50349
 C2072 C 0.61912 0.19415 0.52080
 C2073 C 0.64485 0.20163 0.57631
 C2074 C 0.65777 0.20758 0.58614
 C2075 C 0.67090 0.21581 0.57875
 C2076 C 0.67136 0.21791 0.56145
 C2077 C 0.61744 0.19021 0.55650
 C2078 C 0.60547 0.18393 0.56281
 C2079 C 0.67298 0.22190 0.52578
 C2080 C 0.68523 0.22791 0.51979
 H2081 H 0.65591 0.21618 0.49955
 H2082 H 0.63326 0.20564 0.48261
 H2083 H 0.60963 0.19153 0.49579
 H2084 H 0.60852 0.18785 0.52598
 H2085 H 0.63487 0.19534 0.58264
 H2086 H 0.65756 0.20584 0.59958
 H2087 H 0.68081 0.22056 0.58646
 H2088 H 0.68192 0.22428 0.55629
 C2089 C 0.65671 0.71797 0.03146
 C2090 C 0.64281 0.71385 0.02152
 C2091 C 0.62914 0.70560 0.02886
 C2092 C 0.62946 0.70149 0.04608
 C2093 C 0.64344 0.70547 0.05599
 C2094 C 0.65705 0.71385 0.04869
 C2095 C 0.67080 0.71787 0.05890
 C2096 C 0.67107 0.71375 0.07582
 C2097 C 0.65788 0.70535 0.08290
 C2098 C 0.64418 0.70124 0.07316
 C2099 C 0.61538 0.70161 0.01866
 C2100 C 0.61514 0.70564 0.00171
 C2101 C 0.62852 0.71370 -0.00545
 C2102 C 0.64223 0.71779 0.00428
 C2103 C 0.61528 0.69350 0.05369
 C2104 C 0.60341 0.68708 0.06003
 C2105 C 0.67101 0.72576 0.02390
 C2106 C 0.68344 0.73166 0.01818
 H2107 H 0.68142 0.72431 0.05398
 H2108 H 0.68157 0.71712 0.08349
 H2109 H 0.65824 0.70207 0.09603
 H2110 H 0.63419 0.69475 0.07924
 H2111 H 0.60469 0.69531 0.02365
 H2112 H 0.60452 0.70249 -0.00590
 H2113 H 0.62827 0.71681 -0.01862
 H2114 H 0.65233 0.72407 -0.00184
 C2115 C 0.09488 0.03037 0.02905
 C2116 C 0.09607 0.04762 0.02969
 C2117 C 0.11012 0.05510 0.03718
 C2118 C 0.12301 0.04528 0.04376
 C2119 C 0.12193 0.02804 0.04290
 C2120 C 0.10780 0.02057 0.03554
 C2121 C 0.10694 0.00333 0.03491
 C2122 C 0.11969 -0.00627 0.04135
 C2123 C 0.13350 0.00103 0.04854
 C2124 C 0.13468 0.01798 0.04934
 C2125 C 0.11089 0.07235 0.03795
 C2126 C 0.09823 0.08195 0.03135
 C2127 C 0.08460 0.07465 0.02382
 C2128 C 0.08343 0.05769 0.02302
 C2129 C 0.13739 0.05291 0.05135
 C2130 C 0.14935 0.05926 0.05761
 C2131 C 0.07999 0.02283 0.02247
 C2132 C 0.06713 0.01721 0.01746
 H2133 H 0.09645 -0.00290 0.02940
 H2134 H 0.11884 -0.01945 0.04075
 H2135 H 0.14337 -0.00648 0.05352
 H2136 H 0.14566 0.02310 0.05507
 H2137 H 0.12127 0.07860 0.04364
 H2138 H 0.09900 0.09512 0.03207
 H2139 H 0.07481 0.08216 0.01868
 H2140 H 0.07252 0.05260 0.01714
 C2141 C 0.09124 0.53682 0.53244
 C2142 C 0.09273 0.55399 0.53095
 C2143 C 0.10571 0.56230 0.53944
 C2144 C 0.11733 0.55334 0.54902
 C2145 C 0.11586 0.53617 0.55046
 C2146 C 0.10274 0.52789 0.54218
 C2147 C 0.10144 0.51074 0.54390
 C2148 C 0.11280 0.50201 0.55352
 C2149 C 0.12565 0.51009 0.56160
 C2150 C 0.12723 0.52698 0.56013
 C2151 C 0.10668 0.57951 0.53816
 C2152 C 0.09523 0.58826 0.52867
 C2153 C 0.08270 0.58011 0.52014
 C2154 C 0.08141 0.56318 0.52122
 C2155 C 0.13104 0.56169 0.55707
 C2156 C 0.14266 0.56834 0.56363
 C2157 C 0.07733 0.52851 0.52472
 C2158 C 0.06525 0.52212 0.51879
 H2159 H 0.09168 0.50390 0.53781
 H2160 H 0.11163 0.48889 0.55470
 H2161 H 0.13444 0.50326 0.56906
 H2162 H 0.13740 0.53272 0.56669
 H2163 H 0.11622 0.58638 0.54455
 H2164 H 0.09608 0.60143 0.52792
 H2165 H 0.07383 0.58696 0.51280
 H2166 H 0.07137 0.55741 0.51447
 C2167 C 0.59452 0.02959 0.53068
 C2168 C 0.59338 0.03924 0.54535
 C2169 C 0.60773 0.04703 0.55185
 C2170 C 0.62319 0.04490 0.54383
 C2171 C 0.62435 0.03515 0.52925
 C2172 C 0.60996 0.02749 0.52264
 C2173 C 0.61140 0.01787 0.50801
 C2174 C 0.62664 0.01585 0.50014
 C2175 C 0.64071 0.02331 0.50661
 C2176 C 0.63965 0.03286 0.52099
 C2177 C 0.60621 0.05691 0.56631
 C2178 C 0.59098 0.05896 0.57417
 C2179 C 0.57699 0.05122 0.56791
 C2180 C 0.57808 0.04147 0.55367
 C2181 C 0.63789 0.05262 0.55069
 C2182 C 0.65003 0.05900 0.55655
 C2183 C 0.57966 0.02232 0.52368
 C2184 C 0.56684 0.01691 0.51831
 H2185 H 0.60080 0.01181 0.50253
 H2186 H 0.62753 0.00843 0.48896
 H2187 H 0.65252 0.02170 0.50044
 H2188 H 0.65094 0.03844 0.52554
 H2189 H 0.61675 0.06317 0.57167
 H2190 H 0.59003 0.06656 0.58521
 H2191 H 0.56524 0.05278 0.57411
 H2192 H 0.56681 0.03578 0.54926
 C2193 C 0.59334 0.53072 0.03080
 C2194 C 0.59214 0.54136 0.04473
 C2195 C 0.60657 0.54913 0.05108
 C2196 C 0.62215 0.54600 0.04366
 C2197 C 0.62336 0.53527 0.02982
 C2198 C 0.60890 0.52763 0.02335
 C2199 C 0.61040 0.51701 0.00948
 C2200 C 0.62576 0.51399 0.00221
 C2201 C 0.63990 0.52145 0.00853
 C2202 C 0.63879 0.53198 0.02218
 C2203 C 0.60502 0.55996 0.06480
 C2204 C 0.58966 0.56297 0.07208
 C2205 C 0.57559 0.55526 0.06596
 C2206 C 0.57672 0.54457 0.05246
 C2207 C 0.63692 0.55369 0.05038
 C2208 C 0.64916 0.56004 0.05608
 C2209 C 0.57845 0.52338 0.02396
 C2210 C 0.56561 0.51791 0.01871
 H2211 H 0.59974 0.51091 0.00414
 H2212 H 0.62669 0.50582 -0.00839
 H2213 H 0.65180 0.51906 0.00284
 H2214 H 0.65013 0.53750 0.02664
 H2215 H 0.61562 0.56624 0.07001
 H2216 H 0.58868 0.57131 0.08253
 H2217 H 0.56373 0.55760 0.07169
 H2218 H 0.56538 0.53895 0.04813
 C2219 C 0.03223 0.03325 0.09364
 C2220 C 0.03270 0.05053 0.09438
 C2221 C 0.04083 0.05843 0.10793
 C2222 C 0.04823 0.04901 0.12079
 C2223 C 0.04756 0.03174 0.12016
 C2224 C 0.03957 0.02384 0.10653
 C2225 C 0.03914 0.00657 0.10611
 C2226 C 0.04640 -0.00264 0.11882
 C2227 C 0.05421 0.00508 0.13216
 C2228 C 0.05483 0.02206 0.13289
 C2229 C 0.04140 0.07570 0.10823
 C2230 C 0.03400 0.08491 0.09560
 C2231 C 0.02586 0.07720 0.08248
 C2232 C 0.02523 0.06021 0.08177
 C2233 C 0.05638 0.05706 0.13475
 C2234 C 0.06307 0.06360 0.14647
 C2235 C 0.02496 0.02525 0.07917
 C2236 C 0.01942 0.01919 0.06662
 H2237 H 0.03317 0.00002 0.09601
 H2238 H 0.04595 -0.01584 0.11832
 H2239 H 0.05983 -0.00214 0.14201
 H2240 H 0.06107 0.02750 0.14351
 H2241 H 0.04756 0.08226 0.11821
 H2242 H 0.03458 0.09811 0.09601
 H2243 H 0.02012 0.08441 0.07269
 H2244 H 0.01885 0.05479 0.07123
 C2245 C 0.03399 0.53813 0.59023
 C2246 C 0.03347 0.55537 0.59152
 C2247 C 0.04191 0.56335 0.60483
 C2248 C 0.05052 0.55402 0.61696
 C2249 C 0.05106 0.53679 0.61565
 C2250 C 0.04280 0.52882 0.60223
 C2251 C 0.04359 0.51160 0.60112
 C2252 C 0.05228 0.50249 0.61296
 C2253 C 0.06034 0.51026 0.62610
 C2254 C 0.05978 0.52721 0.62750
 C2255 C 0.04155 0.58061 0.60564
 C2256 C 0.03300 0.58973 0.59369
 C2257 C 0.02456 0.58192 0.58081
 C2258 C 0.02473 0.56495 0.57969
 C2259 C 0.05847 0.56205 0.63104
 C2260 C 0.06490 0.56845 0.64298
 C2261 C 0.02620 0.53007 0.57610
 C2262 C 0.02026 0.52370 0.56390
 H2263 H 0.03749 0.50499 0.59114
 H2264 H 0.05276 0.48932 0.61192
 H2265 H 0.06709 0.50313 0.63526
 H2266 H 0.06629 0.53269 0.63792
 H2267 H 0.04793 0.58722 0.61543
 H2268 H 0.03294 0.60292 0.59443
 H2269 H 0.01796 0.58906 0.57155
 H2270 H 0.01809 0.55944 0.56936
 C2271 C 0.52986 0.03401 0.59342
 C2272 C 0.53297 0.02504 0.60823
 C2273 C 0.54085 0.03272 0.62206
 C2274 C 0.54566 0.04933 0.62095
 C2275 C 0.54245 0.05834 0.60616
 C2276 C 0.53437 0.05070 0.59242
 C2277 C 0.53112 0.06001 0.57782
 C2278 C 0.53592 0.07632 0.57677
 C2279 C 0.54401 0.08372 0.59012
 C2280 C 0.54723 0.07490 0.60469
 C2281 C 0.54385 0.02348 0.63673
 C2282 C 0.53920 0.00712 0.63771
 C2283 C 0.53151 -0.00039 0.62418
 C2284 C 0.52840 0.00841 0.60957
 C2285 C 0.55386 0.05710 0.63504
 C2286 C 0.56061 0.06339 0.64687
 C2287 C 0.52286 0.02595 0.57886
 C2288 C 0.51763 0.01978 0.56622
 H2289 H 0.52492 0.05480 0.56707
 H2290 H 0.53335 0.08325 0.56554
 H2291 H 0.54777 0.09637 0.58919
 H2292 H 0.55351 0.08120 0.61477
 H2293 H 0.54981 0.02877 0.64759
 H2294 H 0.54159 0.00024 0.64903
 H2295 H 0.52792 -0.01310 0.62500
 H2296 H 0.52234 0.00206 0.59939
 C2297 C 0.52976 0.53515 0.09386
 C2298 C 0.53375 0.52616 0.10844
 C2299 C 0.54187 0.53401 0.12203
 C2300 C 0.54600 0.55079 0.12091
 C2301 C 0.54192 0.55980 0.10634
 C2302 C 0.53363 0.55199 0.09284
 C2303 C 0.52951 0.56130 0.07846
 C2304 C 0.53364 0.57779 0.07740
 C2305 C 0.54193 0.58537 0.09052
 C2306 C 0.54601 0.57655 0.10488
 C2307 C 0.54577 0.52476 0.13648
 C2308 C 0.54179 0.50823 0.13746
 C2309 C 0.53387 0.50056 0.12415
 C2310 C 0.52986 0.50937 0.10978
 C2311 C 0.55437 0.55874 0.13478
 C2312 C 0.56124 0.56518 0.14644
 C2313 C 0.52249 0.52698 0.07952
 C2314 C 0.51705 0.52075 0.06701
 H2315 H 0.52312 0.55596 0.06789
 H2316 H 0.53043 0.58471 0.06633
 H2317 H 0.54517 0.59816 0.08959
 H2318 H 0.55242 0.58299 0.11478
 H2319 H 0.55194 0.53017 0.14715
 H2320 H 0.54489 0.50133 0.14860
 H2321 H 0.53081 0.48772 0.12497
 H2322 H 0.52366 0.50289 0.09977
 C2323 C 0.21789 0.53564 0.65645
 C2324 C 0.20978 0.52660 0.64378
 C2325 C 0.20155 0.53488 0.63054
 C2326 C 0.20144 0.55217 0.63009
 C2327 C 0.20963 0.56122 0.64271
 C2328 C 0.21801 0.55293 0.65586
 C2329 C 0.22629 0.56224 0.66824
 C2330 C 0.22618 0.57925 0.66771
 C2331 C 0.21779 0.58735 0.65499
 C2332 C 0.20962 0.57851 0.64258
 C2333 C 0.19348 0.52557 0.61802
 C2334 C 0.19354 0.50857 0.61860
 C2335 C 0.20158 0.50047 0.63156
 C2336 C 0.20963 0.50932 0.64405
 C2337 C 0.19301 0.56061 0.61656
 C2338 C 0.18608 0.56747 0.60519
 C2339 C 0.22523 0.52730 0.67066
 C2340 C 0.23079 0.52103 0.68309
 H2341 H 0.23289 0.55651 0.67846
 H2342 H 0.23250 0.58617 0.67733
 H2343 H 0.21761 0.60056 0.65473
 H2344 H 0.20329 0.58536 0.63291
 H2345 H 0.18704 0.53131 0.60769
 H2346 H 0.18731 0.50164 0.60892
 H2347 H 0.20160 0.48726 0.63195
 H2348 H 0.21575 0.50249 0.65387
 C2349 C 0.22039 0.03341 0.15450
 C2350 C 0.21018 0.04738 0.15609
 C2351 C 0.20243 0.05417 0.14170
 C2352 C 0.20515 0.04711 0.12576
 C2353 C 0.21550 0.03325 0.12416
 C2354 C 0.22311 0.02636 0.13858
 C2355 C 0.23332 0.01246 0.13669
 C2356 C 0.23597 0.00556 0.12098
 C2357 C 0.22854 0.01229 0.10687
 C2358 C 0.21841 0.02598 0.10837
 C2359 C 0.19200 0.06792 0.14364
 C2360 C 0.18936 0.07482 0.15935
 C2361 C 0.19705 0.06828 0.17339
 C2362 C 0.20735 0.05473 0.17187
 C2363 C 0.19737 0.05416 0.11104
 C2364 C 0.19090 0.06010 0.09887
 C2365 C 0.22763 0.02612 0.16937
 C2366 C 0.23300 0.02049 0.18221
 H2367 H 0.23938 0.00681 0.14731
 H2368 H 0.24382 -0.00507 0.11976
 H2369 H 0.23063 0.00689 0.09470
 H2370 H 0.21289 0.03077 0.09703
 H2371 H 0.18575 0.07346 0.13308
 H2372 H 0.18132 0.08532 0.16063
 H2373 H 0.19498 0.07370 0.18552
 H2374 H 0.21298 0.05007 0.18320
 C2375 C 0.71963 0.21492 0.59364
 C2376 C 0.70963 0.20074 0.59266
 C2377 C 0.70238 0.19421 0.60742
 C2378 C 0.70541 0.20172 0.62308
 C2379 C 0.71556 0.21580 0.62407
 C2380 C 0.72266 0.22243 0.60929
 C2381 C 0.73268 0.23655 0.61056
 C2382 C 0.73561 0.24391 0.62600
 C2383 C 0.72867 0.23742 0.64046
 C2384 C 0.71875 0.22353 0.63958
 C2385 C 0.69212 0.18025 0.60610
 C2386 C 0.68916 0.17292 0.59065
 C2387 C 0.69635 0.17922 0.57625
 C2388 C 0.70649 0.19296 0.57715
 C2389 C 0.69813 0.19498 0.63817
 C2390 C 0.69207 0.18938 0.65070
 C2391 C 0.72638 0.22197 0.57845
 C2392 C 0.73155 0.22761 0.56555
 H2393 H 0.73836 0.24203 0.59966
 H2394 H 0.74331 0.25470 0.62675
 H2395 H 0.73098 0.24318 0.65243
 H2396 H 0.71362 0.21895 0.65117
 H2397 H 0.68627 0.17488 0.61696
 H2398 H 0.68126 0.16227 0.58985
 H2399 H 0.69404 0.17346 0.56432
 H2400 H 0.71173 0.19744 0.56557
 C2401 C 0.72030 0.71701 0.09391
 C2402 C 0.71163 0.70201 0.09280
 C2403 C 0.70399 0.69530 0.10726
 C2404 C 0.70532 0.70347 0.12282
 C2405 C 0.71417 0.71835 0.12397
 C2406 C 0.72165 0.72516 0.10946
 C2407 C 0.73035 0.74009 0.11089
 C2408 C 0.73164 0.74808 0.12623
 C2409 C 0.72434 0.74142 0.14043
 C2410 C 0.71569 0.72673 0.13939
 C2411 C 0.69505 0.68050 0.10576
 C2412 C 0.69380 0.67249 0.09042
 C2413 C 0.70141 0.67896 0.07633
 C2414 C 0.71021 0.69355 0.07740
 C2415 C 0.69765 0.69651 0.13764
 C2416 C 0.69131 0.69066 0.14991
 C2417 C 0.72722 0.72427 0.07889
 C2418 C 0.73235 0.72992 0.06597
 H2419 H 0.73625 0.74573 0.10019
 H2420 H 0.73835 0.75949 0.12710
 H2421 H 0.72538 0.74767 0.15232
 H2422 H 0.71022 0.72205 0.15077
 H2423 H 0.68894 0.67496 0.11638
 H2424 H 0.68692 0.66119 0.08948
 H2425 H 0.70051 0.67263 0.06450
 H2426 H 0.71585 0.69811 0.06604
 C2427 C 0.53105 0.71750 0.15594
 C2428 C 0.53778 0.72699 0.14280
 C2429 C 0.54544 0.71919 0.12894
 C2430 C 0.54637 0.70193 0.12832
 C2431 C 0.53956 0.69243 0.14143
 C2432 C 0.53178 0.70022 0.15522
 C2433 C 0.52491 0.69045 0.16808
 C2434 C 0.52577 0.67347 0.16738
 C2435 C 0.53357 0.66586 0.15401
 C2436 C 0.54039 0.67516 0.14114
 C2437 C 0.55211 0.72895 0.11597
 C2438 C 0.55124 0.74593 0.11667
 C2439 C 0.54376 0.75355 0.13023
 C2440 C 0.53709 0.74425 0.14318
 C2441 C 0.55424 0.69398 0.11417
 C2442 C 0.56074 0.68749 0.10234
 C2443 C 0.52408 0.72541 0.17057
 C2444 C 0.51874 0.73141 0.18323
 H2445 H 0.51882 0.69579 0.17881
 H2446 H 0.52048 0.66619 0.17734
 H2447 H 0.53434 0.65267 0.15361
 H2448 H 0.54629 0.66868 0.13097
 H2449 H 0.55807 0.72360 0.10517
 H2450 H 0.55641 0.75321 0.10664
 H2451 H 0.54312 0.76674 0.13072
 H2452 H 0.53136 0.75073 0.15346
 C2453 C 0.03113 0.71465 0.65803
 C2454 C 0.03107 0.69735 0.65745
 C2455 C 0.03986 0.68907 0.64461
 C2456 C 0.04843 0.69813 0.63226
 C2457 C 0.04827 0.71542 0.63269
 C2458 C 0.03962 0.72369 0.64563
 C2459 C 0.03976 0.74097 0.64588
 C2460 C 0.04818 0.74983 0.63368
 C2461 C 0.05662 0.74175 0.62101
 C2462 C 0.05671 0.72475 0.62046
 C2463 C 0.03992 0.67179 0.64451
 C2464 C 0.03141 0.66294 0.65666
 C2465 C 0.02263 0.67103 0.66909
 C2466 C 0.02245 0.68803 0.66956
 C2467 C 0.05729 0.68972 0.61900
 C2468 C 0.06459 0.68299 0.60781
 C2469 C 0.02340 0.72301 0.67200
 C2470 C 0.01761 0.72943 0.68424
 H2471 H 0.03332 0.74780 0.65546
 H2472 H 0.04815 0.76304 0.63405
 H2473 H 0.06315 0.74869 0.61156
 H2474 H 0.06348 0.71903 0.61036
 H2475 H 0.04655 0.66495 0.63508
 H2476 H 0.03164 0.64973 0.65645
 H2477 H 0.01607 0.66409 0.67852
 H2478 H 0.01553 0.69376 0.67955
 C2479 C 0.53374 0.66005 0.21888
 C2480 C 0.52934 0.64401 0.22367
 C2481 C 0.53707 0.63043 0.21586
 C2482 C 0.54915 0.63300 0.20330
 C2483 C 0.55364 0.64906 0.19858
 C2484 C 0.54591 0.66264 0.20639
 C2485 C 0.55057 0.67860 0.20143
 C2486 C 0.56254 0.68106 0.18914
 C2487 C 0.57010 0.66778 0.18152
 C2488 C 0.56575 0.65194 0.18613
 C2489 C 0.53244 0.61449 0.22086
 C2490 C 0.52053 0.61204 0.23321
 C2491 C 0.51298 0.62533 0.24083
 C2492 C 0.51728 0.64117 0.23617
 C2493 C 0.55686 0.61909 0.19521
 C2494 C 0.56306 0.60736 0.18864
 C2495 C 0.52576 0.67398 0.22660
 C2496 C 0.51965 0.68615 0.23234
 H2497 H 0.54506 0.68934 0.20698
 H2498 H 0.56595 0.69335 0.18552
 H2499 H 0.57938 0.66976 0.17198
 H2500 H 0.57197 0.64199 0.17984
 H2501 H 0.53797 0.60375 0.21530
 H2502 H 0.51715 0.59976 0.23688
 H2503 H 0.50374 0.62337 0.25042
 H2504 H 0.51108 0.65113 0.24246
 C2505 C 0.03272 0.65996 0.71813
 C2506 C 0.04490 0.66342 0.70586
 C2507 C 0.05317 0.65041 0.69762
 C2508 C 0.04921 0.63405 0.70168
 C2509 C 0.03705 0.63061 0.71395
 C2510 C 0.02878 0.64362 0.72220
 C2511 C 0.01668 0.63991 0.73441
 C2512 C 0.01283 0.62378 0.73836
 C2513 C 0.02090 0.61105 0.73030
 C2514 C 0.03288 0.61435 0.71822
 C2515 C 0.06528 0.65415 0.68542
 C2516 C 0.06911 0.67029 0.68146
 C2517 C 0.06102 0.68302 0.68949
 C2518 C 0.04904 0.67970 0.70156
 C2519 C 0.05756 0.62071 0.69325
 C2520 C 0.06430 0.60940 0.68645
 C2521 C 0.02432 0.67332 0.72643
 C2522 C 0.01798 0.68516 0.73263
 H2523 H 0.01008 0.64942 0.74101
 H2524 H 0.00354 0.62116 0.74773
 H2525 H 0.01787 0.59854 0.73341
 H2526 H 0.03881 0.60402 0.71230
 H2527 H 0.07191 0.64466 0.67882
 H2528 H 0.07840 0.67293 0.67209
 H2529 H 0.06402 0.69553 0.68637
 H2530 H 0.04311 0.69004 0.70745
 C2531 C 0.03468 0.08989 0.03218
 C2532 C 0.04685 0.08685 0.04460
 C2533 C 0.05480 0.10013 0.05275
 C2534 C 0.05053 0.11636 0.04845
 C2535 C 0.03843 0.11938 0.03596
 C2536 C 0.03049 0.10610 0.02781
 C2537 C 0.01843 0.10940 0.01540
 C2538 C 0.01433 0.12540 0.01114
 C2539 C 0.02209 0.13840 0.01911
 C2540 C 0.03401 0.13550 0.03138
 C2541 C 0.06690 0.09679 0.06513
 C2542 C 0.07102 0.08079 0.06934
 C2543 C 0.06325 0.06779 0.06139
 C2544 C 0.05130 0.07071 0.04916
 C2545 C 0.05844 0.12998 0.05691
 C2546 C 0.06478 0.14149 0.06381
 C2547 C 0.02646 0.07625 0.02411
 C2548 C 0.02018 0.06427 0.01810
 H2549 H 0.01207 0.09968 0.00885
 H2550 H 0.00508 0.12771 0.00162
 H2551 H 0.01886 0.15081 0.01576
 H2552 H 0.03970 0.14602 0.03721
 H2553 H 0.07328 0.10650 0.07167
 H2554 H 0.08029 0.07846 0.07884
 H2555 H 0.06648 0.05538 0.06471
 H2556 H 0.04562 0.06018 0.04334
 C2557 C 0.03753 0.58971 0.53321
 C2558 C 0.04936 0.58630 0.54586
 C2559 C 0.05744 0.59934 0.55430
 C2560 C 0.05360 0.61570 0.55008
 C2561 C 0.04186 0.61908 0.53735
 C2562 C 0.03381 0.60604 0.52889
 C2563 C 0.02212 0.60972 0.51622
 C2564 C 0.01847 0.62583 0.51202
 C2565 C 0.02633 0.63859 0.52029
 C2566 C 0.03789 0.63533 0.53281
 C2567 C 0.06923 0.59564 0.56686
 C2568 C 0.07293 0.57951 0.57098
 C2569 C 0.06502 0.56676 0.56276
 C2570 C 0.05335 0.57004 0.55035
 C2571 C 0.06154 0.62911 0.55887
 C2572 C 0.06779 0.64060 0.56588
 C2573 C 0.02915 0.57636 0.52479
 C2574 C 0.02253 0.56478 0.51833
 H2575 H 0.01570 0.60020 0.50943
 H2576 H 0.00950 0.62843 0.50230
 H2577 H 0.02346 0.65109 0.51698
 H2578 H 0.04367 0.64568 0.53886
 H2579 H 0.07569 0.60515 0.57361
 H2580 H 0.08198 0.57689 0.58062
 H2581 H 0.06793 0.55425 0.56601
 H2582 H 0.04754 0.55969 0.54431
 C2583 C 0.53350 0.09081 0.52970
 C2584 C 0.52376 0.10414 0.53511
 C2585 C 0.53134 0.11744 0.54360
 C2586 C 0.54862 0.11729 0.54665
 C2587 C 0.55834 0.10391 0.54131
 C2588 C 0.55078 0.09068 0.53270
 C2589 C 0.56081 0.07753 0.52730
 C2590 C 0.57779 0.07746 0.53031
 C2591 C 0.58514 0.09027 0.53896
 C2592 C 0.57559 0.10338 0.54442
 C2593 C 0.52134 0.13062 0.54893
 C2594 C 0.50434 0.13066 0.54597
 C2595 C 0.49693 0.11765 0.53768
 C2596 C 0.50647 0.10451 0.53228
 C2597 C 0.55640 0.13105 0.55497
 C2598 C 0.56279 0.14262 0.56171
 C2599 C 0.52569 0.07672 0.52204
 C2600 C 0.51975 0.06441 0.51638
 H2601 H 0.55567 0.06722 0.52061
 H2602 H 0.58529 0.06742 0.52590
 H2603 H 0.59832 0.09007 0.54140
 H2604 H 0.58188 0.11309 0.55105
 H2605 H 0.52652 0.14100 0.55547
 H2606 H 0.49688 0.14084 0.55014
 H2607 H 0.48372 0.11774 0.53540
 H2608 H 0.50017 0.09468 0.52586
 C2609 C 0.53226 0.59203 0.03028
 C2610 C 0.54966 0.59240 0.03249
 C2611 C 0.55722 0.60591 0.04063
 C2612 C 0.54737 0.61905 0.04635
 C2613 C 0.52997 0.61863 0.04421
 C2614 C 0.52239 0.60508 0.03615
 C2615 C 0.50498 0.60489 0.03424
 C2616 C 0.49531 0.61774 0.04012
 C2617 C 0.50271 0.63100 0.04800
 C2618 C 0.51983 0.63151 0.05005
 C2619 C 0.57460 0.60591 0.04288
 C2620 C 0.58427 0.59302 0.03708
 C2621 C 0.57690 0.57991 0.02893
 C2622 C 0.55980 0.57948 0.02673
 C2623 C 0.55512 0.63313 0.05413
 C2624 C 0.56144 0.64497 0.06044
 C2625 C 0.52453 0.57778 0.02282
 C2626 C 0.51861 0.56541 0.01727
 H2627 H 0.49867 0.59485 0.02819
 H2628 H 0.48201 0.61741 0.03856
 H2629 H 0.49514 0.64095 0.05255
 H2630 H 0.52500 0.64207 0.05630
 H2631 H 0.58090 0.61586 0.04912
 H2632 H 0.59755 0.59322 0.03890
 H2633 H 0.58448 0.57000 0.02433
 H2634 H 0.55466 0.56895 0.02041
 C2635 C 0.71738 0.15652 0.52874
 C2636 C 0.72752 0.14278 0.53192
 C2637 C 0.72056 0.12847 0.53912
 C2638 C 0.70350 0.12802 0.54316
 C2639 C 0.69335 0.14177 0.53995
 C2640 C 0.70028 0.15600 0.53257
 C2641 C 0.68983 0.16952 0.52929
 C2642 C 0.67308 0.16904 0.53336
 C2643 C 0.66635 0.15520 0.54077
 C2644 C 0.67630 0.14166 0.54401
 C2645 C 0.73095 0.11488 0.54219
 C2646 C 0.74774 0.11543 0.53826
 C2647 C 0.75455 0.12942 0.53124
 C2648 C 0.74461 0.14298 0.52808
 C2649 C 0.69643 0.11342 0.55059
 C2650 C 0.69067 0.10123 0.55674
 C2651 C 0.72459 0.17140 0.52213
 C2652 C 0.73020 0.18411 0.51707
 H2653 H 0.69449 0.18061 0.52362
 H2654 H 0.66528 0.17946 0.53078
 H2655 H 0.65334 0.15494 0.54396
 H2656 H 0.67049 0.13115 0.54974
 H2657 H 0.72624 0.10372 0.54765
 H2658 H 0.75551 0.10492 0.54069
 H2659 H 0.76759 0.12978 0.52822
 H2660 H 0.75046 0.15359 0.52257
 C2661 C 0.71783 0.65711 0.02587
 C2662 C 0.70121 0.65743 0.03146
 C2663 C 0.69417 0.64333 0.03901
 C2664 C 0.70370 0.62891 0.04063
 C2665 C 0.72023 0.62852 0.03475
 C2666 C 0.72733 0.64268 0.02738
 C2667 C 0.74390 0.64205 0.02173
 C2668 C 0.75321 0.62781 0.02329
 C2669 C 0.74627 0.61395 0.03047
 C2670 C 0.72998 0.61423 0.03616
 C2671 C 0.67766 0.64407 0.04488
 C2672 C 0.66833 0.65829 0.04323
 C2673 C 0.67514 0.67201 0.03567
 C2674 C 0.69138 0.67167 0.02984
 C2675 C 0.69656 0.61450 0.04837
 C2676 C 0.69072 0.60250 0.05479
 C2677 C 0.72530 0.67189 0.01932
 C2678 C 0.73096 0.68466 0.01451
 H2679 H 0.74981 0.65252 0.01603
 H2680 H 0.76587 0.62753 0.01889
 H2681 H 0.75355 0.60292 0.03166
 H2682 H 0.72514 0.60314 0.04167
 H2683 H 0.67180 0.63369 0.05080
 H2684 H 0.65573 0.65865 0.04779
 H2685 H 0.66781 0.68297 0.03431
 H2686 H 0.69613 0.68269 0.02411
 C2687 C 0.21688 0.59204 0.71695
 C2688 C 0.22112 0.60823 0.72132
 C2689 C 0.21294 0.62155 0.71344
 C2690 C 0.20056 0.61857 0.70124
 C2691 C 0.19634 0.60235 0.69684
 C2692 C 0.20451 0.58904 0.70473
 C2693 C 0.20004 0.57292 0.70014
 C2694 C 0.18788 0.57005 0.68811
 C2695 C 0.17992 0.58307 0.68039
 C2696 C 0.18404 0.59906 0.68465
 C2697 C 0.21739 0.63765 0.71804
 C2698 C 0.22957 0.64050 0.73006
 C2699 C 0.23756 0.62748 0.73775
 C2700 C 0.23344 0.61149 0.73348
 C2701 C 0.19219 0.63222 0.69328
 C2702 C 0.18542 0.64377 0.68687
 C2703 C 0.22513 0.57837 0.72496
 C2704 C 0.23134 0.56636 0.73101
 H2705 H 0.20587 0.56237 0.70578
 H2706 H 0.18464 0.55765 0.68476
 H2707 H 0.17048 0.58077 0.67105
 H2708 H 0.17750 0.60879 0.67831
 H2709 H 0.21154 0.64819 0.71241
 H2710 H 0.23282 0.65290 0.73342
 H2711 H 0.24702 0.62976 0.74708
 H2712 H 0.23999 0.60175 0.73979
 C2713 C 0.21760 0.09295 0.22020
 C2714 C 0.22697 0.10704 0.21631
 C2715 C 0.21923 0.12056 0.20836
 C2716 C 0.20218 0.11987 0.20426
 C2717 C 0.19278 0.10580 0.20824
 C2718 C 0.20047 0.09237 0.21639
 C2719 C 0.19077 0.07851 0.22043
 C2720 C 0.17401 0.07788 0.21636
 C2721 C 0.16654 0.09092 0.20818
 C2722 C 0.17575 0.10477 0.20418
 C2723 C 0.22887 0.13452 0.20458
 C2724 C 0.24566 0.13508 0.20854
 C2725 C 0.25323 0.12184 0.21629
 C2726 C 0.24404 0.10794 0.22016
 C2727 C 0.19432 0.13365 0.19603
 C2728 C 0.18788 0.14519 0.18928
 C2729 C 0.22563 0.07868 0.22726
 C2730 C 0.23164 0.06623 0.23251
 H2731 H 0.19601 0.06801 0.22673
 H2732 H 0.16679 0.06721 0.21954
 H2733 H 0.15354 0.09032 0.20497
 H2734 H 0.16938 0.11463 0.19786
 H2735 H 0.22355 0.14512 0.19854
 H2736 H 0.25285 0.14585 0.20556
 H2737 H 0.26627 0.12234 0.21933
 H2738 H 0.25045 0.09796 0.22623
 C2739 C 0.71863 1.09373 0.72283
 C2740 C 0.70228 1.09327 0.71640
 C2741 C 0.69529 1.10748 0.70903
 C2742 C 0.70457 1.12214 0.70842
 C2743 C 0.72080 1.12266 0.71514
 C2744 C 0.72786 1.10839 0.72233
 C2745 C 0.74413 1.10916 0.72885
 C2746 C 0.75318 1.12363 0.72830
 C2747 C 0.74628 1.13760 0.72129
 C2748 C 0.73028 1.13719 0.71477
 C2749 C 0.67909 1.10662 0.70230
 C2750 C 0.67000 1.09217 0.70296
 C2751 C 0.67676 1.07834 0.71036
 C2752 C 0.69270 1.07879 0.71701
 C2753 C 0.69746 1.13664 0.70084
 C2754 C 0.69157 1.14867 0.69451
 C2755 C 0.72605 1.07888 0.72929
 C2756 C 0.73160 1.06606 0.73408
 H2757 H 0.75000 1.09861 0.73446
 H2758 H 0.76561 1.12402 0.73336
 H2759 H 0.75336 1.14882 0.72090
 H2760 H 0.72545 1.14837 0.70943
 H2761 H 0.67328 1.11708 0.69646
 H2762 H 0.65763 1.09172 0.69776
 H2763 H 0.66961 1.06720 0.71097
 H2764 H 0.69741 1.06768 0.72257
 C2765 C 0.71873 0.59389 0.21948
 C2766 C 0.71405 0.60699 0.22999
 C2767 C 0.70632 0.62102 0.22301
 C2768 C 0.70328 0.62184 0.20557
 C2769 C 0.70774 0.60864 0.19508
 C2770 C 0.71559 0.59466 0.20204
 C2771 C 0.72012 0.58169 0.19126
 C2772 C 0.71701 0.58253 0.17412
 C2773 C 0.70913 0.59609 0.16736
 C2774 C 0.70454 0.60904 0.17766
 C2775 C 0.70175 0.63396 0.23378
 C2776 C 0.70471 0.63306 0.25094
 C2777 C 0.71225 0.61933 0.25776
 C2778 C 0.71690 0.60640 0.24746
 C2779 C 0.69593 0.63641 0.19835
 C2780 C 0.69002 0.64858 0.19231
 C2781 C 0.72612 0.57931 0.22658
 C2782 C 0.73176 0.56671 0.23189
 H2783 H 0.72618 0.57082 0.19592
 H2784 H 0.72073 0.57260 0.16605
 H2785 H 0.70662 0.59661 0.15405
 H2786 H 0.69848 0.61935 0.17180
 H2787 H 0.69580 0.64488 0.22907
 H2788 H 0.70112 0.64307 0.25900
 H2789 H 0.71452 0.61868 0.27110
 H2790 H 0.72274 0.59598 0.25333
 C2791 C 0.53336 0.15744 0.72014
 C2792 C 0.52344 0.14405 0.71519
 C2793 C 0.53077 0.13053 0.70688
 C2794 C 0.54799 0.13050 0.70356
 C2795 C 0.55790 0.14394 0.70844
 C2796 C 0.55059 0.15740 0.71685
 C2797 C 0.56079 0.17062 0.72178
 C2798 C 0.57772 0.17051 0.71851
 C2799 C 0.58483 0.15746 0.71007
 C2800 C 0.57509 0.14428 0.70507
 C2801 C 0.52058 0.11729 0.70200
 C2802 C 0.50364 0.11742 0.70523
 C2803 C 0.49648 0.13065 0.71334
 C2804 C 0.50621 0.14385 0.71829
 C2805 C 0.55551 0.11652 0.69540
 C2806 C 0.56166 0.10478 0.68878
 C2807 C 0.52578 0.17170 0.72766
 C2808 C 0.51993 0.18408 0.73323
 H2809 H 0.55584 0.18111 0.72828
 H2810 H 0.58537 0.18062 0.72254
 H2811 H 0.59796 0.15752 0.70744
 H2812 H 0.58119 0.13439 0.69858
 H2813 H 0.52557 0.10674 0.69563
 H2814 H 0.49603 0.10720 0.70140
 H2815 H 0.48331 0.13069 0.71582
 H2816 H 0.50008 0.15385 0.72458
 C2817 C 1.03304 0.15739 0.21833
 C2818 C 1.04513 0.16026 0.20583
 C2819 C 1.05313 0.14686 0.19796
 C2820 C 1.04898 0.13069 0.20262
 C2821 C 1.03691 0.12785 0.21514
 C2822 C 1.02892 0.14125 0.22302
 C2823 C 1.01691 0.13812 0.23549
 C2824 C 1.01289 0.12219 0.24006
 C2825 C 1.02070 0.10907 0.23237
 C2826 C 1.03257 0.11180 0.22005
 C2827 C 1.06517 0.15002 0.18552
 C2828 C 1.06919 0.16596 0.18096
 C2829 C 1.06137 0.17907 0.18863
 C2830 C 1.04947 0.17632 0.20093
 C2831 C 1.05702 0.11696 0.19454
 C2832 C 1.06350 0.10536 0.18797
 C2833 C 1.02491 0.17115 0.22625
 C2834 C 1.01877 0.18322 0.23217
 H2835 H 1.01052 0.14793 0.24182
 H2836 H 1.00368 0.12001 0.24963
 H2837 H 1.01754 0.09672 0.23596
 H2838 H 1.03829 0.10119 0.21443
 H2839 H 1.07158 0.14022 0.17919
 H2840 H 1.07842 0.16816 0.17142
 H2841 H 1.06453 0.19143 0.18505
 H2842 H 1.04375 0.18693 0.20652
 C2843 C 0.21403 0.66289 0.53331
 C2844 C 0.19664 0.66094 0.53221
 C2845 C 0.18880 0.64778 0.54066
 C2846 C 0.19843 0.63644 0.54984
 C2847 C 0.21582 0.63839 0.55094
 C2848 C 0.22363 0.65169 0.54268
 C2849 C 0.24100 0.65346 0.54404
 C2850 C 0.25040 0.64239 0.55329
 C2851 C 0.24277 0.62937 0.56134
 C2852 C 0.22568 0.62733 0.56022
 C2853 C 0.17137 0.64632 0.53976
 C2854 C 0.16196 0.65746 0.53061
 C2855 C 0.16965 0.67016 0.52212
 C2856 C 0.18678 0.67198 0.52289
 C2857 C 0.19056 0.62252 0.55776
 C2858 C 0.18423 0.61076 0.56416
 C2859 C 0.22186 0.67694 0.52560
 C2860 C 0.22792 0.68909 0.51973
 H2861 H 0.24750 0.66338 0.53796
 H2862 H 0.26368 0.64393 0.55420
 H2863 H 0.25012 0.62081 0.56851
 H2864 H 0.22031 0.61704 0.56675
 H2865 H 0.16483 0.63660 0.54612
 H2866 H 0.14863 0.65618 0.53005
 H2867 H 0.16232 0.67864 0.51487
 H2868 H 0.19216 0.68213 0.51614
 C2869 C 0.21608 0.15675 1.02841
 C2870 C 0.22655 0.14400 1.03398
 C2871 C 0.21960 0.12986 1.04152
 C2872 C 0.20223 0.12859 1.04351
 C2873 C 0.19177 0.14135 1.03793
 C2874 C 0.19870 0.15541 1.03022
 C2875 C 0.18798 0.16792 1.02453
 C2876 C 0.17090 0.16662 1.02655
 C2877 C 0.16413 0.15298 1.03430
 C2878 C 0.17438 0.14043 1.03992
 C2879 C 0.23032 0.11727 1.04701
 C2880 C 0.24740 0.11863 1.04510
 C2881 C 0.25419 0.13247 1.03774
 C2882 C 0.24394 0.14505 1.03222
 C2883 C 0.19517 0.11409 1.05113
 C2884 C 0.18941 0.10195 1.05738
 C2885 C 0.22319 0.17158 1.02155
 C2886 C 0.22878 0.18426 1.01640
 H2887 H 0.19264 0.17881 1.01849
 H2888 H 0.16289 0.17624 1.02207
 H2889 H 0.15087 0.15209 1.03590
 H2890 H 0.16854 0.13003 1.04582
 H2891 H 0.22563 0.10627 1.05283
 H2892 H 0.25542 0.10889 1.04938
 H2893 H 0.26747 0.13346 1.03629
 H2894 H 0.24979 0.15556 1.02653
 C2895 C 0.21429 0.71727 0.59178
 C2896 C 0.21788 0.72205 0.60841
 C2897 C 0.21008 0.71395 0.62202
 C2898 C 0.19869 0.70114 0.61891
 C2899 C 0.19500 0.69644 0.60226
 C2900 C 0.20289 0.70447 0.58866
 C2901 C 0.19899 0.69956 0.57212
 C2902 C 0.18742 0.68728 0.56912
 C2903 C 0.17970 0.67945 0.58241
 C2904 C 0.18344 0.68389 0.59883
 C2905 C 0.21388 0.71894 0.63854
 C2906 C 0.22506 0.73158 0.64153
 C2907 C 0.23267 0.73950 0.62821
 C2908 C 0.22917 0.73484 0.61181
 C2909 C 0.19085 0.69282 0.63287
 C2910 C 0.18452 0.68609 0.64466
 C2911 C 0.22213 0.72557 0.57783
 C2912 C 0.22821 0.73202 0.56575
 H2913 H 0.20461 0.70530 0.56133
 H2914 H 0.18431 0.68395 0.55641
 H2915 H 0.17072 0.66993 0.57998
 H2916 H 0.17708 0.67747 0.60876
 H2917 H 0.20827 0.71317 0.64932
 H2918 H 0.22782 0.73524 0.65425
 H2919 H 0.24134 0.74930 0.63060
 H2920 H 0.23541 0.74135 0.60186
 C2921 C 0.21699 0.21286 1.09185
 C2922 C 0.20535 0.20011 1.08953
 C2923 C 0.19753 0.19288 1.10363
 C2924 C 0.20157 0.19828 1.11997
 C2925 C 0.21328 0.21095 1.12228
 C2926 C 0.22100 0.21828 1.10817
 C2927 C 0.23261 0.23096 1.11078
 C2928 C 0.23652 0.23626 1.12688
 C2929 C 0.22899 0.22910 1.14068
 C2930 C 0.21750 0.21658 1.13849
 C2931 C 0.18571 0.18038 1.10100
 C2932 C 0.18172 0.17517 1.08488
 C2933 C 0.18944 0.18217 1.07110
 C2934 C 0.20117 0.19445 1.07332
 C2935 C 0.19376 0.19080 1.13443
 C2936 C 0.18743 0.18472 1.14659
 C2937 C 0.22449 0.22060 1.07739
 C2938 C 0.23021 0.22678 1.06500
 H2939 H 0.23880 0.23690 1.10042
 H2940 H 0.24543 0.24598 1.12865
 H2941 H 0.23207 0.23326 1.15317
 H2942 H 0.21197 0.21141 1.14962
 H2943 H 0.17937 0.17457 1.11133
 H2944 H 0.17259 0.16566 1.08307
 H2945 H 0.18625 0.17813 1.05864
 H2946 H 0.20677 0.19955 1.06218
 C2947 C 0.71965 0.53333 0.15415
 C2948 C 0.70498 0.54271 0.15542
 C2949 C 0.69815 0.55019 0.14092
 C2950 C 0.70586 0.54800 0.12517
 C2951 C 0.72050 0.53859 0.12390
 C2952 C 0.72744 0.53126 0.13845
 C2953 C 0.74210 0.52195 0.13689
 C2954 C 0.74971 0.51993 0.12139
 C2955 C 0.74293 0.52708 0.10716
 C2956 C 0.72849 0.53631 0.10833
 C2957 C 0.68367 0.55978 0.14255
 C2958 C 0.67609 0.56185 0.15806
 C2959 C 0.68268 0.55442 0.17221
 C2960 C 0.69693 0.54494 0.17100
 C2961 C 0.69856 0.55521 0.11028
 C2962 C 0.69232 0.56112 0.09797
 C2963 C 0.72677 0.52609 0.16911
 C2964 C 0.73214 0.52056 0.18200
 H2965 H 0.74782 0.51615 0.14761
 H2966 H 0.76092 0.51277 0.12041
 H2967 H 0.74888 0.52547 0.09514
 H2968 H 0.72370 0.54165 0.09691
 H2969 H 0.67806 0.56579 0.13189
 H2970 H 0.66504 0.56925 0.15910
 H2971 H 0.67672 0.55603 0.18418
 H2972 H 0.70159 0.53949 0.18241
 C2973 C 0.72149 1.03326 0.65489
 C2974 C 0.72191 1.02466 0.63954
 C2975 C 0.71458 1.03160 0.62500
 C2976 C 0.70681 1.04707 0.62591
 C2977 C 0.70644 1.05570 0.64126
 C2978 C 0.71393 1.04884 0.65575
 C2979 C 0.71348 1.05775 0.67094
 C2980 C 0.70579 1.07294 0.67177
 C2981 C 0.69831 1.07956 0.65765
 C2982 C 0.69862 1.07111 0.64253
 C2983 C 0.71513 1.02275 0.60979
 C2984 C 0.72269 1.00748 0.60899
 C2985 C 0.72984 1.00070 0.62323
 C2986 C 0.72948 1.00913 0.63836
 C2987 C 0.69919 1.05411 0.61109
 C2988 C 0.69283 1.05999 0.59883
 C2989 C 0.72822 1.02591 0.66997
 C2990 C 0.73321 1.02025 0.68296
 H2991 H 0.71906 1.05310 0.68230
 H2992 H 0.70566 1.07962 0.68342
 H2993 H 0.69230 1.09134 0.65841
 H2994 H 0.69266 1.07679 0.63187
 H2995 H 0.70972 1.02751 0.59839
 H2996 H 0.72300 1.00088 0.59727
 H2997 H 0.73569 0.98883 0.62254
 H2998 H 0.73523 1.00337 0.64909
 C2999 C 0.53034 0.21456 0.65667
 C3000 C 0.53455 0.19780 0.65783
 C3001 C 0.54289 0.19004 0.64435
 C3002 C 0.54666 0.19899 0.62967
 C3003 C 0.54218 0.21567 0.62842
 C3004 C 0.53403 0.22348 0.64198
 C3005 C 0.52979 0.24018 0.64050
 C3006 C 0.53348 0.24892 0.62601
 C3007 C 0.54143 0.24129 0.61273
 C3008 C 0.54576 0.22486 0.61385
 C3009 C 0.54737 0.17340 0.64597
 C3010 C 0.54360 0.16464 0.66044
 C3011 C 0.53525 0.17216 0.67352
 C3012 C 0.53075 0.18854 0.67231
 C3013 C 0.55502 0.19105 0.61581
 C3014 C 0.56186 0.18457 0.60418
 C3015 C 0.52306 0.22271 0.67100
 C3016 C 0.51762 0.22890 0.68351
 H3017 H 0.52355 0.24662 0.65048
 H3018 H 0.53014 0.26169 0.62507
 H3019 H 0.54427 0.24814 0.60150
 H3020 H 0.55194 0.21947 0.60320
 H3021 H 0.55384 0.16701 0.63611
 H3022 H 0.54713 0.15193 0.66149
 H3023 H 0.53224 0.16527 0.68466
 H3024 H 0.52433 0.19384 0.68286
 C3025 C 1.03031 0.21326 0.15638
 C3026 C 1.03081 0.19598 0.15587
 C3027 C 1.03927 0.18793 0.14266
 C3028 C 1.04697 0.19721 0.12989
 C3029 C 1.04622 0.21448 0.13025
 C3030 C 1.03788 0.22253 0.14355
 C3031 C 1.03741 0.23980 0.14371
 C3032 C 1.04494 0.24888 0.13108
 C3033 C 1.05308 0.24102 0.11807
 C3034 C 1.05375 0.22402 0.11759
 C3035 C 1.03988 0.17066 0.14260
 C3036 C 1.03221 0.16159 0.15515
 C3037 C 1.02376 0.16944 0.16795
 C3038 C 1.02307 0.18644 0.16841
 C3039 C 1.05558 0.18903 0.11633
 C3040 C 1.06269 0.18241 0.10495
 C3041 C 1.02293 0.22143 0.17065
 C3042 C 1.01743 0.22769 0.18310
 H3043 H 1.03118 0.24646 0.15356
 H3044 H 1.04445 0.26208 0.13139
 H3045 H 1.05891 0.24812 0.10828
 H3046 H 1.06025 0.21848 0.10721
 H3047 H 1.04628 0.16400 0.13288
 H3048 H 1.03284 0.14839 0.15495
 H3049 H 1.01784 0.16234 0.17769
 H3050 H 1.01644 0.19198 0.17870
 C3051 C 0.59436 0.22018 0.71917
 C3052 C 0.59324 0.21016 0.70476
 C3053 C 0.60767 0.20253 0.69832
 C3054 C 0.62317 0.20517 0.70614
 C3055 C 0.62432 0.21532 0.72044
 C3056 C 0.60986 0.22283 0.72700
 C3057 C 0.61127 0.23285 0.74135
 C3058 C 0.62656 0.23540 0.74901
 C3059 C 0.64071 0.22807 0.74260
 C3060 C 0.63967 0.21813 0.72848
 C3061 C 0.60619 0.19229 0.68412
 C3062 C 0.59090 0.18973 0.67646
 C3063 C 0.57683 0.19731 0.68267
 C3064 C 0.57789 0.20741 0.69665
 C3065 C 0.63792 0.19752 0.69939
 C3066 C 0.65007 0.19117 0.69360
 C3067 C 0.57944 0.22727 0.72615
 C3068 C 0.56656 0.23248 0.73149
 H3069 H 0.60061 0.23883 0.74676
 H3070 H 0.62744 0.24310 0.75998
 H3071 H 0.65256 0.23008 0.74860
 H3072 H 0.65102 0.21268 0.72397
 H3073 H 0.61679 0.18613 0.67880
 H3074 H 0.58997 0.18185 0.66563
 H3075 H 0.56503 0.19532 0.67666
 H3076 H 0.56655 0.21297 0.70103
 C3077 C 1.09292 0.21600 0.21883
 C3078 C 1.10545 0.22556 0.21130
 C3079 C 1.11919 0.21782 0.20356
 C3080 C 1.12027 0.20056 0.20335
 C3081 C 1.10774 0.19100 0.21094
 C3082 C 1.09409 0.19874 0.21882
 C3083 C 1.08182 0.18893 0.22650
 C3084 C 1.08296 0.17196 0.22629
 C3085 C 1.09619 0.16438 0.21839
 C3086 C 1.10849 0.17373 0.21080
 C3087 C 1.13157 0.22764 0.19608
 C3088 C 1.13039 0.24461 0.19624
 C3089 C 1.11694 0.25217 0.20380
 C3090 C 1.10458 0.24281 0.21126
 C3091 C 1.13432 0.19267 0.19548
 C3092 C 1.14607 0.18619 0.18902
 C3093 C 1.07838 0.22379 0.22583
 C3094 C 1.06578 0.22964 0.23117
 H3095 H 1.07122 0.19424 0.23270
 H3096 H 1.07343 0.16464 0.23217
 H3097 H 1.09693 0.15119 0.21813
 H3098 H 1.11857 0.16728 0.20485
 H3099 H 1.14225 0.22232 0.19003
 H3100 H 1.13996 0.25193 0.19046
 H3101 H 1.11609 0.26536 0.20389
 H3102 H 1.09437 0.24924 0.21702
 C3103 C 0.15858 0.71812 0.53653
 C3104 C 0.15746 0.71788 0.55422
 C3105 C 0.14485 0.70859 0.56216
 C3106 C 0.13329 0.69978 0.55235
 C3107 C 0.13437 0.70010 0.53466
 C3108 C 0.14698 0.70940 0.52673
 C3109 C 0.14769 0.70968 0.50903
 C3110 C 0.13638 0.70087 0.49943
 C3111 C 0.12415 0.69165 0.50718
 C3112 C 0.12308 0.69124 0.52459
 C3113 C 0.14414 0.70833 0.57986
 C3114 C 0.15546 0.71714 0.58945
 C3115 C 0.16765 0.72640 0.58169
 C3116 C 0.16874 0.72677 0.56429
 C3117 C 0.11989 0.69093 0.56039
 C3118 C 0.10849 0.68384 0.56686
 C3119 C 0.17227 0.72650 0.52850
 C3120 C 0.18418 0.73285 0.52219
 H3121 H 0.15700 0.71666 0.50243
 H3122 H 0.13714 0.70118 0.48591
 H3123 H 0.11543 0.68478 0.49968
 H3124 H 0.11335 0.68388 0.53003
 H3125 H 0.13487 0.70131 0.58647
 H3126 H 0.15479 0.71675 0.60298
 H3127 H 0.17643 0.73320 0.58920
 H3128 H 0.17852 0.73406 0.55884
 C3129 C 0.15887 0.21438 1.03587
 C3130 C 0.15783 0.21358 1.05355
 C3131 C 0.14463 0.20491 1.06124
 C3132 C 0.13244 0.19724 1.05120
 C3133 C 0.13356 0.19794 1.03352
 C3134 C 0.14677 0.20659 1.02584
 C3135 C 0.14764 0.20710 1.00815
 C3136 C 0.13583 0.19922 0.99833
 C3137 C 0.12293 0.19073 1.00583
 C3138 C 0.12173 0.19007 1.02322
 C3139 C 0.14396 0.20411 1.07893
 C3140 C 0.15591 0.21180 1.08875
 C3141 C 0.16871 0.22044 1.08124
 C3142 C 0.16976 0.22132 1.06385
 C3143 C 0.11847 0.18908 1.05899
 C3144 C 0.10662 0.18252 1.06521
 C3145 C 0.17280 0.22254 1.02804
 C3146 C 0.18481 0.22880 1.02184
 H3147 H 0.15746 0.21353 1.00173
 H3148 H 0.13671 0.19970 0.98482
 H3149 H 0.11379 0.18461 0.99815
 H3150 H 0.11149 0.18328 1.02847
 H3151 H 0.13424 0.19753 1.08534
 H3152 H 0.15525 0.21102 1.10226
 H3153 H 0.17796 0.22639 1.08893
 H3154 H 0.18002 0.22808 1.05861
 C3155 C 0.65719 0.53423 0.21836
 C3156 C 0.65795 0.55119 0.21492
 C3157 C 0.64438 0.55907 0.20696
 C3158 C 0.63002 0.55002 0.20280
 C3159 C 0.62919 0.53311 0.20645
 C3160 C 0.64284 0.52519 0.21423
 C3161 C 0.64178 0.50827 0.21765
 C3162 C 0.62763 0.49941 0.21352
 C3163 C 0.61427 0.50715 0.20593
 C3164 C 0.61497 0.52380 0.20241
 C3165 C 0.64559 0.57594 0.20327
 C3166 C 0.65973 0.58480 0.20744
 C3167 C 0.67291 0.57715 0.21541
 C3168 C 0.67211 0.56054 0.21913
 C3169 C 0.61605 0.55810 0.19491
 C3170 C 0.60432 0.56469 0.18846
 C3171 C 0.67152 0.52607 0.22543
 C3172 C 0.68402 0.52000 0.23079
 H3173 H 0.65185 0.50173 0.22358
 H3174 H 0.62702 0.48648 0.21623
 H3175 H 0.60331 0.50022 0.20274
 H3176 H 0.60428 0.52927 0.19648
 H3177 H 0.63564 0.58244 0.19711
 H3178 H 0.66045 0.59769 0.20452
 H3179 H 0.68381 0.58410 0.21872
 H3180 H 0.68272 0.55514 0.22527
 C3181 C 0.65684 1.03178 0.71669
 C3182 C 0.65747 1.03668 0.69968
 C3183 C 0.64375 1.04487 0.69235
 C3184 C 0.62937 1.04788 0.70197
 C3185 C 0.62872 1.04289 0.71895
 C3186 C 0.64251 1.03485 0.72633
 C3187 C 0.64161 1.03007 0.74333
 C3188 C 0.62746 1.03313 0.75278
 C3189 C 0.61397 1.04097 0.74557
 C3190 C 0.61452 1.04583 0.72885
 C3191 C 0.64480 1.04994 0.67544
 C3192 C 0.65893 1.04686 0.66598
 C3193 C 0.67226 1.03868 0.67309
 C3194 C 0.67165 1.03370 0.68976
 C3195 C 0.61519 1.05590 0.69438
 C3196 C 0.60332 1.06243 0.68812
 C3197 C 0.67126 1.02427 0.72435
 C3198 C 0.68377 1.01861 0.73019
 H3199 H 0.65178 1.02390 0.74948
 H3200 H 0.62698 1.02938 0.76577
 H3201 H 0.60301 1.04332 0.75296
 H3202 H 0.60372 1.05191 0.72381
 H3203 H 0.63472 1.05632 0.66934
 H3204 H 0.65952 1.05078 0.65305
 H3205 H 0.68310 1.03611 0.66564
 H3206 H 0.68239 1.02745 0.69472
 C3207 C 0.84142 0.46550 0.28355
 C3208 C 0.83880 0.45366 0.29622
 C3209 C 0.85253 0.44552 0.30359
 C3210 C 0.86881 0.44941 0.29839
 C3211 C 0.87142 0.46126 0.28573
 C3212 C 0.85768 0.46931 0.27828
 C3213 C 0.86058 0.48107 0.26562
 C3214 C 0.87661 0.48478 0.26048
 C3215 C 0.89006 0.47693 0.26778
 C3216 C 0.88756 0.46530 0.28026
 C3217 C 0.84960 0.43354 0.31601
 C3218 C 0.83355 0.42966 0.32098
 C3219 C 0.82013 0.43765 0.31382
 C3220 C 0.82264 0.44959 0.30166
 C3221 C 0.88290 0.44136 0.30610
 C3222 C 0.89477 0.43488 0.31239
 C3223 C 0.82734 0.47354 0.27585
 C3224 C 0.81522 0.47976 0.26981
 H3225 H 0.85051 0.48750 0.25959
 H3226 H 0.87861 0.49381 0.25079
 H3227 H 0.90249 0.47986 0.26374
 H3228 H 0.89842 0.45951 0.28553
 H3229 H 0.85965 0.42697 0.32192
 H3230 H 0.83150 0.42037 0.33040
 H3231 H 0.80771 0.43448 0.31760
 H3232 H 0.81177 0.45540 0.29643
 C3233 C 0.83671 0.96127 0.78954
 C3234 C 0.84455 0.94794 0.78153
 C3235 C 0.85650 0.93855 0.79035
 C3236 C 0.86061 0.94259 0.80707
 C3237 C 0.85209 0.95532 0.81537
 C3238 C 0.84012 0.96472 0.80657
 C3239 C 0.83152 0.97717 0.81522
 C3240 C 0.83452 0.98011 0.83213
 C3241 C 0.84624 0.97093 0.84073
 C3242 C 0.85503 0.95872 0.83248
 C3243 C 0.86403 0.92516 0.78217
 C3244 C 0.85983 0.92113 0.76576
 C3245 C 0.84818 0.93036 0.75712
 C3246 C 0.84058 0.94362 0.76485
 C3247 C 0.87402 0.93410 0.81547
 C3248 C 0.88556 0.92737 0.82210
 C3249 C 0.82421 0.97060 0.78066
 C3250 C 0.81315 0.97774 0.77367
 H3251 H 0.82224 0.98459 0.80909
 H3252 H 0.82770 0.98955 0.83860
 H3253 H 0.84851 0.97325 0.85387
 H3254 H 0.86394 0.95181 0.83972
 H3255 H 0.87309 0.91756 0.78842
 H3256 H 0.86563 0.91079 0.75973
 H3257 H 0.84496 0.92719 0.74437
 H3258 H 0.83153 0.95037 0.75764
 C3259 C 0.40875 0.28301 0.78591
 C3260 C 0.39692 0.29100 0.77572
 C3261 C 0.38384 0.29996 0.78323
 C3262 C 0.38256 0.30071 0.80089
 C3263 C 0.39441 0.29273 0.81109
 C3264 C 0.40749 0.28377 0.80357
 C3265 C 0.41909 0.27574 0.81402
 C3266 C 0.41787 0.27665 0.83140
 C3267 C 0.40519 0.28556 0.83874
 C3268 C 0.39354 0.29351 0.82876
 C3269 C 0.37231 0.30807 0.77277
 C3270 C 0.37363 0.30728 0.75540
 C3271 C 0.38635 0.29841 0.74806
 C3272 C 0.39789 0.29033 0.75804
 C3273 C 0.36870 0.30917 0.80851
 C3274 C 0.35693 0.31593 0.81464
 C3275 C 0.42276 0.27485 0.77826
 C3276 C 0.43489 0.26870 0.77219
 H3277 H 0.42924 0.26875 0.80890
 H3278 H 0.42691 0.27053 0.83920
 H3279 H 0.40439 0.28635 0.85224
 H3280 H 0.38390 0.30031 0.83505
 H3281 H 0.36221 0.31513 0.77789
 H3282 H 0.36471 0.31357 0.74760
 H3283 H 0.38730 0.29782 0.73456
 H3284 H 0.40758 0.28361 0.75175
 C3285 C 0.90933 0.28414 0.28557
 C3286 C 0.89732 0.29218 0.27563
 C3287 C 0.88440 0.30115 0.28342
 C3288 C 0.88345 0.30186 0.30111
 C3289 C 0.89549 0.29384 0.31105
 C3290 C 0.90841 0.28487 0.30326
 C3291 C 0.92017 0.27678 0.31346
 C3292 C 0.91924 0.27758 0.33086
 C3293 C 0.90672 0.28651 0.33847
 C3294 C 0.89494 0.29456 0.32874
 C3295 C 0.87269 0.30930 0.27321
 C3296 C 0.87369 0.30857 0.25582
 C3297 C 0.88626 0.29972 0.24821
 C3298 C 0.89797 0.29158 0.25794
 C3299 C 0.86976 0.31035 0.30902
 C3300 C 0.85813 0.31716 0.31536
 C3301 C 0.92312 0.27588 0.27764
 C3302 C 0.93509 0.26956 0.27143
 H3303 H 0.93022 0.26978 0.30813
 H3304 H 0.92838 0.27137 0.33847
 H3305 H 0.90616 0.28723 0.35199
 H3306 H 0.88544 0.30136 0.33524
 H3307 H 0.86269 0.31637 0.27854
 H3308 H 0.86464 0.31490 0.24820
 H3309 H 0.88697 0.29918 0.23469
 H3310 H 0.90754 0.28487 0.25145
 C3311 C 0.34011 0.78712 0.46602
 C3312 C 0.34129 0.80432 0.46755
 C3313 C 0.35356 0.81299 0.45843
 C3314 C 0.36478 0.80439 0.44809
 C3315 C 0.36369 0.78719 0.44669
 C3316 C 0.35129 0.77853 0.45566
 C3317 C 0.35035 0.76136 0.45396
 C3318 C 0.36137 0.75297 0.44369
 C3319 C 0.37351 0.76142 0.43493
 C3320 C 0.37472 0.77833 0.43637
 C3321 C 0.35420 0.83021 0.45978
 C3322 C 0.34309 0.83862 0.46994
 C3323 C 0.33123 0.83013 0.47903
 C3324 C 0.33029 0.81318 0.47791
 C3325 C 0.37765 0.81318 0.43918
 C3326 C 0.38854 0.82038 0.43198
 C3327 C 0.32659 0.77853 0.47411
 C3328 C 0.31461 0.77216 0.48025
 H3329 H 0.34114 0.75426 0.46056
 H3330 H 0.36048 0.73983 0.44253
 H3331 H 0.38203 0.75484 0.42697
 H3332 H 0.38434 0.78436 0.42927
 H3333 H 0.36320 0.83736 0.45294
 H3334 H 0.34367 0.85180 0.47073
 H3335 H 0.32260 0.83672 0.48686
 H3336 H 0.32077 0.80714 0.48514
 C3337 C 0.34177 0.28110 0.96552
 C3338 C 0.34053 0.28664 0.94875
 C3339 C 0.35374 0.29563 0.94150
 C3340 C 0.36822 0.29880 0.95095
 C3341 C 0.36953 0.29311 0.96765
 C3342 C 0.35625 0.28425 0.97496
 C3343 C 0.35777 0.27879 0.99170
 C3344 C 0.37203 0.28198 1.00097
 C3345 C 0.38503 0.29064 0.99383
 C3346 C 0.38386 0.29617 0.97737
 C3347 C 0.35207 0.30135 0.92485
 C3348 C 0.33783 0.29811 0.91556
 C3349 C 0.32502 0.28912 0.92258
 C3350 C 0.32622 0.28351 0.93901
 C3351 C 0.38189 0.30762 0.94341
 C3352 C 0.39335 0.31474 0.93710
 C3353 C 0.32766 0.27323 0.97330
 C3354 C 0.31528 0.26745 0.97924
 H3355 H 0.34799 0.27198 0.99778
 H3356 H 0.37300 0.27771 1.01376
 H3357 H 0.39608 0.29309 1.00108
 H3358 H 0.39428 0.30288 0.97238
 H3359 H 0.36173 0.30836 0.91883
 H3360 H 0.33676 0.30252 0.90282
 H3361 H 0.31412 0.28640 0.91525
 H3362 H 0.31588 0.27662 0.94390
 C3363 C 0.78323 0.46417 0.34115
 C3364 C 0.79129 0.47358 0.35357
 C3365 C 0.79927 0.46570 0.36723
 C3366 C 0.79921 0.44844 0.36834
 C3367 C 0.79126 0.43902 0.35583
 C3368 C 0.78309 0.44692 0.34229
 C3369 C 0.77497 0.43725 0.33010
 C3370 C 0.77511 0.42027 0.33115
 C3371 C 0.78334 0.41254 0.34422
 C3372 C 0.79130 0.42175 0.35649
 C3373 C 0.80725 0.47538 0.37951
 C3374 C 0.80735 0.49235 0.37831
 C3375 C 0.79956 0.50005 0.36494
 C3376 C 0.79160 0.49084 0.35268
 C3377 C 0.80707 0.44044 0.38250
 C3378 C 0.81353 0.43407 0.39445
 C3379 C 0.77579 0.47215 0.32677
 C3380 C 0.77008 0.47839 0.31438
 H3381 H 0.76847 0.44268 0.31963
 H3382 H 0.76878 0.41308 0.32179
 H3383 H 0.78348 0.39934 0.34489
 H3384 H 0.79749 0.41519 0.36646
 H3385 H 0.81351 0.46996 0.39012
 H3386 H 0.81352 0.49956 0.38780
 H3387 H 0.79967 0.51324 0.36407
 H3388 H 0.78568 0.49738 0.34254
 C3389 C 0.78476 0.96040 0.83961
 C3390 C 0.78056 0.96333 0.85652
 C3391 C 0.78923 0.95511 0.86952
 C3392 C 0.80205 0.94399 0.86551
 C3393 C 0.80615 0.94092 0.84859
 C3394 C 0.79750 0.94917 0.83559
 C3395 C 0.80183 0.94590 0.81875
 C3396 C 0.81421 0.93469 0.81489
 C3397 C 0.82266 0.92663 0.82760
 C3398 C 0.81876 0.92970 0.84429
 C3399 C 0.78480 0.95827 0.88635
 C3400 C 0.77217 0.96921 0.89021
 C3401 C 0.76371 0.97724 0.87749
 C3402 C 0.76781 0.97439 0.86081
 C3403 C 0.81099 0.93581 0.87887
 C3404 C 0.81817 0.92927 0.89029
 C3405 C 0.77613 0.96897 0.82631
 C3406 C 0.76953 0.97581 0.81474
 H3407 H 0.79563 0.95185 0.80840
 H3408 H 0.81724 0.93221 0.80195
 H3409 H 0.83228 0.91796 0.82451
 H3410 H 0.82567 0.92314 0.85375
 H3411 H 0.79101 0.95232 0.89670
 H3412 H 0.76894 0.97145 0.90315
 H3413 H 0.75390 0.98573 0.88055
 H3414 H 0.76087 0.98093 0.85135
 C3415 C 0.28095 0.78898 0.40802
 C3416 C 0.28987 0.77984 0.39603
 C3417 C 0.29902 0.78801 0.38337
 C3418 C 0.29923 0.80530 0.38281
 C3419 C 0.29029 0.81445 0.39479
 C3420 C 0.28099 0.80627 0.40734
 C3421 C 0.27203 0.81568 0.41910
 C3422 C 0.27242 0.83268 0.41861
 C3423 C 0.28167 0.84068 0.40646
 C3424 C 0.29049 0.83173 0.39463
 C3425 C 0.30789 0.77860 0.37155
 C3426 C 0.30773 0.76160 0.37224
 C3427 C 0.29879 0.75361 0.38463
 C3428 C 0.28994 0.76256 0.39643
 C3429 C 0.30840 0.81360 0.36972
 C3430 C 0.31586 0.82031 0.35862
 C3431 C 0.27280 0.78073 0.42181
 C3432 C 0.26678 0.77442 0.43399
 H3433 H 0.26473 0.81002 0.42886
 H3434 H 0.26562 0.83968 0.42780
 H3435 H 0.28206 0.85388 0.40623
 H3436 H 0.29752 0.83850 0.38543
 H3437 H 0.31507 0.78425 0.36170
 H3438 H 0.31459 0.75459 0.36310
 H3439 H 0.29869 0.74040 0.38510
 H3440 H 0.28312 0.75581 0.40580
 C3441 C 0.27910 0.28665 0.90674
 C3442 C 0.28250 0.27784 0.89191
 C3443 C 0.29120 0.28550 0.87859
 C3444 C 0.29649 0.30191 0.88021
 C3445 C 0.29302 0.31075 0.89501
 C3446 C 0.28418 0.30314 0.90826
 C3447 C 0.28080 0.31226 0.92291
 C3448 C 0.28601 0.32840 0.92443
 C3449 C 0.29484 0.33577 0.91157
 C3450 C 0.29833 0.32711 0.89699
 C3451 C 0.29451 0.27641 0.86391
 C3452 C 0.28938 0.26023 0.86244
 C3453 C 0.28088 0.25275 0.87547
 C3454 C 0.27745 0.26139 0.89007
 C3455 C 0.30537 0.30972 0.86659
 C3456 C 0.31262 0.31615 0.85517
 C3457 C 0.27145 0.27852 0.92090
 C3458 C 0.26586 0.27221 0.93330
 H3459 H 0.27402 0.30706 0.93331
 H3460 H 0.28313 0.33524 0.93560
 H3461 H 0.29894 0.34829 0.91288
 H3462 H 0.30520 0.33338 0.88731
 H3463 H 0.30110 0.28169 0.85344
 H3464 H 0.29201 0.25346 0.85112
 H3465 H 0.27691 0.24018 0.87426
 H3466 H 0.27077 0.25508 0.89986
 C3467 C 0.46621 0.28740 0.84122
 C3468 C 0.47076 0.28335 0.85782
 C3469 C 0.46283 0.29118 0.87150
 C3470 C 0.45037 0.30298 0.86849
 C3471 C 0.44585 0.30707 0.85188
 C3472 C 0.45384 0.29931 0.83820
 C3473 C 0.44908 0.30358 0.82169
 C3474 C 0.43661 0.31498 0.81881
 C3475 C 0.42881 0.32259 0.83218
 C3476 C 0.43335 0.31876 0.84856
 C3477 C 0.46759 0.28690 0.88800
 C3478 C 0.47982 0.27524 0.89088
 C3479 C 0.48756 0.26759 0.87749
 C3480 C 0.48313 0.27155 0.86112
 C3481 C 0.44214 0.31076 0.88251
 C3482 C 0.43543 0.31697 0.89437
 C3483 C 0.47402 0.27921 0.82722
 C3484 C 0.48004 0.27273 0.81515
 H3485 H 0.45474 0.29799 0.81085
 H3486 H 0.43285 0.31779 0.80615
 H3487 H 0.41913 0.33143 0.82984
 H3488 H 0.42690 0.32496 0.85856
 H3489 H 0.46194 0.29251 0.89883
 H3490 H 0.48330 0.27212 0.90358
 H3491 H 0.49705 0.25853 0.87980
 H3492 H 0.48951 0.26528 0.85111
 C3493 C 0.96684 0.28631 0.34126
 C3494 C 0.97096 0.28126 0.35769
 C3495 C 0.96328 0.28884 0.37165
 C3496 C 0.95149 0.30139 0.36910
 C3497 C 0.94735 0.30644 0.35266
 C3498 C 0.95513 0.29894 0.33870
 C3499 C 0.95080 0.30420 0.32237
 C3500 C 0.93896 0.31633 0.31993
 C3501 C 0.93133 0.32363 0.33357
 C3502 C 0.93546 0.31882 0.34979
 C3503 C 0.96761 0.28357 0.38797
 C3504 C 0.97918 0.27118 0.39040
 C3505 C 0.98668 0.26377 0.37673
 C3506 C 0.98266 0.26871 0.36053
 C3507 C 0.94364 0.30905 0.38342
 C3508 C 0.93728 0.31521 0.39549
 C3509 C 0.97437 0.27835 0.32697
 C3510 C 0.98016 0.27202 0.31470
 H3511 H 0.95634 0.29887 0.31133
 H3512 H 0.93559 0.32000 0.30738
 H3513 H 0.92212 0.33303 0.33158
 H3514 H 0.92917 0.32483 0.36002
 H3515 H 0.96211 0.28895 0.39901
 H3516 H 0.98234 0.26730 0.40297
 H3517 H 0.99566 0.25415 0.37869
 H3518 H 0.98884 0.26259 0.35029
 C3519 C 0.46285 0.33934 0.78272
 C3520 C 0.44538 0.34067 0.78203
 C3521 C 0.43723 0.35325 0.79108
 C3522 C 0.44662 0.36466 0.80042
 C3523 C 0.46409 0.36337 0.80103
 C3524 C 0.47222 0.35065 0.79218
 C3525 C 0.48968 0.34954 0.79307
 C3526 C 0.49885 0.36070 0.80243
 C3527 C 0.49091 0.37315 0.81106
 C3528 C 0.47374 0.37453 0.81041
 C3529 C 0.41974 0.35404 0.79061
 C3530 C 0.41056 0.34283 0.78132
 C3531 C 0.41855 0.33071 0.77225
 C3532 C 0.43575 0.32955 0.77259
 C3533 C 0.43839 0.37796 0.80906
 C3534 C 0.43178 0.38925 0.81604
 C3535 C 0.47102 0.32569 0.77463
 C3536 C 0.47743 0.31381 0.76858
 H3537 H 0.49642 0.34009 0.78653
 H3538 H 0.51220 0.35967 0.80296
 H3539 H 0.49810 0.38178 0.81831
 H3540 H 0.46813 0.38440 0.81738
 H3541 H 0.41298 0.36329 0.79742
 H3542 H 0.39719 0.34359 0.78110
 H3543 H 0.41139 0.32218 0.76490
 H3544 H 0.44138 0.31984 0.76540
 C3545 C 0.96565 0.34043 0.28062
 C3546 C 0.94818 0.34181 0.28095
 C3547 C 0.94063 0.35515 0.28936
 C3548 C 0.95061 0.36721 0.29708
 C3549 C 0.96808 0.36589 0.29663
 C3550 C 0.97561 0.35244 0.28841
 C3551 C 0.99309 0.35131 0.28823
 C3552 C 1.00285 0.36316 0.29593
 C3553 C 0.99549 0.37633 0.30396
 C3554 C 0.97831 0.37775 0.30434
 C3555 C 0.92314 0.35605 0.28989
 C3556 C 0.91339 0.34421 0.28216
 C3557 C 0.92078 0.33132 0.27370
 C3558 C 0.93795 0.33003 0.27310
 C3559 C 0.94294 0.38114 0.30518
 C3560 C 0.93673 0.39287 0.31177
 C3561 C 0.97327 0.32618 0.27310
 C3562 C 0.97919 0.31386 0.26745
 H3563 H 0.99939 0.34131 0.28210
 H3564 H 1.01620 0.36212 0.29567
 H3565 H 1.00313 0.38550 0.30993
 H3566 H 0.97316 0.38819 0.31077
 H3567 H 0.91684 0.36588 0.29628
 H3568 H 0.90003 0.34507 0.28267
 H3569 H 0.91316 0.32229 0.26754
 H3570 H 0.94310 0.31973 0.26643
 C3571 C 0.28700 0.84088 0.46491
 C3572 C 0.29843 0.83568 0.45255
 C3573 C 0.30768 0.84742 0.44337
 C3574 C 0.30542 0.86427 0.44657
 C3575 C 0.29403 0.86943 0.45896
 C3576 C 0.28481 0.85769 0.46815
 C3577 C 0.27352 0.86313 0.48046
 C3578 C 0.27139 0.87972 0.48361
 C3579 C 0.28040 0.89122 0.47463
 C3580 C 0.29160 0.88621 0.46243
 C3581 C 0.31904 0.84195 0.43113
 C3582 C 0.32121 0.82535 0.42802
 C3583 C 0.31216 0.81387 0.43697
 C3584 C 0.30089 0.81890 0.44910
 C3585 C 0.31467 0.87634 0.43710
 C3586 C 0.32210 0.88670 0.42945
 C3587 C 0.27759 0.82879 0.47416
 C3588 C 0.27041 0.81782 0.48112
 H3589 H 0.26623 0.85463 0.48776
 H3590 H 0.26270 0.88368 0.49308
 H3591 H 0.27870 0.90410 0.47713
 H3592 H 0.29832 0.89562 0.45579
 H3593 H 0.32635 0.85043 0.42384
 H3594 H 0.32995 0.82138 0.41862
 H3595 H 0.31389 0.80099 0.43451
 H3596 H 0.29418 0.80947 0.45571
 C3597 C 0.28404 0.34161 0.97089
 C3598 C 0.27487 0.35576 0.96676
 C3599 C 0.28264 0.36882 0.95808
 C3600 C 0.29954 0.36764 0.95354
 C3601 C 0.30873 0.35350 0.95772
 C3602 C 0.30100 0.34050 0.96655
 C3603 C 0.31049 0.32654 0.97070
 C3604 C 0.32712 0.32546 0.96626
 C3605 C 0.33461 0.33805 0.95742
 C3606 C 0.32559 0.35196 0.95318
 C3607 C 0.27319 0.38282 0.95402
 C3608 C 0.25653 0.38387 0.95840
 C3609 C 0.24894 0.37109 0.96688
 C3610 C 0.25795 0.35715 0.97104
 C3611 C 0.30749 0.38102 0.94474
 C3612 C 0.31409 0.39223 0.93759
 C3613 C 0.27586 0.32766 0.97844
 C3614 C 0.26965 0.31540 0.98393
 H3615 H 0.30523 0.31637 0.97752
 H3616 H 0.33424 0.31483 0.96976
 H3617 H 0.34751 0.33708 0.95390
 H3618 H 0.33198 0.36146 0.94634
 H3619 H 0.27853 0.39307 0.94740
 H3620 H 0.24948 0.39467 0.95519
 H3621 H 0.23601 0.37196 0.97026
 H3622 H 0.25152 0.34753 0.97768
 C3623 C 0.78642 0.41046 0.28121
 C3624 C 0.77684 0.39869 0.28980
 C3625 C 0.78479 0.38584 0.29866
 C3626 C 0.80228 0.38471 0.29867
 C3627 C 0.81187 0.39646 0.29002
 C3628 C 0.80391 0.40932 0.28118
 C3629 C 0.81375 0.42083 0.27247
 C3630 C 0.83096 0.41971 0.27258
 C3631 C 0.83874 0.40725 0.28139
 C3632 C 0.82937 0.39571 0.29002
 C3633 C 0.77494 0.37438 0.30742
 C3634 C 0.75774 0.37555 0.30738
 C3635 C 0.74996 0.38806 0.29862
 C3636 C 0.75934 0.39952 0.28990
 C3637 C 0.81031 0.37118 0.30715
 C3638 C 0.81668 0.35966 0.31401
 C3639 C 0.77837 0.42429 0.27328
 C3640 C 0.77207 0.43628 0.26732
 H3641 H 0.80828 0.43082 0.26553
 H3642 H 0.83830 0.42867 0.26593
 H3643 H 0.85212 0.40654 0.28158
 H3644 H 0.83598 0.38624 0.29670
 H3645 H 0.78041 0.36443 0.31442
 H3646 H 0.75040 0.36670 0.31417
 H3647 H 0.73660 0.38890 0.29861
 H3648 H 0.75273 0.40903 0.28328
   
