data_POSCAR
  _audit_creation_date              2014-09-24
  _audit_creation_method            'ToBaCCo'
  _symmetry_space_group_name_H-M    'P1'
  _symmetry_Int_Tables_number       1
  _symmetry_cell_setting            triclinic
  loop_
  _symmetry_equiv_pos_as_xyz
 x,y,z
_cell_length_a 42.2945
_cell_length_b 42.3509
_cell_length_c 47.1418
_cell_angle_alpha 90.212900
_cell_angle_beta 89.904800
_cell_angle_gamma 90.025400
loop_
  _atom_site_label
  _atom_site_type_symbol
  _atom_site_fract_x
  _atom_site_fract_y
  _atom_site_fract_z
C1 C 0.41571 -0.04478 0.25188
 C2 C 0.42963 -0.01696 0.24146
 C3 C 0.44645 -0.01744 0.21593
 C4 C 0.44999 -0.04550 0.20051
 C5 C 0.43623 -0.07341 0.21118
 C6 C 0.41852 -0.07343 0.23678
 C7 C 0.42908 0.01239 0.25822
 C8 C 0.44501 0.01310 0.28415
 C9 C 0.44713 0.04106 0.30011
 C10 C 0.43275 0.06865 0.28922
 C11 C 0.41654 0.06838 0.26297
 C12 C 0.41502 0.03995 0.24756
 H13 H 0.40282 -0.04389 0.27175
 H14 H 0.45699 0.00426 0.20828
 H15 H 0.45591 -0.00847 0.29166
 H16 H 0.40303 0.03915 0.22728
 H17 H 0.43872 -0.09499 0.19900
 H18 H 0.43377 0.09038 0.30137
 C19 C 0.08541 -0.04235 0.74739
 C20 C 0.07161 -0.01471 0.75843
 C21 C 0.05531 -0.01553 0.78420
 C22 C 0.05235 -0.04374 0.79934
 C23 C 0.06630 -0.07141 0.78819
 C24 C 0.08311 -0.07098 0.76222
 C25 C 0.07165 0.01473 0.74205
 C26 C 0.05537 0.01545 0.71632
 C27 C 0.05301 0.04342 0.70062
 C28 C 0.06744 0.07105 0.71159
 C29 C 0.08392 0.07075 0.73772
 C30 C 0.08573 0.04229 0.75283
 H31 H 0.09779 -0.04143 0.72727
 H32 H 0.04471 0.00601 0.79226
 H33 H 0.04448 -0.00616 0.70874
 H34 H 0.09799 0.04145 0.77298
 H35 H 0.06454 -0.09320 0.80003
 H36 H 0.06624 0.09280 0.69963
 C37 C 0.58541 0.45791 0.24808
 C38 C 0.57132 0.48537 0.25915
 C39 C 0.55455 0.48421 0.28465
 C40 C 0.55139 0.45584 0.29951
 C41 C 0.56569 0.42835 0.28836
 C42 C 0.58298 0.42911 0.26265
 C43 C 0.57126 0.51494 0.24298
 C44 C 0.55461 0.51591 0.21745
 C45 C 0.55149 0.54415 0.20244
 C46 C 0.56569 0.57176 0.21347
 C47 C 0.58286 0.57120 0.23921
 C48 C 0.58525 0.54250 0.25394
 H49 H 0.59811 0.45908 0.22813
 H50 H 0.54369 0.50563 0.29271
 H51 H 0.54384 0.49441 0.20949
 H52 H 0.59788 0.54147 0.27389
 H53 H 0.56379 0.40644 0.30001
 H54 H 0.56384 0.59359 0.20170
 C55 C 0.91613 0.45776 0.75270
 C56 C 0.92983 0.48537 0.74165
 C57 C 0.94578 0.48445 0.71570
 C58 C 0.94852 0.45619 0.70040
 C59 C 0.93465 0.42855 0.71158
 C60 C 0.91819 0.42906 0.73774
 C61 C 0.93015 0.51489 0.75820
 C62 C 0.94645 0.51549 0.78393
 C63 C 0.94916 0.54348 0.79976
 C64 C 0.93506 0.57123 0.78894
 C65 C 0.91852 0.57108 0.76286
 C66 C 0.91637 0.54261 0.74758
 H67 H 0.90403 0.45873 0.77297
 H68 H 0.95634 0.50595 0.70763
 H69 H 0.95711 0.49379 0.79142
 H70 H 0.90404 0.54188 0.72745
 H71 H 0.93624 0.40672 0.69963
 H72 H 0.93654 0.59297 0.80103
 C73 C 0.26090 0.33763 1.03679
 C74 C 0.26204 0.35705 1.01265
 C75 C 0.28886 0.37605 1.00795
 C76 C 0.31447 0.37599 1.02714
 C77 C 0.31328 0.35547 1.05066
 C78 C 0.28661 0.33613 1.05593
 C79 C 0.23554 0.35662 0.99179
 C80 C 0.20838 0.37539 0.99593
 C81 C 0.18345 0.37526 0.97594
 C82 C 0.18580 0.35504 0.95214
 C83 C 0.21269 0.33594 0.94773
 C84 C 0.23756 0.33728 0.96756
 H85 H 0.24013 0.32311 1.04012
 H86 H 0.28946 0.39123 0.98952
 H87 H 0.20709 0.39059 1.01443
 H88 H 0.25850 0.32295 0.96434
 H89 H 0.33304 0.35515 1.06523
 H90 H 0.16691 0.35460 0.93665
 C91 C 0.73863 0.16152 1.03548
 C92 C 0.73722 0.14255 1.01096
 C93 C 0.71009 0.12410 1.00589
 C94 C 0.68445 0.12427 1.02513
 C95 C 0.68590 0.14442 1.04900
 C96 C 0.71289 0.16318 1.05463
 C97 C 0.76407 0.14252 0.99042
 C98 C 0.79096 0.12362 0.99510
 C99 C 0.81642 0.12343 0.97562
 C100 C 0.81493 0.14349 0.95180
 C101 C 0.78833 0.16275 0.94686
 C102 C 0.76286 0.16172 0.96617
 H103 H 0.75969 0.17554 1.03915
 H104 H 0.70933 0.10912 0.98722
 H105 H 0.79164 0.10858 1.01362
 H106 H 0.74213 0.17619 0.96259
 H107 H 0.66611 0.14484 1.06361
 H108 H 0.83427 0.14367 0.93671
 C109 C 0.23800 0.66222 0.53297
 C110 C 0.23630 0.64292 0.50872
 C111 C 0.20913 0.62426 0.50426
 C112 C 0.18388 0.62443 0.52400
 C113 C 0.18592 0.64461 0.54784
 C114 C 0.21281 0.66362 0.55252
 C115 C 0.26304 0.64257 0.48806
 C116 C 0.29004 0.62393 0.49302
 C117 C 0.31566 0.62378 0.47372
 C118 C 0.31419 0.64364 0.44975
 C119 C 0.28749 0.66273 0.44455
 C120 C 0.26188 0.66163 0.46373
 H121 H 0.25893 0.67650 0.53639
 H122 H 0.20806 0.60911 0.48571
 H123 H 0.29072 0.60910 0.51169
 H124 H 0.24113 0.67602 0.46002
 H125 H 0.16677 0.64509 0.56313
 H126 H 0.33366 0.64387 0.43479
 C127 C 0.76233 0.83923 0.53576
 C128 C 0.76339 0.85881 0.51180
 C129 C 0.79007 0.87810 0.50732
 C130 C 0.81548 0.87863 0.52690
 C131 C 0.81393 0.85824 0.55060
 C132 C 0.78765 0.83836 0.55513
 C133 C 0.73676 0.85847 0.49111
 C134 C 0.70973 0.87737 0.49544
 C135 C 0.68447 0.87707 0.47581
 C136 C 0.68638 0.85660 0.45215
 C137 C 0.71315 0.83740 0.44756
 C138 C 0.73834 0.83884 0.46705
 H139 H 0.74185 0.82430 0.53907
 H140 H 0.79051 0.89315 0.48878
 H141 H 0.70876 0.89272 0.51385
 H142 H 0.75916 0.82439 0.46372
 H143 H 0.83302 0.85800 0.56589
 H144 H 0.66723 0.85604 0.43692
 C145 C -0.04494 0.24833 0.32223
 C146 C -0.01457 0.23967 0.33104
 C147 C -0.01079 0.21546 0.35081
 C148 C -0.03715 0.20155 0.36372
 C149 C -0.06731 0.21015 0.35468
 C150 C -0.07159 0.23351 0.33404
 C151 C 0.01180 0.26180 0.32811
 C152 C 0.00872 0.29044 0.34267
 C153 C 0.03551 0.30668 0.35202
 C154 C 0.06530 0.29625 0.34383
 C155 C 0.06875 0.26825 0.32830
 C156 C 0.04190 0.25096 0.32033
 H157 H -0.04759 0.26793 0.30771
 H158 H 0.01281 0.21015 0.35838
 H159 H -0.01444 0.29746 0.35029
 H160 H 0.04442 0.22803 0.31029
 H161 H -0.08766 0.19889 0.36428
 H162 H 0.08594 0.30928 0.35082
 C163 C -0.04427 0.74985 0.17956
 C164 C -0.01367 0.75838 0.17103
 C165 C -0.00938 0.78380 0.15259
 C166 C -0.03542 0.79920 0.14094
 C167 C -0.06570 0.79093 0.14961
 C168 C -0.07058 0.76610 0.16872
 C169 C 0.01223 0.73555 0.17247
 C170 C 0.00852 0.70810 0.15628
 C171 C 0.03497 0.69241 0.14517
 C172 C 0.06504 0.70177 0.15391
 C173 C 0.06908 0.72851 0.17104
 C174 C 0.04257 0.74544 0.18040
 H175 H -0.04740 0.72926 0.19286
 H176 H 0.01415 0.78902 0.14472
 H177 H -0.01500 0.70190 0.14903
 H178 H 0.04550 0.76759 0.19168
 H179 H -0.08557 0.80353 0.14066
 H180 H 0.08557 0.68913 0.14612
 C181 C 0.45770 0.25353 0.68075
 C182 C 0.48798 0.26383 0.67297
 C183 C 0.49146 0.29179 0.65762
 C184 C 0.46488 0.30795 0.64780
 C185 C 0.43495 0.29817 0.65617
 C186 C 0.43108 0.27067 0.67212
 C187 C 0.51415 0.24134 0.67111
 C188 C 0.51013 0.21573 0.65268
 C189 C 0.53635 0.20036 0.64106
 C190 C 0.56655 0.20893 0.64979
 C191 C 0.57096 0.23399 0.66878
 C192 C 0.54464 0.25022 0.67955
 H193 H 0.45491 0.23101 0.69129
 H194 H 0.51474 0.29829 0.64994
 H195 H 0.48665 0.21028 0.64486
 H196 H 0.54777 0.27096 0.69278
 H197 H 0.41449 0.31113 0.64880
 H198 H 0.58674 0.19658 0.64099
 C199 C 0.45602 0.74684 0.82153
 C200 C 0.48627 0.73773 0.83025
 C201 C 0.48978 0.71265 0.84918
 C202 C 0.46321 0.69827 0.86137
 C203 C 0.43320 0.70704 0.85208
 C204 C 0.42938 0.73146 0.83251
 C205 C 0.51265 0.75996 0.82840
 C206 C 0.50939 0.78806 0.84376
 C207 C 0.53608 0.80420 0.85347
 C208 C 0.56593 0.79406 0.84519
 C209 C 0.56955 0.76654 0.82904
 C210 C 0.54282 0.74945 0.82048
 H211 H 0.45333 0.76723 0.80792
 H212 H 0.51327 0.70709 0.85687
 H213 H 0.48617 0.79480 0.85144
 H214 H 0.54546 0.72689 0.80981
 H215 H 0.41257 0.69550 0.86089
 H216 H 0.58650 0.80701 0.85245
 C217 C -0.29481 0.66534 0.99807
 C218 C -0.26688 0.67909 1.00859
 C219 C -0.26730 0.69587 1.03415
 C220 C -0.29539 0.69956 1.04951
 C221 C -0.32340 0.68596 1.03875
 C222 C -0.32350 0.66830 1.01309
 C223 C -0.23752 0.67862 0.99184
 C224 C -0.23686 0.69475 0.96605
 C225 C -0.20884 0.69718 0.95023
 C226 C -0.18116 0.68288 0.96105
 C227 C -0.18138 0.66644 0.98714
 C228 C -0.20985 0.66461 1.00245
 H229 H -0.29397 0.65251 0.97815
 H230 H -0.24554 0.70631 1.04186
 H231 H -0.25848 0.70563 0.95858
 H232 H -0.21060 0.65248 1.02263
 H233 H -0.34500 0.68856 1.05089
 H234 H -0.15940 0.68415 0.94898
 C235 C -0.29362 0.33453 0.50270
 C236 C -0.26594 0.32045 0.49199
 C237 C -0.26672 0.30348 0.46655
 C238 C -0.29492 0.30000 0.45143
 C239 C -0.32271 0.31395 0.46235
 C240 C -0.32243 0.33178 0.48792
 C241 C -0.23634 0.32101 0.50826
 C242 C -0.23512 0.30486 0.53401
 C243 C -0.20671 0.30219 0.54898
 C244 C -0.17922 0.31633 0.53768
 C245 C -0.18005 0.33300 0.51173
 C246 C -0.20888 0.33498 0.49708
 H247 H -0.29247 0.34753 0.52252
 H248 H -0.24510 0.29284 0.45869
 H249 H -0.25652 0.29408 0.54217
 H250 H -0.21008 0.34720 0.47695
 H251 H -0.34441 0.31153 0.45038
 H252 H -0.15727 0.31479 0.54937
 C253 C 0.20825 -0.16640 0.00142
 C254 C 0.23569 -0.18059 -0.00950
 C255 C 0.23471 -0.19693 -0.03526
 C256 C 0.20655 -0.19923 -0.05084
 C257 C 0.17903 -0.18469 -0.03970
 C258 C 0.17963 -0.16816 -0.01354
 C259 C 0.26517 -0.18082 0.00693
 C260 C 0.26586 -0.19735 0.03247
 C261 C 0.29384 -0.19985 0.04824
 C262 C 0.32153 -0.18531 0.03749
 C263 C 0.32124 -0.16854 0.01155
 C264 C 0.29276 -0.16662 -0.00363
 H265 H 0.20930 -0.15413 0.02161
 H266 H 0.25625 -0.20792 -0.04294
 H267 H 0.24420 -0.20829 0.03989
 H268 H 0.29191 -0.15413 -0.02363
 H269 H 0.15714 -0.18585 -0.05155
 H270 H 0.34328 -0.18661 0.04951
 C271 C 0.20654 1.16699 0.49750
 C272 C 0.23425 1.18084 0.50828
 C273 C 0.23352 1.19725 0.53402
 C274 C 0.20532 1.20027 0.54938
 C275 C 0.17757 1.18624 0.53848
 C276 C 0.17792 1.16931 0.51254
 C277 C 0.26372 1.18064 0.49171
 C278 C 0.26438 1.19656 0.46583
 C279 C 0.29234 1.19866 0.44988
 C280 C 0.32000 1.18435 0.46076
 C281 C 0.31977 1.16820 0.48700
 C282 C 0.29133 1.16665 0.50238
 H283 H 0.20740 1.15450 0.47741
 H284 H 0.25512 1.20788 0.54189
 H285 H 0.24274 1.20737 0.45831
 H286 H 0.29054 1.15462 0.52261
 H287 H 0.15580 1.18802 0.55049
 H288 H 0.34172 1.18535 0.44860
 C289 C 0.08741 0.51067 0.21452
 C290 C 0.10745 0.51183 0.23825
 C291 C 0.12677 0.53856 0.24247
 C292 C 0.12653 0.56391 0.22303
 C293 C 0.10574 0.56240 0.19965
 C294 C 0.08604 0.53596 0.19520
 C295 C 0.10731 0.48542 0.25906
 C296 C 0.12609 0.45834 0.25474
 C297 C 0.12579 0.43320 0.27443
 C298 C 0.10543 0.43533 0.29816
 C299 C 0.08631 0.46218 0.30270
 C300 C 0.08777 0.48720 0.28313
 H301 H 0.07251 0.49013 0.21137
 H302 H 0.14231 0.53928 0.26071
 H303 H 0.14133 0.45719 0.23627
 H304 H 0.07335 0.50805 0.28639
 H305 H 0.10523 0.58164 0.18459
 H306 H 0.10485 0.41629 0.31343
 C307 C -0.08886 0.98802 0.21477
 C308 C -0.10774 0.98673 0.23934
 C309 C -0.12638 0.95974 0.24439
 C310 C -0.12688 0.93417 0.22494
 C311 C -0.10677 0.93567 0.20096
 C312 C -0.08755 0.96235 0.19552
 C313 C -0.10777 1.01365 0.25988
 C314 C -0.12663 1.04053 0.25505
 C315 C -0.12753 1.06586 0.27481
 C316 C -0.10777 1.06411 0.29897
 C317 C -0.08833 1.03767 0.30391
 C318 C -0.08897 1.01234 0.28443
 H319 H -0.07464 1.00891 0.21116
 H320 H -0.14111 0.95926 0.26322
 H321 H -0.14124 1.04110 0.23620
 H322 H -0.07449 0.99166 0.28812
 H323 H -0.10652 0.91612 0.18608
 H324 H -0.10778 1.08316 0.31437
 C325 C 0.41214 0.48932 -0.28526
 C326 C 0.39320 0.48778 -0.26073
 C327 C 0.37486 0.46057 -0.25577
 C328 C 0.37507 0.43500 -0.27511
 C329 C 0.39523 0.43659 -0.29896
 C330 C 0.41392 0.46363 -0.30449
 C331 C 0.39299 0.51456 -0.24004
 C332 C 0.37426 0.54153 -0.24485
 C333 C 0.37326 0.56673 -0.22496
 C334 C 0.39282 0.56476 -0.20067
 C335 C 0.41217 0.53822 -0.19577
 C336 C 0.41159 0.51303 -0.21539
 H337 H 0.42607 0.51042 -0.28884
 H338 H 0.35989 0.45971 -0.23712
 H339 H 0.35983 0.54226 -0.26381
 H340 H 0.42599 0.49229 -0.21174
 H341 H 0.39571 0.41685 -0.31363
 H342 H 0.39274 0.58371 -0.18517
 C343 C 0.58822 0.01201 -0.28642
 C344 C 0.60761 0.01292 -0.26219
 C345 C 0.62693 0.03950 -0.25738
 C346 C 0.62718 0.06509 -0.27652
 C347 C 0.60670 0.06411 -0.30010
 C348 C 0.58708 0.03769 -0.30553
 C349 C 0.60699 -0.01366 -0.24148
 C350 C 0.62601 -0.04064 -0.24554
 C351 C 0.62573 -0.06567 -0.22574
 C352 C 0.60514 -0.06360 -0.20219
 C353 C 0.58582 -0.03689 -0.19783
 C354 C 0.58726 -0.01190 -0.21748
 H355 H 0.57349 -0.00859 -0.28989
 H356 H 0.64213 0.03993 -0.23891
 H357 H 0.64150 -0.04173 -0.26384
 H358 H 0.57276 0.00890 -0.21429
 H359 H 0.60662 0.08386 -0.31464
 H360 H 0.60461 -0.08257 -0.18685
 C361 C 0.00030 0.20610 0.93025
 C362 C -0.00842 0.23643 0.92150
 C363 C -0.03366 0.24022 0.90271
 C364 C -0.04881 0.21389 0.89110
 C365 C -0.04040 0.18384 0.90013
 C366 C -0.01573 0.17969 0.91948
 C367 C 0.01401 0.26262 0.92350
 C368 C 0.04218 0.25922 0.90827
 C369 C 0.05830 0.28580 0.89840
 C370 C 0.04824 0.31569 0.90662
 C371 C 0.02056 0.31945 0.92253
 C372 C 0.00349 0.29282 0.93121
 H373 H 0.02079 0.20314 0.94375
 H374 H -0.03898 0.26358 0.89469
 H375 H 0.04886 0.23596 0.90067
 H376 H -0.01919 0.29553 0.94167
 H377 H -0.05259 0.16356 0.89133
 H378 H 0.06114 0.33618 0.89920
 C379 C 0.50235 0.20672 0.06930
 C380 C 0.51157 0.23715 0.07764
 C381 C 0.53829 0.24116 0.09469
 C382 C 0.55436 0.21493 0.10526
 C383 C 0.54562 0.18484 0.09643
 C384 C 0.51937 0.18044 0.07886
 C385 C 0.48863 0.26297 0.07779
 C386 C 0.46196 0.25896 0.09494
 C387 C 0.44582 0.28517 0.10570
 C388 C 0.45452 0.31527 0.09700
 C389 C 0.48067 0.31964 0.07924
 C390 C 0.49773 0.29338 0.06950
 H391 H 0.48070 0.20356 0.05735
 H392 H 0.54391 0.26453 0.10268
 H393 H 0.45638 0.23558 0.10279
 H394 H 0.51932 0.29656 0.05742
 H395 H 0.55852 0.16466 0.10441
 H396 H 0.44160 0.33545 0.10512
 C397 C 0.00100 0.70727 0.57018
 C398 C 0.01138 0.73747 0.57811
 C399 C 0.03927 0.74084 0.59369
 C400 C 0.05531 0.71425 0.60354
 C401 C 0.04543 0.68439 0.59510
 C402 C 0.01807 0.68062 0.57883
 C403 C -0.01097 0.76376 0.57983
 C404 C -0.03620 0.76026 0.59875
 C405 C -0.05083 0.78677 0.61085
 C406 C -0.04212 0.81674 0.60145
 C407 C -0.01760 0.82056 0.58180
 C408 C -0.00196 0.79397 0.57096
 H409 H -0.02145 0.70456 0.55941
 H410 H 0.04585 0.76407 0.60142
 H411 H -0.04171 0.73681 0.60649
 H412 H 0.01853 0.79669 0.55735
 H413 H 0.05834 0.66392 0.60245
 H414 H -0.05384 0.83734 0.61017
 C415 C 0.49692 0.70600 0.42949
 C416 C 0.48797 0.73631 0.42087
 C417 C 0.46238 0.74004 0.40248
 C418 C 0.44718 0.71366 0.39099
 C419 C 0.45567 0.68365 0.40004
 C420 C 0.48074 0.67954 0.41898
 C421 C 0.51059 0.76238 0.42210
 C422 C 0.53801 0.75888 0.40581
 C423 C 0.55407 0.78540 0.39577
 C424 C 0.54461 0.81530 0.40453
 C425 C 0.51775 0.81915 0.42155
 C426 C 0.50071 0.79258 0.43047
 H427 H 0.51776 0.70309 0.44257
 H428 H 0.45698 0.76339 0.39447
 H429 H 0.54420 0.73564 0.39783
 H430 H 0.47859 0.79538 0.44184
 H431 H 0.44346 0.66333 0.39134
 H432 H 0.55750 0.83573 0.39700
 Zr433 Zr 0.01913 -0.05402 1.04107
 O434 O 0.05531 -0.04172 1.06997
 O435 O 0.00635 -0.09742 1.05696
 O436 O -0.00098 -0.04827 1.08240
 O437 O 0.06355 -0.08759 0.98677
 O438 O -0.03827 -0.00969 1.07692
 O439 O 0.05951 -0.08405 1.03500
 O440 O -0.04075 -0.10747 1.03510
 O441 O -0.03014 -0.04980 1.03773
 O442 O 0.00533 -0.07980 1.00519
 O443 O 0.00946 -0.00537 1.03905
 O444 O 0.04467 -0.03426 1.00711
 Zr445 Zr -0.02926 -0.00640 0.96292
 Zr446 Zr -0.03967 -0.00164 1.03296
 Zr447 Zr 0.02802 -0.05865 0.97114
 Zr448 Zr -0.04328 -0.07438 1.00146
 O449 O 0.07159 -0.04956 0.95074
 O450 O -0.08798 -0.07473 1.02189
 O451 O -0.02088 -0.05546 0.96530
 O452 O -0.05463 -0.02649 0.99688
 O453 O -0.01627 0.01962 0.99903
 O454 O 0.01982 -0.01048 0.96680
 C455 C -0.01917 -0.11313 1.05372
 C456 C 0.07236 -0.09480 1.01187
 C457 C -0.02311 -0.02990 1.09196
 O458 O -0.08556 -0.01236 1.04813
 O459 O -0.07319 0.03020 1.01599
 O460 O -0.06618 0.02713 0.96802
 C461 C -0.08017 0.03812 0.99036
 O462 O 0.07480 0.01450 1.02759
 Zr463 Zr 0.03246 0.01357 1.00362
 O464 O -0.01376 0.03645 0.94626
 O465 O -0.03257 0.04247 1.05315
 O466 O 0.03028 0.05392 1.03020
 O467 O 0.07406 0.02209 0.97969
 O468 O 0.02429 0.05254 0.97740
 C469 C 0.00591 0.05677 0.95615
 O470 O -0.06830 -0.01720 0.93655
 O471 O 0.02054 -0.10425 0.95389
 O472 O -0.01443 -0.01740 0.92079
 O473 O 0.02261 -0.05577 0.92734
 O474 O -0.03897 -0.11956 0.98231
 O475 O -0.07794 -0.08003 0.96925
 C476 C 0.00581 -0.03789 0.91153
 H477 H 0.01096 -0.10245 1.00616
 H478 H -0.07770 -0.02439 0.99391
 H479 H 0.03151 -0.00184 0.95035
 H480 H 0.01608 0.00533 1.05677
 H481 H -0.09528 -0.09696 1.02246
 H482 H -0.09209 0.00532 1.06067
 H483 H -0.05203 0.04693 1.06418
 H484 H 0.04794 0.06786 1.02438
 H485 H -0.05541 -0.13326 0.99084
 H486 H 0.03971 -0.10958 0.94272
 H487 H 0.08376 -0.03595 0.96388
 H488 H 0.08061 0.04423 0.98335
 H489 H -0.09226 -0.09765 0.97430
 H490 H -0.06975 -0.00017 0.92222
 H491 H 0.05707 -0.05955 1.08345
 H492 H 0.06881 0.01277 1.04781
 Zr493 Zr 0.51941 0.44759 0.54066
 O494 O 0.55614 0.46035 0.56883
 O495 O 0.50676 0.40465 0.55741
 O496 O 0.49995 0.45407 0.58215
 O497 O 0.56210 0.41241 0.48622
 O498 O 0.46276 0.49279 0.57675
 O499 O 0.55957 0.41716 0.53442
 O500 O 0.45784 0.39629 0.53848
 O501 O 0.47012 0.45229 0.53814
 O502 O 0.50446 0.42098 0.50566
 O503 O 0.50997 0.49627 0.53799
 O504 O 0.54425 0.46629 0.50586
 Zr505 Zr 0.46954 0.49371 0.46259
 Zr506 Zr 0.46070 0.50033 0.53270
 Zr507 Zr 0.52643 0.44117 0.47075
 Zr508 Zr 0.45580 0.42681 0.50281
 O509 O 0.56961 0.44894 0.44928
 O510 O 0.41084 0.42750 0.52278
 O511 O 0.47746 0.44464 0.46580
 O512 O 0.44475 0.47468 0.49741
 O513 O 0.48354 0.52049 0.49795
 O514 O 0.51864 0.48932 0.46569
 C515 C 0.48014 0.39050 0.55640
 C516 C 0.57166 0.40570 0.51121
 C517 C 0.47796 0.47258 0.59178
 O518 O 0.41502 0.49043 0.54881
 O519 O 0.42700 0.53201 0.51558
 O520 O 0.43294 0.52753 0.46757
 C521 C 0.41949 0.53923 0.48987
 O522 O 0.57525 0.51503 0.52492
 Zr523 Zr 0.53232 0.51413 0.50179
 O524 O 0.48481 0.53623 0.44505
 O525 O 0.46869 0.54474 0.55203
 O526 O 0.53116 0.55505 0.52773
 O527 O 0.57336 0.52196 0.47691
 O528 O 0.52377 0.55261 0.47514
 C529 C 0.50479 0.55663 0.45429
 O530 O 0.42999 0.48240 0.43703
 O531 O 0.51772 0.39530 0.45460
 O532 O 0.48367 0.48198 0.42043
 O533 O 0.52029 0.44323 0.42699
 O534 O 0.45971 0.38047 0.48598
 O535 O 0.42130 0.41992 0.47065
 C536 C 0.50357 0.46116 0.41117
 H537 H 0.50993 0.39831 0.50708
 H538 H 0.42164 0.47690 0.49475
 H539 H 0.53006 0.49752 0.44891
 H540 H 0.51706 0.50728 0.55541
 H541 H 0.40350 0.40533 0.52414
 H542 H 0.40892 0.50848 0.56110
 H543 H 0.44950 0.54960 0.56331
 H544 H 0.54885 0.56866 0.52137
 H545 H 0.44334 0.36746 0.49543
 H546 H 0.53657 0.38932 0.44326
 H547 H 0.58194 0.46348 0.46148
 H548 H 0.58020 0.54408 0.48020
 H549 H 0.40715 0.40228 0.47603
 H550 H 0.42831 0.49910 0.42240
 H551 H 0.55811 0.44277 0.58254
 H552 H 0.56971 0.51405 0.54529
 Zr553 Zr 0.48067 1.05444 0.54020
 O554 O 0.44443 1.04281 0.56928
 O555 O 0.49382 1.09795 0.55591
 O556 O 0.50063 1.04892 0.58153
 O557 O 0.43654 1.08768 0.48591
 O558 O 0.53760 1.00996 0.57606
 O559 O 0.44033 1.08445 0.53414
 O560 O 0.54132 1.10703 0.53434
 O561 O 0.52991 1.04984 0.53678
 O562 O 0.49469 1.07976 0.50425
 O563 O 0.49002 1.00571 0.53827
 O564 O 0.45508 1.03448 0.50631
 Zr565 Zr 0.52887 1.00556 0.46207
 Zr566 Zr 0.53913 1.00158 0.53210
 Zr567 Zr 0.47194 1.05837 0.47024
 Zr568 Zr 0.54327 1.07395 0.50043
 O569 O 0.42834 1.04943 0.44991
 O570 O 0.58817 1.07419 0.52037
 O571 O 0.52083 1.05473 0.46434
 O572 O 0.55429 1.02593 0.49593
 O573 O 0.51565 0.98005 0.49828
 O574 O 0.47981 1.01007 0.46604
 C575 C 0.51970 1.11314 0.55290
 C576 C 0.42758 1.09506 0.51102
 C577 C 0.52256 1.03042 0.59110
 O578 O 0.58497 1.01233 0.54732
 O579 O 0.57272 0.96961 0.51520
 O580 O 0.56586 0.97210 0.46722
 C581 C 0.57985 0.96143 0.48960
 O582 O 0.42455 0.98626 0.52698
 Zr583 Zr 0.46694 0.98652 0.50293
 O584 O 0.51313 0.96252 0.44570
 O585 O 0.53178 0.95763 0.55223
 O586 O 0.46876 0.94649 0.52966
 O587 O 0.42533 0.97800 0.47910
 O588 O 0.47482 0.94713 0.47687
 C589 C 0.49327 0.94247 0.45566
 O590 O 0.56782 1.01583 0.43540
 O591 O 0.47988 1.10371 0.45291
 O592 O 0.51387 1.01596 0.41996
 O593 O 0.47734 1.05494 0.42639
 O594 O 0.53911 1.11911 0.48153
 O595 O 0.57774 1.07915 0.46792
 C596 C 0.49384 1.03653 0.41064
 H597 H 0.48919 1.10246 0.50522
 H598 H 0.57735 1.02370 0.49292
 H599 H 0.46806 1.00129 0.44967
 H600 H 0.48330 0.99524 0.55602
 H601 H 0.59563 1.09637 0.52086
 H602 H 0.59140 0.99474 0.55987
 H603 H 0.55116 0.95320 0.56329
 H604 H 0.45097 0.93264 0.52395
 H605 H 0.55564 1.13274 0.49004
 H606 H 0.46076 1.10912 0.44180
 H607 H 0.41611 1.03590 0.46303
 H608 H 0.41857 0.95598 0.48289
 H609 H 0.59207 1.09687 0.47275
 H610 H 0.56916 0.99856 0.42116
 H611 H 0.44279 1.06084 0.58268
 H612 H 0.43053 0.98820 0.54718
 Zr613 Zr -0.02023 0.55289 1.03983
 O614 O -0.05678 0.54102 1.06854
 O615 O -0.00712 0.59609 1.05622
 O616 O -0.00082 0.54642 1.08128
 O617 O -0.06275 0.58809 0.98554
 O618 O 0.03533 0.50677 1.07556
 O619 O -0.06059 0.58284 1.03370
 O620 O 0.04200 0.60336 1.03725
 O621 O 0.02898 0.54756 1.03711
 O622 O -0.00507 0.57902 1.00471
 O623 O -0.01155 0.50408 1.03705
 O624 O -0.04533 0.53422 1.00507
 Zr625 Zr 0.02899 0.50530 0.96157
 Zr626 Zr 0.03762 0.49936 1.03157
 Zr627 Zr -0.02730 0.55881 0.96985
 Zr628 Zr 0.04352 0.57250 1.00163
 O629 O -0.07052 0.55128 0.94845
 O630 O 0.08854 0.57154 1.02133
 O631 O 0.02164 0.55454 0.96475
 O632 O 0.05396 0.52445 0.99625
 O633 O 0.01455 0.47906 0.99696
 O634 O -0.02008 0.51049 0.96479
 C635 C 0.01969 0.60990 1.05503
 C636 C -0.07260 0.59438 1.01063
 C637 C 0.02063 0.52732 1.09077
 O638 O 0.08326 0.50904 1.04780
 O639 O 0.07117 0.46739 1.01466
 O640 O 0.06552 0.47126 0.96664
 C641 C 0.07886 0.45984 0.98904
 O642 O -0.07709 0.48608 1.02416
 Zr643 Zr -0.03414 0.48621 1.00092
 O644 O 0.01308 0.46281 0.94417
 O645 O 0.02918 0.45502 1.05064
 O646 O -0.03366 0.44554 1.02692
 O647 O -0.07529 0.47888 0.97613
 O648 O -0.02621 0.44734 0.97431
 C649 C -0.00721 0.44279 0.95348
 O650 O 0.06856 0.51574 0.93569
 O651 O -0.01815 0.60448 0.95371
 O652 O 0.01494 0.51681 0.91948
 O653 O -0.02097 0.55635 0.92603
 O654 O 0.04005 0.61869 0.98472
 O655 O 0.07805 0.57863 0.96932
 C656 C -0.00455 0.53791 0.91023
 H657 H -0.01034 0.60175 1.00610
 H658 H 0.07704 0.52196 0.99357
 H659 H -0.03160 0.50229 0.94805
 H660 H -0.01878 0.49327 1.05447
 H661 H 0.09615 0.59363 1.02258
 H662 H 0.08916 0.49105 1.06012
 H663 H 0.04822 0.45006 1.06200
 H664 H -0.05151 0.43210 1.02058
 H665 H 0.05655 0.63165 0.99408
 H666 H -0.03694 0.61053 0.94243
 H667 H -0.08314 0.53725 0.96082
 H668 H -0.08248 0.45689 0.97940
 H669 H 0.09231 0.59628 0.97451
 H670 H 0.07000 0.49878 0.92117
 H671 H -0.05851 0.55891 1.08209
 H672 H -0.07156 0.48771 1.04448
 Zr673 Zr -0.02008 0.44807 0.45828
 O674 O -0.05656 0.46046 0.42981
 O675 O -0.00692 0.40521 0.44139
 O676 O -0.00041 0.45456 0.41691
 O677 O -0.06302 0.41252 0.51224
 O678 O 0.03631 0.49365 0.42288
 O679 O -0.06027 0.41778 0.46410
 O680 O 0.04190 0.39728 0.46057
 O681 O 0.02914 0.45311 0.46116
 O682 O -0.00529 0.42160 0.49325
 O683 O -0.01108 0.49681 0.46126
 O684 O -0.04535 0.46659 0.49303
 Zr685 Zr 0.02881 0.49488 0.53692
 Zr686 Zr 0.03807 0.50121 0.46693
 Zr687 Zr -0.02767 0.44169 0.52815
 Zr688 Zr 0.04330 0.42783 0.49649
 O689 O -0.07111 0.44910 0.54933
 O690 O 0.08849 0.42879 0.47695
 O691 O 0.02125 0.44568 0.53342
 O692 O 0.05395 0.47581 0.50219
 O693 O 0.01483 0.52139 0.50158
 O694 O -0.02024 0.48995 0.53347
 C695 C 0.01982 0.39132 0.44244
 C696 C -0.07249 0.40615 0.48709
 C697 C 0.02148 0.47330 0.40757
 O698 O 0.08388 0.49155 0.45094
 O699 O 0.07159 0.53298 0.48413
 O700 O 0.06555 0.52878 0.53212
 C701 C 0.07911 0.54031 0.50983
 O702 O -0.07655 0.51487 0.47389
 Zr703 Zr -0.03388 0.51453 0.49740
 O704 O 0.01295 0.53738 0.55444
 O705 O 0.02998 0.54559 0.44786
 O706 O -0.03277 0.55545 0.47175
 O707 O -0.07525 0.52192 0.52198
 O708 O -0.02616 0.55311 0.52435
 C709 C -0.00732 0.55746 0.54527
 O710 O 0.06814 0.48417 0.56287
 O711 O -0.01862 0.39598 0.54416
 O712 O 0.01444 0.48303 0.57893
 O713 O -0.02195 0.44403 0.57199
 O714 O 0.03946 0.38150 0.51305
 O715 O 0.07752 0.42125 0.52889
 C716 C -0.00542 0.46211 0.58799
 H717 H -0.01062 0.39890 0.49165
 H718 H 0.07702 0.47818 0.50498
 H719 H -0.03187 0.49809 0.55020
 H720 H -0.01809 0.50774 0.44385
 H721 H 0.09599 0.40667 0.47556
 H722 H 0.08992 0.50953 0.43866
 H723 H 0.04914 0.55049 0.43657
 H724 H -0.05076 0.56881 0.47792
 H725 H 0.05595 0.36856 0.50362
 H726 H -0.03753 0.38982 0.55532
 H727 H -0.08346 0.46346 0.53709
 H728 H -0.08238 0.54391 0.51866
 H729 H 0.09174 0.40361 0.52360
 H730 H 0.06953 0.50103 0.57748
 H731 H -0.05833 0.44278 0.41606
 H732 H -0.07079 0.51417 0.45356
 Zr733 Zr 0.48103 -0.05264 -0.04138
 O734 O 0.44421 -0.04032 -0.06953
 O735 O 0.49420 -0.09538 -0.05855
 O736 O 0.50029 -0.04582 -0.08289
 O737 O 0.43843 -0.08824 0.01287
 O738 O 0.53707 -0.00676 -0.07701
 O739 O 0.44098 -0.08313 -0.03530
 O740 O 0.54272 -0.10396 -0.03892
 O741 O 0.53027 -0.04760 -0.03874
 O742 O 0.49603 -0.07908 -0.00647
 O743 O 0.49003 -0.00390 -0.03836
 O744 O 0.45597 -0.03414 -0.00648
 Zr745 Zr 0.53035 -0.00592 0.03709
 Zr746 Zr 0.53922 0.00052 -0.03295
 Zr747 Zr 0.47384 -0.05904 0.02857
 Zr748 Zr 0.54462 -0.07287 -0.00344
 O749 O 0.43052 -0.05156 0.04993
 O750 O 0.58946 -0.07188 -0.02362
 O751 O 0.52278 -0.05509 0.03361
 O752 O 0.55530 -0.02490 0.00223
 O753 O 0.51617 0.02062 0.00184
 O754 O 0.48128 -0.01079 0.03390
 C755 C 0.52068 -0.10974 -0.05714
 C756 C 0.42888 -0.09473 -0.01223
 C757 C 0.52205 -0.02696 -0.09232
 O758 O 0.58490 -0.00915 -0.04921
 O759 O 0.57282 0.03231 -0.01581
 O760 O 0.56693 0.02803 0.03218
 C761 C 0.58037 0.03964 0.00988
 O762 O 0.42455 0.01419 -0.02528
 Zr763 Zr 0.46745 0.01380 -0.00210
 O764 O 0.51478 0.03665 0.05466
 O765 O 0.53103 0.04497 -0.05184
 O766 O 0.46826 0.05468 -0.02782
 O767 O 0.42631 0.02125 0.02278
 O768 O 0.47559 0.05245 0.02469
 C769 C 0.49461 0.05682 0.04547
 O770 O 0.56985 -0.01678 0.06278
 O771 O 0.48288 -0.10478 0.04453
 O772 O 0.51622 -0.01762 0.07919
 O773 O 0.47991 -0.05673 0.07239
 O774 O 0.54104 -0.11902 0.01356
 O775 O 0.57935 -0.07924 0.02856
 C776 C 0.49648 -0.03861 0.08833
 H777 H 0.49071 -0.10179 -0.00804
 H778 H 0.57839 -0.02253 0.00490
 H779 H 0.46977 -0.00263 0.05069
 H780 H 0.48288 0.00706 -0.05571
 H781 H 0.59702 -0.09398 -0.02500
 H782 H 0.59089 0.00888 -0.06144
 H783 H 0.55013 0.04992 -0.06319
 H784 H 0.45039 0.06809 -0.02146
 H785 H 0.55749 -0.13205 0.00416
 H786 H 0.46408 -0.11086 0.05586
 H787 H 0.41807 -0.03729 0.03769
 H788 H 0.41925 0.04328 0.01958
 H789 H 0.59363 -0.09677 0.02308
 H790 H 0.57141 0.00006 0.07740
 H791 H 0.44240 -0.05795 -0.08332
 H792 H 0.43013 0.01325 -0.04565
 Zr793 Zr 0.51651 0.55465 -0.03878
 O794 O 0.55264 0.54291 -0.06800
 O795 O 0.50331 0.59811 -0.05425
 O796 O 0.49640 0.54860 -0.08009
 O797 O 0.56084 0.58821 0.01539
 O798 O 0.45957 0.50959 -0.07428
 O799 O 0.55685 0.58490 -0.03283
 O800 O 0.45584 0.60721 -0.03257
 O801 O 0.46726 0.54992 -0.03518
 O802 O 0.50256 0.58018 -0.00275
 O803 O 0.50724 0.50589 -0.03670
 O804 O 0.54226 0.53499 -0.00497
 Zr805 Zr 0.46868 0.50632 0.03964
 Zr806 Zr 0.45816 0.50167 -0.03035
 Zr807 Zr 0.52548 0.55910 0.03114
 Zr808 Zr 0.45400 0.57427 0.00122
 O809 O 0.56912 0.55035 0.05140
 O810 O 0.40909 0.57417 -0.01871
 O811 O 0.47664 0.55546 0.03723
 O812 O 0.44307 0.52629 0.00584
 O813 O 0.48181 0.48053 0.00340
 O814 O 0.51771 0.51085 0.03550
 C815 C 0.47751 0.61336 -0.05102
 C816 C 0.56968 0.59562 -0.00969
 C817 C 0.47452 0.52983 -0.08952
 O818 O 0.41223 0.51213 -0.04541
 O819 O 0.42478 0.46963 -0.01332
 O820 O 0.43188 0.47258 0.03463
 C821 C 0.41786 0.46160 0.01232
 O822 O 0.57282 0.48649 -0.02555
 Zr823 Zr 0.53047 0.48704 -0.00144
 O824 O 0.48452 0.46346 0.05601
 O825 O 0.46549 0.45757 -0.05049
 O826 O 0.52868 0.44681 -0.02820
 O827 O 0.57215 0.47887 0.02235
 O828 O 0.52258 0.44784 0.02459
 C829 C 0.50423 0.44330 0.04587
 O830 O 0.42972 0.51665 0.06634
 O831 O 0.51772 0.60464 0.04843
 O832 O 0.48363 0.51743 0.08170
 O833 O 0.52021 0.55625 0.07494
 O834 O 0.45810 0.61955 0.02022
 O835 O 0.41957 0.57967 0.03377
 C836 C 0.50369 0.53816 0.09085
 H837 H 0.50804 0.60288 -0.00367
 H838 H 0.42002 0.52399 0.00892
 H839 H 0.52951 0.50228 0.05187
 H840 H 0.51390 0.49526 -0.05446
 H841 H 0.40157 0.59632 -0.01920
 H842 H 0.40580 0.49441 -0.05794
 H843 H 0.44607 0.45298 -0.06149
 H844 H 0.54640 0.43296 -0.02243
 H845 H 0.44151 0.63309 0.01178
 H846 H 0.53691 0.61016 0.05945
 H847 H 0.58139 0.53685 0.03821
 H848 H 0.57884 0.45678 0.01869
 H849 H 0.40512 0.59722 0.02889
 H850 H 0.42849 0.49953 0.08062
 H851 H 0.55421 0.56086 -0.08138
 H852 H 0.56682 0.48874 -0.04570
 Zr853 Zr 0.01637 1.05517 0.46068
 O854 O 0.05212 1.04339 0.43108
 O855 O 0.00320 1.09881 0.44548
 O856 O -0.00411 1.04922 0.41951
 O857 O 0.06197 1.08818 0.51438
 O858 O -0.04117 1.01051 0.42566
 O859 O 0.05688 1.08514 0.46622
 O860 O -0.04329 1.10879 0.46854
 O861 O -0.03285 1.05098 0.46489
 O862 O 0.00335 1.08056 0.49707
 O863 O 0.00674 1.00650 0.46266
 O864 O 0.04255 1.03505 0.49403
 Zr865 Zr -0.03051 1.00674 0.53945
 Zr866 Zr -0.04225 1.00277 0.46960
 Zr867 Zr 0.02671 1.05910 0.53053
 Zr868 Zr -0.04518 1.07513 0.50171
 O869 O 0.07062 1.04960 0.55003
 O870 O -0.09023 1.07571 0.48205
 O871 O -0.02208 1.05583 0.53726
 O872 O -0.05649 1.02723 0.50615
 O873 O -0.01825 0.98109 0.50290
 O874 O 0.01850 1.01088 0.53471
 C875 C -0.02204 1.11472 0.44964
 C876 C 0.07024 1.09565 0.48916
 C877 C -0.02614 1.03052 0.41026
 O878 O -0.08817 1.01400 0.45495
 O879 O -0.07597 0.97134 0.48687
 O880 O -0.06750 0.97314 0.53468
 C881 C -0.08227 0.96286 0.51250
 O882 O 0.07234 0.98637 0.47285
 Zr883 Zr 0.03039 0.98717 0.49749
 O884 O -0.01467 0.96377 0.55552
 O885 O -0.03587 0.95853 0.44944
 O886 O 0.02783 0.94716 0.47052
 O887 O 0.07235 0.97846 0.52071
 O888 O 0.02248 0.94781 0.52339
 C889 C 0.00462 0.94344 0.54503
 O890 O -0.06902 1.01718 0.56663
 O891 O 0.01982 1.10459 0.54824
 O892 O -0.01480 1.01743 0.58133
 O893 O 0.02200 1.05604 0.57445
 O894 O -0.04041 1.12001 0.52135
 O895 O -0.07928 1.08040 0.53456
 C896 C 0.00552 1.03795 0.59040
 H897 H 0.00900 1.10322 0.49621
 H898 H -0.07950 1.02515 0.50953
 H899 H 0.03048 1.00209 0.55089
 H900 H 0.01304 0.99590 0.44478
 H901 H -0.09757 1.09793 0.48185
 H902 H -0.09502 0.99642 0.44246
 H903 H -0.05548 0.95423 0.43863
 H904 H 0.04548 0.93309 0.47601
 H905 H -0.05701 1.13386 0.51334
 H906 H 0.03924 1.10976 0.55906
 H907 H 0.08263 1.03642 0.53638
 H908 H 0.07875 0.95632 0.51688
 H909 H -0.09367 1.09807 0.52992
 H910 H -0.07016 0.99997 0.58083
 H911 H 0.05359 1.06136 0.41771
 H912 H 0.06605 0.98891 0.45279
 Zr913 Zr 0.69778 0.26868 0.20958
 O914 O 0.71168 0.30496 0.18150
 O915 O 0.65441 0.25656 0.19304
 O916 O 0.70356 0.24898 0.16815
 O917 O 0.66364 0.31281 0.26358
 O918 O 0.74160 0.21112 0.17365
 O919 O 0.66793 0.30915 0.21538
 O920 O 0.64427 0.20895 0.21373
 O921 O 0.70135 0.21940 0.21253
 O922 O 0.67143 0.25493 0.24506
 O923 O 0.74630 0.25828 0.21208
 O924 O 0.71734 0.29375 0.24394
 Zr925 Zr 0.74403 0.21915 0.28770
 Zr926 Zr 0.74933 0.20916 0.21767
 Zr927 Zr 0.69243 0.27724 0.27952
 Zr928 Zr 0.67617 0.20631 0.24841
 O929 O 0.70547 0.32093 0.29807
 O930 O 0.67524 0.16140 0.22838
 O931 O 0.69506 0.22826 0.28484
 O932 O 0.72392 0.19427 0.25339
 O933 O 0.77045 0.23218 0.25194
 O934 O 0.74045 0.26817 0.28421
 C935 C 0.63898 0.23077 0.19529
 C936 C 0.65685 0.32185 0.23844
 C937 C 0.72168 0.22668 0.15858
 O938 O 0.73792 0.16365 0.20201
 O939 O 0.78042 0.17498 0.23463
 O940 O 0.77753 0.18219 0.28259
 C941 C 0.78833 0.16801 0.26026
 O942 O 0.76531 0.32004 0.21954
 Zr943 Zr 0.76506 0.28100 0.24773
 O944 O 0.78710 0.23415 0.30456
 O945 O 0.79380 0.21568 0.19797
 O946 O 0.80695 0.27735 0.22314
 O947 O 0.77107 0.32320 0.27150
 O948 O 0.80318 0.27392 0.27527
 C949 C 0.80731 0.25459 0.29580
 O950 O 0.73263 0.18005 0.31362
 O951 O 0.64652 0.27249 0.29701
 O952 O 0.73282 0.23368 0.32988
 O953 O 0.69424 0.27050 0.32329
 O954 O 0.63065 0.21166 0.26672
 O955 O 0.66947 0.17186 0.28054
 C956 C 0.71206 0.25366 0.33913
 H957 H 0.64882 0.26077 0.24385
 H958 H 0.72571 0.17119 0.25625
 H959 H 0.74905 0.27952 0.30090
 H960 H 0.75739 0.26509 0.19463
 H961 H 0.65286 0.15454 0.22755
 H962 H 0.75559 0.15697 0.18953
 H963 H 0.79799 0.19630 0.18674
 H964 H 0.82195 0.29354 0.23021
 H965 H 0.61669 0.19579 0.25763
 H966 H 0.64226 0.29176 0.30840
 H967 H 0.68777 0.32745 0.31059
 H968 H 0.79338 0.32991 0.26924
 H969 H 0.65108 0.15842 0.27567
 H970 H 0.74960 0.17826 0.32804
 H971 H 0.69422 0.30736 0.16766
 H972 H 0.78568 0.33143 0.22119
 Zr973 Zr 0.80499 0.73226 0.71057
 O974 O 0.79388 0.69616 0.68111
 O975 O 0.84854 0.74587 0.69522
 O976 O 0.79907 0.75224 0.66930
 O977 O 0.83888 0.68843 0.76470
 O978 O 0.75932 0.78826 0.67507
 O979 O 0.83513 0.69204 0.71649
 O980 O 0.85681 0.79355 0.71674
 O981 O 0.79969 0.78135 0.71419
 O982 O 0.83020 0.74648 0.74662
 O983 O 0.75606 0.74086 0.71256
 O984 O 0.78540 0.70634 0.74436
 Zr985 Zr 0.75541 0.77950 0.78888
 Zr986 Zr 0.75125 0.78980 0.71896
 Zr987 Zr 0.80913 0.72341 0.78052
 Zr988 Zr 0.82369 0.79491 0.75063
 O989 O 0.80089 0.67972 0.80072
 O990 O 0.82327 0.83981 0.73088
 O991 O 0.80477 0.77216 0.78661
 O992 O 0.77547 0.80523 0.75516
 O993 O 0.72999 0.76598 0.75264
 O994 O 0.76067 0.73058 0.78470
 C995 C 0.86341 0.77191 0.69833
 C996 C 0.84602 0.67941 0.73955
 C997 C 0.77996 0.77371 0.65987
 O998 O 0.76145 0.83568 0.70376
 O999 O 0.71895 0.82301 0.73583
 O1000 O 0.72146 0.81614 0.78379
 C1001 C 0.71070 0.83007 0.76142
 O1002 O 0.73749 0.67524 0.72346
 Zr1003 Zr 0.73723 0.71745 0.74777
 O1004 O 0.71261 0.76301 0.80517
 O1005 O 0.70721 0.78200 0.69894
 O1006 O 0.69704 0.71882 0.72108
 O1007 O 0.72949 0.67562 0.77135
 O1008 O 0.69779 0.72446 0.77395
 C1009 C 0.69289 0.74275 0.79523
 O1010 O 0.76512 0.81842 0.81580
 O1011 O 0.85444 0.73194 0.79791
 O1012 O 0.76602 0.76454 0.83091
 O1013 O 0.80560 0.72866 0.82439
 O1014 O 0.86898 0.79129 0.76957
 O1015 O 0.82851 0.82932 0.78327
 C1016 C 0.78688 0.74479 0.84017
 H1017 H 0.85299 0.74125 0.74569
 H1018 H 0.77294 0.82822 0.75825
 H1019 H 0.75209 0.71865 0.80101
 H1020 H 0.74562 0.73406 0.69479
 H1021 H 0.84538 0.84757 0.73044
 H1022 H 0.74375 0.84188 0.69120
 H1023 H 0.70252 0.80127 0.68787
 H1024 H 0.68344 0.70082 0.72669
 H1025 H 0.88241 0.80799 0.76114
 H1026 H 0.86014 0.71288 0.80893
 H1027 H 0.78748 0.66732 0.78758
 H1028 H 0.70754 0.66851 0.76755
 H1029 H 0.84605 0.84386 0.77851
 H1030 H 0.74778 0.81947 0.82997
 H1031 H 0.81202 0.69479 0.66782
 H1032 H 0.73945 0.68132 0.70331
 Zr1033 Zr 0.19885 0.23103 0.79117
 O1034 O 0.21236 0.19447 0.81906
 O1035 O 0.15587 0.24365 0.80818
 O1036 O 0.20534 0.25048 0.83266
 O1037 O 0.16314 0.18819 0.73717
 O1038 O 0.24409 0.28757 0.82683
 O1039 O 0.16856 0.19080 0.78531
 O1040 O 0.14727 0.29225 0.78893
 O1041 O 0.20347 0.28025 0.78852
 O1042 O 0.17226 0.24567 0.75620
 O1043 O 0.24753 0.24053 0.78810
 O1044 O 0.21737 0.20598 0.75631
 Zr1045 Zr 0.24512 0.28046 0.71279
 Zr1046 Zr 0.25155 0.28964 0.78278
 Zr1047 Zr 0.19237 0.22341 0.72122
 Zr1048 Zr 0.17799 0.29424 0.75321
 O1049 O 0.20409 0.17966 0.70206
 O1050 O 0.17832 0.33923 0.77309
 O1051 O 0.19598 0.27237 0.71629
 O1052 O 0.22592 0.30537 0.74757
 O1053 O 0.27172 0.26651 0.74807
 O1054 O 0.24052 0.23149 0.71599
 C1055 C 0.14158 0.27015 0.80704
 C1056 C 0.15685 0.17865 0.76228
 C1057 C 0.22395 0.27245 0.84210
 O1058 O 0.24141 0.33528 0.79884
 O1059 O 0.28323 0.32330 0.76567
 O1060 O 0.27898 0.31718 0.71769
 C1061 C 0.29055 0.33076 0.73998
 O1062 O 0.26484 0.17844 0.77990
 Zr1063 Zr 0.26527 0.21776 0.75204
 O1064 O 0.28789 0.26485 0.69547
 O1065 O 0.29605 0.28194 0.80191
 O1066 O 0.30752 0.22021 0.77613
 O1067 O 0.27011 0.17570 0.72785
 O1068 O 0.30319 0.22428 0.72415
 C1069 C 0.30771 0.24390 0.70391
 O1070 O 0.23408 0.31979 0.68705
 O1071 O 0.14635 0.22951 0.70445
 O1072 O 0.23333 0.26630 0.67069
 O1073 O 0.19385 0.23043 0.67747
 O1074 O 0.13186 0.28976 0.73610
 O1075 O 0.17121 0.32880 0.72122
 C1076 C 0.21207 0.24681 0.66155
 H1077 H 0.14956 0.24021 0.75772
 H1078 H 0.22812 0.32843 0.74487
 H1079 H 0.24871 0.22011 0.69914
 H1080 H 0.25870 0.23335 0.80536
 H1081 H 0.15607 0.34644 0.77443
 H1082 H 0.25937 0.34145 0.81118
 H1083 H 0.30079 0.30110 0.81325
 H1084 H 0.32202 0.20370 0.76878
 H1085 H 0.11846 0.30575 0.74572
 H1086 H 0.14144 0.21047 0.69298
 H1087 H 0.18607 0.17366 0.68976
 H1088 H 0.29227 0.16844 0.72988
 H1089 H 0.15302 0.34240 0.72635
 H1090 H 0.25095 0.32138 0.67247
 H1091 H 0.19491 0.19224 0.83297
 H1092 H 0.28493 0.16663 0.77798
 Zr1093 Zr 0.30389 0.76743 0.28797
 O1094 O 0.29090 0.80381 0.31652
 O1095 O 0.34732 0.75473 0.30387
 O1096 O 0.29800 0.74766 0.32937
 O1097 O 0.33763 0.81138 0.23395
 O1098 O 0.25930 0.71047 0.32354
 O1099 O 0.33423 0.80764 0.28217
 O1100 O 0.35693 0.70725 0.28241
 O1101 O 0.29962 0.71819 0.28457
 O1102 O 0.32958 0.75349 0.25206
 O1103 O 0.25520 0.75766 0.28569
 O1104 O 0.28425 0.79281 0.25396
 Zr1105 Zr 0.25604 0.71870 0.20968
 Zr1106 Zr 0.25144 0.70861 0.27962
 Zr1107 Zr 0.30845 0.77609 0.21797
 Zr1108 Zr 0.32422 0.70494 0.24830
 O1109 O 0.29567 0.81989 0.19980
 O1110 O 0.32476 0.66012 0.26821
 O1111 O 0.30516 0.72717 0.21223
 O1112 O 0.27627 0.69351 0.24357
 O1113 O 0.23022 0.73197 0.24579
 O1114 O 0.26027 0.76766 0.21359
 C1115 C 0.36269 0.72897 0.30098
 C1116 C 0.34502 0.82032 0.25904
 C1117 C 0.27941 0.72568 0.33880
 O1118 O 0.26242 0.66294 0.29482
 O1119 O 0.21965 0.67493 0.26266
 O1120 O 0.22258 0.68169 0.21470
 C1121 C 0.21168 0.66777 0.23703
 O1122 O 0.23703 0.81977 0.27886
 Zr1123 Zr 0.23633 0.78071 0.25043
 O1124 O 0.21273 0.73411 0.19358
 O1125 O 0.20720 0.71560 0.29966
 O1126 O 0.19477 0.77774 0.27553
 O1127 O 0.23060 0.82293 0.22692
 O1128 O 0.19762 0.77396 0.22346
 C1129 C 0.19284 0.75463 0.20291
 O1130 O 0.26670 0.67979 0.18303
 O1131 O 0.35419 0.77102 0.20014
 O1132 O 0.26685 0.73348 0.16760
 O1133 O 0.30637 0.76939 0.17416
 O1134 O 0.36941 0.70980 0.22927
 O1135 O 0.33006 0.67025 0.21602
 C1136 C 0.28792 0.75307 0.15835
 H1137 H 0.35228 0.75908 0.25305
 H1138 H 0.27418 0.67046 0.24056
 H1139 H 0.25160 0.77915 0.19709
 H1140 H 0.24436 0.76454 0.30328
 H1141 H 0.34705 0.65294 0.26877
 H1142 H 0.24477 0.65642 0.30736
 H1143 H 0.20282 0.69624 0.31073
 H1144 H 0.17993 0.79418 0.26876
 H1145 H 0.38340 0.69382 0.23803
 H1146 H 0.35855 0.79029 0.18891
 H1147 H 0.31333 0.82628 0.18722
 H1148 H 0.20838 0.82987 0.22939
 H1149 H 0.34832 0.65660 0.22068
 H1150 H 0.24952 0.67829 0.16878
 H1151 H 0.30856 0.80589 0.33020
 H1152 H 0.21691 0.83158 0.27734
 Zr1153 Zr 0.19759 0.76842 0.70907
 O1154 O 0.21039 0.80487 0.68074
 O1155 O 0.15460 0.75569 0.69222
 O1156 O 0.20420 0.74891 0.66761
 O1157 O 0.16225 0.81163 0.76320
 O1158 O 0.24298 0.71190 0.67341
 O1159 O 0.16753 0.80874 0.71503
 O1160 O 0.14565 0.70731 0.71183
 O1161 O 0.20212 0.71921 0.71182
 O1162 O 0.17089 0.75389 0.74411
 O1163 O 0.24629 0.75901 0.71189
 O1164 O 0.21628 0.79352 0.74381
 Zr1165 Zr 0.24380 0.71928 0.78742
 Zr1166 Zr 0.25021 0.70987 0.71744
 Zr1167 Zr 0.19109 0.77610 0.77900
 Zr1168 Zr 0.17664 0.70533 0.74725
 O1169 O 0.19899 0.81940 0.80024
 O1170 O 0.17722 0.66039 0.72726
 O1171 O 0.19462 0.72722 0.78416
 O1172 O 0.22457 0.69426 0.75277
 O1173 O 0.27055 0.73297 0.75204
 O1174 O 0.23933 0.76830 0.78411
 C1175 C 0.14003 0.72935 0.69367
 C1176 C 0.15595 0.82106 0.73807
 C1177 C 0.22290 0.72701 0.65816
 O1178 O 0.24003 0.66428 0.70128
 O1179 O 0.28153 0.67599 0.73457
 O1180 O 0.27786 0.68278 0.78254
 C1181 C 0.28913 0.66889 0.76025
 O1182 O 0.26494 0.82429 0.72458
 Zr1183 Zr 0.26417 0.78165 0.74798
 O1184 O 0.28630 0.73480 0.80501
 O1185 O 0.29486 0.71744 0.69840
 O1186 O 0.30516 0.78026 0.72216
 O1187 O 0.27201 0.82288 0.77263
 O1188 O 0.30269 0.77346 0.77476
 C1189 C 0.30669 0.75475 0.79575
 O1190 O 0.23261 0.67996 0.81315
 O1191 O 0.14516 0.76761 0.79513
 O1192 O 0.23215 0.73377 0.82947
 O1193 O 0.19320 0.77023 0.82285
 O1194 O 0.13042 0.70941 0.76436
 O1195 O 0.16984 0.67093 0.77941
 C1196 C 0.21131 0.75368 0.83869
 H1197 H 0.14821 0.75939 0.74262
 H1198 H 0.22675 0.67121 0.75554
 H1199 H 0.24756 0.77986 0.80083
 H1200 H 0.25735 0.76593 0.69447
 H1201 H 0.15502 0.65307 0.72593
 H1202 H 0.25804 0.65806 0.68899
 H1203 H 0.29960 0.69826 0.68708
 H1204 H 0.31872 0.79807 0.72838
 H1205 H 0.11725 0.69305 0.75503
 H1206 H 0.13923 0.78653 0.80637
 H1207 H 0.21342 0.83164 0.78791
 H1208 H 0.29412 0.82975 0.76925
 H1209 H 0.15218 0.65678 0.77403
 H1210 H 0.24938 0.67842 0.82776
 H1211 H 0.19278 0.80678 0.66700
 H1212 H 0.26426 0.81855 0.70424
 Zr1213 Zr 0.30288 0.22923 0.20957
 O1214 O 0.29091 0.19289 0.18064
 O1215 O 0.34627 0.24219 0.19351
 O1216 O 0.29707 0.24900 0.16823
 O1217 O 0.33708 0.18593 0.26389
 O1218 O 0.25788 0.28573 0.17370
 O1219 O 0.33287 0.18888 0.21568
 O1220 O 0.35464 0.29049 0.21380
 O1221 O 0.29803 0.27840 0.21268
 O1222 O 0.32874 0.24379 0.24512
 O1223 O 0.25406 0.23839 0.21184
 O1224 O 0.28351 0.20401 0.24385
 Zr1225 Zr 0.25480 0.27809 0.28773
 Zr1226 Zr 0.24976 0.28750 0.21769
 Zr1227 Zr 0.30788 0.22143 0.27952
 Zr1228 Zr 0.32269 0.29233 0.24859
 O1229 O 0.29950 0.17816 0.30040
 O1230 O 0.32240 0.33721 0.22880
 O1231 O 0.30405 0.27030 0.28504
 O1232 O 0.27461 0.30318 0.25348
 O1233 O 0.22879 0.26433 0.25188
 O1234 O 0.25952 0.22909 0.28410
 C1235 C 0.36081 0.26853 0.19555
 C1236 C 0.34393 0.17650 0.23880
 C1237 C 0.27846 0.27082 0.15867
 O1238 O 0.25999 0.33321 0.20212
 O1239 O 0.21778 0.32108 0.23466
 O1240 O 0.22103 0.31481 0.28266
 C1241 C 0.20996 0.32849 0.26030
 O1242 O 0.23518 0.17308 0.22377
 Zr1243 Zr 0.23548 0.21567 0.24754
 O1244 O 0.21200 0.26231 0.30464
 O1245 O 0.20560 0.27964 0.19791
 O1246 O 0.19500 0.21699 0.22120
 O1247 O 0.22749 0.17432 0.27174
 O1248 O 0.19640 0.22354 0.27396
 C1249 C 0.19191 0.24221 0.29504
 O1250 O 0.26523 0.31738 0.31399
 O1251 O 0.35352 0.22985 0.29627
 O1252 O 0.26590 0.26374 0.32982
 O1253 O 0.30508 0.22743 0.32335
 O1254 O 0.36846 0.28844 0.26652
 O1255 O 0.32850 0.32681 0.28104
 C1256 C 0.28676 0.24401 0.33912
 H1257 H 0.35147 0.23835 0.24394
 H1258 H 0.27230 0.32623 0.25636
 H1259 H 0.25104 0.21751 0.30065
 H1260 H 0.24340 0.23145 0.19421
 H1261 H 0.34458 0.34468 0.22796
 H1262 H 0.24218 0.33939 0.18967
 H1263 H 0.20091 0.29886 0.18676
 H1264 H 0.18133 0.19918 0.22714
 H1265 H 0.38180 0.30488 0.25758
 H1266 H 0.35921 0.21093 0.30748
 H1267 H 0.28566 0.16575 0.28764
 H1268 H 0.20545 0.16736 0.26813
 H1269 H 0.34623 0.34103 0.27605
 H1270 H 0.24816 0.31879 0.32839
 H1271 H 0.30885 0.19113 0.16717
 H1272 H 0.23668 0.17885 0.20351
 Zr1273 Zr 0.69811 0.73174 0.29139
 O1274 O 0.71179 0.69541 0.31946
 O1275 O 0.65501 0.74428 0.30827
 O1276 O 0.70441 0.75144 0.33280
 O1277 O 0.66326 0.68782 0.23764
 O1278 O 0.74283 0.78884 0.32676
 O1279 O 0.66797 0.69140 0.28580
 O1280 O 0.64515 0.79196 0.28765
 O1281 O 0.70212 0.78099 0.28833
 O1282 O 0.67167 0.74564 0.25610
 O1283 O 0.74670 0.74173 0.28846
 O1284 O 0.71719 0.70646 0.25689
 Zr1285 Zr 0.74441 0.78075 0.21281
 Zr1286 Zr 0.75014 0.79081 0.28273
 Zr1287 Zr 0.69227 0.72315 0.22147
 Zr1288 Zr 0.67682 0.79422 0.25265
 O1289 O 0.70471 0.67931 0.20286
 O1290 O 0.67646 0.83918 0.27258
 O1291 O 0.69535 0.77210 0.21608
 O1292 O 0.72465 0.80584 0.24721
 O1293 O 0.77089 0.76753 0.24838
 O1294 O 0.74035 0.73177 0.21641
 C1295 C 0.63980 0.77020 0.30617
 C1296 C 0.65663 0.67876 0.26283
 C1297 C 0.72292 0.77355 0.34212
 O1298 O 0.73916 0.83636 0.29855
 O1299 O 0.78126 0.82489 0.26557
 O1300 O 0.77813 0.81763 0.21764
 C1301 C 0.78907 0.83182 0.23988
 O1302 O 0.76497 0.67980 0.28101
 Zr1303 Zr 0.76500 0.71875 0.25273
 O1304 O 0.78743 0.76545 0.19589
 O1305 O 0.79476 0.78402 0.30193
 O1306 O 0.80709 0.72204 0.27697
 O1307 O 0.77036 0.67643 0.22900
 O1308 O 0.80303 0.72530 0.22491
 C1309 C 0.80740 0.74475 0.20450
 O1310 O 0.73321 0.81978 0.18677
 O1311 O 0.64631 0.72838 0.20432
 O1312 O 0.73303 0.76610 0.17075
 O1313 O 0.69399 0.72977 0.17765
 O1314 O 0.63114 0.78914 0.23472
 O1315 O 0.67014 0.82866 0.22053
 C1316 C 0.71203 0.74630 0.16166
 H1317 H 0.64901 0.73998 0.25751
 H1318 H 0.72660 0.82890 0.24432
 H1319 H 0.74877 0.72030 0.19969
 H1320 H 0.75786 0.73486 0.30583
 H1321 H 0.65414 0.84623 0.27361
 H1322 H 0.75696 0.84291 0.31091
 H1323 H 0.79917 0.80333 0.31318
 H1324 H 0.82183 0.70563 0.26986
 H1325 H 0.61735 0.80508 0.24394
 H1326 H 0.64178 0.70914 0.19298
 H1327 H 0.68687 0.67296 0.19047
 H1328 H 0.79259 0.66945 0.23113
 H1329 H 0.65187 0.84221 0.22554
 H1330 H 0.75017 0.82141 0.17229
 H1331 H 0.69436 0.69317 0.33340
 H1332 H 0.78519 0.66817 0.27922
 Zr1333 Zr 0.80490 0.26757 0.79055
 O1334 O 0.79174 0.30363 0.81938
 O1335 O 0.84833 0.25482 0.80649
 O1336 O 0.79891 0.24754 0.83179
 O1337 O 0.83867 0.31236 0.73693
 O1338 O 0.76053 0.21011 0.82559
 O1339 O 0.83490 0.30805 0.78511
 O1340 O 0.85867 0.20801 0.78412
 O1341 O 0.80095 0.21835 0.78670
 O1342 O 0.83072 0.25423 0.75453
 O1343 O 0.75627 0.25757 0.78813
 O1344 O 0.78515 0.29325 0.75678
 Zr1345 Zr 0.75743 0.21950 0.71178
 Zr1346 Zr 0.75280 0.20858 0.78162
 Zr1347 Zr 0.80952 0.27715 0.72065
 Zr1348 Zr 0.82563 0.20570 0.75029
 O1349 O 0.79661 0.32123 0.70310
 O1350 O 0.82648 0.16080 0.77004
 O1351 O 0.80650 0.22827 0.71442
 O1352 O 0.77774 0.19403 0.74546
 O1353 O 0.73147 0.23221 0.74798
 O1354 O 0.76140 0.26844 0.71618
 C1355 C 0.86418 0.22943 0.80303
 C1356 C 0.84574 0.32108 0.76217
 C1357 C 0.78040 0.22540 0.84102
 O1358 O 0.76408 0.16281 0.79640
 O1359 O 0.72113 0.17497 0.76438
 O1360 O 0.72403 0.18236 0.71649
 C1361 C 0.71315 0.16814 0.73869
 O1362 O 0.73755 0.31953 0.78201
 Zr1363 Zr 0.73731 0.28092 0.75309
 O1364 O 0.71419 0.23494 0.69562
 O1365 O 0.70851 0.21504 0.80171
 O1366 O 0.69561 0.27714 0.77791
 O1367 O 0.73149 0.32353 0.73019
 O1368 O 0.69890 0.27452 0.72570
 C1369 C 0.69432 0.25548 0.70490
 O1370 O 0.76838 0.18086 0.68491
 O1371 O 0.85520 0.27231 0.70265
 O1372 O 0.76818 0.23473 0.66983
 O1373 O 0.80708 0.27124 0.67675
 O1374 O 0.87067 0.21093 0.73104
 O1375 O 0.83151 0.17124 0.71781
 C1376 C 0.78888 0.25482 0.66077
 H1377 H 0.85338 0.25995 0.75560
 H1378 H 0.77578 0.17100 0.74224
 H1379 H 0.75270 0.28012 0.69980
 H1380 H 0.74535 0.26421 0.80576
 H1381 H 0.84880 0.15370 0.77047
 H1382 H 0.74648 0.15606 0.80889
 H1383 H 0.70425 0.19553 0.81262
 H1384 H 0.68066 0.29353 0.77126
 H1385 H 0.88478 0.19489 0.73955
 H1386 H 0.85948 0.29172 0.69159
 H1387 H 0.81419 0.32782 0.69051
 H1388 H 0.70924 0.33034 0.73266
 H1389 H 0.84978 0.15758 0.72241
 H1390 H 0.75122 0.17937 0.67063
 H1391 H 0.80939 0.30568 0.83308
 H1392 H 0.71726 0.33107 0.78070
 N1393 N 0.46147 1.06670 0.34392
 C1394 C 0.46233 1.04089 0.32678
 N1395 N 0.47682 1.01436 0.33670
 N1396 N 0.48889 1.01331 0.36282
 C1397 C 0.48702 1.03889 0.38012
 N1398 N 0.47329 1.06560 0.37006
 N1399 N -0.02131 0.51642 0.83619
 C1400 C -0.03549 0.54315 0.82635
 N1401 N -0.03606 0.56892 0.84354
 N1402 N -0.02432 0.56759 0.86970
 C1403 C -0.01096 0.54066 0.87970
 N1404 N -0.00933 0.51515 0.86232
 N1405 N 0.01984 -0.01785 0.83663
 C1406 C 0.03624 -0.04362 0.82738
 N1407 N 0.03965 -0.06835 0.84528
 N1408 N 0.02817 -0.06693 0.87155
 C1409 C 0.01249 -0.04093 0.88101
 N1410 N 0.00820 -0.01646 0.86294
 N1411 N 0.51824 0.48141 0.33649
 C1412 C 0.53472 0.45567 0.32729
 N1413 N 0.53775 0.43078 0.34506
 N1414 N 0.52589 0.43205 0.37120
 C1415 C 0.51019 0.45805 0.38065
 N1416 N 0.50624 0.48265 0.36267
 N1417 N 0.51858 0.51819 0.16557
 C1418 C 0.53495 0.54406 0.17464
 N1419 N 0.53797 0.56885 0.15674
 N1420 N 0.52617 0.56737 0.13062
 C1421 C 0.51055 0.54126 0.12131
 N1422 N 0.50663 0.51675 0.13941
 N1423 N 0.02290 1.01656 0.66426
 C1424 C 0.03760 1.04313 0.67405
 N1425 N 0.03851 1.06875 0.65686
 N1426 N 0.02656 1.06741 0.63078
 C1427 C 0.01262 1.04064 0.62084
 N1428 N 0.01068 1.01528 0.63820
 N1429 N -0.01897 0.48190 0.66318
 C1430 C -0.03559 0.45625 0.67224
 N1431 N -0.03936 0.43164 0.65409
 N1432 N -0.02800 0.43307 0.62778
 C1433 C -0.01207 0.45896 0.61851
 N1434 N -0.00745 0.48329 0.63683
 N1435 N 0.48210 -0.01889 0.16342
 C1436 C 0.46630 -0.04505 0.17252
 N1437 N 0.46349 -0.06987 0.15445
 N1438 N 0.47495 -0.06821 0.12820
 C1439 C 0.49003 -0.04186 0.11888
 N1440 N 0.49373 -0.01728 0.13711
 N1441 N 0.34786 0.41145 -0.00244
 C1442 C 0.34209 0.39775 0.02310
 N1443 N 0.36173 0.40494 0.04507
 N1444 N 0.38583 0.42503 0.04173
 C1445 C 0.39155 0.43865 0.01617
 N1446 N 0.37209 0.43133 -0.00585
 N1447 N -0.15519 0.91677 0.49911
 C1448 C -0.15840 0.89940 0.52318
 N1449 N -0.13603 0.90299 0.54375
 N1450 N -0.11191 0.92308 0.54053
 C1451 C -0.10880 0.94025 0.51639
 N1452 N -0.13089 0.93654 0.49573
 N1453 N -0.15010 0.08828 1.00523
 C1454 C -0.15596 0.10176 0.97963
 N1455 N -0.13641 0.09442 0.95759
 N1456 N -0.11230 0.07439 0.96092
 C1457 C -0.10649 0.06098 0.98654
 N1458 N -0.12586 0.06845 1.00863
 N1459 N 0.34943 0.58957 0.50401
 C1460 C 0.34345 0.60241 0.47815
 N1461 N 0.36302 0.59467 0.45624
 N1462 N 0.38723 0.57484 0.45994
 C1463 C 0.39315 0.56205 0.48580
 N1464 N 0.37378 0.56995 0.50777
 N1465 N 0.14929 0.58993 0.49454
 C1466 C 0.15590 0.60308 0.52021
 N1467 N 0.13673 0.59574 0.54250
 N1468 N 0.11228 0.57602 0.53932
 C1469 C 0.10572 0.56295 0.51361
 N1470 N 0.12471 0.57043 0.49130
 N1471 N 0.65038 0.08972 -0.00485
 C1472 C 0.65661 0.10285 0.02092
 N1473 N 0.63725 0.09533 0.04302
 N1474 N 0.61298 0.07548 0.03958
 C1475 C 0.60679 0.06243 0.01379
 N1476 N 0.62597 0.07008 -0.00835
 N1477 N 0.65026 0.91232 0.50501
 C1478 C 0.65656 0.89854 0.47952
 N1479 N 0.63713 0.90531 0.45734
 N1480 N 0.61272 0.92508 0.46044
 C1481 C 0.60647 0.93879 0.48596
 N1482 N 0.62574 0.93188 0.50817
 N1483 N 0.13663 0.40401 0.95697
 C1484 C 0.15550 0.39673 0.97942
 N1485 N 0.14863 0.41004 1.00499
 N1486 N 0.12411 0.42965 1.00797
 C1487 C 0.10542 0.43708 0.98551
 N1488 N 0.11223 0.42383 0.95990
 N1489 N 0.05736 0.33750 0.39165
 C1490 C 0.03250 0.33045 0.37445
 N1491 N 0.00376 0.34266 0.38056
 N1492 N 0.00000 0.36139 0.40285
 C1493 C 0.02466 0.36827 0.42012
 N1494 N 0.05360 0.35637 0.41405
 N1495 N 0.50418 -0.15986 -0.11800
 C1496 C 0.53293 -0.17210 -0.12405
 N1497 N 0.55786 -0.16470 -0.10706
 N1498 N 0.55419 -0.14540 -0.08495
 C1499 C 0.52529 -0.13334 -0.07901
 N1500 N 0.50052 -0.14066 -0.09602
 N1501 N -0.05619 -0.17039 1.10087
 C1502 C -0.03132 -0.17857 1.11756
 N1503 N -0.00235 -0.16681 1.11160
 N1504 N 0.00147 -0.14692 1.09024
 C1505 C -0.02340 -0.13842 1.07384
 N1506 N -0.05237 -0.15047 1.07940
 N1507 N 0.49705 0.34179 0.61768
 C1508 C 0.46810 0.33081 0.62479
 N1509 N 0.44291 0.33834 0.60822
 N1510 N 0.44651 0.35663 0.58555
 C1511 C 0.47559 0.36745 0.57856
 N1512 N 0.50065 0.35997 0.59512
 N1513 N 0.50324 1.16698 0.61112
 C1514 C 0.53236 1.17801 0.61759
 N1515 N 0.55736 1.16925 0.60115
 N1516 N 0.55344 1.14952 0.57942
 C1517 C 0.52427 1.13828 0.57332
 N1518 N 0.49933 1.14730 0.58951
 N1519 N 0.00237 0.66311 1.11345
 C1520 C 0.03157 0.67093 1.12288
 N1521 N 0.05724 0.65972 1.10856
 N1522 N 0.05379 0.64120 1.08592
 C1523 C 0.02447 0.63362 1.07669
 N1524 N -0.00109 0.64460 1.09097
 N1525 N 0.49560 0.66940 -0.10660
 C1526 C 0.46647 0.67764 -0.11586
 N1527 N 0.44068 0.66643 -0.10177
 N1528 N 0.44392 0.64714 -0.07978
 C1529 C 0.47314 0.63870 -0.07101
 N1530 N 0.49884 0.65009 -0.08477
 N1531 N -0.05911 1.16993 0.40098
 C1532 C -0.03354 1.18095 0.38649
 N1533 N -0.00431 1.17196 0.39490
 N1534 N -0.00083 1.15199 0.41624
 C1535 C -0.02637 1.14069 0.43032
 N1536 N -0.05564 1.15003 0.42249
 N1537 N 0.76440 0.72700 0.91378
 C1538 C 0.79102 0.71264 0.92372
 N1539 N 0.81698 0.71215 0.90675
 N1540 N 0.81595 0.72420 0.88073
 C1541 C 0.78916 0.73779 0.87063
 N1542 N 0.76343 0.73929 0.88777
 N1543 N 0.31769 0.21254 0.40588
 C1544 C 0.29201 0.21364 0.42316
 N1545 N 0.26538 0.22804 0.41331
 N1546 N 0.26408 0.23977 0.38710
 C1547 C 0.28950 0.23763 0.36966
 N1548 N 0.31634 0.22402 0.37966
 N1549 N 0.73141 0.26752 0.41430
 C1550 C 0.70539 0.28364 0.42343
 N1551 N 0.68071 0.28681 0.40536
 N1552 N 0.68241 0.27541 0.37906
 C1553 C 0.70866 0.26003 0.36971
 N1554 N 0.73308 0.25595 0.38796
 N1555 N 0.23299 0.77049 0.91263
 C1556 C 0.20654 0.78531 0.92256
 N1557 N 0.18078 0.78636 0.90545
 N1558 N 0.18191 0.77445 0.87929
 C1559 C 0.20858 0.76042 0.86921
 N1560 N 0.23405 0.75832 0.88651
 N1561 N 0.26677 0.77013 0.08442
 C1562 C 0.29349 0.78458 0.07469
 N1563 N 0.31918 0.78522 0.09189
 N1564 N 0.31775 0.77328 0.11795
 C1565 C 0.29081 0.75967 0.12785
 N1566 N 0.26538 0.75796 0.11045
 N1567 N 0.81844 0.28968 0.59477
 C1568 C 0.79360 0.28602 0.57692
 N1569 N 0.76810 0.26918 0.58609
 N1570 N 0.76707 0.25735 0.61228
 C1571 C 0.79164 0.26185 0.63031
 N1572 N 0.81737 0.27800 0.62092
 N1573 N 0.23155 0.23273 0.58644
 C1574 C 0.20558 0.21651 0.57740
 N1575 N 0.18085 0.21336 0.59549
 N1576 N 0.18246 0.22488 0.62175
 C1577 C 0.20867 0.24036 0.63101
 N1578 N 0.23313 0.24440 0.61274
 N1579 N 0.73136 0.73179 0.08652
 C1580 C 0.70517 0.71590 0.07750
 N1581 N 0.68043 0.71307 0.09564
 N1582 N 0.68221 0.72458 0.12189
 C1583 C 0.70861 0.73975 0.13113
 N1584 N 0.73311 0.74347 0.11282
 N1585 N 0.15524 0.61100 0.20465
 C1586 C 0.14828 0.59155 0.22676
 N1587 N 0.16210 0.59764 0.25223
 N1588 N 0.18185 0.62199 0.25545
 C1589 C 0.18894 0.64127 0.23331
 N1590 N 0.17521 0.63523 0.20780
 N1591 N 0.65644 0.11210 0.70569
 C1592 C 0.64920 0.09249 0.72760
 N1593 N 0.66299 0.09816 0.75317
 N1594 N 0.68296 0.12231 0.75665
 C1595 C 0.69030 0.14177 0.73469
 N1596 N 0.67661 0.13612 0.70910
 N1597 N 0.84772 0.11410 0.29174
 C1598 C 0.85181 0.09200 0.27093
 N1599 N 0.83494 0.09545 0.24656
 N1600 N 0.81517 0.11972 0.24314
 C1601 C 0.81096 0.14151 0.26406
 N1602 N 0.82764 0.13816 0.28847
 N1603 N 0.34835 0.61490 0.79200
 C1604 C 0.35267 0.59293 0.77112
 N1605 N 0.33610 0.59654 0.74661
 N1606 N 0.31635 0.62082 0.74314
 C1607 C 0.31187 0.64247 0.76413
 N1608 N 0.32828 0.63898 0.78868
 N1609 N 0.34622 0.38769 0.70692
 C1610 C 0.35370 0.40710 0.72903
 N1611 N 0.34055 0.40089 0.75477
 N1612 N 0.32093 0.37646 0.75823
 C1613 C 0.31331 0.35724 0.73608
 N1614 N 0.32639 0.36340 0.71032
 N1615 N 0.84867 0.88563 0.20828
 C1616 C 0.85251 0.90795 0.22894
 N1617 N 0.83540 0.90467 0.25325
 N1618 N 0.81566 0.88036 0.25674
 C1619 C 0.81169 0.85836 0.23596
 N1620 N 0.82861 0.86154 0.21161
 N1621 N 0.65415 0.88734 0.79319
 C1622 C 0.64736 0.90650 0.77085
 N1623 N 0.66126 0.90002 0.74547
 N1624 N 0.68095 0.87557 0.74255
 C1625 C 0.68788 0.85657 0.76491
 N1626 N 0.67406 0.86300 0.79034
 N1627 N 0.15417 0.38594 0.29283
 C1628 C 0.14713 0.40522 0.27064
 N1629 N 0.16058 0.39871 0.24505
 N1630 N 0.18008 0.37416 0.24180
 C1631 C 0.18727 0.35507 0.26402
 N1632 N 0.17389 0.36151 0.28964
 N1633 N 0.09286 0.25369 0.86870
 C1634 C 0.08142 0.28256 0.87546
 N1635 N 0.08872 0.30753 0.85857
 N1636 N 0.10719 0.30380 0.83593
 C1637 C 0.11845 0.27479 0.82928
 N1638 N 0.11123 0.24997 0.84617
 N1639 N 0.58475 0.80710 0.35608
 C1640 C 0.57714 0.78210 0.37280
 N1641 N 0.58892 0.75329 0.36630
 N1642 N 0.60804 0.74968 0.34427
 C1643 C 0.61571 0.77457 0.32762
 N1644 N 0.60395 0.80349 0.33391
 N1645 N 0.58797 0.24760 0.13539
 C1646 C 0.57675 0.21863 0.12865
 N1647 N 0.58454 0.19365 0.14529
 N1648 N 0.60346 0.19741 0.16755
 C1649 C 0.61477 0.22644 0.17403
 N1650 N 0.60685 0.25135 0.15754
 N1651 N 0.08601 0.69237 0.64302
 C1652 C 0.07852 0.71743 0.62634
 N1653 N 0.09018 0.74623 0.63300
 N1654 N 0.10899 0.74981 0.65519
 C1655 C 0.11646 0.72488 0.67184
 N1656 N 0.10492 0.69594 0.66534
 N1657 N 0.92019 0.75432 0.64283
 C1658 C 0.92828 0.78346 0.63357
 N1659 N 0.91665 0.80914 0.64757
 N1660 N 0.89713 0.80579 0.66951
 C1661 C 0.88886 0.77654 0.67830
 N1662 N 0.90066 0.75096 0.66460
 N1663 N 0.41261 0.25224 0.13581
 C1664 C 0.42328 0.28136 0.12902
 N1665 N 0.41477 0.30637 0.14554
 N1666 N 0.39573 0.30246 0.16774
 C1667 C 0.38501 0.27326 0.17428
 N1668 N 0.39363 0.24834 0.15789
 N1669 N 0.41684 0.69195 0.35098
 C1670 C 0.42550 0.71725 0.36705
 N1671 N 0.41530 0.74632 0.35964
 N1672 N 0.39643 0.74989 0.33750
 C1673 C 0.38746 0.72465 0.32168
 N1674 N 0.39791 0.69552 0.32872
 N1675 N 0.92067 0.19254 0.85106
 C1676 C 0.92910 0.21763 0.86749
 N1677 N 0.91783 0.24658 0.86103
 N1678 N 0.89818 0.25023 0.83945
 C1679 C 0.88943 0.22520 0.82328
 N1680 N 0.90097 0.19619 0.82934
 N1681 N 0.55376 1.00924 0.66134
 C1682 C 0.56756 1.03669 0.66996
 N1683 N 0.56323 1.06279 0.65359
 N1684 N 0.54663 1.06137 0.62954
 C1685 C 0.53358 1.03374 0.62069
 N1686 N 0.53764 1.00769 0.63704
 N1687 N 0.05818 0.50542 1.15808
 C1688 C 0.06530 0.53395 1.16967
 N1689 N 0.05454 0.56039 1.15644
 N1690 N 0.03802 0.55834 1.13234
 C1691 C 0.03158 0.52974 1.12047
 N1692 N 0.04206 0.50339 1.13387
 N1693 N -0.05485 -0.00878 1.16227
 C1694 C -0.06820 -0.03641 1.17087
 N1695 N -0.06344 -0.06253 1.15443
 N1696 N -0.04684 -0.06096 1.13035
 C1697 C -0.03425 -0.03317 1.12153
 N1698 N -0.03876 -0.00709 1.13793
 N1699 N 0.44580 0.49317 0.66211
 C1700 C 0.43318 0.46525 0.67082
 N1701 N 0.43852 0.43920 0.65443
 N1702 N 0.45501 0.44111 0.63031
 C1703 C 0.46688 0.46918 0.62138
 N1704 N 0.46177 0.49519 0.63772
 N1705 N 0.44291 0.56252 -0.15624
 C1706 C 0.43174 0.53613 -0.16948
 N1707 N 0.43748 0.50766 -0.15735
 N1708 N 0.45275 0.50572 -0.13269
 C1709 C 0.46370 0.53203 -0.11932
 N1710 N 0.45859 0.56053 -0.13169
 N1711 N -0.05753 1.06240 0.34315
 C1712 C -0.06868 1.03585 0.33015
 N1713 N -0.06300 1.00754 0.34258
 N1714 N -0.04780 1.00590 0.36730
 C1715 C -0.03690 1.03238 0.38043
 N1716 N -0.04193 1.06072 0.36776
 N1717 N 0.06028 0.49373 0.34025
 C1718 C 0.06606 0.46495 0.32854
 N1719 N 0.05423 0.43896 0.34180
 N1720 N 0.03789 0.44166 0.36599
 C1721 C 0.03273 0.47048 0.37795
 N1722 N 0.04434 0.49639 0.36457
 N1723 N 0.55993 -0.00566 -0.15991
 C1724 C 0.56556 -0.03430 -0.17196
 N1725 N 0.55387 -0.06044 -0.15883
 N1726 N 0.53784 -0.05805 -0.13445
 C1727 C 0.53288 -0.02939 -0.12213
 N1728 N 0.54430 -0.00331 -0.13540
 N1729 N 0.64853 0.63202 -0.01843
 C1730 C 0.64854 0.65301 0.00369
 N1731 N 0.62107 0.65742 0.01802
 N1732 N 0.59540 0.64080 0.01160
 C1733 C 0.59560 0.61904 -0.00963
 N1734 N 0.62268 0.61512 -0.02481
 N1735 N 0.14998 1.12970 0.48217
 C1736 C 0.14877 1.15310 0.50214
 N1737 N 0.12046 1.15969 0.51429
 N1738 N 0.09488 1.14291 0.50777
 C1739 C 0.09615 1.11896 0.48855
 N1740 N 0.12424 1.11276 0.47565
 N1741 N 0.15227 -0.12858 1.01729
 C1742 C 0.15069 -0.15196 0.99733
 N1743 N 0.12214 -0.15869 0.98579
 N1744 N 0.09666 -0.14202 0.99287
 C1745 C 0.09828 -0.11807 1.01207
 N1746 N 0.12663 -0.11174 1.02436
 N1747 N 0.65029 0.36867 0.51941
 C1748 C 0.64987 0.34748 0.49745
 N1749 N 0.62226 0.34323 0.48340
 N1750 N 0.59684 0.36020 0.48993
 C1751 C 0.59746 0.38216 0.51098
 N1752 N 0.62469 0.38593 0.52590
 N1753 N -0.12250 0.34207 0.51213
 C1754 C -0.15108 0.34911 0.50086
 N1755 N -0.15266 0.37282 0.48138
 N1756 N -0.12696 0.38966 0.47454
 C1757 C -0.09857 0.38302 0.48660
 N1758 N -0.09697 0.35873 0.50528
 N1759 N 0.34910 -0.12905 -0.01887
 C1760 C 0.35033 -0.15215 0.00122
 N1761 N 0.37861 -0.15844 0.01341
 N1762 N 0.40413 -0.14164 0.00681
 C1763 C 0.40285 -0.11796 -0.01252
 N1764 N 0.37479 -0.11208 -0.02547
 N1765 N 0.34777 1.12921 0.51774
 C1766 C 0.34891 1.15208 0.49742
 N1767 N 0.37716 1.15832 0.48505
 N1768 N 0.40274 1.14170 0.49169
 C1769 C 0.40156 1.11826 0.51126
 N1770 N 0.37353 1.11242 0.52438
 N1771 N -0.15295 0.62739 1.01754
 C1772 C -0.15208 0.65052 0.99746
 N1773 N -0.12389 0.65725 0.98516
 N1774 N -0.09811 0.64085 0.99163
 C1775 C -0.09902 0.61715 1.01095
 N1776 N -0.12698 0.61083 1.02403
 N1777 N -0.01398 0.64278 0.55171
 C1778 C 0.00696 0.64860 0.57282
 N1779 N 0.01962 0.62393 0.58714
 N1780 N 0.01306 0.59447 0.57969
 C1781 C -0.00672 0.58864 0.55782
 N1782 N -0.02062 0.61320 0.54425
 N1783 N 0.48770 0.14216 0.05183
 C1784 C 0.50912 0.14819 0.07251
 N1785 N 0.52250 0.12364 0.08646
 N1786 N 0.51601 0.09411 0.07915
 C1787 C 0.49558 0.08809 0.05780
 N1788 N 0.48115 0.11253 0.04450
 N1789 N 0.01358 0.14200 0.94892
 C1790 C -0.00636 0.14755 0.92701
 N1791 N -0.01923 0.12268 0.91296
 N1792 N -0.01361 0.09336 0.92121
 C1793 C 0.00540 0.08786 0.94366
 N1794 N 0.01928 0.11257 0.95719
 N1795 N 0.47736 0.62254 0.41230
 C1796 C 0.49060 0.64742 0.42605
 N1797 N 0.51162 0.64188 0.44714
 N1798 N 0.51798 0.61243 0.45496
 C1799 C 0.50375 0.58770 0.44178
 N1800 N 0.48365 0.59320 0.42011
 N1801 N 0.51923 0.87584 0.41337
 C1802 C 0.50705 0.85118 0.42806
 N1803 N 0.48689 0.85698 0.44985
 N1804 N 0.48049 0.88656 0.45750
 C1805 C 0.49385 0.91112 0.44346
 N1806 N 0.51290 0.90530 0.42101
 N1807 N 0.02130 0.37592 0.91309
 C1808 C 0.00890 0.35140 0.92783
 N1809 N -0.01254 0.35734 0.94857
 N1810 N -0.01987 0.38696 0.95533
 C1811 C -0.00622 0.41143 0.94137
 N1812 N 0.01404 0.40542 0.91983
 N1813 N 0.51124 0.35788 0.05133
 C1814 C 0.49071 0.35187 0.07276
 N1815 N 0.47789 0.37643 0.08730
 N1816 N 0.48404 0.40594 0.07991
 C1817 C 0.50356 0.41195 0.05785
 N1818 N 0.51746 0.38751 0.04391
 N1819 N 0.01116 0.85798 0.55147
 C1820 C -0.00788 0.85260 0.57412
 N1821 N -0.01964 0.87758 0.58880
 N1822 N -0.01388 0.90686 0.58050
 C1823 C 0.00418 0.91223 0.55733
 N1824 N 0.01701 0.88739 0.54314
 N1825 N 0.25771 0.30290 0.08868
 C1826 C 0.28536 0.31646 0.08027
 N1827 N 0.31143 0.31167 0.09666
 N1828 N 0.30977 0.29485 0.12053
 C1829 C 0.28195 0.28204 0.12918
 N1830 N 0.25593 0.28657 0.11281
 N1831 N 0.81253 0.80747 0.59403
 C1832 C 0.78591 0.81791 0.58080
 N1833 N 0.75746 0.81072 0.59250
 N1834 N 0.75569 0.79480 0.61680
 C1835 C 0.78222 0.78465 0.63018
 N1836 N 0.81074 0.79117 0.61822
 N1837 N 0.18926 0.69539 0.59176
 C1838 C 0.21540 0.68359 0.57854
 N1839 N 0.24409 0.68902 0.59051
 N1840 N 0.24650 0.70458 0.61505
 C1841 C 0.22043 0.71614 0.62840
 N1842 N 0.19173 0.71136 0.61618
 N1843 N 0.68835 0.18746 0.09576
 C1844 C 0.71442 0.18235 0.07937
 N1845 N 0.74233 0.19508 0.08814
 N1846 N 0.74431 0.21093 0.11261
 C1847 C 0.71827 0.21578 0.12896
 N1848 N 0.69021 0.20382 0.11997
 N1849 N 0.81286 0.19373 0.90774
 C1850 C 0.78637 0.18258 0.92079
 N1851 N 0.75792 0.18842 0.90858
 N1852 N 0.75607 0.20377 0.88400
 C1853 C 0.78248 0.21469 0.87081
 N1854 N 0.81097 0.20949 0.88326
 N1855 N 0.31211 0.69343 0.40522
 C1856 C 0.28560 0.68257 0.41846
 N1857 N 0.25711 0.68887 0.40648
 N1858 N 0.25523 0.70435 0.38196
 C1859 C 0.28166 0.71498 0.36860
 N1860 N 0.31019 0.70932 0.38081
 N1861 N 0.74430 0.81154 0.40965
 C1862 C 0.71564 0.81721 0.42166
 N1863 N 0.68943 0.80553 0.40853
 N1864 N 0.69181 0.78944 0.38415
 C1865 C 0.72049 0.78443 0.37189
 N1866 N 0.74662 0.79586 0.38516
 N1867 N 0.24443 0.31075 0.90980
 C1868 C 0.21562 0.31597 0.92170
 N1869 N 0.18966 0.30398 0.90841
 N1870 N 0.19240 0.28800 0.88401
 C1871 C 0.22122 0.28341 0.87185
 N1872 N 0.24712 0.29519 0.88527
 N1873 N 0.90946 0.37150 0.73691
 C1874 C 0.90233 0.39995 0.74852
 N1875 N 0.87875 0.40126 0.76830
 N1876 N 0.86212 0.37545 0.77511
 C1877 C 0.86885 0.34719 0.76275
 N1878 N 0.89300 0.34586 0.74374
 N1879 N 0.40718 0.87134 0.23155
 C1880 C 0.40300 0.89874 0.24603
 N1881 N 0.38201 0.89882 0.26813
 N1882 N 0.36488 0.87311 0.27437
 C1883 C 0.36857 0.84611 0.25903
 N1884 N 0.39033 0.84582 0.23782
 N1885 N 0.09214 0.87158 0.76328
 C1886 C 0.09914 0.89991 0.75156
 N1887 N 0.12276 0.90112 0.73182
 N1888 N 0.13954 0.87532 0.72514
 C1889 C 0.13295 0.84721 0.73765
 N1890 N 0.10876 0.84597 0.75660
 N1891 N 0.62306 0.40167 0.23236
 C1892 C 0.59934 0.40017 0.25199
 N1893 N 0.59252 0.37174 0.26359
 N1894 N 0.60939 0.34629 0.25689
 C1895 C 0.63365 0.34781 0.23803
 N1896 N 0.64008 0.37604 0.22566
 N1897 N 0.59239 0.62860 0.23798
 C1898 C 0.59918 0.60025 0.24972
 N1899 N 0.62283 0.59893 0.26935
 N1900 N 0.63982 0.62462 0.27592
 C1901 C 0.63342 0.65276 0.26341
 N1902 N 0.60922 0.65412 0.24454
 N1903 N 0.12341 0.09861 0.76827
 C1904 C 0.10003 0.09985 0.74836
 N1905 N 0.09321 0.12819 0.73664
 N1906 N 0.10978 0.15380 0.74348
 C1907 C 0.13375 0.15253 0.76260
 N1908 N 0.14015 0.12438 0.77510
 N1909 N 0.40704 0.12578 0.26475
 C1910 C 0.40050 0.09753 0.25251
 N1911 N 0.37747 0.09643 0.23227
 N1912 N 0.36080 0.12224 0.22558
 C1913 C 0.36694 0.15029 0.23859
 N1914 N 0.39055 0.15141 0.25807
 N1915 N 0.90913 0.62847 0.76510
 C1916 C 0.90261 0.60036 0.75258
 N1917 N 0.87961 0.59950 0.73231
 N1918 N 0.86297 0.62539 0.72585
 C1919 C 0.86908 0.65327 0.73913
 N1920 N 0.89265 0.65418 0.75865
 N1921 N 0.89240 0.73509 0.19541
 C1922 C 0.89856 0.75756 0.17569
 N1923 N 0.87390 0.77272 0.16336
 N1924 N 0.84443 0.76690 0.17123
 C1925 C 0.83842 0.74541 0.19163
 N1926 N 0.86279 0.72928 0.20339
 N1927 N 0.37439 0.27227 0.66333
 C1928 C 0.39900 0.25931 0.67755
 N1929 N 0.39309 0.23757 0.69790
 N1930 N 0.36344 0.23048 0.70482
 C1931 C 0.33890 0.24468 0.69142
 N1932 N 0.34485 0.26526 0.67024
 N1933 N 0.37226 0.72874 0.83900
 C1934 C 0.39732 0.74135 0.82506
 N1935 N 0.39200 0.76155 0.80335
 N1936 N 0.36260 0.76772 0.79513
 C1937 C 0.33769 0.75406 0.80850
 N1938 N 0.34296 0.73481 0.83079
 N1939 N 0.87267 0.22782 0.33890
 C1940 C 0.89778 0.24199 0.32627
 N1941 N 0.89234 0.26332 0.30540
 N1942 N 0.86299 0.26904 0.29674
 C1943 C 0.83816 0.25390 0.30888
 N1944 N 0.84345 0.23351 0.33032
 N1945 N 0.10636 0.23611 0.30097
 C1946 C 0.10067 0.25674 0.32243
 N1947 N 0.12542 0.26894 0.33709
 N1948 N 0.15488 0.26226 0.32964
 C1949 C 0.16062 0.24283 0.30742
 N1950 N 0.13594 0.22936 0.29351
 N1951 N 0.62616 0.76720 0.83801
 C1952 C 0.60153 0.75539 0.82294
 N1953 N 0.60741 0.73568 0.80083
 N1954 N 0.63706 0.72948 0.79319
 C1955 C 0.66159 0.74263 0.80754
 N1956 N 0.65568 0.76109 0.83038
 N1957 N 0.62797 0.23015 0.66202
 C1958 C 0.60325 0.24347 0.67597
 N1959 N 0.60909 0.26391 0.69754
 N1960 N 0.63866 0.26961 0.70564
 C1961 C 0.66322 0.25523 0.69227
 N1962 N 0.65743 0.23576 0.67011
 N1963 N 0.12584 0.72687 0.16223
 C1964 C 0.10125 0.73944 0.17691
 N1965 N 0.10722 0.76053 0.19794
 N1966 N 0.13690 0.76744 0.20492
 C1967 C 0.16141 0.75371 0.19093
 N1968 N 0.15540 0.73370 0.16920
   
