data_POSCAR
  _audit_creation_date              2014-09-24
  _audit_creation_method            'ToBaCCo'
  _symmetry_space_group_name_H-M    'P1'
  _symmetry_Int_Tables_number       1
  _symmetry_cell_setting            triclinic
  loop_
  _symmetry_equiv_pos_as_xyz
 x,y,z
_cell_length_a 63.0665
_cell_length_b 63.2883
_cell_length_c 64.1100
_cell_angle_alpha 89.942500
_cell_angle_beta 88.824600
_cell_angle_gamma 89.923700
loop_
  _atom_site_label
  _atom_site_type_symbol
  _atom_site_fract_x
  _atom_site_fract_y
  _atom_site_fract_z
C1 C 0.72882 0.66112 0.97404
 H2 H 0.74442 0.66023 0.96675
 C3 C 0.71245 0.67170 0.96398
 H4 H 0.71561 0.67888 0.94891
 C5 C 0.70538 0.65115 1.00167
 H6 H 0.70246 0.64264 1.01603
 C7 C 0.68864 0.66167 0.99228
 H8 H 0.67314 0.66148 0.99984
 N9 N 0.72490 0.65071 0.99229
 C10 C 0.78322 0.63585 1.02438
 H11 H 0.78115 0.61893 1.02570
 C12 C 0.80056 0.64554 1.03346
 H13 H 0.81195 0.63590 1.04157
 C14 C 0.77090 0.66881 1.01183
 H15 H 0.75917 0.67777 1.00349
 C16 C 0.78815 0.67918 1.02061
 H17 H 0.78957 0.69616 1.01903
 Zn18 Zn 0.74601 0.63241 1.00252
 N19 N 0.76889 0.64750 1.01376
 C20 C 0.77666 0.61540 0.97424
 N21 N 0.75573 0.61566 0.97980
 C22 C 0.74118 0.60492 0.96860
 C23 C 0.74756 0.59288 0.95134
 C24 C 0.78371 0.60370 0.95701
 C25 C 0.73021 0.62452 1.04280
 C26 C 0.72137 0.61293 1.05933
 C27 C 0.72141 0.58217 1.03712
 C28 C 0.73054 0.59435 1.02116
 N29 N 0.73438 0.61521 1.02411
 H30 H 0.78794 0.62440 0.98303
 H31 H 0.72456 0.60582 0.97305
 H32 H 0.73575 0.58450 0.94253
 H33 H 0.80046 0.60350 0.95294
 H34 H 0.73348 0.64118 1.04476
 H35 H 0.71743 0.62160 1.07338
 H36 H 0.71945 0.56552 1.03401
 H37 H 0.73459 0.58700 1.00643
 C38 C 0.80322 0.66748 1.03164
 C39 C 0.69188 0.67153 0.97283
 C40 C 0.71640 0.59125 1.05683
 C41 C 0.76908 0.59221 0.94534
 C42 C 0.73686 0.34997 0.52352
 H43 H 0.75029 0.35329 0.53321
 C44 C 0.71903 0.33982 0.53213
 H45 H 0.71890 0.33545 0.54846
 C46 C 0.72002 0.35328 0.49098
 H47 H 0.72015 0.35898 0.47513
 C48 C 0.70196 0.34315 0.49891
 H49 H 0.68854 0.34093 0.48888
 N50 N 0.73678 0.35704 0.50346
 C51 C 0.79623 0.37462 0.47235
 H52 H 0.79367 0.39152 0.47188
 C53 C 0.81465 0.36601 0.46356
 H54 H 0.82615 0.37641 0.45611
 C55 C 0.78414 0.34064 0.48264
 H56 H 0.77219 0.33094 0.49029
 C57 C 0.80241 0.33130 0.47390
 H58 H 0.80453 0.31435 0.47496
 Zn59 Zn 0.75822 0.37613 0.49438
 N60 N 0.78163 0.36198 0.48197
 C61 C 0.78826 0.39093 0.52311
 N62 N 0.76744 0.39148 0.51801
 C63 C 0.75290 0.40178 0.53025
 C64 C 0.75921 0.41245 0.54818
 C65 C 0.79524 0.40134 0.54085
 C66 C 0.74495 0.38638 0.45444
 C67 C 0.73568 0.39827 0.43874
 C68 C 0.73153 0.42717 0.46307
 C69 C 0.74094 0.41469 0.47834
 N70 N 0.74698 0.39451 0.47393
 H71 H 0.79953 0.38212 0.51367
 H72 H 0.73634 0.40154 0.52620
 H73 H 0.74745 0.42077 0.55758
 H74 H 0.81184 0.40038 0.54475
 H75 H 0.75023 0.37042 0.45121
 H76 H 0.73411 0.39140 0.42339
 H77 H 0.72616 0.44294 0.46707
 H78 H 0.74299 0.42106 0.49377
 C79 C 0.81810 0.34413 0.46454
 C80 C 0.70098 0.33701 0.51995
 C81 C 0.72848 0.41884 0.44304
 C82 C 0.78067 0.41234 0.55365
 C83 C 0.22758 -0.14736 -0.00372
 H84 H 0.23267 -0.15046 -0.01964
 C85 C 0.20908 -0.15682 0.00433
 H86 H 0.20004 -0.16736 -0.00537
 C87 C 0.23210 -0.12857 0.02785
 H88 H 0.24063 -0.11704 0.03680
 C89 C 0.21363 -0.13737 0.03634
 H90 H 0.20830 -0.13278 0.05185
 N91 N 0.23850 -0.13332 0.00801
 C92 C 0.30046 -0.12142 -0.02106
 H93 H 0.29995 -0.10439 -0.01967
 C94 C 0.31852 -0.13122 -0.02927
 H95 H 0.33179 -0.12156 -0.03439
 C96 C 0.28340 -0.15449 -0.01639
 H97 H 0.26970 -0.16344 -0.01116
 C98 C 0.30123 -0.16502 -0.02469
 H99 H 0.30116 -0.18209 -0.02578
 Zn100 Zn 0.26045 -0.11676 -0.00422
 N101 N 0.28333 -0.13304 -0.01495
 C102 C 0.28388 -0.10893 0.03083
 N103 N 0.27182 -0.09900 0.01648
 C104 C 0.26832 -0.07781 0.01737
 C105 C 0.27660 -0.06587 0.03366
 C106 C 0.29267 -0.09761 0.04714
 C107 C 0.25623 -0.10311 -0.04587
 C108 C 0.24677 -0.09268 -0.06243
 C109 C 0.22101 -0.07806 -0.03813
 C110 C 0.23106 -0.08882 -0.02204
 N111 N 0.24839 -0.10096 -0.02612
 H112 H 0.28657 -0.12577 0.02961
 H113 H 0.25886 -0.07018 0.00570
 H114 H 0.27308 -0.04915 0.03447
 H115 H 0.30245 -0.10591 0.05816
 H116 H 0.26952 -0.11347 -0.04902
 H117 H 0.25320 -0.09613 -0.07779
 H118 H 0.20789 -0.06797 -0.03363
 H119 H 0.22493 -0.08758 -0.00620
 C120 C 0.31911 -0.15330 -0.03118
 C121 C 0.20167 -0.15131 0.02438
 C122 C 0.22862 -0.07977 -0.05907
 C123 C 0.28885 -0.07581 0.04895
 C124 C 0.23473 0.15639 0.47593
 H125 H 0.25115 0.15667 0.47069
 C126 C 0.21943 0.16759 0.46489
 H127 H 0.22416 0.17670 0.45126
 C128 C 0.20836 0.14343 0.49948
 H129 H 0.20385 0.13341 0.51243
 C130 C 0.19268 0.15463 0.48916
 H131 H 0.17632 0.15318 0.49445
 N132 N 0.22896 0.14451 0.49281
 C133 C 0.28320 0.13173 0.53172
 H134 H 0.28114 0.11480 0.53285
 C135 C 0.29897 0.14159 0.54300
 H136 H 0.30918 0.13208 0.55264
 C137 C 0.27249 0.16452 0.51742
 H138 H 0.26198 0.17334 0.50753
 C139 C 0.28832 0.17507 0.52834
 H140 H 0.28993 0.19203 0.52681
 Zn141 Zn 0.24965 0.12720 0.50547
 N142 N 0.27039 0.14320 0.51921
 C143 C 0.28417 0.11160 0.48115
 N144 N 0.26279 0.11072 0.48426
 C145 C 0.25036 0.09888 0.47174
 C146 C 0.25942 0.08715 0.45538
 C147 C 0.29388 0.10005 0.46508
 C148 C 0.22788 0.11950 0.54295
 C149 C 0.21875 0.10772 0.55914
 C150 C 0.22915 0.07583 0.54094
 C151 C 0.23779 0.08827 0.52488
 N152 N 0.23686 0.10970 0.52610
 H153 H 0.29375 0.12146 0.49094
 H154 H 0.23336 0.09866 0.47443
 H155 H 0.24931 0.07769 0.44564
 H156 H 0.31089 0.10118 0.46268
 H157 H 0.22774 0.13658 0.54370
 H158 H 0.21113 0.11598 0.57203
 H159 H 0.23049 0.05881 0.53985
 H160 H 0.24557 0.08078 0.51166
 C161 C 0.30171 0.16352 0.54141
 C162 C 0.19809 0.16669 0.47149
 C163 C 0.21938 0.08553 0.55839
 C164 C 0.28148 0.08765 0.45191
 C165 C 0.15855 0.47806 0.23043
 H166 H 0.15825 0.47176 0.24612
 C167 C 0.16923 0.46712 0.21442
 H168 H 0.17713 0.45238 0.21793
 C169 C 0.14705 0.50397 0.20646
 H170 H 0.13789 0.51793 0.20316
 C171 C 0.15760 0.49368 0.19010
 H172 H 0.15680 0.50023 0.17453
 N173 N 0.14736 0.49588 0.22611
 C174 C 0.13158 0.53244 0.28173
 H175 H 0.11465 0.53337 0.27953
 C176 C 0.14075 0.54338 0.29805
 H177 H 0.13071 0.55255 0.30855
 C178 C 0.16512 0.51906 0.27072
 H179 H 0.17448 0.50967 0.25987
 C180 C 0.17498 0.52964 0.28707
 H181 H 0.19198 0.52836 0.28873
 Zn182 Zn 0.12891 0.50736 0.24685
 N183 N 0.14376 0.52060 0.26848
 C184 C 0.11289 0.48044 0.27869
 N185 N 0.11246 0.48484 0.25792
 C186 C 0.10150 0.47245 0.24459
 C187 C 0.09011 0.45500 0.25208
 C188 C 0.10187 0.46309 0.28680
 C189 C 0.12115 0.54673 0.22919
 C190 C 0.10973 0.56274 0.21953
 C191 C 0.07841 0.54085 0.22202
 C192 C 0.09044 0.52526 0.23174
 N193 N 0.11151 0.52830 0.23475
 H194 H 0.12203 0.49018 0.28899
 H195 H 0.10183 0.47600 0.22808
 H196 H 0.08166 0.44516 0.24123
 H197 H 0.10232 0.45989 0.30338
 H198 H 0.13788 0.54879 0.23194
 H199 H 0.11786 0.57704 0.21470
 H200 H 0.06169 0.53816 0.21960
 H201 H 0.08294 0.51072 0.23668
 C202 C 0.16271 0.54210 0.30088
 C203 C 0.16830 0.47462 0.19382
 C204 C 0.08811 0.55982 0.21563
 C205 C 0.09033 0.45008 0.27344
 C206 C -0.15921 -0.00177 0.22436
 H207 H -0.16137 -0.01810 0.22896
 C208 C -0.17135 0.00675 0.20841
 H209 H -0.18328 -0.00326 0.20172
 C210 C -0.14143 0.03072 0.22859
 H211 H -0.12967 0.04005 0.23635
 C212 C -0.15309 0.03989 0.21268
 H213 H -0.14912 0.05593 0.20843
 N214 N -0.14404 0.01001 0.23353
 C215 C -0.13754 -0.03878 0.27696
 H216 H -0.12583 -0.04728 0.26777
 C217 C -0.14784 -0.04900 0.29356
 H218 H -0.14387 -0.06527 0.29703
 C219 C -0.15695 -0.00737 0.28381
 H220 H -0.16012 0.00899 0.28007
 C221 C -0.16784 -0.01710 0.30044
 H222 H -0.17933 -0.00812 0.30957
 Zn223 Zn -0.12540 -0.00350 0.25223
 N224 N -0.14171 -0.01812 0.27283
 C225 C -0.10916 0.02017 0.28600
 N226 N -0.10768 0.01667 0.26508
 C227 C -0.09328 0.02720 0.25291
 C228 C -0.08029 0.04262 0.26155
 C229 C -0.09640 0.03535 0.29530
 C230 C -0.11084 -0.02646 0.21668
 C231 C -0.09836 -0.04119 0.20587
 C232 C -0.07867 -0.04717 0.23725
 C233 C -0.09155 -0.03230 0.24748
 N234 N -0.10760 -0.02266 0.23725
 H235 H -0.12032 0.01133 0.29553
 H236 H -0.09209 0.02379 0.23640
 H237 H -0.06905 0.05097 0.25159
 H238 H -0.09819 0.03828 0.31188
 H239 H -0.12318 -0.01821 0.20857
 H240 H -0.10131 -0.04407 0.18954
 H241 H -0.06644 -0.05520 0.24584
 H242 H -0.08907 -0.02874 0.26374
 C243 C -0.16286 -0.03800 0.30579
 C244 C -0.16795 0.02777 0.20160
 C245 C -0.08223 -0.05202 0.21623
 C246 C -0.08190 0.04698 0.28300
 C247 C 0.33215 0.49278 0.72067
 H248 H 0.33127 0.47623 0.72462
 C249 C 0.31958 0.50073 0.70474
 H250 H 0.30906 0.49011 0.69674
 C251 C 0.34652 0.52672 0.72652
 H252 H 0.35687 0.53696 0.73505
 C253 C 0.33449 0.53525 0.71058
 H254 H 0.33644 0.55181 0.70679
 N255 N 0.34580 0.50567 0.73079
 C256 C 0.36400 0.47073 0.78624
 H257 H 0.38083 0.46947 0.78283
 C258 C 0.35541 0.46130 0.80411
 H259 H 0.36573 0.45256 0.81431
 C260 C 0.33018 0.48354 0.77678
 H261 H 0.32053 0.49239 0.76611
 C262 C 0.32086 0.47423 0.79455
 H263 H 0.30400 0.47607 0.79751
 Zn264 Zn 0.36552 0.49429 0.75000
 N265 N 0.35144 0.48177 0.77314
 C266 C 0.38224 0.52193 0.78015
 N267 N 0.38331 0.51643 0.75965
 C268 C 0.39592 0.52728 0.74588
 C269 C 0.40805 0.54434 0.75257
 C270 C 0.39409 0.53885 0.78751
 C271 C 0.37170 0.45419 0.73266
 C272 C 0.38266 0.43723 0.72365
 C273 C 0.41461 0.45820 0.72364
 C274 C 0.40304 0.47473 0.73280
 N275 N 0.38187 0.47259 0.73685
 H276 H 0.37178 0.51355 0.79082
 H277 H 0.39620 0.52296 0.72955
 H278 H 0.41800 0.55272 0.74137
 H279 H 0.39257 0.54323 0.80379
 H280 H 0.35510 0.45245 0.73677
 H281 H 0.37420 0.42278 0.72032
 H282 H 0.43146 0.46013 0.72067
 H283 H 0.41116 0.48906 0.73689
 C284 C 0.33361 0.46314 0.80859
 C285 C 0.32110 0.52216 0.69907
 C286 C 0.40440 0.43914 0.71898
 C287 C 0.40715 0.55039 0.77364
 C288 C 0.65777 0.97422 0.72932
 H289 H 0.65663 0.96696 0.74458
 C290 C 0.66855 0.96381 0.71300
 H291 H 0.67569 0.94855 0.71587
 C292 C 0.64822 1.00203 0.70659
 H293 H 0.63977 1.01657 0.70387
 C294 C 0.65892 0.99231 0.68997
 H295 H 0.65895 0.99985 0.67480
 N296 N 0.64745 0.99272 0.72572
 C297 C 0.63020 1.02728 0.78211
 H298 H 0.61347 1.02879 0.77897
 C299 C 0.63863 1.03752 0.79922
 H300 H 0.62777 1.04619 0.80930
 C301 C 0.66375 1.01293 0.77288
 H302 H 0.67345 1.00351 0.76233
 C303 C 0.67289 1.02266 0.79015
 H304 H 0.68976 1.02078 0.79225
 Zn305 Zn 0.62853 1.00362 0.74640
 N306 N 0.64273 1.01539 0.76929
 C307 C 0.61111 0.97564 0.77645
 N308 N 0.61112 0.98104 0.75590
 C309 C 0.60008 0.96958 0.74185
 C310 C 0.58829 0.95198 0.74835
 C311 C 0.59968 0.95812 0.78357
 C312 C 0.62264 1.04427 0.73132
 C313 C 0.61204 1.06167 0.72319
 C314 C 0.57998 1.04084 0.72251
 C315 C 0.59120 1.02383 0.73085
 N316 N 0.61221 1.02578 0.73485
 H317 H 0.62028 0.98465 0.78734
 H318 H 0.60074 0.97392 0.72552
 H319 H 0.57984 0.94284 0.73693
 H320 H 0.59986 0.95412 0.79999
 H321 H 0.63931 1.04545 0.73481
 H322 H 0.62073 1.07615 0.72024
 H323 H 0.56326 1.03910 0.71943
 H324 H 0.58308 1.00915 0.73414
 C325 C 0.66037 1.03551 0.80362
 C326 C 0.66865 0.97259 0.69284
 C327 C 0.59044 1.06008 0.71863
 C328 C 0.58817 0.94596 0.76945
 C329 C 0.02538 0.23838 -0.15083
 H330 H 0.03131 0.25440 -0.15054
 C331 C 0.03665 0.22273 -0.16174
 H332 H 0.05115 0.22685 -0.17011
 C333 C -0.00022 0.21328 -0.13943
 H334 H -0.01421 0.20947 -0.13022
 C335 C 0.01040 0.19725 -0.15027
 H336 H 0.00441 0.18124 -0.14921
 N337 N 0.00748 0.23334 -0.13971
 C338 C -0.03079 0.28901 -0.12586
 H339 H -0.03208 0.28715 -0.10911
 C340 C -0.04118 0.30564 -0.13557
 H341 H -0.05065 0.31643 -0.12615
 C342 C -0.01706 0.27685 -0.15840
 H343 H -0.00760 0.26556 -0.16716
 C344 C -0.02727 0.29332 -0.16880
 H345 H -0.02539 0.29474 -0.18557
 Zn346 Zn -0.00496 0.25392 -0.12196
 N347 N -0.01876 0.27525 -0.13726
 C348 C 0.02000 0.28732 -0.10647
 N349 N 0.01701 0.26604 -0.10616
 C350 C 0.03026 0.25309 -0.09558
 C351 C 0.04704 0.26152 -0.08435
 C352 C 0.03650 0.29639 -0.09546
 C353 C -0.04435 0.23588 -0.11323
 C354 C -0.06029 0.22578 -0.10161
 C355 C -0.03754 0.22642 -0.07180
 C356 C -0.02218 0.23679 -0.08400
 N357 N -0.02568 0.24097 -0.10441
 H358 H 0.00977 0.29735 -0.11546
 H359 H 0.02784 0.23618 -0.09594
 H360 H 0.05724 0.25099 -0.07578
 H361 H 0.03872 0.31335 -0.09614
 H362 H -0.04670 0.23933 -0.12955
 H363 H -0.07425 0.22117 -0.10995
 H364 H -0.03408 0.22416 -0.05551
 H365 H -0.00744 0.24144 -0.07709
 C366 C -0.03928 0.30815 -0.15729
 C367 C 0.02931 0.20179 -0.16127
 C368 C -0.05719 0.22044 -0.08040
 C369 C 0.05026 0.28348 -0.08414
 C370 C 0.47558 0.23320 0.15769
 H371 H 0.47000 0.24936 0.15750
 C372 C 0.46404 0.21779 0.16865
 H373 H 0.44971 0.22224 0.17714
 C374 C 0.50052 0.20754 0.14603
 H375 H 0.51429 0.20340 0.13664
 C376 C 0.48960 0.19170 0.15690
 H377 H 0.49519 0.17555 0.15574
 N378 N 0.49330 0.22780 0.14646
 C379 C 0.53074 0.28424 0.13313
 H380 H 0.53212 0.28268 0.11636
 C381 C 0.54084 0.30085 0.14314
 H382 H 0.54980 0.31219 0.13389
 C383 C 0.51692 0.27148 0.16541
 H384 H 0.50769 0.25988 0.17399
 C385 C 0.52671 0.28797 0.17608
 H386 H 0.52498 0.28890 0.19289
 Zn387 Zn 0.50593 0.24844 0.12882
 N388 N 0.51893 0.27009 0.14429
 C389 C 0.47970 0.28101 0.11320
 N390 N 0.48403 0.25996 0.11251
 C391 C 0.47198 0.24650 0.10125
 C392 C 0.45505 0.25415 0.08972
 C393 C 0.46283 0.28931 0.10204
 C394 C 0.54510 0.22903 0.12118
 C395 C 0.56117 0.21893 0.10970
 C396 C 0.54053 0.22344 0.07868
 C397 C 0.52488 0.23355 0.09075
 N398 N 0.52724 0.23578 0.11168
 H399 H 0.48912 0.29141 0.12260
 H400 H 0.47545 0.22975 0.10138
 H401 H 0.44552 0.24319 0.08098
 H402 H 0.45969 0.30613 0.10266
 H403 H 0.54671 0.23132 0.13779
 H404 H 0.57526 0.21372 0.11759
 H405 H 0.53805 0.22126 0.06216
 H406 H 0.51079 0.23937 0.08338
 C407 C 0.53885 0.30293 0.16489
 C408 C 0.47089 0.19666 0.16807
 C409 C 0.55891 0.21577 0.08817
 C410 C 0.45025 0.27582 0.09011
 C411 C 0.96912 0.73323 0.66028
 H412 H 0.96321 0.74929 0.66029
 C413 C 0.95765 0.71738 0.67063
 H414 H 0.94305 0.72138 0.67889
 C415 C 0.99479 0.70831 0.64857
 H416 H 1.00884 0.70467 0.63934
 C417 C 0.98395 0.69203 0.65884
 H418 H 0.98985 0.67601 0.65743
 N419 N 0.98713 0.72840 0.64926
 C420 C 1.02216 0.78632 0.63664
 H421 H 1.02371 0.78474 0.61988
 C422 C 1.03091 0.80372 0.64654
 H423 H 1.03941 0.81539 0.63729
 C424 C 1.00928 0.77278 0.66898
 H425 H 1.00077 0.76067 0.67757
 C426 C 1.01790 0.78998 0.67958
 H427 H 1.01578 0.79111 0.69635
 Zn428 Zn 0.99926 0.74958 0.63203
 N429 N 1.01127 0.77152 0.64784
 C430 C 0.97165 0.78144 0.61786
 N431 N 0.97705 0.76072 0.61581
 C432 C 0.96543 0.74739 0.60396
 C433 C 0.94760 0.75481 0.59358
 C434 C 0.95395 0.78948 0.60787
 C435 C 1.03931 0.73252 0.62530
 C436 C 1.05661 0.72406 0.61429
 C437 C 1.03674 0.72695 0.58258
 C438 C 1.01984 0.73557 0.59421
 N439 N 1.02135 0.73796 0.61522
 H440 H 0.98066 0.79172 0.62775
 H441 H 0.96970 0.73085 0.60303
 H442 H 0.93826 0.74391 0.58457
 H443 H 0.94991 0.80601 0.60978
 H444 H 1.04013 0.73474 0.64200
 H445 H 1.07067 0.71958 0.62266
 H446 H 1.03536 0.72516 0.56587
 H447 H 1.00558 0.74035 0.58643
 C448 C 1.02858 0.80589 0.66825
 C449 C 0.96487 0.69640 0.66966
 C450 C 1.05544 0.72112 0.59266
 C451 C 0.94152 0.77607 0.59573
 C452 C 0.52564 0.73431 0.34971
 H453 H 0.53161 0.75032 0.35011
 C454 C 0.53721 0.71860 0.33919
 H455 H 0.55195 0.72269 0.33122
 C456 C 0.49966 0.70933 0.36042
 H457 H 0.48541 0.70557 0.36926
 C458 C 0.51059 0.69321 0.34998
 H459 H 0.50455 0.67722 0.35092
 N460 N 0.50737 0.72939 0.36025
 C461 C 0.46950 0.78566 0.37232
 H462 H 0.46723 0.78353 0.38896
 C463 C 0.45928 0.80216 0.36225
 H464 H 0.44981 0.81283 0.37176
 C465 C 0.48573 0.77453 0.34060
 H466 H 0.49582 0.76348 0.33222
 C467 C 0.47603 0.79109 0.32985
 H468 H 0.47865 0.79206 0.31315
 Zn469 Zn 0.49443 0.75029 0.37737
 N470 N 0.48239 0.77226 0.36148
 C471 C 0.52034 0.78247 0.39369
 N472 N 0.51572 0.76149 0.39457
 C473 C 0.52720 0.74803 0.40646
 C474 C 0.54398 0.75559 0.41823
 C475 C 0.53705 0.79066 0.40508
 C476 C 0.45440 0.73259 0.38297
 C477 C 0.43692 0.72401 0.39359
 C478 C 0.45594 0.72710 0.42577
 C479 C 0.47304 0.73582 0.41453
 N480 N 0.47204 0.73818 0.39348
 H481 H 0.51134 0.79287 0.38385
 H482 H 0.52351 0.73134 0.40651
 H483 H 0.55315 0.74461 0.42737
 H484 H 0.54047 0.80740 0.40419
 H485 H 0.45396 0.73483 0.36625
 H486 H 0.42311 0.71944 0.38490
 H487 H 0.45692 0.72539 0.44254
 H488 H 0.48700 0.74076 0.42267
 C489 C 0.46232 0.80526 0.34058
 C490 C 0.52983 0.69767 0.33950
 C491 C 0.43757 0.72113 0.41527
 C492 C 0.54919 0.77715 0.41747
 C493 C 0.36299 -0.00582 0.22433
 C494 C 0.37112 0.00447 0.24180
 C495 C 0.38129 0.02402 0.23929
 C496 C 0.38350 0.03328 0.21947
 C497 C 0.37528 0.02281 0.20211
 C498 C 0.36490 0.00325 0.20434
 C499 C 0.36869 -0.00508 0.26276
 C500 C 0.37552 -0.02587 0.26637
 C501 C 0.37343 -0.03495 0.28631
 C502 C 0.36410 -0.02303 0.30257
 C503 C 0.35698 -0.00231 0.29914
 C504 C 0.35949 0.00661 0.27919
 H505 H 0.35463 -0.02062 0.22651
 H506 H 0.38749 0.03203 0.25280
 H507 H 0.38253 -0.03491 0.25364
 H508 H 0.35425 0.02266 0.27638
 H509 H 0.37751 0.02969 0.18674
 H510 H 0.36239 -0.02990 0.31799
 C511 C 0.13388 1.00742 0.72928
 C512 C 0.12293 0.99665 0.74528
 C513 C 0.11207 0.97793 0.74083
 C514 C 0.11146 0.97037 0.72026
 C515 C 0.12241 0.98140 0.70435
 C516 C 0.13382 0.99990 0.70867
 C517 C 0.12174 1.00589 0.76636
 C518 C 0.11222 1.02572 0.76925
 C519 C 0.11116 1.03505 0.78907
 C520 C 0.12006 1.02442 0.80604
 C521 C 0.12974 1.00455 0.80335
 C522 C 0.13034 0.99528 0.78342
 H523 H 0.14253 1.02164 0.73307
 H524 H 0.10329 0.96986 0.75316
 H525 H 0.10569 1.03392 0.75598
 H526 H 0.13764 0.97992 0.78111
 H527 H 0.12175 0.97566 0.68847
 H528 H 0.11950 1.03167 0.82134
 C529 C 0.63661 0.50738 0.22609
 C530 C 0.62787 0.49521 0.24240
 C531 C 0.62167 0.47431 0.23854
 C532 C 0.62415 0.46552 0.21853
 C533 C 0.63335 0.47781 0.20246
 C534 C 0.63969 0.49876 0.20607
 C535 C 0.62582 0.50425 0.26361
 C536 C 0.61604 0.52394 0.26677
 C537 C 0.61490 0.53301 0.28674
 C538 C 0.62395 0.52227 0.30358
 C539 C 0.63373 0.50250 0.30066
 C540 C 0.63444 0.49354 0.28062
 H541 H 0.64121 0.52356 0.22913
 H542 H 0.61493 0.46491 0.25116
 H543 H 0.60941 0.53224 0.25362
 H544 H 0.64240 0.47855 0.27807
 H545 H 0.63554 0.47100 0.18708
 H546 H 0.62289 0.52905 0.31908
 C547 C 0.85737 0.49232 0.72230
 C548 C 0.86464 0.50328 0.73976
 C549 C 0.87470 0.52286 0.73709
 C550 C 0.87751 0.53164 0.71715
 C551 C 0.86985 0.52074 0.69981
 C552 C 0.85978 0.50103 0.70220
 C553 C 0.86160 0.49461 0.76097
 C554 C 0.87093 0.47531 0.76649
 C555 C 0.86978 0.46815 0.78724
 C556 C 0.85833 0.48007 0.80217
 C557 C 0.84883 0.49934 0.79679
 C558 C 0.85066 0.50654 0.77614
 H559 H 0.84977 0.47710 0.72443
 H560 H 0.88033 0.53128 0.75061
 H561 H 0.88008 0.46655 0.75490
 H562 H 0.84356 0.52148 0.77181
 H563 H 0.87179 0.52761 0.68441
 H564 H 0.85738 0.47467 0.81820
 C565 C 0.22438 0.35663 -0.00284
 C566 C 0.24029 0.36639 0.00869
 C567 C 0.23506 0.37632 0.02766
 C568 C 0.21397 0.37680 0.03508
 C569 C 0.19829 0.36650 0.02363
 C570 C 0.20328 0.35645 0.00462
 C571 C 0.26236 0.36672 0.00066
 C572 C 0.26729 0.37645 -0.01851
 C573 C 0.28839 0.37749 -0.02590
 C574 C 0.30440 0.36791 -0.01421
 C575 C 0.29965 0.35798 0.00491
 C576 C 0.27858 0.35771 0.01239
 H577 H 0.22847 0.34928 -0.01764
 H578 H 0.24732 0.38439 0.03616
 H579 H 0.25477 0.38392 -0.02721
 H580 H 0.27466 0.35008 0.02711
 H581 H 0.18212 0.36614 0.02967
 H582 H 0.32069 0.36841 -0.01990
 C583 C 0.72275 0.11838 1.01048
 C584 C 0.74059 0.11108 0.99921
 C585 C 0.73815 0.10319 0.97893
 C586 C 0.71803 0.10257 0.96990
 C587 C 0.70037 0.11021 0.98137
 C588 C 0.70263 0.11825 1.00159
 C589 C 0.76185 0.11309 1.00830
 C590 C 0.76549 0.10589 1.02861
 C591 C 0.78509 0.10935 1.03800
 C592 C 0.80102 0.12039 1.02691
 C593 C 0.79769 0.12763 1.00648
 C594 C 0.77809 0.12359 0.99721
 H595 H 0.72474 0.12510 1.02586
 H596 H 0.75197 0.09780 0.97013
 H597 H 0.75291 0.09787 1.03723
 H598 H 0.77521 0.12904 0.98150
 H599 H 0.68475 0.10964 0.97467
 H600 H 0.81598 0.12347 1.03431
 C601 C 0.21793 0.62886 0.50831
 C602 C 0.23599 0.62036 0.49830
 C603 C 0.23448 0.61244 0.47795
 C604 C 0.21508 0.61293 0.46759
 C605 C 0.19719 0.62176 0.47775
 C606 C 0.19847 0.62987 0.49808
 C607 C 0.25656 0.62044 0.50895
 C608 C 0.25816 0.61219 0.52918
 C609 C 0.27739 0.61318 0.53972
 C610 C 0.29508 0.62266 0.52994
 C611 C 0.29384 0.63077 0.50957
 C612 C 0.27449 0.62944 0.49915
 H613 H 0.21915 0.63493 0.52404
 H614 H 0.24845 0.60596 0.47018
 H615 H 0.24438 0.60511 0.53677
 H616 H 0.27325 0.63560 0.48345
 H617 H 0.18224 0.62238 0.46975
 H618 H 0.30984 0.62367 0.53823
 C619 C 0.72192 0.85824 0.49323
 C620 C 0.73831 0.86728 0.50465
 C621 C 0.73368 0.87726 0.52374
 C622 C 0.71264 0.87857 0.53132
 C623 C 0.69645 0.86894 0.51994
 C624 C 0.70093 0.85873 0.50092
 C625 C 0.76029 0.86633 0.49643
 C626 C 0.76581 0.87674 0.47776
 C627 C 0.78662 0.87557 0.46956
 C628 C 0.80161 0.86319 0.47999
 C629 C 0.79630 0.85273 0.49870
 C630 C 0.77562 0.85463 0.50701
 H631 H 0.72565 0.85037 0.47860
 H632 H 0.74635 0.88466 0.53223
 H633 H 0.75398 0.88616 0.47000
 H634 H 0.77123 0.84650 0.52134
 H635 H 0.68022 0.86963 0.52578
 H636 H 0.81759 0.86177 0.47364
 C637 C 0.00401 0.21912 0.35325
 C638 C 0.01510 0.23592 0.36215
 C639 C 0.03521 0.23233 0.37041
 C640 C 0.04426 0.21205 0.36997
 C641 C 0.03310 0.19540 0.36076
 C642 C 0.01298 0.19880 0.35230
 C643 C 0.00577 0.25734 0.36269
 C644 C -0.01420 0.26081 0.37215
 C645 C -0.02276 0.28129 0.37330
 C646 C -0.01147 0.29814 0.36411
 C647 C 0.00839 0.29484 0.35436
 C648 C 0.01703 0.27440 0.35397
 H649 H -0.01158 0.22194 0.34700
 H650 H 0.04375 0.24536 0.37726
 H651 H -0.02264 0.24769 0.37933
 H652 H 0.03232 0.27162 0.34643
 H653 H 0.04005 0.17974 0.36024
 H654 H -0.01806 0.31395 0.36474
 C655 C 1.00971 0.72716 0.12531
 C656 C 0.99783 0.74326 0.11606
 C657 C 0.97719 0.73901 0.10946
 C658 C 0.96836 0.71879 0.11201
 C659 C 0.98035 0.70291 0.12161
 C660 C 1.00098 0.70696 0.12846
 C661 C 1.00660 0.76482 0.11432
 C662 C 1.02633 0.76835 0.10443
 C663 C 1.03498 0.78881 0.10332
 C664 C 1.02373 0.80563 0.11274
 C665 C 1.00394 0.80231 0.12263
 C666 C 0.99542 0.78185 0.12318
 H667 H 1.02562 0.73054 0.13040
 H668 H 0.96797 0.75155 0.10253
 H669 H 1.03464 0.75518 0.09721
 H670 H 0.98038 0.77899 0.13116
 H671 H 0.97350 0.68738 0.12392
 H672 H 1.03035 0.82141 0.11239
 C673 C 0.50906 0.22397 0.63018
 C674 C 0.49865 0.24173 0.62217
 C675 C 0.47829 0.23950 0.61403
 C676 C 0.46825 0.21974 0.61388
 C677 C 0.47874 0.20215 0.62223
 C678 C 0.49914 0.20409 0.63046
 C679 C 0.50887 0.26273 0.62257
 C680 C 0.52931 0.26561 0.61399
 C681 C 0.53863 0.28575 0.61357
 C682 C 0.52757 0.30289 0.62253
 C683 C 0.50720 0.30022 0.63142
 C684 C 0.49790 0.28007 0.63116
 H685 H 0.52484 0.22571 0.63634
 H686 H 0.47025 0.25322 0.60784
 H687 H 0.53756 0.25234 0.60688
 H688 H 0.48204 0.27781 0.63758
 H689 H 0.47096 0.18690 0.62235
 H690 H 0.53502 0.31829 0.62284
 C691 C 0.49576 0.71640 0.85157
 C692 C 0.50695 0.73348 0.85991
 C693 C 0.52575 0.72979 0.87068
 C694 C 0.53323 0.70911 0.87352
 C695 C 0.52211 0.69222 0.86470
 C696 C 0.50332 0.69566 0.85381
 C697 C 0.49825 0.75507 0.85865
 C698 C 0.47841 0.75964 0.86785
 C699 C 0.47058 0.78040 0.86808
 C700 C 0.48243 0.79645 0.85819
 C701 C 0.50217 0.79204 0.84858
 C702 C 0.51013 0.77130 0.84916
 H703 H 0.48101 0.71929 0.84366
 H704 H 0.53391 0.74296 0.87772
 H705 H 0.46957 0.74719 0.87571
 H706 H 0.52540 0.76766 0.84197
 H707 H 0.52817 0.67629 0.86627
 H708 H 0.47643 0.81250 0.85829
 C709 C 0.46091 -0.16855 0.31191
 C710 C 0.45139 -0.15096 0.30267
 C711 C 0.43266 -0.14242 0.31112
 C712 C 0.42325 -0.15195 0.32876
 C713 C 0.43280 -0.16931 0.33816
 C714 C 0.45206 -0.17781 0.33019
 N715 N 0.42398 -0.12355 0.30227
 N716 N 0.40632 -0.11604 0.30878
 C717 C 0.39770 -0.09658 0.30130
 C718 C 0.37783 -0.09010 0.30898
 C719 C 0.36964 -0.07037 0.30359
 C720 C 0.38130 -0.05666 0.29045
 C721 C 0.40099 -0.06350 0.28220
 C722 C 0.40915 -0.08331 0.28759
 H723 H 0.47585 -0.17397 0.30526
 H724 H 0.45888 -0.14370 0.28911
 H725 H 0.40863 -0.14580 0.33552
 H726 H 0.42458 -0.17628 0.35144
 H727 H 0.36885 -0.10021 0.31954
 H728 H 0.35428 -0.06574 0.30990
 H729 H 0.41044 -0.05322 0.27221
 H730 H 0.42461 -0.08796 0.28154
 C731 C 0.93989 0.32408 0.81347
 C732 C 0.92940 0.34130 0.80455
 C733 C 0.92938 0.36106 0.81438
 C734 C 0.94039 0.36353 0.83306
 C735 C 0.95083 0.34641 0.84195
 C736 C 0.95048 0.32643 0.83243
 N737 N 0.91773 0.37826 0.80557
 N738 N 0.91673 0.39607 0.81474
 C739 C 0.90510 0.41377 0.80706
 C740 C 0.90489 0.43232 0.81885
 C741 C 0.89344 0.44990 0.81236
 C742 C 0.88189 0.44926 0.79385
 C743 C 0.88231 0.43067 0.78181
 C744 C 0.89379 0.41298 0.78841
 H745 H 0.93926 0.30885 0.80584
 H746 H 0.92099 0.33917 0.79015
 H747 H 0.94081 0.37864 0.84092
 H748 H 0.95920 0.34882 0.85633
 H749 H 0.91363 0.43311 0.83320
 H750 H 0.89381 0.46411 0.82173
 H751 H 0.87352 0.42974 0.76751
 H752 H 0.89374 0.39876 0.77905
 C753 C 0.06394 1.18320 0.83238
 C754 C 0.07546 1.16546 0.82578
 C755 C 0.06530 1.14870 0.81589
 C756 C 0.04350 1.15020 0.81197
 C757 C 0.03194 1.16787 0.81865
 C758 C 0.04197 1.18438 0.82928
 N759 N 0.07710 1.12989 0.81119
 N760 N 0.06886 1.11428 0.80186
 C761 C 0.08019 1.09499 0.79815
 C762 C 0.07075 1.07924 0.78620
 C763 C 0.08092 1.05985 0.78305
 C764 C 0.10067 1.05582 0.79203
 C765 C 0.11018 1.07169 0.80396
 C766 C 0.10007 1.09116 0.80694
 H767 H 0.07204 1.19556 0.84074
 H768 H 0.09224 1.16446 0.82894
 H769 H 0.03528 1.13747 0.80430
 H770 H 0.01507 1.16846 0.81589
 H771 H 0.05537 1.08195 0.77948
 H772 H 0.07315 1.04782 0.77396
 H773 H 0.12549 1.06905 0.81088
 H774 H 0.10764 1.10307 0.81632
 C775 C 0.56464 0.67919 0.33366
 C776 C 0.57641 0.66165 0.32693
 C777 C 0.56654 0.64497 0.31663
 C778 C 0.54476 0.64628 0.31257
 C779 C 0.53295 0.66375 0.31940
 C780 C 0.54270 0.68024 0.33030
 N781 N 0.57869 0.62648 0.31149
 N782 N 0.57088 0.61106 0.30150
 C783 C 0.58265 0.59212 0.29725
 C784 C 0.57365 0.57657 0.28472
 C785 C 0.58426 0.55748 0.28105
 C786 C 0.60402 0.55356 0.29006
 C787 C 0.61310 0.56926 0.30253
 C788 C 0.60255 0.58842 0.30604
 H789 H 0.57254 0.69152 0.34224
 H790 H 0.59316 0.66080 0.33021
 H791 H 0.53676 0.63359 0.30461
 H792 H 0.51611 0.66423 0.31643
 H793 H 0.55827 0.57918 0.27797
 H794 H 0.57680 0.54559 0.27155
 H795 H 0.62840 0.56672 0.30950
 H796 H 0.60981 0.60018 0.31585
 C797 C 0.53810 0.33222 0.19133
 C798 C 0.54715 0.35018 0.20021
 C799 C 0.56729 0.35708 0.19364
 C800 C 0.57857 0.34544 0.17839
 C801 C 0.56953 0.32755 0.16948
 C802 C 0.54906 0.32092 0.17561
 N803 N 0.57545 0.37644 0.20182
 N804 N 0.59353 0.38359 0.19615
 C805 C 0.60150 0.40341 0.20333
 C806 C 0.62139 0.41022 0.19600
 C807 C 0.62901 0.43016 0.20135
 C808 C 0.61681 0.44371 0.21418
 C809 C 0.59708 0.43659 0.22203
 C810 C 0.58946 0.41662 0.21663
 H811 H 0.52224 0.32762 0.19625
 H812 H 0.53826 0.35904 0.21190
 H813 H 0.59420 0.35039 0.17308
 H814 H 0.57849 0.31898 0.15763
 H815 H 0.63083 0.40017 0.18577
 H816 H 0.64440 0.43506 0.19532
 H817 H 0.58723 0.44674 0.23177
 H818 H 0.57400 0.41173 0.22245
 C819 C 0.04797 0.82339 0.69750
 C820 C 0.05700 0.84139 0.70640
 C821 C 0.05509 0.86114 0.69673
 C822 C 0.04352 0.86279 0.67829
 C823 C 0.03457 0.84489 0.66940
 C824 C 0.03697 0.82494 0.67870
 N825 N 0.06568 0.87912 0.70524
 N826 N 0.06488 0.89704 0.69627
 C827 C 0.07577 0.91535 0.70351
 C828 C 0.07439 0.93393 0.69183
 C829 C 0.08573 0.95186 0.69749
 C830 C 0.09870 0.95152 0.71505
 C831 C 0.09966 0.93300 0.72715
 C832 C 0.08834 0.91497 0.72137
 H833 H 0.05014 0.80820 0.70495
 H834 H 0.06588 0.83988 0.72060
 H835 H 0.04165 0.87786 0.67054
 H836 H 0.02583 0.84664 0.65513
 H837 H 0.06471 0.93440 0.67807
 H838 H 0.08439 0.96601 0.68809
 H839 H 0.10960 0.93232 0.74071
 H840 H 0.08964 0.90073 0.73062
 C841 C 0.92991 0.67823 0.67478
 C842 C 0.91792 0.66065 0.68091
 C843 C 0.92754 0.64354 0.69080
 C844 C 0.94931 0.64441 0.69504
 C845 C 0.96135 0.66192 0.68878
 C846 C 0.95182 0.67887 0.67832
 N847 N 0.91518 0.62506 0.69526
 N848 N 0.92261 0.60935 0.70514
 C849 C 0.91059 0.59045 0.70861
 C850 C 0.91879 0.57474 0.72153
 C851 C 0.90789 0.55574 0.72454
 C852 C 0.88868 0.55206 0.71444
 C853 C 0.88041 0.56788 0.70152
 C854 C 0.89122 0.58697 0.69870
 H855 H 0.92219 0.69093 0.66650
 H856 H 0.90119 0.66012 0.67748
 H857 H 0.95711 0.63136 0.70267
 H858 H 0.97818 0.66208 0.69183
 H859 H 0.93376 0.57718 0.72914
 H860 H 0.91470 0.54371 0.73442
 H861 H 0.86555 0.56549 0.69370
 H862 H 0.88460 0.59885 0.68855
 C863 C 0.43581 0.17910 0.17470
 C864 C 0.42381 0.16179 0.18155
 C865 C 0.43353 0.14478 0.19153
 C866 C 0.45542 0.14551 0.19516
 C867 C 0.46748 0.16275 0.18818
 C868 C 0.45785 0.17956 0.17758
 N869 N 0.42111 0.12648 0.19661
 N870 N 0.42867 0.11083 0.20649
 C871 C 0.41656 0.09206 0.21046
 C872 C 0.42505 0.07627 0.22312
 C873 C 0.41414 0.05730 0.22639
 C874 C 0.39462 0.05375 0.21680
 C875 C 0.38603 0.06970 0.20426
 C876 C 0.39684 0.08874 0.20117
 H877 H 0.42801 0.19169 0.16635
 H878 H 0.40697 0.16137 0.17859
 H879 H 0.46330 0.13254 0.20284
 H880 H 0.48439 0.16278 0.19075
 H881 H 0.44028 0.07860 0.23026
 H882 H 0.42120 0.04519 0.23598
 H883 H 0.37092 0.06741 0.19684
 H884 H 0.38998 0.10067 0.19125
 C885 C 0.30524 0.44256 -0.17210
 C886 C 0.29756 0.43263 -0.15393
 C887 C 0.30894 0.43373 -0.13543
 C888 C 0.32793 0.44531 -0.13518
 C889 C 0.33562 0.45517 -0.15327
 C890 C 0.32453 0.45368 -0.17201
 N891 N 0.30136 0.42258 -0.11727
 N892 N 0.31159 0.42291 -0.10037
 C893 C 0.30501 0.41169 -0.08196
 C894 C 0.31745 0.41330 -0.06425
 C895 C 0.31200 0.40226 -0.04608
 C896 C 0.29393 0.38927 -0.04530
 C897 C 0.28128 0.38781 -0.06308
 C898 C 0.28679 0.39891 -0.08131
 H899 H 0.29643 0.44105 -0.18634
 H900 H 0.28290 0.42376 -0.15434
 H901 H 0.33699 0.44656 -0.12108
 H902 H 0.35032 0.46395 -0.15262
 H903 H 0.33149 0.42315 -0.06456
 H904 H 0.32183 0.40405 -0.03255
 H905 H 0.26735 0.37783 -0.06299
 H906 H 0.27697 0.39739 -0.09487
 C907 C 0.80594 0.95286 0.32913
 C908 C 0.79751 0.94344 0.34727
 C909 C 0.81089 0.93357 0.36149
 C910 C 0.83283 0.93291 0.35720
 C911 C 0.84119 0.94197 0.33898
 C912 C 0.82786 0.95209 0.32480
 N913 N 0.80206 0.92420 0.38010
 N914 N 0.81390 0.91896 0.39510
 C915 C 0.80614 0.90892 0.41375
 C916 C 0.81980 0.90705 0.43052
 C917 C 0.81328 0.89663 0.44873
 C918 C 0.79300 0.88747 0.45039
 C919 C 0.77916 0.88960 0.43354
 C920 C 0.78565 0.90032 0.41537
 H921 H 0.79536 0.96052 0.31838
 H922 H 0.78058 0.94401 0.35036
 H923 H 0.84352 0.92530 0.36787
 H924 H 0.85817 0.94137 0.33611
 H925 H 0.83560 0.91369 0.42946
 H926 H 0.82418 0.89581 0.46153
 H927 H 0.76352 0.88257 0.43419
 H928 H 0.77488 0.90147 0.40248
 C929 C 0.81400 0.02250 1.16804
 C930 C 0.80616 0.03061 1.14942
 C931 C 0.80604 0.05233 1.14570
 C932 C 0.81288 0.06607 1.16130
 C933 C 0.82054 0.05809 1.18004
 C934 C 0.82194 0.03605 1.18363
 N935 N 0.79989 0.05992 1.12565
 N936 N 0.80246 0.07910 1.12020
 C937 C 0.79706 0.08661 1.09990
 C938 C 0.80257 0.10726 1.09420
 C939 C 0.79860 0.11473 1.07413
 C940 C 0.78883 0.10166 1.05946
 C941 C 0.78289 0.08106 1.06535
 C942 C 0.78705 0.07354 1.08537
 H943 H 0.81496 0.00551 1.16928
 H944 H 0.80094 0.01982 1.13747
 H945 H 0.81251 0.08301 1.15896
 H946 H 0.82509 0.06949 1.19165
 H947 H 0.81027 0.11748 1.10526
 H948 H 0.80309 0.13075 1.07009
 H949 H 0.77547 0.07062 1.05430
 H950 H 0.78263 0.05751 1.08941
 C951 C 0.30768 0.51799 0.66257
 C952 C 0.29979 0.52666 0.64421
 C953 C 0.29455 0.54810 0.64322
 C954 C 0.29600 0.56059 0.66122
 C955 C 0.30349 0.55186 0.67971
 C956 C 0.31009 0.53061 0.68045
 N957 N 0.28910 0.55708 0.62352
 N958 N 0.28958 0.57693 0.62037
 C959 C 0.28499 0.58605 0.60051
 C960 C 0.29060 0.60711 0.59673
 C961 C 0.28793 0.61605 0.57702
 C962 C 0.27918 0.60411 0.56088
 C963 C 0.27286 0.58319 0.56488
 C964 C 0.27590 0.57414 0.58450
 H965 H 0.31280 0.50167 0.66237
 H966 H 0.29873 0.51688 0.63042
 H967 H 0.29171 0.57715 0.66091
 H968 H 0.30452 0.56193 0.69328
 H969 H 0.29761 0.61644 0.60895
 H970 H 0.29277 0.63225 0.57432
 H971 H 0.26616 0.57368 0.55262
 H972 H 0.27138 0.55784 0.58709
 C973 C 0.16606 0.57443 0.32294
 C974 C 0.17339 0.58467 0.34065
 C975 C 0.18709 0.57434 0.35417
 C976 C 0.19417 0.55381 0.34931
 C977 C 0.18694 0.54356 0.33146
 C978 C 0.17242 0.55362 0.31838
 N979 N 0.19240 0.58460 0.37325
 N980 N 0.20377 0.57594 0.38702
 C981 C 0.20778 0.58617 0.40649
 C982 C 0.21995 0.57573 0.42133
 C983 C 0.22277 0.58463 0.44105
 C984 C 0.21334 0.60413 0.44625
 C985 C 0.20159 0.61482 0.43111
 C986 C 0.19883 0.60594 0.41142
 H987 H 0.15511 0.58265 0.31297
 H988 H 0.16787 0.60050 0.34421
 H989 H 0.20479 0.54551 0.35955
 H990 H 0.19199 0.52748 0.32836
 H991 H 0.22686 0.56046 0.41777
 H992 H 0.23175 0.57595 0.45245
 H993 H 0.19442 0.63001 0.43455
 H994 H 0.18938 0.61438 0.40021
 C995 C 0.65959 0.06465 0.82908
 C996 C 0.66704 0.07425 0.84706
 C997 C 0.68398 0.06555 0.85775
 C998 C 0.69411 0.04743 0.84978
 C999 C 0.68686 0.03785 0.83155
 C1000 C 0.66902 0.04595 0.82114
 N1001 N 0.68981 0.07508 0.87703
 N1002 N 0.70376 0.06740 0.88895
 C1003 C 0.70830 0.07714 0.90855
 C1004 C 0.72252 0.06737 0.92200
 C1005 C 0.72605 0.07580 0.94181
 C1006 C 0.71535 0.09419 0.94848
 C1007 C 0.70154 0.10427 0.93469
 C1008 C 0.69802 0.09583 0.91495
 H1009 H 0.64666 0.07236 0.82126
 H1010 H 0.65930 0.08840 0.85292
 H1011 H 0.70731 0.04044 0.85784
 H1012 H 0.69457 0.02342 0.82649
 H1013 H 0.73051 0.05293 0.91730
 H1014 H 0.73666 0.06759 0.95214
 H1015 H 0.69337 0.11867 0.93919
 H1016 H 0.68703 0.10380 0.90483
 C1017 C 0.69580 0.94849 0.67567
 C1018 C 0.70322 0.93702 0.65829
 C1019 C 0.69210 0.93741 0.63959
 C1020 C 0.67344 0.94947 0.63847
 C1021 C 0.66604 0.96088 0.65573
 C1022 C 0.67713 0.96062 0.67454
 N1023 N 0.69971 0.92536 0.62201
 N1024 N 0.68982 0.92556 0.60490
 C1025 C 0.69632 0.91381 0.58679
 C1026 C 0.68397 0.91534 0.56900
 C1027 C 0.68936 0.90396 0.55104
 C1028 C 0.70728 0.89073 0.55053
 C1029 C 0.71986 0.88936 0.56837
 C1030 C 0.71439 0.90079 0.58643
 H1031 H 0.70473 0.94803 0.68991
 H1032 H 0.71762 0.92778 0.65940
 H1033 H 0.66442 0.94998 0.62429
 H1034 H 0.65135 0.96961 0.65443
 H1035 H 0.67007 0.92540 0.56909
 H1036 H 0.67959 0.90569 0.53745
 H1037 H 0.73369 0.87921 0.56846
 H1038 H 0.72416 0.89937 0.60005
 C1039 C 0.19612 0.45096 0.17719
 C1040 C 0.20363 0.43893 0.16022
 C1041 C 0.19192 0.43764 0.14193
 C1042 C 0.17253 0.44851 0.14081
 C1043 C 0.16505 0.46046 0.15765
 C1044 C 0.17676 0.46195 0.17601
 N1045 N 0.19977 0.42527 0.12469
 N1046 N 0.18947 0.42421 0.10785
 C1047 C 0.19622 0.41218 0.09005
 C1048 C 0.18360 0.41260 0.07240
 C1049 C 0.18939 0.40112 0.05464
 C1050 C 0.20800 0.38885 0.05420
 C1051 C 0.22078 0.38850 0.07195
 C1052 C 0.21492 0.40007 0.08979
 H1053 H 0.20552 0.45186 0.19110
 H1054 H 0.21859 0.43063 0.16131
 H1055 H 0.16305 0.44770 0.12695
 H1056 H 0.14984 0.46828 0.15640
 H1057 H 0.16921 0.42196 0.07242
 H1058 H 0.17943 0.40208 0.04111
 H1059 H 0.23512 0.37909 0.07212
 H1060 H 0.22491 0.39951 0.10331
 C1061 C -0.14248 0.34549 0.46005
 C1062 C -0.12351 0.33811 0.45119
 C1063 C -0.12331 0.32030 0.43833
 C1064 C -0.14236 0.30945 0.43485
 C1065 C -0.16144 0.31680 0.44382
 C1066 C -0.16171 0.33513 0.45621
 N1067 N -0.10366 0.31432 0.42845
 N1068 N -0.10169 0.29870 0.41607
 C1069 C -0.08170 0.29401 0.40604
 C1070 C -0.07988 0.27644 0.39286
 C1071 C -0.06069 0.27206 0.38233
 C1072 C -0.04306 0.28536 0.38474
 C1073 C -0.04489 0.30282 0.39817
 C1074 C -0.06397 0.30711 0.40872
 H1075 H -0.14214 0.35943 0.46982
 H1076 H -0.10892 0.34653 0.45405
 H1077 H -0.14255 0.29562 0.42494
 H1078 H -0.17605 0.30857 0.44055
 H1079 H -0.09341 0.26624 0.39059
 H1080 H -0.05974 0.25855 0.37200
 H1081 H -0.03148 0.31314 0.40062
 H1082 H -0.06488 0.32078 0.41884
 C1083 C 0.35855 0.84362 0.96517
 C1084 C 0.37668 0.83569 0.95511
 C1085 C 0.37503 0.82033 0.93959
 C1086 C 0.35495 0.81231 0.93471
 C1087 C 0.33671 0.82026 0.94481
 C1088 C 0.33832 0.83635 0.95981
 N1089 N 0.39390 0.81416 0.92840
 N1090 N 0.39422 0.80009 0.91422
 C1091 C 0.41342 0.79521 0.90285
 C1092 C 0.41394 0.77790 0.88926
 C1093 C 0.43250 0.77299 0.87789
 C1094 C 0.45072 0.78558 0.87975
 C1095 C 0.45008 0.80301 0.89329
 C1096 C 0.43166 0.80775 0.90478
 H1097 H 0.36032 0.85574 0.97691
 H1098 H 0.39208 0.84190 0.95906
 H1099 H 0.35332 0.80041 0.92273
 H1100 H 0.32132 0.81446 0.94029
 H1101 H 0.39998 0.76817 0.88754
 H1102 H 0.43257 0.75952 0.86749
 H1103 H 0.46398 0.81280 0.89524
 H1104 H 0.43168 0.82127 0.91510
 C1105 C 1.16571 0.85703 0.03871
 C1106 C 1.14588 0.85093 0.04659
 C1107 C 1.14072 0.82954 0.04851
 C1108 C 1.15549 0.81414 0.04188
 C1109 C 1.17528 0.82027 0.03355
 C1110 C 1.18061 0.84178 0.03221
 N1111 N 1.12046 0.82412 0.05741
 N1112 N 1.11567 0.80556 0.06350
 C1113 C 1.09516 0.80109 0.07251
 C1114 C 1.09188 0.78213 0.08334
 C1115 C 1.07235 0.77801 0.09329
 C1116 C 1.05563 0.79274 0.09231
 C1117 C 1.05886 0.81147 0.08086
 C1118 C 1.07843 0.81568 0.07119
 H1119 H 1.16942 0.87370 0.03760
 H1120 H 1.13459 0.86290 0.05156
 H1121 H 1.15173 0.79750 0.04311
 H1122 H 1.18657 0.80829 0.02859
 H1123 H 1.10466 0.77077 0.08451
 H1124 H 1.07053 0.76353 0.10213
 H1125 H 1.04622 0.82292 0.07929
 H1126 H 1.08047 0.83035 0.06269
 C1127 C 0.66163 0.34012 0.52438
 C1128 C 0.64249 0.33452 0.53413
 C1129 C 0.64181 0.31856 0.54918
 C1130 C 0.66060 0.30795 0.55431
 C1131 C 0.67989 0.31361 0.54459
 C1132 C 0.68059 0.32983 0.52955
 N1133 N 0.62190 0.31408 0.55935
 N1134 N 0.61929 0.29941 0.57273
 C1135 C 0.59903 0.29603 0.58276
 C1136 C 0.59612 0.27861 0.59599
 C1137 C 0.57648 0.27511 0.60600
 C1138 C 0.55952 0.28919 0.60307
 C1139 C 0.56253 0.30666 0.58980
 C1140 C 0.58204 0.31003 0.57972
 H1141 H 0.66166 0.35297 0.51322
 H1142 H 0.62813 0.34288 0.53016
 H1143 H 0.66043 0.29556 0.56596
 H1144 H 0.69423 0.30537 0.54884
 H1145 H 0.60908 0.26773 0.59853
 H1146 H 0.57463 0.26160 0.61625
 H1147 H 0.54967 0.31760 0.58702
 H1148 H 0.58384 0.32364 0.56960
 C1149 C 0.32249 0.16803 0.57391
 C1150 C 0.34006 0.17579 0.58431
 C1151 C 0.35431 0.18946 0.57420
 C1152 C 0.35028 0.19612 0.55372
 C1153 C 0.33258 0.18843 0.54330
 C1154 C 0.31882 0.17389 0.55314
 N1155 N 0.37334 0.19510 0.58463
 N1156 N 0.38768 0.20662 0.57625
 C1157 C 0.40713 0.21094 0.58659
 C1158 C 0.42238 0.22371 0.57668
 C1159 C 0.44210 0.22696 0.58573
 C1160 C 0.44691 0.21734 0.60485
 C1161 C 0.43140 0.20490 0.61498
 C1162 C 0.41168 0.20173 0.60597
 H1163 H 0.31199 0.15707 0.58196
 H1164 H 0.34298 0.17060 0.60010
 H1165 H 0.36109 0.20670 0.54559
 H1166 H 0.33019 0.19310 0.52726
 H1167 H 0.41911 0.23081 0.56171
 H1168 H 0.45381 0.23648 0.57749
 H1169 H 0.43455 0.19754 0.62986
 H1170 H 0.40017 0.19179 0.61397
 C1171 C 0.83346 0.69329 0.03001
 C1172 C 0.85194 0.70176 0.03834
 C1173 C 0.85898 0.69506 0.05784
 C1174 C 0.84698 0.68014 0.06923
 C1175 C 0.82859 0.67163 0.06091
 C1176 C 0.82179 0.67785 0.04107
 N1177 N 0.87876 0.70282 0.06532
 N1178 N 0.88592 0.69702 0.08284
 C1179 C 0.90607 0.70377 0.09026
 C1180 C 0.91263 0.69659 0.10973
 C1181 C 0.93270 0.70176 0.11697
 C1182 C 0.94663 0.71422 0.10478
 C1183 C 0.93982 0.72181 0.08540
 C1184 C 0.91971 0.71661 0.07816
 H1185 H 0.82870 0.69826 0.01463
 H1186 H 0.86106 0.71322 0.02939
 H1187 H 0.85202 0.67475 0.08437
 H1188 H 0.81974 0.66001 0.06993
 H1189 H 0.90223 0.68671 0.11919
 H1190 H 0.93733 0.69597 0.13212
 H1191 H 0.95027 0.73127 0.07557
 H1192 H 0.91501 0.72229 0.06301
 C1193 C 0.67524 0.69820 0.94882
 C1194 C 0.65807 0.70510 0.93704
 C1195 C 0.63902 0.69375 0.93730
 C1196 C 0.63724 0.67550 0.94972
 C1197 C 0.65430 0.66861 0.96142
 C1198 C 0.67354 0.67980 0.96110
 N1199 N 0.62187 0.70055 0.92455
 N1200 N 0.60449 0.69036 0.92447
 C1201 C 0.58691 0.69595 0.91183
 C1202 C 0.56868 0.68346 0.91321
 C1203 C 0.55130 0.68784 0.90084
 C1204 C 0.55184 0.70485 0.88671
 C1205 C 0.57009 0.71760 0.88551
 C1206 C 0.58756 0.71316 0.89796
 H1207 H 0.68980 0.70724 0.94834
 H1208 H 0.65968 0.71919 0.92755
 H1209 H 0.62275 0.66634 0.95015
 H1210 H 0.65256 0.65413 0.97029
 H1211 H 0.56800 0.67022 0.92391
 H1212 H 0.53734 0.67799 0.90246
 H1213 H 0.57097 0.73075 0.87471
 H1214 H 0.60154 0.72300 0.89663
 C1215 C 0.16494 0.18838 0.46988
 C1216 C 0.14770 0.19617 0.45889
 C1217 C 0.14623 0.19260 0.43744
 C1218 C 0.16277 0.18194 0.42683
 C1219 C 0.18019 0.17436 0.43777
 C1220 C 0.18118 0.17710 0.45948
 N1221 N 0.12731 0.19895 0.42715
 N1222 N 0.12348 0.19368 0.40844
 C1223 C 0.10410 0.19942 0.39861
 C1224 C 0.09985 0.19128 0.37884
 C1225 C 0.08051 0.19552 0.36939
 C1226 C 0.06514 0.20817 0.37954
 C1227 C 0.06963 0.21670 0.39919
 C1228 C 0.08890 0.21232 0.40869
 H1229 H 0.16542 0.19081 0.48659
 H1230 H 0.13508 0.20440 0.46723
 H1231 H 0.16202 0.17905 0.41022
 H1232 H 0.19242 0.16556 0.42943
 H1233 H 0.11142 0.18132 0.37091
 H1234 H 0.07757 0.18894 0.35413
 H1235 H 0.05801 0.22632 0.40747
 H1236 H 0.09179 0.21878 0.42400
 C1237 C 0.58242 0.09886 0.71771
 C1238 C 0.57239 0.11632 0.70890
 C1239 C 0.55899 0.11376 0.69198
 C1240 C 0.55534 0.09337 0.68416
 C1241 C 0.56523 0.07584 0.69307
 C1242 C 0.57905 0.07845 0.70981
 N1243 N 0.54951 0.13212 0.68298
 N1244 N 0.53848 0.13125 0.66660
 C1245 C 0.52907 0.14971 0.65770
 C1246 C 0.51786 0.14776 0.63920
 C1247 C 0.50835 0.16542 0.63020
 C1248 C 0.50982 0.18541 0.63964
 C1249 C 0.52121 0.18734 0.65817
 C1250 C 0.53077 0.16967 0.66712
 H1251 H 0.59277 0.10130 0.73076
 H1252 H 0.57525 0.13193 0.71512
 H1253 H 0.54498 0.09099 0.67111
 H1254 H 0.56249 0.06032 0.68658
 H1255 H 0.51652 0.13249 0.63174
 H1256 H 0.49995 0.16345 0.61577
 H1257 H 0.52239 0.20244 0.66599
 H1258 H 0.53930 0.17158 0.68147
 C1259 C 1.06174 0.57075 0.18889
 C1260 C 1.05101 0.58637 0.17783
 C1261 C 1.05421 0.60776 0.18227
 C1262 C 1.06818 0.61341 0.19812
 C1263 C 1.07898 0.59783 0.20913
 C1264 C 1.07596 0.57633 0.20456
 N1265 N 1.04331 0.62337 0.17035
 N1266 N 1.04511 0.64304 0.17401
 C1267 C 1.03437 0.65874 0.16206
 C1268 C 1.03569 0.67989 0.16814
 C1269 C 1.02506 0.69558 0.15711
 C1270 C 1.01300 0.69036 0.13963
 C1271 C 1.01199 0.66909 0.13337
 C1272 C 1.02253 0.65340 0.14451
 H1273 H 1.05929 0.55434 0.18485
 H1274 H 1.04031 0.58182 0.16563
 H1275 H 1.07087 0.62985 0.20189
 H1276 H 1.08964 0.60258 0.22128
 H1277 H 1.04475 0.68419 0.18166
 H1278 H 1.02591 0.71174 0.16256
 H1279 H 1.00311 0.66458 0.11980
 H1280 H 1.02142 0.63715 0.13941
 C1281 C 0.95229 0.92937 0.20833
 C1282 C 0.96395 0.91353 0.19806
 C1283 C 0.95394 0.89942 0.18467
 C1284 C 0.93203 0.90136 0.18156
 C1285 C 0.92038 0.91717 0.19176
 C1286 C 0.93035 0.93136 0.20527
 N1287 N 0.96623 0.88320 0.17456
 N1288 N 0.95782 0.86967 0.16262
 C1289 C 0.96980 0.85326 0.15249
 C1290 C 0.95915 0.83861 0.14020
 C1291 C 0.97023 0.82214 0.13039
 C1292 C 0.99227 0.82010 0.13267
 C1293 C 1.00298 0.83496 0.14487
 C1294 C 0.99185 0.85140 0.15474
 H1295 H 0.96046 0.94018 0.21847
 H1296 H 0.98083 0.91222 0.20056
 H1297 H 0.92389 0.89061 0.17134
 H1298 H 0.90346 0.91809 0.18932
 H1299 H 0.94218 0.83992 0.13830
 H1300 H 0.96160 0.81108 0.12089
 H1301 H 1.01990 0.83364 0.14711
 H1302 H 1.00043 0.86252 0.16420
 C1303 C 0.41302 0.40049 0.71696
 C1304 C 0.42425 0.38356 0.70814
 C1305 C 0.43890 0.38695 0.69182
 C1306 C 0.44240 0.40761 0.68446
 C1307 C 0.43129 0.42460 0.69337
 C1308 C 0.41640 0.42120 0.70965
 N1309 N 0.44997 0.36918 0.68305
 N1310 N 0.46243 0.37086 0.66727
 C1311 C 0.47351 0.35303 0.65864
 C1312 C 0.48574 0.35568 0.64038
 C1313 C 0.49666 0.33857 0.63149
 C1314 C 0.49560 0.31845 0.64083
 C1315 C 0.48336 0.31589 0.65925
 C1316 C 0.47237 0.33299 0.66805
 H1317 H 0.40186 0.39743 0.72967
 H1318 H 0.42148 0.36773 0.71399
 H1319 H 0.45368 0.41063 0.67186
 H1320 H 0.43408 0.44035 0.68732
 H1321 H 0.48670 0.37103 0.63295
 H1322 H 0.50568 0.34103 0.61715
 H1323 H 0.48248 0.30071 0.66702
 H1324 H 0.46310 0.33056 0.68225
 C1325 C 0.42087 0.58741 0.76895
 C1326 C 0.43158 0.60513 0.77638
 C1327 C 0.44083 0.60473 0.79603
 C1328 C 0.43949 0.58622 0.80813
 C1329 C 0.42883 0.56851 0.80072
 C1330 C 0.41925 0.56894 0.78110
 N1331 N 0.45130 0.62327 0.80342
 N1332 N 0.45935 0.62395 0.82145
 C1333 C 0.46987 0.64227 0.82921
 C1334 C 0.47841 0.64144 0.84914
 C1335 C 0.48908 0.65884 0.85719
 C1336 C 0.49142 0.67746 0.84537
 C1337 C 0.48258 0.67837 0.82543
 C1338 C 0.47191 0.66089 0.81737
 H1339 H 0.41344 0.58836 0.75390
 H1340 H 0.43248 0.61929 0.76691
 H1341 H 0.44662 0.58546 0.82333
 H1342 H 0.42814 0.55443 0.81032
 H1343 H 0.47683 0.62722 0.85845
 H1344 H 0.49540 0.65777 0.87273
 H1345 H 0.48427 0.69244 0.81592
 H1346 H 0.46541 0.66190 0.80191
 C1347 C -0.05963 0.06083 0.31199
 C1348 C -0.04793 0.07700 0.32113
 C1349 C -0.04537 0.09644 0.31100
 C1350 C -0.05442 0.09948 0.29136
 C1351 C -0.06602 0.08330 0.28215
 C1352 C -0.06888 0.06384 0.29243
 N1353 N -0.03381 0.11288 0.32107
 N1354 N -0.03197 0.13128 0.31322
 C1355 C -0.02055 0.14783 0.32326
 C1356 C -0.01995 0.16786 0.31404
 C1357 C -0.00912 0.18443 0.32348
 C1358 C 0.00140 0.18119 0.34235
 C1359 C 0.00084 0.16102 0.35156
 C1360 C -0.01008 0.14447 0.34213
 H1361 H -0.06136 0.04594 0.32017
 H1362 H -0.04098 0.07443 0.33623
 H1363 H -0.05266 0.11438 0.28320
 H1364 H -0.07316 0.08617 0.26719
 H1365 H -0.02792 0.17063 0.29949
 H1366 H -0.00873 0.19972 0.31589
 H1367 H 0.00860 0.15811 0.36620
 H1368 H -0.01035 0.12912 0.34959
 C1369 C 0.05836 0.42649 0.27514
 C1370 C 0.04756 0.40892 0.28323
 C1371 C 0.05716 0.39577 0.29786
 C1372 C 0.07778 0.40039 0.30437
 C1373 C 0.08853 0.41803 0.29641
 C1374 C 0.07892 0.43128 0.28173
 N1375 N 0.04557 0.37805 0.30605
 N1376 N 0.05390 0.36474 0.31835
 C1377 C 0.04227 0.34722 0.32687
 C1378 C 0.05288 0.33244 0.33914
 C1379 C 0.04195 0.31531 0.34794
 C1380 C 0.02012 0.31279 0.34473
 C1381 C 0.00950 0.32764 0.33239
 C1382 C 0.02048 0.34468 0.32347
 H1383 H 0.05051 0.43654 0.26399
 H1384 H 0.03165 0.40556 0.27815
 H1385 H 0.08554 0.39047 0.31567
 H1386 H 0.10445 0.42119 0.30158
 H1387 H 0.06965 0.33427 0.34192
 H1388 H 0.05048 0.30422 0.35755
 H1389 H -0.00727 0.32596 0.32948
 H1390 H 0.01192 0.35590 0.31405
 C1391 C 0.55597 0.92260 0.76974
 C1392 C 0.54483 0.90493 0.77718
 C1393 C 0.55405 0.89119 0.79153
 C1394 C 0.57470 0.89524 0.79831
 C1395 C 0.58578 0.91295 0.79100
 C1396 C 0.57650 0.92689 0.77673
 N1397 N 0.54200 0.87360 0.79936
 N1398 N 0.54991 0.85998 0.81161
 C1399 C 0.53781 0.84270 0.82002
 C1400 C 0.54793 0.82777 0.83250
 C1401 C 0.53646 0.81111 0.84155
 C1402 C 0.51456 0.80922 0.83835
 C1403 C 0.50446 0.82414 0.82566
 C1404 C 0.51598 0.84072 0.81652
 H1405 H 0.54837 0.93315 0.75888
 H1406 H 0.52891 0.90202 0.77187
 H1407 H 0.58219 0.88485 0.80939
 H1408 H 0.60169 0.91569 0.79645
 H1409 H 0.56473 0.82918 0.83538
 H1410 H 0.54461 0.79999 0.85143
 H1411 H 0.48765 0.82294 0.82275
 H1412 H 0.50779 0.85206 0.80693
 C1413 C 0.69578 0.56077 0.06858
 C1414 C 0.68598 0.54924 0.08467
 C1415 C 0.68737 0.55582 0.10534
 C1416 C 0.69861 0.57427 0.10984
 C1417 C 0.70820 0.58607 0.09382
 C1418 C 0.70710 0.57966 0.07265
 N1419 N 0.67711 0.54359 0.12140
 N1420 N 0.68004 0.54710 0.14067
 C1421 C 0.66957 0.53505 0.15674
 C1422 C 0.67616 0.53721 0.17731
 C1423 C 0.66650 0.52545 0.19332
 C1424 C 0.64978 0.51148 0.18905
 C1425 C 0.64300 0.50962 0.16835
 C1426 C 0.65288 0.52119 0.15232
 H1427 H 0.69322 0.55519 0.05291
 H1428 H 0.67714 0.53512 0.08098
 H1429 H 0.70002 0.57962 0.12579
 H1430 H 0.71733 0.59961 0.09855
 H1431 H 0.68903 0.54782 0.18089
 H1432 H 0.67240 0.52703 0.20898
 H1433 H 0.62993 0.49935 0.16453
 H1434 H 0.64736 0.51943 0.13654
 C1435 C 0.20020 1.05316 0.57180
 C1436 C 0.19096 1.04146 0.58810
 C1437 C 0.19094 1.04919 0.60853
 C1438 C 0.20085 1.06855 0.61264
 C1439 C 0.21043 1.08008 0.59645
 C1440 C 0.20998 1.07271 0.57574
 N1441 N 0.18064 1.03727 0.62479
 N1442 N 0.17589 1.04552 0.64238
 C1443 C 0.16578 1.03378 0.65885
 C1444 C 0.15650 1.04473 0.67562
 C1445 C 0.14608 1.03380 0.69175
 C1446 C 0.14514 1.01157 0.69161
 C1447 C 0.15490 1.00062 0.67487
 C1448 C 0.16496 1.01161 0.65855
 H1449 H 0.19927 1.04708 0.55607
 H1450 H 0.18335 1.02654 0.58475
 H1451 H 0.20131 1.07469 0.62838
 H1452 H 0.21829 1.09474 0.60023
 H1453 H 0.15700 1.06183 0.67599
 H1454 H 0.13844 1.04282 0.70411
 H1455 H 0.15493 0.98352 0.67442
 H1456 H 0.17227 1.00281 0.64584
 C1457 C 0.22923 0.93319 0.90505
 C1458 C 0.21899 0.94261 0.88832
 C1459 C 0.19810 0.94955 0.89044
 C1460 C 0.18746 0.94721 0.90969
 C1461 C 0.19758 0.93775 0.92653
 C1462 C 0.21877 0.93020 0.92467
 N1463 N 0.18810 0.95877 0.87276
 N1464 N 0.16922 0.96589 0.87358
 C1465 C 0.15942 0.97499 0.85571
 C1466 C 0.13921 0.98396 0.85798
 C1467 C 0.12943 0.99338 0.84094
 C1468 C 0.13970 0.99384 0.82126
 C1469 C 0.15986 0.98453 0.81895
 C1470 C 0.16967 0.97524 0.83603
 H1471 H 0.24571 0.92921 0.90239
 H1472 H 0.22748 0.94465 0.87360
 H1473 H 0.17117 0.95237 0.91167
 H1474 H 0.18798 0.93551 0.94048
 H1475 H 0.13111 0.98379 0.87303
 H1476 H 0.11380 1.00023 0.84311
 H1477 H 0.16823 0.98487 0.80404
 H1478 H 0.18529 0.96838 0.83386
 C1479 C 0.72095 0.45305 0.42449
 C1480 C 0.71048 0.46452 0.40911
 C1481 C 0.69632 0.45444 0.39586
 C1482 C 0.69261 0.43268 0.39825
 C1483 C 0.70302 0.42122 0.41359
 C1484 C 0.71739 0.43123 0.42684
 N1485 N 0.68607 0.46650 0.38003
 N1486 N 0.67356 0.45793 0.36721
 C1487 C 0.66330 0.46959 0.35113
 C1488 C 0.65068 0.45866 0.33708
 C1489 C 0.64089 0.46936 0.32082
 C1490 C 0.64351 0.49129 0.31839
 C1491 C 0.65594 0.50231 0.33273
 C1492 C 0.66582 0.49155 0.34895
 H1493 H 0.73206 0.46118 0.43431
 H1494 H 0.71352 0.48127 0.40740
 H1495 H 0.68166 0.42452 0.38828
 H1496 H 0.69962 0.40453 0.41524
 H1497 H 0.64858 0.44175 0.33866
 H1498 H 0.63120 0.46050 0.31017
 H1499 H 0.65841 0.51917 0.33111
 H1500 H 0.67552 0.50034 0.35964
 C1501 C 0.77574 0.42253 0.59136
 C1502 C 0.78307 0.43212 0.60950
 C1503 C 0.80264 0.44253 0.60937
 C1504 C 0.81472 0.44355 0.59073
 C1505 C 0.80740 0.43403 0.57261
 C1506 C 0.78791 0.42325 0.57274
 N1507 N 0.80998 0.45180 0.62829
 N1508 N 0.82808 0.46059 0.62918
 C1509 C 0.83579 0.47003 0.64784
 C1510 C 0.85582 0.47947 0.64727
 C1511 C 0.86374 0.48926 0.66498
 C1512 C 0.85170 0.48979 0.68368
 C1513 C 0.83168 0.48000 0.68432
 C1514 C 0.82376 0.47021 0.66654
 H1515 H 0.76078 0.41416 0.59205
 H1516 H 0.77361 0.43122 0.62376
 H1517 H 0.82983 0.45164 0.59016
 H1518 H 0.81699 0.43517 0.55845
 H1519 H 0.86528 0.47932 0.63297
 H1520 H 0.87934 0.49639 0.66408
 H1521 H 0.82195 0.48034 0.69844
 H1522 H 0.80820 0.46301 0.66736
 C1523 C 0.30442 -0.04273 0.06433
 C1524 C 0.31290 -0.03171 0.08114
 C1525 C 0.31486 -0.04151 0.10058
 C1526 C 0.30774 -0.06237 0.10322
 C1527 C 0.29900 -0.07329 0.08656
 C1528 C 0.29746 -0.06373 0.06681
 N1529 N 0.32411 -0.03010 0.11739
 N1530 N 0.32981 -0.03940 0.13398
 C1531 C 0.33874 -0.02834 0.15117
 C1532 C 0.34780 -0.04001 0.16723
 C1533 C 0.35651 -0.02980 0.18435
 C1534 C 0.35601 -0.00762 0.18588
 C1535 C 0.34679 0.00406 0.16969
 C1536 C 0.33834 -0.00619 0.15243
 H1537 H 0.30372 -0.03493 0.04933
 H1538 H 0.31831 -0.01562 0.07891
 H1539 H 0.30879 -0.07019 0.11818
 H1540 H 0.29330 -0.08920 0.08925
 H1541 H 0.34824 -0.05710 0.16639
 H1542 H 0.36382 -0.03930 0.19629
 H1543 H 0.34576 0.02111 0.17049
 H1544 H 0.33123 0.00315 0.14026
 C1545 C 0.31075 0.06479 0.43743
 C1546 C 0.32059 0.05397 0.42089
 C1547 C 0.31155 0.05385 0.40116
 C1548 C 0.29228 0.06450 0.39815
 C1549 C 0.28235 0.07525 0.41472
 C1550 C 0.29156 0.07562 0.43450
 N1551 N 0.32231 0.04290 0.38451
 N1552 N 0.31556 0.04292 0.36594
 C1553 C 0.32642 0.03186 0.34940
 C1554 C 0.31827 0.03269 0.32928
 C1555 C 0.32833 0.02182 0.31287
 C1556 C 0.34672 0.00986 0.31637
 C1557 C 0.35498 0.00922 0.33657
 C1558 C 0.34494 0.02013 0.35294
 H1559 H 0.31808 0.06459 0.45256
 H1560 H 0.33539 0.04574 0.42342
 H1561 H 0.28497 0.06461 0.38302
 H1562 H 0.26769 0.08364 0.41195
 H1563 H 0.30400 0.04166 0.32635
 H1564 H 0.32147 0.02241 0.29753
 H1565 H 0.36928 0.00037 0.33968
 H1566 H 0.35160 0.01931 0.36835
 C1567 C 0.76842 0.55926 0.92363
 C1568 C 0.77571 0.54731 0.90659
 C1569 C 0.79078 0.55565 0.89255
 C1570 C 0.79846 0.57623 0.89566
 C1571 C 0.79130 0.58812 0.91275
 C1572 C 0.77628 0.57973 0.92696
 N1573 N 0.79843 0.54280 0.87561
 N1574 N 0.81122 0.54996 0.86172
 C1575 C 0.81955 0.53713 0.84509
 C1576 C 0.83279 0.54647 0.82995
 C1577 C 0.84197 0.53428 0.81401
 C1578 C 0.83811 0.51244 0.81303
 C1579 C 0.82459 0.50312 0.82812
 C1580 C 0.81532 0.51537 0.84400
 H1581 H 0.75698 0.55233 0.93444
 H1582 H 0.76973 0.53145 0.90441
 H1583 H 0.81013 0.58304 0.88502
 H1584 H 0.79743 0.60394 0.91479
 H1585 H 0.83622 0.56321 0.83069
 H1586 H 0.85254 0.54184 0.80278
 H1587 H 0.82121 0.48636 0.82763
 H1588 H 0.80513 0.50779 0.85555
 C1589 C 0.09445 0.71864 0.58486
 C1590 C 0.11175 0.70952 0.57429
 C1591 C 0.10866 0.69350 0.55966
 C1592 C 0.08793 0.68692 0.55535
 C1593 C 0.07057 0.69617 0.56579
 C1594 C 0.07368 0.71198 0.58081
 N1595 N 0.12686 0.68408 0.54967
 N1596 N 0.12552 0.66821 0.53759
 C1597 C 0.14391 0.65892 0.52781
 C1598 C 0.14161 0.64060 0.51587
 C1599 C 0.15929 0.63106 0.50630
 C1600 C 0.17964 0.63978 0.50844
 C1601 C 0.18186 0.65825 0.52038
 C1602 C 0.16419 0.66771 0.53001
 H1603 H 0.09730 0.73096 0.59617
 H1604 H 0.12764 0.71478 0.57768
 H1605 H 0.08515 0.67458 0.54405
 H1606 H 0.05475 0.69064 0.56249
 H1607 H 0.12608 0.63363 0.51411
 H1608 H 0.15707 0.61671 0.49743
 H1609 H 0.19723 0.66559 0.52204
 H1610 H 0.16639 0.68194 0.53907
 C1611 C 0.58081 0.21071 1.05529
 C1612 C 0.59639 0.19989 1.04370
 C1613 C 0.60700 0.18265 1.05234
 C1614 C 0.60173 0.17618 1.07276
 C1615 C 0.58609 0.18690 1.08433
 C1616 C 0.57549 0.20436 1.07578
 N1617 N 0.62315 0.17217 1.04018
 N1618 N 0.63444 0.15742 1.04766
 C1619 C 0.65075 0.14707 1.03560
 C1620 C 0.66416 0.13277 1.04551
 C1621 C 0.68084 0.12311 1.03442
 C1622 C 0.68421 0.12747 1.01311
 C1623 C 0.67041 0.14146 1.00306
 C1624 C 0.65385 0.15125 1.01422
 H1625 H 0.57318 0.22424 1.04832
 H1626 H 0.60036 0.20507 1.02800
 H1627 H 0.60963 0.16281 1.07975
 H1628 H 0.58212 0.18134 1.09990
 H1629 H 0.66189 0.12937 1.06196
 H1630 H 0.69115 0.11227 1.04249
 H1631 H 0.67278 0.14526 0.98670
 H1632 H 0.64366 0.16222 1.00619
 C1633 C 0.93279 0.19824 0.94931
 C1634 C 0.91739 0.18683 0.96053
 C1635 C 0.89633 0.18683 0.95434
 C1636 C 0.89072 0.19844 0.93667
 C1637 C 0.90604 0.20964 0.92521
 C1638 C 0.92762 0.20982 0.93111
 N1639 N 0.88100 0.17473 0.96600
 N1640 N 0.86124 0.17621 0.96265
 C1641 C 0.84575 0.16389 0.97384
 C1642 C 0.82430 0.16878 0.97165
 C1643 C 0.80872 0.15709 0.98228
 C1644 C 0.81434 0.13999 0.99511
 C1645 C 0.83597 0.13502 0.99713
 C1646 C 0.85155 0.14692 0.98668
 H1647 H 0.94890 0.19669 0.95450
 H1648 H 0.92196 0.17777 0.97406
 H1649 H 0.87443 0.19884 0.93165
 H1650 H 0.90038 0.21890 0.91229
 H1651 H 0.81965 0.18186 0.96183
 H1652 H 0.79229 0.16167 0.98067
 H1653 H 0.84086 0.12177 1.00659
 H1654 H 0.86806 0.14273 0.98844
 C1655 C 0.39840 0.71845 0.42217
 C1656 C 0.38095 0.70944 0.43258
 C1657 C 0.38384 0.69372 0.44760
 C1658 C 0.40452 0.68728 0.45241
 C1659 C 0.42202 0.69641 0.44213
 C1660 C 0.41912 0.71197 0.42677
 N1661 N 0.36554 0.68447 0.45753
 N1662 N 0.36681 0.66891 0.47002
 C1663 C 0.34840 0.65973 0.47984
 C1664 C 0.35074 0.64165 0.49215
 C1665 C 0.33306 0.63219 0.50176
 C1666 C 0.31266 0.64076 0.49930
 C1667 C 0.31040 0.65901 0.48699
 C1668 C 0.32808 0.66839 0.47731
 H1669 H 0.39571 0.73059 0.41060
 H1670 H 0.36511 0.71459 0.42880
 H1671 H 0.40715 0.67517 0.46401
 H1672 H 0.43779 0.69101 0.44586
 H1673 H 0.36630 0.63479 0.49416
 H1674 H 0.33533 0.61799 0.51089
 H1675 H 0.29498 0.66622 0.48506
 H1676 H 0.32586 0.68244 0.46795
 C1677 C 0.57101 0.77905 0.44976
 C1678 C 0.58811 0.78717 0.46074
 C1679 C 0.60204 0.80165 0.45128
 C1680 C 0.59867 0.80799 0.43059
 C1681 C 0.58150 0.80001 0.41966
 C1682 C 0.56746 0.78548 0.42913
 N1683 N 0.61926 0.80987 0.46303
 N1684 N 0.63324 0.82200 0.45489
 C1685 C 0.65026 0.83060 0.46665
 C1686 C 0.66579 0.84269 0.45631
 C1687 C 0.68240 0.85166 0.46737
 C1688 C 0.68363 0.84879 0.48906
 C1689 C 0.66805 0.83657 0.49940
 C1690 C 0.65153 0.82750 0.48830
 H1691 H 0.56035 0.76801 0.45750
 H1692 H 0.59050 0.78220 0.47669
 H1693 H 0.60921 0.81917 0.42292
 H1694 H 0.57932 0.80505 0.40369
 H1695 H 0.66495 0.84525 0.43965
 H1696 H 0.69406 0.86116 0.45904
 H1697 H 0.66874 0.83391 0.51606
 H1698 H 0.63971 0.81821 0.49664
 C1699 C 0.06482 0.31199 -0.06141
 C1700 C 0.08154 0.32138 -0.05092
 C1701 C 0.10163 0.31202 -0.05116
 C1702 C 0.10484 0.29289 -0.06190
 C1703 C 0.08809 0.28345 -0.07242
 C1704 C 0.06792 0.29298 -0.07240
 N1705 N 0.11841 0.32239 -0.04050
 N1706 N 0.13716 0.31497 -0.03988
 C1707 C 0.15364 0.32576 -0.02911
 C1708 C 0.17372 0.31644 -0.02801
 C1709 C 0.18997 0.32646 -0.01725
 C1710 C 0.18634 0.34603 -0.00742
 C1711 C 0.16623 0.35547 -0.00884
 C1712 C 0.15002 0.34544 -0.01954
 H1713 H 0.04941 0.31956 -0.06082
 H1714 H 0.07886 0.33607 -0.04261
 H1715 H 0.12026 0.28537 -0.06232
 H1716 H 0.09104 0.26893 -0.08093
 H1717 H 0.17672 0.30129 -0.03532
 H1718 H 0.20522 0.31869 -0.01627
 H1719 H 0.16303 0.37071 -0.00177
 H1720 H 0.13469 0.35307 -0.02029
 C1721 C 0.42835 0.27751 0.05792
 C1722 C 0.41134 0.28571 0.04682
 C1723 C 0.39768 0.30062 0.05603
 C1724 C 0.40123 0.30733 0.07655
 C1725 C 0.41833 0.29927 0.08760
 C1726 C 0.43207 0.28428 0.07839
 N1727 N 0.38055 0.30888 0.04414
 N1728 N 0.36671 0.32134 0.05203
 C1729 C 0.34984 0.32994 0.04003
 C1730 C 0.33433 0.34235 0.05005
 C1731 C 0.31786 0.35129 0.03872
 C1732 C 0.31677 0.34807 0.01708
 C1733 C 0.33232 0.33554 0.00706
 C1734 C 0.34868 0.32650 0.01843
 H1735 H 0.43880 0.26614 0.05037
 H1736 H 0.40880 0.28048 0.03100
 H1737 H 0.39090 0.31885 0.08400
 H1738 H 0.42067 0.30459 0.10343
 H1739 H 0.33509 0.34517 0.06668
 H1740 H 0.30622 0.36104 0.04680
 H1741 H 0.33172 0.33262 -0.00956
 H1742 H 0.36048 0.31696 0.01032
 C1743 C 0.90831 0.79783 0.59712
 C1744 C 0.89028 0.80610 0.58780
 C1745 C 0.88564 0.80104 0.56718
 C1746 C 0.89909 0.78718 0.55599
 C1747 C 0.91710 0.77878 0.56534
 C1748 C 0.92203 0.78422 0.58593
 N1749 N 0.86760 0.81071 0.55786
 N1750 N 0.86305 0.80783 0.53883
 C1751 C 0.84537 0.81811 0.52945
 C1752 C 0.84239 0.81565 0.50804
 C1753 C 0.82617 0.82656 0.49811
 C1754 C 0.81254 0.84006 0.50952
 C1755 C 0.81514 0.84202 0.53115
 C1756 C 0.83147 0.83119 0.54104
 H1757 H 0.91151 0.80204 0.61312
 H1758 H 0.88001 0.81672 0.59660
 H1759 H 0.89582 0.78304 0.53999
 H1760 H 0.92745 0.76843 0.55633
 H1761 H 0.85294 0.80557 0.49895
 H1762 H 0.82434 0.82453 0.48147
 H1763 H 0.80497 0.85243 0.54028
 H1764 H 0.83344 0.83333 0.55764
   
