data_POSCAR
  _audit_creation_date              2014-09-24
  _audit_creation_method            'ToBaCCo'
  _symmetry_space_group_name_H-M    'P1'
  _symmetry_Int_Tables_number       1
  _symmetry_cell_setting            triclinic
  loop_
  _symmetry_equiv_pos_as_xyz
 x,y,z
_cell_length_a 62.9765
_cell_length_b 63.1118
_cell_length_c 64.3070
_cell_angle_alpha 89.724400
_cell_angle_beta 90.081700
_cell_angle_gamma 89.937400
loop_
  _atom_site_label
  _atom_site_type_symbol
  _atom_site_fract_x
  _atom_site_fract_y
  _atom_site_fract_z
N1 N 0.37431 0.31639 0.33195
 N2 N 0.37411 0.33122 0.31755
 C3 C 0.39093 0.32849 0.30494
 C4 C 0.40226 0.31096 0.31174
 C5 C 0.39121 0.30369 0.32895
 H6 H 0.39486 0.33870 0.29198
 H7 H 0.39518 0.29024 0.33868
 Cu8 Cu 0.35220 0.35297 0.31681
 Cu9 Cu 0.35302 0.31500 0.35383
 Cu10 Cu 0.31462 0.35437 0.35395
 N11 N 0.33078 0.37520 0.31748
 N12 N 0.31614 0.37567 0.33200
 C13 C 0.30357 0.39266 0.32891
 C14 C 0.31070 0.40350 0.31149
 C15 C 0.32805 0.39195 0.30469
 H16 H 0.29026 0.39679 0.33867
 H17 H 0.33811 0.39565 0.29157
 N18 N 0.31568 0.33146 0.37484
 N19 N 0.33019 0.31636 0.37470
 C20 C 0.32623 0.30275 0.39041
 C21 C 0.30840 0.30959 0.40100
 C22 C 0.30216 0.32786 0.39067
 H23 H 0.33533 0.28857 0.39361
 H24 H 0.28855 0.33764 0.39417
 H25 H 0.32910 0.33018 0.33759
 H26 H 0.34674 0.34712 0.35392
 N27 N 0.37239 0.81464 -0.17112
 N28 N 0.37207 0.82948 -0.18552
 C29 C 0.38862 0.82661 -0.19846
 C30 C 0.39996 0.80893 -0.19184
 C31 C 0.38906 0.80176 -0.17444
 H32 H 0.39225 0.83685 -0.21147
 H33 H 0.39333 0.78863 -0.16443
 Cu34 Cu 0.35065 0.85167 -0.18486
 Cu35 Cu 0.35207 0.81388 -0.14824
 Cu36 Cu 0.31462 0.85439 -0.14683
 N37 N 0.33009 0.87464 -0.18404
 N38 N 0.31599 0.87555 -0.16903
 C39 C 0.30409 0.89310 -0.17149
 C40 C 0.31109 0.90391 -0.18905
 C41 C 0.32767 0.89164 -0.19657
 H42 H 0.29141 0.89762 -0.16111
 H43 H 0.33759 0.89507 -0.20985
 N44 N 0.31597 0.83145 -0.12589
 N45 N 0.33016 0.81605 -0.12643
 C46 C 0.32737 0.80337 -0.10975
 C47 C 0.31062 0.81115 -0.09814
 C48 C 0.30379 0.82894 -0.10887
 H49 H 0.33694 0.78960 -0.10622
 H50 H 0.29117 0.83956 -0.10432
 H51 H 0.32776 0.82966 -0.16324
 H52 H 0.34638 0.84612 -0.14762
 N53 N 0.87377 0.31495 -0.16975
 N54 N 0.87227 0.32830 -0.18543
 C55 C 0.88931 0.32598 -0.19784
 C56 C 0.90217 0.31023 -0.18953
 C57 C 0.89176 0.30362 -0.17169
 H58 H 0.89208 0.33505 -0.21187
 H59 H 0.89698 0.29157 -0.16083
 Cu60 Cu 0.84834 0.34760 -0.18805
 Cu61 Cu 0.85231 0.31316 -0.14806
 Cu62 Cu 0.80952 0.34755 -0.15234
 N63 N 0.82834 0.37099 -0.18587
 N64 N 0.81318 0.37086 -0.17188
 C65 C 0.80131 0.38845 -0.17409
 C66 C 0.80942 0.40040 -0.19043
 C67 C 0.82671 0.38875 -0.19745
 H68 H 0.78786 0.39222 -0.16437
 H69 H 0.83723 0.39264 -0.21017
 N70 N 0.81252 0.32682 -0.12956
 N71 N 0.82883 0.31380 -0.12783
 C72 C 0.82648 0.30205 -0.11044
 C73 C 0.80783 0.30803 -0.10067
 C74 C 0.79945 0.32383 -0.11326
 H75 H 0.83764 0.29016 -0.10521
 H76 H 0.78513 0.33283 -0.11054
 H77 H 0.82752 0.32351 -0.16587
 H78 H 0.84189 0.34430 -0.15092
 N79 N 0.87450 0.81575 0.33216
 N80 N 0.87389 0.83007 0.31727
 C81 C 0.88970 0.82618 0.30372
 C82 C 0.90082 0.80847 0.31046
 C83 C 0.89068 0.80232 0.32861
 H84 H 0.89252 0.83513 0.28963
 H85 H 0.89440 0.78876 0.33828
 Cu86 Cu 0.85195 0.85183 0.31653
 Cu87 Cu 0.85342 0.81468 0.35426
 Cu88 Cu 0.81481 0.85382 0.35405
 N89 N 0.83050 0.87407 0.31706
 N90 N 0.81616 0.87483 0.33185
 C91 C 0.80351 0.89174 0.32870
 C92 C 0.81022 0.90227 0.31089
 C93 C 0.82745 0.89052 0.30396
 H94 H 0.79040 0.89592 0.33869
 H95 H 0.83728 0.89389 0.29060
 N96 N 0.81605 0.83118 0.37520
 N97 N 0.83073 0.81625 0.37528
 C98 C 0.82662 0.80254 0.39088
 C99 C 0.80849 0.80914 0.40114
 C100 C 0.80227 0.82739 0.39076
 H101 H 0.83568 0.78835 0.39408
 H102 H 0.78839 0.83691 0.39393
 H103 H 0.82916 0.82939 0.33797
 H104 H 0.84686 0.84676 0.35378
 N105 N 0.62772 0.68423 0.33198
 N106 N 0.62834 0.66996 0.31719
 C107 C 0.61302 0.67432 0.30316
 C108 C 0.60223 0.69230 0.30951
 C109 C 0.61203 0.69812 0.32790
 H110 H 0.61025 0.66543 0.28910
 H111 H 0.60830 0.71164 0.33748
 Cu112 Cu 0.64955 0.64751 0.31742
 Cu113 Cu 0.64789 0.68438 0.35489
 Cu114 Cu 0.68585 0.64456 0.35586
 N115 N 0.67029 0.62468 0.31875
 N116 N 0.68462 0.62376 0.33359
 C117 C 0.69673 0.60639 0.33088
 C118 C 0.68958 0.59580 0.31340
 C119 C 0.67274 0.60789 0.30615
 H120 H 0.70963 0.60176 0.34103
 H121 H 0.66279 0.60452 0.29289
 N122 N 0.68432 0.66703 0.37702
 N123 N 0.66964 0.68196 0.37677
 C124 C 0.67232 0.69450 0.39343
 C125 C 0.68955 0.68721 0.40475
 C126 C 0.69676 0.66974 0.39387
 H127 H 0.66230 0.70783 0.39721
 H128 H 0.71002 0.65967 0.39796
 H129 H 0.67233 0.66926 0.33937
 H130 H 0.65397 0.65208 0.35478
 N131 N 0.62841 0.18578 -0.16919
 N132 N 0.62886 0.17119 -0.18368
 C133 C 0.61216 0.17404 -0.19653
 C134 C 0.60064 0.19139 -0.18972
 C135 C 0.61147 0.19842 -0.17232
 H136 H 0.60853 0.16409 -0.20969
 H137 H 0.60705 0.21142 -0.16234
 Cu138 Cu 0.65073 0.14938 -0.18361
 Cu139 Cu 0.64925 0.18676 -0.14677
 Cu140 Cu 0.68854 0.14806 -0.14677
 N141 N 0.67270 0.12768 -0.18356
 N142 N 0.68761 0.12737 -0.16924
 C143 C 0.70039 0.11058 -0.17244
 C144 C 0.69303 0.09959 -0.18966
 C145 C 0.67539 0.11101 -0.19628
 H146 H 0.71359 0.10632 -0.16252
 H147 H 0.66514 0.10743 -0.20927
 N148 N 0.68665 0.17037 -0.12542
 N149 N 0.67173 0.18507 -0.12545
 C150 C 0.67427 0.19745 -0.10862
 C151 C 0.69160 0.19021 -0.09739
 C152 C 0.69905 0.17303 -0.10854
 H153 H 0.66409 0.21063 -0.10472
 H154 H 0.71224 0.16290 -0.10436
 H155 H 0.67361 0.17220 -0.16286
 H156 H 0.65645 0.15475 -0.14651
 N157 N 0.12493 0.68449 -0.16731
 N158 N 0.12506 0.66983 -0.18174
 C159 C 0.10923 0.67376 -0.19533
 C160 C 0.09857 0.69185 -0.18907
 C161 C 0.10900 0.69819 -0.17118
 H162 H 0.10614 0.66460 -0.20916
 H163 H 0.10570 0.71206 -0.16194
 Cu164 Cu 0.14657 0.64765 -0.18202
 Cu165 Cu 0.14627 0.68569 -0.14545
 Cu166 Cu 0.18553 0.64722 -0.14614
 N167 N 0.16913 0.62655 -0.18245
 N168 N 0.18426 0.62647 -0.16836
 C169 C 0.19759 0.61026 -0.17210
 C170 C 0.19047 0.59954 -0.18949
 C171 C 0.17236 0.61036 -0.19565
 H172 H 0.21141 0.60657 -0.16278
 H173 H 0.16213 0.60650 -0.20860
 N174 N 0.18414 0.66955 -0.12489
 N175 N 0.16923 0.68424 -0.12466
 C176 C 0.17324 0.69777 -0.10901
 C177 C 0.19155 0.69130 -0.09886
 C178 C 0.19798 0.67331 -0.10937
 H179 H 0.16396 0.71176 -0.10569
 H180 H 0.21202 0.66395 -0.10632
 H181 H 0.16993 0.67100 -0.16240
 H182 H 0.15339 0.65375 -0.14517
 N183 N 0.12287 0.18335 0.33480
 N184 N 0.12292 0.16883 0.32023
 C185 C 0.10749 0.17331 0.30637
 C186 C 0.09715 0.19159 0.31258
 C187 C 0.10736 0.19749 0.33075
 H188 H 0.10454 0.16439 0.29235
 H189 H 0.10424 0.21136 0.34004
 Cu190 Cu 0.14392 0.14618 0.31975
 Cu191 Cu 0.14386 0.18377 0.35698
 Cu192 Cu 0.18305 0.14538 0.35570
 N193 N 0.16700 0.12567 0.31880
 N194 N 0.18219 0.12544 0.33282
 C195 C 0.19647 0.11043 0.32784
 C196 C 0.18994 0.10069 0.30969
 C197 C 0.17113 0.11080 0.30441
 H198 H 0.21093 0.10734 0.33641
 H199 H 0.16141 0.10791 0.29086
 N200 N 0.18131 0.16689 0.37767
 N201 N 0.16645 0.18162 0.37811
 C202 C 0.17035 0.19476 0.39410
 C203 C 0.18855 0.18800 0.40426
 C204 C 0.19501 0.17023 0.39341
 H205 H 0.16114 0.20875 0.39758
 H206 H 0.20907 0.16084 0.39627
 H207 H 0.16737 0.16926 0.33959
 H208 H 0.15088 0.15179 0.35670
 N209 N 0.62717 0.31410 0.67005
 N210 N 0.62813 0.32823 0.68495
 C211 C 0.61138 0.32560 0.69768
 C212 C 0.59930 0.30885 0.69046
 C213 C 0.60985 0.30194 0.67285
 H214 H 0.60803 0.33536 0.71104
 H215 H 0.60528 0.28909 0.66276
 Cu216 Cu 0.65088 0.34901 0.68629
 Cu217 Cu 0.64827 0.31271 0.64808
 Cu218 Cu 0.68800 0.35058 0.64847
 N219 N 0.67274 0.37075 0.68545
 N220 N 0.68711 0.37139 0.67067
 C221 C 0.69978 0.38827 0.67368
 C222 C 0.69298 0.39883 0.69130
 C223 C 0.67577 0.38722 0.69834
 H224 H 0.71272 0.39277 0.66357
 H225 H 0.66603 0.39060 0.71174
 N226 N 0.68620 0.32818 0.62730
 N227 N 0.67101 0.31381 0.62714
 C228 C 0.67442 0.30037 0.61129
 C229 C 0.69268 0.30651 0.60095
 C230 C 0.69970 0.32423 0.61154
 H231 H 0.66455 0.28686 0.60781
 H232 H 0.71396 0.33318 0.60838
 H233 H 0.67300 0.32642 0.66444
 H234 H 0.65570 0.34471 0.64894
 N235 N 0.62650 0.81597 1.16980
 N236 N 0.62683 0.83089 1.18397
 C237 C 0.60985 0.82858 1.19648
 C238 C 0.59825 0.81127 1.18979
 C239 C 0.60933 0.80365 1.17280
 H240 H 0.60597 0.83891 1.20928
 H241 H 0.60525 0.79020 1.16328
 Cu242 Cu 0.64920 0.85209 1.18411
 Cu243 Cu 0.64812 0.81378 1.14825
 Cu244 Cu 0.68804 0.85171 1.14849
 N245 N 0.67146 0.87341 1.18423
 N246 N 0.68657 0.87321 1.17016
 C247 C 0.69951 0.88987 1.17326
 C248 C 0.69212 0.90116 1.19020
 C249 C 0.67428 0.89020 1.19677
 H250 H 0.71302 0.89372 1.16363
 H251 H 0.66400 0.89426 1.20958
 N252 N 0.68663 0.82864 1.12791
 N253 N 0.67140 0.81428 1.12780
 C254 C 0.67505 0.80052 1.11226
 C255 C 0.69348 0.80644 1.10207
 C256 C 0.70036 0.82435 1.11244
 H257 H 0.66516 0.78702 1.10880
 H258 H 0.71462 0.83328 1.10923
 H259 H 0.67222 0.82830 1.16471
 H260 H 0.65587 0.84561 1.14737
 N261 N 0.12697 0.31634 1.17002
 N262 N 0.12902 0.32907 1.18600
 C263 C 0.11217 0.32667 1.19864
 C264 C 0.09888 0.31151 1.19016
 C265 C 0.10881 0.30533 1.17198
 H266 H 0.10988 0.33519 1.21301
 H267 H 0.10324 0.29367 1.16100
 Cu268 Cu 0.15345 0.34753 1.18887
 Cu269 Cu 0.14830 0.31442 1.14828
 Cu270 Cu 0.19183 0.34764 1.15266
 N271 N 0.17392 0.37043 1.18686
 N272 N 0.18885 0.37047 1.17263
 C273 C 0.20100 0.38782 1.17500
 C274 C 0.19324 0.39934 1.19164
 C275 C 0.17597 0.38780 1.19875
 H276 H 0.21441 0.39175 1.16527
 H277 H 0.16574 0.39160 1.21168
 N278 N 0.18840 0.32727 1.12983
 N279 N 0.17172 0.31478 1.12804
 C280 C 0.17440 0.30216 1.11144
 C281 C 0.19369 0.30694 1.10229
 C282 C 0.20209 0.32302 1.11433
 H283 H 0.16336 0.29002 1.10669
 H284 H 0.21737 0.33053 1.11236
 H285 H 0.17353 0.32367 1.16606
 H286 H 0.15941 0.34520 1.15164
 N287 N 0.12750 0.81418 0.66947
 N288 N 0.12864 0.82805 0.68459
 C289 C 0.11180 0.82551 0.69722
 C290 C 0.09948 0.80907 0.68970
 C291 C 0.10997 0.80227 0.67203
 H292 H 0.10854 0.83514 0.71069
 H293 H 0.10522 0.78967 0.66170
 Cu294 Cu 0.15158 0.84857 0.68624
 Cu295 Cu 0.14855 0.81284 0.64743
 Cu296 Cu 0.19088 0.84762 0.65089
 N297 N 0.17368 0.87008 0.68561
 N298 N 0.18884 0.86980 0.67162
 C299 C 0.20238 0.88583 0.67528
 C300 C 0.19536 0.89681 0.69257
 C301 C 0.17706 0.88634 0.69867
 H302 H 0.21657 0.88884 0.66632
 H303 H 0.16734 0.88988 0.71205
 N304 N 0.18765 0.82724 0.62807
 N305 N 0.17157 0.81395 0.62676
 C306 C 0.17381 0.80223 0.60945
 C307 C 0.19217 0.80849 0.59932
 C308 C 0.20046 0.82445 0.61157
 H309 H 0.16283 0.79009 0.60458
 H310 H 0.21463 0.83358 0.60854
 H311 H 0.17278 0.82409 0.66533
 H312 H 0.15833 0.84423 0.64926
 N313 N 0.37123 0.68722 0.67052
 N314 N 0.37052 0.67279 0.68530
 C315 C 0.38713 0.67558 0.69820
 C316 C 0.39888 0.69271 0.69118
 C317 C 0.38825 0.69971 0.67356
 H318 H 0.39077 0.66553 0.71138
 H319 H 0.39273 0.71267 0.66344
 Cu320 Cu 0.34867 0.65100 0.68589
 Cu321 Cu 0.35082 0.68794 0.64780
 Cu322 Cu 0.31290 0.64830 0.64689
 N323 N 0.32777 0.62835 0.68437
 N324 N 0.31383 0.62739 0.66919
 C325 C 0.30176 0.60998 0.67172
 C326 C 0.30851 0.59938 0.68943
 C327 C 0.32507 0.61153 0.69705
 H328 H 0.28930 0.60513 0.66120
 H329 H 0.33456 0.60829 0.71072
 N330 N 0.31445 0.67085 0.62568
 N331 N 0.32885 0.68601 0.62605
 C332 C 0.32618 0.69856 0.60924
 C333 C 0.30928 0.69094 0.59771
 C334 C 0.30224 0.67337 0.60864
 H335 H 0.33595 0.71212 0.60557
 H336 H 0.28945 0.66291 0.60422
 H337 H 0.32635 0.67296 0.66335
 H338 H 0.34494 0.65568 0.64839
 N339 N 0.37258 0.18471 1.16872
 N340 N 0.37229 0.17006 1.18330
 C341 C 0.38748 0.17441 1.19741
 C342 C 0.39789 0.19275 1.19133
 C343 C 0.38795 0.19882 1.17301
 H344 H 0.39050 0.16518 1.21130
 H345 H 0.39145 0.21259 1.16358
 Cu346 Cu 0.35183 0.14695 1.18250
 Cu347 Cu 0.35268 0.18482 1.14551
 Cu348 Cu 0.31543 0.14446 1.14430
 N349 N 0.33064 0.12449 1.18174
 N350 N 0.31643 0.12371 1.16678
 C351 C 0.30399 0.10664 1.16967
 C352 C 0.31071 0.09607 1.18740
 C353 C 0.32770 0.10788 1.19467
 H354 H 0.29122 0.10204 1.15940
 H355 H 0.33721 0.10461 1.20831
 N356 N 0.31699 0.16689 1.12294
 N357 N 0.33123 0.18220 1.12333
 C358 C 0.32843 0.19475 1.10654
 C359 C 0.31160 0.18698 1.09501
 C360 C 0.30475 0.16931 1.10590
 H361 H 0.33790 0.20856 1.10299
 H362 H 0.29197 0.15882 1.10154
 H363 H 0.32870 0.16904 1.16104
 H364 H 0.34721 0.15256 1.14520
 N365 N 0.87327 0.68538 1.16809
 N366 N 0.87200 0.67165 1.18346
 C367 C 0.88840 0.67472 1.19656
 C368 C 0.90058 0.69130 1.18901
 C369 C 0.89046 0.69769 1.17092
 H370 H 0.89133 0.66549 1.21047
 H371 H 0.89552 0.71004 1.16033
 Cu372 Cu 0.84937 0.65073 1.18463
 Cu373 Cu 0.85317 0.68566 1.14507
 Cu374 Cu 0.81361 0.64753 1.14589
 N375 N 0.82719 0.62930 1.18467
 N376 N 0.81329 0.62811 1.16947
 C377 C 0.79955 0.61232 1.17354
 C378 C 0.80512 0.60306 1.19234
 C379 C 0.82276 0.61426 1.19894
 H380 H 0.78636 0.60808 1.16364
 H381 H 0.83141 0.61191 1.21329
 N382 N 0.81651 0.66859 1.12338
 N383 N 0.83139 0.68329 1.12317
 C384 C 0.82905 0.69528 1.10593
 C385 C 0.81186 0.68777 1.09473
 C386 C 0.80436 0.67082 1.10628
 H387 H 0.83909 0.70853 1.10186
 H388 H 0.79108 0.66074 1.10241
 H389 H 0.82800 0.67248 1.16111
 H390 H 0.84586 0.65379 1.14699
 N391 N 0.87392 0.18455 0.66973
 N392 N 0.87188 0.17181 0.68582
 C393 C 0.88732 0.17608 0.69968
 C394 C 0.89964 0.19247 0.69191
 C395 C 0.89065 0.19739 0.67283
 H396 H 0.88903 0.16836 0.71464
 H397 H 0.89549 0.20980 0.66222
 Cu398 Cu 0.84865 0.15162 0.68775
 Cu399 Cu 0.85370 0.18493 0.64684
 Cu400 Cu 0.81126 0.15025 0.65043
 N401 N 0.82875 0.12815 0.68552
 N402 N 0.81416 0.12776 0.67092
 C403 C 0.80212 0.11034 0.67333
 C404 C 0.80955 0.09909 0.69039
 C405 C 0.82655 0.11087 0.69772
 H406 H 0.78895 0.10619 0.66336
 H407 H 0.83640 0.10735 0.71107
 N408 N 0.81514 0.16995 0.62699
 N409 N 0.83140 0.18301 0.62544
 C410 C 0.82948 0.19428 0.60769
 C411 C 0.81117 0.18793 0.59752
 C412 C 0.80258 0.17240 0.61022
 H413 H 0.84053 0.20633 0.60264
 H414 H 0.78831 0.16337 0.60739
 H415 H 0.82852 0.17485 0.66406
 H416 H 0.84369 0.15372 0.65030
 N417 N 0.31535 0.37476 0.66791
 N418 N 0.33075 0.37491 0.68172
 C419 C 0.32698 0.39028 0.69569
 C420 C 0.30822 0.40042 0.69032
 C421 C 0.30129 0.39010 0.67258
 H422 H 0.33697 0.39357 0.70895
 H423 H 0.28673 0.39304 0.66411
 Cu424 Cu 0.35347 0.35419 0.68033
 Cu425 Cu 0.31415 0.35393 0.64549
 Cu426 Cu 0.35370 0.31529 0.64536
 N427 N 0.37479 0.33199 0.68152
 N428 N 0.37478 0.31674 0.66767
 C429 C 0.39045 0.30296 0.67225
 C430 C 0.40086 0.30992 0.68995
 C431 C 0.39041 0.32840 0.69541
 H432 H 0.39355 0.28854 0.66376
 H433 H 0.39360 0.33828 0.70872
 N434 N 0.33091 0.31676 0.62423
 N435 N 0.31592 0.33143 0.62426
 C436 C 0.30307 0.32834 0.60780
 C437 C 0.31024 0.31091 0.59686
 C438 C 0.32794 0.30399 0.60775
 H439 H 0.28965 0.33825 0.60382
 H440 H 0.33798 0.29068 0.60393
 H441 H 0.32995 0.33040 0.66166
 H442 H 0.34616 0.34710 0.64381
 N443 N 0.31251 0.87209 0.17094
 N444 N 0.32694 0.87150 0.18572
 C445 C 0.32289 0.88702 0.19946
 C446 C 0.30497 0.89794 0.19294
 C447 C 0.29885 0.88800 0.17474
 H448 H 0.33192 0.88982 0.21348
 H449 H 0.28526 0.89176 0.16513
 Cu450 Cu 0.34899 0.84990 0.18593
 Cu451 Cu 0.31190 0.85166 0.14836
 Cu452 Cu 0.35125 0.81318 0.14833
 N453 N 0.37128 0.82856 0.18548
 N454 N 0.37193 0.81412 0.17085
 C455 C 0.38884 0.80147 0.17403
 C456 C 0.39945 0.80834 0.19163
 C457 C 0.38783 0.82560 0.19847
 H458 H 0.39315 0.78838 0.16413
 H459 H 0.39139 0.83546 0.21171
 N460 N 0.32892 0.81494 0.12690
 N461 N 0.31397 0.82961 0.12687
 C462 C 0.30140 0.82681 0.11015
 C463 C 0.30879 0.80956 0.09908
 C464 C 0.32626 0.80246 0.11017
 H465 H 0.28790 0.83666 0.10630
 H466 H 0.33650 0.78937 0.10613
 H467 H 0.32667 0.82731 0.16439
 H468 H 0.34408 0.84513 0.14865
 N469 N 0.81380 0.37573 0.16823
 N470 N 0.82800 0.37477 0.18322
 C471 C 0.82579 0.39180 0.19557
 C472 C 0.80921 0.40406 0.18798
 C473 C 0.80200 0.39334 0.17061
 H474 H 0.83554 0.39505 0.20902
 H475 H 0.78941 0.39821 0.16019
 Cu476 Cu 0.84814 0.35149 0.18432
 Cu477 Cu 0.81234 0.35467 0.14606
 Cu478 Cu 0.85083 0.31505 0.14699
 N479 N 0.87064 0.33046 0.18438
 N480 N 0.87144 0.31607 0.16969
 C481 C 0.88861 0.30374 0.17274
 C482 C 0.89922 0.31079 0.19026
 C483 C 0.88735 0.32783 0.19723
 H484 H 0.89332 0.29094 0.16263
 H485 H 0.89072 0.33771 0.21051
 N486 N 0.82853 0.31694 0.12544
 N487 N 0.81383 0.33188 0.12513
 C488 C 0.80139 0.32912 0.10829
 C489 C 0.80862 0.31165 0.09744
 C490 C 0.82584 0.30436 0.10880
 H491 H 0.78821 0.33926 0.10411
 H492 H 0.83597 0.29113 0.10496
 H493 H 0.82591 0.32966 0.16198
 H494 H 0.84423 0.34711 0.14699
 N495 N 0.81369 0.87407 0.66758
 N496 N 0.82770 0.87292 0.68270
 C497 C 0.82390 0.88854 0.69639
 C498 C 0.80657 0.90012 0.68951
 C499 C 0.80050 0.89045 0.67114
 H500 H 0.83273 0.89099 0.71059
 H501 H 0.78729 0.89474 0.66124
 Cu502 Cu 0.84926 0.85087 0.68349
 Cu503 Cu 0.81313 0.85376 0.64489
 Cu504 Cu 0.85192 0.81478 0.64517
 N505 N 0.87144 0.82946 0.68277
 N506 N 0.87236 0.81535 0.66785
 C507 C 0.88945 0.80289 0.67087
 C508 C 0.89987 0.80958 0.68863
 C509 C 0.88796 0.82648 0.69578
 H510 H 0.89425 0.79025 0.66062
 H511 H 0.89117 0.83603 0.70932
 N512 N 0.82988 0.81685 0.62352
 N513 N 0.81519 0.83177 0.62332
 C514 C 0.80278 0.82916 0.60645
 C515 C 0.80997 0.81176 0.59549
 C516 C 0.82719 0.80436 0.60680
 H517 H 0.78960 0.83932 0.60229
 H518 H 0.83706 0.79088 0.60313
 H519 H 0.82715 0.82902 0.66096
 H520 H 0.84524 0.84690 0.64600
 N521 N 0.68631 0.62704 0.67154
 N522 N 0.67167 0.62735 0.68608
 C523 C 0.67421 0.61030 0.69853
 C524 C 0.69139 0.59869 0.69139
 C525 C 0.69865 0.60984 0.67423
 H526 H 0.66416 0.60649 0.71162
 H527 H 0.71161 0.60548 0.66412
 Cu528 Cu 0.65022 0.64955 0.68633
 Cu529 Cu 0.68780 0.64834 0.64955
 Cu530 Cu 0.64910 0.68758 0.64980
 N531 N 0.62846 0.67145 0.68653
 N532 N 0.62812 0.68623 0.67206
 C533 C 0.61120 0.69885 0.67510
 C534 C 0.60027 0.69164 0.69241
 C535 C 0.61173 0.67418 0.69926
 H536 H 0.60687 0.71199 0.66512
 H537 H 0.60800 0.66405 0.71234
 N538 N 0.67176 0.68613 0.62868
 N539 N 0.68654 0.67129 0.62868
 C540 C 0.69930 0.67426 0.61214
 C541 C 0.69222 0.69181 0.60114
 C542 C 0.67473 0.69891 0.61211
 H543 H 0.71259 0.66421 0.60826
 H544 H 0.66462 0.71213 0.60803
 H545 H 0.67322 0.67246 0.66576
 H546 H 0.65578 0.65555 0.64929
 N547 N 0.68235 0.12493 0.16737
 N548 N 0.66789 0.12532 0.18206
 C549 C 0.67190 0.10957 0.19574
 C550 C 0.68988 0.09875 0.18926
 C551 C 0.69602 0.10898 0.17115
 H552 H 0.66289 0.10666 0.20975
 H553 H 0.70980 0.10559 0.16173
 Cu554 Cu 0.64592 0.14709 0.18220
 Cu555 Cu 0.68365 0.14621 0.14542
 Cu556 Cu 0.64512 0.18550 0.14578
 N557 N 0.62408 0.16898 0.18207
 N558 N 0.62386 0.18392 0.16776
 C559 C 0.60711 0.19674 0.17101
 C560 C 0.59615 0.18946 0.18829
 C561 C 0.60742 0.17177 0.19489
 H562 H 0.60305 0.21020 0.16133
 H563 H 0.60373 0.16162 0.20796
 N564 N 0.66799 0.18429 0.12480
 N565 N 0.68244 0.16913 0.12454
 C566 C 0.69620 0.17298 0.10898
 C567 C 0.69022 0.19148 0.09893
 C568 C 0.67223 0.19818 0.10938
 H569 H 0.70992 0.16333 0.10558
 H570 H 0.66334 0.21253 0.10637
 H571 H 0.66907 0.17027 0.16176
 H572 H 0.65167 0.15361 0.14511
 N573 N 0.18623 0.62796 0.16863
 N574 N 0.17196 0.62883 0.18351
 C575 C 0.17445 0.61197 0.19621
 C576 C 0.19124 0.59992 0.18893
 C577 C 0.19832 0.61059 0.17140
 H578 H 0.16464 0.60861 0.20960
 H579 H 0.21097 0.60579 0.16110
 Cu580 Cu 0.15112 0.65153 0.18376
 Cu581 Cu 0.18736 0.64873 0.14603
 Cu582 Cu 0.14849 0.68797 0.14602
 N583 N 0.12875 0.67272 0.18361
 N584 N 0.12790 0.68705 0.16872
 C585 C 0.11072 0.69937 0.17159
 C586 C 0.10013 0.69235 0.18918
 C587 C 0.11206 0.67538 0.19640
 H588 H 0.10594 0.71211 0.16131
 H589 H 0.10870 0.66554 0.20979
 N590 N 0.17080 0.68602 0.12456
 N591 N 0.18563 0.67120 0.12462
 C592 C 0.19812 0.67390 0.10783
 C593 C 0.19082 0.69122 0.09662
 C594 C 0.17348 0.69848 0.10771
 H595 H 0.21144 0.66388 0.10397
 H596 H 0.16331 0.71164 0.10357
 H597 H 0.17332 0.67360 0.16151
 H598 H 0.15536 0.65597 0.14642
 N599 N 0.18395 0.12443 0.66875
 N600 N 0.16913 0.12482 0.68311
 C601 C 0.17149 0.10780 0.69562
 C602 C 0.18873 0.09613 0.68877
 C603 C 0.19625 0.10722 0.67167
 H604 H 0.16119 0.10394 0.70852
 H605 H 0.20955 0.10302 0.66192
 Cu606 Cu 0.14777 0.14713 0.68377
 Cu607 Cu 0.18568 0.14568 0.64681
 Cu608 Cu 0.14672 0.18442 0.64614
 N609 N 0.12579 0.16884 0.68278
 N610 N 0.12536 0.18319 0.66792
 C611 C 0.10898 0.19647 0.67117
 C612 C 0.09852 0.19018 0.68910
 C613 C 0.10966 0.17256 0.69603
 H614 H 0.10534 0.21000 0.66145
 H615 H 0.10662 0.16352 0.71002
 N616 N 0.16969 0.18310 0.62544
 N617 N 0.18469 0.16850 0.62581
 C618 C 0.19783 0.17170 0.60959
 C619 C 0.19077 0.18917 0.59844
 C620 C 0.17289 0.19596 0.60897
 H621 H 0.21142 0.16190 0.60605
 H622 H 0.16273 0.20908 0.60471
 H623 H 0.17079 0.16980 0.66279
 H624 H 0.15353 0.15230 0.64661
 N625 N 0.31666 0.62608 0.33185
 N626 N 0.33106 0.62674 0.31710
 C627 C 0.32695 0.61134 0.30323
 C628 C 0.30899 0.60047 0.30962
 C629 C 0.30294 0.61028 0.32790
 H630 H 0.33588 0.60870 0.28914
 H631 H 0.28924 0.60666 0.33735
 Cu632 Cu 0.35308 0.64835 0.31694
 Cu633 Cu 0.31559 0.64685 0.35407
 Cu634 Cu 0.35460 0.68556 0.35426
 N635 N 0.37545 0.66957 0.31783
 N636 N 0.37591 0.68413 0.33236
 C637 C 0.39297 0.69661 0.32939
 C638 C 0.40385 0.68950 0.31206
 C639 C 0.39224 0.67228 0.30516
 H640 H 0.39712 0.70984 0.33919
 H641 H 0.39594 0.66230 0.29204
 N642 N 0.33168 0.68422 0.37512
 N643 N 0.31707 0.66926 0.37521
 C644 C 0.30334 0.67297 0.39080
 C645 C 0.30952 0.69119 0.40104
 C646 C 0.32758 0.69787 0.39066
 H647 H 0.28950 0.66342 0.39406
 H648 H 0.33665 0.71203 0.39378
 H649 H 0.33037 0.67115 0.33792
 H650 H 0.34776 0.65362 0.35409
 N651 N 0.31631 0.12483 0.83332
 N652 N 0.33139 0.12491 0.81923
 C653 C 0.32720 0.10987 0.80503
 C654 C 0.30849 0.09978 0.81053
 C655 C 0.30207 0.10970 0.82862
 H656 H 0.33662 0.10699 0.79130
 H657 H 0.28778 0.10666 0.83741
 Cu658 Cu 0.35438 0.14548 0.82000
 Cu659 Cu 0.31510 0.14552 0.85556
 Cu660 Cu 0.35458 0.18359 0.85657
 N661 N 0.37598 0.16748 0.82056
 N662 N 0.37611 0.18215 0.83498
 C663 C 0.39201 0.19582 0.83114
 C664 C 0.40242 0.18948 0.81326
 C665 C 0.39177 0.17140 0.80699
 H666 H 0.39523 0.20975 0.84033
 H667 H 0.39477 0.16229 0.79311
 N668 N 0.33145 0.18242 0.87709
 N669 N 0.31651 0.16779 0.87681
 C670 C 0.30238 0.17191 0.89195
 C671 C 0.30864 0.19009 0.90224
 C672 C 0.32717 0.19626 0.89240
 H673 H 0.28819 0.16276 0.89479
 H674 H 0.33637 0.21032 0.89560
 H675 H 0.33098 0.16908 0.83930
 H676 H 0.34728 0.15174 0.85677
 N677 N 0.81729 0.62412 0.83351
 N678 N 0.83216 0.62439 0.81921
 C679 C 0.82817 0.60898 0.80532
 C680 C 0.80984 0.59845 0.81127
 C681 C 0.80343 0.60852 0.82929
 H682 H 0.83747 0.60612 0.79150
 H683 H 0.78936 0.60527 0.83834
 Cu684 Cu 0.85458 0.64562 0.81942
 Cu685 Cu 0.81579 0.64516 0.85545
 Cu686 Cu 0.85442 0.68413 0.85557
 N687 N 0.87577 0.66806 0.81948
 N688 N 0.87577 0.68287 0.83377
 C689 C 0.89141 0.69678 0.82969
 C690 C 0.90180 0.69045 0.81179
 C691 C 0.89141 0.67213 0.80576
 H692 H 0.89449 0.71081 0.83876
 H693 H 0.89450 0.66291 0.79197
 N694 N 0.83150 0.68273 0.87635
 N695 N 0.81686 0.66781 0.87636
 C696 C 0.80276 0.67184 0.89157
 C697 C 0.80874 0.69026 0.90160
 C698 C 0.82707 0.69668 0.89154
 H699 H 0.78879 0.66243 0.89464
 H700 H 0.83601 0.71095 0.89451
 H701 H 0.83092 0.66891 0.83879
 H702 H 0.84781 0.65213 0.85622
 N703 N 0.81956 0.12286 0.33457
 N704 N 0.83367 0.12397 0.31957
 C705 C 0.82962 0.10861 0.30563
 C706 C 0.81201 0.09730 0.31226
 C707 C 0.80613 0.10680 0.33073
 H708 H 0.83824 0.10638 0.29128
 H709 H 0.79262 0.10288 0.34034
 Cu710 Cu 0.85487 0.14640 0.31916
 Cu711 Cu 0.81815 0.14356 0.35687
 Cu712 Cu 0.85586 0.18353 0.35639
 N713 N 0.87626 0.16864 0.31923
 N714 N 0.87662 0.18298 0.33398
 C715 C 0.89222 0.19695 0.33003
 C716 C 0.90221 0.19116 0.31175
 C717 C 0.89164 0.17308 0.30534
 H718 H 0.89558 0.21064 0.33950
 H719 H 0.89447 0.16429 0.29124
 N720 N 0.83355 0.18132 0.37774
 N721 N 0.81931 0.16600 0.37801
 C722 C 0.80553 0.16956 0.39360
 C723 C 0.81129 0.18806 0.40360
 C724 C 0.82916 0.19503 0.39313
 H725 H 0.79185 0.15980 0.39691
 H726 H 0.83775 0.20955 0.39593
 H727 H 0.83174 0.16836 0.34049
 H728 H 0.84995 0.15141 0.35637
 N729 N 0.68498 0.37297 0.33257
 N730 N 0.67058 0.37246 0.31779
 C731 C 0.67505 0.38753 0.30358
 C732 C 0.69321 0.39810 0.30978
 C733 C 0.69907 0.38841 0.32830
 H734 H 0.66612 0.39022 0.28945
 H735 H 0.71276 0.39200 0.33779
 Cu736 Cu 0.64785 0.35164 0.31795
 Cu737 Cu 0.68504 0.35288 0.35564
 Cu738 Cu 0.64551 0.31473 0.35581
 N739 N 0.62617 0.32972 0.31804
 N740 N 0.62538 0.31531 0.33283
 C741 C 0.60895 0.30222 0.32919
 C742 C 0.59884 0.30877 0.31112
 C743 C 0.61024 0.32629 0.30449
 H744 H 0.60467 0.28900 0.33905
 H745 H 0.60696 0.33599 0.29097
 N746 N 0.66730 0.31673 0.37771
 N747 N 0.68240 0.33119 0.37763
 C748 C 0.69546 0.32762 0.39389
 C749 C 0.68825 0.31007 0.40476
 C750 C 0.67031 0.30363 0.39404
 H751 H 0.70968 0.33660 0.39711
 H752 H 0.66055 0.29000 0.39745
 H753 H 0.67015 0.32880 0.33954
 H754 H 0.65286 0.34664 0.35528
 N755 N 0.68362 0.87450 0.83358
 N756 N 0.66952 0.87374 0.81852
 C757 C 0.67353 0.88942 0.80480
 C758 C 0.69109 0.90064 0.81164
 C759 C 0.69704 0.89068 0.82998
 H760 H 0.66473 0.89215 0.79060
 H761 H 0.71035 0.89463 0.83985
 Cu762 Cu 0.64777 0.85186 0.81807
 Cu763 Cu 0.68412 0.85399 0.85629
 Cu764 Cu 0.64566 0.81469 0.85559
 N765 N 0.62615 0.82984 0.81791
 N766 N 0.62552 0.81527 0.83256
 C767 C 0.60891 0.80236 0.82909
 C768 C 0.59848 0.80919 0.81130
 C769 C 0.60991 0.82670 0.80463
 H770 H 0.60462 0.78916 0.83899
 H771 H 0.60635 0.83666 0.79137
 N772 N 0.66740 0.81684 0.87758
 N773 N 0.68201 0.83181 0.87788
 C774 C 0.69425 0.82918 0.89490
 C775 C 0.68700 0.81172 0.90589
 C776 C 0.66995 0.80433 0.89443
 H777 H 0.70746 0.83924 0.89898
 H778 H 0.65995 0.79098 0.89826
 H779 H 0.67021 0.82951 0.83999
 H780 H 0.65212 0.84678 0.85544
 N781 N 0.18493 0.37580 0.83389
 N782 N 0.17085 0.37493 0.81883
 C783 C 0.17378 0.39149 0.80587
 C784 C 0.19063 0.40339 0.81319
 C785 C 0.19733 0.39292 0.83101
 H786 H 0.16433 0.39467 0.79217
 H787 H 0.21002 0.39764 0.84133
 Cu788 Cu 0.14978 0.35250 0.81775
 Cu789 Cu 0.18562 0.35509 0.85647
 Cu790 Cu 0.14751 0.31543 0.85535
 N791 N 0.12837 0.33035 0.81747
 N792 N 0.12763 0.31581 0.83213
 C793 C 0.11184 0.30214 0.82785
 C794 C 0.10209 0.30847 0.80952
 C795 C 0.11303 0.32647 0.80340
 H796 H 0.10806 0.28835 0.83715
 H797 H 0.11027 0.33588 0.78959
 N798 N 0.16900 0.31775 0.87753
 N799 N 0.18362 0.33270 0.87789
 C800 C 0.19577 0.33004 0.89498
 C801 C 0.18844 0.31258 0.90592
 C802 C 0.17143 0.30524 0.89438
 H803 H 0.20894 0.34012 0.89915
 H804 H 0.16140 0.29189 0.89813
 H805 H 0.17216 0.33046 0.84006
 H806 H 0.15370 0.34765 0.85518
 N807 N 0.18300 0.87623 0.33241
 N808 N 0.16882 0.87536 0.31743
 C809 C 0.17139 0.89224 0.30476
 C810 C 0.18810 0.90431 0.31221
 C811 C 0.19506 0.89362 0.32978
 H812 H 0.16176 0.89553 0.29121
 H813 H 0.20770 0.89836 0.34014
 Cu814 Cu 0.14801 0.85258 0.31619
 Cu815 Cu 0.18434 0.85529 0.35466
 Cu816 Cu 0.14631 0.81575 0.35426
 N817 N 0.12649 0.83042 0.31661
 N818 N 0.12582 0.81624 0.33161
 C819 C 0.10981 0.80265 0.32794
 C820 C 0.09985 0.80858 0.30960
 C821 C 0.11089 0.82630 0.30286
 H822 H 0.10600 0.78923 0.33774
 H823 H 0.10808 0.83519 0.28871
 N824 N 0.16839 0.81783 0.37584
 N825 N 0.18306 0.83272 0.37587
 C826 C 0.19579 0.82987 0.39251
 C827 C 0.18879 0.81232 0.40352
 C828 C 0.17137 0.80513 0.39248
 H829 H 0.20912 0.83988 0.39635
 H830 H 0.16145 0.79176 0.39643
 H831 H 0.17065 0.83064 0.33839
 H832 H 0.15236 0.84799 0.35362
 O833 O 0.24847 1.02337 0.27480
 O834 O 0.27388 0.97797 0.24903
 O835 O 0.27711 1.01916 0.24604
 O836 O 0.24573 0.98220 0.27798
 O837 O 0.22031 0.98238 0.25431
 O838 O 0.25180 1.01926 0.22228
 O839 O 0.24848 0.97805 0.22535
 O840 O 0.22325 1.02355 0.25094
 Cu841 Cu 0.26384 1.00070 0.26434
 Cu842 Cu 0.23344 1.00084 0.23582
 C843 C 0.23162 1.03133 0.26717
 C844 C 0.26531 0.97004 0.23295
 C845 C 0.26973 1.02569 0.22878
 C846 C 0.22780 0.97575 0.27151
 O847 O 0.24878 0.52194 0.77603
 O848 O 0.27598 0.47878 0.74841
 O849 O 0.27744 0.52031 0.74670
 O850 O 0.24810 0.48096 0.77770
 O851 O 0.22251 0.48086 0.75419
 O852 O 0.25198 0.52016 0.72310
 O853 O 0.25054 0.47866 0.72477
 O854 O 0.22344 0.52193 0.75229
 Cu855 Cu 0.26523 0.50062 0.76448
 Cu856 Cu 0.23464 0.50045 0.73613
 C857 C 0.23131 0.52912 0.76902
 C858 C 0.26764 0.47100 0.73215
 C859 C 0.26967 0.52709 0.72968
 C860 C 0.23031 0.47415 0.77124
 O861 O 0.74946 -0.02015 0.22357
 O862 O 0.77790 0.02104 0.25283
 O863 O 0.77805 -0.02032 0.25300
 O864 O 0.74948 0.02129 0.22400
 O865 O 0.72414 0.02109 0.24768
 O866 O 0.75277 -0.02048 0.27672
 O867 O 0.75252 0.02085 0.27648
 O868 O 0.72408 -0.02026 0.24719
 Cu869 Cu 0.76625 0.00033 0.23596
 Cu870 Cu 0.73583 0.00010 0.26440
 C871 C 0.73188 -0.02718 0.23033
 C872 C 0.76980 0.02833 0.26941
 C873 C 0.77035 -0.02742 0.26989
 C874 C 0.73220 0.02867 0.23116
 O875 O 0.75322 0.47925 0.77758
 O876 O 0.72304 0.51883 0.74743
 O877 O 0.72448 0.47777 0.74835
 O878 O 0.75157 0.52072 0.77629
 O879 O 0.77687 0.52103 0.75259
 O880 O 0.74976 0.47802 0.72462
 O881 O 0.74835 0.51918 0.72372
 O882 O 0.77849 0.47956 0.75386
 Cu883 Cu 0.73562 0.49901 0.76488
 Cu884 Cu 0.76596 0.49939 0.73637
 C885 C 0.77093 0.47253 0.77084
 C886 C 0.73063 0.52589 0.73048
 C887 C 0.73237 0.47070 0.73159
 C888 C 0.76858 0.52854 0.76898
 O889 O 0.24907 0.47957 0.22372
 O890 O 0.27608 0.52270 0.25149
 O891 O 0.27772 0.48128 0.25290
 O892 O 0.24779 0.52071 0.22246
 O893 O 0.22237 0.52052 0.24606
 O894 O 0.25253 0.48118 0.27671
 O895 O 0.25069 0.52258 0.27511
 O896 O 0.22375 0.47941 0.24740
 Cu897 Cu 0.26526 0.50099 0.23532
 Cu898 Cu 0.23485 0.50080 0.26377
 C899 C 0.23169 0.47225 0.23070
 C900 C 0.26774 0.53032 0.26781
 C901 C 0.27024 0.47444 0.26998
 C902 C 0.23005 0.52748 0.22910
 O903 O 0.74892 1.02086 0.77719
 O904 O 0.77612 0.97891 0.74763
 O905 O 0.77752 1.02028 0.74767
 O906 O 0.74892 0.97938 0.77734
 O907 O 0.72322 0.97966 0.75396
 O908 O 0.75171 1.02093 0.72444
 O909 O 0.75041 0.97960 0.72427
 O910 O 0.72315 1.02113 0.75392
 Cu911 Cu 0.76546 1.00000 0.76480
 Cu912 Cu 0.73452 1.00058 0.73683
 C913 C 0.73129 1.02808 0.77061
 C914 C 0.76759 0.97172 0.73118
 C915 C 0.76958 1.02753 0.73093
 C916 C 0.73155 0.97204 0.77040
 O917 O 0.74679 0.51825 0.27858
 O918 O 0.77803 0.48190 0.24588
 O919 O 0.77458 0.52307 0.24920
 O920 O 0.75034 0.47712 0.27535
 O921 O 0.72455 0.47715 0.25208
 O922 O 0.74893 0.52294 0.22578
 O923 O 0.75220 0.48178 0.22266
 O924 O 0.72124 0.51827 0.25505
 Cu925 Cu 0.76503 0.50009 0.26459
 Cu926 Cu 0.73416 0.50001 0.23655
 C927 C 0.72879 0.52470 0.27222
 C928 C 0.77028 0.47539 0.22882
 C929 C 0.76576 0.53103 0.23318
 C930 C 0.73340 0.46915 0.26806
 O931 O 0.25403 -0.01887 0.77797
 O932 O 0.22191 0.01806 0.74660
 O933 O 0.22568 -0.02313 0.74902
 O934 O 0.25052 0.02226 0.77522
 O935 O 0.27561 0.02293 0.75130
 O936 O 0.25083 -0.02249 0.72516
 O937 O 0.24688 0.01867 0.72256
 O938 O 0.27908 -0.01822 0.75401
 Cu939 Cu 0.23550 -0.00049 0.76459
 Cu940 Cu 0.26561 0.00034 0.73585
 C941 C 0.27193 -0.02506 0.77124
 C942 C 0.22899 0.02486 0.72934
 C943 C 0.23419 -0.03077 0.73279
 C944 C 0.26722 0.03046 0.76763
 O945 O 0.24617 0.27821 0.98257
 O946 O 0.27801 0.24572 1.01881
 O947 O 0.27483 0.24889 0.97845
 O948 O 0.24926 0.27482 1.02303
 O949 O 0.22421 0.25038 1.02294
 O950 O 0.24985 0.22439 0.97851
 O951 O 0.25290 0.22135 1.01890
 O952 O 0.22130 0.25360 0.98251
 Cu953 Cu 0.26457 0.26439 1.00070
 Cu954 Cu 0.23454 0.23499 1.00071
 C955 C 0.22841 0.27129 0.97614
 C956 C 0.27075 0.22809 1.02524
 C957 C 0.26662 0.23229 0.97076
 C958 C 0.23252 0.26684 1.03079
 O959 O 0.24727 0.77846 0.48023
 O960 O 0.27779 0.74758 0.51883
 O961 O 0.27609 0.74919 0.47810
 O962 O 0.24878 0.77695 0.52058
 O963 O 0.22356 0.75268 0.52042
 O964 O 0.25122 0.72459 0.47836
 O965 O 0.25261 0.72330 0.51915
 O966 O 0.22249 0.75375 0.48016
 Cu967 Cu 0.26507 0.76543 0.49948
 Cu968 Cu 0.23505 0.73603 0.49961
 C969 C 0.22971 0.77130 0.47352
 C970 C 0.27025 0.73029 0.52579
 C971 C 0.26808 0.73238 0.47068
 C972 C 0.23138 0.76969 0.52760
 O973 O 0.27878 0.75427 -0.01974
 O974 O 0.24814 0.72367 0.01884
 O975 O 0.24999 0.72517 -0.02182
 O976 O 0.27727 0.75290 0.02064
 O977 O 0.25261 0.77778 0.02013
 O978 O 0.22490 0.74962 -0.02193
 O979 O 0.22348 0.74853 0.01876
 O980 O 0.25366 0.77870 -0.02022
 Cu981 Cu 0.26599 0.73647 -0.00041
 Cu982 Cu 0.23610 0.76607 -0.00076
 C983 C 0.27132 0.77161 -0.02674
 C984 C 0.23066 0.73100 0.02554
 C985 C 0.23300 0.73286 -0.02941
 C986 C 0.26974 0.77018 0.02751
 O987 O 0.27650 0.25200 0.47948
 O988 O 0.24843 0.22278 0.52087
 O989 O 0.24828 0.22262 0.48026
 O990 O 0.27737 0.25260 0.52015
 O991 O 0.25207 0.27682 0.52015
 O992 O 0.22300 0.24688 0.48023
 O993 O 0.22327 0.24714 0.52081
 O994 O 0.25122 0.27625 0.47945
 Cu995 Cu 0.26520 0.23507 0.50038
 Cu996 Cu 0.23488 0.26422 0.50032
 C997 C 0.26830 0.26878 0.47197
 C998 C 0.23097 0.22992 0.52782
 C999 C 0.23095 0.22992 0.47304
 C1000 C 0.26972 0.26986 0.52693
 O1001 O 0.74557 0.77794 0.98211
 O1002 O 0.77806 0.74579 1.01813
 O1003 O 0.77460 0.74895 0.97779
 O1004 O 0.74909 0.77466 1.02257
 O1005 O 0.72436 0.74990 1.02279
 O1006 O 0.74983 0.72425 0.97799
 O1007 O 0.75321 0.72115 1.01831
 O1008 O 0.72093 0.75310 0.98231
 Cu1009 Cu 0.76429 0.76435 1.00011
 Cu1010 Cu 0.73458 0.73465 1.00036
 C1011 C 0.72782 0.77085 0.97584
 C1012 C 0.77103 0.72808 1.02457
 C1013 C 0.76649 0.73228 0.97015
 C1014 C 0.73256 0.76646 1.03056
 O1015 O 0.77835 0.24497 0.51973
 O1016 O 0.74740 0.27572 0.48131
 O1017 O 0.74926 0.27416 0.52223
 O1018 O 0.77645 0.24689 0.47934
 O1019 O 0.75165 0.22219 0.47951
 O1020 O 0.72450 0.24945 0.52235
 O1021 O 0.72267 0.25098 0.48154
 O1022 O 0.75339 0.22043 0.51991
 Cu1023 Cu 0.76528 0.26301 0.50071
 Cu1024 Cu 0.73550 0.23336 0.50090
 C1025 C 0.77107 0.22745 0.52642
 C1026 C 0.73008 0.26822 0.47437
 C1027 C 0.73247 0.26621 0.52992
 C1028 C 0.76856 0.23000 0.47194
 O1029 O 0.77664 0.25292 -0.02065
 O1030 O 0.74882 0.22493 0.02162
 O1031 O 0.74791 0.22327 -0.01913
 O1032 O 0.77740 0.25410 0.01969
 O1033 O 0.75244 0.27867 0.01909
 O1034 O 0.72251 0.24738 -0.01934
 O1035 O 0.72376 0.24940 0.02134
 O1036 O 0.75123 0.27702 -0.02137
 Cu1037 Cu 0.76514 0.23629 0.00034
 Cu1038 Cu 0.73491 0.26551 -0.00019
 C1039 C 0.76872 0.26981 -0.02818
 C1040 C 0.73184 0.23267 0.02906
 C1041 C 0.73023 0.23008 -0.02597
 C1042 C 0.76993 0.27157 0.02613
 O1043 O 0.72186 0.74589 0.48123
 O1044 O 0.75203 0.77735 0.51905
 O1045 O 0.75018 0.77533 0.47844
 O1046 O 0.72325 0.74794 0.52156
 O1047 O 0.74834 0.72351 0.52186
 O1048 O 0.77535 0.75097 0.47871
 O1049 O 0.77727 0.75307 0.51933
 O1050 O 0.74695 0.72144 0.48155
 Cu1051 Cu 0.73436 0.76412 0.50011
 Cu1052 Cu 0.76458 0.73486 0.50048
 C1053 C 0.72927 0.72838 0.47481
 C1054 C 0.76977 0.77055 0.52574
 C1055 C 0.76713 0.76761 0.47093
 C1056 C 0.73108 0.73096 0.52897
 O1057 O 1.01990 0.28017 0.24737
 O1058 O 0.97872 0.25138 0.27652
 O1059 O 1.02054 0.25169 0.27662
 O1060 O 0.97882 0.27991 0.24739
 O1061 O 0.97890 0.25457 0.22384
 O1062 O 1.02071 0.22647 0.25299
 O1063 O 0.97895 0.22609 0.25295
 O1064 O 1.02001 0.25494 0.22371
 Cu1065 Cu 0.99950 0.26820 0.26449
 Cu1066 Cu 0.99969 0.23787 0.23611
 C1067 C 1.02689 0.27253 0.23046
 C1068 C 0.97142 0.23410 0.26945
 C1069 C 1.02810 0.23451 0.26956
 C1070 C 0.97178 0.27209 0.23058
 O1071 O 0.52061 0.27711 0.74820
 O1072 O 0.47959 0.24854 0.77767
 O1073 O 0.52104 0.24827 0.77735
 O1074 O 0.47911 0.27680 0.74875
 O1075 O 0.47887 0.25172 0.72495
 O1076 O 0.52080 0.22316 0.75360
 O1077 O 0.47929 0.22341 0.75390
 O1078 O 0.52031 0.25214 0.72430
 Cu1079 Cu 0.50027 0.26520 0.76537
 Cu1080 Cu 0.49996 0.23507 0.73680
 C1081 C 0.52742 0.26958 0.73119
 C1082 C 0.47205 0.23137 0.77058
 C1083 C 0.52804 0.23080 0.77042
 C1084 C 0.47145 0.26887 0.73224
 O1085 O 0.02268 0.25176 0.77600
 O1086 O -0.02115 0.22507 0.74874
 O1087 O 0.02056 0.22366 0.74713
 O1088 O -0.01867 0.25363 0.77759
 O1089 O -0.01863 0.27896 0.75382
 O1090 O 0.02037 0.24888 0.72323
 O1091 O -0.02126 0.25038 0.72496
 O1092 O 0.02274 0.27691 0.75203
 Cu1093 Cu 0.00076 0.23595 0.76471
 Cu1094 Cu 0.00070 0.26627 0.73607
 C1095 C 0.03048 0.26866 0.76843
 C1096 C -0.02893 0.23335 0.73237
 C1097 C 0.02766 0.23150 0.73028
 C1098 C -0.02540 0.27139 0.77090
 O1099 O 0.51887 0.24795 0.22306
 O1100 O 0.47995 0.27809 0.25363
 O1101 O 0.52108 0.27643 0.25223
 O1102 O 0.47726 0.24999 0.22475
 O1103 O 0.47712 0.22468 0.24855
 O1104 O 0.52085 0.25119 0.27610
 O1105 O 0.47980 0.25286 0.27753
 O1106 O 0.51872 0.22260 0.24680
 Cu1107 Cu 0.49941 0.26556 0.23594
 Cu1108 Cu 0.49922 0.23519 0.26454
 C1109 C 0.52555 0.23018 0.22974
 C1110 C 0.47316 0.27062 0.27075
 C1111 C 0.52821 0.26852 0.26904
 C1112 C 0.46935 0.23310 0.23224
 O1113 O 1.01987 0.77832 0.74661
 O1114 O 0.97844 0.75004 0.77579
 O1115 O 1.02026 0.75016 0.77590
 O1116 O 0.97878 0.77830 0.74635
 O1117 O 0.97873 0.75277 0.72300
 O1118 O 1.02051 0.72485 0.75234
 O1119 O 0.97867 0.72454 0.75244
 O1120 O 1.01982 0.75313 0.72290
 Cu1121 Cu 0.99929 0.76663 0.76365
 Cu1122 Cu 0.99944 0.73614 0.73544
 C1123 C 1.02685 0.77064 0.72972
 C1124 C 0.97113 0.73270 0.76888
 C1125 C 1.02790 0.73301 0.76885
 C1126 C 0.97174 0.77040 0.72957
 O1127 O 0.52002 0.77859 0.24755
 O1128 O 0.48144 0.74763 0.27800
 O1129 O 0.52290 0.74992 0.27612
 O1130 O 0.47885 0.77660 0.24897
 O1131 O 0.47931 0.75191 0.22478
 O1132 O 0.52308 0.72498 0.25219
 O1133 O 0.48150 0.72295 0.25381
 O1134 O 0.52034 0.75375 0.22349
 Cu1135 Cu 0.50066 0.76561 0.26514
 Cu1136 Cu 0.50100 0.73580 0.23624
 C1137 C 0.52688 0.77141 0.23040
 C1138 C 0.47477 0.73005 0.27103
 C1139 C 0.53083 0.73314 0.26855
 C1140 C 0.47177 0.76900 0.23207
 O1141 O -0.02091 0.77609 0.25231
 O1142 O 0.02052 0.74825 0.22275
 O1143 O -0.02063 0.74810 0.22292
 O1144 O 0.02097 0.77615 0.25214
 O1145 O 0.02120 0.75048 0.27555
 O1146 O -0.02039 0.72245 0.24638
 O1147 O 0.02067 0.72255 0.24616
 O1148 O -0.02070 0.75045 0.27575
 Cu1149 Cu -0.00005 0.76485 0.23530
 Cu1150 Cu 0.00021 0.73404 0.26346
 C1151 C -0.02829 0.76774 0.26879
 C1152 C 0.02762 0.73061 0.22935
 C1153 C -0.02753 0.73042 0.22959
 C1154 C 0.02863 0.76779 0.26852
 O1155 O 0.47887 0.77725 0.75244
 O1156 O 0.52046 0.74829 0.72422
 O1157 O 0.47911 0.74830 0.72375
 O1158 O 0.52025 0.77704 0.75298
 O1159 O 0.51992 0.75211 0.77716
 O1160 O 0.47872 0.72345 0.74801
 O1161 O 0.52014 0.72324 0.74828
 O1162 O 0.47862 0.75231 0.77661
 Cu1163 Cu 0.49971 0.76522 0.73592
 Cu1164 Cu 0.49934 0.73526 0.76493
 C1165 C 0.47160 0.76972 0.76934
 C1166 C 0.52744 0.73085 0.73142
 C1167 C 0.47181 0.73101 0.73095
 C1168 C 0.52711 0.76949 0.77007
 C1169 C 0.43006 0.31000 0.28386
 C1170 C 0.42216 0.30239 0.30282
 C1171 C 0.43391 0.28629 0.31296
 C1172 C 0.45126 0.27652 0.30301
 C1173 C 0.45729 0.28269 0.28276
 C1174 C 0.44719 0.30041 0.27411
 C1175 C 0.43769 0.30336 0.25302
 C1176 C 0.41892 0.31383 0.26366
 H1177 H 0.42917 0.28048 0.32811
 H1178 H 0.45921 0.26346 0.31075
 H1179 H 0.43361 0.28809 0.24544
 H1180 H 0.44707 0.31452 0.24327
 H1181 H 0.40393 0.30464 0.26227
 H1182 H 0.41750 0.33099 0.25994
 C1183 C 0.42817 0.78215 0.80796
 C1184 C 0.41888 0.80067 0.79983
 C1185 C 0.42965 0.81075 0.78320
 C1186 C 0.44742 0.80119 0.77380
 C1187 C 0.45489 0.78130 0.78070
 C1188 C 0.44565 0.77276 0.79863
 C1189 C 0.43768 0.75090 0.80271
 C1190 C 0.41850 0.76107 0.81290
 H1191 H 0.42406 0.82560 0.77680
 H1192 H 0.45462 0.80892 0.76050
 H1193 H 0.44795 0.74211 0.81388
 H1194 H 0.43374 0.74222 0.78821
 H1195 H 0.41775 0.75799 0.82992
 H1196 H 0.40342 0.75829 0.80432
 C1197 C -0.06833 0.28350 0.81010
 C1198 C -0.07739 0.30220 0.80230
 C1199 C -0.06639 0.31282 0.78623
 C1200 C -0.04860 0.30341 0.77668
 C1201 C -0.04145 0.28317 0.78298
 C1202 C -0.05085 0.27422 0.80066
 C1203 C -0.05914 0.25235 0.80418
 C1204 C -0.07828 0.26248 0.81451
 H1205 H -0.07206 0.32786 0.78029
 H1206 H -0.04130 0.31143 0.76360
 H1207 H -0.04905 0.24317 0.81520
 H1208 H -0.06307 0.24408 0.78944
 H1209 H -0.07920 0.25905 0.83145
 H1210 H -0.09333 0.26008 0.80576
 C1211 C -0.07280 0.80594 0.28136
 C1212 C -0.08168 0.79745 0.29954
 C1213 C -0.07399 0.77757 0.30636
 C1214 C -0.05667 0.76780 0.29638
 C1215 C -0.04657 0.77768 0.27934
 C1216 C -0.05574 0.79630 0.27153
 C1217 C -0.04563 0.81702 0.26635
 C1218 C -0.06427 0.82761 0.27711
 H1219 H -0.08090 0.76970 0.31970
 H1220 H -0.05091 0.75279 0.30235
 H1221 H -0.04525 0.82002 0.24931
 H1222 H -0.03024 0.81936 0.27453
 H1223 H -0.07456 0.83673 0.26622
 H1224 H -0.05974 0.83612 0.29155
 C1225 C 0.57562 0.69494 0.28052
 C1226 C 0.58504 0.70361 0.29830
 C1227 C 0.57793 0.72379 0.30465
 C1228 C 0.56049 0.73361 0.29481
 C1229 C 0.54973 0.72350 0.27838
 C1230 C 0.55844 0.70465 0.27081
 C1231 C 0.54795 0.68398 0.26637
 C1232 C 0.56673 0.67332 0.27700
 H1233 H 0.58531 0.73179 0.31761
 H1234 H 0.55507 0.74879 0.30052
 H1235 H 0.54711 0.68070 0.24942
 H1236 H 0.53275 0.68195 0.27494
 H1237 H 0.57663 0.66389 0.26614
 H1238 H 0.56245 0.66510 0.29175
 C1239 C 0.57196 0.21900 0.80893
 C1240 C 0.58056 0.19998 0.80160
 C1241 C 0.56922 0.18933 0.78583
 C1242 C 0.55151 0.19890 0.77617
 C1243 C 0.54471 0.21930 0.78209
 C1244 C 0.55450 0.22840 0.79942
 C1245 C 0.56319 0.25018 0.80225
 C1246 C 0.58233 0.23993 0.81263
 H1247 H 0.57448 0.17406 0.78026
 H1248 H 0.54383 0.19075 0.76343
 H1249 H 0.55342 0.25973 0.81312
 H1250 H 0.56702 0.25810 0.78724
 H1251 H 0.58356 0.24367 0.82946
 H1252 H 0.59728 0.24191 0.80365
 C1253 C 1.07195 0.69433 0.78194
 C1254 C 1.08122 0.70301 0.79978
 C1255 C 1.07402 0.72319 0.80608
 C1256 C 1.05675 0.73306 0.79600
 C1257 C 1.04624 0.72301 0.77937
 C1258 C 1.05495 0.70409 0.77199
 C1259 C 1.04439 0.68347 0.76751
 C1260 C 1.06297 0.67275 0.77840
 H1261 H 1.08125 0.73119 0.81911
 H1262 H 1.05135 0.74829 0.80158
 H1263 H 1.04373 0.68012 0.75056
 H1264 H 1.02907 0.68158 0.77589
 H1265 H 1.07294 0.66321 0.76769
 H1266 H 1.05846 0.66462 0.79313
 C1267 C 1.07137 0.19506 0.28295
 C1268 C 1.08034 0.20330 0.30115
 C1269 C 1.07335 0.22351 0.30755
 C1270 C 1.05651 0.23385 0.29720
 C1271 C 1.04622 0.22422 0.28019
 C1272 C 1.05480 0.20527 0.27275
 C1273 C 1.04402 0.18491 0.26766
 C1274 C 1.06213 0.17370 0.27883
 H1275 H 1.08038 0.23117 0.32089
 H1276 H 1.05119 0.24907 0.30290
 H1277 H 1.04375 0.18187 0.25065
 H1278 H 1.02846 0.18313 0.27563
 H1279 H 1.07222 0.16418 0.26820
 H1280 H 1.05712 0.16540 0.29330
 C1281 C 0.57158 0.30797 0.71847
 C1282 C 0.57926 0.30057 0.69940
 C1283 C 0.56713 0.28495 0.68915
 C1284 C 0.54961 0.27538 0.69906
 C1285 C 0.54376 0.28129 0.71938
 C1286 C 0.55428 0.29859 0.72818
 C1287 C 0.56387 0.30089 0.74927
 C1288 C 0.58283 0.31115 0.73870
 H1289 H 0.57167 0.27933 0.67393
 H1290 H 0.54134 0.26269 0.69120
 H1291 H 0.56766 0.28538 0.75667
 H1292 H 0.55474 0.31205 0.75916
 H1293 H 0.59764 0.30160 0.73998
 H1294 H 0.58460 0.32820 0.74258
 C1295 C 0.57043 0.81044 0.21768
 C1296 C 0.57813 0.80310 0.19859
 C1297 C 0.56602 0.78756 0.18824
 C1298 C 0.54854 0.77789 0.19811
 C1299 C 0.54274 0.78363 0.21850
 C1300 C 0.55318 0.80096 0.22736
 C1301 C 0.56281 0.80320 0.24846
 C1302 C 0.58172 0.81357 0.23788
 H1303 H 0.57058 0.78203 0.17299
 H1304 H 0.54034 0.76518 0.19021
 H1305 H 0.56666 0.78767 0.25580
 H1306 H 0.55366 0.81429 0.25840
 H1307 H 0.59656 0.80406 0.23909
 H1308 H 0.58345 0.83061 0.24183
 C1309 C 1.06926 0.28503 0.19075
 C1310 C 1.07861 0.30345 0.19863
 C1311 C 1.06810 0.31375 0.21511
 C1312 C 1.05051 0.30424 0.22494
 C1313 C 1.04311 0.28421 0.21850
 C1314 C 1.05199 0.27565 0.20046
 C1315 C 1.06003 0.25381 0.19636
 C1316 C 1.07897 0.26406 0.18574
 H1317 H 1.07400 0.32860 0.22113
 H1318 H 1.04353 0.31202 0.23825
 H1319 H 1.04959 0.24502 0.18545
 H1320 H 1.06428 0.24510 0.21086
 H1321 H 1.07942 0.26109 0.16872
 H1322 H 1.09422 0.26130 0.19406
 C1323 C 1.07144 0.80858 0.71739
 C1324 C 1.07924 0.80106 0.69841
 C1325 C 1.06703 0.78560 0.68803
 C1326 C 1.04930 0.77624 0.69776
 C1327 C 1.04332 0.78223 0.71802
 C1328 C 1.05392 0.79943 0.72690
 C1329 C 1.06325 0.80168 0.74811
 C1330 C 1.08247 0.81166 0.73775
 H1331 H 1.07166 0.77992 0.67286
 H1332 H 1.04097 0.76362 0.68983
 H1333 H 1.06674 0.78614 0.75562
 H1334 H 1.05413 0.81299 0.75785
 H1335 H 1.09714 0.80193 0.73923
 H1336 H 1.08440 0.82870 0.74162
 C1337 C 0.42696 0.69321 0.71894
 C1338 C 0.41904 0.70086 0.69996
 C1339 C 0.43117 0.71643 0.68953
 C1340 C 0.44899 0.72569 0.69917
 C1341 C 0.45514 0.71953 0.71942
 C1342 C 0.44454 0.70230 0.72839
 C1343 C 0.43527 0.69994 0.74962
 C1344 C 0.41601 0.69000 0.73931
 H1345 H 0.42646 0.72222 0.67436
 H1346 H 0.45727 0.73834 0.69117
 H1347 H 0.43181 0.71544 0.75704
 H1348 H 0.44443 0.68859 0.75940
 H1349 H 0.40135 0.69972 0.74077
 H1350 H 0.41410 0.67294 0.74324
 C1351 C 0.42458 0.19507 0.22026
 C1352 C 0.41505 0.20397 0.20257
 C1353 C 0.42209 0.22424 0.19625
 C1354 C 0.43957 0.23393 0.20605
 C1355 C 0.45043 0.22360 0.22240
 C1356 C 0.44179 0.20465 0.22993
 C1357 C 0.45235 0.18393 0.23427
 C1358 C 0.43355 0.17341 0.22369
 H1359 H 0.41466 0.23241 0.18334
 H1360 H 0.44494 0.24919 0.20037
 H1361 H 0.45328 0.18044 0.25121
 H1362 H 0.46751 0.18203 0.22563
 H1363 H 0.42372 0.16384 0.23458
 H1364 H 0.43778 0.16537 0.20891
 C1365 C -0.07082 0.71886 0.19047
 C1366 C -0.07944 0.69979 0.19778
 C1367 C -0.06829 0.68905 0.21371
 C1368 C -0.05074 0.69856 0.22355
 C1369 C -0.04396 0.71902 0.21768
 C1370 C -0.05355 0.72824 0.20019
 C1371 C -0.06236 0.75001 0.19723
 C1372 C -0.08128 0.73977 0.18660
 H1373 H -0.07359 0.67373 0.21925
 H1374 H -0.04321 0.69032 0.23639
 H1375 H -0.05250 0.75971 0.18649
 H1376 H -0.06646 0.75779 0.21219
 H1377 H -0.08230 0.74364 0.16975
 H1378 H -0.09637 0.74160 0.19537
 C1379 C -0.07408 0.19555 0.72107
 C1380 C -0.08289 0.20365 0.70267
 C1381 C -0.07512 0.22331 0.69539
 C1382 C -0.05772 0.23316 0.70515
 C1383 C -0.04762 0.22357 0.72239
 C1384 C -0.05690 0.20524 0.73065
 C1385 C -0.04696 0.18452 0.73628
 C1386 C -0.06575 0.17389 0.72578
 H1387 H -0.08203 0.23089 0.68187
 H1388 H -0.05184 0.24794 0.69880
 H1389 H -0.04653 0.18190 0.75338
 H1390 H -0.03163 0.18182 0.72813
 H1391 H -0.07608 0.16513 0.73687
 H1392 H -0.06135 0.16500 0.71153
 C1393 C 0.30972 0.43134 0.28344
 C1394 C 0.30209 0.42336 0.30238
 C1395 C 0.28590 0.43502 0.31234
 C1396 C 0.27607 0.45234 0.30226
 C1397 C 0.28227 0.45845 0.28204
 C1398 C 0.30007 0.44843 0.27357
 C1399 C 0.30316 0.43908 0.25252
 C1400 C 0.31372 0.42035 0.26328
 H1401 H 0.28006 0.43026 0.32746
 H1402 H 0.26295 0.46021 0.30989
 H1403 H 0.31431 0.44857 0.24286
 H1404 H 0.28791 0.43495 0.24480
 H1405 H 0.33094 0.41908 0.25975
 H1406 H 0.30462 0.40534 0.26179
 C1407 C 0.31140 -0.06827 0.78417
 C1408 C 0.30346 -0.07676 0.80283
 C1409 C 0.28743 -0.06498 0.81301
 C1410 C 0.27799 -0.04723 0.80335
 C1411 C 0.28434 -0.04073 0.78331
 C1412 C 0.30208 -0.05074 0.77470
 C1413 C 0.30524 -0.05939 0.75339
 C1414 C 0.31540 -0.07860 0.76365
 H1415 H 0.28128 -0.06991 0.82796
 H1416 H 0.26487 -0.03944 0.81106
 H1417 H 0.31664 -0.04975 0.74417
 H1418 H 0.29002 -0.06304 0.74539
 H1419 H 0.33263 -0.08002 0.76018
 H1420 H 0.30608 -0.09340 0.76158
 C1421 C 0.78312 0.42912 0.80979
 C1422 C 0.80172 0.41988 0.80187
 C1423 C 0.81221 0.43104 0.78573
 C1424 C 0.80281 0.44896 0.77631
 C1425 C 0.78271 0.45624 0.78277
 C1426 C 0.77392 0.44679 0.80048
 C1427 C 0.75191 0.43899 0.80425
 C1428 C 0.76187 0.41961 0.81440
 H1429 H 0.82716 0.42550 0.77954
 H1430 H 0.81073 0.45631 0.76320
 H1431 H 0.74325 0.43536 0.78961
 H1432 H 0.74315 0.44916 0.81541
 H1433 H 0.75897 0.40473 0.80565
 H1434 H 0.75868 0.41864 0.83137
 C1435 C 0.80962 -0.07083 0.28325
 C1436 C 0.80181 -0.07906 0.30207
 C1437 C 0.78525 -0.06760 0.31179
 C1438 C 0.77553 -0.05023 0.30174
 C1439 C 0.78205 -0.04381 0.28173
 C1440 C 0.80000 -0.05368 0.27340
 C1441 C 0.80328 -0.06277 0.25229
 C1442 C 0.81377 -0.08158 0.26297
 H1443 H 0.77911 -0.07236 0.32679
 H1444 H 0.76228 -0.04247 0.30928
 H1445 H 0.81451 -0.05317 0.24283
 H1446 H 0.78811 -0.06684 0.24441
 H1447 H 0.83101 -0.08281 0.25951
 H1448 H 0.80468 -0.09657 0.26126
 C1449 C 0.28125 0.57041 0.69050
 C1450 C 0.30026 0.57912 0.69786
 C1451 C 0.31112 0.56784 0.71364
 C1452 C 0.30171 0.55012 0.72336
 C1453 C 0.28124 0.54328 0.71751
 C1454 C 0.27197 0.55297 0.70009
 C1455 C 0.25008 0.56157 0.69716
 C1456 C 0.26020 0.58066 0.68666
 H1457 H 0.32639 0.57319 0.71923
 H1458 H 0.30997 0.54257 0.73618
 H1459 H 0.24218 0.56544 0.71212
 H1460 H 0.24051 0.55175 0.68634
 H1461 H 0.25816 0.59562 0.69552
 H1462 H 0.25640 0.58180 0.66981
 C1463 C 0.28267 1.06791 0.18892
 C1464 C 0.30193 1.07618 0.19616
 C1465 C 0.31246 1.06483 0.21210
 C1466 C 0.30255 1.04751 0.22205
 C1467 C 0.28190 1.04116 0.21627
 C1468 C 0.27292 1.05087 0.19873
 C1469 C 0.25127 1.06004 0.19570
 C1470 C 0.26192 1.07870 0.18497
 H1471 H 0.32787 1.06987 0.21763
 H1472 H 0.31057 1.03994 0.23501
 H1473 H 0.24348 1.06433 0.21061
 H1474 H 0.24142 1.05036 0.18500
 H1475 H 0.26031 1.09382 0.19365
 H1476 H 0.25812 1.07974 0.16811
 C1477 C 0.80293 0.57655 0.22142
 C1478 C 0.79401 0.58584 0.20361
 C1479 C 0.77388 0.57848 0.19723
 C1480 C 0.76437 0.56091 0.20709
 C1481 C 0.77480 0.55027 0.22353
 C1482 C 0.79357 0.55924 0.23111
 C1483 C 0.81450 0.54910 0.23562
 C1484 C 0.82478 0.56804 0.22500
 H1485 H 0.76571 0.58575 0.18422
 H1486 H 0.74925 0.55524 0.20134
 H1487 H 0.81678 0.53399 0.22706
 H1488 H 0.81786 0.54826 0.25257
 H1489 H 0.83305 0.56395 0.21029
 H1490 H 0.83408 0.57804 0.23589
 C1491 C 0.78150 1.07092 0.69194
 C1492 C 0.80093 1.07903 0.69892
 C1493 C 0.81174 1.06743 0.71450
 C1494 C 0.80199 1.04999 0.72437
 C1495 C 0.78123 1.04375 0.71887
 C1496 C 0.77191 1.05374 0.70166
 C1497 C 0.75022 1.06297 0.69921
 C1498 C 0.76067 1.08180 0.68857
 H1499 H 0.82727 1.07234 0.71980
 H1500 H 0.81030 1.04213 0.73699
 H1501 H 0.74275 1.06700 0.71435
 H1502 H 0.74014 1.05347 0.68855
 H1503 H 0.75926 1.09677 0.69752
 H1504 H 0.75653 1.08311 0.67181
 C1505 C 0.68977 0.56788 0.28573
 C1506 C 0.69763 0.57566 0.30460
 C1507 C 0.71352 0.56359 0.31471
 C1508 C 0.72297 0.54609 0.30476
 C1509 C 0.71664 0.54021 0.28455
 C1510 C 0.69902 0.55061 0.27599
 C1511 C 0.69611 0.56006 0.25486
 C1512 C 0.68601 0.57900 0.26547
 H1513 H 0.71951 0.56823 0.32978
 H1514 H 0.73602 0.53800 0.31239
 H1515 H 0.68471 0.55086 0.24527
 H1516 H 0.71143 0.56386 0.24711
 H1517 H 0.66882 0.58069 0.26188
 H1518 H 0.69547 0.59379 0.26388
 C1519 C 0.71990 1.07140 0.80964
 C1520 C 0.70110 1.08061 0.80203
 C1521 C 0.69055 1.06976 0.78581
 C1522 C 0.69988 1.05206 0.77621
 C1523 C 0.72006 1.04469 0.78244
 C1524 C 0.72912 1.05395 0.80008
 C1525 C 0.75109 1.06201 0.80344
 C1526 C 0.74112 1.08113 0.81386
 H1527 H 0.67544 1.07524 0.77986
 H1528 H 0.69173 1.04483 0.76321
 H1529 H 0.75935 1.06593 0.78864
 H1530 H 0.76025 1.05182 0.81439
 H1531 H 0.74360 1.09617 0.80511
 H1532 H 0.74468 1.08194 0.83077
 C1533 C 0.19220 0.57261 0.78197
 C1534 C 0.19965 0.58025 0.80104
 C1535 C 0.21598 0.56864 0.81098
 C1536 C 0.22596 0.55157 0.80086
 C1537 C 0.21981 0.54568 0.78060
 C1538 C 0.20201 0.55575 0.77203
 C1539 C 0.19916 0.56557 0.75106
 C1540 C 0.18843 0.58404 0.76190
 H1541 H 0.22166 0.57313 0.82620
 H1542 H 0.23900 0.54356 0.80859
 H1543 H 0.18814 0.55630 0.74112
 H1544 H 0.21450 0.56989 0.74362
 H1545 H 0.17125 0.58539 0.75813
 H1546 H 0.19753 0.59909 0.76074
 C1547 C 0.21985 1.07471 0.30588
 C1548 C 0.20150 1.08427 0.29781
 C1549 C 0.19489 1.07803 0.27776
 C1550 C 0.20501 1.06116 0.26746
 C1551 C 0.22199 1.05015 0.27694
 C1552 C 0.22983 1.05811 0.29570
 C1553 C 0.23475 1.04682 0.31557
 C1554 C 0.22381 1.06495 0.32675
 H1555 H 0.18147 1.08556 0.27027
 H1556 H 0.19901 1.05627 0.25244
 H1557 H 0.25211 1.04605 0.31865
 H1558 H 0.22621 1.03147 0.31705
 H1559 H 0.23491 1.07454 0.33630
 H1560 H 0.20891 1.06015 0.33473
 C1561 C 0.72070 0.42737 0.69275
 C1562 C 0.70166 0.41867 0.70010
 C1563 C 0.69106 0.42968 0.71610
 C1564 C 0.70066 0.44714 0.72592
 C1565 C 0.72107 0.45402 0.71995
 C1566 C 0.73014 0.44459 0.70243
 C1567 C 0.75196 0.43593 0.69936
 C1568 C 0.74166 0.41706 0.68878
 H1569 H 0.67578 0.42437 0.72171
 H1570 H 0.69249 0.45458 0.73876
 H1571 H 0.75995 0.43180 0.71427
 H1572 H 0.76150 0.44588 0.68855
 H1573 H 0.74367 0.40196 0.69755
 H1574 H 0.74535 0.41617 0.67191
 C1575 C 0.72033 -0.07082 0.19185
 C1576 C 0.70088 -0.07891 0.19877
 C1577 C 0.68996 -0.06726 0.21411
 C1578 C 0.69962 -0.04979 0.22385
 C1579 C 0.72038 -0.04352 0.21842
 C1580 C 0.72983 -0.05356 0.20143
 C1581 C 0.75154 -0.06276 0.19929
 C1582 C 0.74120 -0.08166 0.18883
 H1583 H 0.67438 -0.07211 0.21934
 H1584 H 0.69122 -0.04188 0.23629
 H1585 H 0.75892 -0.06670 0.21456
 H1586 H 0.76167 -0.05329 0.18860
 H1587 H 0.74257 -0.09658 0.19801
 H1588 H 0.74545 -0.08305 0.17212
 C1589 C 0.22082 0.42800 0.19276
 C1590 C 0.20157 0.41956 0.19988
 C1591 C 0.19055 0.43107 0.21525
 C1592 C 0.19994 0.44879 0.22481
 C1593 C 0.22053 0.45543 0.21917
 C1594 C 0.23003 0.44549 0.20215
 C1595 C 0.25191 0.43673 0.19991
 C1596 C 0.24188 0.41755 0.18966
 H1597 H 0.17514 0.42591 0.22065
 H1598 H 0.19149 0.45661 0.23726
 H1599 H 0.25948 0.43306 0.21514
 H1600 H 0.26176 0.44633 0.18907
 H1601 H 0.24364 0.40273 0.19893
 H1602 H 0.24603 0.41612 0.17293
 C1603 C 0.19680 -0.07596 0.72082
 C1604 C 0.20607 -0.08554 0.70344
 C1605 C 0.22636 -0.07831 0.69737
 C1606 C 0.23575 -0.06070 0.70710
 C1607 C 0.22508 -0.04989 0.72315
 C1608 C 0.20608 -0.05863 0.73044
 C1609 C 0.18516 -0.04824 0.73419
 C1610 C 0.17496 -0.06717 0.72366
 H1611 H 0.23479 -0.08574 0.68471
 H1612 H 0.25103 -0.05519 0.70161
 H1613 H 0.18326 -0.03319 0.72531
 H1614 H 0.18139 -0.04721 0.75104
 H1615 H 0.16711 -0.06314 0.70864
 H1616 H 0.16527 -0.07696 0.73447
 C1617 C 0.30625 0.28065 0.42785
 C1618 C 0.29750 0.29876 0.41848
 C1619 C 0.27754 0.30566 0.42579
 C1620 C 0.26797 0.29593 0.44316
 C1621 C 0.27811 0.27906 0.45368
 C1622 C 0.29678 0.27104 0.44495
 C1623 C 0.31765 0.26640 0.45499
 C1624 C 0.32805 0.27691 0.43630
 H1625 H 0.26946 0.31889 0.41853
 H1626 H 0.25288 0.30197 0.44860
 H1627 H 0.32085 0.24910 0.45601
 H1628 H 0.31998 0.27526 0.46972
 H1629 H 0.33727 0.26562 0.42664
 H1630 H 0.33644 0.29189 0.44016
 C1631 C 0.28326 0.81060 -0.06987
 C1632 C 0.30228 0.80287 -0.07818
 C1633 C 0.31305 0.78697 -0.06678
 C1634 C 0.30354 0.77743 -0.04926
 C1635 C 0.28308 0.78362 -0.04275
 C1636 C 0.27391 0.80120 -0.05262
 C1637 C 0.25205 0.80404 -0.06119
 C1638 C 0.26226 0.81433 -0.08009
 H1639 H 0.32833 0.78114 -0.07187
 H1640 H 0.31170 0.76447 -0.04156
 H1641 H 0.24247 0.81529 -0.05182
 H1642 H 0.24412 0.78873 -0.06471
 H1643 H 0.25849 0.83147 -0.08158
 H1644 H 0.26026 0.80499 -0.09459
 C1645 C 0.77949 0.30700 -0.07320
 C1646 C 0.79915 0.29999 -0.08072
 C1647 C 0.81035 0.28512 -0.06840
 C1648 C 0.80084 0.27581 -0.05076
 C1649 C 0.77996 0.28126 -0.04494
 C1650 C 0.77018 0.29790 -0.05575
 C1651 C 0.74843 0.29925 -0.06487
 C1652 C 0.75856 0.30919 -0.08399
 H1653 H 0.82604 0.27984 -0.07282
 H1654 H 0.80948 0.26368 -0.04230
 H1655 H 0.73808 0.31040 -0.05619
 H1656 H 0.74137 0.28340 -0.06785
 H1657 H 0.75395 0.32604 -0.08629
 H1658 H 0.75736 0.29912 -0.09809
 C1659 C 0.80588 0.77987 0.42758
 C1660 C 0.79715 0.79792 0.41810
 C1661 C 0.77680 0.80438 0.42476
 C1662 C 0.76683 0.79436 0.44175
 C1663 C 0.77695 0.77763 0.45251
 C1664 C 0.79603 0.76999 0.44432
 C1665 C 0.81664 0.76557 0.45494
 C1666 C 0.82746 0.77640 0.43666
 H1667 H 0.76875 0.81754 0.41735
 H1668 H 0.75150 0.80016 0.44682
 H1669 H 0.82009 0.74832 0.45592
 H1670 H 0.81837 0.77434 0.46981
 H1671 H 0.83717 0.76535 0.42719
 H1672 H 0.83548 0.79147 0.44089
 C1673 C 0.72127 0.30433 0.57386
 C1674 C 0.70340 0.29553 0.58355
 C1675 C 0.69660 0.27544 0.57664
 C1676 C 0.70613 0.26578 0.55930
 C1677 C 0.72270 0.27595 0.54842
 C1678 C 0.73068 0.29476 0.55677
 C1679 C 0.73485 0.31552 0.54637
 C1680 C 0.72454 0.32601 0.56504
 H1681 H 0.68357 0.26734 0.58417
 H1682 H 0.70013 0.25062 0.55414
 H1683 H 0.72565 0.31757 0.53172
 H1684 H 0.75212 0.31891 0.54509
 H1685 H 0.70935 0.33416 0.56125
 H1686 H 0.73591 0.33546 0.57443
 C1687 C 0.72202 0.80417 1.07496
 C1688 C 0.70427 0.79532 1.08481
 C1689 C 0.69753 0.77517 1.07801
 C1690 C 0.70692 0.76555 1.06056
 C1691 C 0.72328 0.77583 1.04949
 C1692 C 0.73129 0.79466 1.05779
 C1693 C 0.73534 0.81544 1.04738
 C1694 C 0.72518 0.82588 1.06615
 H1695 H 0.68459 0.76704 1.08566
 H1696 H 0.70088 0.75040 1.05540
 H1697 H 0.72600 0.81750 1.03281
 H1698 H 0.75259 0.81885 1.04595
 H1699 H 0.70994 0.83401 1.06250
 H1700 H 0.73661 0.83534 1.07545
 C1701 C 0.22269 0.30393 1.07582
 C1702 C 0.20412 0.29590 1.08481
 C1703 C 0.19635 0.27645 1.07719
 C1704 C 0.20574 0.26677 1.05979
 C1705 C 0.22308 0.27632 1.04957
 C1706 C 0.23192 0.29440 1.05864
 C1707 C 0.23747 0.31521 1.04898
 C1708 C 0.22736 0.32567 1.06777
 H1709 H 0.18270 0.26891 1.08422
 H1710 H 0.19897 0.25217 1.05401
 H1711 H 0.22871 0.31824 1.03423
 H1712 H 0.25492 0.31766 1.04813
 H1713 H 0.21273 0.33478 1.06395
 H1714 H 0.23902 0.33415 1.07769
 C1715 C 0.22042 0.80736 0.57181
 C1716 C 0.20080 0.80037 0.57947
 C1717 C 0.18967 0.78532 0.56746
 C1718 C 0.19924 0.77584 0.55003
 C1719 C 0.22010 0.78127 0.54413
 C1720 C 0.22978 0.79808 0.55457
 C1721 C 0.25153 0.79960 0.56366
 C1722 C 0.24133 0.80973 0.58257
 H1723 H 0.17400 0.78006 0.57199
 H1724 H 0.19066 0.76359 0.54181
 H1725 H 0.26182 0.81069 0.55476
 H1726 H 0.25867 0.78382 0.56698
 H1727 H 0.24585 0.82662 0.58453
 H1728 H 0.24256 0.79983 0.59688
 C1729 C 0.28198 0.69146 0.56925
 C1730 C 0.30100 0.69914 0.57764
 C1731 C 0.31183 0.71491 0.56619
 C1732 C 0.30240 0.72439 0.54854
 C1733 C 0.28194 0.71827 0.54193
 C1734 C 0.27270 0.70080 0.55188
 C1735 C 0.25081 0.69808 0.56033
 C1736 C 0.26093 0.68787 0.57936
 H1737 H 0.32710 0.72071 0.57133
 H1738 H 0.31062 0.73726 0.54082
 H1739 H 0.24124 0.68682 0.55097
 H1740 H 0.24290 0.71345 0.56372
 H1741 H 0.25713 0.67074 0.58091
 H1742 H 0.25890 0.69730 0.59379
 C1743 C 0.28353 0.18812 1.06732
 C1744 C 0.30291 0.19542 1.07522
 C1745 C 0.31359 0.21124 1.06369
 C1746 C 0.30370 0.22116 1.04654
 C1747 C 0.28294 0.21544 1.04052
 C1748 C 0.27380 0.19790 1.05043
 C1749 C 0.25218 0.19533 1.05957
 C1750 C 0.26280 0.18464 1.07806
 H1751 H 0.32909 0.21676 1.06847
 H1752 H 0.31181 0.23410 1.03880
 H1753 H 0.24212 0.18438 1.05033
 H1754 H 0.24461 0.21074 1.06348
 H1755 H 0.25879 0.16755 1.07945
 H1756 H 0.26139 0.19383 1.09271
 C1757 C 0.78405 0.68837 1.06675
 C1758 C 0.80331 0.69590 1.07475
 C1759 C 0.81394 0.71172 1.06315
 C1760 C 0.80404 0.72147 1.04589
 C1761 C 0.78336 0.71554 1.03982
 C1762 C 0.77436 0.69794 1.04974
 C1763 C 0.75267 0.69514 1.05867
 C1764 C 0.76325 0.68468 1.07731
 H1765 H 0.82934 0.71744 1.06799
 H1766 H 0.81206 0.73446 1.03815
 H1767 H 0.74287 0.68401 1.04938
 H1768 H 0.74486 0.71047 1.06244
 H1769 H 0.75943 0.66755 1.07874
 H1770 H 0.76157 0.69393 1.09190
 C1771 C 0.78286 0.18898 0.57001
 C1772 C 0.80258 0.19588 0.57747
 C1773 C 0.81370 0.21084 0.56522
 C1774 C 0.80396 0.22046 0.54781
 C1775 C 0.78298 0.21519 0.54218
 C1776 C 0.77336 0.19836 0.55279
 C1777 C 0.75169 0.19689 0.56205
 C1778 C 0.76204 0.18667 0.58093
 H1779 H 0.82941 0.21605 0.56964
 H1780 H 0.81241 0.23280 0.53951
 H1781 H 0.74127 0.18587 0.55328
 H1782 H 0.74464 0.21269 0.56533
 H1783 H 0.75745 0.16979 0.58304
 H1784 H 0.76099 0.19654 0.59518
 C1785 C 0.69015 0.71521 0.43230
 C1786 C 0.69792 0.69604 0.42443
 C1787 C 0.71395 0.68565 0.43600
 C1788 C 0.72355 0.69563 0.45319
 C1789 C 0.71726 0.71616 0.45921
 C1790 C 0.69957 0.72498 0.44924
 C1791 C 0.69658 0.74659 0.44017
 C1792 C 0.68629 0.73594 0.42159
 H1793 H 0.71987 0.67033 0.43126
 H1794 H 0.73662 0.68774 0.46099
 H1795 H 0.71188 0.75450 0.43637
 H1796 H 0.68529 0.75628 0.44939
 H1797 H 0.69561 0.73767 0.40700
 H1798 H 0.66909 0.73962 0.42012
 C1799 C 0.71914 0.19116 -0.06913
 C1800 C 0.69985 0.19842 -0.07739
 C1801 C 0.68871 0.21386 -0.06589
 C1802 C 0.69806 0.22349 -0.04839
 C1803 C 0.71873 0.21785 -0.04195
 C1804 C 0.72832 0.20063 -0.05187
 C1805 C 0.75021 0.19848 -0.06050
 C1806 C 0.74019 0.18812 -0.07939
 H1807 H 0.67324 0.21933 -0.07090
 H1808 H 0.68956 0.23613 -0.04066
 H1809 H 0.76014 0.18740 -0.05115
 H1810 H 0.75768 0.21405 -0.06401
 H1811 H 0.74442 0.17110 -0.08090
 H1812 H 0.74186 0.19767 -0.09388
 C1813 C 0.19422 0.72060 -0.07272
 C1814 C 0.20284 0.70243 -0.08189
 C1815 C 0.22308 0.69579 -0.07495
 C1816 C 0.23306 0.70580 -0.05803
 C1817 C 0.22307 0.72271 -0.04763
 C1818 C 0.20410 0.73049 -0.05606
 C1819 C 0.18349 0.73514 -0.04563
 C1820 C 0.17265 0.72431 -0.06381
 H1821 H 0.23104 0.68250 -0.08208
 H1822 H 0.24830 0.69988 -0.05277
 H1823 H 0.18021 0.75243 -0.04493
 H1824 H 0.18164 0.72647 -0.03064
 H1825 H 0.16307 0.73540 -0.07350
 H1826 H 0.16448 0.70933 -0.05941
 C1827 C 0.19161 0.21729 0.43035
 C1828 C 0.19989 0.19887 0.42137
 C1829 C 0.21996 0.19187 0.42848
 C1830 C 0.23013 0.20192 0.44527
 C1831 C 0.22051 0.21922 0.45540
 C1832 C 0.20167 0.22720 0.44687
 C1833 C 0.18115 0.23233 0.45727
 C1834 C 0.17011 0.22147 0.43921
 H1835 H 0.22767 0.17834 0.42152
 H1836 H 0.24529 0.19582 0.45058
 H1837 H 0.17815 0.24967 0.45778
 H1838 H 0.17916 0.22386 0.47234
 H1839 H 0.16072 0.23262 0.42940
 H1840 H 0.16168 0.20669 0.44377
 C1841 C 0.27888 0.42713 0.69375
 C1842 C 0.29714 0.41742 0.70185
 C1843 C 0.30411 0.42407 0.72165
 C1844 C 0.29439 0.44132 0.73169
 C1845 C 0.27744 0.45235 0.72220
 C1846 C 0.26927 0.44411 0.70368
 C1847 C 0.26443 0.45508 0.68362
 C1848 C 0.27495 0.43652 0.67273
 H1849 H 0.31749 0.41648 0.72919
 H1850 H 0.30058 0.44639 0.74658
 H1851 H 0.27325 0.47023 0.68178
 H1852 H 0.24707 0.45611 0.68063
 H1853 H 0.28988 0.44087 0.66456
 H1854 H 0.26361 0.42693 0.66344
 C1855 C 0.30282 0.92468 0.22162
 C1856 C 0.29393 0.91533 0.20393
 C1857 C 0.27378 0.92266 0.19746
 C1858 C 0.26421 0.94023 0.20711
 C1859 C 0.27456 0.95089 0.22346
 C1860 C 0.29337 0.94198 0.23114
 C1861 C 0.31424 0.95220 0.23553
 C1862 C 0.32462 0.93329 0.22510
 H1863 H 0.26561 0.91536 0.18454
 H1864 H 0.24908 0.94585 0.20127
 H1865 H 0.31761 0.95305 0.25248
 H1866 H 0.31643 0.96731 0.22683
 H1867 H 0.33400 0.92333 0.23608
 H1868 H 0.33285 0.93740 0.21034
 C1869 C 0.78193 0.43299 0.18920
 C1870 C 0.80115 0.42439 0.19626
 C1871 C 0.81221 0.43569 0.21177
 C1872 C 0.80279 0.45325 0.22163
 C1873 C 0.78212 0.45989 0.21616
 C1874 C 0.77265 0.45026 0.19892
 C1875 C 0.75080 0.44149 0.19637
 C1876 C 0.76093 0.42258 0.18574
 H1877 H 0.82763 0.43038 0.21712
 H1878 H 0.81116 0.46074 0.23434
 H1879 H 0.74093 0.45131 0.18570
 H1880 H 0.74320 0.43742 0.21148
 H1881 H 0.75683 0.42153 0.16896
 H1882 H 0.75921 0.40754 0.19466
 C1883 C 0.80479 0.92650 0.71849
 C1884 C 0.79597 0.91782 0.70042
 C1885 C 0.77621 0.92593 0.69370
 C1886 C 0.76689 0.94344 0.70369
 C1887 C 0.77712 0.95330 0.72061
 C1888 C 0.79559 0.94375 0.72832
 C1889 C 0.81662 0.95339 0.73322
 C1890 C 0.82672 0.93452 0.72246
 H1891 H 0.76811 0.91918 0.68046
 H1892 H 0.75195 0.94953 0.69782
 H1893 H 0.81978 0.95375 0.75022
 H1894 H 0.81925 0.96866 0.72491
 H1895 H 0.83571 0.92408 0.73332
 H1896 H 0.83525 0.93881 0.70791
 C1897 C 0.71871 0.56974 0.69204
 C1898 C 0.69971 0.57833 0.69957
 C1899 C 0.68894 0.56679 0.71519
 C1900 C 0.69844 0.54892 0.72460
 C1901 C 0.71889 0.54219 0.71858
 C1902 C 0.72804 0.55214 0.70130
 C1903 C 0.74992 0.56072 0.69844
 C1904 C 0.73974 0.58001 0.68831
 H1905 H 0.67370 0.57206 0.72090
 H1906 H 0.69028 0.54116 0.73734
 H1907 H 0.75940 0.55106 0.68742
 H1908 H 0.75793 0.56431 0.71344
 H1909 H 0.74345 0.58144 0.67147
 H1910 H 0.74183 0.59480 0.69742
 C1911 C 0.69303 0.07246 0.21857
 C1912 C 0.70130 0.08155 0.20040
 C1913 C 0.72142 0.07439 0.19373
 C1914 C 0.73159 0.05730 0.20377
 C1915 C 0.72192 0.04690 0.22073
 C1916 C 0.70309 0.05560 0.22847
 C1917 C 0.68256 0.04505 0.23362
 C1918 C 0.67152 0.06349 0.22281
 H1919 H 0.72916 0.08151 0.18044
 H1920 H 0.74676 0.05192 0.19788
 H1921 H 0.67964 0.04453 0.25065
 H1922 H 0.68050 0.02970 0.22544
 H1923 H 0.66223 0.07352 0.23368
 H1924 H 0.66300 0.05886 0.20837
 C1925 C 0.21849 0.57097 0.19014
 C1926 C 0.19944 0.57964 0.19741
 C1927 C 0.18853 0.56832 0.21309
 C1928 C 0.19794 0.55055 0.22279
 C1929 C 0.21843 0.54373 0.21701
 C1930 C 0.22775 0.55350 0.19972
 C1931 C 0.24964 0.56210 0.19702
 C1932 C 0.23954 0.58125 0.18654
 H1933 H 0.17324 0.57368 0.21860
 H1934 H 0.18966 0.54293 0.23554
 H1935 H 0.25929 0.55233 0.18623
 H1936 H 0.25745 0.56589 0.21208
 H1937 H 0.24345 0.58249 0.16973
 H1938 H 0.24148 0.59615 0.19550
 C1939 C 0.18944 0.06800 0.71651
 C1940 C 0.19687 0.07591 0.69747
 C1941 C 0.21253 0.06392 0.68709
 C1942 C 0.22225 0.04640 0.69691
 C1943 C 0.21644 0.04042 0.71728
 C1944 C 0.19898 0.05070 0.72614
 C1945 C 0.19651 0.06006 0.74727
 C1946 C 0.18609 0.07901 0.73676
 H1947 H 0.21813 0.06864 0.67187
 H1948 H 0.23511 0.03837 0.68903
 H1949 H 0.21199 0.06388 0.75470
 H1950 H 0.18537 0.05077 0.75713
 H1951 H 0.19552 0.09384 0.73808
 H1952 H 0.16897 0.08062 0.74065
 C1953 C 0.30612 0.57461 0.28021
 C1954 C 0.29764 0.58349 0.29832
 C1955 C 0.27752 0.57620 0.30484
 C1956 C 0.26758 0.55910 0.29477
 C1957 C 0.27752 0.54886 0.27793
 C1958 C 0.29630 0.55776 0.27029
 C1959 C 0.31697 0.54743 0.26527
 C1960 C 0.32775 0.56585 0.27614
 H1961 H 0.26965 0.58316 0.31809
 H1962 H 0.25246 0.55352 0.30061
 H1963 H 0.32002 0.54709 0.24825
 H1964 H 0.31916 0.53201 0.27345
 H1965 H 0.33704 0.57604 0.26535
 H1966 H 0.33619 0.56115 0.29066
 C1967 C 0.30584 0.07426 0.78082
 C1968 C 0.29696 0.08336 0.79863
 C1969 C 0.27638 0.07668 0.80437
 C1970 C 0.26638 0.05982 0.79397
 C1971 C 0.27669 0.04926 0.77755
 C1972 C 0.29595 0.05768 0.77055
 C1973 C 0.31651 0.04681 0.76620
 C1974 C 0.32738 0.06494 0.77746
 H1975 H 0.26823 0.08384 0.81736
 H1976 H 0.25094 0.05458 0.79932
 H1977 H 0.32014 0.04641 0.74930
 H1978 H 0.31800 0.03134 0.77444
 H1979 H 0.33729 0.07489 0.76699
 H1980 H 0.33519 0.06001 0.79223
 C1981 C 0.80702 0.57273 0.78169
 C1982 C 0.79850 0.58156 0.79980
 C1983 C 0.77832 0.57429 0.80619
 C1984 C 0.76839 0.55725 0.79601
 C1985 C 0.77836 0.54705 0.77918
 C1986 C 0.79719 0.55595 0.77164
 C1987 C 0.81785 0.54561 0.76661
 C1988 C 0.82864 0.56395 0.77762
 H1989 H 0.77040 0.58118 0.81945
 H1990 H 0.75323 0.55167 0.80178
 H1991 H 0.82094 0.54537 0.74960
 H1992 H 0.81997 0.53014 0.77471
 H1993 H 0.83797 0.57418 0.76690
 H1994 H 0.83704 0.55914 0.79212
 C1995 C 0.80883 0.07186 0.28254
 C1996 C 0.80059 0.08044 0.30088
 C1997 C 0.78052 0.07308 0.30750
 C1998 C 0.77038 0.05625 0.29720
 C1999 C 0.78004 0.04632 0.28004
 C2000 C 0.79881 0.05526 0.27239
 C2001 C 0.81938 0.04490 0.26703
 C2002 C 0.83037 0.06305 0.27814
 H2003 H 0.77280 0.07983 0.32093
 H2004 H 0.75526 0.05067 0.30306
 H2005 H 0.82229 0.04486 0.24998
 H2006 H 0.82152 0.02932 0.27492
 H2007 H 0.83962 0.07339 0.26745
 H2008 H 0.83891 0.05803 0.29249
 C2009 C 0.69569 0.42425 0.28041
 C2010 C 0.70454 0.41503 0.29829
 C2011 C 0.72483 0.42214 0.30448
 C2012 C 0.73455 0.43945 0.29438
 C2013 C 0.72422 0.45005 0.27786
 C2014 C 0.70528 0.44129 0.27047
 C2015 C 0.68451 0.45170 0.26588
 C2016 C 0.67397 0.43307 0.27678
 H2017 H 0.73294 0.41492 0.31755
 H2018 H 0.74977 0.44498 0.30003
 H2019 H 0.68112 0.45235 0.24893
 H2020 H 0.68250 0.46696 0.27424
 H2021 H 0.66447 0.42308 0.26605
 H2022 H 0.66582 0.43750 0.29146
 C2023 C 0.69341 0.92742 0.78275
 C2024 C 0.70203 0.91825 0.80077
 C2025 C 0.72193 0.92585 0.80756
 C2026 C 0.73160 0.94334 0.79771
 C2027 C 0.72159 0.95370 0.78087
 C2028 C 0.70295 0.94465 0.77305
 C2029 C 0.68211 0.95478 0.76817
 C2030 C 0.67164 0.93594 0.77878
 H2031 H 0.72991 0.91872 0.82075
 H2032 H 0.74665 0.94899 0.80364
 H2033 H 0.67901 0.95549 0.75117
 H2034 H 0.67973 0.96996 0.77658
 H2035 H 0.66250 0.92586 0.76784
 H2036 H 0.66316 0.94016 0.79334
 C2037 C 0.21851 0.43168 0.81120
 C2038 C 0.19919 0.42329 0.80429
 C2039 C 0.18833 0.43451 0.78846
 C2040 C 0.19798 0.45179 0.77826
 C2041 C 0.21867 0.45827 0.78369
 C2042 C 0.22801 0.44871 0.80114
 C2043 C 0.24974 0.43965 0.80385
 C2044 C 0.23937 0.42099 0.81485
 H2045 H 0.17284 0.42941 0.78323
 H2046 H 0.18967 0.45931 0.76544
 H2047 H 0.25973 0.44944 0.81433
 H2048 H 0.25729 0.43534 0.78882
 H2049 H 0.24346 0.42005 0.83165
 H2050 H 0.24089 0.40584 0.80622
 C2051 C 0.21549 0.93312 0.31111
 C2052 C 0.19644 0.92452 0.30373
 C2053 C 0.18571 0.93581 0.28788
 C2054 C 0.19530 0.95341 0.27809
 C2055 C 0.21581 0.96010 0.28397
 C2056 C 0.22493 0.95043 0.30146
 C2057 C 0.24675 0.94168 0.30452
 C2058 C 0.23645 0.92273 0.31508
 H2059 H 0.17043 0.93051 0.28225
 H2060 H 0.18719 0.96091 0.26515
 H2061 H 0.25635 0.95149 0.31533
 H2062 H 0.25469 0.93767 0.28961
 H2063 H 0.24020 0.92165 0.33194
 H2064 H 0.23841 0.90772 0.30629
 C2065 C 0.42754 0.28056 0.69361
 C2066 C 0.41811 0.29897 0.70146
 C2067 C 0.42513 0.30612 0.72108
 C2068 C 0.44242 0.29631 0.73120
 C2069 C 0.45309 0.27911 0.72199
 C2070 C 0.44454 0.27087 0.70364
 C2071 C 0.45527 0.26570 0.68363
 C2072 C 0.43670 0.27632 0.67263
 H2073 H 0.41779 0.31964 0.72843
 H2074 H 0.44772 0.30258 0.74597
 H2075 H 0.45606 0.24834 0.68091
 H2076 H 0.47055 0.27429 0.68160
 H2077 H 0.42687 0.26502 0.66355
 H2078 H 0.44117 0.29108 0.66421
 C2079 C 0.42723 0.80727 0.21965
 C2080 C 0.41932 0.79974 0.20070
 C2081 C 0.43117 0.78385 0.19057
 C2082 C 0.44871 0.77423 0.20044
 C2083 C 0.45485 0.78033 0.22063
 C2084 C 0.44457 0.79782 0.22933
 C2085 C 0.43521 0.80044 0.25046
 C2086 C 0.41620 0.81076 0.23991
 H2087 H 0.42647 0.77814 0.17542
 H2088 H 0.45685 0.76144 0.19260
 H2089 H 0.44452 0.81162 0.26017
 H2090 H 0.43140 0.78504 0.25805
 H2091 H 0.41460 0.82787 0.24362
 H2092 H 0.40134 0.80137 0.24138
 C2093 C 0.92805 0.28338 0.19178
 C2094 C 0.91935 0.30243 0.19895
 C2095 C 0.93060 0.31328 0.21464
 C2096 C 0.94832 0.30387 0.22442
 C2097 C 0.95520 0.28344 0.21870
 C2098 C 0.94551 0.27414 0.20141
 C2099 C 0.93689 0.25230 0.19878
 C2100 C 0.91776 0.26238 0.18825
 H2101 H 0.92524 0.32856 0.22008
 H2102 H 0.95593 0.31216 0.23711
 H2103 H 0.93304 0.24451 0.21386
 H2104 H 0.94673 0.24267 0.18803
 H2105 H 0.90278 0.26045 0.19720
 H2106 H 0.91659 0.25847 0.17145
 C2107 C 0.92847 0.78196 0.69035
 C2108 C 0.91987 0.80108 0.69743
 C2109 C 0.93107 0.81186 0.71319
 C2110 C 0.94861 0.80233 0.72313
 C2111 C 0.95534 0.78182 0.71753
 C2112 C 0.94575 0.77258 0.70016
 C2113 C 0.93696 0.75081 0.69746
 C2114 C 0.91802 0.76106 0.68673
 H2115 H 0.92581 0.82722 0.71854
 H2116 H 0.95617 0.81059 0.73587
 H2117 H 0.93288 0.74307 0.71250
 H2118 H 0.94681 0.74108 0.68681
 H2119 H 0.90293 0.75927 0.69554
 H2120 H 0.91698 0.75716 0.66992
 C2121 C 0.57203 0.30713 0.28223
 C2122 C 0.57954 0.29968 0.30144
 C2123 C 0.56775 0.28350 0.31132
 C2124 C 0.55065 0.27367 0.30106
 C2125 C 0.54488 0.27982 0.28071
 C2126 C 0.55512 0.29748 0.27216
 C2127 C 0.56504 0.30021 0.25127
 C2128 C 0.58358 0.31077 0.26224
 H2129 H 0.57214 0.27780 0.32661
 H2130 H 0.54249 0.26074 0.30877
 H2131 H 0.55585 0.31128 0.24121
 H2132 H 0.56929 0.28486 0.24394
 H2133 H 0.58505 0.32789 0.25840
 H2134 H 0.59861 0.30156 0.26127
 C2135 C 0.57105 0.80808 0.78293
 C2136 C 0.57878 0.80052 0.80203
 C2137 C 0.56687 0.78458 0.81212
 C2138 C 0.54946 0.77495 0.80212
 C2139 C 0.54352 0.78111 0.78182
 C2140 C 0.55387 0.79863 0.77311
 C2141 C 0.56350 0.80129 0.75208
 C2142 C 0.58233 0.81162 0.76278
 H2143 H 0.57142 0.77882 0.82736
 H2144 H 0.54132 0.76208 0.80993
 H2145 H 0.55428 0.81247 0.74216
 H2146 H 0.56747 0.78590 0.74467
 H2147 H 0.58392 0.82873 0.75895
 H2148 H 0.59723 0.80224 0.76156
 C2149 C 0.07477 0.27967 0.80669
 C2150 C 0.08476 0.29757 0.79824
 C2151 C 0.07812 0.30432 0.77830
 C2152 C 0.06061 0.29480 0.76844
 C2153 C 0.04933 0.27827 0.77824
 C2154 C 0.05756 0.27024 0.79691
 C2155 C 0.04659 0.26588 0.81702
 C2156 C 0.06540 0.27622 0.82776
 H2157 H 0.08590 0.31738 0.77049
 H2158 H 0.05558 0.30082 0.75342
 H2159 H 0.04532 0.24862 0.82029
 H2160 H 0.03154 0.27495 0.81868
 H2161 H 0.07487 0.26487 0.83725
 H2162 H 0.06129 0.29130 0.83567
 C2163 C 0.07321 0.80600 0.28064
 C2164 C 0.08238 0.79748 0.29870
 C2165 C 0.07488 0.77754 0.30553
 C2166 C 0.05746 0.76779 0.29572
 C2167 C 0.04705 0.77772 0.27885
 C2168 C 0.05604 0.79636 0.27098
 C2169 C 0.04579 0.81710 0.26597
 C2170 C 0.06457 0.82767 0.27655
 H2171 H 0.08202 0.76965 0.31876
 H2172 H 0.05184 0.75274 0.30170
 H2173 H 0.03053 0.81940 0.27434
 H2174 H 0.04515 0.82015 0.24895
 H2175 H 0.06023 0.83614 0.29106
 H2176 H 0.07467 0.83683 0.26557
 C2177 C 0.57144 0.71908 0.69328
 C2178 C 0.58016 0.70015 0.70091
 C2179 C 0.56887 0.68952 0.71681
 C2180 C 0.55108 0.69903 0.72625
 C2181 C 0.54416 0.71935 0.71999
 C2182 C 0.55392 0.72841 0.70257
 C2183 C 0.56247 0.75024 0.69946
 C2184 C 0.58168 0.74006 0.68930
 H2185 H 0.57423 0.67433 0.72264
 H2186 H 0.54345 0.69092 0.73909
 H2187 H 0.56625 0.75826 0.71437
 H2188 H 0.55264 0.75967 0.68842
 H2189 H 0.59661 0.74219 0.69830
 H2190 H 0.58288 0.74372 0.67242
 C2191 C 0.56826 0.21783 0.19031
 C2192 C 0.57641 0.19838 0.19727
 C2193 C 0.56501 0.18772 0.21307
 C2194 C 0.54776 0.19760 0.22311
 C2195 C 0.54145 0.21832 0.21752
 C2196 C 0.55124 0.22752 0.20017
 C2197 C 0.56056 0.24910 0.19752
 C2198 C 0.57922 0.23852 0.18678
 H2199 H 0.56993 0.17219 0.21841
 H2200 H 0.54009 0.18943 0.23589
 H2201 H 0.56486 0.25656 0.21258
 H2202 H 0.55093 0.25920 0.18690
 H2203 H 0.59435 0.23982 0.19562
 H2204 H 0.58033 0.24264 0.17000
 C2205 C 0.07130 0.71976 0.19058
 C2206 C 0.07995 0.70060 0.19772
 C2207 C 0.06863 0.68954 0.21328
 C2208 C 0.05090 0.69883 0.22301
 C2209 C 0.04410 0.71937 0.21738
 C2210 C 0.05384 0.72890 0.20017
 C2211 C 0.06251 0.75076 0.19766
 C2212 C 0.08165 0.74078 0.18717
 H2213 H 0.07393 0.67415 0.21866
 H2214 H 0.04326 0.69036 0.23562
 H2215 H 0.06636 0.75833 0.21279
 H2216 H 0.05272 0.76057 0.18691
 H2217 H 0.09661 0.74257 0.19619
 H2218 H 0.08284 0.74490 0.17038
 C2219 C 0.07185 0.19285 0.71796
 C2220 C 0.08073 0.20110 0.69967
 C2221 C 0.07286 0.22076 0.69245
 C2222 C 0.05549 0.23060 0.70225
 C2223 C 0.04550 0.22103 0.71952
 C2224 C 0.05474 0.20259 0.72763
 C2225 C 0.04468 0.18190 0.73305
 C2226 C 0.06338 0.17122 0.72247
 H2227 H 0.07972 0.22845 0.67900
 H2228 H 0.04970 0.24551 0.69606
 H2229 H 0.02932 0.17940 0.72486
 H2230 H 0.04426 0.17912 0.75012
 H2231 H 0.05891 0.16249 0.70814
 H2232 H 0.07366 0.16228 0.73350
 C2233 C 0.43153 0.69068 0.28400
 C2234 C 0.42378 0.69800 0.30308
 C2235 C 0.43571 0.71378 0.31330
 C2236 C 0.45306 0.72360 0.30334
 C2237 C 0.45893 0.71779 0.28299
 C2238 C 0.44866 0.70032 0.27424
 C2239 C 0.43904 0.69782 0.25317
 C2240 C 0.42027 0.68730 0.26382
 H2241 H 0.43112 0.71934 0.32853
 H2242 H 0.46112 0.73645 0.31116
 H2243 H 0.44831 0.68677 0.24328
 H2244 H 0.43500 0.71325 0.24574
 H2245 H 0.41875 0.67021 0.25998
 H2246 H 0.40532 0.69662 0.26257
 C2247 C 0.42840 0.19243 0.78382
 C2248 C 0.41956 0.20078 0.80202
 C2249 C 0.42690 0.22081 0.80854
 C2250 C 0.44390 0.23086 0.79829
 C2251 C 0.45401 0.22114 0.78126
 C2252 C 0.44514 0.20237 0.77370
 C2253 C 0.45562 0.18183 0.76862
 C2254 C 0.43733 0.17092 0.77970
 H2255 H 0.42001 0.22857 0.82188
 H2256 H 0.44943 0.24597 0.80407
 H2257 H 0.47115 0.17978 0.77666
 H2258 H 0.45586 0.17882 0.75161
 H2259 H 0.44221 0.16251 0.79418
 H2260 H 0.42711 0.16159 0.76902
 C2261 C 0.92783 0.69340 0.78237
 C2262 C 0.91877 0.70188 0.80039
 C2263 C 0.92577 0.72212 0.80665
 C2264 C 0.94268 0.73227 0.79635
 C2265 C 0.95305 0.72244 0.77952
 C2266 C 0.94449 0.70344 0.77219
 C2267 C 0.95528 0.68298 0.76743
 C2268 C 0.93708 0.67196 0.77857
 H2269 H 0.91869 0.72997 0.81984
 H2270 H 0.94797 0.74754 0.80194
 H2271 H 0.97079 0.68125 0.77557
 H2272 H 0.95565 0.67974 0.75046
 H2273 H 0.94199 0.66381 0.79318
 H2274 H 0.92704 0.66235 0.76797
 C2275 C 0.92808 0.19468 0.28228
 C2276 C 0.91907 0.20283 0.30047
 C2277 C 0.92608 0.22296 0.30707
 C2278 C 0.94300 0.23327 0.29693
 C2279 C 0.95335 0.22372 0.27995
 C2280 C 0.94474 0.20487 0.27228
 C2281 C 0.95547 0.18448 0.26712
 C2282 C 0.93724 0.17330 0.27806
 H2283 H 0.91901 0.23059 0.32040
 H2284 H 0.94832 0.24843 0.30278
 H2285 H 0.97098 0.18255 0.27521
 H2286 H 0.95581 0.18158 0.25009
 H2287 H 0.94215 0.16485 0.29250
 H2288 H 0.92717 0.16393 0.26728
 C2289 C 0.28173 0.30915 0.56958
 C2290 C 0.30130 0.30211 0.57739
 C2291 C 0.31208 0.28640 0.56592
 C2292 C 0.30224 0.27644 0.54887
 C2293 C 0.28141 0.28200 0.54285
 C2294 C 0.27206 0.29935 0.55276
 C2295 C 0.25045 0.30154 0.56198
 C2296 C 0.26099 0.31224 0.58042
 H2297 H 0.32771 0.28107 0.57059
 H2298 H 0.31055 0.26372 0.54109
 H2299 H 0.24316 0.28600 0.56595
 H2300 H 0.24017 0.31242 0.55277
 H2301 H 0.25981 0.30292 0.59509
 H2302 H 0.25671 0.32927 0.58179
 C2303 C 0.30801 0.78181 0.07130
 C2304 C 0.30038 0.80095 0.07934
 C2305 C 0.28452 0.81165 0.06781
 C2306 C 0.27500 0.80205 0.05039
 C2307 C 0.28117 0.78158 0.04409
 C2308 C 0.29865 0.77240 0.05412
 C2309 C 0.30126 0.75064 0.06295
 C2310 C 0.31149 0.76092 0.08178
 H2311 H 0.27876 0.82699 0.07266
 H2312 H 0.26219 0.81027 0.04250
 H2313 H 0.31253 0.74092 0.05374
 H2314 H 0.28582 0.74289 0.06649
 H2315 H 0.32864 0.75702 0.08338
 H2316 H 0.30201 0.75912 0.09626
 C2317 C 0.80839 0.28405 0.06947
 C2318 C 0.80047 0.30306 0.07755
 C2319 C 0.78457 0.31361 0.06593
 C2320 C 0.77524 0.30392 0.04843
 C2321 C 0.78167 0.28352 0.04214
 C2322 C 0.79923 0.27456 0.05224
 C2323 C 0.80216 0.25281 0.06099
 C2324 C 0.81217 0.26316 0.07989
 H2325 H 0.77856 0.32884 0.07082
 H2326 H 0.76227 0.31192 0.04058
 H2327 H 0.81361 0.24330 0.05177
 H2328 H 0.78684 0.24479 0.06446
 H2329 H 0.82936 0.25952 0.08152
 H2330 H 0.80267 0.26115 0.09433
 C2331 C 0.78192 0.81039 0.56777
 C2332 C 0.80134 0.80322 0.57580
 C2333 C 0.81217 0.78746 0.56445
 C2334 C 0.80241 0.77745 0.54738
 C2335 C 0.78163 0.78305 0.54124
 C2336 C 0.77233 0.80056 0.55094
 C2337 C 0.75064 0.80303 0.55994
 C2338 C 0.76111 0.81379 0.57838
 H2339 H 0.82772 0.78204 0.56929
 H2340 H 0.81068 0.76460 0.53977
 H2341 H 0.74318 0.78759 0.56397
 H2342 H 0.74056 0.81393 0.55054
 H2343 H 0.75970 0.80460 0.59312
 H2344 H 0.75698 0.83086 0.57958
 C2345 C 0.30667 0.72048 0.42719
 C2346 C 0.29819 0.70225 0.41803
 C2347 C 0.27806 0.69544 0.42504
 C2348 C 0.26810 0.70533 0.44202
 C2349 C 0.27799 0.72229 0.45243
 C2350 C 0.29681 0.73024 0.44391
 C2351 C 0.31746 0.73505 0.45424
 C2352 C 0.32828 0.72436 0.43597
 H2353 H 0.27019 0.68210 0.41791
 H2354 H 0.25295 0.69929 0.44733
 H2355 H 0.31954 0.72636 0.46919
 H2356 H 0.32057 0.75237 0.45497
 H2357 H 0.33666 0.70945 0.44029
 H2358 H 0.33764 0.73556 0.42625
 C2359 C 0.30564 0.21978 0.92788
 C2360 C 0.29699 0.20168 0.91864
 C2361 C 0.27646 0.19548 0.92504
 C2362 C 0.26626 0.20574 0.94168
 C2363 C 0.27633 0.22245 0.95230
 C2364 C 0.29556 0.22990 0.94425
 C2365 C 0.31602 0.23436 0.95509
 C2366 C 0.32709 0.22327 0.93720
 H2367 H 0.26847 0.18228 0.91779
 H2368 H 0.25086 0.20005 0.94667
 H2369 H 0.31750 0.22575 0.97016
 H2370 H 0.31948 0.25161 0.95577
 H2371 H 0.33501 0.20822 0.94186
 H2372 H 0.33696 0.23418 0.92765
 C2373 C 0.80549 0.72003 0.92715
 C2374 C 0.79700 0.70180 0.91799
 C2375 C 0.77656 0.69542 0.92449
 C2376 C 0.76631 0.70563 0.94113
 C2377 C 0.77623 0.72249 0.95166
 C2378 C 0.79537 0.73010 0.94352
 C2379 C 0.81582 0.73480 0.95428
 C2380 C 0.82694 0.72376 0.93638
 H2381 H 0.76869 0.68211 0.91729
 H2382 H 0.75099 0.69980 0.94619
 H2383 H 0.81744 0.72625 0.96937
 H2384 H 0.81912 0.75208 0.95489
 H2385 H 0.83503 0.70880 0.94106
 H2386 H 0.83667 0.73473 0.92676
 C2387 C 0.80769 0.21785 0.42904
 C2388 C 0.79959 0.19928 0.42021
 C2389 C 0.77947 0.19235 0.42710
 C2390 C 0.76915 0.20250 0.44372
 C2391 C 0.77868 0.21982 0.45387
 C2392 C 0.79750 0.22785 0.44541
 C2393 C 0.81794 0.23322 0.45587
 C2394 C 0.82914 0.22226 0.43797
 H2395 H 0.77189 0.17874 0.42017
 H2396 H 0.75403 0.19635 0.44900
 H2397 H 0.81997 0.22491 0.47103
 H2398 H 0.82078 0.25059 0.45623
 H2399 H 0.83769 0.20759 0.44272
 H2400 H 0.83845 0.23337 0.42810
 C2401 C 0.71742 0.30736 0.43130
 C2402 C 0.69889 0.29912 0.42236
 C2403 C 0.69164 0.27937 0.42989
 C2404 C 0.70162 0.26940 0.44692
 C2405 C 0.71912 0.27890 0.45690
 C2406 C 0.72729 0.29748 0.44808
 C2407 C 0.73245 0.31807 0.45818
 C2408 C 0.72165 0.32891 0.43985
 H2409 H 0.67803 0.27169 0.42299
 H2410 H 0.69540 0.25440 0.45242
 H2411 H 0.74984 0.32099 0.45880
 H2412 H 0.72394 0.32030 0.47315
 H2413 H 0.73286 0.33809 0.42999
 H2414 H 0.70685 0.33745 0.44416
 C2415 C 0.68814 0.78352 0.93352
 C2416 C 0.69533 0.80299 0.92573
 C2417 C 0.71093 0.81374 0.93744
 C2418 C 0.72079 0.80384 0.95464
 C2419 C 0.71519 0.78304 0.96055
 C2420 C 0.69781 0.77382 0.95048
 C2421 C 0.69558 0.75226 0.94130
 C2422 C 0.68501 0.76284 0.92272
 H2423 H 0.71639 0.82928 0.93276
 H2424 H 0.73360 0.81200 0.96249
 H2425 H 0.68458 0.74209 0.95043
 H2426 H 0.71114 0.74487 0.93753
 H2427 H 0.66794 0.75867 0.92116
 H2428 H 0.69444 0.76160 0.90816
 C2429 C 0.18902 0.28452 0.93371
 C2430 C 0.19661 0.30380 0.92581
 C2431 C 0.21240 0.31430 0.93748
 C2432 C 0.22205 0.30430 0.95475
 C2433 C 0.21603 0.28365 0.96077
 C2434 C 0.19848 0.27473 0.95074
 C2435 C 0.19577 0.25315 0.94172
 C2436 C 0.18544 0.26383 0.92306
 H2437 H 0.21817 0.32971 0.93273
 H2438 H 0.23501 0.31225 0.96256
 H2439 H 0.18454 0.24329 0.95092
 H2440 H 0.21116 0.24539 0.93801
 H2441 H 0.16828 0.26001 0.92153
 H2442 H 0.19483 0.26227 0.90851
 C2443 C 0.19009 0.78414 0.43115
 C2444 C 0.19753 0.80342 0.42310
 C2445 C 0.21361 0.81389 0.43442
 C2446 C 0.22353 0.80394 0.45155
 C2447 C 0.21754 0.78334 0.45776
 C2448 C 0.19984 0.77439 0.44803
 C2449 C 0.19701 0.75280 0.43908
 C2450 C 0.18636 0.76344 0.42057
 H2451 H 0.21928 0.82930 0.42956
 H2452 H 0.23658 0.81193 0.45918
 H2453 H 0.18595 0.74294 0.44847
 H2454 H 0.21236 0.74506 0.43515
 H2455 H 0.16919 0.75960 0.41931
 H2456 H 0.19552 0.76188 0.40588
 C2457 C 0.69287 0.71938 0.57288
 C2458 C 0.70072 0.70044 0.58137
 C2459 C 0.71681 0.68986 0.57017
 C2460 C 0.72628 0.69939 0.55263
 C2461 C 0.71983 0.71968 0.54583
 C2462 C 0.70217 0.72872 0.55556
 C2463 C 0.69921 0.75054 0.56392
 C2464 C 0.68903 0.74034 0.58289
 H2465 H 0.72278 0.67465 0.57535
 H2466 H 0.73923 0.69126 0.54499
 H2467 H 0.68785 0.75999 0.55441
 H2468 H 0.71451 0.75854 0.56741
 H2469 H 0.67182 0.74400 0.58428
 H2470 H 0.69842 0.74245 0.59740
 C2471 C 0.69313 0.22087 0.07261
 C2472 C 0.70164 0.20266 0.08199
 C2473 C 0.72183 0.19588 0.07514
 C2474 C 0.73182 0.20574 0.05808
 C2475 C 0.72189 0.22265 0.04743
 C2476 C 0.70302 0.23060 0.05580
 C2477 C 0.68237 0.23537 0.04536
 C2478 C 0.67154 0.22472 0.06373
 H2479 H 0.72974 0.18258 0.08246
 H2480 H 0.74700 0.19970 0.05290
 H2481 H 0.68036 0.22664 0.03051
 H2482 H 0.67922 0.25268 0.04443
 H2483 H 0.66321 0.20980 0.05957
 H2484 H 0.66212 0.23593 0.07331
 C2485 C 0.19153 0.71885 0.06843
 C2486 C 0.19915 0.69974 0.07673
 C2487 C 0.21504 0.68904 0.06538
 C2488 C 0.22469 0.69868 0.04797
 C2489 C 0.21859 0.71919 0.04149
 C2490 C 0.20101 0.72831 0.05127
 C2491 C 0.19823 0.75005 0.05988
 C2492 C 0.18788 0.73974 0.07868
 H2493 H 0.22082 0.67371 0.07043
 H2494 H 0.23764 0.69055 0.04034
 H2495 H 0.18701 0.75973 0.05044
 H2496 H 0.21361 0.75787 0.06351
 H2497 H 0.17071 0.74357 0.08006
 H2498 H 0.19724 0.74157 0.09325
 C2499 C 0.19183 0.21712 0.57058
 C2500 C 0.19968 0.19814 0.57898
 C2501 C 0.21614 0.18791 0.56800
 C2502 C 0.22591 0.19781 0.55079
 C2503 C 0.21939 0.21813 0.54414
 C2504 C 0.20142 0.22683 0.55362
 C2505 C 0.19801 0.24848 0.56221
 C2506 C 0.18752 0.23790 0.58080
 H2507 H 0.22216 0.17270 0.57313
 H2508 H 0.23914 0.18996 0.54334
 H2509 H 0.18676 0.25795 0.55259
 H2510 H 0.21314 0.25661 0.56615
 H2511 H 0.17025 0.24136 0.58187
 H2512 H 0.19655 0.23988 0.59554
   
