data_POSCAR
  _audit_creation_date              2014-09-24
  _audit_creation_method            'ToBaCCo'
  _symmetry_space_group_name_H-M    'P1'
  _symmetry_Int_Tables_number       1
  _symmetry_cell_setting            triclinic
  loop_
  _symmetry_equiv_pos_as_xyz
 x,y,z
_cell_length_a 73.1199
_cell_length_b 73.1280
_cell_length_c 73.1936
_cell_angle_alpha 90.013300
_cell_angle_beta 89.984700
_cell_angle_gamma 89.893200
loop_
  _atom_site_label
  _atom_site_type_symbol
  _atom_site_fract_x
  _atom_site_fract_y
  _atom_site_fract_z
C1 C 0.35920 0.33230 0.34602
 C2 C 0.34564 0.33233 0.35958
 C3 C 0.33224 0.34575 0.35958
 C4 C 0.33223 0.35930 0.34603
 C5 C 0.34562 0.35927 0.33263
 C6 C 0.35919 0.34569 0.33263
 C7 C 0.37342 0.32053 0.34220
 N8 N 0.38192 0.32654 0.32691
 C9 C 0.37341 0.34185 0.32088
 C10 C 0.34180 0.37348 0.32089
 N11 N 0.32650 0.38202 0.32692
 C12 C 0.32047 0.37353 0.34221
 C13 C 0.32049 0.34196 0.37379
 N14 N 0.32654 0.32665 0.38229
 C15 C 0.34184 0.32059 0.37379
 H16 H 0.37711 0.30833 0.34974
 H17 H 0.37707 0.34938 0.30869
 H18 H 0.34934 0.37714 0.30870
 H19 H 0.30827 0.37723 0.34976
 H20 H 0.30829 0.34952 0.37747
 H21 H 0.34939 0.30838 0.37746
 C22 C 0.35939 0.83236 -0.15473
 C23 C 0.34582 0.83238 -0.14119
 C24 C 0.33240 0.84578 -0.14119
 C25 C 0.33238 0.85933 -0.15474
 C26 C 0.34579 0.85932 -0.16814
 C27 C 0.35937 0.84576 -0.16813
 C28 C 0.37363 0.82060 -0.15853
 N29 N 0.38213 0.82664 -0.17382
 C30 C 0.37360 0.84194 -0.17987
 C31 C 0.34196 0.87354 -0.17988
 N32 N 0.32665 0.88205 -0.17384
 C33 C 0.32061 0.87356 -0.15855
 C34 C 0.32066 0.84199 -0.12698
 N35 N 0.32672 0.82670 -0.11846
 C36 C 0.34203 0.82065 -0.12697
 H37 H 0.37732 0.80841 -0.15096
 H38 H 0.37726 0.84949 -0.19206
 H39 H 0.34952 0.87719 -0.19207
 H40 H 0.30840 0.87723 -0.15099
 H41 H 0.30845 0.84955 -0.12330
 H42 H 0.34960 0.80845 -0.12328
 C43 C 0.85928 0.33242 -0.15464
 C44 C 0.84572 0.33244 -0.14108
 C45 C 0.83231 0.34586 -0.14107
 C46 C 0.83231 0.35943 -0.15460
 C47 C 0.84571 0.35942 -0.16800
 C48 C 0.85927 0.34583 -0.16802
 C49 C 0.87351 0.32065 -0.15845
 N50 N 0.88201 0.32670 -0.17373
 C51 C 0.87350 0.34201 -0.17977
 C52 C 0.84190 0.37365 -0.17973
 N53 N 0.82660 0.38218 -0.17367
 C54 C 0.82055 0.37368 -0.15838
 C55 C 0.82058 0.34207 -0.12685
 N56 N 0.82662 0.32675 -0.11836
 C57 C 0.84192 0.32070 -0.12688
 H58 H 0.87718 0.30845 -0.15090
 H59 H 0.87716 0.34958 -0.19195
 H60 H 0.84946 0.37732 -0.19191
 H61 H 0.80835 0.37736 -0.15082
 H62 H 0.80838 0.34963 -0.12316
 H63 H 0.84947 0.30849 -0.12321
 C64 C 0.85952 0.83258 0.34583
 C65 C 0.84596 0.83259 0.35938
 C66 C 0.83253 0.84599 0.35939
 C67 C 0.83249 0.85954 0.34583
 C68 C 0.84589 0.85953 0.33243
 C69 C 0.85948 0.84597 0.33243
 C70 C 0.87376 0.82083 0.34202
 N71 N 0.88225 0.82687 0.32673
 C72 C 0.87371 0.84216 0.32068
 C73 C 0.84205 0.87374 0.32068
 N74 N 0.82674 0.88225 0.32673
 C75 C 0.82071 0.87375 0.34203
 C76 C 0.82080 0.84219 0.37361
 N77 N 0.82688 0.82690 0.38212
 C78 C 0.84218 0.82086 0.37361
 H79 H 0.87746 0.80864 0.34958
 H80 H 0.87735 0.84971 0.30848
 H81 H 0.84960 0.87739 0.30849
 H82 H 0.80851 0.87742 0.34959
 H83 H 0.80859 0.84974 0.37729
 H84 H 0.84976 0.80867 0.37729
 C85 C 0.64080 0.66782 0.34598
 C86 C 0.65435 0.66779 0.35954
 C87 C 0.66773 0.65435 0.35956
 C88 C 0.66774 0.64078 0.34602
 C89 C 0.65435 0.64080 0.33263
 C90 C 0.64080 0.65440 0.33260
 C91 C 0.62660 0.67960 0.34214
 N92 N 0.61810 0.67357 0.32686
 C93 C 0.62660 0.65824 0.32085
 C94 C 0.65816 0.62656 0.32090
 N95 N 0.67344 0.61802 0.32695
 C96 C 0.67947 0.62652 0.34223
 C97 C 0.67947 0.65815 0.37377
 N98 N 0.67344 0.67348 0.38226
 C99 C 0.65816 0.67954 0.37374
 H100 H 0.62292 0.69182 0.34967
 H101 H 0.62293 0.65069 0.30867
 H102 H 0.65062 0.62290 0.30871
 H103 H 0.69166 0.62282 0.34978
 H104 H 0.69166 0.65057 0.37746
 H105 H 0.65062 0.69177 0.37739
 C106 C 0.64045 0.16759 -0.15457
 C107 C 0.65401 0.16759 -0.14103
 C108 C 0.66743 0.15419 -0.14102
 C109 C 0.66746 0.14062 -0.15456
 C110 C 0.65405 0.14061 -0.16795
 C111 C 0.64047 0.15417 -0.16796
 C112 C 0.62621 0.17934 -0.15837
 N113 N 0.61771 0.17328 -0.17365
 C114 C 0.62624 0.15797 -0.17969
 C115 C 0.65788 0.12637 -0.17968
 N116 N 0.67319 0.11787 -0.17363
 C117 C 0.67923 0.12639 -0.15835
 C118 C 0.67917 0.15800 -0.12682
 N119 N 0.67311 0.17330 -0.11832
 C120 C 0.65781 0.17934 -0.12682
 H121 H 0.62252 0.19154 -0.15082
 H122 H 0.62258 0.15040 -0.19187
 H123 H 0.65032 0.12270 -0.19187
 H124 H 0.69143 0.12272 -0.15079
 H125 H 0.69138 0.15044 -0.12314
 H126 H 0.65024 0.19154 -0.12315
 C127 C 0.14059 0.66752 -0.15453
 C128 C 0.15416 0.66750 -0.14100
 C129 C 0.16757 0.65408 -0.14101
 C130 C 0.16756 0.64051 -0.15455
 C131 C 0.15414 0.64053 -0.16793
 C132 C 0.14058 0.65411 -0.16792
 C133 C 0.12637 0.67930 -0.15832
 N134 N 0.11785 0.67326 -0.17360
 C135 C 0.12635 0.65794 -0.17965
 C136 C 0.15794 0.62629 -0.17967
 N137 N 0.17325 0.61776 -0.17363
 C138 C 0.17931 0.62626 -0.15835
 C139 C 0.17932 0.65788 -0.12681
 N140 N 0.17328 0.67319 -0.11830
 C141 C 0.15798 0.67925 -0.12680
 H142 H 0.12271 0.69151 -0.15076
 H143 H 0.12267 0.65038 -0.19183
 H144 H 0.15037 0.62263 -0.19185
 H145 H 0.19151 0.62258 -0.15081
 H146 H 0.19152 0.65031 -0.12314
 H147 H 0.15043 0.69146 -0.12312
 C148 C 0.14073 0.16772 0.34551
 C149 C 0.15425 0.16767 0.35909
 C150 C 0.16767 0.15426 0.35909
 C151 C 0.16773 0.14074 0.34550
 C152 C 0.15436 0.14078 0.33207
 C153 C 0.14079 0.15435 0.33207
 C154 C 0.12651 0.17949 0.34170
 N155 N 0.11805 0.17349 0.32638
 C156 C 0.12659 0.15820 0.32031
 C157 C 0.15821 0.12659 0.32030
 N158 N 0.17350 0.11805 0.32637
 C159 C 0.17950 0.12651 0.34169
 C160 C 0.17937 0.15802 0.37334
 N161 N 0.17329 0.17330 0.38187
 C162 C 0.15801 0.17937 0.37335
 H163 H 0.12280 0.19167 0.34929
 H164 H 0.12297 0.15067 0.30809
 H165 H 0.15069 0.12296 0.30808
 H166 H 0.19168 0.12282 0.34927
 H167 H 0.19156 0.15045 0.37703
 H168 H 0.15043 0.19156 0.37704
 C169 C 0.64069 0.33227 0.65420
 C170 C 0.65423 0.33228 0.64063
 C171 C 0.66761 0.34567 0.64063
 C172 C 0.66762 0.35921 0.65420
 C173 C 0.65423 0.35920 0.66761
 C174 C 0.64069 0.34565 0.66761
 C175 C 0.62649 0.32052 0.65802
 N176 N 0.61800 0.32653 0.67333
 C177 C 0.62649 0.34182 0.67937
 C178 C 0.65805 0.37339 0.67937
 N179 N 0.67333 0.38190 0.67333
 C180 C 0.67935 0.37341 0.65802
 C181 C 0.67935 0.34187 0.62641
 N182 N 0.67333 0.32658 0.61789
 C183 C 0.65805 0.32055 0.62640
 H184 H 0.62282 0.30833 0.65046
 H185 H 0.62282 0.34935 0.69157
 H186 H 0.65051 0.37706 0.69158
 H187 H 0.69154 0.37709 0.65047
 H188 H 0.69154 0.34941 0.62273
 H189 H 0.65051 0.30836 0.62272
 C190 C 0.64021 0.83232 1.15450
 C191 C 0.65375 0.83231 1.14092
 C192 C 0.66718 0.84566 1.14095
 C193 C 0.66723 0.85917 1.15454
 C194 C 0.65385 0.85918 1.16796
 C195 C 0.64026 0.84568 1.16794
 C196 C 0.62596 0.82062 1.15828
 N197 N 0.61749 0.82665 1.17361
 C198 C 0.62605 0.84190 1.17969
 C199 C 0.65772 0.87335 1.17973
 N200 N 0.67303 0.88182 1.17370
 C201 C 0.67902 0.87333 1.15837
 C202 C 0.67890 0.84185 1.12671
 N203 N 0.67282 0.82660 1.11816
 C204 C 0.65751 0.82060 1.12667
 H205 H 0.62226 0.80846 1.15069
 H206 H 0.62242 0.84944 1.19191
 H207 H 0.65020 0.87703 1.19194
 H208 H 0.69121 0.87698 1.15082
 H209 H 0.69111 0.84936 1.12304
 H210 H 0.64994 0.80844 1.12297
 C211 C 0.14030 0.33225 1.15441
 C212 C 0.15382 0.33228 1.14083
 C213 C 0.16717 0.34571 1.14080
 C214 C 0.16716 0.35925 1.15436
 C215 C 0.15380 0.35922 1.16780
 C216 C 0.14029 0.34564 1.16782
 C217 C 0.12613 0.32047 1.15824
 N218 N 0.11764 0.32649 1.17356
 C219 C 0.12611 0.34180 1.17960
 C220 C 0.15760 0.37344 1.17953
 N221 N 0.17285 0.38198 1.17346
 C222 C 0.17887 0.37349 1.15815
 C223 C 0.17890 0.34193 1.12656
 N224 N 0.17289 0.32663 1.11805
 C225 C 0.15764 0.32056 1.12660
 H226 H 0.12249 0.30827 1.15068
 H227 H 0.12245 0.34934 1.19181
 H228 H 0.15007 0.37709 1.19175
 H229 H 0.19104 0.37719 1.15058
 H230 H 0.19106 0.34950 1.12285
 H231 H 0.15012 0.30835 1.12293
 C232 C 0.14094 0.83275 0.65450
 C233 C 0.15446 0.83279 0.64091
 C234 C 0.16784 0.84619 0.64090
 C235 C 0.16787 0.85970 0.65450
 C236 C 0.15451 0.85966 0.66794
 C237 C 0.14097 0.84611 0.66794
 C238 C 0.12675 0.82100 0.65832
 N239 N 0.11828 0.82699 0.67365
 C240 C 0.12679 0.84226 0.67971
 C241 C 0.15834 0.87384 0.67972
 N242 N 0.17361 0.88236 0.67365
 C243 C 0.17962 0.87390 0.65831
 C244 C 0.17955 0.84241 0.62664
 N245 N 0.17350 0.82714 0.61811
 C246 C 0.15824 0.82109 0.62665
 H247 H 0.12307 0.80883 0.65074
 H248 H 0.12314 0.84977 0.69194
 H249 H 0.15081 0.87747 0.69195
 H250 H 0.19179 0.87759 0.65072
 H251 H 0.19173 0.84996 0.62295
 H252 H 0.15070 0.80891 0.62296
 C253 C 0.35928 0.66748 0.65406
 C254 C 0.34575 0.66748 0.64049
 C255 C 0.33234 0.65410 0.64049
 C256 C 0.33231 0.64057 0.65407
 C257 C 0.34568 0.64058 0.66748
 C258 C 0.35924 0.65411 0.66748
 C259 C 0.37348 0.67921 0.65788
 N260 N 0.38195 0.67320 0.67320
 C261 C 0.37343 0.65793 0.67924
 C262 C 0.34184 0.62640 0.67924
 N263 N 0.32654 0.61791 0.67321
 C264 C 0.32055 0.62639 0.65789
 C265 C 0.32062 0.65792 0.62626
 N266 N 0.32667 0.67319 0.61774
 C267 C 0.34196 0.67920 0.62626
 H268 H 0.37717 0.69139 0.65033
 H269 H 0.37708 0.65041 0.69146
 H270 H 0.34936 0.62274 0.69145
 H271 H 0.30836 0.62272 0.65033
 H272 H 0.30842 0.65039 0.62258
 H273 H 0.34952 0.69138 0.62258
 C274 C 0.35915 0.16719 1.15421
 C275 C 0.34560 0.16721 1.14066
 C276 C 0.33218 0.15385 1.14069
 C277 C 0.33215 0.14032 1.15426
 C278 C 0.34555 0.14031 1.16766
 C279 C 0.35913 0.15383 1.16763
 C280 C 0.37338 0.17891 1.15800
 N281 N 0.38188 0.17288 1.17330
 C282 C 0.37335 0.15762 1.17936
 C283 C 0.34172 0.12613 1.17943
 N284 N 0.32641 0.11766 1.17340
 C285 C 0.32038 0.12615 1.15809
 C286 C 0.32044 0.15767 1.12647
 N287 N 0.32650 0.17293 1.11794
 C288 C 0.34181 0.17893 1.12643
 H289 H 0.37708 0.19107 1.15043
 H290 H 0.37701 0.15010 1.19157
 H291 H 0.34927 0.12247 1.19163
 H292 H 0.30817 0.12251 1.15054
 H293 H 0.30823 0.15015 1.12281
 H294 H 0.34937 0.19110 1.12274
 C295 C 0.85934 0.66767 1.15431
 C296 C 0.84581 0.66762 1.14073
 C297 C 0.83247 0.65418 1.14072
 C298 C 0.83251 0.64063 1.15427
 C299 C 0.84588 0.64068 1.16769
 C300 C 0.85937 0.65429 1.16771
 C301 C 0.87349 0.67947 1.15814
 N302 N 0.88199 0.67348 1.17345
 C303 C 0.87354 0.65816 1.17947
 C304 C 0.84211 0.62647 1.17943
 N305 N 0.82686 0.61791 1.17337
 C306 C 0.82082 0.62638 1.15807
 C307 C 0.82074 0.65794 1.12649
 N308 N 0.82671 0.67325 1.11799
 C309 C 0.84197 0.67934 1.12652
 H310 H 0.87712 0.69167 1.15060
 H311 H 0.87723 0.65063 1.19167
 H312 H 0.84964 0.62283 1.19164
 H313 H 0.80866 0.62266 1.15051
 H314 H 0.80858 0.65035 1.12279
 H315 H 0.84946 0.69156 1.12285
 C316 C 0.85979 0.16779 0.65456
 C317 C 0.84629 0.16774 0.64096
 C318 C 0.83290 0.15435 0.64095
 C319 C 0.83286 0.14085 0.65455
 C320 C 0.84620 0.14089 0.66799
 C321 C 0.85975 0.15443 0.66800
 C322 C 0.87399 0.17954 0.65838
 N323 N 0.88243 0.17354 0.67372
 C324 C 0.87391 0.15827 0.67979
 C325 C 0.84234 0.12672 0.67976
 N326 N 0.82707 0.11820 0.67370
 C327 C 0.82110 0.12666 0.65836
 C328 C 0.82121 0.15812 0.62669
 N329 N 0.82727 0.17339 0.61816
 C330 C 0.84253 0.17944 0.62670
 H331 H 0.87767 0.19171 0.65080
 H332 H 0.87753 0.15076 0.69202
 H333 H 0.84984 0.12308 0.69200
 H334 H 0.80894 0.12296 0.65078
 H335 H 0.80903 0.15057 0.62300
 H336 H 0.85007 0.19162 0.62301
 C337 C 0.33214 0.35911 0.65451
 C338 C 0.33215 0.34554 0.64097
 C339 C 0.34556 0.33213 0.64097
 C340 C 0.35912 0.33212 0.65451
 C341 C 0.35912 0.34552 0.66790
 C342 C 0.34554 0.35910 0.66790
 C343 C 0.32039 0.37335 0.65832
 N344 N 0.32642 0.38186 0.67359
 C345 C 0.34173 0.37334 0.67962
 C346 C 0.37335 0.34171 0.67962
 N347 N 0.38187 0.32640 0.67359
 C348 C 0.37336 0.32036 0.65831
 C349 C 0.34176 0.32038 0.62676
 N350 N 0.32646 0.32644 0.61826
 C351 C 0.32041 0.34174 0.62676
 H352 H 0.30819 0.37704 0.65077
 H353 H 0.34928 0.37702 0.69180
 H354 H 0.37703 0.34926 0.69180
 H355 H 0.37705 0.30816 0.65077
 H356 H 0.34932 0.30818 0.62308
 H357 H 0.30821 0.34931 0.62308
 C358 C 0.33226 0.85981 0.15375
 C359 C 0.33226 0.84624 0.14020
 C360 C 0.34569 0.83284 0.14018
 C361 C 0.35926 0.83284 0.15371
 C362 C 0.35926 0.84624 0.16710
 C363 C 0.34567 0.85980 0.16712
 C364 C 0.32050 0.87403 0.15757
 N365 N 0.32654 0.88254 0.17285
 C366 C 0.34186 0.87403 0.17886
 C367 C 0.37349 0.84243 0.17882
 N368 N 0.38202 0.82712 0.17278
 C369 C 0.37350 0.82109 0.15750
 C370 C 0.34188 0.82109 0.12598
 N371 N 0.32656 0.82713 0.11749
 C372 C 0.32051 0.84243 0.12600
 H373 H 0.30828 0.87772 0.15005
 H374 H 0.34941 0.87771 0.19103
 H375 H 0.37717 0.84997 0.19100
 H376 H 0.37719 0.80888 0.14996
 H377 H 0.34945 0.80889 0.12229
 H378 H 0.30830 0.84998 0.12234
 C379 C 0.83273 0.35902 0.15388
 C380 C 0.83275 0.34546 0.14033
 C381 C 0.84617 0.33206 0.14032
 C382 C 0.85973 0.33205 0.15387
 C383 C 0.85971 0.34545 0.16726
 C384 C 0.84613 0.35902 0.16727
 C385 C 0.82096 0.37325 0.15770
 N386 N 0.82698 0.38175 0.17299
 C387 C 0.84230 0.37324 0.17901
 C388 C 0.87394 0.34164 0.17899
 N389 N 0.88248 0.32634 0.17295
 C390 C 0.87398 0.32031 0.15767
 C391 C 0.84238 0.32032 0.12611
 N392 N 0.82707 0.32636 0.11761
 C393 C 0.82101 0.34166 0.12613
 H394 H 0.80875 0.37693 0.15016
 H395 H 0.84984 0.37691 0.19119
 H396 H 0.87761 0.34919 0.19117
 H397 H 0.87768 0.30811 0.15012
 H398 H 0.84994 0.30812 0.12243
 H399 H 0.80880 0.34921 0.12246
 C400 C 0.83260 0.85953 0.65453
 C401 C 0.83263 0.84598 0.64097
 C402 C 0.84604 0.83257 0.64097
 C403 C 0.85959 0.83255 0.65452
 C404 C 0.85956 0.84594 0.66793
 C405 C 0.84599 0.85951 0.66793
 C406 C 0.82084 0.87376 0.65834
 N407 N 0.82685 0.88226 0.67364
 C408 C 0.84215 0.87373 0.67967
 C409 C 0.87378 0.84211 0.67967
 N410 N 0.88231 0.82681 0.67363
 C411 C 0.87382 0.82079 0.65833
 C412 C 0.84226 0.82084 0.62674
 N413 N 0.82696 0.82690 0.61823
 C414 C 0.82090 0.84219 0.62675
 H415 H 0.80864 0.87746 0.65079
 H416 H 0.84969 0.87739 0.69186
 H417 H 0.87744 0.84965 0.69186
 H418 H 0.87752 0.80860 0.65078
 H419 H 0.84982 0.80864 0.62306
 H420 H 0.80870 0.84975 0.62307
 C421 C 0.66783 0.64074 0.65442
 C422 C 0.66783 0.65430 0.64088
 C423 C 0.65441 0.66771 0.64088
 C424 C 0.64083 0.66771 0.65441
 C425 C 0.64083 0.65431 0.66779
 C426 C 0.65441 0.64074 0.66779
 C427 C 0.67958 0.62650 0.65822
 N428 N 0.67354 0.61798 0.67349
 C429 C 0.65822 0.62651 0.67952
 C430 C 0.62659 0.65812 0.67951
 N431 N 0.61806 0.67342 0.67348
 C432 C 0.62659 0.67946 0.65821
 C433 C 0.65822 0.67945 0.62667
 N434 N 0.67353 0.67341 0.61818
 C435 C 0.67958 0.65811 0.62668
 H436 H 0.69179 0.62281 0.65069
 H437 H 0.65066 0.62282 0.69169
 H438 H 0.62290 0.65056 0.69168
 H439 H 0.62290 0.69166 0.65067
 H440 H 0.65066 0.69165 0.62300
 H441 H 0.69179 0.65055 0.62301
 C442 C 0.66797 0.14025 0.15396
 C443 C 0.66794 0.15379 0.14039
 C444 C 0.65449 0.16718 0.14037
 C445 C 0.64092 0.16718 0.15391
 C446 C 0.64095 0.15380 0.16731
 C447 C 0.65455 0.14026 0.16734
 C448 C 0.67975 0.12605 0.15779
 N449 N 0.67373 0.11756 0.17309
 C450 C 0.65839 0.12606 0.17909
 C451 C 0.62671 0.15761 0.17903
 N452 N 0.61815 0.17289 0.17298
 C453 C 0.62666 0.17892 0.15769
 C454 C 0.65828 0.17891 0.12615
 N455 N 0.67361 0.17288 0.11766
 C456 C 0.67968 0.15760 0.12619
 H457 H 0.69197 0.12237 0.15027
 H458 H 0.65084 0.12239 0.19127
 H459 H 0.62304 0.15008 0.19123
 H460 H 0.62295 0.19110 0.15014
 H461 H 0.65069 0.19109 0.12245
 H462 H 0.69191 0.15006 0.12253
 C463 C 0.16736 0.64102 0.15394
 C464 C 0.16736 0.65458 0.14040
 C465 C 0.15398 0.66803 0.14043
 C466 C 0.14044 0.66807 0.15400
 C467 C 0.14044 0.65467 0.16739
 C468 C 0.15397 0.64106 0.16736
 C469 C 0.17908 0.62675 0.15773
 N470 N 0.17306 0.61826 0.17302
 C471 C 0.15778 0.62683 0.17908
 C472 C 0.12624 0.65852 0.17915
 N473 N 0.11774 0.67385 0.17314
 C474 C 0.12624 0.67986 0.15784
 C475 C 0.15778 0.67976 0.12622
 N476 N 0.17306 0.67367 0.11769
 C477 C 0.17908 0.65835 0.12617
 H478 H 0.19127 0.62304 0.15016
 H479 H 0.15025 0.62318 0.19128
 H480 H 0.12256 0.65098 0.19134
 H481 H 0.12256 0.69207 0.15031
 H482 H 0.15025 0.69198 0.12256
 H483 H 0.19126 0.65076 0.12247
 C484 C 0.16732 0.14032 0.65435
 C485 C 0.16731 0.15387 0.64080
 C486 C 0.15389 0.16729 0.64081
 C487 C 0.14034 0.16731 0.65437
 C488 C 0.14035 0.15392 0.66776
 C489 C 0.15392 0.14034 0.66775
 C490 C 0.17908 0.12609 0.65815
 N491 N 0.17305 0.11759 0.67344
 C492 C 0.15775 0.12612 0.67948
 C493 C 0.12613 0.15775 0.67950
 N494 N 0.11761 0.17305 0.67347
 C495 C 0.12611 0.17907 0.65818
 C496 C 0.15769 0.17902 0.62660
 N497 N 0.17299 0.17297 0.61809
 C498 C 0.17904 0.15767 0.62659
 H499 H 0.19127 0.12239 0.65060
 H500 H 0.15021 0.12245 0.69168
 H501 H 0.12246 0.15021 0.69169
 H502 H 0.12242 0.19127 0.65064
 H503 H 0.15013 0.19123 0.62293
 H504 H 0.19125 0.15010 0.62291
 C505 C 0.33248 0.64084 0.34539
 C506 C 0.33248 0.65439 0.35895
 C507 C 0.34586 0.66778 0.35894
 C508 C 0.35940 0.66778 0.34537
 C509 C 0.35940 0.65439 0.33197
 C510 C 0.34586 0.64084 0.33198
 C511 C 0.32074 0.62662 0.34159
 N512 N 0.32677 0.61812 0.32629
 C513 C 0.34205 0.62662 0.32024
 C514 C 0.37361 0.65820 0.32022
 N515 N 0.38211 0.67349 0.32625
 C516 C 0.37361 0.67952 0.34156
 C517 C 0.34205 0.67951 0.37316
 N518 N 0.32677 0.67348 0.38169
 C519 C 0.32074 0.65819 0.37318
 H520 H 0.30856 0.62295 0.34915
 H521 H 0.34958 0.62295 0.30804
 H522 H 0.37728 0.65066 0.30802
 H523 H 0.37728 0.69170 0.34911
 H524 H 0.34959 0.69171 0.37684
 H525 H 0.30856 0.65065 0.37687
 C526 C 0.33251 0.14010 0.84585
 C527 C 0.33248 0.15367 0.85939
 C528 C 0.34587 0.16705 0.85941
 C529 C 0.35946 0.16702 0.84588
 C530 C 0.35949 0.15361 0.83250
 C531 C 0.34594 0.14007 0.83249
 C532 C 0.32078 0.12589 0.84203
 N533 N 0.32685 0.11736 0.82676
 C534 C 0.34216 0.12585 0.82075
 C535 C 0.37373 0.15740 0.82079
 N536 N 0.38222 0.17270 0.82682
 C537 C 0.37368 0.17875 0.84209
 C538 C 0.34202 0.17881 0.87360
 N539 N 0.32671 0.17280 0.88208
 C540 C 0.32070 0.15750 0.87358
 H541 H 0.30857 0.12223 0.84956
 H542 H 0.34973 0.12215 0.80858
 H543 H 0.37744 0.14985 0.80861
 H544 H 0.37733 0.19095 0.84963
 H545 H 0.34956 0.19101 0.87728
 H546 H 0.30850 0.14998 0.87724
 C547 C 0.83278 0.64038 0.84599
 C548 C 0.83274 0.65396 0.85951
 C549 C 0.84612 0.66735 0.85951
 C550 C 0.85971 0.66732 0.84599
 C551 C 0.85975 0.65389 0.83262
 C552 C 0.84620 0.64034 0.83262
 C553 C 0.82105 0.62617 0.84218
 N554 N 0.82712 0.61763 0.82691
 C555 C 0.84242 0.62611 0.82090
 C556 C 0.87399 0.65767 0.82090
 N557 N 0.88247 0.67298 0.82692
 C558 C 0.87392 0.67905 0.84218
 C559 C 0.84227 0.67913 0.87369
 N560 N 0.82696 0.67312 0.88218
 C561 C 0.82096 0.65781 0.87369
 H562 H 0.80884 0.62251 0.84970
 H563 H 0.85000 0.62241 0.80873
 H564 H 0.87769 0.65010 0.80873
 H565 H 0.87757 0.69126 0.84971
 H566 H 0.84980 0.69133 0.87736
 H567 H 0.80876 0.65028 0.87736
 C568 C 0.83320 0.14023 0.34578
 C569 C 0.83319 0.15379 0.35932
 C570 C 0.84657 0.16718 0.35931
 C571 C 0.86013 0.16717 0.34575
 C572 C 0.86014 0.15376 0.33236
 C573 C 0.84659 0.14021 0.33238
 C574 C 0.82146 0.12602 0.34198
 N575 N 0.82750 0.11750 0.32669
 C576 C 0.84278 0.12599 0.32064
 C577 C 0.87434 0.15756 0.32061
 N578 N 0.88284 0.17286 0.32663
 C579 C 0.87433 0.17890 0.34192
 C580 C 0.84275 0.17894 0.37351
 N581 N 0.82746 0.17292 0.38203
 C582 C 0.82144 0.15762 0.37353
 H583 H 0.80927 0.12235 0.34953
 H584 H 0.85033 0.12230 0.30845
 H585 H 0.87802 0.15001 0.30842
 H586 H 0.87800 0.19110 0.34946
 H587 H 0.85029 0.19113 0.37718
 H588 H 0.80925 0.15008 0.37722
 C589 C 0.66758 0.35911 0.34568
 C590 C 0.66759 0.34555 0.35923
 C591 C 0.65421 0.33215 0.35922
 C592 C 0.64066 0.33216 0.34567
 C593 C 0.64065 0.34555 0.33228
 C594 C 0.65419 0.35911 0.33229
 C595 C 0.67931 0.37332 0.34188
 N596 N 0.67328 0.38183 0.32659
 C597 C 0.65799 0.37332 0.32055
 C598 C 0.62644 0.34175 0.32054
 N599 N 0.61795 0.32645 0.32657
 C600 C 0.62646 0.32042 0.34186
 C601 C 0.65803 0.32041 0.37343
 N602 N 0.67332 0.32644 0.38194
 C603 C 0.67934 0.34174 0.37344
 H604 H 0.69150 0.37699 0.34942
 H605 H 0.65045 0.37700 0.30836
 H606 H 0.62276 0.34929 0.30835
 H607 H 0.62279 0.30822 0.34940
 H608 H 0.65050 0.30822 0.37710
 H609 H 0.69152 0.34928 0.37712
 C610 C 0.66714 0.85980 0.84598
 C611 C 0.66715 0.84623 0.85952
 C612 C 0.65375 0.83285 0.85950
 C613 C 0.64019 0.83288 0.84596
 C614 C 0.64018 0.84629 0.83259
 C615 C 0.65373 0.85983 0.83260
 C616 C 0.67888 0.87401 0.84219
 N617 N 0.67284 0.88254 0.82691
 C618 C 0.65754 0.87405 0.82087
 C619 C 0.62597 0.84250 0.82084
 N620 N 0.61747 0.82720 0.82686
 C621 C 0.62599 0.82114 0.84214
 C622 C 0.65758 0.82108 0.87369
 N623 N 0.67287 0.82708 0.88219
 C624 C 0.67890 0.84239 0.87371
 H625 H 0.69108 0.87766 0.84972
 H626 H 0.64999 0.87775 0.80869
 H627 H 0.62229 0.85005 0.80866
 H628 H 0.62232 0.80894 0.84966
 H629 H 0.65004 0.80888 0.87735
 H630 H 0.69109 0.84991 0.87739
 C631 C 0.16698 0.35957 0.84594
 C632 C 0.16700 0.34599 0.85947
 C633 C 0.15362 0.33260 0.85945
 C634 C 0.14005 0.33263 0.84591
 C635 C 0.14003 0.34604 0.83255
 C636 C 0.15358 0.35959 0.83256
 C637 C 0.17872 0.37378 0.84215
 N638 N 0.17267 0.38231 0.82688
 C639 C 0.15738 0.37382 0.82084
 C640 C 0.12582 0.34226 0.82081
 N641 N 0.11733 0.32695 0.82682
 C642 C 0.12585 0.32089 0.84209
 C643 C 0.15745 0.32083 0.87364
 N644 N 0.17275 0.32684 0.88214
 C645 C 0.17876 0.34215 0.87366
 H646 H 0.19092 0.37743 0.84968
 H647 H 0.14982 0.37752 0.80866
 H648 H 0.12213 0.34982 0.80864
 H649 H 0.12219 0.30869 0.84961
 H650 H 0.14992 0.30863 0.87729
 H651 H 0.19095 0.34968 0.87734
 C652 C 0.16737 0.86017 0.34582
 C653 C 0.16739 0.84662 0.35937
 C654 C 0.15399 0.83324 0.35939
 C655 C 0.14041 0.83325 0.34587
 C656 C 0.14039 0.84665 0.33248
 C657 C 0.15395 0.86019 0.33245
 C658 C 0.17911 0.87437 0.34199
 N659 N 0.17305 0.88288 0.32671
 C660 C 0.15774 0.87439 0.32071
 C661 C 0.12616 0.84285 0.32076
 N662 N 0.11766 0.82756 0.32681
 C663 C 0.12619 0.82153 0.34208
 C664 C 0.15783 0.82149 0.37359
 N665 N 0.17314 0.82750 0.38207
 C666 C 0.17916 0.84279 0.37355
 H667 H 0.19132 0.87803 0.34951
 H668 H 0.15018 0.87808 0.30853
 H669 H 0.12246 0.85040 0.30858
 H670 H 0.12253 0.80933 0.34963
 H671 H 0.15029 0.80930 0.37728
 H672 H 0.19136 0.85032 0.37721
 O673 O 0.22657 0.98299 0.25175
 O674 O 0.25174 1.01857 0.22660
 O675 O 0.25169 0.98292 0.22656
 O676 O 0.22661 1.01864 0.25178
 O677 O 0.24803 1.01855 0.27311
 O678 O 0.27311 0.98284 0.24789
 O679 O 0.27316 1.01849 0.24793
 O680 O 0.24799 0.98290 0.27308
 Cu681 Cu 0.23699 1.00079 0.23702
 Cu682 Cu 0.26273 1.00069 0.26265
 C683 C 0.23305 0.97690 0.26664
 C684 C 0.26668 1.02457 0.23304
 C685 C 0.26661 0.97682 0.23300
 C686 C 0.23311 1.02466 0.26668
 O687 O 0.25147 0.51800 0.72688
 O688 O 0.22627 0.48245 0.75205
 O689 O 0.22629 0.51810 0.75201
 O690 O 0.25146 0.48235 0.72693
 O691 O 0.27283 0.48233 0.74830
 O692 O 0.24766 0.51808 0.77339
 O693 O 0.24764 0.48243 0.77342
 O694 O 0.27284 0.51798 0.74825
 Cu695 Cu 0.23671 0.50023 0.73731
 Cu696 Cu 0.26240 0.50020 0.76300
 C697 C 0.26638 0.52402 0.73334
 C698 C 0.23272 0.47640 0.76696
 C699 C 0.23275 0.52416 0.76691
 C700 C 0.26636 0.47627 0.73341
 O701 O 0.75227 -0.01821 0.27354
 O702 O 0.72721 0.01748 0.24829
 O703 O 0.72708 -0.01817 0.24843
 O704 O 0.75238 0.01744 0.27342
 O705 O 0.77375 0.01725 0.25203
 O706 O 0.74845 -0.01837 0.22704
 O707 O 0.74858 0.01728 0.22691
 O708 O 0.77364 -0.01840 0.25215
 Cu709 Cu 0.73758 -0.00035 0.26308
 Cu710 Cu 0.76326 -0.00058 0.23738
 C711 C 0.76716 -0.02437 0.26708
 C712 C 0.73369 0.02343 0.23336
 C713 C 0.73351 -0.02431 0.23354
 C714 C 0.76731 0.02339 0.26692
 O715 O 0.77358 0.51745 0.75205
 O716 O 0.74838 0.48188 0.72691
 O717 O 0.74841 0.51753 0.72692
 O718 O 0.77355 0.48180 0.75203
 O719 O 0.75216 0.48186 0.77341
 O720 O 0.72703 0.51759 0.74830
 O721 O 0.72699 0.48194 0.74828
 O722 O 0.75220 0.51751 0.77343
 Cu723 Cu 0.76314 0.49966 0.73732
 Cu724 Cu 0.73744 0.49973 0.76301
 C725 C 0.76712 0.52352 0.76696
 C726 C 0.73345 0.47587 0.73337
 C727 C 0.73351 0.52363 0.73340
 C728 C 0.76707 0.47576 0.76694
 O729 O 0.24782 0.48217 0.22670
 O730 O 0.27307 0.51782 0.25169
 O731 O 0.27300 0.48217 0.25182
 O732 O 0.24788 0.51783 0.22658
 O733 O 0.22651 0.51798 0.24797
 O734 O 0.25162 0.48233 0.27320
 O735 O 0.25169 0.51798 0.27308
 O736 O 0.22644 0.48233 0.24808
 Cu737 Cu 0.26260 0.49998 0.23704
 Cu738 Cu 0.23691 0.50017 0.26274
 C739 C 0.23290 0.47620 0.23320
 C740 C 0.26662 0.52395 0.26658
 C741 C 0.26652 0.47620 0.26675
 C742 C 0.23298 0.52396 0.23304
 O743 O 0.75183 1.01826 0.72707
 O744 O 0.72655 0.98267 0.75212
 O745 O 0.72656 1.01832 0.75211
 O746 O 0.75180 0.98261 0.72706
 O747 O 0.77311 0.98256 0.74849
 O748 O 0.74787 1.01828 0.77355
 O749 O 0.74786 0.98263 0.77356
 O750 O 0.77314 1.01821 0.74850
 Cu751 Cu 0.73704 1.00047 0.73743
 Cu752 Cu 0.76265 1.00042 0.76319
 C753 C 0.76673 1.02428 0.73358
 C754 C 0.73297 0.97661 0.76704
 C755 C 0.73298 1.02436 0.76704
 C756 C 0.76669 0.97653 0.73357
 O757 O 0.74829 0.51761 0.27329
 O758 O 0.77341 0.48194 0.24805
 O759 O 0.77344 0.51759 0.24813
 O760 O 0.74825 0.48195 0.27320
 O761 O 0.72686 0.48206 0.25186
 O762 O 0.75204 0.51770 0.22678
 O763 O 0.75201 0.48204 0.22670
 O764 O 0.72689 0.51771 0.25194
 Cu765 Cu 0.76301 0.49976 0.26282
 Cu766 Cu 0.73729 0.49989 0.23717
 C767 C 0.73338 0.52371 0.26685
 C768 C 0.76693 0.47594 0.23314
 C769 C 0.76696 0.52369 0.23325
 C770 C 0.73333 0.47596 0.26674
 O771 O 0.24815 -0.01841 0.72674
 O772 O 0.27333 0.01720 0.75187
 O773 O 0.27336 -0.01845 0.75184
 O774 O 0.24813 0.01724 0.72678
 O775 O 0.22677 0.01725 0.74818
 O776 O 0.25201 -0.01845 0.77324
 O777 O 0.25198 0.01721 0.77328
 O778 O 0.22680 -0.01840 0.74815
 Cu779 Cu 0.26290 -0.00061 0.73715
 Cu780 Cu 0.23724 -0.00060 0.76287
 C781 C 0.23325 -0.02445 0.73323
 C782 C 0.26688 0.02325 0.76679
 C783 C 0.26692 -0.02451 0.76675
 C784 C 0.23322 0.02331 0.73328
 O785 O 0.24780 0.27309 0.98214
 O786 O 0.27298 0.24789 1.01775
 O787 O 0.27298 0.24789 0.98213
 O788 O 0.24781 0.27309 1.01776
 O789 O 0.22643 0.25173 1.01776
 O790 O 0.25160 0.22654 0.98213
 O791 O 0.25160 0.22654 1.01775
 O792 O 0.22643 0.25174 0.98214
 Cu793 Cu 0.26255 0.26265 0.99995
 Cu794 Cu 0.23686 0.23698 0.99995
 C795 C 0.23289 0.26664 0.97610
 C796 C 0.26652 0.23299 1.02379
 C797 C 0.26652 0.23298 0.97608
 C798 C 0.23290 0.26664 1.02381
 O799 O 0.24819 0.77365 0.48205
 O800 O 0.27332 0.74834 0.51761
 O801 O 0.27331 0.74840 0.48199
 O802 O 0.24821 0.77360 0.51767
 O803 O 0.22678 0.75229 0.51765
 O804 O 0.25189 0.72709 0.48197
 O805 O 0.25189 0.72703 0.51759
 O806 O 0.22676 0.75235 0.48203
 Cu807 Cu 0.26292 0.76315 0.49984
 Cu808 Cu 0.23717 0.73754 0.49981
 C809 C 0.23326 0.76725 0.47601
 C810 C 0.26682 0.73344 0.52364
 C811 C 0.26681 0.73352 0.47593
 C812 C 0.23329 0.76717 0.52372
 O813 O 0.25175 0.77347 0.01736
 O814 O 0.22667 0.74823 -0.01823
 O815 O 0.22661 0.74832 0.01739
 O816 O 0.25180 0.77338 -0.01826
 O817 O 0.27321 0.75198 -0.01818
 O818 O 0.24803 0.72693 0.01747
 O819 O 0.24808 0.72683 -0.01815
 O820 O 0.27316 0.75207 0.01744
 Cu821 Cu 0.23705 0.76301 -0.00044
 Cu822 Cu 0.26278 0.73730 -0.00035
 C823 C 0.26666 0.76701 0.02344
 C824 C 0.23317 0.73329 -0.02423
 C825 C 0.23310 0.73342 0.02348
 C826 C 0.26673 0.76689 -0.02427
 O827 O 0.22651 0.24795 0.48236
 O828 O 0.25161 0.27304 0.51803
 O829 O 0.25163 0.27309 0.48241
 O830 O 0.22648 0.24790 0.51798
 O831 O 0.24789 0.22650 0.51795
 O832 O 0.27305 0.25170 0.48238
 O833 O 0.27303 0.25164 0.51800
 O834 O 0.24792 0.22655 0.48233
 Cu835 Cu 0.23690 0.26265 0.50020
 Cu836 Cu 0.26263 0.23694 0.50016
 C837 C 0.23300 0.23304 0.47628
 C838 C 0.26654 0.26655 0.52407
 C839 C 0.26656 0.26662 0.47636
 C840 C 0.23296 0.23297 0.52400
 O841 O 0.74785 0.77330 0.98223
 O842 O 0.77303 0.74811 1.01783
 O843 O 0.77307 0.74815 0.98222
 O844 O 0.74780 0.77325 1.01785
 O845 O 0.72646 0.75185 1.01780
 O846 O 0.75173 0.72675 0.98216
 O847 O 0.75169 0.72671 1.01778
 O848 O 0.72651 0.75191 0.98218
 Cu849 Cu 0.76259 0.76286 1.00004
 Cu850 Cu 0.73694 0.73715 0.99997
 C851 C 0.73295 0.76684 0.97616
 C852 C 0.76658 0.73318 1.02385
 C853 C 0.76664 0.73323 0.97614
 C854 C 0.73289 0.76676 1.02388
 O855 O 0.72711 0.25167 0.51773
 O856 O 0.75238 0.22651 0.48214
 O857 O 0.75237 0.22657 0.51776
 O858 O 0.72711 0.25162 0.48211
 O859 O 0.74841 0.27305 0.48208
 O860 O 0.77367 0.24800 0.51773
 O861 O 0.77368 0.24794 0.48211
 O862 O 0.74841 0.27310 0.51770
 Cu863 Cu 0.73759 0.23693 0.49994
 Cu864 Cu 0.76319 0.26269 0.49990
 C865 C 0.73352 0.26661 0.52376
 C866 C 0.76727 0.23300 0.47608
 C867 C 0.76726 0.23308 0.52380
 C868 C 0.73352 0.26654 0.47605
 O869 O 0.77332 0.25174 -0.01823
 O870 O 0.74828 0.22651 0.01739
 O871 O 0.74817 0.22661 -0.01823
 O872 O 0.77342 0.25164 0.01739
 O873 O 0.75202 0.27305 0.01752
 O874 O 0.72676 0.24802 -0.01809
 O875 O 0.72688 0.24792 0.01753
 O876 O 0.75191 0.27315 -0.01810
 Cu877 Cu 0.76296 0.23697 -0.00043
 Cu878 Cu 0.73723 0.26269 -0.00027
 C879 C 0.76682 0.26668 -0.02422
 C880 C 0.73338 0.23298 0.02351
 C881 C 0.73323 0.23311 -0.02420
 C882 C 0.76696 0.26655 0.02350
 O883 O 0.77352 0.75207 0.48238
 O884 O 0.74840 0.72692 0.51801
 O885 O 0.74838 0.72693 0.48239
 O886 O 0.77354 0.75206 0.51800
 O887 O 0.75213 0.77347 0.51802
 O888 O 0.72697 0.74833 0.48241
 O889 O 0.72699 0.74832 0.51803
 O890 O 0.75211 0.77347 0.48240
 Cu891 Cu 0.76312 0.73734 0.50019
 Cu892 Cu 0.73739 0.76306 0.50022
 C893 C 0.76703 0.76699 0.47634
 C894 C 0.73348 0.73340 0.52407
 C895 C 0.73345 0.73341 0.47635
 C896 C 0.76705 0.76698 0.52406
 O897 O 0.98293 0.25160 0.22660
 O898 O 1.01865 0.22655 0.25181
 O899 O 0.98300 0.22646 0.25176
 O900 O 1.01859 0.25170 0.22666
 O901 O 1.01845 0.27310 0.24801
 O902 O 0.98286 0.24787 0.27311
 O903 O 1.01852 0.24795 0.27317
 O904 O 0.98280 0.27300 0.24795
 Cu905 Cu 1.00081 0.23692 0.23705
 Cu906 Cu 1.00065 0.26264 0.26272
 C907 C 0.97680 0.26650 0.23305
 C908 C 1.02465 0.23305 0.26672
 C909 C 0.97689 0.23293 0.26665
 C910 C 1.02456 0.26664 0.23312
 O911 O 0.48235 0.25147 0.72693
 O912 O 0.51808 0.22632 0.75202
 O913 O 0.48242 0.22628 0.75204
 O914 O 0.51800 0.25150 0.72690
 O915 O 0.51795 0.27286 0.74829
 O916 O 0.48238 0.24765 0.77342
 O917 O 0.51803 0.24768 0.77340
 O918 O 0.48230 0.27284 0.74832
 Cu919 Cu 0.50022 0.23674 0.73731
 Cu920 Cu 0.50016 0.26241 0.76302
 C921 C 0.47626 0.26638 0.73341
 C922 C 0.52412 0.23278 0.76692
 C923 C 0.47636 0.23274 0.76695
 C924 C 0.52402 0.26641 0.73337
 O925 O 0.01720 0.25203 0.77335
 O926 O -0.01839 0.22683 0.74824
 O927 O 0.01726 0.22681 0.74826
 O928 O -0.01845 0.25205 0.77332
 O929 O -0.01846 0.27339 0.75191
 O930 O 0.01725 0.24815 0.72685
 O931 O -0.01840 0.24816 0.72683
 O932 O 0.01719 0.27337 0.75194
 Cu933 Cu -0.00060 0.23728 0.76295
 Cu934 Cu -0.00060 0.26292 0.73722
 C935 C 0.02324 0.26693 0.76686
 C936 C -0.02444 0.23327 0.73332
 C937 C 0.02332 0.23324 0.73335
 C938 C -0.02452 0.26695 0.76683
 O939 O 0.48209 0.27291 0.25184
 O940 O 0.51775 0.24777 0.22660
 O941 O 0.48209 0.24776 0.22668
 O942 O 0.51774 0.27292 0.25176
 O943 O 0.51782 0.25152 0.27311
 O944 O 0.48218 0.22636 0.24802
 O945 O 0.51783 0.22637 0.24795
 O946 O 0.48217 0.25151 0.27318
 Cu947 Cu 0.49991 0.26250 0.23707
 Cu948 Cu 0.50001 0.23678 0.26272
 C949 C 0.47608 0.26643 0.26675
 C950 C 0.52385 0.23285 0.23304
 C951 C 0.47608 0.23284 0.23314
 C952 C 0.52383 0.26644 0.26665
 O953 O 0.98265 0.75179 0.72705
 O954 O 1.01835 0.72658 0.75213
 O955 O 0.98269 0.72657 0.75213
 O956 O 1.01830 0.75181 0.72706
 O957 O 1.01825 0.77314 0.74849
 O958 O 0.98264 0.74790 0.77355
 O959 O 1.01829 0.74791 0.77355
 O960 O 0.98259 0.77312 0.74848
 Cu961 Cu 1.00050 0.73704 0.73743
 Cu962 Cu 1.00044 0.76267 0.76318
 C963 C 0.97656 0.76669 0.73356
 C964 C 1.02438 0.73301 0.76705
 C965 C 0.97662 0.73300 0.76705
 C966 C 1.02432 0.76671 0.73357
 O967 O 0.51792 0.77367 0.24786
 O968 O 0.48225 0.74849 0.27290
 O969 O 0.51791 0.74853 0.27302
 O970 O 0.48227 0.77364 0.24776
 O971 O 0.48240 0.75224 0.22640
 O972 O 0.51804 0.72713 0.25166
 O973 O 0.48238 0.72709 0.25154
 O974 O 0.51805 0.75227 0.22651
 Cu975 Cu 0.50007 0.76324 0.26254
 Cu976 Cu 0.50023 0.73752 0.23687
 C977 C 0.52404 0.76719 0.23298
 C978 C 0.47626 0.73356 0.26643
 C979 C 0.52402 0.73361 0.26658
 C980 C 0.47628 0.76715 0.23284
 O981 O -0.01824 0.77390 0.25216
 O982 O 0.01747 0.74882 0.22693
 O983 O -0.01818 0.74875 0.22700
 O984 O 0.01742 0.77397 0.25209
 O985 O 0.01754 0.75258 0.27344
 O986 O -0.01806 0.72735 0.24835
 O987 O 0.01759 0.72743 0.24828
 O988 O -0.01812 0.75250 0.27351
 Cu989 Cu -0.00039 0.76352 0.23739
 Cu990 Cu -0.00025 0.73781 0.26305
 C991 C -0.02424 0.76741 0.26707
 C992 C 0.02359 0.73391 0.23337
 C993 C -0.02416 0.73382 0.23346
 C994 C 0.02352 0.76750 0.26697
 O995 O 0.48192 0.72694 0.74817
 O996 O 0.51747 0.75219 0.77331
 O997 O 0.48181 0.75215 0.77328
 O998 O 0.51758 0.72698 0.74821
 O999 O 0.51754 0.74833 0.72681
 O1000 O 0.48178 0.77350 0.75188
 O1001 O 0.51743 0.77354 0.75192
 O1002 O 0.48189 0.74829 0.72678
 Cu1003 Cu 0.49970 0.73741 0.76290
 Cu1004 Cu 0.49965 0.76307 0.73719
 C1005 C 0.47587 0.73338 0.73326
 C1006 C 0.52348 0.76710 0.76683
 C1007 C 0.47572 0.76704 0.76679
 C1008 C 0.52363 0.73344 0.73331
 C1009 C 0.39657 0.31778 0.31817
 C1010 C 0.40908 0.31016 0.31057
 C1011 C 0.42357 0.30114 0.30154
 C1012 C 0.43581 0.29333 0.29373
 C1013 C 0.45000 0.28407 0.28445
 C1014 C 0.46198 0.27607 0.27642
 C1015 C 0.39601 0.81836 0.81793
 C1016 C 0.40855 0.81077 0.81036
 C1017 C 0.42307 0.80175 0.80137
 C1018 C 0.43535 0.79395 0.79360
 C1019 C 0.44957 0.78470 0.78437
 C1020 C 0.46159 0.77669 0.77640
 C1021 C -0.10413 0.31841 0.81800
 C1022 C -0.09161 0.31080 0.81041
 C1023 C -0.07710 0.30176 0.80142
 C1024 C -0.06484 0.29394 0.79364
 C1025 C -0.05064 0.28466 0.78441
 C1026 C -0.03864 0.27663 0.77644
 C1027 C -0.10388 0.81859 0.31845
 C1028 C -0.09135 0.81101 0.31086
 C1029 C -0.07684 0.80201 0.30184
 C1030 C -0.06457 0.79423 0.29403
 C1031 C -0.05036 0.78500 0.28476
 C1032 C -0.03836 0.77702 0.27674
 C1033 C 0.60346 0.68233 0.31810
 C1034 C 0.59097 0.68994 0.31049
 C1035 C 0.57649 0.69895 0.30144
 C1036 C 0.56426 0.70675 0.29361
 C1037 C 0.55008 0.71599 0.28431
 C1038 C 0.53811 0.72398 0.27627
 C1039 C 0.60383 0.18154 0.81809
 C1040 C 0.59129 0.18912 0.81052
 C1041 C 0.57677 0.19812 0.80152
 C1042 C 0.56449 0.20591 0.79374
 C1043 C 0.55027 0.21515 0.78452
 C1044 C 0.53825 0.22314 0.77654
 C1045 C 1.10398 0.68155 0.81815
 C1046 C 1.09146 0.68917 0.81059
 C1047 C 1.07695 0.69821 0.80161
 C1048 C 1.06470 0.70603 0.79384
 C1049 C 1.05049 0.71531 0.78463
 C1050 C 1.03849 0.72334 0.77666
 C1051 C 1.10420 0.18179 0.31810
 C1052 C 1.09170 0.18940 0.31051
 C1053 C 1.07720 0.19842 0.30148
 C1054 C 1.06495 0.20621 0.29368
 C1055 C 1.05075 0.21545 0.28441
 C1056 C 1.03876 0.22343 0.27639
 C1057 C 0.60337 0.31779 0.68207
 C1058 C 0.59089 0.31019 0.68967
 C1059 C 0.57642 0.30117 0.69868
 C1060 C 0.56420 0.29336 0.70648
 C1061 C 0.55004 0.28409 0.71573
 C1062 C 0.53808 0.27608 0.72373
 C1063 C 0.60363 0.81841 0.18187
 C1064 C 0.59111 0.81084 0.18944
 C1065 C 0.57660 0.80186 0.19843
 C1066 C 0.56435 0.79408 0.20620
 C1067 C 0.55014 0.78484 0.21542
 C1068 C 0.53815 0.77684 0.22338
 C1069 C 1.10384 0.31818 0.18186
 C1070 C 1.09137 0.31055 0.18946
 C1071 C 1.07693 0.30149 0.19848
 C1072 C 1.06472 0.29366 0.20627
 C1073 C 1.05057 0.28436 0.21551
 C1074 C 1.03862 0.27632 0.22350
 C1075 C 1.10367 0.81823 0.68239
 C1076 C 1.09119 0.81061 0.68998
 C1077 C 1.07673 0.80156 0.69898
 C1078 C 1.06451 0.79373 0.70676
 C1079 C 1.05035 0.78443 0.71598
 C1080 C 1.03839 0.77639 0.72396
 C1081 C 0.39657 0.68194 0.68195
 C1082 C 0.40905 0.68954 0.68955
 C1083 C 0.42351 0.69857 0.69857
 C1084 C 0.43572 0.70639 0.70637
 C1085 C 0.44987 0.71567 0.71562
 C1086 C 0.46182 0.72370 0.72362
 C1087 C 0.39654 0.18160 0.18201
 C1088 C 0.40905 0.18917 0.18958
 C1089 C 0.42355 0.19817 0.19856
 C1090 C 0.43581 0.20596 0.20633
 C1091 C 0.45000 0.21520 0.21555
 C1092 C 0.46199 0.22320 0.22353
 C1093 C -0.10342 0.68226 0.18220
 C1094 C -0.09096 0.68990 0.18979
 C1095 C -0.07652 0.69896 0.19881
 C1096 C -0.06431 0.70680 0.20660
 C1097 C -0.05017 0.71610 0.21585
 C1098 C -0.03822 0.72414 0.22384
 C1099 C -0.10376 0.18184 0.68202
 C1100 C -0.09128 0.18945 0.68962
 C1101 C -0.07683 0.19848 0.69864
 C1102 C -0.06462 0.20630 0.70644
 C1103 C -0.05046 0.21558 0.71569
 C1104 C -0.03850 0.22360 0.72368
 C1105 C 0.31775 0.39667 0.31818
 C1106 C 0.31016 0.40918 0.31058
 C1107 C 0.30116 0.42368 0.30155
 C1108 C 0.29337 0.43593 0.29373
 C1109 C 0.28413 0.45012 0.28445
 C1110 C 0.27615 0.46210 0.27642
 C1111 C 0.31836 -0.10409 0.81790
 C1112 C 0.31075 -0.09157 0.81032
 C1113 C 0.30171 -0.07707 0.80133
 C1114 C 0.29390 -0.06482 0.79355
 C1115 C 0.28462 -0.05061 0.78433
 C1116 C 0.27659 -0.03862 0.77635
 C1117 C 0.81833 0.39606 0.81809
 C1118 C 0.81074 0.40860 0.81052
 C1119 C 0.80173 0.42312 0.80154
 C1120 C 0.79394 0.43540 0.79377
 C1121 C 0.78470 0.44962 0.78454
 C1122 C 0.77671 0.46163 0.77656
 C1123 C 0.81843 -0.10390 0.31847
 C1124 C 0.81082 -0.09140 0.31088
 C1125 C 0.80180 -0.07690 0.30186
 C1126 C 0.79400 -0.06465 0.29405
 C1127 C 0.78476 -0.05046 0.28478
 C1128 C 0.77677 -0.03847 0.27676
 C1129 C 0.31778 0.60330 0.68195
 C1130 C 0.31017 0.59083 0.68956
 C1131 C 0.30114 0.57638 0.69859
 C1132 C 0.29333 0.56417 0.70640
 C1133 C 0.28406 0.55003 0.71567
 C1134 C 0.27605 0.53808 0.72368
 C1135 C 0.31811 1.10385 0.18169
 C1136 C 0.31049 1.09139 0.18930
 C1137 C 0.30145 1.07694 0.19832
 C1138 C 0.29363 1.06473 0.20613
 C1139 C 0.28435 1.05058 0.21539
 C1140 C 0.27633 1.03863 0.22339
 C1141 C 0.81817 0.60324 0.18210
 C1142 C 0.81061 0.59072 0.18967
 C1143 C 0.80163 0.57622 0.19866
 C1144 C 0.79385 0.56397 0.20644
 C1145 C 0.78461 0.54977 0.21566
 C1146 C 0.77661 0.53779 0.22364
 C1147 C 0.81831 1.10359 0.68244
 C1148 C 0.81068 1.09112 0.69002
 C1149 C 0.80162 1.07666 0.69901
 C1150 C 0.79378 1.06445 0.70679
 C1151 C 0.78447 1.05029 0.71600
 C1152 C 0.77642 1.03834 0.72397
 C1153 C 0.68218 0.60334 0.31823
 C1154 C 0.68976 0.59081 0.31065
 C1155 C 0.69876 0.57629 0.30163
 C1156 C 0.70654 0.56402 0.29382
 C1157 C 0.71577 0.54982 0.28455
 C1158 C 0.72375 0.53782 0.27653
 C1159 C 0.68149 1.10400 0.81812
 C1160 C 0.68911 1.09147 0.81055
 C1161 C 0.69815 1.07696 0.80157
 C1162 C 0.70598 1.06470 0.79381
 C1163 C 0.71527 1.05049 0.78461
 C1164 C 0.72330 1.03848 0.77664
 C1165 C 0.18151 0.60388 0.81811
 C1166 C 0.18909 0.59134 0.81052
 C1167 C 0.19809 0.57681 0.80152
 C1168 C 0.20587 0.56453 0.79374
 C1169 C 0.21511 0.55031 0.78451
 C1170 C 0.22311 0.53829 0.77653
 C1171 C 0.18181 1.10421 0.31809
 C1172 C 0.18942 1.09170 0.31048
 C1173 C 0.19845 1.07721 0.30146
 C1174 C 0.20625 1.06496 0.29365
 C1175 C 0.21550 1.05076 0.28437
 C1176 C 0.22349 1.03877 0.27635
 C1177 C 0.68207 0.39653 0.68208
 C1178 C 0.68967 0.40901 0.68967
 C1179 C 0.69869 0.42347 0.69869
 C1180 C 0.70650 0.43570 0.70648
 C1181 C 0.71577 0.44985 0.71574
 C1182 C 0.72379 0.46181 0.72373
 C1183 C 0.68182 -0.10359 0.18244
 C1184 C 0.68946 -0.09113 0.19003
 C1185 C 0.69854 -0.07668 0.19902
 C1186 C 0.70640 -0.06448 0.20679
 C1187 C 0.71573 -0.05033 0.21600
 C1188 C 0.72380 -0.03838 0.22396
 C1189 C 0.18156 0.39664 0.18218
 C1190 C 0.18914 0.40915 0.18974
 C1191 C 0.19814 0.42366 0.19871
 C1192 C 0.20594 0.43591 0.20647
 C1193 C 0.21520 0.45011 0.21566
 C1194 C 0.22322 0.46210 0.22362
 C1195 C 0.18189 -0.10382 0.68193
 C1196 C 0.18949 -0.09134 0.68953
 C1197 C 0.19852 -0.07687 0.69855
 C1198 C 0.20632 -0.06465 0.70635
 C1199 C 0.21559 -0.05048 0.71560
 C1200 C 0.22360 -0.03852 0.72359
 C1201 C 0.31781 0.31793 0.39693
 C1202 C 0.31022 0.31035 0.40943
 C1203 C 0.30122 0.30134 0.42392
 C1204 C 0.29343 0.29354 0.43615
 C1205 C 0.28419 0.28429 0.45032
 C1206 C 0.27620 0.27628 0.46229
 C1207 C 0.31800 0.81799 -0.10381
 C1208 C 0.31042 0.81042 -0.09130
 C1209 C 0.30142 0.80144 -0.07680
 C1210 C 0.29363 0.79367 -0.06455
 C1211 C 0.28439 0.78446 -0.05035
 C1212 C 0.27638 0.77649 -0.03837
 C1213 C 0.81790 0.31803 -0.10371
 C1214 C 0.81033 0.31045 -0.09121
 C1215 C 0.80135 0.30144 -0.07672
 C1216 C 0.79358 0.29363 -0.06447
 C1217 C 0.78437 0.28437 -0.05028
 C1218 C 0.77641 0.27635 -0.03830
 C1219 C 0.81818 0.81819 0.39678
 C1220 C 0.81061 0.81062 0.40930
 C1221 C 0.80163 0.80163 0.42381
 C1222 C 0.79386 0.79385 0.43606
 C1223 C 0.78463 0.78461 0.45026
 C1224 C 0.77665 0.77662 0.46225
 C1225 C 0.68207 0.31786 0.60324
 C1226 C 0.68967 0.31027 0.59073
 C1227 C 0.69870 0.30127 0.57623
 C1228 C 0.70652 0.29349 0.56399
 C1229 C 0.71580 0.28424 0.54981
 C1230 C 0.72383 0.27625 0.53784
 C1231 C 0.68152 0.81788 1.10348
 C1232 C 0.68910 0.81031 1.09095
 C1233 C 0.69811 0.80133 1.07644
 C1234 C 0.70591 0.79356 1.06417
 C1235 C 0.71519 0.78434 1.04997
 C1236 C 0.72321 0.77637 1.03798
 C1237 C 0.18162 0.31791 1.10339
 C1238 C 0.18921 0.31034 1.09086
 C1239 C 0.19821 0.30134 1.07635
 C1240 C 0.20600 0.29355 1.06410
 C1241 C 0.21525 0.28430 1.04990
 C1242 C 0.22325 0.27629 1.03791
 C1243 C 0.18220 0.81844 0.60342
 C1244 C 0.18976 0.81087 0.59087
 C1245 C 0.19873 0.80188 0.57634
 C1246 C 0.20649 0.79409 0.56406
 C1247 C 0.21570 0.78483 0.54984
 C1248 C 0.22367 0.77683 0.53784
 C1249 C 0.31796 0.68193 0.60309
 C1250 C 0.31040 0.68953 0.59058
 C1251 C 0.30142 0.69857 0.57609
 C1252 C 0.29365 0.70640 0.56385
 C1253 C 0.28443 0.71570 0.54967
 C1254 C 0.27645 0.72374 0.53771
 C1255 C 0.31778 0.18166 1.10329
 C1256 C 0.31020 0.18925 1.09078
 C1257 C 0.30120 0.19826 1.07628
 C1258 C 0.29341 0.20606 1.06404
 C1259 C 0.28416 0.21532 1.04985
 C1260 C 0.27616 0.22333 1.03788
 C1261 C 0.81796 0.68195 1.10333
 C1262 C 0.81036 0.68952 1.09083
 C1263 C 0.80133 0.69851 1.07633
 C1264 C 0.79351 0.70629 1.06409
 C1265 C 0.78425 0.71553 1.04991
 C1266 C 0.77624 0.72353 1.03793
 C1267 C 0.81857 0.18208 0.60346
 C1268 C 0.81100 0.18963 0.59092
 C1269 C 0.80201 0.19859 0.57639
 C1270 C 0.79421 0.20634 0.56412
 C1271 C 0.78495 0.21553 0.54990
 C1272 C 0.77693 0.22349 0.53790
 C1273 C 0.68217 0.68220 0.39690
 C1274 C 0.68976 0.68978 0.40940
 C1275 C 0.69876 0.69877 0.42388
 C1276 C 0.70656 0.70656 0.43612
 C1277 C 0.71581 0.71579 0.45030
 C1278 C 0.72381 0.72378 0.46227
 C1279 C 0.68184 0.18203 -0.10368
 C1280 C 0.68942 0.18961 -0.09117
 C1281 C 0.69844 0.19859 -0.07669
 C1282 C 0.70625 0.20635 -0.06445
 C1283 C 0.71552 0.21556 -0.05026
 C1284 C 0.72355 0.22352 -0.03829
 C1285 C 0.18202 0.68191 -0.10367
 C1286 C 0.18960 0.68950 -0.09117
 C1287 C 0.19859 0.69852 -0.07669
 C1288 C 0.20636 0.70633 -0.06445
 C1289 C 0.21559 0.71560 -0.05028
 C1290 C 0.22356 0.72362 -0.03831
 C1291 C 0.18196 0.18198 0.39657
 C1292 C 0.18950 0.18953 0.40911
 C1293 C 0.19846 0.19849 0.42365
 C1294 C 0.20621 0.20625 0.43593
 C1295 C 0.21542 0.21546 0.45016
 C1296 C 0.22339 0.22343 0.46217
 C1297 C 0.31769 0.39655 0.68230
 C1298 C 0.31009 0.40908 0.68987
 C1299 C 0.30108 0.42361 0.69884
 C1300 C 0.29328 0.43589 0.70661
 C1301 C 0.28402 0.45012 0.71582
 C1302 C 0.27601 0.46214 0.72379
 C1303 C 0.31780 0.89721 0.18159
 C1304 C 0.31021 0.90972 0.18919
 C1305 C 0.30121 0.92423 0.19821
 C1306 C 0.29343 0.93649 0.20603
 C1307 C 0.28420 0.95070 0.21530
 C1308 C 0.27622 0.96270 0.22333
 C1309 C 0.81823 0.39641 0.18172
 C1310 C 0.81062 0.40892 0.18932
 C1311 C 0.80160 0.42341 0.19834
 C1312 C 0.79380 0.43566 0.20616
 C1313 C 0.78455 0.44985 0.21543
 C1314 C 0.77656 0.46184 0.22346
 C1315 C 0.81810 0.89692 0.68237
 C1316 C 0.81049 0.90944 0.68995
 C1317 C 0.80147 0.92394 0.69896
 C1318 C 0.79366 0.93620 0.70674
 C1319 C 0.78439 0.95041 0.71598
 C1320 C 0.77637 0.96241 0.72396
 C1321 C 0.68227 0.60331 0.68221
 C1322 C 0.68985 0.59078 0.68978
 C1323 C 0.69885 0.57626 0.69877
 C1324 C 0.70664 0.56398 0.70655
 C1325 C 0.71588 0.54976 0.71579
 C1326 C 0.72387 0.53775 0.72377
 C1327 C 0.68248 0.10292 0.18184
 C1328 C 0.69008 0.09043 0.18946
 C1329 C 0.69909 0.07594 0.19850
 C1330 C 0.70687 0.06370 0.20634
 C1331 C 0.71610 0.04952 0.21564
 C1332 C 0.72408 0.03754 0.22368
 C1333 C 0.18179 0.60358 0.18173
 C1334 C 0.18937 0.59105 0.18931
 C1335 C 0.19836 0.57653 0.19831
 C1336 C 0.20615 0.56427 0.20610
 C1337 C 0.21538 0.55006 0.21536
 C1338 C 0.22336 0.53806 0.22337
 C1339 C 0.18180 0.10292 0.68216
 C1340 C 0.18940 0.09040 0.68973
 C1341 C 0.19843 0.07589 0.69871
 C1342 C 0.20625 0.06363 0.70648
 C1343 C 0.21552 0.04942 0.71570
 C1344 C 0.22354 0.03742 0.72367
 C1345 C 0.31804 0.60347 0.31758
 C1346 C 0.31045 0.59096 0.31002
 C1347 C 0.30142 0.57647 0.30105
 C1348 C 0.29361 0.56422 0.29330
 C1349 C 0.28433 0.55003 0.28411
 C1350 C 0.27630 0.53804 0.27616
 C1351 C 0.31814 0.10272 0.81803
 C1352 C 0.31056 0.09021 0.81044
 C1353 C 0.30156 0.07572 0.80144
 C1354 C 0.29378 0.06348 0.79365
 C1355 C 0.28453 0.04930 0.78441
 C1356 C 0.27653 0.03733 0.77642
 C1357 C 0.81840 0.60297 0.81819
 C1358 C 0.81083 0.59047 0.81061
 C1359 C 0.80183 0.57598 0.80161
 C1360 C 0.79404 0.56374 0.79382
 C1361 C 0.78478 0.54956 0.78458
 C1362 C 0.77678 0.53759 0.77659
 C1363 C 0.81876 0.10285 0.31797
 C1364 C 0.81117 0.09035 0.31040
 C1365 C 0.80215 0.07586 0.30142
 C1366 C 0.79433 0.06362 0.29366
 C1367 C 0.78505 0.04944 0.28445
 C1368 C 0.77701 0.03747 0.27650
 C1369 C 0.68200 0.39647 0.31787
 C1370 C 0.68959 0.40898 0.31030
 C1371 C 0.69860 0.42347 0.30131
 C1372 C 0.70640 0.43571 0.29354
 C1373 C 0.71566 0.44989 0.28432
 C1374 C 0.72367 0.46187 0.27635
 C1375 C 0.68157 0.89718 0.81819
 C1376 C 0.68916 0.90968 0.81061
 C1377 C 0.69818 0.92416 0.80162
 C1378 C 0.70599 0.93639 0.79385
 C1379 C 0.71526 0.95057 0.78462
 C1380 C 0.72329 0.96253 0.77665
 C1381 C 0.18140 0.39696 0.81816
 C1382 C 0.18898 0.40947 0.81059
 C1383 C 0.19800 0.42395 0.80160
 C1384 C 0.20580 0.43619 0.79382
 C1385 C 0.21506 0.45037 0.78459
 C1386 C 0.22307 0.46233 0.77660
 C1387 C 0.18177 0.89751 0.31796
 C1388 C 0.18935 0.91000 0.31036
 C1389 C 0.19836 0.92447 0.30134
 C1390 C 0.20615 0.93670 0.29354
 C1391 C 0.21540 0.95087 0.28428
 C1392 C 0.22340 0.96283 0.27628
 C1393 C 0.39655 0.31767 0.68230
 C1394 C 0.40909 0.31008 0.68986
 C1395 C 0.42361 0.30106 0.69884
 C1396 C 0.43589 0.29327 0.70661
 C1397 C 0.45011 0.28402 0.71583
 C1398 C 0.46213 0.27602 0.72380
 C1399 C 0.39669 0.81838 0.18149
 C1400 C 0.40922 0.81079 0.18907
 C1401 C 0.42373 0.80179 0.19808
 C1402 C 0.43599 0.79400 0.20588
 C1403 C 0.45019 0.78476 0.21514
 C1404 C 0.46218 0.77677 0.22316
 C1405 C 0.89715 0.31761 0.18168
 C1406 C 0.90968 0.31003 0.18926
 C1407 C 0.92420 0.30105 0.19828
 C1408 C 0.93646 0.29328 0.20609
 C1409 C 0.95068 0.28407 0.21536
 C1410 C 0.96268 0.27611 0.22338
 C1411 C 0.89697 0.81806 0.68235
 C1412 C 0.90949 0.81046 0.68994
 C1413 C 0.92399 0.80144 0.69894
 C1414 C 0.93625 0.79363 0.70672
 C1415 C 0.95045 0.78437 0.71596
 C1416 C 0.96245 0.77636 0.72394
 C1417 C 0.60331 0.31772 0.31784
 C1418 C 0.59081 0.31014 0.31026
 C1419 C 0.57632 0.30113 0.30126
 C1420 C 0.56408 0.29334 0.29348
 C1421 C 0.54990 0.28409 0.28425
 C1422 C 0.53792 0.27608 0.27627
 C1423 C 0.60284 0.81847 0.81811
 C1424 C 0.59035 0.81089 0.81052
 C1425 C 0.57588 0.80187 0.80151
 C1426 C 0.56366 0.79407 0.79371
 C1427 C 0.54950 0.78480 0.78447
 C1428 C 0.53754 0.77677 0.77647
 C1429 C 0.10268 0.31823 0.81809
 C1430 C 0.09019 0.31065 0.81050
 C1431 C 0.07570 0.30165 0.80150
 C1432 C 0.06346 0.29385 0.79371
 C1433 C 0.04929 0.28460 0.78447
 C1434 C 0.03732 0.27659 0.77648
 C1435 C 0.10301 0.81884 0.31810
 C1436 C 0.09050 0.81125 0.31053
 C1437 C 0.07601 0.80224 0.30155
 C1438 C 0.06376 0.79444 0.29378
 C1439 C 0.04958 0.78518 0.28456
 C1440 C 0.03761 0.77717 0.27659
 C1441 C 0.60338 0.68215 0.68219
 C1442 C 0.59084 0.68974 0.68975
 C1443 C 0.57630 0.69875 0.69874
 C1444 C 0.56402 0.70654 0.70651
 C1445 C 0.54979 0.71579 0.71572
 C1446 C 0.53777 0.72379 0.72370
 C1447 C 0.60347 0.18162 0.18170
 C1448 C 0.59094 0.18921 0.18928
 C1449 C 0.57642 0.19821 0.19829
 C1450 C 0.56416 0.20600 0.20609
 C1451 C 0.54995 0.21523 0.21536
 C1452 C 0.53795 0.22322 0.22337
 C1453 C 0.10310 0.68262 0.18189
 C1454 C 0.09061 0.69024 0.18951
 C1455 C 0.07612 0.69926 0.19855
 C1456 C 0.06388 0.70706 0.20637
 C1457 C 0.04969 0.71631 0.21566
 C1458 C 0.03770 0.72429 0.22369
 C1459 C 0.10294 0.18180 0.68220
 C1460 C 0.09042 0.18941 0.68978
 C1461 C 0.07591 0.19844 0.69877
 C1462 C 0.06365 0.20626 0.70655
 C1463 C 0.04944 0.21554 0.71577
 C1464 C 0.03744 0.22357 0.72374
 C1465 C 0.39675 0.68222 0.31753
 C1466 C 0.40925 0.68981 0.30995
 C1467 C 0.42374 0.69882 0.30097
 C1468 C 0.43599 0.70663 0.29320
 C1469 C 0.45018 0.71589 0.28399
 C1470 C 0.46216 0.72391 0.27602
 C1471 C 0.39687 0.18142 0.81811
 C1472 C 0.40939 0.18900 0.81054
 C1473 C 0.42388 0.19801 0.80156
 C1474 C 0.43613 0.20581 0.79378
 C1475 C 0.45031 0.21507 0.78456
 C1476 C 0.46228 0.22308 0.77657
 C1477 C 0.89712 0.68169 0.81820
 C1478 C 0.90963 0.68927 0.81062
 C1479 C 0.92413 0.69827 0.80163
 C1480 C 0.93637 0.70606 0.79385
 C1481 C 0.95056 0.71532 0.78463
 C1482 C 0.96253 0.72333 0.77665
 C1483 C 0.89747 0.18158 0.31789
 C1484 C 0.90997 0.18917 0.31030
 C1485 C 0.92445 0.19818 0.30129
 C1486 C 0.93668 0.20598 0.29350
 C1487 C 0.95085 0.21524 0.28426
 C1488 C 0.96282 0.22326 0.27627
 C1489 C 0.31774 0.31772 0.60361
 C1490 C 0.31017 0.31014 0.59110
 C1491 C 0.30117 0.30115 0.57660
 C1492 C 0.29339 0.29338 0.56436
 C1493 C 0.28415 0.28415 0.55016
 C1494 C 0.27616 0.27617 0.53817
 C1495 C 0.31783 0.81840 0.10286
 C1496 C 0.31025 0.81080 0.09037
 C1497 C 0.30126 0.80178 0.07589
 C1498 C 0.29348 0.79397 0.06366
 C1499 C 0.28425 0.78470 0.04949
 C1500 C 0.27628 0.77668 0.03752
 C1501 C 0.81834 0.31764 0.10297
 C1502 C 0.81076 0.31006 0.09047
 C1503 C 0.80174 0.30108 0.07598
 C1504 C 0.79393 0.29331 0.06374
 C1505 C 0.78466 0.28411 0.04956
 C1506 C 0.77664 0.27614 0.03758
 C1507 C 0.81825 0.81818 0.60358
 C1508 C 0.81068 0.81061 0.59107
 C1509 C 0.80169 0.80161 0.57657
 C1510 C 0.79392 0.79383 0.56432
 C1511 C 0.78468 0.78460 0.55013
 C1512 C 0.77669 0.77661 0.53815
 C1513 C 0.31805 0.68221 0.39635
 C1514 C 0.31046 0.68980 0.40887
 C1515 C 0.30146 0.69880 0.42337
 C1516 C 0.29367 0.70660 0.43563
 C1517 C 0.28443 0.71585 0.44983
 C1518 C 0.27644 0.72386 0.46182
 C1519 C 0.31794 0.18156 0.89670
 C1520 C 0.31032 0.18917 0.90918
 C1521 C 0.30128 0.19821 0.92365
 C1522 C 0.29346 0.20603 0.93587
 C1523 C 0.28419 0.21530 0.95004
 C1524 C 0.27618 0.22332 0.96200
 C1525 C 0.81818 0.68189 0.89679
 C1526 C 0.81056 0.68950 0.90926
 C1527 C 0.80150 0.69854 0.92372
 C1528 C 0.79367 0.70635 0.93594
 C1529 C 0.78437 0.71560 0.95010
 C1530 C 0.77633 0.72360 0.96207
 C1531 C 0.81872 0.18167 0.39666
 C1532 C 0.81111 0.18927 0.40916
 C1533 C 0.80208 0.19829 0.42364
 C1534 C 0.79427 0.20610 0.43587
 C1535 C 0.78498 0.21536 0.45004
 C1536 C 0.77695 0.22336 0.46201
 C1537 C 0.68206 0.31771 0.39658
 C1538 C 0.68967 0.31012 0.40908
 C1539 C 0.69870 0.30113 0.42356
 C1540 C 0.70652 0.29335 0.43580
 C1541 C 0.71580 0.28412 0.44998
 C1542 C 0.72384 0.27615 0.46196
 C1543 C 0.68162 0.81832 0.89681
 C1544 C 0.68922 0.81069 0.90929
 C1545 C 0.69823 0.80165 0.92375
 C1546 C 0.70603 0.79382 0.93597
 C1547 C 0.71529 0.78453 0.95013
 C1548 C 0.72330 0.77650 0.96209
 C1549 C 0.18150 0.31807 0.89675
 C1550 C 0.18911 0.31046 0.90923
 C1551 C 0.19814 0.30142 0.92369
 C1552 C 0.20595 0.29360 0.93591
 C1553 C 0.21522 0.28433 0.95007
 C1554 C 0.22323 0.27631 0.96203
 C1555 C 0.18191 0.81875 0.39668
 C1556 C 0.18952 0.81114 0.40916
 C1557 C 0.19855 0.80211 0.42363
 C1558 C 0.20636 0.79428 0.43584
 C1559 C 0.21562 0.78499 0.45000
 C1560 C 0.22362 0.77695 0.46195
 C1561 C 0.68226 0.68214 0.60354
 C1562 C 0.68985 0.68972 0.59104
 C1563 C 0.69884 0.69872 0.57655
 C1564 C 0.70663 0.70652 0.56431
 C1565 C 0.71586 0.71576 0.55013
 C1566 C 0.72385 0.72376 0.53815
 C1567 C 0.68232 0.18160 0.10301
 C1568 C 0.68989 0.18919 0.09051
 C1569 C 0.69886 0.19821 0.07601
 C1570 C 0.70662 0.20602 0.06377
 C1571 C 0.71582 0.21529 0.04958
 C1572 C 0.72378 0.22331 0.03760
 C1573 C 0.18179 0.68237 0.10303
 C1574 C 0.18937 0.68992 0.09052
 C1575 C 0.19838 0.69889 0.07601
 C1576 C 0.20618 0.70665 0.06376
 C1577 C 0.21544 0.71586 0.04957
 C1578 C 0.22344 0.72382 0.03758
 C1579 C 0.18172 0.18169 0.60344
 C1580 C 0.18930 0.18927 0.59094
 C1581 C 0.19830 0.19827 0.57645
 C1582 C 0.20609 0.20606 0.56422
 C1583 C 0.21533 0.21531 0.55004
 C1584 C 0.22333 0.22332 0.53807
   
