data_POSCAR
  _audit_creation_date              2014-09-24
  _audit_creation_method            'ToBaCCo'
  _symmetry_space_group_name_H-M    'P1'
  _symmetry_Int_Tables_number       1
  _symmetry_cell_setting            triclinic
  loop_
  _symmetry_equiv_pos_as_xyz
 x,y,z
_cell_length_a 36.0343
_cell_length_b 35.7622
_cell_length_c 25.0209
_cell_angle_alpha 90.099900
_cell_angle_beta 89.956600
_cell_angle_gamma 90.005400
loop_
  _atom_site_label
  _atom_site_type_symbol
  _atom_site_fract_x
  _atom_site_fract_y
  _atom_site_fract_z
Zr1 Zr -0.06422 0.00170 -0.00156
 O2 O -0.10627 -0.02653 -0.04486
 O3 O -0.09538 0.03625 0.04959
 O4 O -0.09477 -0.03573 0.04707
 O5 O -0.05054 0.07024 -0.09664
 O6 O -0.04981 -0.06915 0.08956
 O7 O -0.09493 0.03845 -0.04989
 O8 O -0.05087 0.06677 0.09758
 O9 O -0.03319 -0.00084 0.06913
 O10 O -0.03179 0.05025 0.00060
 O11 O -0.03252 -0.04739 -0.00844
 O12 O -0.03324 0.00198 -0.07352
 Zr13 Zr 0.06568 -0.00055 -0.00500
 Zr14 Zr 0.00047 -0.04817 0.06032
 Zr15 Zr 0.00073 0.04945 -0.06804
 Zr16 Zr 0.00040 0.04675 0.06906
 O17 O 0.00117 0.04641 -0.15246
 O18 O -0.00117 0.03431 0.15185
 O19 O 0.03431 0.04915 0.00071
 O20 O 0.03415 -0.00070 0.06578
 O21 O 0.03385 -0.04945 -0.00789
 O22 O 0.03420 0.00212 -0.07528
 C23 C -0.08484 0.06065 0.08425
 C24 C -0.08460 0.06343 -0.08373
 C25 C -0.08391 -0.06187 0.07890
 O26 O 0.00276 -0.04608 0.14476
 O27 O 0.05065 -0.07195 0.08528
 O28 O 0.09592 -0.03991 0.04115
 C29 C 0.08483 -0.06564 0.07362
 O30 O -0.04809 -0.06370 -0.11500
 Zr31 Zr 0.00124 -0.04545 -0.07640
 O32 O 0.09704 -0.03496 -0.05524
 O33 O -0.00180 -0.10687 0.04975
 O34 O -0.00189 -0.10441 -0.06844
 O35 O 0.00594 -0.03579 -0.15976
 O36 O 0.05269 -0.06834 -0.09963
 C37 C 0.08660 -0.06117 -0.08695
 O38 O 0.10753 0.02639 0.04025
 O39 O 0.00025 0.10833 -0.05916
 O40 O 0.09634 0.03810 -0.05130
 O41 O 0.05153 0.07277 -0.09266
 O42 O 0.00068 0.10592 0.06315
 O43 O 0.04980 0.06948 0.10228
 C44 C 0.08564 0.06501 -0.08192
 H45 H -0.04634 0.07370 0.00125
 H46 H 0.05027 -0.00155 0.09779
 H47 H 0.04980 0.00332 -0.10783
 H48 H -0.04861 -0.06976 -0.01090
 H49 H -0.00808 0.05761 0.17091
 H50 H 0.00167 -0.07227 0.15753
 H51 H -0.00086 -0.11827 0.08582
 H52 H 0.00494 -0.11554 -0.10340
 H53 H -0.00535 0.11617 0.09895
 H54 H -0.00089 0.11909 -0.09561
 H55 H 0.00226 0.07251 -0.16558
 H56 H 0.01270 -0.05991 -0.17671
 H57 H 0.04362 0.08393 0.13489
 H58 H 0.13177 0.01726 0.02664
 H59 H -0.13054 -0.01766 -0.03097
 H60 H -0.04189 -0.08298 -0.14202
 Zr61 Zr 0.56566 0.49941 0.49505
 O62 O 0.60747 0.52651 0.54019
 O63 O 0.59705 0.46486 0.44505
 O64 O 0.59587 0.46021 0.54151
 O65 O 0.55164 0.57244 0.40687
 O66 O 0.55057 0.42833 0.58584
 O67 O 0.59639 0.53786 0.44852
 O68 O 0.55272 0.43138 0.40079
 O69 O 0.53383 0.45050 0.49245
 O70 O 0.53422 0.50185 0.42471
 O71 O 0.53408 0.49950 0.56578
 O72 O 0.53431 0.54914 0.50037
 Zr73 Zr 0.43577 0.50168 0.49830
 Zr74 Zr 0.50040 0.45201 0.56061
 Zr75 Zr 0.50078 0.54922 0.43156
 Zr76 Zr 0.50126 0.45428 0.42387
 O77 O 0.50027 0.60812 0.44007
 O78 O 0.49818 0.39535 0.43223
 O79 O 0.46680 0.50173 0.42638
 O80 O 0.46746 0.45256 0.49180
 O81 O 0.46676 0.49937 0.56904
 O82 O 0.46820 0.55024 0.50015
 C83 C 0.58662 0.43860 0.41343
 C84 C 0.58574 0.56468 0.41770
 C85 C 0.58476 0.43461 0.57418
 O86 O 0.49816 0.39327 0.55045
 O87 O 0.45009 0.43111 0.58990
 O88 O 0.40518 0.46442 0.54713
 C89 C 0.41599 0.43836 0.57913
 O90 O 0.54975 0.56983 0.60172
 Zr91 Zr 0.50035 0.54697 0.56867
 O92 O 0.40458 0.53639 0.54918
 O93 O 0.50261 0.45439 0.64505
 O94 O 0.49881 0.53484 0.65156
 O95 O 0.50056 0.60611 0.56236
 O96 O 0.44907 0.56700 0.59708
 C97 C 0.41511 0.56085 0.58378
 O98 O 0.39374 0.47329 0.45515
 O99 O 0.50131 0.54593 0.34716
 O100 O 0.40510 0.53820 0.44960
 O101 O 0.44951 0.56986 0.40270
 O102 O 0.50596 0.46366 0.34045
 O103 O 0.45194 0.43589 0.38537
 C104 C 0.41544 0.56304 0.41557
 H105 H 0.54984 0.50295 0.39217
 H106 H 0.45137 0.43018 0.48946
 H107 H 0.45362 0.57368 0.50063
 H108 H 0.55018 0.49876 0.59782
 H109 H 0.50502 0.38410 0.39736
 H110 H 0.49907 0.38200 0.58660
 H111 H 0.50151 0.42824 0.65799
 H112 H 0.49190 0.55821 0.67044
 H113 H 0.51272 0.43948 0.32366
 H114 H 0.50240 0.57199 0.33389
 H115 H 0.49916 0.61876 0.40355
 H116 H 0.49452 0.61648 0.59809
 H117 H 0.45816 0.41649 0.35852
 H118 H 0.36947 0.48220 0.46895
 H119 H 0.63172 0.51733 0.52669
 H120 H 0.54356 0.58443 0.63419
 Zr121 Zr 0.56601 -0.00103 0.49975
 O122 O 0.60812 0.02776 0.45745
 O123 O 0.59717 -0.03520 0.55073
 O124 O 0.59577 0.03617 0.54990
 O125 O 0.55282 -0.06810 0.40223
 O126 O 0.55018 0.06865 0.59299
 O127 O 0.59719 -0.03794 0.45103
 O128 O 0.55269 -0.06685 0.59738
 O129 O 0.53428 0.00063 0.57008
 O130 O 0.53388 -0.04977 0.50032
 O131 O 0.53392 0.04795 0.49422
 O132 O 0.53558 -0.00064 0.42747
 Zr133 Zr 0.43585 0.00043 0.49406
 Zr134 Zr 0.50011 0.04773 0.56239
 Zr135 Zr 0.50172 -0.04823 0.43141
 Zr136 Zr 0.50118 -0.04723 0.56841
 O137 O 0.50159 -0.04438 0.34705
 O138 O 0.50181 -0.03544 0.65148
 O139 O 0.46764 -0.04902 0.49954
 O140 O 0.46683 -0.00014 0.56551
 O141 O 0.46749 0.04954 0.49349
 O142 O 0.46809 -0.00107 0.42448
 C143 C 0.58671 -0.05992 0.58477
 C144 C 0.58680 -0.06215 0.41577
 C145 C 0.58447 0.06178 0.58249
 O146 O 0.49704 0.04462 0.64669
 O147 O 0.44913 0.07066 0.58725
 O148 O 0.40479 0.03831 0.54124
 C149 C 0.41516 0.06386 0.57446
 O150 O 0.55073 0.06527 0.38858
 Zr151 Zr 0.50096 0.04664 0.42560
 O152 O 0.40505 0.03623 0.44446
 O153 O 0.50192 0.10655 0.55353
 O154 O 0.50401 0.10552 0.43521
 O155 O 0.49691 0.03803 0.34190
 O156 O 0.44999 0.07003 0.40227
 C157 C 0.41590 0.06287 0.41364
 O158 O 0.39347 -0.02739 0.53714
 O159 O 0.50284 -0.10719 0.43882
 O160 O 0.40605 -0.03817 0.44595
 O161 O 0.45174 -0.07209 0.40549
 O162 O 0.50155 -0.10631 0.56059
 O163 O 0.45200 -0.07101 0.60080
 C164 C 0.41743 -0.06486 0.41518
 H165 H 0.54861 -0.07311 0.50060
 H166 H 0.45040 0.00014 0.59724
 H167 H 0.45280 -0.00200 0.39163
 H168 H 0.54985 0.07047 0.49269
 H169 H 0.50914 -0.05871 0.67014
 H170 H 0.49780 0.07067 0.66019
 H171 H 0.50050 0.11747 0.58992
 H172 H 0.49797 0.11704 0.40029
 H173 H 0.50806 -0.11695 0.59591
 H174 H 0.50437 -0.11764 0.40216
 H175 H 0.50087 -0.07035 0.33320
 H176 H 0.49053 0.06242 0.32554
 H177 H 0.45835 -0.08602 0.63273
 H178 H 0.36937 -0.01836 0.52300
 H179 H 0.63230 0.01878 0.47139
 H180 H 0.54485 0.08469 0.36173
 Zr181 Zr -0.06421 0.50057 -0.00901
 O182 O -0.10687 0.47289 0.03369
 O183 O -0.09481 0.53670 -0.05853
 O184 O -0.09520 0.53838 0.03844
 O185 O -0.04827 0.42796 -0.09722
 O186 O -0.05079 0.57048 0.08468
 O187 O -0.09400 0.46189 -0.05718
 O188 O -0.04967 0.57048 -0.10005
 O189 O -0.03240 0.54957 -0.00929
 O190 O -0.03190 0.49908 -0.07849
 O191 O -0.03329 0.49978 0.06251
 O192 O -0.03253 0.45106 -0.00351
 Zr193 Zr 0.06603 0.49869 -0.00296
 Zr194 Zr 0.00015 0.54754 0.05967
 Zr195 Zr 0.00165 0.45187 -0.07149
 Zr196 Zr 0.00115 0.54667 -0.07708
 O197 O 0.00274 0.39287 -0.06445
 O198 O 0.00460 0.60552 -0.06744
 O199 O 0.03567 0.49931 -0.07529
 O200 O 0.03405 0.54776 -0.00840
 O201 O 0.03419 0.50035 0.06730
 O202 O 0.03374 0.45007 -0.00256
 C203 C -0.08392 0.56359 -0.08903
 C204 C -0.08270 0.43501 -0.08783
 C205 C -0.08478 0.56378 0.07188
 O206 O 0.00204 0.60637 0.05091
 O207 O 0.05024 0.56829 0.09044
 O208 O 0.09582 0.53579 0.04734
 C209 C 0.08453 0.56138 0.08000
 O210 O -0.04831 0.42887 0.09765
 Zr211 Zr 0.00094 0.45260 0.06543
 O212 O 0.09699 0.46442 0.04812
 O213 O -0.00295 0.54432 0.14397
 O214 O 0.00141 0.46428 0.14854
 O215 O 0.00118 0.39355 0.05728
 O216 O 0.05235 0.43287 0.09459
 C217 C 0.08641 0.43974 0.08213
 O218 O 0.10830 0.52734 -0.04509
 O219 O 0.00148 0.45588 -0.15584
 O220 O 0.09712 0.46163 -0.05170
 O221 O 0.05267 0.43191 -0.10067
 O222 O -0.00306 0.53820 -0.16079
 O223 O 0.05102 0.56508 -0.11408
 C224 C 0.08678 0.43746 -0.08718
 H225 H -0.04719 0.49821 -0.11135
 H226 H 0.05004 0.57024 -0.00983
 H227 H 0.04841 0.42668 -0.00231
 H228 H -0.04975 0.50003 0.09422
 H229 H -0.00137 0.61710 -0.10236
 H230 H 0.00065 0.61725 0.08732
 H231 H -0.00213 0.57036 0.15754
 H232 H 0.00868 0.44098 0.16716
 H233 H -0.00939 0.56263 -0.17705
 H234 H 0.00069 0.42994 -0.16979
 H235 H 0.00428 0.38252 -0.10116
 H236 H 0.00770 0.38279 0.09254
 H237 H 0.04521 0.58441 -0.14110
 H238 H 0.13242 0.51822 -0.03111
 H239 H -0.13089 0.48205 0.01939
 H240 H -0.04201 0.41369 0.12944
 Zr241 Zr 0.06446 0.50192 0.50281
 O242 O 0.10568 0.47316 0.54689
 O243 O 0.09674 0.53637 0.45343
 O244 O 0.09542 0.46457 0.45428
 O245 O 0.04924 0.56929 0.59943
 O246 O 0.05078 0.43233 0.40907
 O247 O 0.09447 0.53837 0.55307
 O248 O 0.05329 0.56799 0.40488
 O249 O 0.03445 0.50030 0.43109
 O250 O 0.03231 0.55065 0.50088
 O251 O 0.03238 0.45293 0.50711
 O252 O 0.03238 0.50162 0.57371
 Zr253 Zr -0.06558 0.50018 0.50224
 Zr254 Zr 0.00026 0.45315 0.43743
 Zr255 Zr -0.00143 0.54920 0.56833
 Zr256 Zr 0.00123 0.54811 0.43129
 O257 O -0.00325 0.54547 0.65266
 O258 O 0.00396 0.53643 0.34828
 O259 O -0.03390 0.54981 0.49856
 O260 O -0.03301 0.50087 0.43239
 O261 O -0.03394 0.45117 0.50468
 O262 O -0.03506 0.50191 0.57343
 C263 C 0.08701 0.56114 0.41901
 C264 C 0.08350 0.56283 0.58749
 C265 C 0.08476 0.43899 0.42123
 O266 O -0.00091 0.45622 0.35301
 O267 O -0.04975 0.42985 0.41037
 O268 O -0.09541 0.46164 0.45420
 C269 C -0.08405 0.43617 0.42144
 O270 O 0.04666 0.43546 0.61340
 Zr271 Zr -0.00217 0.45428 0.57416
 O272 O -0.09763 0.46481 0.55039
 O273 O 0.00213 0.39431 0.44631
 O274 O 0.00080 0.39538 0.56476
 O275 O -0.00787 0.46309 0.65763
 O276 O -0.05380 0.43133 0.59553
 C277 C -0.08752 0.43847 0.58205
 O278 O -0.10666 0.52797 0.45671
 O279 O -0.00058 0.60815 0.56084
 O280 O -0.09685 0.53809 0.54910
 O281 O -0.05247 0.57238 0.59219
 O282 O 0.00121 0.60718 0.43916
 O283 O -0.04727 0.57166 0.39666
 C284 C -0.08647 0.56468 0.58064
 H285 H 0.04702 0.57401 0.50128
 H286 H -0.04868 0.50046 0.39991
 H287 H -0.05107 0.50277 0.60558
 H288 H 0.04828 0.43042 0.50943
 H289 H 0.01158 0.55977 0.33004
 H290 H 0.00024 0.43018 0.33953
 H291 H 0.00159 0.38336 0.40990
 H292 H -0.00632 0.38392 0.59931
 H293 H 0.00842 0.61787 0.40413
 H294 H -0.00001 0.61857 0.59756
 H295 H -0.00445 0.57146 0.66635
 H296 H -0.01479 0.43879 0.67381
 H297 H -0.04025 0.58670 0.36503
 H298 H -0.13113 0.51879 0.46929
 H299 H 0.13017 0.48208 0.53396
 H300 H 0.04008 0.41597 0.63984
 Zr301 Zr 0.43450 0.00007 0.00238
 O302 O 0.39341 0.02785 -0.04312
 O303 O 0.40250 -0.03542 0.05042
 O304 O 0.40474 -0.03843 -0.04580
 O305 O 0.44748 0.07228 0.09239
 O306 O 0.45044 -0.07014 -0.08966
 O307 O 0.40317 0.03792 0.04928
 O308 O 0.44633 -0.06894 0.09547
 O309 O 0.46620 -0.04891 0.00476
 O310 O 0.46497 0.00176 0.07361
 O311 O 0.46712 0.00084 -0.06743
 O312 O 0.46614 0.04973 -0.00119
 Zr313 Zr 0.56453 0.00192 0.00310
 Zr314 Zr 0.50044 -0.04686 -0.06246
 Zr315 Zr 0.49855 0.04909 0.06863
 Zr316 Zr 0.49792 -0.04583 0.07429
 O317 O 0.49940 0.10805 0.06128
 O318 O 0.50102 -0.10472 0.06484
 O319 O 0.53242 0.00154 0.07397
 O320 O 0.53250 -0.04709 0.00728
 O321 O 0.53459 0.00034 -0.06869
 O322 O 0.53233 0.05063 0.00123
 C323 C 0.41262 -0.06182 0.08197
 C324 C 0.41350 0.06453 0.08080
 C325 C 0.41613 -0.06386 -0.07861
 O326 O 0.50226 -0.10570 -0.05367
 O327 O 0.55101 -0.06771 -0.09063
 O328 O 0.59556 -0.03538 -0.04538
 C329 C 0.58497 -0.06102 -0.07838
 O330 O 0.45282 0.07160 -0.10317
 Zr331 Zr 0.50132 0.04812 -0.06841
 O332 O 0.59681 0.03654 -0.04609
 O333 O 0.49939 -0.04370 -0.14687
 O334 O 0.50421 0.03650 -0.15143
 O335 O 0.50113 0.10718 -0.06043
 O336 O 0.55337 0.06820 -0.09459
 C337 C 0.58708 0.06141 -0.08038
 O338 O 0.60576 -0.02683 0.04715
 O339 O 0.49664 0.04527 0.15295
 O340 O 0.59446 0.03831 0.05349
 O341 O 0.54920 0.06918 0.09984
 O342 O 0.49209 -0.03711 0.15776
 O343 O 0.54676 -0.06456 0.11358
 C344 C 0.58347 0.06274 0.08792
 H345 H 0.44893 0.00258 0.10574
 H346 H 0.54841 -0.06959 0.00961
 H347 H 0.54700 0.07401 0.00173
 H348 H 0.45147 0.00045 -0.09994
 H349 H 0.49394 -0.11621 0.09939
 H350 H 0.50178 -0.11663 -0.09011
 H351 H 0.50056 -0.06974 -0.16039
 H352 H 0.51183 0.05987 -0.16961
 H353 H 0.48522 -0.06144 0.17388
 H354 H 0.49543 0.07125 0.16669
 H355 H 0.49995 0.11844 0.09803
 H356 H 0.50834 0.11793 -0.09543
 H357 H 0.54021 -0.08405 0.14002
 H358 H 0.63025 -0.01786 0.03429
 H359 H 0.36894 0.01864 -0.03056
 H360 H 0.45986 0.08664 -0.13479
 Zr361 Zr 0.43400 0.49798 0.00258
 O362 O 0.39236 0.52657 0.04628
 O363 O 0.40245 0.46444 -0.04867
 O364 O 0.40361 0.53494 -0.04636
 O365 O 0.44762 0.43009 0.09817
 O366 O 0.44852 0.56856 -0.08920
 O367 O 0.40306 0.46082 0.05068
 O368 O 0.44652 0.43342 -0.09709
 O369 O 0.46508 0.50036 -0.06826
 O370 O 0.46602 0.44925 0.00021
 O371 O 0.46590 0.54701 0.00865
 O372 O 0.46479 0.49770 0.07441
 Zr373 Zr 0.56396 0.49951 0.00616
 Zr374 Zr 0.49912 0.54751 -0.06011
 Zr375 Zr 0.49858 0.45018 0.06869
 Zr376 Zr 0.49823 0.45254 -0.06832
 O377 O 0.49952 0.45327 0.15312
 O378 O 0.49716 0.46505 -0.15110
 O379 O 0.53218 0.45010 0.00002
 O380 O 0.53246 0.49968 -0.06483
 O381 O 0.53224 0.54857 0.00836
 O382 O 0.53227 0.49732 0.07621
 C383 C 0.41264 0.44023 -0.08366
 C384 C 0.41357 0.43631 0.08522
 C385 C 0.41440 0.56100 -0.07829
 O386 O 0.50142 0.54523 -0.14453
 O387 O 0.54997 0.57063 -0.08525
 O388 O 0.59461 0.53775 -0.04076
 C389 C 0.58404 0.56361 -0.07324
 O390 O 0.44976 0.56285 0.11515
 Zr391 Zr 0.49933 0.54501 0.07673
 O392 O 0.59505 0.53505 0.05599
 O393 O 0.49743 0.60623 -0.04973
 O394 O 0.49579 0.60396 0.06885
 O395 O 0.50445 0.53579 0.16013
 O396 O 0.55033 0.56857 0.09925
 C397 C 0.58432 0.56163 0.08714
 O398 O 0.60616 0.47223 -0.03809
 O399 O 0.49727 0.39128 0.06000
 O400 O 0.59406 0.46022 0.05268
 O401 O 0.54864 0.42595 0.09299
 O402 O 0.49774 0.39339 -0.06223
 O403 O 0.54729 0.42908 -0.10162
 C404 C 0.58286 0.43320 0.08292
 H405 H 0.45126 0.42593 -0.00044
 H406 H 0.54865 0.50025 -0.09681
 H407 H 0.54786 0.49610 0.10874
 H408 H 0.44989 0.56945 0.01098
 H409 H 0.48975 0.44192 -0.17018
 H410 H 0.50045 0.57142 -0.15733
 H411 H 0.49829 0.61747 -0.08589
 H412 H 0.50198 0.61513 0.10402
 H413 H 0.49109 0.38320 -0.09783
 H414 H 0.49595 0.38053 0.09644
 H415 H 0.50014 0.42718 0.16635
 H416 H 0.51077 0.56011 0.17684
 H417 H 0.54085 0.41446 -0.13396
 H418 H 0.63033 0.48116 -0.02399
 H419 H 0.36800 0.51773 0.03275
 H420 H 0.45574 0.58194 0.14253
 Zr421 Zr 0.06398 -0.00031 0.50619
 O422 O 0.10628 -0.02752 0.46204
 O423 O 0.09499 0.03538 0.55595
 O424 O 0.09455 0.03793 0.45913
 O425 O 0.04878 -0.07382 0.59315
 O426 O 0.04982 0.07061 0.41452
 O427 O 0.09415 -0.03953 0.55275
 O428 O 0.05018 0.06885 0.59909
 O429 O 0.03215 0.04867 0.50823
 O430 O 0.03229 -0.00248 0.57625
 O431 O 0.03248 -0.00034 0.43520
 O432 O 0.03230 -0.04980 0.50020
 Zr433 Zr -0.06601 -0.00218 0.50258
 Zr434 Zr -0.00097 0.04741 0.43977
 Zr435 Zr -0.00131 -0.04969 0.56886
 Zr436 Zr -0.00076 0.04513 0.57661
 O437 O -0.00253 -0.10861 0.56037
 O438 O -0.00443 0.10406 0.56853
 O439 O -0.03521 -0.00225 0.57441
 O440 O -0.03420 0.04693 0.50852
 O441 O -0.03491 0.00018 0.43174
 O442 O -0.03386 -0.05083 0.50038
 C443 C 0.08420 0.06197 0.58705
 C444 C 0.08299 -0.06655 0.58302
 C445 C 0.08391 0.06369 0.42654
 O446 O -0.00276 0.10614 0.44996
 O447 O -0.05160 0.06835 0.41067
 O448 O -0.09646 0.03470 0.45358
 C449 C -0.08570 0.06077 0.42164
 O450 O 0.04748 -0.07095 0.39862
 Zr451 Zr -0.00164 -0.04756 0.43185
 O452 O -0.09746 -0.03591 0.45140
 O453 O 0.00131 0.04499 0.35536
 O454 O -0.00274 -0.03519 0.34903
 O455 O -0.00196 -0.10670 0.43819
 O456 O -0.05329 -0.06689 0.40313
 C457 C -0.08719 -0.06016 0.41650
 O458 O -0.10775 0.02635 0.54614
 O459 O -0.00033 -0.04646 0.65328
 O460 O -0.09685 -0.03933 0.55086
 O461 O -0.05221 -0.06983 0.59848
 O462 O 0.00435 0.03602 0.66003
 O463 O -0.05037 0.06294 0.61496
 C464 C -0.08627 -0.06372 0.58552
 H465 H 0.04788 -0.00362 0.60878
 H466 H -0.05025 0.06934 0.51080
 H467 H -0.04857 -0.07419 0.49982
 H468 H 0.04867 0.00022 0.40322
 H469 H 0.00173 0.11530 0.60366
 H470 H -0.00193 0.11734 0.41377
 H471 H 0.00029 0.07116 0.34247
 H472 H -0.01008 -0.05837 0.33002
 H473 H 0.01063 0.06037 0.67669
 H474 H 0.00036 -0.07253 0.66659
 H475 H -0.00382 -0.11931 0.59685
 H476 H -0.00859 -0.11699 0.40264
 H477 H -0.04442 0.08207 0.64230
 H478 H -0.13208 0.01742 0.53262
 H479 H 0.13042 -0.01851 0.47615
 H480 H 0.04107 -0.08565 0.36634
 Zr481 Zr 0.75291 0.18312 0.25114
 O482 O 0.72580 0.14083 0.29566
 O483 O 0.78664 0.15142 0.20013
 O484 O 0.71562 0.15155 0.20377
 O485 O 0.82077 0.19920 0.34589
 O486 O 0.68151 0.19610 0.16073
 O487 O 0.79048 0.15328 0.29980
 O488 O 0.81668 0.19591 0.15110
 O489 O 0.74952 0.21375 0.17986
 O490 O 0.80072 0.21628 0.24783
 O491 O 0.70384 0.21459 0.25752
 O492 O 0.75334 0.21492 0.32248
 Zr493 Zr 0.74925 0.31400 0.25285
 Zr494 Zr 0.70226 0.24746 0.18830
 Zr495 Zr 0.79986 0.24988 0.31575
 Zr496 Zr 0.79648 0.24792 0.17877
 O497 O 0.79757 0.25149 0.40022
 O498 O 0.78347 0.24537 0.09623
 O499 O 0.79885 0.28294 0.24648
 O500 O 0.74915 0.28169 0.18234
 O501 O 0.70111 0.28133 0.25632
 O502 O 0.75249 0.28284 0.32338
 C503 C 0.81062 0.16178 0.16514
 C504 C 0.81483 0.16466 0.33387
 C505 C 0.68918 0.16193 0.17238
 O506 O 0.70395 0.24885 0.10382
 O507 O 0.67832 0.29813 0.16271
 O508 O 0.71051 0.34390 0.20634
 C509 C 0.68483 0.33264 0.17433
 O510 O 0.68920 0.19881 0.36423
 Zr511 Zr 0.70581 0.24880 0.32508
 O512 O 0.71394 0.34515 0.30274
 O513 O 0.64407 0.24516 0.19946
 O514 O 0.64729 0.24438 0.31821
 O515 O 0.71557 0.25456 0.40829
 O516 O 0.68201 0.29995 0.34756
 C517 C 0.68823 0.33417 0.33479
 O518 O 0.77553 0.35633 0.20738
 O519 O 0.85823 0.24963 0.30598
 O520 O 0.78728 0.34581 0.29867
 O521 O 0.82284 0.30132 0.33923
 O522 O 0.85522 0.24892 0.18425
 O523 O 0.81846 0.29733 0.14379
 C524 C 0.81453 0.33552 0.32863
 H525 H 0.82412 0.20182 0.24724
 H526 H 0.74808 0.29770 0.15014
 H527 H 0.75362 0.29882 0.35570
 H528 H 0.68180 0.19820 0.26057
 H529 H 0.80641 0.23807 0.07699
 H530 H 0.67789 0.24752 0.09138
 H531 H 0.63262 0.24562 0.16346
 H532 H 0.63643 0.25066 0.35351
 H533 H 0.86532 0.24203 0.14871
 H534 H 0.86922 0.24904 0.34227
 H535 H 0.82356 0.25294 0.41296
 H536 H 0.69148 0.26063 0.42534
 H537 H 0.83286 0.29067 0.11141
 H538 H 0.76634 0.38075 0.22086
 H539 H 0.73499 0.11640 0.28223
 H540 H 0.67030 0.20470 0.39174
 Zr541 Zr 0.74709 0.81599 0.75257
 O542 O 0.77558 0.85855 0.79492
 O543 O 0.71186 0.84709 0.70240
 O544 O 0.78310 0.84702 0.70292
 O545 O 0.68096 0.80210 0.85012
 O546 O 0.81678 0.80203 0.66004
 O547 O 0.71133 0.84691 0.80209
 O548 O 0.68167 0.80193 0.65488
 O549 O 0.74892 0.78464 0.68180
 O550 O 0.69905 0.78318 0.75177
 O551 O 0.79603 0.78423 0.75814
 O552 O 0.74807 0.78490 0.82450
 Zr553 Zr 0.74980 0.68489 0.75616
 Zr554 Zr 0.79615 0.75102 0.68927
 Zr555 Zr 0.70104 0.75062 0.82036
 Zr556 Zr 0.70187 0.75051 0.68331
 O557 O 0.70526 0.74992 0.90467
 O558 O 0.71316 0.75160 0.60014
 O559 O 0.70047 0.71656 0.75175
 O560 O 0.74911 0.71673 0.68538
 O561 O 0.79824 0.71728 0.75736
 O562 O 0.74803 0.71677 0.82644
 C563 C 0.68759 0.83623 0.66796
 C564 C 0.68729 0.83638 0.83694
 C565 C 0.80913 0.83635 0.67104
 O566 O 0.79297 0.74885 0.60491
 O567 O 0.81949 0.70048 0.66357
 O568 O 0.78837 0.65469 0.70843
 C569 C 0.81352 0.66602 0.67532
 O570 O 0.81361 0.79980 0.86450
 Zr571 Zr 0.79518 0.75013 0.82603
 O572 O 0.78489 0.65345 0.80540
 O573 O 0.85453 0.75327 0.69814
 O574 O 0.85355 0.75367 0.81610
 O575 O 0.78664 0.74523 0.90962
 O576 O 0.81870 0.69839 0.84815
 C577 C 0.81160 0.66408 0.83591
 O578 O 0.72299 0.64224 0.71188
 O579 O 0.64248 0.75145 0.81351
 O580 O 0.71102 0.65434 0.80314
 O581 O 0.67763 0.69998 0.84510
 O582 O 0.64324 0.75022 0.69098
 O583 O 0.67904 0.70051 0.65110
 C584 C 0.68458 0.66552 0.83434
 H585 H 0.67574 0.79779 0.75185
 H586 H 0.74961 0.70047 0.65331
 H587 H 0.74718 0.70104 0.85895
 H588 H 0.81818 0.80055 0.76004
 H589 H 0.68978 0.75837 0.58171
 H590 H 0.81880 0.75011 0.59141
 H591 H 0.86537 0.75256 0.66173
 H592 H 0.86517 0.74685 0.85063
 H593 H 0.63261 0.75611 0.65545
 H594 H 0.63229 0.75287 0.85027
 H595 H 0.67955 0.74902 0.91866
 H596 H 0.81079 0.73838 0.92581
 H597 H 0.66413 0.70655 0.61903
 H598 H 0.73225 0.61800 0.72573
 H599 H 0.76642 0.88298 0.78151
 H600 H 0.83309 0.79355 0.89092
 Zr601 Zr 0.25230 0.31691 0.74822
 O602 O 0.22414 0.35934 0.70538
 O603 O 0.28721 0.34799 0.79884
 O604 O 0.21628 0.34824 0.79773
 O605 O 0.31922 0.30261 0.65177
 O606 O 0.18195 0.30346 0.83974
 O607 O 0.28872 0.34765 0.69939
 O608 O 0.31685 0.30284 0.84688
 O609 O 0.24987 0.28570 0.81895
 O610 O 0.30023 0.28397 0.74977
 O611 O 0.20330 0.28527 0.74198
 O612 O 0.25175 0.28565 0.67629
 Zr613 Zr 0.24943 0.18587 0.74468
 Zr614 Zr 0.20259 0.25222 0.81084
 Zr615 Zr 0.29869 0.25130 0.68114
 Zr616 Zr 0.29683 0.25145 0.81818
 O617 O 0.29505 0.25055 0.59677
 O618 O 0.28495 0.25276 0.90118
 O619 O 0.29879 0.21739 0.74974
 O620 O 0.24953 0.21783 0.81546
 O621 O 0.20100 0.21828 0.74274
 O622 O 0.25168 0.21757 0.67441
 C623 C 0.31119 0.33709 0.83357
 C624 C 0.31300 0.33694 0.66490
 C625 C 0.18995 0.33779 0.82926
 O626 O 0.20510 0.25026 0.89525
 O627 O 0.17898 0.20168 0.83613
 O628 O 0.21049 0.15582 0.79170
 C629 C 0.18512 0.16718 0.82446
 O630 O 0.18633 0.30050 0.63539
 Zr631 Zr 0.20456 0.25095 0.67413
 O632 O 0.21489 0.15430 0.69491
 O633 O 0.14428 0.25460 0.80112
 O634 O 0.14614 0.25442 0.68340
 O635 O 0.21360 0.24597 0.59063
 O636 O 0.18136 0.19906 0.65154
 C637 C 0.18852 0.16484 0.66392
 O638 O 0.27596 0.14342 0.78945
 O639 O 0.35721 0.25190 0.68889
 O640 O 0.28830 0.15508 0.69805
 O641 O 0.32200 0.20054 0.65645
 O642 O 0.35552 0.25110 0.81166
 O643 O 0.31930 0.20142 0.85057
 C644 C 0.31486 0.16612 0.66703
 H645 H 0.32360 0.29848 0.75006
 H646 H 0.24878 0.20166 0.84752
 H647 H 0.25273 0.20179 0.64189
 H648 H 0.18122 0.30167 0.73980
 H649 H 0.30823 0.25947 0.91996
 H650 H 0.17917 0.25160 0.90832
 H651 H 0.13320 0.25397 0.83738
 H652 H 0.13473 0.24739 0.64878
 H653 H 0.36583 0.25691 0.84745
 H654 H 0.36767 0.25317 0.65229
 H655 H 0.32085 0.24952 0.58313
 H656 H 0.18956 0.23905 0.57413
 H657 H 0.33385 0.20743 0.88302
 H658 H 0.26680 0.11911 0.77554
 H659 H 0.23328 0.38378 0.71885
 H660 H 0.16688 0.29419 0.60893
 Zr661 Zr 0.24794 0.68364 0.25160
 O662 O 0.27527 0.64006 0.20979
 O663 O 0.21344 0.65335 0.30368
 O664 O 0.28563 0.65356 0.30053
 O665 O 0.18035 0.69701 0.15538
 O666 O 0.31893 0.69942 0.34194
 O667 O 0.21109 0.65243 0.20348
 O668 O 0.18330 0.69920 0.35001
 O669 O 0.25080 0.71611 0.32137
 O670 O 0.20005 0.71681 0.25264
 O671 O 0.29688 0.71521 0.24400
 O672 O 0.24785 0.71376 0.17880
 Zr673 Zr 0.25128 0.81453 0.24399
 Zr674 Zr 0.29801 0.74972 0.31170
 Zr675 Zr 0.20113 0.74865 0.18316
 Zr676 Zr 0.20379 0.75027 0.32018
 O677 O 0.20400 0.74801 0.09871
 O678 O 0.21623 0.74975 0.40299
 O679 O 0.20170 0.78348 0.25089
 O680 O 0.25108 0.78398 0.31581
 O681 O 0.29954 0.78202 0.24232
 O682 O 0.24841 0.78168 0.17476
 C683 C 0.18914 0.66470 0.33776
 C684 C 0.18668 0.66280 0.16891
 C685 C 0.31184 0.66492 0.33179
 O686 O 0.29583 0.75316 0.39606
 O687 O 0.32178 0.80083 0.33539
 O688 O 0.28997 0.84564 0.28949
 C689 C 0.31543 0.83504 0.32234
 O690 O 0.31257 0.69715 0.13822
 Zr691 Zr 0.29524 0.74788 0.17496
 O692 O 0.28617 0.84474 0.19277
 O693 O 0.35627 0.74726 0.30124
 O694 O 0.35374 0.74413 0.18279
 O695 O 0.28572 0.75132 0.09146
 O696 O 0.31869 0.79879 0.15019
 C697 C 0.31202 0.83327 0.16134
 O698 O 0.22477 0.85779 0.28755
 O699 O 0.14271 0.74856 0.19220
 O700 O 0.21330 0.84506 0.19677
 O701 O 0.17824 0.79961 0.15715
 O702 O 0.14509 0.75109 0.31395
 O703 O 0.18165 0.80062 0.35234
 C704 C 0.18630 0.83408 0.16681
 H705 H 0.17667 0.70233 0.25356
 H706 H 0.25199 0.80075 0.34732
 H707 H 0.24736 0.79686 0.14174
 H708 H 0.31901 0.69889 0.24189
 H709 H 0.19310 0.74316 0.42224
 H710 H 0.32183 0.75233 0.40890
 H711 H 0.36759 0.74885 0.33727
 H712 H 0.36478 0.74986 0.14744
 H713 H 0.13477 0.74552 0.34981
 H714 H 0.13195 0.74705 0.15581
 H715 H 0.17810 0.74919 0.08559
 H716 H 0.30979 0.75734 0.07432
 H717 H 0.16720 0.79489 0.38499
 H718 H 0.23398 0.88191 0.27316
 H719 H 0.26608 0.61602 0.22454
 H720 H 0.33161 0.70258 0.11076
 Zr721 Zr 0.24932 0.81412 0.75268
 O722 O 0.27562 0.85644 0.70722
 O723 O 0.21400 0.84529 0.80255
 O724 O 0.21063 0.84404 0.70615
 O725 O 0.32292 0.80139 0.83904
 O726 O 0.17838 0.79829 0.66255
 O727 O 0.28739 0.84592 0.79848
 O728 O 0.18201 0.80010 0.84729
 O729 O 0.20117 0.78146 0.75614
 O730 O 0.25254 0.78297 0.82321
 O731 O 0.24920 0.78181 0.68217
 O732 O 0.29891 0.78304 0.74630
 Zr733 Zr 0.25293 0.68323 0.75096
 Zr734 Zr 0.20230 0.74759 0.68812
 Zr735 Zr 0.29990 0.74998 0.81557
 Zr736 Zr 0.20584 0.74894 0.82490
 O737 O 0.35827 0.74969 0.80581
 O738 O 0.14732 0.74448 0.81804
 O739 O 0.25337 0.71504 0.82229
 O740 O 0.20387 0.71472 0.75734
 O741 O 0.24955 0.71387 0.67969
 O742 O 0.30074 0.71638 0.74764
 C743 C 0.18824 0.83432 0.83453
 C744 C 0.31465 0.83560 0.82843
 C745 C 0.18494 0.83279 0.67416
 O746 O 0.14411 0.74531 0.69930
 O747 O 0.18153 0.69623 0.66053
 O748 O 0.21562 0.65167 0.70356
 C749 C 0.18919 0.66205 0.67215
 O750 O 0.31853 0.79744 0.64366
 Zr751 Zr 0.29652 0.74803 0.67859
 O752 O 0.28664 0.65153 0.69990
 O753 O 0.20398 0.74899 0.60364
 O754 O 0.28350 0.74554 0.59604
 O755 O 0.35526 0.74897 0.68406
 O756 O 0.31665 0.69603 0.65086
 C757 C 0.31059 0.66190 0.66487
 O758 O 0.22583 0.64094 0.79548
 O759 O 0.29759 0.75159 0.90004
 O760 O 0.29053 0.65338 0.79961
 O761 O 0.32079 0.69931 0.84571
 O762 O 0.21560 0.75475 0.90811
 O763 O 0.18925 0.69896 0.86410
 C764 C 0.31488 0.66477 0.83368
 H765 H 0.25368 0.79895 0.85552
 H766 H 0.18183 0.69833 0.76039
 H767 H 0.32414 0.70191 0.74704
 H768 H 0.24813 0.79782 0.64997
 H769 H 0.13647 0.75077 0.85334
 H770 H 0.13266 0.74579 0.66330
 H771 H 0.17791 0.74768 0.59121
 H772 H 0.30643 0.73824 0.57680
 H773 H 0.19150 0.76084 0.92514
 H774 H 0.32358 0.75304 0.91278
 H775 H 0.36926 0.74911 0.84210
 H776 H 0.36534 0.74209 0.64850
 H777 H 0.17037 0.70485 0.89162
 H778 H 0.23501 0.61651 0.78204
 H779 H 0.26645 0.88087 0.72071
 H780 H 0.33293 0.79079 0.61128
 Zr781 Zr 0.24934 0.18496 0.25517
 O782 O 0.22262 0.14224 0.21092
 O783 O 0.28438 0.15365 0.30460
 O784 O 0.28805 0.15473 0.20773
 O785 O 0.17710 0.20008 0.34396
 O786 O 0.31915 0.20047 0.16273
 O787 O 0.21059 0.15443 0.30223
 O788 O 0.31801 0.19868 0.34749
 O789 O 0.29775 0.21740 0.25639
 O790 O 0.24747 0.21695 0.32535
 O791 O 0.24870 0.21669 0.18430
 O792 O 0.19997 0.21655 0.25057
 Zr793 Zr 0.24650 0.31605 0.25120
 Zr794 Zr 0.29570 0.25104 0.18819
 Zr795 Zr 0.20045 0.25072 0.31907
 Zr796 Zr 0.29459 0.25036 0.32494
 O797 O 0.14190 0.25150 0.31202
 O798 O 0.35297 0.25382 0.31506
 O799 O 0.24744 0.28506 0.32321
 O800 O 0.29547 0.28435 0.25695
 O801 O 0.24843 0.28459 0.18052
 O802 O 0.19849 0.28320 0.25040
 C803 C 0.31090 0.16440 0.33531
 C804 C 0.18413 0.16562 0.33338
 C805 C 0.31322 0.16602 0.17464
 O806 O 0.35407 0.25336 0.19713
 O807 O 0.31634 0.30204 0.15892
 O808 O 0.28257 0.34704 0.20162
 C809 C 0.30868 0.33636 0.16989
 O810 O 0.17868 0.20033 0.14994
 Zr811 Zr 0.20143 0.25041 0.18204
 O812 O 0.21128 0.34703 0.20085
 O813 O 0.29259 0.24876 0.10383
 O814 O 0.21278 0.25139 0.09889
 O815 O 0.14279 0.25008 0.18959
 O816 O 0.18120 0.30176 0.15340
 C817 C 0.18708 0.33608 0.16637
 O818 O 0.27489 0.35874 0.29344
 O819 O 0.20453 0.25010 0.40340
 O820 O 0.21073 0.34699 0.30069
 O821 O 0.18037 0.30220 0.34876
 O822 O 0.28594 0.24573 0.40854
 O823 O 0.31301 0.30012 0.36321
 C824 C 0.18673 0.33647 0.33560
 H825 H 0.24660 0.20129 0.35792
 H826 H 0.31760 0.30069 0.25888
 H827 H 0.17517 0.29780 0.25041
 H828 H 0.24926 0.20038 0.15228
 H829 H 0.36456 0.24708 0.34964
 H830 H 0.36495 0.25260 0.16073
 H831 H 0.31843 0.25002 0.09037
 H832 H 0.18940 0.25809 0.08039
 H833 H 0.31007 0.23893 0.42485
 H834 H 0.17880 0.24921 0.41732
 H835 H 0.13166 0.25296 0.34876
 H836 H 0.13218 0.25590 0.15402
 H837 H 0.33251 0.29393 0.38962
 H838 H 0.26570 0.38312 0.27994
 H839 H 0.23188 0.11802 0.22487
 H840 H 0.16377 0.20631 0.11784
 Zr841 Zr 0.74995 0.68526 0.24420
 O842 O 0.77659 0.64278 0.28876
 O843 O 0.71532 0.65374 0.19453
 O844 O 0.71102 0.65515 0.29127
 O845 O 0.82230 0.70009 0.15562
 O846 O 0.67960 0.70099 0.33587
 O847 O 0.78871 0.65454 0.19720
 O848 O 0.68169 0.69855 0.15140
 O849 O 0.70151 0.71767 0.24254
 O850 O 0.75205 0.71705 0.17401
 O851 O 0.75019 0.71715 0.31505
 O852 O 0.79931 0.71680 0.24913
 Zr853 Zr 0.75278 0.81630 0.24799
 Zr854 Zr 0.70323 0.75153 0.31071
 Zr855 Zr 0.79906 0.75080 0.18061
 Zr856 Zr 0.70492 0.75042 0.17398
 O857 O 0.85759 0.75137 0.18817
 O858 O 0.64651 0.75385 0.18349
 O859 O 0.75210 0.78512 0.17601
 O860 O 0.70377 0.78465 0.24192
 O861 O 0.75051 0.78502 0.31867
 O862 O 0.80073 0.78339 0.24930
 C863 C 0.68887 0.66432 0.16370
 C864 C 0.81519 0.66564 0.16606
 C865 C 0.68566 0.66650 0.32409
 O866 O 0.64491 0.75402 0.30124
 O867 O 0.68274 0.80272 0.34003
 O868 O 0.71679 0.84754 0.29760
 C869 C 0.69066 0.83702 0.32937
 O870 O 0.82007 0.70075 0.34981
 Zr871 Zr 0.79748 0.75079 0.31765
 O872 O 0.78771 0.84736 0.29861
 O873 O 0.70592 0.74935 0.39510
 O874 O 0.78577 0.75196 0.40070
 O875 O 0.85616 0.75052 0.31088
 O876 O 0.81749 0.80219 0.34644
 C877 C 0.81174 0.83645 0.33328
 O878 O 0.72455 0.85877 0.20531
 O879 O 0.79527 0.75017 0.09625
 O880 O 0.78908 0.84711 0.19912
 O881 O 0.81952 0.80215 0.15129
 O882 O 0.71378 0.74552 0.09044
 O883 O 0.68659 0.80001 0.13545
 C884 C 0.81330 0.83646 0.16451
 H885 H 0.75303 0.70132 0.14144
 H886 H 0.68169 0.80104 0.23987
 H887 H 0.82409 0.79793 0.24955
 H888 H 0.74949 0.70093 0.34707
 H889 H 0.63504 0.74686 0.14890
 H890 H 0.63389 0.75335 0.33754
 H891 H 0.68002 0.75069 0.40830
 H892 H 0.80908 0.75868 0.41940
 H893 H 0.68971 0.73861 0.07403
 H894 H 0.82105 0.74919 0.08251
 H895 H 0.86799 0.75273 0.15153
 H896 H 0.86653 0.75633 0.34663
 H897 H 0.66710 0.79372 0.10904
 H898 H 0.73369 0.88320 0.21882
 H899 H 0.76740 0.61849 0.27484
 H900 H 0.83471 0.70673 0.38218
 Zr901 Zr 0.75122 0.31527 0.74535
 O902 O 0.72471 0.35854 0.78889
 O903 O 0.78605 0.34544 0.69395
 O904 O 0.78993 0.34646 0.79069
 O905 O 0.67815 0.30021 0.65860
 O906 O 0.82184 0.30172 0.83654
 O907 O 0.71319 0.34573 0.69808
 O908 O 0.81850 0.29944 0.65137
 O909 O 0.79949 0.28277 0.74368
 O910 O 0.74831 0.28234 0.67621
 O911 O 0.75109 0.28477 0.81724
 O912 O 0.70167 0.28418 0.75242
 Zr913 Zr 0.74795 0.18439 0.75320
 Zr914 Zr 0.79804 0.25054 0.81314
 Zr915 Zr 0.70105 0.24930 0.68473
 Zr916 Zr 0.79516 0.24856 0.67639
 O917 O 0.64264 0.24923 0.69389
 O918 O 0.85367 0.24492 0.68420
 O919 O 0.74779 0.21443 0.68034
 O920 O 0.79688 0.21598 0.74549
 O921 O 0.75086 0.21690 0.82293
 O922 O 0.70004 0.21752 0.75426
 C923 C 0.81185 0.33393 0.66243
 C924 C 0.68620 0.33468 0.66815
 C925 C 0.81551 0.33596 0.82343
 O926 O 0.85629 0.24806 0.80267
 O927 O 0.81901 0.20023 0.84340
 O928 O 0.78564 0.15436 0.80211
 C929 C 0.81190 0.16572 0.83328
 O930 O 0.68171 0.30135 0.85402
 Zr931 Zr 0.70381 0.25101 0.82177
 O932 O 0.71352 0.15409 0.80532
 O933 O 0.79591 0.25410 0.89749
 O934 O 0.71635 0.25045 0.90454
 O935 O 0.64511 0.25190 0.81563
 O936 O 0.68327 0.19991 0.85156
 C937 C 0.68916 0.16542 0.83931
 O938 O 0.77531 0.14083 0.71138
 O939 O 0.70386 0.24856 0.60029
 O940 O 0.71109 0.15312 0.70522
 O941 O 0.68027 0.19763 0.65710
 O942 O 0.78559 0.25186 0.59289
 O943 O 0.81252 0.19781 0.63978
 C944 C 0.68664 0.16344 0.67070
 H945 H 0.74723 0.29748 0.64314
 H946 H 0.81901 0.19966 0.74337
 H947 H 0.67667 0.20304 0.75523
 H948 H 0.75202 0.30157 0.84871
 H949 H 0.86468 0.25060 0.64882
 H950 H 0.86762 0.24971 0.83870
 H951 H 0.82192 0.25328 0.91028
 H952 H 0.69324 0.24382 0.92383
 H953 H 0.80965 0.25784 0.57569
 H954 H 0.67794 0.24970 0.58720
 H955 H 0.63185 0.24764 0.65753
 H956 H 0.63481 0.24630 0.85149
 H957 H 0.83159 0.20321 0.61234
 H958 H 0.76615 0.11679 0.72614
 H959 H 0.73387 0.38266 0.77442
 H960 H 0.66732 0.29561 0.88673
 C961 C 0.11444 0.41296 0.89005
 C962 C 0.10011 0.38773 0.84853
 C963 C 0.12717 0.36255 0.82801
 C964 C 0.16375 0.36682 0.85212
 C965 C 0.17345 0.40624 0.84405
 C966 C 0.14610 0.43179 0.86509
 C967 C 0.13071 0.38835 0.93045
 C968 C 0.15790 0.36304 0.90959
 H969 H 0.07237 0.38874 0.83164
 H970 H 0.12101 0.34331 0.79551
 H971 H 0.19880 0.41575 0.82494
 H972 H 0.14910 0.46195 0.86258
 H973 H 0.12392 0.38950 0.97271
 H974 H 0.17323 0.34379 0.93484
 C975 C 0.38623 0.58862 0.39283
 C976 C 0.39226 0.62875 0.41252
 C977 C 0.36742 0.65369 0.39317
 C978 C 0.33830 0.63650 0.35515
 C979 C 0.36134 0.61638 0.31196
 C980 C 0.38635 0.59136 0.33163
 C981 C 0.34548 0.57978 0.40755
 C982 C 0.32044 0.60492 0.38775
 H983 H 0.41395 0.63682 0.44037
 H984 H 0.36821 0.68287 0.40510
 H985 H 0.35807 0.62129 0.26941
 H986 H 0.40437 0.57489 0.30598
 H987 H 0.33696 0.55590 0.43127
 H988 H 0.29080 0.60252 0.39468
 C989 C 0.88467 0.91092 0.60955
 C990 C 0.86538 0.88660 0.56709
 C991 C 0.83954 0.86267 0.58721
 C992 C 0.83522 0.86504 0.64816
 C993 C 0.87447 0.85907 0.67035
 C994 C 0.90023 0.88282 0.65037
 C995 C 0.85273 0.93062 0.63919
 C996 C 0.82675 0.90659 0.65951
 H997 H 0.87116 0.88849 0.52463
 H998 H 0.82331 0.84415 0.56195
 H999 H 0.88137 0.83811 0.70011
 H1000 H 0.92891 0.88188 0.66351
 H1001 H 0.85068 0.96074 0.64368
 H1002 H 0.80248 0.91632 0.68114
 C1003 C 0.61257 0.08786 0.11229
 C1004 C 0.63235 0.11150 0.06959
 C1005 C 0.65852 0.13512 0.08942
 C1006 C 0.66267 0.13326 0.15039
 C1007 C 0.62341 0.14003 0.17241
 C1008 C 0.59730 0.11650 0.15262
 C1009 C 0.64416 0.06793 0.14231
 C1010 C 0.67049 0.09173 0.16237
 H1011 H 0.62662 0.10936 0.02715
 H1012 H 0.67509 0.15313 0.06392
 H1013 H 0.61678 0.16132 0.20192
 H1014 H 0.56858 0.11792 0.16557
 H1015 H 0.64568 0.03783 0.14733
 H1016 H 0.69451 0.08185 0.18433
 C1017 C 0.88588 0.08680 0.39826
 C1018 C 0.89183 0.12666 0.41938
 C1019 C 0.86817 0.15227 0.39878
 C1020 C 0.84020 0.13592 0.35850
 C1021 C 0.86425 0.11591 0.31646
 C1022 C 0.88809 0.09023 0.33719
 C1023 C 0.84468 0.07836 0.40998
 C1024 C 0.82076 0.10418 0.38907
 H1025 H 0.91271 0.13407 0.44884
 H1026 H 0.86910 0.18138 0.41108
 H1027 H 0.86227 0.12111 0.27387
 H1028 H 0.90645 0.07355 0.31232
 H1029 H 0.83509 0.05424 0.43233
 H1030 H 0.79088 0.10214 0.39374
 C1031 C 0.38732 0.41253 0.60302
 C1032 C 0.36670 0.38954 0.56031
 C1033 C 0.34131 0.36514 0.58055
 C1034 C 0.33880 0.36576 0.64177
 C1035 C 0.37853 0.35885 0.66118
 C1036 C 0.40382 0.38309 0.64123
 C1037 C 0.35650 0.43152 0.63571
 C1038 C 0.33101 0.40705 0.65611
 H1039 H 0.37152 0.39242 0.51767
 H1040 H 0.32443 0.34724 0.55528
 H1041 H 0.38610 0.33702 0.68927
 H1042 H 0.43280 0.38164 0.65282
 H1043 H 0.35486 0.46148 0.64227
 H1044 H 0.30758 0.41633 0.67997
 C1045 C 0.61358 0.91282 0.89826
 C1046 C 0.59703 0.88358 0.85961
 C1047 C 0.62213 0.85901 0.84001
 C1048 C 0.66177 0.86544 0.86009
 C1049 C 0.67020 0.90665 0.84611
 C1050 C 0.64489 0.93144 0.86623
 C1051 C 0.63355 0.88957 0.94121
 C1052 C 0.65878 0.86482 0.92126
 H1053 H 0.56813 0.88243 0.84751
 H1054 H 0.61449 0.83723 0.81176
 H1055 H 0.69397 0.91564 0.82278
 H1056 H 0.64699 0.96139 0.85995
 H1057 H 0.62842 0.89251 0.98378
 H1058 H 0.67523 0.84670 0.94670
 C1059 C 0.11294 0.58714 0.10503
 C1060 C 0.09603 0.61644 0.14326
 C1061 C 0.12111 0.64062 0.16407
 C1062 C 0.16108 0.63382 0.14541
 C1063 C 0.16872 0.59250 0.15942
 C1064 C 0.14346 0.56807 0.13816
 C1065 C 0.13403 0.61028 0.06307
 C1066 C 0.15919 0.63459 0.08412
 H1067 H 0.06692 0.61784 0.15423
 H1068 H 0.11323 0.66234 0.19229
 H1069 H 0.19187 0.58319 0.18372
 H1070 H 0.14503 0.53808 0.14441
 H1071 H 0.12968 0.60757 0.02030
 H1072 H 0.17636 0.65254 0.05938
 C1073 C 0.38399 0.91168 0.10264
 C1074 C 0.39233 0.87174 0.08358
 C1075 C 0.36829 0.84577 0.10216
 C1076 C 0.33781 0.86198 0.13858
 C1077 C 0.35889 0.88323 0.18257
 C1078 C 0.38300 0.90929 0.16380
 C1079 C 0.34340 0.91874 0.08594
 C1080 C 0.31917 0.89257 0.10490
 H1081 H 0.41500 0.86454 0.05682
 H1082 H 0.37064 0.81654 0.09091
 H1083 H 0.35495 0.87833 0.22493
 H1084 H 0.39962 0.92673 0.19007
 H1085 H 0.33444 0.94206 0.06143
 H1086 H 0.28963 0.89348 0.09655
 C1087 C 0.61531 0.41229 0.39232
 C1088 C 0.61619 0.40941 0.33119
 C1089 C 0.64067 0.38352 0.31263
 C1090 C 0.66210 0.36293 0.35681
 C1091 C 0.68042 0.39401 0.38998
 C1092 C 0.65590 0.41999 0.40872
 C1093 C 0.60749 0.37246 0.41188
 C1094 C 0.63183 0.34668 0.39358
 H1095 H 0.59927 0.42640 0.30480
 H1096 H 0.64465 0.37833 0.27034
 H1097 H 0.70998 0.39541 0.39810
 H1098 H 0.66468 0.44366 0.43279
 H1099 H 0.58492 0.36519 0.43872
 H1100 H 0.62978 0.31754 0.40524
 C1101 C 0.88854 0.58874 0.89031
 C1102 C 0.86962 0.60926 0.93307
 C1103 C 0.84205 0.63484 0.91426
 C1104 C 0.83862 0.63523 0.85620
 C1105 C 0.87579 0.64311 0.83605
 C1106 C 0.90324 0.61767 0.85450
 C1107 C 0.85894 0.57059 0.85984
 C1108 C 0.83124 0.59628 0.84097
 H1109 H 0.87518 0.60539 0.97530
 H1110 H 0.82513 0.65163 0.94105
 H1111 H 0.88221 0.66521 0.80773
 H1112 H 0.93165 0.61934 0.84019
 H1113 H 0.85782 0.54078 0.85155
 H1114 H 0.80752 0.58716 0.81763
 C1115 C 0.11294 0.08843 0.60864
 C1116 C 0.13350 0.10960 0.56408
 C1117 C 0.15926 0.13439 0.58216
 C1118 C 0.16215 0.13583 0.64326
 C1119 C 0.12262 0.14396 0.66280
 C1120 C 0.09694 0.11933 0.64497
 C1121 C 0.14373 0.07021 0.64203
 C1122 C 0.16961 0.09502 0.66026
 H1123 H 0.12844 0.10513 0.52188
 H1124 H 0.17621 0.15112 0.55543
 H1125 H 0.11547 0.16693 0.68934
 H1126 H 0.06803 0.12154 0.65675
 H1127 H 0.14503 0.04050 0.65068
 H1128 H 0.19305 0.08629 0.68443
 C1129 C 0.11330 0.41289 0.39760
 C1130 C 0.09664 0.38381 0.35876
 C1131 C 0.12166 0.35927 0.33891
 C1132 C 0.16132 0.36553 0.35895
 C1133 C 0.16984 0.40677 0.34525
 C1134 C 0.14461 0.43155 0.36562
 C1135 C 0.13326 0.38944 0.44033
 C1136 C 0.15841 0.36471 0.42013
 H1137 H 0.06773 0.38278 0.34671
 H1138 H 0.11394 0.33762 0.31050
 H1139 H 0.19360 0.41578 0.32193
 H1140 H 0.14677 0.46152 0.35957
 H1141 H 0.12820 0.39224 0.48293
 H1142 H 0.17486 0.34646 0.44539
 C1143 C 0.38598 0.58701 0.89825
 C1144 C 0.39187 0.62688 0.91934
 C1145 C 0.36819 0.65245 0.89868
 C1146 C 0.34027 0.63606 0.85837
 C1147 C 0.36438 0.61606 0.81638
 C1148 C 0.38823 0.59042 0.83718
 C1149 C 0.34478 0.57853 0.90991
 C1150 C 0.32085 0.60430 0.88893
 H1151 H 0.41272 0.63434 0.94882
 H1152 H 0.36908 0.68157 0.91095
 H1153 H 0.36243 0.62124 0.77378
 H1154 H 0.40664 0.57376 0.81236
 H1155 H 0.33520 0.55440 0.93226
 H1156 H 0.29097 0.60222 0.89355
 C1157 C 0.61286 0.08763 0.60733
 C1158 C 0.59597 0.11701 0.64544
 C1159 C 0.62106 0.14125 0.66608
 C1160 C 0.66102 0.13442 0.64737
 C1161 C 0.66869 0.09313 0.66158
 C1162 C 0.64341 0.06865 0.64050
 C1163 C 0.63390 0.11067 0.56521
 C1164 C 0.65908 0.13504 0.58609
 H1165 H 0.56686 0.11843 0.65644
 H1166 H 0.61320 0.16305 0.69419
 H1167 H 0.69186 0.08390 0.68588
 H1168 H 0.64500 0.03868 0.64691
 H1169 H 0.62951 0.10785 0.52247
 H1170 H 0.67621 0.15294 0.56123
 C1171 C 0.88746 0.91222 0.10273
 C1172 C 0.86684 0.88927 0.05997
 C1173 C 0.84151 0.86480 0.08018
 C1174 C 0.83903 0.86533 0.14141
 C1175 C 0.87879 0.85845 0.16075
 C1176 C 0.90402 0.88275 0.14084
 C1177 C 0.85663 0.93113 0.13551
 C1178 C 0.83120 0.90660 0.15587
 H1179 H 0.87164 0.89221 0.01734
 H1180 H 0.82463 0.84691 0.05488
 H1181 H 0.88640 0.83659 0.18876
 H1182 H 0.93301 0.88133 0.15239
 H1183 H 0.85496 0.96108 0.14215
 H1184 H 0.80777 0.91581 0.17978
 C1185 C 0.88622 0.08915 0.89379
 C1186 C 0.89242 0.12925 0.91356
 C1187 C 0.86760 0.15430 0.89440
 C1188 C 0.83836 0.13725 0.85649
 C1189 C 0.86123 0.11711 0.81313
 C1190 C 0.88621 0.09198 0.83261
 C1191 C 0.84548 0.08042 0.90869
 C1192 C 0.82048 0.10567 0.88909
 H1193 H 0.91420 0.13722 0.94133
 H1194 H 0.86850 0.18347 0.90638
 H1195 H 0.85788 0.12210 0.77062
 H1196 H 0.90411 0.07550 0.80682
 H1197 H 0.83695 0.05653 0.93240
 H1198 H 0.79084 0.10336 0.89618
 C1199 C 0.11262 0.58796 0.61187
 C1200 C 0.13242 0.61162 0.56922
 C1201 C 0.15858 0.63525 0.58910
 C1202 C 0.16270 0.63338 0.65008
 C1203 C 0.12342 0.64012 0.67204
 C1204 C 0.09733 0.61659 0.65221
 C1205 C 0.14421 0.56804 0.64193
 C1206 C 0.17051 0.59184 0.66204
 H1207 H 0.12673 0.60950 0.52676
 H1208 H 0.17516 0.65327 0.56364
 H1209 H 0.11677 0.66140 0.70156
 H1210 H 0.06860 0.61800 0.66513
 H1211 H 0.14574 0.53793 0.64692
 H1212 H 0.19453 0.58196 0.68402
 C1213 C 0.61583 0.91233 0.39164
 C1214 C 0.60012 0.88462 0.35018
 C1215 C 0.62563 0.86063 0.33003
 C1216 C 0.66485 0.86595 0.35260
 C1217 C 0.67388 0.90748 0.34204
 C1218 C 0.64815 0.93175 0.36258
 C1219 C 0.63464 0.88749 0.43383
 C1220 C 0.66024 0.86332 0.41350
 H1221 H 0.57150 0.88412 0.33671
 H1222 H 0.61857 0.83994 0.29987
 H1223 H 0.69837 0.91702 0.32078
 H1224 H 0.65062 0.96187 0.35865
 H1225 H 0.62871 0.88922 0.47628
 H1226 H 0.67611 0.84444 0.43858
 C1227 C 0.38445 0.41094 0.10904
 C1228 C 0.36520 0.38674 0.06638
 C1229 C 0.33929 0.36280 0.08628
 C1230 C 0.33485 0.36504 0.14722
 C1231 C 0.37405 0.35897 0.16955
 C1232 C 0.39988 0.38273 0.14979
 C1233 C 0.35248 0.43062 0.13863
 C1234 C 0.32642 0.40658 0.15872
 H1235 H 0.37105 0.38874 0.02396
 H1236 H 0.32308 0.34438 0.06087
 H1237 H 0.38086 0.33794 0.19924
 H1238 H 0.42854 0.38173 0.16304
 H1239 H 0.35046 0.46074 0.14325
 H1240 H 0.30212 0.41631 0.18029
 C1241 C 0.61313 0.58802 0.10869
 C1242 C 0.63364 0.60916 0.06406
 C1243 C 0.65947 0.63392 0.08205
 C1244 C 0.66245 0.63535 0.14314
 C1245 C 0.62296 0.64353 0.16280
 C1246 C 0.59722 0.61894 0.14507
 C1247 C 0.64394 0.56975 0.14198
 C1248 C 0.66989 0.59452 0.16012
 H1249 H 0.62852 0.60469 0.02189
 H1250 H 0.67641 0.65061 0.05527
 H1251 H 0.61588 0.66651 0.18938
 H1252 H 0.56834 0.62119 0.15695
 H1253 H 0.64521 0.54005 0.15062
 H1254 H 0.69335 0.58577 0.18421
 C1255 C 0.11529 0.91250 0.89193
 C1256 C 0.11632 0.90973 0.83080
 C1257 C 0.14080 0.88382 0.81227
 C1258 C 0.16209 0.86310 0.85649
 C1259 C 0.18037 0.89408 0.88988
 C1260 C 0.15585 0.92008 0.90858
 C1261 C 0.10734 0.87264 0.91129
 C1262 C 0.13168 0.84684 0.89303
 H1263 H 0.09950 0.92680 0.80439
 H1264 H 0.14490 0.87871 0.76999
 H1265 H 0.20991 0.89542 0.89817
 H1266 H 0.16462 0.94369 0.93278
 H1267 H 0.08468 0.86535 0.93797
 H1268 H 0.12954 0.81768 0.90455
 C1269 C 0.38703 0.08895 0.39152
 C1270 C 0.36629 0.11036 0.43576
 C1271 C 0.34035 0.13478 0.41730
 C1272 C 0.33747 0.13566 0.35616
 C1273 C 0.37698 0.14387 0.33655
 C1274 C 0.40284 0.11961 0.35480
 C1275 C 0.35637 0.07021 0.35830
 C1276 C 0.33030 0.09466 0.33970
 H1277 H 0.37135 0.10634 0.47804
 H1278 H 0.32326 0.15160 0.44379
 H1279 H 0.38397 0.16661 0.30962
 H1280 H 0.43175 0.12190 0.34304
 H1281 H 0.35530 0.04043 0.35002
 H1282 H 0.30695 0.08557 0.31558
 C1283 C 0.88382 0.41209 0.60294
 C1284 C 0.89218 0.37205 0.58436
 C1285 C 0.86814 0.34619 0.60321
 C1286 C 0.83760 0.36259 0.63938
 C1287 C 0.85861 0.38412 0.68315
 C1288 C 0.88275 0.41006 0.66412
 C1289 C 0.84324 0.41904 0.58606
 C1290 C 0.81898 0.39297 0.60530
 H1291 H 0.91486 0.36471 0.55771
 H1292 H 0.87051 0.31691 0.59228
 H1293 H 0.85448 0.37962 0.72554
 H1294 H 0.89926 0.42774 0.69022
 H1295 H 0.83430 0.44221 0.56125
 H1296 H 0.78945 0.39382 0.59688
 C1297 C 0.88656 0.58923 0.09676
 C1298 C 0.88725 0.58938 0.15822
 C1299 C 0.86333 0.61435 0.18092
 C1300 C 0.84069 0.63704 0.14031
 C1301 C 0.87010 0.65476 0.10316
 C1302 C 0.89378 0.62989 0.08076
 C1303 C 0.84550 0.58239 0.08224
 C1304 C 0.82152 0.60746 0.10511
 H1305 H 0.90485 0.57117 0.18187
 H1306 H 0.86059 0.61747 0.22391
 H1307 H 0.87203 0.68436 0.09410
 H1308 H 0.91547 0.63845 0.05320
 H1309 H 0.83605 0.55996 0.05634
 H1310 H 0.79175 0.60638 0.09867
 C1311 C 0.61313 0.40910 0.59992
 C1312 C 0.64389 0.42885 0.63194
 C1313 C 0.66892 0.40489 0.65470
 C1314 C 0.66080 0.36327 0.64328
 C1315 C 0.62080 0.35751 0.66233
 C1316 C 0.59598 0.38115 0.63991
 C1317 C 0.63401 0.38454 0.55944
 C1318 C 0.65887 0.36060 0.58200
 H1319 H 0.64586 0.45900 0.63622
 H1320 H 0.69223 0.41472 0.67829
 H1321 H 0.61267 0.33676 0.69176
 H1322 H 0.56683 0.38021 0.65078
 H1323 H 0.63013 0.38638 0.51659
 H1324 H 0.67608 0.34195 0.55832
 C1325 C 0.11252 0.08923 0.40183
 C1326 C 0.11138 0.09001 0.34040
 C1327 C 0.13538 0.11499 0.31801
 C1328 C 0.15853 0.13705 0.35886
 C1329 C 0.12957 0.15467 0.39689
 C1330 C 0.10579 0.12979 0.41898
 C1331 C 0.15364 0.08186 0.41550
 C1332 C 0.17768 0.10695 0.39297
 H1333 H 0.09343 0.07223 0.31655
 H1334 H 0.13784 0.11853 0.27507
 H1335 H 0.12804 0.18419 0.40678
 H1336 H 0.08439 0.13825 0.44712
 H1337 H 0.16308 0.05907 0.44064
 H1338 H 0.20748 0.10553 0.39894
 C1339 C 0.38783 0.91063 0.89540
 C1340 C 0.40494 0.88249 0.85558
 C1341 C 0.38007 0.85871 0.83338
 C1342 C 0.34006 0.86457 0.85251
 C1343 C 0.34209 0.86230 0.91379
 C1344 C 0.36700 0.88631 0.93608
 C1345 C 0.35701 0.93021 0.86330
 C1346 C 0.33192 0.90609 0.84077
 H1347 H 0.43408 0.88158 0.84463
 H1348 H 0.38814 0.83783 0.80401
 H1349 H 0.32491 0.84382 0.93770
 H1350 H 0.37098 0.88836 0.97889
 H1351 H 0.35507 0.96032 0.85876
 H1352 H 0.30858 0.91574 0.81712
 C1353 C 0.11136 0.90758 0.60792
 C1354 C 0.14146 0.92693 0.64160
 C1355 C 0.16657 0.90277 0.66356
 C1356 C 0.15919 0.86132 0.64986
 C1357 C 0.11909 0.85445 0.66767
 C1358 C 0.09419 0.87840 0.64608
 C1359 C 0.13292 0.88430 0.56659
 C1360 C 0.15791 0.86014 0.58847
 H1361 H 0.14288 0.95696 0.64768
 H1362 H 0.18939 0.91235 0.68833
 H1363 H 0.11099 0.83287 0.69585
 H1364 H 0.06496 0.87686 0.65639
 H1365 H 0.12902 0.88677 0.52372
 H1366 H 0.17536 0.84205 0.56428
 C1367 C 0.61434 0.59020 0.39310
 C1368 C 0.61238 0.59164 0.33174
 C1369 C 0.63629 0.61659 0.30925
 C1370 C 0.66015 0.63803 0.34984
 C1371 C 0.63192 0.65554 0.38903
 C1372 C 0.60828 0.63063 0.41140
 C1373 C 0.65554 0.58226 0.40543
 C1374 C 0.67950 0.60737 0.38272
 H1375 H 0.59418 0.57404 0.30797
 H1376 H 0.63855 0.62016 0.26640
 H1377 H 0.63074 0.68500 0.39938
 H1378 H 0.58733 0.63900 0.44027
 H1379 H 0.66511 0.55901 0.42959
 H1380 H 0.70937 0.60552 0.38759
 C1381 C 0.38473 0.08988 0.10541
 C1382 C 0.38665 0.09136 0.16679
 C1383 C 0.36267 0.11625 0.18935
 C1384 C 0.33876 0.13758 0.14880
 C1385 C 0.36695 0.15515 0.10968
 C1386 C 0.39067 0.13031 0.08727
 C1387 C 0.34357 0.08178 0.09300
 C1388 C 0.31951 0.10682 0.11580
 H1389 H 0.40491 0.07386 0.19052
 H1390 H 0.36043 0.11991 0.23223
 H1391 H 0.36805 0.18460 0.09941
 H1392 H 0.41161 0.13872 0.05844
 H1393 H 0.33410 0.05847 0.06875
 H1394 H 0.28965 0.10486 0.11091
 C1395 C 0.89020 0.41042 0.88813
 C1396 C 0.90618 0.38257 0.85138
 C1397 C 0.87955 0.35765 0.82914
 C1398 C 0.84172 0.36473 0.84700
 C1399 C 0.84318 0.36352 0.90533
 C1400 C 0.86992 0.38859 0.92797
 C1401 C 0.86155 0.42932 0.85668
 C1402 C 0.83466 0.40406 0.83393
 H1403 H 0.93502 0.38142 0.83884
 H1404 H 0.88705 0.33662 0.79963
 H1405 H 0.82544 0.34589 0.92975
 H1406 H 0.87403 0.39112 0.97085
 H1407 H 0.86049 0.45935 0.85041
 H1408 H 0.81174 0.41369 0.80942
 C1409 C 0.61614 0.08748 0.89825
 C1410 C 0.61655 0.09057 0.83715
 C1411 C 0.64104 0.11636 0.81840
 C1412 C 0.66314 0.13671 0.86235
 C1413 C 0.63338 0.15307 0.89987
 C1414 C 0.60895 0.12740 0.91836
 C1415 C 0.65682 0.07943 0.91378
 C1416 C 0.68145 0.10530 0.89482
 H1417 H 0.59931 0.07375 0.81087
 H1418 H 0.64465 0.12157 0.77600
 H1419 H 0.63177 0.18220 0.91188
 H1420 H 0.58670 0.13480 0.94573
 H1421 H 0.66558 0.05554 0.93730
 H1422 H 0.71107 0.10358 0.90230
 C1423 C 0.38618 0.58658 0.60667
 C1424 C 0.40191 0.61651 0.64474
 C1425 C 0.37610 0.64070 0.66340
 C1426 C 0.33670 0.63313 0.64290
 C1427 C 0.34004 0.63319 0.58181
 C1428 C 0.36599 0.60890 0.56287
 C1429 C 0.35507 0.56756 0.63862
 C1430 C 0.32906 0.59195 0.65777
 H1431 H 0.43073 0.61842 0.65700
 H1432 H 0.38308 0.66303 0.69112
 H1433 H 0.32328 0.65053 0.55570
 H1434 H 0.37138 0.60554 0.52047
 H1435 H 0.35363 0.53765 0.64558
 H1436 H 0.30529 0.58269 0.68090
 C1437 C 0.11501 0.41389 0.10503
 C1438 C 0.15598 0.42209 0.09116
 C1439 C 0.18029 0.39633 0.11112
 C1440 C 0.16143 0.36487 0.14284
 C1441 C 0.13841 0.38513 0.18592
 C1442 C 0.11417 0.41081 0.16615
 C1443 C 0.10836 0.37399 0.08464
 C1444 C 0.13245 0.34844 0.10410
 H1445 H 0.16516 0.44604 0.06809
 H1446 H 0.21005 0.39820 0.10494
 H1447 H 0.14129 0.38001 0.22845
 H1448 H 0.09637 0.42761 0.19169
 H1449 H 0.08666 0.36648 0.05646
 H1450 H 0.13109 0.31931 0.09201
 C1451 C 0.88407 0.91415 0.39386
 C1452 C 0.88480 0.91080 0.33277
 C1453 C 0.86045 0.88511 0.31327
 C1454 C 0.83745 0.86519 0.35660
 C1455 C 0.86642 0.84881 0.39528
 C1456 C 0.89065 0.87435 0.41445
 C1457 C 0.84319 0.92261 0.40790
 C1458 C 0.81874 0.89685 0.38821
 H1459 H 0.90262 0.92739 0.30706
 H1460 H 0.85749 0.87975 0.27079
 H1461 H 0.86765 0.81975 0.40761
 H1462 H 0.91235 0.86692 0.44263
 H1463 H 0.83416 0.94674 0.43085
 H1464 H 0.78899 0.89886 0.39448
 C1465 C 0.88480 0.58998 0.60540
 C1466 C 0.88660 0.59104 0.66679
 C1467 C 0.86268 0.61589 0.68958
 C1468 C 0.83896 0.63760 0.64922
 C1469 C 0.86733 0.65530 0.61047
 C1470 C 0.89097 0.63050 0.58782
 C1471 C 0.84364 0.58215 0.59269
 C1472 C 0.81965 0.60716 0.61572
 H1473 H 0.90467 0.57324 0.69037
 H1474 H 0.86025 0.61914 0.73248
 H1475 H 0.86860 0.68481 0.60059
 H1476 H 0.91201 0.63901 0.55919
 H1477 H 0.83412 0.55905 0.56808
 H1478 H 0.78979 0.60538 0.61067
 C1479 C 0.61122 0.40734 0.10790
 C1480 C 0.64124 0.42673 0.14170
 C1481 C 0.66635 0.40260 0.16373
 C1482 C 0.65906 0.36114 0.14998
 C1483 C 0.61895 0.35421 0.16765
 C1484 C 0.59403 0.37812 0.14598
 C1485 C 0.63289 0.38411 0.06663
 C1486 C 0.65788 0.35999 0.08859
 H1487 H 0.64260 0.45676 0.14781
 H1488 H 0.68911 0.41221 0.18860
 H1489 H 0.61083 0.33260 0.19579
 H1490 H 0.56479 0.37653 0.15617
 H1491 H 0.62905 0.38658 0.02375
 H1492 H 0.67540 0.34193 0.06444
 C1493 C 0.38909 0.90957 0.38939
 C1494 C 0.40635 0.88005 0.35176
 C1495 C 0.38137 0.85633 0.32964
 C1496 C 0.34114 0.86372 0.34651
 C1497 C 0.34175 0.86287 0.40794
 C1498 C 0.36679 0.88676 0.43028
 C1499 C 0.35956 0.92913 0.35489
 C1500 C 0.33439 0.90514 0.33239
 H1501 H 0.43566 0.87814 0.34217
 H1502 H 0.38953 0.83456 0.30167
 H1503 H 0.32377 0.84516 0.43184
 H1504 H 0.37023 0.88937 0.47322
 H1505 H 0.35859 0.95914 0.34861
 H1506 H 0.31198 0.91481 0.30698
 C1507 C 0.11414 0.09064 0.89353
 C1508 C 0.11207 0.09215 0.83219
 C1509 C 0.13586 0.11720 0.80968
 C1510 C 0.15972 0.13866 0.85026
 C1511 C 0.13151 0.15605 0.88957
 C1512 C 0.10799 0.13104 0.91196
 C1513 C 0.15537 0.08280 0.90572
 C1514 C 0.17922 0.10802 0.88300
 H1515 H 0.09389 0.07453 0.80842
 H1516 H 0.13803 0.12086 0.76683
 H1517 H 0.13028 0.18550 0.89999
 H1518 H 0.08706 0.13930 0.94093
 H1519 H 0.16504 0.05956 0.92980
 H1520 H 0.20910 0.10626 0.88779
 C1521 C 0.11321 0.90874 0.09914
 C1522 C 0.14400 0.92837 0.13127
 C1523 C 0.16903 0.90432 0.15382
 C1524 C 0.16089 0.86274 0.14213
 C1525 C 0.12089 0.85693 0.16119
 C1526 C 0.09607 0.88066 0.13896
 C1527 C 0.13406 0.88431 0.05847
 C1528 C 0.15892 0.86028 0.08084
 H1529 H 0.14599 0.95850 0.13575
 H1530 H 0.19236 0.91406 0.17745
 H1531 H 0.11277 0.83608 0.19047
 H1532 H 0.06693 0.87970 0.14986
 H1533 H 0.13016 0.88630 0.01565
 H1534 H 0.17611 0.84170 0.05701
 C1535 C 0.88765 0.41062 0.39552
 C1536 C 0.90476 0.38256 0.35559
 C1537 C 0.87990 0.35875 0.33343
 C1538 C 0.83991 0.36451 0.35271
 C1539 C 0.84204 0.36219 0.41398
 C1540 C 0.86694 0.38623 0.43623
 C1541 C 0.85674 0.43017 0.36356
 C1542 C 0.83166 0.40603 0.34107
 H1543 H 0.93388 0.38172 0.34453
 H1544 H 0.88796 0.33791 0.30400
 H1545 H 0.82495 0.34363 0.43790
 H1546 H 0.87101 0.38822 0.47904
 H1547 H 0.85473 0.46028 0.35909
 H1548 H 0.80827 0.41565 0.31752
 C1549 C 0.38645 0.08941 0.59896
 C1550 C 0.38718 0.09009 0.66041
 C1551 C 0.36319 0.11518 0.68269
 C1552 C 0.34045 0.13743 0.64170
 C1553 C 0.36975 0.15494 0.60421
 C1554 C 0.39351 0.12997 0.58224
 C1555 C 0.34540 0.08229 0.58464
 C1556 C 0.32135 0.10749 0.60707
 H1557 H 0.40486 0.07215 0.68436
 H1558 H 0.36047 0.11866 0.72562
 H1559 H 0.37154 0.18446 0.59458
 H1560 H 0.41514 0.13835 0.55445
 H1561 H 0.33601 0.05959 0.55918
 H1562 H 0.29158 0.10624 0.60069
 C1563 C 0.61272 0.58914 0.90222
 C1564 C 0.61166 0.59007 0.84080
 C1565 C 0.63574 0.61505 0.81859
 C1566 C 0.65889 0.63696 0.85961
 C1567 C 0.62992 0.65455 0.89765
 C1568 C 0.60606 0.62968 0.91955
 C1569 C 0.65381 0.58164 0.91595
 C1570 C 0.67793 0.60674 0.89362
 H1571 H 0.59369 0.57239 0.81681
 H1572 H 0.63825 0.61869 0.77567
 H1573 H 0.62844 0.68405 0.90769
 H1574 H 0.58464 0.63811 0.94766
 H1575 H 0.66317 0.55877 0.94099
 H1576 H 0.70772 0.60523 0.89965
 C1577 C 0.38382 0.41462 0.89378
 C1578 C 0.38441 0.41128 0.83268
 C1579 C 0.35995 0.38565 0.81331
 C1580 C 0.33700 0.36577 0.85674
 C1581 C 0.36602 0.34933 0.89529
 C1582 C 0.39036 0.37481 0.91433
 C1583 C 0.34298 0.42317 0.90801
 C1584 C 0.31843 0.39748 0.88842
 H1585 H 0.40221 0.42783 0.80690
 H1586 H 0.35689 0.38029 0.77084
 H1587 H 0.36723 0.32027 0.90761
 H1588 H 0.41212 0.36732 0.94237
 H1589 H 0.33405 0.44733 0.93098
 H1590 H 0.28870 0.39956 0.89483
 C1591 C 0.88624 0.08641 0.10712
 C1592 C 0.90196 0.11635 0.14518
 C1593 C 0.87615 0.14057 0.16377
 C1594 C 0.83675 0.13300 0.14323
 C1595 C 0.84014 0.13303 0.08215
 C1596 C 0.86608 0.10872 0.06328
 C1597 C 0.85510 0.06742 0.13905
 C1598 C 0.82909 0.09183 0.15813
 H1599 H 0.93078 0.11825 0.15747
 H1600 H 0.88312 0.16292 0.19146
 H1601 H 0.82340 0.15038 0.05600
 H1602 H 0.87151 0.10535 0.02090
 H1603 H 0.85365 0.03751 0.14604
 H1604 H 0.80531 0.08260 0.18125
 C1605 C 0.61539 0.91420 0.60739
 C1606 C 0.65633 0.92252 0.59351
 C1607 C 0.68070 0.89670 0.61319
 C1608 C 0.66191 0.86509 0.64468
 C1609 C 0.63890 0.88514 0.68797
 C1610 C 0.61461 0.91087 0.66848
 C1611 C 0.60878 0.87438 0.58666
 C1612 C 0.63292 0.84878 0.60586
 H1613 H 0.66546 0.94659 0.57064
 H1614 H 0.71045 0.89864 0.60697
 H1615 H 0.64184 0.87986 0.73044
 H1616 H 0.59683 0.92755 0.69420
 H1617 H 0.58712 0.86698 0.55836
 H1618 H 0.63163 0.81971 0.59344
 C1619 C 0.11609 0.58705 0.39735
 C1620 C 0.11630 0.59007 0.33623
 C1621 C 0.14081 0.61575 0.31724
 C1622 C 0.16313 0.63607 0.36099
 C1623 C 0.13355 0.65257 0.39870
 C1624 C 0.10911 0.62701 0.41743
 C1625 C 0.15680 0.57887 0.41260
 C1626 C 0.18145 0.60464 0.39340
 H1627 H 0.09892 0.57328 0.31013
 H1628 H 0.14430 0.62090 0.27480
 H1629 H 0.13208 0.68171 0.41068
 H1630 H 0.08699 0.63451 0.44495
 H1631 H 0.16556 0.55497 0.43610
 H1632 H 0.21109 0.60282 0.40065
   
