data_POSCAR
  _audit_creation_date              2014-09-24
  _audit_creation_method            'ToBaCCo'
  _symmetry_space_group_name_H-M    'P1'
  _symmetry_Int_Tables_number       1
  _symmetry_cell_setting            triclinic
  loop_
  _symmetry_equiv_pos_as_xyz
 x,y,z
_cell_length_a 53.4145
_cell_length_b 50.2843
_cell_length_c 50.8029
_cell_angle_alpha 90.186700
_cell_angle_beta 89.921500
_cell_angle_gamma 90.390300
loop_
  _atom_site_label
  _atom_site_type_symbol
  _atom_site_fract_x
  _atom_site_fract_y
  _atom_site_fract_z
N1 N 0.35925 0.29849 0.31612
 N2 N 0.36296 0.30895 0.29273
 C3 C 0.38572 0.30196 0.28376
 C4 C 0.39709 0.28671 0.30276
 C5 C 0.37983 0.28486 0.32307
 H6 H 0.39389 0.30861 0.26541
 H7 H 0.38212 0.27445 0.34149
 Cu8 Cu 0.33931 0.33365 0.27790
 Cu9 Cu 0.32768 0.30306 0.33530
 Cu10 Cu 0.28467 0.34630 0.30742
 N11 N 0.32122 0.36616 0.27092
 N12 N 0.29930 0.37067 0.28177
 C13 C 0.29060 0.39413 0.27311
 C14 C 0.30837 0.40511 0.25649
 C15 C 0.32758 0.38688 0.25552
 H16 H 0.27306 0.40293 0.27910
 H17 H 0.34482 0.38849 0.24442
 N18 N 0.27807 0.32661 0.34025
 N19 N 0.29437 0.31025 0.35100
 C20 C 0.28446 0.30044 0.37343
 C21 C 0.26105 0.31143 0.37709
 C22 C 0.25759 0.32794 0.35572
 H23 H 0.29371 0.28669 0.38647
 H24 H 0.24151 0.34029 0.35189
 H25 H 0.30593 0.31163 0.30348
 H26 H 0.32026 0.34063 0.32078
 N27 N 0.36199 0.79968 -0.18173
 N28 N 0.35447 0.81515 -0.20091
 C29 C 0.37292 0.81777 -0.21873
 C30 C 0.39320 0.80323 -0.21022
 C31 C 0.38567 0.79193 -0.18665
 H32 H 0.37178 0.82969 -0.23635
 H33 H 0.39666 0.77940 -0.17389
 Cu34 Cu 0.32192 0.83177 -0.20022
 Cu35 Cu 0.34075 0.79267 -0.15121
 Cu36 Cu 0.27802 0.81004 -0.15818
 N37 N 0.28998 0.84937 -0.19695
 N38 N 0.27207 0.83985 -0.18184
 C39 C 0.25131 0.85457 -0.18512
 C40 C 0.25696 0.87475 -0.20272
 C41 C 0.28163 0.87093 -0.20969
 H42 H 0.23384 0.85137 -0.17477
 H43 H 0.29254 0.88277 -0.22331
 N44 N 0.29061 0.78824 -0.12879
 N45 N 0.31432 0.78123 -0.12651
 C46 C 0.31709 0.76718 -0.10423
 C47 C 0.29423 0.76581 -0.09160
 C48 C 0.27784 0.77941 -0.10759
 H49 H 0.33469 0.75960 -0.09703
 H50 H 0.25824 0.78312 -0.10376
 H51 H 0.31011 0.79248 -0.17457
 H52 H 0.31398 0.82296 -0.15393
 N53 N 0.87397 0.29848 -0.19537
 N54 N 0.86968 0.31856 -0.21119
 C55 C 0.88200 0.31490 -0.23394
 C56 C 0.89524 0.29155 -0.23208
 C57 C 0.88999 0.28166 -0.20726
 H58 H 0.88246 0.32893 -0.25004
 H59 H 0.89734 0.26377 -0.19849
 Cu60 Cu 0.85119 0.34919 -0.19940
 Cu61 Cu 0.85779 0.29668 -0.16086
 Cu62 Cu 0.80329 0.33497 -0.15980
 N63 N 0.82915 0.37654 -0.18665
 N64 N 0.80806 0.37069 -0.17458
 C65 C 0.79374 0.39275 -0.17358
 C66 C 0.80750 0.41358 -0.18434
 C67 C 0.82991 0.40254 -0.19213
 H68 H 0.77521 0.39371 -0.16503
 H69 H 0.84479 0.41221 -0.20302
 N70 N 0.80949 0.30475 -0.13559
 N71 N 0.83078 0.29149 -0.13507
 C72 C 0.83048 0.27455 -0.11465
 C73 C 0.80789 0.27716 -0.10172
 C74 C 0.79494 0.29630 -0.11555
 H75 H 0.84563 0.26139 -0.10954
 H76 H 0.77677 0.30431 -0.11065
 H77 H 0.82845 0.31134 -0.18075
 H78 H 0.84127 0.33438 -0.15517
 N79 N 0.86601 0.80864 0.31766
 N80 N 0.85965 0.82821 0.30197
 C81 C 0.87677 0.83045 0.28261
 C82 C 0.89484 0.81134 0.28656
 C83 C 0.88735 0.79773 0.30881
 H84 H 0.87707 0.84611 0.26806
 H85 H 0.89767 0.78237 0.31887
 Cu86 Cu 0.83239 0.85210 0.31061
 Cu87 Cu 0.84858 0.80176 0.35057
 Cu88 Cu 0.80135 0.84495 0.36754
 N89 N 0.81404 0.88123 0.32649
 N90 N 0.80366 0.87918 0.34989
 C91 C 0.79286 0.90248 0.35627
 C92 C 0.79626 0.91973 0.33536
 C93 C 0.80968 0.90559 0.31682
 H94 H 0.78186 0.90587 0.37384
 H95 H 0.81556 0.91241 0.29758
 N96 N 0.80782 0.81190 0.38690
 N97 N 0.82585 0.79526 0.38045
 C98 C 0.82556 0.77469 0.39737
 C99 C 0.80645 0.77874 0.41526
 C100 C 0.79558 0.80243 0.40807
 H101 H 0.83840 0.75817 0.39688
 H102 H 0.78009 0.81217 0.41776
 H103 H 0.81498 0.81799 0.33948
 H104 H 0.83746 0.84091 0.35665
 N105 N 0.63423 0.68893 0.33691
 N106 N 0.63504 0.66368 0.33019
 C107 C 0.61210 0.65572 0.32236
 C108 C 0.59625 0.67731 0.32397
 C109 C 0.61093 0.69811 0.33300
 H110 H 0.60776 0.63638 0.31411
 H111 H 0.60535 0.71858 0.33563
 Cu112 Cu 0.66674 0.64502 0.32804
 Cu113 Cu 0.66388 0.70818 0.34859
 Cu114 Cu 0.71654 0.67005 0.35988
 N115 N 0.70048 0.63298 0.32019
 N116 N 0.72016 0.64289 0.33242
 C117 C 0.74087 0.63056 0.32352
 C118 C 0.73364 0.61201 0.30473
 C119 C 0.70792 0.61405 0.30319
 H120 H 0.75964 0.63441 0.33062
 H121 H 0.69553 0.60240 0.29082
 N122 N 0.71098 0.70459 0.37734
 N123 N 0.69151 0.71965 0.37186
 C124 C 0.69138 0.74064 0.38835
 C125 C 0.71152 0.73854 0.40523
 C126 C 0.72365 0.71553 0.39763
 H127 H 0.67640 0.75495 0.38960
 H128 H 0.73951 0.70653 0.40727
 H129 H 0.69274 0.68488 0.33375
 H130 H 0.67738 0.67382 0.36497
 N131 N 0.62429 0.21823 -0.21715
 N132 N 0.62180 0.20153 -0.23694
 C133 C 0.59846 0.20366 -0.24679
 C134 C 0.58568 0.22216 -0.23174
 C135 C 0.60261 0.23100 -0.21317
 H136 H 0.59107 0.19192 -0.26292
 H137 H 0.59945 0.24569 -0.19794
 Cu138 Cu 0.64893 0.17723 -0.24622
 Cu139 Cu 0.65557 0.22215 -0.19846
 Cu140 Cu 0.68824 0.16601 -0.19269
 N141 N 0.67186 0.14675 -0.24427
 N142 N 0.68652 0.14211 -0.22386
 C143 C 0.69924 0.11945 -0.22834
 C144 C 0.69200 0.10929 -0.25253
 C145 C 0.67467 0.12716 -0.26211
 H146 H 0.71250 0.11074 -0.21485
 H147 H 0.66441 0.12578 -0.28040
 N148 N 0.69314 0.19616 -0.16859
 N149 N 0.68137 0.21870 -0.17234
 C150 C 0.68798 0.23624 -0.15363
 C151 C 0.70443 0.22395 -0.13677
 C152 C 0.70729 0.19842 -0.14667
 H153 H 0.68027 0.25597 -0.15157
 H154 H 0.71863 0.18272 -0.13853
 H155 H 0.68014 0.19025 -0.22372
 H156 H 0.65278 0.17455 -0.20689
 N157 N 0.14015 0.68784 -0.17914
 N158 N 0.14729 0.66736 -0.19336
 C159 C 0.13156 0.66415 -0.21379
 C160 C 0.11337 0.68344 -0.21200
 C161 C 0.11926 0.69810 -0.18976
 H162 H 0.13297 0.64865 -0.22850
 H163 H 0.10915 0.71495 -0.18197
 Cu164 Cu 0.17582 0.64611 -0.18347
 Cu165 Cu 0.15844 0.69910 -0.14782
 Cu166 Cu 0.21607 0.66928 -0.13833
 N167 N 0.20956 0.63264 -0.18119
 N168 N 0.22574 0.64238 -0.16415
 C169 C 0.24753 0.62931 -0.16675
 C170 C 0.24465 0.61039 -0.18640
 C171 C 0.22038 0.61304 -0.19512
 H172 H 0.26388 0.63266 -0.15462
 H173 H 0.21118 0.60133 -0.21022
 N174 N 0.20467 0.70009 -0.11734
 N175 N 0.18279 0.71155 -0.12120
 C176 C 0.17998 0.73135 -0.10356
 C177 C 0.20093 0.73215 -0.08765
 C178 C 0.21621 0.71214 -0.09690
 H179 H 0.16354 0.74365 -0.10177
 H180 H 0.23415 0.70646 -0.08890
 H181 H 0.19173 0.68708 -0.16429
 H182 H 0.17783 0.66506 -0.13873
 N183 N 0.11354 0.20070 0.30975
 N184 N 0.11146 0.18573 0.28855
 C185 C 0.08958 0.19128 0.27647
 C186 C 0.07721 0.21032 0.29130
 C187 C 0.09292 0.21569 0.31228
 H188 H 0.08267 0.18143 0.25895
 H189 H 0.08961 0.22951 0.32825
 Cu190 Cu 0.13663 0.15860 0.28094
 Cu191 Cu 0.14264 0.19938 0.33292
 Cu192 Cu 0.19422 0.16921 0.30485
 N193 N 0.16268 0.13138 0.27837
 N194 N 0.18565 0.13658 0.28623
 C195 C 0.19999 0.11500 0.28255
 C196 C 0.18515 0.09488 0.27253
 C197 C 0.16151 0.10590 0.26997
 H198 H 0.21939 0.11351 0.28846
 H199 H 0.14467 0.09597 0.26320
 N200 N 0.19674 0.19341 0.33510
 N201 N 0.17701 0.20404 0.34662
 C202 C 0.18447 0.21641 0.36887
 C203 C 0.21000 0.21294 0.37159
 C204 C 0.21720 0.19843 0.34977
 H205 H 0.17207 0.22590 0.38282
 H206 H 0.23561 0.19056 0.34575
 H207 H 0.16275 0.19404 0.29995
 H208 H 0.16012 0.16429 0.32166
 N209 N 0.62802 0.31822 0.67330
 N210 N 0.62674 0.32506 0.69840
 C211 C 0.60472 0.31609 0.70830
 C212 C 0.59178 0.30309 0.68829
 C213 C 0.60695 0.30532 0.66650
 H214 H 0.60000 0.31600 0.72901
 H215 H 0.60447 0.29477 0.64808
 Cu216 Cu 0.65668 0.33899 0.71726
 Cu217 Cu 0.65961 0.31483 0.65362
 Cu218 Cu 0.71102 0.31907 0.69001
 N219 N 0.68867 0.35754 0.72472
 N220 N 0.70969 0.34852 0.71464
 C221 C 0.72872 0.36455 0.72160
 C222 C 0.71939 0.38510 0.73664
 C223 C 0.69380 0.38010 0.73836
 H224 H 0.74778 0.36214 0.71486
 H225 H 0.67995 0.39229 0.74809
 N226 N 0.71086 0.29960 0.65699
 N227 N 0.69068 0.29894 0.64223
 C228 C 0.69606 0.28723 0.61914
 C229 C 0.72090 0.28000 0.61955
 C230 C 0.72986 0.28809 0.64387
 H231 H 0.68306 0.28498 0.60296
 H232 H 0.74895 0.28715 0.65086
 H233 H 0.66744 0.30658 0.69263
 H234 H 0.67148 0.34184 0.68155
 N235 N 0.64789 0.79009 1.21043
 N236 N 0.65868 0.78975 1.23370
 C237 C 0.64547 0.77379 1.24989
 C238 C 0.62517 0.76409 1.23598
 C239 C 0.62709 0.77490 1.21115
 H240 H 0.64995 0.77006 1.27030
 H241 H 0.61459 0.77158 1.19470
 Cu242 Cu 0.68768 0.81197 1.24089
 Cu243 Cu 0.66202 0.80970 1.18080
 Cu244 Cu 0.72257 0.83236 1.19020
 N245 N 0.71007 0.84249 1.24406
 N246 N 0.72386 0.85056 1.22411
 C247 C 0.73475 0.87398 1.23031
 C248 C 0.72724 0.88091 1.25539
 C249 C 0.71179 0.86039 1.26368
 H250 H 0.74582 0.88593 1.21692
 H251 H 0.70102 0.85955 1.28170
 N252 N 0.70882 0.82511 1.15538
 N253 N 0.68503 0.81885 1.15159
 C254 C 0.68106 0.81586 1.12558
 C255 C 0.70354 0.82007 1.11271
 C256 C 0.72077 0.82569 1.13212
 H257 H 0.66368 0.80906 1.11687
 H258 H 0.74061 0.82942 1.12961
 H259 H 0.69604 0.80074 1.19517
 H260 H 0.68583 0.83591 1.19907
 N261 N 0.11333 0.30856 1.15687
 N262 N 0.12090 0.32523 1.17544
 C263 C 0.10709 0.32124 1.19722
 C264 C 0.08983 0.30137 1.19210
 C265 C 0.09414 0.29381 1.16633
 H266 H 0.10948 0.33192 1.21555
 H267 H 0.08456 0.27817 1.15562
 Cu268 Cu 0.14877 0.35076 1.17097
 Cu269 Cu 0.13045 0.30540 1.12236
 Cu270 Cu 0.18145 0.34380 1.11563
 N271 N 0.18014 0.36996 1.16532
 N272 N 0.19353 0.36618 1.14394
 C273 C 0.21456 0.38091 1.14533
 C274 C 0.21406 0.39510 1.16862
 C275 C 0.19191 0.38787 1.18084
 H276 H 0.22881 0.38183 1.13021
 H277 H 0.18502 0.39491 1.19962
 N278 N 0.17486 0.31465 1.09176
 N279 N 0.15430 0.30022 1.09354
 C280 C 0.15371 0.28273 1.07336
 C281 C 0.17532 0.28629 1.05864
 C282 C 0.18834 0.30649 1.07096
 H283 H 0.13888 0.26840 1.06985
 H284 H 0.20604 0.31504 1.06483
 H285 H 0.15838 0.31812 1.14763
 H286 H 0.13818 0.34392 1.13265
 N287 N 0.12906 0.77309 0.66689
 N288 N 0.12430 0.79023 0.68582
 C289 C 0.10251 0.78357 0.69748
 C290 C 0.09300 0.76133 0.68490
 C291 C 0.11026 0.75516 0.66556
 H292 H 0.09403 0.79426 0.71367
 H293 H 0.10949 0.73856 0.65198
 Cu294 Cu 0.14678 0.81989 0.69307
 Cu295 Cu 0.16019 0.77426 0.64691
 Cu296 Cu 0.19292 0.83405 0.65021
 N297 N 0.16399 0.85407 0.69352
 N298 N 0.18303 0.85888 0.67776
 C299 C 0.19232 0.88328 0.68303
 C300 C 0.17791 0.89453 0.70261
 C301 C 0.16003 0.87557 0.70882
 H302 H 0.20794 0.89247 0.67289
 H303 H 0.14554 0.87716 0.72363
 N304 N 0.20000 0.80627 0.62380
 N305 N 0.18806 0.78320 0.62300
 C306 C 0.19683 0.76883 0.60256
 C307 C 0.21483 0.78379 0.58976
 C308 C 0.21641 0.80735 0.60371
 H309 H 0.18988 0.74945 0.59669
 H310 H 0.22836 0.82417 0.59923
 H311 H 0.18223 0.80002 0.66927
 H312 H 0.15839 0.81489 0.64709
 N313 N 0.39997 0.69804 0.66825
 N314 N 0.40505 0.68316 0.68877
 C315 C 0.42314 0.69479 0.70312
 C316 C 0.43005 0.71807 0.69081
 C317 C 0.41515 0.71959 0.66858
 H318 H 0.43062 0.68696 0.72127
 H319 H 0.41470 0.73553 0.65435
 Cu320 Cu 0.38769 0.64999 0.69528
 Cu321 Cu 0.37239 0.68872 0.64453
 Cu322 Cu 0.32757 0.65128 0.67780
 N323 N 0.36467 0.62279 0.70700
 N324 N 0.34082 0.62376 0.70081
 C325 C 0.32874 0.60344 0.71255
 C326 C 0.34611 0.58888 0.72647
 C327 C 0.36876 0.60166 0.72255
 H328 H 0.30892 0.59934 0.71075
 H329 H 0.38674 0.59623 0.73058
 N330 N 0.32021 0.67236 0.64601
 N331 N 0.33753 0.68520 0.63236
 C332 C 0.32701 0.69543 0.61057
 C333 C 0.30184 0.68888 0.61072
 C334 C 0.29816 0.67432 0.63343
 H335 H 0.33687 0.70694 0.59584
 H336 H 0.28088 0.66504 0.63984
 H337 H 0.35563 0.67998 0.67879
 H338 H 0.36015 0.65054 0.65694
 N339 N 0.36320 0.20595 1.16947
 N340 N 0.36705 0.18522 1.18489
 C341 C 0.38585 0.19101 1.20170
 C342 C 0.39395 0.21664 1.19682
 C343 C 0.37921 0.22555 1.17637
 H344 H 0.39279 0.17778 1.21672
 H345 H 0.38035 0.24479 1.16700
 Cu346 Cu 0.34658 0.15231 1.18325
 Cu347 Cu 0.33829 0.20607 1.14049
 Cu348 Cu 0.30660 0.14930 1.13336
 N349 N 0.31814 0.12740 1.18330
 N350 N 0.30267 0.12656 1.16324
 C351 C 0.28395 0.10945 1.16820
 C352 C 0.28785 0.09867 1.19267
 C353 C 0.30991 0.11015 1.20176
 H354 H 0.26841 0.10556 1.15509
 H355 H 0.31874 0.10696 1.22063
 N356 N 0.30071 0.17864 1.11045
 N357 N 0.31276 0.20137 1.11297
 C358 C 0.30295 0.21893 1.09579
 C359 C 0.28343 0.20634 1.08263
 C360 C 0.28267 0.18089 1.09235
 H361 H 0.30863 0.23954 1.09402
 H362 H 0.26934 0.16539 1.08736
 H363 H 0.32301 0.17896 1.16672
 H364 H 0.34829 0.16681 1.14466
 N365 N 0.87484 0.71426 1.21402
 N366 N 0.88152 0.68935 1.21713
 C367 C 0.90069 0.68812 1.23407
 C368 C 0.90646 0.71359 1.24206
 C369 C 0.88997 0.72992 1.22877
 H370 H 0.90988 0.66998 1.23996
 H371 H 0.88878 0.75134 1.23015
 Cu372 Cu 0.86528 0.66032 1.19879
 Cu373 Cu 0.84640 0.72279 1.19148
 Cu374 Cu 0.80553 0.67355 1.17715
 N375 N 0.84021 0.63252 1.19259
 N376 N 0.81654 0.63753 1.18729
 C377 C 0.80298 0.61510 1.19109
 C378 C 0.81921 0.59519 1.19880
 C379 C 0.84257 0.60687 1.19923
 H380 H 0.78284 0.61369 1.18940
 H381 H 0.85963 0.59810 1.20651
 N382 N 0.80516 0.70758 1.15828
 N383 N 0.82085 0.72694 1.16443
 C384 C 0.81658 0.74791 1.14875
 C385 C 0.79739 0.74131 1.13163
 C386 C 0.79055 0.71556 1.13817
 H387 H 0.82720 0.76629 1.14920
 H388 H 0.77619 0.70349 1.12894
 H389 H 0.83252 0.67924 1.20681
 H390 H 0.84206 0.67861 1.17146
 N391 N 0.87701 0.19189 0.65044
 N392 N 0.87977 0.17823 0.67238
 C393 C 0.90170 0.18523 0.68363
 C394 C 0.91346 0.20361 0.66757
 C395 C 0.89738 0.20734 0.64671
 H396 H 0.90895 0.17702 0.70172
 H397 H 0.90027 0.22041 0.63010
 Cu398 Cu 0.85551 0.15075 0.68361
 Cu399 Cu 0.84734 0.18857 0.62784
 Cu400 Cu 0.80918 0.13659 0.64087
 N401 N 0.82598 0.13030 0.69400
 N402 N 0.80817 0.12414 0.67713
 C403 C 0.79166 0.10756 0.68881
 C404 C 0.79955 0.10319 0.71433
 C405 C 0.82136 0.11797 0.71698
 H406 H 0.77566 0.09853 0.67919
 H407 H 0.83369 0.11853 0.73384
 N408 N 0.80594 0.15740 0.60880
 N409 N 0.82040 0.17818 0.60438
 C410 C 0.81250 0.19072 0.58265
 C411 C 0.79219 0.17695 0.57274
 C412 C 0.78847 0.15582 0.58972
 H413 H 0.82038 0.20904 0.57510
 H414 H 0.77328 0.14150 0.58919
 H415 H 0.83167 0.17280 0.66231
 H416 H 0.85291 0.15100 0.64249
 N417 N 0.28568 0.36011 0.69272
 N418 N 0.30263 0.34925 0.70799
 C419 C 0.30420 0.36312 0.73058
 C420 C 0.28770 0.38410 0.72922
 C421 C 0.27624 0.38168 0.70493
 H422 H 0.31769 0.35941 0.74598
 H423 H 0.26266 0.39504 0.69649
 Cu424 Cu 0.32445 0.32122 0.69555
 Cu425 Cu 0.27835 0.34600 0.65773
 Cu426 Cu 0.31308 0.29177 0.63776
 N427 N 0.35062 0.30274 0.67632
 N428 N 0.34647 0.29221 0.65301
 C429 C 0.36789 0.28176 0.64370
 C430 C 0.38633 0.28591 0.66235
 C431 C 0.37475 0.29909 0.68286
 H432 H 0.36974 0.27149 0.62506
 H433 H 0.38331 0.30582 0.70100
 N434 N 0.28252 0.30282 0.61973
 N435 N 0.26934 0.32375 0.62694
 C436 C 0.24986 0.32634 0.61032
 C437 C 0.25108 0.30610 0.59185
 C438 C 0.27196 0.29161 0.59839
 H439 H 0.23606 0.34195 0.61135
 H440 H 0.27923 0.27450 0.58802
 H441 H 0.28965 0.30848 0.66718
 H442 H 0.31328 0.33001 0.65006
 N443 N 0.32633 0.86888 0.20990
 N444 N 0.34817 0.86983 0.22186
 C445 C 0.35002 0.89255 0.23576
 C446 C 0.32807 0.90652 0.23267
 C447 C 0.31329 0.89087 0.21633
 H448 H 0.36632 0.89863 0.24694
 H449 H 0.29499 0.89570 0.20869
 Cu450 Cu 0.37289 0.84196 0.21775
 Cu451 Cu 0.31812 0.83996 0.18512
 Cu452 Cu 0.37276 0.81535 0.15777
 N453 N 0.40096 0.82105 0.20530
 N454 N 0.40147 0.81239 0.18088
 C455 C 0.42351 0.80057 0.17619
 C456 C 0.43729 0.80129 0.19913
 C457 C 0.42243 0.81424 0.21736
 H458 H 0.42862 0.79111 0.15781
 H459 H 0.42700 0.81868 0.23765
 N460 N 0.33941 0.80879 0.14263
 N461 N 0.31829 0.81773 0.15281
 C462 C 0.29888 0.80723 0.13911
 C463 C 0.30853 0.79046 0.11996
 C464 C 0.33413 0.79198 0.12282
 H465 H 0.27933 0.81025 0.14374
 H466 H 0.34791 0.78071 0.11195
 H467 H 0.34824 0.81318 0.18911
 H468 H 0.35329 0.84685 0.17457
 N469 N 0.77699 0.35419 0.17743
 N470 N 0.79777 0.36100 0.18960
 C471 C 0.79390 0.38422 0.20254
 C472 C 0.76939 0.39217 0.19791
 C473 C 0.75940 0.37259 0.18187
 H474 H 0.80769 0.39442 0.21452
 H475 H 0.74068 0.37169 0.17388
 Cu476 Cu 0.82738 0.33775 0.18682
 Cu477 Cu 0.77386 0.32159 0.15731
 Cu478 Cu 0.82627 0.30171 0.12781
 N479 N 0.85711 0.31925 0.17240
 N480 N 0.85692 0.30717 0.14922
 C481 C 0.87958 0.29647 0.14479
 C482 C 0.89462 0.30166 0.16631
 C483 C 0.87978 0.31596 0.18358
 H484 H 0.88434 0.28437 0.12789
 H485 H 0.88500 0.32303 0.20297
 N486 N 0.79325 0.28904 0.11612
 N487 N 0.77282 0.29644 0.12855
 C488 C 0.75270 0.28614 0.11638
 C489 C 0.76072 0.27163 0.09484
 C490 C 0.78663 0.27381 0.09526
 H491 H 0.73358 0.29027 0.12195
 H492 H 0.79959 0.26566 0.08104
 H493 H 0.81484 0.30325 0.16649
 H494 H 0.81697 0.33577 0.14911
 N495 N 0.80381 0.85754 0.71264
 N496 N 0.82288 0.85901 0.72895
 C497 C 0.81956 0.87923 0.74583
 C498 C 0.79741 0.89160 0.73974
 C499 C 0.78779 0.87743 0.71847
 H500 H 0.83278 0.88507 0.76091
 H501 H 0.77060 0.88141 0.70799
 Cu502 Cu 0.85131 0.83593 0.72598
 Cu503 Cu 0.80194 0.82925 0.68566
 Cu504 Cu 0.85269 0.78565 0.68367
 N505 N 0.87507 0.80755 0.72997
 N506 N 0.87623 0.78807 0.71275
 C507 C 0.89561 0.77224 0.71883
 C508 C 0.90682 0.78231 0.74128
 C509 C 0.89327 0.80462 0.74791
 H510 H 0.90115 0.75483 0.70777
 H511 H 0.89682 0.81814 0.76409
 N512 N 0.82333 0.78213 0.66063
 N513 N 0.80438 0.79892 0.66037
 C514 C 0.78838 0.79137 0.64107
 C515 C 0.79763 0.76857 0.62925
 C516 C 0.81966 0.76333 0.64221
 H517 H 0.77137 0.80166 0.63590
 H518 H 0.83252 0.74739 0.63791
 H519 H 0.82437 0.80267 0.70586
 H520 H 0.83925 0.82444 0.68073
 N521 N 0.69282 0.63770 0.69334
 N522 N 0.68142 0.63705 0.71629
 C523 C 0.68322 0.61247 0.72646
 C524 C 0.69596 0.59680 0.70868
 C525 C 0.70187 0.61337 0.68786
 H526 H 0.67568 0.60640 0.74530
 H527 H 0.71272 0.60840 0.67056
 Cu528 Cu 0.66444 0.66794 0.73053
 Cu529 Cu 0.69680 0.67092 0.67397
 Cu530 Cu 0.64809 0.71403 0.68581
 N531 N 0.63849 0.69378 0.73761
 N532 N 0.63157 0.71106 0.71971
 C533 C 0.61146 0.72436 0.72851
 C534 C 0.60557 0.71493 0.75323
 C535 C 0.62314 0.69563 0.75856
 H536 H 0.60144 0.73924 0.71747
 H537 H 0.62386 0.68290 0.77566
 N538 N 0.67173 0.71862 0.65642
 N539 N 0.69055 0.70232 0.65197
 C540 C 0.70364 0.71111 0.63101
 C541 C 0.69252 0.73409 0.62203
 C542 C 0.67238 0.73830 0.63855
 H543 H 0.71999 0.70150 0.62287
 H544 H 0.65922 0.75452 0.63768
 H545 H 0.68171 0.69999 0.69940
 H546 H 0.66048 0.67492 0.68341
 N547 N 0.68513 0.10784 0.15747
 N548 N 0.67318 0.10846 0.18009
 C549 C 0.68188 0.08900 0.19566
 C550 C 0.70006 0.07533 0.18192
 C551 C 0.70168 0.08775 0.15772
 H552 H 0.67543 0.08500 0.21546
 H553 H 0.71438 0.08301 0.14181
 Cu554 Cu 0.64706 0.13428 0.18694
 Cu555 Cu 0.67966 0.13472 0.13064
 Cu556 Cu 0.62585 0.17232 0.13778
 N557 N 0.61460 0.15137 0.18881
 N558 N 0.60610 0.16648 0.16977
 C559 C 0.58408 0.17712 0.17740
 C560 C 0.57849 0.16781 0.20239
 C561 C 0.59825 0.15149 0.20891
 H562 H 0.57332 0.19113 0.16601
 H563 H 0.60104 0.14128 0.22736
 N564 N 0.64624 0.17221 0.10513
 N565 N 0.66736 0.15879 0.10309
 C566 C 0.67843 0.16467 0.08000
 C567 C 0.66341 0.18222 0.06665
 C568 C 0.64310 0.18657 0.08300
 H569 H 0.69626 0.15705 0.07343
 H570 H 0.62786 0.20016 0.07953
 H571 H 0.66115 0.16394 0.15138
 H572 H 0.64211 0.13519 0.13951
 N573 N 0.19272 0.64713 0.19280
 N574 N 0.17556 0.64359 0.21106
 C575 C 0.17252 0.61746 0.21557
 C576 C 0.18905 0.60387 0.19968
 C577 C 0.20188 0.62324 0.18569
 H578 H 0.16014 0.60905 0.23026
 H579 H 0.21664 0.62019 0.17141
 Cu580 Cu 0.16090 0.67338 0.22952
 Cu581 Cu 0.20071 0.68276 0.17965
 Cu582 Cu 0.15289 0.72764 0.19305
 N583 N 0.13927 0.70166 0.24117
 N584 N 0.13547 0.72273 0.22650
 C585 C 0.11676 0.73706 0.23711
 C586 C 0.10861 0.72423 0.25963
 C587 C 0.12341 0.70194 0.26172
 H588 H 0.10868 0.75455 0.22827
 H589 H 0.12137 0.68598 0.27580
 N590 N 0.17796 0.73313 0.16493
 N591 N 0.19641 0.71639 0.16016
 C592 C 0.20946 0.72503 0.13909
 C593 C 0.19871 0.74829 0.13027
 C594 C 0.17891 0.75292 0.14716
 H595 H 0.22487 0.71452 0.13008
 H596 H 0.16560 0.76897 0.14597
 H597 H 0.18400 0.70899 0.20692
 H598 H 0.16389 0.68894 0.18434
 N599 N 0.20333 0.12590 0.68356
 N600 N 0.18528 0.12902 0.70085
 C601 C 0.18966 0.11394 0.72205
 C602 C 0.21134 0.09996 0.71768
 C603 C 0.21958 0.10773 0.69293
 H604 H 0.17756 0.11263 0.73910
 H605 H 0.23621 0.10105 0.68278
 Cu606 Cu 0.15686 0.15094 0.69352
 Cu607 Cu 0.20340 0.14673 0.65085
 Cu608 Cu 0.16025 0.19918 0.64864
 N609 N 0.13373 0.17986 0.69399
 N610 N 0.13428 0.19893 0.67637
 C611 C 0.11640 0.21686 0.68263
 C612 C 0.10472 0.20844 0.70564
 C613 C 0.11625 0.18502 0.71215
 H614 H 0.11303 0.23515 0.67211
 H615 H 0.11256 0.17288 0.72929
 N616 N 0.18812 0.19503 0.62280
 N617 N 0.20442 0.17535 0.62404
 C618 C 0.22099 0.17795 0.60424
 C619 C 0.21487 0.20009 0.58960
 C620 C 0.19391 0.21046 0.60186
 H621 H 0.23624 0.16443 0.60049
 H622 H 0.18361 0.22784 0.59582
 H623 H 0.18681 0.17820 0.66990
 H624 H 0.16639 0.15923 0.64693
 N625 N 0.29377 0.63824 0.28659
 N626 N 0.30343 0.65146 0.26669
 C627 C 0.29680 0.63948 0.24405
 C628 C 0.28288 0.61709 0.25009
 C629 C 0.28118 0.61687 0.27728
 H630 H 0.30354 0.64532 0.22482
 H631 H 0.27240 0.60178 0.28937
 Cu632 Cu 0.32842 0.67931 0.27188
 Cu633 Cu 0.30030 0.64973 0.32260
 Cu634 Cu 0.35830 0.67391 0.33198
 N635 N 0.36209 0.69356 0.27842
 N636 N 0.37435 0.69000 0.30066
 C637 C 0.39829 0.69814 0.29733
 C638 C 0.40107 0.70687 0.27165
 C639 C 0.37771 0.70391 0.26038
 H640 H 0.41282 0.69666 0.31204
 H641 H 0.37278 0.70728 0.24004
 N642 N 0.33467 0.66914 0.36110
 N643 N 0.31138 0.66138 0.35720
 C644 C 0.29886 0.66199 0.38023
 C645 C 0.31545 0.66984 0.39964
 C646 C 0.33801 0.67408 0.38690
 H647 H 0.27936 0.65663 0.38278
 H648 H 0.35533 0.68108 0.39559
 H649 H 0.32819 0.68723 0.31270
 H650 H 0.34060 0.65483 0.30063
 N651 N 0.31382 0.11455 0.82702
 N652 N 0.32043 0.11530 0.80210
 C653 C 0.31289 0.09258 0.79022
 C654 C 0.30139 0.07676 0.80897
 C655 C 0.30231 0.09130 0.83204
 H656 H 0.31571 0.08785 0.76965
 H657 H 0.29448 0.08577 0.85090
 Cu658 Cu 0.33838 0.14598 0.78793
 Cu659 Cu 0.31804 0.14482 0.85035
 Cu660 Cu 0.36708 0.18586 0.83273
 N661 N 0.36339 0.17241 0.77793
 N662 N 0.37501 0.18727 0.79550
 C663 C 0.39235 0.20241 0.78336
 C664 C 0.39143 0.19684 0.75678
 C665 C 0.37285 0.17775 0.75394
 H666 H 0.40481 0.21628 0.79316
 H667 H 0.36716 0.16793 0.73593
 N668 N 0.35020 0.18814 0.86717
 N669 N 0.33140 0.17238 0.87378
 C670 C 0.32116 0.18121 0.89629
 C671 C 0.33386 0.20388 0.90408
 C672 C 0.35229 0.20767 0.88528
 H673 H 0.30415 0.17336 0.90495
 H674 H 0.36458 0.22475 0.88347
 H675 H 0.33087 0.17540 0.82518
 H676 H 0.35233 0.14728 0.83355
 N677 N 0.80349 0.63457 0.82896
 N678 N 0.81651 0.64273 0.80848
 C679 C 0.80798 0.63021 0.78676
 C680 C 0.78880 0.61314 0.79421
 C681 C 0.78657 0.61628 0.82110
 H682 H 0.81589 0.63243 0.76728
 H683 H 0.77382 0.60580 0.83405
 Cu684 Cu 0.84507 0.66671 0.81269
 Cu685 Cu 0.80998 0.64763 0.86440
 Cu686 Cu 0.84886 0.70265 0.86799
 N687 N 0.87623 0.68443 0.82299
 N688 N 0.87782 0.69782 0.84522
 C689 C 0.90144 0.70667 0.84846
 C690 C 0.91533 0.69857 0.82700
 C691 C 0.89877 0.68472 0.81105
 H692 H 0.90793 0.71829 0.86510
 H693 H 0.90296 0.67503 0.79253
 N694 N 0.82456 0.69393 0.89544
 N695 N 0.81114 0.67180 0.89508
 C696 C 0.79729 0.67062 0.91720
 C697 C 0.80212 0.69328 0.93184
 C698 C 0.81937 0.70770 0.91748
 H699 H 0.78395 0.65502 0.92179
 H700 H 0.82771 0.72663 0.92278
 H701 H 0.81870 0.68334 0.84827
 H702 H 0.84563 0.66348 0.86067
 N703 N 0.78118 0.15682 0.30903
 N704 N 0.80056 0.15235 0.29346
 C705 C 0.79554 0.13061 0.27863
 C706 C 0.77169 0.12173 0.28490
 C707 C 0.76319 0.13876 0.30407
 H708 H 0.80787 0.12241 0.26382
 H709 H 0.74524 0.13779 0.31389
 Cu710 Cu 0.82982 0.17696 0.29170
 Cu711 Cu 0.78007 0.18540 0.33521
 Cu712 Cu 0.82552 0.23056 0.33128
 N713 N 0.85163 0.20820 0.28738
 N714 N 0.84866 0.22956 0.30204
 C715 C 0.86485 0.24850 0.29433
 C716 C 0.87920 0.23842 0.27413
 C717 C 0.87051 0.21267 0.27020
 H718 H 0.86655 0.26798 0.30326
 H719 H 0.87712 0.19850 0.25576
 N720 N 0.79705 0.23575 0.35426
 N721 N 0.77966 0.21732 0.35658
 C722 C 0.76375 0.22418 0.37595
 C723 C 0.77142 0.24845 0.38585
 C724 C 0.79253 0.25535 0.37164
 H725 H 0.74820 0.21216 0.38279
 H726 H 0.80448 0.27251 0.37481
 H727 H 0.80120 0.20100 0.30389
 H728 H 0.81827 0.18217 0.32968
 N729 N 0.67648 0.38953 0.32083
 N730 N 0.65962 0.38476 0.30259
 C731 C 0.66020 0.40461 0.28487
 C732 C 0.67884 0.42226 0.29221
 C733 C 0.68894 0.41208 0.31496
 H734 H 0.64856 0.40577 0.26751
 H735 H 0.70391 0.42067 0.32660
 Cu736 Cu 0.64036 0.35190 0.30249
 Cu737 Cu 0.68053 0.36651 0.35102
 Cu738 Cu 0.63782 0.31435 0.35733
 N739 N 0.61970 0.32016 0.30455
 N740 N 0.61738 0.30627 0.32632
 C741 C 0.60140 0.28577 0.32193
 C742 C 0.59384 0.28686 0.29591
 C743 C 0.60584 0.30877 0.28552
 H744 H 0.59673 0.27049 0.33608
 H745 H 0.60470 0.31565 0.26542
 N746 N 0.66063 0.32580 0.38595
 N747 N 0.67613 0.34624 0.38362
 C748 C 0.68887 0.34947 0.40623
 C749 C 0.68156 0.32975 0.42336
 C750 C 0.66387 0.31485 0.40991
 H751 H 0.70333 0.36425 0.40957
 H752 H 0.65439 0.29718 0.41696
 H753 H 0.66616 0.33053 0.33601
 H754 H 0.64329 0.35473 0.35003
 N755 N 0.70261 0.85941 0.80490
 N756 N 0.68081 0.85576 0.79342
 C757 C 0.67812 0.87353 0.77396
 C758 C 0.69927 0.88943 0.77326
 C759 C 0.71454 0.87994 0.79314
 H760 H 0.66148 0.87548 0.76203
 H761 H 0.73266 0.88771 0.79895
 Cu762 Cu 0.65664 0.82994 0.80618
 Cu763 Cu 0.71271 0.83682 0.83440
 Cu764 Cu 0.66124 0.81546 0.87053
 N765 N 0.62914 0.81425 0.82548
 N766 N 0.63022 0.80984 0.85095
 C767 C 0.60766 0.80101 0.85932
 C768 C 0.59193 0.79969 0.83771
 C769 C 0.60619 0.80805 0.81665
 H770 H 0.60321 0.79561 0.87939
 H771 H 0.60011 0.81005 0.79645
 N772 N 0.69600 0.81347 0.88372
 N773 N 0.71568 0.82078 0.86963
 C774 C 0.73666 0.81441 0.88278
 C775 C 0.72981 0.80255 0.90628
 C776 C 0.70396 0.80239 0.90630
 H777 H 0.75548 0.81777 0.87559
 H778 H 0.69188 0.79387 0.92119
 H779 H 0.68347 0.80845 0.83807
 H780 H 0.67762 0.84419 0.84634
 N781 N 0.19531 0.36925 0.78192
 N782 N 0.17240 0.37666 0.77615
 C783 C 0.17281 0.40219 0.76827
 C784 C 0.19735 0.41111 0.76920
 C785 C 0.21115 0.38966 0.77756
 H786 H 0.15636 0.41378 0.76386
 H787 H 0.23091 0.38959 0.78227
 Cu788 Cu 0.14404 0.35321 0.78265
 Cu789 Cu 0.20189 0.33608 0.80032
 Cu790 Cu 0.15065 0.31851 0.83826
 N791 N 0.11787 0.32936 0.79496
 N792 N 0.11975 0.31724 0.81778
 C793 C 0.09877 0.30295 0.82214
 C794 C 0.08331 0.30581 0.80058
 C795 C 0.09597 0.32261 0.78364
 H796 H 0.09563 0.29032 0.83905
 H797 H 0.08977 0.32934 0.76454
 N798 N 0.18537 0.30934 0.84759
 N799 N 0.20443 0.31363 0.83154
 C800 C 0.22515 0.30274 0.84172
 C801 C 0.21886 0.29148 0.86556
 C802 C 0.19357 0.29602 0.86881
 H803 H 0.24357 0.30384 0.83288
 H804 H 0.18190 0.28945 0.88498
 H805 H 0.16683 0.31664 0.80263
 H806 H 0.17159 0.34858 0.82074
 N807 N 0.22187 0.86421 0.34544
 N808 N 0.20390 0.87328 0.33038
 C809 C 0.21208 0.89494 0.31754
 C810 C 0.23649 0.89968 0.32497
 C811 C 0.24223 0.87991 0.34279
 H812 H 0.20118 0.90620 0.30359
 H813 H 0.25985 0.87691 0.35278
 Cu814 Cu 0.17161 0.85601 0.32856
 Cu815 Cu 0.21692 0.83256 0.36673
 Cu816 Cu 0.17125 0.79044 0.34081
 N817 N 0.14369 0.83385 0.31869
 N818 N 0.14304 0.80819 0.32362
 C819 C 0.12149 0.79800 0.31394
 C820 C 0.10836 0.81848 0.30221
 C821 C 0.12298 0.84087 0.30561
 H822 H 0.11604 0.77725 0.31486
 H823 H 0.11893 0.86078 0.29894
 N824 N 0.19765 0.77838 0.36550
 N825 N 0.21416 0.79492 0.37605
 C826 C 0.22848 0.78172 0.39325
 C827 C 0.22089 0.75551 0.39346
 C828 C 0.20129 0.75393 0.37567
 H829 H 0.24330 0.79056 0.40491
 H830 H 0.18996 0.73658 0.37127
 H831 H 0.19942 0.81832 0.33417
 H832 H 0.17839 0.82306 0.36311
 C833 C 0.25967 1.02555 0.24755
 C834 C 0.23910 1.01748 0.26329
 C835 C 0.24075 0.99374 0.27764
 C836 C 0.26234 0.97799 0.27650
 C837 C 0.28226 0.98551 0.25981
 C838 C 0.28108 1.00962 0.24627
 H839 H 0.29634 1.01516 0.23322
 H840 H 0.22538 0.98788 0.29037
 C841 C 0.29982 0.51679 0.76703
 C842 C 0.27735 0.52838 0.77602
 C843 C 0.25525 0.51309 0.77563
 C844 C 0.25566 0.48586 0.76911
 C845 C 0.27906 0.47363 0.76463
 C846 C 0.30072 0.48932 0.76272
 H847 H 0.31825 0.48009 0.75719
 H848 H 0.23782 0.52221 0.78158
 C849 C 0.75903 -0.00981 0.28873
 C850 C 0.74676 -0.02510 0.26919
 C851 C 0.73895 -0.01280 0.24592
 C852 C 0.74041 0.01495 0.24318
 C853 C 0.75005 0.03046 0.26422
 C854 C 0.76024 0.01784 0.28630
 H855 H 0.76855 0.02961 0.30197
 H856 H 0.73025 -0.02466 0.23055
 C857 C 0.75878 0.48692 0.78510
 C858 C 0.74251 0.47487 0.76639
 C859 C 0.72745 0.49115 0.75061
 C860 C 0.73022 0.51900 0.75102
 C861 C 0.74704 0.53087 0.76917
 C862 C 0.75945 0.51474 0.78725
 H863 H 0.77243 0.52390 0.80101
 H864 H 0.71524 0.48201 0.73609
 C865 C 0.27346 0.48472 0.21755
 C866 C 0.25120 0.47584 0.20525
 C867 C 0.23190 0.49400 0.20064
 C868 C 0.23530 0.52130 0.20562
 C869 C 0.25889 0.53041 0.21478
 C870 C 0.27733 0.51201 0.22160
 H871 H 0.29484 0.51903 0.22998
 H872 H 0.21455 0.48702 0.19191
 C873 C 0.75544 1.02522 0.74703
 C874 C 0.73070 1.02383 0.73746
 C875 C 0.71870 0.99892 0.73546
 C876 C 0.73085 0.97536 0.74292
 C877 C 0.75577 0.97683 0.75197
 C878 C 0.76762 1.00173 0.75427
 H879 H 0.78698 1.00272 0.76061
 H880 H 0.69932 0.99810 0.72923
 C881 C 0.77405 0.52099 0.23873
 C882 C 0.75609 0.53228 0.25591
 C883 C 0.73506 0.51707 0.26295
 C884 C 0.73209 0.49077 0.25432
 C885 C 0.75057 0.47899 0.23810
 C886 C 0.77151 0.49424 0.23088
 H887 H 0.78514 0.48571 0.21752
 H888 H 0.72103 0.52550 0.27593
 C889 C 0.23460 -0.04077 0.76230
 C890 C 0.21800 -0.02927 0.74412
 C891 C 0.21925 -0.00178 0.73946
 C892 C 0.23599 0.01465 0.75356
 C893 C 0.25287 0.00293 0.77161
 C894 C 0.25252 -0.02479 0.77480
 H895 H 0.26515 -0.03390 0.78877
 H896 H 0.20602 0.00708 0.72597
 C897 C 0.22973 0.25367 0.98938
 C898 C 0.25155 0.24424 1.00188
 C899 C 0.27365 0.24192 0.98725
 C900 C 0.27424 0.24742 0.96029
 C901 C 0.25208 0.25564 0.94722
 C902 C 0.23020 0.25896 0.96234
 H903 H 0.21321 0.26593 0.95306
 H904 H 0.29043 0.23454 0.99667
 C905 C 0.25016 0.73262 0.51680
 C906 C 0.26443 0.71121 0.52627
 C907 C 0.27682 0.69469 0.50824
 C908 C 0.27392 0.69791 0.48085
 C909 C 0.25608 0.71651 0.47180
 C910 C 0.24556 0.73451 0.48977
 H911 H 0.23344 0.75016 0.48269
 H912 H 0.28893 0.67928 0.51575
 C913 C 0.25985 0.75515 -0.00313
 C914 C 0.23450 0.76314 -0.00368
 C915 C 0.22246 0.76971 0.02015
 C916 C 0.23485 0.76778 0.04447
 C917 C 0.26003 0.75974 0.04493
 C918 C 0.27219 0.75361 0.02122
 H919 H 0.29183 0.74841 0.02176
 H920 H 0.20279 0.77481 0.01996
 C921 C 0.22745 0.27501 0.45874
 C922 C 0.23295 0.24769 0.45763
 C923 C 0.23514 0.23314 0.48096
 C924 C 0.23143 0.24517 0.50566
 C925 C 0.22483 0.27235 0.50681
 C926 C 0.22268 0.28690 0.48327
 H927 H 0.21913 0.30808 0.48416
 H928 H 0.23930 0.21209 0.47982
 C929 C 0.74641 0.78643 1.03539
 C930 C 0.76312 0.76782 1.04660
 C931 C 0.77354 0.74819 1.03039
 C932 C 0.77045 0.74883 1.00296
 C933 C 0.75812 0.77074 0.99147
 C934 C 0.74521 0.78843 1.00784
 H935 H 0.73428 0.80410 0.99896
 H936 H 0.78470 0.73258 1.03908
 C937 C 0.74032 0.25807 0.52939
 C938 C 0.74942 0.23691 0.51375
 C939 C 0.74930 0.23940 0.48627
 C940 C 0.73990 0.26239 0.47431
 C941 C 0.72706 0.28127 0.48983
 C942 C 0.72795 0.27925 0.51727
 H943 H 0.71937 0.29455 0.52929
 H944 H 0.75800 0.22412 0.47432
 C945 C 0.75356 0.24189 -0.03272
 C946 C 0.73102 0.23483 -0.04557
 C947 C 0.71101 0.22465 -0.03082
 C948 C 0.71185 0.22419 -0.00320
 C949 C 0.73299 0.23528 0.00995
 C950 C 0.75426 0.24199 -0.00504
 H951 H 0.77097 0.24923 0.00480
 H952 H 0.69424 0.21801 -0.04096
 C953 C 0.76477 0.75214 0.49588
 C954 C 0.73990 0.76117 0.49355
 C955 C 0.72561 0.76532 0.51641
 C956 C 0.73536 0.75991 0.54149
 C957 C 0.76008 0.75053 0.54370
 C958 C 0.77445 0.74666 0.52089
 H959 H 0.79376 0.74043 0.52276
 H960 H 0.70625 0.77134 0.51456
 C961 C 1.00325 0.24831 0.24866
 C962 C 1.01253 0.26249 0.22662
 C963 C 0.99571 0.27096 0.20714
 C964 C 0.96962 0.26899 0.21082
 C965 C 0.96046 0.25786 0.23457
 C966 C 0.97722 0.24631 0.25233
 H967 H 0.96992 0.23698 0.26998
 H968 H 1.00292 0.28121 0.18997
 C969 C 0.50561 0.24582 0.72948
 C970 C 0.51161 0.25893 0.70578
 C971 C 0.49259 0.26510 0.68790
 C972 C 0.46777 0.25725 0.69266
 C973 C 0.46209 0.24198 0.71528
 C974 C 0.48082 0.23767 0.73410
 H975 H 0.47646 0.22636 0.75168
 H976 H 0.49722 0.27588 0.67007
 C977 C -0.02631 0.25882 0.73328
 C978 C -0.01556 0.24458 0.71211
 C979 C 0.01032 0.23976 0.71198
 C980 C 0.02558 0.24811 0.73299
 C981 C 0.01471 0.26271 0.75396
 C982 C -0.01106 0.26746 0.75401
 H983 H -0.01916 0.27902 0.76991
 H984 H 0.01835 0.22809 0.69614
 C985 C 0.47642 0.25184 0.26925
 C986 C 0.47001 0.23689 0.24651
 C987 C 0.48792 0.21987 0.23533
 C988 C 0.51278 0.22040 0.24414
 C989 C 0.52029 0.23980 0.26279
 C990 C 0.50180 0.25405 0.27633
 H991 H 0.50721 0.26743 0.29213
 H992 H 0.48256 0.20628 0.21968
 C993 C 1.03181 0.71137 0.75682
 C994 C 1.02295 0.72657 0.73546
 C995 C 0.99912 0.73801 0.73681
 C996 C 0.98413 0.73468 0.75923
 C997 C 0.99227 0.71798 0.77975
 C998 C 1.01629 0.70707 0.77869
 H999 H 1.02272 0.69462 0.79467
 H1000 H 0.99295 0.75096 0.72111
 C1001 C 0.52848 0.71328 0.27288
 C1002 C 0.54187 0.73117 0.25641
 C1003 C 0.52850 0.74876 0.24049
 C1004 C 0.50236 0.74775 0.23895
 C1005 C 0.48901 0.72867 0.25401
 C1006 C 0.50218 0.71232 0.27145
 H1007 H 0.49194 0.69804 0.28332
 H1008 H 0.53865 0.76288 0.22833
 C1009 C -0.01966 0.78364 0.27056
 C1010 C -0.01882 0.75633 0.27678
 C1011 C 0.00433 0.74453 0.28212
 C1012 C 0.02664 0.75922 0.28114
 C1013 C 0.02590 0.78667 0.27534
 C1014 C 0.00267 0.79850 0.26995
 H1015 H 0.00171 0.81969 0.26642
 H1016 H 0.00520 0.72332 0.28568
 C1017 C 0.47762 0.77622 0.77159
 C1018 C 0.48788 0.76132 0.75060
 C1019 C 0.51133 0.74954 0.75344
 C1020 C 0.52510 0.75284 0.77661
 C1021 C 0.51561 0.76906 0.79704
 C1022 C 0.49154 0.77983 0.79477
 H1023 H 0.48431 0.79247 0.81031
 H1024 H 0.51865 0.73722 0.73768
 C1025 C 0.42275 0.27634 0.30203
 C1026 C 0.43688 0.27103 0.32399
 C1027 C 0.45927 0.26235 0.31452
 C1028 C 0.45709 0.26271 0.28740
 O1029 O 0.43485 0.27125 0.27985
 H1030 H 0.43153 0.27328 0.34442
 H1031 H 0.47502 0.25561 0.32604
 C1032 C 0.41637 0.80093 0.77734
 C1033 C 0.42255 0.81312 0.75386
 C1034 C 0.44646 0.80562 0.74867
 C1035 C 0.45307 0.78926 0.76921
 O1036 O 0.43497 0.78659 0.78684
 H1037 H 0.41112 0.82603 0.74192
 H1038 H 0.45782 0.81164 0.73207
 C1039 C -0.08646 0.28175 0.74876
 C1040 C -0.08708 0.28748 0.72227
 C1041 C -0.06516 0.27805 0.71238
 C1042 C -0.05279 0.26723 0.73363
 O1043 O -0.06567 0.26963 0.75576
 H1044 H -0.10130 0.29832 0.71170
 H1045 H -0.05833 0.28039 0.69246
 C1046 C -0.08077 0.80900 0.27348
 C1047 C -0.07231 0.82496 0.25326
 C1048 C -0.04811 0.81748 0.24905
 C1049 C -0.04377 0.79740 0.26690
 O1050 O -0.06353 0.79233 0.28176
 H1051 H -0.08234 0.84058 0.24326
 H1052 H -0.03513 0.82575 0.23484
 C1053 C 0.57093 0.67935 0.31305
 C1054 C 0.55536 0.65805 0.30769
 C1055 C 0.53603 0.66836 0.29354
 C1056 C 0.54152 0.69510 0.29104
 O1057 O 0.56245 0.70184 0.30328
 H1058 H 0.55843 0.63733 0.31228
 H1059 H 0.52083 0.65739 0.28443
 C1060 C 0.55948 0.23029 0.76584
 C1061 C 0.54503 0.23913 0.78657
 C1062 C 0.52243 0.24516 0.77581
 C1063 C 0.52499 0.23999 0.74928
 O1064 O 0.54742 0.23078 0.74319
 H1065 H 0.55039 0.24100 0.80703
 H1066 H 0.50628 0.25318 0.78589
 C1067 C 1.09183 0.68710 0.77055
 C1068 C 1.08952 0.67604 0.74579
 C1069 C 1.06678 0.68414 0.73685
 C1070 C 1.05696 0.69945 0.75690
 O1071 O 1.07207 0.70116 0.77742
 H1072 H 1.10276 0.66350 0.73557
 H1073 H 1.05812 0.67896 0.71827
 C1074 C 1.05203 0.22148 0.28720
 C1075 C 1.03674 0.22968 0.30750
 C1076 C 1.01595 0.23966 0.29575
 C1077 C 1.02016 0.23722 0.26904
 O1078 O 1.04207 0.22604 0.26376
 H1079 H 1.04046 0.22872 0.32840
 H1080 H 1.00009 0.24870 0.30547
 C1081 C 0.57193 0.28279 0.69074
 C1082 C 0.57339 0.25832 0.67843
 C1083 C 0.55113 0.24611 0.68319
 C1084 C 0.53770 0.26400 0.69796
 O1085 O 0.55018 0.28639 0.70273
 H1086 H 0.58880 0.25050 0.66700
 H1087 H 0.54513 0.22667 0.67638
 C1088 C 0.60547 0.74614 0.24524
 C1089 C 0.60846 0.71922 0.24841
 C1090 C 0.58500 0.70962 0.25342
 C1091 C 0.56958 0.73164 0.25379
 O1092 O 0.58202 0.75371 0.24805
 H1093 H 0.62542 0.70784 0.24582
 H1094 H 0.57972 0.68892 0.25540
 C1095 C 1.07123 0.29057 0.21064
 C1096 C 1.07222 0.29475 0.23742
 C1097 C 1.05098 0.28347 0.24710
 C1098 C 1.03860 0.27286 0.22558
 O1099 O 1.05080 0.27748 0.20329
 H1100 H 1.08632 0.30551 0.24849
 H1101 H 1.04464 0.28433 0.26731
 C1102 C 1.06971 0.74710 0.69133
 C1103 C 1.05606 0.73179 0.67385
 C1104 C 1.03594 0.72271 0.68788
 C1105 C 1.03918 0.73286 0.71287
 O1106 O 1.05957 0.74771 0.71505
 H1107 H 1.06022 0.72788 0.65335
 H1108 H 1.02110 0.70970 0.68101
 C1109 C 0.44864 0.73716 0.70069
 C1110 C 0.45994 0.75699 0.68613
 C1111 C 0.47656 0.76887 0.70295
 C1112 C 0.47364 0.75563 0.72649
 O1113 O 0.45693 0.73629 0.72514
 H1114 H 0.45681 0.76179 0.66565
 H1115 H 0.48918 0.78522 0.69871
 C1116 C 0.41388 0.23150 0.21052
 C1117 C 0.41649 0.25877 0.20965
 C1118 C 0.43732 0.26435 0.22407
 C1119 C 0.44581 0.24011 0.23286
 O1120 O 0.43181 0.22002 0.22436
 H1121 H 0.40479 0.27287 0.19945
 H1122 H 0.44581 0.28370 0.22723
 C1123 C -0.07353 0.72087 0.26043
 C1124 C -0.06598 0.70486 0.28085
 C1125 C -0.04510 0.71680 0.29076
 C1126 C -0.04134 0.73911 0.27545
 O1127 O -0.05868 0.74167 0.25706
 H1128 H -0.07430 0.68627 0.28720
 H1129 H -0.03353 0.70963 0.30666
 C1130 C -0.06207 0.21641 0.67172
 C1131 C -0.04680 0.22588 0.65188
 C1132 C -0.02653 0.23670 0.66435
 C1133 C -0.03124 0.23341 0.69083
 O1134 O -0.05270 0.22095 0.69536
 H1135 H -0.05014 0.22510 0.63089
 H1136 H -0.01071 0.24671 0.65536
 C1137 C 0.30708 0.43097 0.24325
 C1138 C 0.32742 0.44512 0.23391
 C1139 C 0.31772 0.46788 0.22359
 C1140 C 0.29218 0.46558 0.22710
 O1141 O 0.28572 0.44330 0.23913
 H1142 H 0.34695 0.43958 0.23468
 H1143 H 0.32790 0.48385 0.21407
 C1144 C 0.24186 -0.10461 0.78865
 C1145 C 0.21656 -0.10225 0.79355
 C1146 C 0.20994 -0.07863 0.78246
 C1147 C 0.23172 -0.06838 0.77175
 O1148 O 0.25108 -0.08407 0.77557
 H1149 H 0.20451 -0.11577 0.80433
 H1150 H 0.19177 -0.06930 0.78338
 C1151 C 0.80040 0.43973 0.81087
 C1152 C 0.81742 0.45973 0.80542
 C1153 C 0.80356 0.48073 0.79771
 C1154 C 0.77899 0.47205 0.79847
 O1155 O 0.77694 0.44717 0.80695
 H1156 H 0.83765 0.45880 0.80591
 H1157 H 0.81069 0.49940 0.79013
 C1158 C 0.78589 -0.05526 0.33168
 C1159 C 0.77378 -0.04028 0.35057
 C1160 C 0.76415 -0.01905 0.33729
 C1161 C 0.77080 -0.02306 0.31133
 O1162 O 0.78424 -0.04473 0.30803
 H1163 H 0.77132 -0.04484 0.37122
 H1164 H 0.75190 -0.00389 0.34509
 C1165 C 0.34119 0.56465 0.74165
 C1166 C 0.35921 0.54798 0.75167
 C1167 C 0.34622 0.52746 0.76291
 C1168 C 0.32132 0.53348 0.75913
 O1169 O 0.31827 0.55593 0.74618
 H1170 H 0.37934 0.55024 0.75045
 H1171 H 0.35391 0.51024 0.77263
 C1172 C 0.27120 1.07963 0.20585
 C1173 C 0.24684 1.07472 0.19818
 C1174 C 0.23874 1.05448 0.21372
 C1175 C 0.25870 1.04872 0.22990
 O1176 O 0.27854 1.06382 0.22498
 H1177 H 0.23646 1.08420 0.18257
 H1178 H 0.22088 1.04429 0.21246
 C1179 C 0.81327 0.56850 0.20875
 C1180 C 0.83077 0.54864 0.21139
 C1181 C 0.81836 0.52805 0.22292
 C1182 C 0.79430 0.53701 0.22679
 O1183 O 0.79108 0.56154 0.21807
 H1184 H 0.85032 0.54923 0.20580
 H1185 H 0.82601 0.50895 0.22829
 C1186 C 0.78914 1.08378 0.73308
 C1187 C 0.79802 1.08004 0.75827
 C1188 C 0.78558 1.05822 0.76747
 C1189 C 0.76992 1.05037 0.74728
 O1190 O 0.77202 1.06587 0.72639
 H1191 H 0.81254 1.09120 0.76832
 H1192 H 0.78823 1.04856 0.78626
 C1193 C 0.74927 0.59270 0.29048
 C1194 C 0.77505 0.59208 0.29098
 C1195 C 0.78142 0.56999 0.27683
 C1196 C 0.75903 0.55885 0.26854
 O1197 O 0.73955 0.57261 0.27703
 H1198 H 0.78762 0.60553 0.30118
 H1199 H 0.80009 0.56221 0.27422
 C1200 C 0.69951 1.08535 0.73598
 C1201 C 0.69010 1.07516 0.71269
 C1202 C 0.70092 1.05085 0.70983
 C1203 C 0.71639 1.04813 0.73135
 O1204 O 0.71560 1.06904 0.74725
 H1205 H 0.67644 1.08397 0.69972
 H1206 H 0.69767 1.03661 0.69417
 C1207 C 0.26264 0.59014 0.80510
 C1208 C 0.28722 0.58924 0.81309
 C1209 C 0.29645 0.56650 0.80233
 C1210 C 0.27686 0.55527 0.78826
 O1211 O 0.25623 0.56957 0.79020
 H1212 H 0.29701 0.60300 0.82593
 H1213 H 0.31492 0.55846 0.80557
 C1214 C 0.19295 1.06712 0.26853
 C1215 C 0.17691 1.04570 0.26574
 C1216 C 0.19205 1.02397 0.26406
 C1217 C 0.21619 1.03382 0.26563
 O1218 O 0.21675 1.05997 0.26849
 H1219 H 0.15666 1.04588 0.26537
 H1220 H 0.18626 1.00346 0.26149
 C1221 C 0.73415 0.40817 0.74604
 C1222 C 0.75992 0.40936 0.74435
 C1223 C 0.76636 0.43419 0.75242
 C1224 C 0.74417 0.44634 0.75917
 O1225 O 0.72443 0.43074 0.75477
 H1226 H 0.77256 0.39425 0.73718
 H1227 H 0.78499 0.44277 0.75241
 C1228 C 0.73104 -0.09333 0.26844
 C1229 C 0.72328 -0.08784 0.29372
 C1230 C 0.72840 -0.06161 0.29738
 C1231 C 0.73928 -0.05306 0.27418
 O1232 O 0.74058 -0.07225 0.25638
 H1233 H 0.71434 -0.10116 0.30758
 H1234 H 0.72407 -0.04990 0.31467
 C1235 C 0.23286 0.41449 0.17755
 C1236 C 0.25754 0.41404 0.16973
 C1237 C 0.26801 0.43630 0.18034
 C1238 C 0.24894 0.44873 0.19394
 O1239 O 0.22745 0.43558 0.19207
 H1240 H 0.26660 0.39961 0.15713
 H1241 H 0.28698 0.44335 0.17731
 C1242 C 0.18123 -0.07903 0.71443
 C1243 C 0.16194 -0.06253 0.72180
 C1244 C 0.17330 -0.04056 0.73235
 C1245 C 0.19861 -0.04563 0.73102
 O1246 O 0.20348 -0.06893 0.72008
 H1247 H 0.14204 -0.06623 0.71991
 H1248 H 0.16426 -0.02354 0.74122
 C1249 C 0.24413 0.30722 0.39968
 C1250 C 0.22343 0.32248 0.40542
 C1251 C 0.21415 0.31254 0.42849
 C1252 C 0.22967 0.29174 0.43487
 O1253 O 0.24792 0.28859 0.41748
 H1254 H 0.21626 0.33916 0.39441
 H1255 H 0.19802 0.31955 0.43933
 C1256 C 0.28930 0.75465 -0.06539
 C1257 C 0.30399 0.73566 -0.05367
 C1258 C 0.29428 0.73244 -0.02909
 C1259 C 0.27445 0.74990 -0.02751
 O1260 O 0.27139 0.76337 -0.04963
 H1261 H 0.32008 0.72566 -0.06193
 H1262 H 0.30116 0.71929 -0.01397
 C1263 C 0.79979 0.26348 -0.07764
 C1264 C 0.81541 0.24986 -0.06092
 C1265 C 0.80026 0.24056 -0.04131
 C1266 C 0.77649 0.24897 -0.04772
 O1267 O 0.77626 0.26296 -0.06970
 H1268 H 0.83540 0.24709 -0.06279
 H1269 H 0.80575 0.22848 -0.02473
 C1270 C 0.79960 0.76246 0.43809
 C1271 C 0.81181 0.73980 0.44608
 C1272 C 0.80012 0.73234 0.46883
 C1273 C 0.78159 0.75093 0.47280
 O1274 O 0.78132 0.76921 0.45421
 H1275 H 0.82759 0.73021 0.43676
 H1276 H 0.80467 0.71554 0.48115
 C1277 C 0.73499 0.26950 0.59713
 C1278 C 0.76042 0.26512 0.59678
 C1279 C 0.76581 0.25878 0.57129
 C1280 C 0.74315 0.25913 0.55823
 O1281 O 0.72455 0.26613 0.57382
 H1282 H 0.77361 0.26777 0.61273
 H1283 H 0.78426 0.25610 0.56293
 C1284 C 0.70908 0.81518 1.08497
 C1285 C 0.69245 0.81840 1.06463
 C1286 C 0.70486 0.80966 1.04282
 C1287 C 0.72811 0.80148 1.05162
 O1288 O 0.73050 0.80487 1.07726
 H1289 H 0.67342 0.82557 1.06570
 H1290 H 0.69719 0.80797 1.02319
 C1291 C 0.18332 0.27243 1.03466
 C1292 C 0.16779 0.25868 1.01769
 C1293 C 0.18302 0.25029 0.99772
 C1294 C 0.20666 0.25928 1.00436
 O1295 O 0.20685 0.27280 1.02666
 H1296 H 0.14781 0.25548 1.01949
 H1297 H 0.17770 0.23857 0.98070
 C1298 C 0.22811 0.77699 0.56533
 C1299 C 0.23993 0.79536 0.54943
 C1300 C 0.24920 0.78107 0.52887
 C1301 C 0.24262 0.75502 0.53391
 O1302 O 0.22969 0.75246 0.55599
 H1303 H 0.24142 0.81664 0.55235
 H1304 H 0.25988 0.78861 0.51235
 C1305 C 0.28305 0.69523 0.59062
 C1306 C 0.25755 0.69313 0.59445
 C1307 C 0.24713 0.69985 0.57097
 C1308 C 0.26704 0.70569 0.55463
 O1309 O 0.28891 0.70262 0.56640
 H1310 H 0.24775 0.68705 0.61211
 H1311 H 0.22743 0.69969 0.56604
 C1312 C 0.26549 0.21715 1.06375
 C1313 C 0.24102 0.20849 1.06227
 C1314 C 0.23190 0.21902 1.03972
 C1315 C 0.25145 0.23359 1.02905
 O1316 O 0.27199 0.23225 1.04361
 H1317 H 0.23147 0.19474 1.07527
 H1318 H 0.21383 0.21463 1.03113
 C1319 C 0.78755 0.75798 1.11024
 C1320 C 0.79115 0.78511 1.10890
 C1321 C 0.78117 0.79251 1.08545
 C1322 C 0.77188 0.76944 1.07425
 O1323 O 0.77609 0.74831 1.08913
 H1324 H 0.80062 0.79784 1.12298
 H1325 H 0.78155 0.81222 1.07695
 C1326 C 0.77605 0.18583 0.55122
 C1327 C 0.75836 0.17045 0.53846
 C1328 C 0.74674 0.18741 0.52150
 C1329 C 0.75805 0.21183 0.52557
 O1330 O 0.77594 0.21080 0.54336
 H1331 H 0.75412 0.14962 0.54154
 H1332 H 0.73116 0.18288 0.50861
 C1333 C 0.71586 0.75418 0.42936
 C1334 C 0.70269 0.77666 0.43626
 C1335 C 0.71041 0.78290 0.46111
 C1336 C 0.72780 0.76382 0.46748
 O1337 O 0.73113 0.74638 0.44823
 H1338 H 0.68859 0.78681 0.42487
 H1339 H 0.70382 0.79909 0.47331
 C1340 C 0.71475 0.23576 -0.11259
 C1341 C 0.71715 0.26282 -0.10878
 C1342 C 0.72477 0.26579 -0.08345
 C1343 C 0.72669 0.24034 -0.07369
 O1344 O 0.72023 0.22197 -0.09121
 H1345 H 0.71308 0.27852 -0.12263
 H1346 H 0.72771 0.28432 -0.07295
 C1347 C 0.20507 0.74896 -0.06429
 C1348 C 0.19038 0.77028 -0.05726
 C1349 C 0.19981 0.77905 -0.03384
 C1350 C 0.21959 0.76242 -0.02831
 O1351 O 0.22274 0.74412 -0.04680
 H1352 H 0.17450 0.77825 -0.06775
 H1353 H 0.19292 0.79543 -0.02208
 C1354 C 0.22522 0.21944 0.39486
 C1355 C 0.24849 0.20892 0.40010
 C1356 C 0.25467 0.21807 0.42457
 C1357 C 0.23485 0.23371 0.43218
 O1358 O 0.21695 0.23456 0.41427
 H1359 H 0.25931 0.19555 0.38791
 H1360 H 0.27150 0.21385 0.43559
 C1361 C 0.28581 0.40619 0.74810
 C1362 C 0.29402 0.40481 0.77378
 C1363 C 0.29159 0.42987 0.78357
 C1364 C 0.28206 0.44461 0.76316
 O1365 O 0.27852 0.43039 0.74152
 H1366 H 0.30156 0.38774 0.78390
 H1367 H 0.29683 0.43684 0.80299
 C1368 C 0.32270 0.93332 0.24282
 C1369 C 0.34082 0.95157 0.25018
 C1370 C 0.32808 0.97390 0.25725
 C1371 C 0.30318 0.96739 0.25412
 O1372 O 0.29980 0.94285 0.24523
 H1373 H 0.36092 0.94906 0.24992
 H1374 H 0.33591 0.99257 0.26412
 C1375 C 0.75574 0.41565 0.20794
 C1376 C 0.73038 0.41917 0.20432
 C1377 C 0.72499 0.44290 0.21571
 C1378 C 0.74734 0.45226 0.22584
 O1379 O 0.76620 0.43583 0.22084
 H1380 H 0.71731 0.40624 0.19415
 H1381 H 0.70697 0.45255 0.21571
 C1382 C 0.78803 0.91602 0.75233
 C1383 C 0.79769 0.92636 0.77542
 C1384 C 0.78631 0.95024 0.77879
 C1385 C 0.77046 0.95270 0.75759
 O1386 O 0.77139 0.93194 0.74146
 H1387 H 0.81189 0.91788 0.78796
 H1388 H 0.78953 0.96443 0.79450
 C1389 C 0.70351 0.56910 0.71244
 C1390 C 0.70774 0.55116 0.69241
 C1391 C 0.71647 0.52889 0.70453
 C1392 C 0.71728 0.53517 0.73100
 O1393 O 0.70920 0.55949 0.73583
 H1394 H 0.70546 0.55425 0.67148
 H1395 H 0.72309 0.51095 0.69506
 C1396 C 0.71505 0.05310 0.19175
 C1397 C 0.72881 0.03597 0.17631
 C1398 C 0.73972 0.01882 0.19356
 C1399 C 0.73208 0.02708 0.21820
 O1400 O 0.71697 0.04772 0.21708
 H1401 H 0.73063 0.03598 0.15509
 H1402 H 0.75220 0.00261 0.18885
 C1403 C 0.19385 0.57521 0.20018
 C1404 C 0.17627 0.55612 0.20653
 C1405 C 0.18922 0.53287 0.20774
 C1406 C 0.21384 0.53964 0.20244
 O1407 O 0.21652 0.56533 0.19768
 H1408 H 0.15659 0.55897 0.21064
 H1409 H 0.18185 0.51363 0.21341
 C1410 C 0.22195 0.08047 0.73594
 C1411 C 0.22173 0.08393 0.76285
 C1412 C 0.22859 0.06010 0.77300
 C1413 C 0.23260 0.04377 0.75154
 O1414 O 0.22819 0.05602 0.72895
 H1415 H 0.21590 0.10136 0.77374
 H1416 H 0.22899 0.05477 0.79362
 C1417 C 0.27529 0.59607 0.23154
 C1418 C 0.27582 0.59890 0.20453
 C1419 C 0.26942 0.57460 0.19473
 C1420 C 0.26525 0.55888 0.21648
 O1421 O 0.26903 0.57170 0.23890
 H1422 H 0.28070 0.61645 0.19333
 H1423 H 0.26809 0.56886 0.17423
 C1424 C 0.28967 0.05047 0.80561
 C1425 C 0.28585 0.03308 0.82613
 C1426 C 0.27261 0.01249 0.81570
 C1427 C 0.26907 0.01885 0.78953
 O1428 O 0.27959 0.04194 0.78329
 H1429 H 0.29149 0.03549 0.84645
 H1430 H 0.26529 -0.00453 0.82627
 C1431 C 0.77539 0.59364 0.77774
 C1432 C 0.77576 0.59335 0.75065
 C1433 C 0.76346 0.57059 0.74362
 C1434 C 0.75614 0.55877 0.76698
 O1435 O 0.76367 0.57270 0.78770
 H1436 H 0.78494 0.60735 0.73763
 H1437 H 0.76167 0.56268 0.72389
 C1438 C 0.75767 0.09892 0.27439
 C1439 C 0.73195 0.09847 0.27235
 C1440 C 0.72589 0.07290 0.26633
 C1441 C 0.74838 0.05967 0.26486
 O1442 O 0.76774 0.07534 0.27022
 H1443 H 0.71910 0.11456 0.27625
 H1444 H 0.70724 0.06447 0.26498
 C1445 C 0.68672 0.44643 0.27848
 C1446 C 0.67059 0.46381 0.26639
 C1447 C 0.68552 0.48351 0.25658
 C1448 C 0.70959 0.47618 0.26292
 O1449 O 0.71042 0.45379 0.27638
 H1450 H 0.65041 0.46235 0.26510
 H1451 H 0.67976 0.50072 0.24545
 C1452 C 0.70319 0.91299 0.75657
 C1453 C 0.68838 0.91944 0.73533
 C1454 C 0.69712 0.94342 0.72677
 C1455 C 0.71663 0.94989 0.74344
 O1456 O 0.72033 0.93139 0.76153
 H1457 H 0.67281 0.90821 0.72729
 H1458 H 0.68995 0.95491 0.71050
 C1459 C 0.20675 0.43842 0.76658
 C1460 C 0.19231 0.46039 0.76152
 C1461 C 0.20861 0.48141 0.76213
 C1462 C 0.23179 0.47061 0.76754
 O1463 O 0.23056 0.44453 0.77022
 H1464 H 0.17236 0.46105 0.75796
 H1465 H 0.20411 0.50203 0.75859
 C1466 C 0.25257 0.92102 0.31499
 C1467 C 0.27747 0.92458 0.32118
 C1468 C 0.28480 0.94645 0.30731
 C1469 C 0.26381 0.95437 0.29360
 O1470 O 0.24420 0.93909 0.29848
 H1471 H 0.28883 0.91278 0.33427
 H1472 H 0.30311 0.95578 0.30759
 C1473 C 0.41253 0.27741 0.66147
 C1474 C 0.42578 0.27148 0.63891
 C1475 C 0.44898 0.26415 0.64741
 C1476 C 0.44786 0.26577 0.67450
 O1477 O 0.42585 0.27400 0.68302
 H1478 H 0.41928 0.27229 0.61876
 H1479 H 0.46451 0.25748 0.63544
 C1480 C 0.46170 0.78892 0.20338
 C1481 C 0.47926 0.78525 0.18384
 C1482 C 0.49767 0.77058 0.19511
 C1483 C 0.48972 0.76604 0.22058
 O1484 O 0.46796 0.77738 0.22573
 H1485 H 0.47835 0.79180 0.16360
 H1486 H 0.51420 0.76284 0.18552
 C1487 C 0.92031 0.29213 0.17053
 C1488 C 0.93665 0.28541 0.15064
 C1489 C 0.95768 0.27670 0.16305
 C1490 C 0.95252 0.27841 0.18967
 O1491 O 0.92983 0.28790 0.19412
 H1492 H 0.93350 0.28654 0.12963
 H1493 H 0.97444 0.26917 0.15376
 C1494 C 0.92899 0.77225 0.75486
 C1495 C 0.93611 0.78025 0.77974
 C1496 C 0.95755 0.76686 0.78475
 C1497 C 0.96188 0.75161 0.76258
 O1498 O 0.94467 0.75499 0.74424
 H1499 H 0.92684 0.79426 0.79262
 H1500 H 0.96895 0.76831 0.80230
 C1501 C 0.57857 0.26781 0.28081
 C1502 C 0.58490 0.25995 0.25575
 C1503 C 0.56453 0.24675 0.24643
 C1504 C 0.54706 0.24729 0.26653
 O1505 O 0.55555 0.26045 0.28744
 H1506 H 0.60179 0.26485 0.24495
 H1507 H 0.56204 0.23998 0.22641
 C1508 C 0.56578 0.79088 0.83589
 C1509 C 0.54917 0.78729 0.85642
 C1510 C 0.52721 0.77925 0.84477
 C1511 C 0.53247 0.77826 0.81819
 O1512 O 0.55567 0.78550 0.81288
 H1513 H 0.55262 0.79021 0.87722
 H1514 H 0.50980 0.77408 0.85444
 C1515 C 0.05939 0.29225 0.79568
 C1516 C 0.04362 0.28283 0.81507
 C1517 C 0.02414 0.27121 0.80198
 C1518 C 0.02981 0.27403 0.77562
 O1519 O 0.05112 0.28694 0.77173
 H1520 H 0.04609 0.28424 0.83617
 H1521 H 0.00812 0.26114 0.81053
 C1522 C 0.08412 0.81711 0.28870
 C1523 C 0.07507 0.83653 0.27223
 C1524 C 0.05211 0.82763 0.26444
 C1525 C 0.04880 0.80346 0.27687
 O1526 O 0.06827 0.79714 0.29162
 H1527 H 0.08416 0.85492 0.26649
 H1528 H 0.03941 0.83760 0.25122
 C1529 C 0.58367 0.72225 0.76900
 C1530 C 0.57944 0.71445 0.79462
 C1531 C 0.55690 0.72515 0.80119
 C1532 C 0.54915 0.73868 0.77906
 O1533 O 0.56530 0.73678 0.75946
 H1534 H 0.59126 0.70231 0.80692
 H1535 H 0.54709 0.72305 0.81973
 C1536 C 0.55776 0.17556 0.21998
 C1537 C 0.55368 0.16413 0.24428
 C1538 C 0.53539 0.17883 0.25574
 C1539 C 0.52946 0.19804 0.23760
 O1540 O 0.54291 0.19614 0.21572
 H1541 H 0.56358 0.14772 0.25310
 H1542 H 0.52793 0.17658 0.27543
 C1543 C 0.08588 0.72999 0.27482
 C1544 C 0.07825 0.71615 0.29686
 C1545 C 0.05511 0.72576 0.30275
 C1546 C 0.05048 0.74482 0.28395
 O1547 O 0.06909 0.74739 0.26696
 H1548 H 0.08802 0.70039 0.30692
 H1549 H 0.04284 0.71932 0.31850
 C1550 C 0.08569 0.22152 0.72204
 C1551 C 0.08502 0.21865 0.74898
 C1552 C 0.06300 0.22935 0.75675
 C1553 C 0.05175 0.23837 0.73402
 O1554 O 0.06545 0.23329 0.71276
 H1555 H 0.09844 0.20862 0.76136
 H1556 H 0.05541 0.22889 0.77649
 C1557 C 0.42432 0.71421 0.25780
 C1558 C 0.42600 0.71657 0.23082
 C1559 C 0.45044 0.72216 0.22582
 C1560 C 0.46188 0.72356 0.25015
 O1561 O 0.44613 0.71812 0.26963
 H1562 H 0.41133 0.71380 0.21639
 H1563 H 0.45897 0.72450 0.20663
 C1564 C 0.40783 0.20785 0.73629
 C1565 C 0.40535 0.20260 0.70980
 C1566 C 0.42496 0.21539 0.69819
 C1567 C 0.43780 0.22785 0.71843
 O1568 O 0.42755 0.22297 0.74165
 H1569 H 0.39135 0.19034 0.70018
 H1570 H 0.42983 0.21478 0.67752
 C1571 C 0.94201 0.70371 0.82205
 C1572 C 0.95977 0.70804 0.84130
 C1573 C 0.98163 0.71265 0.82805
 C1574 C 0.97535 0.71122 0.80177
 O1575 O 0.95137 0.70564 0.79809
 H1576 H 0.95705 0.70803 0.86241
 H1577 H 0.99969 0.71760 0.83645
 C1578 C 0.89971 0.25263 0.26080
 C1579 C 0.90140 0.27998 0.25998
 C1580 C 0.92395 0.28535 0.24879
 C1581 C 0.93425 0.26091 0.24320
 O1582 O 0.91977 0.24089 0.25091
 H1583 H 0.88810 0.29429 0.26745
 H1584 H 0.93237 0.30476 0.24586
 C1585 C 0.23523 0.30173 0.56865
 C1586 C 0.21510 0.31717 0.56161
 C1587 C 0.20765 0.30755 0.53769
 C1588 C 0.22369 0.28686 0.53212
 O1589 O 0.24042 0.28336 0.55088
 H1590 H 0.20735 0.33393 0.57217
 H1591 H 0.19277 0.31514 0.52544
 C1592 C 0.29541 0.77213 0.10198
 C1593 C 0.30386 0.74679 0.09683
 C1594 C 0.29037 0.73809 0.07581
 C1595 C 0.27472 0.75880 0.06955
 O1596 O 0.27767 0.77956 0.08545
 H1597 H 0.31903 0.73648 0.10644
 H1598 H 0.29261 0.71948 0.06534
 C1599 C 0.74452 0.25973 0.07436
 C1600 C 0.71878 0.26109 0.07504
 C1601 C 0.71097 0.25137 0.05149
 C1602 C 0.73240 0.24373 0.03819
 O1603 O 0.75290 0.24933 0.05203
 H1604 H 0.70705 0.26966 0.09018
 H1605 H 0.69190 0.25169 0.04448
 C1606 C 0.78804 0.75382 0.60624
 C1607 C 0.79641 0.72890 0.59910
 C1608 C 0.78605 0.72386 0.57517
 C1609 C 0.77202 0.74599 0.56948
 O1610 O 0.77308 0.76424 0.58833
 H1611 H 0.80932 0.71632 0.60962
 H1612 H 0.78904 0.70657 0.56285
 C1613 C 0.31022 0.67354 0.42778
 C1614 C 0.32760 0.66983 0.44733
 C1615 C 0.31576 0.67684 0.47001
 C1616 C 0.29195 0.68463 0.46267
 O1617 O 0.28868 0.68258 0.43690
 H1618 H 0.34678 0.66335 0.44519
 H1619 H 0.32414 0.67762 0.48937
 C1620 C 0.32446 0.22322 0.92331
 C1621 C 0.33363 0.24875 0.92675
 C1622 C 0.31627 0.26134 0.94206
 C1623 C 0.29795 0.24250 0.94662
 O1624 O 0.30297 0.21936 0.93563
 H1625 H 0.35011 0.25757 0.91786
 H1626 H 0.31634 0.28198 0.94815
 C1627 C 0.79068 0.70115 0.95686
 C1628 C 0.77971 0.68382 0.97443
 C1629 C 0.77146 0.69946 0.99455
 C1630 C 0.77773 0.72516 0.98750
 O1631 O 0.78950 0.72618 0.96467
 H1632 H 0.77796 0.66242 0.97275
 H1633 H 0.76140 0.69303 1.01194
 C1634 C 0.76154 0.26217 0.40899
 C1635 C 0.76471 0.28892 0.41373
 C1636 C 0.75547 0.29288 0.43835
 C1637 C 0.74724 0.26819 0.44680
 O1638 O 0.75114 0.24944 0.42899
 H1639 H 0.77362 0.30354 0.40117
 H1640 H 0.75618 0.31127 0.44944
 C1641 C 0.69317 0.32384 0.44876
 C1642 C 0.70083 0.34283 0.46670
 C1643 C 0.71334 0.32918 0.48570
 C1644 C 0.71281 0.30299 0.47750
 O1645 O 0.70044 0.29971 0.45518
 H1646 H 0.69827 0.36412 0.46558
 H1647 H 0.72297 0.33747 0.50260
 C1648 C 0.74626 0.79154 0.92670
 C1649 C 0.77185 0.78898 0.92434
 C1650 C 0.77962 0.77928 0.94797
 C1651 C 0.75817 0.77624 0.96287
 O1652 O 0.73795 0.78409 0.95010
 H1653 H 0.78351 0.79431 0.90772
 H1654 H 0.79877 0.77617 0.95409
 C1655 C 0.23560 0.27768 0.88363
 C1656 C 0.25718 0.26513 0.87607
 C1657 C 0.26659 0.25457 0.89854
 C1658 C 0.25033 0.26201 0.91854
 O1659 O 0.23127 0.27577 0.90912
 H1660 H 0.26474 0.26320 0.85639
 H1661 H 0.28288 0.24227 0.89915
 C1662 C 0.23054 0.73493 0.41111
 C1663 C 0.22620 0.70799 0.40871
 C1664 C 0.23705 0.69698 0.43042
 C1665 C 0.24731 0.71806 0.44428
 O1666 O 0.24314 0.74107 0.43267
 H1667 H 0.21568 0.69776 0.39351
 H1668 H 0.23630 0.67631 0.43626
 C1669 C 0.70006 0.75006 0.59915
 C1670 C 0.68797 0.77263 0.59072
 C1671 C 0.70002 0.77995 0.56817
 C1672 C 0.71864 0.76138 0.56466
 O1673 O 0.71868 0.74323 0.58345
 H1674 H 0.67199 0.78226 0.59959
 H1675 H 0.69555 0.79659 0.55560
 C1676 C 0.66931 0.19531 0.04156
 C1677 C 0.65189 0.20655 0.02509
 C1678 C 0.66546 0.21770 0.00517
 C1679 C 0.69019 0.21282 0.01125
 O1680 O 0.69254 0.19898 0.03321
 H1681 H 0.63177 0.20697 0.02758
 H1682 H 0.65830 0.22918 -0.01112
 C1683 C 0.20493 0.76290 0.10603
 C1684 C 0.19214 0.78480 0.09700
 C1685 C 0.20217 0.79022 0.07289
 C1686 C 0.22046 0.77136 0.06911
 O1687 O 0.22217 0.75476 0.08919
 H1688 H 0.17679 0.79504 0.10643
 H1689 H 0.19648 0.80567 0.05943
 C1690 C 0.22755 0.20935 0.56539
 C1691 C 0.24925 0.19818 0.55575
 C1692 C 0.25382 0.21064 0.53252
 C1693 C 0.23467 0.22865 0.52958
 O1694 O 0.21866 0.22801 0.54959
 H1695 H 0.26021 0.18243 0.56434
 H1696 H 0.26911 0.20682 0.51906
   
