data_POSCAR
  _audit_creation_date              2014-09-24
  _audit_creation_method            'ToBaCCo'
  _symmetry_space_group_name_H-M    'P1'
  _symmetry_Int_Tables_number       1
  _symmetry_cell_setting            triclinic
  loop_
  _symmetry_equiv_pos_as_xyz
 x,y,z
_cell_length_a 74.7047
_cell_length_b 72.4379
_cell_length_c 78.5773
_cell_angle_alpha 90.281600
_cell_angle_beta 90.136600
_cell_angle_gamma 89.654000
loop_
  _atom_site_label
  _atom_site_type_symbol
  _atom_site_fract_x
  _atom_site_fract_y
  _atom_site_fract_z
C1 C 0.40008 -0.02497 0.25008
 C2 C 0.40873 -0.00900 0.24457
 C3 C 0.41762 -0.00899 0.22898
 C4 C 0.41841 -0.02504 0.21892
 C5 C 0.40939 -0.04099 0.22445
 C6 C 0.39976 -0.04119 0.23999
 C7 C 0.40896 0.00754 0.25558
 C8 C 0.41756 0.00675 0.27140
 C9 C 0.41751 0.02201 0.28266
 C10 C 0.40826 0.03817 0.27744
 C11 C 0.39945 0.03905 0.26157
 C12 C 0.40016 0.02373 0.25059
 H13 H 0.39406 -0.02460 0.26257
 H14 H 0.42410 0.00354 0.22482
 H15 H 0.42488 -0.00575 0.27439
 H16 H 0.39318 0.02407 0.23849
 H17 H 0.40962 -0.05300 0.21626
 H18 H 0.40715 0.04996 0.28588
 C19 C 0.09752 -0.03126 0.74933
 C20 C 0.08857 -0.01498 0.75412
 C21 C 0.07878 -0.01439 0.76929
 C22 C 0.07755 -0.03003 0.77972
 C23 C 0.08676 -0.04624 0.77484
 C24 C 0.09701 -0.04691 0.75982
 C25 C 0.08993 0.00175 0.74362
 C26 C 0.08109 0.00273 0.72794
 C27 C 0.08177 0.01885 0.71786
 C28 C 0.09231 0.03374 0.72394
 C29 C 0.10145 0.03278 0.73964
 C30 C 0.09987 0.01677 0.74949
 H31 H 0.10548 -0.03143 0.73782
 H32 H 0.07231 -0.00157 0.77301
 H33 H 0.07407 -0.00944 0.72361
 H34 H 0.10641 0.01590 0.76179
 H35 H 0.08588 -0.05848 0.78265
 H36 H 0.09320 0.04639 0.71679
 C37 C 0.59864 0.47550 0.25103
 C38 C 0.59039 0.49213 0.25594
 C39 C 0.58150 0.49330 0.27158
 C40 C 0.58061 0.47792 0.28235
 C41 C 0.58917 0.46139 0.27742
 C42 C 0.59843 0.46012 0.26186
 C43 C 0.59114 0.50843 0.24479
 C44 C 0.58314 0.50788 0.22866
 C45 C 0.58352 0.52336 0.21796
 C46 C 0.59262 0.53929 0.22351
 C47 C 0.60102 0.53991 0.23957
 C48 C 0.59990 0.52448 0.25027
 H49 H 0.60585 0.47482 0.23908
 H50 H 0.57496 0.50612 0.27517
 H51 H 0.57661 0.49532 0.22450
 H52 H 0.60638 0.52466 0.26262
 H53 H 0.58886 0.44959 0.28582
 H54 H 0.59291 0.55137 0.21546
 C55 C 0.89854 0.47432 0.74866
 C56 C 0.90818 0.48978 0.74340
 C57 C 0.91732 0.48936 0.72791
 C58 C 0.91716 0.47349 0.71759
 C59 C 0.90712 0.45810 0.72283
 C60 C 0.89759 0.45843 0.73832
 C61 C 0.90876 0.50653 0.75405
 C62 C 0.91920 0.50680 0.76886
 C63 C 0.92042 0.52286 0.77911
 C64 C 0.91016 0.53847 0.77412
 C65 C 0.89941 0.53819 0.75938
 C66 C 0.89905 0.52222 0.74926
 H67 H 0.89171 0.47480 0.76081
 H68 H 0.92449 0.50155 0.72391
 H69 H 0.92594 0.49413 0.77240
 H70 H 0.89081 0.52178 0.73789
 H71 H 0.90661 0.44595 0.71478
 H72 H 0.91099 0.55134 0.78108
 C73 C 0.26520 0.35645 1.01922
 C74 C 0.26553 0.36871 1.00541
 C75 C 0.27971 0.38120 1.00380
 C76 C 0.29372 0.38143 1.01579
 C77 C 0.29324 0.36894 1.02943
 C78 C 0.27891 0.35651 1.03169
 C79 C 0.25095 0.36835 0.99261
 C80 C 0.23636 0.38067 0.99388
 C81 C 0.22227 0.37998 0.98195
 C82 C 0.22324 0.36712 0.96853
 C83 C 0.23784 0.35493 0.96691
 C84 C 0.25156 0.35546 0.97919
 H85 H 0.25371 0.34753 1.02042
 H86 H 0.27975 0.39076 0.99324
 H87 H 0.23583 0.39047 1.00432
 H88 H 0.26293 0.34617 0.97812
 H89 H 0.30470 0.36842 1.03782
 H90 H 0.21257 0.36667 0.95918
 C91 C 0.73963 0.14534 1.01948
 C92 C 0.73911 0.13312 1.00555
 C93 C 0.72429 0.12153 1.00326
 C94 C 0.70992 0.12221 1.01476
 C95 C 0.71070 0.13443 1.02866
 C96 C 0.72540 0.14631 1.03130
 C97 C 0.75357 0.13360 0.99273
 C98 C 0.76891 0.12240 0.99446
 C99 C 0.78308 0.12373 0.98273
 C100 C 0.78149 0.13619 0.96915
 C101 C 0.76633 0.14759 0.96730
 C102 C 0.75238 0.14615 0.97919
 H103 H 0.75087 0.15464 1.02044
 H104 H 0.72378 0.11237 0.99233
 H105 H 0.76996 0.11303 1.00512
 H106 H 0.74070 0.15502 0.97816
 H107 H 0.70001 0.13384 1.03790
 H108 H 0.79204 0.13672 0.95973
 C109 C 0.24191 0.64258 0.51913
 C110 C 0.24035 0.63029 0.50534
 C111 C 0.22485 0.61953 0.50358
 C112 C 0.21089 0.62103 0.51554
 C113 C 0.21287 0.63318 0.52942
 C114 C 0.22823 0.64412 0.53135
 C115 C 0.25483 0.62929 0.49256
 C116 C 0.26927 0.61693 0.49471
 C117 C 0.28380 0.61710 0.48334
 C118 C 0.28352 0.62951 0.46969
 C119 C 0.26926 0.64195 0.46735
 C120 C 0.25487 0.64171 0.47886
 H121 H 0.25375 0.65108 0.52017
 H122 H 0.22355 0.61031 0.49275
 H123 H 0.26942 0.60763 0.50547
 H124 H 0.24390 0.65144 0.47744
 H125 H 0.20251 0.63374 0.53903
 H126 H 0.29442 0.62924 0.46061
 C127 C 0.75491 0.86058 0.52362
 C128 C 0.75570 0.87254 0.50967
 C129 C 0.77015 0.88482 0.50813
 C130 C 0.78391 0.88544 0.52059
 C131 C 0.78276 0.87299 0.53434
 C132 C 0.76839 0.86075 0.53608
 C133 C 0.74132 0.87207 0.49668
 C134 C 0.72556 0.88255 0.49887
 C135 C 0.71151 0.88139 0.48694
 C136 C 0.71358 0.86978 0.47268
 C137 C 0.72930 0.85935 0.47019
 C138 C 0.74309 0.86050 0.48237
 H139 H 0.74366 0.85130 0.52484
 H140 H 0.77007 0.89425 0.49751
 H141 H 0.72412 0.89128 0.51003
 H142 H 0.75529 0.85254 0.48067
 H143 H 0.79354 0.87196 0.54351
 H144 H 0.70285 0.86887 0.46342
 C145 C -0.01530 0.24096 0.32076
 C146 C -0.00164 0.24212 0.33283
 C147 C 0.00300 0.22682 0.34261
 C148 C -0.00561 0.20980 0.34016
 C149 C -0.01844 0.20854 0.32699
 C150 C -0.02444 0.22422 0.31792
 C151 C 0.00706 0.25983 0.33617
 C152 C 0.00252 0.27011 0.35066
 C153 C 0.01178 0.28636 0.35460
 C154 C 0.02552 0.29224 0.34375
 C155 C 0.03056 0.28165 0.32955
 C156 C 0.02099 0.26557 0.32567
 H157 H -0.01928 0.25366 0.31466
 H158 H 0.01261 0.22885 0.35276
 H159 H -0.00780 0.26509 0.35910
 H160 H 0.02500 0.25684 0.31509
 H161 H -0.02345 0.19508 0.32361
 H162 H 0.03260 0.30490 0.34657
 C163 C -0.01888 0.76264 0.16938
 C164 C -0.00267 0.76635 0.16142
 C165 C 0.00058 0.78376 0.15468
 C166 C -0.01226 0.79788 0.15619
 C167 C -0.02813 0.79436 0.16517
 C168 C -0.03206 0.77648 0.17108
 C169 C 0.01025 0.75144 0.15865
 C170 C 0.00775 0.73907 0.14517
 C171 C 0.02036 0.72495 0.14179
 C172 C 0.03538 0.72358 0.15271
 C173 C 0.03799 0.73617 0.16609
 C174 C 0.02533 0.75009 0.16900
 H175 H -0.02102 0.74889 0.17431
 H176 H 0.01269 0.78581 0.14739
 H177 H -0.00364 0.74138 0.13691
 H178 H 0.02718 0.75990 0.17932
 H179 H -0.03806 0.80522 0.16613
 H180 H 0.04517 0.71268 0.15107
 C181 C 0.47777 0.26109 0.66760
 C182 C 0.49433 0.26505 0.66028
 C183 C 0.49873 0.28336 0.65663
 C184 C 0.48671 0.29785 0.66026
 C185 C 0.47045 0.29369 0.66834
 C186 C 0.46566 0.27533 0.67141
 C187 C 0.50642 0.24999 0.65497
 C188 C 0.49990 0.23524 0.64518
 C189 C 0.51149 0.22117 0.63969
 C190 C 0.52963 0.22182 0.64420
 C191 C 0.53629 0.23657 0.65383
 C192 C 0.52464 0.25067 0.65914
 H193 H 0.47414 0.24687 0.66996
 H194 H 0.51098 0.28600 0.64974
 H195 H 0.48588 0.23485 0.64163
 H196 H 0.52968 0.26204 0.66675
 H197 H 0.46092 0.30459 0.67117
 H198 H 0.53872 0.21116 0.63968
 C199 C 0.46941 0.74293 0.83925
 C200 C 0.48796 0.74365 0.84127
 C201 C 0.49723 0.72836 0.84781
 C202 C 0.48804 0.71215 0.85231
 C203 C 0.46938 0.71152 0.84948
 C204 C 0.46008 0.72693 0.84335
 C205 C 0.49743 0.76087 0.83751
 C206 C 0.49218 0.77724 0.84566
 C207 C 0.50171 0.79362 0.84311
 C208 C 0.51605 0.79356 0.83162
 C209 C 0.52186 0.77710 0.82389
 C210 C 0.51235 0.76077 0.82679
 H211 H 0.46224 0.75487 0.83441
 H212 H 0.51160 0.72927 0.84938
 H213 H 0.48140 0.77682 0.85484
 H214 H 0.51689 0.74785 0.82125
 H215 H 0.46164 0.69970 0.85342
 H216 H 0.52326 0.80622 0.82925
 C217 C -0.26738 0.64319 1.00256
 C218 C -0.25158 0.65201 1.00772
 C219 C -0.25047 0.65981 1.02401
 C220 C -0.26520 0.65935 1.03507
 C221 C -0.28095 0.65034 1.02974
 C222 C -0.28233 0.64190 1.01347
 C223 C -0.23663 0.65392 0.99554
 C224 C -0.23983 0.66229 0.97978
 C225 C -0.22623 0.66386 0.96744
 C226 C -0.20908 0.65673 0.97157
 C227 C -0.20568 0.64806 0.98732
 C228 C -0.21953 0.64702 0.99934
 H229 H -0.26798 0.63797 0.98966
 H230 H -0.23820 0.66654 1.02789
 H231 H -0.25296 0.66821 0.97765
 H232 H -0.21727 0.64012 1.01137
 H233 H -0.29195 0.64969 1.03860
 H234 H -0.19838 0.65710 0.96234
 C235 C -0.27437 0.35808 0.49803
 C236 C -0.25877 0.34876 0.49293
 C237 C -0.25804 0.34027 0.47698
 C238 C -0.27275 0.34090 0.46597
 C239 C -0.28824 0.35069 0.47093
 C240 C -0.28939 0.35955 0.48706
 C241 C -0.24312 0.34751 0.50433
 C242 C -0.24434 0.33788 0.51969
 C243 C -0.22922 0.33560 0.53013
 C244 C -0.21292 0.34361 0.52524
 C245 C -0.21158 0.35362 0.50999
 C246 C -0.22674 0.35524 0.49948
 H247 H -0.27465 0.36376 0.51078
 H248 H -0.24591 0.33309 0.47316
 H249 H -0.25693 0.33158 0.52315
 H250 H -0.22599 0.36289 0.48769
 H251 H -0.29907 0.35166 0.46183
 H252 H -0.20126 0.34207 0.53334
 C253 C 0.22383 -0.14375 -0.00022
 C254 C 0.23982 -0.15265 -0.00476
 C255 C 0.24070 -0.16308 -0.01980
 C256 C 0.22547 -0.16529 -0.03029
 C257 C 0.20953 -0.15598 -0.02551
 C258 C 0.20868 -0.14502 -0.01069
 C259 C 0.25535 -0.15199 0.00684
 C260 C 0.25427 -0.16062 0.02270
 C261 C 0.26880 -0.16045 0.03423
 C262 C 0.28444 -0.15088 0.02930
 C263 C 0.28559 -0.14197 0.01344
 C264 C 0.27104 -0.14289 0.00215
 H265 H 0.22337 -0.13550 0.01132
 H266 H 0.25304 -0.17041 -0.02253
 H267 H 0.24223 -0.16825 0.02543
 H268 H 0.27164 -0.13600 -0.01004
 H269 H 0.19777 -0.15669 -0.03354
 H270 H 0.29566 -0.14971 0.03795
 C271 C 0.22301 1.14715 0.49970
 C272 C 0.23854 1.15610 0.50532
 C273 C 0.23888 1.16432 0.52149
 C274 C 0.22368 1.16405 0.53202
 C275 C 0.20824 1.15477 0.52626
 C276 C 0.20784 1.14606 0.51019
 C277 C 0.25438 1.15695 0.49414
 C278 C 0.25304 1.16552 0.47822
 C279 C 0.26785 1.16637 0.46710
 C280 C 0.28403 1.15787 0.47244
 C281 C 0.28544 1.14894 0.48828
 C282 C 0.27062 1.14890 0.49919
 H283 H 0.22285 1.14091 0.48714
 H284 H 0.25104 1.17098 0.52578
 H285 H 0.24049 1.17223 0.47508
 H286 H 0.27142 1.14188 0.51133
 H287 H 0.19654 1.15424 0.53434
 H288 H 0.29550 1.15742 0.46407
 C289 C 0.09961 0.50827 0.22845
 C290 C 0.11171 0.50843 0.24215
 C291 C 0.12411 0.52284 0.24371
 C292 C 0.12473 0.53690 0.23146
 C293 C 0.11268 0.53645 0.21772
 C294 C 0.09993 0.52231 0.21612
 C295 C 0.11175 0.49325 0.25465
 C296 C 0.12336 0.47809 0.25245
 C297 C 0.12414 0.46404 0.26470
 C298 C 0.11306 0.46522 0.27904
 C299 C 0.10125 0.48017 0.28137
 C300 C 0.10060 0.49416 0.26902
 H301 H 0.08995 0.49722 0.22747
 H302 H 0.13348 0.52291 0.25426
 H303 H 0.13201 0.47743 0.24141
 H304 H 0.09179 0.50595 0.27076
 H305 H 0.11334 0.54715 0.20818
 H306 H 0.11343 0.45419 0.28832
 C307 C -0.10156 0.99198 0.22685
 C308 C -0.11297 0.99091 0.24092
 C309 C -0.12482 0.97606 0.24243
 C310 C -0.12546 0.96199 0.22989
 C311 C -0.11373 0.96344 0.21586
 C312 C -0.10182 0.97838 0.21395
 C313 C -0.11224 1.00546 0.25417
 C314 C -0.12385 1.02078 0.25348
 C315 C -0.12233 1.03546 0.26535
 C316 C -0.10920 1.03384 0.27826
 C317 C -0.09756 1.01854 0.27916
 C318 C -0.09912 1.00447 0.26690
 H319 H -0.09305 1.00396 0.22584
 H320 H -0.13380 0.97598 0.25321
 H321 H -0.13333 1.02153 0.24306
 H322 H -0.09002 0.99277 0.26709
 H323 H -0.11272 0.95200 0.20706
 H324 H -0.10860 1.04404 0.28834
 C325 C 0.39824 0.48641 -0.26994
 C326 C 0.38634 0.48606 -0.25615
 C327 C 0.37375 0.47184 -0.25494
 C328 C 0.37313 0.45776 -0.26731
 C329 C 0.38515 0.45835 -0.28105
 C330 C 0.39768 0.47276 -0.28286
 C331 C 0.38732 0.50061 -0.24290
 C332 C 0.37427 0.51464 -0.24205
 C333 C 0.37574 0.52928 -0.23012
 C334 C 0.39033 0.52882 -0.21862
 C335 C 0.40336 0.51473 -0.21919
 C336 C 0.40184 0.50081 -0.23159
 H337 H 0.40726 0.49800 -0.27081
 H338 H 0.36454 0.47173 -0.24431
 H339 H 0.36366 0.51451 -0.25144
 H340 H 0.41194 0.49006 -0.23248
 H341 H 0.38523 0.44684 -0.28987
 H342 H 0.39112 0.53887 -0.20843
 C343 C 0.59537 0.00735 -0.26756
 C344 C 0.60907 0.00708 -0.25531
 C345 C 0.62167 0.02136 -0.25482
 C346 C 0.62049 0.03607 -0.26635
 C347 C 0.60680 0.03606 -0.27865
 C348 C 0.59402 0.02175 -0.27961
 C349 C 0.60963 -0.00777 -0.24248
 C350 C 0.62125 -0.02296 -0.24448
 C351 C 0.62182 -0.03698 -0.23217
 C352 C 0.61063 -0.03565 -0.21789
 C353 C 0.59880 -0.02065 -0.21579
 C354 C 0.59834 -0.00678 -0.22824
 H355 H 0.58550 -0.00351 -0.26713
 H356 H 0.63205 0.02124 -0.24517
 H357 H 0.62988 -0.02379 -0.25554
 H358 H 0.58946 0.00500 -0.22673
 H359 H 0.60694 0.04689 -0.28807
 H360 H 0.61080 -0.04663 -0.20858
 C361 C -0.01139 0.23493 0.90940
 C362 C -0.00940 0.25149 0.90054
 C363 C -0.02310 0.25769 0.88974
 C364 C -0.03873 0.24734 0.88773
 C365 C -0.04100 0.23133 0.89743
 C366 C -0.02717 0.22464 0.90782
 C367 C 0.00777 0.26128 0.90090
 C368 C 0.02358 0.25196 0.89646
 C369 C 0.03969 0.26164 0.89486
 C370 C 0.03993 0.28064 0.89850
 C371 C 0.02421 0.29000 0.90313
 C372 C 0.00813 0.28025 0.90422
 H373 H -0.00029 0.22972 0.91691
 H374 H -0.02096 0.26981 0.88199
 H375 H 0.02315 0.23735 0.89350
 H376 H -0.00415 0.28740 0.90763
 H377 H -0.05329 0.22356 0.89622
 H378 H 0.05213 0.28842 0.89675
 C379 C 0.51178 0.22712 0.09979
 C380 C 0.50817 0.24323 0.10897
 C381 C 0.51853 0.24783 0.12317
 C382 C 0.53287 0.23649 0.12814
 C383 C 0.53674 0.22053 0.11853
 C384 C 0.52607 0.21558 0.10454
 C385 C 0.49266 0.25464 0.10460
 C386 C 0.47597 0.25036 0.11141
 C387 C 0.46124 0.26210 0.10877
 C388 C 0.46341 0.27795 0.09877
 C389 C 0.48027 0.28256 0.09229
 C390 C 0.49486 0.27071 0.09512
 H391 H 0.50305 0.22333 0.08932
 H392 H 0.51499 0.25996 0.13057
 H393 H 0.47484 0.23843 0.11960
 H394 H 0.50802 0.27418 0.09035
 H395 H 0.54808 0.21190 0.12189
 H396 H 0.45221 0.28726 0.09679
 C397 C 0.00164 0.73446 0.59346
 C398 C 0.00397 0.75079 0.60279
 C399 C 0.02056 0.75470 0.61024
 C400 C 0.03498 0.74241 0.60834
 C401 C 0.03281 0.72669 0.59808
 C402 C 0.01606 0.72224 0.59118
 C403 C -0.01126 0.76308 0.60623
 C404 C -0.02559 0.75691 0.61609
 C405 C -0.03944 0.76914 0.62108
 C406 C -0.03886 0.78743 0.61494
 C407 C -0.02438 0.79365 0.60532
 C408 C -0.01055 0.78145 0.60109
 H409 H -0.01150 0.73105 0.58854
 H410 H 0.02178 0.76670 0.61843
 H411 H -0.02491 0.74294 0.62086
 H412 H 0.00078 0.78621 0.59376
 H413 H 0.04403 0.71739 0.59610
 H414 H -0.04957 0.79712 0.61755
 C415 C 0.49353 0.71965 0.40043
 C416 C 0.49664 0.73728 0.39405
 C417 C 0.48704 0.74365 0.37992
 C418 C 0.47395 0.73253 0.37226
 C419 C 0.47044 0.71506 0.37920
 C420 C 0.48041 0.70846 0.39303
 C421 C 0.51090 0.74858 0.40131
 C422 C 0.52841 0.74603 0.39559
 C423 C 0.54210 0.75779 0.40114
 C424 C 0.53803 0.77185 0.41288
 C425 C 0.52035 0.77477 0.41836
 C426 C 0.50683 0.76292 0.41262
 H427 H 0.50136 0.71465 0.41112
 H428 H 0.49021 0.75704 0.37467
 H429 H 0.53104 0.73553 0.38604
 H430 H 0.49308 0.76512 0.41655
 H431 H 0.46020 0.70636 0.37368
 H432 H 0.54843 0.78122 0.41702
 Zr433 Zr 0.01534 -0.01781 1.02591
 O434 O 0.03464 -0.00553 1.04209
 O435 O 0.01195 -0.04347 1.03721
 O436 O 0.00483 -0.01406 1.05081
 O437 O 0.04541 -0.03091 0.99480
 O438 O -0.02136 0.00150 1.04617
 O439 O 0.04064 -0.03114 1.02346
 O440 O -0.01000 -0.05705 1.02136
 O441 O -0.01229 -0.02191 1.02352
 O442 O 0.01160 -0.03469 1.00454
 O443 O 0.00401 0.00870 1.02354
 O444 O 0.02728 -0.00370 1.00546
 Zr445 Zr -0.01674 0.00206 0.97789
 Zr446 Zr -0.02339 0.00433 1.01973
 Zr447 Zr 0.02192 -0.02014 0.98403
 Zr448 Zr -0.01583 -0.03799 1.00172
 O449 O 0.04451 -0.00739 0.97305
 O450 O -0.04027 -0.04409 1.01410
 O451 O -0.00549 -0.02468 0.98015
 O452 O -0.02828 -0.01225 0.99836
 O453 O -0.01305 0.01905 0.99925
 O454 O 0.01086 0.00601 0.98048
 C455 C 0.00109 -0.05669 1.03396
 C456 C 0.05023 -0.03462 1.01013
 C457 C -0.00971 -0.00609 1.05600
 O458 O -0.04726 -0.00774 1.02876
 O459 O -0.04553 0.01813 1.00915
 O460 O -0.04147 0.01636 0.98046
 C461 C -0.05046 0.02137 0.99375
 O462 O 0.03550 0.02810 1.01969
 Zr463 Zr 0.01454 0.02195 1.00226
 O464 O -0.01387 0.02842 0.96724
 O465 O -0.02573 0.03066 1.03134
 O466 O 0.00665 0.04579 1.01618
 O467 O 0.03778 0.02975 0.98867
 O468 O 0.00651 0.04214 0.98474
 C469 C -0.00453 0.04233 0.97217
 O470 O -0.03686 -0.00953 0.96219
 O471 O 0.02576 -0.04710 0.97411
 O472 O -0.00736 -0.00373 0.95294
 O473 O 0.01823 -0.02026 0.95760
 O474 O -0.00727 -0.06278 0.98970
 O475 O -0.03447 -0.04578 0.98256
 C476 C 0.00637 -0.01307 0.94772
 H477 H 0.01758 -0.04687 1.00558
 H478 H -0.04126 -0.01407 0.99650
 H479 H 0.01620 0.01209 0.97045
 H480 H 0.00631 0.01624 1.03384
 H481 H -0.04148 -0.05770 1.01429
 H482 H -0.05321 0.00159 1.03612
 H483 H -0.03712 0.03075 1.03778
 H484 H 0.01357 0.05635 1.01175
 H485 H -0.01438 -0.07299 0.99455
 H486 H 0.03715 -0.04699 0.96767
 H487 H 0.05051 -0.01685 0.96587
 H488 H 0.03853 0.04340 0.98919
 H489 H -0.03975 -0.05786 0.98548
 H490 H -0.03989 -0.00022 0.95340
 H491 H 0.03776 -0.01480 1.05088
 H492 H 0.03919 0.04111 1.01830
 Zr493 Zr 0.51617 0.48052 0.52934
 O494 O 0.53357 0.49592 0.54516
 O495 O 0.51606 0.45494 0.54134
 O496 O 0.50504 0.48327 0.55408
 O497 O 0.54810 0.47110 0.49877
 O498 O 0.47700 0.49468 0.54897
 O499 O 0.54283 0.47033 0.52736
 O500 O 0.49621 0.43811 0.52568
 O501 O 0.48942 0.47238 0.52682
 O502 O 0.51500 0.46278 0.50830
 O503 O 0.50134 0.50509 0.52632
 O504 O 0.52624 0.49590 0.50873
 Zr505 Zr 0.48230 0.49430 0.48071
 Zr506 Zr 0.47488 0.49664 0.52245
 Zr507 Zr 0.52353 0.47829 0.48763
 Zr508 Zr 0.48836 0.45545 0.50534
 O509 O 0.54437 0.49400 0.47681
 O510 O 0.46473 0.44609 0.51736
 O511 O 0.49712 0.46957 0.48357
 O512 O 0.47251 0.47902 0.50138
 O513 O 0.48328 0.51220 0.50170
 O514 O 0.50897 0.50245 0.48345
 C515 C 0.50692 0.44032 0.53841
 C516 C 0.55298 0.46800 0.51421
 C517 C 0.48952 0.48913 0.55901
 O518 O 0.45277 0.48139 0.53138
 O519 O 0.45139 0.50722 0.51135
 O520 O 0.45611 0.50557 0.48273
 C521 C 0.44645 0.50976 0.49583
 O522 O 0.52983 0.52906 0.52212
 Zr523 Zr 0.51004 0.51938 0.50483
 O524 O 0.48173 0.52027 0.46921
 O525 O 0.46882 0.52254 0.53370
 O526 O 0.49881 0.54200 0.51840
 O527 O 0.53185 0.53044 0.49107
 O528 O 0.49895 0.53782 0.48692
 C529 C 0.48848 0.53572 0.47401
 O530 O 0.46411 0.47928 0.46537
 O531 O 0.53103 0.45197 0.47813
 O532 O 0.49271 0.48966 0.45594
 O533 O 0.52037 0.47745 0.46115
 O534 O 0.50038 0.43167 0.49429
 O535 O 0.47148 0.44462 0.48596
 C536 C 0.50783 0.48273 0.45101
 H537 H 0.52249 0.45155 0.50964
 H538 H 0.45992 0.47535 0.49943
 H539 H 0.51353 0.50908 0.47337
 H540 H 0.50248 0.51311 0.53650
 H541 H 0.46541 0.43243 0.51783
 H542 H 0.44551 0.48992 0.53849
 H543 H 0.45743 0.52108 0.53998
 H544 H 0.50406 0.55343 0.51372
 H545 H 0.49453 0.42073 0.49930
 H546 H 0.54235 0.45360 0.47176
 H547 H 0.55168 0.48541 0.46982
 H548 H 0.53050 0.54406 0.49124
 H549 H 0.46777 0.43197 0.48905
 H550 H 0.45988 0.48776 0.45631
 H551 H 0.53781 0.48745 0.55422
 H552 H 0.53164 0.54246 0.52044
 Zr553 Zr 0.47983 1.02607 0.53033
 O554 O 0.46241 1.01642 0.54949
 O555 O 0.48249 1.05380 0.53693
 O556 O 0.49227 1.02699 0.55466
 O557 O 0.44676 1.03228 0.50011
 O558 O 0.51924 1.01295 0.55004
 O559 O 0.45390 1.03801 0.52787
 O560 O 0.50245 1.06497 0.51769
 O561 O 0.50698 1.03073 0.52526
 O562 O 0.48104 1.03869 0.50648
 O563 O 0.49224 0.99995 0.53105
 O564 O 0.46689 1.00782 0.51335
 Zr565 Zr 0.50873 0.99852 0.48361
 Zr566 Zr 0.51900 1.00456 0.52451
 Zr567 Zr 0.46966 1.02011 0.48941
 Zr568 Zr 0.50796 1.04247 0.50113
 O569 O 0.44679 1.00459 0.48261
 O570 O 0.53287 1.05167 0.51086
 O571 O 0.49643 1.02487 0.48278
 O572 O 0.52131 1.01692 0.50063
 O573 O 0.50766 0.98576 0.50744
 O574 O 0.48166 0.99410 0.48892
 C575 C 0.49200 1.06678 0.53064
 C576 C 0.44315 1.03883 0.51497
 C577 C 0.50782 1.02123 0.55967
 O578 O 0.54318 1.01877 0.52927
 O579 O 0.54058 0.98921 0.51457
 O580 O 0.53406 0.98546 0.48642
 C581 C 0.54424 0.98311 0.49956
 O582 O 0.46169 0.97883 0.53289
 Zr583 Zr 0.48059 0.98243 0.51302
 O584 O 0.50584 0.97050 0.47714
 O585 O 0.52343 0.98124 0.54013
 O586 O 0.49096 0.96184 0.52949
 O587 O 0.45656 0.97143 0.50284
 O588 O 0.48778 0.95949 0.49806
 C589 C 0.49749 0.95739 0.48470
 O590 O 0.52721 1.00741 0.46502
 O591 O 0.46379 1.04449 0.47569
 O592 O 0.49734 0.99991 0.45885
 O593 O 0.47095 1.01515 0.46319
 O594 O 0.49754 1.06418 0.48597
 O595 O 0.52479 1.04715 0.47983
 C596 C 0.48256 1.00724 0.45352
 H597 H 0.47459 1.05065 0.50598
 H598 H 0.53400 1.01876 0.49750
 H599 H 0.47577 0.98608 0.48038
 H600 H 0.49120 0.99440 0.54249
 H601 H 0.53347 1.06517 0.50898
 H602 H 0.55009 1.01129 0.53756
 H603 H 0.53534 0.98283 0.54551
 H604 H 0.48419 0.95034 0.52731
 H605 H 0.50456 1.07541 0.48860
 H606 H 0.45189 1.04276 0.47033
 H607 H 0.43972 1.01225 0.47459
 H608 H 0.45643 0.95807 0.50547
 H609 H 0.53001 1.05965 0.48071
 H610 H 0.52981 0.99667 0.45751
 H611 H 0.45953 1.02712 0.55695
 H612 H 0.45853 0.96561 0.53374
 Zr613 Zr -0.00152 0.53726 1.01877
 O614 O -0.02021 0.52632 1.03618
 O615 O 0.00183 0.56407 1.02809
 O616 O 0.00948 0.53547 1.04367
 O617 O -0.03276 0.54697 0.98755
 O618 O 0.03650 0.52145 1.03929
 O619 O -0.02722 0.54972 1.01600
 O620 O 0.02273 0.57653 1.01049
 O621 O 0.02596 0.54163 1.01543
 O622 O 0.00131 0.55217 0.99621
 O623 O 0.01025 0.51080 1.01791
 O624 O -0.01373 0.52105 0.99963
 Zr625 Zr 0.02953 0.51361 0.97155
 Zr626 Zr 0.03744 0.51532 1.01322
 Zr627 Zr -0.00936 0.53565 0.97704
 Zr628 Zr 0.02861 0.55563 0.99248
 O629 O -0.03202 0.52156 0.96748
 O630 O 0.05313 0.56330 1.00410
 O631 O 0.01785 0.54025 0.97218
 O632 O 0.04147 0.52989 0.99065
 O633 O 0.02681 0.49852 0.99405
 O634 O 0.00209 0.50948 0.97505
 C635 C 0.01203 0.57728 1.02331
 C636 C -0.03727 0.55184 1.00272
 C637 C 0.02468 0.52908 1.04894
 O638 O 0.06167 0.52832 1.02030
 O639 O 0.05917 0.50034 1.00318
 O640 O 0.05421 0.49929 0.97458
 C641 C 0.06353 0.49542 0.98799
 O642 O -0.02052 0.49006 1.01643
 Zr643 Zr -0.00060 0.49537 0.99785
 O644 O 0.02632 0.48670 0.96226
 O645 O 0.04039 0.49057 1.02718
 O646 O 0.00873 0.47293 1.01272
 O647 O -0.02442 0.48620 0.98584
 O648 O 0.00668 0.47398 0.98092
 C649 C 0.01703 0.47316 0.96785
 O650 O 0.04925 0.52409 0.95495
 O651 O -0.01398 0.56157 0.96544
 O652 O 0.01942 0.51701 0.94652
 O653 O -0.00636 0.53346 0.95060
 O654 O 0.01944 0.57896 0.97872
 O655 O 0.04674 0.56185 0.97254
 C656 C 0.00537 0.52558 0.94101
 H657 H -0.00489 0.56428 0.99651
 H658 H 0.05437 0.53165 0.98836
 H659 H -0.00354 0.50253 0.96559
 H660 H 0.00843 0.50419 1.02877
 H661 H 0.05413 0.57690 1.00327
 H662 H 0.06793 0.51988 1.02826
 H663 H 0.05204 0.49128 1.03320
 H664 H 0.00199 0.46182 1.00912
 H665 H 0.02653 0.58972 0.98257
 H666 H -0.02551 0.56066 0.95924
 H667 H -0.03835 0.53021 0.95977
 H668 H -0.02495 0.47261 0.98717
 H669 H 0.05203 0.57417 0.97459
 H670 H 0.05216 0.51412 0.94668
 H671 H -0.02327 0.53634 1.04435
 H672 H -0.02371 0.47682 1.01610
 Zr673 Zr -0.01694 0.47432 0.47073
 O674 O -0.03546 0.48386 0.45228
 O675 O -0.01210 0.44728 0.46246
 O676 O -0.00506 0.47583 0.44624
 O677 O -0.04880 0.46445 0.50100
 O678 O 0.02012 0.49281 0.45097
 O679 O -0.04202 0.46083 0.47290
 O680 O 0.00837 0.43613 0.48146
 O681 O 0.01061 0.47128 0.47514
 O682 O -0.01423 0.46035 0.49383
 O683 O -0.00668 0.50132 0.47141
 O684 O -0.03071 0.49059 0.48892
 Zr685 Zr 0.01105 0.50073 0.51854
 Zr686 Zr 0.02053 0.49819 0.47718
 Zr687 Zr -0.02644 0.47701 0.51207
 Zr688 Zr 0.01305 0.45813 0.49861
 O689 O -0.05012 0.49051 0.52030
 O690 O 0.03810 0.45103 0.48769
 O691 O 0.00075 0.47363 0.51807
 O692 O 0.02444 0.48442 0.50026
 O693 O 0.00837 0.51500 0.49554
 O694 O -0.01642 0.50368 0.51393
 C695 C -0.00188 0.43447 0.46835
 C696 C -0.05244 0.45878 0.48586
 C697 C 0.00924 0.48407 0.44118
 O698 O 0.04520 0.48557 0.47062
 O699 O 0.04150 0.51372 0.48772
 O700 O 0.03546 0.51535 0.51611
 C701 C 0.04521 0.51897 0.50299
 O702 O -0.03875 0.52056 0.47136
 Zr703 Zr -0.01903 0.51684 0.49060
 O704 O 0.00631 0.52799 0.52660
 O705 O 0.02306 0.52315 0.46353
 O706 O -0.01067 0.53911 0.47515
 O707 O -0.04354 0.52534 0.50182
 O708 O -0.01311 0.53922 0.50672
 C709 C -0.00315 0.54103 0.51998
 O710 O 0.03053 0.49189 0.53640
 O711 O -0.03033 0.45134 0.52426
 O712 O 0.00033 0.49711 0.54334
 O713 O -0.02469 0.48003 0.53848
 O714 O 0.00472 0.43513 0.51312
 O715 O 0.03108 0.45339 0.51911
 C716 C -0.01359 0.48821 0.54845
 H717 H -0.01985 0.44801 0.49376
 H718 H 0.03733 0.48318 0.50302
 H719 H -0.02265 0.51069 0.52302
 H720 H -0.00853 0.50760 0.46038
 H721 H 0.03973 0.43752 0.48893
 H722 H 0.05139 0.49416 0.46285
 H723 H 0.03486 0.52277 0.45780
 H724 H -0.01817 0.54998 0.47812
 H725 H 0.01245 0.42449 0.50993
 H726 H -0.04218 0.45195 0.52988
 H727 H -0.05637 0.48187 0.52798
 H728 H -0.04473 0.53884 0.50012
 H729 H 0.03712 0.44130 0.51748
 H730 H 0.03252 0.50228 0.54445
 H731 H -0.03770 0.47344 0.44433
 H732 H -0.04289 0.53357 0.47138
 Zr733 Zr 0.47942 -0.01999 -0.02741
 O734 O 0.46070 -0.00675 -0.04358
 O735 O 0.48121 -0.04620 -0.03834
 O736 O 0.48989 -0.01768 -0.05241
 O737 O 0.44882 -0.02996 0.00401
 O738 O 0.51686 -0.00368 -0.04819
 O739 O 0.45353 -0.03160 -0.02463
 O740 O 0.50232 -0.06092 -0.02226
 O741 O 0.50679 -0.02604 -0.02515
 O742 O 0.48235 -0.03648 -0.00580
 O743 O 0.49225 0.00571 -0.02543
 O744 O 0.46846 -0.00441 -0.00713
 Zr745 Zr 0.51290 -0.00126 0.02014
 Zr746 Zr 0.51938 -0.00055 -0.02179
 Zr747 Zr 0.47298 -0.02063 0.01450
 Zr748 Zr 0.50956 -0.04171 -0.00312
 O749 O 0.45130 -0.00582 0.02539
 O750 O 0.53342 -0.04994 -0.01568
 O751 O 0.50009 -0.02713 0.01830
 O752 O 0.52351 -0.01686 -0.00020
 O753 O 0.51005 0.01537 -0.00143
 O754 O 0.48559 0.00473 0.01769
 C755 C 0.49114 -0.06018 -0.03478
 C756 C 0.44381 -0.03395 -0.01123
 C757 C 0.50468 -0.01066 -0.05780
 O758 O 0.54241 -0.01464 -0.03077
 O759 O 0.54224 0.01209 -0.01149
 O760 O 0.53818 0.01149 0.01724
 C761 C 0.54729 0.01563 0.00385
 O762 O 0.46176 0.02745 -0.02143
 Zr763 Zr 0.48271 0.02034 -0.00428
 O764 O 0.51164 0.02542 0.03057
 O765 O 0.52317 0.02523 -0.03377
 O766 O 0.49151 0.04306 -0.01891
 O767 O 0.46042 0.03043 0.00969
 O768 O 0.49271 0.04053 0.01249
 C769 C 0.50367 0.04005 0.02515
 O770 O 0.53256 -0.01392 0.03572
 O771 O 0.46752 -0.04693 0.02483
 O772 O 0.50348 -0.00588 0.04523
 O773 O 0.47688 -0.02045 0.04088
 O774 O 0.49985 -0.06549 0.00942
 O775 O 0.52794 -0.05026 0.01602
 C776 C 0.48927 -0.01407 0.05061
 H777 H 0.47569 -0.04823 -0.00658
 H778 H 0.53638 -0.01953 0.00162
 H779 H 0.48075 0.01147 0.02769
 H780 H 0.49027 0.01313 -0.03583
 H781 H 0.53384 -0.06361 -0.01567
 H782 H 0.54884 -0.00594 -0.03826
 H783 H 0.53450 0.02431 -0.04027
 H784 H 0.48527 0.05424 -0.01459
 H785 H 0.50638 -0.07631 0.00473
 H786 H 0.45621 -0.04576 0.03133
 H787 H 0.44479 -0.01458 0.03274
 H788 H 0.46061 0.04409 0.00900
 H789 H 0.53265 -0.06270 0.01316
 H790 H 0.53619 -0.00467 0.04439
 H791 H 0.45697 -0.01600 -0.05222
 H792 H 0.45865 0.04068 -0.02003
 Zr793 Zr 0.52288 0.52427 -0.03156
 O794 O 0.54024 0.51158 -0.04943
 O795 O 0.52159 0.55123 -0.04050
 O796 O 0.51091 0.52365 -0.05614
 O797 O 0.55555 0.53155 -0.00112
 O798 O 0.48323 0.51181 -0.05099
 O799 O 0.54921 0.53501 -0.02936
 O800 O 0.50168 0.56552 -0.02278
 O801 O 0.49586 0.53090 -0.02754
 O802 O 0.52166 0.53945 -0.00886
 O803 O 0.50943 0.49889 -0.03054
 O804 O 0.53465 0.50725 -0.01284
 Zr805 Zr 0.49182 0.50340 0.01638
 Zr806 Zr 0.48275 0.50561 -0.02503
 Zr807 Zr 0.53181 0.52218 0.00995
 Zr808 Zr 0.49480 0.54524 -0.00454
 O809 O 0.55375 0.50629 0.01885
 O810 O 0.47054 0.55467 -0.01565
 O811 O 0.50512 0.52906 0.01545
 O812 O 0.48039 0.52058 -0.00232
 O813 O 0.49294 0.48811 -0.00627
 O814 O 0.51880 0.49700 0.01215
 C815 C 0.51245 0.56533 -0.03560
 C816 C 0.55974 0.53635 -0.01633
 C817 C 0.49511 0.51860 -0.06094
 O818 O 0.45906 0.52032 -0.03119
 O819 O 0.46057 0.49212 -0.01450
 O820 O 0.46626 0.49105 0.01398
 C821 C 0.45641 0.48764 0.00082
 O822 O 0.53910 0.47601 -0.02990
 Zr823 Zr 0.51995 0.48275 -0.01086
 O824 O 0.49349 0.47615 0.02529
 O825 O 0.47793 0.48119 -0.03917
 O826 O 0.50907 0.46108 -0.02582
 O827 O 0.54329 0.47162 0.00070
 O828 O 0.51150 0.46196 0.00578
 C829 C 0.50149 0.46186 0.01907
 O830 O 0.47323 0.51535 0.03355
 O831 O 0.53845 0.54768 0.02157
 O832 O 0.50268 0.50647 0.04120
 O833 O 0.52948 0.52038 0.03645
 O834 O 0.50575 0.56790 0.00905
 O835 O 0.47764 0.55317 0.01579
 C836 C 0.51743 0.51386 0.04638
 H837 H 0.52860 0.55103 -0.00920
 H838 H 0.46771 0.52335 0.00034
 H839 H 0.52417 0.48963 0.02145
 H840 H 0.51049 0.49216 -0.04149
 H841 H 0.47049 0.56833 -0.01496
 H842 H 0.45211 0.51240 -0.03908
 H843 H 0.46617 0.48282 -0.04487
 H844 H 0.51529 0.44950 -0.02253
 H845 H 0.49933 0.57917 0.00527
 H846 H 0.55009 0.54587 0.02742
 H847 H 0.56088 0.51444 0.02639
 H848 H 0.54290 0.45803 -0.00080
 H849 H 0.47300 0.56580 0.01374
 H850 H 0.46997 0.50565 0.04185
 H851 H 0.54375 0.52126 -0.05764
 H852 H 0.54168 0.46259 -0.02963
 Zr853 Zr 0.01130 1.02826 0.47266
 O854 O 0.02913 1.01455 0.45587
 O855 O 0.00948 1.05438 0.46184
 O856 O -0.00016 1.02566 0.44801
 O857 O 0.04348 1.03821 0.50295
 O858 O -0.02779 1.01385 0.45337
 O859 O 0.03746 1.03937 0.47449
 O860 O -0.01084 1.06959 0.47845
 O861 O -0.01582 1.03487 0.47594
 O862 O 0.00962 1.04507 0.49433
 O863 O -0.00190 1.00285 0.47501
 O864 O 0.02292 1.01274 0.49253
 Zr865 Zr -0.02026 1.01055 0.52130
 Zr866 Zr -0.02871 1.00968 0.47971
 Zr867 Zr 0.01967 1.02931 0.51431
 Zr868 Zr -0.01737 1.05079 0.49803
 O869 O 0.04173 1.01442 0.52433
 O870 O -0.04173 1.05923 0.48646
 O871 O -0.00717 1.03623 0.51910
 O872 O -0.03157 1.02620 0.50145
 O873 O -0.01871 0.99365 0.49965
 O874 O 0.00684 1.00419 0.51778
 C875 C -0.00015 1.06855 0.46561
 C876 C 0.04783 1.04178 0.48749
 C877 C -0.01577 1.02004 0.44323
 O878 O -0.05230 1.02379 0.47219
 O879 O -0.05106 0.99707 0.49076
 O880 O -0.04566 0.99771 0.51931
 C881 C -0.05539 0.99353 0.50624
 O882 O 0.02786 0.98031 0.47740
 Zr883 Zr 0.00842 0.98825 0.49578
 O884 O -0.01844 0.98419 0.53202
 O885 O -0.03321 0.98421 0.46716
 O886 O -0.00219 0.96547 0.48212
 O887 O 0.03172 0.97815 0.50817
 O888 O 0.00000 0.96869 0.51374
 C889 C -0.01014 0.96958 0.52695
 O890 O -0.03909 1.02369 0.53746
 O891 O 0.02570 1.05566 0.52448
 O892 O -0.00958 1.01490 0.54600
 O893 O 0.01707 1.02903 0.54089
 O894 O -0.00667 1.07459 0.51004
 O895 O -0.03462 1.05989 0.51788
 C896 C 0.00508 1.02263 0.55097
 H897 H 0.01642 1.05669 0.49328
 H898 H -0.04432 1.02903 0.50379
 H899 H 0.01220 0.99752 0.52752
 H900 H -0.00060 0.99535 0.46451
 H901 H -0.04194 1.07291 0.48642
 H902 H -0.05910 1.01526 0.46473
 H903 H -0.04486 0.98533 0.46119
 H904 H 0.00401 0.95420 0.48624
 H905 H -0.01325 1.08545 0.50553
 H906 H 0.03726 1.05444 0.53060
 H907 H 0.04865 1.02319 0.53146
 H908 H 0.03145 0.96449 0.50748
 H909 H -0.03926 1.07238 0.51519
 H910 H -0.04245 1.01459 0.54628
 H911 H 0.03264 1.02363 0.44709
 H912 H 0.03037 0.96692 0.47840
 Zr913 Zr 0.72499 0.26446 0.22231
 O914 O 0.73176 0.28114 0.20126
 O915 O 0.69771 0.26007 0.21829
 O916 O 0.72251 0.24984 0.19897
 O917 O 0.72124 0.30111 0.25032
 O918 O 0.73659 0.22245 0.20432
 O919 O 0.71278 0.29097 0.22401
 O920 O 0.68916 0.24227 0.24069
 O921 O 0.72152 0.23698 0.22983
 O922 O 0.71535 0.26525 0.24726
 O923 O 0.75040 0.25199 0.22013
 O924 O 0.74413 0.27954 0.23641
 Zr925 Zr 0.75678 0.23937 0.26833
 Zr926 Zr 0.74708 0.22502 0.22899
 Zr927 Zr 0.73478 0.27880 0.26152
 Zr928 Zr 0.71278 0.23805 0.25502
 O929 O 0.75013 0.30301 0.26482
 O930 O 0.70325 0.21158 0.24797
 O931 O 0.73130 0.25187 0.27064
 O932 O 0.73766 0.22463 0.25405
 O933 O 0.76662 0.23842 0.24340
 O934 O 0.76015 0.26674 0.26062
 C935 C 0.68596 0.25120 0.22687
 C936 C 0.71301 0.30319 0.23605
 C937 C 0.72786 0.23351 0.19456
 O938 O 0.73336 0.19959 0.22746
 O939 O 0.76362 0.20414 0.23900
 O940 O 0.76963 0.21327 0.26623
 C941 C 0.77104 0.20183 0.25364
 O942 O 0.76978 0.28408 0.21454
 Zr943 Zr 0.76894 0.26572 0.23553
 O944 O 0.78433 0.24328 0.27207
 O945 O 0.76806 0.21932 0.21165
 O946 O 0.78696 0.25454 0.21732
 O947 O 0.78082 0.29084 0.24355
 O948 O 0.79286 0.25831 0.24798
 C949 C 0.79622 0.24992 0.26203
 O950 O 0.75055 0.22182 0.28894
 O951 O 0.71265 0.28605 0.27701
 O952 O 0.75725 0.25311 0.29228
 O953 O 0.74213 0.27994 0.28718
 O954 O 0.69330 0.24977 0.27150
 O955 O 0.71103 0.22257 0.27785
 C956 C 0.75051 0.26876 0.29707
 H957 H 0.70371 0.27173 0.24840
 H958 H 0.73648 0.21183 0.25827
 H959 H 0.76869 0.27352 0.26797
 H960 H 0.75461 0.25216 0.20820
 H961 H 0.69048 0.21099 0.25129
 H962 H 0.73990 0.19182 0.21910
 H963 H 0.76624 0.20657 0.20737
 H964 H 0.79813 0.26183 0.21790
 H965 H 0.68242 0.24203 0.27071
 H966 H 0.71472 0.29878 0.28122
 H967 H 0.74350 0.31100 0.27295
 H968 H 0.79344 0.29057 0.23969
 H969 H 0.69909 0.21674 0.27852
 H970 H 0.76171 0.22000 0.29562
 H971 H 0.72062 0.28319 0.19461
 H972 H 0.78230 0.28789 0.21249
 Zr973 Zr 0.76702 0.72925 0.72030
 O974 O 0.75806 0.71144 0.70066
 O975 O 0.79366 0.73347 0.71351
 O976 O 0.76719 0.74275 0.69632
 O977 O 0.77407 0.69434 0.74938
 O978 O 0.75176 0.76947 0.70153
 O979 O 0.77953 0.70291 0.72199
 O980 O 0.80432 0.75265 0.73426
 O981 O 0.77094 0.75716 0.72635
 O982 O 0.77928 0.72994 0.74427
 O983 O 0.74135 0.74134 0.72004
 O984 O 0.74970 0.71491 0.73679
 Zr985 Zr 0.73994 0.75682 0.76792
 Zr986 Zr 0.74527 0.76885 0.72742
 Zr987 Zr 0.76162 0.71720 0.76089
 Zr988 Zr 0.78236 0.75756 0.75062
 O989 O 0.74714 0.69300 0.76662
 O990 O 0.79089 0.78365 0.74174
 O991 O 0.76571 0.74467 0.76848
 O992 O 0.75736 0.77074 0.75141
 O993 O 0.72744 0.75620 0.74406
 O994 O 0.73614 0.72899 0.76175
 C995 C 0.80612 0.74298 0.72056
 C996 C 0.78066 0.69142 0.73448
 C997 C 0.76011 0.75823 0.69160
 O998 O 0.75912 0.79368 0.72268
 O999 O 0.73103 0.79101 0.73836
 O1000 O 0.72656 0.78260 0.76596
 C1001 C 0.72477 0.79388 0.75339
 O1002 O 0.72167 0.70916 0.71730
 Zr1003 Zr 0.72473 0.72838 0.73762
 O1004 O 0.71287 0.75335 0.77410
 O1005 O 0.72187 0.77382 0.71288
 O1006 O 0.70451 0.73876 0.72119
 O1007 O 0.71454 0.70325 0.74725
 O1008 O 0.70230 0.73537 0.75246
 C1009 C 0.70018 0.74515 0.76603
 O1010 O 0.74836 0.77548 0.78712
 O1011 O 0.78539 0.71126 0.77458
 O1012 O 0.74154 0.74434 0.79225
 O1013 O 0.75671 0.71746 0.78716
 O1014 O 0.80359 0.74684 0.76565
 O1015 O 0.78651 0.77441 0.77248
 C1016 C 0.74883 0.72904 0.79714
 H1017 H 0.79105 0.72361 0.74457
 H1018 H 0.75896 0.78376 0.75498
 H1019 H 0.72847 0.72255 0.77006
 H1020 H 0.73580 0.74040 0.70862
 H1021 H 0.80396 0.78444 0.74377
 H1022 H 0.75153 0.80105 0.71486
 H1023 H 0.72314 0.78622 0.70776
 H1024 H 0.69355 0.73143 0.72313
 H1025 H 0.81432 0.75445 0.76345
 H1026 H 0.78399 0.69877 0.77948
 H1027 H 0.75473 0.68561 0.77443
 H1028 H 0.70155 0.70300 0.74466
 H1029 H 0.79849 0.78013 0.77187
 H1030 H 0.73795 0.77774 0.79470
 H1031 H 0.76844 0.70903 0.69310
 H1032 H 0.70897 0.70542 0.71644
 Zr1033 Zr 0.22960 0.22555 0.78183
 O1034 O 0.24148 0.20565 0.79801
 O1035 O 0.20476 0.22958 0.79329
 O1036 O 0.23357 0.23678 0.80658
 O1037 O 0.21590 0.19440 0.75109
 O1038 O 0.24958 0.26295 0.80160
 O1039 O 0.21632 0.19980 0.77973
 O1040 O 0.19202 0.25267 0.77774
 O1041 O 0.22620 0.25414 0.77939
 O1042 O 0.21300 0.22962 0.76069
 O1043 O 0.25552 0.23627 0.77894
 O1044 O 0.24271 0.21249 0.76121
 Zr1045 Zr 0.24869 0.25721 0.73333
 Zr1046 Zr 0.25183 0.26462 0.77508
 Zr1047 Zr 0.22652 0.21819 0.74000
 Zr1048 Zr 0.21034 0.25799 0.75785
 O1049 O 0.23815 0.19426 0.72898
 O1050 O 0.20517 0.28347 0.77035
 O1051 O 0.22258 0.24655 0.73607
 O1052 O 0.23549 0.26992 0.75397
 O1053 O 0.26550 0.25318 0.75437
 O1054 O 0.25203 0.22868 0.73600
 C1055 C 0.19203 0.24103 0.79011
 C1056 C 0.21262 0.18977 0.76655
 C1057 C 0.24191 0.25142 0.81157
 O1058 O 0.24084 0.28979 0.78412
 O1059 O 0.26566 0.28671 0.76405
 O1060 O 0.26322 0.28217 0.73543
 C1061 C 0.26866 0.29139 0.74854
 O1062 O 0.27379 0.20326 0.77502
 Zr1063 Zr 0.26781 0.22469 0.75748
 O1064 O 0.27390 0.25323 0.72216
 O1065 O 0.27757 0.26630 0.78628
 O1066 O 0.29135 0.23246 0.77079
 O1067 O 0.27454 0.20013 0.74408
 O1068 O 0.28716 0.23182 0.73931
 C1069 C 0.28725 0.24306 0.72668
 O1070 O 0.23746 0.27810 0.71778
 O1071 O 0.20015 0.21511 0.73054
 O1072 O 0.24270 0.24731 0.70852
 O1073 O 0.22632 0.22146 0.71349
 O1074 O 0.18590 0.25002 0.74624
 O1075 O 0.20290 0.27733 0.73880
 C1076 C 0.23353 0.23324 0.70346
 H1077 H 0.20110 0.22383 0.76190
 H1078 H 0.23399 0.28334 0.75207
 H1079 H 0.25764 0.22279 0.72593
 H1080 H 0.26294 0.23378 0.78914
 H1081 H 0.19200 0.28515 0.77082
 H1082 H 0.25015 0.29571 0.79126
 H1083 H 0.27803 0.27816 0.79260
 H1084 H 0.30138 0.22497 0.76617
 H1085 H 0.17627 0.25780 0.75123
 H1086 H 0.19987 0.20328 0.72417
 H1087 H 0.22873 0.18829 0.72200
 H1088 H 0.28776 0.19889 0.74429
 H1089 H 0.19143 0.28333 0.74198
 H1090 H 0.24635 0.28084 0.70878
 H1091 H 0.23255 0.20280 0.80694
 H1092 H 0.28634 0.19913 0.77346
 Zr1093 Zr 0.28342 0.75892 0.27707
 O1094 O 0.27543 0.77486 0.29843
 O1095 O 0.31084 0.75570 0.28148
 O1096 O 0.28593 0.74405 0.30014
 O1097 O 0.28543 0.79655 0.25027
 O1098 O 0.27371 0.71605 0.29377
 O1099 O 0.29414 0.78596 0.27633
 O1100 O 0.32085 0.73922 0.25854
 O1101 O 0.28865 0.73185 0.26883
 O1102 O 0.29344 0.76086 0.25232
 O1103 O 0.25875 0.74519 0.27843
 O1104 O 0.26373 0.77346 0.26310
 Zr1105 Zr 0.25389 0.73362 0.22992
 Zr1106 Zr 0.26380 0.71861 0.26887
 Zr1107 Zr 0.27353 0.77384 0.23813
 Zr1108 Zr 0.29770 0.73402 0.24381
 O1109 O 0.25693 0.79739 0.23517
 O1110 O 0.30868 0.70794 0.25032
 O1111 O 0.27866 0.74734 0.22830
 O1112 O 0.27359 0.71938 0.24396
 O1113 O 0.24373 0.73153 0.25462
 O1114 O 0.24887 0.76059 0.23833
 C1115 C 0.32327 0.74786 0.27272
 C1116 C 0.29326 0.79855 0.26476
 C1117 C 0.28133 0.72745 0.30406
 O1118 O 0.27919 0.69403 0.27001
 O1119 O 0.24904 0.69700 0.25775
 O1120 O 0.24160 0.70743 0.23130
 C1121 C 0.24117 0.69527 0.24324
 O1122 O 0.23745 0.77588 0.28497
 Zr1123 Zr 0.23972 0.75848 0.26321
 O1124 O 0.22629 0.73630 0.22573
 O1125 O 0.24276 0.71125 0.28545
 O1126 O 0.22187 0.74569 0.28041
 O1127 O 0.22683 0.78346 0.25611
 O1128 O 0.21651 0.75092 0.24975
 C1129 C 0.21383 0.74261 0.23547
 O1130 O 0.26164 0.71667 0.20914
 O1131 O 0.29553 0.78247 0.22328
 O1132 O 0.25273 0.74786 0.20642
 O1133 O 0.26645 0.77519 0.21236
 O1134 O 0.31669 0.74702 0.22790
 O1135 O 0.30074 0.71915 0.22060
 C1136 C 0.25865 0.76389 0.20212
 H1137 H 0.30470 0.76793 0.25157
 H1138 H 0.27553 0.70678 0.23934
 H1139 H 0.24008 0.76718 0.23108
 H1140 H 0.25425 0.74486 0.29027
 H1141 H 0.32153 0.70810 0.24722
 H1142 H 0.27298 0.68569 0.27799
 H1143 H 0.24529 0.69851 0.28937
 H1144 H 0.21034 0.75251 0.27988
 H1145 H 0.32800 0.73983 0.22863
 H1146 H 0.29279 0.79515 0.21933
 H1147 H 0.26325 0.80583 0.22736
 H1148 H 0.21417 0.78259 0.25974
 H1149 H 0.31298 0.71388 0.22000
 H1150 H 0.25075 0.71444 0.20219
 H1151 H 0.28632 0.77726 0.30533
 H1152 H 0.22469 0.77888 0.28701
 Zr1153 Zr 0.22482 0.75663 0.72595
 O1154 O 0.23698 0.77486 0.70853
 O1155 O 0.19930 0.75358 0.71560
 O1156 O 0.22704 0.74408 0.70157
 O1157 O 0.21466 0.79038 0.75557
 O1158 O 0.23943 0.71596 0.70739
 O1159 O 0.21284 0.78329 0.72731
 O1160 O 0.18554 0.73349 0.73356
 O1161 O 0.21948 0.72864 0.73008
 O1162 O 0.20928 0.75518 0.74801
 O1163 O 0.25000 0.74371 0.72816
 O1164 O 0.24008 0.76961 0.74517
 Zr1165 Zr 0.24447 0.72608 0.77507
 Zr1166 Zr 0.24446 0.71608 0.73366
 Zr1167 Zr 0.22479 0.76659 0.76733
 Zr1168 Zr 0.20479 0.72738 0.75254
 O1169 O 0.23877 0.79008 0.77622
 O1170 O 0.19708 0.70191 0.74142
 O1171 O 0.21911 0.73897 0.77301
 O1172 O 0.22920 0.71341 0.75580
 O1173 O 0.26019 0.72737 0.75308
 O1174 O 0.24963 0.75403 0.77072
 C1175 C 0.18589 0.74388 0.72030
 C1176 C 0.21033 0.79424 0.74013
 C1177 C 0.23275 0.72791 0.69708
 O1178 O 0.23152 0.69109 0.72717
 O1179 O 0.25811 0.69392 0.74503
 O1180 O 0.25776 0.70015 0.77349
 C1181 C 0.26206 0.68998 0.76055
 O1182 O 0.27113 0.77477 0.72936
 Zr1183 Zr 0.26441 0.75528 0.74840
 O1184 O 0.27018 0.72893 0.78532
 O1185 O 0.26884 0.71170 0.72054
 O1186 O 0.28646 0.74420 0.73473
 O1187 O 0.27367 0.78002 0.75989
 O1188 O 0.28409 0.74777 0.76639
 C1189 C 0.28391 0.73772 0.77987
 O1190 O 0.23288 0.70682 0.79189
 O1191 O 0.19944 0.77255 0.77808
 O1192 O 0.24030 0.73771 0.79961
 O1193 O 0.22609 0.76492 0.79390
 O1194 O 0.18183 0.73808 0.76508
 O1195 O 0.19727 0.70978 0.77284
 C1196 C 0.23266 0.75297 0.80426
 H1197 H 0.19772 0.76186 0.74709
 H1198 H 0.22700 0.70028 0.75849
 H1199 H 0.25616 0.76003 0.78021
 H1200 H 0.25691 0.74486 0.71748
 H1201 H 0.18383 0.70139 0.74170
 H1202 H 0.23983 0.68405 0.71973
 H1203 H 0.26802 0.69943 0.71496
 H1204 H 0.29731 0.75088 0.73853
 H1205 H 0.17137 0.73091 0.76106
 H1206 H 0.20041 0.78472 0.78382
 H1207 H 0.23031 0.79726 0.78339
 H1208 H 0.28691 0.77999 0.75907
 H1209 H 0.18533 0.70451 0.77042
 H1210 H 0.24203 0.70389 0.80065
 H1211 H 0.22782 0.77795 0.69982
 H1212 H 0.28407 0.77756 0.73006
 Zr1213 Zr 0.26870 0.23049 0.21806
 O1214 O 0.25822 0.21265 0.19915
 O1215 O 0.29498 0.23383 0.20996
 O1216 O 0.26850 0.24365 0.19391
 O1217 O 0.27584 0.19584 0.24738
 O1218 O 0.25469 0.27121 0.19938
 O1219 O 0.28065 0.20383 0.21971
 O1220 O 0.30708 0.25359 0.22947
 O1221 O 0.27383 0.25831 0.22354
 O1222 O 0.28211 0.23117 0.24146
 O1223 O 0.24350 0.24358 0.21856
 O1224 O 0.25167 0.21708 0.23544
 Zr1225 Zr 0.24476 0.25979 0.26627
 Zr1226 Zr 0.24871 0.27102 0.22540
 Zr1227 Zr 0.26476 0.21936 0.25899
 Zr1228 Zr 0.28639 0.25875 0.24726
 O1229 O 0.24971 0.19588 0.26579
 O1230 O 0.29520 0.28470 0.23824
 O1231 O 0.27013 0.24676 0.26599
 O1232 O 0.26189 0.27285 0.24887
 O1233 O 0.23128 0.25927 0.24290
 O1234 O 0.23971 0.23206 0.26067
 C1235 C 0.30783 0.24368 0.21581
 C1236 C 0.28185 0.19250 0.23234
 C1237 C 0.26225 0.25955 0.18928
 O1238 O 0.26297 0.29545 0.22004
 O1239 O 0.23537 0.29366 0.23653
 O1240 O 0.23203 0.28590 0.26444
 C1241 C 0.22983 0.29692 0.25174
 O1242 O 0.22293 0.21167 0.21743
 Zr1243 Zr 0.22724 0.23152 0.23700
 O1244 O 0.21784 0.25775 0.27345
 O1245 O 0.22502 0.27640 0.21141
 O1246 O 0.20683 0.24184 0.22075
 O1247 O 0.21618 0.20742 0.24789
 O1248 O 0.20563 0.24056 0.25205
 C1249 C 0.20443 0.25064 0.26554
 O1250 O 0.25481 0.27836 0.28482
 O1251 O 0.28894 0.21271 0.27172
 O1252 O 0.24671 0.24756 0.29070
 O1253 O 0.26121 0.22036 0.28544
 O1254 O 0.30823 0.24728 0.26098
 O1255 O 0.29214 0.27528 0.26899
 C1256 C 0.25396 0.23222 0.29556
 H1257 H 0.29371 0.22450 0.24129
 H1258 H 0.26403 0.28585 0.25221
 H1259 H 0.23215 0.22613 0.26939
 H1260 H 0.23752 0.24268 0.20733
 H1261 H 0.30837 0.28508 0.23971
 H1262 H 0.25531 0.30292 0.21236
 H1263 H 0.22647 0.28869 0.20611
 H1264 H 0.19574 0.23492 0.22322
 H1265 H 0.31901 0.25454 0.25811
 H1266 H 0.28730 0.20041 0.27695
 H1267 H 0.25739 0.18837 0.27342
 H1268 H 0.20311 0.20781 0.24572
 H1269 H 0.30435 0.28042 0.26796
 H1270 H 0.24485 0.28122 0.29275
 H1271 H 0.26815 0.20977 0.19119
 H1272 H 0.21015 0.20811 0.21724
 Zr1273 Zr 0.73057 0.73188 0.28330
 O1274 O 0.74125 0.71255 0.30076
 O1275 O 0.70556 0.73744 0.29375
 O1276 O 0.73386 0.74427 0.30771
 O1277 O 0.71786 0.69935 0.25347
 O1278 O 0.74995 0.77022 0.30211
 O1279 O 0.71675 0.70631 0.28180
 O1280 O 0.69370 0.75964 0.27652
 O1281 O 0.72763 0.76032 0.27932
 O1282 O 0.71500 0.73497 0.26132
 O1283 O 0.75671 0.74220 0.28107
 O1284 O 0.74447 0.71756 0.26391
 Zr1285 Zr 0.75237 0.76057 0.23424
 Zr1286 Zr 0.75353 0.77031 0.27567
 Zr1287 Zr 0.72939 0.72227 0.24177
 Zr1288 Zr 0.71283 0.76313 0.25696
 O1289 O 0.74117 0.69756 0.23249
 O1290 O 0.70740 0.78953 0.26760
 O1291 O 0.72601 0.75038 0.23630
 O1292 O 0.73829 0.77455 0.25364
 O1293 O 0.76808 0.75758 0.25618
 O1294 O 0.75521 0.73222 0.23845
 C1295 C 0.69331 0.74911 0.28970
 C1296 C 0.71358 0.69564 0.26891
 C1297 C 0.74195 0.75923 0.31234
 O1298 O 0.74232 0.79601 0.28308
 O1299 O 0.76796 0.79173 0.26425
 O1300 O 0.76703 0.78552 0.23581
 C1301 C 0.77176 0.79552 0.24869
 O1302 O 0.77461 0.70877 0.27953
 Zr1303 Zr 0.76987 0.72929 0.26077
 O1304 O 0.77803 0.75559 0.22440
 O1305 O 0.77875 0.77241 0.28783
 O1306 O 0.79280 0.73749 0.27480
 O1307 O 0.77706 0.70400 0.24883
 O1308 O 0.79020 0.73525 0.24328
 C1309 C 0.79104 0.74564 0.23008
 O1310 O 0.74220 0.78062 0.21718
 O1311 O 0.70348 0.71908 0.23125
 O1312 O 0.74759 0.74928 0.20969
 O1313 O 0.73070 0.72390 0.21515
 O1314 O 0.68878 0.75455 0.24500
 O1315 O 0.70651 0.78113 0.23649
 C1316 C 0.73860 0.73498 0.20490
 H1317 H 0.70296 0.72946 0.26237
 H1318 H 0.73704 0.78785 0.25102
 H1319 H 0.76125 0.72568 0.22896
 H1320 H 0.76361 0.74022 0.29168
 H1321 H 0.69425 0.79141 0.26734
 H1322 H 0.75136 0.80227 0.29031
 H1323 H 0.77903 0.78460 0.29361
 H1324 H 0.80295 0.72961 0.27105
 H1325 H 0.67905 0.76275 0.24917
 H1326 H 0.70333 0.70690 0.22545
 H1327 H 0.73201 0.69132 0.22539
 H1328 H 0.79024 0.70264 0.24977
 H1329 H 0.69488 0.78729 0.23872
 H1330 H 0.75157 0.78273 0.20848
 H1331 H 0.73189 0.71042 0.30947
 H1332 H 0.78717 0.70442 0.27878
 Zr1333 Zr 0.77458 0.26155 0.77465
 O1334 O 0.76342 0.27951 0.79318
 O1335 O 0.80095 0.25888 0.78311
 O1336 O 0.77398 0.24887 0.79895
 O1337 O 0.78181 0.29583 0.74507
 O1338 O 0.76185 0.22066 0.79337
 O1339 O 0.78577 0.28834 0.77300
 O1340 O 0.81396 0.23955 0.76366
 O1341 O 0.78022 0.23365 0.76974
 O1342 O 0.78851 0.26049 0.75160
 O1343 O 0.74956 0.24843 0.77375
 O1344 O 0.75778 0.27460 0.75666
 Zr1345 Zr 0.75209 0.23133 0.72634
 Zr1346 Zr 0.75525 0.22091 0.76745
 Zr1347 Zr 0.77150 0.27196 0.73351
 Zr1348 Zr 0.79327 0.23278 0.74633
 O1349 O 0.75635 0.29523 0.72573
 O1350 O 0.80233 0.20757 0.75700
 O1351 O 0.77728 0.24442 0.72706
 O1352 O 0.76896 0.21861 0.74435
 O1353 O 0.73796 0.23227 0.74930
 O1354 O 0.74673 0.25921 0.73142
 C1355 C 0.81439 0.24992 0.77703
 C1356 C 0.78710 0.29952 0.76030
 C1357 C 0.76876 0.23267 0.80351
 O1358 O 0.76918 0.19605 0.77273
 O1359 O 0.74140 0.19863 0.75656
 O1360 O 0.73920 0.20541 0.72835
 C1361 C 0.73623 0.19495 0.74130
 O1362 O 0.72790 0.27938 0.77448
 Zr1363 Zr 0.73356 0.26012 0.75469
 O1364 O 0.72571 0.23433 0.71765
 O1365 O 0.73186 0.21611 0.78187
 O1366 O 0.71270 0.24883 0.76957
 O1367 O 0.72308 0.28486 0.74420
 O1368 O 0.71276 0.25256 0.73795
 C1369 C 0.71222 0.24284 0.72421
 O1370 O 0.76265 0.21210 0.70858
 O1371 O 0.79597 0.27851 0.72147
 O1372 O 0.75479 0.24296 0.70178
 O1373 O 0.76891 0.27023 0.70700
 O1374 O 0.81483 0.24359 0.73205
 O1375 O 0.79967 0.21504 0.72557
 C1376 C 0.76213 0.25812 0.69688
 H1377 H 0.79992 0.26735 0.75181
 H1378 H 0.77121 0.20552 0.74129
 H1379 H 0.73950 0.26522 0.72242
 H1380 H 0.74335 0.24944 0.78483
 H1381 H 0.81554 0.20722 0.75589
 H1382 H 0.76156 0.18886 0.78057
 H1383 H 0.73329 0.20380 0.78717
 H1384 H 0.70151 0.25553 0.76663
 H1385 H 0.82576 0.23657 0.73521
 H1386 H 0.79430 0.29070 0.71599
 H1387 H 0.76414 0.30254 0.71816
 H1388 H 0.70994 0.28474 0.74587
 H1389 H 0.81178 0.20973 0.72730
 H1390 H 0.75295 0.20923 0.70036
 H1391 H 0.77314 0.28264 0.80129
 H1392 H 0.71491 0.28221 0.77458
 C1393 C 0.44382 1.01861 0.33096
 C1394 C 0.44125 1.03575 0.32299
 C1395 C 0.43262 1.03693 0.30720
 C1396 C 0.42631 1.02095 0.29876
 C1397 C 0.42909 1.00378 0.30691
 C1398 C 0.43768 1.00267 0.32268
 C1399 C 0.45196 1.01738 0.34823
 C1400 C 0.46344 1.00264 0.35262
 C1401 C 0.46974 1.00068 0.36933
 C1402 C 0.46459 1.01336 0.38201
 C1403 C 0.45374 1.02848 0.37745
 C1404 C 0.44749 1.03046 0.36080
 C1405 C 0.46941 1.01039 0.40015
 C1406 C 0.45635 1.01315 0.41271
 C1407 C 0.46063 1.01146 0.42987
 C1408 C 0.47815 1.00695 0.43507
 C1409 C 0.49115 1.00340 0.42253
 C1410 C 0.48680 1.00508 0.40518
 H1411 H 0.44609 1.04830 0.32892
 H1412 H 0.43157 1.05042 0.30145
 H1413 H 0.42388 0.99107 0.30168
 H1414 H 0.43898 0.98930 0.32868
 H1415 H 0.46734 0.99247 0.34317
 H1416 H 0.47807 0.98889 0.37247
 H1417 H 0.44977 1.03864 0.38689
 H1418 H 0.43859 1.04189 0.35793
 H1419 H 0.44273 1.01673 0.40924
 H1420 H 0.45015 1.01399 0.43910
 H1421 H 0.50476 0.99990 0.42612
 H1422 H 0.49713 1.00281 0.39574
 C1423 C -0.04606 0.52409 0.82331
 C1424 C -0.04278 0.51137 0.81019
 C1425 C -0.05366 0.51102 0.79568
 C1426 C -0.06839 0.52328 0.79387
 C1427 C -0.07153 0.53598 0.80729
 C1428 C -0.06052 0.53639 0.82168
 C1429 C -0.03471 0.52439 0.83885
 C1430 C -0.02917 0.54127 0.84589
 C1431 C -0.01989 0.54175 0.86133
 C1432 C -0.01609 0.52537 0.87021
 C1433 C -0.02087 0.50841 0.86276
 C1434 C -0.03005 0.50793 0.84720
 C1435 C -0.00888 0.52618 0.88787
 C1436 C 0.00351 0.51302 0.89396
 C1437 C 0.00888 0.51316 0.91111
 C1438 C 0.00178 0.52634 0.92246
 C1439 C -0.01013 0.53979 0.91617
 C1440 C -0.01538 0.53970 0.89917
 H1441 H -0.03154 0.50190 0.81100
 H1442 H -0.04986 0.50149 0.78568
 H1443 H -0.08294 0.54523 0.80725
 H1444 H -0.06361 0.54609 0.83181
 H1445 H -0.03226 0.55415 0.83954
 H1446 H -0.01606 0.55502 0.86653
 H1447 H -0.01831 0.49556 0.86934
 H1448 H -0.03423 0.49472 0.84210
 H1449 H 0.00885 0.50250 0.88553
 H1450 H 0.01804 0.50260 0.91559
 H1451 H -0.01579 0.55022 0.92453
 H1452 H -0.02514 0.54986 0.89504
 C1453 C 0.04770 -0.02681 0.82674
 C1454 C 0.04163 -0.01748 0.81220
 C1455 C 0.05111 -0.01877 0.79690
 C1456 C 0.06705 -0.02922 0.79584
 C1457 C 0.07307 -0.03856 0.81045
 C1458 C 0.06347 -0.03744 0.82567
 C1459 C 0.03796 -0.02525 0.84315
 C1460 C 0.03515 -0.04098 0.85311
 C1461 C 0.02755 -0.03941 0.86928
 C1462 C 0.02278 -0.02202 0.87598
 C1463 C 0.02478 -0.00635 0.86567
 C1464 C 0.03226 -0.00797 0.84938
 C1465 C 0.01740 -0.02018 0.89416
 C1466 C 0.00414 -0.00751 0.89950
 C1467 C 0.00007 -0.00540 0.91686
 C1468 C 0.00932 -0.01579 0.92918
 C1469 C 0.02233 -0.02862 0.92370
 C1470 C 0.02632 -0.03074 0.90651
 H1471 H 0.02943 -0.00934 0.81264
 H1472 H 0.04588 -0.01167 0.78585
 H1473 H 0.08544 -0.04641 0.81027
 H1474 H 0.06862 -0.04455 0.83676
 H1475 H 0.03908 -0.05451 0.84848
 H1476 H 0.02579 -0.05181 0.87671
 H1477 H 0.02139 0.00725 0.87049
 H1478 H 0.03433 0.00440 0.84198
 H1479 H -0.00303 0.00077 0.89027
 H1480 H -0.01000 0.00461 0.92065
 H1481 H 0.02973 -0.03694 0.93275
 H1482 H 0.03684 -0.04035 0.90295
 C1483 C 0.55302 0.48195 0.33040
 C1484 C 0.55060 0.46648 0.31980
 C1485 C 0.55957 0.46512 0.30421
 C1486 C 0.57099 0.47930 0.29884
 C1487 C 0.57313 0.49491 0.30932
 C1488 C 0.56430 0.49619 0.32494
 C1489 C 0.54463 0.48283 0.34751
 C1490 C 0.55485 0.48834 0.36165
 C1491 C 0.54749 0.48828 0.37794
 C1492 C 0.52968 0.48284 0.38051
 C1493 C 0.51921 0.47787 0.36636
 C1494 C 0.52668 0.47771 0.35000
 C1495 C 0.52269 0.48143 0.39809
 C1496 C 0.50640 0.48973 0.40295
 C1497 C 0.50104 0.48969 0.42009
 C1498 C 0.51183 0.48120 0.43254
 C1499 C 0.52762 0.47211 0.42734
 C1500 C 0.53298 0.47230 0.41039
 H1501 H 0.54212 0.45522 0.32376
 H1502 H 0.55753 0.45302 0.29631
 H1503 H 0.58192 0.50600 0.30558
 H1504 H 0.56633 0.50833 0.33280
 H1505 H 0.56874 0.49218 0.36016
 H1506 H 0.55580 0.49230 0.38863
 H1507 H 0.50548 0.47356 0.36806
 H1508 H 0.51847 0.47354 0.33929
 H1509 H 0.49823 0.49685 0.39362
 H1510 H 0.48881 0.49680 0.42366
 H1511 H 0.53622 0.46519 0.43644
 H1512 H 0.54542 0.46550 0.40692
 C1513 C 0.55751 0.52158 0.16879
 C1514 C 0.54968 0.51305 0.18293
 C1515 C 0.55804 0.51373 0.19888
 C1516 C 0.57451 0.52282 0.20103
 C1517 C 0.58234 0.53129 0.18683
 C1518 C 0.57392 0.53071 0.17094
 C1519 C 0.54877 0.52090 0.15178
 C1520 C 0.54847 0.53663 0.14142
 C1521 C 0.54156 0.53575 0.12491
 C1522 C 0.53487 0.51908 0.11829
 C1523 C 0.53442 0.50352 0.12890
 C1524 C 0.54130 0.50443 0.14550
 C1525 C 0.52978 0.51774 0.10001
 C1526 C 0.51472 0.50770 0.09453
 C1527 C 0.51045 0.50647 0.07713
 C1528 C 0.52126 0.51510 0.06492
 C1529 C 0.53630 0.52506 0.07054
 C1530 C 0.54048 0.52634 0.08777
 H1531 H 0.53695 0.50609 0.18170
 H1532 H 0.55148 0.50732 0.20958
 H1533 H 0.59515 0.53810 0.18793
 H1534 H 0.58045 0.53714 0.16021
 H1535 H 0.55375 0.54962 0.14603
 H1536 H 0.54173 0.54809 0.11720
 H1537 H 0.52949 0.49046 0.12413
 H1538 H 0.54142 0.49205 0.15317
 H1539 H 0.50620 0.50096 0.10369
 H1540 H 0.49879 0.49868 0.07325
 H1541 H 0.54501 0.53191 0.06160
 H1542 H 0.55237 0.53385 0.09150
 C1543 C 0.05289 1.02191 0.67083
 C1544 C 0.04738 1.00998 0.68378
 C1545 C 0.05677 1.00904 0.69917
 C1546 C 0.07213 1.01997 0.70218
 C1547 C 0.07747 1.03201 0.68903
 C1548 C 0.06801 1.03293 0.67367
 C1549 C 0.04311 1.02266 0.65432
 C1550 C 0.04019 1.03962 0.64614
 C1551 C 0.03196 1.04026 0.63015
 C1552 C 0.02650 1.02396 0.62190
 C1553 C 0.02886 1.00704 0.63034
 C1554 C 0.03706 1.00640 0.64637
 C1555 C 0.01970 1.02450 0.60408
 C1556 C 0.00575 1.01292 0.59854
 C1557 C 0.00041 1.01273 0.58139
 C1558 C 0.00905 1.02397 0.56946
 C1559 C 0.02265 1.03586 0.57516
 C1560 C 0.02788 1.03613 0.59220
 H1561 H 0.03557 1.00157 0.68212
 H1562 H 0.05134 1.00018 0.70888
 H1563 H 0.08944 1.04023 0.69008
 H1564 H 0.07283 1.04199 0.66379
 H1565 H 0.04435 1.05242 0.65208
 H1566 H 0.03004 1.05355 0.62415
 H1567 H 0.02503 0.99421 0.62425
 H1568 H 0.03926 0.99310 0.65227
 H1569 H -0.00092 1.00391 0.60742
 H1570 H -0.01007 1.00337 0.57740
 H1571 H 0.02958 1.04477 0.56636
 H1572 H 0.03883 1.04501 0.59594
 C1573 C -0.05442 0.47513 0.66982
 C1574 C -0.04697 0.48299 0.68455
 C1575 C -0.05598 0.48202 0.70010
 C1576 C -0.07276 0.47335 0.70125
 C1577 C -0.08006 0.46523 0.68654
 C1578 C -0.07098 0.46609 0.67101
 C1579 C -0.04526 0.47671 0.65312
 C1580 C -0.04472 0.46157 0.64192
 C1581 C -0.03760 0.46342 0.62561
 C1582 C -0.03098 0.48049 0.62003
 C1583 C -0.03069 0.49542 0.63151
 C1584 C -0.03775 0.49354 0.64792
 C1585 C -0.02606 0.48294 0.60186
 C1586 C -0.01093 0.49307 0.59686
 C1587 C -0.00671 0.49500 0.57952
 C1588 C -0.01764 0.48695 0.56694
 C1589 C -0.03289 0.47713 0.57212
 C1590 C -0.03702 0.47519 0.58925
 H1591 H -0.03413 0.48981 0.68407
 H1592 H -0.04979 0.48810 0.71125
 H1593 H -0.09305 0.45870 0.68689
 H1594 H -0.07718 0.46012 0.65981
 H1595 H -0.05004 0.44834 0.64570
 H1596 H -0.03766 0.45155 0.61718
 H1597 H -0.02579 0.50876 0.62755
 H1598 H -0.03807 0.50547 0.65627
 H1599 H -0.00226 0.49924 0.60635
 H1600 H 0.00510 0.50266 0.57599
 H1601 H -0.04180 0.47082 0.56292
 H1602 H -0.04900 0.46772 0.59262
 C1603 C 0.44780 -0.02405 0.17162
 C1604 C 0.45429 -0.01475 0.18605
 C1605 C 0.44491 -0.01532 0.20142
 C1606 C 0.42866 -0.02499 0.20266
 C1607 C 0.42221 -0.03432 0.18818
 C1608 C 0.43171 -0.03392 0.17287
 C1609 C 0.45749 -0.02322 0.15517
 C1610 C 0.45980 -0.03924 0.14530
 C1611 C 0.46749 -0.03829 0.12915
 C1612 C 0.47286 -0.02125 0.12238
 C1613 C 0.47133 -0.00533 0.13260
 C1614 C 0.46377 -0.00632 0.14886
 C1615 C 0.47829 -0.01996 0.10420
 C1616 C 0.49193 -0.00798 0.09880
 C1617 C 0.49600 -0.00629 0.08142
 C1618 C 0.48638 -0.01641 0.06917
 C1619 C 0.47302 -0.02858 0.07471
 C1620 C 0.46903 -0.03029 0.09191
 H1621 H 0.46675 -0.00720 0.18548
 H1622 H 0.45047 -0.00828 0.21238
 H1623 H 0.40961 -0.04160 0.18853
 H1624 H 0.42626 -0.04099 0.16186
 H1625 H 0.45542 -0.05250 0.14999
 H1626 H 0.46887 -0.05089 0.12178
 H1627 H 0.47517 0.00802 0.12772
 H1628 H 0.46209 0.00626 0.15620
 H1629 H 0.49938 0.00010 0.10799
 H1630 H 0.50636 0.00321 0.07757
 H1631 H 0.46534 -0.03669 0.06571
 H1632 H 0.45822 -0.03935 0.09552
 C1633 C 0.34004 0.41687 0.01192
 C1634 C 0.33207 0.41340 0.02775
 C1635 C 0.31678 0.40242 0.02888
 C1636 C 0.30912 0.39440 0.01423
 C1637 C 0.31682 0.39825 -0.00167
 C1638 C 0.33207 0.40939 -0.00281
 C1639 C 0.35678 0.42792 0.01088
 C1640 C 0.35906 0.44106 -0.00201
 C1641 C 0.37491 0.45122 -0.00311
 C1642 C 0.38901 0.44839 0.00855
 C1643 C 0.38664 0.43533 0.02154
 C1644 C 0.37072 0.42527 0.02271
 C1645 C 0.40625 0.45862 0.00683
 C1646 C 0.41613 0.46432 0.02121
 C1647 C 0.43240 0.47373 0.01938
 C1648 C 0.43914 0.47775 0.00312
 C1649 C 0.42923 0.47203 -0.01121
 C1650 C 0.41311 0.46257 -0.00938
 H1651 H 0.33763 0.41925 0.03930
 H1652 H 0.31099 0.40013 0.04130
 H1653 H 0.31141 0.39219 -0.01319
 H1654 H 0.33797 0.41168 -0.01519
 H1655 H 0.34848 0.44364 -0.01116
 H1656 H 0.37604 0.46141 -0.01307
 H1657 H 0.39725 0.43253 0.03058
 H1658 H 0.36949 0.41508 0.03267
 H1659 H 0.41120 0.46170 0.03391
 H1660 H 0.43963 0.47793 0.03070
 H1661 H 0.43401 0.47468 -0.02396
 H1662 H 0.40617 0.45808 -0.02077
 C1663 C -0.17066 0.92112 0.51747
 C1664 C -0.18040 0.91641 0.50276
 C1665 C -0.19553 0.90506 0.50372
 C1666 C -0.20137 0.89792 0.51947
 C1667 C -0.19179 0.90338 0.53422
 C1668 C -0.17673 0.91466 0.53320
 C1669 C -0.15410 0.93250 0.51650
 C1670 C -0.13909 0.92827 0.52666
 C1671 C -0.12345 0.93877 0.52567
 C1672 C -0.12238 0.95381 0.51449
 C1673 C -0.13749 0.95819 0.50449
 C1674 C -0.15311 0.94765 0.50545
 C1675 C -0.10541 0.96444 0.51273
 C1676 C -0.09982 0.97041 0.49663
 C1677 C -0.08378 0.97996 0.49469
 C1678 C -0.07273 0.98385 0.50880
 C1679 C -0.07831 0.97800 0.52497
 C1680 C -0.09446 0.96839 0.52691
 H1681 H -0.17599 0.92103 0.49038
 H1682 H -0.20193 0.90120 0.49188
 H1683 H -0.19609 0.89949 0.54682
 H1684 H -0.16991 0.91851 0.54486
 H1685 H -0.13929 0.91653 0.53515
 H1686 H -0.11202 0.93479 0.53334
 H1687 H -0.13728 0.96987 0.49595
 H1688 H -0.16450 0.95150 0.49766
 H1689 H -0.10768 0.96735 0.48538
 H1690 H -0.07999 0.98414 0.48200
 H1691 H -0.07016 0.98072 0.53611
 H1692 H -0.09842 0.96414 0.53954
 C1693 C -0.16849 0.09080 0.98529
 C1694 C -0.18524 0.08282 0.98873
 C1695 C -0.20096 0.09353 0.98835
 C1696 C -0.20028 0.11243 0.98446
 C1697 C -0.18349 0.12045 0.98143
 C1698 C -0.16784 0.10980 0.98184
 C1699 C -0.15169 0.07951 0.98538
 C1700 C -0.13798 0.08286 0.97353
 C1701 C -0.12184 0.07293 0.97414
 C1702 C -0.11897 0.05940 0.98662
 C1703 C -0.13286 0.05570 0.99817
 C1704 C -0.14899 0.06562 0.99757
 C1705 C -0.10134 0.04971 0.98812
 C1706 C -0.09402 0.04614 1.00426
 C1707 C -0.07756 0.03712 1.00594
 C1708 C -0.06780 0.03137 0.99152
 C1709 C -0.07498 0.03508 0.97531
 C1710 C -0.09156 0.04417 0.97363
 H1711 H -0.18627 0.06820 0.99132
 H1712 H -0.21369 0.08692 0.99060
 H1713 H -0.18246 0.13505 0.97873
 H1714 H -0.15517 0.11653 0.97958
 H1715 H -0.13970 0.09323 0.96379
 H1716 H -0.11142 0.07623 0.96512
 H1717 H -0.13124 0.04516 1.00778
 H1718 H -0.15917 0.06272 1.00695
 H1719 H -0.10094 0.05055 1.01568
 H1720 H -0.07250 0.03467 1.01866
 H1721 H -0.06786 0.03086 0.96393
 H1722 H -0.09684 0.04661 0.96100
 C1723 C 0.32999 0.58111 0.48650
 C1724 C 0.31264 0.57403 0.48888
 C1725 C 0.29760 0.58574 0.48847
 C1726 C 0.29960 0.60474 0.48556
 C1727 C 0.31694 0.61185 0.48369
 C1728 C 0.33191 0.60023 0.48420
 C1729 C 0.34608 0.56878 0.48639
 C1730 C 0.36049 0.57227 0.47536
 C1731 C 0.37608 0.56148 0.47594
 C1732 C 0.37768 0.54682 0.48751
 C1733 C 0.36302 0.54290 0.49811
 C1734 C 0.34745 0.55375 0.49758
 C1735 C 0.39490 0.53640 0.48924
 C1736 C 0.40108 0.53121 0.50542
 C1737 C 0.41757 0.52231 0.50739
 C1738 C 0.42849 0.51835 0.49324
 C1739 C 0.42225 0.52328 0.47697
 C1740 C 0.40564 0.53222 0.47499
 H1741 H 0.31063 0.55937 0.49059
 H1742 H 0.28439 0.57987 0.48983
 H1743 H 0.31892 0.62649 0.48172
 H1744 H 0.34504 0.60627 0.48282
 H1745 H 0.35979 0.58349 0.46632
 H1746 H 0.38711 0.56502 0.46767
 H1747 H 0.36364 0.53153 0.50698
 H1748 H 0.33669 0.55066 0.50630
 H1749 H 0.39339 0.53449 0.51672
 H1750 H 0.42186 0.51879 0.52015
 H1751 H 0.43028 0.52046 0.46579
 H1752 H 0.40122 0.53585 0.46231
 C1753 C 0.16211 0.58919 0.51251
 C1754 C 0.17879 0.58093 0.50879
 C1755 C 0.19460 0.59129 0.50937
 C1756 C 0.19411 0.61011 0.51379
 C1757 C 0.17743 0.61841 0.51721
 C1758 C 0.16166 0.60811 0.51656
 C1759 C 0.14521 0.57824 0.51207
 C1760 C 0.13142 0.58167 0.52389
 C1761 C 0.11529 0.57193 0.52306
 C1762 C 0.11250 0.55847 0.51039
 C1763 C 0.12645 0.55475 0.49882
 C1764 C 0.14255 0.56451 0.49963
 C1765 C 0.09498 0.54874 0.50882
 C1766 C 0.08783 0.54487 0.49265
 C1767 C 0.07167 0.53548 0.49090
 C1768 C 0.06202 0.52969 0.50528
 C1769 C 0.06893 0.53386 0.52151
 C1770 C 0.08523 0.54327 0.52326
 H1771 H 0.17969 0.56636 0.50578
 H1772 H 0.20725 0.58445 0.50684
 H1773 H 0.17655 0.63296 0.52034
 H1774 H 0.14907 0.61507 0.51908
 H1775 H 0.13309 0.59192 0.53383
 H1776 H 0.10484 0.57525 0.53211
 H1777 H 0.12492 0.54428 0.48906
 H1778 H 0.15276 0.56157 0.49023
 H1779 H 0.09469 0.54924 0.48124
 H1780 H 0.06675 0.53273 0.47817
 H1781 H 0.06190 0.52960 0.53286
 H1782 H 0.09038 0.54593 0.53592
 C1783 C 0.66309 0.08760 0.01141
 C1784 C 0.68026 0.08013 0.00841
 C1785 C 0.69548 0.09140 0.00893
 C1786 C 0.69385 0.11035 0.01254
 C1787 C 0.67666 0.11787 0.01505
 C1788 C 0.66151 0.10668 0.01446
 C1789 C 0.64683 0.07569 0.01141
 C1790 C 0.63278 0.07910 0.02295
 C1791 C 0.61713 0.06856 0.02245
 C1792 C 0.61511 0.05428 0.01044
 C1793 C 0.62937 0.05053 -0.00078
 C1794 C 0.64500 0.06109 -0.00031
 C1795 C 0.59793 0.04393 0.00905
 C1796 C 0.59110 0.03911 -0.00702
 C1797 C 0.57483 0.02987 -0.00858
 C1798 C 0.56479 0.02517 0.00590
 C1799 C 0.57160 0.02992 0.02204
 C1800 C 0.58798 0.03919 0.02359
 H1801 H 0.68202 0.06548 0.00614
 H1802 H 0.70856 0.08519 0.00708
 H1803 H 0.67494 0.13249 0.01756
 H1804 H 0.64850 0.11303 0.01636
 H1805 H 0.63383 0.08999 0.03237
 H1806 H 0.60641 0.07196 0.03120
 H1807 H 0.62842 0.03945 -0.01003
 H1808 H 0.65547 0.05811 -0.00943
 H1809 H 0.59816 0.04283 -0.01851
 H1810 H 0.57006 0.02656 -0.02125
 H1811 H 0.56426 0.02652 0.03346
 H1812 H 0.59291 0.04254 0.03619
 C1813 C 0.66219 0.91284 0.49087
 C1814 C 0.66201 0.89388 0.48689
 C1815 C 0.67795 0.88369 0.48598
 C1816 C 0.69455 0.89210 0.48912
 C1817 C 0.69479 0.91092 0.49354
 C1818 C 0.67882 0.92119 0.49433
 C1819 C 0.64511 0.92375 0.49138
 C1820 C 0.64257 0.93790 0.50347
 C1821 C 0.62640 0.94777 0.50422
 C1822 C 0.61223 0.94372 0.49298
 C1823 C 0.61486 0.92977 0.48071
 C1824 C 0.63108 0.91996 0.47990
 C1825 C 0.59467 0.95367 0.49441
 C1826 C 0.58445 0.95819 0.47990
 C1827 C 0.56801 0.96757 0.48145
 C1828 C 0.56144 0.97275 0.49756
 C1829 C 0.57162 0.96807 0.51203
 C1830 C 0.58792 0.95865 0.51048
 H1831 H 0.64950 0.88683 0.48458
 H1832 H 0.67728 0.86914 0.48282
 H1833 H 0.70738 0.91783 0.49586
 H1834 H 0.67956 0.93578 0.49725
 H1835 H 0.65295 0.94116 0.51262
 H1836 H 0.62504 0.95862 0.51366
 H1837 H 0.60426 0.92613 0.47193
 H1838 H 0.63261 0.90940 0.47021
 H1839 H 0.58927 0.95473 0.46729
 H1840 H 0.56057 0.97096 0.47003
 H1841 H 0.56698 0.97163 0.52468
 H1842 H 0.59513 0.95507 0.52197
 C1843 C 0.17632 0.41665 0.98295
 C1844 C 0.17428 0.39757 0.98025
 C1845 C 0.18913 0.38572 0.98032
 C1846 C 0.20646 0.39256 0.98318
 C1847 C 0.20853 0.41154 0.98632
 C1848 C 0.19365 0.42346 0.98615
 C1849 C 0.16040 0.42926 0.98250
 C1850 C 0.15902 0.44432 0.99379
 C1851 C 0.14377 0.45565 0.99384
 C1852 C 0.12939 0.45221 0.98267
 C1853 C 0.13094 0.43744 0.97109
 C1854 C 0.14623 0.42614 0.97099
 C1855 C 0.11259 0.46350 0.98367
 C1856 C 0.10275 0.46825 0.96899
 C1857 C 0.08684 0.47864 0.97023
 C1858 C 0.08042 0.48450 0.98620
 C1859 C 0.09030 0.47969 1.00082
 C1860 C 0.10608 0.46934 0.99958
 H1861 H 0.16115 0.39171 0.97819
 H1862 H 0.18704 0.37111 0.97815
 H1863 H 0.22172 0.41726 0.98839
 H1864 H 0.19579 0.43808 0.98813
 H1865 H 0.16955 0.44712 1.00291
 H1866 H 0.14321 0.46709 1.00275
 H1867 H 0.12012 0.43427 0.96238
 H1868 H 0.14693 0.41489 0.96189
 H1869 H 0.10743 0.46411 0.95650
 H1870 H 0.07961 0.48207 0.95870
 H1871 H 0.08581 0.48379 1.01338
 H1872 H 0.11301 0.46563 1.01119
 C1873 C 0.00068 0.31886 0.39923
 C1874 C -0.01339 0.31039 0.39026
 C1875 C -0.00983 0.29948 0.37594
 C1876 C 0.00786 0.29675 0.37042
 C1877 C 0.02193 0.30437 0.37995
 C1878 C 0.01839 0.31541 0.39410
 C1879 C -0.00294 0.33283 0.41265
 C1880 C 0.00898 0.33510 0.42637
 C1881 C 0.00780 0.35063 0.43687
 C1882 C -0.00553 0.36404 0.43404
 C1883 C -0.01844 0.36087 0.42135
 C1884 C -0.01709 0.34551 0.41068
 C1885 C -0.00499 0.38198 0.44316
 C1886 C -0.00909 0.39836 0.43441
 C1887 C -0.00795 0.41539 0.44260
 C1888 C -0.00241 0.41647 0.45964
 C1889 C 0.00188 0.40018 0.46840
 C1890 C 0.00050 0.38307 0.46026
 H1891 H -0.02717 0.31256 0.39405
 H1892 H -0.02095 0.29371 0.36887
 H1893 H 0.03574 0.30210 0.37628
 H1894 H 0.02956 0.32189 0.40052
 H1895 H 0.01976 0.32532 0.42849
 H1896 H 0.01796 0.35262 0.44654
 H1897 H -0.02919 0.37068 0.41918
 H1898 H -0.02649 0.34425 0.40024
 H1899 H -0.01285 0.39809 0.42110
 H1900 H -0.01121 0.42776 0.43551
 H1901 H 0.00598 0.40064 0.48162
 H1902 H 0.00358 0.37070 0.46739
 C1903 C 0.49315 -0.16270 -0.12068
 C1904 C 0.47846 -0.17230 -0.12747
 C1905 C 0.48104 -0.18584 -0.13996
 C1906 C 0.49838 -0.19016 -0.14574
 C1907 C 0.51292 -0.18000 -0.13940
 C1908 C 0.51031 -0.16632 -0.12716
 C1909 C 0.49084 -0.14928 -0.10658
 C1910 C 0.50383 -0.14808 -0.09367
 C1911 C 0.50250 -0.13462 -0.08102
 C1912 C 0.48797 -0.12225 -0.08081
 C1913 C 0.47449 -0.12404 -0.09324
 C1914 C 0.47597 -0.13735 -0.10606
 C1915 C 0.48760 -0.10677 -0.06844
 C1916 C 0.48155 -0.08926 -0.07357
 C1917 C 0.48240 -0.07429 -0.06247
 C1918 C 0.48958 -0.07638 -0.04605
 C1919 C 0.49541 -0.09389 -0.04076
 C1920 C 0.49429 -0.10899 -0.05182
 H1921 H 0.46506 -0.16983 -0.12273
 H1922 H 0.46953 -0.19324 -0.14476
 H1923 H 0.52651 -0.18310 -0.14329
 H1924 H 0.52184 -0.15882 -0.12253
 H1925 H 0.51522 -0.15739 -0.09344
 H1926 H 0.51320 -0.13354 -0.07177
 H1927 H 0.46295 -0.11493 -0.09324
 H1928 H 0.46574 -0.13793 -0.11583
 H1929 H 0.47670 -0.08695 -0.08638
 H1930 H 0.47788 -0.06093 -0.06694
 H1931 H 0.50080 -0.09591 -0.02809
 H1932 H 0.49877 -0.12237 -0.04738
 C1933 C -0.00603 -0.15610 1.12251
 C1934 C 0.00892 -0.16362 1.13096
 C1935 C 0.00681 -0.17766 1.14286
 C1936 C -0.01023 -0.18490 1.14622
 C1937 C -0.02523 -0.17678 1.13832
 C1938 C -0.02317 -0.16237 1.12687
 C1939 C -0.00383 -0.14237 1.10873
 C1940 C -0.01572 -0.14212 1.09481
 C1941 C -0.01408 -0.12893 1.08209
 C1942 C -0.00020 -0.11597 1.08267
 C1943 C 0.01214 -0.11670 1.09621
 C1944 C 0.01019 -0.12955 1.10921
 C1945 C 0.00087 -0.10117 1.06972
 C1946 C 0.00701 -0.08358 1.07440
 C1947 C 0.00748 -0.06941 1.06257
 C1948 C 0.00131 -0.07225 1.04589
 C1949 C -0.00483 -0.08977 1.04107
 C1950 C -0.00482 -0.10419 1.05282
 H1951 H 0.02236 -0.15923 1.12794
 H1952 H 0.01863 -0.18328 1.14898
 H1953 H -0.03857 -0.18206 1.14026
 H1954 H -0.03506 -0.15651 1.12108
 H1955 H -0.02637 -0.15211 1.09369
 H1956 H -0.02398 -0.12870 1.07201
 H1957 H 0.02329 -0.10725 1.09690
 H1958 H 0.01954 -0.12920 1.11974
 H1959 H 0.01106 -0.08051 1.08733
 H1960 H 0.01231 -0.05605 1.06664
 H1961 H -0.00947 -0.09235 1.02821
 H1962 H -0.00928 -0.11766 1.04865
 C1963 C 0.49589 0.34709 0.63177
 C1964 C 0.47839 0.34203 0.63616
 C1965 C 0.47538 0.32673 0.64637
 C1966 C 0.48983 0.31645 0.65295
 C1967 C 0.50732 0.32288 0.65022
 C1968 C 0.51034 0.33787 0.63952
 C1969 C 0.49892 0.36058 0.61793
 C1970 C 0.51389 0.37223 0.61802
 C1971 C 0.51697 0.38417 0.60445
 C1972 C 0.50497 0.38495 0.59064
 C1973 C 0.48999 0.37335 0.59063
 C1974 C 0.48713 0.36118 0.60397
 C1975 C 0.50747 0.39836 0.57665
 C1976 C 0.50190 0.39414 0.55995
 C1977 C 0.50218 0.40758 0.54729
 C1978 C 0.50843 0.42537 0.55099
 C1979 C 0.51506 0.42923 0.56736
 C1980 C 0.51438 0.41597 0.58010
 H1981 H 0.46693 0.34929 0.63096
 H1982 H 0.46169 0.32233 0.64802
 H1983 H 0.51877 0.31571 0.65554
 H1984 H 0.52403 0.34144 0.63655
 H1985 H 0.52320 0.37220 0.62860
 H1986 H 0.52878 0.39274 0.60479
 H1987 H 0.48024 0.37380 0.58042
 H1988 H 0.47572 0.35207 0.60316
 H1989 H 0.49700 0.38053 0.55670
 H1990 H 0.49723 0.40414 0.53471
 H1991 H 0.52008 0.44280 0.57059
 H1992 H 0.51858 0.41984 0.59281
 C1993 C 0.49574 1.17795 0.60567
 C1994 C 0.49040 1.19622 0.60252
 C1995 C 0.49491 1.21025 0.61397
 C1996 C 0.50501 1.20619 0.62859
 C1997 C 0.50994 1.18786 0.63193
 C1998 C 0.50530 1.17385 0.62060
 C1999 C 0.49225 1.16322 0.59309
 C2000 C 0.48639 1.14588 0.59853
 C2001 C 0.48484 1.13135 0.58697
 C2002 C 0.48913 1.13389 0.56974
 C2003 C 0.49449 1.15139 0.56419
 C2004 C 0.49597 1.16598 0.57578
 C2005 C 0.48886 1.11795 0.55797
 C2006 C 0.50315 1.11466 0.54672
 C2007 C 0.50395 1.09828 0.53726
 C2008 C 0.49052 1.08496 0.53902
 C2009 C 0.47580 1.08875 0.54961
 C2010 C 0.47496 1.10508 0.55894
 H2011 H 0.48292 1.19966 0.59113
 H2012 H 0.49110 1.22435 0.61109
 H2013 H 0.51766 1.18445 0.64319
 H2014 H 0.50973 1.15988 0.62321
 H2015 H 0.48333 1.14347 0.61180
 H2016 H 0.48089 1.11794 0.59164
 H2017 H 0.49775 1.15370 0.55095
 H2018 H 0.50066 1.17923 0.57133
 H2019 H 0.51409 1.12434 0.54583
 H2020 H 0.51541 1.09572 0.52915
 H2021 H 0.46503 1.07892 0.55095
 H2022 H 0.46363 1.10747 0.56726
 C2023 C 0.01394 0.68799 1.09997
 C2024 C 0.03096 0.69153 1.10672
 C2025 C 0.03310 0.70380 1.12025
 C2026 C 0.01821 0.71279 1.12772
 C2027 C 0.00113 0.70930 1.12063
 C2028 C -0.00092 0.69719 1.10693
 C2029 C 0.01167 0.67390 1.08643
 C2030 C -0.00294 0.66179 1.08683
 C2031 C -0.00404 0.64719 1.07529
 C2032 C 0.00957 0.64419 1.06326
 C2033 C 0.02373 0.65680 1.06232
 C2034 C 0.02471 0.67158 1.07372
 C2035 C 0.00965 0.62726 1.05264
 C2036 C 0.01591 0.62756 1.03578
 C2037 C 0.01680 0.61129 1.02621
 C2038 C 0.01124 0.59451 1.03327
 C2039 C 0.00482 0.59426 1.05003
 C2040 C 0.00414 0.61042 1.05964
 H2041 H 0.04271 0.68454 1.10177
 H2042 H 0.04665 0.70646 1.12439
 H2043 H -0.01094 0.71516 1.12600
 H2044 H -0.01424 0.69485 1.10192
 H2045 H -0.01315 0.66308 1.09652
 H2046 H -0.01534 0.63794 1.07608
 H2047 H 0.03448 0.65483 1.05326
 H2048 H 0.03593 0.68091 1.07284
 H2049 H 0.02006 0.64036 1.02998
 H2050 H 0.02167 0.61187 1.01325
 H2051 H 0.00062 0.58147 1.05586
 H2052 H -0.00031 0.60962 1.07271
 C2053 C 0.51022 0.66934 -0.11787
 C2054 C 0.51760 0.68706 -0.11719
 C2055 C 0.51117 0.70094 -0.12789
 C2056 C 0.49681 0.69750 -0.13918
 C2057 C 0.49038 0.67928 -0.14053
 C2058 C 0.49704 0.66539 -0.13005
 C2059 C 0.51478 0.65543 -0.10491
 C2060 C 0.51785 0.63702 -0.10970
 C2061 C 0.51946 0.62337 -0.09735
 C2062 C 0.51791 0.62790 -0.08000
 C2063 C 0.51551 0.64642 -0.07518
 C2064 C 0.51406 0.66011 -0.08756
 C2065 C 0.51773 0.61307 -0.06719
 C2066 C 0.50446 0.61267 -0.05455
 C2067 C 0.50297 0.59741 -0.04382
 C2068 C 0.51475 0.58234 -0.04562
 C2069 C 0.52855 0.58325 -0.05774
 C2070 C 0.53000 0.59843 -0.06841
 H2071 H 0.52788 0.69032 -0.10793
 H2072 H 0.51649 0.71467 -0.12611
 H2073 H 0.48003 0.67565 -0.14959
 H2074 H 0.49120 0.65177 -0.13087
 H2075 H 0.51846 0.63313 -0.12301
 H2076 H 0.52115 0.60916 -0.10140
 H2077 H 0.51440 0.65023 -0.06188
 H2078 H 0.51149 0.67422 -0.08359
 H2079 H 0.49475 0.62378 -0.05346
 H2080 H 0.49226 0.59713 -0.03457
 H2081 H 0.53807 0.57204 -0.05928
 H2082 H 0.54051 0.59856 -0.07788
 C2083 C 0.00086 1.16818 0.37756
 C2084 C 0.01489 1.18037 0.37416
 C2085 C 0.01321 1.19350 0.36130
 C2086 C -0.00267 1.19492 0.35156
 C2087 C -0.01628 1.18185 0.35454
 C2088 C -0.01449 1.16871 0.36730
 C2089 C 0.00191 1.15523 0.39202
 C2090 C -0.01324 1.15213 0.40215
 C2091 C -0.01266 1.13928 0.41527
 C2092 C 0.00313 1.12934 0.41861
 C2093 C 0.01849 1.13293 0.40890
 C2094 C 0.01788 1.14573 0.39570
 C2095 C 0.00318 1.11436 0.43134
 C2096 C 0.01187 1.09761 0.42764
 C2097 C 0.01098 1.08293 0.43893
 C2098 C 0.00127 1.08459 0.45418
 C2099 C -0.00721 1.10144 0.45805
 C2100 C -0.00624 1.11622 0.44673
 H2101 H 0.02699 1.18014 0.38177
 H2102 H 0.02451 1.20241 0.35909
 H2103 H -0.02897 1.18233 0.34792
 H2104 H -0.02537 1.15919 0.36940
 H2105 H -0.02563 1.15955 0.39984
 H2106 H -0.02475 1.13669 0.42242
 H2107 H 0.03092 1.12564 0.41135
 H2108 H 0.02975 1.14781 0.38808
 H2109 H 0.01892 1.09562 0.41574
 H2110 H 0.01761 1.07012 0.43547
 H2111 H -0.01469 1.10318 0.46975
 H2112 H -0.01291 1.12907 0.44998
 C2113 C 0.76262 0.68786 0.91887
 C2114 C 0.74895 0.67988 0.92852
 C2115 C 0.75259 0.67212 0.94440
 C2116 C 0.77012 0.67204 0.95129
 C2117 C 0.78378 0.68023 0.94149
 C2118 C 0.78005 0.68807 0.92559
 C2119 C 0.75875 0.69524 0.90159
 C2120 C 0.76658 0.71172 0.89594
 C2121 C 0.76336 0.71816 0.87941
 C2122 C 0.75238 0.70816 0.86816
 C2123 C 0.74426 0.69193 0.87397
 C2124 C 0.74739 0.68556 0.89046
 C2125 C 0.75039 0.71379 0.85008
 C2126 C 0.75181 0.70042 0.83717
 C2127 C 0.75084 0.70545 0.82009
 C2128 C 0.74833 0.72400 0.81540
 C2129 C 0.74643 0.73740 0.82829
 C2130 C 0.74760 0.73235 0.84549
 H2131 H 0.73535 0.67954 0.92373
 H2132 H 0.74159 0.66545 0.95076
 H2133 H 0.79735 0.68124 0.94619
 H2134 H 0.79091 0.69404 0.91842
 H2135 H 0.77524 0.71960 0.90428
 H2136 H 0.76992 0.73064 0.87524
 H2137 H 0.73562 0.68400 0.86564
 H2138 H 0.74128 0.67274 0.89434
 H2139 H 0.75418 0.68606 0.84026
 H2140 H 0.75230 0.69474 0.81051
 H2141 H 0.74455 0.75180 0.82507
 H2142 H 0.74635 0.74293 0.85521
 C2143 C 0.26372 0.19247 0.41849
 C2144 C 0.24850 0.18538 0.42652
 C2145 C 0.24980 0.17698 0.44248
 C2146 C 0.26644 0.17529 0.45099
 C2147 C 0.28163 0.18272 0.44286
 C2148 C 0.28026 0.19119 0.42694
 C2149 C 0.26249 0.20036 0.40103
 C2150 C 0.27597 0.19663 0.38904
 C2151 C 0.27439 0.20291 0.37233
 C2152 C 0.25925 0.21304 0.36709
 C2153 C 0.24600 0.21732 0.37918
 C2154 C 0.24758 0.21101 0.39596
 C2155 C 0.25702 0.21814 0.34887
 C2156 C 0.25038 0.23555 0.34395
 C2157 C 0.24902 0.24020 0.32664
 C2158 C 0.25422 0.22748 0.31397
 C2159 C 0.26038 0.20993 0.31902
 C2160 C 0.26174 0.20535 0.33616
 H2161 H 0.23561 0.18575 0.42021
 H2162 H 0.23773 0.17100 0.44756
 H2163 H 0.29463 0.18268 0.44894
 H2164 H 0.29222 0.19688 0.42130
 H2165 H 0.28754 0.18834 0.39241
 H2166 H 0.28498 0.19963 0.36340
 H2167 H 0.23416 0.22504 0.37553
 H2168 H 0.23706 0.21435 0.40493
 H2169 H 0.24665 0.24571 0.35347
 H2170 H 0.24421 0.25382 0.32322
 H2171 H 0.26432 0.19963 0.30969
 H2172 H 0.26646 0.19166 0.33948
 C2173 C 0.73325 0.31443 0.41702
 C2174 C 0.72581 0.33231 0.41833
 C2175 C 0.72336 0.34072 0.43423
 C2176 C 0.72843 0.33152 0.44916
 C2177 C 0.73558 0.31356 0.44791
 C2178 C 0.73791 0.30509 0.43204
 C2179 C 0.73644 0.30580 0.40003
 C2180 C 0.75186 0.29500 0.39690
 C2181 C 0.75531 0.28786 0.38062
 C2182 C 0.74351 0.29156 0.36713
 C2183 C 0.72785 0.30182 0.37037
 C2184 C 0.72432 0.30879 0.38661
 C2185 C 0.74770 0.28572 0.34946
 C2186 C 0.74594 0.29857 0.33629
 C2187 C 0.74797 0.29313 0.31940
 C2188 C 0.75172 0.27461 0.31516
 C2189 C 0.75457 0.26188 0.32837
 C2190 C 0.75263 0.26743 0.34544
 H2191 H 0.72235 0.34006 0.40704
 H2192 H 0.71806 0.35466 0.43480
 H2193 H 0.73941 0.30608 0.45926
 H2194 H 0.74334 0.29121 0.43155
 H2195 H 0.76157 0.29256 0.40690
 H2196 H 0.76750 0.28006 0.37841
 H2197 H 0.71837 0.30458 0.36023
 H2198 H 0.71210 0.31661 0.38863
 H2199 H 0.74257 0.31284 0.33907
 H2200 H 0.74597 0.30341 0.30961
 H2201 H 0.75745 0.24753 0.32551
 H2202 H 0.75415 0.25730 0.35544
 C2203 C 0.22706 0.80136 0.92473
 C2204 C 0.21117 0.80340 0.93411
 C2205 C 0.21064 0.81433 0.94880
 C2206 C 0.22610 0.82336 0.95488
 C2207 C 0.24218 0.82071 0.94572
 C2208 C 0.24259 0.81003 0.93084
 C2209 C 0.22715 0.79115 0.90818
 C2210 C 0.24236 0.78122 0.90266
 C2211 C 0.24285 0.77314 0.88642
 C2212 C 0.22810 0.77474 0.87537
 C2213 C 0.21261 0.78382 0.88124
 C2214 C 0.21218 0.79203 0.89733
 C2215 C 0.22921 0.76845 0.85733
 C2216 C 0.22177 0.77954 0.84452
 C2217 C 0.22279 0.77427 0.82751
 C2218 C 0.23141 0.75774 0.82264
 C2219 C 0.23895 0.74654 0.83541
 C2220 C 0.23788 0.75188 0.85261
 H2221 H 0.19904 0.79648 0.93013
 H2222 H 0.19812 0.81504 0.95567
 H2223 H 0.25437 0.82768 0.94938
 H2224 H 0.25500 0.80914 0.92379
 H2225 H 0.25402 0.77994 0.91078
 H2226 H 0.25501 0.76628 0.88228
 H2227 H 0.20088 0.78501 0.87319
 H2228 H 0.20029 0.79968 0.90095
 H2229 H 0.21540 0.79260 0.84759
 H2230 H 0.21689 0.78339 0.81814
 H2231 H 0.24572 0.73377 0.83211
 H2232 H 0.24371 0.74301 0.86222
 C2233 C 0.26524 0.81204 0.08212
 C2234 C 0.24977 0.81819 0.07370
 C2235 C 0.25092 0.82722 0.05807
 C2236 C 0.26765 0.83039 0.05022
 C2237 C 0.28315 0.82403 0.05881
 C2238 C 0.28193 0.81501 0.07446
 C2239 C 0.26399 0.80331 0.09917
 C2240 C 0.27623 0.80805 0.11204
 C2241 C 0.27451 0.80083 0.12838
 C2242 C 0.26053 0.78868 0.13231
 C2243 C 0.24859 0.78345 0.11934
 C2244 C 0.25026 0.79076 0.10295
 C2245 C 0.25821 0.78221 0.15008
 C2246 C 0.25450 0.76364 0.15381
 C2247 C 0.25385 0.75761 0.17076
 C2248 C 0.25687 0.77010 0.18422
 C2249 C 0.25964 0.78882 0.18037
 C2250 C 0.26030 0.79477 0.16357
 H2251 H 0.23673 0.81654 0.07947
 H2252 H 0.23856 0.83242 0.05270
 H2253 H 0.29632 0.82527 0.05327
 H2254 H 0.29410 0.81014 0.08050
 H2255 H 0.28685 0.81779 0.10961
 H2256 H 0.28409 0.80491 0.13804
 H2257 H 0.23767 0.77413 0.12201
 H2258 H 0.24074 0.78668 0.09324
 H2259 H 0.25280 0.75367 0.14363
 H2260 H 0.25169 0.74312 0.17331
 H2261 H 0.26172 0.79892 0.19038
 H2262 H 0.26269 0.80925 0.16112
 C2263 C 0.76737 0.30374 0.57625
 C2264 C 0.75382 0.31646 0.57195
 C2265 C 0.75488 0.32673 0.55696
 C2266 C 0.76957 0.32459 0.54598
 C2267 C 0.78302 0.31175 0.55015
 C2268 C 0.78190 0.30139 0.56507
 C2269 C 0.76681 0.29372 0.59274
 C2270 C 0.78257 0.29116 0.60226
 C2271 C 0.78197 0.28328 0.61842
 C2272 C 0.76559 0.27786 0.62555
 C2273 C 0.74991 0.27962 0.61576
 C2274 C 0.75051 0.28749 0.59953
 C2275 C 0.76482 0.27201 0.64363
 C2276 C 0.75393 0.25734 0.64896
 C2277 C 0.75313 0.25248 0.66623
 C2278 C 0.76304 0.26238 0.67844
 C2279 C 0.77391 0.27698 0.67297
 C2280 C 0.77477 0.28171 0.65586
 H2281 H 0.74261 0.31888 0.58040
 H2282 H 0.74440 0.33665 0.55415
 H2283 H 0.79433 0.30956 0.54176
 H2284 H 0.79242 0.29150 0.56784
 H2285 H 0.79533 0.29591 0.59754
 H2286 H 0.79432 0.28186 0.62555
 H2287 H 0.73709 0.27563 0.62094
 H2288 H 0.73817 0.28898 0.59241
 H2289 H 0.74614 0.24959 0.63978
 H2290 H 0.74462 0.24119 0.67003
 H2291 H 0.78178 0.28494 0.68194
 H2292 H 0.78300 0.29330 0.65225
 C2293 C 0.22497 0.19103 0.58124
 C2294 C 0.21576 0.17433 0.57897
 C2295 C 0.21536 0.16558 0.56307
 C2296 C 0.22402 0.17339 0.54899
 C2297 C 0.23313 0.19020 0.55127
 C2298 C 0.23368 0.19885 0.56723
 C2299 C 0.22559 0.20008 0.59826
 C2300 C 0.24172 0.20710 0.60481
 C2301 C 0.24250 0.21438 0.62135
 C2302 C 0.22713 0.21489 0.63165
 C2303 C 0.21085 0.20861 0.62476
 C2304 C 0.21011 0.20121 0.60832
 C2305 C 0.22823 0.22064 0.64987
 C2306 C 0.21859 0.21087 0.66218
 C2307 C 0.22005 0.21536 0.67938
 C2308 C 0.23129 0.22972 0.68491
 C2309 C 0.24076 0.23978 0.67262
 C2310 C 0.23927 0.23525 0.65527
 H2311 H 0.20916 0.16782 0.58961
 H2312 H 0.20851 0.15250 0.56190
 H2313 H 0.23968 0.19681 0.54067
 H2314 H 0.24071 0.21181 0.56856
 H2315 H 0.25389 0.20631 0.59737
 H2316 H 0.25529 0.21891 0.62629
 H2317 H 0.19866 0.20919 0.63217
 H2318 H 0.19742 0.19626 0.60348
 H2319 H 0.21023 0.19932 0.65858
 H2320 H 0.21253 0.20725 0.68840
 H2321 H 0.24954 0.25091 0.67641
 H2322 H 0.24678 0.24315 0.64609
 C2323 C 0.73634 0.68674 0.08412
 C2324 C 0.72779 0.66963 0.08216
 C2325 C 0.72755 0.66062 0.06638
 C2326 C 0.73571 0.66858 0.05209
 C2327 C 0.74444 0.68564 0.05412
 C2328 C 0.74483 0.69456 0.06997
 C2329 C 0.73622 0.69636 0.10088
 C2330 C 0.75187 0.70427 0.10761
 C2331 C 0.75187 0.71223 0.12391
 C2332 C 0.73617 0.71255 0.13378
 C2333 C 0.72036 0.70534 0.12667
 C2334 C 0.72041 0.69727 0.11049
 C2335 C 0.73642 0.71917 0.15179
 C2336 C 0.72657 0.70970 0.16415
 C2337 C 0.72706 0.71518 0.18117
 C2338 C 0.73749 0.73028 0.18646
 C2339 C 0.74723 0.73997 0.17411
 C2340 C 0.74672 0.73445 0.15695
 H2341 H 0.72141 0.66311 0.09291
 H2342 H 0.72107 0.64733 0.06542
 H2343 H 0.75063 0.69233 0.04336
 H2344 H 0.75140 0.70780 0.07108
 H2345 H 0.76427 0.70371 0.10050
 H2346 H 0.76431 0.71748 0.12903
 H2347 H 0.70792 0.70576 0.13370
 H2348 H 0.70806 0.69165 0.10549
 H2349 H 0.71880 0.69765 0.16078
 H2350 H 0.71939 0.70728 0.19024
 H2351 H 0.75542 0.75164 0.17773
 H2352 H 0.75435 0.74215 0.14772
 C2353 C 0.16167 0.58248 0.23452
 C2354 C 0.15150 0.57727 0.24880
 C2355 C 0.13990 0.56217 0.24796
 C2356 C 0.13796 0.55208 0.23278
 C2357 C 0.14820 0.55709 0.21859
 C2358 C 0.16000 0.57199 0.21948
 C2359 C 0.17379 0.59885 0.23525
 C2360 C 0.17634 0.61002 0.22084
 C2361 C 0.18770 0.62532 0.22150
 C2362 C 0.19668 0.63007 0.23665
 C2363 C 0.19401 0.61898 0.25108
 C2364 C 0.18285 0.60354 0.25036
 C2365 C 0.20867 0.64653 0.23749
 C2366 C 0.22393 0.64647 0.24803
 C2367 C 0.23463 0.66215 0.24959
 C2368 C 0.23060 0.67826 0.24042
 C2369 C 0.21574 0.67823 0.22943
 C2370 C 0.20483 0.66260 0.22807
 H2371 H 0.15214 0.58513 0.26053
 H2372 H 0.13201 0.55871 0.25903
 H2373 H 0.14711 0.54939 0.20678
 H2374 H 0.16787 0.57520 0.20835
 H2375 H 0.16940 0.60711 0.20904
 H2376 H 0.18952 0.63333 0.21006
 H2377 H 0.20039 0.62230 0.26308
 H2378 H 0.18148 0.59521 0.26166
 H2379 H 0.22766 0.63427 0.25514
 H2380 H 0.24609 0.66169 0.25806
 H2381 H 0.21217 0.69051 0.22235
 H2382 H 0.19309 0.66336 0.22001
 C2383 C 0.65793 0.08141 0.73354
 C2384 C 0.66404 0.06309 0.73546
 C2385 C 0.65193 0.04838 0.73586
 C2386 C 0.63344 0.05162 0.73421
 C2387 C 0.62733 0.06991 0.73250
 C2388 C 0.63938 0.08459 0.73223
 C2389 C 0.67071 0.09719 0.73313
 C2390 C 0.66741 0.11262 0.72272
 C2391 C 0.67883 0.12789 0.72306
 C2392 C 0.69393 0.12812 0.73377
 C2393 C 0.69756 0.11244 0.74375
 C2394 C 0.68609 0.09723 0.74348
 C2395 C 0.70531 0.14495 0.73526
 C2396 C 0.71211 0.15030 0.75120
 C2397 C 0.72229 0.16629 0.75297
 C2398 C 0.72595 0.17756 0.73887
 C2399 C 0.71926 0.17222 0.72284
 C2400 C 0.70905 0.15609 0.72106
 H2401 H 0.67821 0.06005 0.73632
 H2402 H 0.65704 0.03442 0.73701
 H2403 H 0.61314 0.07288 0.73148
 H2404 H 0.63411 0.09849 0.73118
 H2405 H 0.65590 0.11297 0.71433
 H2406 H 0.67552 0.13973 0.71529
 H2407 H 0.70923 0.11196 0.75194
 H2408 H 0.68905 0.08570 0.75176
 H2409 H 0.70922 0.14236 0.76249
 H2410 H 0.72708 0.16992 0.76556
 H2411 H 0.72179 0.18054 0.71170
 H2412 H 0.70417 0.15230 0.70855
 C2413 C 0.84426 0.08368 0.26330
 C2414 C 0.83817 0.06664 0.25692
 C2415 C 0.84915 0.05087 0.25732
 C2416 C 0.86652 0.05149 0.26445
 C2417 C 0.87252 0.06871 0.27074
 C2418 C 0.86166 0.08446 0.27007
 C2419 C 0.83275 0.10065 0.26269
 C2420 C 0.83391 0.11431 0.27548
 C2421 C 0.82381 0.13062 0.27447
 C2422 C 0.81206 0.13369 0.26075
 C2423 C 0.81050 0.11980 0.24823
 C2424 C 0.82077 0.10361 0.24912
 C2425 C 0.80179 0.15142 0.25920
 C2426 C 0.79835 0.15902 0.24308
 C2427 C 0.78849 0.17535 0.24141
 C2428 C 0.78195 0.18478 0.25582
 C2429 C 0.78570 0.17752 0.27200
 C2430 C 0.79540 0.16096 0.27367
 H2431 H 0.82474 0.06534 0.25188
 H2432 H 0.84354 0.03804 0.25272
 H2433 H 0.88598 0.07042 0.27556
 H2434 H 0.86713 0.09740 0.27457
 H2435 H 0.84268 0.11244 0.28633
 H2436 H 0.82553 0.14099 0.28429
 H2437 H 0.80134 0.12140 0.23765
 H2438 H 0.81956 0.09359 0.23893
 H2439 H 0.80344 0.15247 0.23165
 H2440 H 0.78609 0.18068 0.22875
 H2441 H 0.78080 0.18442 0.28335
 H2442 H 0.79759 0.15549 0.28630
 C2443 C 0.33819 0.57422 0.77116
 C2444 C 0.35589 0.57651 0.77680
 C2445 C 0.36808 0.56180 0.77647
 C2446 C 0.36312 0.54416 0.77032
 C2447 C 0.34531 0.54199 0.76457
 C2448 C 0.33306 0.55672 0.76511
 C2449 C 0.32544 0.59022 0.77104
 C2450 C 0.32618 0.60401 0.78374
 C2451 C 0.31515 0.61970 0.78288
 C2452 C 0.30298 0.62198 0.76936
 C2453 C 0.30174 0.60784 0.75706
 C2454 C 0.31286 0.59226 0.75784
 C2455 C 0.29231 0.63938 0.76748
 C2456 C 0.28928 0.64675 0.75122
 C2457 C 0.27946 0.66302 0.74914
 C2458 C 0.27242 0.67261 0.76327
 C2459 C 0.27557 0.66543 0.77962
 C2460 C 0.28537 0.64896 0.78170
 H2461 H 0.36056 0.58988 0.78104
 H2462 H 0.38169 0.56474 0.78031
 H2463 H 0.34044 0.52874 0.76025
 H2464 H 0.31945 0.55428 0.76096
 H2465 H 0.33543 0.60279 0.79430
 H2466 H 0.31657 0.63031 0.79253
 H2467 H 0.29228 0.60888 0.74665
 H2468 H 0.31193 0.58208 0.74774
 H2469 H 0.29478 0.64012 0.74000
 H2470 H 0.27755 0.66816 0.73635
 H2471 H 0.27036 0.67244 0.79077
 H2472 H 0.28734 0.64364 0.79442
 C2473 C 0.33835 0.41038 0.73630
 C2474 C 0.34131 0.41899 0.72058
 C2475 C 0.35214 0.43463 0.71953
 C2476 C 0.36040 0.44204 0.73414
 C2477 C 0.35709 0.43369 0.74994
 C2478 C 0.34618 0.41807 0.75100
 C2479 C 0.32747 0.39323 0.73730
 C2480 C 0.31542 0.39060 0.75076
 C2481 C 0.30560 0.37427 0.75199
 C2482 C 0.30765 0.36005 0.73985
 C2483 C 0.31950 0.36281 0.72623
 C2484 C 0.32927 0.37920 0.72496
 C2485 C 0.29786 0.34227 0.74176
 C2486 C 0.29093 0.33272 0.72756
 C2487 C 0.28160 0.31611 0.72962
 C2488 C 0.27896 0.30869 0.74593
 C2489 C 0.28612 0.31817 0.76005
 C2490 C 0.29544 0.33465 0.75800
 H2491 H 0.33521 0.41364 0.70907
 H2492 H 0.35409 0.44092 0.70720
 H2493 H 0.36340 0.43886 0.76141
 H2494 H 0.34432 0.41166 0.76329
 H2495 H 0.31347 0.40126 0.76031
 H2496 H 0.29632 0.37282 0.76245
 H2497 H 0.32160 0.35209 0.71678
 H2498 H 0.33860 0.38069 0.71454
 H2499 H 0.29245 0.33825 0.71488
 H2500 H 0.27628 0.30921 0.71846
 H2501 H 0.28455 0.31286 0.77282
 H2502 H 0.30092 0.34134 0.76918
 C2503 C 0.84115 0.91437 0.23403
 C2504 C 0.84661 0.92082 0.21808
 C2505 C 0.85719 0.93660 0.21673
 C2506 C 0.86283 0.94654 0.23133
 C2507 C 0.85674 0.94028 0.24731
 C2508 C 0.84615 0.92443 0.24861
 C2509 C 0.83050 0.89708 0.23541
 C2510 C 0.81655 0.89569 0.24729
 C2511 C 0.80682 0.87933 0.24882
 C2512 C 0.81081 0.86387 0.23855
 C2513 C 0.82459 0.86534 0.22648
 C2514 C 0.83431 0.88172 0.22494
 C2515 C 0.80101 0.84618 0.24086
 C2516 C 0.79606 0.83508 0.22687
 C2517 C 0.78668 0.81856 0.22928
 C2518 C 0.78210 0.81273 0.24575
 C2519 C 0.78729 0.82377 0.25970
 C2520 C 0.79659 0.84020 0.25729
 H2521 H 0.84254 0.91375 0.20654
 H2522 H 0.86040 0.94119 0.20403
 H2523 H 0.86086 0.94688 0.25903
 H2524 H 0.84234 0.91972 0.26114
 H2525 H 0.81302 0.90734 0.25533
 H2526 H 0.79608 0.87882 0.25803
 H2527 H 0.82818 0.85365 0.21853
 H2528 H 0.84512 0.88221 0.21581
 H2529 H 0.79916 0.83934 0.21403
 H2530 H 0.78291 0.81043 0.21825
 H2531 H 0.78414 0.81977 0.27260
 H2532 H 0.80049 0.84816 0.26838
 C2533 C 0.65423 0.91368 0.76341
 C2534 C 0.65477 0.92465 0.77824
 C2535 C 0.64455 0.94084 0.77950
 C2536 C 0.63375 0.94667 0.76587
 C2537 C 0.63356 0.93613 0.75085
 C2538 C 0.64357 0.91974 0.74967
 C2539 C 0.66458 0.89595 0.76237
 C2540 C 0.67187 0.88982 0.74684
 C2541 C 0.68148 0.87322 0.74585
 C2542 C 0.68440 0.86234 0.76041
 C2543 C 0.67709 0.86843 0.77595
 C2544 C 0.66724 0.88492 0.77689
 C2545 C 0.69514 0.84487 0.75932
 C2546 C 0.69115 0.82947 0.76954
 C2547 C 0.70105 0.81301 0.76804
 C2548 C 0.71496 0.81150 0.75611
 C2549 C 0.71912 0.82691 0.74612
 C2550 C 0.70949 0.84339 0.74782
 H2551 H 0.66312 0.92078 0.78893
 H2552 H 0.64503 0.94883 0.79118
 H2553 H 0.62517 0.94021 0.74025
 H2554 H 0.64252 0.91160 0.73814
 H2555 H 0.67035 0.89794 0.73540
 H2556 H 0.68653 0.86889 0.73355
 H2557 H 0.67916 0.86060 0.78749
 H2558 H 0.66158 0.88892 0.78904
 H2559 H 0.68009 0.82994 0.77840
 H2560 H 0.69747 0.80130 0.77582
 H2561 H 0.72993 0.82626 0.73698
 H2562 H 0.71339 0.85502 0.74010
 C2563 C 0.15786 0.41569 0.26066
 C2564 C 0.15830 0.42697 0.27529
 C2565 C 0.14763 0.44285 0.27640
 C2566 C 0.13647 0.44805 0.26282
 C2567 C 0.13640 0.43723 0.24797
 C2568 C 0.14686 0.42114 0.24694
 C2569 C 0.16863 0.39824 0.25984
 C2570 C 0.17595 0.39199 0.24437
 C2571 C 0.18593 0.37562 0.24360
 C2572 C 0.18917 0.36511 0.25833
 C2573 C 0.18186 0.37134 0.27382
 C2574 C 0.17164 0.38759 0.27454
 C2575 C 0.20016 0.34781 0.25746
 C2576 C 0.19638 0.33254 0.26791
 C2577 C 0.20640 0.31616 0.26654
 C2578 C 0.22020 0.31460 0.25451
 C2579 C 0.22419 0.32989 0.24432
 C2580 C 0.21445 0.34632 0.24589
 H2581 H 0.16691 0.42358 0.28593
 H2582 H 0.14804 0.45109 0.28794
 H2583 H 0.12775 0.44087 0.23741
 H2584 H 0.14590 0.41273 0.23556
 H2585 H 0.17415 0.39985 0.23280
 H2586 H 0.19099 0.37115 0.23135
 H2587 H 0.18417 0.36379 0.28548
 H2588 H 0.16597 0.39169 0.28665
 H2589 H 0.18537 0.33302 0.27682
 H2590 H 0.20293 0.30451 0.27445
 H2591 H 0.23490 0.32916 0.23507
 H2592 H 0.21816 0.35786 0.23798
 C2593 C 0.08588 0.24166 0.86843
 C2594 C 0.06876 0.23558 0.86371
 C2595 C 0.05377 0.24111 0.87300
 C2596 C 0.05566 0.25270 0.88727
 C2597 C 0.07292 0.25748 0.89281
 C2598 C 0.08790 0.25205 0.88344
 C2599 C 0.10121 0.23907 0.85676
 C2600 C 0.11847 0.23551 0.86310
 C2601 C 0.13313 0.23515 0.85213
 C2602 C 0.13079 0.23835 0.83464
 C2603 C 0.11347 0.24134 0.82825
 C2604 C 0.09884 0.24173 0.83919
 C2605 C 0.14638 0.23900 0.82313
 C2606 C 0.14742 0.25254 0.81042
 C2607 C 0.16222 0.25325 0.79965
 C2608 C 0.17629 0.24046 0.80142
 C2609 C 0.17521 0.22692 0.81416
 C2610 C 0.16041 0.22620 0.82488
 H2611 H 0.06686 0.22727 0.85236
 H2612 H 0.04066 0.23728 0.86833
 H2613 H 0.07476 0.26616 0.90393
 H2614 H 0.10093 0.25700 0.88738
 H2615 H 0.12066 0.23330 0.87657
 H2616 H 0.14637 0.23292 0.85741
 H2617 H 0.11125 0.24357 0.81479
 H2618 H 0.08574 0.24479 0.83396
 H2619 H 0.13689 0.26276 0.80897
 H2620 H 0.16268 0.26388 0.79002
 H2621 H 0.18576 0.21677 0.81584
 H2622 H 0.15986 0.21549 0.83442
 C2623 C 0.59085 0.75540 0.37251
 C2624 C 0.58428 0.77239 0.37858
 C2625 C 0.56888 0.77311 0.38852
 C2626 C 0.55990 0.75682 0.39291
 C2627 C 0.56715 0.73975 0.38777
 C2628 C 0.58234 0.73905 0.37753
 C2629 C 0.60593 0.75478 0.36031
 C2630 C 0.61833 0.74016 0.36063
 C2631 C 0.63209 0.73924 0.34873
 C2632 C 0.63402 0.75314 0.33645
 C2633 C 0.62167 0.76782 0.33616
 C2634 C 0.60769 0.76855 0.34787
 C2635 C 0.64911 0.75245 0.32428
 C2636 C 0.64707 0.75860 0.30740
 C2637 C 0.66145 0.75778 0.29607
 C2638 C 0.67797 0.75048 0.30136
 C2639 C 0.67995 0.74434 0.31818
 C2640 C 0.66580 0.74553 0.32955
 H2641 H 0.59076 0.78521 0.37531
 H2642 H 0.56358 0.78653 0.39205
 H2643 H 0.56073 0.72694 0.39118
 H2644 H 0.58695 0.72571 0.37300
 H2645 H 0.61750 0.72943 0.37013
 H2646 H 0.64115 0.72754 0.34912
 H2647 H 0.62289 0.77886 0.32702
 H2648 H 0.59814 0.77981 0.34701
 H2649 H 0.63431 0.76378 0.30288
 H2650 H 0.65957 0.76252 0.28313
 H2651 H 0.69256 0.73873 0.32266
 H2652 H 0.66802 0.74115 0.34254
 C2653 C 0.56669 0.24959 0.17081
 C2654 C 0.56210 0.23118 0.16719
 C2655 C 0.55057 0.22702 0.15379
 C2656 C 0.54365 0.24111 0.14342
 C2657 C 0.54749 0.25957 0.14755
 C2658 C 0.55872 0.26377 0.16121
 C2659 C 0.58143 0.25362 0.18292
 C2660 C 0.59387 0.26748 0.17911
 C2661 C 0.60977 0.26883 0.18826
 C2662 C 0.61381 0.25612 0.20116
 C2663 C 0.60076 0.24330 0.20598
 C2664 C 0.58464 0.24218 0.19703
 C2665 C 0.63220 0.25499 0.20812
 C2666 C 0.63537 0.25068 0.22529
 C2667 C 0.65289 0.24901 0.23140
 C2668 C 0.66746 0.25178 0.22045
 C2669 C 0.66426 0.25593 0.20330
 C2670 C 0.64685 0.25739 0.19718
 H2671 H 0.56809 0.21985 0.17413
 H2672 H 0.54744 0.21269 0.15131
 H2673 H 0.54241 0.27080 0.13984
 H2674 H 0.56164 0.27811 0.16387
 H2675 H 0.59198 0.27652 0.16833
 H2676 H 0.61936 0.27924 0.18461
 H2677 H 0.60343 0.23338 0.21594
 H2678 H 0.57510 0.23171 0.20062
 H2679 H 0.62434 0.24881 0.23401
 H2680 H 0.65503 0.24595 0.24473
 H2681 H 0.67524 0.25793 0.19453
 H2682 H 0.64489 0.26011 0.18377
 C2683 C 0.07968 0.74795 0.64232
 C2684 C 0.07217 0.76370 0.63467
 C2685 C 0.05810 0.76197 0.62304
 C2686 C 0.05125 0.74447 0.61896
 C2687 C 0.05913 0.72875 0.62632
 C2688 C 0.07327 0.73046 0.63770
 C2689 C 0.09405 0.74949 0.65519
 C2690 C 0.09439 0.73749 0.66919
 C2691 C 0.10876 0.73759 0.68049
 C2692 C 0.12296 0.74991 0.67822
 C2693 C 0.12216 0.76260 0.66474
 C2694 C 0.10789 0.76233 0.65327
 C2695 C 0.13900 0.74876 0.68925
 C2696 C 0.15610 0.75113 0.68224
 C2697 C 0.17130 0.74946 0.69238
 C2698 C 0.16974 0.74510 0.70969
 C2699 C 0.15273 0.74253 0.71674
 C2700 C 0.13745 0.74450 0.70664
 H2701 H 0.07684 0.77737 0.63802
 H2702 H 0.05241 0.77433 0.61746
 H2703 H 0.05399 0.71506 0.62378
 H2704 H 0.07906 0.71803 0.64304
 H2705 H 0.08369 0.72776 0.67125
 H2706 H 0.10900 0.72755 0.69065
 H2707 H 0.13274 0.77254 0.66288
 H2708 H 0.10800 0.77173 0.64261
 H2709 H 0.15779 0.75394 0.66882
 H2710 H 0.18432 0.75133 0.68661
 H2711 H 0.15122 0.73937 0.73012
 H2712 H 0.12445 0.74283 0.71246
 C2713 C 0.92044 0.75280 0.65620
 C2714 C 0.92930 0.73953 0.64620
 C2715 C 0.94235 0.74482 0.63453
 C2716 C 0.94703 0.76358 0.63259
 C2717 C 0.93809 0.77672 0.64291
 C2718 C 0.92496 0.77142 0.65436
 C2719 C 0.90583 0.74760 0.66790
 C2720 C 0.90332 0.75729 0.68326
 C2721 C 0.88795 0.75463 0.69291
 C2722 C 0.87491 0.74194 0.68760
 C2723 C 0.87815 0.73116 0.67298
 C2724 C 0.89338 0.73406 0.66315
 C2725 C 0.85740 0.74117 0.69637
 C2726 C 0.84162 0.73880 0.68685
 C2727 C 0.82499 0.73928 0.69478
 C2728 C 0.82375 0.74249 0.71235
 C2729 C 0.83943 0.74484 0.72195
 C2730 C 0.85613 0.74401 0.71405
 H2731 H 0.92612 0.72503 0.64734
 H2732 H 0.94819 0.73408 0.62668
 H2733 H 0.94151 0.79119 0.64281
 H2734 H 0.91819 0.78207 0.66166
 H2735 H 0.91293 0.76746 0.68751
 H2736 H 0.88590 0.76323 0.70405
 H2737 H 0.86860 0.72090 0.66879
 H2738 H 0.89489 0.72636 0.65139
 H2739 H 0.84203 0.73708 0.67316
 H2740 H 0.81306 0.73753 0.68709
 H2741 H 0.83878 0.74707 0.73557
 H2742 H 0.86803 0.74561 0.72179
 C2743 C 0.41512 0.25306 0.13998
 C2744 C 0.42403 0.23804 0.13234
 C2745 C 0.43843 0.24098 0.12144
 C2746 C 0.44441 0.25898 0.11821
 C2747 C 0.43511 0.27400 0.12542
 C2748 C 0.42053 0.27107 0.13603
 C2749 C 0.40049 0.25006 0.15231
 C2750 C 0.39849 0.26184 0.16646
 C2751 C 0.38419 0.25969 0.17760
 C2752 C 0.37174 0.24552 0.17500
 C2753 C 0.37419 0.23323 0.16129
 C2754 C 0.38831 0.23558 0.14997
 C2755 C 0.35565 0.24428 0.18588
 C2756 C 0.33914 0.23949 0.17858
 C2757 C 0.32376 0.23904 0.18846
 C2758 C 0.32443 0.24368 0.20581
 C2759 C 0.34088 0.24847 0.21321
 C2760 C 0.35641 0.24862 0.20334
 H2761 H 0.42026 0.22398 0.13517
 H2762 H 0.44516 0.22913 0.11588
 H2763 H 0.43948 0.28804 0.12345
 H2764 H 0.41366 0.28296 0.14136
 H2765 H 0.40791 0.27285 0.16888
 H2766 H 0.38262 0.26950 0.18794
 H2767 H 0.36503 0.22193 0.15913
 H2768 H 0.38940 0.22631 0.13917
 H2769 H 0.33796 0.23654 0.16511
 H2770 H 0.31123 0.23545 0.18237
 H2771 H 0.34174 0.25197 0.22660
 H2772 H 0.36898 0.25213 0.20939
 C2773 C 0.44178 0.74995 0.32979
 C2774 C 0.44785 0.73160 0.33101
 C2775 C 0.45902 0.72621 0.34432
 C2776 C 0.46406 0.73891 0.35698
 C2777 C 0.45896 0.75750 0.35521
 C2778 C 0.44810 0.76300 0.34164
 C2779 C 0.42705 0.75464 0.31781
 C2780 C 0.41337 0.76684 0.32295
 C2781 C 0.39746 0.76801 0.31375
 C2782 C 0.39466 0.75668 0.29945
 C2783 C 0.40892 0.74581 0.29335
 C2784 C 0.42504 0.74497 0.30234
 C2785 C 0.37643 0.75468 0.29224
 C2786 C 0.37368 0.75170 0.27473
 C2787 C 0.35640 0.74898 0.26835
 C2788 C 0.34162 0.74941 0.27936
 C2789 C 0.34438 0.75230 0.29681
 C2790 C 0.36157 0.75474 0.30320
 H2791 H 0.44321 0.72105 0.32230
 H2792 H 0.46323 0.71190 0.34495
 H2793 H 0.46266 0.76769 0.36468
 H2794 H 0.44408 0.77735 0.34087
 H2795 H 0.41430 0.77453 0.33475
 H2796 H 0.38695 0.77704 0.31843
 H2797 H 0.40727 0.73701 0.28229
 H2798 H 0.43553 0.73592 0.29768
 H2799 H 0.38483 0.75166 0.26596
 H2800 H 0.35457 0.74697 0.25480
 H2801 H 0.33322 0.75252 0.30560
 H2802 H 0.36322 0.75636 0.31681
 C2803 C 0.92495 0.25891 0.84669
 C2804 C 0.93016 0.24073 0.85045
 C2805 C 0.94189 0.23714 0.86376
 C2806 C 0.94854 0.25160 0.87385
 C2807 C 0.94356 0.26986 0.87006
 C2808 C 0.93181 0.27349 0.85657
 C2809 C 0.91132 0.26214 0.83334
 C2810 C 0.89719 0.27461 0.83620
 C2811 C 0.88236 0.27476 0.82539
 C2812 C 0.88130 0.26225 0.81168
 C2813 C 0.89613 0.25094 0.80800
 C2814 C 0.91106 0.25103 0.81863
 C2815 C 0.86419 0.25959 0.80247
 C2816 C 0.86393 0.25500 0.78506
 C2817 C 0.84775 0.25128 0.77683
 C2818 C 0.83157 0.25237 0.78582
 C2819 C 0.83181 0.25701 0.80316
 C2820 C 0.84794 0.26042 0.81143
 H2821 H 0.92484 0.22914 0.84335
 H2822 H 0.94585 0.22296 0.86608
 H2823 H 0.94857 0.28126 0.87761
 H2824 H 0.92807 0.28765 0.85392
 H2825 H 0.89700 0.28339 0.84740
 H2826 H 0.87136 0.28406 0.82825
 H2827 H 0.89579 0.24116 0.79755
 H2828 H 0.92201 0.24163 0.81586
 H2829 H 0.87619 0.25440 0.77776
 H2830 H 0.84785 0.24800 0.76336
 H2831 H 0.81949 0.25784 0.81039
 H2832 H 0.84767 0.26336 0.82495
 C2833 C 0.55670 1.02132 0.67909
 C2834 C 0.56122 1.00491 0.68757
 C2835 C 0.57294 1.00507 0.70149
 C2836 C 0.58065 1.02171 0.70738
 C2837 C 0.57510 1.03825 0.69937
 C2838 C 0.56340 1.03803 0.68546
 C2839 C 0.54649 1.02088 0.66278
 C2840 C 0.53408 1.03487 0.65858
 C2841 C 0.52620 1.03543 0.64236
 C2842 C 0.53073 1.02211 0.63003
 C2843 C 0.54246 1.00770 0.63452
 C2844 C 0.55025 1.00709 0.65065
 C2845 C 0.52454 1.02376 0.61212
 C2846 C 0.53697 1.02126 0.59896
 C2847 C 0.53148 1.02126 0.58204
 C2848 C 0.51334 1.02373 0.57770
 C2849 C 0.50093 1.02719 0.59079
 C2850 C 0.50651 1.02724 0.60791
 H2851 H 0.55608 0.99180 0.68312
 H2852 H 0.57672 0.99185 0.70675
 H2853 H 0.57959 1.05160 0.70381
 H2854 H 0.56017 1.05096 0.67928
 H2855 H 0.53074 1.04557 0.66771
 H2856 H 0.51719 1.04668 0.63922
 H2857 H 0.54601 0.99710 0.62533
 H2858 H 0.55987 0.99625 0.65333
 H2859 H 0.55102 1.01906 0.60179
 H2860 H 0.54152 1.01891 0.57234
 H2861 H 0.48688 1.02917 0.58786
 H2862 H 0.49667 1.02931 0.61785
 C2863 C 0.06696 0.52219 1.17084
 C2864 C 0.07327 0.50551 1.17784
 C2865 C 0.08345 0.50545 1.19281
 C2866 C 0.08751 0.52208 1.20124
 C2867 C 0.08041 0.53865 1.19473
 C2868 C 0.07033 0.53872 1.17971
 C2869 C 0.05829 0.52255 1.15372
 C2870 C 0.04452 0.53525 1.14984
 C2871 C 0.03778 0.53668 1.13321
 C2872 C 0.04472 0.52550 1.12011
 C2873 C 0.05791 0.51229 1.12418
 C2874 C 0.06464 0.51088 1.14070
 C2875 C 0.03919 0.52806 1.10206
 C2876 C 0.05224 0.52738 1.08925
 C2877 C 0.04741 0.52837 1.07217
 C2878 C 0.02936 0.53018 1.06729
 C2879 C 0.01628 0.53183 1.08006
 C2880 C 0.02116 0.53076 1.09734
 H2881 H 0.07067 0.49248 1.17152
 H2882 H 0.08873 0.49244 1.19740
 H2883 H 0.08295 0.55167 1.20108
 H2884 H 0.06582 0.55184 1.17468
 H2885 H 0.03914 0.54428 1.15961
 H2886 H 0.02762 0.54698 1.13049
 H2887 H 0.06331 0.50321 1.11444
 H2888 H 0.07535 0.50109 1.14308
 H2889 H 0.06628 0.52590 1.09245
 H2890 H 0.05791 0.52744 1.06271
 H2891 H 0.00227 0.53326 1.07671
 H2892 H 0.01081 0.53141 1.10695
 C2893 C -0.06868 -0.01750 1.16989
 C2894 C -0.06331 -0.00948 1.18535
 C2895 C -0.07411 -0.01079 1.19985
 C2896 C -0.09055 -0.02040 1.19937
 C2897 C -0.09557 -0.02868 1.18375
 C2898 C -0.08484 -0.02723 1.16932
 C2899 C -0.05801 -0.01511 1.15412
 C2900 C -0.06672 -0.01065 1.13882
 C2901 C -0.05701 -0.00841 1.12386
 C2902 C -0.03830 -0.01055 1.12375
 C2903 C -0.02950 -0.01515 1.13900
 C2904 C -0.03927 -0.01727 1.15410
 C2905 C -0.02835 -0.00793 1.10759
 C2906 C -0.01527 -0.02067 1.10208
 C2907 C -0.00812 -0.01950 1.08559
 C2908 C -0.01405 -0.00565 1.07440
 C2909 C -0.02610 0.00781 1.08048
 C2910 C -0.03311 0.00671 1.09684
 H2911 H -0.05091 -0.00187 1.18615
 H2912 H -0.06915 -0.00467 1.21150
 H2913 H -0.10826 -0.03562 1.18223
 H2914 H -0.08931 -0.03363 1.15758
 H2915 H -0.08110 -0.00871 1.13845
 H2916 H -0.06420 -0.00513 1.11227
 H2917 H -0.01510 -0.01686 1.13928
 H2918 H -0.03223 -0.02081 1.16571
 H2919 H -0.01132 -0.03208 1.11013
 H2920 H 0.00122 -0.02997 1.08131
 H2921 H -0.03067 0.01890 1.07233
 H2922 H -0.04280 0.01701 1.10090
 C2923 C 0.43092 0.47630 0.67304
 C2924 C 0.43640 0.48423 0.68851
 C2925 C 0.42565 0.48298 0.70305
 C2926 C 0.40908 0.47358 0.70261
 C2927 C 0.40400 0.46528 0.68701
 C2928 C 0.41472 0.46663 0.67255
 C2929 C 0.44146 0.47881 0.65719
 C2930 C 0.43259 0.48308 0.64192
 C2931 C 0.44217 0.48554 0.62691
 C2932 C 0.46092 0.48384 0.62671
 C2933 C 0.46988 0.47942 0.64192
 C2934 C 0.46024 0.47705 0.65707
 C2935 C 0.47074 0.48673 0.61050
 C2936 C 0.48432 0.47451 0.60507
 C2937 C 0.49149 0.47590 0.58860
 C2938 C 0.48509 0.48947 0.57736
 C2939 C 0.47245 0.50241 0.58330
 C2940 C 0.46543 0.50110 0.59965
 H2941 H 0.44884 0.49178 0.68928
 H2942 H 0.43071 0.48906 0.71468
 H2943 H 0.39127 0.45846 0.68547
 H2944 H 0.41017 0.46024 0.66084
 H2945 H 0.41817 0.48475 0.64161
 H2946 H 0.43483 0.48864 0.61536
 H2947 H 0.48432 0.47805 0.64215
 H2948 H 0.46742 0.47366 0.66863
 H2949 H 0.48868 0.46329 0.61317
 H2950 H 0.50118 0.46575 0.58435
 H2951 H 0.46746 0.51321 0.57503
 H2952 H 0.45535 0.51102 0.60362
 C2953 C 0.44275 0.51371 -0.17885
 C2954 C 0.43567 0.49718 -0.18543
 C2955 C 0.42341 0.49745 -0.19891
 C2956 C 0.41800 0.51425 -0.20625
 C2957 C 0.42589 0.53067 -0.20033
 C2958 C 0.43808 0.53042 -0.18678
 C2959 C 0.45343 0.51370 -0.16279
 C2960 C 0.46765 0.52611 -0.16015
 C2961 C 0.47618 0.52730 -0.14424
 C2962 C 0.47052 0.51624 -0.13068
 C2963 C 0.45691 0.50329 -0.13358
 C2964 C 0.44846 0.50205 -0.14938
 C2965 C 0.47747 0.51894 -0.11312
 C2966 C 0.46525 0.51999 -0.09965
 C2967 C 0.47120 0.52072 -0.08288
 C2968 C 0.48959 0.52041 -0.07902
 C2969 C 0.50196 0.52047 -0.09249
 C2970 C 0.49592 0.51975 -0.10948
 H2971 H 0.43921 0.48403 -0.17982
 H2972 H 0.41759 0.48454 -0.20307
 H2973 H 0.42231 0.54383 -0.20592
 H2974 H 0.44317 0.54341 -0.18200
 H2975 H 0.47193 0.53513 -0.17028
 H2976 H 0.48664 0.53740 -0.14233
 H2977 H 0.45242 0.49442 -0.12340
 H2978 H 0.43746 0.49252 -0.15080
 H2979 H 0.45097 0.51991 -0.10208
 H2980 H 0.46125 0.52110 -0.07287
 H2981 H 0.51620 0.52028 -0.08990
 H2982 H 0.50562 0.51908 -0.11968
 C2983 C -0.06196 1.01520 0.32254
 C2984 C -0.06955 0.99914 0.31549
 C2985 C -0.08063 1.00011 0.30113
 C2986 C -0.08426 1.01715 0.29331
 C2987 C -0.07581 1.03304 0.29976
 C2988 C -0.06490 1.03210 0.31423
 C2989 C -0.05244 1.01461 0.33925
 C2990 C -0.03812 1.02658 0.34295
 C2991 C -0.03069 1.02735 0.35936
 C2992 C -0.03745 1.01618 0.37240
 C2993 C -0.05110 1.00358 0.36844
 C2994 C -0.05855 1.00288 0.35216
 C2995 C -0.03141 1.01836 0.39036
 C2996 C -0.04415 1.01797 0.40343
 C2997 C -0.03894 1.01897 0.42041
 C2998 C -0.02078 1.02050 0.42493
 C2999 C -0.00796 1.02170 0.41189
 C3000 C -0.01325 1.02063 0.39472
 H3001 H -0.06730 0.98581 0.32131
 H3002 H -0.08691 0.98758 0.29660
 H3003 H -0.07794 1.04634 0.29384
 H3004 H -0.05942 1.04479 0.31930
 H3005 H -0.03287 1.03561 0.33326
 H3006 H -0.02018 1.03719 0.36201
 H3007 H -0.05637 0.99451 0.37810
 H3008 H -0.06966 0.99364 0.34995
 H3009 H -0.05829 1.01683 0.40054
 H3010 H -0.04926 1.01839 0.43004
 H3011 H 0.00612 1.02295 0.41497
 H3012 H -0.00312 1.02104 0.38490
 C3013 C 0.06884 0.48147 0.32677
 C3014 C 0.08707 0.47662 0.32750
 C3015 C 0.09751 0.47646 0.31281
 C3016 C 0.09004 0.48111 0.29696
 C3017 C 0.07182 0.48606 0.29618
 C3018 C 0.06129 0.48614 0.31094
 C3019 C 0.05807 0.48208 0.34266
 C3020 C 0.04059 0.47495 0.34325
 C3021 C 0.03086 0.47520 0.35852
 C3022 C 0.03836 0.48279 0.37339
 C3023 C 0.05582 0.48989 0.37270
 C3024 C 0.06551 0.48957 0.35757
 C3025 C 0.02832 0.48362 0.38970
 C3026 C 0.02953 0.49950 0.39992
 C3027 C 0.02250 0.49973 0.41630
 C3028 C 0.01387 0.48416 0.42289
 C3029 C 0.01143 0.46866 0.41234
 C3030 C 0.01868 0.46837 0.39583
 H3031 H 0.09325 0.47278 0.33945
 H3032 H 0.11154 0.47276 0.31387
 H3033 H 0.06567 0.48957 0.28412
 H3034 H 0.04732 0.49009 0.31002
 H3035 H 0.03457 0.46894 0.33198
 H3036 H 0.01742 0.46968 0.35866
 H3037 H 0.06211 0.49558 0.38398
 H3038 H 0.07885 0.49533 0.35752
 H3039 H 0.03642 0.51164 0.39541
 H3040 H 0.02427 0.51200 0.42404
 H3041 H 0.00483 0.45649 0.41715
 H3042 H 0.01753 0.45594 0.38821
 C3043 C 0.56526 -0.01781 -0.17115
 C3044 C 0.55825 -0.01326 -0.18722
 C3045 C 0.56912 -0.01403 -0.20173
 C3046 C 0.58717 -0.01954 -0.20047
 C3047 C 0.59407 -0.02424 -0.18440
 C3048 C 0.58327 -0.02339 -0.16995
 C3049 C 0.55413 -0.01624 -0.15552
 C3050 C 0.56149 -0.00858 -0.14064
 C3051 C 0.55138 -0.00721 -0.12580
 C3052 C 0.53358 -0.01341 -0.12538
 C3053 C 0.52616 -0.02115 -0.14022
 C3054 C 0.53631 -0.02244 -0.15520
 C3055 C 0.52319 -0.01178 -0.10931
 C3056 C 0.51280 -0.02649 -0.10318
 C3057 C 0.50548 -0.02576 -0.08672
 C3058 C 0.50855 -0.01035 -0.07622
 C3059 C 0.51782 0.00480 -0.08284
 C3060 C 0.52494 0.00414 -0.09919
 H3061 H 0.54446 -0.00878 -0.18852
 H3062 H 0.56338 -0.01051 -0.21396
 H3063 H 0.60795 -0.02838 -0.18297
 H3064 H 0.58902 -0.02718 -0.15778
 H3065 H 0.57509 -0.00350 -0.14051
 H3066 H 0.55762 -0.00146 -0.11452
 H3067 H 0.51248 -0.02601 -0.14028
 H3068 H 0.53033 -0.02853 -0.16645
 H3069 H 0.51124 -0.03895 -0.11069
 H3070 H 0.49848 -0.03765 -0.08184
 H3071 H 0.52019 0.01693 -0.07505
 H3072 H 0.53244 0.01589 -0.10370
 C3073 C 0.67047 0.61257 -0.00143
 C3074 C 0.66964 0.62660 0.01092
 C3075 C 0.68497 0.63639 0.01565
 C3076 C 0.70182 0.63243 0.00823
 C3077 C 0.70236 0.61848 -0.00448
 C3078 C 0.68696 0.60880 -0.00923
 C3079 C 0.65441 0.60128 -0.00550
 C3080 C 0.65026 0.59615 -0.02236
 C3081 C 0.63541 0.58496 -0.02590
 C3082 C 0.62462 0.57847 -0.01262
 C3083 C 0.62867 0.58382 0.00417
 C3084 C 0.64333 0.59509 0.00768
 C3085 C 0.60929 0.56591 -0.01588
 C3086 C 0.60669 0.55069 -0.00521
 C3087 C 0.59111 0.54028 -0.00634
 C3088 C 0.57766 0.54477 -0.01819
 C3089 C 0.58078 0.55912 -0.02978
 C3090 C 0.59651 0.56963 -0.02864
 H3091 H 0.65702 0.63011 0.01691
 H3092 H 0.68324 0.64744 0.02479
 H3093 H 0.71480 0.61413 -0.01028
 H3094 H 0.68811 0.59782 -0.01858
 H3095 H 0.65848 0.60083 -0.03280
 H3096 H 0.63260 0.58106 -0.03895
 H3097 H 0.62046 0.57926 0.01466
 H3098 H 0.64623 0.59863 0.02080
 H3099 H 0.61649 0.54721 0.00446
 H3100 H 0.58921 0.52916 0.00264
 H3101 H 0.57059 0.56298 -0.03896
 H3102 H 0.59820 0.58127 -0.03706
 C3103 C 0.16165 1.11432 0.49461
 C3104 C 0.17909 1.10819 0.49083
 C3105 C 0.19398 1.11856 0.49573
 C3106 C 0.19186 1.13541 0.50451
 C3107 C 0.17441 1.14172 0.50804
 C3108 C 0.15949 1.13131 0.50315
 C3109 C 0.14586 1.10265 0.49037
 C3110 C 0.12964 1.11062 0.48484
 C3111 C 0.11450 1.09968 0.48203
 C3112 C 0.11521 1.08051 0.48476
 C3113 C 0.13159 1.07248 0.48968
 C3114 C 0.14669 1.08339 0.49247
 C3115 C 0.09864 1.06919 0.48400
 C3116 C 0.09537 1.05616 0.49679
 C3117 C 0.07919 1.04669 0.49733
 C3118 C 0.06582 1.04987 0.48505
 C3119 C 0.06932 1.06226 0.47177
 C3120 C 0.08555 1.07194 0.47132
 H3121 H 0.18126 1.09529 0.48411
 H3122 H 0.20720 1.11316 0.49296
 H3123 H 0.17226 1.15473 0.51459
 H3124 H 0.14627 1.13637 0.50644
 H3125 H 0.12860 1.12537 0.48286
 H3126 H 0.10206 1.10631 0.47838
 H3127 H 0.13264 1.05774 0.49172
 H3128 H 0.15887 1.07678 0.49686
 H3129 H 0.10502 1.05386 0.50687
 H3130 H 0.07694 1.03721 0.50771
 H3131 H 0.05921 1.06508 0.46220
 H3132 H 0.08775 1.08178 0.46122
 C3133 C 0.16075 -0.11387 1.00125
 C3134 C 0.16999 -0.12351 1.01409
 C3135 C 0.18553 -0.13365 1.01027
 C3136 C 0.19212 -0.13443 0.99352
 C3137 C 0.18296 -0.12470 0.98074
 C3138 C 0.16754 -0.11451 0.98456
 C3139 C 0.14413 -0.10310 1.00503
 C3140 C 0.13011 -0.10261 0.99307
 C3141 C 0.11519 -0.09130 0.99567
 C3142 C 0.11374 -0.08030 1.01037
 C3143 C 0.12722 -0.08142 1.02281
 C3144 C 0.14234 -0.09267 1.02013
 C3145 C 0.09871 -0.06691 1.01183
 C3146 C 0.08755 -0.06619 1.02622
 C3147 C 0.07211 -0.05495 1.02624
 C3148 C 0.06777 -0.04422 1.01191
 C3149 C 0.07970 -0.04415 0.99807
 C3150 C 0.09488 -0.05537 0.99802
 H3151 H 0.16506 -0.12345 1.02703
 H3152 H 0.19225 -0.14111 1.02036
 H3153 H 0.18792 -0.12468 0.96781
 H3154 H 0.16108 -0.10689 0.97442
 H3155 H 0.13075 -0.11085 0.98155
 H3156 H 0.10481 -0.09093 0.98603
 H3157 H 0.12641 -0.07302 1.03423
 H3158 H 0.15292 -0.09266 1.02957
 H3159 H 0.09029 -0.07496 1.03705
 H3160 H 0.06320 -0.05532 1.03708
 H3161 H 0.07700 -0.03585 0.98692
 H3162 H 0.10346 -0.05538 0.98692
 C3163 C 0.66417 0.39112 0.50101
 C3164 C 0.68073 0.39442 0.50885
 C3165 C 0.69588 0.38400 0.50444
 C3166 C 0.69501 0.36978 0.49201
 C3167 C 0.67810 0.36632 0.48454
 C3168 C 0.66302 0.37683 0.48894
 C3169 C 0.64836 0.40308 0.50477
 C3170 C 0.63729 0.40918 0.49144
 C3171 C 0.62275 0.42086 0.49468
 C3172 C 0.61880 0.42676 0.51134
 C3173 C 0.62966 0.42045 0.52477
 C3174 C 0.64437 0.40882 0.52150
 C3175 C 0.60335 0.43943 0.51436
 C3176 C 0.59099 0.43629 0.52753
 C3177 C 0.57503 0.44664 0.52848
 C3178 C 0.57125 0.46024 0.51627
 C3179 C 0.58428 0.46427 0.50398
 C3180 C 0.60012 0.45405 0.50307
 H3181 H 0.68213 0.40556 0.51799
 H3182 H 0.70840 0.38797 0.51027
 H3183 H 0.67613 0.35514 0.47559
 H3184 H 0.65033 0.37365 0.48293
 H3185 H 0.64007 0.40519 0.47841
 H3186 H 0.61448 0.42523 0.48408
 H3187 H 0.62695 0.42475 0.53773
 H3188 H 0.65258 0.40423 0.53206
 H3189 H 0.59314 0.42512 0.53642
 H3190 H 0.56517 0.44314 0.53799
 H3191 H 0.58183 0.47481 0.49451
 H3192 H 0.60959 0.45713 0.49307
 C3193 C -0.16239 0.38096 0.49648
 C3194 C -0.17235 0.37144 0.48405
 C3195 C -0.18826 0.36247 0.48840
 C3196 C -0.19453 0.36278 0.50528
 C3197 C -0.18459 0.37230 0.51766
 C3198 C -0.16878 0.38132 0.51331
 C3199 C -0.14553 0.39075 0.49208
 C3200 C -0.13120 0.39101 0.50370
 C3201 C -0.11613 0.40176 0.50064
 C3202 C -0.11487 0.41235 0.48579
 C3203 C -0.12861 0.41132 0.47362
 C3204 C -0.14387 0.40066 0.47677
 C3205 C -0.10001 0.42566 0.48414
 C3206 C -0.08819 0.42531 0.47023
 C3207 C -0.07300 0.43671 0.47018
 C3208 C -0.06960 0.44868 0.48397
 C3209 C -0.08218 0.44970 0.49726
 C3210 C -0.09709 0.43830 0.49737
 H3211 H -0.16774 0.37073 0.47102
 H3212 H -0.19556 0.35510 0.47860
 H3213 H -0.18924 0.37313 0.53068
 H3214 H -0.16174 0.38889 0.52314
 H3215 H -0.13176 0.38316 0.51538
 H3216 H -0.10558 0.40219 0.51012
 H3217 H -0.12792 0.41946 0.46212
 H3218 H -0.15468 0.40083 0.46757
 H3219 H -0.09027 0.41566 0.45985
 H3220 H -0.06357 0.43559 0.45977
 H3221 H -0.08023 0.45893 0.50798
 H3222 H -0.10619 0.43903 0.50807
 C3223 C 0.33246 -0.11004 0.00096
 C3224 C 0.32472 -0.12189 -0.01122
 C3225 C 0.30949 -0.13223 -0.00724
 C3226 C 0.30172 -0.13102 0.00903
 C3227 C 0.30933 -0.11905 0.02110
 C3228 C 0.32443 -0.10866 0.01711
 C3229 C 0.34889 -0.09922 -0.00292
 C3230 C 0.36189 -0.09643 0.00979
 C3231 C 0.37673 -0.08533 0.00678
 C3232 C 0.37914 -0.07681 -0.00907
 C3233 C 0.36663 -0.08017 -0.02208
 C3234 C 0.35159 -0.09121 -0.01901
 C3235 C 0.39439 -0.06400 -0.01143
 C3236 C 0.40599 -0.06547 -0.02547
 C3237 C 0.42169 -0.05485 -0.02613
 C3238 C 0.42591 -0.04260 -0.01278
 C3239 C 0.41357 -0.04030 0.00057
 C3240 C 0.39808 -0.05086 0.00124
 H3241 H 0.33063 -0.12344 -0.02371
 H3242 H 0.30395 -0.14141 -0.01678
 H3243 H 0.30342 -0.11749 0.03360
 H3244 H 0.32969 -0.09933 0.02667
 H3245 H 0.36059 -0.10280 0.02215
 H3246 H 0.38637 -0.08332 0.01693
 H3247 H 0.36818 -0.07375 -0.03441
 H3248 H 0.34182 -0.09298 -0.02907
 H3249 H 0.40341 -0.07549 -0.03544
 H3250 H 0.43095 -0.05698 -0.03655
 H3251 H 0.41624 -0.03079 0.01094
 H3252 H 0.38917 -0.04913 0.01200
 C3253 C 0.33337 1.11845 0.50163
 C3254 C 0.32494 1.13000 0.51368
 C3255 C 0.30942 1.13996 0.50939
 C3256 C 0.30206 1.13869 0.49294
 C3257 C 0.31042 1.12709 0.48096
 C3258 C 0.32579 1.11706 0.48526
 C3259 C 0.34992 1.10775 0.50593
 C3260 C 0.36322 1.10495 0.49353
 C3261 C 0.37801 1.09366 0.49682
 C3262 C 0.38008 1.08503 0.51266
 C3263 C 0.36736 1.08848 0.52543
 C3264 C 0.35235 1.09967 0.52207
 C3265 C 0.39498 1.07167 0.51514
 C3266 C 0.40717 1.07327 0.52874
 C3267 C 0.42250 1.06190 0.52941
 C3268 C 0.42571 1.04869 0.51654
 C3269 C 0.41277 1.04639 0.50367
 C3270 C 0.39770 1.05776 0.50295
 H3271 H 0.33047 1.13155 0.52635
 H3272 H 0.30330 1.14885 0.51888
 H3273 H 0.30484 1.12547 0.46831
 H3274 H 0.33156 1.10794 0.47577
 H3275 H 0.36213 1.11136 0.48115
 H3276 H 0.38780 1.09146 0.48685
 H3277 H 0.36867 1.08194 0.53774
 H3278 H 0.34235 1.10143 0.53190
 H3279 H 0.40531 1.08390 0.53832
 H3280 H 0.43221 1.06405 0.53946
 H3281 H 0.41462 1.03621 0.49367
 H3282 H 0.38833 1.05602 0.49252
 C3283 C -0.15443 0.62182 0.99693
 C3284 C -0.16313 0.63188 1.00988
 C3285 C -0.17972 0.64046 1.00682
 C3286 C -0.18798 0.63916 0.99073
 C3287 C -0.17936 0.62890 0.97790
 C3288 C -0.16285 0.62035 0.98095
 C3289 C -0.13666 0.61281 0.99984
 C3290 C -0.12376 0.61273 0.98685
 C3291 C -0.10768 0.60305 0.98877
 C3292 C -0.10395 0.59322 1.00375
 C3293 C -0.11640 0.59398 1.01713
 C3294 C -0.13263 0.60366 1.01518
 C3295 C -0.08759 0.58143 1.00469
 C3296 C -0.07613 0.58158 1.01895
 C3297 C -0.05997 0.57146 1.01877
 C3298 C -0.05511 0.56096 1.00436
 C3299 C -0.06713 0.56018 0.99054
 C3300 C -0.08306 0.57026 0.99071
 H3301 H -0.15697 0.63340 1.02229
 H3302 H -0.18597 0.64833 1.01695
 H3303 H -0.18553 0.62717 0.96551
 H3304 H -0.15679 0.61233 0.97081
 H3305 H -0.12617 0.62003 0.97507
 H3306 H -0.09818 0.60305 0.97837
 H3307 H -0.11389 0.58651 1.02880
 H3308 H -0.14229 0.60340 1.02542
 H3309 H -0.07934 0.59005 1.02993
 H3310 H -0.05104 0.57236 1.02961
 H3311 H -0.06407 0.55204 0.97931
 H3312 H -0.09180 0.56948 0.97972
 C3313 C 0.00863 0.66879 0.56872
 C3314 C 0.00054 0.68436 0.56129
 C3315 C 0.00292 0.70185 0.56851
 C3316 C 0.01338 0.70394 0.58325
 C3317 C 0.02116 0.68828 0.59079
 C3318 C 0.01886 0.67091 0.58356
 C3319 C 0.00646 0.65027 0.56119
 C3320 C 0.02130 0.63839 0.55978
 C3321 C 0.01923 0.62054 0.55347
 C3322 C 0.00228 0.61422 0.54849
 C3323 C -0.01254 0.62619 0.54970
 C3324 C -0.01046 0.64411 0.55597
 C3325 C 0.00019 0.59528 0.54179
 C3326 C -0.01073 0.59200 0.52758
 C3327 C -0.01207 0.57429 0.52073
 C3328 C -0.00248 0.55950 0.52795
 C3329 C 0.00817 0.56272 0.54240
 C3330 C 0.00948 0.58046 0.54927
 H3331 H -0.00736 0.68302 0.54978
 H3332 H -0.00319 0.71373 0.56247
 H3333 H 0.02886 0.68941 0.60244
 H3334 H 0.02489 0.65905 0.58972
 H3335 H 0.03453 0.64296 0.56349
 H3336 H 0.03094 0.61173 0.55231
 H3337 H -0.02579 0.62159 0.54609
 H3338 H -0.02211 0.65298 0.55714
 H3339 H -0.01787 0.60321 0.52145
 H3340 H -0.02039 0.57232 0.50958
 H3341 H 0.01567 0.55162 0.54830
 H3342 H 0.01779 0.58259 0.56041
 C3343 C 0.52892 0.16305 0.07954
 C3344 C 0.52632 0.17918 0.07001
 C3345 C 0.52637 0.19640 0.07799
 C3346 C 0.52887 0.19775 0.09567
 C3347 C 0.53250 0.18166 0.10503
 C3348 C 0.53259 0.16444 0.09701
 C3349 C 0.52596 0.14486 0.07162
 C3350 C 0.53799 0.13018 0.07422
 C3351 C 0.53464 0.11289 0.06695
 C3352 C 0.51912 0.11001 0.05716
 C3353 C 0.50699 0.12470 0.05489
 C3354 C 0.51044 0.14195 0.06194
 C3355 C 0.51553 0.09191 0.04908
 C3356 C 0.50789 0.09121 0.03275
 C3357 C 0.50385 0.07436 0.02519
 C3358 C 0.50758 0.05775 0.03365
 C3359 C 0.51552 0.05834 0.04987
 C3360 C 0.51938 0.07530 0.05756
 H3361 H 0.52371 0.17839 0.05646
 H3362 H 0.52392 0.20861 0.07042
 H3363 H 0.53428 0.18226 0.11870
 H3364 H 0.53449 0.15214 0.10460
 H3365 H 0.55003 0.13217 0.08169
 H3366 H 0.54432 0.10188 0.06878
 H3367 H 0.49469 0.12281 0.04779
 H3368 H 0.50076 0.15297 0.06014
 H3369 H 0.50517 0.10373 0.02570
 H3370 H 0.49805 0.07436 0.01254
 H3371 H 0.51857 0.04573 0.05667
 H3372 H 0.52511 0.07543 0.07023
 C3373 C -0.02594 0.16931 0.92663
 C3374 C -0.03486 0.17330 0.91139
 C3375 C -0.03587 0.19142 0.90561
 C3376 C -0.02822 0.20589 0.91514
 C3377 C -0.02019 0.20192 0.93089
 C3378 C -0.01893 0.18374 0.93652
 C3379 C -0.02264 0.15004 0.93150
 C3380 C -0.00512 0.14419 0.93499
 C3381 C -0.00173 0.12601 0.93968
 C3382 C -0.01586 0.11343 0.94126
 C3383 C -0.03338 0.11919 0.93730
 C3384 C -0.03673 0.13737 0.93233
 C3385 C -0.01239 0.09483 0.94823
 C3386 C -0.02157 0.07926 0.94210
 C3387 C -0.01877 0.06198 0.94955
 C3388 C -0.00672 0.06004 0.96320
 C3389 C 0.00270 0.07560 0.96899
 C3390 C -0.00018 0.09276 0.96167
 H3391 H -0.04019 0.16229 0.90354
 H3392 H -0.04182 0.19391 0.89326
 H3393 H -0.01446 0.21279 0.93864
 H3394 H -0.01215 0.18086 0.94843
 H3395 H 0.00597 0.15369 0.93400
 H3396 H 0.01196 0.12186 0.94224
 H3397 H -0.04455 0.10985 0.93858
 H3398 H -0.05033 0.14169 0.92958
 H3399 H -0.03095 0.08045 0.93163
 H3400 H -0.02622 0.05025 0.94480
 H3401 H 0.01204 0.07468 0.97952
 H3402 H 0.00682 0.10453 0.96693
 C3403 C 0.47306 0.65340 0.41103
 C3404 C 0.49019 0.65973 0.40680
 C3405 C 0.49253 0.67768 0.40101
 C3406 C 0.47775 0.68953 0.39919
 C3407 C 0.46055 0.68314 0.40310
 C3408 C 0.45824 0.66522 0.40915
 C3409 C 0.47105 0.63489 0.41841
 C3410 C 0.46194 0.63272 0.43385
 C3411 C 0.46252 0.61584 0.44230
 C3412 C 0.47204 0.60087 0.43530
 C3413 C 0.48017 0.60271 0.41932
 C3414 C 0.47976 0.61965 0.41098
 C3415 C 0.47512 0.58405 0.44537
 C3416 C 0.47311 0.56650 0.43803
 C3417 C 0.47728 0.55070 0.44738
 C3418 C 0.48382 0.55228 0.46412
 C3419 C 0.48569 0.56988 0.47145
 C3420 C 0.48129 0.58561 0.46219
 H3421 H 0.50184 0.65092 0.40839
 H3422 H 0.50588 0.68232 0.39789
 H3423 H 0.44900 0.69213 0.40178
 H3424 H 0.44492 0.66057 0.41238
 H3425 H 0.45523 0.64434 0.43983
 H3426 H 0.45607 0.61463 0.45457
 H3427 H 0.48767 0.59136 0.41376
 H3428 H 0.48677 0.62104 0.39901
 H3429 H 0.46838 0.56503 0.42505
 H3430 H 0.47570 0.53729 0.44143
 H3431 H 0.49055 0.57151 0.48436
 H3432 H 0.48319 0.59904 0.46802
 C3433 C 0.51019 0.82652 0.44306
 C3434 C 0.49850 0.81995 0.43043
 C3435 C 0.50130 0.80266 0.42303
 C3436 C 0.51584 0.79162 0.42813
 C3437 C 0.52706 0.79781 0.44131
 C3438 C 0.52426 0.81513 0.44871
 C3439 C 0.50830 0.84561 0.44950
 C3440 C 0.52346 0.85681 0.45147
 C3441 C 0.52162 0.87515 0.45669
 C3442 C 0.50460 0.88260 0.46005
 C3443 C 0.48945 0.87137 0.45814
 C3444 C 0.49129 0.85304 0.45293
 C3445 C 0.50262 0.90189 0.46594
 C3446 C 0.49074 0.90612 0.47919
 C3447 C 0.48896 0.92417 0.48505
 C3448 C 0.49904 0.93845 0.47781
 C3449 C 0.51085 0.93427 0.46442
 C3450 C 0.51264 0.91611 0.45855
 H3451 H 0.48769 0.82853 0.42568
 H3452 H 0.49264 0.79838 0.41269
 H3453 H 0.53825 0.78945 0.44557
 H3454 H 0.53327 0.81977 0.45864
 H3455 H 0.53671 0.85149 0.44866
 H3456 H 0.53352 0.88346 0.45826
 H3457 H 0.47615 0.87682 0.46051
 H3458 H 0.47940 0.84467 0.45159
 H3459 H 0.48305 0.89538 0.48527
 H3460 H 0.47975 0.92687 0.49540
 H3461 H 0.51882 0.94495 0.45860
 H3462 H 0.52177 0.91320 0.44819
 C3463 C 0.02406 0.34816 0.91319
 C3464 C 0.03763 0.33681 0.91991
 C3465 C 0.03786 0.31793 0.91638
 C3466 C 0.02446 0.31008 0.90618
 C3467 C 0.01117 0.32147 0.89908
 C3468 C 0.01099 0.34036 0.90253
 C3469 C 0.02281 0.36776 0.91835
 C3470 C 0.00613 0.37546 0.92267
 C3471 C 0.00504 0.39328 0.92933
 C3472 C 0.02060 0.40370 0.93187
 C3473 C 0.03721 0.39633 0.92686
 C3474 C 0.03831 0.37849 0.92015
 C3475 C 0.01959 0.42165 0.94077
 C3476 C 0.02972 0.43673 0.93527
 C3477 C 0.02894 0.45351 0.94405
 C3478 C 0.01804 0.45546 0.95853
 C3479 C 0.00795 0.44031 0.96401
 C3480 C 0.00874 0.42360 0.95523
 H3481 H 0.04770 0.34239 0.92839
 H3482 H 0.04818 0.30937 0.92206
 H3483 H 0.00090 0.31574 0.89090
 H3484 H 0.00054 0.34885 0.89698
 H3485 H -0.00602 0.36746 0.92158
 H3486 H -0.00796 0.39876 0.93287
 H3487 H 0.04942 0.40407 0.92876
 H3488 H 0.05130 0.37295 0.91671
 H3489 H 0.03812 0.43558 0.92409
 H3490 H 0.03685 0.46493 0.93948
 H3491 H -0.00053 0.44129 0.97513
 H3492 H 0.00105 0.41207 0.95994
 C3493 C 0.48688 0.33651 0.07123
 C3494 C 0.49932 0.32949 0.08298
 C3495 C 0.49740 0.31175 0.08943
 C3496 C 0.48297 0.30070 0.08429
 C3497 C 0.47060 0.30762 0.07243
 C3498 C 0.47256 0.32538 0.06591
 C3499 C 0.48891 0.35540 0.06454
 C3500 C 0.47393 0.36701 0.06251
 C3501 C 0.47592 0.38476 0.05597
 C3502 C 0.49292 0.39115 0.05134
 C3503 C 0.50791 0.37965 0.05367
 C3504 C 0.50593 0.36194 0.06017
 C3505 C 0.49502 0.40941 0.04335
 C3506 C 0.50632 0.41124 0.02926
 C3507 C 0.50842 0.42829 0.02150
 C3508 C 0.49923 0.44394 0.02764
 C3509 C 0.48786 0.44213 0.04175
 C3510 C 0.48575 0.42497 0.04953
 H3511 H 0.51032 0.33787 0.08750
 H3512 H 0.50689 0.30688 0.09886
 H3513 H 0.45942 0.29929 0.06822
 H3514 H 0.46294 0.33037 0.05666
 H3515 H 0.46069 0.36238 0.06601
 H3516 H 0.46414 0.39332 0.05417
 H3517 H 0.52120 0.38434 0.05039
 H3518 H 0.51768 0.35325 0.06148
 H3519 H 0.51337 0.39940 0.02404
 H3520 H 0.51724 0.42912 0.01062
 H3521 H 0.48057 0.45392 0.04676
 H3522 H 0.47703 0.42390 0.06047
 C3523 C -0.02084 0.85003 0.58976
 C3524 C -0.00651 0.84152 0.59836
 C3525 C -0.00773 0.82320 0.60348
 C3526 C -0.02336 0.81313 0.60025
 C3527 C -0.03791 0.82173 0.59217
 C3528 C -0.03663 0.84002 0.58689
 C3529 C -0.01886 0.86880 0.58277
 C3530 C -0.03331 0.88132 0.58282
 C3531 C -0.03182 0.89835 0.57473
 C3532 C -0.01586 0.90311 0.56648
 C3533 C -0.00120 0.89092 0.56708
 C3534 C -0.00271 0.87391 0.57507
 C3535 C -0.01470 0.92023 0.55645
 C3536 C -0.00634 0.91985 0.54048
 C3537 C -0.00499 0.93587 0.53091
 C3538 C -0.01207 0.95262 0.53704
 C3539 C -0.02070 0.95297 0.55293
 C3540 C -0.02200 0.93688 0.56256
 H3541 H 0.00570 0.84900 0.60102
 H3542 H 0.00352 0.81686 0.60998
 H3543 H -0.05005 0.81413 0.58952
 H3544 H -0.04778 0.84612 0.58006
 H3545 H -0.04583 0.87782 0.58887
 H3546 H -0.04334 0.90749 0.57439
 H3547 H 0.01136 0.89440 0.56106
 H3548 H 0.00860 0.86449 0.57465
 H3549 H -0.00096 0.90710 0.53530
 H3550 H 0.00159 0.93506 0.51866
 H3551 H -0.02625 0.96568 0.55801
 H3552 H -0.02844 0.93753 0.57488
 C3553 C 0.27663 0.32211 0.07581
 C3554 C 0.26791 0.31683 0.06072
 C3555 C 0.26864 0.32800 0.04619
 C3556 C 0.27832 0.34475 0.04624
 C3557 C 0.28729 0.34964 0.06148
 C3558 C 0.28646 0.33853 0.07591
 C3559 C 0.27480 0.31120 0.09174
 C3560 C 0.27189 0.32040 0.10728
 C3561 C 0.26993 0.31052 0.12233
 C3562 C 0.27078 0.29113 0.12234
 C3563 C 0.27398 0.28183 0.10689
 C3564 C 0.27584 0.29178 0.09168
 C3565 C 0.26766 0.28102 0.13850
 C3566 C 0.27891 0.26648 0.14388
 C3567 C 0.27683 0.25871 0.16015
 C3568 C 0.26350 0.26541 0.17122
 C3569 C 0.25169 0.27918 0.16532
 C3570 C 0.25373 0.28682 0.14923
 H3571 H 0.26017 0.30425 0.06025
 H3572 H 0.26195 0.32307 0.03485
 H3573 H 0.29432 0.36257 0.06280
 H3574 H 0.29342 0.34297 0.08731
 H3575 H 0.27081 0.33530 0.10777
 H3576 H 0.26769 0.31810 0.13406
 H3577 H 0.27464 0.26690 0.10652
 H3578 H 0.27820 0.28432 0.07992
 H3579 H 0.28974 0.26171 0.13583
 H3580 H 0.28608 0.24808 0.16430
 H3581 H 0.24102 0.28442 0.17333
 H3582 H 0.24456 0.29764 0.14530
 C3583 C 0.76708 0.82519 0.58008
 C3584 C 0.76254 0.81822 0.56390
 C3585 C 0.76272 0.82974 0.54959
 C3586 C 0.76760 0.84840 0.55117
 C3587 C 0.77220 0.85527 0.56735
 C3588 C 0.77197 0.84383 0.58158
 C3589 C 0.76619 0.81341 0.59554
 C3590 C 0.75896 0.82067 0.61064
 C3591 C 0.75816 0.80999 0.62532
 C3592 C 0.76450 0.79167 0.62536
 C3593 C 0.77191 0.78436 0.61032
 C3594 C 0.77264 0.79510 0.59550
 C3595 C 0.76292 0.78051 0.64113
 C3596 C 0.77722 0.76963 0.64732
 C3597 C 0.77616 0.76131 0.66344
 C3598 C 0.76084 0.76388 0.67354
 C3599 C 0.74623 0.77374 0.66681
 C3600 C 0.74722 0.78184 0.65083
 H3601 H 0.75858 0.80396 0.56236
 H3602 H 0.75926 0.82401 0.53727
 H3603 H 0.77586 0.86961 0.56904
 H3604 H 0.77572 0.84959 0.59381
 H3605 H 0.75370 0.83463 0.61108
 H3606 H 0.75261 0.81614 0.63675
 H3607 H 0.77686 0.77028 0.60997
 H3608 H 0.77844 0.78918 0.58408
 H3609 H 0.78948 0.76834 0.64009
 H3610 H 0.78761 0.75378 0.66836
 H3611 H 0.73411 0.77565 0.67418
 H3612 H 0.73580 0.78967 0.64624
 C3613 C 0.23266 0.67827 0.57653
 C3614 C 0.21619 0.67643 0.56800
 C3615 C 0.21490 0.66593 0.55306
 C3616 C 0.23000 0.65677 0.54633
 C3617 C 0.24660 0.65917 0.55449
 C3618 C 0.24793 0.66986 0.56932
 C3619 C 0.23365 0.68776 0.59343
 C3620 C 0.24498 0.68082 0.60623
 C3621 C 0.24494 0.68856 0.62253
 C3622 C 0.23339 0.70332 0.62664
 C3623 C 0.22251 0.71076 0.61374
 C3624 C 0.22265 0.70308 0.59731
 C3625 C 0.23222 0.71008 0.64457
 C3626 C 0.23029 0.72897 0.64858
 C3627 C 0.22999 0.73495 0.66563
 C3628 C 0.23169 0.72214 0.67894
 C3629 C 0.23301 0.70326 0.67483
 C3630 C 0.23319 0.69734 0.65795
 H3631 H 0.20411 0.68254 0.57317
 H3632 H 0.20197 0.66476 0.54693
 H3633 H 0.25850 0.65229 0.54977
 H3634 H 0.26092 0.67125 0.57531
 H3635 H 0.25348 0.66894 0.60388
 H3636 H 0.25380 0.68272 0.63204
 H3637 H 0.21345 0.72212 0.61647
 H3638 H 0.21396 0.70901 0.58772
 H3639 H 0.22950 0.73915 0.63856
 H3640 H 0.22890 0.74958 0.66839
 H3641 H 0.23399 0.69293 0.68471
 H3642 H 0.23408 0.68266 0.65540
 C3643 C 0.72632 0.18088 0.07555
 C3644 C 0.71005 0.17563 0.06811
 C3645 C 0.70975 0.16475 0.05338
 C3646 C 0.72577 0.15860 0.04555
 C3647 C 0.74209 0.16472 0.05270
 C3648 C 0.74233 0.17560 0.06748
 C3649 C 0.72654 0.19067 0.09226
 C3650 C 0.73897 0.18548 0.10483
 C3651 C 0.73827 0.19333 0.12108
 C3652 C 0.72512 0.20656 0.12524
 C3653 C 0.71309 0.21230 0.11254
 C3654 C 0.71375 0.20439 0.09622
 C3655 C 0.72376 0.21364 0.14300
 C3656 C 0.72097 0.23250 0.14656
 C3657 C 0.72135 0.23905 0.16343
 C3658 C 0.72454 0.22681 0.17696
 C3659 C 0.72631 0.20785 0.17335
 C3660 C 0.72590 0.20137 0.15663
 H3661 H 0.69745 0.17945 0.07396
 H3662 H 0.69676 0.16150 0.04810
 H3663 H 0.75486 0.16033 0.04760
 H3664 H 0.75513 0.17961 0.07278
 H3665 H 0.74887 0.17485 0.10232
 H3666 H 0.74795 0.18885 0.13050
 H3667 H 0.70282 0.22246 0.11536
 H3668 H 0.70412 0.20886 0.08676
 H3669 H 0.71924 0.24227 0.13630
 H3670 H 0.71997 0.25372 0.16579
 H3671 H 0.72849 0.19797 0.18345
 H3672 H 0.72757 0.18671 0.15435
 C3673 C 0.76404 0.18277 0.92306
 C3674 C 0.74846 0.17427 0.92923
 C3675 C 0.74904 0.16333 0.94386
 C3676 C 0.76519 0.16070 0.95275
 C3677 C 0.78055 0.16997 0.94708
 C3678 C 0.78000 0.18080 0.93240
 C3679 C 0.76402 0.19236 0.90630
 C3680 C 0.77475 0.20797 0.90342
 C3681 C 0.77596 0.21572 0.88714
 C3682 C 0.76650 0.20798 0.87339
 C3683 C 0.75523 0.19289 0.87646
 C3684 C 0.75406 0.18515 0.89264
 C3685 C 0.76884 0.21484 0.85570
 C3686 C 0.76994 0.20209 0.84223
 C3687 C 0.77064 0.20806 0.82543
 C3688 C 0.77039 0.22698 0.82155
 C3689 C 0.77031 0.23986 0.83500
 C3690 C 0.76951 0.23383 0.85197
 H3691 H 0.73585 0.17575 0.92254
 H3692 H 0.73696 0.15638 0.94783
 H3693 H 0.79314 0.16858 0.95382
 H3694 H 0.79229 0.18700 0.92801
 H3695 H 0.78242 0.21405 0.91370
 H3696 H 0.78474 0.22735 0.88519
 H3697 H 0.74748 0.18682 0.86622
 H3698 H 0.74583 0.17304 0.89426
 H3699 H 0.77004 0.18739 0.84466
 H3700 H 0.77104 0.19775 0.81541
 H3701 H 0.77010 0.25453 0.83240
 H3702 H 0.76874 0.24398 0.86210
 C3703 C 0.27168 0.67615 0.42260
 C3704 C 0.25531 0.66851 0.42783
 C3705 C 0.25429 0.65803 0.44273
 C3706 C 0.26963 0.65494 0.45272
 C3707 C 0.28576 0.66338 0.44795
 C3708 C 0.28679 0.67381 0.43307
 C3709 C 0.27338 0.68529 0.40572
 C3710 C 0.28467 0.70058 0.40346
 C3711 C 0.28728 0.70810 0.38725
 C3712 C 0.27873 0.70044 0.37294
 C3713 C 0.26707 0.68549 0.37532
 C3714 C 0.26447 0.67800 0.39145
 C3715 C 0.28193 0.70767 0.35551
 C3716 C 0.28322 0.69535 0.34169
 C3717 C 0.28413 0.70188 0.32506
 C3718 C 0.28392 0.72093 0.32175
 C3719 C 0.28386 0.73333 0.33557
 C3720 C 0.28284 0.72675 0.35232
 H3721 H 0.24334 0.67031 0.42021
 H3722 H 0.24168 0.65171 0.44605
 H3723 H 0.29775 0.66156 0.45555
 H3724 H 0.29963 0.67936 0.42942
 H3725 H 0.29159 0.70667 0.41421
 H3726 H 0.29633 0.71961 0.38586
 H3727 H 0.25998 0.67948 0.36463
 H3728 H 0.25587 0.66610 0.39264
 H3729 H 0.28311 0.68058 0.34372
 H3730 H 0.28440 0.69196 0.31470
 H3731 H 0.28358 0.74809 0.33342
 H3732 H 0.28187 0.73660 0.36269
 C3733 C 0.73386 0.82489 0.42530
 C3734 C 0.72673 0.84287 0.42432
 C3735 C 0.72541 0.85399 0.43884
 C3736 C 0.73116 0.84747 0.45476
 C3737 C 0.73832 0.82950 0.45580
 C3738 C 0.73958 0.81829 0.44123
 C3739 C 0.73564 0.81340 0.40961
 C3740 C 0.73140 0.79448 0.40955
 C3741 C 0.73281 0.78397 0.39454
 C3742 C 0.73869 0.79212 0.37936
 C3743 C 0.74292 0.81102 0.37950
 C3744 C 0.74144 0.82148 0.39439
 C3745 C 0.74051 0.78129 0.36327
 C3746 C 0.75513 0.78450 0.35251
 C3747 C 0.75592 0.77646 0.33639
 C3748 C 0.74218 0.76484 0.33054
 C3749 C 0.72815 0.76051 0.34169
 C3750 C 0.72729 0.76872 0.35793
 H3751 H 0.72203 0.84832 0.41229
 H3752 H 0.72000 0.86782 0.43756
 H3753 H 0.74272 0.82402 0.46791
 H3754 H 0.74527 0.80457 0.44237
 H3755 H 0.72675 0.78789 0.42104
 H3756 H 0.72951 0.76944 0.39485
 H3757 H 0.74722 0.81782 0.36798
 H3758 H 0.74500 0.83595 0.39401
 H3759 H 0.76579 0.79367 0.35641
 H3760 H 0.76710 0.77982 0.32824
 H3761 H 0.71742 0.75159 0.33757
 H3762 H 0.71586 0.76595 0.36595
 C3763 C 0.23997 0.31810 0.92351
 C3764 C 0.23490 0.33670 0.92167
 C3765 C 0.23432 0.34854 0.93573
 C3766 C 0.23881 0.34213 0.95205
 C3767 C 0.24391 0.32353 0.95397
 C3768 C 0.24438 0.31160 0.93984
 C3769 C 0.24106 0.30586 0.90827
 C3770 C 0.23433 0.28775 0.90847
 C3771 C 0.23488 0.27669 0.89374
 C3772 C 0.24239 0.28346 0.87863
 C3773 C 0.24921 0.30152 0.87856
 C3774 C 0.24857 0.31253 0.89316
 C3775 C 0.24308 0.27216 0.86275
 C3776 C 0.25831 0.27291 0.85234
 C3777 C 0.25818 0.26505 0.83612
 C3778 C 0.24290 0.25601 0.82992
 C3779 C 0.22812 0.25389 0.84074
 C3780 C 0.22819 0.26196 0.85706
 H3781 H 0.23125 0.34210 0.90930
 H3782 H 0.23051 0.36282 0.93379
 H3783 H 0.24732 0.31818 0.96641
 H3784 H 0.24846 0.29737 0.94164
 H3785 H 0.22835 0.28229 0.91991
 H3786 H 0.22956 0.26283 0.89419
 H3787 H 0.25484 0.30729 0.86708
 H3788 H 0.25402 0.32634 0.89262
 H3789 H 0.27015 0.28023 0.85650
 H3790 H 0.26985 0.26668 0.82812
 H3791 H 0.21614 0.24708 0.83621
 H3792 H 0.21625 0.26116 0.86480
 C3793 C 0.86408 0.41252 0.75284
 C3794 C 0.88068 0.40939 0.74484
 C3795 C 0.89163 0.42420 0.74028
 C3796 C 0.88626 0.44252 0.74354
 C3797 C 0.86974 0.44560 0.75169
 C3798 C 0.85887 0.43083 0.75634
 C3799 C 0.85194 0.39685 0.75690
 C3800 C 0.83332 0.39873 0.75477
 C3801 C 0.82193 0.38383 0.75761
 C3802 C 0.82882 0.36655 0.76254
 C3803 C 0.84737 0.36478 0.76522
 C3804 C 0.85879 0.37975 0.76243
 C3805 C 0.81687 0.35016 0.76346
 C3806 C 0.81926 0.33643 0.77592
 C3807 C 0.80889 0.32031 0.77560
 C3808 C 0.79607 0.31757 0.76271
 C3809 C 0.79325 0.33165 0.75072
 C3810 C 0.80348 0.34768 0.75109
 H3811 H 0.88506 0.39551 0.74176
 H3812 H 0.90434 0.42127 0.73422
 H3813 H 0.86501 0.45950 0.75421
 H3814 H 0.84632 0.43379 0.76267
 H3815 H 0.82753 0.41159 0.75037
 H3816 H 0.80769 0.38577 0.75565
 H3817 H 0.85316 0.35164 0.76887
 H3818 H 0.87302 0.37786 0.76446
 H3819 H 0.82935 0.33801 0.78572
 H3820 H 0.81146 0.30967 0.78494
 H3821 H 0.78347 0.33002 0.74064
 H3822 H 0.80140 0.35779 0.74117
 C3823 C 0.36929 0.91181 0.25537
 C3824 C 0.38381 0.90975 0.24418
 C3825 C 0.39394 0.92503 0.23924
 C3826 C 0.38988 0.94300 0.24531
 C3827 C 0.37535 0.94478 0.25676
 C3828 C 0.36535 0.92950 0.26171
 C3829 C 0.35783 0.89577 0.25988
 C3830 C 0.33917 0.89796 0.26127
 C3831 C 0.32821 0.88284 0.26459
 C3832 C 0.33557 0.86506 0.26648
 C3833 C 0.35427 0.86291 0.26562
 C3834 C 0.36527 0.87809 0.26235
 C3835 C 0.32368 0.84870 0.26789
 C3836 C 0.32814 0.83361 0.27835
 C3837 C 0.31765 0.81759 0.27822
 C3838 C 0.30261 0.81633 0.26750
 C3839 C 0.29777 0.83172 0.25764
 C3840 C 0.30814 0.84766 0.25784
 H3841 H 0.38720 0.89633 0.23895
 H3842 H 0.40523 0.92240 0.23099
 H3843 H 0.37089 0.95807 0.26145
 H3844 H 0.35436 0.93161 0.27048
 H3845 H 0.33291 0.91130 0.25927
 H3846 H 0.31388 0.88503 0.26537
 H3847 H 0.36037 0.84939 0.26686
 H3848 H 0.37960 0.87594 0.26161
 H3849 H 0.33994 0.83406 0.28637
 H3850 H 0.32179 0.80592 0.28587
 H3851 H 0.28626 0.83122 0.24925
 H3852 H 0.30440 0.85887 0.24946
 C3853 C 0.12939 0.90504 0.74801
 C3854 C 0.12860 0.91228 0.76466
 C3855 C 0.11795 0.92767 0.76842
 C3856 C 0.10792 0.93643 0.75563
 C3857 C 0.10882 0.92942 0.73893
 C3858 C 0.11939 0.91386 0.73516
 C3859 C 0.14071 0.88844 0.74429
 C3860 C 0.15038 0.88671 0.72897
 C3861 C 0.16204 0.87168 0.72628
 C3862 C 0.16436 0.85827 0.73895
 C3863 C 0.15422 0.85963 0.75391
 C3864 C 0.14246 0.87440 0.75650
 C3865 C 0.17799 0.84338 0.73737
 C3866 C 0.19032 0.84083 0.75062
 C3867 C 0.20167 0.82552 0.75076
 C3868 C 0.20092 0.81218 0.73770
 C3869 C 0.18939 0.81532 0.72379
 C3870 C 0.17803 0.83089 0.72360
 H3871 H 0.13647 0.90624 0.77481
 H3872 H 0.11787 0.93298 0.78133
 H3873 H 0.10116 0.93584 0.72882
 H3874 H 0.11952 0.90858 0.72225
 H3875 H 0.14946 0.89728 0.71932
 H3876 H 0.16976 0.87092 0.71465
 H3877 H 0.15556 0.84927 0.76375
 H3878 H 0.13486 0.87491 0.76821
 H3879 H 0.19075 0.85044 0.76123
 H3880 H 0.21054 0.82373 0.76156
 H3881 H 0.18844 0.80529 0.71357
 H3882 H 0.16862 0.83263 0.71322
 C3883 C 0.62941 0.41149 0.24885
 C3884 C 0.62990 0.41906 0.26539
 C3885 C 0.61961 0.43457 0.26960
 C3886 C 0.60870 0.44313 0.25737
 C3887 C 0.60822 0.43572 0.24080
 C3888 C 0.61840 0.42002 0.23660
 C3889 C 0.64059 0.39495 0.24455
 C3890 C 0.64889 0.39304 0.22853
 C3891 C 0.66053 0.37817 0.22517
 C3892 C 0.66422 0.36510 0.23784
 C3893 C 0.65545 0.36660 0.25356
 C3894 C 0.64368 0.38121 0.25682
 C3895 C 0.67805 0.35058 0.23545
 C3896 C 0.69196 0.34915 0.24736
 C3897 C 0.70398 0.33439 0.24673
 C3898 C 0.70228 0.32045 0.23429
 C3899 C 0.68893 0.32241 0.22173
 C3900 C 0.67694 0.33745 0.22226
 H3901 H 0.63855 0.41323 0.27507
 H3902 H 0.62056 0.44019 0.28237
 H3903 H 0.59984 0.44198 0.23113
 H3904 H 0.61750 0.41449 0.22381
 H3905 H 0.64696 0.40339 0.21880
 H3906 H 0.66721 0.37730 0.21298
 H3907 H 0.65792 0.35652 0.26345
 H3908 H 0.63715 0.38185 0.26910
 H3909 H 0.69323 0.35926 0.25749
 H3910 H 0.71417 0.33355 0.25652
 H3911 H 0.68722 0.31192 0.21200
 H3912 H 0.66629 0.33834 0.21292
 C3913 C 0.63224 0.58738 0.25463
 C3914 C 0.62070 0.57889 0.26632
 C3915 C 0.61051 0.56352 0.26148
 C3916 C 0.61154 0.55638 0.24483
 C3917 C 0.62310 0.56482 0.23320
 C3918 C 0.63336 0.58003 0.23804
 C3919 C 0.64319 0.60377 0.25951
 C3920 C 0.64643 0.61771 0.24754
 C3921 C 0.65801 0.63220 0.25131
 C3922 C 0.66649 0.63335 0.26723
 C3923 C 0.66262 0.62007 0.27961
 C3924 C 0.65113 0.60533 0.27576
 C3925 C 0.68026 0.64769 0.27004
 C3926 C 0.67887 0.66084 0.28323
 C3927 C 0.69055 0.67602 0.28379
 C3928 C 0.70374 0.67810 0.27120
 C3929 C 0.70587 0.66409 0.25890
 C3930 C 0.69425 0.64915 0.25830
 H3931 H 0.61936 0.58426 0.27914
 H3932 H 0.60163 0.55737 0.27070
 H3933 H 0.62450 0.55941 0.22039
 H3934 H 0.64243 0.58584 0.22881
 H3935 H 0.64018 0.61732 0.23510
 H3936 H 0.66061 0.64245 0.24163
 H3937 H 0.66906 0.62067 0.29196
 H3938 H 0.64901 0.59482 0.28527
 H3939 H 0.66816 0.65992 0.29244
 H3940 H 0.68855 0.68663 0.29336
 H3941 H 0.71605 0.66511 0.24916
 H3942 H 0.69575 0.63904 0.24818
 C3943 C 0.13511 0.07767 0.75680
 C3944 C 0.14017 0.05918 0.75948
 C3945 C 0.12924 0.04473 0.75397
 C3946 C 0.11285 0.04833 0.74574
 C3947 C 0.10760 0.06682 0.74334
 C3948 C 0.11861 0.08130 0.74878
 C3949 C 0.14739 0.09303 0.76162
 C3950 C 0.14069 0.10996 0.76785
 C3951 C 0.15223 0.12476 0.77111
 C3952 C 0.17072 0.12297 0.76818
 C3953 C 0.17747 0.10581 0.76265
 C3954 C 0.16597 0.09108 0.75936
 C3955 C 0.18270 0.13931 0.76923
 C3956 C 0.19545 0.14211 0.75641
 C3957 C 0.20568 0.15812 0.75616
 C3958 C 0.20353 0.17182 0.76872
 C3959 C 0.19136 0.16878 0.78202
 C3960 C 0.18093 0.15270 0.78220
 H3961 H 0.15265 0.05583 0.76581
 H3962 H 0.13383 0.03069 0.75588
 H3963 H 0.09496 0.07013 0.73730
 H3964 H 0.11436 0.09535 0.74632
 H3965 H 0.12649 0.11186 0.77001
 H3966 H 0.14658 0.13782 0.77524
 H3967 H 0.19167 0.10390 0.76046
 H3968 H 0.17164 0.07835 0.75443
 H3969 H 0.19701 0.13228 0.74610
 H3970 H 0.21497 0.16003 0.74576
 H3971 H 0.18934 0.17917 0.79180
 H3972 H 0.17129 0.15086 0.79232
 C3973 C 0.36618 0.08571 0.24779
 C3974 C 0.37843 0.07814 0.23605
 C3975 C 0.38936 0.06312 0.24053
 C3976 C 0.38845 0.05546 0.25691
 C3977 C 0.37633 0.06306 0.26867
 C3978 C 0.36528 0.07789 0.26415
 C3979 C 0.35424 0.10155 0.24314
 C3980 C 0.34953 0.11484 0.25548
 C3981 C 0.33731 0.12888 0.25170
 C3982 C 0.32965 0.13025 0.23543
 C3983 C 0.33487 0.11758 0.22279
 C3984 C 0.34696 0.10327 0.22664
 C3985 C 0.31569 0.14448 0.23225
 C3986 C 0.31736 0.15751 0.21914
 C3987 C 0.30549 0.17263 0.21820
 C3988 C 0.29178 0.17479 0.23032
 C3989 C 0.28938 0.16086 0.24250
 C3990 C 0.30123 0.14598 0.24350
 H3991 H 0.37969 0.08391 0.22343
 H3992 H 0.39864 0.05756 0.23123
 H3993 H 0.37505 0.05719 0.28125
 H3994 H 0.35574 0.08295 0.27342
 H3995 H 0.35522 0.11437 0.26815
 H3996 H 0.33372 0.13870 0.26159
 H3997 H 0.32910 0.11836 0.21015
 H3998 H 0.35014 0.09323 0.21684
 H3999 H 0.32842 0.15658 0.21029
 H4000 H 0.30775 0.18317 0.20873
 H4001 H 0.27884 0.16193 0.25191
 H4002 H 0.29949 0.13594 0.25354
 C4003 C 0.86604 0.58493 0.74622
 C4004 C 0.87642 0.57596 0.73371
 C4005 C 0.88732 0.56084 0.73794
 C4006 C 0.88821 0.55446 0.75479
 C4007 C 0.87791 0.56342 0.76729
 C4008 C 0.86689 0.57836 0.76305
 C4009 C 0.85421 0.60093 0.74191
 C4010 C 0.85169 0.61533 0.75375
 C4011 C 0.83946 0.62953 0.75054
 C4012 C 0.82966 0.62992 0.73530
 C4013 C 0.83272 0.61615 0.72302
 C4014 C 0.84482 0.60170 0.72633
 C4015 C 0.81549 0.64407 0.73308
 C4016 C 0.81584 0.65675 0.71961
 C4017 C 0.80376 0.67172 0.71931
 C4018 C 0.79112 0.67404 0.73243
 C4019 C 0.79009 0.66047 0.74514
 C4020 C 0.80218 0.64577 0.74551
 H4021 H 0.87629 0.58074 0.72068
 H4022 H 0.89522 0.55425 0.72807
 H4023 H 0.87807 0.55859 0.78031
 H4024 H 0.85877 0.58454 0.77297
 H4025 H 0.85903 0.61556 0.76564
 H4026 H 0.83746 0.64016 0.76010
 H4027 H 0.82522 0.61617 0.71120
 H4028 H 0.84631 0.59080 0.71696
 H4029 H 0.82603 0.65564 0.70987
 H4030 H 0.80495 0.68194 0.70937
 H4031 H 0.78041 0.66161 0.75534
 H4032 H 0.80152 0.63600 0.75589
 C4033 C 0.91480 0.76423 0.18567
 C4034 C 0.92560 0.75074 0.17792
 C4035 C 0.94329 0.75454 0.17379
 C4036 C 0.95063 0.77214 0.17697
 C4037 C 0.93978 0.78552 0.18507
 C4038 C 0.92216 0.78156 0.18946
 C4039 C 0.89593 0.76021 0.18980
 C4040 C 0.88267 0.77393 0.18811
 C4041 C 0.86506 0.77039 0.19282
 C4042 C 0.86033 0.75299 0.19914
 C4043 C 0.87343 0.73905 0.20013
 C4044 C 0.89107 0.74266 0.19565
 C4045 C 0.84223 0.74987 0.20604
 C4046 C 0.84025 0.73992 0.22118
 C4047 C 0.82352 0.73809 0.22862
 C4048 C 0.80836 0.74636 0.22120
 C4049 C 0.81020 0.75596 0.20581
 C4050 C 0.82701 0.75766 0.19827
 H4051 H 0.92023 0.73737 0.17453
 H4052 H 0.95070 0.74394 0.16703
 H4053 H 0.94495 0.79898 0.18846
 H4054 H 0.91432 0.79206 0.19594
 H4055 H 0.88594 0.78747 0.18329
 H4056 H 0.85530 0.78146 0.19206
 H4057 H 0.87011 0.72542 0.20471
 H4058 H 0.90097 0.73183 0.19723
 H4059 H 0.85175 0.73408 0.22767
 H4060 H 0.82261 0.73067 0.24051
 H4061 H 0.79874 0.76238 0.19974
 H4062 H 0.82814 0.76521 0.18647
 C4063 C 0.41093 0.26409 0.68349
 C4064 C 0.41974 0.25416 0.67058
 C4065 C 0.43768 0.25749 0.66706
 C4066 C 0.44715 0.27090 0.67631
 C4067 C 0.43844 0.28079 0.68928
 C4068 C 0.42049 0.27735 0.69290
 C4069 C 0.39186 0.26057 0.68713
 C4070 C 0.38017 0.27522 0.69106
 C4071 C 0.36237 0.27178 0.69521
 C4072 C 0.35592 0.25361 0.69546
 C4073 C 0.36745 0.23902 0.69095
 C4074 C 0.38526 0.24245 0.68689
 C4075 C 0.33772 0.24978 0.70179
 C4076 C 0.33504 0.23513 0.71310
 C4077 C 0.31842 0.23254 0.72062
 C4078 C 0.30410 0.24459 0.71706
 C4079 C 0.30654 0.25880 0.70519
 C4080 C 0.32324 0.26139 0.69763
 H4081 H 0.41265 0.24409 0.66293
 H4082 H 0.44401 0.24999 0.65672
 H4083 H 0.44553 0.29115 0.69659
 H4084 H 0.41412 0.28499 0.70313
 H4085 H 0.38482 0.28935 0.69105
 H4086 H 0.35383 0.28327 0.69881
 H4087 H 0.36277 0.22490 0.69087
 H4088 H 0.39398 0.23086 0.68402
 H4089 H 0.34600 0.22611 0.71672
 H4090 H 0.31698 0.22140 0.72965
 H4091 H 0.29576 0.26829 0.70216
 H4092 H 0.32492 0.27266 0.68879
 C4093 C 0.40321 0.72766 0.83698
 C4094 C 0.41342 0.71276 0.83070
 C4095 C 0.43190 0.71221 0.83323
 C4096 C 0.44044 0.72664 0.84190
 C4097 C 0.43021 0.74113 0.84879
 C4098 C 0.41173 0.74158 0.84645
 C4099 C 0.38415 0.72961 0.83217
 C4100 C 0.37743 0.74693 0.82723
 C4101 C 0.36029 0.74856 0.82043
 C4102 C 0.34956 0.73289 0.81830
 C4103 C 0.35584 0.71571 0.82408
 C4104 C 0.37302 0.71409 0.83098
 C4105 C 0.33254 0.73428 0.80883
 C4106 C 0.31728 0.72474 0.81419
 C4107 C 0.30142 0.72583 0.80480
 C4108 C 0.30060 0.73643 0.78986
 C4109 C 0.31592 0.74593 0.78455
 C4110 C 0.33170 0.74484 0.79391
 H4111 H 0.40728 0.70197 0.82314
 H4112 H 0.43961 0.70093 0.82780
 H4113 H 0.43656 0.75221 0.85582
 H4114 H 0.40415 0.75304 0.85171
 H4115 H 0.38573 0.75913 0.82780
 H4116 H 0.35562 0.76201 0.81633
 H4117 H 0.34783 0.70341 0.82254
 H4118 H 0.37777 0.70062 0.83491
 H4119 H 0.31758 0.71657 0.82569
 H4120 H 0.28984 0.71836 0.80925
 H4121 H 0.31579 0.75416 0.77308
 H4122 H 0.34339 0.75202 0.78930
 C4123 C 0.92531 0.22589 0.29244
 C4124 C 0.93021 0.21049 0.30214
 C4125 C 0.94700 0.20942 0.30981
 C4126 C 0.95978 0.22358 0.30768
 C4127 C 0.95538 0.23792 0.29621
 C4128 C 0.93834 0.23924 0.28900
 C4129 C 0.90638 0.22875 0.28721
 C4130 C 0.90203 0.23823 0.27218
 C4131 C 0.88420 0.24214 0.26814
 C4132 C 0.87028 0.23631 0.27884
 C4133 C 0.87463 0.22642 0.29361
 C4134 C 0.89242 0.22290 0.29785
 C4135 C 0.85130 0.24042 0.27460
 C4136 C 0.83864 0.24368 0.28756
 C4137 C 0.82067 0.24682 0.28354
 C4138 C 0.81514 0.24728 0.26651
 C4139 C 0.82776 0.24446 0.25355
 C4140 C 0.84561 0.24086 0.25755
 H4141 H 0.92075 0.19953 0.30452
 H4142 H 0.94902 0.19801 0.31838
 H4143 H 0.96482 0.24852 0.29286
 H4144 H 0.93520 0.25123 0.28137
 H4145 H 0.91236 0.24275 0.26356
 H4146 H 0.88141 0.25001 0.25676
 H4147 H 0.86429 0.22134 0.30198
 H4148 H 0.89518 0.21594 0.30974
 H4149 H 0.84258 0.24388 0.30081
 H4150 H 0.81113 0.24907 0.29372
 H4151 H 0.82371 0.24447 0.24030
 H4152 H 0.85482 0.23801 0.24725
 C4153 C 0.08078 0.28619 0.30416
 C4154 C 0.06524 0.28240 0.29473
 C4155 C 0.04857 0.28229 0.30269
 C4156 C 0.04724 0.28582 0.32024
 C4157 C 0.06266 0.29104 0.32933
 C4158 C 0.07927 0.29129 0.32133
 C4159 C 0.09859 0.28220 0.29694
 C4160 C 0.11301 0.29417 0.29975
 C4161 C 0.13023 0.28914 0.29456
 C4162 C 0.13332 0.27195 0.28666
 C4163 C 0.11879 0.26014 0.28369
 C4164 C 0.10160 0.26526 0.28869
 C4165 C 0.15159 0.26617 0.28162
 C4166 C 0.15424 0.25628 0.26643
 C4167 C 0.17134 0.25065 0.26161
 C4168 C 0.18626 0.25499 0.27176
 C4169 C 0.18365 0.26479 0.28703
 C4170 C 0.16645 0.27027 0.29195
 H4171 H 0.06611 0.27866 0.28139
 H4172 H 0.03686 0.27858 0.29532
 H4173 H 0.06214 0.29360 0.34290
 H4174 H 0.09110 0.29408 0.32890
 H4175 H 0.11096 0.30731 0.30611
 H4176 H 0.14112 0.29866 0.29676
 H4177 H 0.12075 0.24667 0.27794
 H4178 H 0.09077 0.25559 0.28677
 H4179 H 0.14313 0.25319 0.25803
 H4180 H 0.17286 0.24335 0.24964
 H4181 H 0.19488 0.26839 0.29510
 H4182 H 0.16478 0.27762 0.30388
 C4183 C 0.57324 0.77173 0.80029
 C4184 C 0.55836 0.76273 0.79320
 C4185 C 0.54141 0.76511 0.80034
 C4186 C 0.53911 0.77646 0.81473
 C4187 C 0.55391 0.78600 0.82136
 C4188 C 0.57079 0.78370 0.81418
 C4189 C 0.59150 0.76759 0.79422
 C4190 C 0.60409 0.78176 0.79254
 C4191 C 0.62179 0.77761 0.78834
 C4192 C 0.62719 0.75920 0.78580
 C4193 C 0.61451 0.74506 0.78718
 C4194 C 0.59681 0.74922 0.79133
 C4195 C 0.64599 0.75478 0.78159
 C4196 C 0.64992 0.74155 0.76903
 C4197 C 0.66759 0.73795 0.76444
 C4198 C 0.68171 0.74752 0.77230
 C4199 C 0.67780 0.76037 0.78524
 C4200 C 0.66009 0.76397 0.78983
 H4201 H 0.55993 0.75359 0.78235
 H4202 H 0.53018 0.75777 0.79487
 H4203 H 0.55267 0.79452 0.83266
 H4204 H 0.58209 0.79056 0.82005
 H4205 H 0.60025 0.79605 0.79456
 H4206 H 0.63123 0.78879 0.78702
 H4207 H 0.61837 0.73074 0.78546
 H4208 H 0.58742 0.73802 0.79287
 H4209 H 0.63930 0.73437 0.76238
 H4210 H 0.67012 0.72796 0.75442
 H4211 H 0.68837 0.76800 0.79152
 H4212 H 0.65740 0.77403 0.79975
 C4213 C 0.59172 0.23884 0.66765
 C4214 C 0.58210 0.22236 0.66942
 C4215 C 0.56413 0.22157 0.66470
 C4216 C 0.55544 0.23727 0.65825
 C4217 C 0.56509 0.25366 0.65618
 C4218 C 0.58310 0.25442 0.66078
 C4219 C 0.61034 0.24004 0.67392
 C4220 C 0.61597 0.25576 0.68292
 C4221 C 0.63297 0.25634 0.69018
 C4222 C 0.64464 0.24116 0.68872
 C4223 C 0.63928 0.22567 0.67922
 C4224 C 0.62228 0.22513 0.67187
 C4225 C 0.66199 0.24122 0.69776
 C4226 C 0.67750 0.23410 0.69002
 C4227 C 0.69383 0.23435 0.69868
 C4228 C 0.69492 0.24179 0.71521
 C4229 C 0.67933 0.24868 0.72298
 C4230 C 0.66304 0.24835 0.71437
 H4231 H 0.58829 0.21024 0.67496
 H4232 H 0.55687 0.20883 0.66653
 H4233 H 0.55869 0.26584 0.65097
 H4234 H 0.59027 0.26721 0.65902
 H4235 H 0.60702 0.26739 0.68487
 H4236 H 0.63689 0.26858 0.69719
 H4237 H 0.64800 0.21375 0.67796
 H4238 H 0.61836 0.21294 0.66479
 H4239 H 0.67706 0.22863 0.67718
 H4240 H 0.70563 0.22900 0.69233
 H4241 H 0.67966 0.25434 0.73576
 H4242 H 0.65121 0.25354 0.72079
 C4243 C 0.08724 0.73394 0.19398
 C4244 C 0.08039 0.75088 0.18819
 C4245 C 0.06415 0.75160 0.17951
 C4246 C 0.05447 0.73539 0.17641
 C4247 C 0.06108 0.71849 0.18251
 C4248 C 0.07735 0.71776 0.19125
 C4249 C 0.10511 0.73318 0.20200
 C4250 C 0.11737 0.71925 0.19743
 C4251 C 0.13487 0.71965 0.20364
 C4252 C 0.14039 0.73399 0.21450
 C4253 C 0.12794 0.74755 0.21951
 C4254 C 0.11045 0.74711 0.21336
 C4255 C 0.15924 0.73533 0.22004
 C4256 C 0.16338 0.74108 0.23666
 C4257 C 0.18111 0.74349 0.24161
 C4258 C 0.19511 0.74007 0.23007
 C4259 C 0.19100 0.73394 0.21354
 C4260 C 0.17322 0.73166 0.20855
 H4261 H 0.08789 0.76351 0.18984
 H4262 H 0.05945 0.76476 0.17470
 H4263 H 0.05370 0.70585 0.18043
 H4264 H 0.08225 0.70457 0.19577
 H4265 H 0.11364 0.70844 0.18856
 H4266 H 0.14414 0.70888 0.19978
 H4267 H 0.13185 0.75887 0.22773
 H4268 H 0.10118 0.75788 0.21724
 H4269 H 0.15288 0.74371 0.24586
 H4270 H 0.18383 0.74796 0.25452
 H4271 H 0.20150 0.73117 0.20438
 H4272 H 0.17040 0.72746 0.19558
   
