data_POSCAR
  _audit_creation_date              2014-09-24
  _audit_creation_method            'ToBaCCo'
  _symmetry_space_group_name_H-M    'P1'
  _symmetry_Int_Tables_number       1
  _symmetry_cell_setting            triclinic
  loop_
  _symmetry_equiv_pos_as_xyz
 x,y,z
_cell_length_a 72.7962
_cell_length_b 72.1497
_cell_length_c 72.6491
_cell_angle_alpha 91.316200
_cell_angle_beta 89.382700
_cell_angle_gamma 88.669500
loop_
  _atom_site_label
  _atom_site_type_symbol
  _atom_site_fract_x
  _atom_site_fract_y
  _atom_site_fract_z
N1 N 0.17713 0.22642 0.22277
 N2 N 0.18237 0.21359 0.23422
 C3 C 0.16928 0.21191 0.24728
 C4 C 0.15504 0.22438 0.24366
 C5 C 0.16059 0.23337 0.22804
 H6 H 0.16986 0.20201 0.25823
 H7 H 0.15311 0.24407 0.22088
 Cu8 Cu 0.20547 0.20008 0.23025
 Cu9 Cu 0.19134 0.23239 0.20116
 Cu10 Cu 0.23011 0.20494 0.19106
 N11 N 0.22475 0.18246 0.22288
 N12 N 0.23482 0.18460 0.20798
 C13 C 0.24699 0.17027 0.20631
 C14 C 0.24418 0.15846 0.22084
 C15 C 0.22996 0.16671 0.23106
 H16 H 0.25670 0.16824 0.19504
 H17 H 0.22379 0.16161 0.24351
 N18 N 0.22224 0.22621 0.17591
 N19 N 0.20733 0.23634 0.17991
 C20 C 0.20429 0.24841 0.16646
 C21 C 0.21782 0.24586 0.15324
 C22 C 0.22920 0.23183 0.15969
 H23 H 0.19276 0.25809 0.16599
 H24 H 0.24100 0.22554 0.15262
 H25 H 0.20258 0.20570 0.19753
 H26 H 0.21724 0.22313 0.20934
 N27 N 0.67792 0.72266 0.73101
 N28 N 0.68441 0.70741 0.73833
 C29 C 0.67451 0.70383 0.75353
 C30 C 0.66097 0.71747 0.75577
 C31 C 0.66353 0.72919 0.74118
 H32 H 0.67686 0.69206 0.76220
 H33 H 0.65569 0.74168 0.73835
 Cu34 Cu 0.70499 0.69337 0.72753
 Cu35 Cu 0.68887 0.73309 0.70918
 Cu36 Cu 0.72810 0.71092 0.69156
 N37 N 0.72801 0.68252 0.71837
 N38 N 0.73713 0.68946 0.70455
 C39 C 0.75253 0.67916 0.70134
 C40 C 0.75303 0.66495 0.71381
 C41 C 0.73725 0.66755 0.72441
 H42 H 0.76241 0.68157 0.69050
 H43 H 0.73291 0.65928 0.73580
 N44 N 0.71679 0.73280 0.68033
 N45 N 0.70197 0.74143 0.68716
 C46 C 0.69798 0.75617 0.67676
 C47 C 0.71086 0.75675 0.66266
 C48 C 0.72253 0.74169 0.66532
 H49 H 0.68650 0.76571 0.67917
 H50 H 0.73456 0.73775 0.65716
 H51 H 0.70049 0.70874 0.69823
 H52 H 0.71483 0.72242 0.71466
 N53 N 0.32397 0.77881 0.72786
 N54 N 0.31828 0.79411 0.73648
 C55 C 0.32965 0.79796 0.75042
 C56 C 0.34325 0.78430 0.75063
 C57 C 0.33916 0.77224 0.73620
 H58 H 0.32818 0.80984 0.75971
 H59 H 0.34698 0.75999 0.73174
 Cu60 Cu 0.29704 0.80789 0.72829
 Cu61 Cu 0.31184 0.76971 0.70567
 Cu62 Cu 0.27186 0.79349 0.69259
 N63 N 0.27304 0.81849 0.72388
 N64 N 0.26394 0.81438 0.70888
 C65 C 0.24888 0.82561 0.70822
 C66 C 0.24833 0.83693 0.72403
 C67 C 0.26386 0.83178 0.73365
 H68 H 0.23885 0.82519 0.69736
 H69 H 0.26876 0.83796 0.74632
 N70 N 0.28246 0.77168 0.67867
 N71 N 0.29764 0.76283 0.68369
 C72 C 0.30168 0.74919 0.67128
 C73 C 0.28839 0.74925 0.65788
 C74 C 0.27632 0.76361 0.66304
 H75 H 0.31343 0.73979 0.67193
 H76 H 0.26423 0.76809 0.65568
 H77 H 0.29966 0.79435 0.69723
 H78 H 0.28582 0.78013 0.71305
 N79 N 0.82821 0.27682 0.22607
 N80 N 0.82221 0.28931 0.23823
 C81 C 0.83439 0.29040 0.25206
 C82 C 0.84891 0.27790 0.24827
 C83 C 0.84432 0.26959 0.23159
 H84 H 0.83286 0.29978 0.26381
 H85 H 0.85195 0.25892 0.22393
 Cu86 Cu 0.79920 0.30308 0.23440
 Cu87 Cu 0.81494 0.27062 0.20396
 Cu88 Cu 0.77489 0.29544 0.19543
 N89 N 0.77726 0.31773 0.22865
 N90 N 0.76807 0.31496 0.21338
 C91 C 0.75400 0.32737 0.21279
 C92 C 0.75427 0.33843 0.22861
 C93 C 0.76921 0.33189 0.23835
 H94 H 0.74418 0.32816 0.20176
 H95 H 0.77405 0.33728 0.25138
 N96 N 0.78433 0.27510 0.17904
 N97 N 0.79986 0.26604 0.18230
 C98 C 0.80334 0.25369 0.16854
 C99 C 0.78937 0.25489 0.15597
 C100 C 0.77738 0.26850 0.16308
 H101 H 0.81512 0.24431 0.16774
 H102 H 0.76483 0.27351 0.15687
 H103 H 0.80234 0.29675 0.20140
 H104 H 0.78874 0.27881 0.21338
 N105 N 0.82092 0.72017 0.27867
 N106 N 0.81659 0.70578 0.26828
 C107 C 0.82958 0.70326 0.25498
 C108 C 0.84277 0.71668 0.25740
 C109 C 0.83670 0.72714 0.27251
 H110 H 0.82968 0.69230 0.24457
 H111 H 0.84322 0.73913 0.27850
 Cu112 Cu 0.79461 0.69165 0.27384
 Cu113 Cu 0.80599 0.72935 0.29937
 Cu114 Cu 0.76637 0.70586 0.30865
 N115 N 0.77177 0.67884 0.27921
 N116 N 0.76106 0.68475 0.29291
 C117 C 0.74603 0.67440 0.29358
 C118 C 0.74715 0.66120 0.27958
 C119 C 0.76380 0.66424 0.27075
 H120 H 0.73499 0.67637 0.30355
 H121 H 0.76938 0.65674 0.25882
 N122 N 0.77389 0.72754 0.32314
 N123 N 0.78905 0.73656 0.31972
 C124 C 0.78998 0.75111 0.33162
 C125 C 0.77456 0.75128 0.34295
 C126 C 0.76473 0.73610 0.33721
 H127 H 0.80075 0.76117 0.33168
 H128 H 0.75181 0.73167 0.34285
 H129 H 0.79463 0.70430 0.30527
 H130 H 0.78166 0.71950 0.28913
 N131 N 0.32051 0.21455 -0.23003
 N132 N 0.31559 0.20019 -0.24008
 C133 C 0.32615 0.19879 -0.25533
 C134 C 0.33883 0.21282 -0.25481
 C135 C 0.33490 0.22251 -0.23837
 H136 H 0.32492 0.18798 -0.26576
 H137 H 0.34140 0.23490 -0.23326
 Cu138 Cu 0.29623 0.18432 -0.23209
 Cu139 Cu 0.30616 0.22286 -0.20814
 Cu140 Cu 0.26706 0.19727 -0.19846
 N141 N 0.27452 0.17020 -0.22734
 N142 N 0.26302 0.17525 -0.21401
 C143 C 0.24935 0.16300 -0.21337
 C144 C 0.25251 0.14950 -0.22705
 C145 C 0.26860 0.15466 -0.23568
 H146 H 0.23814 0.16373 -0.20349
 H147 H 0.27550 0.14768 -0.24721
 N148 N 0.27370 0.21982 -0.18438
 N149 N 0.28881 0.22914 -0.18751
 C150 C 0.28933 0.24359 -0.17543
 C151 C 0.27373 0.24346 -0.16436
 C152 C 0.26420 0.22819 -0.17040
 H153 H 0.29996 0.25381 -0.17505
 H154 H 0.25132 0.22349 -0.16489
 H155 H 0.29525 0.19786 -0.20095
 H156 H 0.28201 0.21186 -0.21766
 N157 N 0.68113 0.27353 -0.22645
 N158 N 0.68385 0.28869 -0.23570
 C159 C 0.67143 0.28960 -0.24937
 C160 C 0.66059 0.27394 -0.24884
 C161 C 0.66726 0.26419 -0.23400
 H162 H 0.67074 0.30054 -0.25927
 H163 H 0.66225 0.25134 -0.22875
 Cu164 Cu 0.70404 0.30511 -0.22923
 Cu165 Cu 0.69561 0.26653 -0.20527
 Cu166 Cu 0.73035 0.29571 -0.19253
 N167 N 0.72349 0.32176 -0.22124
 N168 N 0.73313 0.31803 -0.20652
 C169 C 0.74485 0.33177 -0.20320
 C170 C 0.74273 0.34481 -0.21662
 C171 C 0.72914 0.33802 -0.22802
 H172 H 0.75440 0.33222 -0.19191
 H173 H 0.72350 0.34465 -0.23997
 N174 N 0.72551 0.27254 -0.17991
 N175 N 0.71177 0.26173 -0.18424
 C176 C 0.71167 0.24738 -0.17267
 C177 C 0.72625 0.24914 -0.16074
 C178 C 0.73471 0.26523 -0.16573
 H179 H 0.70199 0.23625 -0.17311
 H180 H 0.74655 0.27126 -0.15929
 H181 H 0.70271 0.29324 -0.19807
 H182 H 0.71917 0.27960 -0.21332
 N183 N 0.17629 0.78302 0.26944
 N184 N 0.18237 0.79730 0.26051
 C185 C 0.17170 0.80036 0.24586
 C186 C 0.15800 0.78737 0.24557
 C187 C 0.16146 0.77645 0.26070
 H188 H 0.17351 0.81152 0.23639
 H189 H 0.15326 0.76519 0.26552
 Cu190 Cu 0.20243 0.81163 0.26998
 Cu191 Cu 0.18711 0.77589 0.29284
 Cu192 Cu 0.22759 0.79761 0.30580
 N193 N 0.22584 0.82241 0.27536
 N194 N 0.23516 0.81820 0.29014
 C195 C 0.24997 0.82916 0.29110
 C196 C 0.25012 0.84042 0.27573
 C197 C 0.23457 0.83552 0.26611
 H198 H 0.26011 0.82857 0.30184
 H199 H 0.22944 0.84160 0.25366
 N200 N 0.21714 0.77632 0.31921
 N201 N 0.20189 0.76816 0.31405
 C202 C 0.19810 0.75461 0.32581
 C203 C 0.21148 0.75410 0.33914
 C204 C 0.22344 0.76799 0.33446
 H205 H 0.18640 0.74572 0.32477
 H206 H 0.23555 0.77203 0.34190
 H207 H 0.20014 0.80003 0.30138
 H208 H 0.21323 0.78406 0.28539
 N209 N 0.47904 0.42768 0.47440
 N210 N 0.46389 0.43143 0.48387
 C211 C 0.46311 0.42005 0.49831
 C212 C 0.47876 0.40873 0.49793
 C213 C 0.48854 0.41401 0.48257
 H214 H 0.45210 0.42015 0.50843
 H215 H 0.50148 0.40812 0.47753
 Cu216 Cu 0.44681 0.45090 0.47644
 Cu217 Cu 0.48501 0.44031 0.45188
 Cu218 Cu 0.45812 0.47865 0.44124
 N219 N 0.43388 0.47428 0.47238
 N220 N 0.43786 0.48485 0.45845
 C221 C 0.42614 0.49962 0.45871
 C222 C 0.41437 0.49829 0.47375
 C223 C 0.41974 0.48203 0.48208
 H224 H 0.42629 0.51064 0.44888
 H225 H 0.41353 0.47608 0.49411
 N226 N 0.47929 0.46975 0.42574
 N227 N 0.48902 0.45471 0.42966
 C228 C 0.50161 0.45131 0.41628
 C229 C 0.50000 0.46492 0.40334
 C230 C 0.48579 0.47654 0.40981
 H231 H 0.51141 0.43980 0.41598
 H232 H 0.48029 0.48868 0.40315
 H233 H 0.47255 0.46516 0.46111
 H234 H 0.45893 0.45052 0.44493
 N235 N -0.02397 -0.07551 0.97600
 N236 N -0.03872 -0.07243 0.98631
 C237 C -0.03911 -0.08507 0.99967
 C238 C -0.02372 -0.09663 0.99763
 C239 C -0.01443 -0.09013 0.98245
 H240 H -0.04954 -0.08555 1.01035
 H241 H -0.00170 -0.09564 0.97649
 Cu242 Cu -0.05528 -0.05146 0.98180
 Cu243 Cu -0.01812 -0.06033 0.95497
 Cu244 Cu -0.04768 -0.02300 0.94686
 N245 N -0.07186 -0.03054 0.97720
 N246 N -0.06872 -0.01948 0.96347
 C247 C -0.08188 -0.00610 0.96330
 C248 C -0.09400 -0.00878 0.97783
 C249 C -0.08711 -0.02447 0.98637
 H250 H -0.08243 0.00476 0.95332
 H251 H -0.09266 -0.03095 0.99842
 N252 N -0.02568 -0.02892 0.93160
 N253 N -0.01461 -0.04330 0.93445
 C254 C -0.00094 -0.04353 0.92180
 C255 C -0.00343 -0.02848 0.91056
 C256 C -0.01925 -0.01955 0.91716
 H257 H 0.01028 -0.05362 0.92108
 H258 H -0.02563 -0.00717 0.91176
 H259 H -0.03067 -0.03618 0.96534
 H260 H -0.04462 -0.05119 0.94993
 N261 N 1.02466 0.56339 0.97385
 N262 N 1.04042 0.56091 0.98224
 C263 C 1.04103 0.57271 0.99689
 C264 C 1.02467 0.58296 0.99777
 C265 C 1.01467 0.57664 0.98292
 H266 H 1.05243 0.57367 1.00625
 H267 H 1.00137 0.58182 0.97863
 Cu268 Cu 1.05842 0.54218 0.97345
 Cu269 Cu 1.01876 0.55069 0.95083
 Cu270 Cu 1.05147 0.51943 0.93341
 N271 N 1.07178 0.51901 0.96702
 N272 N 1.06850 0.51015 0.95144
 C273 C 1.07900 0.49464 0.95019
 C274 C 1.08953 0.49352 0.96584
 C275 C 1.08472 0.50934 0.97624
 H276 H 1.07909 0.48500 0.93857
 H277 H 1.09000 0.51333 0.98958
 N278 N 1.02864 0.52530 0.92061
 N279 N 1.01574 0.53665 0.92747
 C280 C 1.00154 0.53710 0.91571
 C281 C 1.00575 0.52541 0.90073
 C282 C 1.02306 0.51818 0.90441
 H283 H 0.98915 0.54545 0.91784
 H284 H 1.03094 0.50812 0.89617
 H285 H 1.03490 0.52719 0.95529
 H286 H 1.04540 0.54665 0.94267
 N287 N 0.53163 0.07249 0.47574
 N288 N 0.54721 0.06716 0.48321
 C289 C 0.55146 0.07925 0.49677
 C290 C 0.53783 0.09287 0.49804
 C291 C 0.52536 0.08811 0.48452
 H292 H 0.56342 0.07805 0.50538
 H293 H 0.51285 0.09560 0.48115
 Cu294 Cu 0.56055 0.04469 0.47527
 Cu295 Cu 0.52098 0.05877 0.45501
 Cu296 Cu 0.54352 0.01778 0.44163
 N297 N 0.57233 0.02116 0.46785
 N298 N 0.56555 0.01077 0.45463
 C299 C 0.57597 -0.00475 0.45241
 C300 C 0.59011 -0.00420 0.46498
 C301 C 0.58735 0.01253 0.47455
 H302 H 0.57339 -0.01559 0.44232
 H303 H 0.59543 0.01788 0.48579
 N304 N 0.52111 0.02684 0.42984
 N305 N 0.51260 0.04267 0.43437
 C306 C 0.49774 0.04470 0.42350
 C307 C 0.49685 0.02918 0.41194
 C308 C 0.51187 0.01828 0.41634
 H309 H 0.48799 0.05623 0.42431
 H310 H 0.51573 0.00502 0.41005
 H311 H 0.53160 0.03379 0.46309
 H312 H 0.54516 0.04653 0.44564
 N313 N -0.03115 0.07688 0.52227
 N314 N -0.04638 0.07185 0.51418
 C315 C -0.05098 0.08437 0.50151
 C316 C -0.03795 0.09797 0.50159
 C317 C -0.02547 0.09271 0.51487
 H318 H -0.06289 0.08367 0.49279
 H319 H -0.01341 0.10010 0.51911
 Cu320 Cu -0.05854 0.04942 0.52088
 Cu321 Cu -0.02082 0.06310 0.54262
 Cu322 Cu -0.04406 0.02390 0.55623
 N323 N -0.07082 0.02710 0.52761
 N324 N -0.06557 0.01727 0.54174
 C325 C -0.07651 0.00252 0.54308
 C326 C -0.08907 0.00310 0.52887
 C327 C -0.08502 0.01887 0.51941
 H328 H -0.07503 -0.00819 0.55317
 H329 H -0.09202 0.02398 0.50743
 N330 N -0.02181 0.03298 0.56865
 N331 N -0.01269 0.04743 0.56297
 C332 C 0.00219 0.04963 0.57355
 C333 C 0.00248 0.03601 0.58662
 C334 C -0.01299 0.02571 0.58314
 H335 H 0.01197 0.06055 0.57209
 H336 H -0.01728 0.01363 0.59044
 H337 H -0.03094 0.03735 0.53544
 H338 H -0.04544 0.05210 0.55154
 N339 N 0.47247 0.56911 0.02156
 N340 N 0.45718 0.56545 0.01288
 C341 C 0.45621 0.57542 -0.00245
 C342 C 0.47159 0.58616 -0.00346
 C343 C 0.48162 0.58197 0.01211
 H344 H 0.44498 0.57505 -0.01208
 H345 H 0.49473 0.58751 0.01599
 Cu346 Cu 0.43950 0.54845 0.02219
 Cu347 Cu 0.47950 0.55580 0.04373
 Cu348 Cu 0.45152 0.51927 0.05526
 N349 N 0.42554 0.52666 0.02692
 N350 N 0.43046 0.51487 0.03955
 C351 C 0.41814 0.50125 0.04010
 C352 C 0.40470 0.50486 0.02718
 C353 C 0.40994 0.52107 0.01904
 H354 H 0.41857 0.48995 0.04962
 H355 H 0.40293 0.52834 0.00822
 N356 N 0.47329 0.52611 0.06949
 N357 N 0.48388 0.54008 0.06535
 C358 C 0.49691 0.54166 0.07832
 C359 C 0.49420 0.52818 0.09131
 C360 C 0.47917 0.51858 0.08518
 H361 H 0.50722 0.55221 0.07864
 H362 H 0.47285 0.50705 0.09182
 H363 H 0.46613 0.53252 0.03475
 H364 H 0.45384 0.54774 0.05229
 N365 N 0.52887 -0.07143 0.02675
 N366 N 0.54414 -0.06822 0.01774
 C367 C 0.54728 -0.08171 0.00498
 C368 C 0.53318 -0.09408 0.00593
 C369 C 0.52158 -0.08713 0.01982
 H370 H 0.55906 -0.08268 -0.00422
 H371 H 0.50922 -0.09333 0.02493
 Cu372 Cu 0.55909 -0.04718 0.02367
 Cu373 Cu 0.52079 -0.05589 0.04785
 Cu374 Cu 0.54798 -0.01809 0.05868
 N375 N 0.57402 -0.02612 0.02959
 N376 N 0.56953 -0.01446 0.04310
 C377 C 0.58241 -0.00137 0.04433
 C378 C 0.59572 -0.00520 0.03088
 C379 C 0.58988 -0.02099 0.02179
 H380 H 0.58230 0.00977 0.05453
 H381 H 0.59679 -0.02830 0.01044
 N382 N 0.52579 -0.02425 0.07287
 N383 N 0.51540 -0.03851 0.06879
 C384 C 0.50214 -0.03961 0.08180
 C385 C 0.50436 -0.02544 0.09472
 C386 C 0.51946 -0.01599 0.08855
 H387 H 0.49215 -0.05045 0.08233
 H388 H 0.52564 -0.00417 0.09523
 H389 H 0.53279 -0.03208 0.03915
 H390 H 0.54655 -0.04674 0.05493
 N391 N 1.03158 0.43675 0.52331
 N392 N 1.04664 0.44176 0.51475
 C393 C 1.04881 0.43127 0.49919
 C394 C 1.03418 0.41934 0.49808
 C395 C 1.02366 0.42319 0.51359
 H396 H 1.05964 0.43275 0.48905
 H397 H 1.01082 0.41688 0.51725
 Cu398 Cu 1.06002 0.46302 0.52425
 Cu399 Cu 1.02204 0.44892 0.54552
 Cu400 Cu 1.04563 0.48663 0.56252
 N401 N 1.07338 0.48427 0.53373
 N402 N 1.06751 0.49346 0.54861
 C403 C 1.07825 0.50812 0.55157
 C404 C 1.09158 0.50829 0.53780
 C405 C 1.08804 0.49288 0.52674
 H406 H 1.07626 0.51812 0.56277
 H407 H 1.09522 0.48863 0.51418
 N408 N 1.02313 0.47735 0.57444
 N409 N 1.01438 0.46289 0.56781
 C410 C 0.99917 0.46038 0.57796
 C411 C 0.99805 0.47394 0.59164
 C412 C 1.01362 0.48439 0.58917
 H413 H 0.98945 0.44954 0.57545
 H414 H 1.01737 0.49657 0.59709
 H415 H 1.03235 0.47490 0.54029
 H416 H 1.04658 0.45918 0.55473
 C417 C 0.40123 0.00356 0.22618
 H418 H 0.40241 0.01703 0.23285
 C419 C 0.41183 -0.00094 0.21052
 H420 H 0.42100 0.00930 0.20518
 C421 C 0.38701 -0.02564 0.22460
 H422 H 0.37718 -0.03512 0.23007
 C423 C 0.39752 -0.03080 0.20900
 H424 H 0.39586 -0.04444 0.20280
 N425 N 0.38884 -0.00859 0.23265
 C426 C 0.34474 0.02636 0.25683
 H427 H 0.34339 0.02094 0.27053
 C428 C 0.33414 0.04182 0.25184
 H429 H 0.32483 0.04833 0.26190
 C430 C 0.35892 0.02478 0.22734
 H431 H 0.36839 0.01805 0.21768
 C432 C 0.34852 0.04007 0.22173
 H433 H 0.35014 0.04483 0.20780
 Zn434 Zn 0.37355 -0.00069 0.25275
 N435 N 0.35737 0.01863 0.24485
 C436 C 0.38572 0.02531 0.28000
 N437 N 0.38899 0.00835 0.27186
 C438 C 0.40372 -0.00233 0.27672
 C439 C 0.41539 0.00360 0.29072
 C440 C 0.39697 0.03173 0.29411
 C441 C 0.34312 -0.02413 0.25261
 C442 C 0.33239 -0.03899 0.25784
 C443 C 0.35535 -0.04711 0.28016
 C444 C 0.36555 -0.03198 0.27463
 N445 N 0.35938 -0.02087 0.26101
 H446 H 0.37436 0.03395 0.27571
 H447 H 0.40644 -0.01549 0.26966
 H448 H 0.42706 -0.00512 0.29432
 H449 H 0.39374 0.04501 0.30076
 H450 H 0.33850 -0.01520 0.24175
 H451 H 0.31939 -0.04106 0.25110
 H452 H 0.36084 -0.05600 0.29067
 H453 H 0.37852 -0.02931 0.28110
 C454 C 0.33628 0.04913 0.23419
 C455 C 0.40995 -0.01827 0.20157
 C456 C 0.33849 -0.05088 0.27173
 C457 C 0.41197 0.02077 0.29977
 C458 C 0.08868 -0.01177 0.72788
 H459 H 0.08956 -0.02433 0.73572
 C460 C 0.07506 -0.00972 0.71468
 H461 H 0.06570 -0.02093 0.71226
 C462 C 0.10023 0.01783 0.72136
 H463 H 0.10994 0.02860 0.72413
 C464 C 0.08675 0.02050 0.70806
 H465 H 0.08624 0.03342 0.70076
 N466 N 0.10115 0.00172 0.73071
 C467 C 0.15154 -0.02545 0.74926
 H468 H 0.15464 -0.01702 0.76129
 C469 C 0.16360 -0.03987 0.74358
 H470 H 0.17609 -0.04218 0.75122
 C471 C 0.13173 -0.03220 0.72449
 H472 H 0.11940 -0.02916 0.71694
 C473 C 0.14320 -0.04694 0.71854
 H474 H 0.13913 -0.05527 0.70676
 Zn475 Zn 0.11940 -0.00289 0.74857
 N476 N 0.13581 -0.02206 0.73987
 C477 C 0.11309 -0.02474 0.78026
 N478 N 0.10700 -0.01024 0.77016
 C479 C 0.09121 -0.00075 0.77477
 C480 C 0.08069 -0.00587 0.78990
 C481 C 0.10317 -0.03011 0.79575
 C482 C 0.14395 0.02566 0.74044
 C483 C 0.15428 0.04140 0.74409
 C484 C 0.14219 0.04226 0.77520
 C485 C 0.13205 0.02658 0.77094
 N486 N 0.13297 0.01870 0.75375
 H487 H 0.12564 -0.03215 0.77635
 H488 H 0.08660 0.01064 0.76642
 H489 H 0.06787 0.00155 0.79282
 H490 H 0.10849 -0.04143 0.80380
 H491 H 0.14465 0.01897 0.72696
 H492 H 0.16267 0.04691 0.73321
 H493 H 0.14146 0.04811 0.78905
 H494 H 0.12356 0.02062 0.78144
 C495 C 0.15933 -0.05112 0.72819
 C496 C 0.07403 0.00654 0.70444
 C497 C 0.15345 0.04995 0.76168
 C498 C 0.08660 -0.02075 0.80070
 C499 C 0.59670 0.49725 0.21993
 H500 H 0.59381 0.48510 0.22782
 C501 C 0.58634 0.50117 0.20435
 H502 H 0.57577 0.49168 0.20020
 C503 C 0.61435 0.52398 0.21559
 H504 H 0.62512 0.53300 0.22010
 C505 C 0.60411 0.52863 0.20017
 H506 H 0.60712 0.54128 0.19313
 N507 N 0.61078 0.50829 0.22490
 C508 C 0.65213 0.47442 0.25217
 H509 H 0.65508 0.48350 0.26377
 C510 C 0.66356 0.45898 0.24823
 H511 H 0.67531 0.45645 0.25689
 C512 C 0.63408 0.46777 0.22604
 H513 H 0.62298 0.47144 0.21703
 C514 C 0.64489 0.45198 0.22183
 H515 H 0.64142 0.44346 0.20997
 Zn516 Zn 0.62545 0.50185 0.24537
 N517 N 0.63787 0.47869 0.24096
 C518 C 0.61034 0.48658 0.27792
 N519 N 0.60997 0.50129 0.26656
 C520 C 0.59809 0.51588 0.26966
 C521 C 0.58591 0.51604 0.28467
 C522 C 0.59851 0.48625 0.29322
 C523 C 0.65715 0.52018 0.23518
 C524 C 0.67134 0.53279 0.23661
 C525 C 0.65841 0.54368 0.26577
 C526 C 0.64443 0.53086 0.26378
 N527 N 0.64396 0.51958 0.24856
 H528 H 0.61980 0.47506 0.27516
 H529 H 0.59794 0.52732 0.26029
 H530 H 0.57629 0.52761 0.28653
 H531 H 0.59931 0.47453 0.30223
 H532 H 0.65650 0.51091 0.22330
 H533 H 0.68144 0.53334 0.22560
 H534 H 0.65862 0.55251 0.27802
 H535 H 0.63400 0.52994 0.27438
 C536 C 0.66017 0.44760 0.23271
 C537 C 0.59011 0.51697 0.19409
 C538 C 0.67206 0.54483 0.25202
 C539 C 0.58597 0.50109 0.29677
 C540 C 0.89906 0.51340 0.73153
 H541 H 0.89643 0.52531 0.74058
 C542 C 0.91314 0.51376 0.71837
 H543 H 0.92115 0.52615 0.71718
 C544 C 0.89148 0.48291 0.72200
 H545 H 0.88314 0.47085 0.72364
 C546 C 0.90548 0.48264 0.70870
 H547 H 0.90781 0.47025 0.70024
 N548 N 0.88849 0.49820 0.73300
 C549 C 0.83944 0.52087 0.76037
 H550 H 0.83928 0.51236 0.77243
 C551 C 0.82595 0.53464 0.75822
 H552 H 0.81567 0.53688 0.76896
 C553 C 0.85346 0.52839 0.73199
 H554 H 0.86403 0.52568 0.72167
 C555 C 0.84002 0.54211 0.72912
 H556 H 0.84040 0.54978 0.71649
 Zn557 Zn 0.87020 0.49889 0.75163
 N558 N 0.85300 0.51823 0.74752
 C559 C 0.87965 0.51961 0.78360
 N560 N 0.88225 0.50315 0.77432
 C561 C 0.89470 0.49027 0.78010
 C562 C 0.90485 0.49356 0.79601
 C563 C 0.88956 0.52352 0.79951
 C564 C 0.84613 0.47383 0.73623
 C565 C 0.83424 0.45894 0.73535
 C566 C 0.84428 0.45011 0.76555
 C567 C 0.85589 0.46530 0.76592
 N568 N 0.85661 0.47678 0.75135
 H569 H 0.87036 0.53006 0.77838
 H570 H 0.89692 0.47751 0.77218
 H571 H 0.91457 0.48305 0.80047
 H572 H 0.88762 0.53691 0.80638
 H573 H 0.84668 0.48342 0.72501
 H574 H 0.82563 0.45729 0.72340
 H575 H 0.84400 0.44109 0.77724
 H576 H 0.86398 0.46809 0.77800
 C577 C 0.82608 0.54548 0.74241
 C578 C 0.91650 0.49824 0.70669
 C579 C 0.83307 0.44686 0.75019
 C580 C 0.90241 0.51044 0.80591
 C581 C 0.22910 0.39909 0.01303
 H582 H 0.23762 0.39790 0.02507
 C583 C 0.21478 0.41230 0.01286
 H584 H 0.21212 0.42094 0.02503
 C585 C 0.22246 0.38931 -0.01748
 H586 H 0.22575 0.38055 -0.02939
 C587 C 0.20803 0.40242 -0.01828
 H588 H 0.20038 0.40363 -0.03091
 N589 N 0.23266 0.38793 -0.00198
 C590 C 0.26419 0.34002 0.01692
 H591 H 0.27517 0.34001 0.00676
 C592 C 0.26419 0.32665 0.03047
 H593 H 0.27507 0.31615 0.03045
 C594 C 0.23665 0.35377 0.02910
 H595 H 0.22600 0.36442 0.02855
 C596 C 0.23615 0.34068 0.04297
 H597 H 0.22515 0.34155 0.05312
 Zn598 Zn 0.25357 0.37188 -0.00115
 N599 N 0.25078 0.35344 0.01669
 C600 C 0.28326 0.38286 0.02103
 N601 N 0.27382 0.38655 0.00543
 C602 C 0.27842 0.40089 -0.00539
 C603 C 0.29382 0.41135 -0.00136
 C604 C 0.29852 0.39318 0.02577
 C605 C 0.24687 0.34543 -0.02913
 C606 C 0.25098 0.33422 -0.04466
 C607 C 0.27769 0.35258 -0.05020
 C608 C 0.27331 0.36313 -0.03438
 N609 N 0.25814 0.35941 -0.02414
 H610 H 0.27900 0.37193 0.02990
 H611 H 0.27038 0.40387 -0.01746
 H612 H 0.29770 0.42213 -0.01066
 H613 H 0.30571 0.39007 0.03834
 H614 H 0.23505 0.34252 -0.02060
 H615 H 0.24226 0.32266 -0.04783
 H616 H 0.28974 0.35603 -0.05816
 H617 H 0.28236 0.37399 -0.03014
 C618 C 0.25023 0.32705 0.04394
 C619 C 0.20412 0.41426 -0.00301
 C620 C 0.26677 0.33755 -0.05532
 C621 C 0.30424 0.40742 0.01433
 C622 C 0.72237 0.09666 -0.00456
 H623 H 0.72937 0.09398 -0.01759
 C624 C 0.70709 0.08631 0.00011
 H625 H 0.70225 0.07599 -0.00962
 C626 C 0.72003 0.11353 0.02375
 H627 H 0.72516 0.12398 0.03309
 C628 C 0.70490 0.10336 0.02907
 H629 H 0.69871 0.10606 0.04251
 N630 N 0.72820 0.11038 0.00700
 C631 C 0.75201 0.15384 -0.02591
 H632 H 0.76331 0.15769 -0.01721
 C633 C 0.74749 0.16477 -0.04090
 H634 H 0.75547 0.17692 -0.04353
 C635 C 0.72705 0.13429 -0.03206
 H636 H 0.71875 0.12275 -0.02847
 C637 C 0.72225 0.14461 -0.04736
 H638 H 0.71067 0.14036 -0.05553
 Zn639 Zn 0.74780 0.12590 0.00003
 N640 N 0.74180 0.13892 -0.02172
 C641 C 0.78550 0.12027 -0.00867
 N642 N 0.76988 0.11156 -0.00375
 C643 C 0.76984 0.09284 -0.00179
 C644 C 0.78572 0.08210 -0.00546
 C645 C 0.80174 0.11007 -0.01233
 C646 C 0.73765 0.15753 0.02058
 C647 C 0.73809 0.17059 0.03501
 C648 C 0.76576 0.15546 0.04587
 C649 C 0.76480 0.14267 0.03118
 N650 N 0.75078 0.14386 0.01902
 H651 H 0.78539 0.13517 -0.00975
 H652 H 0.75746 0.08612 0.00248
 H653 H 0.78515 0.06718 -0.00438
 H654 H 0.81402 0.11732 -0.01612
 H655 H 0.72663 0.15808 0.01072
 H656 H 0.72753 0.18139 0.03594
 H657 H 0.77675 0.15403 0.05569
 H658 H 0.77497 0.13155 0.02977
 C659 C 0.73235 0.16026 -0.05186
 C660 C 0.69798 0.08980 0.01703
 C661 C 0.75216 0.16956 0.04803
 C662 C 0.80194 0.09067 -0.01098
 C663 C 0.22803 0.59847 0.48203
 H664 H 0.23626 0.59902 0.46958
 C665 C 0.21426 0.58534 0.48343
 H666 H 0.21168 0.57625 0.47173
 C667 C 0.22151 0.60964 0.51234
 H668 H 0.22457 0.61887 0.52375
 C669 C 0.20785 0.59657 0.51443
 H670 H 0.20071 0.59595 0.52755
 N671 N 0.23130 0.61041 0.49633
 C672 C 0.25909 0.65912 0.47579
 H673 H 0.26884 0.66068 0.48682
 C674 C 0.25849 0.67203 0.46177
 H675 H 0.26762 0.68365 0.46238
 C676 C 0.23521 0.64218 0.46197
 H677 H 0.22614 0.63056 0.46207
 C678 C 0.23423 0.65472 0.44756
 H679 H 0.22454 0.65235 0.43661
 Zn680 Zn 0.25103 0.62720 0.49486
 N681 N 0.24778 0.64438 0.47553
 C682 C 0.28458 0.61776 0.47648
 N683 N 0.27314 0.61307 0.49045
 C684 C 0.27661 0.59769 0.50046
 C685 C 0.29189 0.58613 0.49625
 C686 C 0.30008 0.60679 0.47199
 C687 C 0.23868 0.65446 0.52004
 C688 C 0.23865 0.66593 0.53577
 C689 C 0.26617 0.64991 0.54570
 C690 C 0.26577 0.63882 0.52964
 N691 N 0.25213 0.64128 0.51721
 H692 H 0.28162 0.62989 0.46852
 H693 H 0.26721 0.59411 0.51138
 H694 H 0.29400 0.57362 0.50397
 H695 H 0.30902 0.61101 0.46092
 H696 H 0.22806 0.65619 0.50988
 H697 H 0.22805 0.67663 0.53740
 H698 H 0.27700 0.64755 0.55552
 H699 H 0.27633 0.62826 0.52713
 C700 C 0.24613 0.66982 0.44721
 C701 C 0.20401 0.58413 0.49988
 C702 C 0.25252 0.66379 0.54891
 C703 C 0.30376 0.59049 0.48164
 C704 C 0.72881 0.90470 0.51870
 H705 H 0.73592 0.90312 0.53160
 C706 C 0.71460 0.91789 0.51734
 H707 H 0.71059 0.92619 0.52939
 C708 C 0.72551 0.89569 0.48735
 H709 H 0.73002 0.88718 0.47566
 C710 C 0.71129 0.90879 0.48534
 H711 H 0.70504 0.91028 0.47199
 N712 N 0.73392 0.89391 0.50385
 C713 C 0.76172 0.84504 0.52536
 H714 H 0.77456 0.84535 0.51775
 C715 C 0.75859 0.83080 0.53759
 H716 H 0.76932 0.82044 0.53962
 C717 C 0.73233 0.85848 0.53208
 H718 H 0.72204 0.86915 0.52970
 C719 C 0.72856 0.84440 0.54433
 H720 H 0.71531 0.84442 0.55126
 Zn721 Zn 0.75423 0.87747 0.50632
 N722 N 0.74882 0.85871 0.52313
 C723 C 0.78447 0.88643 0.52926
 N724 N 0.77412 0.89166 0.51470
 C725 C 0.77736 0.90766 0.50583
 C726 C 0.79177 0.91888 0.51122
 C727 C 0.79921 0.89711 0.53494
 C728 C 0.74981 0.85112 0.47821
 C729 C 0.75435 0.84070 0.46235
 C730 C 0.77988 0.86080 0.45715
 C731 C 0.77505 0.87062 0.47334
 N732 N 0.76024 0.86564 0.48350
 H733 H 0.78146 0.87392 0.53644
 H734 H 0.76869 0.91168 0.49453
 H735 H 0.79392 0.93167 0.50407
 H736 H 0.80764 0.89234 0.54615
 H737 H 0.73822 0.84731 0.48666
 H738 H 0.74625 0.82874 0.45893
 H739 H 0.79156 0.86521 0.44916
 H740 H 0.78325 0.88211 0.47783
 C741 C 0.74186 0.83041 0.54737
 C742 C 0.70569 0.92015 0.50045
 C743 C 0.76963 0.84542 0.45155
 C744 C 0.80311 0.91354 0.52582
 C745 C 0.01109 0.23523 0.41002
 H746 H 0.02195 0.24519 0.41086
 C747 C 0.01037 0.22103 0.42266
 H748 H 0.02047 0.22051 0.43347
 C749 C -0.01527 0.22406 0.39492
 H750 H -0.02520 0.22520 0.38407
 C751 C -0.01632 0.20942 0.40709
 H752 H -0.02693 0.19932 0.40517
 N753 N -0.00150 0.23640 0.39637
 C754 C 0.02551 0.25673 0.34762
 H755 H 0.01846 0.26991 0.34575
 C756 C 0.04045 0.25153 0.33631
 H757 H 0.04489 0.26092 0.32584
 C758 C 0.02893 0.22911 0.36442
 H759 H 0.02451 0.22048 0.37551
 C760 C 0.04374 0.22324 0.35328
 H761 H 0.05040 0.20997 0.35576
 Zn762 Zn 0.00250 0.25480 0.37874
 N763 N 0.02052 0.24584 0.36176
 C764 C 0.02807 0.28286 0.38725
 N765 N 0.01136 0.27590 0.39147
 C766 C 0.00100 0.28315 0.40567
 C767 C 0.00721 0.29820 0.41606
 C768 C 0.03474 0.29800 0.39718
 C769 C -0.02663 0.24772 0.35463
 C770 C -0.04249 0.25171 0.34468
 C771 C -0.04228 0.28306 0.35703
 C772 C -0.02659 0.27838 0.36697
 N773 N -0.01920 0.26089 0.36576
 H774 H 0.03639 0.27663 0.37630
 H775 H -0.01204 0.27709 0.40901
 H776 H -0.00115 0.30358 0.42748
 H777 H 0.04788 0.30356 0.39333
 H778 H -0.02019 0.23408 0.35342
 H779 H -0.04841 0.24084 0.33630
 H780 H -0.04766 0.29717 0.35790
 H781 H -0.02019 0.28885 0.37542
 C782 C 0.05005 0.23475 0.33935
 C783 C -0.00325 0.20763 0.42110
 C784 C -0.05052 0.26962 0.34575
 C785 C 0.02428 0.30587 0.41181
 C786 C -0.00444 0.72188 0.09451
 H787 H -0.01652 0.73024 0.09152
 C788 C 0.00109 0.70734 0.08251
 H789 H -0.00676 0.70472 0.07018
 C790 C 0.02064 0.71543 0.11407
 H791 H 0.02818 0.71855 0.12644
 C792 C 0.02659 0.70073 0.10251
 H793 H 0.03857 0.69256 0.10629
 N794 N 0.00532 0.72559 0.10997
 C795 C -0.03009 0.75000 0.15331
 H796 H -0.02269 0.76241 0.15678
 C797 C -0.04595 0.74583 0.16320
 H798 H -0.05085 0.75544 0.17392
 C799 C -0.03261 0.72264 0.13498
 H800 H -0.02729 0.71355 0.12408
 C801 C -0.04841 0.71779 0.14470
 H802 H -0.05492 0.70486 0.14122
 Zn803 Zn -0.00241 0.74535 0.12609
 N804 N -0.02392 0.73864 0.13926
 C805 C -0.02216 0.77799 0.11599
 N806 N -0.00739 0.76672 0.11184
 C807 C 0.00323 0.76965 0.09670
 C808 C -0.00113 0.78408 0.08483
 C809 C -0.02683 0.79272 0.10471
 C810 C 0.01610 0.74058 0.15934
 C811 C 0.03067 0.74169 0.17160
 C812 C 0.04605 0.76177 0.15054
 C813 C 0.03114 0.76027 0.13864
 N814 N 0.01660 0.74973 0.14318
 H815 H -0.03059 0.77553 0.12792
 H816 H 0.01481 0.76041 0.09353
 H817 H 0.00714 0.78568 0.07253
 H818 H -0.03852 0.80158 0.10853
 H819 H 0.00459 0.73196 0.16251
 H820 H 0.02995 0.73428 0.18436
 H821 H 0.05770 0.76985 0.14646
 H822 H 0.03137 0.76716 0.12558
 C823 C -0.05539 0.72952 0.15896
 C824 C 0.01678 0.69648 0.08649
 C825 C 0.04606 0.75218 0.16718
 C826 C -0.01652 0.79576 0.08865
 C827 C 0.48793 0.22926 0.60005
 H828 H 0.47705 0.23968 0.59939
 C829 C 0.48804 0.21398 0.58791
 H830 H 0.47728 0.21302 0.57778
 C831 C 0.51552 0.21855 0.61362
 H832 H 0.52620 0.22046 0.62368
 C833 C 0.51604 0.20288 0.60186
 H834 H 0.52711 0.19274 0.60319
 N835 N 0.50156 0.23132 0.61253
 C836 C 0.47958 0.26374 0.65960
 H837 H 0.48788 0.27597 0.65917
 C838 C 0.46596 0.26235 0.67317
 H839 H 0.46368 0.27382 0.68285
 C840 C 0.47221 0.23433 0.64698
 H841 H 0.47471 0.22341 0.63678
 C842 C 0.45867 0.23222 0.66048
 H843 H 0.45110 0.21949 0.66054
 Zn844 Zn 0.50017 0.25299 0.62785
 N845 N 0.48215 0.25004 0.64660
 C846 C 0.47842 0.28425 0.61713
 N847 N 0.49323 0.27311 0.61270
 C848 C 0.50286 0.27539 0.59680
 C849 C 0.49794 0.28951 0.58483
 C850 C 0.47310 0.29861 0.60563
 C851 C 0.52659 0.24886 0.65545
 C852 C 0.54209 0.25324 0.66574
 C853 C 0.55049 0.27501 0.64255
 C854 C 0.53466 0.27044 0.63288
 N855 N 0.52301 0.25762 0.63946
 H856 H 0.47059 0.28205 0.62954
 H857 H 0.51428 0.26606 0.59331
 H858 H 0.50567 0.29087 0.57214
 H859 H 0.46151 0.30752 0.60967
 H860 H 0.51705 0.23885 0.66054
 H861 H 0.54411 0.24659 0.67878
 H862 H 0.55959 0.28510 0.63685
 H863 H 0.53161 0.27739 0.62024
 C864 C 0.45513 0.24647 0.67369
 C865 C 0.50218 0.20043 0.58869
 C866 C 0.55429 0.26664 0.65944
 C867 C 0.48290 0.30142 0.58920
 C868 C 0.51231 0.72697 0.90577
 H869 H 0.52324 0.73685 0.90500
 C870 C 0.51294 0.71313 0.91888
 H871 H 0.52462 0.71222 0.92794
 C872 C 0.48380 0.71631 0.89480
 H873 H 0.47229 0.71787 0.88565
 C874 C 0.48380 0.70234 0.90777
 H875 H 0.47219 0.69327 0.90844
 N876 N 0.49791 0.72828 0.89407
 C877 C 0.51926 0.76191 0.85000
 H878 H 0.50962 0.77355 0.85076
 C879 C 0.53328 0.76142 0.83674
 H880 H 0.53462 0.77307 0.82774
 C881 C 0.52905 0.73267 0.86094
 H882 H 0.52706 0.72128 0.87010
 C883 C 0.54304 0.73142 0.84764
 H884 H 0.55163 0.71898 0.84678
 Zn885 Zn 0.49711 0.74857 0.87818
 N886 N 0.51752 0.74776 0.86188
 C887 C 0.51014 0.78302 0.89235
 N888 N 0.49682 0.77017 0.89343
 C889 C 0.48324 0.77169 0.90642
 C890 C 0.48250 0.78674 0.91884
 C891 C 0.50992 0.79830 0.90449
 C892 C 0.47537 0.73420 0.85024
 C893 C 0.46096 0.73371 0.83773
 C894 C 0.44778 0.76122 0.85272
 C895 C 0.46258 0.76133 0.86477
 N896 N 0.47597 0.74792 0.86335
 H897 H 0.52116 0.78132 0.88236
 H898 H 0.47311 0.76100 0.90727
 H899 H 0.47179 0.78750 0.92930
 H900 H 0.52060 0.80842 0.90339
 H901 H 0.48639 0.72389 0.84922
 H902 H 0.46113 0.72303 0.82701
 H903 H 0.43719 0.77193 0.85426
 H904 H 0.46346 0.77234 0.87501
 C905 C 0.54530 0.74591 0.83525
 C906 C 0.49847 0.70066 0.92012
 C907 C 0.44693 0.74741 0.83879
 C908 C 0.49602 0.80024 0.91803
 C909 C 0.13546 0.22151 0.27195
 C910 C 0.11873 0.22436 0.28147
 C911 C 0.10364 0.23280 0.27253
 C912 C 0.10557 0.23834 0.25429
 C913 C 0.12227 0.23555 0.24495
 C914 C 0.13737 0.22713 0.25366
 C915 C 0.08692 0.23572 0.28198
 C916 C 0.08518 0.23064 0.30039
 C917 C 0.10027 0.22229 0.30939
 C918 C 0.11691 0.21907 0.29983
 C919 C 0.09854 0.21754 0.32789
 C920 C 0.08214 0.22136 0.33751
 C921 C 0.06706 0.22977 0.32875
 C922 C 0.06865 0.23413 0.31006
 H923 H 0.14705 0.21523 0.27889
 H924 H 0.09417 0.24489 0.24725
 H925 H 0.12323 0.23984 0.23082
 H926 H 0.07536 0.24218 0.27509
 H927 H 0.12849 0.21267 0.30674
 H928 H 0.10998 0.21120 0.33503
 H929 H 0.08146 0.21815 0.35198
 H930 H 0.05707 0.24036 0.30305
 C931 C 0.63035 0.72908 0.76764
 C932 C 0.61690 0.73072 0.78159
 C933 C 0.62010 0.72257 0.79882
 C934 C 0.63657 0.71268 0.80168
 C935 C 0.64979 0.71090 0.78764
 C936 C 0.64686 0.71918 0.77055
 C937 C 0.60678 0.72436 0.81286
 C938 C 0.59013 0.73391 0.80978
 C939 C 0.58680 0.74177 0.79246
 C940 C 0.60026 0.74027 0.77852
 C941 C 0.56998 0.75090 0.78931
 C942 C 0.55654 0.75218 0.80317
 C943 C 0.55974 0.74464 0.82058
 C944 C 0.57671 0.73558 0.82375
 H945 H 0.62780 0.73527 0.75444
 H946 H 0.63921 0.70629 0.81478
 H947 H 0.66242 0.70326 0.79028
 H948 H 0.60929 0.71820 0.82611
 H949 H 0.59773 0.74642 0.76527
 H950 H 0.56712 0.75687 0.77606
 H951 H 0.54349 0.75885 0.80009
 H952 H 0.57957 0.72990 0.83712
 C953 C 0.36705 0.76644 0.76803
 C954 C 0.38158 0.76584 0.78061
 C955 C 0.38851 0.78259 0.78795
 C956 C 0.38074 0.79958 0.78276
 C957 C 0.36608 0.80004 0.77058
 C958 C 0.35908 0.78353 0.76315
 C959 C 0.40295 0.78212 0.80051
 C960 C 0.41037 0.76512 0.80616
 C961 C 0.40332 0.74835 0.79908
 C962 C 0.38909 0.74881 0.78619
 C963 C 0.41056 0.73141 0.80514
 C964 C 0.42460 0.73109 0.81812
 C965 C 0.43184 0.74769 0.82514
 C966 C 0.42466 0.76467 0.81893
 H967 H 0.36163 0.75365 0.76246
 H968 H 0.38590 0.81253 0.78825
 H969 H 0.36033 0.81338 0.76684
 H970 H 0.40826 0.79499 0.80608
 H971 H 0.38375 0.73594 0.78068
 H972 H 0.40525 0.71841 0.79997
 H973 H 0.42963 0.71780 0.82283
 H974 H 0.43029 0.77761 0.82386
 C975 C -0.13278 0.28280 0.27624
 C976 C -0.11696 0.27894 0.28658
 C977 C -0.10322 0.26662 0.27928
 C978 C -0.10552 0.25827 0.26195
 C979 C -0.12127 0.26199 0.25185
 C980 C -0.13520 0.27432 0.25873
 C981 C -0.08739 0.26272 0.28941
 C982 C -0.08516 0.27076 0.30694
 C983 C -0.09891 0.28297 0.31442
 C984 C -0.11469 0.28708 0.30415
 C985 C -0.09664 0.29077 0.33208
 C986 C -0.08097 0.28644 0.34225
 C987 C -0.06718 0.27432 0.33492
 C988 C -0.06940 0.26665 0.31714
 H989 H -0.14319 0.29223 0.28203
 H990 H -0.09512 0.24875 0.25619
 H991 H -0.12224 0.25517 0.23852
 H992 H -0.07686 0.25330 0.28370
 H993 H -0.12522 0.29649 0.30986
 H994 H -0.10705 0.30011 0.33809
 H995 H -0.07978 0.29239 0.35599
 H996 H -0.05878 0.25757 0.31112
 C997 C -0.13834 0.71374 0.22815
 C998 C -0.12220 0.71731 0.21809
 C999 C -0.10752 0.72630 0.22692
 C1000 C -0.10919 0.73165 0.24550
 C1001 C -0.12529 0.72830 0.25529
 C1002 C -0.14005 0.71941 0.24677
 C1003 C -0.09143 0.72999 0.21705
 C1004 C -0.08986 0.72511 0.19832
 C1005 C -0.10452 0.71627 0.18936
 C1006 C -0.12057 0.71229 0.19933
 C1007 C -0.10291 0.71172 0.17053
 C1008 C -0.08700 0.71599 0.16067
 C1009 C -0.07228 0.72475 0.16947
 C1010 C -0.07385 0.72911 0.18840
 H1011 H -0.14969 0.70703 0.22140
 H1012 H -0.09807 0.73857 0.25245
 H1013 H -0.12609 0.73261 0.26965
 H1014 H -0.08021 0.73687 0.22390
 H1015 H -0.13181 0.70547 0.19246
 H1016 H -0.11404 0.70504 0.16338
 H1017 H -0.08637 0.71271 0.14606
 H1018 H -0.06255 0.73555 0.19552
 C1019 C 0.36744 0.22766 0.73578
 C1020 C 0.38155 0.22993 0.72266
 C1021 C 0.38027 0.22134 0.70505
 C1022 C 0.36519 0.21042 0.70092
 C1023 C 0.35161 0.20767 0.71417
 C1024 C 0.35248 0.21617 0.73182
 C1025 C 0.39421 0.22352 0.69188
 C1026 C 0.40981 0.23366 0.69626
 C1027 C 0.41140 0.24191 0.71397
 C1028 C 0.39713 0.24025 0.72699
 C1029 C 0.42736 0.25149 0.71841
 C1030 C 0.44161 0.25281 0.70546
 C1031 C 0.44008 0.24488 0.68765
 C1032 C 0.42396 0.23543 0.68320
 H1033 H 0.36861 0.23420 0.74928
 H1034 H 0.36399 0.20377 0.68747
 H1035 H 0.34022 0.19913 0.71026
 H1036 H 0.39310 0.21698 0.67835
 H1037 H 0.39830 0.24669 0.74055
 H1038 H 0.42893 0.25777 0.73198
 H1039 H 0.45394 0.25985 0.70952
 H1040 H 0.42228 0.22952 0.66949
 C1041 C 0.63836 0.28123 0.72680
 C1042 C 0.62373 0.27590 0.71543
 C1043 C 0.61723 0.25761 0.71610
 C1044 C 0.62513 0.24511 0.72829
 C1045 C 0.63926 0.25060 0.73986
 C1046 C 0.64620 0.26870 0.73933
 C1047 C 0.60281 0.25210 0.70471
 C1048 C 0.59435 0.26479 0.69298
 C1049 C 0.60051 0.28320 0.69255
 C1050 C 0.61530 0.28860 0.70360
 C1051 C 0.59160 0.29596 0.68122
 C1052 C 0.57668 0.29058 0.67053
 C1053 C 0.57049 0.27221 0.67064
 C1054 C 0.57962 0.25937 0.68188
 H1055 H 0.64320 0.29529 0.72619
 H1056 H 0.62029 0.23105 0.72897
 H1057 H 0.64493 0.24031 0.74890
 H1058 H 0.59798 0.23801 0.70519
 H1059 H 0.62007 0.30272 0.70318
 H1060 H 0.59598 0.31020 0.68084
 H1061 H 0.56977 0.30100 0.66246
 H1062 H 0.57534 0.24510 0.68203
 C1063 C 0.13236 0.77029 0.23026
 C1064 C 0.11731 0.76984 0.21828
 C1065 C 0.11187 0.78605 0.20899
 C1066 C 0.12163 0.80237 0.21170
 C1067 C 0.13664 0.80267 0.22348
 C1068 C 0.14217 0.78670 0.23290
 C1069 C 0.09678 0.78574 0.19715
 C1070 C 0.08707 0.76938 0.19433
 C1071 C 0.09260 0.75310 0.20347
 C1072 C 0.10763 0.75344 0.21542
 C1073 C 0.08298 0.73673 0.20047
 C1074 C 0.06798 0.73648 0.18866
 C1075 C 0.06218 0.75261 0.17963
 C1076 C 0.07190 0.76903 0.18253
 H1077 H 0.13654 0.75786 0.23735
 H1078 H 0.11762 0.81493 0.20474
 H1079 H 0.14370 0.81559 0.22543
 H1080 H 0.09261 0.79823 0.19010
 H1081 H 0.11180 0.74096 0.22247
 H1082 H 0.08712 0.72408 0.20722
 H1083 H 0.06103 0.72352 0.18640
 H1084 H 0.06752 0.78162 0.17580
 C1085 C 0.27157 0.13678 0.21770
 C1086 C 0.28069 0.11999 0.22166
 C1087 C 0.27171 0.10671 0.23236
 C1088 C 0.25382 0.11043 0.23891
 C1089 C 0.24493 0.12721 0.23507
 C1090 C 0.25369 0.14057 0.22450
 C1091 C 0.28077 0.08999 0.23650
 C1092 C 0.29883 0.08643 0.23029
 C1093 C 0.30786 0.09968 0.21962
 C1094 C 0.29871 0.11633 0.21528
 C1095 C 0.32597 0.09611 0.21360
 C1096 C 0.33511 0.07967 0.21827
 C1097 C 0.32629 0.06638 0.22892
 C1098 C 0.30804 0.06987 0.23478
 H1099 H 0.27853 0.14704 0.20968
 H1100 H 0.24674 0.10039 0.24709
 H1101 H 0.23107 0.12961 0.24028
 H1102 H 0.27385 0.07985 0.24471
 H1103 H 0.30566 0.12650 0.20711
 H1104 H 0.33315 0.10612 0.20547
 H1105 H 0.34926 0.07752 0.21382
 H1106 H 0.30098 0.05968 0.24278
 C1107 C 0.76269 0.63337 0.72386
 C1108 C 0.77597 0.61917 0.72558
 C1109 C 0.79400 0.62163 0.71879
 C1110 C 0.79834 0.63815 0.71013
 C1111 C 0.78499 0.65221 0.70838
 C1112 C 0.76711 0.65000 0.71534
 C1113 C 0.80739 0.60757 0.72081
 C1114 C 0.80290 0.59100 0.72934
 C1115 C 0.78478 0.58844 0.73584
 C1116 C 0.77145 0.60257 0.73399
 C1117 C 0.78029 0.57177 0.74410
 C1118 C 0.79363 0.55776 0.74598
 C1119 C 0.81180 0.56023 0.73987
 C1120 C 0.81629 0.57696 0.73151
 H1121 H 0.74888 0.63135 0.72902
 H1122 H 0.81208 0.64023 0.70478
 H1123 H 0.78878 0.66492 0.70184
 H1124 H 0.82127 0.60952 0.71576
 H1125 H 0.75758 0.60065 0.73912
 H1126 H 0.76643 0.56953 0.74905
 H1127 H 0.78965 0.54490 0.75212
 H1128 H 0.83027 0.57922 0.72695
 C1129 C 0.76064 0.36794 0.76559
 C1130 C 0.77262 0.38301 0.76540
 C1131 C 0.77637 0.39274 0.78204
 C1132 C 0.76813 0.38733 0.79850
 C1133 C 0.75675 0.37207 0.79865
 C1134 C 0.75302 0.36216 0.78231
 C1135 C 0.78864 0.40743 0.78211
 C1136 C 0.79766 0.41230 0.76585
 C1137 C 0.79407 0.40258 0.74921
 C1138 C 0.78142 0.38813 0.74903
 C1139 C 0.80339 0.40737 0.73307
 C1140 C 0.81616 0.42157 0.73343
 C1141 C 0.81978 0.43143 0.74990
 C1142 C 0.81034 0.42668 0.76606
 H1143 H 0.75801 0.36016 0.75299
 H1144 H 0.77090 0.39460 0.81136
 H1145 H 0.75098 0.36784 0.81166
 H1146 H 0.79147 0.41481 0.79491
 H1147 H 0.77871 0.38067 0.73626
 H1148 H 0.80091 0.40003 0.72019
 H1149 H 0.82336 0.42470 0.72080
 H1150 H 0.81267 0.43431 0.77881
 C1151 C 0.27456 -0.13777 0.28377
 C1152 C 0.28565 -0.12279 0.27892
 C1153 C 0.28551 -0.11645 0.26064
 C1154 C 0.27424 -0.12489 0.24762
 C1155 C 0.26279 -0.13915 0.25267
 C1156 C 0.26260 -0.14577 0.27080
 C1157 C 0.29634 -0.10152 0.25565
 C1158 C 0.30692 -0.09232 0.26883
 C1159 C 0.30688 -0.09831 0.28721
 C1160 C 0.29645 -0.11368 0.29210
 C1161 C 0.31711 -0.08865 0.30040
 C1162 C 0.32721 -0.07321 0.29544
 C1163 C 0.32755 -0.06723 0.27711
 C1164 C 0.31737 -0.07705 0.26388
 H1165 H 0.27460 -0.14245 0.29783
 H1166 H 0.27402 -0.12021 0.23355
 H1167 H 0.25431 -0.14515 0.24206
 H1168 H 0.29622 -0.09680 0.24158
 H1169 H 0.29647 -0.11831 0.30620
 H1170 H 0.31716 -0.09291 0.31460
 H1171 H 0.33456 -0.06580 0.30606
 H1172 H 0.31766 -0.07294 0.24963
 C1173 C 0.22436 -0.14032 0.71590
 C1174 C 0.21311 -0.12483 0.72081
 C1175 C 0.21217 -0.11851 0.73937
 C1176 C 0.22276 -0.12742 0.75261
 C1177 C 0.23458 -0.14214 0.74750
 C1178 C 0.23562 -0.14881 0.72910
 C1179 C 0.20099 -0.10314 0.74440
 C1180 C 0.19130 -0.09343 0.73100
 C1181 C 0.19267 -0.09928 0.71233
 C1182 C 0.20328 -0.11516 0.70738
 C1183 C 0.18353 -0.08900 0.69893
 C1184 C 0.17308 -0.07315 0.70400
 C1185 C 0.17121 -0.06746 0.72262
 C1186 C 0.18041 -0.07781 0.73603
 H1187 H 0.22512 -0.14497 0.70162
 H1188 H 0.22220 -0.12272 0.76689
 H1189 H 0.24265 -0.14848 0.75819
 H1190 H 0.20018 -0.09846 0.75870
 H1191 H 0.20420 -0.11976 0.69307
 H1192 H 0.18461 -0.09311 0.68451
 H1193 H 0.16654 -0.06531 0.69326
 H1194 H 0.17893 -0.07392 0.75047
 C1195 C 0.73154 0.36346 0.22049
 C1196 C 0.71925 0.37803 0.22552
 C1197 C 0.71654 0.38292 0.24433
 C1198 C 0.72643 0.37338 0.25775
 C1199 C 0.73882 0.35906 0.25260
 C1200 C 0.74139 0.35386 0.23397
 C1201 C 0.70406 0.39728 0.24942
 C1202 C 0.69447 0.40705 0.23592
 C1203 C 0.69747 0.40240 0.21711
 C1204 C 0.70972 0.38782 0.21203
 C1205 C 0.68829 0.41252 0.20365
 C1206 C 0.67626 0.42714 0.20874
 C1207 C 0.67286 0.43178 0.22743
 C1208 C 0.68204 0.42151 0.24095
 H1209 H 0.73361 0.35979 0.20606
 H1210 H 0.72457 0.37699 0.27222
 H1211 H 0.74616 0.35185 0.26328
 H1212 H 0.70192 0.40097 0.26386
 H1213 H 0.71190 0.38419 0.19758
 H1214 H 0.69060 0.40929 0.18915
 H1215 H 0.66989 0.43503 0.19794
 H1216 H 0.67949 0.42468 0.25541
 C1217 C 0.73742 0.62997 0.26748
 C1218 C 0.72374 0.61665 0.26512
 C1219 C 0.70533 0.62121 0.27023
 C1220 C 0.70084 0.63892 0.27735
 C1221 C 0.71446 0.65192 0.27985
 C1222 C 0.73288 0.64755 0.27522
 C1223 C 0.69168 0.60798 0.26840
 C1224 C 0.69611 0.59010 0.26167
 C1225 C 0.71444 0.58542 0.25646
 C1226 C 0.72815 0.59875 0.25814
 C1227 C 0.71871 0.56742 0.24978
 C1228 C 0.70498 0.55421 0.24835
 C1229 C 0.68673 0.55875 0.25357
 C1230 C 0.68244 0.57680 0.26017
 H1231 H 0.75161 0.62647 0.26394
 H1232 H 0.68680 0.64264 0.28126
 H1233 H 0.71052 0.66546 0.28551
 H1234 H 0.67762 0.61155 0.27242
 H1235 H 0.74222 0.59516 0.25420
 H1236 H 0.73267 0.56352 0.24575
 H1237 H 0.70869 0.54036 0.24336
 H1238 H 0.66838 0.58058 0.26395
 C1239 C 0.22353 0.13138 0.77575
 C1240 C 0.21315 0.11566 0.77163
 C1241 C 0.22080 0.10124 0.76025
 C1242 C 0.23865 0.10279 0.75317
 C1243 C 0.24886 0.11845 0.75730
 C1244 C 0.24147 0.13292 0.76862
 C1245 C 0.21053 0.08550 0.75613
 C1246 C 0.19263 0.08399 0.76315
 C1247 C 0.18492 0.09842 0.77449
 C1248 C 0.19523 0.11415 0.77867
 C1249 C 0.16701 0.09685 0.78145
 C1250 C 0.15681 0.08117 0.77721
 C1251 C 0.16432 0.06669 0.76599
 C1252 C 0.18231 0.06825 0.75901
 H1253 H 0.21754 0.14243 0.78436
 H1254 H 0.24473 0.09186 0.74444
 H1255 H 0.26266 0.11904 0.75172
 H1256 H 0.21647 0.07445 0.74743
 H1257 H 0.18931 0.12519 0.78739
 H1258 H 0.16086 0.10778 0.79013
 H1259 H 0.14291 0.08048 0.78258
 H1260 H 0.18841 0.05710 0.75059
 C1261 C 0.23508 0.26069 0.12767
 C1262 C 0.23512 0.27143 0.11175
 C1263 C 0.21828 0.27619 0.10329
 C1264 C 0.20174 0.27011 0.11075
 C1265 C 0.20180 0.25985 0.12675
 C1266 C 0.21838 0.25524 0.13544
 C1267 C 0.21813 0.28735 0.08777
 C1268 C 0.23456 0.29426 0.08082
 C1269 C 0.25142 0.28953 0.08921
 C1270 C 0.25162 0.27797 0.10450
 C1271 C 0.26776 0.29676 0.08236
 C1272 C 0.26737 0.30879 0.06756
 C1273 C 0.25065 0.31369 0.05920
 C1274 C 0.23430 0.30615 0.06583
 H1275 H 0.24787 0.25730 0.13446
 H1276 H 0.18874 0.27363 0.10444
 H1277 H 0.18878 0.25559 0.13242
 H1278 H 0.20519 0.29103 0.08139
 H1279 H 0.26455 0.27443 0.11099
 H1280 H 0.28081 0.29338 0.08865
 H1281 H 0.28014 0.31460 0.06293
 H1282 H 0.22136 0.30958 0.05935
 C1283 C 0.72127 0.76618 0.63143
 C1284 C 0.72295 0.77947 0.61778
 C1285 C 0.71566 0.79761 0.62099
 C1286 C 0.70654 0.80203 0.63765
 C1287 C 0.70479 0.78866 0.65111
 C1288 C 0.71224 0.77069 0.64818
 C1289 C 0.71772 0.81107 0.60758
 C1290 C 0.72685 0.80659 0.59092
 C1291 C 0.73380 0.78835 0.58754
 C1292 C 0.73186 0.77492 0.60102
 C1293 C 0.74271 0.78390 0.57078
 C1294 C 0.74502 0.79746 0.55760
 C1295 C 0.73854 0.81576 0.56096
 C1296 C 0.72931 0.82014 0.57766
 H1297 H 0.72688 0.75229 0.62893
 H1298 H 0.70085 0.81585 0.64032
 H1299 H 0.69794 0.79253 0.66397
 H1300 H 0.71231 0.82504 0.61014
 H1301 H 0.73738 0.76098 0.59851
 H1302 H 0.74797 0.76995 0.56790
 H1303 H 0.75185 0.79359 0.54472
 H1304 H 0.72443 0.83422 0.58056
 C1305 C 0.78259 0.77541 0.36669
 C1306 C 0.77748 0.78813 0.38085
 C1307 C 0.75870 0.79075 0.38568
 C1308 C 0.74540 0.78053 0.37639
 C1309 C 0.75061 0.76774 0.36251
 C1310 C 0.76921 0.76504 0.35754
 C1311 C 0.75352 0.80335 0.39985
 C1312 C 0.76689 0.81301 0.40964
 C1313 C 0.78568 0.81027 0.40499
 C1314 C 0.79085 0.79802 0.39047
 C1315 C 0.79899 0.81959 0.41519
 C1316 C 0.79379 0.83115 0.43014
 C1317 C 0.77512 0.83395 0.43497
 C1318 C 0.76175 0.82506 0.42431
 H1319 H 0.79698 0.77329 0.36309
 H1320 H 0.73096 0.78233 0.37995
 H1321 H 0.74001 0.76011 0.35554
 H1322 H 0.73911 0.80533 0.40352
 H1323 H 0.80527 0.79594 0.38689
 H1324 H 0.81346 0.81760 0.41189
 H1325 H 0.80448 0.83749 0.43819
 H1326 H 0.74729 0.82734 0.42750
 C1327 C 0.28121 0.26670 -0.13956
 C1328 C 0.27578 0.27913 -0.12525
 C1329 C 0.25688 0.28216 -0.12120
 C1330 C 0.24377 0.27248 -0.13132
 C1331 C 0.24930 0.25989 -0.14530
 C1332 C 0.26803 0.25692 -0.14959
 C1333 C 0.25139 0.29470 -0.10703
 C1334 C 0.26458 0.30392 -0.09652
 C1335 C 0.28347 0.30058 -0.10032
 C1336 C 0.28895 0.28837 -0.11477
 C1337 C 0.29661 0.30934 -0.08947
 C1338 C 0.29113 0.32124 -0.07491
 C1339 C 0.27238 0.32498 -0.07109
 C1340 C 0.25916 0.31626 -0.08212
 H1341 H 0.29570 0.26434 -0.14260
 H1342 H 0.22923 0.27455 -0.12835
 H1343 H 0.23886 0.25265 -0.15292
 H1344 H 0.23689 0.29709 -0.10403
 H1345 H 0.30345 0.28592 -0.11771
 H1346 H 0.31114 0.30679 -0.09206
 H1347 H 0.30169 0.32724 -0.06643
 H1348 H 0.24467 0.31909 -0.07957
 C1349 C 0.71861 0.22665 -0.13623
 C1350 C 0.72388 0.21515 -0.12177
 C1351 C 0.74268 0.21315 -0.11730
 C1352 C 0.75583 0.22289 -0.12715
 C1353 C 0.75043 0.23462 -0.14123
 C1354 C 0.73182 0.23655 -0.14593
 C1355 C 0.74803 0.20158 -0.10297
 C1356 C 0.73478 0.19230 -0.09274
 C1357 C 0.71597 0.19459 -0.09697
 C1358 C 0.71064 0.20584 -0.11157
 C1359 C 0.70276 0.18570 -0.08640
 C1360 C 0.70810 0.17469 -0.07174
 C1361 C 0.72680 0.17204 -0.06753
 C1362 C 0.74007 0.18089 -0.07823
 H1363 H 0.70420 0.22825 -0.13963
 H1364 H 0.77028 0.22155 -0.12388
 H1365 H 0.76086 0.24201 -0.14862
 H1366 H 0.76246 0.19998 -0.09962
 H1367 H 0.69620 0.20751 -0.11484
 H1368 H 0.68826 0.18744 -0.08932
 H1369 H 0.69749 0.16849 -0.06353
 H1370 H 0.75455 0.17884 -0.07538
 C1371 C 0.22867 0.73735 0.36401
 C1372 C 0.22897 0.72514 0.37888
 C1373 C 0.21240 0.71746 0.38516
 C1374 C 0.19588 0.72199 0.37649
 C1375 C 0.19571 0.73393 0.36166
 C1376 C 0.21204 0.74172 0.35520
 C1377 C 0.21255 0.70529 0.39996
 C1378 C 0.22911 0.70046 0.40849
 C1379 C 0.24573 0.70796 0.40215
 C1380 C 0.24556 0.72032 0.38746
 C1381 C 0.26226 0.70288 0.41058
 C1382 C 0.26235 0.69049 0.42511
 C1383 C 0.24589 0.68302 0.43168
 C1384 C 0.22928 0.68816 0.42323
 H1385 H 0.24137 0.74312 0.35909
 H1386 H 0.18306 0.71623 0.38112
 H1387 H 0.18266 0.73720 0.35537
 H1388 H 0.19979 0.69948 0.40474
 H1389 H 0.25832 0.72610 0.38265
 H1390 H 0.27516 0.70838 0.40585
 H1391 H 0.27542 0.68656 0.43103
 H1392 H 0.21644 0.68276 0.42823
 C1393 C 0.27092 0.73159 0.63392
 C1394 C 0.27049 0.71923 0.61868
 C1395 C 0.28716 0.71244 0.61059
 C1396 C 0.30393 0.71787 0.61802
 C1397 C 0.30423 0.72983 0.63337
 C1398 C 0.28779 0.73684 0.64143
 C1399 C 0.28683 0.70025 0.59528
 C1400 C 0.27004 0.69445 0.58811
 C1401 C 0.25338 0.70093 0.59641
 C1402 C 0.25369 0.71338 0.61155
 C1403 C 0.23665 0.69482 0.58941
 C1404 C 0.23641 0.68254 0.57424
 C1405 C 0.25288 0.67625 0.56560
 C1406 C 0.26968 0.68228 0.57275
 H1407 H 0.25817 0.73677 0.64019
 H1408 H 0.31683 0.71276 0.61203
 H1409 H 0.31739 0.73379 0.63883
 H1410 H 0.29964 0.69519 0.58901
 H1411 H 0.24089 0.71844 0.61782
 H1412 H 0.22374 0.69951 0.59569
 H1413 H 0.22326 0.67791 0.56936
 H1414 H 0.28251 0.67781 0.56616
 C1415 C 0.77120 0.23848 0.13168
 C1416 C 0.77049 0.22669 0.11602
 C1417 C 0.78702 0.22077 0.10701
 C1418 C 0.80389 0.22670 0.11372
 C1419 C 0.80448 0.23808 0.12943
 C1420 C 0.78822 0.24394 0.13863
 C1421 C 0.78650 0.20877 0.09162
 C1422 C 0.76969 0.20228 0.08524
 C1423 C 0.75314 0.20809 0.09421
 C1424 C 0.75362 0.22038 0.10947
 C1425 C 0.73641 0.20131 0.08788
 C1426 C 0.73610 0.18882 0.07289
 C1427 C 0.75250 0.18297 0.06385
 C1428 C 0.76925 0.18989 0.07011
 H1429 H 0.75862 0.24282 0.13882
 H1430 H 0.81666 0.22230 0.10696
 H1431 H 0.81775 0.24230 0.13442
 H1432 H 0.79920 0.20423 0.08479
 H1433 H 0.74093 0.22481 0.11637
 H1434 H 0.72358 0.20549 0.09463
 H1435 H 0.72301 0.18350 0.06856
 H1436 H 0.78198 0.18571 0.06314
 C1437 C 0.47047 0.38465 0.52076
 C1438 C 0.47547 0.37025 0.53255
 C1439 C 0.49424 0.36540 0.53474
 C1440 C 0.50767 0.37492 0.52504
 C1441 C 0.50258 0.38902 0.51315
 C1442 C 0.48398 0.39402 0.51088
 C1443 C 0.49932 0.35103 0.54646
 C1444 C 0.48585 0.34121 0.55584
 C1445 C 0.46707 0.34592 0.55354
 C1446 C 0.46199 0.36049 0.54201
 C1447 C 0.45367 0.33591 0.56278
 C1448 C 0.45881 0.32138 0.57418
 C1449 C 0.47746 0.31667 0.57675
 C1450 C 0.49091 0.32672 0.56746
 H1451 H 0.45608 0.38823 0.51893
 H1452 H 0.52211 0.37137 0.52655
 H1453 H 0.51326 0.39614 0.50585
 H1454 H 0.51373 0.34738 0.54816
 H1455 H 0.44758 0.36414 0.54031
 H1456 H 0.43920 0.33926 0.56111
 H1457 H 0.44812 0.31368 0.58084
 H1458 H 0.50534 0.32346 0.56947
 C1459 C -0.03112 0.87827 0.01961
 C1460 C -0.02569 0.86369 0.03099
 C1461 C -0.00683 0.85898 0.03266
 C1462 C 0.00624 0.86868 0.02263
 C1463 C 0.00071 0.88297 0.01113
 C1464 C -0.01798 0.88797 0.00958
 C1465 C -0.00132 0.84472 0.04437
 C1466 C -0.01445 0.83488 0.05422
 C1467 C -0.03333 0.83929 0.05217
 C1468 C -0.03883 0.85373 0.04068
 C1469 C -0.04644 0.82917 0.06165
 C1470 C -0.04093 0.81495 0.07325
 C1471 C -0.02217 0.81068 0.07584
 C1472 C -0.00900 0.82071 0.06610
 H1473 H -0.04558 0.88187 0.01835
 H1474 H 0.02074 0.86523 0.02373
 H1475 H 0.01113 0.89033 0.00368
 H1476 H 0.01317 0.84123 0.04577
 H1477 H -0.05332 0.85722 0.03929
 H1478 H -0.06098 0.83217 0.06004
 H1479 H -0.05145 0.80716 0.08004
 H1480 H 0.00551 0.81773 0.06798
 C1481 C 0.03224 0.60880 0.01998
 C1482 C 0.02672 0.62378 0.03165
 C1483 C 0.00779 0.62768 0.03475
 C1484 C -0.00528 0.61660 0.02615
 C1485 C 0.00030 0.60194 0.01438
 C1486 C 0.01906 0.59795 0.01107
 C1487 C 0.00219 0.64267 0.04626
 C1488 C 0.01527 0.65402 0.05455
 C1489 C 0.03420 0.65025 0.05135
 C1490 C 0.03981 0.63509 0.04002
 C1491 C 0.04720 0.66177 0.05951
 C1492 C 0.04154 0.67685 0.07076
 C1493 C 0.02275 0.68066 0.07418
 C1494 C 0.00969 0.66911 0.06598
 H1495 H 0.04673 0.60596 0.01743
 H1496 H -0.01984 0.61940 0.02836
 H1497 H -0.01013 0.59365 0.00788
 H1498 H -0.01234 0.64560 0.04864
 H1499 H 0.05434 0.63220 0.03761
 H1500 H 0.06176 0.65916 0.05713
 H1501 H 0.05190 0.68564 0.07666
 H1502 H -0.00482 0.67168 0.06871
 C1503 C 0.52033 0.11690 0.51724
 C1504 C 0.51993 0.13171 0.53020
 C1505 C 0.53662 0.13895 0.53671
 C1506 C 0.55337 0.13110 0.53041
 C1507 C 0.55364 0.11619 0.51784
 C1508 C 0.53719 0.10897 0.51108
 C1509 C 0.53634 0.15384 0.54949
 C1510 C 0.51958 0.16146 0.55612
 C1511 C 0.50289 0.15398 0.54996
 C1512 C 0.50315 0.13927 0.53694
 C1513 C 0.48620 0.16137 0.55696
 C1514 C 0.48602 0.17616 0.56975
 C1515 C 0.50252 0.18408 0.57568
 C1516 C 0.51929 0.17649 0.56879
 H1517 H 0.50757 0.11127 0.51230
 H1518 H 0.56627 0.13642 0.53532
 H1519 H 0.56682 0.11041 0.51326
 H1520 H 0.54916 0.15943 0.55433
 H1521 H 0.49033 0.13365 0.53211
 H1522 H 0.47327 0.15570 0.55256
 H1523 H 0.47288 0.18132 0.57506
 H1524 H 0.53214 0.18247 0.57296
 C1525 C -0.02095 0.12251 0.48521
 C1526 C -0.02067 0.13790 0.47375
 C1527 C -0.03739 0.14559 0.46729
 C1528 C -0.05405 0.13765 0.47222
 C1529 C -0.05418 0.12215 0.48335
 C1530 C -0.03768 0.11449 0.48998
 C1531 C -0.03719 0.16104 0.45596
 C1532 C -0.02048 0.16876 0.45078
 C1533 C -0.00375 0.16089 0.45696
 C1534 C -0.00395 0.14559 0.46852
 C1535 C 0.01292 0.16838 0.45136
 C1536 C 0.01305 0.18352 0.43975
 C1537 C -0.00351 0.19165 0.43367
 C1538 C -0.02025 0.18417 0.43937
 H1539 H -0.00814 0.11656 0.49009
 H1540 H -0.06698 0.14336 0.46738
 H1541 H -0.06726 0.11630 0.48697
 H1542 H -0.05003 0.16695 0.45107
 H1543 H 0.00889 0.13961 0.47333
 H1544 H 0.02588 0.16238 0.45578
 H1545 H 0.02618 0.18864 0.43527
 H1546 H -0.03314 0.19036 0.43501
 C1547 C 0.48488 0.61579 0.98563
 C1548 C 0.48721 0.62885 0.97176
 C1549 C 0.48088 0.62491 0.95376
 C1550 C 0.47243 0.60806 0.94990
 C1551 C 0.46983 0.59538 0.96381
 C1552 C 0.47586 0.59916 0.98178
 C1553 C 0.48271 0.63800 0.93997
 C1554 C 0.49038 0.65522 0.94398
 C1555 C 0.49669 0.65927 0.96193
 C1556 C 0.49525 0.64598 0.97567
 C1557 C 0.50404 0.67669 0.96587
 C1558 C 0.50480 0.69007 0.95226
 C1559 C 0.49841 0.68621 0.93439
 C1560 C 0.49146 0.66859 0.93035
 H1561 H 0.48936 0.61888 0.99952
 H1562 H 0.46750 0.60485 0.93620
 H1563 H 0.46302 0.58256 0.96049
 H1564 H 0.47778 0.63494 0.92622
 H1565 H 0.50002 0.64912 0.98947
 H1566 H 0.50890 0.68009 0.97955
 H1567 H 0.50998 0.70360 0.95588
 H1568 H 0.48677 0.66529 0.91657
 C1569 C 0.51488 0.88216 0.98896
 C1570 C 0.51411 0.86660 0.97701
 C1571 C 0.53058 0.85714 0.97147
 C1572 C 0.54746 0.86326 0.97797
 C1573 C 0.54812 0.87888 0.98953
 C1574 C 0.53192 0.88855 0.99498
 C1575 C 0.53002 0.84196 0.95919
 C1576 C 0.51326 0.83631 0.95198
 C1577 C 0.49673 0.84563 0.95749
 C1578 C 0.49723 0.86064 0.97012
 C1579 C 0.48003 0.83984 0.95013
 C1580 C 0.47974 0.82510 0.93730
 C1581 C 0.49614 0.81585 0.93167
 C1582 C 0.51283 0.82150 0.93922
 H1583 H 0.50237 0.88974 0.99293
 H1584 H 0.56018 0.85614 0.97389
 H1585 H 0.56139 0.88349 0.99413
 H1586 H 0.54269 0.83483 0.95487
 H1587 H 0.48459 0.86785 0.97433
 H1588 H 0.46722 0.84679 0.95420
 H1589 H 0.46671 0.82113 0.93153
 H1590 H 0.52552 0.81419 0.93534
 C1591 C 0.04236 0.39399 0.47514
 C1592 C 0.03682 0.37996 0.46277
 C1593 C 0.01807 0.37884 0.45796
 C1594 C 0.00524 0.39174 0.46539
 C1595 C 0.01076 0.40528 0.47797
 C1596 C 0.02925 0.40637 0.48311
 C1597 C 0.01228 0.36454 0.44623
 C1598 C 0.02485 0.35097 0.43960
 C1599 C 0.04359 0.35197 0.44432
 C1600 C 0.04952 0.36661 0.45571
 C1601 C 0.05599 0.33807 0.43787
 C1602 C 0.04978 0.32315 0.42719
 C1603 C 0.03110 0.32197 0.42262
 C1604 C 0.01879 0.33614 0.42868
 H1605 H 0.05660 0.39468 0.47929
 H1606 H -0.00916 0.39101 0.46188
 H1607 H 0.00048 0.41480 0.48391
 H1608 H -0.00212 0.36368 0.44266
 H1609 H 0.06387 0.36731 0.45946
 H1610 H 0.07040 0.33855 0.44137
 H1611 H 0.05954 0.31233 0.42286
 H1612 H 0.00443 0.33558 0.42499
 C1613 C 0.38955 0.52168 0.46667
 C1614 C 0.37467 0.53334 0.47221
 C1615 C 0.36958 0.53485 0.49104
 C1616 C 0.37932 0.52448 0.50396
 C1617 C 0.39388 0.51265 0.49829
 C1618 C 0.39915 0.51115 0.47964
 C1619 C 0.35477 0.54655 0.49664
 C1620 C 0.34472 0.55651 0.48360
 C1621 C 0.34964 0.55475 0.46474
 C1622 C 0.36465 0.54332 0.45919
 C1623 C 0.33937 0.56437 0.45170
 C1624 C 0.32442 0.57570 0.45724
 C1625 C 0.31953 0.57795 0.47598
 C1626 C 0.32979 0.56817 0.48910
 H1627 H 0.39334 0.52042 0.45222
 H1628 H 0.37559 0.52540 0.51844
 H1629 H 0.40114 0.50480 0.50857
 H1630 H 0.35097 0.54777 0.51110
 H1631 H 0.36845 0.54208 0.44472
 H1632 H 0.34283 0.56304 0.43718
 H1633 H 0.31654 0.58257 0.44672
 H1634 H 0.32634 0.56978 0.50360
 C1635 C 0.88516 0.01909 -0.02636
 C1636 C 0.86979 0.03021 -0.02124
 C1637 C 0.85864 0.02519 -0.00621
 C1638 C 0.86302 0.00908 0.00338
 C1639 C 0.87833 -0.00196 -0.00182
 C1640 C 0.88961 0.00290 -0.01673
 C1641 C 0.84329 0.03633 -0.00101
 C1642 C 0.83888 0.05237 -0.01077
 C1643 C 0.85002 0.05735 -0.02584
 C1644 C 0.86541 0.04628 -0.03095
 C1645 C 0.84552 0.07331 -0.03563
 C1646 C 0.83004 0.08417 -0.03068
 C1647 C 0.81878 0.07937 -0.01575
 C1648 C 0.82341 0.06345 -0.00578
 H1649 H 0.89357 0.02316 -0.03789
 H1650 H 0.85461 0.00501 0.01492
 H1651 H 0.88119 -0.01433 0.00587
 H1652 H 0.83472 0.03246 0.01052
 H1653 H 0.87396 0.05015 -0.04250
 H1654 H 0.85387 0.07727 -0.04727
 H1655 H 0.82667 0.09612 -0.03883
 H1656 H 0.81504 0.05971 0.00592
 C1657 C 0.61479 0.02325 0.03313
 C1658 C 0.63104 0.03266 0.02939
 C1659 C 0.64571 0.02330 0.01990
 C1660 C 0.64388 0.00477 0.01425
 C1661 C 0.62767 -0.00445 0.01794
 C1662 C 0.61296 0.00467 0.02736
 C1663 C 0.66193 0.03262 0.01606
 C1664 C 0.66355 0.05132 0.02128
 C1665 C 0.64888 0.06072 0.03072
 C1666 C 0.63276 0.05130 0.03482
 C1667 C 0.65054 0.07945 0.03578
 C1668 C 0.66649 0.08884 0.03138
 C1669 C 0.68119 0.07964 0.02199
 C1670 C 0.67960 0.06080 0.01708
 H1671 H 0.60348 0.03050 0.04020
 H1672 H 0.65498 -0.00261 0.00697
 H1673 H 0.62678 -0.01880 0.01349
 H1674 H 0.67314 0.02544 0.00874
 H1675 H 0.62152 0.05850 0.04210
 H1676 H 0.63941 0.08689 0.04295
 H1677 H 0.66715 0.10345 0.03499
 H1678 H 0.69094 0.05343 0.01015
 C1679 C 0.12112 0.51880 0.52349
 C1680 C 0.13435 0.53240 0.52073
 C1681 C 0.13203 0.55006 0.52939
 C1682 C 0.11665 0.55378 0.54074
 C1683 C 0.10363 0.54018 0.54351
 C1684 C 0.10566 0.52256 0.53492
 C1685 C 0.14509 0.56375 0.52661
 C1686 C 0.16063 0.55997 0.51545
 C1687 C 0.16311 0.54227 0.50693
 C1688 C 0.14991 0.52863 0.50953
 C1689 C 0.17885 0.53848 0.49607
 C1690 C 0.19205 0.55205 0.49374
 C1691 C 0.18971 0.56979 0.50204
 C1692 C 0.17380 0.57361 0.51281
 H1693 H 0.12298 0.50525 0.51690
 H1694 H 0.11469 0.56724 0.54749
 H1695 H 0.09183 0.54364 0.55221
 H1696 H 0.14323 0.57731 0.53322
 H1697 H 0.15179 0.51507 0.50293
 H1698 H 0.18108 0.52494 0.48955
 H1699 H 0.20427 0.54848 0.48570
 H1700 H 0.17158 0.58723 0.51913
 C1701 C 0.11869 0.48181 -0.01964
 C1702 C 0.13205 0.46763 -0.01734
 C1703 C 0.12931 0.44980 -0.02523
 C1704 C 0.11329 0.44637 -0.03509
 C1705 C 0.10028 0.46056 -0.03756
 C1706 C 0.10290 0.47843 -0.03007
 C1707 C 0.14274 0.43573 -0.02344
 C1708 C 0.15907 0.43926 -0.01410
 C1709 C 0.16185 0.45701 -0.00611
 C1710 C 0.14828 0.47106 -0.00769
 C1711 C 0.17828 0.46046 0.00312
 C1712 C 0.19190 0.44655 0.00422
 C1713 C 0.18936 0.42886 -0.00379
 C1714 C 0.17277 0.42533 -0.01284
 H1715 H 0.12089 0.49558 -0.01392
 H1716 H 0.11095 0.43279 -0.04117
 H1717 H 0.08812 0.45750 -0.04541
 H1718 H 0.14060 0.42211 -0.02959
 H1719 H 0.15048 0.48472 -0.00166
 H1720 H 0.18069 0.47398 0.00930
 H1721 H 0.20461 0.44979 0.01105
 H1722 H 0.17049 0.41171 -0.01886
 C1723 C 0.61992 0.98515 0.47885
 C1724 C 0.63374 0.97156 0.48129
 C1725 C 0.63235 0.95398 0.47246
 C1726 C 0.61720 0.95029 0.46139
 C1727 C 0.60352 0.96387 0.45902
 C1728 C 0.60471 0.98145 0.46767
 C1729 C 0.64614 0.94039 0.47476
 C1730 C 0.66142 0.94416 0.48568
 C1731 C 0.66284 0.96171 0.49455
 C1732 C 0.64897 0.97528 0.49235
 C1733 C 0.67819 0.96541 0.50540
 C1734 C 0.69207 0.95191 0.50733
 C1735 C 0.69082 0.93441 0.49854
 C1736 C 0.67535 0.93065 0.48778
 H1737 H 0.62117 0.99862 0.48554
 H1738 H 0.61591 0.93689 0.45455
 H1739 H 0.59197 0.96041 0.45048
 H1740 H 0.64504 0.92692 0.46796
 H1741 H 0.65007 0.98875 0.49915
 H1742 H 0.67955 0.97879 0.51226
 H1743 H 0.70395 0.95529 0.51548
 H1744 H 0.67407 0.91714 0.48114
 C1745 C 0.88793 0.97932 0.53749
 C1746 C 0.87353 0.96755 0.53269
 C1747 C 0.86825 0.96580 0.51405
 C1748 C 0.87732 0.97579 0.50057
 C1749 C 0.89133 0.98768 0.50549
 C1750 C 0.89670 0.98966 0.52394
 C1751 C 0.85376 0.95434 0.50915
 C1752 C 0.84412 0.94492 0.52267
 C1753 C 0.84922 0.94670 0.54133
 C1754 C 0.86404 0.95786 0.54623
 C1755 C 0.83923 0.93745 0.55478
 C1756 C 0.82422 0.92675 0.54981
 C1757 C 0.81905 0.92490 0.53125
 C1758 C 0.82926 0.93394 0.51776
 H1759 H 0.89186 0.98094 0.55177
 H1760 H 0.87343 0.97459 0.48624
 H1761 H 0.89800 0.99532 0.49476
 H1762 H 0.84975 0.95307 0.49484
 H1763 H 0.86797 0.95924 0.56055
 H1764 H 0.84289 0.93867 0.56917
 H1765 H 0.81650 0.92016 0.56055
 H1766 H 0.82574 0.93237 0.50336
 C1767 C 0.38666 0.47574 0.02841
 C1768 C 0.37056 0.46593 0.02506
 C1769 C 0.35534 0.47498 0.01693
 C1770 C 0.35655 0.49358 0.01207
 C1771 C 0.37266 0.50318 0.01529
 C1772 C 0.38782 0.49442 0.02355
 C1773 C 0.33918 0.46532 0.01372
 C1774 C 0.33811 0.44660 0.01821
 C1775 C 0.35339 0.43744 0.02610
 C1776 C 0.36947 0.44719 0.02962
 C1777 C 0.35237 0.41861 0.03018
 C1778 C 0.33643 0.40890 0.02635
 C1779 C 0.32107 0.41789 0.01862
 C1780 C 0.32203 0.43685 0.01475
 H1781 H 0.39832 0.46876 0.03457
 H1782 H 0.34504 0.50070 0.00579
 H1783 H 0.37307 0.51759 0.01155
 H1784 H 0.32749 0.47232 0.00756
 H1785 H 0.38115 0.44019 0.03577
 H1786 H 0.36399 0.41132 0.03610
 H1787 H 0.33628 0.39424 0.02915
 H1788 H 0.31025 0.44408 0.00908
 C1789 C 0.51686 0.48302 0.37952
 C1790 C 0.52873 0.48351 0.36409
 C1791 C 0.53422 0.46676 0.35488
 C1792 C 0.52792 0.44985 0.36127
 C1793 C 0.51657 0.44945 0.37683
 C1794 C 0.51100 0.46594 0.38615
 C1795 C 0.54617 0.46707 0.33962
 C1796 C 0.55315 0.48388 0.33365
 C1797 C 0.54793 0.50063 0.34295
 C1798 C 0.53558 0.50038 0.35798
 C1799 C 0.55530 0.51733 0.33715
 C1800 C 0.56775 0.51744 0.32234
 C1801 C 0.57292 0.50089 0.31279
 C1802 C 0.56543 0.48414 0.31859
 H1803 H 0.51278 0.49577 0.38679
 H1804 H 0.53204 0.43689 0.35441
 H1805 H 0.51212 0.43616 0.38161
 H1806 H 0.55028 0.45419 0.33257
 H1807 H 0.53154 0.51326 0.36506
 H1808 H 0.55159 0.53030 0.34419
 H1809 H 0.57350 0.53053 0.31853
 H1810 H 0.56898 0.47127 0.31130
 C1811 C 0.01987 -0.03580 0.88567
 C1812 C 0.03123 -0.03030 0.87114
 C1813 C 0.03153 -0.01142 0.86637
 C1814 C 0.02031 0.00159 0.87602
 C1815 C 0.00888 -0.00403 0.89029
 C1816 C 0.00858 -0.02272 0.89528
 C1817 C 0.04296 -0.00583 0.85197
 C1818 C 0.05382 -0.01894 0.84200
 C1819 C 0.05331 -0.03786 0.84655
 C1820 C 0.04215 -0.04341 0.86121
 C1821 C 0.06382 -0.05095 0.83623
 C1822 C 0.07462 -0.04541 0.82142
 C1823 C 0.07539 -0.02659 0.81678
 C1824 C 0.06502 -0.01343 0.82736
 H1825 H 0.01960 -0.05028 0.88927
 H1826 H 0.02033 0.01611 0.87251
 H1827 H 0.00048 0.00636 0.89761
 H1828 H 0.04322 0.00868 0.84839
 H1829 H 0.04183 -0.05793 0.86475
 H1830 H 0.06348 -0.06553 0.83945
 H1831 H 0.08209 -0.05597 0.81338
 H1832 H 0.06563 0.00116 0.82428
 C1833 C 0.01199 0.02412 0.61738
 C1834 C 0.02503 0.02227 0.63138
 C1835 C 0.04282 0.02938 0.62890
 C1836 C 0.04723 0.03825 0.61255
 C1837 C 0.03414 0.04023 0.59881
 C1838 C 0.01639 0.03329 0.60109
 C1839 C 0.05589 0.02759 0.64281
 C1840 C 0.05138 0.01898 0.65930
 C1841 C 0.03356 0.01204 0.66190
 C1842 C 0.02052 0.01365 0.64790
 C1843 C 0.02908 0.00363 0.67851
 C1844 C 0.04215 0.00203 0.69237
 C1845 C 0.05999 0.00872 0.68988
 C1846 C 0.06446 0.01720 0.67323
 H1847 H -0.00167 0.01882 0.61935
 H1848 H 0.06080 0.04376 0.61043
 H1849 H 0.03800 0.04712 0.58632
 H1850 H 0.06953 0.03301 0.64084
 H1851 H 0.00687 0.00827 0.64988
 H1852 H 0.01546 -0.00166 0.68081
 H1853 H 0.03822 -0.00432 0.70514
 H1854 H 0.07823 0.02214 0.67096
 C1855 C 0.52270 0.53052 0.11028
 C1856 C 0.53234 0.52727 0.12659
 C1857 C 0.52339 0.51885 0.14151
 C1858 C 0.50507 0.51363 0.13980
 C1859 C 0.49568 0.51667 0.12347
 C1860 C 0.50435 0.52515 0.10857
 C1861 C 0.53290 0.51566 0.15786
 C1862 C 0.55139 0.52042 0.15939
 C1863 C 0.56044 0.52857 0.14439
 C1864 C 0.55082 0.53209 0.12815
 C1865 C 0.57902 0.53292 0.14584
 C1866 C 0.58860 0.52912 0.16193
 C1867 C 0.57974 0.52115 0.17704
 C1868 C 0.56102 0.51696 0.17564
 H1869 H 0.52958 0.53689 0.09882
 H1870 H 0.49802 0.50711 0.15107
 H1871 H 0.48150 0.51258 0.12264
 H1872 H 0.52597 0.50928 0.16931
 H1873 H 0.55776 0.53842 0.11668
 H1874 H 0.58622 0.53905 0.13444
 H1875 H 0.60308 0.53217 0.16238
 H1876 H 0.55386 0.51110 0.18721
 C1877 C 0.47657 -0.02948 0.11490
 C1878 C 0.46700 -0.02646 0.13164
 C1879 C 0.47524 -0.01625 0.14608
 C1880 C 0.49278 -0.00914 0.14351
 C1881 C 0.50214 -0.01210 0.12681
 C1882 C 0.49416 -0.02224 0.11232
 C1883 C 0.46583 -0.01327 0.16285
 C1884 C 0.44813 -0.02009 0.16532
 C1885 C 0.43978 -0.03015 0.15087
 C1886 C 0.44930 -0.03336 0.13415
 C1887 C 0.42197 -0.03666 0.15333
 C1888 C 0.41239 -0.03301 0.16985
 C1889 C 0.42050 -0.02292 0.18432
 C1890 C 0.43854 -0.01672 0.18196
 H1891 H 0.47019 -0.03720 0.10382
 H1892 H 0.49928 -0.00129 0.15444
 H1893 H 0.51577 -0.00660 0.12541
 H1894 H 0.47222 -0.00548 0.17391
 H1895 H 0.44290 -0.04111 0.12306
 H1896 H 0.41533 -0.04433 0.14237
 H1897 H 0.39844 -0.03774 0.17110
 H1898 H 0.44514 -0.00921 0.19305
 C1899 C 0.98548 0.48630 0.62201
 C1900 C 0.97118 0.48779 0.63519
 C1901 C 0.95400 0.47987 0.63133
 C1902 C 0.95129 0.47085 0.61437
 C1903 C 0.96554 0.46930 0.60146
 C1904 C 0.98284 0.47674 0.60520
 C1905 C 0.93983 0.48088 0.64452
 C1906 C 0.94261 0.48951 0.66167
 C1907 C 0.95969 0.49758 0.66559
 C1908 C 0.97385 0.49677 0.65228
 C1909 C 0.96233 0.50615 0.68284
 C1910 C 0.94830 0.50646 0.69617
 C1911 C 0.93132 0.49830 0.69246
 C1912 C 0.92857 0.49002 0.67504
 H1913 H 0.99873 0.49210 0.62505
 H1914 H 0.93818 0.46481 0.61116
 H1915 H 0.96292 0.46227 0.58847
 H1916 H 0.92672 0.47469 0.64152
 H1917 H 0.98699 0.50289 0.65530
 H1918 H 0.97531 0.51243 0.68610
 H1919 H 0.95088 0.51279 0.70952
 H1920 H 0.91544 0.48401 0.67184
 C1921 C 0.97558 0.52668 0.88417
 C1922 C 0.96469 0.52247 0.86885
 C1923 C 0.97259 0.51270 0.85352
 C1924 C 0.99119 0.50735 0.85375
 C1925 C 1.00192 0.51159 0.86901
 C1926 C 0.99427 0.52124 0.88443
 C1927 C 0.96180 0.50843 0.83820
 C1928 C 0.94316 0.51372 0.83801
 C1929 C 0.93521 0.52349 0.85332
 C1930 C 0.94602 0.52782 0.86865
 C1931 C 0.91656 0.52876 0.85301
 C1932 C 0.90588 0.52438 0.83770
 C1933 C 0.91366 0.51470 0.82237
 C1934 C 0.93237 0.50945 0.82268
 H1935 H 0.96938 0.53399 0.89593
 H1936 H 0.99745 0.49985 0.84211
 H1937 H 1.01626 0.50734 0.86859
 H1938 H 0.96791 0.50095 0.82645
 H1939 H 0.93993 0.53532 0.88039
 H1940 H 0.91022 0.53625 0.86462
 H1941 H 0.89147 0.52845 0.83793
 H1942 H 0.93865 0.50230 0.81083
 C1943 C 0.47528 0.03750 0.38646
 C1944 C 0.46355 0.03200 0.37213
 C1945 C 0.45891 0.01312 0.37007
 C1946 C 0.46594 0.00011 0.38230
 C1947 C 0.47789 0.00560 0.39614
 C1948 C 0.48280 0.02423 0.39826
 C1949 C 0.44761 0.00741 0.35562
 C1950 C 0.44111 0.02022 0.34290
 C1951 C 0.44573 0.03909 0.34483
 C1952 C 0.45682 0.04490 0.35951
 C1953 C 0.43929 0.05178 0.33193
 C1954 C 0.42844 0.04583 0.31724
 C1955 C 0.42375 0.02709 0.31521
 C1956 C 0.43014 0.01439 0.32820
 H1957 H 0.47920 0.05186 0.38791
 H1958 H 0.46253 -0.01439 0.38090
 H1959 H 0.48342 -0.00483 0.40518
 H1960 H 0.44413 -0.00708 0.35410
 H1961 H 0.46041 0.05936 0.36095
 H1962 H 0.44271 0.06629 0.33313
 H1963 H 0.42389 0.05590 0.30735
 H1964 H 0.42639 -0.00004 0.32701
   
