data_POSCAR
  _audit_creation_date              2014-09-24
  _audit_creation_method            'ToBaCCo'
  _symmetry_space_group_name_H-M    'P1'
  _symmetry_Int_Tables_number       1
  _symmetry_cell_setting            triclinic
  loop_
  _symmetry_equiv_pos_as_xyz
 x,y,z
_cell_length_a 50.2331
_cell_length_b 50.2368
_cell_length_c 50.1719
_cell_angle_alpha 90.254100
_cell_angle_beta 90.326200
_cell_angle_gamma 90.331400
loop_
  _atom_site_label
  _atom_site_type_symbol
  _atom_site_fract_x
  _atom_site_fract_y
  _atom_site_fract_z
C1 C 0.72498 0.66934 0.96804
 H2 H 0.74423 0.66940 0.95846
 C3 C 0.70378 0.68331 0.95668
 H4 H 0.70672 0.69431 0.93841
 C5 C 0.69706 0.65359 1.00259
 H6 H 0.69419 0.64131 1.01995
 C7 C 0.67540 0.66727 0.99194
 H8 H 0.65608 0.66567 1.00131
 N9 N 0.72123 0.65470 0.99048
 C10 C 0.79889 0.63786 1.02573
 H11 H 0.79642 0.61659 1.02804
 C12 C 0.82220 0.65028 1.03455
 H13 H 0.83776 0.63857 1.04377
 C14 C 0.78155 0.67910 1.01092
 H15 H 0.76556 0.69021 1.00183
 C16 C 0.80466 0.69237 1.01952
 H17 H 0.80650 0.71370 1.01700
 Zn18 Zn 0.74914 0.63246 1.00246
 N19 N 0.77928 0.65226 1.01390
 C20 C 0.78398 0.61111 0.96406
 N21 N 0.75863 0.61025 0.97346
 C22 C 0.73944 0.59542 0.96101
 C23 C 0.74550 0.58067 0.93812
 C24 C 0.79087 0.59668 0.94137
 C25 C 0.73304 0.62641 1.05481
 C26 C 0.72389 0.61355 1.07759
 C27 C 0.72488 0.57180 1.05340
 C28 C 0.73408 0.58551 1.03101
 N29 N 0.73754 0.61240 1.03204
 H30 H 0.79881 0.62353 0.97366
 H31 H 0.71930 0.59553 0.96855
 H32 H 0.73008 0.56923 0.92807
 H33 H 0.81102 0.59781 0.93386
 H34 H 0.73624 0.64772 1.05510
 H35 H 0.71996 0.62509 1.09544
 H36 H 0.72176 0.55045 1.05227
 H37 H 0.73821 0.57472 1.01285
 C38 C 0.82520 0.67774 1.03132
 C39 C 0.67870 0.68197 0.96861
 C40 C 0.71956 0.58602 1.07685
 C41 C 0.77145 0.58148 0.92817
 C42 C 0.72953 0.33689 0.52322
 H43 H 0.74878 0.33588 0.53293
 C44 C 0.70797 0.32252 0.53340
 H45 H 0.71062 0.31028 0.55093
 C46 C 0.70204 0.35524 0.48946
 H47 H 0.69952 0.36862 0.47288
 C48 C 0.68003 0.34121 0.49897
 H49 H 0.66076 0.34366 0.48949
 N50 N 0.72618 0.35296 0.50170
 C51 C 0.80470 0.36941 0.46859
 H52 H 0.80349 0.39089 0.46787
 C53 C 0.82719 0.35657 0.45885
 H54 H 0.84339 0.36817 0.45059
 C55 C 0.78488 0.32802 0.47992
 H56 H 0.76821 0.31702 0.48790
 C57 C 0.80709 0.31435 0.47034
 H58 H 0.80755 0.29281 0.47104
 Zn59 Zn 0.75487 0.37512 0.49118
 N60 N 0.78424 0.35510 0.47908
 C61 C 0.79021 0.39413 0.53112
 N62 N 0.76497 0.39577 0.52129
 C63 C 0.74611 0.41053 0.53385
 C64 C 0.75245 0.42453 0.55723
 C65 C 0.79736 0.40782 0.55435
 C66 C 0.73882 0.38408 0.43907
 C67 C 0.72985 0.39825 0.41698
 C68 C 0.73253 0.43872 0.44313
 C69 C 0.74152 0.42376 0.46481
 N70 N 0.74400 0.39687 0.46250
 H71 H 0.80473 0.38177 0.52137
 H72 H 0.72605 0.41104 0.52593
 H73 H 0.73730 0.43602 0.56728
 H74 H 0.81743 0.40616 0.56217
 H75 H 0.74124 0.36273 0.43775
 H76 H 0.72524 0.38780 0.39857
 H77 H 0.73005 0.46004 0.44518
 H78 H 0.74619 0.43359 0.48346
 C79 C 0.82844 0.32882 0.45978
 C80 C 0.68294 0.32494 0.52130
 C81 C 0.72644 0.42576 0.41909
 C82 C 0.77830 0.42303 0.56758
 C83 C 0.22948 -0.16269 0.02284
 H84 H 0.24875 -0.16367 0.03253
 C85 C 0.20794 -0.17704 0.03309
 H86 H 0.21063 -0.18924 0.05064
 C87 C 0.20194 -0.14445 -0.01094
 H88 H 0.19940 -0.13111 -0.02755
 C89 C 0.17995 -0.15846 -0.00136
 H90 H 0.16067 -0.15604 -0.01082
 N91 N 0.22610 -0.14668 0.00128
 C92 C 0.30452 -0.13031 -0.03209
 H93 H 0.30328 -0.10883 -0.03290
 C94 C 0.32701 -0.14316 -0.04180
 H95 H 0.34318 -0.13158 -0.05013
 C96 C 0.28479 -0.17167 -0.02051
 H97 H 0.26815 -0.18265 -0.01245
 C98 C 0.30700 -0.18536 -0.03007
 H99 H 0.30750 -0.20689 -0.02926
 Zn100 Zn 0.25476 -0.12455 -0.00938
 N101 N 0.28411 -0.14460 -0.02149
 C102 C 0.29022 -0.10542 0.03039
 N103 N 0.26494 -0.10379 0.02063
 C104 C 0.24614 -0.08900 0.03323
 C105 C 0.25255 -0.07495 0.05655
 C106 C 0.29745 -0.09169 0.05356
 C107 C 0.23866 -0.11580 -0.06150
 C108 C 0.22958 -0.10177 -0.08363
 C109 C 0.23210 -0.06117 -0.05760
 C110 C 0.24120 -0.07603 -0.03589
 N111 N 0.24380 -0.10291 -0.03812
 H112 H 0.30470 -0.11781 0.02062
 H113 H 0.22605 -0.08850 0.02537
 H114 H 0.23745 -0.06343 0.06664
 H115 H 0.31755 -0.09333 0.06132
 H116 H 0.24119 -0.13714 -0.06273
 H117 H 0.22504 -0.11243 -0.10196
 H118 H 0.22955 -0.03985 -0.05549
 H119 H 0.24585 -0.06613 -0.01727
 C120 C 0.32831 -0.17091 -0.04074
 C121 C 0.18290 -0.17467 0.02101
 C122 C 0.22601 -0.07424 -0.08162
 C123 C 0.27845 -0.07643 0.06683
 C124 C 0.22528 0.16935 0.46730
 H125 H 0.24452 0.16952 0.45773
 C126 C 0.20402 0.18329 0.45601
 H127 H 0.20692 0.19438 0.43778
 C128 C 0.19742 0.15336 0.50180
 H129 H 0.19460 0.14100 0.51911
 C130 C 0.17571 0.16701 0.49122
 H131 H 0.15640 0.16531 0.50059
 N132 N 0.22158 0.15460 0.48969
 C133 C 0.29929 0.13780 0.52483
 H134 H 0.29688 0.11650 0.52699
 C135 C 0.32256 0.15022 0.53378
 H136 H 0.33814 0.13849 0.54293
 C137 C 0.28185 0.17910 0.51032
 H138 H 0.26584 0.19023 0.50129
 C139 C 0.30492 0.19237 0.51905
 H140 H 0.30669 0.21373 0.51669
 Zn141 Zn 0.24957 0.13241 0.50157
 N142 N 0.27966 0.15223 0.51310
 C143 C 0.28447 0.11138 0.46305
 N144 N 0.25914 0.11033 0.47248
 C145 C 0.24002 0.09540 0.46004
 C146 C 0.24615 0.08071 0.43714
 C147 C 0.29141 0.09701 0.44034
 C148 C 0.23351 0.12610 0.55390
 C149 C 0.22447 0.11309 0.57663
 C150 C 0.22565 0.07146 0.55233
 C151 C 0.23474 0.08528 0.52996
 N152 N 0.23805 0.11218 0.53107
 H153 H 0.29923 0.12388 0.47264
 H154 H 0.21989 0.09537 0.46761
 H155 H 0.23079 0.06917 0.42710
 H156 H 0.31155 0.09828 0.43280
 H157 H 0.23660 0.14743 0.55426
 H158 H 0.22048 0.12443 0.59458
 H159 H 0.22261 0.05012 0.55127
 H160 H 0.23890 0.07455 0.51177
 C161 C 0.32548 0.17771 0.53076
 C162 C 0.17895 0.18182 0.46794
 C163 C 0.22032 0.08558 0.57579
 C164 C 0.27209 0.08169 0.42716
 C165 C 0.17015 0.46723 0.22529
 H166 H 0.17029 0.45775 0.24461
 C167 C 0.18408 0.45586 0.20408
 H168 H 0.19514 0.43766 0.20709
 C169 C 0.15421 0.50156 0.19719
 H170 H 0.14186 0.51882 0.19426
 C171 C 0.16786 0.49089 0.17552
 H172 H 0.16616 0.50015 0.15613
 N173 N 0.15542 0.48957 0.22145
 C174 C 0.13843 0.52477 0.29911
 H175 H 0.11714 0.52690 0.29663
 C176 C 0.15079 0.53377 0.32241
 H177 H 0.13902 0.54292 0.33795
 C178 C 0.17978 0.51031 0.28178
 H179 H 0.19095 0.50129 0.26580
 C180 C 0.19300 0.51908 0.30488
 H181 H 0.21435 0.51677 0.30671
 Zn182 Zn 0.13317 0.50149 0.24936
 N183 N 0.15291 0.51305 0.27952
 C184 C 0.11191 0.46306 0.28431
 N185 N 0.11102 0.47247 0.25892
 C186 C 0.09618 0.46003 0.23972
 C187 C 0.08144 0.43715 0.24582
 C188 C 0.09748 0.44037 0.29123
 C189 C 0.12697 0.55372 0.23306
 C190 C 0.11399 0.57642 0.22399
 C191 C 0.07230 0.55218 0.22533
 C192 C 0.08610 0.52984 0.23444
 N193 N 0.11301 0.53093 0.23771
 H194 H 0.12435 0.47266 0.29914
 H195 H 0.09626 0.46758 0.21956
 H196 H 0.06997 0.42710 0.23040
 H197 H 0.09864 0.43286 0.31141
 H198 H 0.14830 0.55407 0.23611
 H199 H 0.12534 0.59434 0.21994
 H200 H 0.05095 0.55113 0.22235
 H201 H 0.07535 0.51168 0.23869
 C202 C 0.17828 0.53080 0.32540
 C203 C 0.18264 0.46766 0.17890
 C204 C 0.08646 0.57560 0.21992
 C205 C 0.08227 0.42719 0.27181
 C206 C -0.16399 0.02369 0.22859
 H207 H -0.16507 0.03335 0.24786
 C208 C -0.17825 0.03392 0.20695
 H209 H -0.19047 0.05142 0.20964
 C210 C -0.14555 -0.00997 0.20112
 H211 H -0.13217 -0.02651 0.19865
 C212 C -0.15946 -0.00043 0.17902
 H213 H -0.15688 -0.00991 0.15976
 N214 N -0.14792 0.00221 0.22529
 C215 C -0.13152 -0.03096 0.30390
 H216 H -0.11004 -0.03167 0.30264
 C217 C -0.14432 -0.04071 0.32644
 H218 H -0.13270 -0.04897 0.34264
 C219 C -0.17293 -0.01961 0.28415
 H220 H -0.18395 -0.01161 0.26748
 C221 C -0.18658 -0.02920 0.30642
 H222 H -0.20812 -0.02849 0.30694
 Zn223 Zn -0.12582 -0.00832 0.25405
 N224 N -0.14585 -0.02046 0.28345
 C225 C -0.10681 0.03151 0.28948
 N226 N -0.10513 0.02173 0.26420
 C227 C -0.09028 0.03428 0.24537
 C228 C -0.07618 0.05756 0.25178
 C229 C -0.09303 0.05464 0.29669
 C230 C -0.11686 -0.06035 0.23803
 C231 C -0.10269 -0.08241 0.22913
 C232 C -0.06219 -0.05628 0.23193
 C233 C -0.07717 -0.03463 0.24083
 N234 N -0.10407 -0.03694 0.24322
 H235 H -0.11925 0.02177 0.30398
 H236 H -0.08973 0.02640 0.22528
 H237 H -0.06459 0.06759 0.23666
 H238 H -0.09470 0.06240 0.31680
 H239 H -0.13823 -0.06166 0.24038
 H240 H -0.11314 -0.10080 0.22452
 H241 H -0.04086 -0.05423 0.22952
 H242 H -0.06733 -0.01601 0.24552
 C243 C -0.17207 -0.03978 0.32776
 C244 C -0.17572 0.02189 0.18186
 C245 C -0.07516 -0.08029 0.22582
 C246 C -0.07769 0.06784 0.27768
 C247 C 0.33639 0.52344 0.72974
 H248 H 0.33538 0.53306 0.74904
 C249 C 0.32205 0.53371 0.70817
 H250 H 0.30983 0.55120 0.71087
 C251 C 0.35472 0.48985 0.70213
 H252 H 0.36809 0.47330 0.69957
 C253 C 0.34073 0.49944 0.68011
 H254 H 0.34319 0.49006 0.66079
 N255 N 0.35244 0.50197 0.72633
 C256 C 0.36892 0.46866 0.80486
 H257 H 0.39041 0.46803 0.80365
 C258 C 0.35609 0.45878 0.82733
 H259 H 0.36770 0.45049 0.84352
 C260 C 0.32752 0.47992 0.78503
 H261 H 0.31651 0.48791 0.76836
 C262 C 0.31385 0.47019 0.80723
 H263 H 0.29230 0.47079 0.80767
 Zn264 Zn 0.37461 0.49138 0.75502
 N265 N 0.35460 0.47918 0.78440
 C266 C 0.39371 0.53118 0.79045
 N267 N 0.39532 0.52141 0.76516
 C268 C 0.41009 0.53399 0.74629
 C269 C 0.42416 0.55730 0.75265
 C270 C 0.40746 0.55434 0.79762
 C271 C 0.38349 0.43938 0.73887
 C272 C 0.39762 0.41733 0.72989
 C273 C 0.43814 0.44343 0.73260
 C274 C 0.42321 0.46507 0.74160
 N275 N 0.39632 0.46277 0.74408
 H276 H 0.38133 0.52141 0.80498
 H277 H 0.41058 0.52612 0.72619
 H278 H 0.43567 0.56736 0.73749
 H279 H 0.40584 0.56210 0.81773
 H280 H 0.36214 0.43807 0.74129
 H281 H 0.38715 0.39895 0.72527
 H282 H 0.45946 0.44548 0.73012
 H283 H 0.43307 0.48368 0.74629
 C284 C 0.32833 0.45958 0.82856
 C285 C 0.32449 0.52173 0.68308
 C286 C 0.42514 0.41944 0.72649
 C287 C 0.42271 0.56758 0.77855
 C288 C 0.67075 0.96787 0.72587
 H289 H 0.67095 0.95827 0.74513
 C290 C 0.68463 0.95663 0.70455
 H291 H 0.69570 0.93841 0.70742
 C292 C 0.65470 1.00233 0.69801
 H293 H 0.64232 1.01959 0.69521
 C294 C 0.66829 0.99179 0.67624
 H295 H 0.66652 1.00117 0.65691
 N296 N 0.65598 0.99020 0.72220
 C297 C 0.63894 1.02499 0.80005
 H298 H 0.61764 1.02705 0.79759
 C299 C 0.65127 1.03395 0.82338
 H300 H 0.63941 1.04299 0.83893
 C301 C 0.68033 1.01076 0.78263
 H302 H 0.69151 1.00185 0.76661
 C303 C 0.69354 1.01950 0.80576
 H304 H 0.71492 1.01724 0.80750
 Zn305 Zn 0.63373 1.00191 0.75021
 N306 N 0.65345 1.01341 0.78040
 C307 C 0.61263 0.96325 0.78499
 N308 N 0.61168 0.97277 0.75965
 C309 C 0.59684 0.96040 0.74042
 C310 C 0.58211 0.93748 0.74643
 C311 C 0.59822 0.94052 0.79183
 C312 C 0.62730 1.05420 0.73416
 C313 C 0.61423 1.07686 0.72509
 C314 C 0.57267 1.05239 0.72622
 C315 C 0.58655 1.03011 0.73533
 N316 N 0.61344 1.03133 0.73869
 H317 H 0.62507 0.97280 0.79985
 H318 H 0.59688 0.96804 0.72029
 H319 H 0.57062 0.92751 0.73098
 H320 H 0.59940 0.93291 0.81198
 H321 H 0.64862 1.05465 0.73728
 H322 H 0.62552 1.09484 0.72111
 H323 H 0.55133 1.05124 0.72313
 H324 H 0.57587 1.01188 0.73948
 C325 C 0.67879 1.03109 0.82636
 C326 C 0.68308 0.96855 0.67944
 C327 C 0.58673 1.07589 0.72089
 C328 C 0.58298 0.92742 0.77238
 C329 C 0.02287 0.22886 -0.16271
 H330 H 0.03251 0.24814 -0.16365
 C331 C 0.03319 0.20737 -0.17706
 H332 H 0.05073 0.21012 -0.18922
 C333 C -0.01082 0.20120 -0.14454
 H334 H -0.02741 0.19858 -0.13122
 C335 C -0.00117 0.17926 -0.15855
 H336 H -0.01057 0.15995 -0.15615
 N337 N 0.00133 0.22539 -0.14673
 C338 C -0.03208 0.30371 -0.13014
 H339 H -0.03289 0.30236 -0.10865
 C340 C -0.04182 0.32624 -0.14295
 H341 H -0.05019 0.34233 -0.13131
 C342 C -0.02048 0.28419 -0.17160
 H343 H -0.01240 0.26762 -0.18265
 C344 C -0.03006 0.30645 -0.18525
 H345 H -0.02925 0.30705 -0.20681
 Zn346 Zn -0.00935 0.25395 -0.12450
 N347 N -0.02146 0.28338 -0.14450
 C348 C 0.03037 0.28932 -0.10516
 N349 N 0.02063 0.26404 -0.10364
 C350 C 0.03323 0.24515 -0.08892
 C351 C 0.05656 0.25147 -0.07486
 C352 C 0.05355 0.29646 -0.09140
 C353 C -0.06139 0.23775 -0.11587
 C354 C -0.08352 0.22866 -0.10187
 C355 C -0.05756 0.23113 -0.06116
 C356 C -0.03586 0.24024 -0.07600
 N357 N -0.03806 0.24288 -0.10292
 H358 H 0.02059 0.30389 -0.11749
 H359 H 0.02537 0.22506 -0.08851
 H360 H 0.06666 0.23629 -0.06342
 H361 H 0.06131 0.31657 -0.09298
 H362 H -0.06261 0.24030 -0.13724
 H363 H -0.10182 0.22413 -0.11258
 H364 H -0.05547 0.22857 -0.03980
 H365 H -0.01727 0.24488 -0.06605
 C366 C -0.04076 0.32767 -0.17073
 C367 C 0.02119 0.18229 -0.17471
 C368 C -0.08155 0.22507 -0.07429
 C369 C 0.06684 0.27736 -0.07625
 C370 C 0.46815 0.22529 0.16981
 H371 H 0.45855 0.24452 0.16991
 C372 C 0.45687 0.20404 0.18378
 H373 H 0.43864 0.20692 0.19483
 C374 C 0.50264 0.19746 0.15392
 H375 H 0.51993 0.19465 0.14158
 C376 C 0.49207 0.17575 0.16761
 H377 H 0.50145 0.15645 0.16594
 N378 N 0.49051 0.22161 0.15508
 C379 C 0.52541 0.29935 0.13786
 H380 H 0.52757 0.29686 0.11656
 C381 C 0.53428 0.32271 0.15018
 H382 H 0.54337 0.33826 0.13836
 C383 C 0.51097 0.28205 0.17930
 H384 H 0.50199 0.26606 0.19052
 C385 C 0.51961 0.30520 0.19247
 H386 H 0.51725 0.30707 0.21384
 Zn387 Zn 0.50228 0.24955 0.13273
 N388 N 0.51375 0.27975 0.15241
 C389 C 0.46368 0.28424 0.11146
 N390 N 0.47317 0.25893 0.11059
 C391 C 0.46074 0.23968 0.09582
 C392 C 0.43778 0.24564 0.08113
 C393 C 0.44091 0.29102 0.09708
 C394 C 0.55458 0.23356 0.12642
 C395 C 0.57726 0.22453 0.11341
 C396 C 0.55288 0.22556 0.07175
 C397 C 0.53056 0.23464 0.08558
 N398 N 0.53173 0.23803 0.11250
 H399 H 0.47327 0.29910 0.12383
 H400 H 0.46836 0.21958 0.09592
 H401 H 0.42775 0.23018 0.06973
 H402 H 0.43332 0.31114 0.09821
 H403 H 0.55499 0.23671 0.14777
 H404 H 0.59523 0.22059 0.12475
 H405 H 0.55176 0.22246 0.05039
 H406 H 0.51235 0.23874 0.07485
 C407 C 0.53125 0.32574 0.17768
 C408 C 0.46880 0.17897 0.18237
 C409 C 0.57636 0.22031 0.08587
 C410 C 0.42774 0.27155 0.08194
 C411 C 0.96697 0.72507 0.67055
 H412 H 0.95744 0.74433 0.67077
 C413 C 0.95571 0.70379 0.68449
 H414 H 0.93754 0.70668 0.69564
 C415 C 1.00132 0.69721 0.65440
 H416 H 1.01856 0.69440 0.64198
 C417 C 0.99076 0.67548 0.66805
 H418 H 1.00008 0.65616 0.66628
 N419 N 0.98927 0.72139 0.65572
 C420 C 1.02435 0.79912 0.63885
 H421 H 1.02642 0.79675 0.61752
 C422 C 1.03336 0.82236 0.65128
 H423 H 1.04246 0.83795 0.63951
 C424 C 1.01002 0.78160 0.68025
 H425 H 1.00105 0.76557 0.69140
 C426 C 1.01882 0.80464 0.69352
 H427 H 1.01657 0.80637 0.71492
 Zn428 Zn 1.00110 0.74940 0.63349
 N429 N 1.01268 0.77946 0.65333
 C430 C 0.96259 0.78433 0.61245
 N431 N 0.97201 0.75900 0.61141
 C432 C 0.95958 0.73991 0.59645
 C433 C 0.93671 0.74606 0.58170
 C434 C 0.93991 0.79130 0.59802
 C435 C 1.05334 0.73330 0.62710
 C436 C 1.07602 0.72432 0.61404
 C437 C 1.05167 0.72570 0.57237
 C438 C 1.02936 0.73472 0.58625
 N439 N 1.03051 0.73792 0.61320
 H440 H 0.97218 0.79907 0.62498
 H441 H 0.96715 0.71979 0.59642
 H442 H 0.92669 0.73072 0.57011
 H443 H 0.93239 0.81144 0.59927
 H444 H 1.05374 0.73630 0.64847
 H445 H 1.09397 0.72029 0.62536
 H446 H 1.05056 0.72276 0.55099
 H447 H 1.01116 0.73894 0.57554
 C448 C 1.03047 0.82522 0.67881
 C449 C 0.96757 0.67870 0.68294
 C450 C 1.07513 0.72031 0.58647
 C451 C 0.92676 0.77200 0.58266
 C452 C 0.52321 0.73037 0.33564
 H453 H 0.53289 0.74962 0.33461
 C454 C 0.53341 0.70881 0.32131
 H455 H 0.55092 0.71148 0.30908
 C456 C 0.48953 0.70285 0.35403
 H457 H 0.47298 0.70031 0.36742
 C458 C 0.49906 0.68083 0.34004
 H459 H 0.48962 0.66156 0.34253
 N460 N 0.50173 0.72700 0.35172
 C461 C 0.46861 0.80544 0.36834
 H462 H 0.46797 0.80414 0.38985
 C463 C 0.45881 0.82796 0.35557
 H464 H 0.45058 0.84407 0.36732
 C465 C 0.47984 0.78581 0.32683
 H466 H 0.48780 0.76919 0.31577
 C467 C 0.47019 0.80805 0.31320
 H468 H 0.47085 0.80853 0.29162
 Zn469 Zn 0.49122 0.75564 0.37393
 N470 N 0.47907 0.78506 0.35394
 C471 C 0.53110 0.79097 0.39302
 N472 N 0.52129 0.76572 0.39465
 C473 C 0.53380 0.74687 0.40949
 C474 C 0.55708 0.75323 0.42364
 C475 C 0.55424 0.79814 0.40684
 C476 C 0.43918 0.73953 0.38290
 C477 C 0.41713 0.73056 0.39710
 C478 C 0.44330 0.73325 0.43762
 C479 C 0.46493 0.74224 0.42263
 N480 N 0.46260 0.74471 0.39570
 H481 H 0.52139 0.80549 0.38058
 H482 H 0.52589 0.72681 0.41000
 H483 H 0.56708 0.73809 0.43523
 H484 H 0.56203 0.81822 0.40522
 H485 H 0.43784 0.74195 0.36152
 H486 H 0.39873 0.72596 0.38664
 H487 H 0.44537 0.73078 0.45897
 H488 H 0.48356 0.74692 0.43247
 C489 C 0.45963 0.82934 0.32776
 C490 C 0.52136 0.68376 0.32378
 C491 C 0.41927 0.72716 0.42465
 C492 C 0.56740 0.77910 0.42219
 C493 C 0.36275 0.00302 0.24943
 C494 C 0.12266 1.00721 0.75100
 C495 C 0.62236 0.50841 0.24951
 C496 C 0.86190 0.50269 0.75041
 C497 C 0.24954 0.36113 0.00323
 C498 C 0.75092 0.12231 1.00725
 C499 C 0.25004 0.62313 0.50764
 C500 C 0.74950 0.86277 0.50312
 C501 C 0.00304 0.24955 0.36225
 C502 C 1.00772 0.75041 0.12213
 C503 C 0.50770 0.25018 0.62241
 C504 C 0.50320 0.74977 0.86229
 C505 C 0.40312 -0.08977 0.26242
 C506 C 0.43353 -0.09334 0.26632
 C507 C 0.42828 -0.10524 0.29396
 C508 C 0.39809 -0.10203 0.29022
 C509 C 0.40527 -0.06212 0.27551
 C510 C 0.40006 -0.07406 0.30314
 C511 C 0.43546 -0.06526 0.27923
 C512 C 0.43042 -0.07758 0.30704
 C513 C 0.44037 -0.12925 0.30509
 C514 C 0.44968 -0.14884 0.31523
 C515 C 0.39151 -0.03841 0.26579
 C516 C 0.37913 -0.01936 0.25823
 H517 H 0.39173 -0.09450 0.24396
 H518 H 0.44743 -0.10157 0.25129
 H519 H 0.38284 -0.11739 0.29482
 H520 H 0.38617 -0.06588 0.31819
 H521 H 0.45066 -0.04986 0.27461
 H522 H 0.44178 -0.07283 0.32551
 C523 C 0.90142 0.40975 0.76399
 C524 C 0.93188 0.40575 0.76685
 C525 C 0.92745 0.39443 0.79488
 C526 C 0.89721 0.39807 0.79217
 C527 C 0.90447 0.43760 0.77650
 C528 C 0.90008 0.42622 0.80451
 C529 C 0.93471 0.43402 0.77918
 C530 C 0.93050 0.42228 0.80738
 C531 C 0.93952 0.37038 0.80596
 C532 C 0.94881 0.35075 0.81603
 C533 C 0.89070 0.46131 0.76680
 C534 C 0.87830 0.48034 0.75923
 H535 H 0.88930 0.40489 0.74603
 H536 H 0.94509 0.39704 0.75148
 H537 H 0.88191 0.38305 0.79760
 H538 H 0.88688 0.43490 0.81991
 H539 H 0.94997 0.44909 0.77374
 H540 H 0.94259 0.42716 0.82535
 C541 C 0.08283 1.08408 0.80403
 C542 C 0.08590 1.11209 0.79167
 C543 C 0.05559 1.11559 0.79312
 C544 C 0.05232 1.08790 0.80563
 C545 C 0.07932 1.07230 0.77591
 C546 C 0.04899 1.07575 0.77734
 C547 C 0.08259 1.09999 0.76340
 C548 C 0.05204 1.10386 0.76499
 C549 C 0.04290 1.13968 0.80348
 C550 C 0.03285 1.15929 0.81289
 C551 C 0.09340 1.04853 0.76677
 C552 C 0.10600 1.02949 0.75955
 H553 H 0.09561 1.07568 0.82000
 H554 H 0.10095 1.12728 0.79764
 H555 H 0.03973 1.08319 0.82312
 H556 H 0.03399 1.06052 0.77136
 H557 H 0.09519 1.10468 0.74592
 H558 H 0.03925 1.11228 0.74904
 C559 C 0.58255 0.58524 0.30258
 C560 C 0.58577 0.61324 0.29026
 C561 C 0.55546 0.61688 0.29166
 C562 C 0.55206 0.58919 0.30414
 C563 C 0.57904 0.57351 0.27444
 C564 C 0.54873 0.57708 0.27583
 C565 C 0.58244 0.60120 0.26197
 C566 C 0.55191 0.60519 0.26351
 C567 C 0.54287 0.64102 0.30201
 C568 C 0.53292 0.66069 0.31140
 C569 C 0.59306 0.54971 0.26529
 C570 C 0.60566 0.53066 0.25806
 H571 H 0.59527 0.57677 0.31856
 H572 H 0.60087 0.62836 0.29627
 H573 H 0.53942 0.58452 0.32160
 H574 H 0.53366 0.56192 0.26981
 H575 H 0.59510 0.60585 0.24451
 H576 H 0.53919 0.61369 0.24755
 C577 C 0.55086 0.43525 0.22493
 C578 C 0.55450 0.42290 0.19681
 C579 C 0.55968 0.39572 0.20975
 C580 C 0.55583 0.40762 0.23772
 C581 C 0.58093 0.44094 0.22615
 C582 C 0.58610 0.41376 0.23909
 C583 C 0.58472 0.42897 0.19821
 C584 C 0.58972 0.40149 0.21101
 C585 C 0.54870 0.37050 0.19969
 C586 C 0.54041 0.34991 0.19032
 C587 C 0.59396 0.46569 0.23477
 C588 C 0.60601 0.48544 0.24153
 H589 H 0.53504 0.44944 0.23073
 H590 H 0.54138 0.42637 0.17931
 H591 H 0.54385 0.39854 0.25385
 H592 H 0.59924 0.41029 0.25658
 H593 H 0.59671 0.43801 0.18204
 H594 H 0.60560 0.38735 0.20521
 C595 C 0.08403 0.92838 0.69942
 C596 C 0.08946 0.90072 0.71166
 C597 C 0.05941 0.89487 0.71114
 C598 C 0.05381 0.92221 0.69875
 C599 C 0.08095 0.93991 0.72764
 C600 C 0.05089 0.93414 0.72715
 C601 C 0.08656 0.91257 0.74002
 C602 C 0.05629 0.90634 0.73938
 C603 C 0.04826 0.86975 0.70101
 C604 C 0.03982 0.84926 0.69156
 C605 C 0.09411 0.96458 0.73629
 C606 C 0.10625 0.98428 0.74306
 H607 H 0.09554 0.93770 0.68307
 H608 H 0.10523 0.88674 0.70523
 H609 H 0.04021 0.92590 0.68166
 H610 H 0.03518 0.94819 0.73359
 H611 H 0.10018 0.90889 0.75709
 H612 H 0.04478 0.89697 0.75570
 C613 C 0.90195 0.59633 0.74076
 C614 C 0.93254 0.60059 0.74118
 C615 C 0.93083 0.61210 0.71291
 C616 C 0.90047 0.60821 0.71236
 C617 C 0.90607 0.56861 0.72843
 C618 C 0.90439 0.58016 0.70018
 C619 C 0.93643 0.57245 0.72900
 C620 C 0.93494 0.58437 0.70059
 C621 C 0.94422 0.63623 0.70344
 C622 C 0.95495 0.65582 0.69467
 C623 C 0.89154 0.54466 0.73659
 C624 C 0.87869 0.52538 0.74295
 H625 H 0.88821 0.60097 0.75738
 H626 H 0.94425 0.60928 0.75795
 H627 H 0.88582 0.62317 0.70545
 H628 H 0.89268 0.57149 0.68340
 H629 H 0.95104 0.55745 0.73592
 H630 H 0.94866 0.57971 0.68396
 C631 C 0.40012 0.09718 0.23704
 C632 C 0.43018 0.10304 0.24128
 C633 C 0.43193 0.11239 0.21223
 C634 C 0.40210 0.10689 0.20787
 C635 C 0.40705 0.06892 0.22763
 C636 C 0.40882 0.07830 0.19859
 C637 C 0.43688 0.07436 0.23202
 C638 C 0.43885 0.08412 0.20282
 C639 C 0.44538 0.13651 0.20282
 C640 C 0.45616 0.15609 0.19408
 C641 C 0.39247 0.04497 0.23571
 C642 C 0.37958 0.02570 0.24201
 H643 H 0.38402 0.10228 0.25121
 H644 H 0.43909 0.11350 0.25874
 H645 H 0.38792 0.12052 0.19787
 H646 H 0.39991 0.06787 0.18112
 H647 H 0.45102 0.06069 0.24202
 H648 H 0.45494 0.07900 0.18865
 C649 C 0.30330 0.39920 -0.07354
 C650 C 0.29067 0.39698 -0.10166
 C651 C 0.29390 0.42722 -0.10491
 C652 C 0.30668 0.42962 -0.07709
 C653 C 0.27551 0.40392 -0.06187
 C654 C 0.27872 0.43417 -0.06505
 C655 C 0.26272 0.40152 -0.08967
 C656 C 0.26609 0.43199 -0.09329
 C657 C 0.30498 0.43949 -0.12888
 C658 C 0.31507 0.44895 -0.14844
 C659 C 0.26583 0.39002 -0.03820
 C660 C 0.25829 0.37756 -0.01917
 H661 H 0.31851 0.38559 -0.06516
 H662 H 0.29567 0.38182 -0.11696
 H663 H 0.32489 0.44131 -0.07219
 H664 H 0.27370 0.44929 -0.04971
 H665 H 0.24451 0.38981 -0.09456
 H666 H 0.25091 0.44561 -0.10170
 C667 C 0.76279 0.90246 0.41007
 C668 C 0.76576 0.93293 0.40610
 C669 C 0.79367 0.92839 0.39464
 C670 C 0.79084 0.89816 0.39825
 C671 C 0.77544 0.90538 0.43790
 C672 C 0.80334 0.90089 0.42639
 C673 C 0.77825 0.93562 0.43435
 C674 C 0.80632 0.93130 0.42247
 C675 C 0.80467 0.94048 0.37054
 C676 C 0.81470 0.94979 0.35087
 C677 C 0.76583 0.89160 0.46167
 C678 C 0.75831 0.87919 0.48074
 H679 H 0.74476 0.89044 0.40526
 H680 H 0.75043 0.94622 0.39745
 H681 H 0.79611 0.88287 0.38316
 H682 H 0.81870 0.88760 0.43499
 H683 H 0.77297 0.95085 0.44949
 H684 H 0.82436 0.94330 0.42730
 C685 C 0.76274 0.08176 1.10010
 C686 C 0.76505 0.05123 1.10383
 C687 C 0.79288 0.05542 1.11605
 C688 C 0.79071 0.08571 1.11268
 C689 C 0.77572 0.07901 1.07256
 C690 C 0.80354 0.08315 1.08483
 C691 C 0.77787 0.04871 1.07588
 C692 C 0.80586 0.05267 1.08852
 C693 C 0.80321 0.04282 1.14025
 C694 C 0.81263 0.03286 1.15996
 C695 C 0.76662 0.09303 1.04869
 C696 C 0.75943 0.10563 1.02958
 H697 H 0.74489 0.09387 1.10457
 H698 H 0.74932 0.03799 1.11194
 H699 H 0.79606 0.10079 1.12806
 H700 H 0.81928 0.09639 1.07675
 H701 H 0.77251 0.03367 1.06046
 H702 H 0.82371 0.04057 1.08402
 C703 C 0.26183 0.58204 0.60029
 C704 C 0.26463 0.55152 0.60375
 C705 C 0.29231 0.55605 0.61620
 C706 C 0.28965 0.58633 0.61311
 C707 C 0.27505 0.57977 0.57283
 C708 C 0.30271 0.58426 0.58533
 C709 C 0.27768 0.54949 0.57587
 C710 C 0.30552 0.55379 0.58873
 C711 C 0.30267 0.54337 0.64034
 C712 C 0.31209 0.53335 0.66001
 C713 C 0.26588 0.59386 0.54902
 C714 C 0.25863 0.60647 0.52995
 H715 H 0.24375 0.59381 0.60476
 H716 H 0.24907 0.53794 0.61162
 H717 H 0.29465 0.60135 0.62867
 H718 H 0.31829 0.59784 0.57748
 H719 H 0.27267 0.53451 0.56027
 H720 H 0.32360 0.54204 0.58425
 C721 C 0.24078 0.58487 0.41337
 C722 C 0.23767 0.55456 0.40812
 C723 C 0.21041 0.55977 0.39519
 C724 C 0.21340 0.58985 0.40007
 C725 C 0.22677 0.58137 0.44029
 C726 C 0.19953 0.58652 0.42730
 C727 C 0.22381 0.55127 0.43550
 C728 C 0.19640 0.55627 0.42212
 C729 C 0.20036 0.54859 0.37003
 C730 C 0.19096 0.54014 0.34950
 C731 C 0.23537 0.59456 0.46499
 C732 C 0.24210 0.60672 0.48469
 H733 H 0.25915 0.59678 0.41006
 H734 H 0.25325 0.54131 0.39992
 H735 H 0.20904 0.60560 0.38525
 H736 H 0.18392 0.59977 0.43545
 H737 H 0.22817 0.53557 0.45037
 H738 H 0.17803 0.54438 0.42543
 C739 C 0.69965 0.08539 0.92749
 C740 C 0.71293 0.08941 0.90005
 C741 C 0.71058 0.05933 0.89483
 C742 C 0.69716 0.05515 0.92195
 C743 C 0.72725 0.08074 0.93991
 C744 C 0.72493 0.05065 0.93477
 C745 C 0.74067 0.08492 0.91279
 C746 C 0.73820 0.05463 0.90719
 C747 C 0.70036 0.04826 0.86968
 C748 C 0.69083 0.03990 0.84917
 C749 C 0.73601 0.09384 0.96461
 C750 C 0.74286 0.10594 0.98431
 H751 H 0.68388 0.09815 0.93610
 H752 H 0.70792 0.10524 0.88553
 H753 H 0.67914 0.04277 0.92544
 H754 H 0.72994 0.03487 0.94934
 H755 H 0.75867 0.09732 0.90931
 H756 H 0.75394 0.04187 0.89853
 C757 C 0.69996 0.90456 0.58137
 C758 C 0.71293 0.90137 0.60921
 C759 C 0.71263 0.93176 0.61269
 C760 C 0.69953 0.93515 0.58516
 C761 C 0.72783 0.90696 0.56912
 C762 C 0.72755 0.93736 0.57255
 C763 C 0.74094 0.90357 0.59664
 C764 C 0.74051 0.93421 0.60049
 C765 C 0.70333 0.94518 0.63688
 C766 C 0.69469 0.95593 0.65651
 C767 C 0.73582 0.89241 0.54513
 C768 C 0.74209 0.87956 0.52583
 H769 H 0.68336 0.89224 0.57323
 H770 H 0.70685 0.88671 0.62454
 H771 H 0.68239 0.94828 0.58071
 H772 H 0.73363 0.95198 0.55719
 H773 H 0.75807 0.89041 0.60107
 H774 H 0.75709 0.94653 0.60865
 C775 C 0.19998 0.40287 0.08145
 C776 C 0.21308 0.40009 0.10928
 C777 C 0.21244 0.43051 0.11248
 C778 C 0.19921 0.43348 0.08496
 C779 C 0.22778 0.40548 0.06908
 C780 C 0.22715 0.43590 0.07223
 C781 C 0.24102 0.40249 0.09659
 C782 C 0.24025 0.43316 0.10016
 C783 C 0.20304 0.44405 0.13655
 C784 C 0.19433 0.45491 0.15608
 C785 C 0.23583 0.39084 0.04517
 C786 C 0.24213 0.37794 0.02592
 H787 H 0.18350 0.39029 0.07348
 H788 H 0.20722 0.38550 0.12476
 H789 H 0.18190 0.44638 0.08044
 H790 H 0.23301 0.45045 0.05672
 H791 H 0.25832 0.38958 0.10109
 H792 H 0.25671 0.44574 0.10815
 C793 C -0.08983 0.26342 0.40184
 C794 C -0.09384 0.26619 0.43235
 C795 C -0.10496 0.29426 0.42796
 C796 C -0.10131 0.29164 0.39769
 C797 C -0.06191 0.27574 0.40494
 C798 C -0.07308 0.30380 0.40060
 C799 C -0.06548 0.27834 0.43522
 C800 C -0.07703 0.30658 0.43106
 C801 C -0.12895 0.30541 0.44005
 C802 C -0.14853 0.31554 0.44934
 C803 C -0.03825 0.26598 0.39114
 C804 C -0.01926 0.25839 0.37871
 H805 H -0.09482 0.24555 0.38967
 H806 H -0.10267 0.25084 0.44552
 H807 H -0.11629 0.29720 0.38237
 H808 H -0.06429 0.31917 0.38742
 H809 H -0.05046 0.27276 0.45049
 H810 H -0.07203 0.32446 0.44321
 C811 C 0.43460 0.77901 0.93498
 C812 C 0.42283 0.80710 0.93045
 C813 C 0.39498 0.79453 0.92761
 C814 C 0.40633 0.76661 0.93236
 C815 C 0.43811 0.77602 0.90473
 C816 C 0.41028 0.76345 0.90188
 C817 C 0.42671 0.80393 0.90003
 C818 C 0.39856 0.79151 0.89736
 C819 C 0.37096 0.80568 0.93963
 C820 C 0.35136 0.81580 0.94888
 C821 C 0.46182 0.76626 0.89102
 C822 C 0.48085 0.75864 0.87866
 H823 H 0.44971 0.77377 0.95029
 H824 H 0.42772 0.82519 0.94234
 H825 H 0.39766 0.75139 0.94577
 H826 H 0.40540 0.74537 0.88997
 H827 H 0.43535 0.81918 0.88661
 H828 H 0.38350 0.79674 0.88201
 C829 C 1.08388 0.80400 0.08150
 C830 C 1.11209 0.79240 0.08546
 C831 C 1.11608 0.79297 0.05514
 C832 C 1.08819 0.80472 0.05098
 C833 C 1.07275 0.77557 0.07873
 C834 C 1.07669 0.77611 0.04840
 C835 C 1.10064 0.76381 0.08288
 C836 C 1.10500 0.76452 0.05233
 C837 C 1.14020 0.80341 0.04254
 C838 C 1.15985 0.81288 0.03258
 C839 C 1.04897 0.76632 0.09278
 C840 C 1.02995 0.75902 0.10540
 H841 H 1.07493 0.82014 0.09362
 H842 H 1.12689 0.79917 0.10057
 H843 H 1.08334 0.82166 0.03772
 H844 H 1.06184 0.76933 0.03333
 H845 H 1.10548 0.74688 0.09616
 H846 H 1.11398 0.74839 0.04021
 C847 C 0.57623 0.27687 0.54866
 C848 C 0.58842 0.30510 0.55216
 C849 C 0.61609 0.29259 0.55537
 C850 C 0.60433 0.26451 0.55165
 C851 C 0.57276 0.27523 0.57900
 C852 C 0.60043 0.26271 0.58222
 C853 C 0.58458 0.30329 0.58269
 C854 C 0.61256 0.29093 0.58571
 C855 C 0.64022 0.30302 0.54277
 C856 C 0.65987 0.31249 0.53283
 C857 C 0.54898 0.26602 0.59306
 C858 C 0.52995 0.25876 0.60569
 H859 H 0.56101 0.27100 0.53359
 H860 H 0.58374 0.32266 0.53965
 H861 H 0.61274 0.24868 0.53876
 H862 H 0.60509 0.24516 0.59474
 H863 H 0.57619 0.31915 0.59557
 H864 H 0.62775 0.29678 0.60083
 C865 C 0.42829 0.19877 0.58489
 C866 C 0.40080 0.21162 0.58955
 C867 C 0.39524 0.21006 0.55944
 C868 C 0.42243 0.19706 0.55460
 C869 C 0.44035 0.22662 0.58084
 C870 C 0.43488 0.22509 0.55072
 C871 C 0.41316 0.23961 0.58568
 C872 C 0.40724 0.23793 0.55535
 C873 C 0.37009 0.19991 0.54838
 C874 C 0.34957 0.19045 0.54001
 C875 C 0.46505 0.23532 0.59394
 C876 C 0.48476 0.24215 0.60604
 H877 H 0.43722 0.18274 0.59714
 H878 H 0.38654 0.20601 0.60541
 H879 H 0.42596 0.17944 0.54170
 H880 H 0.44919 0.23071 0.53491
 H881 H 0.40965 0.25722 0.59860
 H882 H 0.39827 0.25393 0.54309
 C883 C 0.91302 0.73935 0.08621
 C884 C 0.90672 0.73825 0.05593
 C885 C 0.89510 0.71015 0.05957
 C886 C 0.90104 0.71113 0.08963
 C887 C 0.94029 0.72679 0.08074
 C888 C 0.92862 0.69871 0.08433
 C889 C 0.93444 0.72585 0.05066
 C890 C 0.92237 0.69759 0.05410
 C891 C 0.86991 0.69996 0.04866
 C892 C 0.84934 0.69048 0.04042
 C893 C 0.96503 0.73553 0.09373
 C894 C 0.98476 0.74237 0.10578
 H895 H 0.90946 0.75663 0.09956
 H896 H 0.89740 0.75440 0.04415
 H897 H 0.88706 0.70501 0.10555
 H898 H 0.93789 0.68253 0.09611
 H899 H 0.94848 0.73198 0.03480
 H900 H 0.92594 0.68030 0.04076
 C901 C 0.59433 0.71812 0.89277
 C902 C 0.61115 0.73552 0.91215
 C903 C 0.61229 0.71206 0.93164
 C904 C 0.59580 0.69455 0.91245
 C905 C 0.56892 0.72765 0.90671
 C906 C 0.57006 0.70419 0.92620
 C907 C 0.58536 0.74521 0.92588
 C908 C 0.58689 0.72158 0.94562
 C909 C 0.63635 0.70255 0.94512
 C910 C 0.65588 0.69375 0.95592
 C911 C 0.54503 0.73583 0.89209
 C912 C 0.52581 0.74224 0.87917
 H913 H 0.59712 0.71676 0.87087
 H914 H 0.62830 0.74830 0.90651
 H915 H 0.60036 0.67362 0.90704
 H916 H 0.55291 0.69140 0.93182
 H917 H 0.58075 0.76614 0.93125
 H918 H 0.58413 0.72293 0.96752
 C919 C 0.09726 0.23617 0.39895
 C920 C 0.10353 0.24096 0.42888
 C921 C 0.11239 0.21184 0.43119
 C922 C 0.10647 0.20693 0.40149
 C923 C 0.06892 0.22739 0.40641
 C924 C 0.07781 0.19829 0.40875
 C925 C 0.07477 0.23233 0.43611
 C926 C 0.08404 0.20307 0.43865
 C927 C 0.13651 0.20235 0.44458
 C928 C 0.15608 0.19357 0.45532
 C929 C 0.04498 0.23558 0.39188
 C930 C 0.02571 0.24199 0.37904
 H931 H 0.10242 0.24988 0.38245
 H932 H 0.11439 0.25841 0.43728
 H933 H 0.11976 0.19642 0.38737
 H934 H 0.06697 0.18083 0.40034
 H935 H 0.06144 0.24285 0.45019
 H936 H 0.07886 0.18935 0.45514
 C937 C 0.53608 0.18156 0.69513
 C938 C 0.52391 0.15318 0.69262
 C939 C 0.55198 0.14203 0.68832
 C940 C 0.56430 0.16998 0.69105
 C941 C 0.53337 0.18481 0.66481
 C942 C 0.56142 0.17360 0.66056
 C943 C 0.52104 0.15686 0.66207
 C944 C 0.54926 0.14534 0.65800
 C945 C 0.56321 0.11824 0.70070
 C946 C 0.57340 0.09880 0.71024
 C947 C 0.52366 0.20841 0.65089
 C948 C 0.51621 0.22751 0.63853
 H949 H 0.53055 0.19674 0.71023
 H950 H 0.50862 0.14449 0.70594
 H951 H 0.58222 0.17511 0.70311
 H952 H 0.57675 0.18225 0.64724
 H953 H 0.50313 0.15176 0.64999
 H954 H 0.55478 0.13020 0.64286
 C955 C 1.02712 0.65628 0.15527
 C956 C 1.05695 0.64939 0.15842
 C957 C 1.05190 0.64198 0.18763
 C958 C 1.02219 0.64851 0.18470
 C959 C 1.03338 0.68490 0.16433
 C960 C 1.02829 0.67756 0.19356
 C961 C 1.06307 0.67832 0.16729
 C962 C 1.05817 0.67060 0.19671
 C963 C 1.06306 0.61809 0.19990
 C964 C 1.07320 0.59858 0.20935
 C965 C 1.02371 0.70858 0.15051
 C966 C 1.01626 0.72772 0.13821
 H967 H 1.01423 0.65067 0.13807
 H968 H 1.06884 0.63756 0.14408
 H969 H 1.00552 0.63597 0.19199
 H970 H 1.01639 0.68944 0.20784
 H971 H 1.07977 0.69083 0.16000
 H972 H 1.07107 0.67621 0.21390
 C973 C 0.95286 0.82241 0.16606
 C974 C 0.95323 0.82672 0.19662
 C975 C 0.96237 0.85560 0.19222
 C976 C 0.96184 0.85157 0.16185
 C977 C 0.98221 0.81407 0.16738
 C978 C 0.99136 0.84295 0.16297
 C979 C 0.98278 0.81803 0.19775
 C980 C 0.99174 0.84734 0.19359
 C981 C 0.95029 0.87869 0.20519
 C982 C 0.93926 0.89753 0.21502
 C983 C 0.99231 0.79113 0.15257
 C984 C 0.99973 0.77252 0.13937
 H985 H 0.93698 0.81192 0.15460
 H986 H 0.93742 0.82031 0.21060
 H987 H 0.95312 0.86560 0.14722
 H988 H 1.00716 0.84935 0.14897
 H989 H 0.99152 0.80395 0.21233
 H990 H 1.00759 0.85787 0.20506
 C991 C 0.48001 0.31633 0.69812
 C992 C 0.49108 0.34519 0.69643
 C993 C 0.46253 0.35537 0.69265
 C994 C 0.45130 0.32693 0.69458
 C995 C 0.48228 0.31386 0.66769
 C996 C 0.45375 0.32411 0.66397
 C997 C 0.49352 0.34229 0.66575
 C998 C 0.46482 0.35283 0.66223
 C999 C 0.45050 0.37844 0.70569
 C1000 C 0.43951 0.39727 0.71560
 C1001 C 0.49233 0.29092 0.65284
 C1002 C 0.49971 0.27232 0.63963
 H1003 H 0.48638 0.30104 0.71269
 H1004 H 0.50628 0.35414 0.70993
 H1005 H 0.43380 0.32088 0.70658
 H1006 H 0.43850 0.31520 0.65048
 H1007 H 0.51101 0.34832 0.65372
 H1008 H 0.45847 0.36808 0.64760
 C1009 C 0.47171 0.67750 0.79262
 C1010 C 0.48485 0.64973 0.79527
 C1011 C 0.45761 0.63781 0.80250
 C1012 C 0.44429 0.66512 0.79966
 C1013 C 0.47691 0.68248 0.82244
 C1014 C 0.44969 0.67048 0.82961
 C1015 C 0.49023 0.65517 0.82528
 C1016 C 0.46285 0.64288 0.83230
 C1017 C 0.44612 0.61278 0.79260
 C1018 C 0.43587 0.59214 0.78561
 C1019 C 0.48699 0.70697 0.83488
 C1020 C 0.49464 0.72664 0.84651
 H1021 H 0.47547 0.69204 0.77646
 H1022 H 0.49918 0.64090 0.78104
 H1023 H 0.42527 0.66893 0.78902
 H1024 H 0.43533 0.67927 0.84385
 H1025 H 0.50924 0.65137 0.83595
 H1026 H 0.45911 0.62840 0.84852
 C1027 C -0.03893 0.16148 0.33804
 C1028 C -0.05950 0.15970 0.31506
 C1029 C -0.04265 0.13789 0.30196
 C1030 C -0.02221 0.13936 0.32481
 C1031 C -0.02332 0.18242 0.32216
 C1032 C -0.00641 0.16064 0.30907
 C1033 C -0.04377 0.18099 0.29930
 C1034 C -0.02705 0.15877 0.28598
 C1035 C -0.05418 0.11293 0.29191
 C1036 C -0.06446 0.09234 0.28482
 C1037 C -0.01323 0.20684 0.33473
 C1038 C -0.00556 0.22646 0.34643
 H1039 H -0.04373 0.16285 0.35957
 H1040 H -0.08146 0.15906 0.31744
 H1041 H -0.01346 0.12199 0.33520
 H1042 H 0.01554 0.16134 0.30675
 H1043 H -0.05250 0.19839 0.28896
 H1044 H -0.02230 0.15733 0.26445
 C1045 C 0.01725 0.34222 0.32359
 C1046 C 0.04609 0.35273 0.32677
 C1047 C 0.04700 0.35790 0.29663
 C1048 C 0.01827 0.34773 0.29323
 C1049 C 0.02826 0.31420 0.31850
 C1050 C 0.02911 0.31924 0.28833
 C1051 C 0.05696 0.32443 0.32184
 C1052 C 0.05803 0.32988 0.29152
 C1053 C 0.05836 0.38252 0.28597
 C1054 C 0.06872 0.40291 0.27872
 C1055 C 0.01857 0.29040 0.33219
 C1056 C 0.01125 0.27150 0.34497
 H1057 H 0.00038 0.34703 0.33693
 H1058 H 0.05317 0.36674 0.34249
 H1059 H 0.00249 0.35761 0.28134
 H1060 H 0.02201 0.30516 0.27270
 H1061 H 0.07278 0.31461 0.33374
 H1062 H 0.07492 0.32508 0.27820
 C1063 C 0.51734 0.84236 0.82335
 C1064 C 0.54604 0.85308 0.82708
 C1065 C 0.54754 0.85811 0.79694
 C1066 C 0.51895 0.84774 0.79300
 C1067 C 0.52863 0.81439 0.81863
 C1068 C 0.53007 0.81929 0.78847
 C1069 C 0.55720 0.82484 0.82251
 C1070 C 0.55885 0.83014 0.79220
 C1071 C 0.55898 0.88274 0.78638
 C1072 C 0.56939 0.90314 0.77921
 C1073 C 0.51886 0.79059 0.83225
 C1074 C 0.51147 0.77169 0.84501
 H1075 H 0.50015 0.84712 0.83631
 H1076 H 0.55270 0.86721 0.84287
 H1077 H 0.50335 0.85745 0.78073
 H1078 H 0.52339 0.80509 0.77276
 H1079 H 0.57283 0.81518 0.83478
 H1080 H 0.57605 0.82539 0.77926
 C1081 C 0.66148 0.52193 0.15593
 C1082 C 0.65771 0.55027 0.14457
 C1083 C 0.68799 0.55262 0.14108
 C1084 C 0.69200 0.52443 0.15208
 C1085 C 0.66459 0.53405 0.18396
 C1086 C 0.69488 0.53638 0.18054
 C1087 C 0.66062 0.56222 0.17291
 C1088 C 0.69108 0.56473 0.16911
 C1089 C 0.70032 0.56384 0.11722
 C1090 C 0.70982 0.57404 0.09774
 C1091 C 0.65072 0.52435 0.20762
 C1092 C 0.63841 0.51691 0.22678
 H1093 H 0.64915 0.50421 0.15080
 H1094 H 0.64255 0.55608 0.12953
 H1095 H 0.70505 0.50902 0.14322
 H1096 H 0.70999 0.53056 0.19562
 H1097 H 0.64758 0.57766 0.18173
 H1098 H 0.70340 0.58246 0.17426
 C1099 C 0.19502 1.03515 0.68184
 C1100 C 0.19222 1.02298 0.65347
 C1101 C 0.18802 1.05106 0.64226
 C1102 C 0.19103 1.06339 0.67021
 C1103 C 0.16474 1.03265 0.68529
 C1104 C 0.16059 1.06071 0.67402
 C1105 C 0.16171 1.02030 0.65735
 C1106 C 0.15775 1.04853 0.64577
 C1107 C 0.20029 1.06219 0.61833
 C1108 C 0.20974 1.07231 0.59880
 C1109 C 0.15095 1.02304 0.70902
 C1110 C 0.13868 1.01566 0.72823
 H1111 H 0.21017 1.02954 0.69696
 H1112 H 0.20536 1.00759 0.64472
 H1113 H 0.20323 1.08124 0.67523
 H1114 H 0.14745 1.07613 0.68274
 H1115 H 0.14950 1.00247 0.65235
 H1116 H 0.14255 1.05413 0.63069
 C1117 C 0.16489 0.99193 0.84347
 C1118 C 0.16262 0.96276 0.85305
 C1119 C 0.19303 0.96194 0.85629
 C1120 C 0.19556 0.99096 0.84707
 C1121 C 0.16803 0.98176 0.81474
 C1122 C 0.19845 0.98097 0.81791
 C1123 C 0.16556 0.95276 0.82403
 C1124 C 0.19616 0.95178 0.82755
 C1125 C 0.20608 0.94983 0.87937
 C1126 C 0.21599 0.93877 0.89821
 C1127 C 0.15316 0.99184 0.79178
 C1128 C 0.13992 0.99924 0.77316
 H1129 H 0.15186 1.00857 0.84974
 H1130 H 0.14801 0.95516 0.86773
 H1131 H 0.20805 1.00652 0.85683
 H1132 H 0.21300 0.98858 0.80318
 H1133 H 0.15309 0.93716 0.81431
 H1134 H 0.20917 0.93513 0.82126
 C1135 C 0.66564 0.49415 0.34179
 C1136 C 0.66222 0.46541 0.35228
 C1137 C 0.69262 0.46322 0.35490
 C1138 C 0.69630 0.49182 0.34477
 C1139 C 0.66767 0.48301 0.31331
 C1140 C 0.69807 0.48086 0.31586
 C1141 C 0.66405 0.45444 0.32351
 C1142 C 0.69462 0.45210 0.32642
 C1143 C 0.70565 0.45117 0.37803
 C1144 C 0.71555 0.44016 0.39689
 C1145 C 0.65282 0.49307 0.29033
 C1146 C 0.63960 0.50046 0.27169
 H1147 H 0.65356 0.51157 0.34784
 H1148 H 0.64762 0.45894 0.36750
 H1149 H 0.70971 0.50705 0.35381
 H1150 H 0.71262 0.48733 0.30060
 H1151 H 0.65065 0.43917 0.31452
 H1152 H 0.70669 0.43467 0.32035
 C1153 C 0.82663 0.44825 0.67247
 C1154 C 0.79658 0.44605 0.66576
 C1155 C 0.80222 0.45762 0.63805
 C1156 C 0.83211 0.45966 0.64446
 C1157 C 0.82215 0.47667 0.68286
 C1158 C 0.82778 0.48823 0.65515
 C1159 C 0.79224 0.47467 0.67655
 C1160 C 0.79769 0.48606 0.64837
 C1161 C 0.79232 0.44625 0.61293
 C1162 C 0.78534 0.43610 0.59222
 C1163 C 0.83456 0.48663 0.70745
 C1164 C 0.84616 0.49420 0.72719
 H1165 H 0.83865 0.43280 0.68264
 H1166 H 0.78363 0.42857 0.66984
 H1167 H 0.84841 0.45339 0.63101
 H1168 H 0.84075 0.50569 0.65107
 H1169 H 0.77600 0.48097 0.69006
 H1170 H 0.78568 0.50148 0.63816
 C1171 C 0.32846 -0.01135 0.15418
 C1172 C 0.33259 -0.03995 0.14351
 C1173 C 0.30268 -0.04183 0.13718
 C1174 C 0.29834 -0.01335 0.14748
 C1175 C 0.32283 -0.02284 0.18192
 C1176 C 0.29289 -0.02468 0.17569
 C1177 C 0.32712 -0.05130 0.17155
 C1178 C 0.29704 -0.05334 0.16492
 C1179 C 0.29266 -0.05318 0.11210
 C1180 C 0.28558 -0.06334 0.09142
 C1181 C 0.33534 -0.01294 0.20648
 C1182 C 0.34699 -0.00541 0.22620
 H1183 H 0.34151 0.00604 0.15004
 H1184 H 0.34882 -0.04634 0.13003
 H1185 H 0.28639 0.00212 0.13728
 H1186 H 0.27673 -0.01828 0.18923
 H1187 H 0.33908 -0.06681 0.18170
 H1188 H 0.28401 -0.07074 0.16905
 C1189 C 0.32350 0.01651 0.34207
 C1190 C 0.32714 0.04515 0.35297
 C1191 C 0.29700 0.04658 0.35781
 C1192 C 0.29315 0.01806 0.34726
 C1193 C 0.31893 0.02799 0.31409
 C1194 C 0.28878 0.02937 0.31881
 C1195 C 0.32273 0.05648 0.32472
 C1196 C 0.29242 0.05807 0.32984
 C1197 C 0.28631 0.05788 0.38246
 C1198 C 0.27903 0.06819 0.40286
 C1199 C 0.33265 0.01838 0.29028
 C1200 C 0.34546 0.01114 0.27138
 H1201 H 0.33644 -0.00069 0.34683
 H1202 H 0.34283 0.05173 0.36726
 H1203 H 0.28086 0.00239 0.35682
 H1204 H 0.27317 0.02276 0.30445
 H1205 H 0.33502 0.07219 0.31522
 H1206 H 0.27950 0.07529 0.32508
 C1207 C 0.78926 0.52201 0.82349
 C1208 C 0.79926 0.51656 0.85229
 C1209 C 0.79621 0.54629 0.85881
 C1210 C 0.78600 0.55195 0.83048
 C1211 C 0.81809 0.52768 0.81507
 C1212 C 0.81501 0.55739 0.82165
 C1213 C 0.82826 0.52207 0.84342
 C1214 C 0.82503 0.55189 0.85027
 C1215 C 0.78557 0.55761 0.88346
 C1216 C 0.77833 0.56795 0.90387
 C1217 C 0.83179 0.51807 0.79125
 C1218 C 0.84459 0.51081 0.77235
 H1219 H 0.77471 0.50960 0.81216
 H1220 H 0.79266 0.49990 0.86516
 H1221 H 0.76847 0.56435 0.82545
 H1222 H 0.82163 0.57408 0.80881
 H1223 H 0.84579 0.50968 0.84849
 H1224 H 0.83966 0.56427 0.86152
 C1225 C 0.15763 0.66624 0.51829
 C1226 C 0.14328 0.65858 0.54442
 C1227 C 0.14147 0.68824 0.55173
 C1228 C 0.15544 0.69614 0.52576
 C1229 C 0.18441 0.66509 0.53318
 C1230 C 0.18265 0.69475 0.54047
 C1231 C 0.17038 0.65725 0.55913
 C1232 C 0.16826 0.68707 0.56660
 C1233 C 0.11758 0.70043 0.56294
 C1234 C 0.09809 0.70981 0.57313
 C1235 C 0.20811 0.65135 0.52351
 C1236 C 0.22729 0.63912 0.51610
 H1237 H 0.15355 0.65751 0.49830
 H1238 H 0.12684 0.64384 0.54614
 H1239 H 0.14900 0.71227 0.51216
 H1240 H 0.19913 0.70945 0.53874
 H1241 H 0.17678 0.64113 0.57277
 H1242 H 0.17237 0.69577 0.58659
 C1243 C 0.65802 0.16347 1.01923
 C1244 C 0.64524 0.15783 1.04665
 C1245 C 0.64264 0.18795 1.05130
 C1246 C 0.65505 0.19383 1.02402
 C1247 C 0.68550 0.16459 1.03279
 C1248 C 0.68297 0.19472 1.03742
 C1249 C 0.67304 0.15876 1.06005
 C1250 C 0.67014 0.18905 1.06485
 C1251 C 0.61879 0.20025 1.06246
 C1252 C 0.59931 0.20972 1.07260
 C1253 C 0.70914 0.15074 1.02313
 C1254 C 0.72825 0.13841 1.01572
 H1255 H 0.65332 0.15279 1.00034
 H1256 H 0.62947 0.14279 1.05055
 H1257 H 0.64736 0.20839 1.00933
 H1258 H 0.69877 0.20971 1.03351
 H1259 H 0.68069 0.14421 1.07478
 H1260 H 0.67486 0.19971 1.08374
 C1261 C 0.82597 0.16245 0.95373
 C1262 C 0.82821 0.19288 0.94966
 C1263 C 0.85632 0.19226 0.96186
 C1264 C 0.85436 0.16200 0.96578
 C1265 C 0.81473 0.16743 0.98171
 C1266 C 0.84283 0.16679 0.99394
 C1267 C 0.81662 0.19769 0.97782
 C1268 C 0.84515 0.19731 0.98986
 C1269 C 0.87943 0.20523 0.94976
 C1270 C 0.89827 0.21509 0.93870
 C1271 C 0.79174 0.15265 0.99181
 C1272 C 0.77310 0.13948 0.99923
 H1273 H 0.81784 0.14798 0.93896
 H1274 H 0.82245 0.20376 0.93131
 H1275 H 0.87012 0.14746 0.96071
 H1276 H 0.84856 0.15589 1.01227
 H1277 H 0.80082 0.21219 0.98289
 H1278 H 0.85333 0.21180 1.00458
 C1279 C 0.31277 0.69630 0.46956
 C1280 C 0.33833 0.70402 0.48538
 C1281 C 0.35521 0.69340 0.46225
 C1282 C 0.33004 0.68593 0.44629
 C1283 C 0.31368 0.66849 0.48211
 C1284 C 0.33061 0.65796 0.45899
 C1285 C 0.33882 0.67593 0.49813
 C1286 C 0.35607 0.66559 0.47481
 C1287 C 0.37828 0.70642 0.45014
 C1288 C 0.39711 0.71630 0.43909
 C1289 C 0.29074 0.65364 0.49222
 C1290 C 0.27214 0.64041 0.49964
 H1291 H 0.29470 0.70876 0.46753
 H1292 H 0.34180 0.72312 0.49609
 H1293 H 0.32667 0.69017 0.42484
 H1294 H 0.32719 0.63887 0.44823
 H1295 H 0.34214 0.67165 0.51957
 H1296 H 0.37412 0.65310 0.47684
 C1297 C 0.67591 0.79312 0.47464
 C1298 C 0.64770 0.79842 0.48591
 C1299 C 0.63750 0.80309 0.45739
 C1300 C 0.66525 0.79760 0.44594
 C1301 C 0.68212 0.82303 0.47682
 C1302 C 0.67185 0.82765 0.44832
 C1303 C 0.65437 0.82851 0.48826
 C1304 C 0.64380 0.83298 0.45961
 C1305 C 0.61250 0.79317 0.44580
 C1306 C 0.59191 0.78617 0.43546
 C1307 C 0.70661 0.83545 0.48694
 C1308 C 0.72631 0.84705 0.49460
 H1309 H 0.68942 0.77689 0.48095
 H1310 H 0.63746 0.78628 0.50123
 H1311 H 0.66944 0.78477 0.42840
 H1312 H 0.68204 0.83980 0.43297
 H1313 H 0.65017 0.84136 0.50578
 H1314 H 0.63036 0.84928 0.45332
 C1315 C 0.17583 0.29135 -0.02472
 C1316 C 0.14772 0.29669 -0.01322
 C1317 C 0.13728 0.30128 -0.04167
 C1318 C 0.16492 0.29576 -0.05334
 C1319 C 0.18207 0.32127 -0.02268
 C1320 C 0.17156 0.32581 -0.05110
 C1321 C 0.15442 0.32679 -0.01101
 C1322 C 0.14361 0.33118 -0.03958
 C1323 C 0.11217 0.29137 -0.05301
 C1324 C 0.09146 0.28439 -0.06316
 C1325 C 0.20663 0.33372 -0.01276
 C1326 C 0.22635 0.34535 -0.00522
 H1327 H 0.18939 0.27513 -0.01849
 H1328 H 0.13761 0.28460 0.00222
 H1329 H 0.16896 0.28287 -0.07088
 H1330 H 0.18162 0.33791 -0.06658
 H1331 H 0.15038 0.33969 0.00651
 H1332 H 0.13012 0.34747 -0.04579
 C1333 C 0.34196 0.32098 0.01572
 C1334 C 0.35380 0.32603 0.04382
 C1335 C 0.35819 0.29595 0.04688
 C1336 C 0.34669 0.29068 0.01889
 C1337 C 0.31432 0.31758 0.02827
 C1338 C 0.31859 0.28748 0.03128
 C1339 C 0.32590 0.32279 0.05623
 C1340 C 0.33055 0.29255 0.05944
 C1341 C 0.38291 0.28544 0.05817
 C1342 C 0.40337 0.27831 0.06846
 C1343 C 0.29045 0.33116 0.01865
 C1344 C 0.27151 0.34388 0.01138
 H1345 H 0.34638 0.33282 -0.00237
 H1346 H 0.36852 0.34180 0.04907
 H1347 H 0.35554 0.27735 0.00367
 H1348 H 0.30379 0.27179 0.02600
 H1349 H 0.31711 0.33612 0.07149
 H1350 H 0.32614 0.28072 0.07754
 C1351 C 0.84195 0.82320 0.51676
 C1352 C 0.85295 0.82712 0.54537
 C1353 C 0.85762 0.79698 0.54720
 C1354 C 0.84697 0.79285 0.51870
 C1355 C 0.81402 0.81892 0.52835
 C1356 C 0.81857 0.78876 0.53013
 C1357 C 0.82474 0.82300 0.55682
 C1358 C 0.82968 0.79269 0.55881
 C1359 C 0.88218 0.78627 0.55864
 C1360 C 0.90253 0.77897 0.56905
 C1361 C 0.79027 0.83265 0.51862
 C1362 C 0.77141 0.84546 0.51129
 H1363 H 0.84673 0.83591 0.49936
 H1364 H 0.86732 0.84280 0.55174
 H1365 H 0.85641 0.78032 0.50317
 H1366 H 0.80412 0.77316 0.52374
 H1367 H 0.81536 0.83553 0.57240
 H1368 H 0.82491 0.78001 0.57622
   
