data_POSCAR
  _audit_creation_date              2014-09-24
  _audit_creation_method            'ToBaCCo'
  _symmetry_space_group_name_H-M    'P1'
  _symmetry_Int_Tables_number       1
  _symmetry_cell_setting            triclinic
  loop_
  _symmetry_equiv_pos_as_xyz
 x,y,z
_cell_length_a 70.1478
_cell_length_b 70.0665
_cell_length_c 69.9271
_cell_angle_alpha 89.992300
_cell_angle_beta 89.976600
_cell_angle_gamma 90.011900
loop_
  _atom_site_label
  _atom_site_type_symbol
  _atom_site_fract_x
  _atom_site_fract_y
  _atom_site_fract_z
C1 C 0.35898 1.35986 0.33556
 N2 N 0.36669 1.34401 0.34369
 C3 C 0.35880 1.33607 0.35956
 N4 N 0.34297 1.34414 0.36731
 C5 C 0.33501 1.35999 0.35943
 N6 N 0.34315 1.36772 0.34356
 C7 C 0.35897 0.85982 0.83650
 N8 N 0.36671 0.84394 0.84449
 C9 C 0.35884 0.83591 0.86032
 N10 N 0.34302 0.84394 0.86813
 C11 C 0.33504 0.85983 0.86035
 N12 N 0.34315 0.86765 0.84451
 C13 C 0.85929 1.35947 0.83531
 N14 N 0.86704 1.34361 0.84340
 C15 C 0.85927 1.33570 0.85935
 N16 N 0.84353 1.34381 0.86722
 C17 C 0.83558 1.35965 0.85937
 N18 N 0.84354 1.36737 0.84343
 C19 C 0.85940 0.85956 0.33566
 N20 N 0.86710 0.84365 0.34369
 C21 C 0.85926 0.83565 0.35956
 N22 N 0.84349 0.84372 0.36742
 C23 C 0.83558 0.85962 0.35963
 N24 N 0.84362 0.86742 0.34377
 C25 C 0.64064 0.64067 0.33523
 N26 N 0.65647 0.63285 0.34328
 C27 C 0.66453 0.64067 0.35911
 N28 N 0.65661 0.65655 0.36693
 C29 C 0.64079 0.66458 0.35913
 N30 N 0.63293 0.65656 0.34329
 C31 C 0.64179 0.14096 0.83493
 N32 N 0.65766 0.13314 0.84291
 C33 C 0.66578 0.14089 0.85878
 N34 N 0.65777 0.15672 0.86666
 C35 C 0.64192 0.16475 0.85892
 N36 N 0.63405 0.15678 0.84308
 C37 C 1.14014 0.63992 0.83626
 N38 N 1.13241 0.65581 0.84425
 C39 C 1.14028 0.66384 0.86008
 N40 N 1.15610 0.65581 0.86788
 C41 C 1.16402 0.63992 0.86008
 N42 N 1.15596 0.63208 0.84426
 C43 C 1.14153 0.14033 0.33523
 N44 N 1.13373 0.15616 0.34330
 C45 C 1.14154 0.16420 0.35914
 N46 N 1.15739 0.15624 0.36695
 C47 C 1.16545 0.14041 0.35914
 N48 N 1.15739 0.13258 0.34328
 C49 C 0.64085 1.36033 0.66338
 N50 N 0.65677 1.36801 0.65542
 C51 C 0.66480 1.36015 0.63955
 N52 N 0.65664 1.34439 0.63170
 C53 C 0.64071 1.33652 0.63948
 N54 N 0.63293 1.34457 0.65532
 C55 C 0.64047 0.85964 1.16479
 N56 N 0.65638 0.86736 1.15678
 C57 C 0.66439 0.85953 1.14092
 N58 N 0.65634 0.84374 1.13304
 C59 C 0.64044 0.83582 1.14081
 N60 N 0.63263 0.84385 1.15666
 C61 C 1.14116 1.35980 1.16415
 N62 N 1.15709 1.36748 1.15614
 C63 C 1.16514 1.35965 1.14028
 N64 N 1.15701 1.34388 1.13242
 C65 C 1.14109 1.33599 1.14018
 N66 N 1.13329 1.34403 1.15603
 C67 C 1.14158 0.85895 0.66424
 N68 N 1.15749 0.86664 0.65627
 C69 C 1.16554 0.85878 0.64042
 N70 N 1.15739 0.84300 0.63258
 C71 C 1.14147 0.83512 0.64035
 N72 N 1.13368 0.84318 0.65619
 C73 C 0.35831 0.64045 0.66408
 N74 N 0.36622 0.65627 0.65614
 C75 C 0.35843 0.66447 0.64037
 N76 N 0.34250 0.65666 0.63255
 C77 C 0.33434 0.64083 0.64028
 N78 N 0.34238 0.63284 0.65607
 C79 C 0.35957 0.13934 1.16317
 N80 N 0.36754 0.15510 1.15518
 C81 C 0.35980 0.16326 1.13937
 N82 N 0.34385 0.15549 1.13156
 C83 C 0.33563 0.13971 1.13935
 N84 N 0.34362 0.13175 1.15518
 C85 C 0.85951 0.63998 1.16417
 N86 N 0.86741 0.65579 1.15612
 C87 C 0.85966 0.66389 1.14028
 N88 N 0.84377 0.65603 1.13245
 C89 C 0.83566 0.64023 1.14026
 N90 N 0.84362 0.63233 1.15611
 C91 C 0.85827 0.14052 0.66538
 N92 N 0.86618 0.15630 0.65730
 C93 C 0.85841 0.16439 0.64146
 N94 N 0.84250 0.15654 0.63368
 C95 C 0.83433 0.14076 0.64151
 N96 N 0.84235 0.13288 0.65736
 C97 C 1.35891 0.35864 0.66518
 N98 N 1.34311 0.36653 0.65716
 C99 C 1.33500 0.35876 0.64134
 N100 N 1.34284 0.34286 0.63350
 C101 C 1.35865 0.33470 0.64125
 N102 N 1.36655 0.34272 0.65709
 C103 C 1.35958 0.85899 1.16393
 N104 N 1.36722 0.84303 1.15597
 C105 C 1.35935 0.83499 1.14012
 N106 N 1.34359 0.84317 1.13230
 C107 C 1.33575 0.85912 1.14007
 N108 N 1.34383 0.86691 1.15589
 C109 C 0.86007 0.36030 1.16352
 N110 N 0.84425 0.36817 1.15551
 C111 C 0.83617 0.36040 1.13966
 N112 N 0.84406 0.34453 1.13180
 C113 C 0.85986 0.33645 1.13957
 N114 N 0.86775 0.34441 1.15542
 C115 C 0.85953 0.85945 0.66394
 N116 N 0.86726 0.84356 0.65596
 C117 C 0.85940 0.83553 0.64013
 N118 N 0.84359 0.84357 0.63230
 C119 C 0.83568 0.85947 0.64009
 N120 N 0.84373 0.86730 0.65592
 C121 C 0.64011 0.64009 0.66325
 N122 N 0.63240 0.65596 0.65519
 C123 C 0.64026 0.66390 0.63931
 N124 N 0.65605 0.65579 0.63150
 C125 C 0.66395 0.63992 0.63936
 N126 N 0.65589 0.63218 0.65524
 C127 C 0.64088 1.14132 1.16500
 N128 N 0.63314 1.15722 1.15698
 C129 C 0.64093 1.16530 1.14110
 N130 N 0.65671 1.15721 1.13324
 C131 C 0.66466 1.14132 1.14100
 N132 N 0.65666 1.13349 1.15687
 C133 C 0.14101 0.64141 1.16473
 N134 N 0.13334 0.65735 1.15674
 C135 C 0.14114 0.66539 1.14085
 N136 N 0.15686 0.65722 1.13295
 C137 C 0.16474 0.64129 1.14069
 N138 N 0.15673 0.63350 1.15657
 C139 C 0.13995 1.14045 0.66346
 N140 N 0.15574 1.13264 0.65540
 C141 C 0.16375 1.14049 0.63956
 N142 N 0.15579 1.15638 0.63180
 C143 C 0.13998 1.16445 0.63965
 N144 N 0.13218 1.15634 0.65550
 C145 C 1.35951 0.64034 0.33566
 N146 N 1.36741 0.65618 0.34365
 C147 C 1.35973 0.66424 0.35956
 N148 N 1.34393 0.65630 0.36751
 C149 C 1.33583 0.64049 0.35976
 N150 N 1.34370 0.63262 0.34385
 C151 C 1.35936 1.14099 0.83552
 N152 N 1.36724 1.15683 0.84352
 C153 C 1.35955 1.16496 0.85941
 N154 N 1.34372 1.15700 0.86730
 C155 C 1.33562 1.14117 0.85955
 N156 N 1.34352 1.13329 0.84367
 C157 C 0.85977 0.64008 0.83631
 N158 N 0.86771 0.65586 0.84433
 C159 C 0.85999 0.66391 0.86022
 N160 N 0.84411 0.65602 0.86807
 C161 C 0.83598 0.64025 0.86025
 N162 N 0.84389 0.63238 0.84436
 C163 C 0.85951 1.14056 0.33563
 N164 N 0.86742 1.15639 0.34362
 C165 C 0.85973 1.16456 0.35950
 N166 N 0.84388 1.15663 0.36739
 C167 C 0.83576 1.14081 0.35965
 N168 N 0.84366 1.13290 0.34379
 C169 C 0.64053 0.35896 0.33526
 N170 N 0.65644 0.36672 0.34321
 C171 C 0.66451 0.35890 0.35903
 N172 N 0.65653 0.34310 0.36694
 C173 C 0.64062 0.33508 0.35925
 N174 N 0.63276 0.34314 0.34342
 C175 C 0.64010 0.86044 0.83677
 N176 N 0.65597 0.86816 0.84477
 C177 C 0.66396 0.86027 0.86060
 N178 N 0.65591 0.84445 0.86842
 C179 C 0.64003 0.83654 0.86061
 N180 N 0.63223 0.84462 0.84477
 C181 C 0.14046 0.35895 0.83598
 N182 N 0.15635 0.36672 0.84388
 C183 C 0.16444 0.35889 0.85969
 N184 N 0.15645 0.34306 0.86758
 C185 C 0.14054 0.33505 0.85988
 N186 N 0.13267 0.34313 0.84406
 C187 C 0.14030 0.85984 0.33583
 N188 N 0.15617 0.86762 0.34385
 C189 C 0.16420 0.85982 0.35970
 N190 N 0.15622 0.84399 0.36757
 C191 C 0.14036 0.83600 0.35979
 N192 N 0.13253 0.84401 0.34394
 O193 O 1.06884 1.01914 1.09541
 O194 O 1.09098 1.01930 1.11779
 C195 C 1.07544 1.02570 1.11099
 C196 C 1.06513 1.04121 1.12102
 C197 C 1.07125 1.04763 1.13902
 H198 H 1.08343 1.04096 1.14580
 O199 O 0.93123 0.98121 1.09549
 O200 O 0.90906 0.98108 1.11786
 C201 C 0.92460 0.97468 1.11108
 C202 C 0.93490 0.95918 1.12114
 C203 C 0.92875 0.95275 1.13914
 H204 H 0.91655 0.95941 1.14590
 O205 O 1.01818 1.09521 1.06911
 O206 O 1.01806 1.11757 1.09131
 C207 C 1.02460 1.11081 1.07578
 C208 C 1.04012 1.12090 1.06556
 C209 C 1.04637 1.13893 1.07173
 H210 H 1.03923 1.14587 1.08357
 O211 O 0.98201 0.90505 1.06940
 O212 O 0.98207 0.88276 1.09167
 C213 C 0.97558 0.88947 1.07610
 C214 C 0.96010 0.87935 1.06586
 C215 C 0.95386 0.86133 1.07204
 H216 H 0.96096 0.85441 1.08392
 O217 O 1.09483 1.06949 1.01883
 O218 O 1.11701 1.09180 1.01884
 C219 C 1.11033 1.07624 1.02535
 C220 C 1.12040 1.06606 1.04093
 C221 C 1.13838 1.07223 1.04724
 H222 H 1.14512 1.08438 1.04044
 O223 O 0.90555 0.93069 1.01898
 O224 O 0.88338 0.90837 1.01900
 C225 C 0.89004 0.92394 1.02550
 C226 C 0.87995 0.93410 1.04107
 C227 C 0.86199 0.92786 1.04739
 H228 H 0.85510 0.91599 1.04028
 O229 O 0.98110 1.06891 1.09533
 O230 O 0.98095 1.09115 1.11765
 C231 C 0.97455 1.07558 1.11089
 C232 C 0.95903 1.06532 1.12095
 C233 C 0.95264 1.07152 1.13894
 H234 H 0.95967 1.08341 1.14589
 O235 O 1.01901 0.93141 1.09560
 O236 O 1.01911 0.90926 1.11801
 C237 C 1.02552 0.92480 1.11120
 C238 C 1.04100 0.93512 1.12123
 C239 C 1.04740 0.92901 1.13926
 H240 H 1.04071 0.91683 1.14606
 O241 O 1.09514 0.98202 1.06930
 O242 O 1.11742 0.98213 1.09154
 C243 C 1.11070 0.97559 1.07599
 C244 C 1.12079 0.96006 1.06578
 C245 C 1.13879 0.95383 1.07195
 H246 H 1.14572 0.96097 1.08379
 O247 O 0.90492 1.01827 1.06926
 O248 O 0.88263 1.01819 1.09150
 C249 C 0.88936 1.02471 1.07594
 C250 C 0.87927 1.04022 1.06570
 C251 C 0.86130 1.04652 1.07191
 H252 H 0.85440 1.03945 1.08382
 O253 O 0.93061 1.09469 1.01872
 O254 O 0.90838 1.11694 1.01874
 C255 C 0.92392 1.11023 1.02523
 C256 C 0.93413 1.12032 1.04077
 C257 C 0.92799 1.13833 1.04708
 H258 H 0.91584 1.14506 1.04030
 O259 O 1.06945 0.90534 1.01906
 O260 O 1.09172 0.88313 1.01911
 C261 C 1.07618 0.88983 1.02561
 C262 C 1.06602 0.87979 1.04123
 C263 C 1.07226 0.86186 1.04768
 H264 H 1.08443 0.85514 1.04094
 O265 O 0.93102 1.01843 1.09544
 O266 O 0.90887 1.01835 1.11782
 C267 C 0.92434 1.02492 1.11102
 C268 C 0.93449 1.04054 1.12104
 C269 C 0.92829 1.04695 1.13903
 H270 H 0.91616 1.04018 1.14582
 O271 O 1.06902 0.98193 1.09548
 O272 O 1.09117 0.98205 1.11786
 C273 C 1.07570 0.97547 1.11108
 C274 C 1.06556 0.95988 1.12115
 C275 C 1.07175 0.95358 1.13918
 H276 H 1.08355 0.96072 1.14614
 O277 O 1.01919 0.90525 1.06944
 O278 O 1.01929 0.88297 1.09172
 C279 C 1.02576 0.88975 1.07615
 C280 C 1.04137 0.87978 1.06596
 C281 C 1.04780 0.86185 1.07220
 H282 H 1.04075 0.85488 1.08409
 O283 O 0.98099 1.09497 1.06906
 O284 O 0.98084 1.11733 1.09125
 C285 C 0.97440 1.11049 1.07570
 C286 C 0.95881 1.12043 1.06546
 C287 C 0.95247 1.13844 1.07155
 H288 H 0.95957 1.14548 1.08335
 O289 O 0.90459 1.06846 1.01874
 O290 O 0.88222 1.09056 1.01876
 C291 C 0.88904 1.07507 1.02527
 C292 C 0.87909 1.06482 1.04090
 C293 C 0.86112 1.07093 1.04733
 H294 H 0.85432 1.08306 1.04057
 O295 O 1.09540 0.93164 1.01900
 O296 O 1.11781 0.90957 1.01905
 C297 C 1.11096 0.92507 1.02553
 C298 C 1.12093 0.93537 1.04108
 C299 C 1.13894 0.92933 1.04745
 H300 H 1.14575 0.91721 1.04069
 O301 O 0.98182 0.93123 1.09554
 O302 O 0.98188 0.90906 1.11793
 C303 C 0.97532 0.92454 1.11112
 C304 C 0.95969 0.93466 1.12113
 C305 C 0.95335 0.92844 1.13914
 H306 H 0.96048 0.91664 1.14613
 O307 O 1.01829 1.06911 1.09534
 O308 O 1.01818 1.09134 1.11767
 C309 C 1.02475 1.07584 1.11091
 C310 C 1.04036 1.06575 1.12097
 C311 C 1.04667 1.07197 1.13898
 H312 H 1.03953 1.08378 1.14595
 O313 O 0.90514 0.98105 1.06930
 O314 O 0.88282 0.98091 1.09153
 C315 C 0.88964 0.97445 1.07598
 C316 C 0.87972 0.95882 1.06574
 C317 C 0.86176 0.95238 1.07187
 H318 H 0.85494 0.95912 1.08401
 O319 O 1.09498 1.01924 1.06925
 O320 O 1.11726 1.01939 1.09150
 C321 C 1.11048 1.02583 1.07593
 C322 C 1.12045 1.04142 1.06568
 C323 C 1.13843 1.04777 1.07178
 H324 H 1.14543 1.04068 1.08362
 O325 O 0.93180 0.90471 1.01899
 O326 O 0.90977 0.88226 1.01901
 C327 C 0.92524 0.88912 1.02552
 C328 C 0.93550 0.87916 1.04111
 C329 C 0.92945 0.86114 1.04749
 H330 H 0.91736 0.85430 1.04073
 O331 O 1.06856 1.09544 1.01881
 O332 O 1.09059 1.11790 1.01882
 C333 C 1.07511 1.11104 1.02532
 C334 C 1.06481 1.12103 1.04087
 C335 C 1.07086 1.13905 1.04725
 H336 H 1.08299 1.14586 1.04050
 Cu337 Cu 1.07978 1.00057 1.08013
 Cu338 Cu 1.10644 1.00073 1.10692
 Cu339 Cu 0.92030 0.99975 1.08014
 Cu340 Cu 0.89361 0.99962 1.10692
 Cu341 Cu 0.99966 1.07982 1.07999
 Cu342 Cu 0.99949 1.10659 1.10670
 Cu343 Cu 1.00050 0.92046 1.08026
 Cu344 Cu 1.00060 0.89378 1.10708
 C345 C 1.04957 1.05024 1.11220
 H346 H 1.04494 1.04553 1.09820
 C347 C 1.06209 1.06299 1.14814
 C348 C 0.95049 0.95015 1.11234
 H349 H 0.95515 0.95486 1.09835
 C350 C 0.93790 0.93740 1.14827
 C351 C 1.04932 1.11216 1.05001
 H352 H 1.04474 1.09815 1.04534
 C353 C 1.06171 1.14812 1.06265
 C354 C 0.95094 0.88805 1.05028
 H355 H 0.95552 0.90206 1.04559
 C356 C 0.93855 0.85210 1.06294
 C357 C 1.11164 1.05053 1.05013
 H358 H 1.09767 1.04586 1.04550
 C359 C 1.14752 1.06316 1.06265
 C360 C 0.88860 0.94970 1.05023
 H361 H 0.90256 0.95443 1.04559
 C362 C 0.85277 0.93692 1.06276
 C363 C 0.94997 1.04972 1.11221
 H364 H 0.95467 1.04503 1.09822
 C365 C 0.93729 1.06242 1.14811
 C366 C 1.05007 0.95067 1.11239
 H367 H 1.04539 0.95529 1.09838
 C368 C 1.06275 0.93817 1.14835
 C369 C 1.11207 0.95086 1.05023
 H370 H 1.09807 0.95543 1.04556
 C371 C 1.14799 0.93849 1.06285
 C372 C 0.88795 1.04934 1.05007
 H373 H 0.90191 1.04472 1.04535
 C374 C 0.85210 1.06186 1.06281
 C375 C 0.94966 1.11157 1.04995
 H376 H 0.95432 1.09757 1.04533
 C377 C 0.93708 1.14751 1.06244
 C378 C 1.05046 0.88854 1.05036
 H379 H 1.04573 0.90248 1.04563
 C380 C 1.06323 0.85277 1.06315
 O381 O 1.06917 0.98173 0.90507
 O382 O 1.09135 0.98183 0.88271
 C383 C 1.07588 0.97525 0.88949
 C384 C 1.06579 0.95961 0.87946
 C385 C 1.07205 0.95325 0.86148
 H386 H 1.08387 0.96038 0.85452
 O387 O 0.93117 1.01830 0.90498
 O388 O 0.90906 1.01814 0.88257
 C389 C 0.92451 1.02475 0.88938
 C390 C 0.93464 1.04037 0.87934
 C391 C 0.92840 1.04679 0.86136
 H392 H 0.91627 1.04002 0.85461
 O393 O 0.98106 1.09492 0.93123
 O394 O 0.98097 1.11722 0.90897
 C395 C 0.97449 1.11043 0.92452
 C396 C 0.95886 1.12038 0.93471
 C397 C 0.95248 1.13834 0.92851
 H398 H 0.95958 1.14534 0.91668
 O399 O 1.01930 0.90511 0.93127
 O400 O 1.01942 0.88276 0.90907
 C401 C 1.02586 0.88957 0.92462
 C402 C 1.04140 0.87959 0.93491
 C403 C 1.04780 0.86160 0.92881
 H404 H 1.04108 0.85478 0.91665
 O405 O 1.09542 0.93157 0.98171
 O406 O 1.11783 0.90950 0.98171
 C407 C 1.11099 0.92498 0.97519
 C408 C 1.12097 0.93525 0.95960
 C409 C 1.13895 0.92916 0.95320
 H410 H 1.14575 0.91703 0.95995
 O411 O 0.90458 1.06848 0.98143
 O412 O 0.88221 1.09059 0.98139
 C413 C 0.88904 1.07509 0.97488
 C414 C 0.87911 1.06485 0.95925
 C415 C 0.86121 1.07101 0.95271
 H416 H 0.85441 1.08318 0.95940
 O417 O 1.01839 1.06894 0.90508
 O418 O 1.01832 1.09111 0.88270
 C419 C 1.02487 1.07563 0.88950
 C420 C 1.04047 1.06550 0.87946
 C421 C 1.04676 1.07167 0.86142
 H422 H 1.03960 1.08345 0.85443
 O423 O 0.98202 0.93108 0.90509
 O424 O 0.98211 0.90888 0.88274
 C425 C 0.97555 0.92437 0.88951
 C426 C 0.95994 0.93449 0.87947
 C427 C 0.95366 0.92829 0.86144
 H428 H 0.96083 0.91650 0.85446
 O429 O 1.09507 1.01911 0.93124
 O430 O 1.11737 1.01923 0.90900
 C431 C 1.11058 1.02569 0.92456
 C432 C 1.12052 1.04131 0.93477
 C433 C 1.13847 1.04772 0.92860
 H434 H 1.14547 1.04063 0.91676
 O435 O 0.90527 0.98097 0.93121
 O436 O 0.88299 0.98076 0.90897
 C437 C 0.88978 0.97436 0.92455
 C438 C 0.87984 0.95878 0.93485
 C439 C 0.86184 0.95239 0.92880
 H440 H 0.85501 0.95914 0.91667
 O441 O 1.06858 1.09542 0.98152
 O442 O 1.09062 1.11788 0.98148
 C443 C 1.07515 1.11101 0.97499
 C444 C 1.06487 1.12097 0.95941
 C445 C 1.07094 1.13898 0.95299
 H446 H 1.08306 1.14579 0.95972
 O447 O 0.93183 0.90470 0.98169
 O448 O 0.90979 0.88225 0.98167
 C449 C 0.92526 0.88911 0.97517
 C450 C 0.93555 0.87913 0.95959
 C451 C 0.92950 0.86111 0.95322
 H452 H 0.91739 0.85428 0.95998
 O453 O 0.93140 0.98108 0.90503
 O454 O 0.90927 0.98087 0.88264
 C455 C 0.92481 0.97450 0.88945
 C456 C 0.93515 0.95901 0.87942
 C457 C 0.92906 0.95260 0.86139
 H458 H 0.91689 0.95926 0.85461
 O459 O 1.06895 1.01895 0.90509
 O460 O 1.09111 1.01909 0.88271
 C461 C 1.07556 1.02549 0.88950
 C462 C 1.06525 1.04097 0.87944
 C463 C 1.07135 1.04735 0.86140
 H464 H 1.08352 1.04067 0.85461
 O465 O 0.98213 0.90496 0.93128
 O466 O 0.98220 0.88262 0.90907
 C467 C 0.97569 0.88938 0.92462
 C468 C 0.96019 0.87929 0.93486
 C469 C 0.95394 0.86127 0.92870
 H470 H 0.96107 0.85433 0.91684
 O471 O 1.01825 1.09514 0.93121
 O472 O 1.01819 1.11744 0.90894
 C473 C 1.02470 1.11071 0.92451
 C474 C 1.04021 1.12081 0.93471
 C475 C 1.04648 1.13882 0.92850
 H476 H 1.03937 1.14574 0.91663
 O477 O 0.90559 0.93070 0.98168
 O478 O 0.88342 0.90838 0.98166
 C479 C 0.89010 0.92395 0.97516
 C480 C 0.88002 0.93412 0.95958
 C481 C 0.86202 0.92794 0.95334
 H482 H 0.85510 0.91612 0.96051
 O483 O 1.09485 1.06946 0.98155
 O484 O 1.11703 1.09178 0.98151
 C485 C 1.11035 1.07621 0.97502
 C486 C 1.12043 1.06601 0.95946
 C487 C 1.13838 1.07222 0.95308
 H488 H 1.14509 1.08441 0.95983
 O489 O 1.01921 0.93120 0.90503
 O490 O 1.01934 0.90899 0.88269
 C491 C 1.02575 0.92455 0.88946
 C492 C 1.04126 0.93483 0.87941
 C493 C 1.04773 0.92865 0.86143
 H494 H 1.04109 0.91643 0.85467
 O495 O 0.98120 1.06880 0.90502
 O496 O 0.98110 1.09099 0.88264
 C497 C 0.97467 1.07544 0.88943
 C498 C 0.95916 1.06518 0.87939
 C499 C 0.95273 1.07139 0.86142
 H500 H 0.95973 1.08330 0.85446
 O501 O 0.90500 1.01820 0.93110
 O502 O 0.88275 1.01804 0.90883
 C503 C 0.88945 1.02461 0.92437
 C504 C 0.87934 1.04017 0.93453
 C505 C 0.86143 1.04653 0.92820
 H506 H 0.85457 1.03944 0.91628
 O507 O 1.09521 0.98188 0.93130
 O508 O 1.11752 0.98196 0.90907
 C509 C 1.11077 0.97544 0.92463
 C510 C 1.12084 0.95991 0.93486
 C511 C 1.13883 0.95363 0.92867
 H512 H 1.14576 0.96074 0.91680
 O513 O 1.06942 0.90534 0.98175
 O514 O 1.09169 0.88312 0.98176
 C515 C 1.07615 0.88981 0.97525
 C516 C 1.06601 0.87973 0.95966
 C517 C 1.07220 0.86173 0.95337
 H518 H 1.08401 0.85480 0.96052
 O519 O 0.93061 1.09470 0.98144
 O520 O 0.90838 1.11695 0.98141
 C521 C 0.92391 1.11024 0.97492
 C522 C 0.93414 1.12031 0.95936
 C523 C 0.92794 1.13827 0.95294
 H524 H 0.91575 1.14499 0.95966
 Cu525 Cu 1.07988 1.00041 0.92041
 Cu526 Cu 1.10658 1.00054 0.89363
 Cu527 Cu 0.92042 0.99965 0.92031
 Cu528 Cu 0.89379 0.99943 0.89351
 Cu529 Cu 1.07950 1.08022 1.00018
 Cu530 Cu 1.10603 1.10710 1.00016
 Cu531 Cu 1.08019 0.92068 1.00038
 Cu532 Cu 1.10701 0.89410 1.00041
 Cu533 Cu 0.91982 1.07936 1.00008
 Cu534 Cu 0.89305 1.10598 1.00008
 Cu535 Cu 0.92090 0.91994 1.00034
 Cu536 Cu 0.89437 0.89306 1.00034
 Cu537 Cu 0.99973 1.07973 0.92036
 Cu538 Cu 0.99964 1.10643 0.89357
 Cu539 Cu 1.00066 0.92032 0.92039
 Cu540 Cu 1.00078 0.89357 0.89365
 C541 C 1.05028 0.95043 0.88821
 H542 H 1.04553 0.95511 0.90219
 C543 C 1.06311 0.93778 0.85235
 C544 C 0.95013 1.04955 0.88814
 H545 H 0.95485 1.04485 0.90211
 C546 C 0.93737 1.06228 0.85228
 C547 C 0.94971 1.11158 0.95025
 H548 H 0.95441 1.09761 0.95495
 C549 C 0.93703 1.14741 0.93754
 C550 C 1.05049 0.88845 0.95045
 H551 H 1.04581 0.90244 0.95507
 C552 C 1.06317 0.85254 0.93797
 C553 C 1.11212 0.95074 0.95044
 H554 H 1.09814 0.95535 0.95513
 C555 C 1.14800 0.93827 0.93776
 C556 C 0.88796 1.04931 0.95017
 H557 H 0.90188 1.04464 0.95496
 C558 C 0.85224 1.06193 0.93720
 C559 C 1.04970 1.05002 0.88826
 H560 H 1.04508 1.04535 0.90228
 C561 C 1.06218 1.06268 0.85227
 C562 C 0.95070 0.94997 0.88825
 H563 H 0.95531 0.95467 0.90226
 C564 C 0.93824 0.93726 0.85228
 C565 C 1.11171 1.05044 0.95032
 H566 H 1.09775 1.04573 0.95499
 C567 C 1.14752 1.06315 0.93767
 C568 C 0.88872 0.94966 0.95036
 H569 H 0.90271 0.95434 0.95494
 C570 C 0.85280 0.93700 0.93798
 C571 C 1.04939 1.11210 0.95028
 H572 H 1.04479 1.09811 0.95499
 C573 C 1.06182 1.14802 0.93756
 C574 C 0.95101 0.88801 0.95043
 H575 H 0.95559 0.90202 0.95510
 C576 C 0.93862 0.85206 0.93779
 O577 O 1.06848 0.51853 0.59502
 O578 O 1.09054 0.51864 0.61748
 C579 C 1.07503 0.52505 0.61064
 C580 C 1.06469 0.54054 0.62067
 C581 C 1.07075 0.54694 0.63871
 H582 H 1.08290 0.54025 0.64552
 O583 O 0.93101 0.48047 0.59474
 O584 O 0.90877 0.48030 0.61704
 C585 C 0.92434 0.47391 0.61030
 C586 C 0.93460 0.45840 0.62036
 C587 C 0.92844 0.45198 0.63837
 H588 H 0.91625 0.45866 0.64513
 O589 O 1.01788 0.59473 0.56877
 O590 O 1.01771 0.61703 0.59103
 C591 C 1.02428 0.61031 0.57549
 C592 C 1.03984 0.62041 0.56533
 C593 C 1.04610 0.63841 0.57155
 H594 H 1.03896 0.64533 0.58341
 O595 O 0.98164 0.40431 0.56858
 O596 O 0.98169 0.38197 0.59080
 C597 C 0.97520 0.38872 0.57524
 C598 C 0.95970 0.37865 0.56497
 C599 C 0.95323 0.36073 0.57124
 H600 H 0.95988 0.35403 0.58350
 O601 O 1.09464 0.56907 0.51863
 O602 O 1.11681 0.59138 0.51872
 C603 C 1.11012 0.57581 0.52520
 C604 C 1.12014 0.56562 0.54080
 C605 C 1.13806 0.57185 0.54724
 H606 H 1.14478 0.58404 0.54050
 O607 O 0.90544 0.43017 0.51792
 O608 O 0.88323 0.40788 0.51783
 C609 C 0.88991 0.42343 0.52438
 C610 C 0.87979 0.43358 0.53995
 C611 C 0.86179 0.42738 0.54619
 H612 H 0.85488 0.41556 0.53902
 O613 O 0.98075 0.56836 0.59484
 O614 O 0.98054 0.59053 0.61723
 C615 C 0.97417 0.57497 0.61042
 C616 C 0.95868 0.56462 0.62044
 C617 C 0.95226 0.57070 0.63847
 H618 H 0.95891 0.58289 0.64527
 O619 O 1.01864 0.43065 0.59482
 O620 O 1.01876 0.40844 0.61716
 C621 C 1.02516 0.42401 0.61040
 C622 C 1.04062 0.43433 0.62048
 C623 C 1.04700 0.42818 0.63850
 H624 H 1.04033 0.41597 0.64525
 O625 O 1.09490 0.48148 0.56891
 O626 O 1.11710 0.48154 0.59122
 C627 C 1.11043 0.47503 0.57564
 C628 C 1.12053 0.45951 0.56542
 C629 C 1.13844 0.45310 0.57172
 H630 H 1.14511 0.45980 0.58396
 O631 O 0.90482 0.51759 0.56848
 O632 O 0.88245 0.51746 0.59066
 C633 C 0.88923 0.52400 0.57512
 C634 C 0.87916 0.53953 0.56488
 C635 C 0.86115 0.54577 0.57104
 H636 H 0.85421 0.53864 0.58290
 O637 O 0.93055 0.59421 0.51817
 O638 O 0.90826 0.61641 0.51816
 C639 C 0.92379 0.60972 0.52469
 C640 C 0.93391 0.61980 0.54030
 C641 C 0.92769 0.63778 0.54661
 H642 H 0.91586 0.64470 0.53946
 O643 O 1.06921 0.40501 0.51834
 O644 O 1.09148 0.38280 0.51837
 C645 C 1.07592 0.38947 0.52484
 C646 C 1.06572 0.37934 0.54038
 C647 C 1.07192 0.36135 0.54666
 H648 H 1.08379 0.35446 0.53955
 O649 O 0.93086 0.51770 0.59472
 O650 O 0.90862 0.51758 0.61702
 C651 C 0.92411 0.52417 0.61028
 C652 C 0.93419 0.53979 0.62036
 C653 C 0.92797 0.54607 0.63838
 H654 H 0.91619 0.53888 0.64535
 O655 O 1.06864 0.48130 0.59494
 O656 O 1.09071 0.48137 0.61739
 C657 C 1.07527 0.47480 0.61054
 C658 C 1.06513 0.45915 0.62052
 C659 C 1.07128 0.45281 0.63854
 H660 H 1.08305 0.45996 0.64556
 O661 O 1.01882 0.40454 0.56861
 O662 O 1.01893 0.38218 0.59081
 C663 C 1.02539 0.38901 0.57527
 C664 C 1.04100 0.37909 0.56502
 C665 C 1.04741 0.36110 0.57112
 H666 H 1.04065 0.35424 0.58324
 O667 O 0.98069 0.59451 0.56866
 O668 O 0.98048 0.61682 0.59091
 C669 C 0.97408 0.61002 0.57533
 C670 C 0.95852 0.61997 0.56504
 C671 C 0.95209 0.63795 0.57116
 H672 H 0.95879 0.64477 0.58333
 O673 O 0.90459 0.56793 0.51808
 O674 O 0.88217 0.58999 0.51809
 C675 C 0.88901 0.57450 0.52459
 C676 C 0.87902 0.56419 0.54015
 C677 C 0.86102 0.57025 0.54652
 H678 H 0.85421 0.58237 0.53976
 O679 O 1.09519 0.43128 0.51846
 O680 O 1.11758 0.40919 0.51849
 C681 C 1.11073 0.42467 0.52501
 C682 C 1.12065 0.43487 0.54068
 C683 C 1.13855 0.42867 0.54716
 H684 H 1.14554 0.41683 0.54009
 O685 O 0.98147 0.43044 0.59477
 O686 O 0.98153 0.40823 0.61712
 C687 C 0.97497 0.42372 0.61034
 C688 C 0.95935 0.43383 0.62036
 C689 C 0.95300 0.42762 0.63837
 H690 H 0.96012 0.41581 0.64536
 O691 O 1.01793 0.56854 0.59490
 O692 O 1.01777 0.59071 0.61729
 C693 C 1.02435 0.57523 0.61050
 C694 C 1.03993 0.56509 0.62058
 C695 C 1.04618 0.57128 0.63862
 H696 H 1.03901 0.58307 0.64559
 O697 O 0.90504 0.48037 0.56842
 O698 O 0.88266 0.48020 0.59058
 C699 C 0.88951 0.47377 0.57504
 C700 C 0.87958 0.45821 0.56471
 C701 C 0.86159 0.45181 0.57076
 H702 H 0.85474 0.45853 0.58290
 O703 O 1.09470 0.51871 0.56893
 O704 O 1.11690 0.51881 0.59125
 C705 C 1.11017 0.52529 0.57568
 C706 C 1.12014 0.54093 0.56551
 C707 C 1.13807 0.54735 0.57174
 H708 H 1.14502 0.54028 0.58361
 O709 O 0.93165 0.40416 0.51799
 O710 O 0.90957 0.38174 0.51791
 C711 C 0.92502 0.38858 0.52448
 C712 C 0.93515 0.37861 0.54016
 C713 C 0.92890 0.36068 0.54661
 H714 H 0.91708 0.35372 0.53951
 O715 O 1.06836 0.59502 0.51858
 O716 O 1.09039 0.61747 0.51867
 C717 C 1.07490 0.61060 0.52513
 C718 C 1.06457 0.62057 0.54068
 C719 C 1.07064 0.63856 0.54712
 H720 H 1.08279 0.64537 0.54042
 Cu721 Cu 1.07947 0.50000 0.57971
 Cu722 Cu 1.10604 0.50010 0.60659
 Cu723 Cu 0.92016 0.49904 0.57937
 Cu724 Cu 0.89339 0.49887 0.60606
 Cu725 Cu 0.99933 0.57932 0.57956
 Cu726 Cu 0.99910 0.60601 0.60636
 Cu727 Cu 1.00013 0.41971 0.57947
 Cu728 Cu 1.00024 0.39296 0.60621
 C729 C 1.04917 0.54961 0.61181
 H730 H 1.04458 0.54492 0.59778
 C731 C 1.06157 0.56228 0.64781
 C732 C 0.95017 0.44934 0.61158
 H733 H 0.95484 0.45405 0.59758
 C734 C 0.93756 0.43661 0.64750
 C735 C 1.04906 0.61170 0.54977
 H736 H 1.04447 0.59771 0.54505
 C737 C 1.06148 0.64761 0.56253
 C738 C 0.95067 0.38738 0.54932
 H739 H 0.95540 0.40131 0.54457
 C740 C 0.93784 0.35163 0.56214
 C741 C 1.11140 0.55004 0.54992
 H742 H 1.09747 0.54532 0.54520
 C743 C 1.14715 0.56279 0.56268
 C744 C 0.88848 0.44911 0.54919
 H745 H 0.90247 0.45381 0.54462
 C746 C 0.85256 0.43643 0.56157
 C747 C 0.94966 0.54905 0.61160
 H748 H 0.95437 0.54445 0.59758
 C749 C 0.93693 0.56150 0.64757
 C750 C 1.04967 0.44993 0.61170
 H751 H 1.04501 0.45459 0.59769
 C752 C 1.06231 0.43734 0.64765
 C753 C 1.11185 0.45041 0.54979
 H754 H 1.09793 0.45510 0.54502
 C755 C 1.14757 0.43769 0.56267
 C756 C 0.88788 0.54871 0.54932
 H757 H 0.90188 0.54413 0.54465
 C758 C 0.85196 0.56111 0.56195
 C759 C 0.94945 0.61111 0.54950
 H760 H 0.95416 0.59713 0.54487
 C761 C 0.93670 0.64698 0.56201
 C762 C 1.05014 0.38800 0.54953
 H763 H 1.04544 0.40199 0.54492
 C764 C 1.06285 0.35210 0.56201
 O765 O 1.06918 0.48158 0.40450
 O766 O 1.09142 0.48171 0.38220
 C767 C 1.07593 0.47513 0.38893
 C768 C 1.06585 0.45952 0.37883
 C769 C 1.07210 0.45324 0.36082
 H770 H 1.08391 0.46041 0.35389
 O771 O 0.93132 0.51800 0.40419
 O772 O 0.90923 0.51793 0.38175
 C773 C 0.92468 0.52450 0.38859
 C774 C 0.93485 0.54014 0.37861
 C775 C 0.92870 0.54655 0.36060
 H776 H 0.91660 0.53977 0.35379
 O777 O 0.98112 0.59462 0.43069
 O778 O 0.98105 0.61699 0.40850
 C779 C 0.97455 0.61014 0.42402
 C780 C 0.95890 0.62006 0.43420
 C781 C 0.95251 0.63803 0.42804
 H782 H 0.95962 0.64506 0.41623
 O783 O 1.01930 0.40483 0.43043
 O784 O 1.01951 0.38253 0.40818
 C785 C 1.02590 0.38932 0.42376
 C786 C 1.04144 0.37937 0.43407
 C787 C 1.04791 0.36141 0.42793
 H788 H 1.04125 0.35460 0.41574
 O789 O 1.09528 0.43136 0.48115
 O790 O 1.11768 0.40928 0.48115
 C791 C 1.11086 0.42477 0.47465
 C792 C 1.12086 0.43502 0.45906
 C793 C 1.13883 0.42888 0.45269
 H794 H 1.14580 0.41705 0.45979
 O795 O 0.90467 0.56799 0.48078
 O796 O 0.88225 0.59006 0.48074
 C797 C 0.88912 0.57458 0.47423
 C798 C 0.87920 0.56433 0.45860
 C799 C 0.86123 0.57041 0.45217
 H800 H 0.85439 0.58251 0.45894
 O801 O 1.01853 0.56876 0.40453
 O802 O 1.01849 0.59101 0.38222
 C803 C 1.02505 0.57551 0.38899
 C804 C 1.04071 0.56545 0.37897
 C805 C 1.04712 0.57176 0.36102
 H806 H 1.04000 0.58360 0.35407
 O807 O 0.98206 0.43079 0.40418
 O808 O 0.98223 0.40863 0.38179
 C809 C 0.97564 0.42411 0.38858
 C810 C 0.96007 0.43425 0.37851
 C811 C 0.95383 0.42809 0.36045
 H812 H 0.96101 0.41631 0.35346
 O813 O 1.09501 0.51888 0.43083
 O814 O 1.11739 0.51904 0.40867
 C815 C 1.11055 0.52546 0.42422
 C816 C 1.12047 0.54104 0.43451
 C817 C 1.13845 0.54743 0.42843
 H818 H 1.14548 0.54037 0.41659
 O819 O 0.90536 0.48059 0.43025
 O820 O 0.88312 0.48046 0.40796
 C821 C 0.88988 0.47399 0.42353
 C822 C 0.87993 0.45838 0.43375
 C823 C 0.86198 0.45195 0.42759
 H824 H 0.85519 0.45869 0.41543
 O825 O 1.06848 0.59506 0.48129
 O826 O 1.09051 0.61751 0.48133
 C827 C 1.07506 0.61066 0.47479
 C828 C 1.06482 0.62064 0.45920
 C829 C 1.07090 0.63866 0.45283
 H830 H 1.08300 0.64548 0.45961
 O831 O 0.93179 0.40421 0.48067
 O832 O 0.90974 0.38178 0.48056
 C833 C 0.92523 0.38864 0.47411
 C834 C 0.93554 0.37869 0.45852
 C835 C 0.92949 0.36069 0.45209
 H836 H 0.91737 0.35385 0.45882
 O837 O 0.93152 0.48078 0.40411
 O838 O 0.90943 0.48066 0.38168
 C839 C 0.92495 0.47426 0.38850
 C840 C 0.93530 0.45879 0.37845
 C841 C 0.92926 0.45243 0.36039
 H842 H 0.91710 0.45912 0.35358
 O843 O 1.06906 0.51880 0.40451
 O844 O 1.09130 0.51898 0.38221
 C845 C 1.07574 0.52538 0.38896
 C846 C 1.06549 0.54092 0.37892
 C847 C 1.07171 0.54745 0.36098
 H848 H 1.08394 0.54083 0.35423
 O849 O 0.98212 0.40463 0.43033
 O850 O 0.98229 0.38233 0.40808
 C851 C 0.97573 0.38904 0.42363
 C852 C 0.96021 0.37892 0.43381
 C853 C 0.95397 0.36091 0.42759
 H854 H 0.96110 0.35401 0.41571
 O855 O 1.01831 0.59482 0.43079
 O856 O 1.01827 0.61719 0.40860
 C857 C 1.02475 0.61043 0.42416
 C858 C 1.04023 0.62051 0.43443
 C859 C 1.04650 0.63854 0.42827
 H860 H 1.03942 0.64548 0.41640
 O861 O 0.90556 0.43022 0.48061
 O862 O 0.88337 0.40791 0.48050
 C863 C 0.89008 0.42348 0.47404
 C864 C 0.88005 0.43366 0.45843
 C865 C 0.86210 0.42744 0.45208
 H866 H 0.85518 0.41558 0.45919
 O867 O 1.09472 0.56908 0.48134
 O868 O 1.11690 0.59139 0.48138
 C869 C 1.11024 0.57583 0.47485
 C870 C 1.12035 0.56566 0.45929
 C871 C 1.13833 0.57186 0.45299
 H872 H 1.14504 0.58401 0.45980
 O873 O 1.01924 0.43098 0.40425
 O874 O 1.01946 0.40882 0.38186
 C875 C 1.02583 0.42438 0.38868
 C876 C 1.04134 0.43471 0.37869
 C877 C 1.04780 0.42862 0.36068
 H878 H 1.04116 0.41643 0.35386
 O879 O 0.98134 0.56853 0.40445
 O880 O 0.98127 0.59078 0.38213
 C881 C 0.97484 0.57520 0.38887
 C882 C 0.95937 0.56495 0.37876
 C883 C 0.95303 0.57114 0.36076
 H884 H 0.96006 0.58305 0.35383
 O885 O 0.90512 0.51781 0.43028
 O886 O 0.88289 0.51773 0.40799
 C887 C 0.88957 0.52424 0.42357
 C888 C 0.87944 0.53973 0.43380
 C889 C 0.86147 0.54601 0.42758
 H890 H 0.85458 0.53892 0.41568
 O891 O 1.09524 0.48166 0.43072
 O892 O 1.11761 0.48178 0.40856
 C893 C 1.11082 0.47523 0.42408
 C894 C 1.12087 0.45970 0.43434
 C895 C 1.13884 0.45334 0.42816
 H896 H 1.14558 0.46009 0.41597
 O897 O 1.06932 0.40509 0.48104
 O898 O 1.09159 0.38288 0.48105
 C899 C 1.07607 0.38958 0.47451
 C900 C 1.06599 0.37952 0.45887
 C901 C 1.07224 0.36156 0.45255
 H902 H 1.08406 0.35464 0.45971
 O903 O 0.93064 0.59427 0.48088
 O904 O 0.90836 0.61648 0.48083
 C905 C 0.92392 0.60980 0.47436
 C906 C 0.93415 0.61991 0.45883
 C907 C 0.92794 0.63788 0.45245
 H908 H 0.91574 0.64458 0.45918
 Cu909 Cu 1.07989 0.50021 0.41986
 Cu910 Cu 1.10667 0.50039 0.39317
 Cu911 Cu 0.92054 0.49930 0.41944
 Cu912 Cu 0.89394 0.49919 0.39260
 Cu913 Cu 1.07934 0.57982 0.49995
 Cu914 Cu 1.10588 0.60669 0.50003
 Cu915 Cu 1.08002 0.42040 0.49975
 Cu916 Cu 1.10683 0.39382 0.49977
 Cu917 Cu 0.91984 0.57889 0.49948
 Cu918 Cu 0.89301 0.60546 0.49945
 Cu919 Cu 0.92082 0.41942 0.49930
 Cu920 Cu 0.89426 0.39258 0.49919
 Cu921 Cu 0.99983 0.57945 0.41984
 Cu922 Cu 0.99976 0.60623 0.39313
 Cu923 Cu 1.00066 0.42003 0.41953
 Cu924 Cu 1.00089 0.39334 0.39273
 C925 C 1.05034 0.45028 0.38755
 H926 H 1.04561 0.45489 0.40155
 C927 C 1.06317 0.43781 0.35162
 C928 C 0.95030 0.54932 0.38748
 H929 H 0.95495 0.54463 0.40148
 C930 C 0.93771 0.56203 0.35155
 C931 C 0.94974 0.61121 0.44972
 H932 H 0.95445 0.59724 0.45439
 C933 C 0.93705 0.64706 0.43708
 C934 C 1.05047 0.38821 0.44965
 H935 H 1.04573 0.40218 0.45430
 C936 C 1.06329 0.35238 0.43710
 C937 C 1.11209 0.45055 0.44991
 H938 H 1.09812 0.45520 0.45458
 C939 C 1.14794 0.43795 0.43725
 C940 C 0.88810 0.54887 0.44943
 H941 H 0.90207 0.54427 0.45414
 C942 C 0.85223 0.56132 0.43669
 C943 C 1.04987 0.54991 0.38770
 H944 H 1.04516 0.54513 0.40166
 C945 C 1.06260 0.56286 0.35190
 C946 C 0.95082 0.44972 0.38729
 H947 H 0.95539 0.45438 0.40133
 C948 C 0.93845 0.43710 0.35126
 C949 C 1.11163 0.55013 0.45007
 H950 H 1.09765 0.54543 0.45468
 C951 C 1.14750 0.56282 0.43758
 C952 C 0.88875 0.44924 0.44929
 H953 H 0.90270 0.45396 0.45396
 C954 C 0.85294 0.43650 0.43668
 C955 C 1.04937 0.61178 0.45001
 H956 H 1.04477 0.59777 0.45467
 C957 C 1.06181 0.64773 0.43739
 C958 C 0.95102 0.38759 0.44940
 H959 H 0.95559 0.40159 0.45412
 C960 C 0.93863 0.35168 0.43664
 O961 O 0.48170 0.93133 0.40494
 O962 O 0.48177 0.90915 0.38257
 C963 C 0.47522 0.92464 0.38936
 C964 C 0.45962 0.93477 0.37933
 C965 C 0.45327 0.92852 0.36134
 H966 H 0.46040 0.91670 0.35438
 O967 O 0.51836 1.06937 0.40498
 O968 O 0.51829 1.09157 0.38261
 C969 C 0.52484 1.07607 0.38940
 C970 C 0.54044 1.06594 0.37935
 C971 C 0.54680 1.07219 0.36136
 H972 H 0.53970 1.08404 0.35441
 O973 O 0.40505 0.98137 0.43103
 O974 O 0.38278 0.98130 0.40878
 C975 C 0.38953 0.97483 0.42435
 C976 C 0.37953 0.95927 0.43460
 C977 C 0.36156 0.95287 0.42846
 H978 H 0.35478 0.95961 0.41630
 O979 O 0.59486 1.01933 0.43109
 O980 O 0.61715 1.01945 0.40884
 C981 C 0.61037 1.02590 0.42440
 C982 C 0.62035 1.04148 0.43464
 C983 C 0.63831 1.04785 0.42848
 H984 H 0.64530 1.04077 0.41663
 O985 O 0.43136 0.90505 0.48141
 O986 O 0.40927 0.88265 0.48137
 C987 C 0.42477 0.88948 0.47488
 C988 C 0.43504 0.87949 0.45930
 C989 C 0.42893 0.86150 0.45286
 H990 H 0.41678 0.85471 0.45957
 O991 O 0.56857 1.09564 0.48147
 O992 O 0.59065 1.11805 0.48145
 C993 C 0.57517 1.11122 0.47495
 C994 C 0.56492 1.12121 0.45936
 C995 C 0.57105 1.13919 0.45293
 H996 H 0.58321 1.14597 0.45964
 O997 O 0.43115 1.01863 0.40489
 O998 O 0.40904 1.01858 0.38248
 C999 C 0.42451 1.02511 0.38929
 C1000 C 0.43471 1.04068 0.37925
 C1001 C 0.42865 1.04695 0.36117
 H1002 H 0.41659 1.04011 0.35435
 O1003 O 0.56887 0.98203 0.40490
 O1004 O 0.59104 0.98210 0.38253
 C1005 C 0.57556 0.97554 0.38932
 C1006 C 0.56544 0.95992 0.37929
 C1007 C 0.57165 0.95358 0.36128
 H1008 H 0.58345 0.96072 0.35430
 O1009 O 0.51898 0.90529 0.43107
 O1010 O 0.51907 0.88297 0.40883
 C1011 C 0.52553 0.88976 0.42439
 C1012 C 0.54112 0.87979 0.43462
 C1013 C 0.54756 0.86184 0.42844
 H1014 H 0.54084 0.85504 0.41628
 O1015 O 0.48106 1.09537 0.43116
 O1016 O 0.48096 1.11768 0.40891
 C1017 C 0.47450 1.11089 0.42447
 C1018 C 0.45891 1.12086 0.43469
 C1019 C 0.45251 1.13883 0.42851
 H1020 H 0.45958 1.14581 0.41665
 O1021 O 0.40478 1.06896 0.48144
 O1022 O 0.38240 1.09105 0.48142
 C1023 C 0.38924 1.07556 0.47490
 C1024 C 0.37929 1.06532 0.45927
 C1025 C 0.36135 1.07147 0.45280
 H1026 H 0.35456 1.08362 0.45953
 O1027 O 0.59522 0.93179 0.48142
 O1028 O 0.61760 0.90969 0.48140
 C1029 C 0.61078 0.92519 0.47490
 C1030 C 0.62076 0.93546 0.45931
 C1031 C 0.63874 0.92937 0.45291
 H1032 H 0.64553 0.91724 0.45966
 O1033 O 0.48118 1.06919 0.40500
 O1034 O 0.48108 1.09137 0.38262
 C1035 C 0.47467 1.07581 0.38941
 C1036 C 0.45921 1.06551 0.37933
 C1037 C 0.45295 1.07157 0.36125
 H1038 H 0.46001 1.08342 0.35426
 O1039 O 0.51888 0.93147 0.40492
 O1040 O 0.51899 0.90929 0.38255
 C1041 C 0.52541 0.92484 0.38933
 C1042 C 0.54090 0.93514 0.37927
 C1043 C 0.54732 0.92899 0.36127
 H1044 H 0.54066 0.91678 0.35450
 O1045 O 0.59500 0.98211 0.43106
 O1046 O 0.61729 0.98219 0.40881
 C1047 C 0.61055 0.97566 0.42436
 C1048 C 0.62062 0.96013 0.43458
 C1049 C 0.63860 0.95384 0.42838
 H1050 H 0.64553 0.96096 0.41651
 O1051 O 0.40502 1.01859 0.43106
 O1052 O 0.38278 1.01857 0.40878
 C1053 C 0.38950 1.02508 0.42435
 C1054 C 0.37945 1.04065 0.43454
 C1055 C 0.36151 1.04699 0.42829
 H1056 H 0.35461 1.03990 0.41640
 O1057 O 0.43077 1.09521 0.48151
 O1058 O 0.40853 1.11745 0.48150
 C1059 C 0.42407 1.11074 0.47500
 C1060 C 0.43427 1.12082 0.45943
 C1061 C 0.42806 1.13878 0.45304
 H1062 H 0.41590 1.14551 0.45980
 O1063 O 0.56923 0.90554 0.48140
 O1064 O 0.59147 0.88331 0.48139
 C1065 C 0.57595 0.89002 0.47488
 C1066 C 0.56579 0.87995 0.45929
 C1067 C 0.57202 0.86199 0.45293
 H1068 H 0.58389 0.85508 0.46003
 O1069 O 0.56877 1.01926 0.40489
 O1070 O 0.59093 1.01937 0.38251
 C1071 C 0.57541 1.02581 0.38930
 C1072 C 0.56515 1.04134 0.37928
 C1073 C 0.57132 1.04781 0.36129
 H1074 H 0.58351 1.04113 0.35452
 O1075 O 0.43121 0.98140 0.40489
 O1076 O 0.40908 0.98131 0.38250
 C1077 C 0.42460 0.97487 0.38930
 C1078 C 0.43487 0.95933 0.37927
 C1079 C 0.42871 0.95287 0.36128
 H1080 H 0.41653 0.95954 0.35451
 O1081 O 0.51825 1.09549 0.43118
 O1082 O 0.51819 1.11780 0.40893
 C1083 C 0.52470 1.11106 0.42448
 C1084 C 0.54025 1.12112 0.43468
 C1085 C 0.54657 1.13910 0.42845
 H1086 H 0.53948 1.14603 0.41658
 O1087 O 0.48178 0.90521 0.43113
 O1088 O 0.48184 0.88290 0.40889
 C1089 C 0.47532 0.88965 0.42444
 C1090 C 0.45976 0.87959 0.43464
 C1091 C 0.45346 0.86161 0.42842
 H1092 H 0.46059 0.85467 0.41656
 O1093 O 0.59476 1.06960 0.48149
 O1094 O 0.61698 1.09187 0.48147
 C1095 C 0.61027 1.07632 0.47497
 C1096 C 0.62033 1.06612 0.45939
 C1097 C 0.63829 1.07231 0.45302
 H1098 H 0.64503 1.08446 0.45980
 O1099 O 0.40517 0.93111 0.48143
 O1100 O 0.38295 0.90884 0.48139
 C1101 C 0.38966 0.92439 0.47490
 C1102 C 0.37962 0.93458 0.45931
 C1103 C 0.36165 0.92840 0.45299
 H1104 H 0.35472 0.91655 0.46011
 Cu1105 Cu 0.50034 0.92055 0.42025
 Cu1106 Cu 0.50043 0.89384 0.39347
 Cu1107 Cu 0.49971 1.08013 0.42031
 Cu1108 Cu 0.49962 1.10685 0.39353
 Cu1109 Cu 0.42032 1.00000 0.42020
 Cu1110 Cu 0.39368 0.99994 0.39339
 Cu1111 Cu 0.57965 1.00068 0.42021
 Cu1112 Cu 0.60634 1.00079 0.39342
 C1113 C 0.45043 0.95029 0.38809
 H1114 H 0.45509 0.95502 0.40207
 C1115 C 0.43784 0.93748 0.35220
 C1116 C 0.54959 1.05040 0.38810
 H1117 H 0.54492 1.04566 0.40208
 C1118 C 0.56223 1.06321 0.35221
 C1119 C 0.38834 0.95014 0.45015
 H1120 H 0.40231 0.95482 0.45479
 C1121 C 0.35250 0.93746 0.43758
 C1122 C 0.61157 1.05059 0.45021
 H1123 H 0.59760 1.04591 0.45487
 C1124 C 0.64741 1.06324 0.43759
 C1125 C 0.45057 0.88832 0.45020
 H1126 H 0.45520 0.90230 0.45491
 C1127 C 0.43807 0.85245 0.43744
 C1128 C 0.54940 1.11239 0.45026
 H1129 H 0.54475 1.09842 0.45497
 C1130 C 0.56196 1.14825 0.43749
 C1131 C 0.45012 1.04994 0.38812
 H1132 H 0.45471 1.04535 0.40217
 C1133 C 0.43769 1.06237 0.35204
 C1134 C 0.54994 0.95072 0.38807
 H1135 H 0.54524 0.95538 0.40207
 C1136 C 0.56268 0.93813 0.35215
 C1137 C 0.55022 0.88864 0.45016
 H1138 H 0.54550 0.90260 0.45483
 C1139 C 0.56300 0.85281 0.43753
 C1140 C 0.44981 1.11207 0.45027
 H1141 H 0.45450 1.09811 0.45495
 C1142 C 0.43711 1.14791 0.43760
 C1143 C 0.38813 1.04980 0.45015
 H1144 H 0.40207 1.04514 0.45489
 C1145 C 0.35234 1.06238 0.43733
 C1146 C 0.61191 0.95096 0.45016
 H1147 H 0.59793 0.95557 0.45486
 C1148 C 0.64778 0.93849 0.43746
 O1149 O 0.51867 0.93145 0.59514
 O1150 O 0.51879 0.90925 0.61750
 C1151 C 0.52521 0.92481 0.61071
 C1152 C 0.54072 0.93508 0.62075
 C1153 C 0.54703 0.92895 0.63879
 H1154 H 0.53997 0.91709 0.64577
 O1155 O 0.48111 1.06909 0.59537
 O1156 O 0.48103 1.09128 0.61773
 C1157 C 0.47459 1.07573 0.61095
 C1158 C 0.45904 1.06550 0.62098
 C1159 C 0.45263 1.07170 0.63896
 H1160 H 0.45966 1.08358 0.64593
 O1161 O 0.40492 1.01857 0.56915
 O1162 O 0.38261 1.01850 0.59138
 C1163 C 0.38936 1.02501 0.57582
 C1164 C 0.37928 1.04053 0.56557
 C1165 C 0.36125 1.04675 0.57168
 H1166 H 0.35430 1.03962 0.58353
 O1167 O 0.59500 0.98206 0.56908
 O1168 O 0.61725 0.98208 0.59135
 C1169 C 0.61054 0.97559 0.57578
 C1170 C 0.62062 0.96006 0.56555
 C1171 C 0.63860 0.95378 0.57173
 H1172 H 0.64553 0.96089 0.58360
 O1173 O 0.56916 0.90556 0.51869
 O1174 O 0.59139 0.88331 0.51872
 C1175 C 0.57585 0.89002 0.52520
 C1176 C 0.56560 0.87992 0.54073
 C1177 C 0.57173 0.86190 0.54703
 H1178 H 0.58388 0.85517 0.54026
 O1179 O 0.43073 1.09514 0.51882
 O1180 O 0.40848 1.11737 0.51886
 C1181 C 0.42400 1.11065 0.52537
 C1182 C 0.43416 1.12069 0.54099
 C1183 C 0.42788 1.13860 0.54746
 H1184 H 0.41569 1.14531 0.54074
 O1185 O 0.43114 0.98145 0.59535
 O1186 O 0.40898 0.98134 0.61773
 C1187 C 0.42451 0.97491 0.61094
 C1188 C 0.43477 0.95938 0.62097
 C1189 C 0.42866 0.95298 0.63899
 H1190 H 0.41651 0.95969 0.64579
 O1191 O 0.56873 1.01918 0.59525
 O1192 O 0.59087 1.01924 0.61763
 C1193 C 0.57536 1.02570 0.61084
 C1194 C 0.56515 1.04127 0.62088
 C1195 C 0.57142 1.04773 0.63881
 H1196 H 0.58332 1.04071 0.64573
 O1197 O 0.48156 0.90511 0.56906
 O1198 O 0.48163 0.88279 0.59130
 C1199 C 0.47510 0.88954 0.57575
 C1200 C 0.45956 0.87947 0.56554
 C1201 C 0.45313 0.86153 0.57180
 H1202 H 0.45984 0.85480 0.58401
 O1203 O 0.51818 1.09538 0.56914
 O1204 O 0.51813 1.11771 0.59137
 C1205 C 0.52462 1.11096 0.57581
 C1206 C 0.54012 1.12105 0.56555
 C1207 C 0.54634 1.13910 0.57167
 H1208 H 0.53920 1.14606 0.58350
 O1209 O 0.40516 0.93107 0.51873
 O1210 O 0.38292 0.90882 0.51873
 C1211 C 0.38964 0.92435 0.52525
 C1212 C 0.37960 0.93452 0.54087
 C1213 C 0.36169 0.92826 0.54731
 H1214 H 0.35498 0.91608 0.54056
 O1215 O 0.59474 1.06961 0.51878
 O1216 O 0.61694 1.09190 0.51883
 C1217 C 0.61024 1.07634 0.52532
 C1218 C 0.62027 1.06618 0.54094
 C1219 C 0.63818 1.07244 0.54735
 H1220 H 0.64509 1.08433 0.54027
 O1221 O 0.51831 1.06930 0.59540
 O1222 O 0.51827 1.09150 0.61776
 C1223 C 0.52481 1.07600 0.61097
 C1224 C 0.54043 1.06586 0.62098
 C1225 C 0.54692 1.07213 0.63891
 H1226 H 0.54021 1.08431 0.64568
 O1227 O 0.48149 0.93129 0.59520
 O1228 O 0.48157 0.90910 0.61757
 C1229 C 0.47503 0.92460 0.61080
 C1230 C 0.45946 0.93475 0.62087
 C1231 C 0.45316 0.92856 0.63890
 H1232 H 0.46027 0.91673 0.64586
 O1233 O 0.59490 1.01929 0.56913
 O1234 O 0.61717 1.01934 0.59138
 C1235 C 0.61041 1.02584 0.57583
 C1236 C 0.62038 1.04146 0.56562
 C1237 C 0.63829 1.04793 0.57184
 H1238 H 0.64505 1.04121 0.58402
 O1239 O 0.40504 0.98134 0.56918
 O1240 O 0.38274 0.98123 0.59142
 C1241 C 0.38953 0.97477 0.57586
 C1242 C 0.37958 0.95915 0.56564
 C1243 C 0.36166 0.95270 0.57186
 H1244 H 0.35469 0.95974 0.58375
 O1245 O 0.56850 1.09559 0.51876
 O1246 O 0.59055 1.11802 0.51878
 C1247 C 0.57507 1.11118 0.52527
 C1248 C 0.56477 1.12117 0.54083
 C1249 C 0.57079 1.13922 0.54715
 H1250 H 0.58289 1.14605 0.54036
 O1251 O 0.43135 0.90504 0.51871
 O1252 O 0.40924 0.88265 0.51871
 C1253 C 0.42473 0.88947 0.52522
 C1254 C 0.43492 0.87948 0.54084
 C1255 C 0.42870 0.86154 0.54727
 H1256 H 0.41686 0.85458 0.54020
 O1257 O 0.56883 0.98195 0.59522
 O1258 O 0.59095 0.98197 0.61762
 C1259 C 0.57547 0.97544 0.61081
 C1260 C 0.56527 0.95985 0.62083
 C1261 C 0.57140 0.95350 0.63887
 H1262 H 0.58350 0.96029 0.64567
 O1263 O 0.43098 1.01868 0.59539
 O1264 O 0.40881 1.01862 0.61775
 C1265 C 0.42430 1.02516 0.61097
 C1266 C 0.43446 1.04076 0.62102
 C1267 C 0.42823 1.04718 0.63900
 H1268 H 0.41607 1.04044 0.64576
 O1269 O 0.48099 1.09525 0.56921
 O1270 O 0.48090 1.11757 0.59145
 C1271 C 0.47442 1.11077 0.57590
 C1272 C 0.45880 1.12073 0.56571
 C1273 C 0.45233 1.13864 0.57197
 H1274 H 0.45937 1.14560 0.58386
 O1275 O 0.51875 0.90531 0.56897
 O1276 O 0.51886 0.88298 0.59120
 C1277 C 0.52531 0.88978 0.57564
 C1278 C 0.54090 0.87982 0.56540
 C1279 C 0.54722 0.86180 0.57150
 H1280 H 0.54009 0.85477 0.58330
 O1281 O 0.59522 0.93175 0.51871
 O1282 O 0.61759 0.90964 0.51875
 C1283 C 0.61077 0.92514 0.52524
 C1284 C 0.62075 0.93541 0.54082
 C1285 C 0.63873 0.92932 0.54721
 H1286 H 0.64553 0.91719 0.54045
 O1287 O 0.40474 1.06889 0.51874
 O1288 O 0.38234 1.09098 0.51877
 C1289 C 0.38916 1.07547 0.52526
 C1290 C 0.37917 1.06517 0.54082
 C1291 C 0.36114 1.07120 0.54714
 H1292 H 0.35433 1.08330 0.54035
 Cu1293 Cu 0.50010 0.92051 0.57986
 Cu1294 Cu 0.50023 0.89379 0.60664
 Cu1295 Cu 0.49966 1.08003 0.58005
 Cu1296 Cu 0.49957 1.10675 0.60682
 Cu1297 Cu 0.42047 0.92030 0.50006
 Cu1298 Cu 0.39387 0.89350 0.50004
 Cu1299 Cu 0.57998 0.92088 0.50006
 Cu1300 Cu 0.60676 0.89426 0.50007
 Cu1301 Cu 0.41998 1.07984 0.50013
 Cu1302 Cu 0.39319 1.10644 0.50014
 Cu1303 Cu 0.57943 1.08037 0.50012
 Cu1304 Cu 0.60601 1.10721 0.50014
 Cu1305 Cu 0.42024 1.00002 0.58004
 Cu1306 Cu 0.39355 0.99992 0.60681
 Cu1307 Cu 0.57965 1.00062 0.57994
 Cu1308 Cu 0.60629 1.00066 0.60674
 C1309 C 0.54982 0.95065 0.61198
 H1310 H 0.54518 0.95530 0.59796
 C1311 C 0.56235 0.93807 0.64797
 C1312 C 0.44998 1.04991 0.61222
 H1313 H 0.45469 1.04521 0.59824
 C1314 C 0.43724 1.06264 0.64809
 C1315 C 0.38803 1.04971 0.55001
 H1316 H 0.40204 1.04515 0.54538
 C1317 C 0.35206 1.06206 0.56254
 C1318 C 0.61190 0.95090 0.54998
 H1319 H 0.59792 0.95550 0.54530
 C1320 C 0.64779 0.93843 0.56264
 C1321 C 0.55007 0.88867 0.54990
 H1322 H 0.54543 0.90268 0.54528
 C1323 C 0.56260 0.85272 0.56239
 C1324 C 0.44973 1.11196 0.55011
 H1325 H 0.45448 1.09804 0.54536
 C1326 C 0.43689 1.14770 0.56293
 C1327 C 0.45029 0.95028 0.61212
 H1328 H 0.45492 0.95498 0.59811
 C1329 C 0.43778 0.93759 0.64808
 C1330 C 0.54953 1.05031 0.61217
 H1331 H 0.54478 1.04556 0.59822
 C1332 C 0.56242 1.06315 0.64794
 C1333 C 0.45046 0.88823 0.54995
 H1334 H 0.45517 0.90218 0.54522
 C1335 C 0.43771 0.85245 0.56274
 C1336 C 0.54932 1.11230 0.55001
 H1337 H 0.54476 1.09827 0.54538
 C1338 C 0.56165 1.14831 0.56254
 C1339 C 0.38834 0.95008 0.55003
 H1340 H 0.40227 0.95482 0.54531
 C1341 C 0.35259 0.93727 0.56278
 C1342 C 0.61158 1.05057 0.55005
 H1343 H 0.59766 1.04582 0.54535
 C1344 C 0.64732 1.06340 0.56278
 O1345 O 0.56833 0.51888 1.09552
 O1346 O 0.59045 0.51903 1.11792
 C1347 C 0.57492 0.52544 1.11111
 C1348 C 0.56462 0.54095 1.12112
 C1349 C 0.57073 0.54740 1.13912
 H1350 H 0.58290 0.54073 1.14592
 O1351 O 0.43108 0.48083 1.09522
 O1352 O 0.40887 0.48065 1.11755
 C1353 C 0.42443 0.47426 1.11079
 C1354 C 0.43471 0.45875 1.12084
 C1355 C 0.42857 0.45235 1.13886
 H1356 H 0.41640 0.45905 1.14563
 O1357 O 0.51781 0.59508 1.06913
 O1358 O 0.51765 0.61740 1.09137
 C1359 C 0.52421 0.61067 1.07583
 C1360 C 0.53975 0.62078 1.06565
 C1361 C 0.54599 0.63879 1.07187
 H1362 H 0.53885 0.64570 1.08373
 O1363 O 0.48178 0.40460 1.06905
 O1364 O 0.48180 0.38225 1.09127
 C1365 C 0.47534 0.38900 1.07570
 C1366 C 0.45987 0.37892 1.06540
 C1367 C 0.45355 0.36090 1.07153
 H1368 H 0.46028 0.35414 1.08372
 O1369 O 0.59442 0.56939 1.01894
 O1370 O 0.61661 0.59169 1.01902
 C1371 C 0.60990 0.57613 1.02550
 C1372 C 0.61993 0.56593 1.04109
 C1373 C 0.63789 0.57209 1.04746
 H1374 H 0.64465 0.58424 1.04068
 O1375 O 0.40542 0.43044 1.01849
 O1376 O 0.38323 0.40813 1.01848
 C1377 C 0.38991 0.42369 1.02499
 C1378 C 0.37981 0.43383 1.04059
 C1379 C 0.36185 0.42760 1.04688
 H1380 H 0.35495 0.41574 1.03974
 O1381 O 0.48071 0.56871 1.09523
 O1382 O 0.48051 0.59090 1.11759
 C1383 C 0.47413 0.57534 1.11080
 C1384 C 0.45862 0.56505 1.12083
 C1385 C 0.45217 0.57124 1.13880
 H1386 H 0.45915 0.58315 1.14575
 O1387 O 0.51873 0.43092 1.09534
 O1388 O 0.51882 0.40873 1.11770
 C1389 C 0.52523 0.42430 1.11094
 C1390 C 0.54067 0.43462 1.12102
 C1391 C 0.54709 0.42845 1.13902
 H1392 H 0.54046 0.41622 1.14576
 O1393 O 0.59471 0.48185 1.06934
 O1394 O 0.61696 0.48196 1.09162
 C1395 C 0.61027 0.47544 1.07604
 C1396 C 0.62041 0.45996 1.06581
 C1397 C 0.63845 0.45379 1.07196
 H1398 H 0.64535 0.46095 1.08382
 O1399 O 0.40483 0.51791 1.06899
 O1400 O 0.38248 0.51779 1.09118
 C1401 C 0.38924 0.52433 1.07564
 C1402 C 0.37917 0.53985 1.06540
 C1403 C 0.36118 0.54613 1.07159
 H1404 H 0.35426 0.53903 1.08347
 O1405 O 0.43047 0.59459 1.01861
 O1406 O 0.40816 0.61676 1.01858
 C1407 C 0.42370 0.61009 1.02511
 C1408 C 0.43382 0.62019 1.04072
 C1409 C 0.42755 0.63813 1.04711
 H1410 H 0.41539 0.64483 1.04034
 O1411 O 0.56930 0.40518 1.01889
 O1412 O 0.59163 0.38303 1.01895
 C1413 C 0.57606 0.38968 1.02542
 C1414 C 0.56590 0.37958 1.04100
 C1415 C 0.57217 0.36164 1.04737
 H1416 H 0.58407 0.35476 1.04030
 O1417 O 0.43082 0.51806 1.09528
 O1418 O 0.40861 0.51793 1.11760
 C1419 C 0.42408 0.52453 1.11084
 C1420 C 0.43416 0.54018 1.12089
 C1421 C 0.42790 0.54659 1.13886
 H1422 H 0.41577 0.53979 1.14563
 O1423 O 0.56854 0.48165 1.09548
 O1424 O 0.59067 0.48176 1.11788
 C1425 C 0.57522 0.47516 1.11106
 C1426 C 0.56513 0.45949 1.12106
 C1427 C 0.57134 0.45313 1.13906
 H1428 H 0.58311 0.46029 1.14606
 O1429 O 0.51896 0.40479 1.06916
 O1430 O 0.51904 0.38245 1.09138
 C1431 C 0.52553 0.38927 1.07585
 C1432 C 0.54117 0.37935 1.06564
 C1433 C 0.54765 0.36141 1.07183
 H1434 H 0.54092 0.35459 1.08399
 O1435 O 0.48062 0.59485 1.06905
 O1436 O 0.48043 0.61717 1.09128
 C1437 C 0.47402 0.61036 1.07572
 C1438 C 0.45842 0.62029 1.06547
 C1439 C 0.45197 0.63823 1.07165
 H1440 H 0.45900 0.64523 1.08352
 O1441 O 0.40459 0.56823 1.01856
 O1442 O 0.38214 0.59026 1.01854
 C1443 C 0.38900 0.57479 1.02506
 C1444 C 0.37902 0.56450 1.04065
 C1445 C 0.36104 0.57059 1.04705
 H1446 H 0.35424 0.58272 1.04030
 O1447 O 0.59519 0.43154 1.01894
 O1448 O 0.61765 0.40953 1.01900
 C1449 C 0.61076 0.42500 1.02548
 C1450 C 0.62067 0.43532 1.04107
 C1451 C 0.63870 0.42934 1.04743
 H1452 H 0.64558 0.41726 1.04065
 O1453 O 0.48156 0.43073 1.09523
 O1454 O 0.48159 0.40853 1.11759
 C1455 C 0.47505 0.42403 1.11079
 C1456 C 0.45944 0.43417 1.12082
 C1457 C 0.45311 0.42798 1.13884
 H1458 H 0.46024 0.41617 1.14583
 O1459 O 0.51789 0.56894 1.09533
 O1460 O 0.51773 0.59113 1.11769
 C1461 C 0.52431 0.57565 1.11092
 C1462 C 0.53989 0.56553 1.12101
 C1463 C 0.54619 0.57178 1.13901
 H1464 H 0.53907 0.58361 1.14595
 O1465 O 0.40503 0.48069 1.06899
 O1466 O 0.38267 0.48052 1.09117
 C1467 C 0.38951 0.47408 1.07562
 C1468 C 0.37960 0.45849 1.06533
 C1469 C 0.36164 0.45204 1.07142
 H1470 H 0.35481 0.45875 1.08358
 O1471 O 0.59446 0.51906 1.06935
 O1472 O 0.61671 0.51921 1.09162
 C1473 C 0.60995 0.52566 1.07605
 C1474 C 0.61992 0.54126 1.06583
 C1475 C 0.63789 0.54762 1.07198
 H1476 H 0.64487 0.54052 1.08383
 O1477 O 0.43168 0.40447 1.01851
 O1478 O 0.40962 0.38204 1.01849
 C1479 C 0.42509 0.38888 1.02502
 C1480 C 0.43529 0.37889 1.04062
 C1481 C 0.42919 0.36088 1.04694
 H1482 H 0.41742 0.35387 1.03979
 O1483 O 0.56821 0.59541 1.01888
 O1484 O 0.59026 0.61785 1.01896
 C1485 C 0.57476 0.61099 1.02542
 C1486 C 0.56445 0.62096 1.04098
 C1487 C 0.57050 0.63896 1.04740
 H1488 H 0.58264 0.64578 1.04069
 Cu1489 Cu 0.57929 0.50035 1.08019
 Cu1490 Cu 0.60592 0.50050 1.10701
 Cu1491 Cu 0.42017 0.49939 1.07990
 Cu1492 Cu 0.39342 0.49920 1.10661
 Cu1493 Cu 0.49928 0.57967 1.07995
 Cu1494 Cu 0.49906 0.60639 1.10672
 Cu1495 Cu 0.50026 0.41998 1.07997
 Cu1496 Cu 0.50031 0.39325 1.10673
 C1497 C 0.54908 0.55000 1.11228
 H1498 H 0.54445 0.54527 1.09828
 C1499 C 0.56160 0.56280 1.14819
 C1500 C 0.45026 0.44967 1.11203
 H1501 H 0.45490 0.45436 1.09802
 C1502 C 0.43770 0.43699 1.14798
 C1503 C 0.54895 0.61208 1.05009
 H1504 H 0.54437 0.59808 1.04538
 C1505 C 0.56135 0.64800 1.06282
 C1506 C 0.45076 0.38771 1.04983
 H1507 H 0.45538 0.40171 1.04518
 C1508 C 0.43822 0.35176 1.06237
 C1509 C 0.61115 0.55040 1.05027
 H1510 H 0.59718 0.54572 1.04560
 C1511 C 0.64700 0.56301 1.06288
 C1512 C 0.38848 0.44940 1.04979
 H1513 H 0.40245 0.45413 1.04517
 C1514 C 0.35263 0.43662 1.06227
 C1515 C 0.44964 0.54940 1.11208
 H1516 H 0.45438 0.54471 1.09811
 C1517 C 0.43682 0.56210 1.14794
 C1518 C 0.54968 0.45026 1.11226
 H1519 H 0.54498 0.45493 1.09827
 C1520 C 0.56241 0.43763 1.14816
 C1521 C 0.61174 0.45075 1.05025
 H1522 H 0.59772 0.45527 1.04558
 C1523 C 0.64772 0.43851 1.06285
 C1524 C 0.38788 0.54901 1.04981
 H1525 H 0.40186 0.54441 1.04512
 C1526 C 0.35200 0.56148 1.06250
 C1527 C 0.44937 0.61148 1.04989
 H1528 H 0.45412 0.59753 1.04521
 C1529 C 0.43655 0.64728 1.06256
 C1530 C 0.55028 0.38822 1.05011
 H1531 H 0.54553 0.40217 1.04543
 C1532 C 0.56313 0.35243 1.06277
 O1533 O 0.56903 0.48173 0.90506
 O1534 O 0.59125 0.48186 0.88274
 C1535 C 0.57576 0.47527 0.88949
 C1536 C 0.56569 0.45965 0.87941
 C1537 C 0.57192 0.45340 0.86138
 H1538 H 0.58370 0.46060 0.85442
 O1539 O 0.43125 0.51807 0.90463
 O1540 O 0.40915 0.51797 0.88222
 C1541 C 0.42460 0.52455 0.88904
 C1542 C 0.43474 0.54019 0.87903
 C1543 C 0.42856 0.54657 0.86103
 H1544 H 0.41647 0.53976 0.85423
 O1545 O 0.48095 0.59485 0.93102
 O1546 O 0.48086 0.61719 0.90880
 C1547 C 0.47438 0.61037 0.92434
 C1548 C 0.45875 0.62030 0.93454
 C1549 C 0.45237 0.63828 0.92840
 H1550 H 0.45946 0.64531 0.91658
 O1551 O 0.51927 0.40489 0.93105
 O1552 O 0.51950 0.38258 0.90881
 C1553 C 0.52589 0.38938 0.92439
 C1554 C 0.54147 0.37946 0.93467
 C1555 C 0.54800 0.36153 0.92850
 H1556 H 0.54135 0.35472 0.91630
 O1557 O 0.59532 0.43151 0.98165
 O1558 O 0.61777 0.40949 0.98166
 C1559 C 0.61091 0.42496 0.97515
 C1560 C 0.62089 0.43526 0.95958
 C1561 C 0.63887 0.42918 0.95317
 H1562 H 0.64568 0.41705 0.95990
 O1563 O 0.40467 0.56824 0.98126
 O1564 O 0.38222 0.59026 0.98119
 C1565 C 0.38911 0.57478 0.97470
 C1566 C 0.37920 0.56448 0.95909
 C1567 C 0.36119 0.57050 0.95271
 H1568 H 0.35433 0.58259 0.95948
 O1569 O 0.51833 0.56897 0.90489
 O1570 O 0.51828 0.59116 0.88251
 C1571 C 0.52483 0.57567 0.88931
 C1572 C 0.54045 0.56553 0.87930
 C1573 C 0.54683 0.57170 0.86128
 H1574 H 0.54004 0.58380 0.85447
 O1575 O 0.48199 0.43081 0.90481
 O1576 O 0.48216 0.40863 0.88244
 C1577 C 0.47556 0.42411 0.88922
 C1578 C 0.45995 0.43420 0.87915
 C1579 C 0.45361 0.42792 0.86118
 H1580 H 0.46074 0.41608 0.85424
 O1581 O 0.59486 0.51910 0.93131
 O1582 O 0.61721 0.51924 0.90912
 C1583 C 0.61038 0.52569 0.92466
 C1584 C 0.62030 0.54130 0.93490
 C1585 C 0.63827 0.54769 0.92878
 H1586 H 0.64529 0.54060 0.91696
 O1587 O 0.40527 0.48071 0.93076
 O1588 O 0.38301 0.48057 0.90849
 C1589 C 0.38977 0.47412 0.92406
 C1590 C 0.37981 0.45853 0.93431
 C1591 C 0.36187 0.45208 0.92816
 H1592 H 0.35508 0.45880 0.91598
 O1593 O 0.56828 0.59538 0.98159
 O1594 O 0.59032 0.61783 0.98161
 C1595 C 0.57487 0.61097 0.97508
 C1596 C 0.56462 0.62094 0.95948
 C1597 C 0.57066 0.63898 0.95312
 H1598 H 0.58274 0.64582 0.95991
 O1599 O 0.43169 0.40442 0.98121
 O1600 O 0.40964 0.38199 0.98116
 C1601 C 0.42512 0.38884 0.97468
 C1602 C 0.43541 0.37886 0.95910
 C1603 C 0.42930 0.36089 0.95263
 H1604 H 0.41713 0.35409 0.95932
 O1605 O 0.43146 0.48083 0.90465
 O1606 O 0.40935 0.48069 0.88224
 C1607 C 0.42487 0.47428 0.88906
 C1608 C 0.43518 0.45875 0.87905
 C1609 C 0.42903 0.45225 0.86107
 H1610 H 0.41684 0.45889 0.85429
 O1611 O 0.56882 0.51895 0.90507
 O1612 O 0.59104 0.51911 0.88275
 C1613 C 0.57548 0.52550 0.88950
 C1614 C 0.56523 0.54101 0.87942
 C1615 C 0.57140 0.54736 0.86140
 H1616 H 0.58327 0.54032 0.85446
 O1617 O 0.48209 0.40468 0.93098
 O1618 O 0.48226 0.38236 0.90874
 C1619 C 0.47569 0.38910 0.92428
 C1620 C 0.46013 0.37900 0.93444
 C1621 C 0.45383 0.36103 0.92819
 H1622 H 0.46096 0.35412 0.91632
 O1623 O 0.51814 0.59507 0.93110
 O1624 O 0.51809 0.61739 0.90887
 C1625 C 0.52457 0.61066 0.92444
 C1626 C 0.54004 0.62077 0.93470
 C1627 C 0.54628 0.63881 0.92855
 H1628 H 0.53917 0.64574 0.91669
 O1629 O 0.40548 0.43046 0.98118
 O1630 O 0.38330 0.40815 0.98114
 C1631 C 0.38999 0.42371 0.97464
 C1632 C 0.37994 0.43386 0.95904
 C1633 C 0.36199 0.42763 0.95270
 H1634 H 0.35508 0.41577 0.95982
 O1635 O 0.59456 0.56943 0.98165
 O1636 O 0.61675 0.59173 0.98167
 C1637 C 0.61008 0.57617 0.97517
 C1638 C 0.62018 0.56597 0.95962
 C1639 C 0.63816 0.57218 0.95328
 H1640 H 0.64486 0.58435 0.96006
 O1641 O 0.51916 0.43105 0.90488
 O1642 O 0.51939 0.40888 0.88250
 C1643 C 0.52574 0.42445 0.88930
 C1644 C 0.54122 0.43480 0.87929
 C1645 C 0.54766 0.42874 0.86126
 H1646 H 0.54102 0.41655 0.85444
 O1647 O 0.48116 0.56872 0.90484
 O1648 O 0.48106 0.59093 0.88248
 C1649 C 0.47465 0.57536 0.88924
 C1650 C 0.45919 0.56506 0.87916
 C1651 C 0.45282 0.57123 0.86115
 H1652 H 0.45982 0.58315 0.85421
 O1653 O 0.40513 0.51792 0.93080
 O1654 O 0.38288 0.51783 0.90853
 C1655 C 0.38957 0.52435 0.92410
 C1656 C 0.37945 0.53985 0.93433
 C1657 C 0.36143 0.54606 0.92816
 H1658 H 0.35454 0.53893 0.91628
 O1659 O 0.59507 0.48187 0.93130
 O1660 O 0.61741 0.48199 0.90910
 C1661 C 0.61065 0.47545 0.92464
 C1662 C 0.62073 0.45994 0.93486
 C1663 C 0.63872 0.45367 0.92866
 H1664 H 0.64564 0.46080 0.91679
 O1665 O 0.56935 0.40524 0.98159
 O1666 O 0.59167 0.38308 0.98161
 C1667 C 0.57614 0.38975 0.97507
 C1668 C 0.56606 0.37966 0.95944
 C1669 C 0.57237 0.36173 0.95309
 H1670 H 0.58422 0.35485 0.96022
 O1671 O 0.43059 0.59456 0.98131
 O1672 O 0.40828 0.61673 0.98124
 C1673 C 0.42385 0.61007 0.97478
 C1674 C 0.43405 0.62017 0.95923
 C1675 C 0.42786 0.63816 0.95287
 H1676 H 0.41568 0.64486 0.95963
 Cu1677 Cu 0.57972 0.50040 0.92041
 Cu1678 Cu 0.60647 0.50056 0.89369
 Cu1679 Cu 0.42050 0.49939 0.91994
 Cu1680 Cu 0.39387 0.49926 0.89312
 Cu1681 Cu 0.57916 0.58017 1.00026
 Cu1682 Cu 0.60571 0.60703 1.00032
 Cu1683 Cu 0.58005 0.42058 1.00026
 Cu1684 Cu 0.60693 0.39406 1.00031
 Cu1685 Cu 0.41981 0.57920 0.99994
 Cu1686 Cu 0.39294 0.60572 0.99988
 Cu1687 Cu 0.42078 0.41968 0.99984
 Cu1688 Cu 0.39422 0.39283 0.99982
 Cu1689 Cu 0.49965 0.57968 0.92019
 Cu1690 Cu 0.49957 0.60641 0.89342
 Cu1691 Cu 0.50061 0.42008 0.92016
 Cu1692 Cu 0.50085 0.39337 0.89338
 C1693 C 0.55023 0.45038 0.88815
 H1694 H 0.54551 0.45497 0.90217
 C1695 C 0.56299 0.43797 0.85218
 C1696 C 0.45017 0.54942 0.88789
 H1697 H 0.45484 0.54474 0.90189
 C1698 C 0.43753 0.56207 0.85196
 C1699 C 0.44962 0.61146 0.95008
 H1700 H 0.45431 0.59748 0.95473
 C1701 C 0.43694 0.64733 0.93749
 C1702 C 0.55049 0.38831 0.95025
 H1703 H 0.54571 0.40226 0.95492
 C1704 C 0.56342 0.35254 0.93764
 C1705 C 0.61203 0.45075 0.95044
 H1706 H 0.59805 0.45535 0.95514
 C1707 C 0.64791 0.43831 0.93772
 C1708 C 0.38812 0.54904 0.94992
 H1709 H 0.40211 0.54449 0.95460
 C1710 C 0.35218 0.56136 0.93727
 C1711 C 0.54964 0.55007 0.88816
 H1712 H 0.54497 0.54539 0.90217
 C1713 C 0.56228 0.56269 0.85221
 C1714 C 0.45075 0.44974 0.88788
 H1715 H 0.45540 0.45450 0.90186
 C1716 C 0.43817 0.43685 0.85202
 C1717 C 0.61146 0.55042 0.95044
 H1718 H 0.59749 0.54572 0.95508
 C1719 C 0.64732 0.56311 0.93789
 C1720 C 0.38864 0.44943 0.94987
 H1721 H 0.40259 0.45415 0.95452
 C1722 C 0.35283 0.43665 0.93728
 C1723 C 0.54919 0.61205 0.95028
 H1724 H 0.54462 0.59803 0.95494
 C1725 C 0.56156 0.64804 0.93769
 C1726 C 0.45094 0.38770 0.95002
 H1727 H 0.45557 0.40168 0.95476
 C1728 C 0.43843 0.35185 0.93719
 C1729 C 1.10944 1.13269 1.29339
 C1730 C 1.11780 1.11667 1.28491
 C1731 C 1.13386 1.10831 1.29328
 C1732 C 1.14165 1.11601 1.30999
 C1733 C 1.13348 1.13228 1.31863
 C1734 C 1.11717 1.14043 1.31010
 C1735 C 1.11008 1.10906 1.26744
 C1736 C 1.10368 1.10287 1.25269
 C1737 C 1.09627 1.09582 1.23531
 C1738 C 1.09003 1.08997 1.22036
 C1739 C 1.08269 1.08316 1.20240
 C1740 C 1.08122 1.06354 1.19892
 C1741 C 1.07441 1.05696 1.18133
 C1742 C 1.06897 1.06994 1.16697
 C1743 C 1.07041 1.08963 1.17065
 C1744 C 1.07724 1.09618 1.18824
 H1745 H 1.09699 1.13928 1.28702
 H1746 H 1.14045 1.09591 1.28681
 H1747 H 1.15415 1.10922 1.31600
 H1748 H 1.11036 1.15290 1.31619
 H1749 H 1.08538 1.05334 1.20979
 H1750 H 1.07326 1.04172 1.17900
 H1751 H 1.06660 1.09997 1.15980
 H1752 H 1.07839 1.11139 1.19075
 C1753 C 1.10776 0.63205 0.79349
 C1754 C 1.11610 0.61599 0.78504
 C1755 C 1.13209 0.60755 0.79348
 C1756 C 1.13983 0.61522 0.81023
 C1757 C 1.13166 0.63147 0.81877
 C1758 C 1.11546 0.63975 0.81024
 C1759 C 1.10847 0.60841 0.76752
 C1760 C 1.10219 0.60222 0.75272
 C1761 C 1.09496 0.59515 0.73528
 C1762 C 1.08889 0.58927 0.72027
 C1763 C 1.08176 0.58245 0.70222
 C1764 C 1.08037 0.56283 0.69873
 C1765 C 1.07372 0.55624 0.68107
 C1766 C 1.06837 0.56922 0.66668
 C1767 C 1.06976 0.58891 0.67037
 C1768 C 1.07642 0.59546 0.68803
 H1769 H 1.09538 0.63871 0.78707
 H1770 H 1.13867 0.59513 0.78704
 H1771 H 1.15228 0.60847 0.81638
 H1772 H 1.10879 0.65225 0.81641
 H1773 H 1.08444 0.55263 0.70963
 H1774 H 1.07260 0.54101 0.67872
 H1775 H 1.06601 0.59925 0.65950
 H1776 H 1.07752 0.61068 0.69056
 C1777 C 0.63388 1.10911 0.79289
 C1778 C 0.61781 1.11753 0.78461
 C1779 C 0.60953 1.13354 0.79317
 C1780 C 0.61734 1.14121 0.80987
 C1781 C 0.63366 1.13299 0.81832
 C1782 C 0.64176 1.11672 0.80960
 C1783 C 0.61002 1.10998 0.76714
 C1784 C 0.60361 1.10380 0.75239
 C1785 C 0.59627 1.09670 0.73500
 C1786 C 0.59017 1.09073 0.72003
 C1787 C 0.58313 1.08369 0.70204
 C1788 C 0.56350 1.08225 0.69877
 C1789 C 0.55672 1.07556 0.68119
 C1790 C 0.56953 1.07019 0.66667
 C1791 C 0.58924 1.07169 0.67011
 C1792 C 0.59597 1.07839 0.68767
 H1793 H 0.64042 1.09670 0.78636
 H1794 H 0.59708 1.14018 0.78686
 H1795 H 0.61058 1.15368 0.81603
 H1796 H 0.65426 1.10988 0.81555
 H1797 H 0.55343 1.08630 0.70980
 H1798 H 0.54148 1.07437 0.67904
 H1799 H 0.59945 1.06794 0.65912
 H1800 H 0.61120 1.07952 0.69001
 C1801 C 0.63285 0.60861 1.29335
 C1802 C 0.61683 0.61702 1.28495
 C1803 C 0.60854 0.63310 1.29338
 C1804 C 0.61629 0.64085 1.31007
 C1805 C 0.63256 0.63263 1.31864
 C1806 C 0.64065 0.61630 1.31004
 C1807 C 0.60912 0.60938 1.26748
 C1808 C 0.60277 0.60314 1.25274
 C1809 C 0.59544 0.59601 1.23536
 C1810 C 0.58929 0.59007 1.22040
 C1811 C 0.58206 0.58318 1.20243
 C1812 C 0.57667 0.59614 1.18820
 C1813 C 0.56991 0.58952 1.17060
 C1814 C 0.56848 0.56981 1.16700
 C1815 C 0.57387 0.55689 1.18143
 C1816 C 0.58062 0.56355 1.19902
 H1817 H 0.63939 0.59615 1.28692
 H1818 H 0.59614 0.63973 1.28697
 H1819 H 0.60954 0.65337 1.31614
 H1820 H 0.65312 0.60946 1.31608
 H1821 H 0.57780 0.61137 1.19065
 H1822 H 0.56613 0.59982 1.15970
 H1823 H 0.57273 0.54165 1.17915
 H1824 H 0.58473 0.55339 1.20995
 C1825 C 0.86711 0.89163 1.29375
 C1826 C 0.88307 0.88318 1.28527
 C1827 C 0.89136 0.86709 1.29365
 C1828 C 0.88366 0.85934 1.31039
 C1829 C 0.86745 0.86758 1.31904
 C1830 C 0.85935 0.88394 1.31048
 C1831 C 0.89072 0.89082 1.26776
 C1832 C 0.89700 0.89707 1.25299
 C1833 C 0.90424 0.90422 1.23557
 C1834 C 0.91033 0.91016 1.22058
 C1835 C 0.91748 0.91705 1.20256
 C1836 C 0.92291 0.90409 1.18835
 C1837 C 0.92963 0.91070 1.17074
 C1838 C 0.93099 0.93040 1.16709
 C1839 C 0.92554 0.94333 1.18148
 C1840 C 0.91883 0.93668 1.19911
 H1841 H 0.86057 0.90410 1.28736
 H1842 H 0.90372 0.86043 1.28719
 H1843 H 0.89041 0.84680 1.31642
 H1844 H 0.84693 0.89080 1.31658
 H1845 H 0.92184 0.88886 1.19085
 H1846 H 0.93345 0.90039 1.15985
 H1847 H 0.92663 0.95857 1.17917
 H1848 H 0.91469 0.94685 1.21002
 C1849 C 0.86685 0.39131 0.79319
 C1850 C 0.88279 0.38283 0.78471
 C1851 C 0.89112 0.36678 0.79316
 C1852 C 0.88347 0.35912 0.80995
 C1853 C 0.86728 0.36741 0.81861
 C1854 C 0.85915 0.38371 0.80999
 C1855 C 0.89041 0.39039 0.76715
 C1856 C 0.89668 0.39658 0.75234
 C1857 C 0.90390 0.40365 0.73488
 C1858 C 0.90999 0.40954 0.71988
 C1859 C 0.91714 0.41639 0.70184
 C1860 C 0.92255 0.40339 0.68765
 C1861 C 0.92927 0.40995 0.67002
 C1862 C 0.93066 0.42965 0.66633
 C1863 C 0.92524 0.44261 0.68071
 C1864 C 0.91853 0.43601 0.69835
 H1865 H 0.86029 0.40374 0.78675
 H1866 H 0.90347 0.36010 0.78669
 H1867 H 0.89024 0.34663 0.81603
 H1868 H 0.84673 0.39060 0.81609
 H1869 H 0.92146 0.38817 0.69017
 H1870 H 0.93307 0.39962 0.65915
 H1871 H 0.92635 0.45785 0.67837
 H1872 H 0.91440 0.44620 0.70924
 C1873 C 0.39134 0.86773 0.79370
 C1874 C 0.38300 0.88378 0.78526
 C1875 C 0.36699 0.89220 0.79370
 C1876 C 0.35926 0.88453 0.81046
 C1877 C 0.36744 0.86827 0.81900
 C1878 C 0.38365 0.86002 0.81045
 C1879 C 0.39064 0.89138 0.76773
 C1880 C 0.39693 0.89759 0.75294
 C1881 C 0.40417 0.90467 0.73550
 C1882 C 0.41026 0.91056 0.72049
 C1883 C 0.41743 0.91739 0.70246
 C1884 C 0.41887 0.93701 0.69898
 C1885 C 0.42557 0.94361 0.68133
 C1886 C 0.43092 0.93064 0.66694
 C1887 C 0.42947 0.91094 0.67061
 C1888 C 0.42276 0.90439 0.68825
 H1889 H 0.40373 0.86108 0.78727
 H1890 H 0.36041 0.90463 0.78727
 H1891 H 0.34680 0.89126 0.81662
 H1892 H 0.39033 0.84752 0.81662
 H1893 H 0.41480 0.94721 0.70989
 H1894 H 0.42672 0.95884 0.67900
 H1895 H 0.43321 0.90061 0.65973
 H1896 H 0.42162 0.88917 0.69076
 C1897 C 0.39109 0.36726 1.29364
 C1898 C 0.38279 0.38329 1.28514
 C1899 C 0.36678 0.39174 1.29352
 C1900 C 0.35898 0.38412 1.31026
 C1901 C 0.36708 0.36783 1.31893
 C1902 C 0.38335 0.35958 1.31039
 C1903 C 0.39048 0.39085 1.26762
 C1904 C 0.39680 0.39703 1.25283
 C1905 C 0.40406 0.40410 1.23539
 C1906 C 0.41017 0.40999 1.22039
 C1907 C 0.41733 0.41681 1.20236
 C1908 C 0.41874 0.43643 1.19886
 C1909 C 0.42544 0.44302 1.18121
 C1910 C 0.43083 0.43004 1.16683
 C1911 C 0.42941 0.41035 1.17053
 C1912 C 0.42270 0.40380 1.18817
 H1913 H 0.40349 0.36060 1.28726
 H1914 H 0.36023 0.40416 1.28704
 H1915 H 0.34651 0.39099 1.31628
 H1916 H 0.39010 0.34709 1.31650
 H1917 H 0.41465 0.44663 1.20976
 H1918 H 0.42657 0.45826 1.17887
 H1919 H 0.43318 0.40001 1.15966
 H1920 H 0.42159 0.38858 1.19069
 C1921 C 0.89033 1.13259 0.70721
 C1922 C 0.88185 1.11662 0.71566
 C1923 C 0.86572 1.10840 0.70730
 C1924 C 0.85798 1.11618 0.69060
 C1925 C 0.86627 1.13240 0.68198
 C1926 C 0.88266 1.14042 0.69052
 C1927 C 0.88950 1.10889 0.73312
 C1928 C 0.89583 1.10260 0.74786
 C1929 C 0.90315 1.09543 0.76523
 C1930 C 0.90932 1.08948 0.78017
 C1931 C 0.91659 1.08260 0.79814
 C1932 C 0.91818 1.06298 0.80151
 C1933 C 0.92502 1.05634 0.81908
 C1934 C 0.93036 1.06927 0.83351
 C1935 C 0.92875 1.08898 0.82995
 C1936 C 0.92191 1.09557 0.81238
 H1937 H 0.90283 1.13907 0.71358
 H1938 H 0.85903 1.09603 0.71375
 H1939 H 0.84542 1.10949 0.68459
 H1940 H 0.88956 1.15285 0.68443
 H1941 H 0.91413 1.05281 0.79057
 H1942 H 0.92628 1.04110 0.82133
 H1943 H 0.93248 1.09928 0.84086
 H1944 H 0.92066 1.11080 0.80995
 C1945 C 0.89145 0.63210 0.20610
 C1946 C 0.88296 0.61612 0.21454
 C1947 C 0.86688 0.60787 0.20611
 C1948 C 0.85919 0.61563 0.18938
 C1949 C 0.86748 0.63187 0.18078
 C1950 C 0.88382 0.63992 0.18938
 C1951 C 0.89054 0.60844 0.23204
 C1952 C 0.89680 0.60217 0.24682
 C1953 C 0.90402 0.59503 0.26424
 C1954 C 0.91010 0.58911 0.27923
 C1955 C 0.91727 0.58226 0.29725
 C1956 C 0.91884 0.56264 0.30066
 C1957 C 0.92556 0.55603 0.31829
 C1958 C 0.93081 0.56899 0.33273
 C1959 C 0.92923 0.58869 0.32912
 C1960 C 0.92250 0.59526 0.31151
 H1961 H 0.90391 0.63861 0.21253
 H1962 H 0.86018 0.59549 0.21254
 H1963 H 0.84666 0.60892 0.18332
 H1964 H 0.89072 0.65236 0.18332
 H1965 H 0.91485 0.55246 0.28971
 H1966 H 0.92681 0.54080 0.32057
 H1967 H 0.93289 0.59901 0.34004
 H1968 H 0.92126 0.61048 0.30905
 C1969 C 0.39187 1.13104 0.20589
 C1970 C 0.38325 1.11518 0.21444
 C1971 C 0.36708 1.10699 0.20607
 C1972 C 0.35946 1.11472 0.18930
 C1973 C 0.36792 1.13079 0.18066
 C1974 C 0.38429 1.13880 0.18912
 C1975 C 0.39077 1.10759 0.23201
 C1976 C 0.39699 1.10144 0.24684
 C1977 C 0.40420 1.09447 0.26434
 C1978 C 0.41027 1.08871 0.27939
 C1979 C 0.41742 1.08205 0.29748
 C1980 C 0.41905 1.06247 0.30107
 C1981 C 0.42573 1.05604 0.31878
 C1982 C 0.43088 1.06915 0.33312
 C1983 C 0.42927 1.08880 0.32933
 C1984 C 0.42258 1.09519 0.31163
 H1985 H 0.40438 1.13750 0.21227
 H1986 H 0.36028 1.09472 0.21259
 H1987 H 0.34687 1.10818 0.18319
 H1988 H 0.39118 1.15115 0.18289
 H1989 H 0.41512 1.05217 0.29021
 H1990 H 0.42702 1.04083 0.32120
 H1991 H 0.43286 1.09923 0.34017
 H1992 H 0.42130 1.11039 0.30903
 C1993 C 0.36606 0.60785 0.70675
 C1994 C 0.38221 0.61604 0.71514
 C1995 C 0.39074 0.63200 0.70669
 C1996 C 0.38307 0.63985 0.69000
 C1997 C 0.36672 0.63183 0.68152
 C1998 C 0.35836 0.61567 0.69006
 C1999 C 0.38983 0.60832 0.73261
 C2000 C 0.39615 0.60204 0.74735
 C2001 C 0.40345 0.59492 0.76475
 C2002 C 0.40962 0.58902 0.77971
 C2003 C 0.41688 0.58221 0.79770
 C2004 C 0.42212 0.59523 0.81194
 C2005 C 0.42893 0.58869 0.82954
 C2006 C 0.43058 0.56900 0.83314
 C2007 C 0.42534 0.55602 0.81872
 C2008 C 0.41854 0.56259 0.80111
 H2009 H 0.35933 0.59550 0.71319
 H2010 H 0.40324 0.63847 0.71307
 H2011 H 0.38990 0.65228 0.68384
 H2012 H 0.34578 0.60911 0.68394
 H2013 H 0.42082 0.61044 0.80948
 H2014 H 0.43258 0.59903 0.84044
 H2015 H 0.42665 0.54079 0.82100
 H2016 H 0.41455 0.55239 0.79018
 C2017 C 1.10913 0.86707 0.70694
 C2018 C 1.11761 0.88301 0.71546
 C2019 C 1.13375 0.89128 0.70710
 C2020 C 1.14147 0.88357 0.69036
 C2021 C 1.13314 0.86743 0.68174
 C2022 C 1.11681 0.85933 0.69020
 C2023 C 1.10998 0.89066 0.73296
 C2024 C 1.10371 0.89693 0.74773
 C2025 C 1.09652 0.90415 0.76514
 C2026 C 1.09054 0.91021 0.78012
 C2027 C 1.08360 0.91735 0.79812
 C2028 C 1.09651 0.92276 0.81237
 C2029 C 1.08985 0.92948 0.82997
 C2030 C 1.07016 0.93085 0.83356
 C2031 C 1.05729 0.92540 0.81912
 C2032 C 1.06399 0.91870 0.80152
 H2033 H 1.09664 0.86054 0.71330
 H2034 H 1.14045 0.90362 0.71359
 H2035 H 1.15403 0.89019 0.68426
 H2036 H 1.11002 0.84692 0.68398
 H2037 H 1.11173 0.92170 0.80993
 H2038 H 1.10011 0.93329 0.84089
 H2039 H 1.04206 0.92650 0.82139
 H2040 H 1.05387 0.91457 0.79057
 C2041 C 1.10908 0.36753 0.20601
 C2042 C 1.11754 0.38347 0.21453
 C2043 C 1.13366 0.39175 0.20617
 C2044 C 1.14140 0.38406 0.18944
 C2045 C 1.13314 0.36786 0.18076
 C2046 C 1.11676 0.35978 0.18928
 C2047 C 1.10991 0.39110 0.23204
 C2048 C 1.10365 0.39735 0.24682
 C2049 C 1.09648 0.40453 0.26425
 C2050 C 1.09052 0.41055 0.27925
 C2051 C 1.08360 0.41763 0.29728
 C2052 C 1.09652 0.42299 0.31154
 C2053 C 1.08989 0.42962 0.32918
 C2054 C 1.07020 0.43098 0.33279
 C2055 C 1.05731 0.42560 0.31835
 C2056 C 1.06399 0.41897 0.30071
 H2057 H 1.09660 0.36099 0.21238
 H2058 H 1.14033 0.40410 0.21267
 H2059 H 1.15395 0.39079 0.18344
 H2060 H 1.10988 0.34736 0.18316
 H2061 H 1.11174 0.42193 0.30908
 H2062 H 1.10016 0.43339 0.34010
 H2063 H 1.04208 0.42668 0.32063
 H2064 H 1.05386 0.41488 0.28975
 C2065 C 0.60839 0.86732 0.20667
 C2066 C 0.61682 0.88329 0.21516
 C2067 C 0.63291 0.89160 0.20679
 C2068 C 0.64067 0.88391 0.19007
 C2069 C 0.63244 0.86768 0.18141
 C2070 C 0.61609 0.85957 0.18994
 C2071 C 0.60918 0.89093 0.23267
 C2072 C 0.60293 0.89722 0.24744
 C2073 C 0.59579 0.90446 0.26486
 C2074 C 0.58986 0.91055 0.27984
 C2075 C 0.58298 0.91771 0.29786
 C2076 C 0.59594 0.92311 0.31207
 C2077 C 0.58934 0.92983 0.32969
 C2078 C 0.56966 0.93123 0.33333
 C2079 C 0.55674 0.92580 0.31893
 C2080 C 0.56338 0.91909 0.30131
 H2081 H 0.59592 0.86077 0.21305
 H2082 H 0.63956 0.90397 0.21327
 H2083 H 0.65320 0.89067 0.18405
 H2084 H 0.60923 0.84714 0.18383
 H2085 H 0.61115 0.92202 0.30958
 H2086 H 0.59964 0.93363 0.34057
 H2087 H 0.54152 0.92691 0.32124
 H2088 H 0.55322 0.91497 0.29039
 C2089 C 0.63315 0.39253 0.70636
 C2090 C 0.61702 0.38425 0.71472
 C2091 C 0.60849 0.36836 0.70615
 C2092 C 0.61612 0.36067 0.68936
 C2093 C 0.63245 0.36878 0.68091
 C2094 C 0.64082 0.38487 0.68957
 C2095 C 0.60945 0.39180 0.73229
 C2096 C 0.60324 0.39798 0.74711
 C2097 C 0.59612 0.40507 0.76460
 C2098 C 0.59019 0.41101 0.77964
 C2099 C 0.58331 0.41799 0.79773
 C2100 C 0.56370 0.41928 0.80121
 C2101 C 0.55706 0.42583 0.81889
 C2102 C 0.56998 0.43119 0.83332
 C2103 C 0.58966 0.42988 0.82965
 C2104 C 0.59626 0.42332 0.81197
 H2105 H 0.63988 0.40482 0.71289
 H2106 H 0.59600 0.36182 0.71251
 H2107 H 0.60929 0.34830 0.68311
 H2108 H 0.65338 0.39149 0.68348
 H2109 H 0.55355 0.41521 0.79027
 H2110 H 0.54183 0.42688 0.82123
 H2111 H 0.59995 0.43363 0.84056
 H2112 H 0.61147 0.42230 0.80946
 C2113 C 1.29355 1.13280 1.10745
 C2114 C 1.28496 1.11684 1.11583
 C2115 C 1.29333 1.10829 1.13182
 C2116 C 1.31015 1.11572 1.13953
 C2117 C 1.31891 1.13193 1.13135
 C2118 C 1.31037 1.14029 1.11509
 C2119 C 1.26736 1.10947 1.10825
 C2120 C 1.25252 1.10338 1.10208
 C2121 C 1.23502 1.09634 1.09505
 C2122 C 1.21998 1.09040 1.08923
 C2123 C 1.20190 1.08339 1.08250
 C2124 C 1.18778 1.07814 1.09563
 C2125 C 1.17013 1.07151 1.08919
 C2126 C 1.16635 1.07003 1.06948
 C2127 C 1.18065 1.07531 1.05638
 C2128 C 1.19831 1.08194 1.06287
 H2129 H 1.28717 1.13954 1.09506
 H2130 H 1.28678 1.09593 1.13843
 H2131 H 1.31616 1.10878 1.15198
 H2132 H 1.31656 1.15271 1.10828
 H2133 H 1.19038 1.07928 1.11087
 H2134 H 1.15932 1.06782 1.09962
 H2135 H 1.17824 1.07414 1.04113
 H2136 H 1.20915 1.08594 1.05258
 C2137 C 1.29231 0.63376 0.60833
 C2138 C 1.28383 0.61771 0.61664
 C2139 C 1.29224 0.60917 0.63262
 C2140 C 1.30900 0.61670 0.64037
 C2141 C 1.31766 0.63299 0.63225
 C2142 C 1.30908 0.64134 0.61603
 C2143 C 1.26632 0.61019 0.60900
 C2144 C 1.25156 0.60396 0.60276
 C2145 C 1.23416 0.59673 0.59566
 C2146 C 1.21921 0.59063 0.58976
 C2147 C 1.20125 0.58343 0.58291
 C2148 C 1.18710 0.57803 0.59595
 C2149 C 1.16955 0.57124 0.58938
 C2150 C 1.16590 0.56976 0.56965
 C2151 C 1.18024 0.57518 0.55665
 C2152 C 1.19780 0.58196 0.56326
 H2153 H 1.28591 0.64049 0.59595
 H2154 H 1.28578 0.59674 0.63918
 H2155 H 1.31504 0.60975 0.65281
 H2156 H 1.31519 0.65384 0.60926
 H2157 H 1.18959 0.57917 0.61120
 H2158 H 1.15871 0.56744 0.59974
 H2159 H 1.17793 0.57401 0.54138
 H2160 H 1.20866 0.58607 0.55304
 C2161 C 0.79223 1.10905 0.63398
 C2162 C 0.78387 1.11748 0.61792
 C2163 C 0.79237 1.13347 0.60952
 C2164 C 0.80912 1.14111 0.61720
 C2165 C 0.81766 1.13286 0.63350
 C2166 C 0.80898 1.11663 0.64171
 C2167 C 0.76638 1.10993 0.61026
 C2168 C 0.75163 1.10373 0.60395
 C2169 C 0.73426 1.09663 0.59668
 C2170 C 0.71932 1.09070 0.59056
 C2171 C 0.70137 1.08380 0.58336
 C2172 C 0.68716 1.09676 0.57802
 C2173 C 0.66962 1.09013 0.57125
 C2174 C 0.66605 1.07043 0.56974
 C2175 C 0.68045 1.05751 0.57511
 C2176 C 0.69800 1.06417 0.58187
 H2177 H 0.78575 1.09667 0.64060
 H2178 H 0.78600 1.14012 0.59708
 H2179 H 0.81524 1.15355 0.61036
 H2180 H 0.81499 1.10977 0.65421
 H2181 H 0.68960 1.11198 0.57919
 H2182 H 0.65874 1.10043 0.56749
 H2183 H 0.67820 1.04227 0.57391
 H2184 H 0.70891 1.05402 0.58594
 C2185 C 0.79266 0.60829 1.13238
 C2186 C 0.78427 0.61681 1.11636
 C2187 C 0.79282 0.63278 1.10796
 C2188 C 0.80962 0.64032 1.11561
 C2189 C 0.81811 0.63196 1.13183
 C2190 C 0.80946 0.61579 1.14007
 C2191 C 0.76670 0.60937 1.10878
 C2192 C 0.75188 0.60325 1.10259
 C2193 C 0.73440 0.59619 1.09553
 C2194 C 0.71938 0.59024 1.08967
 C2195 C 0.70132 0.58322 1.08289
 C2196 C 0.69779 0.58179 1.06325
 C2197 C 0.68014 0.57517 1.05671
 C2198 C 0.66581 0.56988 1.06976
 C2199 C 0.66953 0.57135 1.08948
 C2200 C 0.68717 0.57798 1.09598
 H2201 H 0.78614 0.59593 1.13901
 H2202 H 0.78643 0.63950 1.09556
 H2203 H 0.81587 0.65276 1.10889
 H2204 H 0.81558 0.60899 1.15254
 H2205 H 0.70866 0.58579 1.05299
 H2206 H 0.67777 0.57400 1.04145
 H2207 H 0.65870 0.56765 1.09988
 H2208 H 0.68973 0.57910 1.11122
 C2209 C 1.29312 0.86742 0.89233
 C2210 C 1.28477 0.88350 0.88395
 C2211 C 1.29325 0.89191 0.86793
 C2212 C 1.30995 0.88421 0.86020
 C2213 C 1.31846 0.86788 0.86838
 C2214 C 1.30981 0.85967 0.88465
 C2215 C 1.26730 0.89115 0.89155
 C2216 C 1.25256 0.89744 0.89776
 C2217 C 1.23517 0.90470 0.90485
 C2218 C 1.22021 0.91079 0.91074
 C2219 C 1.20223 0.91795 0.91757
 C2220 C 1.18806 0.92323 0.90452
 C2221 C 1.17046 0.92993 0.91108
 C2222 C 1.16680 0.93143 0.93081
 C2223 C 1.18117 0.92614 0.94382
 C2224 C 1.19876 0.91945 0.93722
 H2225 H 1.28665 0.86079 0.90473
 H2226 H 1.28689 0.90436 0.86132
 H2227 H 1.31605 0.89105 0.84773
 H2228 H 1.31580 0.84715 0.89146
 H2229 H 1.19056 0.92205 0.88928
 H2230 H 1.15961 0.93362 0.90071
 H2231 H 1.17884 0.92734 0.95908
 H2232 H 1.20965 0.91543 0.94745
 C2233 C 1.29305 0.36780 0.39129
 C2234 C 1.28473 0.38384 0.38281
 C2235 C 1.29325 0.39215 0.36676
 C2236 C 1.30995 0.38439 0.35910
 C2237 C 1.31843 0.36810 0.36739
 C2238 C 1.30975 0.35999 0.38369
 C2239 C 1.26725 0.39153 0.39035
 C2240 C 1.25250 0.39782 0.39655
 C2241 C 1.23510 0.40498 0.40370
 C2242 C 1.22013 0.41091 0.40973
 C2243 C 1.20212 0.41776 0.41683
 C2244 C 1.19867 0.43738 0.41827
 C2245 C 1.18107 0.44398 0.42496
 C2246 C 1.16671 0.43101 0.43032
 C2247 C 1.17035 0.41131 0.42885
 C2248 C 1.18794 0.40475 0.42214
 H2249 H 1.28655 0.36125 0.40373
 H2250 H 1.28691 0.40457 0.36007
 H2251 H 1.31608 0.39115 0.34660
 H2252 H 1.31572 0.34750 0.39058
 H2253 H 1.20956 0.44757 0.41421
 H2254 H 1.17875 0.45921 0.42613
 H2255 H 1.15950 0.40098 0.43259
 H2256 H 1.19044 0.38954 0.42101
 C2257 C 0.79288 0.86763 0.39202
 C2258 C 0.78454 0.88372 0.38363
 C2259 C 0.79303 0.89212 0.36760
 C2260 C 0.80972 0.88440 0.35988
 C2261 C 0.81815 0.86812 0.36810
 C2262 C 0.80957 0.85987 0.38433
 C2263 C 0.76707 0.89137 0.39123
 C2264 C 0.75233 0.89768 0.39744
 C2265 C 0.73495 0.90493 0.40453
 C2266 C 0.71999 0.91102 0.41043
 C2267 C 0.70201 0.91818 0.41726
 C2268 C 0.68783 0.92346 0.40422
 C2269 C 0.67024 0.93015 0.41078
 C2270 C 0.66658 0.93165 0.43051
 C2271 C 0.68095 0.92636 0.44352
 C2272 C 0.69855 0.91968 0.43692
 H2273 H 0.78641 0.86100 0.40442
 H2274 H 0.78667 0.90457 0.36098
 H2275 H 0.81591 0.89113 0.34740
 H2276 H 0.81565 0.84735 0.39104
 H2277 H 0.69033 0.92228 0.38897
 H2278 H 0.65938 0.93385 0.40042
 H2279 H 0.67863 0.92755 0.45878
 H2280 H 0.70943 0.91565 0.44714
 C2281 C 0.79299 0.39212 0.86735
 C2282 C 0.78461 0.38380 0.88349
 C2283 C 0.79303 0.36779 0.89194
 C2284 C 0.80970 0.36003 0.88421
 C2285 C 0.81817 0.36818 0.86788
 C2286 C 0.80965 0.38439 0.85959
 C2287 C 0.76716 0.39145 0.89114
 C2288 C 0.75243 0.39773 0.89740
 C2289 C 0.73505 0.40494 0.90456
 C2290 C 0.72010 0.41099 0.91051
 C2291 C 0.70212 0.41809 0.91739
 C2292 C 0.69869 0.41954 0.93706
 C2293 C 0.68109 0.42619 0.94370
 C2294 C 0.66670 0.43148 0.93073
 C2295 C 0.67032 0.43001 0.91099
 C2296 C 0.68791 0.42336 0.90439
 H2297 H 0.78656 0.40451 0.86068
 H2298 H 0.78665 0.36123 0.90442
 H2299 H 0.81585 0.34757 0.89097
 H2300 H 0.81577 0.39104 0.84703
 H2301 H 0.70960 0.41552 0.94725
 H2302 H 0.67880 0.42736 0.95897
 H2303 H 0.65943 0.43371 0.90066
 H2304 H 0.69038 0.42221 0.88914
 C2305 C 0.70732 0.89163 1.13321
 C2306 C 0.71575 0.88322 1.11716
 C2307 C 0.70727 0.86725 1.10869
 C2308 C 0.69048 0.85962 1.11631
 C2309 C 0.68195 0.86788 1.13255
 C2310 C 0.69053 0.88404 1.14086
 C2311 C 0.73330 0.89075 1.10959
 C2312 C 0.74809 0.89692 1.10336
 C2313 C 0.76553 0.90398 1.09618
 C2314 C 0.78052 0.90985 1.09014
 C2315 C 0.79853 0.91669 1.08303
 C2316 C 0.81274 0.90369 1.07779
 C2317 C 0.83034 0.91026 1.07112
 C2318 C 0.83397 0.92996 1.06961
 C2319 C 0.81957 0.94292 1.07487
 C2320 C 0.80196 0.93631 1.08153
 H2321 H 0.71378 0.90399 1.13990
 H2322 H 0.71370 0.86061 1.09627
 H2323 H 0.68429 0.84719 1.10953
 H2324 H 0.68437 0.89078 1.15335
 H2325 H 0.81025 0.88847 1.07897
 H2326 H 0.84122 0.89993 1.06745
 H2327 H 0.82187 0.95815 1.07366
 H2328 H 0.79105 0.94650 1.08552
 C2329 C 0.70682 0.36736 0.60762
 C2330 C 0.71537 0.38330 0.61605
 C2331 C 0.70700 0.39175 0.63209
 C2332 C 0.69020 0.38423 0.63980
 C2333 C 0.68149 0.36803 0.63157
 C2334 C 0.69004 0.35977 0.61526
 C2335 C 0.73292 0.39076 0.60844
 C2336 C 0.74773 0.39685 0.60216
 C2337 C 0.76518 0.40382 0.59493
 C2338 C 0.78018 0.40962 0.58885
 C2339 C 0.79821 0.41639 0.58172
 C2340 C 0.80172 0.43599 0.58025
 C2341 C 0.81936 0.44254 0.57360
 C2342 C 0.83371 0.42952 0.56833
 C2343 C 0.82999 0.40984 0.56979
 C2344 C 0.81236 0.40333 0.57645
 H2345 H 0.71321 0.36069 0.59518
 H2346 H 0.71351 0.40410 0.63874
 H2347 H 0.68419 0.39109 0.65230
 H2348 H 0.68388 0.34736 0.60841
 H2349 H 0.79086 0.44622 0.58426
 H2350 H 0.82173 0.45776 0.57243
 H2351 H 0.84084 0.39947 0.56611
 H2352 H 0.80981 0.38812 0.57761
 C2353 C 0.20753 0.86612 0.60845
 C2354 C 0.21600 0.88211 0.61686
 C2355 C 0.20761 0.89053 0.63291
 C2356 C 0.19086 0.88293 0.64064
 C2357 C 0.18221 0.86670 0.63242
 C2358 C 0.19078 0.85847 0.61612
 C2359 C 0.23350 0.88970 0.60922
 C2360 C 0.24825 0.89597 0.60298
 C2361 C 0.26563 0.90322 0.59586
 C2362 C 0.28057 0.90934 0.58994
 C2363 C 0.29853 0.91656 0.58307
 C2364 C 0.31269 0.92193 0.59609
 C2365 C 0.33023 0.92874 0.58950
 C2366 C 0.33385 0.93026 0.56977
 C2367 C 0.31951 0.92487 0.55678
 C2368 C 0.30196 0.91807 0.56341
 H2369 H 0.21393 0.85949 0.59601
 H2370 H 0.21407 0.90292 0.63954
 H2371 H 0.18482 0.88978 0.65314
 H2372 H 0.18467 0.84602 0.60928
 H2373 H 0.31022 0.92075 0.61134
 H2374 H 0.34108 0.93251 0.59985
 H2375 H 0.32180 0.92608 0.54152
 H2376 H 0.29108 0.91397 0.55321
 C2377 C 0.20726 0.39135 1.13286
 C2378 C 0.21566 0.38294 1.11681
 C2379 C 0.20717 0.36698 1.10837
 C2380 C 0.19039 0.35934 1.11601
 C2381 C 0.18182 0.36757 1.13231
 C2382 C 0.19049 0.38378 1.14056
 C2383 C 0.23319 0.39046 1.10921
 C2384 C 0.24798 0.39662 1.10295
 C2385 C 0.26541 0.40367 1.09573
 C2386 C 0.28039 0.40955 1.08967
 C2387 C 0.29839 0.41638 1.08254
 C2388 C 0.31258 0.40338 1.07725
 C2389 C 0.33018 0.40995 1.07057
 C2390 C 0.33383 0.42965 1.06910
 C2391 C 0.31944 0.44261 1.07440
 C2392 C 0.30183 0.43600 1.08107
 H2393 H 0.21374 0.40372 1.13952
 H2394 H 0.21357 0.36034 1.09594
 H2395 H 0.18428 0.34691 1.10914
 H2396 H 0.18444 0.39062 1.15306
 H2397 H 0.31009 0.38817 1.07840
 H2398 H 0.34106 0.39963 1.06687
 H2399 H 0.32175 0.45785 1.07323
 H2400 H 0.29093 0.44619 1.08510
 C2401 C 0.70767 1.13317 0.89073
 C2402 C 0.71604 1.11713 0.88230
 C2403 C 0.70760 1.10881 0.86622
 C2404 C 0.69091 1.11655 0.85850
 C2405 C 0.68238 1.13283 0.86675
 C2406 C 0.69100 1.14096 0.88307
 C2407 C 0.73347 1.10942 0.88995
 C2408 C 0.74816 1.10309 0.89624
 C2409 C 0.76549 1.09580 0.90346
 C2410 C 0.78038 1.08967 0.90948
 C2411 C 0.79828 1.08247 0.91649
 C2412 C 0.81255 1.07708 0.90358
 C2413 C 0.83006 1.07033 0.91031
 C2414 C 0.83354 1.06887 0.93007
 C2415 C 0.81908 1.07427 0.94294
 C2416 C 0.80157 1.08102 0.93618
 H2417 H 0.71411 1.13974 0.90319
 H2418 H 0.71397 1.09639 0.85957
 H2419 H 0.68483 1.10977 0.84599
 H2420 H 0.68498 1.15344 0.88994
 H2421 H 0.81019 1.07822 0.88831
 H2422 H 0.84099 1.06655 0.90004
 H2423 H 0.82126 1.07311 0.95823
 H2424 H 0.79062 1.08512 0.94629
 C2425 C 0.70710 0.60815 0.36696
 C2426 C 0.71563 0.61655 0.38296
 C2427 C 0.70733 0.63266 0.39136
 C2428 C 0.69063 0.64043 0.38372
 C2429 C 0.68200 0.63218 0.36752
 C2430 C 0.69040 0.61589 0.35928
 C2431 C 0.73309 0.60885 0.39053
 C2432 C 0.74782 0.60250 0.39671
 C2433 C 0.76519 0.59516 0.40376
 C2434 C 0.78012 0.58899 0.40964
 C2435 C 0.79807 0.58174 0.41647
 C2436 C 0.80148 0.58017 0.43612
 C2437 C 0.81905 0.57343 0.44272
 C2438 C 0.83344 0.56816 0.42972
 C2439 C 0.82983 0.56972 0.40999
 C2440 C 0.81226 0.57647 0.40343
 H2441 H 0.71343 0.59569 0.36033
 H2442 H 0.71383 0.63929 0.40374
 H2443 H 0.68457 0.65296 0.39044
 H2444 H 0.68417 0.60916 0.34683
 H2445 H 0.79058 0.58418 0.44634
 H2446 H 0.82134 0.57218 0.45799
 H2447 H 0.84070 0.56605 0.39963
 H2448 H 0.80979 0.57771 0.38818
 C2449 C 0.20732 1.13294 0.39119
 C2450 C 0.21576 1.11692 0.38281
 C2451 C 0.20736 1.10850 0.36676
 C2452 C 0.19066 1.11614 0.35900
 C2453 C 0.18206 1.13242 0.36718
 C2454 C 0.19062 1.14065 0.38348
 C2455 C 0.23322 1.10932 0.39048
 C2456 C 0.24796 1.10308 0.39676
 C2457 C 0.26533 1.09589 0.40395
 C2458 C 0.28027 1.08985 0.40993
 C2459 C 0.29824 1.08274 0.41686
 C2460 C 0.31248 1.07744 0.40389
 C2461 C 0.33003 1.07075 0.41054
 C2462 C 0.33360 1.06928 0.43029
 C2463 C 0.31918 1.07461 0.44322
 C2464 C 0.30161 1.08129 0.43654
 H2465 H 0.21372 1.13958 0.40362
 H2466 H 0.21380 1.09608 0.36016
 H2467 H 0.18462 1.10930 0.34650
 H2468 H 0.18456 1.15313 0.39030
 H2469 H 0.31005 1.07857 0.38863
 H2470 H 0.34094 1.06702 0.40023
 H2471 H 0.32142 1.07345 0.45850
 H2472 H 0.29068 1.08534 0.44670
 C2473 C 0.20666 0.60749 0.86790
 C2474 C 0.21520 0.61593 0.88388
 C2475 C 0.20687 0.63202 0.89228
 C2476 C 0.19014 0.63974 0.88466
 C2477 C 0.18150 0.63146 0.86848
 C2478 C 0.18993 0.61518 0.86025
 C2479 C 0.23270 0.60830 0.89141
 C2480 C 0.24747 0.60200 0.89756
 C2481 C 0.26488 0.59475 0.90458
 C2482 C 0.27986 0.58866 0.91041
 C2483 C 0.29786 0.58151 0.91719
 C2484 C 0.30135 0.57998 0.93684
 C2485 C 0.31897 0.57333 0.94339
 C2486 C 0.33334 0.56812 0.93035
 C2487 C 0.32966 0.56964 0.91063
 C2488 C 0.31204 0.57629 0.90411
 H2489 H 0.21300 0.59504 0.86128
 H2490 H 0.21338 0.63868 0.90464
 H2491 H 0.18407 0.65227 0.89137
 H2492 H 0.18369 0.60842 0.84781
 H2493 H 0.29046 0.58395 0.94709
 H2494 H 0.32131 0.57211 0.95865
 H2495 H 0.34052 0.56600 0.90024
 H2496 H 0.30952 0.57750 0.88888
 C2497 C 1.10847 1.29351 1.13216
 C2498 C 1.11688 1.28496 1.11617
 C2499 C 1.13301 1.29324 1.10782
 C2500 C 1.14081 1.30993 1.11550
 C2501 C 1.13256 1.31856 1.13170
 C2502 C 1.11623 1.31019 1.13988
 C2503 C 1.10917 1.26750 1.10858
 C2504 C 1.10281 1.25276 1.10240
 C2505 C 1.09547 1.23537 1.09536
 C2506 C 1.08930 1.22041 1.08952
 C2507 C 1.08207 1.20242 1.08273
 C2508 C 1.08057 1.19893 1.06308
 C2509 C 1.07385 1.18131 1.05653
 C2510 C 1.06852 1.16697 1.06956
 C2511 C 1.07000 1.17066 1.08929
 C2512 C 1.07674 1.18827 1.09581
 H2513 H 1.09599 1.28720 1.13876
 H2514 H 1.13965 1.28673 1.09544
 H2515 H 1.15336 1.31597 1.10882
 H2516 H 1.10949 1.31643 1.15233
 H2517 H 1.08463 1.20979 1.05284
 H2518 H 1.07266 1.17896 1.04127
 H2519 H 1.06628 1.15982 1.09967
 H2520 H 1.07791 1.19080 1.11105
 C2521 C 1.13332 0.79237 0.60800
 C2522 C 1.11716 0.78413 0.61635
 C2523 C 1.10878 0.79269 0.63235
 C2524 C 1.11658 0.80935 0.64007
 C2525 C 1.13292 0.81769 0.63189
 C2526 C 1.14115 0.80904 0.61569
 C2527 C 1.10939 0.76669 0.60875
 C2528 C 1.10297 0.75199 0.60255
 C2529 C 1.09554 0.73465 0.59549
 C2530 C 1.08930 0.71973 0.58961
 C2531 C 1.08198 0.70179 0.58278
 C2532 C 1.07658 0.68763 0.59581
 C2533 C 1.06978 0.67007 0.58924
 C2534 C 1.06832 0.66642 0.56950
 C2535 C 1.07370 0.68079 0.55651
 C2536 C 1.08048 0.69836 0.56312
 H2537 H 1.13994 0.78584 0.59562
 H2538 H 1.09628 0.78641 0.63894
 H2539 H 1.10986 0.81561 0.65252
 H2540 H 1.15372 0.81505 0.60901
 H2541 H 1.07775 0.69012 0.61106
 H2542 H 1.06601 0.65921 0.59959
 H2543 H 1.07253 0.67848 0.54124
 H2544 H 1.08460 0.70923 0.55291
 C2545 C 0.60810 1.29402 0.63154
 C2546 C 0.61651 1.28545 0.61556
 C2547 C 0.63263 1.29372 0.60718
 C2548 C 0.64042 1.31043 0.61483
 C2549 C 0.63218 1.31908 0.63102
 C2550 C 0.61585 1.31072 0.63923
 C2551 C 0.60882 1.26795 0.60803
 C2552 C 0.60249 1.25318 0.60189
 C2553 C 0.59519 1.23576 0.59492
 C2554 C 0.58905 1.22077 0.58913
 C2555 C 0.58186 1.20274 0.58241
 C2556 C 0.58034 1.19918 0.56278
 C2557 C 0.57366 1.18152 0.55629
 C2558 C 0.56841 1.16720 0.56938
 C2559 C 0.56992 1.17096 0.58909
 C2560 C 0.57660 1.18861 0.59554
 H2561 H 0.59563 1.28771 0.63816
 H2562 H 0.63927 1.28719 0.59482
 H2563 H 0.65297 1.31646 0.60814
 H2564 H 0.60912 1.31698 0.65167
 H2565 H 0.58434 1.21002 0.55249
 H2566 H 0.57246 1.17912 0.54104
 H2567 H 0.56625 1.16013 0.59952
 H2568 H 0.57780 1.19119 0.61077
 C2569 C 0.60791 0.79327 1.13278
 C2570 C 0.61632 0.78476 1.11676
 C2571 C 0.63243 0.79309 1.10841
 C2572 C 0.64019 0.80978 1.11611
 C2573 C 0.63194 0.81838 1.13232
 C2574 C 0.61564 0.80996 1.14052
 C2575 C 0.60864 0.76730 1.10914
 C2576 C 0.60231 0.75256 1.10293
 C2577 C 0.59501 0.73518 1.09583
 C2578 C 0.58887 0.72023 1.08993
 C2579 C 0.58167 0.70225 1.08309
 C2580 C 0.58021 0.69880 1.06343
 C2581 C 0.57350 0.68120 1.05681
 C2582 C 0.56817 0.66682 1.06980
 C2583 C 0.56962 0.67046 1.08954
 C2584 C 0.57633 0.68806 1.09611
 H2585 H 0.59545 0.78692 1.13938
 H2586 H 0.63907 0.78661 1.09601
 H2587 H 0.65273 0.81586 1.10942
 H2588 H 0.60891 0.81616 1.15298
 H2589 H 0.58428 0.70970 1.05322
 H2590 H 0.57234 0.67889 1.04154
 H2591 H 0.56589 0.65959 1.09989
 H2592 H 0.57748 0.69055 1.11136
 C2593 C 0.89130 1.29275 0.86725
 C2594 C 0.88293 1.28444 0.88339
 C2595 C 0.86703 1.29302 0.89187
 C2596 C 0.85942 1.30978 0.88416
 C2597 C 0.86762 1.31819 0.86782
 C2598 C 0.88373 1.30951 0.85951
 C2599 C 0.89043 1.26691 0.89104
 C2600 C 0.89660 1.25212 0.89730
 C2601 C 0.90369 1.23468 0.90446
 C2602 C 0.90966 1.21968 0.91040
 C2603 C 0.91671 1.20165 0.91727
 C2604 C 0.91807 1.19817 0.93693
 C2605 C 0.92472 1.18055 0.94356
 C2606 C 0.93011 1.16619 0.93057
 C2607 C 0.92872 1.16986 0.91083
 C2608 C 0.92206 1.18746 0.90425
 H2609 H 0.90361 1.28621 0.86056
 H2610 H 0.86042 1.28669 0.90436
 H2611 H 0.84703 1.31605 0.89094
 H2612 H 0.89042 1.31558 0.84694
 H2613 H 0.91398 1.20906 0.94714
 H2614 H 0.92583 1.17822 0.95883
 H2615 H 0.93249 1.15900 0.90049
 H2616 H 0.92099 1.18998 0.88900
 C2617 C 0.86689 0.79276 0.39185
 C2618 C 0.88284 0.78425 0.38340
 C2619 C 0.89128 0.79266 0.36734
 C2620 C 0.88372 0.80947 0.35967
 C2621 C 0.86758 0.81808 0.36796
 C2622 C 0.85930 0.80956 0.38421
 C2623 C 0.89034 0.76668 0.39098
 C2624 C 0.89650 0.75187 0.39718
 C2625 C 0.90362 0.73440 0.40426
 C2626 C 0.90961 0.71939 0.41014
 C2627 C 0.91668 0.70135 0.41696
 C2628 C 0.92206 0.68721 0.40390
 C2629 C 0.92874 0.66959 0.41043
 C2630 C 0.93012 0.66586 0.43016
 C2631 C 0.92470 0.68018 0.44319
 C2632 C 0.91803 0.69781 0.43661
 H2633 H 0.86024 0.78635 0.40427
 H2634 H 0.90362 0.78617 0.36067
 H2635 H 0.89047 0.81561 0.34717
 H2636 H 0.84689 0.81579 0.39097
 H2637 H 0.92099 0.68977 0.38865
 H2638 H 0.93254 0.65877 0.40005
 H2639 H 0.92580 0.67780 0.45845
 H2640 H 0.91392 0.70866 0.44685
 C2641 C 0.36641 1.29331 0.39203
 C2642 C 0.38244 1.28483 0.38370
 C2643 C 0.39093 1.29324 0.36766
 C2644 C 0.38336 1.30998 0.35990
 C2645 C 0.36713 1.31856 0.36807
 C2646 C 0.35880 1.31006 0.38430
 C2647 C 0.38997 1.26732 0.39136
 C2648 C 0.39619 1.25254 0.39760
 C2649 C 0.40338 1.23512 0.40471
 C2650 C 0.40944 1.22014 0.41061
 C2651 C 0.41660 1.20213 0.41744
 C2652 C 0.42194 1.18797 0.40439
 C2653 C 0.42869 1.17038 0.41093
 C2654 C 0.43017 1.16670 0.43066
 C2655 C 0.42479 1.18104 0.44368
 C2656 C 0.41806 1.19864 0.43709
 H2657 H 0.35972 1.28691 0.40444
 H2658 H 0.40334 1.28678 0.36108
 H2659 H 0.39015 1.31611 0.34742
 H2660 H 0.34632 1.31626 0.39097
 H2661 H 0.42080 1.19049 0.38914
 H2662 H 0.43245 1.15954 0.40057
 H2663 H 0.42597 1.17871 0.45894
 H2664 H 0.41398 1.20952 0.44732
 C2665 C 0.39096 0.79302 0.86815
 C2666 C 0.38249 0.78454 0.88416
 C2667 C 0.36648 0.79299 0.89256
 C2668 C 0.35887 0.80979 0.88493
 C2669 C 0.36718 0.81836 0.86873
 C2670 C 0.38339 0.80982 0.86048
 C2671 C 0.39001 0.76699 0.89171
 C2672 C 0.39622 0.75217 0.89788
 C2673 C 0.40338 0.73471 0.90491
 C2674 C 0.40942 0.71970 0.91075
 C2675 C 0.41654 0.70165 0.91751
 C2676 C 0.41796 0.69809 0.93716
 C2677 C 0.42465 0.68045 0.94368
 C2678 C 0.43003 0.66615 0.93061
 C2679 C 0.42859 0.66991 0.91090
 C2680 C 0.42188 0.68754 0.90441
 H2681 H 0.40335 0.78659 0.86152
 H2682 H 0.35980 0.78653 0.90495
 H2683 H 0.34640 0.81595 0.89165
 H2684 H 0.39016 0.81600 0.84803
 H2685 H 0.41388 0.70892 0.94742
 H2686 H 0.42580 0.67805 0.95894
 H2687 H 0.43235 0.65910 0.90049
 H2688 H 0.42077 0.69012 0.88918
 C2689 C 1.13265 0.70679 0.89228
 C2690 C 1.11664 0.71524 0.88387
 C2691 C 1.10817 0.70675 0.86788
 C2692 C 1.11575 0.68995 0.86023
 C2693 C 1.13195 0.68140 0.86847
 C2694 C 1.14025 0.68998 0.88466
 C2695 C 1.10913 0.73280 0.89143
 C2696 C 1.10298 0.74762 0.89763
 C2697 C 1.09595 0.76509 0.90477
 C2698 C 1.09009 0.78012 0.91077
 C2699 C 1.08328 0.79817 0.91783
 C2700 C 1.06369 0.80167 0.91925
 C2701 C 1.05712 0.81932 0.92586
 C2702 C 1.07009 0.83370 0.93115
 C2703 C 1.08976 0.83001 0.92972
 C2704 C 1.09629 0.81237 0.92309
 H2705 H 1.13933 0.71325 0.90465
 H2706 H 1.09579 0.71319 0.86125
 H2707 H 1.10897 0.68375 0.84778
 H2708 H 1.15271 0.68382 0.89138
 H2709 H 1.05350 0.79076 0.91523
 H2710 H 1.04191 0.82166 0.92701
 H2711 H 1.10009 0.84088 0.93341
 H2712 H 1.11149 0.80984 0.92197
 C2713 C 1.13361 0.20705 0.39141
 C2714 C 1.11756 0.21541 0.38300
 C2715 C 1.10916 0.20689 0.36699
 C2716 C 1.11684 0.19015 0.35932
 C2717 C 1.13309 0.18169 0.36756
 C2718 C 1.14133 0.19030 0.38377
 C2719 C 1.10994 0.23292 0.39056
 C2720 C 1.10369 0.24770 0.39676
 C2721 C 1.09654 0.26513 0.40388
 C2722 C 1.09059 0.28012 0.40987
 C2723 C 1.08369 0.29814 0.41691
 C2724 C 1.06407 0.30155 0.41828
 C2725 C 1.05741 0.31916 0.42490
 C2726 C 1.07031 0.33359 0.43025
 C2727 C 1.09000 0.32999 0.42886
 C2728 C 1.09662 0.31238 0.42223
 H2729 H 1.14025 0.21354 0.40379
 H2730 H 1.09674 0.21326 0.36036
 H2731 H 1.11011 0.18393 0.34686
 H2732 H 1.15383 0.18420 0.39049
 H2733 H 1.05394 0.29061 0.41422
 H2734 H 1.04218 0.32144 0.42601
 H2735 H 1.10027 0.34090 0.43260
 H2736 H 1.11183 0.30992 0.42115
 C2737 C 0.60859 0.70741 0.36700
 C2738 C 0.61703 0.71588 0.38301
 C2739 C 0.63306 0.70746 0.39140
 C2740 C 0.64071 0.69069 0.38375
 C2741 C 0.63243 0.68211 0.36755
 C2742 C 0.61621 0.69064 0.35931
 C2743 C 0.60946 0.73341 0.39061
 C2744 C 0.60325 0.74819 0.39685
 C2745 C 0.59613 0.76561 0.40402
 C2746 C 0.59021 0.78059 0.41006
 C2747 C 0.58333 0.79860 0.41716
 C2748 C 0.59627 0.81285 0.42244
 C2749 C 0.58967 0.83044 0.42913
 C2750 C 0.56999 0.83403 0.43062
 C2751 C 0.55708 0.81960 0.42531
 C2752 C 0.56372 0.80200 0.41863
 H2753 H 0.59619 0.71382 0.36038
 H2754 H 0.63972 0.71391 0.40379
 H2755 H 0.65319 0.68454 0.39047
 H2756 H 0.60945 0.68445 0.34685
 H2757 H 0.61148 0.81039 0.42129
 H2758 H 0.59996 0.84135 0.43284
 H2759 H 0.54185 0.82187 0.42650
 H2760 H 0.55357 0.79106 0.41460
 C2761 C 0.60959 0.20743 0.86704
 C2762 C 0.61805 0.21588 0.88305
 C2763 C 0.63413 0.20749 0.89137
 C2764 C 0.64182 0.19077 0.88364
 C2765 C 0.63352 0.18222 0.86744
 C2766 C 0.61725 0.19071 0.85928
 C2767 C 0.61043 0.23336 0.89071
 C2768 C 0.60417 0.24811 0.89698
 C2769 C 0.59698 0.26549 0.90417
 C2770 C 0.59098 0.28044 0.91021
 C2771 C 0.58402 0.29842 0.91731
 C2772 C 0.59690 0.31270 0.92265
 C2773 C 0.59021 0.33027 0.92932
 C2774 C 0.57051 0.33379 0.93074
 C2775 C 0.55766 0.31932 0.92537
 C2776 C 0.56439 0.30175 0.91871
 H2777 H 0.59714 0.21382 0.86047
 H2778 H 0.64080 0.21393 0.90376
 H2779 H 0.65433 0.18464 0.89030
 H2780 H 0.61047 0.18454 0.84682
 H2781 H 0.61212 0.31031 0.92154
 H2782 H 0.60045 0.34121 0.93307
 H2783 H 0.54243 0.32154 0.92650
 H2784 H 0.55429 0.29078 0.91463
 C2785 C 0.89221 0.70648 1.13248
 C2786 C 0.88385 0.71504 1.11647
 C2787 C 0.86778 0.70673 1.10804
 C2788 C 0.86000 0.69001 1.11566
 C2789 C 0.86819 0.68136 1.13187
 C2790 C 0.88446 0.68976 1.14014
 C2791 C 0.89153 0.73254 1.10893
 C2792 C 0.89785 0.74731 1.10277
 C2793 C 0.90511 0.76474 1.09573
 C2794 C 0.91120 0.77972 1.08987
 C2795 C 0.91835 0.79774 1.08306
 C2796 C 0.91987 0.80123 1.06341
 C2797 C 0.92653 0.81886 1.05684
 C2798 C 0.93176 0.83325 1.06987
 C2799 C 0.93024 0.82957 1.08959
 C2800 C 0.92357 0.81193 1.09613
 H2801 H 0.90464 0.71281 1.13913
 H2802 H 0.86118 0.71325 1.09565
 H2803 H 0.84749 0.68395 1.10892
 H2804 H 0.89115 0.68351 1.15260
 H2805 H 0.91588 0.79033 1.05318
 H2806 H 0.92774 0.82120 1.04158
 H2807 H 0.93389 0.84044 1.09997
 H2808 H 0.92238 0.80942 1.11137
 C2809 C 0.86668 0.20710 0.60907
 C2810 C 0.88281 0.21535 0.61743
 C2811 C 0.89115 0.20681 0.63347
 C2812 C 0.88332 0.19015 0.64120
 C2813 C 0.86700 0.18181 0.63299
 C2814 C 0.85882 0.19044 0.61677
 C2815 C 0.89059 0.23277 0.60979
 C2816 C 0.89697 0.24747 0.60349
 C2817 C 0.90424 0.26480 0.59624
 C2818 C 0.91028 0.27971 0.59012
 C2819 C 0.91726 0.29764 0.58290
 C2820 C 0.93689 0.30099 0.58153
 C2821 C 0.94362 0.31852 0.57472
 C2822 C 0.93077 0.33292 0.56919
 C2823 C 0.91107 0.32938 0.57060
 C2824 C 0.90439 0.31186 0.57741
 H2825 H 0.86010 0.21361 0.59666
 H2826 H 0.90363 0.21309 0.64007
 H2827 H 0.89001 0.18391 0.65367
 H2828 H 0.84627 0.18443 0.61007
 H2829 H 0.94699 0.29006 0.58572
 H2830 H 0.95885 0.32075 0.57361
 H2831 H 0.90083 0.34028 0.56673
 H2832 H 0.88916 0.30945 0.57850
 C2833 C 0.36664 0.70748 0.60836
 C2834 C 0.38280 0.71564 0.61677
 C2835 C 0.39117 0.70694 0.63270
 C2836 C 0.38335 0.69021 0.64028
 C2837 C 0.36700 0.68195 0.63203
 C2838 C 0.35879 0.69075 0.61591
 C2839 C 0.39056 0.73314 0.60930
 C2840 C 0.39694 0.74790 0.60318
 C2841 C 0.40422 0.76531 0.59613
 C2842 C 0.41026 0.78029 0.59020
 C2843 C 0.41722 0.79831 0.58318
 C2844 C 0.43684 0.80169 0.58180
 C2845 C 0.44354 0.81928 0.57513
 C2846 C 0.43067 0.83371 0.56974
 C2847 C 0.41098 0.83016 0.57119
 C2848 C 0.40432 0.81258 0.57786
 H2849 H 0.36003 0.71411 0.59604
 H2850 H 0.40367 0.71315 0.63933
 H2851 H 0.39007 0.68385 0.65268
 H2852 H 0.34622 0.68480 0.60919
 H2853 H 0.44696 0.79073 0.58586
 H2854 H 0.45877 0.82152 0.57398
 H2855 H 0.40072 0.84108 0.56743
 H2856 H 0.38910 0.81015 0.57896
 C2857 C 0.36804 0.20622 1.10732
 C2858 C 0.38418 0.21440 1.11575
 C2859 C 0.39255 0.20571 1.13168
 C2860 C 0.38474 0.18898 1.13926
 C2861 C 0.36840 0.18071 1.13100
 C2862 C 0.36020 0.18948 1.11486
 C2863 C 0.39189 0.23193 1.10832
 C2864 C 0.39819 0.24674 1.10224
 C2865 C 0.40537 0.26422 1.09525
 C2866 C 0.41131 0.27926 1.08937
 C2867 C 0.41814 0.29735 1.08245
 C2868 C 0.43773 0.30088 1.08110
 C2869 C 0.44430 0.31856 1.07454
 C2870 C 0.43132 0.33293 1.06923
 C2871 C 0.41166 0.32921 1.07063
 C2872 C 0.40513 0.31155 1.07719
 H2873 H 0.36143 0.21285 1.09499
 H2874 H 0.40503 0.21194 1.13833
 H2875 H 0.39144 0.18263 1.15167
 H2876 H 0.34764 0.18353 1.10813
 H2877 H 0.44792 0.28998 1.08511
 H2878 H 0.45952 0.32093 1.07343
 H2879 H 0.40132 0.34008 1.06692
 H2880 H 0.38993 0.30899 1.07826
 C2881 C 1.10776 1.13254 0.70639
 C2882 C 1.11613 1.11647 0.71478
 C2883 C 1.13209 1.10804 0.70625
 C2884 C 1.13974 1.11572 0.68947
 C2885 C 1.13153 1.13199 0.68098
 C2886 C 1.11538 1.14025 0.68960
 C2887 C 1.10860 1.10887 0.73235
 C2888 C 1.10241 1.10266 0.74718
 C2889 C 1.09530 1.09556 0.76467
 C2890 C 1.08932 1.08967 0.77971
 C2891 C 1.08229 1.08284 0.79780
 C2892 C 1.08096 1.06322 0.80133
 C2893 C 1.07436 1.05663 0.81902
 C2894 C 1.06899 1.06962 0.83340
 C2895 C 1.07035 1.08931 0.82968
 C2896 C 1.07696 1.09585 0.81200
 H2897 H 1.09541 1.13919 0.71289
 H2898 H 1.13870 1.09561 0.71264
 H2899 H 1.15217 1.10898 0.68324
 H2900 H 1.10868 1.15276 0.68348
 H2901 H 1.08503 1.05302 0.79042
 H2902 H 1.07327 1.04140 0.82139
 H2903 H 1.06660 1.09965 0.84055
 H2904 H 1.07802 1.11107 0.80945
 C2905 C 1.13331 0.60928 0.20660
 C2906 C 1.11740 0.61775 0.21514
 C2907 C 1.10914 0.63390 0.20682
 C2908 C 1.11682 0.64166 0.19008
 C2909 C 1.13298 0.63338 0.18137
 C2910 C 1.14105 0.61698 0.18987
 C2911 C 1.10977 0.61007 0.23264
 C2912 C 1.10350 0.60376 0.24740
 C2913 C 1.09630 0.59653 0.26480
 C2914 C 1.09024 0.59051 0.27977
 C2915 C 1.08311 0.58351 0.29775
 C2916 C 1.07765 0.59639 0.31203
 C2917 C 1.07093 0.58969 0.32960
 C2918 C 1.06957 0.56996 0.33314
 C2919 C 1.07506 0.55711 0.31869
 C2920 C 1.08178 0.56386 0.30111
 H2921 H 1.13983 0.59677 0.21294
 H2922 H 1.09681 0.64058 0.21334
 H2923 H 1.11010 0.65423 0.18410
 H2924 H 1.15344 0.61009 0.18371
 H2925 H 1.07870 0.61163 0.30962
 H2926 H 1.06708 0.59993 0.34054
 H2927 H 1.07398 0.54186 0.32092
 H2928 H 1.08594 0.55376 0.29015
 C2929 C 0.63322 1.10921 0.20689
 C2930 C 0.61725 1.11762 0.21537
 C2931 C 0.60893 1.13372 0.20700
 C2932 C 0.61662 1.14149 0.19027
 C2933 C 0.63285 1.13327 0.18162
 C2934 C 0.64097 1.11693 0.19016
 C2935 C 0.60960 1.10996 0.23287
 C2936 C 0.60330 1.10369 0.24762
 C2937 C 0.59604 1.09652 0.26503
 C2938 C 0.58993 1.09056 0.28000
 C2939 C 0.58274 1.08364 0.29799
 C2940 C 0.57734 1.09659 0.31223
 C2941 C 0.57059 1.08996 0.32983
 C2942 C 0.56916 1.07025 0.33342
 C2943 C 0.57457 1.05734 0.31899
 C2944 C 0.58132 1.06401 0.30139
 H2945 H 0.63978 1.09675 0.21327
 H2946 H 0.59656 1.14035 0.21347
 H2947 H 0.60986 1.15402 0.18426
 H2948 H 0.65341 1.11009 0.18405
 H2949 H 0.57847 1.11182 0.30978
 H2950 H 0.56680 1.10024 0.34074
 H2951 H 0.57343 1.04209 0.32126
 H2952 H 0.58543 1.05386 0.29045
 C2953 C 0.60778 0.63256 0.70614
 C2954 C 0.61609 0.61653 0.71467
 C2955 C 0.63205 0.60800 0.70625
 C2956 C 0.63978 0.61554 0.68943
 C2957 C 0.63164 0.63177 0.68081
 C2958 C 0.61547 0.64013 0.68933
 C2959 C 0.60847 0.60906 0.73226
 C2960 C 0.60224 0.60293 0.74711
 C2961 C 0.59513 0.59587 0.76462
 C2962 C 0.58923 0.58993 0.77967
 C2963 C 0.58241 0.58292 0.79777
 C2964 C 0.59541 0.57776 0.81204
 C2965 C 0.58887 0.57113 0.82971
 C2966 C 0.56921 0.56958 0.83336
 C2967 C 0.55624 0.57478 0.81892
 C2968 C 0.56282 0.58140 0.80124
 H2969 H 0.59543 0.63928 0.71256
 H2970 H 0.63861 0.59559 0.71275
 H2971 H 0.65220 0.60872 0.68329
 H2972 H 0.60882 0.65261 0.68310
 H2973 H 0.61061 0.57896 0.80953
 H2974 H 0.59920 0.56751 0.84063
 H2975 H 0.54102 0.57354 0.82124
 H2976 H 0.55263 0.58533 0.79029
 C2977 C 0.89189 0.86732 0.70673
 C2978 C 0.88357 0.88340 0.71516
 C2979 C 0.86758 0.89184 0.70671
 C2980 C 0.85984 0.88417 0.68996
 C2981 C 0.86801 0.86790 0.68144
 C2982 C 0.88419 0.85962 0.68998
 C2983 C 0.89120 0.89099 0.73268
 C2984 C 0.89749 0.89720 0.74746
 C2985 C 0.90473 0.90429 0.76489
 C2986 C 0.91082 0.91019 0.77989
 C2987 C 0.91796 0.91703 0.79792
 C2988 C 0.91934 0.93666 0.80140
 C2989 C 0.92601 0.94326 0.81905
 C2990 C 0.93141 0.93030 0.83343
 C2991 C 0.93004 0.91060 0.82975
 C2992 C 0.92336 0.90403 0.81211
 H2993 H 0.90426 0.86066 0.71316
 H2994 H 0.86101 0.90428 0.71313
 H2995 H 0.84740 0.89092 0.68380
 H2996 H 0.89085 0.84710 0.68383
 H2997 H 0.91522 0.94684 0.79051
 H2998 H 0.92711 0.95850 0.82139
 H2999 H 0.93382 0.90027 0.84062
 H3000 H 0.92227 0.88881 0.80959
 C3001 C 0.86787 0.39219 0.20554
 C3002 C 0.88386 0.38371 0.21393
 C3003 C 0.89214 0.36766 0.20544
 C3004 C 0.88441 0.35999 0.18870
 C3005 C 0.86816 0.36826 0.18014
 C3006 C 0.86008 0.38458 0.18879
 C3007 C 0.89152 0.39124 0.23146
 C3008 C 0.89783 0.39739 0.24626
 C3009 C 0.90507 0.40442 0.26372
 C3010 C 0.91115 0.41027 0.27874
 C3011 C 0.91829 0.41705 0.29679
 C3012 C 0.92363 0.40400 0.31096
 C3013 C 0.93028 0.41052 0.32863
 C3014 C 0.93167 0.43020 0.33237
 C3015 C 0.92632 0.44321 0.31801
 C3016 C 0.91968 0.43666 0.30034
 H3017 H 0.86134 0.40462 0.21201
 H3018 H 0.90452 0.36097 0.21184
 H3019 H 0.89114 0.34749 0.18260
 H3020 H 0.84764 0.39146 0.18276
 H3021 H 0.92253 0.38879 0.30840
 H3022 H 0.93403 0.40015 0.33949
 H3023 H 0.92743 0.45844 0.32040
 H3024 H 0.91560 0.44688 0.28946
 C3025 C 0.36772 0.89148 0.20659
 C3026 C 0.38360 0.88295 0.21514
 C3027 C 0.39184 0.86677 0.20682
 C3028 C 0.38415 0.85905 0.19007
 C3029 C 0.36807 0.86742 0.18142
 C3030 C 0.36000 0.88380 0.18985
 C3031 C 0.39121 0.89058 0.23266
 C3032 C 0.39743 0.89686 0.24745
 C3033 C 0.40456 0.90406 0.26488
 C3034 C 0.41055 0.91005 0.27988
 C3035 C 0.41759 0.91700 0.29791
 C3036 C 0.42295 0.90407 0.31218
 C3037 C 0.42958 0.91073 0.32980
 C3038 C 0.43095 0.93044 0.33340
 C3039 C 0.42555 0.94333 0.31895
 C3040 C 0.41892 0.93664 0.30132
 H3041 H 0.36122 0.90400 0.21293
 H3042 H 0.40413 0.86004 0.21334
 H3043 H 0.39073 0.84646 0.18400
 H3044 H 0.34763 0.89062 0.18360
 H3045 H 0.42189 0.88884 0.30973
 H3046 H 0.43336 0.90045 0.34073
 H3047 H 0.42664 0.95858 0.32122
 H3048 H 0.41483 0.94677 0.29036
 C3049 C 0.36689 0.39068 0.70704
 C3050 C 0.38289 0.38222 0.71542
 C3051 C 0.39110 0.36610 0.70699
 C3052 C 0.38330 0.35837 0.69031
 C3053 C 0.36706 0.36664 0.68176
 C3054 C 0.35903 0.38301 0.69036
 C3055 C 0.39064 0.38986 0.73287
 C3056 C 0.39701 0.39613 0.74759
 C3057 C 0.40433 0.40332 0.76496
 C3058 C 0.41047 0.40931 0.77989
 C3059 C 0.41768 0.41628 0.79785
 C3060 C 0.42312 0.40337 0.81211
 C3061 C 0.42987 0.41005 0.82969
 C3062 C 0.43126 0.42977 0.83324
 C3063 C 0.42580 0.44264 0.81879
 C3064 C 0.41907 0.43592 0.80121
 H3065 H 0.36041 0.40317 0.71346
 H3066 H 0.40349 0.35943 0.71338
 H3067 H 0.38999 0.34582 0.68424
 H3068 H 0.34659 0.38989 0.68433
 H3069 H 0.42203 0.38813 0.80970
 H3070 H 0.43369 0.39979 0.84061
 H3071 H 0.42691 0.45790 0.82102
 H3072 H 0.41492 0.44604 0.79026
 C3073 C 1.13267 0.89181 1.29385
 C3074 C 1.11664 0.88344 1.28545
 C3075 C 1.10826 0.86742 1.29392
 C3076 C 1.11596 0.85969 1.31066
 C3077 C 1.13226 0.86786 1.31921
 C3078 C 1.14043 0.88414 1.31058
 C3079 C 1.10901 0.89106 1.26794
 C3080 C 1.10278 0.89734 1.25316
 C3081 C 1.09568 0.90458 1.23573
 C3082 C 1.08978 0.91066 1.22074
 C3083 C 1.08294 0.91782 1.20271
 C3084 C 1.06335 0.91924 1.19924
 C3085 C 1.05675 0.92593 1.18160
 C3086 C 1.06970 0.93131 1.16720
 C3087 C 1.08937 0.92989 1.17086
 C3088 C 1.09593 0.92318 1.18849
 H3089 H 1.13928 0.90422 1.28738
 H3090 H 1.09584 0.86081 1.28752
 H3091 H 1.10915 0.84721 1.31675
 H3092 H 1.15292 0.89095 1.31661
 H3093 H 1.05317 0.91514 1.21016
 H3094 H 1.04153 0.92706 1.17928
 H3095 H 1.09969 0.93365 1.15997
 H3096 H 1.11113 0.92207 1.19100
 C3097 C 1.13238 0.39123 0.79313
 C3098 C 1.11630 0.38284 0.78480
 C3099 C 1.10793 0.36684 0.79333
 C3100 C 1.11566 0.35916 0.81007
 C3101 C 1.13194 0.36738 0.81850
 C3102 C 1.14016 0.38358 0.80987
 C3103 C 1.10864 0.39042 0.76728
 C3104 C 1.10239 0.39665 0.75249
 C3105 C 1.09525 0.40383 0.73505
 C3106 C 1.08933 0.40987 0.72005
 C3107 C 1.08249 0.41698 0.70200
 C3108 C 1.06289 0.41833 0.69851
 C3109 C 1.05630 0.42501 0.68086
 C3110 C 1.06925 0.43045 0.66649
 C3111 C 1.08892 0.42908 0.67017
 C3112 C 1.09548 0.42239 0.68781
 H3113 H 1.13900 0.40360 0.78663
 H3114 H 1.09549 0.36023 0.78698
 H3115 H 1.10896 0.34671 0.81631
 H3116 H 1.15267 0.39028 0.81595
 H3117 H 1.05271 0.41420 0.70941
 H3118 H 1.04108 0.42609 0.67852
 H3119 H 1.09924 0.43289 0.65930
 H3120 H 1.11068 0.42133 0.69033
 C3121 C 0.63240 0.89282 0.79393
 C3122 C 0.61636 0.88449 0.78546
 C3123 C 0.60788 0.86851 0.79392
 C3124 C 0.61547 0.86077 0.81070
 C3125 C 0.63171 0.86893 0.81925
 C3126 C 0.64003 0.88512 0.81071
 C3127 C 0.60885 0.89210 0.76789
 C3128 C 0.60268 0.89831 0.75306
 C3129 C 0.59557 0.90538 0.73557
 C3130 C 0.58959 0.91125 0.72052
 C3131 C 0.58255 0.91804 0.70243
 C3132 C 0.57737 0.90499 0.68821
 C3133 C 0.57074 0.91150 0.67053
 C3134 C 0.56920 0.93118 0.66684
 C3135 C 0.57442 0.94419 0.68124
 C3136 C 0.58104 0.93765 0.69893
 H3137 H 0.63910 0.90519 0.78749
 H3138 H 0.59547 0.86193 0.78746
 H3139 H 0.60869 0.84833 0.81686
 H3140 H 0.65252 0.89178 0.81689
 H3141 H 0.57856 0.88978 0.69074
 H3142 H 0.56710 0.90113 0.65964
 H3143 H 0.57320 0.95942 0.67889
 H3144 H 0.58499 0.94787 0.70985
 C3145 C 0.63277 0.39093 1.29330
 C3146 C 0.61668 0.38258 1.28498
 C3147 C 0.60831 0.36658 1.29350
 C3148 C 0.61607 0.35884 1.31020
 C3149 C 0.63242 0.36699 1.31868
 C3150 C 0.64059 0.38324 1.31000
 C3151 C 0.60898 0.39022 1.26751
 C3152 C 0.60270 0.39652 1.25276
 C3153 C 0.59554 0.40378 1.23537
 C3154 C 0.58959 0.40990 1.22040
 C3155 C 0.58271 0.41711 1.20241
 C3156 C 0.56311 0.41844 1.19895
 C3157 C 0.55647 0.42519 1.18135
 C3158 C 0.56939 0.43070 1.16697
 C3159 C 0.58907 0.42936 1.17061
 C3160 C 0.59567 0.42260 1.18821
 H3161 H 0.63937 0.40332 1.28680
 H3162 H 0.59585 0.36000 1.28716
 H3163 H 0.60927 0.34638 1.31633
 H3164 H 0.65312 0.39003 1.31596
 H3165 H 0.55295 0.41425 1.20985
 H3166 H 0.54125 0.42626 1.17904
 H3167 H 0.59937 0.43322 1.15974
 H3168 H 0.61088 0.42154 1.19071
 C3169 C 0.86675 1.10838 1.29373
 C3170 C 0.88279 1.11664 1.28521
 C3171 C 0.89129 1.13265 1.29357
 C3172 C 0.88373 1.14048 1.31031
 C3173 C 0.86743 1.13243 1.31900
 C3174 C 0.85912 1.11616 1.31048
 C3175 C 0.89031 1.10893 1.26769
 C3176 C 0.89651 1.10263 1.25290
 C3177 C 0.90367 1.09547 1.23545
 C3178 C 0.90970 1.08953 1.22045
 C3179 C 0.91682 1.08266 1.20241
 C3180 C 0.92207 1.09565 1.18815
 C3181 C 0.92879 1.08908 1.17053
 C3182 C 0.93034 1.06938 1.16692
 C3183 C 0.92505 1.05642 1.18136
 C3184 C 0.91834 1.06304 1.19899
 H3185 H 0.86005 1.09599 1.28736
 H3186 H 0.90372 1.13916 1.28707
 H3187 H 0.89063 1.15294 1.31632
 H3188 H 0.84663 1.10944 1.31661
 H3189 H 0.92087 1.11087 1.19062
 H3190 H 0.93248 1.09940 1.15961
 H3191 H 0.92628 1.04119 1.17908
 H3192 H 0.91433 1.05286 1.20994
 C3193 C 0.86731 0.60776 0.79339
 C3194 C 0.88337 0.61605 0.78491
 C3195 C 0.89190 0.63201 0.79337
 C3196 C 0.88434 0.63974 0.81017
 C3197 C 0.86809 0.63161 0.81875
 C3198 C 0.85971 0.61546 0.81019
 C3199 C 0.89087 0.60842 0.76734
 C3200 C 0.89701 0.60213 0.75252
 C3201 C 0.90404 0.59491 0.73505
 C3202 C 0.90990 0.58884 0.72004
 C3203 C 0.91673 0.58171 0.70198
 C3204 C 0.93633 0.58035 0.69848
 C3205 C 0.94293 0.57370 0.68082
 C3206 C 0.92997 0.56831 0.66643
 C3207 C 0.91030 0.56966 0.67014
 C3208 C 0.90374 0.57633 0.68779
 H3209 H 0.86057 0.59542 0.78695
 H3210 H 0.90433 0.63855 0.78691
 H3211 H 0.89117 0.65215 0.81634
 H3212 H 0.84721 0.60882 0.81639
 H3213 H 0.94651 0.58446 0.70938
 H3214 H 0.95814 0.57262 0.67847
 H3215 H 0.89998 0.56588 0.65926
 H3216 H 0.88854 0.57739 0.69032
 C3217 C 0.39113 1.13313 0.79343
 C3218 C 0.38266 1.11711 0.78508
 C3219 C 0.36663 1.10883 0.79361
 C3220 C 0.35900 1.11660 0.81036
 C3221 C 0.36728 1.13288 0.81888
 C3222 C 0.38356 1.14096 0.81018
 C3223 C 0.39019 1.10938 0.76756
 C3224 C 0.39639 1.10307 0.75278
 C3225 C 0.40355 1.09586 0.73535
 C3226 C 0.40958 1.08989 0.72036
 C3227 C 0.41670 1.08299 0.70234
 C3228 C 0.41817 1.06336 0.69894
 C3229 C 0.42490 1.05670 0.68132
 C3230 C 0.43026 1.06963 0.66688
 C3231 C 0.42875 1.08934 0.67047
 C3232 C 0.42201 1.09595 0.68807
 H3233 H 0.40355 1.13966 0.78693
 H3234 H 0.35995 1.09642 0.78725
 H3235 H 0.34652 1.10986 0.81649
 H3236 H 0.39044 1.15343 0.81618
 H3237 H 0.41412 1.05320 0.70989
 H3238 H 0.42609 1.04146 0.67906
 H3239 H 0.43249 1.09964 0.65955
 H3240 H 0.42086 1.11117 0.69052
 C3241 C 0.36665 0.60822 1.29370
 C3242 C 0.38264 0.61651 1.28512
 C3243 C 0.39114 0.63253 1.29345
 C3244 C 0.38362 0.64035 1.31023
 C3245 C 0.36738 0.63225 1.31898
 C3246 C 0.35908 0.61597 1.31048
 C3247 C 0.39010 0.60880 1.26756
 C3248 C 0.39624 0.60249 1.25275
 C3249 C 0.40331 0.59528 1.23529
 C3250 C 0.40928 0.58931 1.22027
 C3251 C 0.41633 0.58242 1.20221
 C3252 C 0.42153 0.59539 1.18792
 C3253 C 0.42823 0.58879 1.17030
 C3254 C 0.42982 0.56909 1.16673
 C3255 C 0.42455 0.55615 1.18119
 C3256 C 0.41786 0.56279 1.19882
 H3257 H 0.35995 0.59581 1.28735
 H3258 H 0.40353 0.63907 1.28690
 H3259 H 0.39053 0.65282 1.31621
 H3260 H 0.34663 0.60922 1.31666
 H3261 H 0.42032 0.61061 1.19036
 H3262 H 0.43190 0.59909 1.15936
 H3263 H 0.42581 0.54091 1.17894
 H3264 H 0.41389 0.55262 1.20980
 C3265 C 1.13303 1.29313 0.89195
 C3266 C 1.11693 1.28478 0.88365
 C3267 C 1.10848 1.29326 0.86766
 C3268 C 1.11617 1.30995 0.85987
 C3269 C 1.13253 1.31846 0.86797
 C3270 C 1.14078 1.30982 0.88422
 C3271 C 1.10927 1.26731 0.89131
 C3272 C 1.10294 1.25258 0.89753
 C3273 C 1.09563 1.23519 0.90463
 C3274 C 1.08947 1.22025 0.91051
 C3275 C 1.08223 1.20227 0.91735
 C3276 C 1.07691 1.18809 0.90431
 C3277 C 1.07016 1.17050 0.91087
 C3278 C 1.06866 1.16685 0.93060
 C3279 C 1.07398 1.18122 0.94360
 C3280 C 1.08071 1.19882 0.93700
 H3281 H 1.13969 1.28666 0.90434
 H3282 H 1.09601 1.28689 0.86112
 H3283 H 1.10930 1.31604 0.84742
 H3284 H 1.15332 1.31582 0.89097
 H3285 H 1.07810 1.19059 0.88906
 H3286 H 1.06644 1.15964 0.90051
 H3287 H 1.07278 1.17890 0.95887
 H3288 H 1.08477 1.20970 0.94722
 C3289 C 1.10804 0.79327 0.36778
 C3290 C 1.11648 0.78479 0.38379
 C3291 C 1.13253 0.79319 0.39216
 C3292 C 1.14022 0.80993 0.38447
 C3293 C 1.13194 0.81851 0.36826
 C3294 C 1.11569 0.81001 0.36006
 C3295 C 1.10888 0.76728 0.39139
 C3296 C 1.10261 0.75250 0.39759
 C3297 C 1.09537 0.73507 0.40465
 C3298 C 1.08929 0.72008 0.41051
 C3299 C 1.08213 0.70206 0.41731
 C3300 C 1.08060 0.69857 0.43696
 C3301 C 1.07391 0.68094 0.44352
 C3302 C 1.06865 0.66657 0.43048
 C3303 C 1.07018 0.67026 0.41076
 C3304 C 1.07688 0.68789 0.40424
 H3305 H 1.09561 0.78688 0.36118
 H3306 H 1.13919 0.78673 0.40454
 H3307 H 1.15272 0.81606 0.39116
 H3308 H 1.10894 0.81620 0.34760
 H3309 H 1.08459 0.70946 0.44720
 H3310 H 1.07269 0.67859 0.45877
 H3311 H 1.06651 0.65941 0.40037
 H3312 H 1.07808 0.69042 0.38900
 C3313 C 0.63311 1.29323 0.39141
 C3314 C 0.61700 1.28487 0.38314
 C3315 C 0.60856 1.29330 0.36713
 C3316 C 0.61624 1.30998 0.35930
 C3317 C 0.63260 1.31851 0.36737
 C3318 C 0.64085 1.30991 0.38364
 C3319 C 0.60936 1.26742 0.39084
 C3320 C 0.60305 1.25269 0.39713
 C3321 C 0.59577 1.23533 0.40429
 C3322 C 0.58965 1.22039 0.41024
 C3323 C 0.58244 1.20242 0.41713
 C3324 C 0.57709 1.18822 0.40413
 C3325 C 0.57034 1.17065 0.41074
 C3326 C 0.56886 1.16704 0.43048
 C3327 C 0.57423 1.18143 0.44345
 C3328 C 0.58097 1.19900 0.43680
 H3329 H 0.63977 1.28680 0.40382
 H3330 H 0.59608 1.28692 0.36060
 H3331 H 0.60937 1.31605 0.34683
 H3332 H 0.65339 1.31593 0.39038
 H3333 H 0.57824 1.19069 0.38888
 H3334 H 0.56658 1.15977 0.40041
 H3335 H 0.57306 1.17914 0.45872
 H3336 H 0.58505 1.20991 0.44699
 C3337 C 0.63208 0.79365 0.89283
 C3338 C 0.61602 0.78530 0.88441
 C3339 C 0.60761 0.79385 0.86843
 C3340 C 0.61530 0.81061 0.86077
 C3341 C 0.63156 0.81904 0.86902
 C3342 C 0.63980 0.81040 0.88521
 C3343 C 0.60840 0.76777 0.89194
 C3344 C 0.60212 0.75297 0.89809
 C3345 C 0.59490 0.73552 0.90510
 C3346 C 0.58884 0.72050 0.91092
 C3347 C 0.58172 0.70246 0.91769
 C3348 C 0.57651 0.68829 0.90459
 C3349 C 0.56987 0.67063 0.91108
 C3350 C 0.56834 0.66691 0.93080
 C3351 C 0.57355 0.68127 0.94386
 C3352 C 0.58019 0.69893 0.93733
 H3353 H 0.63871 0.78713 0.90520
 H3354 H 0.59518 0.78750 0.86179
 H3355 H 0.60857 0.81685 0.84832
 H3356 H 0.65230 0.81648 0.89193
 H3357 H 0.57772 0.69084 0.88935
 H3358 H 0.56623 0.65978 0.90068
 H3359 H 0.57234 0.67890 0.95911
 H3360 H 0.58416 0.70981 0.94759
 C3361 C 0.86735 1.29357 1.10725
 C3362 C 0.88332 1.28505 1.11563
 C3363 C 0.89183 1.29347 1.13163
 C3364 C 0.88433 1.31028 1.13933
 C3365 C 0.86815 1.31890 1.13112
 C3366 C 0.85980 1.31038 1.11491
 C3367 C 0.89076 1.26745 1.10806
 C3368 C 0.89688 1.25261 1.10188
 C3369 C 0.90393 1.23511 1.09485
 C3370 C 0.90988 1.22005 1.08903
 C3371 C 0.91690 1.20196 1.08230
 C3372 C 0.92216 1.18784 1.09543
 C3373 C 0.92878 1.17017 1.08898
 C3374 C 0.93023 1.16637 1.06927
 C3375 C 0.92492 1.18067 1.05617
 C3376 C 0.91831 1.19835 1.06266
 H3377 H 0.86063 1.28715 1.09486
 H3378 H 0.90420 1.28697 1.13824
 H3379 H 0.89113 1.31642 1.15179
 H3380 H 0.84736 1.31661 1.10821
 H3381 H 0.92105 1.19046 1.11066
 H3382 H 0.93249 1.15937 1.09941
 H3383 H 0.92607 1.17823 1.04093
 H3384 H 0.91429 1.20919 1.05237
 C3385 C 0.89150 0.79261 0.63233
 C3386 C 0.88305 0.78414 0.61631
 C3387 C 0.86706 0.79261 0.60790
 C3388 C 0.85944 0.80940 0.61553
 C3389 C 0.86773 0.81797 0.63173
 C3390 C 0.88392 0.80940 0.63999
 C3391 C 0.89057 0.76659 0.60874
 C3392 C 0.89673 0.75178 0.60251
 C3393 C 0.90378 0.73433 0.59534
 C3394 C 0.90966 0.71932 0.58931
 C3395 C 0.91649 0.70129 0.58223
 C3396 C 0.90351 0.68708 0.57694
 C3397 C 0.91007 0.66946 0.57029
 C3398 C 0.92974 0.66581 0.56884
 C3399 C 0.94269 0.68021 0.57415
 C3400 C 0.93609 0.69784 0.58079
 H3401 H 0.90387 0.78616 0.63897
 H3402 H 0.86039 0.78616 0.59550
 H3403 H 0.84699 0.81558 0.60879
 H3404 H 0.89068 0.81558 0.65245
 H3405 H 0.88830 0.68958 0.57807
 H3406 H 0.89975 0.65857 0.56658
 H3407 H 0.95791 0.67789 0.57299
 H3408 H 0.94627 0.70875 0.58482
 C3409 C 0.39035 1.29263 0.63351
 C3410 C 0.38188 1.28426 0.61747
 C3411 C 0.36587 1.29276 0.60915
 C3412 C 0.35825 1.30950 0.61689
 C3413 C 0.36653 1.31805 0.63318
 C3414 C 0.38279 1.30937 0.64131
 C3415 C 0.38943 1.26677 0.60976
 C3416 C 0.39567 1.25203 0.60346
 C3417 C 0.40288 1.23465 0.59627
 C3418 C 0.40898 1.21970 0.59029
 C3419 C 0.41617 1.20175 0.58337
 C3420 C 0.41763 1.19836 0.56370
 C3421 C 0.42443 1.18081 0.55702
 C3422 C 0.42986 1.16643 0.56997
 C3423 C 0.42838 1.17000 0.58971
 C3424 C 0.42158 1.18754 0.59635
 H3425 H 0.40275 1.28616 0.64007
 H3426 H 0.35920 1.28638 0.59673
 H3427 H 0.34578 1.31562 0.61012
 H3428 H 0.38967 1.31539 0.65379
 H3429 H 0.41351 1.20927 0.55353
 H3430 H 0.42560 1.17856 0.54175
 H3431 H 0.43218 1.15913 0.60003
 H3432 H 0.42043 1.18998 0.61161
 C3433 C 0.39088 0.79275 1.13260
 C3434 C 0.38241 0.78437 1.11657
 C3435 C 0.36647 0.79293 1.10818
 C3436 C 0.35891 0.80973 1.11584
 C3437 C 0.36719 0.81828 1.13213
 C3438 C 0.38338 0.80955 1.14033
 C3439 C 0.38986 0.76681 1.10894
 C3440 C 0.39599 0.75200 1.10269
 C3441 C 0.40307 0.73454 1.09555
 C3442 C 0.40903 0.71953 1.08962
 C3443 C 0.41608 0.70149 1.08277
 C3444 C 0.41752 0.69802 1.06311
 C3445 C 0.42421 0.68041 1.05650
 C3446 C 0.42956 0.66604 1.06951
 C3447 C 0.42808 0.66970 1.08924
 C3448 C 0.42138 0.68731 1.09581
 H3449 H 0.40323 0.78623 1.13922
 H3450 H 0.35979 0.78654 1.09576
 H3451 H 0.34649 0.81588 1.10901
 H3452 H 0.39026 0.81558 1.15281
 H3453 H 0.41348 0.70891 1.05289
 H3454 H 0.42538 0.67808 1.04124
 H3455 H 0.43182 0.65884 1.09960
 H3456 H 0.42025 0.68981 1.11105
 C3457 C 0.86815 0.70663 0.89257
 C3458 C 0.88418 0.71500 0.88411
 C3459 C 0.89251 0.70651 0.86804
 C3460 C 0.88476 0.68980 0.86035
 C3461 C 0.86853 0.68135 0.86865
 C3462 C 0.86037 0.68993 0.88492
 C3463 C 0.89184 0.73249 0.89168
 C3464 C 0.89812 0.74726 0.89787
 C3465 C 0.90534 0.76468 0.90494
 C3466 C 0.91139 0.77967 0.91083
 C3467 C 0.91848 0.79770 0.91765
 C3468 C 0.92372 0.81190 0.90459
 C3469 C 0.93035 0.82954 0.91113
 C3470 C 0.93183 0.83321 0.93086
 C3471 C 0.92657 0.81883 0.94388
 C3472 C 0.91995 0.80118 0.93730
 H3473 H 0.86157 0.71310 0.90501
 H3474 H 0.90491 0.71288 0.86136
 H3475 H 0.89142 0.68361 0.84784
 H3476 H 0.84789 0.68383 0.89169
 H3477 H 0.92256 0.80939 0.88935
 H3478 H 0.93402 0.84042 0.90076
 H3479 H 0.92775 0.82116 0.95914
 H3480 H 0.91596 0.79028 0.94753
 C3481 C 0.86765 0.20654 0.39135
 C3482 C 0.88369 0.21484 0.38286
 C3483 C 0.89196 0.20630 0.36681
 C3484 C 0.88417 0.18960 0.35915
 C3485 C 0.86788 0.18114 0.36744
 C3486 C 0.85980 0.18985 0.38376
 C3487 C 0.89143 0.23231 0.39040
 C3488 C 0.89778 0.24706 0.39657
 C3489 C 0.90509 0.26445 0.40363
 C3490 C 0.91121 0.27941 0.40952
 C3491 C 0.91839 0.29740 0.41637
 C3492 C 0.92368 0.31161 0.40334
 C3493 C 0.93036 0.32922 0.40993
 C3494 C 0.93183 0.33285 0.42966
 C3495 C 0.92654 0.31845 0.44265
 C3496 C 0.91987 0.30084 0.43603
 H3497 H 0.86112 0.21306 0.40379
 H3498 H 0.90438 0.21263 0.36011
 H3499 H 0.89091 0.18346 0.34665
 H3500 H 0.84732 0.18389 0.39065
 H3501 H 0.92252 0.30913 0.38810
 H3502 H 0.93406 0.34011 0.39958
 H3503 H 0.92772 0.32075 0.45792
 H3504 H 0.91583 0.28992 0.44624
 C3505 C 0.39210 0.70701 0.36719
 C3506 C 0.38383 0.71544 0.38332
 C3507 C 0.36789 0.70700 0.39187
 C3508 C 0.36014 0.69026 0.38426
 C3509 C 0.36824 0.68173 0.36793
 C3510 C 0.38439 0.69026 0.35954
 C3511 C 0.39146 0.73296 0.39088
 C3512 C 0.39770 0.74774 0.39710
 C3513 C 0.40485 0.76516 0.40423
 C3514 C 0.41085 0.78015 0.41017
 C3515 C 0.41790 0.79818 0.41707
 C3516 C 0.41927 0.80161 0.43674
 C3517 C 0.42588 0.81924 0.44339
 C3518 C 0.43122 0.83365 0.43043
 C3519 C 0.42983 0.83002 0.41069
 C3520 C 0.42321 0.81240 0.40407
 H3521 H 0.40443 0.71344 0.36045
 H3522 H 0.36136 0.71342 0.40435
 H3523 H 0.34774 0.68410 0.39110
 H3524 H 0.39100 0.68410 0.34698
 H3525 H 0.41521 0.79069 0.44692
 H3526 H 0.42699 0.82154 0.45866
 H3527 H 0.43356 0.84091 0.40036
 H3528 H 0.42212 0.80992 0.38882
 C3529 C 0.36742 0.20688 0.89136
 C3530 C 0.38344 0.21522 0.88289
 C3531 C 0.39172 0.20674 0.86681
 C3532 C 0.38395 0.19005 0.85911
 C3533 C 0.36767 0.18154 0.86739
 C3534 C 0.35959 0.19019 0.88372
 C3535 C 0.39117 0.23268 0.89049
 C3536 C 0.39750 0.24741 0.89672
 C3537 C 0.40478 0.26478 0.90386
 C3538 C 0.41089 0.27972 0.90982
 C3539 C 0.41807 0.29769 0.91674
 C3540 C 0.42344 0.31191 0.90376
 C3541 C 0.43014 0.32949 0.91041
 C3542 C 0.43156 0.33307 0.93015
 C3543 C 0.42618 0.31866 0.94309
 C3544 C 0.41948 0.30108 0.93641
 H3545 H 0.36089 0.21335 0.90382
 H3546 H 0.40413 0.21310 0.86013
 H3547 H 0.39069 0.18395 0.84658
 H3548 H 0.34712 0.18420 0.89061
 H3549 H 0.42232 0.30947 0.88850
 H3550 H 0.43391 0.34039 0.90009
 H3551 H 0.42731 0.32093 0.95837
 H3552 H 0.41538 0.29016 0.94658
 C3553 C 1.13377 0.70740 1.10888
 C3554 C 1.11785 0.71593 1.11734
 C3555 C 1.10948 0.70755 1.13344
 C3556 C 1.11706 0.69078 1.14115
 C3557 C 1.13323 0.68208 1.13287
 C3558 C 1.14141 0.69063 1.11653
 C3559 C 1.11031 0.73346 1.10972
 C3560 C 1.10409 0.74823 1.10348
 C3561 C 1.09692 0.76565 1.09634
 C3562 C 1.09088 0.78063 1.09039
 C3563 C 1.08376 0.79862 1.08350
 C3564 C 1.07840 0.81282 1.09650
 C3565 C 1.07167 0.83040 1.08989
 C3566 C 1.07020 0.83401 1.07015
 C3567 C 1.07559 0.81963 1.05719
 C3568 C 1.08232 0.80205 1.06383
 H3569 H 1.14038 0.71378 1.09641
 H3570 H 1.09715 0.71406 1.14012
 H3571 H 1.11025 0.68476 1.15368
 H3572 H 1.15380 0.68449 1.10964
 H3573 H 1.07953 0.81035 1.11176
 H3574 H 1.06789 0.84127 1.10022
 H3575 H 1.07443 0.82191 1.04191
 H3576 H 1.08640 0.79114 1.05364
 C3577 C 1.13252 0.20651 0.60778
 C3578 C 1.11653 0.21493 0.61623
 C3579 C 1.10814 0.20646 0.63226
 C3580 C 1.11577 0.18970 0.63993
 C3581 C 1.13201 0.18110 0.63168
 C3582 C 1.14020 0.18974 0.61539
 C3583 C 1.10897 0.23247 0.60866
 C3584 C 1.10278 0.24727 0.60245
 C3585 C 1.09572 0.26472 0.59529
 C3586 C 1.08984 0.27973 0.58927
 C3587 C 1.08302 0.29777 0.58219
 C3588 C 1.06342 0.30121 0.58068
 C3589 C 1.05683 0.31884 0.57405
 C3590 C 1.06979 0.33327 0.56883
 C3591 C 1.08946 0.32964 0.57035
 C3592 C 1.09601 0.31201 0.57699
 H3593 H 1.13914 0.21297 0.59536
 H3594 H 1.09576 0.21289 0.63892
 H3595 H 1.10894 0.18360 0.65242
 H3596 H 1.15265 0.18368 0.60853
 H3597 H 1.05324 0.29027 0.58465
 H3598 H 1.04162 0.32114 0.57284
 H3599 H 1.09978 0.34055 0.56671
 H3600 H 1.11121 0.30953 0.57818
 C3601 C 0.63271 0.70676 0.60697
 C3602 C 0.61673 0.71527 0.61538
 C3603 C 0.60825 0.70684 0.63141
 C3604 C 0.61579 0.69005 0.63910
 C3605 C 0.63196 0.68144 0.63086
 C3606 C 0.64028 0.68996 0.61463
 C3607 C 0.60926 0.73285 0.60782
 C3608 C 0.60308 0.74768 0.60168
 C3609 C 0.59595 0.76517 0.59468
 C3610 C 0.58993 0.78021 0.58889
 C3611 C 0.58285 0.79828 0.58219
 C3612 C 0.57755 0.81237 0.59534
 C3613 C 0.57088 0.83003 0.58891
 C3614 C 0.56944 0.83385 0.56920
 C3615 C 0.57477 0.81958 0.55609
 C3616 C 0.58142 0.80191 0.56256
 H3617 H 0.63940 0.71318 0.59457
 H3618 H 0.59588 0.71333 0.63804
 H3619 H 0.60900 0.68390 0.65157
 H3620 H 0.65272 0.68375 0.60791
 H3621 H 0.57867 0.80974 0.61056
 H3622 H 0.56716 0.84082 0.59935
 H3623 H 0.57362 0.82202 0.54084
 H3624 H 0.58546 0.79109 0.55226
 C3625 C 0.63339 0.20728 1.10915
 C3626 C 0.61741 0.21572 1.11759
 C3627 C 0.60906 0.20729 1.13367
 C3628 C 0.61671 0.19055 1.14138
 C3629 C 0.63294 0.18194 1.13312
 C3630 C 0.64110 0.19055 1.11680
 C3631 C 0.60979 0.23321 1.10998
 C3632 C 0.60354 0.24797 1.10370
 C3633 C 0.59640 0.26536 1.09648
 C3634 C 0.59045 0.28032 1.09040
 C3635 C 0.58355 0.29829 1.08324
 C3636 C 0.56393 0.30164 1.08172
 C3637 C 0.55726 0.31921 1.07500
 C3638 C 0.57015 0.33367 1.06969
 C3639 C 0.58984 0.33013 1.07122
 C3640 C 0.59647 0.31256 1.07795
 H3641 H 0.63998 0.21371 1.09669
 H3642 H 0.59668 0.21372 1.14033
 H3643 H 0.60992 0.18448 1.15389
 H3644 H 0.65355 0.18448 1.10992
 H3645 H 0.55380 0.29068 1.08575
 H3646 H 0.54204 0.32144 1.07378
 H3647 H 0.60011 0.34106 1.06752
 H3648 H 0.61168 0.31015 1.07915
 C3649 C 1.29278 1.10907 0.86770
 C3650 C 1.28443 1.11756 0.88376
 C3651 C 1.29295 1.13358 0.89210
 C3652 C 1.30969 1.14118 0.88434
 C3653 C 1.31814 1.13285 0.86809
 C3654 C 1.30952 1.11663 0.85991
 C3655 C 1.26692 1.11007 0.89143
 C3656 C 1.25215 1.10388 0.89769
 C3657 C 1.23473 1.09674 0.90482
 C3658 C 1.21975 1.09071 0.91072
 C3659 C 1.20173 1.08361 0.91755
 C3660 C 1.19822 1.08218 0.93720
 C3661 C 1.18062 1.07547 0.94378
 C3662 C 1.16630 1.07009 0.93075
 C3663 C 1.17000 1.07155 0.91102
 C3664 C 1.18760 1.07827 0.90449
 H3665 H 1.28629 1.09668 0.86112
 H3666 H 1.28659 1.14028 0.90452
 H3667 H 1.31592 1.15365 0.89102
 H3668 H 1.31561 1.10984 0.84742
 H3669 H 1.20908 1.08625 0.94743
 H3670 H 1.17826 1.07431 0.95904
 H3671 H 1.15918 1.06779 0.90065
 H3672 H 1.19014 1.07939 0.88924
 C3673 C 1.29321 0.63289 0.39236
 C3674 C 1.28466 0.61690 0.38400
 C3675 C 1.29298 0.60841 0.36793
 C3676 C 1.30971 0.61596 0.36013
 C3677 C 1.31836 0.63215 0.36832
 C3678 C 1.30995 0.64047 0.38460
 C3679 C 1.26713 0.60944 0.39167
 C3680 C 1.25234 0.60329 0.39792
 C3681 C 1.23488 0.59621 0.40502
 C3682 C 1.21987 0.59023 0.41089
 C3683 C 1.20181 0.58318 0.41765
 C3684 C 1.18769 0.57793 0.40454
 C3685 C 1.17006 0.57126 0.41101
 C3686 C 1.16631 0.56975 0.43073
 C3687 C 1.18061 0.57505 0.44381
 C3688 C 1.19825 0.58171 0.43729
 H3689 H 1.28687 0.63959 0.40479
 H3690 H 1.28645 0.59604 0.36134
 H3691 H 1.31578 0.60918 0.34762
 H3692 H 1.31620 0.65293 0.39128
 H3693 H 1.19028 0.57909 0.38931
 H3694 H 1.15925 0.56756 0.40060
 H3695 H 1.17821 0.57385 0.45906
 H3696 H 1.20909 0.58571 0.44757
 C3697 C 0.79304 1.13335 0.39216
 C3698 C 0.78450 1.11734 0.38383
 C3699 C 0.79285 1.10881 0.36779
 C3700 C 0.80961 1.11632 0.36002
 C3701 C 0.81825 1.13253 0.36818
 C3702 C 0.80981 1.14090 0.38442
 C3703 C 0.76697 1.10989 0.39148
 C3704 C 0.75217 1.10374 0.39773
 C3705 C 0.73472 1.09664 0.40483
 C3706 C 0.71972 1.09065 0.41072
 C3707 C 0.70168 1.08358 0.41752
 C3708 C 0.68753 1.07832 0.40445
 C3709 C 0.66992 1.07164 0.41096
 C3710 C 0.66621 1.07015 0.43069
 C3711 C 0.68054 1.07546 0.44373
 C3712 C 0.69816 1.08212 0.43717
 H3713 H 0.78668 1.14008 0.40456
 H3714 H 0.78634 1.09642 0.36122
 H3715 H 0.81570 1.10950 0.34754
 H3716 H 0.81605 1.15337 0.39108
 H3717 H 0.69008 1.07947 0.38921
 H3718 H 0.65909 1.06793 0.40058
 H3719 H 0.67817 1.07427 0.45899
 H3720 H 0.70903 1.08614 0.44742
 C3721 C 0.79322 0.63276 0.89268
 C3722 C 0.78461 0.61683 0.88426
 C3723 C 0.79294 0.60835 0.86819
 C3724 C 0.80973 0.61585 0.86046
 C3725 C 0.81843 0.63198 0.86872
 C3726 C 0.81001 0.64029 0.88499
 C3727 C 0.76704 0.60942 0.89188
 C3728 C 0.75222 0.60332 0.89811
 C3729 C 0.73474 0.59629 0.90520
 C3730 C 0.71971 0.59037 0.91109
 C3731 C 0.70164 0.58337 0.91787
 C3732 C 0.68751 0.57810 0.90479
 C3733 C 0.66987 0.57147 0.91129
 C3734 C 0.66612 0.57002 0.93101
 C3735 C 0.68043 0.57534 0.94406
 C3736 C 0.69808 0.58197 0.93752
 H3737 H 0.78687 0.63945 0.90512
 H3738 H 0.78638 0.59602 0.86154
 H3739 H 0.81580 0.60907 0.84794
 H3740 H 0.81630 0.65269 0.89173
 H3741 H 0.69009 0.57921 0.88955
 H3742 H 0.65906 0.56775 0.90089
 H3743 H 0.67804 0.57419 0.95932
 H3744 H 0.70893 0.58599 0.94778
 C3745 C 1.29300 0.86724 1.10780
 C3746 C 1.28477 0.88339 1.11617
 C3747 C 1.29334 0.89180 1.13214
 C3748 C 1.31002 0.88403 1.13982
 C3749 C 1.31834 0.86767 1.13162
 C3750 C 1.30968 0.85942 1.11545
 C3751 C 1.26731 0.89111 1.10862
 C3752 C 1.25258 0.89748 1.10247
 C3753 C 1.23520 0.90481 1.09547
 C3754 C 1.22025 0.91097 1.08964
 C3755 C 1.20227 0.91819 1.08288
 C3756 C 1.18813 0.92348 1.09597
 C3757 C 1.17053 0.93019 1.08947
 C3758 C 1.16683 0.93169 1.06975
 C3759 C 1.18116 0.92642 1.05670
 C3760 C 1.19877 0.91971 1.06323
 H3761 H 1.28646 0.86060 1.09544
 H3762 H 1.28707 0.90430 1.13874
 H3763 H 1.31628 0.89076 1.15226
 H3764 H 1.31568 0.84685 1.10876
 H3765 H 1.19067 0.92228 1.11121
 H3766 H 1.15970 0.93388 1.09986
 H3767 H 1.17880 0.92762 1.04144
 H3768 H 1.20962 0.91568 1.05298
 C3769 C 1.29221 0.36698 0.60914
 C3770 C 1.28396 0.38309 0.61757
 C3771 C 1.29253 0.39143 0.63359
 C3772 C 1.30921 0.38363 0.64124
 C3773 C 1.31756 0.36732 0.63296
 C3774 C 1.30890 0.35914 0.61675
 C3775 C 1.26652 0.39084 0.61002
 C3776 C 1.25180 0.39717 0.60379
 C3777 C 1.23444 0.40440 0.59660
 C3778 C 1.21952 0.41039 0.59054
 C3779 C 1.20156 0.41731 0.58338
 C3780 C 1.19817 0.43694 0.58197
 C3781 C 1.18063 0.44360 0.57519
 C3782 C 1.16627 0.43068 0.56972
 C3783 C 1.16985 0.41097 0.57118
 C3784 C 1.18738 0.40435 0.57796
 H3785 H 1.28569 0.36039 0.59675
 H3786 H 1.28624 0.40390 0.64024
 H3787 H 1.31547 0.39032 0.65370
 H3788 H 1.31491 0.34660 0.61001
 H3789 H 1.20906 0.44709 0.58610
 H3790 H 1.17836 0.45885 0.57404
 H3791 H 1.15899 0.40068 0.56735
 H3792 H 1.18983 0.38912 0.57908
 C3793 C 0.79289 0.86741 0.60782
 C3794 C 0.78456 0.88351 0.61621
 C3795 C 0.79308 0.89194 0.63220
 C3796 C 0.80979 0.88423 0.63988
 C3797 C 0.81821 0.86794 0.63167
 C3798 C 0.80960 0.85967 0.61548
 C3799 C 0.76709 0.89117 0.60864
 C3800 C 0.75234 0.89748 0.60246
 C3801 C 0.73495 0.90476 0.59541
 C3802 C 0.72000 0.91089 0.58955
 C3803 C 0.70202 0.91808 0.58275
 C3804 C 0.68786 0.92337 0.59582
 C3805 C 0.67027 0.93009 0.58929
 C3806 C 0.66659 0.93159 0.56956
 C3807 C 0.68094 0.92629 0.55653
 C3808 C 0.69854 0.91959 0.56310
 H3809 H 0.78639 0.86076 0.59545
 H3810 H 0.78674 0.90440 0.63881
 H3811 H 0.81601 0.89098 0.65233
 H3812 H 0.81567 0.84714 0.60877
 H3813 H 0.69037 0.92219 0.61106
 H3814 H 0.65942 0.93379 0.59967
 H3815 H 0.67861 0.92749 0.54127
 H3816 H 0.70941 0.91555 0.55286
 C3817 C 0.79332 0.36842 1.10752
 C3818 C 0.78497 0.38446 1.11599
 C3819 C 0.79352 0.39284 1.13200
 C3820 C 0.81026 0.38514 1.13961
 C3821 C 0.81869 0.36890 1.13130
 C3822 C 0.81006 0.36068 1.11509
 C3823 C 0.76745 0.39208 1.10851
 C3824 C 0.75265 0.39833 1.10240
 C3825 C 0.73520 0.40551 1.09541
 C3826 C 0.72019 0.41153 1.08960
 C3827 C 0.70214 0.41859 1.08284
 C3828 C 0.68797 0.42375 1.09594
 C3829 C 0.67031 0.43032 1.08945
 C3830 C 0.66659 0.43181 1.06973
 C3831 C 0.68095 0.42665 1.05667
 C3832 C 0.69862 0.42009 1.06320
 H3833 H 0.78680 0.36180 1.09513
 H3834 H 0.78716 0.40525 1.13869
 H3835 H 0.81650 0.39184 1.15207
 H3836 H 0.81614 0.34819 1.10831
 H3837 H 0.69052 0.42257 1.11118
 H3838 H 0.65945 0.43392 1.09985
 H3839 H 0.67858 0.42784 1.04142
 H3840 H 0.70950 0.41615 1.05294
 C3841 C 0.70731 1.13332 1.10854
 C3842 C 0.71565 1.11720 1.11689
 C3843 C 0.70718 1.10879 1.13292
 C3844 C 0.69051 1.11652 1.14069
 C3845 C 0.68208 1.13283 1.13250
 C3846 C 0.69064 1.14109 1.11627
 C3847 C 0.73308 1.10951 1.10923
 C3848 C 0.74779 1.10316 1.10299
 C3849 C 0.76513 1.09582 1.09588
 C3850 C 0.78005 1.08964 1.08996
 C3851 C 0.79799 1.08238 1.08310
 C3852 C 0.81217 1.07708 1.09612
 C3853 C 0.82972 1.07030 1.08954
 C3854 C 0.83333 1.06875 1.06980
 C3855 C 0.81895 1.07405 1.05682
 C3856 C 0.80139 1.08082 1.06344
 H3857 H 0.71377 1.13996 1.09613
 H3858 H 0.71352 1.09632 1.13951
 H3859 H 0.68433 1.10978 1.15317
 H3860 H 0.68456 1.15363 1.10959
 H3861 H 0.80971 1.07831 1.11137
 H3862 H 0.84060 1.06660 1.09988
 H3863 H 0.82123 1.07282 1.04155
 H3864 H 0.79050 1.08486 1.05324
 C3865 C 0.70670 0.63181 0.60706
 C3866 C 0.71504 0.61576 0.61552
 C3867 C 0.70654 0.60742 0.63158
 C3868 C 0.68984 0.61515 0.63924
 C3869 C 0.68140 0.63140 0.63095
 C3870 C 0.68999 0.63958 0.61469
 C3871 C 0.73253 0.60810 0.60797
 C3872 C 0.74728 0.60179 0.60179
 C3873 C 0.76469 0.59455 0.59474
 C3874 C 0.77966 0.58847 0.58887
 C3875 C 0.79766 0.58133 0.58206
 C3876 C 0.81182 0.57606 0.59513
 C3877 C 0.82944 0.56940 0.58860
 C3878 C 0.83313 0.56792 0.56887
 C3879 C 0.81878 0.57319 0.55584
 C3880 C 0.80116 0.57984 0.56241
 H3881 H 0.71317 0.63840 0.59463
 H3882 H 0.71290 0.59500 0.63825
 H3883 H 0.68363 0.60847 0.65175
 H3884 H 0.68390 0.65207 0.60792
 H3885 H 0.80929 0.57723 0.61037
 H3886 H 0.84028 0.56572 0.59897
 H3887 H 0.82113 0.57201 0.54058
 H3888 H 0.79029 0.58386 0.55217
 C3889 C 0.20656 1.13268 0.60726
 C3890 C 0.21492 1.11659 0.61562
 C3891 C 0.20640 1.10812 0.63160
 C3892 C 0.18967 1.11577 0.63929
 C3893 C 0.18122 1.13206 0.63110
 C3894 C 0.18983 1.14038 0.61492
 C3895 C 0.23243 1.10899 0.60807
 C3896 C 0.24721 1.10272 0.60192
 C3897 C 0.26464 1.09549 0.59494
 C3898 C 0.27964 1.08940 0.58914
 C3899 C 0.29767 1.08225 0.58242
 C3900 C 0.31178 1.07702 0.59555
 C3901 C 0.32942 1.07035 0.58910
 C3902 C 0.33319 1.06883 0.56939
 C3903 C 0.31888 1.07406 0.55630
 C3904 C 0.30124 1.08072 0.56279
 H3905 H 0.21305 1.13937 0.59489
 H3906 H 0.21276 1.09566 0.63820
 H3907 H 0.18346 1.10899 0.65174
 H3908 H 0.18373 1.15291 0.60823
 H3909 H 0.30920 1.07822 0.61078
 H3910 H 0.34023 1.06670 0.59952
 H3911 H 0.32129 1.07285 0.54105
 H3912 H 0.29040 1.08471 0.55250
 C3913 C 0.20710 0.60858 1.13254
 C3914 C 0.21559 0.61696 1.11650
 C3915 C 0.20731 0.63311 1.10816
 C3916 C 0.19068 0.64095 1.11591
 C3917 C 0.18211 0.63272 1.13216
 C3918 C 0.19048 0.61638 1.14032
 C3919 C 0.23299 0.60922 1.10884
 C3920 C 0.24768 0.60282 1.10259
 C3921 C 0.26501 0.59545 1.09548
 C3922 C 0.27992 0.58925 1.08958
 C3923 C 0.29785 0.58198 1.08273
 C3924 C 0.30128 0.58043 1.06308
 C3925 C 0.31885 0.57367 1.05647
 C3926 C 0.33321 0.56835 1.06947
 C3927 C 0.32957 0.56988 1.08920
 C3928 C 0.31202 0.57665 1.09577
 H3929 H 0.21341 0.59608 1.13912
 H3930 H 0.21378 0.63973 1.09575
 H3931 H 0.18465 0.65352 1.10925
 H3932 H 0.18428 0.60966 1.15281
 H3933 H 0.29041 0.58449 1.05286
 H3934 H 0.32115 0.57245 1.04120
 H3935 H 0.34043 0.56616 1.09955
 H3936 H 0.30954 0.57787 1.11102
 C3937 C 0.70690 0.89232 0.86837
 C3938 C 0.71537 0.88382 0.88435
 C3939 C 0.70688 0.86782 0.89278
 C3940 C 0.69007 0.86025 0.88518
 C3941 C 0.68152 0.86859 0.86899
 C3942 C 0.69010 0.88478 0.86073
 C3943 C 0.73295 0.89128 0.89187
 C3944 C 0.74778 0.89740 0.89804
 C3945 C 0.76527 0.90439 0.90512
 C3946 C 0.78031 0.91022 0.91107
 C3947 C 0.79838 0.91698 0.91805
 C3948 C 0.81256 0.90393 0.92324
 C3949 C 0.83022 0.91043 0.92979
 C3950 C 0.83395 0.93011 0.93123
 C3951 C 0.81959 0.94313 0.92602
 C3952 C 0.80192 0.93659 0.91948
 H3953 H 0.71337 0.90471 0.86172
 H3954 H 0.71333 0.86112 0.90515
 H3955 H 0.68388 0.84779 0.89191
 H3956 H 0.68392 0.89158 0.84828
 H3957 H 0.81000 0.88872 0.92212
 H3958 H 0.84108 0.90006 0.93343
 H3959 H 0.82196 0.95836 0.92718
 H3960 H 0.79103 0.94682 0.91552
 C3961 C 0.70748 0.36673 0.39108
 C3962 C 0.71589 0.38272 0.38258
 C3963 C 0.70738 0.39112 0.36657
 C3964 C 0.69059 0.38349 0.35899
 C3965 C 0.68207 0.36730 0.36733
 C3966 C 0.69069 0.35906 0.38354
 C3967 C 0.73344 0.39030 0.39007
 C3968 C 0.74824 0.39649 0.39624
 C3969 C 0.76569 0.40357 0.40336
 C3970 C 0.78069 0.40947 0.40935
 C3971 C 0.79871 0.41630 0.41641
 C3972 C 0.80216 0.43592 0.41787
 C3973 C 0.81977 0.44252 0.42452
 C3974 C 0.83415 0.42955 0.42980
 C3975 C 0.83051 0.40986 0.42832
 C3976 C 0.81291 0.40330 0.42166
 H3977 H 0.71396 0.36010 0.40348
 H3978 H 0.71379 0.40350 0.35986
 H3979 H 0.68437 0.39021 0.34652
 H3980 H 0.68455 0.34661 0.39034
 H3981 H 0.79126 0.44611 0.41387
 H3982 H 0.82208 0.45775 0.42571
 H3983 H 0.84138 0.39952 0.43201
 H3984 H 0.81041 0.38808 0.42051
 C3985 C 0.20706 0.86768 0.39188
 C3986 C 0.21547 0.88370 0.38341
 C3987 C 0.20699 0.89210 0.36739
 C3988 C 0.19023 0.88445 0.35976
 C3989 C 0.18172 0.86824 0.36807
 C3990 C 0.19030 0.86000 0.38429
 C3991 C 0.23300 0.89128 0.39094
 C3992 C 0.24779 0.89749 0.39713
 C3993 C 0.26523 0.90458 0.40427
 C3994 C 0.28022 0.91047 0.41027
 C3995 C 0.29824 0.91729 0.41733
 C3996 C 0.30172 0.93691 0.41878
 C3997 C 0.31934 0.94350 0.42542
 C3998 C 0.33370 0.93052 0.43072
 C3999 C 0.33003 0.91083 0.42926
 C4000 C 0.31242 0.90428 0.42260
 H4001 H 0.21353 0.86105 0.40428
 H4002 H 0.21339 0.90450 0.36070
 H4003 H 0.18403 0.89117 0.34728
 H4004 H 0.18417 0.84753 0.39106
 H4005 H 0.29083 0.94711 0.41476
 H4006 H 0.32167 0.95873 0.42659
 H4007 H 0.34089 0.90049 0.43296
 H4008 H 0.30991 0.88906 0.42147
 C4009 C 0.20741 0.36669 0.89174
 C4010 C 0.21581 0.38271 0.88326
 C4011 C 0.20728 0.39112 0.86727
 C4012 C 0.19049 0.38349 0.85968
 C4013 C 0.18199 0.36728 0.86800
 C4014 C 0.19062 0.35902 0.88419
 C4015 C 0.23335 0.39028 0.89076
 C4016 C 0.24815 0.39649 0.89692
 C4017 C 0.26560 0.40360 0.90402
 C4018 C 0.28059 0.40951 0.91000
 C4019 C 0.29861 0.41637 0.91704
 C4020 C 0.30205 0.43600 0.91847
 C4021 C 0.31966 0.44262 0.92510
 C4022 C 0.33405 0.42968 0.93041
 C4023 C 0.33042 0.40998 0.92897
 C4024 C 0.31282 0.40339 0.92232
 H4025 H 0.21391 0.36004 0.90412
 H4026 H 0.21368 0.40352 0.86058
 H4027 H 0.18426 0.39023 0.84723
 H4028 H 0.18449 0.34655 0.89097
 H4029 H 0.29114 0.44618 0.91444
 H4030 H 0.32196 0.45786 0.92625
 H4031 H 0.34129 0.39966 0.93268
 H4032 H 0.31033 0.38817 0.92120
   
