data_POSCAR
  _audit_creation_date              2014-09-24
  _audit_creation_method            'ToBaCCo'
  _symmetry_space_group_name_H-M    'P1'
  _symmetry_Int_Tables_number       1
  _symmetry_cell_setting            triclinic
  loop_
  _symmetry_equiv_pos_as_xyz
 x,y,z
_cell_length_a 38.2908
_cell_length_b 38.6536
_cell_length_c 38.4891
_cell_angle_alpha 89.872500
_cell_angle_beta 89.998400
_cell_angle_gamma 90.583300
loop_
  _atom_site_label
  _atom_site_type_symbol
  _atom_site_fract_x
  _atom_site_fract_y
  _atom_site_fract_z
C1 C 0.71372 0.67117 0.96358
 H2 H 0.73894 0.67550 0.95171
 C3 C 0.68471 0.68890 0.95096
 H4 H 0.68780 0.70647 0.92919
 C5 C 0.67843 0.64150 1.00472
 H6 H 0.67570 0.62208 1.02478
 C7 C 0.64882 0.65897 0.99316
 H8 H 0.62370 0.65325 1.00487
 N9 N 0.71014 0.64770 0.98981
 C10 C 0.81623 0.62814 1.02625
 H11 H 0.81545 0.60024 1.02414
 C12 C 0.84591 0.64462 1.03945
 H13 H 0.86805 0.62936 1.04755
 C14 C 0.78780 0.68191 1.01907
 H15 H 0.76488 0.69620 1.01157
 C16 C 0.81720 0.69953 1.03187
 H17 H 0.81699 0.72747 1.03383
 Zn18 Zn 0.74909 0.61983 1.00232
 N19 N 0.78787 0.64680 1.01672
 C20 C 0.78242 0.61542 0.93917
 N21 N 0.76313 0.59571 0.96151
 C22 C 0.75413 0.56258 0.95325
 C23 C 0.76678 0.54749 0.92278
 C24 C 0.79364 0.60211 0.90751
 C25 C 0.72988 0.61198 1.07015
 C26 C 0.72198 0.59699 1.10218
 C27 C 0.73014 0.54078 1.07664
 C28 C 0.73889 0.55705 1.04519
 N29 N 0.73769 0.59213 1.04219
 H30 H 0.78912 0.64179 0.94589
 H31 H 0.73686 0.54779 0.96974
 H32 H 0.76128 0.52041 0.91795
 H33 H 0.80843 0.61868 0.89006
 H34 H 0.72945 0.63984 1.06740
 H35 H 0.71388 0.61397 1.12294
 H36 H 0.73177 0.51286 1.07804
 H37 H 0.74747 0.54139 1.02387
 C38 C 0.84637 0.68067 1.04292
 C39 C 0.65172 0.68282 0.96575
 C40 C 0.72207 0.56068 1.10631
 C41 C 0.78624 0.56753 0.89895
 C42 C 0.72869 0.33582 0.53912
 H43 H 0.75505 0.33076 0.54768
 C44 C 0.70061 0.31842 0.55467
 H45 H 0.70538 0.29961 0.57498
 C46 C 0.69004 0.36735 0.50312
 H47 H 0.68595 0.38720 0.48378
 C48 C 0.66123 0.35084 0.51823
 H49 H 0.63511 0.35773 0.51013
 N50 N 0.72296 0.35980 0.51389
 C51 C 0.82922 0.37665 0.47802
 H52 H 0.82994 0.40448 0.48095
 C53 C 0.85897 0.35929 0.46731
 H54 H 0.88263 0.37385 0.46170
 C55 C 0.79698 0.32397 0.48059
 H56 H 0.77249 0.31055 0.48510
 C57 C 0.82615 0.30555 0.46937
 H58 H 0.82396 0.27796 0.46493
 Zn59 Zn 0.76098 0.38666 0.49723
 N60 N 0.79909 0.35892 0.48447
 C61 C 0.79918 0.40039 0.55604
 N62 N 0.77553 0.41538 0.53455
 C63 C 0.76175 0.44685 0.54215
 C64 C 0.77348 0.46532 0.57129
 C65 C 0.81076 0.41737 0.58571
 C66 C 0.73562 0.38855 0.43089
 C67 C 0.72133 0.40167 0.40038
 C68 C 0.73359 0.45948 0.42113
 C69 C 0.74804 0.44517 0.45128
 N70 N 0.74728 0.41027 0.45623
 H71 H 0.80868 0.37477 0.55047
 H72 H 0.74133 0.45745 0.52612
 H73 H 0.76318 0.49075 0.57661
 H74 H 0.82944 0.40480 0.60255
 H75 H 0.73611 0.36089 0.43513
 H76 H 0.71059 0.38411 0.38117
 H77 H 0.73260 0.48731 0.41807
 H78 H 0.75919 0.46202 0.47071
 C79 C 0.85757 0.32337 0.46264
 C80 C 0.66640 0.32666 0.54484
 C81 C 0.71897 0.43752 0.39597
 C82 C 0.79800 0.45025 0.59366
 C83 C 0.21427 -0.17127 0.01714
 H84 H 0.23952 -0.17868 0.02704
 C85 C 0.18438 -0.18936 0.02792
 H86 H 0.18667 -0.21014 0.04667
 C87 C 0.18017 -0.13470 -0.01854
 H88 H 0.17854 -0.11306 -0.03624
 C89 C 0.14965 -0.15200 -0.00836
 H90 H 0.12466 -0.14353 -0.01824
 N91 N 0.21164 -0.14415 -0.00531
 C92 C 0.32244 -0.13114 -0.02393
 H93 H 0.32480 -0.10436 -0.01611
 C94 C 0.35210 -0.14922 -0.03385
 H95 H 0.37734 -0.13631 -0.03358
 C96 C 0.28639 -0.17991 -0.03602
 H97 H 0.26054 -0.19124 -0.03801
 C98 C 0.31546 -0.19891 -0.04646
 H99 H 0.31191 -0.22489 -0.05643
 Zn100 Zn 0.25185 -0.11742 -0.01722
 N101 N 0.29039 -0.14649 -0.02551
 C102 C 0.26850 -0.05296 0.01850
 N103 N 0.26426 -0.08795 0.02098
 C104 C 0.27089 -0.10468 0.05138
 C105 C 0.28230 -0.08645 0.08056
 C106 C 0.27898 -0.03355 0.04746
 C107 C 0.25110 -0.10975 -0.08943
 C108 C 0.24372 -0.09506 -0.12174
 C109 C 0.22002 -0.04560 -0.09219
 C110 C 0.22625 -0.06212 -0.06046
 N111 N 0.24274 -0.09309 -0.05951
 H112 H 0.26501 -0.03994 -0.00600
 H113 H 0.26835 -0.13246 0.05277
 H114 H 0.28833 -0.10044 0.10419
 H115 H 0.28209 -0.00576 0.04514
 H116 H 0.26306 -0.13490 -0.08836
 H117 H 0.25117 -0.10906 -0.14489
 H118 H 0.20610 -0.02134 -0.09195
 H119 H 0.21693 -0.05055 -0.03673
 C120 C 0.34871 -0.18333 -0.04574
 C121 C 0.15158 -0.17946 0.01539
 C122 C 0.22890 -0.06187 -0.12378
 C123 C 0.28696 -0.05048 0.07871
 C124 C 0.22755 0.18390 0.44933
 H125 H 0.25241 0.18437 0.43602
 C126 C 0.19938 0.20210 0.43539
 H127 H 0.20268 0.21653 0.41145
 C128 C 0.19142 0.16096 0.49394
 H129 H 0.18763 0.14368 0.51565
 C130 C 0.16272 0.17881 0.48099
 H131 H 0.13731 0.17502 0.49286
 N132 N 0.22297 0.16320 0.47769
 C133 C 0.31616 0.13824 0.53490
 H134 H 0.30650 0.11360 0.54429
 C135 C 0.34721 0.15159 0.54840
 H136 H 0.36050 0.13767 0.56888
 C137 C 0.31116 0.18599 0.49657
 H138 H 0.29726 0.19908 0.47608
 C139 C 0.34273 0.19990 0.50886
 H140 H 0.35279 0.22382 0.49789
 Zn141 Zn 0.25927 0.13202 0.48994
 N142 N 0.29876 0.15536 0.50937
 C143 C 0.30579 0.11767 0.43538
 N144 N 0.27354 0.10968 0.44812
 C145 C 0.25121 0.08889 0.42994
 C146 C 0.26152 0.07454 0.39812
 C147 C 0.31659 0.10493 0.40331
 C148 C 0.23472 0.11522 0.55568
 C149 C 0.22138 0.09539 0.58297
 C150 C 0.22477 0.04478 0.54651
 C151 C 0.23815 0.06571 0.51968
 N152 N 0.24224 0.10044 0.52453
 H153 H 0.32318 0.13446 0.44974
 H154 H 0.22544 0.08336 0.44016
 H155 H 0.24402 0.05691 0.38471
 H156 H 0.34226 0.11200 0.39364
 H157 H 0.23871 0.14275 0.55911
 H158 H 0.21483 0.10779 0.60730
 H159 H 0.22100 0.01730 0.54235
 H160 H 0.24498 0.05424 0.49506
 C161 C 0.36148 0.18217 0.53459
 C162 C 0.16637 0.19874 0.45082
 C163 C 0.21575 0.05988 0.57840
 C164 C 0.29447 0.08300 0.38413
 C165 C 0.17966 0.46495 0.21052
 H166 H 0.18484 0.45512 0.23630
 C167 C 0.19647 0.45042 0.18189
 H168 H 0.21471 0.42952 0.18566
 C169 C 0.14710 0.50169 0.17350
 H170 H 0.12656 0.52028 0.16998
 C171 C 0.16335 0.48797 0.14428
 H172 H 0.15555 0.49646 0.11861
 N173 N 0.15485 0.48951 0.20579
 C174 C 0.12757 0.52780 0.30886
 H175 H 0.09962 0.52414 0.30656
 C176 C 0.14160 0.54261 0.33881
 H177 H 0.12438 0.55060 0.35955
 C178 C 0.18398 0.52254 0.28406
 H179 H 0.20024 0.51498 0.26248
 C180 C 0.19920 0.53690 0.31386
 H181 H 0.22728 0.54025 0.31524
 Zn182 Zn 0.12478 0.50051 0.24317
 N183 N 0.14871 0.51848 0.28215
 C184 C 0.12320 0.43986 0.28030
 N185 N 0.10380 0.45785 0.25695
 C186 C 0.07498 0.44329 0.24202
 C187 C 0.06353 0.41025 0.25231
 C188 C 0.11354 0.40647 0.29021
 C189 C 0.11187 0.56601 0.22098
 C190 C 0.09456 0.59470 0.20786
 C191 C 0.04016 0.56283 0.21228
 C192 C 0.05862 0.53453 0.22561
 N193 N 0.09407 0.53631 0.22867
 H194 H 0.14685 0.45117 0.29080
 H195 H 0.06106 0.45691 0.22191
 H196 H 0.03956 0.39973 0.24156
 H197 H 0.12958 0.39272 0.30873
 H198 H 0.13993 0.56698 0.22418
 H199 H 0.10934 0.61773 0.20088
 H200 H 0.01212 0.56103 0.20894
 H201 H 0.04460 0.51137 0.23311
 C202 C 0.17774 0.54781 0.34129
 C203 C 0.18737 0.46128 0.14837
 C204 C 0.05845 0.59303 0.20272
 C205 C 0.08317 0.39124 0.27651
 C206 C -0.17012 0.03242 0.22884
 H207 H -0.17223 0.04349 0.25443
 C208 C -0.18706 0.04820 0.20112
 H209 H -0.20270 0.07087 0.20602
 C210 C -0.14880 -0.01136 0.19183
 H211 H -0.13395 -0.03465 0.18822
 C212 C -0.16490 0.00393 0.16319
 H213 H -0.16134 -0.00756 0.13781
 N214 N -0.15028 0.00395 0.22358
 C215 C -0.13162 -0.03205 0.32899
 H216 H -0.10338 -0.03278 0.32883
 C217 C -0.14996 -0.04032 0.35920
 H218 H -0.13574 -0.04840 0.38209
 C219 C -0.18453 -0.02224 0.29867
 H220 H -0.19788 -0.01562 0.27489
 C221 C -0.20389 -0.02955 0.32858
 H222 H -0.23214 -0.02858 0.32762
 Zn223 Zn -0.12161 -0.01149 0.26056
 N224 N -0.14906 -0.02350 0.29950
 C225 C -0.05834 0.03014 0.26541
 N226 N -0.09265 0.02628 0.27422
 C227 C -0.10918 0.05058 0.29352
 C228 C -0.09164 0.08041 0.30403
 C229 C -0.03970 0.05987 0.27539
 C230 C -0.07265 -0.04692 0.21904
 C231 C -0.05543 -0.07569 0.20591
 C232 C -0.08525 -0.11144 0.24830
 C233 C -0.10174 -0.08190 0.26085
 N234 N -0.09539 -0.05042 0.24601
 H235 H -0.04523 0.01038 0.25080
 H236 H -0.13605 0.04662 0.30120
 H237 H -0.10511 0.09939 0.31962
 H238 H -0.01240 0.06279 0.26856
 H239 H -0.06903 -0.02201 0.20667
 H240 H -0.03802 -0.07265 0.18391
 H241 H -0.09147 -0.13650 0.25946
 H242 H -0.12061 -0.08447 0.28156
 C243 C -0.18655 -0.03860 0.35936
 C244 C -0.18259 0.03544 0.16724
 C245 C -0.06187 -0.10843 0.22045
 C246 C -0.05660 0.08524 0.29491
 C247 C 0.30936 0.52526 0.70991
 H248 H 0.29763 0.52177 0.73515
 C249 C 0.28918 0.53862 0.68292
 H250 H 0.26193 0.54446 0.68731
 C251 C 0.35961 0.52563 0.67394
 H252 H 0.38728 0.52112 0.67090
 C253 C 0.34046 0.53913 0.64633
 H254 H 0.35339 0.54517 0.62200
 N255 N 0.34377 0.51823 0.70477
 C256 C 0.36266 0.49199 0.81196
 H257 H 0.38855 0.50331 0.81358
 C258 C 0.34596 0.48073 0.84216
 H259 H 0.35952 0.48295 0.86675
 C260 C 0.31580 0.47108 0.77753
 H261 H 0.30510 0.46546 0.75215
 C262 C 0.29736 0.46104 0.80721
 H263 H 0.27201 0.44869 0.80438
 Zn264 Zn 0.37301 0.50104 0.74063
 N265 N 0.34721 0.48756 0.78046
 C266 C 0.38714 0.56422 0.77026
 N267 N 0.40315 0.53811 0.75309
 C268 C 0.43775 0.53990 0.74510
 C269 C 0.45775 0.56880 0.75523
 C270 C 0.40622 0.59284 0.78169
 C271 C 0.38984 0.44623 0.69468
 C272 C 0.40409 0.41440 0.68579
 C273 C 0.43308 0.41285 0.74145
 C274 C 0.41880 0.44518 0.74905
 N275 N 0.39727 0.46099 0.72591
 H276 H 0.35945 0.56239 0.77567
 H277 H 0.44971 0.51916 0.73069
 H278 H 0.48517 0.57029 0.74845
 H279 H 0.39313 0.61285 0.79626
 H280 H 0.37188 0.45838 0.67698
 H281 H 0.39805 0.40320 0.66070
 H282 H 0.44951 0.40020 0.76043
 H283 H 0.42392 0.45715 0.77393
 C284 C 0.31237 0.46592 0.84018
 C285 C 0.30491 0.54583 0.65085
 C286 C 0.42507 0.39674 0.70975
 C287 C 0.44209 0.59525 0.77467
 C288 C 0.67635 0.96613 0.72793
 H289 H 0.67873 0.95441 0.75336
 C290 C 0.69268 0.95105 0.69933
 H291 H 0.70778 0.92775 0.70275
 C292 C 0.65044 1.00836 0.69158
 H293 H 0.63253 1.02950 0.68825
 C294 C 0.66630 0.99415 0.66237
 H295 H 0.66072 1.00461 0.63686
 N296 N 0.65491 0.99365 0.72342
 C297 C 0.62923 1.03120 0.82699
 H298 H 0.60107 1.03009 0.82472
 C299 C 0.64454 1.04222 0.85790
 H300 H 0.62762 1.04878 0.87939
 C301 C 0.68474 1.02270 0.80153
 H302 H 0.70020 1.01562 0.77920
 C303 C 0.70125 1.03426 0.83186
 H304 H 0.72942 1.03698 0.83192
 Zn305 Zn 0.62462 1.00534 0.76030
 N306 N 0.64932 1.02082 0.79996
 C307 C 0.60283 0.95015 0.80373
 N308 N 0.59967 0.96381 0.77127
 C309 C 0.58441 0.94529 0.74518
 C310 C 0.57277 0.91123 0.75105
 C311 C 0.59124 0.91659 0.81076
 C312 C 0.61432 1.07253 0.74080
 C313 C 0.59736 1.10249 0.73044
 C314 C 0.54246 1.07124 0.73283
 C315 C 0.56067 1.04148 0.74292
 N316 N 0.59604 1.04273 0.74647
 H317 H 0.61584 0.96448 0.82402
 H318 H 0.58293 0.95632 0.71937
 H319 H 0.56163 0.89638 0.72988
 H320 H 0.59428 0.90614 0.83672
 H321 H 0.64241 1.07278 0.74387
 H322 H 0.61266 1.12559 0.72498
 H323 H 0.51436 1.07005 0.72977
 H324 H 0.54667 1.01751 0.74778
 C325 C 0.68119 1.04328 0.86121
 C326 C 0.68655 0.96445 0.66605
 C327 C 0.56093 1.10234 0.72675
 C328 C 0.57718 0.89623 0.78400
 C329 C 0.04807 0.18424 -0.14346
 H330 H 0.06468 0.19375 -0.12290
 C331 C 0.05782 0.15476 -0.16146
 H332 H 0.08220 0.14224 -0.15513
 C333 C -0.00470 0.18734 -0.17556
 H334 H -0.02940 0.19985 -0.18025
 C335 C 0.00419 0.15780 -0.19442
 H336 H -0.01350 0.14760 -0.21391
 N337 N 0.01744 0.20014 -0.15092
 C338 C -0.01308 0.30636 -0.13199
 H339 H -0.01064 0.30570 -0.10400
 C340 C -0.02554 0.33587 -0.14832
 H341 H -0.03275 0.35813 -0.13294
 C342 C -0.00843 0.27739 -0.18610
 H343 H -0.00200 0.25443 -0.20059
 C344 C -0.02102 0.30647 -0.20355
 H345 H -0.02464 0.30583 -0.23145
 Zn346 Zn 0.00455 0.23856 -0.12369
 N347 N -0.00586 0.27760 -0.15083
 C348 C 0.07161 0.26159 -0.11228
 N349 N 0.04237 0.25161 -0.09474
 C350 C 0.04107 0.25230 -0.05938
 C351 C 0.07041 0.26305 -0.04032
 C352 C 0.10150 0.27182 -0.09436
 C353 C -0.06695 0.24048 -0.10715
 C354 C -0.09787 0.22957 -0.09123
 C355 C -0.06472 0.18818 -0.05818
 C356 C -0.03443 0.19981 -0.07492
 N357 N -0.03600 0.22581 -0.09857
 H358 H 0.07165 0.26134 -0.14039
 H359 H 0.01728 0.24505 -0.04601
 H360 H 0.06923 0.26416 -0.01224
 H361 H 0.12459 0.27978 -0.10867
 H362 H -0.06808 0.25974 -0.12747
 H363 H -0.12216 0.24019 -0.10068
 H364 H -0.06210 0.16820 -0.03862
 H365 H -0.00962 0.18790 -0.06925
 C366 C -0.03039 0.33565 -0.18429
 C367 C 0.03565 0.14116 -0.18699
 C368 C -0.09741 0.20338 -0.06565
 C369 C 0.10104 0.27258 -0.05804
 C370 C 0.45183 0.19984 0.14929
 H371 H 0.43490 0.21150 0.13027
 C372 C 0.44047 0.17008 0.16652
 H373 H 0.41477 0.15948 0.16100
 C374 C 0.50680 0.19727 0.17745
 H375 H 0.53286 0.20769 0.18105
 C376 C 0.49659 0.16696 0.19492
 H377 H 0.51482 0.15401 0.21195
 N378 N 0.48451 0.21289 0.15488
 C379 C 0.53323 0.31286 0.13216
 H380 H 0.53352 0.30980 0.10422
 C381 C 0.54811 0.34224 0.14708
 H382 H 0.55998 0.36181 0.13057
 C383 C 0.51724 0.29086 0.18756
 H384 H 0.50490 0.27079 0.20301
 C385 C 0.53142 0.32032 0.20364
 H386 H 0.52984 0.32300 0.23159
 Zn387 Zn 0.50004 0.25045 0.12660
 N388 N 0.51854 0.28779 0.15239
 C389 C 0.43551 0.28009 0.12457
 N390 N 0.46123 0.26942 0.10276
 C391 C 0.45874 0.27434 0.06781
 C392 C 0.42863 0.28886 0.05357
 C393 C 0.40512 0.29470 0.11149
 C394 C 0.56861 0.23525 0.11402
 C395 C 0.59860 0.22497 0.09668
 C396 C 0.56347 0.21209 0.04623
 C397 C 0.53373 0.22170 0.06505
 N398 N 0.53700 0.23429 0.09794
 H399 H 0.43858 0.27686 0.15233
 H400 H 0.48015 0.26796 0.05094
 H401 H 0.42672 0.29270 0.02576
 H402 H 0.38470 0.30274 0.12911
 H403 H 0.57055 0.24392 0.14063
 H404 H 0.62324 0.22518 0.11049
 H405 H 0.56061 0.20271 0.01988
 H406 H 0.50825 0.21855 0.05345
 C407 C 0.54750 0.34617 0.18322
 C408 C 0.46315 0.15301 0.18911
 C409 C 0.59659 0.21440 0.06189
 C410 C 0.40154 0.29911 0.07563
 C411 C 0.94433 0.70328 0.66562
 H412 H 0.92441 0.72016 0.65565
 C413 C 0.93422 0.67300 0.68272
 H414 H 0.90672 0.66668 0.68535
 C415 C 1.00408 0.69008 0.67363
 H416 H 1.03128 0.69646 0.66972
 C417 C 0.99507 0.65959 0.69124
 H418 H 1.01536 0.64268 0.70071
 N419 N 0.97876 0.71078 0.66034
 C420 C 1.01714 0.81497 0.63623
 H421 H 1.00639 0.81706 0.61033
 C422 C 1.03458 0.84312 0.65092
 H423 H 1.03662 0.86712 0.63643
 C424 C 1.02725 0.78104 0.68654
 H425 H 1.02452 0.75665 0.70009
 C426 C 1.04631 0.80817 0.70162
 H427 H 1.05842 0.80442 0.72676
 Zn428 Zn 0.98960 0.74895 0.63064
 N429 N 1.01298 0.78505 0.65444
 C430 C 0.93326 0.79484 0.62792
 N431 N 0.94669 0.76605 0.61287
 C432 C 0.92813 0.74793 0.58871
 C433 C 0.89594 0.76004 0.57704
 C434 C 0.90080 0.80729 0.61773
 C435 C 1.05416 0.72979 0.60744
 C436 C 1.08053 0.71894 0.58532
 C437 C 1.03935 0.71927 0.53781
 C438 C 1.01363 0.73070 0.56094
 N439 N 1.02122 0.73477 0.59534
 H440 H 0.94732 0.80784 0.64850
 H441 H 0.93797 0.72377 0.57886
 H442 H 0.88223 0.74619 0.55668
 H443 H 0.89062 0.83032 0.62991
 H444 H 1.06014 0.73461 0.63442
 H445 H 1.10652 0.71469 0.59551
 H446 H 1.03309 0.71533 0.51066
 H447 H 0.98792 0.73621 0.55117
 C448 C 1.04914 0.84009 0.68419
 C449 C 0.95975 0.65027 0.69468
 C450 C 1.07309 0.71319 0.55027
 C451 C 0.88180 0.78997 0.59183
 C452 C 0.53368 0.69560 0.36070
 H453 H 0.54777 0.70399 0.38342
 C454 C 0.54440 0.66587 0.34359
 H455 H 0.56658 0.65160 0.35332
 C456 C 0.48781 0.70331 0.32014
 H457 H 0.46593 0.71817 0.31094
 C458 C 0.49790 0.67374 0.30200
 H459 H 0.48356 0.66562 0.27913
 N460 N 0.50525 0.71323 0.34940
 C461 C 0.44954 0.80771 0.36064
 H462 H 0.43956 0.80302 0.38651
 C463 C 0.43500 0.83357 0.34039
 H464 H 0.41422 0.84901 0.35124
 C465 C 0.48955 0.79391 0.31589
 H466 H 0.51057 0.77793 0.30652
 C467 C 0.47630 0.82035 0.29492
 H468 H 0.48716 0.82443 0.26924
 Zn469 Zn 0.48860 0.75063 0.37648
 N470 N 0.47552 0.78781 0.34781
 C471 C 0.53980 0.79635 0.40108
 N472 N 0.52364 0.76563 0.40797
 C473 C 0.53396 0.74532 0.43501
 C474 C 0.56236 0.75523 0.45564
 C475 C 0.56836 0.80707 0.42081
 C476 C 0.42041 0.72629 0.37950
 C477 C 0.38826 0.71761 0.39407
 C478 C 0.41209 0.73040 0.45081
 C479 C 0.44384 0.73916 0.43507
 N480 N 0.44752 0.73653 0.39999
 H481 H 0.53136 0.81204 0.37946
 H482 H 0.52086 0.72085 0.43983
 H483 H 0.57094 0.73864 0.47661
 H484 H 0.58171 0.83108 0.41436
 H485 H 0.42348 0.72554 0.35167
 H486 H 0.36696 0.70929 0.37745
 H487 H 0.40955 0.73178 0.47879
 H488 H 0.46518 0.74852 0.45087
 C489 C 0.44750 0.83955 0.30656
 C490 C 0.52598 0.65438 0.31438
 C491 C 0.38388 0.71973 0.43008
 C492 C 0.58033 0.78603 0.44790
 C493 C 0.38969 -0.03743 0.24710
 C494 C 0.36801 -0.03927 0.21387
 C495 C 0.35265 -0.00925 0.20458
 C496 C 0.36099 0.02109 0.22920
 C497 C 0.41614 -0.00763 0.24054
 C498 C 0.40124 0.02263 0.23024
 C499 C 0.36570 -0.02215 0.27473
 C500 C 0.35075 0.00842 0.26598
 H501 H 0.36563 -0.06259 0.19842
 H502 H 0.34869 0.04578 0.22129
 H503 H 0.44379 -0.00883 0.24587
 H504 H 0.36388 -0.03291 0.30071
 C505 C 0.10781 1.02747 0.74793
 C506 C 0.12514 1.03561 0.71264
 C507 C 0.14739 1.01084 0.70135
 C508 C 0.15121 0.98010 0.72640
 C509 C 0.09107 0.99172 0.74242
 C510 C 0.11364 0.96678 0.73201
 C511 C 0.13902 1.02135 0.77202
 C512 C 0.16147 0.99646 0.76142
 H513 H 0.12162 1.05890 0.69763
 H514 H 0.16961 0.96012 0.71708
 H515 H 0.06329 0.98697 0.74536
 H516 H 0.14127 1.03364 0.79720
 C517 C 0.59698 0.53528 0.25923
 C518 C 0.62442 0.54497 0.23151
 C519 C 0.64678 0.51916 0.22349
 C520 C 0.64039 0.48559 0.24394
 C521 C 0.57938 0.50242 0.24486
 C522 C 0.60176 0.47618 0.23735
 C523 C 0.61939 0.52295 0.28988
 C524 C 0.64135 0.49669 0.28221
 H525 H 0.62766 0.57017 0.21978
 H526 H 0.65928 0.46508 0.23724
 H527 H 0.55133 0.49993 0.24202
 H528 H 0.61708 0.53320 0.31595
 C529 C 0.90063 0.46007 0.76564
 C530 C 0.87878 0.45627 0.73246
 C531 C 0.86036 0.48480 0.72338
 C532 C 0.86576 0.51538 0.74826
 C533 C 0.92382 0.49230 0.75811
 C534 C 0.90551 0.52077 0.74834
 C535 C 0.87554 0.47278 0.79366
 C536 C 0.85716 0.50115 0.78472
 H537 H 0.87983 0.43347 0.71616
 H538 H 0.85101 0.53891 0.74097
 H539 H 0.95196 0.49306 0.75794
 H540 H 0.87436 0.46165 0.81951
 C541 C 0.25801 0.39461 -0.03634
 C542 C 0.23362 0.36398 -0.04468
 C543 C 0.22533 0.34364 -0.01705
 C544 C 0.24253 0.35561 0.01722
 C545 C 0.23778 0.41335 -0.00739
 C546 C 0.23070 0.39345 0.02133
 C547 C 0.28951 0.37865 -0.01849
 C548 C 0.28169 0.35861 0.00930
 H549 H 0.21836 0.36251 -0.06835
 H550 H 0.23723 0.33854 0.03986
 H551 H 0.23024 0.44021 -0.00918
 H552 H 0.31619 0.38387 -0.02653
 C553 C 0.76290 0.10497 1.04518
 C554 C 0.73283 0.12970 1.05152
 C555 C 0.72314 0.14822 1.02330
 C556 C 0.74416 0.14016 0.99017
 C557 C 0.74963 0.08232 1.01463
 C558 C 0.74047 0.10082 0.98576
 C559 C 0.79213 0.12667 1.02858
 C560 C 0.78275 0.14518 1.00011
 H561 H 0.71897 0.13098 1.07603
 H562 H 0.73606 0.15508 0.96689
 H563 H 0.74708 0.05453 1.01496
 H564 H 0.81903 0.12518 1.03721
 C565 C 0.24257 0.61385 0.53078
 C566 C 0.20731 0.63156 0.53417
 C567 C 0.19837 0.65173 0.50672
 C568 C 0.22536 0.65158 0.47710
 C569 C 0.23889 0.59332 0.49627
 C570 C 0.22944 0.61298 0.46802
 C571 C 0.26892 0.64222 0.52175
 C572 C 0.26057 0.66192 0.49409
 H573 H 0.19042 0.62781 0.55650
 H574 H 0.21709 0.66816 0.45517
 H575 H 0.24151 0.56568 0.49410
 H576 H 0.29483 0.64304 0.53315
 C577 C 0.74604 0.89470 0.47848
 C578 C 0.71657 0.86910 0.46963
 C579 C 0.70626 0.84868 0.49642
 C580 C 0.72589 0.85595 0.53079
 C581 C 0.73064 0.91497 0.50922
 C582 C 0.72086 0.89500 0.53708
 C583 C 0.77466 0.87224 0.49408
 C584 C 0.76476 0.85249 0.52165
 H585 H 0.70085 0.87020 0.44634
 H586 H 0.71809 0.83951 0.55312
 H587 H 0.72845 0.94288 0.50916
 H588 H 0.80146 0.87351 0.48505
 C589 C -0.02457 0.26200 0.38851
 C590 C -0.03588 0.22995 0.36848
 C591 C -0.01079 0.21607 0.34822
 C592 C 0.02418 0.23640 0.34873
 C593 C 0.00906 0.25160 0.40811
 C594 C 0.03447 0.23736 0.38751
 C595 C -0.01035 0.28706 0.36087
 C596 C 0.01504 0.27413 0.34024
 H597 H -0.06080 0.21710 0.37285
 H598 H 0.04452 0.22620 0.33107
 H599 H 0.01273 0.25604 0.43563
 H600 H -0.01433 0.31473 0.36213
 C601 C 1.03367 0.76460 0.09410
 C602 C 1.04345 0.73141 0.11373
 C603 C 1.01800 0.71893 0.13513
 C604 C 0.98531 0.74166 0.13672
 C605 C 0.99841 0.75639 0.07672
 C606 C 0.97298 0.74416 0.09864
 C607 C 1.02472 0.78956 0.12376
 C608 C 0.99918 0.77826 0.14538
 H609 H 1.06822 0.71849 0.11070
 H610 H 0.96554 0.73140 0.15523
 H611 H 0.99454 0.75881 0.04896
 H612 H 1.03636 0.81487 0.12739
 C613 C 0.54156 0.26526 0.60962
 C614 C 0.54926 0.23668 0.63606
 C615 C 0.52079 0.22388 0.65278
 C616 C 0.48634 0.24036 0.64157
 C617 C 0.51420 0.24888 0.58509
 C618 C 0.48557 0.23587 0.60169
 C619 C 0.52015 0.29226 0.62917
 C620 C 0.49180 0.27978 0.64691
 H621 H 0.57517 0.22641 0.64014
 H622 H 0.46412 0.22837 0.65569
 H623 H 0.51507 0.24965 0.55708
 H624 H 0.52707 0.31951 0.62865
 C625 C 0.47226 0.75933 0.88617
 C626 C 0.46508 0.72824 0.86267
 C627 C 0.49342 0.71561 0.84576
 C628 C 0.52738 0.73586 0.85384
 C629 C 0.50167 0.74815 0.91061
 C630 C 0.53020 0.73547 0.89414
 C631 C 0.49087 0.78588 0.86253
 C632 C 0.51923 0.77398 0.84506
 H633 H 0.43918 0.71705 0.85970
 H634 H 0.55009 0.72565 0.83950
 H635 H 0.50052 0.75105 0.93857
 H636 H 0.48519 0.81321 0.86245
 C637 C 0.43955 -0.08012 0.25525
 C638 C 0.45345 -0.11032 0.26903
 C639 C 0.43198 -0.13471 0.28579
 C640 C 0.39515 -0.13099 0.28343
 C641 C 0.38083 -0.10028 0.26929
 C642 C 0.40359 -0.07311 0.25752
 C643 C 0.34404 -0.09819 0.26716
 N644 N 0.32360 -0.12500 0.27778
 N645 N 0.33716 -0.15404 0.29014
 C646 C 0.37210 -0.15808 0.29303
 H647 H 0.45772 -0.06212 0.24349
 H648 H 0.48158 -0.11309 0.26897
 H649 H 0.33095 -0.07604 0.25654
 H650 H 0.38152 -0.18284 0.30191
 C651 C 0.95472 0.42385 0.77863
 C652 C 0.97100 0.39398 0.79015
 C653 C 0.95149 0.36481 0.79930
 C654 C 0.91478 0.36512 0.79606
 C655 C 0.89778 0.39552 0.78443
 C656 C 0.91802 0.42590 0.77614
 C657 C 0.86092 0.39431 0.78214
 N658 N 0.84305 0.36510 0.79083
 N659 N 0.85920 0.33682 0.80179
 C660 C 0.89439 0.33584 0.80477
 H661 H 0.97177 0.44524 0.77247
 H662 H 0.99919 0.39391 0.79276
 H663 H 0.84571 0.41601 0.77366
 H664 H 0.90608 0.31213 0.81387
 C665 C 0.07318 1.08385 0.74462
 C666 C 0.05570 1.11106 0.76032
 C667 C 0.04583 1.10909 0.79511
 C668 C 0.05029 1.07786 0.81354
 C669 C 0.06853 1.05012 0.79798
 C670 C 0.08229 1.05389 0.76348
 C671 C 0.07290 1.01990 0.81810
 N672 N 0.05967 1.01776 0.85071
 N673 N 0.04231 1.04377 0.86493
 C674 C 0.03721 1.07373 0.84749
 H675 H 0.08026 1.08752 0.71781
 H676 H 0.05154 1.13464 0.74567
 H677 H 0.08673 0.99787 0.80864
 H678 H 0.02260 1.09392 0.86016
 C679 C 0.56941 0.59498 0.25144
 C680 C 0.55286 0.62375 0.26518
 C681 C 0.53643 0.62190 0.29744
 C682 C 0.53291 0.58957 0.31429
 C683 C 0.54942 0.56002 0.30023
 C684 C 0.57092 0.56347 0.26999
 C685 C 0.54398 0.52816 0.31735
 N686 N 0.52442 0.52646 0.34668
 N687 N 0.50962 0.55440 0.36012
 C688 C 0.51317 0.58588 0.34493
 H689 H 0.58169 0.59839 0.22648
 H690 H 0.55442 0.64814 0.25130
 H691 H 0.55447 0.50443 0.30759
 H692 H 0.50004 0.60760 0.35661
 C693 C 0.56260 0.44104 0.19969
 C694 C 0.54933 0.40990 0.18715
 C695 C 0.56235 0.37820 0.19883
 C696 C 0.58964 0.37802 0.22377
 C697 C 0.60269 0.40995 0.23721
 C698 C 0.58922 0.44176 0.22468
 C699 C 0.62857 0.41020 0.26308
 N700 N 0.64126 0.37826 0.27369
 N701 N 0.62986 0.34757 0.25967
 C702 C 0.60475 0.34700 0.23506
 H703 H 0.55206 0.46489 0.18947
 H704 H 0.52865 0.41054 0.16794
 H705 H 0.64481 0.39445 0.27892
 H706 H 0.59701 0.32222 0.22450
 C707 C 0.10938 0.91766 0.69112
 C708 C 0.09311 0.88746 0.67946
 C709 C 0.06780 0.87024 0.69976
 C710 C 0.06038 0.88294 0.73355
 C711 C 0.07884 0.91231 0.74619
 C712 C 0.10161 0.93112 0.72387
 C713 C 0.07376 0.92206 0.78095
 N714 N 0.04941 0.90557 0.80064
 N715 N 0.02994 0.87988 0.78787
 C716 C 0.03437 0.86817 0.75500
 H717 H 0.12696 0.93142 0.67376
 H718 H 0.09950 0.87806 0.65376
 H719 H 0.08941 0.94219 0.79273
 H720 H 0.01724 0.84774 0.74607
 C721 C 0.91462 0.58396 0.75111
 C722 C 0.92795 0.61516 0.73845
 C723 C 0.94905 0.61609 0.70872
 C724 C 0.95679 0.58478 0.69130
 C725 C 0.94353 0.55290 0.70444
 C726 C 0.92227 0.55267 0.73470
 C727 C 0.95086 0.52249 0.68580
 N728 N 0.97012 0.52406 0.65629
 N729 N 0.98231 0.55397 0.64387
 C730 C 0.97615 0.58433 0.66018
 H731 H 0.89793 0.58428 0.77381
 H732 H 0.92129 0.63894 0.75163
 H733 H 0.94125 0.49746 0.69397
 H734 H 0.98610 0.60776 0.64829
 C735 C 0.40980 0.08574 0.23638
 C736 C 0.42481 0.11733 0.22696
 C737 C 0.45248 0.11884 0.20328
 C738 C 0.46593 0.08788 0.18940
 C739 C 0.45002 0.05554 0.19810
 C740 C 0.42145 0.05466 0.22189
 C741 C 0.46176 0.02568 0.18103
 N742 N 0.48866 0.02771 0.15840
 N743 N 0.50463 0.05882 0.15115
 C744 C 0.49380 0.08985 0.16563
 H745 H 0.38814 0.08567 0.25451
 H746 H 0.41408 0.14095 0.23742
 H747 H 0.44949 0.00072 0.18459
 H748 H 0.51072 0.07507 0.14962
 C749 C 0.26971 0.40058 -0.10077
 C750 C 0.28216 0.41757 -0.13004
 C751 C 0.29512 0.45144 -0.12819
 C752 C 0.29516 0.46851 -0.09557
 C753 C 0.28534 0.45007 -0.06498
 C754 C 0.26999 0.41630 -0.06776
 C755 C 0.29253 0.46599 -0.03280
 N756 N 0.30392 0.49929 -0.03166
 N757 N 0.30935 0.51766 -0.06046
 C758 C 0.30526 0.50345 -0.09235
 H759 H 0.26169 0.37394 -0.10426
 H760 H 0.28294 0.40335 -0.15424
 H761 H 0.29020 0.45234 -0.00850
 H762 H 0.31000 0.51959 -0.11486
 C763 C 0.75292 0.90738 0.41384
 C764 C 0.76869 0.92358 0.38571
 C765 C 0.79342 0.94986 0.39039
 C766 C 0.80127 0.96114 0.42452
 C767 C 0.78649 0.94356 0.45364
 C768 C 0.76106 0.91660 0.44840
 C769 C 0.79882 0.95310 0.48688
 N770 N 0.82152 0.97999 0.49053
 N771 N 0.83329 0.99786 0.46331
 C772 C 0.82393 0.98939 0.43047
 H773 H 0.73600 0.88591 0.40753
 H774 H 0.76279 0.91405 0.35988
 H775 H 0.79138 0.93941 0.51013
 H776 H 0.83420 1.00490 0.40933
 C777 C 0.77358 0.05164 1.08289
 C778 C 0.78778 0.03513 1.11161
 C779 C 0.80472 0.05375 1.13804
 C780 C 0.80802 0.09037 1.13446
 C781 C 0.79180 0.10753 1.10608
 C782 C 0.77554 0.08778 1.07893
 C783 C 0.79366 0.14411 1.10536
 N784 N 0.81286 0.16159 1.12920
 N785 N 0.83063 0.14523 1.15377
 C786 C 0.82935 0.11037 1.15687
 H787 H 0.76080 0.03527 1.06414
 H788 H 0.78437 0.00733 1.11358
 H789 H 0.78062 0.15940 1.08600
 H790 H 0.84585 0.09878 1.17630
 C791 C 0.26195 0.56016 0.56433
 C792 C 0.27744 0.54434 0.59287
 C793 C 0.28521 0.56308 0.62287
 C794 C 0.27615 0.59836 0.62485
 C795 C 0.26026 0.61481 0.59591
 C796 C 0.25398 0.59566 0.56448
 C797 C 0.25239 0.65035 0.59931
 N798 N 0.25999 0.66753 0.62906
 N799 N 0.27518 0.65199 0.65583
 C800 C 0.28368 0.61813 0.65469
 H801 H 0.25745 0.54411 0.54194
 H802 H 0.28420 0.51723 0.59124
 H803 H 0.24056 0.66519 0.57888
 H804 H 0.29644 0.60716 0.67712
 C805 C 0.19920 0.56621 0.43501
 C806 C 0.18673 0.55048 0.40491
 C807 C 0.19259 0.56537 0.37228
 C808 C 0.21126 0.59709 0.37000
 C809 C 0.22505 0.61276 0.40060
 C810 C 0.21860 0.59731 0.43386
 C811 C 0.24504 0.64318 0.39634
 N812 N 0.24927 0.65772 0.36453
 N813 N 0.23495 0.64387 0.33629
 C814 C 0.21598 0.61419 0.33794
 H815 H 0.19281 0.55407 0.45962
 H816 H 0.17200 0.52650 0.40716
 H817 H 0.25747 0.65573 0.41762
 H818 H 0.20461 0.60452 0.31415
 C819 C 0.69640 0.09779 0.93926
 C820 C 0.68159 0.08344 0.90962
 C821 C 0.69691 0.05520 0.89250
 C822 C 0.72800 0.04093 0.90702
 C823 C 0.74401 0.05692 0.93635
 C824 C 0.72728 0.08483 0.95322
 C825 C 0.77648 0.04441 0.94767
 N826 N 0.79003 0.01562 0.93314
 N827 N 0.77335 -0.00143 0.90803
 C828 C 0.74271 0.00994 0.89481
 H829 H 0.68348 0.11942 0.95135
 H830 H 0.65848 0.09573 0.89935
 H831 H 0.79136 0.05721 0.96782
 H832 H 0.72992 -0.00590 0.87547
 C833 C 0.73124 0.93881 0.58310
 C834 C 0.72356 0.95553 0.61416
 C835 C 0.69570 0.94433 0.63483
 C836 C 0.67514 0.91564 0.62415
 C837 C 0.68277 0.89855 0.59241
 C838 C 0.71110 0.91051 0.57132
 C839 C 0.66080 0.87088 0.58266
 N840 N 0.63370 0.86092 0.60314
 N841 N 0.62669 0.87693 0.63282
 C842 C 0.64635 0.90399 0.64397
 H843 H 0.75329 0.94822 0.56805
 H844 H 0.73930 0.97762 0.62199
 H845 H 0.66450 0.85703 0.55908
 H846 H 0.63908 0.91621 0.66810
 C847 C 0.23340 0.44067 0.06486
 C848 C 0.22374 0.45688 0.09558
 C849 C 0.19886 0.44181 0.11752
 C850 C 0.18316 0.40982 0.10829
 C851 C 0.19275 0.39326 0.07681
 C852 C 0.21832 0.40889 0.05470
 C853 C 0.17526 0.36229 0.06824
 N854 N 0.15067 0.34869 0.08976
 N855 N 0.14197 0.36411 0.11932
 C856 C 0.15723 0.39424 0.12926
 H857 H 0.25310 0.45320 0.04890
 H858 H 0.23562 0.48156 0.10221
 H859 H 0.18038 0.34881 0.04465
 H860 H 0.14872 0.40578 0.15333
 C861 C -0.07517 0.30315 0.39548
 C862 C -0.10267 0.31785 0.41322
 C863 C -0.11254 0.30590 0.44599
 C864 C -0.09489 0.27737 0.46067
 C865 C -0.06711 0.26151 0.44207
 C866 C -0.05523 0.27621 0.40997
 C867 C -0.05315 0.23093 0.45606
 N868 N -0.06411 0.21899 0.48741
 N869 N -0.08846 0.23521 0.50568
 C870 C -0.10419 0.26399 0.49341
 H871 H -0.07050 0.31284 0.36954
 H872 H -0.11687 0.33864 0.40084
 H873 H -0.03431 0.21576 0.44228
 H874 H -0.12392 0.27600 0.50930
 C875 C 0.42210 0.80178 0.89189
 C876 C 0.39345 0.81560 0.90870
 C877 C 0.37912 0.79967 0.93801
 C878 C 0.39316 0.76800 0.94974
 C879 C 0.42225 0.75332 0.93219
 C880 C 0.43869 0.77175 0.90423
 C881 C 0.43327 0.72034 0.94309
 N882 N 0.41787 0.70461 0.97072
 N883 N 0.39194 0.71930 0.98813
 C884 C 0.37910 0.75045 0.97863
 H885 H 0.43038 0.81488 0.86851
 H886 H 0.38203 0.83902 0.89837
 H887 H 0.45346 0.70642 0.92972
 H888 H 0.35796 0.76110 0.99368
 C889 C 1.06765 0.81396 0.06529
 C890 C 1.09630 0.82706 0.04730
 C891 C 1.11926 0.80504 0.03020
 C892 C 1.11089 0.76935 0.02810
 C893 C 1.08110 0.75596 0.04598
 C894 C 1.06132 0.77805 0.06806
 C895 C 1.07180 0.72111 0.04022
 N896 N 1.09201 0.70088 0.01986
 N897 N 1.12060 0.71319 0.00431
 C898 C 1.13066 0.74674 0.00762
 H899 H 1.05071 0.83263 0.07723
 H900 H 1.10120 0.85472 0.04769
 H901 H 1.04820 0.70988 0.05080
 H902 H 1.15350 0.75558 -0.00648
 C903 C 0.58320 0.27590 0.55858
 C904 C 0.61264 0.29090 0.54340
 C905 C 0.63594 0.31093 0.56289
 C906 C 0.62967 0.31566 0.59880
 C907 C 0.60015 0.29961 0.61478
 C908 C 0.57547 0.28053 0.59408
 C909 C 0.59647 0.30353 0.65109
 N910 N 0.61939 0.32338 0.66925
 N911 N 0.64597 0.33964 0.65384
 C912 C 0.65180 0.33660 0.61931
 H913 H 0.56700 0.26029 0.54184
 H914 H 0.61739 0.28670 0.51598
 H915 H 0.57586 0.29111 0.66563
 H916 H 0.67359 0.35080 0.60830
 C917 C 0.42684 0.24283 0.57608
 C918 C 0.39693 0.22997 0.55984
 C919 C 0.39539 0.19576 0.54788
 C920 C 0.42574 0.17499 0.55032
 C921 C 0.45577 0.18787 0.56785
 C922 C 0.45552 0.22152 0.58219
 C923 C 0.48536 0.16673 0.56993
 N924 N 0.48492 0.13497 0.55506
 N925 N 0.45700 0.12307 0.53809
 C926 C 0.42754 0.14201 0.53502
 H927 H 0.42743 0.26959 0.58430
 H928 H 0.37450 0.24665 0.55735
 H929 H 0.50901 0.17534 0.58275
 H930 H 0.40614 0.13135 0.52005
 C931 C 0.93984 0.70935 0.05534
 C932 C 0.90969 0.69401 0.04196
 C933 C 0.87738 0.69820 0.05827
 C934 C 0.87555 0.71818 0.08903
 C935 C 0.90616 0.73470 0.10224
 C936 C 0.93896 0.72981 0.08547
 C937 C 0.90245 0.75597 0.13152
 N938 N 0.87108 0.75888 0.14751
 N939 N 0.84289 0.74205 0.13610
 C940 C 0.84406 0.72173 0.10752
 H941 H 0.96428 0.70462 0.04210
 H942 H 0.91164 0.67853 0.01861
 H943 H 0.92389 0.77052 0.14182
 H944 H 0.82038 0.70844 0.09976
 C945 C 0.56356 0.68890 0.92269
 C946 C 0.59277 0.67627 0.93987
 C947 C 0.61993 0.69853 0.95034
 C948 C 0.61623 0.73469 0.94509
 C949 C 0.58658 0.74742 0.92708
 C950 C 0.56109 0.72396 0.91409
 C951 C 0.58316 0.78341 0.92322
 N952 N 0.60796 0.80505 0.93623
 N953 N 0.63570 0.79315 0.95317
 C954 C 0.64061 0.75880 0.95817
 H955 H 0.54269 0.67104 0.91602
 H956 H 0.59443 0.64868 0.94450
 H957 H 0.56106 0.79453 0.90990
 H958 H 0.66314 0.75077 0.97292
 C959 C 0.08608 0.24860 0.42545
 C960 C 0.11796 0.23990 0.44059
 C961 C 0.13461 0.20915 0.43177
 C962 C 0.11911 0.18681 0.40702
 C963 C 0.08641 0.19524 0.39190
 C964 C 0.06943 0.22663 0.40133
 C965 C 0.07159 0.17102 0.36888
 N966 N 0.08843 0.14140 0.36096
 N967 N 0.11925 0.13390 0.37477
 C968 C 0.13511 0.15549 0.39758
 H969 H 0.07422 0.27280 0.43287
 H970 H 0.12950 0.25707 0.45971
 H971 H 0.04678 0.17479 0.35728
 H972 H 0.16000 0.14780 0.40820
 C973 C 0.51294 0.16149 0.66571
 C974 C 0.52294 0.13176 0.68365
 C975 C 0.54336 0.13411 0.71384
 C976 C 0.55053 0.16735 0.72803
 C977 C 0.54113 0.19748 0.70927
 C978 C 0.52362 0.19432 0.67709
 C979 C 0.54970 0.22999 0.72338
 N980 N 0.56603 0.23201 0.75457
 N981 N 0.57432 0.20377 0.77252
 C982 C 0.56706 0.17156 0.76040
 H983 H 0.49884 0.15867 0.64155
 H984 H 0.51673 0.10673 0.67250
 H985 H 0.54300 0.25375 0.71017
 H986 H 0.57381 0.14958 0.77638
 C987 C 1.02798 0.68412 0.18839
 C988 C 1.03790 0.65351 0.20475
 C989 C 1.04099 0.62271 0.18590
 C990 C 1.03216 0.62245 0.15015
 C991 C 1.02208 0.65362 0.13355
 C992 C 1.02131 0.68493 0.15265
 C993 C 1.01363 0.65250 0.09802
 N994 N 1.01577 0.62230 0.08034
 N995 N 1.02584 0.59319 0.09577
 C996 C 1.03423 0.59224 0.12999
 H997 H 1.02741 0.70763 0.20346
 H998 H 1.04482 0.65416 0.23204
 H999 H 1.00514 0.67527 0.08424
 H1000 H 1.04232 0.56788 0.14106
 C1001 C 0.95940 0.82728 0.15090
 C1002 C 0.94516 0.85489 0.16879
 C1003 C 0.95297 0.86044 0.20388
 C1004 C 0.97539 0.83713 0.22138
 C1005 C 0.98973 0.80875 0.20302
 C1006 C 0.98131 0.80370 0.16761
 C1007 C 1.01319 0.78712 0.22042
 N1008 N 1.02131 0.79321 0.25417
 N1009 N 1.00782 0.81972 0.27147
 C1010 C 0.98533 0.84199 0.25621
 H1011 H 0.95375 0.82456 0.12343
 H1012 H 0.92826 0.87250 0.15490
 H1013 H 1.02545 0.76582 0.20732
 H1014 H 0.97587 0.86347 0.27133
 C1015 C 0.49088 0.32835 0.68871
 C1016 C 0.47536 0.35728 0.70328
 C1017 C 0.43937 0.36218 0.70074
 C1018 C 0.41831 0.33520 0.68675
 C1019 C 0.43414 0.30614 0.67059
 C1020 C 0.47131 0.30367 0.66984
 C1021 C 0.41181 0.28135 0.65542
 N1022 N 0.37666 0.28463 0.65748
 N1023 N 0.36203 0.31117 0.67364
 C1024 C 0.38163 0.33647 0.68844
 H1025 H 0.51906 0.32651 0.69025
 H1026 H 0.49197 0.37701 0.71479
 H1027 H 0.42138 0.25913 0.64236
 H1028 H 0.36833 0.35707 0.70182
 C1029 C 0.46250 0.68810 0.79652
 C1030 C 0.44943 0.65874 0.77993
 C1031 C 0.46213 0.62576 0.78787
 C1032 C 0.49100 0.62297 0.81083
 C1033 C 0.50560 0.65331 0.82628
 C1034 C 0.48935 0.68585 0.82120
 C1035 C 0.53526 0.64960 0.84725
 N1036 N 0.54811 0.61778 0.85416
 N1037 N 0.53317 0.58926 0.84150
 C1038 C 0.50497 0.59072 0.82031
 H1039 H 0.44998 0.71266 0.79163
 H1040 H 0.42766 0.66159 0.76219
 H1041 H 0.54896 0.67157 0.85747
 H1042 H 0.49382 0.56660 0.81143
 C1043 C -0.02037 0.17587 0.29884
 C1044 C -0.03141 0.14389 0.28579
 C1045 C -0.03779 0.11593 0.30823
 C1046 C -0.03069 0.11941 0.34409
 C1047 C -0.01975 0.15180 0.35740
 C1048 C -0.01567 0.18056 0.33459
 C1049 C -0.01322 0.15431 0.39332
 N1050 N -0.01756 0.12628 0.41416
 N1051 N -0.02801 0.09585 0.40157
 C1052 C -0.03470 0.09144 0.36729
 H1053 H -0.01752 0.19755 0.28119
 H1054 H -0.03692 0.14148 0.25829
 H1055 H -0.00393 0.17800 0.40494
 H1056 H -0.04274 0.06604 0.35843
 C1057 C 0.05499 0.32427 0.34208
 C1058 C 0.07015 0.35323 0.32672
 C1059 C 0.07056 0.35731 0.29049
 C1060 C 0.05750 0.32986 0.26946
 C1061 C 0.04088 0.30076 0.28533
 C1062 C 0.03864 0.29869 0.32193
 C1063 C 0.02653 0.27495 0.26391
 N1064 N 0.02993 0.27743 0.22892
 N1065 N 0.04658 0.30401 0.21404
 C1066 C 0.06057 0.33021 0.23307
 H1067 H 0.05387 0.32294 0.37020
 H1068 H 0.08011 0.37346 0.34356
 H1069 H 0.01309 0.25269 0.27472
 H1070 H 0.07438 0.35073 0.21958
 C1071 C 0.51854 0.81936 0.79978
 C1072 C 0.53195 0.84981 0.78543
 C1073 C 0.56659 0.85977 0.79143
 C1074 C 0.58916 0.83623 0.80837
 C1075 C 0.57539 0.80550 0.82389
 C1076 C 0.53894 0.79813 0.82141
 C1077 C 0.59875 0.78417 0.84198
 N1078 N 0.63322 0.79242 0.84345
 N1079 N 0.64611 0.82067 0.82815
 C1080 C 0.62529 0.84281 0.81065
 H1081 H 0.49093 0.81387 0.79641
 H1082 H 0.51440 0.86697 0.77181
 H1083 H 0.59049 0.76100 0.85491
 H1084 H 0.63723 0.86513 0.79829
 C1085 C 0.67222 0.50516 0.16618
 C1086 C 0.69124 0.51535 0.13685
 C1087 C 0.71217 0.54575 0.13715
 C1088 C 0.71900 0.56139 0.17018
 C1089 C 0.69946 0.55100 0.19978
 C1090 C 0.67426 0.52423 0.19691
 C1091 C 0.70623 0.56732 0.23175
 N1092 N 0.73212 0.59135 0.23420
 N1093 N 0.75177 0.59992 0.20692
 C1094 C 0.74644 0.58551 0.17525
 H1095 H 0.65353 0.48404 0.16393
 H1096 H 0.68568 0.50166 0.11295
 H1097 H 0.69192 0.56042 0.25503
 H1098 H 0.76428 0.59240 0.15452
 C1099 C 0.20129 1.02408 0.66837
 C1100 C 0.21774 1.03653 0.63840
 C1101 C 0.19935 1.03964 0.60701
 C1102 C 0.16415 1.02796 0.60542
 C1103 C 0.14752 1.01523 0.63589
 C1104 C 0.16593 1.01466 0.66781
 C1105 C 0.11245 1.00430 0.63367
 N1106 N 0.09519 1.00648 0.60300
 N1107 N 0.11056 1.01901 0.57454
 C1108 C 0.14432 1.02999 0.57472
 H1109 H 0.21559 1.02406 0.69266
 H1110 H 0.24456 1.04557 0.64013
 H1111 H 0.09870 0.99391 0.65598
 H1112 H 0.15521 1.04018 0.55087
 C1113 C 0.18916 0.94619 0.79007
 C1114 C 0.20598 0.93167 0.81863
 C1115 C 0.22060 0.95272 0.84498
 C1116 C 0.22380 0.98899 0.83820
 C1117 C 0.20776 1.00345 0.80830
 C1118 C 0.18780 0.98209 0.78576
 C1119 C 0.21291 1.03890 0.80133
 N1120 N 0.23286 1.05850 0.82285
 N1121 N 0.24847 1.04497 0.85054
 C1122 C 0.24500 1.01097 0.85870
 H1123 H 0.17466 0.92919 0.77285
 H1124 H 0.20341 0.90393 0.82195
 H1125 H 0.20211 1.05098 0.77841
 H1126 H 0.25987 1.00128 0.88043
 C1127 C 0.69688 0.48348 0.31222
 C1128 C 0.71550 0.47022 0.34040
 C1129 C 0.69835 0.45162 0.36678
 C1130 C 0.66175 0.44608 0.36465
 C1131 C 0.64305 0.45891 0.33572
 C1132 C 0.66072 0.47843 0.30978
 C1133 C 0.60704 0.45159 0.33362
 N1134 N 0.59079 0.43391 0.35952
 N1135 N 0.60811 0.42301 0.38738
 C1136 C 0.64295 0.42854 0.39090
 H1137 H 0.71061 0.49852 0.29264
 H1138 H 0.74345 0.47459 0.34173
 H1139 H 0.59185 0.45908 0.31131
 H1140 H 0.65545 0.41934 0.41428
 C1141 C 0.86330 0.47992 0.65968
 C1142 C 0.84793 0.47126 0.62818
 C1143 C 0.81157 0.46801 0.62511
 C1144 C 0.79023 0.47745 0.65368
 C1145 C 0.80613 0.48810 0.68535
 C1146 C 0.84288 0.48670 0.68902
 C1147 C 0.78454 0.49837 0.71278
 N1148 N 0.74934 0.49653 0.70938
 N1149 N 0.73436 0.48495 0.68037
 C1150 C 0.75355 0.47513 0.65253
 H1151 H 0.89144 0.47899 0.66172
 H1152 H 0.86472 0.46453 0.60660
 H1153 H 0.79535 0.50850 0.73652
 H1154 H 0.73982 0.46556 0.62999
 C1155 C 0.29931 -0.02435 0.17218
 C1156 C 0.28403 -0.03574 0.14131
 C1157 C 0.30126 -0.03160 0.10934
 C1158 C 0.33345 -0.01297 0.10841
 C1159 C 0.34816 -0.00016 0.13981
 C1160 C 0.33198 -0.00777 0.17206
 C1161 C 0.37974 0.01845 0.13810
 N1162 N 0.39622 0.02292 0.10725
 N1163 N 0.38330 0.00971 0.07800
 C1164 C 0.35271 -0.00828 0.07753
 H1165 H 0.28680 -0.03091 0.19661
 H1166 H 0.25949 -0.04989 0.14263
 H1167 H 0.39110 0.02987 0.16093
 H1168 H 0.34420 -0.01894 0.05306
 C1169 C 0.35451 0.03444 0.32444
 C1170 C 0.34078 0.05157 0.35289
 C1171 C 0.30767 0.06664 0.35156
 C1172 C 0.28861 0.06503 0.31982
 C1173 C 0.30219 0.04624 0.29104
 C1174 C 0.33538 0.03055 0.29358
 C1175 C 0.28167 0.04336 0.26092
 N1176 N 0.25058 0.05974 0.25905
 N1177 N 0.23861 0.07864 0.28529
 C1178 C 0.25657 0.08195 0.31550
 H1179 H 0.38025 0.02330 0.32693
 H1180 H 0.35608 0.05241 0.37656
 H1181 H 0.28997 0.02827 0.23887
 H1182 H 0.24579 0.09813 0.33559
 C1183 C 0.85324 0.54472 0.83084
 C1184 C 0.83637 0.56022 0.85866
 C1185 C 0.80139 0.55213 0.86674
 C1186 C 0.78309 0.52814 0.84520
 C1187 C 0.80131 0.51030 0.81867
 C1188 C 0.83630 0.51950 0.81093
 C1189 C 0.78380 0.48361 0.80083
 N1190 N 0.74940 0.47755 0.80685
 N1191 N 0.73153 0.49619 0.82969
 C1192 C 0.74709 0.52140 0.84885
 H1193 H 0.88038 0.55121 0.82590
 H1194 H 0.85134 0.57796 0.87466
 H1195 H 0.79708 0.46774 0.78198
 H1196 H 0.73103 0.53617 0.86634
 C1197 C 0.13434 0.64887 0.51328
 C1198 C 0.10329 0.66389 0.52405
 C1199 C 0.10107 0.69974 0.52785
 C1200 C 0.12922 0.72104 0.51690
 C1201 C 0.16077 0.70583 0.50546
 C1202 C 0.16402 0.66928 0.50601
 C1203 C 0.18830 0.72797 0.49548
 N1204 N 0.18444 0.76278 0.49707
 N1205 N 0.15494 0.77698 0.50814
 C1206 C 0.12722 0.75730 0.51822
 H1207 H 0.13610 0.62091 0.51339
 H1208 H 0.08193 0.64727 0.53242
 H1209 H 0.21255 0.71814 0.48585
 H1210 H 0.10377 0.77009 0.52685
 C1211 C 0.65942 0.15419 1.01814
 C1212 C 0.62839 0.17017 1.02771
 C1213 C 0.62883 0.20272 1.04379
 C1214 C 0.66123 0.22068 1.04716
 C1215 C 0.69282 0.20351 1.03947
 C1216 C 0.69177 0.16995 1.02496
 C1217 C 0.72453 0.22023 1.04767
 N1218 N 0.72447 0.25311 1.05988
 N1219 N 0.69483 0.27012 1.06490
 C1220 C 0.66325 0.25509 1.05890
 H1221 H 0.65823 0.12805 1.00808
 H1222 H 0.60414 0.15580 1.02487
 H1223 H 0.74933 0.20752 1.04444
 H1224 H 0.64002 0.27016 1.06323
 C1225 C 0.83878 0.14106 0.96938
 C1226 C 0.86910 0.15546 0.95574
 C1227 C 0.87245 0.19133 0.94948
 C1228 C 0.84326 0.21276 0.95818
 C1229 C 0.81165 0.19739 0.97075
 C1230 C 0.81013 0.16150 0.97792
 C1231 C 0.78312 0.21889 0.97756
 N1232 N 0.78670 0.25368 0.97497
 N1233 N 0.81706 0.26839 0.96646
 C1234 C 0.84548 0.24928 0.95866
 H1235 H 0.83798 0.11341 0.97417
 H1236 H 0.88954 0.13763 0.94868
 H1237 H 0.75802 0.20846 0.98487
 H1238 H 0.86972 0.26303 0.95414
 C1239 C 0.31108 0.65948 0.45514
 C1240 C 0.34087 0.67330 0.43989
 C1241 C 0.35079 0.70769 0.44589
 C1242 C 0.32997 0.72863 0.46770
 C1243 C 0.29976 0.71422 0.48372
 C1244 C 0.28956 0.67979 0.47609
 C1245 C 0.28137 0.73456 0.50759
 N1246 N 0.29137 0.76783 0.51323
 N1247 N 0.31868 0.78193 0.49687
 C1248 C 0.33831 0.76351 0.47429
 H1249 H 0.30489 0.63239 0.45090
 H1250 H 0.35687 0.65671 0.42391
 H1251 H 0.25950 0.72418 0.52213
 H1252 H 0.36017 0.77629 0.46175
 C1253 C 0.64233 0.84320 0.49662
 C1254 C 0.61164 0.82790 0.48473
 C1255 C 0.61229 0.79646 0.46683
 C1256 C 0.64451 0.77923 0.46234
 C1257 C 0.67582 0.79483 0.47474
 C1258 C 0.67459 0.82705 0.49212
 C1259 C 0.70770 0.77869 0.46726
 N1260 N 0.70796 0.74842 0.44955
 N1261 N 0.67858 0.73354 0.43829
 C1262 C 0.64695 0.74800 0.44380
 H1263 H 0.64109 0.86918 0.50700
 H1264 H 0.58740 0.84188 0.48739
 H1265 H 0.73242 0.79009 0.47487
 H1266 H 0.62418 0.73506 0.43330
 C1267 C 0.16122 0.33831 -0.01902
 C1268 C 0.13076 0.32086 -0.02852
 C1269 C 0.13192 0.28647 -0.03961
 C1270 C 0.16404 0.26862 -0.03870
 C1271 C 0.19501 0.28632 -0.02854
 C1272 C 0.19359 0.32163 -0.01927
 C1273 C 0.22667 0.26835 -0.02943
 N1274 N 0.22702 0.23467 -0.03925
 N1275 N 0.19788 0.21793 -0.04847
 C1276 C 0.16643 0.23377 -0.04864
 H1277 H 0.15982 0.36568 -0.01315
 H1278 H 0.10653 0.33504 -0.02972
 H1279 H 0.25102 0.28083 -0.02247
 H1280 H 0.14356 0.21902 -0.05637
 C1281 C 0.31630 0.30844 0.02816
 C1282 C 0.34612 0.29433 0.04306
 C1283 C 0.36984 0.31523 0.06135
 C1284 C 0.36296 0.35091 0.06553
 C1285 C 0.33262 0.36522 0.05040
 C1286 C 0.30960 0.34382 0.03096
 C1287 C 0.32649 0.40074 0.05493
 N1288 N 0.34955 0.42050 0.07306
 N1289 N 0.37834 0.40716 0.08684
 C1290 C 0.38590 0.37311 0.08363
 H1291 H 0.29914 0.29186 0.01316
 H1292 H 0.35104 0.26697 0.03986
 H1293 H 0.30355 0.41292 0.04440
 H1294 H 0.40981 0.36383 0.09511
 C1295 C 0.82144 0.85472 0.55186
 C1296 C 0.84972 0.83981 0.56836
 C1297 C 0.84890 0.80498 0.57828
 C1298 C 0.81775 0.78540 0.57317
 C1299 C 0.78913 0.80031 0.55511
 C1300 C 0.79142 0.83524 0.54365
 C1301 C 0.75968 0.77928 0.54867
 N1302 N 0.75832 0.74640 0.56098
 N1303 N 0.78448 0.73300 0.57917
 C1304 C 0.81406 0.75139 0.58579
 H1305 H 0.82355 0.88171 0.54437
 H1306 H 0.87302 0.85546 0.57230
 H1307 H 0.73763 0.78844 0.53421
 H1308 H 0.83417 0.73935 0.60121
   
