data_POSCAR
  _audit_creation_date              2014-09-24
  _audit_creation_method            'ToBaCCo'
  _symmetry_space_group_name_H-M    'P1'
  _symmetry_Int_Tables_number       1
  _symmetry_cell_setting            triclinic
  loop_
  _symmetry_equiv_pos_as_xyz
 x,y,z
_cell_length_a 49.0694
_cell_length_b 53.9597
_cell_length_c 51.0007
_cell_angle_alpha 89.987400
_cell_angle_beta 90.058600
_cell_angle_gamma 90.042200
loop_
  _atom_site_label
  _atom_site_type_symbol
  _atom_site_fract_x
  _atom_site_fract_y
  _atom_site_fract_z
C1 C 1.21170 0.25880 0.29243
 H2 H 1.21087 0.23876 0.29251
 C3 C 1.19590 0.27233 0.31013
 H4 H 1.18300 0.26256 0.32390
 C5 C 1.23017 0.29580 0.27481
 H6 H 1.24379 0.30493 0.26130
 C7 C 1.21481 0.31004 0.29219
 H8 H 1.21638 0.33004 0.29139
 N9 N 1.22810 0.27067 0.27498
 C10 C 1.23858 0.21839 0.21040
 H11 H 1.26058 0.21796 0.20905
 C12 C 1.22284 0.20407 0.19332
 H13 H 1.23293 0.19238 0.17908
 C14 C 1.19884 0.23392 0.23097
 H15 H 1.18951 0.24587 0.24536
 C16 C 1.18232 0.21991 0.21429
 H17 H 1.16039 0.22125 0.21610
 Zn18 Zn 1.24925 0.25121 0.25175
 N19 N 1.22645 0.23260 0.22906
 C20 C 1.26957 0.20493 0.26997
 N21 N 1.27101 0.22991 0.27260
 C22 C 1.28724 0.24041 0.29106
 C23 C 1.30341 0.22572 0.30738
 C24 C 1.28538 0.18946 0.28580
 C25 C 1.25852 0.28738 0.21355
 C26 C 1.27353 0.30370 0.19798
 C27 C 1.31484 0.28734 0.21710
 C28 C 1.29902 0.27132 0.23231
 N29 N 1.27136 0.27193 0.23062
 H30 H 1.25577 0.19682 0.25587
 H31 H 1.28783 0.26038 0.29292
 H32 H 1.31687 0.23543 0.32062
 H33 H 1.28223 0.16979 0.28343
 H34 H 1.23650 0.28729 0.21240
 H35 H 1.26286 0.31631 0.18505
 H36 H 1.33682 0.28658 0.21870
 H37 H 1.30891 0.25849 0.24547
 C38 C 1.19429 0.20456 0.19528
 C39 C 1.19731 0.29832 0.31010
 C40 C 1.30209 0.30398 0.19981
 C41 C 1.30304 0.19951 0.30513
 C42 C 0.71610 -0.24075 0.29318
 H43 H 0.71909 -0.26018 0.29743
 C44 C 0.70019 -0.22636 0.30999
 H45 H 0.69081 -0.23497 0.32690
 C46 C 0.72624 -0.20563 0.26711
 H47 H 0.73667 -0.19742 0.25067
 C48 C 0.71054 -0.19055 0.28341
 H49 H 0.70868 -0.17102 0.27890
 N50 N 0.72845 -0.23034 0.27199
 C51 C 0.73339 -0.27561 0.20410
 H52 H 0.75009 -0.26574 0.19510
 C53 C 0.71786 -0.29195 0.18900
 H54 H 0.72275 -0.29433 0.16845
 C55 C 0.70776 -0.28563 0.24197
 H56 H 0.70404 -0.28339 0.26266
 C57 C 0.69176 -0.30219 0.22761
 H58 H 0.67553 -0.31214 0.23740
 Zn59 Zn 0.75035 -0.25108 0.25043
 N60 N 0.72804 -0.27261 0.23009
 C61 C 0.77478 -0.29516 0.26863
 N62 N 0.77272 -0.27033 0.27263
 C63 C 0.78631 -0.25895 0.29251
 C64 C 0.80290 -0.27269 0.30936
 C65 C 0.79117 -0.30959 0.28496
 C66 C 0.76041 -0.21749 0.20901
 C67 C 0.77614 -0.20294 0.19216
 C68 C 0.81662 -0.21806 0.21385
 C69 C 0.80013 -0.23233 0.23026
 N70 N 0.77253 -0.23163 0.22779
 H71 H 0.76379 -0.30381 0.25269
 H72 H 0.78427 -0.23915 0.29521
 H73 H 0.81384 -0.26329 0.32490
 H74 H 0.79233 -0.32938 0.28164
 H75 H 0.73845 -0.21748 0.20718
 H76 H 0.76604 -0.19145 0.17772
 H77 H 0.83854 -0.21900 0.21605
 H78 H 0.80946 -0.24399 0.24495
 C79 C 0.69672 -0.30552 0.20074
 C80 C 0.69719 -0.20089 0.30517
 C81 C 0.80465 -0.20300 0.19455
 C82 C 0.80553 -0.29837 0.30564
 C83 C 0.71320 0.26315 -0.21329
 H84 H 0.71143 0.24329 -0.21092
 C85 C 0.69744 0.27901 -0.19787
 H86 H 0.68367 0.27119 -0.18349
 C87 C 0.73391 0.29740 -0.23445
 H88 H 0.74835 0.30456 -0.24850
 C89 C 0.71860 0.31392 -0.21943
 H90 H 0.72107 0.33364 -0.22254
 N91 N 0.73070 0.27252 -0.23143
 C92 C 0.74063 0.21471 -0.29048
 H93 H 0.76264 0.21379 -0.29122
 C94 C 0.72503 0.19983 -0.30709
 H95 H 0.73523 0.18758 -0.32072
 C96 C 0.70075 0.23246 -0.27229
 H97 H 0.69135 0.24540 -0.25894
 C98 C 0.68434 0.21792 -0.28860
 H99 H 0.66240 0.21950 -0.28718
 Zn100 Zn 0.75140 0.25003 -0.25188
 N101 N 0.72836 0.23037 -0.27327
 C102 C 0.76885 0.20464 -0.22919
 N103 N 0.77173 0.22970 -0.22866
 C104 C 0.78878 0.24086 -0.21122
 C105 C 0.80451 0.22663 -0.19403
 C106 C 0.78419 0.18972 -0.21238
 C107 C 0.76304 0.28148 -0.29373
 C108 C 0.77891 0.29518 -0.31119
 C109 C 0.81916 0.27943 -0.28971
 C110 C 0.80240 0.26602 -0.27272
 N111 N 0.77489 0.26762 -0.27470
 H112 H 0.75464 0.19610 -0.24260
 H113 H 0.79040 0.26085 -0.21094
 H114 H 0.81847 0.23583 -0.18076
 H115 H 0.78153 0.16981 -0.21308
 H116 H 0.74104 0.28226 -0.29501
 H117 H 0.76800 0.30692 -0.32474
 H118 H 0.84083 0.27653 -0.28770
 H119 H 0.81151 0.25414 -0.25810
 C120 C 0.69646 0.20123 -0.30621
 C121 C 0.69994 0.30479 -0.20093
 C122 C 0.80777 0.29478 -0.30948
 C123 C 0.80251 0.20066 -0.19464
 C124 C 1.21209 -0.23976 -0.20858
 H125 H 1.21082 -0.25976 -0.20766
 C126 C 1.19669 -0.22537 -0.19134
 H127 H 1.18370 -0.23446 -0.17714
 C128 C 1.23121 -0.20373 -0.22771
 H129 H 1.24475 -0.19532 -0.24184
 C130 C 1.21620 -0.18863 -0.21083
 H131 H 1.21807 -0.16870 -0.21247
 N132 N 1.22872 -0.22881 -0.22652
 C133 C 1.23590 -0.27804 -0.29392
 H134 H 1.25741 -0.27611 -0.29797
 C135 C 1.21951 -0.29167 -0.31104
 H136 H 1.22880 -0.30080 -0.32768
 C137 C 1.19768 -0.26807 -0.26767
 H138 H 1.18904 -0.25853 -0.25109
 C139 C 1.18054 -0.28153 -0.28427
 H140 H 1.15891 -0.28218 -0.28013
 Zn141 Zn 1.24893 -0.24919 -0.24994
 N142 N 1.22496 -0.26699 -0.27240
 C143 C 1.28387 -0.29047 -0.24311
 N144 N 1.27082 -0.27175 -0.23040
 C145 C 1.27340 -0.26885 -0.20401
 C146 C 1.28898 -0.28547 -0.18932
 C147 C 1.29969 -0.30748 -0.22919
 C148 C 1.25945 -0.21526 -0.29022
 C149 C 1.27525 -0.20067 -0.30693
 C150 C 1.31560 -0.21527 -0.28455
 C151 C 1.29901 -0.22961 -0.26827
 N152 N 1.27149 -0.22931 -0.27135
 H153 H 1.28203 -0.29232 -0.26408
 H154 H 1.26361 -0.25349 -0.19426
 H155 H 1.29092 -0.28270 -0.16837
 H156 H 1.30945 -0.32250 -0.23965
 H157 H 1.23750 -0.21544 -0.29224
 H158 H 1.26525 -0.18936 -0.32159
 H159 H 1.33750 -0.21596 -0.28200
 H160 H 1.30813 -0.24098 -0.25318
 C161 C 1.19146 -0.29376 -0.30615
 C162 C 1.19853 -0.19942 -0.19241
 C163 C 1.30375 -0.20056 -0.30422
 C164 C 1.30226 -0.30520 -0.20188
 C165 C 0.25875 0.21528 0.70840
 H166 H 0.23685 0.21613 0.70617
 C167 C 0.27418 0.20041 0.69169
 H168 H 0.26398 0.18996 0.67644
 C169 C 0.29863 0.22849 0.73067
 H170 H 0.30799 0.23943 0.74599
 C171 C 0.31485 0.21387 0.71436
 H172 H 0.33668 0.21351 0.71745
 N173 N 0.27112 0.22888 0.72744
 C174 C 0.21157 0.24000 0.78985
 H175 H 0.21057 0.26000 0.79084
 C176 C 0.19575 0.22572 0.80688
 H177 H 0.18214 0.23541 0.81997
 C178 C 0.22998 0.20393 0.77049
 H179 H 0.24371 0.19545 0.75660
 C180 C 0.21451 0.18889 0.78705
 H181 H 0.21751 0.16910 0.78568
 Zn182 Zn 0.24899 0.24911 0.74883
 N183 N 0.22805 0.22899 0.77191
 C184 C 0.19860 0.26974 0.73094
 N185 N 0.22581 0.26759 0.72629
 C186 C 0.23736 0.27811 0.70475
 C187 C 0.22171 0.29226 0.68751
 C188 C 0.18218 0.28376 0.71419
 C189 C 0.27340 0.26828 0.79504
 C190 C 0.28912 0.28470 0.80986
 C191 C 0.30097 0.30630 0.77001
 C192 C 0.28500 0.28949 0.75596
 N193 N 0.27130 0.27110 0.76860
 H194 H 0.18949 0.26077 0.74765
 H195 H 0.25875 0.27526 0.70074
 H196 H 0.23133 0.30040 0.67046
 H197 H 0.16072 0.28579 0.71864
 H198 H 0.26306 0.25317 0.80473
 H199 H 0.29063 0.28204 0.83085
 H200 H 0.31123 0.32110 0.75960
 H201 H 0.28350 0.29127 0.73496
 C202 C 0.19673 0.19956 0.80568
 C203 C 0.30264 0.19956 0.69455
 C204 C 0.30302 0.30414 0.79736
 C205 C 0.19377 0.29546 0.69228
 C206 C 0.76118 0.72094 0.70568
 H207 H 0.73946 0.72292 0.70270
 C208 C 0.77663 0.70691 0.68819
 H209 H 0.76665 0.69832 0.67157
 C210 C 0.80051 0.73007 0.73094
 H211 H 0.80961 0.73895 0.74782
 C212 C 0.81675 0.71620 0.71393
 H213 H 0.83831 0.71436 0.71799
 N214 N 0.77325 0.73201 0.72663
 C215 C 0.71218 0.73643 0.78840
 H216 H 0.71079 0.75620 0.79164
 C217 C 0.69630 0.72026 0.80335
 H218 H 0.68221 0.72836 0.81717
 C219 C 0.73170 0.70280 0.76545
 H220 H 0.74591 0.69597 0.75101
 C221 C 0.71619 0.68594 0.77987
 H222 H 0.71962 0.66645 0.77632
 Zn223 Zn 0.75084 0.75008 0.74980
 N224 N 0.72933 0.72755 0.76973
 C225 C 0.70075 0.77183 0.73263
 N226 N 0.72822 0.77096 0.72905
 C227 C 0.74031 0.78399 0.70940
 C228 C 0.72484 0.79913 0.69293
 C229 C 0.68449 0.78675 0.71660
 C230 C 0.77420 0.76375 0.79870
 C231 C 0.79036 0.77779 0.81571
 C232 C 0.80435 0.80291 0.77894
 C233 C 0.78791 0.78843 0.76265
 N234 N 0.77301 0.76940 0.77270
 H235 H 0.69124 0.76090 0.74777
 H236 H 0.76194 0.78215 0.70602
 H237 H 0.73488 0.80906 0.67721
 H238 H 0.66275 0.78748 0.72006
 H239 H 0.76291 0.74816 0.80631
 H240 H 0.79118 0.77284 0.83627
 H241 H 0.81564 0.81822 0.77055
 H242 H 0.78715 0.79243 0.74195
 C243 C 0.69792 0.69438 0.79931
 C244 C 0.80478 0.70425 0.69230
 C245 C 0.80565 0.79773 0.80589
 C246 C 0.69654 0.80071 0.69646
 C247 C 0.75921 0.21811 0.20960
 H248 H 0.73718 0.21835 0.20858
 C249 C 0.77408 0.20348 0.19215
 H250 H 0.76332 0.19260 0.17760
 C251 C 0.79991 0.23251 0.22946
 H252 H 0.80995 0.24402 0.24384
 C253 C 0.81558 0.21818 0.21238
 H254 H 0.83755 0.21846 0.21424
 N255 N 0.77223 0.23192 0.22807
 C256 C 0.71358 0.24111 0.29165
 H257 H 0.71381 0.26106 0.29376
 C258 C 0.69729 0.22672 0.30816
 H259 H 0.68474 0.23578 0.32273
 C260 C 0.72955 0.20517 0.26988
 H261 H 0.74249 0.19678 0.25527
 C262 C 0.71357 0.19008 0.28594
 H263 H 0.71443 0.17017 0.28346
 Zn264 Zn 0.75057 0.25104 0.25121
 N265 N 0.72898 0.23023 0.27273
 C266 C 0.70063 0.27182 0.23306
 N267 N 0.72822 0.27192 0.23048
 C268 C 0.74077 0.28688 0.21275
 C269 C 0.72556 0.30325 0.19742
 C270 C 0.68463 0.28788 0.21809
 C271 C 0.78931 0.25842 0.29100
 C272 C 0.80616 0.27190 0.30789
 C273 C 0.78823 0.30970 0.28927
 C274 C 0.77173 0.29552 0.27279
 N275 N 0.77287 0.27035 0.27362
 H276 H 0.69095 0.25945 0.24684
 H277 H 0.76271 0.28628 0.21079
 H278 H 0.73595 0.31504 0.18345
 H279 H 0.66276 0.28795 0.22089
 H280 H 0.78949 0.23837 0.29154
 H281 H 0.81954 0.26208 0.32120
 H282 H 0.78692 0.32971 0.28838
 H283 H 0.75794 0.30472 0.25948
 C284 C 0.69702 0.20084 0.30530
 C285 C 0.80267 0.20325 0.19353
 C286 C 0.80590 0.29791 0.30698
 C287 C 0.69710 0.30404 0.20014
 C288 C 0.25883 0.71287 0.21188
 H289 H 0.23684 0.71332 0.21026
 C290 C 0.27387 0.69646 0.19647
 H291 H 0.26331 0.68449 0.18279
 C292 C 0.29922 0.72836 0.23142
 H293 H 0.30906 0.74090 0.24493
 C294 C 0.31507 0.71227 0.21635
 H295 H 0.33699 0.71236 0.21882
 N296 N 0.27158 0.72808 0.22926
 C297 C 0.21125 0.74158 0.29040
 H298 H 0.21071 0.76162 0.29060
 C299 C 0.19518 0.72811 0.30796
 H300 H 0.18235 0.73794 0.32173
 C301 C 0.22934 0.70448 0.27272
 H302 H 0.24295 0.69529 0.25925
 C303 C 0.21370 0.69031 0.28995
 H304 H 0.21504 0.67030 0.28909
 Zn305 Zn 0.24944 0.74897 0.25017
 N306 N 0.22764 0.72963 0.27302
 C307 C 0.19967 0.76738 0.22892
 N308 N 0.22733 0.76799 0.22723
 C309 C 0.24009 0.78192 0.20870
 C310 C 0.22497 0.79667 0.19153
 C311 C 0.18376 0.78183 0.21211
 C312 C 0.28694 0.75926 0.29014
 C313 C 0.30308 0.77375 0.30670
 C314 C 0.28601 0.81022 0.28482
 C315 C 0.27022 0.79495 0.26876
 N316 N 0.27121 0.76995 0.27142
 H317 H 0.18984 0.75579 0.24335
 H318 H 0.26209 0.78170 0.20746
 H319 H 0.23553 0.80764 0.17695
 H320 H 0.16181 0.78156 0.21422
 H321 H 0.28717 0.73928 0.29202
 H322 H 0.31615 0.76389 0.32015
 H323 H 0.28322 0.82993 0.28239
 H324 H 0.25680 0.80323 0.25444
 C325 C 0.19629 0.70211 0.30786
 C326 C 0.30239 0.69587 0.19876
 C327 C 0.30320 0.79997 0.30442
 C328 C 0.19640 0.79692 0.19324
 N329 N 1.04765 0.02722 0.02976
 N330 N 1.06586 0.04462 0.03470
 N331 N 1.02922 -0.02506 0.04791
 N332 N 1.03430 -0.04235 0.06557
 N333 N 1.04820 -0.02488 0.02979
 N334 N 1.06670 -0.04204 0.03464
 N335 N 1.02865 0.02704 0.04787
 N336 N 1.03343 0.04433 0.06560
 C337 C 1.05661 0.05530 0.05702
 C338 C 1.05765 -0.05294 0.05693
 N339 N 0.95157 -0.02580 0.02937
 N340 N 0.93335 -0.04323 0.03417
 N341 N 0.96988 0.02648 0.04759
 N342 N 0.96468 0.04377 0.06519
 N343 N 0.95102 0.02628 0.02932
 N344 N 0.93248 0.04343 0.03400
 N345 N 0.97045 -0.02561 0.04763
 N346 N 0.96558 -0.04289 0.06533
 Mn347 Mn 0.99955 0.00071 0.04802
 C348 C 0.94248 -0.05389 0.05658
 C349 C 0.94138 0.05434 0.05635
 N350 N 1.04841 -0.02489 -0.02675
 N351 N 1.06709 -0.04187 -0.03158
 N352 N 1.02896 0.02699 -0.04504
 N353 N 1.03395 0.04416 -0.06284
 N354 N 1.04784 0.02719 -0.02678
 N355 N 1.06617 0.04449 -0.03169
 N356 N 1.02954 -0.02509 -0.04502
 N357 N 1.03488 -0.04221 -0.06276
 Mn358 Mn 1.04830 0.00116 0.00151
 C359 C 1.05826 -0.05269 -0.05400
 C360 C 1.05711 0.05509 -0.05414
 N361 N 0.95120 0.02627 -0.02724
 N362 N 0.93266 0.04337 -0.03219
 N363 N 0.97078 -0.02566 -0.04528
 N364 N 0.96603 -0.04293 -0.06302
 N365 N 0.95176 -0.02584 -0.02720
 N366 N 0.93356 -0.04324 -0.03217
 N367 N 0.97022 0.02644 -0.04532
 N368 N 0.96514 0.04367 -0.06304
 Mn369 Mn 0.95110 0.00022 0.00106
 Mn370 Mn 0.99988 0.00067 -0.04542
 Cl371 Cl 0.99971 0.00069 0.00129
 C372 C 0.94174 0.05423 -0.05449
 C373 C 0.94285 -0.05391 -0.05448
 N374 N 1.04776 0.52692 0.52970
 N375 N 1.06556 0.54475 0.53434
 N376 N 1.02912 0.47469 0.54778
 N377 N 1.03361 0.45695 0.56506
 N378 N 1.04822 0.47483 0.52978
 N379 N 1.06623 0.45719 0.53433
 N380 N 1.02866 0.52676 0.54770
 N381 N 1.03292 0.54447 0.56506
 C382 C 1.05593 0.55566 0.55639
 C383 C 1.05676 0.44608 0.55633
 N384 N 0.95164 0.47404 0.52898
 N385 N 0.93375 0.45623 0.53338
 N386 N 0.97002 0.52629 0.54719
 N387 N 0.96518 0.54393 0.56446
 N388 N 0.95121 0.52615 0.52887
 N389 N 0.93303 0.54369 0.53320
 N390 N 0.97046 0.47421 0.54729
 N391 N 0.96590 0.45654 0.56463
 Mn392 Mn 0.99956 0.50049 0.54777
 C393 C 0.94301 0.44536 0.55562
 C394 C 0.94212 0.55476 0.55541
 N395 N 1.04874 0.47474 0.47333
 N396 N 1.06696 0.45722 0.46907
 N397 N 1.02950 0.52663 0.45484
 N398 N 1.03424 0.54416 0.43738
 N399 N 1.04827 0.52683 0.47321
 N400 N 1.06628 0.54451 0.46873
 N401 N 1.02996 0.47453 0.45499
 N402 N 1.03489 0.45687 0.43775
 Mn403 Mn 1.04855 0.50084 0.50151
 C404 C 1.05796 0.44610 0.44687
 C405 C 1.05716 0.55530 0.44640
 N406 N 0.95170 0.52604 0.47234
 N407 N 0.93354 0.54352 0.46757
 N408 N 0.97126 0.47406 0.45449
 N409 N 0.96698 0.45632 0.43716
 N410 N 0.95215 0.47395 0.47248
 N411 N 0.93433 0.45614 0.46787
 N412 N 0.97082 0.52614 0.45435
 N413 N 0.96620 0.54368 0.43688
 Mn414 Mn 0.95136 0.50005 0.50066
 Mn415 Mn 1.00038 0.50034 0.45438
 Cl416 Cl 0.99996 0.50043 0.50108
 C417 C 0.94297 0.55449 0.44547
 C418 C 0.94395 0.44517 0.44585
 N419 N 0.54775 0.02603 0.52744
 N420 N 0.56614 0.04328 0.53238
 N421 N 0.52893 -0.02603 0.54582
 N422 N 0.53402 -0.04304 0.56376
 N423 N 0.54794 -0.02606 0.52773
 N424 N 0.56649 -0.04309 0.53290
 N425 N 0.52874 0.02604 0.54554
 N426 N 0.53369 0.04330 0.56325
 C427 C 0.55697 0.05407 0.55468
 C428 C 0.55740 -0.05370 0.55534
 N429 N 0.45127 -0.02644 0.52749
 N430 N 0.43289 -0.04368 0.53253
 N431 N 0.47005 0.02580 0.54537
 N432 N 0.46499 0.04306 0.56302
 N433 N 0.45107 0.02565 0.52720
 N434 N 0.43258 0.04281 0.53204
 N435 N 0.47023 -0.02626 0.54566
 N436 N 0.46529 -0.04336 0.56353
 Mn437 Mn 0.49948 -0.00011 0.54585
 C438 C 0.44204 -0.05424 0.55499
 C439 C 0.44167 0.05368 0.55435
 N440 N 0.54800 -0.02632 0.47116
 N441 N 0.56648 -0.04349 0.46639
 N442 N 0.52889 0.02562 0.45268
 N443 N 0.53383 0.04283 0.43491
 N444 N 0.54781 0.02577 0.47090
 N445 N 0.56614 0.04307 0.46600
 N446 N 0.52908 -0.02646 0.45295
 N447 N 0.53417 -0.04374 0.43532
 Mn448 Mn 0.54816 -0.00015 0.49930
 C449 C 0.55746 -0.05437 0.44407
 C450 C 0.55703 0.05372 0.44358
 N451 N 0.45114 0.02540 0.47063
 N452 N 0.43263 0.04250 0.46556
 N453 N 0.47033 -0.02669 0.45278
 N454 N 0.46530 -0.04385 0.43499
 N455 N 0.45133 -0.02669 0.47089
 N456 N 0.43287 -0.04387 0.46588
 N457 N 0.47013 0.02540 0.45252
 N458 N 0.46507 0.04249 0.43466
 Mn459 Mn 0.45091 -0.00053 0.49905
 Mn460 Mn 0.49961 -0.00053 0.45247
 Cl461 Cl 0.49954 -0.00033 0.49917
 C462 C 0.44172 0.05317 0.44316
 C463 C 0.44198 -0.05459 0.44353
 N464 N 0.47041 0.45558 0.02633
 N465 N 0.46497 0.43831 0.04387
 N466 N 0.45149 0.47262 -0.02881
 N467 N 0.43278 0.46750 -0.04664
 N468 N 0.47056 0.45557 -0.02874
 N469 N 0.46538 0.43845 -0.04652
 N470 N 0.45134 0.47264 0.02628
 N471 N 0.43238 0.46736 0.04379
 C472 C 0.44134 0.44601 0.05484
 C473 C 0.44188 0.44624 -0.05774
 N474 N 0.47059 0.54320 -0.02884
 N475 N 0.46533 0.56036 -0.04657
 N476 N 0.45135 0.52622 0.02622
 N477 N 0.43235 0.53159 0.04366
 N478 N 0.47045 0.54328 0.02623
 N479 N 0.46501 0.56061 0.04367
 N480 N 0.45150 0.52614 -0.02887
 N481 N 0.43272 0.53128 -0.04662
 Mn482 Mn 0.45114 0.49940 -0.00129
 C483 C 0.44179 0.55257 -0.05772
 C484 C 0.44134 0.55297 0.05463
 N485 N 0.52926 0.45553 -0.02855
 N486 N 0.53480 0.43815 -0.04593
 N487 N 0.54818 0.47265 0.02658
 N488 N 0.56702 0.46741 0.04425
 N489 N 0.52909 0.45559 0.02652
 N490 N 0.53438 0.43836 0.04414
 N491 N 0.54835 0.47259 -0.02851
 N492 N 0.56742 0.46721 -0.04587
 Mn493 Mn 0.49982 0.45537 -0.00111
 C494 C 0.55851 0.44580 -0.05682
 C495 C 0.55795 0.44609 0.05527
 N496 N 0.52913 0.54325 0.02642
 N497 N 0.53433 0.56040 0.04415
 N498 N 0.54835 0.52616 -0.02858
 N499 N 0.56728 0.53140 -0.04613
 N500 N 0.52927 0.54320 -0.02865
 N501 N 0.53467 0.56043 -0.04625
 N502 N 0.54819 0.52619 0.02652
 N503 N 0.56692 0.53135 0.04432
 Mn504 Mn 0.49986 0.54343 -0.00121
 Mn505 Mn 0.54855 0.49940 -0.00100
 Cl506 Cl 0.49984 0.49940 -0.00115
 C507 C 0.55783 0.55263 0.05538
 C508 C 0.55829 0.55271 -0.05722
 C509 C 1.14513 0.15829 0.14537
 C510 C 1.16799 0.17044 0.13516
 C511 C 1.18388 0.18565 0.15130
 C512 C 1.17711 0.18889 0.17789
 C513 C 1.15396 0.17672 0.18789
 C514 C 1.13812 0.16152 0.17173
 C515 C 1.12924 0.14198 0.12904
 C516 C 1.11602 0.12796 0.11571
 C517 C 1.10039 0.11075 0.10021
 C518 C 1.11059 0.10211 0.07628
 C519 C 1.09606 0.08440 0.06191
 C520 C 1.07118 0.07508 0.07138
 C521 C 1.06083 0.08420 0.09519
 C522 C 1.07538 0.10191 0.10952
 H523 H 1.17360 0.16807 0.11478
 H524 H 1.20136 0.19500 0.14293
 H525 H 1.14841 0.17853 0.20834
 H526 H 1.12056 0.15209 0.17987
 H527 H 1.12994 0.10880 0.06891
 H528 H 1.10451 0.07773 0.04362
 H529 H 1.04171 0.07737 0.10295
 H530 H 1.06731 0.10843 0.12804
 C531 C 1.14156 0.66091 0.64382
 C532 C 1.16163 0.67618 0.63291
 C533 C 1.17766 0.69119 0.64911
 C534 C 1.17380 0.69109 0.67646
 C535 C 1.15333 0.67589 0.68717
 C536 C 1.13735 0.66090 0.67094
 C537 C 1.12592 0.64457 0.62738
 C538 C 1.11300 0.63038 0.61402
 C539 C 1.09783 0.61283 0.59860
 C540 C 1.10856 0.60387 0.57502
 C541 C 1.09462 0.58560 0.56092
 C542 C 1.06983 0.57605 0.57033
 C543 C 1.05892 0.58552 0.59375
 C544 C 1.07287 0.60378 0.60781
 H545 H 1.16506 0.67632 0.61193
 H546 H 1.19301 0.70293 0.64025
 H547 H 1.15011 0.67513 0.70816
 H548 H 1.12197 0.64903 0.67960
 H549 H 1.12790 0.61070 0.56776
 H550 H 1.10348 0.57865 0.54292
 H551 H 1.03984 0.57853 0.60144
 H552 H 1.06443 0.61055 0.62607
 C553 C 0.64736 0.15489 0.64391
 C554 C 0.63984 0.17956 0.64833
 C555 C 0.65578 0.19467 0.66453
 C556 C 0.67948 0.18529 0.67652
 C557 C 0.68685 0.16047 0.67191
 C558 C 0.67089 0.14540 0.65573
 C559 C 0.63089 0.13915 0.62751
 C560 C 0.61732 0.12555 0.61402
 C561 C 0.60140 0.10877 0.59829
 C562 C 0.57616 0.10029 0.60739
 C563 C 0.56139 0.08286 0.59290
 C564 C 0.57175 0.07366 0.56912
 C565 C 0.59685 0.08265 0.55983
 C566 C 0.61160 0.10008 0.57437
 H567 H 0.62169 0.18710 0.63925
 H568 H 0.64975 0.21377 0.66742
 H569 H 0.70473 0.15258 0.68114
 H570 H 0.67683 0.12630 0.65255
 H571 H 0.56810 0.10686 0.62590
 H572 H 0.54210 0.07629 0.60051
 H573 H 0.60531 0.07589 0.54158
 H574 H 0.63114 0.10648 0.56717
 C575 C 0.64890 0.64328 0.15530
 C576 C 0.65646 0.66618 0.14466
 C577 C 0.67198 0.68283 0.15942
 C578 C 0.68014 0.67681 0.18510
 C579 C 0.67240 0.65374 0.19564
 C580 C 0.65689 0.63709 0.18082
 C581 C 0.63291 0.62626 0.13995
 C582 C 0.61945 0.61240 0.12666
 C583 C 0.60331 0.59645 0.11021
 C584 C 0.57742 0.60410 0.10206
 C585 C 0.56233 0.58949 0.08470
 C586 C 0.57299 0.56704 0.07524
 C587 C 0.59875 0.55917 0.08400
 C588 C 0.61384 0.57384 0.10136
 H589 H 0.65030 0.67119 0.12495
 H590 H 0.67730 0.70056 0.15088
 H591 H 0.67867 0.64842 0.21521
 H592 H 0.65120 0.61939 0.18922
 H593 H 0.56909 0.62159 0.10875
 H594 H 0.54253 0.59601 0.07832
 H595 H 0.60746 0.54196 0.07702
 H596 H 0.63390 0.56777 0.10752
 C597 C 0.85374 -0.15667 0.14476
 C598 C 0.83122 -0.16923 0.13439
 C599 C 0.81534 -0.18444 0.15051
 C600 C 0.82179 -0.18726 0.17724
 C601 C 0.84459 -0.17467 0.18741
 C602 C 0.86042 -0.15947 0.17127
 C603 C 0.86964 -0.14041 0.12843
 C604 C 0.88288 -0.12643 0.11510
 C605 C 0.89856 -0.10928 0.09962
 C606 C 0.88842 -0.10065 0.07563
 C607 C 0.90299 -0.08296 0.06130
 C608 C 0.92786 -0.07367 0.07086
 C609 C 0.93816 -0.08278 0.09472
 C610 C 0.92356 -0.10046 0.10901
 H611 H 0.82588 -0.16720 0.11389
 H612 H 0.79813 -0.19413 0.14201
 H613 H 0.84987 -0.17617 0.20797
 H614 H 0.87773 -0.14972 0.17954
 H615 H 0.86906 -0.10732 0.06820
 H616 H 0.89458 -0.07628 0.04298
 H617 H 0.95727 -0.07597 0.10255
 H618 H 0.93158 -0.10698 0.12757
 C619 C 0.85631 0.33931 0.64110
 C620 C 0.82958 0.33364 0.63405
 C621 C 0.81355 0.31860 0.65016
 C622 C 0.82381 0.30877 0.67408
 C623 C 0.85134 0.31449 0.68039
 C624 C 0.86720 0.32957 0.66416
 C625 C 0.87222 0.35591 0.62518
 C626 C 0.88528 0.37029 0.61218
 C627 C 0.90059 0.38802 0.59711
 C628 C 0.89021 0.39701 0.57337
 C629 C 0.90429 0.41536 0.55953
 C630 C 0.92891 0.42496 0.56936
 C631 C 0.93946 0.41549 0.59296
 C632 C 0.92535 0.39715 0.60675
 H633 H 0.82102 0.34090 0.61602
 H634 H 0.79347 0.31417 0.64285
 H635 H 0.86068 0.30882 0.69860
 H636 H 0.88787 0.33409 0.66996
 H637 H 0.87102 0.39012 0.56577
 H638 H 0.89571 0.42230 0.54140
 H639 H 0.95840 0.42252 0.60097
 H640 H 0.93354 0.39036 0.62514
 C641 C 0.35300 -0.15512 0.64525
 C642 C 0.33065 -0.16803 0.63503
 C643 C 0.31471 -0.18293 0.65141
 C644 C 0.32095 -0.18511 0.67826
 C645 C 0.34359 -0.17218 0.68829
 C646 C 0.35948 -0.15729 0.67188
 C647 C 0.36893 -0.13920 0.62860
 C648 C 0.38218 -0.12551 0.61494
 C649 C 0.39789 -0.10871 0.59907
 C650 C 0.38755 -0.10018 0.57512
 C651 C 0.40219 -0.08280 0.56043
 C652 C 0.42732 -0.07373 0.56959
 C653 C 0.43780 -0.08277 0.59341
 C654 C 0.42315 -0.10013 0.60806
 H655 H 0.32546 -0.16650 0.61444
 H656 H 0.29765 -0.19290 0.64302
 H657 H 0.34871 -0.17321 0.70891
 H658 H 0.37667 -0.14727 0.68002
 H659 H 0.36800 -0.10667 0.56801
 H660 H 0.39364 -0.07617 0.54214
 H661 H 0.45712 -0.07613 0.60094
 H662 H 0.43132 -0.10659 0.62659
 C663 C 0.34936 0.35526 0.15396
 C664 C 0.32670 0.34345 0.14289
 C665 C 0.31133 0.32677 0.15776
 C666 C 0.31846 0.32163 0.18393
 C667 C 0.34128 0.33361 0.19488
 C668 C 0.35661 0.35031 0.17997
 C669 C 0.36541 0.37208 0.13843
 C670 C 0.37893 0.38587 0.12513
 C671 C 0.39518 0.40182 0.10878
 C672 C 0.38474 0.42447 0.09991
 C673 C 0.40003 0.43924 0.08282
 C674 C 0.42591 0.43145 0.07436
 C675 C 0.43646 0.40893 0.08382
 C676 C 0.42117 0.39421 0.10090
 H677 H 0.32099 0.34705 0.12272
 H678 H 0.29410 0.31762 0.14866
 H679 H 0.34708 0.33032 0.21507
 H680 H 0.37412 0.35934 0.18874
 H681 H 0.36463 0.43051 0.10587
 H682 H 0.39141 0.45650 0.07584
 H683 H 0.45633 0.40246 0.07766
 H684 H 0.42944 0.37671 0.10762
 C685 C 0.85162 0.15498 -0.14408
 C686 C 0.84705 0.14802 -0.17014
 C687 C 0.83116 0.16289 -0.18656
 C688 C 0.81956 0.18501 -0.17714
 C689 C 0.82438 0.19195 -0.15093
 C690 C 0.84029 0.17700 -0.13451
 C691 C 0.86772 0.13932 -0.12726
 C692 C 0.88116 0.12573 -0.11363
 C693 C 0.89710 0.10894 -0.09792
 C694 C 0.92237 0.10060 -0.10704
 C695 C 0.93719 0.08315 -0.09261
 C696 C 0.92686 0.07379 -0.06889
 C697 C 0.90170 0.08262 -0.05959
 C698 C 0.88690 0.10007 -0.07406
 H699 H 0.85578 0.13105 -0.17779
 H700 H 0.82820 0.15722 -0.20672
 H701 H 0.81551 0.20871 -0.14301
 H702 H 0.84362 0.18254 -0.11434
 H703 H 0.93044 0.10728 -0.12550
 H704 H 0.95652 0.07671 -0.10024
 H705 H 0.89325 0.07574 -0.04138
 H706 H 0.86733 0.10635 -0.06684
 C707 C 0.85540 0.65705 0.35638
 C708 C 0.85541 0.65285 0.32932
 C709 C 0.83939 0.66749 0.31280
 C710 C 0.82310 0.68656 0.32316
 C711 C 0.82345 0.69084 0.35038
 C712 C 0.83949 0.67613 0.36689
 C713 C 0.87122 0.64130 0.37329
 C714 C 0.88437 0.62756 0.38696
 C715 C 0.89990 0.61050 0.40265
 C716 C 0.92513 0.60195 0.39365
 C717 C 0.93946 0.58409 0.40791
 C718 C 0.92866 0.57452 0.43134
 C719 C 0.90359 0.58359 0.44057
 C720 C 0.88927 0.60147 0.42626
 H721 H 0.86768 0.63815 0.32099
 H722 H 0.83986 0.66398 0.29191
 H723 H 0.81091 0.70520 0.35896
 H724 H 0.83925 0.67946 0.38784
 H725 H 0.93350 0.60877 0.37536
 H726 H 0.95874 0.57746 0.40036
 H727 H 0.89481 0.57656 0.45857
 H728 H 0.86972 0.60791 0.43336
 C729 C 0.35135 0.15366 0.35351
 C730 C 0.34055 0.14448 0.33016
 C731 C 0.32458 0.15961 0.31407
 C732 C 0.31885 0.18461 0.32089
 C733 C 0.33028 0.19342 0.34478
 C734 C 0.34621 0.17812 0.36076
 C735 C 0.36761 0.13784 0.37000
 C736 C 0.38111 0.12422 0.38353
 C737 C 0.39704 0.10747 0.39929
 C738 C 0.42226 0.09901 0.39016
 C739 C 0.43710 0.08169 0.40473
 C740 C 0.42683 0.07259 0.42859
 C741 C 0.40173 0.08154 0.43788
 C742 C 0.38691 0.09887 0.42327
 H743 H 0.34467 0.12558 0.32419
 H744 H 0.31809 0.15155 0.29573
 H745 H 0.32609 0.21171 0.35233
 H746 H 0.35428 0.18537 0.37901
 H747 H 0.43027 0.10551 0.37160
 H748 H 0.45638 0.07514 0.39711
 H749 H 0.39333 0.07487 0.45620
 H750 H 0.36739 0.10526 0.43050
 C751 C 0.34989 0.64273 -0.15742
 C752 C 0.35913 0.65095 -0.18187
 C753 C 0.34363 0.66782 -0.19640
 C754 C 0.31868 0.67673 -0.18660
 C755 C 0.30954 0.66826 -0.16204
 C756 C 0.32505 0.65138 -0.14757
 C757 C 0.36615 0.62591 -0.14209
 C758 C 0.37977 0.61217 -0.12882
 C759 C 0.39602 0.59630 -0.11240
 C760 C 0.42191 0.60404 -0.10430
 C761 C 0.43710 0.58947 -0.08699
 C762 C 0.42654 0.56696 -0.07753
 C763 C 0.40078 0.55900 -0.08623
 C764 C 0.38559 0.57363 -0.10354
 H765 H 0.37841 0.64448 -0.18961
 H766 H 0.35138 0.67421 -0.21509
 H767 H 0.29026 0.67450 -0.15413
 H768 H 0.31771 0.64514 -0.12865
 H769 H 0.43016 0.62157 -0.11100
 H770 H 0.45690 0.59605 -0.08065
 H771 H 0.39215 0.54175 -0.07924
 H772 H 0.36554 0.56749 -0.10965
 C773 C 1.15016 -0.15332 -0.14183
 C774 C 1.17730 -0.14708 -0.14707
 C775 C 1.19311 -0.16215 -0.16335
 C776 C 1.18196 -0.18369 -0.17463
 C777 C 1.15471 -0.18991 -0.16905
 C778 C 1.13893 -0.17480 -0.15278
 C779 C 1.13371 -0.13735 -0.12571
 C780 C 1.12001 -0.12366 -0.11249
 C781 C 1.10382 -0.10688 -0.09707
 C782 C 1.11362 -0.09810 -0.07302
 C783 C 1.09852 -0.08081 -0.05869
 C784 C 1.07345 -0.07206 -0.06832
 C785 C 1.06351 -0.08132 -0.09226
 C786 C 1.07864 -0.09862 -0.10655
 H787 H 1.18622 -0.13050 -0.13867
 H788 H 1.21411 -0.15703 -0.16697
 H789 H 1.14542 -0.20619 -0.17769
 H790 H 1.11790 -0.17974 -0.14895
 H791 H 1.13311 -0.10435 -0.06552
 H792 H 1.10667 -0.07401 -0.04031
 H793 H 1.04425 -0.07493 -0.10014
 H794 H 1.07087 -0.10527 -0.12516
 C795 C 1.14839 0.34270 0.36179
 C796 C 1.17563 0.34899 0.35719
 C797 C 1.19165 0.33437 0.34069
 C798 C 1.18061 0.31323 0.32851
 C799 C 1.15331 0.30681 0.33359
 C800 C 1.13730 0.32150 0.35009
 C801 C 1.13169 0.35856 0.37774
 C802 C 1.11798 0.37241 0.39073
 C803 C 1.10198 0.38963 0.40575
 C804 C 1.11190 0.39876 0.42961
 C805 C 1.09726 0.41678 0.44334
 C806 C 1.07255 0.42593 0.43328
 C807 C 1.06244 0.41628 0.40958
 C808 C 1.07711 0.39826 0.39589
 H809 H 1.18442 0.36535 0.36616
 H810 H 1.21269 0.33959 0.33747
 H811 H 1.14415 0.29080 0.32428
 H812 H 1.11619 0.31653 0.35343
 H813 H 1.13118 0.39226 0.43738
 H814 H 1.10551 0.42386 0.46156
 H815 H 1.04345 0.42297 0.40139
 H816 H 1.06929 0.39137 0.37740
 C817 C 0.64860 -0.15503 0.35576
 C818 C 0.67343 -0.14624 0.34600
 C819 C 0.68929 -0.16118 0.32966
 C820 C 0.68051 -0.18516 0.32283
 C821 C 0.65559 -0.19390 0.33289
 C822 C 0.63973 -0.17890 0.34923
 C823 C 0.63208 -0.13931 0.37207
 C824 C 0.61842 -0.12573 0.38544
 C825 C 0.60234 -0.10899 0.40099
 C826 C 0.61236 -0.10019 0.42495
 C827 C 0.59746 -0.08278 0.43932
 C828 C 0.57239 -0.07393 0.42981
 C829 C 0.56221 -0.08325 0.40598
 C830 C 0.57713 -0.10065 0.39166
 H831 H 0.68051 -0.12781 0.35098
 H832 H 0.70855 -0.15405 0.32256
 H833 H 0.64813 -0.21215 0.32776
 H834 H 0.62048 -0.18585 0.35659
 H835 H 0.63188 -0.10648 0.43233
 H836 H 0.60579 -0.07593 0.45761
 H837 H 0.54294 -0.07678 0.39820
 H838 H 0.56921 -0.10731 0.37311
 C839 C 0.65131 0.35505 -0.15520
 C840 C 0.67870 0.36047 -0.16023
 C841 C 0.69455 0.34412 -0.17503
 C842 C 0.68319 0.32208 -0.18500
 C843 C 0.65563 0.31679 -0.17980
 C844 C 0.63982 0.33318 -0.16500
 C845 C 0.63508 0.37172 -0.13966
 C846 C 0.62144 0.38543 -0.12641
 C847 C 0.60508 0.40136 -0.11016
 C848 C 0.61538 0.42414 -0.10147
 C849 C 0.59996 0.43897 -0.08457
 C850 C 0.57409 0.43112 -0.07613
 C851 C 0.56369 0.40846 -0.08539
 C852 C 0.57911 0.39368 -0.10228
 H853 H 0.68784 0.37728 -0.15261
 H854 H 0.71578 0.34857 -0.17839
 H855 H 0.64619 0.30016 -0.18747
 H856 H 0.61863 0.32880 -0.16123
 H857 H 0.63548 0.43025 -0.10744
 H858 H 0.60848 0.45633 -0.07774
 H859 H 0.54382 0.40194 -0.07924
 H860 H 0.57094 0.37609 -0.10887
 C861 C 1.14795 0.15461 -0.14426
 C862 C 1.15726 0.14532 -0.16817
 C863 C 1.17329 0.16002 -0.18460
 C864 C 1.18045 0.18455 -0.17751
 C865 C 1.17071 0.19358 -0.15318
 C866 C 1.15470 0.17874 -0.13680
 C867 C 1.13156 0.13923 -0.12746
 C868 C 1.11793 0.12589 -0.11376
 C869 C 1.10183 0.10938 -0.09791
 C870 C 1.07667 0.10081 -0.10716
 C871 C 1.06178 0.08354 -0.09260
 C872 C 1.07194 0.07459 -0.06862
 C873 C 1.09695 0.08370 -0.05918
 C874 C 1.11182 0.10097 -0.07378
 H875 H 1.15194 0.12669 -0.17425
 H876 H 1.17899 0.15220 -0.20331
 H877 H 1.17618 0.21176 -0.14600
 H878 H 1.14778 0.18606 -0.11818
 H879 H 1.06878 0.10716 -0.12584
 H880 H 1.04256 0.07687 -0.10033
 H881 H 1.10525 0.07714 -0.04076
 H882 H 1.13130 0.10744 -0.06647
 C883 C 1.14711 0.65805 0.35973
 C884 C 1.17426 0.65156 0.35500
 C885 C 1.19034 0.66605 0.33841
 C886 C 1.17946 0.68728 0.32627
 C887 C 1.15225 0.69388 0.33145
 C888 C 1.13617 0.67931 0.34805
 C889 C 1.13037 0.64236 0.37589
 C890 C 1.11668 0.62863 0.38908
 C891 C 1.10077 0.61154 0.40439
 C892 C 1.07597 0.60258 0.39466
 C893 C 1.06142 0.58465 0.40864
 C894 C 1.07158 0.57542 0.43251
 C895 C 1.09620 0.58492 0.44244
 C896 C 1.11072 0.60285 0.42842
 H897 H 1.18294 0.63515 0.36397
 H898 H 1.21132 0.66070 0.33513
 H899 H 1.14322 0.70996 0.32218
 H900 H 1.11513 0.68444 0.35149
 H901 H 1.06813 0.60913 0.37604
 H902 H 1.04249 0.57769 0.40054
 H903 H 1.10448 0.57817 0.46078
 H904 H 1.12994 0.60961 0.43609
 C905 C 0.64703 0.15490 0.35464
 C906 C 0.64950 0.14961 0.32789
 C907 C 0.66567 0.16458 0.31185
 C908 C 0.67962 0.18511 0.32235
 C909 C 0.67688 0.19037 0.34925
 C910 C 0.66070 0.17533 0.36528
 C911 C 0.63079 0.13908 0.37111
 C912 C 0.61730 0.12541 0.38458
 C913 C 0.60140 0.10856 0.40021
 C914 C 0.57632 0.09987 0.39086
 C915 C 0.56157 0.08238 0.40527
 C916 C 0.57178 0.07334 0.42920
 C917 C 0.59671 0.08253 0.43871
 C918 C 0.61145 0.10002 0.42427
 H919 H 0.63897 0.13386 0.31944
 H920 H 0.66705 0.16025 0.29116
 H921 H 0.68761 0.20585 0.35798
 H922 H 0.65901 0.17954 0.38599
 H923 H 0.56838 0.10631 0.37224
 H924 H 0.54241 0.07564 0.39748
 H925 H 0.60505 0.07591 0.45709
 H926 H 0.63086 0.10659 0.43166
 C927 C 0.65029 0.64380 -0.15587
 C928 C 0.65991 0.63697 -0.18058
 C929 C 0.67554 0.65353 -0.19535
 C930 C 0.68193 0.67748 -0.18573
 C931 C 0.67187 0.68396 -0.16064
 C932 C 0.65629 0.66730 -0.14596
 C933 C 0.63421 0.62679 -0.14061
 C934 C 0.62066 0.61290 -0.12745
 C935 C 0.60439 0.59688 -0.11122
 C936 C 0.61485 0.57424 -0.10233
 C937 C 0.59957 0.55946 -0.08524
 C938 C 0.57369 0.56724 -0.07680
 C939 C 0.56310 0.58973 -0.08630
 C940 C 0.57838 0.60445 -0.10337
 H941 H 0.65516 0.61886 -0.18855
 H942 H 0.68157 0.64762 -0.21474
 H943 H 0.67677 0.70150 -0.15155
 H944 H 0.64909 0.67272 -0.12672
 H945 H 0.63499 0.56823 -0.10825
 H946 H 0.60822 0.54223 -0.07823
 H947 H 0.54321 0.59618 -0.08016
 H948 H 0.57009 0.62194 -0.11010
 C949 C 0.85463 -0.15668 -0.14336
 C950 C 0.82911 -0.16513 -0.13498
 C951 C 0.81328 -0.18016 -0.15135
 C952 C 0.82277 -0.18690 -0.17639
 C953 C 0.84858 -0.17850 -0.18452
 C954 C 0.86437 -0.16349 -0.16811
 C955 C 0.87048 -0.14043 -0.12694
 C956 C 0.88365 -0.12646 -0.11351
 C957 C 0.89923 -0.10930 -0.09790
 C958 C 0.88890 -0.10065 -0.07402
 C959 C 0.90337 -0.08296 -0.05957
 C960 C 0.92832 -0.07368 -0.06889
 C961 C 0.93880 -0.08281 -0.09265
 C962 C 0.92430 -0.10049 -0.10707
 H963 H 0.82130 -0.15986 -0.11591
 H964 H 0.79338 -0.18607 -0.14465
 H965 H 0.85663 -0.18364 -0.20351
 H966 H 0.88410 -0.15707 -0.17479
 H967 H 0.86948 -0.10731 -0.06676
 H968 H 0.89482 -0.07628 -0.04132
 H969 H 0.95798 -0.07601 -0.10031
 H970 H 0.93247 -0.10702 -0.12555
 C971 C 0.85685 0.34191 0.35733
 C972 C 0.84418 0.32059 0.36714
 C973 C 0.82782 0.30606 0.35073
 C974 C 0.82388 0.31277 0.32432
 C975 C 0.83698 0.33408 0.31462
 C976 C 0.85333 0.34853 0.33103
 C977 C 0.87290 0.35749 0.37423
 C978 C 0.88613 0.37120 0.38788
 C979 C 0.90163 0.38835 0.40351
 C980 C 0.89102 0.39726 0.42717
 C981 C 0.90513 0.41537 0.44134
 C982 C 0.92997 0.42483 0.43191
 C983 C 0.94079 0.41536 0.40845
 C984 C 0.92665 0.39724 0.39433
 H985 H 0.84670 0.31537 0.38751
 H986 H 0.81779 0.28990 0.35882
 H987 H 0.83468 0.33951 0.29430
 H988 H 0.86308 0.36498 0.32323
 H989 H 0.87161 0.39056 0.43440
 H990 H 0.89635 0.42232 0.45936
 H991 H 0.95989 0.42227 0.40076
 H992 H 0.93499 0.39054 0.37599
 C993 C 0.35151 -0.15472 0.35343
 C994 C 0.34587 -0.17912 0.36064
 C995 C 0.32993 -0.19424 0.34445
 C996 C 0.31901 -0.18532 0.32039
 C997 C 0.32525 -0.16039 0.31363
 C998 C 0.34121 -0.14544 0.32992
 C999 C 0.36778 -0.13907 0.37012
 C1000 C 0.38130 -0.12555 0.38377
 C1001 C 0.39727 -0.10890 0.39961
 C1002 C 0.38711 -0.10028 0.42357
 C1003 C 0.40195 -0.08298 0.43821
 C1004 C 0.42710 -0.07406 0.42898
 C1005 C 0.43741 -0.08318 0.40516
 C1006 C 0.42256 -0.10048 0.39056
 H1007 H 0.35355 -0.18644 0.37900
 H1008 H 0.32535 -0.21247 0.35195
 H1009 H 0.31918 -0.15226 0.29519
 H1010 H 0.34573 -0.12660 0.32398
 H1011 H 0.36754 -0.10664 0.43074
 H1012 H 0.39352 -0.07628 0.45650
 H1013 H 0.45674 -0.07666 0.39758
 H1014 H 0.43059 -0.10699 0.37202
 C1015 C 0.35055 0.35608 -0.15790
 C1016 C 0.32540 0.34780 -0.14840
 C1017 C 0.30994 0.33093 -0.16295
 C1018 C 0.31945 0.32210 -0.18723
 C1019 C 0.34472 0.33063 -0.19666
 C1020 C 0.36017 0.34749 -0.18206
 C1021 C 0.36672 0.37293 -0.14251
 C1022 C 0.38025 0.38669 -0.12919
 C1023 C 0.39642 0.40257 -0.11269
 C1024 C 0.38590 0.42517 -0.10380
 C1025 C 0.40100 0.43979 -0.08640
 C1026 C 0.42674 0.43188 -0.07764
 C1027 C 0.43739 0.40944 -0.08715
 C1028 C 0.42230 0.39488 -0.10455
 H1029 H 0.31777 0.35433 -0.12971
 H1030 H 0.29041 0.32499 -0.15533
 H1031 H 0.35275 0.32395 -0.21512
 H1032 H 0.37969 0.35368 -0.18952
 H1033 H 0.36586 0.43127 -0.10996
 H1034 H 0.39230 0.45700 -0.07938
 H1035 H 0.45718 0.40290 -0.08077
 H1036 H 0.43061 0.37740 -0.11127
 C1037 C 1.14820 -0.15565 0.14370
 C1038 C 1.13927 -0.17971 0.14934
 C1039 C 1.15501 -0.19524 0.16527
 C1040 C 1.17992 -0.18688 0.17578
 C1041 C 1.18878 -0.16271 0.16983
 C1042 C 1.17301 -0.14723 0.15392
 C1043 C 1.13177 -0.13938 0.12784
 C1044 C 1.11821 -0.12539 0.11480
 C1045 C 1.10228 -0.10821 0.09956
 C1046 C 1.11225 -0.09929 0.07564
 C1047 C 1.09746 -0.08162 0.06148
 C1048 C 1.07253 -0.07263 0.07113
 C1049 C 1.06241 -0.08201 0.09494
 C1050 C 1.07723 -0.09967 0.10907
 H1051 H 1.12012 -0.18643 0.14150
 H1052 H 1.14779 -0.21383 0.16921
 H1053 H 1.20763 -0.15559 0.17790
 H1054 H 1.18007 -0.12861 0.14978
 H1055 H 1.13163 -0.10573 0.06812
 H1056 H 1.10574 -0.07475 0.04320
 H1057 H 1.04326 -0.07543 0.10283
 H1058 H 1.06934 -0.10642 0.12758
 C1059 C 1.14496 0.34169 0.64226
 C1060 C 1.13434 0.31937 0.65181
 C1061 C 1.15023 0.30419 0.66795
 C1062 C 1.17697 0.31119 0.67472
 C1063 C 1.18748 0.33360 0.66487
 C1064 C 1.17156 0.34872 0.64877
 C1065 C 1.12850 0.35776 0.62631
 C1066 C 1.11507 0.37177 0.61323
 C1067 C 1.09950 0.38916 0.59801
 C1068 C 1.07455 0.39794 0.60747
 C1069 C 1.06029 0.41613 0.59359
 C1070 C 1.07091 0.42577 0.57011
 C1071 C 1.09569 0.41646 0.56045
 C1072 C 1.10991 0.39827 0.57436
 H1073 H 1.11375 0.31376 0.64688
 H1074 H 1.14169 0.28692 0.67497
 H1075 H 1.20782 0.33968 0.67003
 H1076 H 1.17992 0.36603 0.64159
 H1077 H 1.06635 0.39106 0.62580
 H1078 H 1.04123 0.42295 0.60146
 H1079 H 1.10432 0.42353 0.54240
 H1080 H 1.12926 0.39164 0.56692
 C1081 C 0.64795 -0.15313 0.64604
 C1082 C 0.63828 -0.17642 0.65374
 C1083 C 0.65404 -0.19146 0.67015
 C1084 C 0.67970 -0.18336 0.67907
 C1085 C 0.68922 -0.15991 0.67118
 C1086 C 0.67343 -0.14492 0.65479
 C1087 C 0.63164 -0.13746 0.62944
 C1088 C 0.61813 -0.12400 0.61576
 C1089 C 0.60219 -0.10747 0.59979
 C1090 C 0.57682 -0.09916 0.60868
 C1091 C 0.56195 -0.08203 0.59391
 C1092 C 0.57233 -0.07297 0.57007
 C1093 C 0.59758 -0.08178 0.56101
 C1094 C 0.61243 -0.09891 0.57583
 H1095 H 0.61859 -0.18297 0.64705
 H1096 H 0.64631 -0.20954 0.67559
 H1097 H 0.70871 -0.15301 0.67798
 H1098 H 0.68105 -0.12686 0.64905
 H1099 H 0.56872 -0.10563 0.62722
 H1100 H 0.54254 -0.07558 0.60135
 H1101 H 0.60605 -0.07513 0.54272
 H1102 H 0.63207 -0.10520 0.56879
 C1103 C 0.64916 0.35523 0.15487
 C1104 C 0.63974 0.33109 0.15916
 C1105 C 0.65530 0.31443 0.17387
 C1106 C 0.68055 0.32170 0.18447
 C1107 C 0.68983 0.34604 0.18006
 C1108 C 0.67422 0.36268 0.16536
 C1109 C 0.63327 0.37217 0.13934
 C1110 C 0.61986 0.38601 0.12600
 C1111 C 0.60372 0.40198 0.10959
 C1112 C 0.57776 0.39438 0.10156
 C1113 C 0.56258 0.40908 0.08436
 C1114 C 0.57323 0.43157 0.07495
 C1115 C 0.59908 0.43938 0.08356
 C1116 C 0.61425 0.42462 0.10077
 H1117 H 0.62043 0.32510 0.15102
 H1118 H 0.64776 0.29574 0.17663
 H1119 H 0.70900 0.35231 0.18826
 H1120 H 0.68169 0.38134 0.16216
 H1121 H 0.56942 0.37688 0.10824
 H1122 H 0.54273 0.40261 0.07808
 H1123 H 0.60777 0.45662 0.07661
 H1124 H 0.63435 0.43066 0.10685
 C1125 C 0.85036 0.15642 0.14309
 C1126 C 0.82573 0.14782 0.15349
 C1127 C 0.81010 0.16312 0.16967
 C1128 C 0.81892 0.18728 0.17571
 C1129 C 0.84362 0.19583 0.16497
 C1130 C 0.85922 0.18048 0.14878
 C1131 C 0.86675 0.14030 0.12709
 C1132 C 0.88036 0.12643 0.11400
 C1133 C 0.89641 0.10939 0.09876
 C1134 C 0.88654 0.10047 0.07479
 C1135 C 0.90145 0.08289 0.06068
 C1136 C 0.92640 0.07399 0.07044
 C1137 C 0.93642 0.08338 0.09429
 C1138 C 0.92148 0.10096 0.10837
 H1139 H 0.81874 0.12918 0.14932
 H1140 H 0.79139 0.15586 0.17790
 H1141 H 0.85080 0.21443 0.16897
 H1142 H 0.87825 0.18734 0.14080
 H1143 H 0.86714 0.10684 0.06720
 H1144 H 0.89326 0.07599 0.04236
 H1145 H 0.95558 0.07687 0.10227
 H1146 H 0.92929 0.10771 0.12692
 C1147 C 0.85309 0.65837 0.64154
 C1148 C 0.82680 0.65099 0.64870
 C1149 C 0.81104 0.66599 0.66505
 C1150 C 0.82140 0.68862 0.67449
 C1151 C 0.84782 0.69596 0.66707
 C1152 C 0.86356 0.68090 0.65069
 C1153 C 0.86946 0.64240 0.62540
 C1154 C 0.88290 0.62849 0.61223
 C1155 C 0.89863 0.61124 0.59700
 C1156 C 0.88835 0.60207 0.57329
 C1157 C 0.90281 0.58404 0.55939
 C1158 C 0.92767 0.57493 0.56913
 C1159 C 0.93812 0.58462 0.59267
 C1160 C 0.92365 0.60265 0.60653
 H1161 H 0.81857 0.63351 0.64186
 H1162 H 0.79096 0.65964 0.67072
 H1163 H 0.85623 0.71340 0.67377
 H1164 H 0.88391 0.68677 0.64526
 H1165 H 0.86896 0.60855 0.56579
 H1166 H 0.89430 0.57691 0.54129
 H1167 H 0.95725 0.57797 0.60061
 H1168 H 0.93175 0.60957 0.62490
 C1169 C 0.35117 0.15377 0.64386
 C1170 C 0.32612 0.14515 0.65326
 C1171 C 0.31034 0.16003 0.66971
 C1172 C 0.31942 0.18379 0.67702
 C1173 C 0.34464 0.19231 0.66744
 C1174 C 0.36040 0.17738 0.65096
 C1175 C 0.36752 0.13816 0.62730
 C1176 C 0.38105 0.12469 0.61370
 C1177 C 0.39702 0.10807 0.59791
 C1178 C 0.38674 0.09923 0.57406
 C1179 C 0.40156 0.08191 0.55951
 C1180 C 0.42681 0.07319 0.56873
 C1181 C 0.43724 0.08255 0.59243
 C1182 C 0.42240 0.09987 0.60693
 H1183 H 0.31886 0.12684 0.64799
 H1184 H 0.29122 0.15280 0.67704
 H1185 H 0.35202 0.21063 0.67245
 H1186 H 0.37976 0.18424 0.64379
 H1187 H 0.36708 0.10542 0.56693
 H1188 H 0.39305 0.07502 0.54132
 H1189 H 0.45664 0.07619 0.59998
 H1190 H 0.43052 0.10656 0.62539
 C1191 C 0.34992 0.64450 0.15333
 C1192 C 0.32506 0.63704 0.16420
 C1193 C 0.30958 0.65373 0.17894
 C1194 C 0.31879 0.67815 0.18301
 C1195 C 0.34383 0.68545 0.17202
 C1196 C 0.35926 0.66873 0.15727
 C1197 C 0.36572 0.62747 0.13783
 C1198 C 0.37909 0.61356 0.12456
 C1199 C 0.39525 0.59750 0.10828
 C1200 C 0.38470 0.57486 0.09946
 C1201 C 0.39996 0.55997 0.08246
 C1202 C 0.42591 0.56765 0.07405
 C1203 C 0.43655 0.59016 0.08344
 C1204 C 0.42130 0.60498 0.10043
 H1205 H 0.31765 0.61832 0.16129
 H1206 H 0.29059 0.64744 0.18744
 H1207 H 0.35131 0.70419 0.17450
 H1208 H 0.37842 0.67474 0.14884
 H1209 H 0.36454 0.56890 0.10540
 H1210 H 0.39125 0.54273 0.07552
 H1211 H 0.45649 0.59654 0.07733
 H1212 H 0.42966 0.62247 0.10711
   
