data_POSCAR
  _audit_creation_date              2014-09-24
  _audit_creation_method            'ToBaCCo'
  _symmetry_space_group_name_H-M    'P1'
  _symmetry_Int_Tables_number       1
  _symmetry_cell_setting            triclinic
  loop_
  _symmetry_equiv_pos_as_xyz
 x,y,z
_cell_length_a 78.2710
_cell_length_b 78.2638
_cell_length_c 78.3331
_cell_angle_alpha 89.984700
_cell_angle_beta 89.983100
_cell_angle_gamma 89.958600
loop_
  _atom_site_label
  _atom_site_type_symbol
  _atom_site_fract_x
  _atom_site_fract_y
  _atom_site_fract_z
C1 C 0.35135 0.35119 0.32953
 C2 C 0.36586 0.34365 0.32218
 C3 C 0.37302 0.32892 0.32940
 C4 C 0.36583 0.32168 0.34409
 C5 C 0.35133 0.32905 0.35161
 C6 C 0.34402 0.34387 0.34431
 C7 C 0.34386 0.36574 0.32221
 C8 C 0.32917 0.37295 0.32946
 C9 C 0.32192 0.36577 0.34416
 C10 C 0.32925 0.35122 0.35165
 C11 C 0.32190 0.34371 0.36616
 C12 C 0.32912 0.32898 0.37332
 C13 C 0.34381 0.32171 0.36612
 H14 H 0.37147 0.34910 0.31074
 H15 H 0.37143 0.31022 0.34952
 H16 H 0.34931 0.37134 0.31078
 H17 H 0.31049 0.37140 0.34961
 H18 H 0.31047 0.34918 0.37177
 H19 H 0.34924 0.31025 0.37172
 C20 C 0.35162 0.85158 -0.17116
 C21 C 0.36614 0.84407 -0.17851
 C22 C 0.37337 0.82937 -0.17126
 C23 C 0.36621 0.82216 -0.15653
 C24 C 0.35169 0.82951 -0.14901
 C25 C 0.34433 0.84428 -0.15635
 C26 C 0.34407 0.86609 -0.17851
 C27 C 0.32936 0.87330 -0.17125
 C28 C 0.32217 0.86612 -0.15652
 C29 C 0.32955 0.85161 -0.14901
 C30 C 0.32225 0.84412 -0.13446
 C31 C 0.32953 0.82944 -0.12726
 C32 C 0.34422 0.82219 -0.13446
 H33 H 0.37169 0.84954 -0.18998
 H34 H 0.37182 0.81072 -0.15103
 H35 H 0.34953 0.87166 -0.18997
 H36 H 0.31073 0.87170 -0.15101
 H37 H 0.31081 0.84957 -0.12884
 H38 H 0.34970 0.81076 -0.12885
 C39 C 0.85165 0.35171 -0.17099
 C40 C 0.86618 0.34420 -0.17834
 C41 C 0.87340 0.32949 -0.17109
 C42 C 0.86622 0.32227 -0.15637
 C43 C 0.85169 0.32962 -0.14886
 C44 C 0.84435 0.34440 -0.15620
 C45 C 0.84413 0.36623 -0.17834
 C46 C 0.82941 0.37343 -0.17110
 C47 C 0.82219 0.36624 -0.15638
 C48 C 0.82956 0.35173 -0.14887
 C49 C 0.82224 0.34423 -0.13434
 C50 C 0.82950 0.32954 -0.12714
 C51 C 0.84420 0.32229 -0.13433
 H52 H 0.87175 0.34967 -0.18979
 H53 H 0.87181 0.31083 -0.15087
 H54 H 0.84960 0.37180 -0.18979
 H55 H 0.81074 0.37182 -0.15089
 H56 H 0.81079 0.34968 -0.12873
 H57 H 0.84967 0.31086 -0.12872
 C58 C 0.85107 0.85170 0.32937
 C59 C 0.86560 0.84418 0.32204
 C60 C 0.87280 0.82949 0.32929
 C61 C 0.86563 0.82226 0.34400
 C62 C 0.85110 0.82961 0.35150
 C63 C 0.84375 0.84439 0.34416
 C64 C 0.84354 0.86621 0.32201
 C65 C 0.82882 0.87341 0.32924
 C66 C 0.82159 0.86623 0.34396
 C67 C 0.82896 0.85172 0.35148
 C68 C 0.82163 0.84423 0.36601
 C69 C 0.82889 0.82953 0.37321
 C70 C 0.84360 0.82229 0.36603
 H71 H 0.87120 0.84961 0.31059
 H72 H 0.87125 0.81083 0.34946
 H73 H 0.84902 0.87178 0.31056
 H74 H 0.81014 0.87182 0.34944
 H75 H 0.81019 0.84968 0.37161
 H76 H 0.84907 0.81085 0.37165
 C77 C 0.64857 0.64859 0.32937
 C78 C 0.63406 0.65612 0.32202
 C79 C 0.62685 0.67082 0.32927
 C80 C 0.63400 0.67803 0.34398
 C81 C 0.64851 0.67067 0.35150
 C82 C 0.65586 0.65589 0.34417
 C83 C 0.65610 0.63408 0.32203
 C84 C 0.67079 0.62687 0.32928
 C85 C 0.67800 0.63403 0.34399
 C86 C 0.67064 0.64855 0.35151
 C87 C 0.67795 0.65603 0.36604
 C88 C 0.67068 0.67073 0.37323
 C89 C 0.65599 0.67798 0.36604
 H90 H 0.62847 0.65069 0.31057
 H91 H 0.62838 0.68947 0.34943
 H92 H 0.65067 0.62849 0.31058
 H93 H 0.68944 0.62841 0.34945
 H94 H 0.68938 0.65057 0.37166
 H95 H 0.65053 0.68942 0.37165
 C96 C 0.64880 0.14832 -0.17074
 C97 C 0.63427 0.15584 -0.17806
 C98 C 0.62708 0.17055 -0.17083
 C99 C 0.63428 0.17780 -0.15615
 C100 C 0.64881 0.17045 -0.14866
 C101 C 0.65613 0.15565 -0.15597
 C102 C 0.65630 0.13379 -0.17807
 C103 C 0.67103 0.12658 -0.17085
 C104 C 0.67827 0.13379 -0.15615
 C105 C 0.67093 0.14833 -0.14866
 C106 C 0.67828 0.15584 -0.13416
 C107 C 0.67104 0.17056 -0.12699
 C108 C 0.65633 0.17780 -0.13416
 H109 H 0.62865 0.15038 -0.18948
 H110 H 0.62867 0.18925 -0.15071
 H111 H 0.65081 0.12820 -0.18950
 H112 H 0.68973 0.12821 -0.15068
 H113 H 0.68972 0.15039 -0.12856
 H114 H 0.65088 0.18925 -0.12856
 C115 C 0.14896 0.64830 -0.17073
 C116 C 0.13443 0.65581 -0.17807
 C117 C 0.12724 0.67053 -0.17085
 C118 C 0.13443 0.67778 -0.15616
 C119 C 0.14896 0.67043 -0.14866
 C120 C 0.15629 0.65563 -0.15597
 C121 C 0.15647 0.63377 -0.17806
 C122 C 0.17119 0.62656 -0.17083
 C123 C 0.17843 0.63377 -0.15613
 C124 C 0.17108 0.64831 -0.14864
 C125 C 0.17841 0.65583 -0.13414
 C126 C 0.17117 0.67054 -0.12697
 C127 C 0.15646 0.67778 -0.13416
 H128 H 0.12883 0.65036 -0.18950
 H129 H 0.12882 0.68923 -0.15073
 H130 H 0.15098 0.62818 -0.18949
 H131 H 0.18987 0.62819 -0.15064
 H132 H 0.18986 0.65038 -0.12853
 H133 H 0.15101 0.68923 -0.12856
 C134 C 0.14856 0.14858 0.32900
 C135 C 0.13405 0.15611 0.32164
 C136 C 0.12680 0.17080 0.32890
 C137 C 0.13394 0.17798 0.34365
 C138 C 0.14845 0.17061 0.35117
 C139 C 0.15582 0.15585 0.34383
 C140 C 0.15611 0.13408 0.32164
 C141 C 0.17081 0.12687 0.32890
 C142 C 0.17798 0.13401 0.34365
 C143 C 0.17059 0.14851 0.35117
 C144 C 0.17786 0.15597 0.36574
 C145 C 0.17058 0.17064 0.37295
 C146 C 0.15589 0.17790 0.36574
 H147 H 0.12852 0.15066 0.31016
 H148 H 0.12832 0.18940 0.34916
 H149 H 0.15067 0.12854 0.31016
 H150 H 0.18941 0.12842 0.34916
 H151 H 0.18929 0.15050 0.37137
 H152 H 0.15041 0.18932 0.37137
 C153 C 0.64854 0.35151 0.67043
 C154 C 0.63402 0.34400 0.67777
 C155 C 0.62681 0.32934 0.67050
 C156 C 0.63396 0.32213 0.65577
 C157 C 0.64848 0.32947 0.64826
 C158 C 0.65583 0.34423 0.65561
 C159 C 0.65608 0.36600 0.67780
 C160 C 0.67079 0.37318 0.67056
 C161 C 0.67799 0.36603 0.65583
 C162 C 0.67062 0.35155 0.64829
 C163 C 0.67793 0.34407 0.63374
 C164 C 0.67066 0.32940 0.62653
 C165 C 0.65596 0.32217 0.63371
 H166 H 0.62844 0.34942 0.68923
 H167 H 0.62833 0.31072 0.65030
 H168 H 0.65066 0.37157 0.68926
 H169 H 0.68944 0.37163 0.65038
 H170 H 0.68937 0.34952 0.62813
 H171 H 0.65048 0.31075 0.62808
 C172 C 0.64819 0.85123 1.17079
 C173 C 0.63365 0.84376 1.17814
 C174 C 0.62643 0.82906 1.17091
 C175 C 0.63361 0.82181 1.15620
 C176 C 0.64815 0.82912 1.14869
 C177 C 0.65550 0.84389 1.15601
 C178 C 0.65573 0.86574 1.17812
 C179 C 0.67044 0.87289 1.17088
 C180 C 0.67767 0.86569 1.15618
 C181 C 0.67030 0.85119 1.14868
 C182 C 0.67763 0.84367 1.13417
 C183 C 0.67036 0.82898 1.12699
 C184 C 0.65565 0.82177 1.13418
 H185 H 0.62809 0.84926 1.18958
 H186 H 0.62802 0.81037 1.15072
 H187 H 0.65029 0.87136 1.18956
 H188 H 0.68912 0.87127 1.15073
 H189 H 0.68908 0.84909 1.12856
 H190 H 0.65018 0.81034 1.12857
 C191 C 0.14836 0.35118 1.17099
 C192 C 0.13387 0.34364 1.17836
 C193 C 0.12671 0.32890 1.17115
 C194 C 0.13391 0.32167 1.15644
 C195 C 0.14840 0.32905 1.14891
 C196 C 0.15569 0.34386 1.15621
 C197 C 0.15584 0.36573 1.17830
 C198 C 0.17051 0.37295 1.17104
 C199 C 0.17775 0.36577 1.15634
 C200 C 0.17045 0.35122 1.14886
 C201 C 0.17779 0.34373 1.13434
 C202 C 0.17059 0.32900 1.12718
 C203 C 0.15591 0.32173 1.13439
 H204 H 0.12829 0.34912 1.18981
 H205 H 0.12836 0.31021 1.15097
 H206 H 0.15039 0.37133 1.18974
 H207 H 0.18917 0.37140 1.15087
 H208 H 0.18921 0.34920 1.12871
 H209 H 0.15050 0.31027 1.12880
 C210 C 0.14814 0.85119 0.67083
 C211 C 0.13363 0.84367 0.67818
 C212 C 0.12641 0.82899 0.67091
 C213 C 0.13358 0.82179 0.65616
 C214 C 0.14809 0.82916 0.64865
 C215 C 0.15543 0.84391 0.65601
 C216 C 0.15567 0.86568 0.67819
 C217 C 0.17036 0.87289 0.67094
 C218 C 0.17757 0.86575 0.65621
 C219 C 0.17020 0.85125 0.64867
 C220 C 0.17751 0.84379 0.63412
 C221 C 0.17026 0.82912 0.62690
 C222 C 0.15557 0.82186 0.63410
 H223 H 0.12808 0.84912 0.68965
 H224 H 0.12798 0.81037 0.65065
 H225 H 0.15025 0.87126 0.68966
 H226 H 0.18900 0.87136 0.65075
 H227 H 0.18894 0.84925 0.62851
 H228 H 0.15011 0.81045 0.62847
 C229 C 0.35132 0.64863 0.67047
 C230 C 0.36583 0.65615 0.67780
 C231 C 0.37300 0.67086 0.67056
 C232 C 0.36582 0.67808 0.65585
 C233 C 0.35132 0.67073 0.64834
 C234 C 0.34400 0.65594 0.65567
 C235 C 0.34382 0.63411 0.67782
 C236 C 0.32913 0.62691 0.67058
 C237 C 0.32189 0.63408 0.65587
 C238 C 0.32922 0.64860 0.64836
 C239 C 0.32189 0.65610 0.63383
 C240 C 0.32912 0.67080 0.62664
 C241 C 0.34381 0.67806 0.63382
 H242 H 0.37143 0.65072 0.68925
 H243 H 0.37142 0.68953 0.65040
 H244 H 0.34926 0.62852 0.68926
 H245 H 0.31046 0.62847 0.65043
 H246 H 0.31046 0.65064 0.62823
 H247 H 0.34925 0.68950 0.62821
 C248 C 0.35165 0.14844 1.17116
 C249 C 0.36618 0.15592 1.17849
 C250 C 0.37342 0.17060 1.17121
 C251 C 0.36625 0.17782 1.15648
 C252 C 0.35172 0.17049 1.14899
 C253 C 0.34436 0.15574 1.15635
 C254 C 0.34410 0.13395 1.17853
 C255 C 0.32938 0.12677 1.17131
 C256 C 0.32217 0.13396 1.15657
 C257 C 0.32956 0.14844 1.14904
 C258 C 0.32225 0.15593 1.13450
 C259 C 0.32953 0.17059 1.12728
 C260 C 0.34424 0.17781 1.13445
 H261 H 0.37174 0.15045 1.18994
 H262 H 0.37186 0.18923 1.15096
 H263 H 0.34956 0.12838 1.18999
 H264 H 0.31072 0.12839 1.15109
 H265 H 0.31081 0.15050 1.12890
 H266 H 0.34972 0.18923 1.12881
 C267 C 0.85139 0.64808 1.17089
 C268 C 0.86590 0.65561 1.17822
 C269 C 0.87307 0.67031 1.17097
 C270 C 0.86588 0.67753 1.15626
 C271 C 0.85138 0.67016 1.14876
 C272 C 0.84407 0.65537 1.15610
 C273 C 0.84390 0.63355 1.17825
 C274 C 0.82920 0.62633 1.17102
 C275 C 0.82197 0.63350 1.15629
 C276 C 0.82930 0.64803 1.14878
 C277 C 0.82196 0.65552 1.13425
 C278 C 0.82918 0.67022 1.12705
 C279 C 0.84387 0.67748 1.13423
 H280 H 0.87151 0.65018 1.18967
 H281 H 0.87147 0.68897 1.15080
 H282 H 0.84939 0.62799 1.18970
 H283 H 0.81054 0.62791 1.15081
 H284 H 0.81053 0.65005 1.12864
 H285 H 0.84931 0.68892 1.12862
 C286 C 0.85132 0.14877 0.67061
 C287 C 0.86581 0.15630 0.67797
 C288 C 0.87300 0.17100 0.67072
 C289 C 0.86584 0.17821 0.65599
 C290 C 0.85135 0.17084 0.64847
 C291 C 0.84403 0.15606 0.65580
 C292 C 0.84381 0.13425 0.67796
 C293 C 0.82914 0.12704 0.67070
 C294 C 0.82193 0.13419 0.65597
 C295 C 0.82927 0.14871 0.64846
 C296 C 0.82196 0.15619 0.63391
 C297 C 0.82920 0.17088 0.62672
 C298 C 0.84387 0.17815 0.63392
 H299 H 0.87139 0.15088 0.68943
 H300 H 0.87145 0.18965 0.65054
 H301 H 0.84923 0.12867 0.68942
 H302 H 0.81051 0.12857 0.65051
 H303 H 0.81054 0.15072 0.62829
 H304 H 0.84932 0.18959 0.62831
 C305 C 0.35114 0.35136 0.67066
 C306 C 0.34363 0.36589 0.67799
 C307 C 0.32891 0.37307 0.67077
 C308 C 0.32166 0.36588 0.65609
 C309 C 0.32900 0.35135 0.64859
 C310 C 0.34381 0.34403 0.65589
 C311 C 0.36568 0.34385 0.67798
 C312 C 0.37287 0.32915 0.67074
 C313 C 0.36567 0.32190 0.65606
 C314 C 0.35114 0.32923 0.64857
 C315 C 0.34362 0.32189 0.63407
 C316 C 0.32891 0.32913 0.62690
 C317 C 0.32166 0.34384 0.63409
 H318 H 0.34909 0.37150 0.68941
 H319 H 0.31021 0.37149 0.65066
 H320 H 0.37129 0.34931 0.68940
 H321 H 0.37129 0.31045 0.65062
 H322 H 0.34908 0.31045 0.62847
 H323 H 0.31021 0.34928 0.62849
 C324 C 0.35150 0.85213 0.17034
 C325 C 0.34398 0.86665 0.17769
 C326 C 0.32927 0.87384 0.17046
 C327 C 0.32202 0.86666 0.15578
 C328 C 0.32937 0.85214 0.14826
 C329 C 0.34417 0.84481 0.15557
 C330 C 0.36603 0.84461 0.17766
 C331 C 0.37322 0.82991 0.17041
 C332 C 0.36603 0.82268 0.15573
 C333 C 0.35150 0.83003 0.14824
 C334 C 0.34399 0.82269 0.13373
 C335 C 0.32928 0.82994 0.12656
 C336 C 0.32203 0.84464 0.13375
 H337 H 0.34943 0.87225 0.18912
 H338 H 0.31057 0.87228 0.15034
 H339 H 0.37164 0.85005 0.18909
 H340 H 0.37165 0.81124 0.15027
 H341 H 0.34945 0.81125 0.12812
 H342 H 0.31058 0.85009 0.12816
 C343 C 0.85201 0.35140 0.17039
 C344 C 0.84449 0.36593 0.17772
 C345 C 0.82979 0.37313 0.17047
 C346 C 0.82256 0.36594 0.15578
 C347 C 0.82991 0.35141 0.14829
 C348 C 0.84469 0.34408 0.15562
 C349 C 0.86653 0.34389 0.17774
 C350 C 0.87373 0.32918 0.17051
 C351 C 0.86655 0.32194 0.15582
 C352 C 0.85203 0.32928 0.14831
 C353 C 0.84453 0.32194 0.13379
 C354 C 0.82983 0.32919 0.12660
 C355 C 0.82258 0.34390 0.13378
 H356 H 0.84993 0.37154 0.18915
 H357 H 0.81112 0.37155 0.15033
 H358 H 0.87213 0.34934 0.18917
 H359 H 0.87216 0.31049 0.15038
 H360 H 0.84998 0.31049 0.12820
 H361 H 0.81114 0.34936 0.12817
 C362 C 0.85145 0.85162 0.67071
 C363 C 0.84393 0.86614 0.67806
 C364 C 0.82921 0.87332 0.67085
 C365 C 0.82195 0.86614 0.65617
 C366 C 0.82930 0.85162 0.64865
 C367 C 0.84411 0.84430 0.65594
 C368 C 0.86599 0.84411 0.67802
 C369 C 0.87319 0.82941 0.67076
 C370 C 0.86599 0.82218 0.65608
 C371 C 0.85145 0.82951 0.64860
 C372 C 0.84393 0.82218 0.63410
 C373 C 0.82920 0.82942 0.62695
 C374 C 0.82195 0.84411 0.63414
 H375 H 0.84939 0.87174 0.68949
 H376 H 0.81050 0.87174 0.65074
 H377 H 0.87161 0.84956 0.68944
 H378 H 0.87161 0.81074 0.65062
 H379 H 0.84938 0.81074 0.62848
 H380 H 0.81050 0.84956 0.62856
 C381 C 0.64852 0.64848 0.67102
 C382 C 0.65605 0.63396 0.67836
 C383 C 0.67075 0.62677 0.67112
 C384 C 0.67798 0.63395 0.65641
 C385 C 0.67062 0.64847 0.64890
 C386 C 0.65583 0.65580 0.65623
 C387 C 0.63399 0.65599 0.67836
 C388 C 0.62678 0.67069 0.67111
 C389 C 0.63395 0.67792 0.65640
 C390 C 0.64848 0.67058 0.64890
 C391 C 0.65597 0.67791 0.63437
 C392 C 0.67068 0.67066 0.62718
 C393 C 0.67794 0.65597 0.63437
 H394 H 0.65061 0.62836 0.68981
 H395 H 0.68942 0.62834 0.65096
 H396 H 0.62839 0.65055 0.68980
 H397 H 0.62833 0.68936 0.65095
 H398 H 0.65051 0.68934 0.62875
 H399 H 0.68938 0.65051 0.62876
 C400 C 0.64864 0.14822 0.17024
 C401 C 0.65616 0.13371 0.17760
 C402 C 0.67090 0.12654 0.17040
 C403 C 0.67817 0.13374 0.15573
 C404 C 0.67082 0.14825 0.14820
 C405 C 0.65600 0.15556 0.15548
 C406 C 0.63408 0.15571 0.17753
 C407 C 0.62688 0.17041 0.17027
 C408 C 0.63410 0.17766 0.15560
 C409 C 0.64866 0.17034 0.14813
 C410 C 0.65620 0.17769 0.13364
 C411 C 0.67094 0.17047 0.12650
 C412 C 0.67819 0.15577 0.13370
 H413 H 0.65069 0.12809 0.18902
 H414 H 0.68964 0.12815 0.15031
 H415 H 0.62846 0.15026 0.18895
 H416 H 0.62848 0.18910 0.15014
 H417 H 0.65074 0.18913 0.12802
 H418 H 0.68966 0.15034 0.12813
 C419 C 0.14855 0.64871 0.17039
 C420 C 0.15605 0.63417 0.17772
 C421 C 0.17076 0.62697 0.17049
 C422 C 0.17802 0.63416 0.15581
 C423 C 0.17069 0.64870 0.14831
 C424 C 0.15589 0.65604 0.15562
 C425 C 0.13403 0.65622 0.17772
 C426 C 0.12685 0.67094 0.17049
 C427 C 0.13405 0.67819 0.15580
 C428 C 0.14858 0.67084 0.14830
 C429 C 0.15610 0.67818 0.13380
 C430 C 0.17081 0.67093 0.12662
 C431 C 0.17804 0.65621 0.13380
 H432 H 0.15059 0.62856 0.18915
 H433 H 0.18947 0.62855 0.15037
 H434 H 0.12841 0.65077 0.18915
 H435 H 0.12845 0.68964 0.15036
 H436 H 0.15066 0.68964 0.12820
 H437 H 0.18949 0.65076 0.12820
 C438 C 0.14824 0.14830 0.67103
 C439 C 0.15576 0.13378 0.67838
 C440 C 0.17045 0.12656 0.67112
 C441 C 0.17766 0.13371 0.65639
 C442 C 0.17031 0.14823 0.64888
 C443 C 0.15554 0.15559 0.65622
 C444 C 0.13374 0.15584 0.67839
 C445 C 0.12654 0.17054 0.67114
 C446 C 0.13370 0.17775 0.65641
 C447 C 0.14820 0.17038 0.64889
 C448 C 0.15568 0.17768 0.63434
 C449 C 0.17037 0.17041 0.62713
 C450 C 0.17762 0.15571 0.63433
 H451 H 0.15034 0.12820 0.68984
 H452 H 0.18909 0.12808 0.65093
 H453 H 0.12815 0.15042 0.68985
 H454 H 0.12808 0.18919 0.65095
 H455 H 0.15022 0.18912 0.62872
 H456 H 0.18905 0.15024 0.62871
 C457 C 0.35150 0.64871 0.32917
 C458 C 0.34402 0.63418 0.32184
 C459 C 0.32932 0.62698 0.32909
 C460 C 0.32207 0.63417 0.34378
 C461 C 0.32939 0.64870 0.35127
 C462 C 0.34417 0.65604 0.34394
 C463 C 0.36602 0.65623 0.32182
 C464 C 0.37318 0.67094 0.32905
 C465 C 0.36599 0.67818 0.34374
 C466 C 0.35147 0.67084 0.35125
 C467 C 0.34395 0.67818 0.36576
 C468 C 0.32926 0.67092 0.37295
 C469 C 0.32204 0.65621 0.36578
 H470 H 0.34947 0.62857 0.31041
 H471 H 0.31064 0.62855 0.34923
 H472 H 0.37163 0.65078 0.31039
 H473 H 0.37158 0.68963 0.34918
 H474 H 0.34939 0.68962 0.37136
 H475 H 0.31061 0.65076 0.37139
 C476 C 0.35163 0.14813 0.82961
 C477 C 0.34413 0.13361 0.82229
 C478 C 0.32945 0.12641 0.82955
 C479 C 0.32222 0.13359 0.84425
 C480 C 0.32955 0.14812 0.85174
 C481 C 0.34432 0.15545 0.84440
 C482 C 0.36614 0.15565 0.82225
 C483 C 0.37332 0.17036 0.82947
 C484 C 0.36614 0.17760 0.84417
 C485 C 0.35164 0.17025 0.85170
 C486 C 0.34414 0.17759 0.86622
 C487 C 0.32945 0.17034 0.87343
 C488 C 0.32222 0.15563 0.86627
 H489 H 0.34957 0.12800 0.81085
 H490 H 0.31079 0.12798 0.84972
 H491 H 0.37174 0.15021 0.81080
 H492 H 0.37174 0.18905 0.84960
 H493 H 0.34958 0.18903 0.87181
 H494 H 0.31079 0.15017 0.87189
 C495 C 0.85187 0.64836 0.82954
 C496 C 0.84439 0.63382 0.82222
 C497 C 0.82970 0.62662 0.82947
 C498 C 0.82245 0.63380 0.84416
 C499 C 0.82977 0.64834 0.85165
 C500 C 0.84454 0.65568 0.84432
 C501 C 0.86638 0.65589 0.82219
 C502 C 0.87354 0.67061 0.82941
 C503 C 0.86634 0.67785 0.84410
 C504 C 0.85184 0.67049 0.85162
 C505 C 0.84432 0.67783 0.86613
 C506 C 0.82963 0.67057 0.87333
 C507 C 0.82242 0.65585 0.86616
 H508 H 0.84984 0.62822 0.81078
 H509 H 0.81102 0.62818 0.84962
 H510 H 0.87199 0.65044 0.81075
 H511 H 0.87193 0.68930 0.84953
 H512 H 0.84975 0.68928 0.87172
 H513 H 0.81099 0.65038 0.87178
 C514 C 0.85190 0.14821 0.32927
 C515 C 0.84439 0.13368 0.32194
 C516 C 0.82968 0.12652 0.32917
 C517 C 0.82241 0.13374 0.34385
 C518 C 0.82975 0.14826 0.35134
 C519 C 0.84456 0.15556 0.34403
 C520 C 0.86644 0.15569 0.32194
 C521 C 0.87362 0.17040 0.32917
 C522 C 0.86642 0.17767 0.34384
 C523 C 0.85188 0.17035 0.35133
 C524 C 0.84435 0.17772 0.36583
 C525 C 0.82963 0.17050 0.37300
 C526 C 0.82239 0.15580 0.36583
 H527 H 0.84986 0.12805 0.31052
 H528 H 0.81096 0.12815 0.34928
 H529 H 0.87206 0.15022 0.31052
 H530 H 0.87202 0.18911 0.34927
 H531 H 0.84979 0.18916 0.37142
 H532 H 0.81094 0.15037 0.37143
 C533 C 0.64838 0.35137 0.32878
 C534 C 0.65590 0.36588 0.32144
 C535 C 0.67058 0.37308 0.32869
 C536 C 0.67780 0.36591 0.34340
 C537 C 0.67046 0.35139 0.35091
 C538 C 0.65569 0.34406 0.34358
 C539 C 0.63388 0.34385 0.32144
 C540 C 0.62669 0.32915 0.32869
 C541 C 0.63386 0.32192 0.34340
 C542 C 0.64836 0.32927 0.35091
 C543 C 0.65586 0.32195 0.36544
 C544 C 0.67054 0.32920 0.37263
 C545 C 0.67778 0.34390 0.36544
 H546 H 0.65046 0.37148 0.30999
 H547 H 0.68923 0.37152 0.34885
 H548 H 0.62828 0.34928 0.30999
 H549 H 0.62825 0.31049 0.34885
 H550 H 0.65041 0.31051 0.37105
 H551 H 0.68921 0.34935 0.37105
 C552 C 0.64827 0.85162 0.82972
 C553 C 0.65578 0.86616 0.82241
 C554 C 0.67049 0.87332 0.82964
 C555 C 0.67774 0.86609 0.84432
 C556 C 0.67040 0.85156 0.85180
 C557 C 0.65560 0.84426 0.84448
 C558 C 0.63374 0.84414 0.82239
 C559 C 0.62655 0.82943 0.82960
 C560 C 0.63375 0.82215 0.84428
 C561 C 0.64828 0.82946 0.85178
 C562 C 0.65580 0.82208 0.86628
 C563 C 0.67050 0.82930 0.87346
 C564 C 0.67775 0.84401 0.86629
 H565 H 0.65032 0.87179 0.81099
 H566 H 0.68918 0.87168 0.84976
 H567 H 0.62813 0.84962 0.81097
 H568 H 0.62814 0.81070 0.84971
 H569 H 0.65035 0.81064 0.87186
 H570 H 0.68919 0.84944 0.87190
 C571 C 0.14833 0.35163 0.82990
 C572 C 0.15584 0.36615 0.82257
 C573 C 0.17055 0.37331 0.82979
 C574 C 0.17781 0.36610 0.84447
 C575 C 0.17046 0.35157 0.85197
 C576 C 0.15566 0.34428 0.84466
 C577 C 0.13379 0.34415 0.82257
 C578 C 0.12660 0.32944 0.82980
 C579 C 0.13380 0.32217 0.84448
 C580 C 0.14833 0.32948 0.85197
 C581 C 0.15585 0.32211 0.86647
 C582 C 0.17057 0.32933 0.87364
 C583 C 0.17781 0.34403 0.86647
 H584 H 0.15038 0.37178 0.81115
 H585 H 0.18926 0.37168 0.84991
 H586 H 0.12818 0.34962 0.81115
 H587 H 0.12819 0.31072 0.84992
 H588 H 0.15040 0.31067 0.87207
 H589 H 0.18926 0.34946 0.87206
 C590 C 0.14826 0.85210 0.32922
 C591 C 0.15577 0.86663 0.32190
 C592 C 0.17046 0.87381 0.32915
 C593 C 0.17769 0.86662 0.34385
 C594 C 0.17035 0.85209 0.35134
 C595 C 0.15557 0.84477 0.34401
 C596 C 0.13375 0.84459 0.32187
 C597 C 0.12657 0.82989 0.32910
 C598 C 0.13374 0.82264 0.34380
 C599 C 0.14825 0.82997 0.35132
 C600 C 0.15575 0.82263 0.36583
 C601 C 0.17044 0.82986 0.37303
 C602 C 0.17768 0.84457 0.36586
 H603 H 0.15033 0.87224 0.31046
 H604 H 0.18913 0.87222 0.34930
 H605 H 0.12816 0.85005 0.31043
 H606 H 0.12813 0.81119 0.34924
 H607 H 0.15030 0.81118 0.37143
 H608 H 0.18911 0.85001 0.37147
 O609 O 0.22821 0.98414 0.25169
 O610 O 0.25179 1.01747 0.22831
 O611 O 0.25173 0.98414 0.22824
 O612 O 0.22824 1.01747 0.25173
 O613 O 0.24819 1.01739 0.27173
 O614 O 0.27168 0.98406 0.24823
 O615 O 0.27174 1.01738 0.24830
 O616 O 0.24815 0.98406 0.27168
 Cu617 Cu 0.23798 1.00081 0.23797
 Cu618 Cu 0.26195 1.00072 0.26200
 C619 C 0.23424 0.97843 0.26560
 C620 C 0.26571 1.02310 0.23439
 C621 C 0.26563 0.97842 0.23431
 C622 C 0.23429 1.02311 0.26566
 O623 O 0.22808 0.48354 0.75209
 O624 O 0.25153 0.51681 0.72851
 O625 O 0.25149 0.48348 0.72854
 O626 O 0.22811 0.51687 0.75206
 O627 O 0.24816 0.51684 0.77196
 O628 O 0.27154 0.48345 0.74843
 O629 O 0.27158 0.51678 0.74841
 O630 O 0.24812 0.48351 0.77199
 Cu631 Cu 0.23778 0.50017 0.73829
 Cu632 Cu 0.26187 0.50014 0.76220
 C633 C 0.23418 0.47785 0.76598
 C634 C 0.26548 0.52246 0.73452
 C635 C 0.26542 0.47778 0.73455
 C636 C 0.23423 0.52254 0.76594
 O637 O 0.75181 -0.01698 0.27184
 O638 O 0.72842 0.01637 0.24827
 O639 O 0.72834 -0.01696 0.24836
 O640 O 0.75189 0.01635 0.27175
 O641 O 0.77189 0.01624 0.25180
 O642 O 0.74833 -0.01706 0.22840
 O643 O 0.74841 0.01626 0.22832
 O644 O 0.77180 -0.01709 0.25188
 Cu645 Cu 0.73810 -0.00029 0.26207
 Cu646 Cu 0.76213 -0.00042 0.23809
 C647 C 0.76572 -0.02271 0.26580
 C648 C 0.73450 0.02199 0.23435
 C649 C 0.73440 -0.02268 0.23446
 C650 C 0.76583 0.02197 0.26569
 O651 O 0.74857 0.48311 0.72845
 O652 O 0.77208 0.51638 0.75194
 O653 O 0.77209 0.48305 0.75189
 O654 O 0.74855 0.51644 0.72851
 O655 O 0.72860 0.51640 0.74850
 O656 O 0.75213 0.48302 0.77188
 O657 O 0.75212 0.51635 0.77194
 O658 O 0.72861 0.48308 0.74844
 Cu659 Cu 0.76234 0.49975 0.73818
 Cu660 Cu 0.73835 0.49971 0.76221
 C661 C 0.73466 0.47743 0.73451
 C662 C 0.76603 0.52204 0.76587
 C663 C 0.76604 0.47735 0.76580
 C664 C 0.73464 0.52211 0.73460
 O665 O 0.24815 0.48326 0.22836
 O666 O 0.27169 0.51660 0.25175
 O667 O 0.27164 0.48327 0.25183
 O668 O 0.24820 0.51659 0.22827
 O669 O 0.22822 0.51668 0.24824
 O670 O 0.25166 0.48335 0.27179
 O671 O 0.25170 0.51668 0.27171
 O672 O 0.22817 0.48335 0.24833
 Cu673 Cu 0.26194 0.49992 0.23804
 Cu674 Cu 0.23792 0.50002 0.26203
 C675 C 0.23423 0.47763 0.23444
 C676 C 0.26563 0.52232 0.26564
 C677 C 0.26557 0.47763 0.26575
 C678 C 0.23429 0.52231 0.23432
 O679 O 0.74809 1.01692 0.77200
 O680 O 0.77156 0.98356 0.74851
 O681 O 0.77155 1.01689 0.74849
 O682 O 0.74809 0.98359 0.77201
 O683 O 0.72808 0.98360 0.75208
 O684 O 0.75155 1.01690 0.72855
 O685 O 0.75155 0.98357 0.72858
 O686 O 0.72809 1.01693 0.75206
 Cu687 Cu 0.76184 1.00024 0.76227
 Cu688 Cu 0.73780 1.00025 0.73831
 C689 C 0.73417 1.02260 0.76596
 C690 C 0.76548 0.97789 0.73462
 C691 C 0.76547 1.02257 0.73459
 C692 C 0.73416 0.97792 0.76598
 O693 O 0.72849 0.48342 0.25141
 O694 O 0.75205 0.51677 0.22805
 O695 O 0.75205 0.48344 0.22799
 O696 O 0.72852 0.51675 0.25148
 O697 O 0.74846 0.51668 0.27149
 O698 O 0.77198 0.48338 0.24799
 O699 O 0.77199 0.51671 0.24805
 O700 O 0.74843 0.48335 0.27141
 Cu701 Cu 0.73827 0.50010 0.23771
 Cu702 Cu 0.76223 0.50002 0.26175
 C703 C 0.73452 0.47770 0.26531
 C704 C 0.76596 0.52242 0.23414
 C705 C 0.76595 0.47774 0.23406
 C706 C 0.73455 0.52239 0.26541
 O707 O 0.24823 -0.01707 0.72852
 O708 O 0.27177 0.01622 0.75196
 O709 O 0.27180 -0.01711 0.75191
 O710 O 0.24821 0.01626 0.72856
 O711 O 0.22829 0.01623 0.74859
 O712 O 0.25188 -0.01714 0.77194
 O713 O 0.25185 0.01619 0.77199
 O714 O 0.22831 -0.01710 0.74855
 Cu715 Cu 0.26201 -0.00042 0.73822
 Cu716 Cu 0.23807 -0.00046 0.76229
 C717 C 0.23433 -0.02275 0.73461
 C718 C 0.26574 0.02187 0.76590
 C719 C 0.26578 -0.02281 0.76582
 C720 C 0.23431 0.02193 0.73467
 O721 O 0.24832 0.27150 0.98365
 O722 O 0.27186 0.24803 1.01694
 O723 O 0.27184 0.24802 0.98364
 O724 O 0.24833 0.27150 1.01695
 O725 O 0.22838 0.25150 1.01697
 O726 O 0.25189 0.22802 0.98366
 O727 O 0.25191 0.22803 1.01696
 O728 O 0.22837 0.25150 0.98367
 Cu729 Cu 0.26210 0.26178 1.00029
 Cu730 Cu 0.23812 0.23775 1.00032
 C731 C 0.23440 0.26543 0.97799
 C732 C 0.26582 0.23411 1.02262
 C733 C 0.26579 0.23409 0.97798
 C734 C 0.23442 0.26542 1.02263
 O735 O 0.24795 0.77197 0.48319
 O736 O 0.27143 0.74842 0.51646
 O737 O 0.27146 0.74849 0.48316
 O738 O 0.24791 0.77189 0.51649
 O739 O 0.22795 0.75190 0.51643
 O740 O 0.25151 0.72849 0.48311
 O741 O 0.25148 0.72843 0.51641
 O742 O 0.22799 0.75198 0.48313
 Cu743 Cu 0.26170 0.76221 0.49983
 Cu744 Cu 0.23772 0.73818 0.49976
 C745 C 0.23404 0.76592 0.47749
 C746 C 0.26538 0.73449 0.52210
 C747 C 0.26543 0.73458 0.47746
 C748 C 0.23399 0.76581 0.52214
 O749 O 0.27201 0.75201 -0.01685
 O750 O 0.24852 0.72855 0.01647
 O751 O 0.24858 0.72847 -0.01682
 O752 O 0.27194 0.75209 0.01645
 O753 O 0.25191 0.77204 0.01636
 O754 O 0.22855 0.74842 -0.01691
 O755 O 0.22848 0.74850 0.01639
 O756 O 0.25198 0.77195 -0.01694
 Cu757 Cu 0.26228 0.73827 -0.00018
 Cu758 Cu 0.23821 0.76224 -0.00028
 C759 C 0.26592 0.76590 -0.02257
 C760 C 0.23457 0.73461 0.02211
 C761 C 0.23465 0.73450 -0.02253
 C762 C 0.26584 0.76601 0.02207
 O763 O 0.22789 0.24793 0.48347
 O764 O 0.25135 0.27140 0.51678
 O765 O 0.25138 0.27140 0.48348
 O766 O 0.22787 0.24791 0.51677
 O767 O 0.24786 0.22792 0.51678
 O768 O 0.27137 0.25141 0.48350
 O769 O 0.27133 0.25141 0.51680
 O770 O 0.24788 0.22794 0.48348
 Cu771 Cu 0.23761 0.26168 0.50013
 Cu772 Cu 0.26162 0.23765 0.50014
 C773 C 0.23397 0.23401 0.47780
 C774 C 0.26526 0.26534 0.52246
 C775 C 0.26531 0.26533 0.47782
 C776 C 0.23393 0.23399 0.52245
 O777 O 0.74815 0.77144 0.98355
 O778 O 0.77161 0.74790 1.01684
 O779 O 0.77167 0.74797 0.98354
 O780 O 0.74809 0.77138 1.01685
 O781 O 0.72814 0.75138 1.01679
 O782 O 0.75172 0.72797 0.98348
 O783 O 0.75166 0.72790 1.01678
 O784 O 0.72819 0.75145 0.98349
 Cu785 Cu 0.76190 0.76169 1.00020
 Cu786 Cu 0.73792 0.73766 1.00013
 C787 C 0.73425 0.76538 0.97785
 C788 C 0.76556 0.73396 1.02248
 C789 C 0.76564 0.73406 0.97784
 C790 C 0.73417 0.76530 1.02249
 O791 O 0.75177 0.22828 0.48300
 O792 O 0.72823 0.25181 0.51625
 O793 O 0.72824 0.25176 0.48295
 O794 O 0.75174 0.22832 0.51630
 O795 O 0.77170 0.24832 0.51627
 O796 O 0.74820 0.27175 0.48292
 O797 O 0.74818 0.27180 0.51622
 O798 O 0.77172 0.24827 0.48297
 Cu799 Cu 0.73798 0.23802 0.49963
 Cu800 Cu 0.76196 0.26205 0.49959
 C801 C 0.76568 0.23434 0.47732
 C802 C 0.73427 0.26573 0.52191
 C803 C 0.73429 0.26567 0.47726
 C804 C 0.76565 0.23440 0.52196
 O805 O 0.77211 0.25177 -0.01691
 O806 O 0.74867 0.22822 0.01640
 O807 O 0.74865 0.22826 -0.01690
 O808 O 0.77215 0.25172 0.01639
 O809 O 0.75215 0.27169 0.01644
 O810 O 0.72865 0.24823 -0.01686
 O811 O 0.72867 0.24820 0.01644
 O812 O 0.75211 0.27174 -0.01686
 Cu813 Cu 0.76241 0.23797 -0.00026
 Cu814 Cu 0.73838 0.26198 -0.00021
 C815 C 0.76603 0.26569 -0.02256
 C816 C 0.73475 0.23427 0.02209
 C817 C 0.73472 0.23432 -0.02255
 C818 C 0.76607 0.26563 0.02209
 O819 O 0.77152 0.75185 0.48351
 O820 O 0.74810 0.72831 0.51683
 O821 O 0.74808 0.72833 0.48353
 O822 O 0.77155 0.75183 0.51681
 O823 O 0.75153 0.77179 0.51683
 O824 O 0.72806 0.74828 0.48355
 O825 O 0.72808 0.74827 0.51685
 O826 O 0.75150 0.77181 0.48353
 Cu827 Cu 0.76183 0.73807 0.50016
 Cu828 Cu 0.73778 0.76205 0.50020
 C829 C 0.76543 0.76577 0.47785
 C830 C 0.73418 0.73436 0.52252
 C831 C 0.73415 0.73438 0.47787
 C832 C 0.76547 0.76574 0.52249
 O833 O 0.98398 0.25153 0.22822
 O834 O 1.01731 0.22803 0.25172
 O835 O 0.98398 0.22802 0.25169
 O836 O 1.01731 0.25155 0.22826
 O837 O 1.01726 0.27151 0.24823
 O838 O 0.98393 0.24798 0.27166
 O839 O 1.01726 0.24800 0.27169
 O840 O 0.98393 0.27149 0.24820
 Cu841 Cu 1.00065 0.23777 0.23795
 Cu842 Cu 1.00059 0.26176 0.26196
 C843 C 0.97828 0.26544 0.23428
 C844 C 1.02296 0.23409 0.26563
 C845 C 0.97828 0.23407 0.26559
 C846 C 1.02296 0.26546 0.23433
 O847 O 0.48337 0.24811 0.77167
 O848 O 0.51664 0.27163 0.74815
 O849 O 0.48331 0.27160 0.74819
 O850 O 0.51669 0.24814 0.77163
 O851 O 0.51671 0.22816 0.75168
 O852 O 0.48333 0.25162 0.72823
 O853 O 0.51665 0.25165 0.72820
 O854 O 0.48339 0.22813 0.75171
 Cu855 Cu 0.50000 0.26189 0.76193
 Cu856 Cu 0.50002 0.23787 0.73794
 C857 C 0.47771 0.23419 0.76562
 C858 C 0.52231 0.26557 0.73424
 C859 C 0.47763 0.26553 0.73429
 C860 C 0.52239 0.23423 0.76557
 O861 O 0.01630 0.25205 0.77208
 O862 O -0.01700 0.22863 0.74854
 O863 O 0.01633 0.22855 0.74862
 O864 O -0.01702 0.25214 0.77199
 O865 O -0.01693 0.27211 0.75201
 O866 O 0.01642 0.24852 0.72864
 O867 O -0.01691 0.24861 0.72856
 O868 O 0.01640 0.27203 0.75210
 Cu869 Cu -0.00036 0.23833 0.76232
 Cu870 Cu -0.00025 0.26233 0.73831
 C871 C 0.02202 0.26596 0.76602
 C872 C -0.02262 0.23470 0.73461
 C873 C 0.02205 0.23459 0.73472
 C874 C -0.02266 0.26607 0.76591
 O875 O 0.51650 0.25134 0.27133
 O876 O 0.48316 0.22779 0.24797
 O877 O 0.51649 0.22784 0.24787
 O878 O 0.48318 0.25128 0.27144
 O879 O 0.48308 0.27126 0.25147
 O880 O 0.51639 0.24782 0.22790
 O881 O 0.48306 0.24777 0.22800
 O882 O 0.51640 0.27131 0.25136
 Cu883 Cu 0.49984 0.23754 0.26167
 Cu884 Cu 0.49972 0.26155 0.23766
 C885 C 0.52213 0.26526 0.26525
 C886 C 0.47743 0.23384 0.23409
 C887 C 0.52211 0.23391 0.23394
 C888 C 0.47746 0.26519 0.26540
 O889 O 0.98366 0.74829 0.77162
 O890 O 1.01696 0.77177 0.74810
 O891 O 0.98363 0.77178 0.74814
 O892 O 1.01699 0.74827 0.77158
 O893 O 1.01697 0.72829 0.75162
 O894 O 0.98362 0.75180 0.72818
 O895 O 1.01695 0.75179 0.72814
 O896 O 0.98365 0.72831 0.75166
 Cu897 Cu 1.00031 0.76204 0.76187
 Cu898 Cu 1.00029 0.73803 0.73789
 C899 C 0.97799 0.73437 0.76558
 C900 C 1.02263 0.76570 0.73419
 C901 C 0.97794 0.76572 0.73425
 C902 C 1.02266 0.73435 0.76552
 O903 O 0.48345 0.75214 0.22802
 O904 O 0.51674 0.72861 0.25153
 O905 O 0.48342 0.72864 0.25150
 O906 O 0.51678 0.75210 0.22805
 O907 O 0.51677 0.77208 0.24800
 O908 O 0.48340 0.74863 0.27146
 O909 O 0.51673 0.74860 0.27149
 O910 O 0.48344 0.77212 0.24798
 Cu911 Cu 0.50010 0.73836 0.23776
 Cu912 Cu 0.50008 0.76237 0.26175
 C913 C 0.47778 0.76607 0.23407
 C914 C 0.52241 0.73467 0.26544
 C915 C 0.47773 0.73471 0.26540
 C916 C 0.52246 0.76601 0.23410
 O917 O -0.01690 0.77187 0.25169
 O918 O 0.01646 0.74843 0.22819
 O919 O -0.01687 0.74834 0.22826
 O920 O 0.01642 0.77196 0.25162
 O921 O 0.01652 0.75201 0.27162
 O922 O -0.01676 0.72839 0.24826
 O923 O 0.01656 0.72848 0.24818
 O924 O -0.01680 0.75192 0.27169
 Cu925 Cu -0.00023 0.76216 0.23792
 Cu926 Cu -0.00011 0.73819 0.26196
 C927 C -0.02254 0.76581 0.26561
 C928 C 0.02219 0.73454 0.23426
 C929 C -0.02248 0.73441 0.23435
 C930 C 0.02214 0.76593 0.26553
 O931 O 0.51629 0.75200 0.77188
 O932 O 0.48302 0.72854 0.74834
 O933 O 0.51634 0.72849 0.74843
 O934 O 0.48296 0.75205 0.77179
 O935 O 0.48303 0.77202 0.75181
 O936 O 0.51641 0.74846 0.72845
 O937 O 0.48309 0.74851 0.72835
 O938 O 0.51636 0.77197 0.75189
 Cu939 Cu 0.49964 0.73826 0.76213
 Cu940 Cu 0.49973 0.76225 0.73811
 C941 C 0.52199 0.76591 0.76582
 C942 C 0.47739 0.73460 0.73441
 C943 C 0.52206 0.73454 0.73453
 C944 C 0.47731 0.76597 0.76570
 C945 C 0.41367 0.30542 0.30585
 C946 C 0.41518 0.31000 0.28685
 C947 C 0.42835 0.30197 0.27878
 C948 C 0.43872 0.29014 0.29049
 C949 C 0.42557 0.27782 0.29821
 C950 C 0.41240 0.28586 0.30628
 C951 C 0.43125 0.30954 0.31349
 C952 C 0.44443 0.30150 0.30541
 C953 C 0.39940 0.31399 0.31446
 C954 C 0.38748 0.32088 0.32136
 C955 C 0.45281 0.28142 0.28172
 C956 C 0.46418 0.27409 0.27435
 H957 H 0.40667 0.31880 0.28032
 H958 H 0.43112 0.30389 0.26533
 H959 H 0.42651 0.26401 0.29742
 H960 H 0.40207 0.27892 0.31241
 H961 H 0.43318 0.31802 0.32428
 H962 H 0.45765 0.30309 0.30928
 C963 C 0.41334 0.80632 0.80575
 C964 C 0.40974 0.80210 0.78696
 C965 C 0.42294 0.79406 0.77897
 C966 C 0.43847 0.79101 0.79054
 C967 C 0.43145 0.78114 0.80596
 C968 C 0.41824 0.78919 0.81395
 C969 C 0.42993 0.81678 0.80553
 C970 C 0.44315 0.80873 0.79753
 C971 C 0.39903 0.81490 0.81428
 C972 C 0.38707 0.82178 0.82114
 C973 C 0.45259 0.78226 0.78186
 C974 C 0.46400 0.77491 0.77456
 H975 H 0.39786 0.80518 0.78049
 H976 H 0.42237 0.79024 0.76566
 H977 H 0.43643 0.76891 0.81023
 H978 H 0.41190 0.78386 0.82507
 H979 H 0.43118 0.82939 0.81116
 H980 H 0.45572 0.81444 0.79630
 C981 C -0.08663 0.30643 0.80595
 C982 C -0.07927 0.31654 0.79084
 C983 C -0.06606 0.30849 0.78285
 C984 C -0.06150 0.29112 0.79074
 C985 C -0.07822 0.28089 0.79053
 C986 C -0.09142 0.28893 0.79851
 C987 C -0.07130 0.30293 0.81767
 C988 C -0.05808 0.29487 0.80967
 C989 C -0.10094 0.31501 0.81447
 C990 C -0.11290 0.32189 0.82133
 C991 C -0.04737 0.28237 0.78206
 C992 C -0.03597 0.27502 0.77477
 H993 H -0.08402 0.32893 0.78679
 H994 H -0.05948 0.31399 0.77195
 H995 H -0.07957 0.26841 0.78462
 H996 H -0.10408 0.28335 0.79945
 H997 H -0.07087 0.30647 0.83106
 H998 H -0.04632 0.29152 0.81621
 C999 C -0.08647 0.80602 0.30585
 C1000 C -0.07591 0.79449 0.31769
 C1001 C -0.06270 0.78646 0.30966
 C1002 C -0.06136 0.79075 0.29058
 C1003 C -0.06029 0.81032 0.28982
 C1004 C -0.07350 0.81835 0.29785
 C1005 C -0.09214 0.79436 0.29116
 C1006 C -0.07895 0.78633 0.28314
 C1007 C -0.10078 0.81458 0.31441
 C1008 C -0.11272 0.82146 0.32128
 C1009 C -0.04724 0.78203 0.28186
 C1010 C -0.03585 0.77471 0.27453
 H1011 H -0.07856 0.79279 0.33119
 H1012 H -0.05404 0.77788 0.31628
 H1013 H -0.05005 0.81725 0.28353
 H1014 H -0.07458 0.83217 0.29844
 H1015 H -0.10536 0.79256 0.28738
 H1016 H -0.08087 0.77767 0.27249
 C1017 C 0.58620 0.69434 0.30576
 C1018 C 0.57705 0.70759 0.31696
 C1019 C 0.56388 0.71564 0.30891
 C1020 C 0.56114 0.70965 0.29045
 C1021 C 0.55889 0.69020 0.29169
 C1022 C 0.57207 0.68215 0.29974
 C1023 C 0.59164 0.70416 0.28969
 C1024 C 0.57847 0.71221 0.28165
 C1025 C 0.60047 0.68575 0.31435
 C1026 C 0.61240 0.67886 0.32124
 C1027 C 0.54705 0.71839 0.28171
 C1028 C 0.53568 0.72574 0.27436
 H1029 H 0.58060 0.71039 0.33006
 H1030 H 0.55614 0.72534 0.31511
 H1031 H 0.54791 0.68337 0.28669
 H1032 H 0.57239 0.66841 0.30165
 H1033 H 0.60469 0.70474 0.28504
 H1034 H 0.58025 0.71968 0.27011
 C1035 C 0.58635 0.19401 0.80575
 C1036 C 0.59197 0.20536 0.79079
 C1037 C 0.57878 0.21339 0.78278
 C1038 C 0.56123 0.20928 0.79050
 C1039 C 0.56282 0.21388 0.80948
 C1040 C 0.57603 0.20585 0.81750
 C1041 C 0.57316 0.18168 0.79810
 C1042 C 0.55995 0.18971 0.79008
 C1043 C 0.60065 0.18545 0.81430
 C1044 C 0.61260 0.17857 0.82117
 C1045 C 0.54710 0.21800 0.78179
 C1046 C 0.53570 0.22533 0.77447
 H1047 H 0.60517 0.20696 0.78684
 H1048 H 0.58067 0.22185 0.77196
 H1049 H 0.55432 0.22265 0.81605
 H1050 H 0.57884 0.20774 0.83094
 H1051 H 0.57411 0.16786 0.79893
 H1052 H 0.54958 0.18278 0.78404
 C1053 C 1.08654 0.69402 0.80571
 C1054 C 1.08610 0.69097 0.78636
 C1055 C 1.07292 0.69901 0.77833
 C1056 C 1.06145 0.70933 0.79044
 C1057 C 1.07361 0.72157 0.79975
 C1058 C 1.08679 0.71352 0.80777
 C1059 C 1.06887 0.68846 0.81214
 C1060 C 1.05567 0.69651 0.80411
 C1061 C 1.10083 0.68544 0.81427
 C1062 C 1.11277 0.67855 0.82114
 C1063 C 1.04735 0.71808 0.78173
 C1064 C 1.03596 0.72542 0.77441
 H1065 H 1.09533 0.68316 0.77955
 H1066 H 1.07085 0.69810 0.76466
 H1067 H 1.07200 0.73535 0.80002
 H1068 H 1.09647 0.72041 0.81492
 H1069 H 1.06690 0.67903 0.82212
 H1070 H 1.04239 0.69399 0.80721
 C1071 C 1.08688 0.19385 0.30586
 C1072 C 1.09241 0.20939 0.29526
 C1073 C 1.07922 0.21741 0.28724
 C1074 C 1.06177 0.20913 0.29059
 C1075 C 1.05999 0.20872 0.31010
 C1076 C 1.07319 0.20069 0.31813
 C1077 C 1.07716 0.18233 0.29332
 C1078 C 1.06396 0.19037 0.28529
 C1079 C 1.10117 0.18528 0.31442
 C1080 C 1.11312 0.17840 0.32130
 C1081 C 1.04765 0.21785 0.28187
 C1082 C 1.03626 0.22518 0.27454
 H1083 H 1.10554 0.21371 0.29415
 H1084 H 1.08105 0.22861 0.27926
 H1085 H 1.04929 0.21425 0.31700
 H1086 H 1.07382 0.19933 0.33191
 H1087 H 1.08036 0.16904 0.29097
 H1088 H 1.05584 0.18395 0.27606
 C1089 C 0.58613 0.30585 0.69397
 C1090 C 0.57671 0.31722 0.70688
 C1091 C 0.56353 0.30918 0.71492
 C1092 C 0.56106 0.29057 0.70926
 C1093 C 0.57845 0.28199 0.71219
 C1094 C 0.59163 0.29003 0.70416
 C1095 C 0.57222 0.29945 0.68174
 C1096 C 0.55903 0.29141 0.68978
 C1097 C 0.60041 0.31443 0.68540
 C1098 C 0.61235 0.32131 0.67852
 C1099 C 0.54697 0.28183 0.71799
 C1100 C 0.53559 0.27450 0.72533
 H1101 H 0.58009 0.33042 0.70947
 H1102 H 0.55561 0.31549 0.72440
 H1103 H 0.58027 0.27060 0.71990
 H1104 H 0.60472 0.28552 0.70499
 H1105 H 0.57267 0.30110 0.66799
 H1106 H 0.54819 0.28617 0.68292
 C1107 C 0.58644 0.80613 0.19392
 C1108 C 0.58367 0.78765 0.18797
 C1109 C 0.57046 0.77965 0.19599
 C1110 C 0.56130 0.79091 0.20918
 C1111 C 0.55591 0.80698 0.19931
 C1112 C 0.56913 0.81499 0.19128
 C1113 C 0.58862 0.80492 0.21335
 C1114 C 0.57541 0.79693 0.22137
 C1115 C 0.60075 0.81466 0.18536
 C1116 C 0.61272 0.82150 0.17850
 C1117 C 0.54717 0.78222 0.21789
 C1118 C 0.53577 0.77490 0.22521
 H1119 H 0.59140 0.78140 0.17830
 H1120 H 0.56687 0.76655 0.19319
 H1121 H 0.54286 0.81166 0.19868
 H1122 H 0.56741 0.82652 0.18377
 H1123 H 0.59958 0.80993 0.22022
 H1124 H 0.57506 0.79508 0.23511
 C1125 C 1.08682 0.30580 0.19418
 C1126 C 1.07408 0.31810 0.20262
 C1127 C 1.06089 0.31005 0.21064
 C1128 C 1.06174 0.29049 0.20942
 C1129 C 1.07937 0.28569 0.21654
 C1130 C 1.09255 0.29374 0.20853
 C1131 C 1.07599 0.29468 0.18222
 C1132 C 1.06279 0.28662 0.19024
 C1133 C 1.10111 0.31439 0.18563
 C1134 C 1.11304 0.32128 0.17876
 C1135 C 1.04764 0.28174 0.21813
 C1136 C 1.03625 0.27439 0.22544
 H1137 H 1.07531 0.33192 0.20232
 H1138 H 1.05081 0.31696 0.21721
 H1139 H 1.08133 0.27675 0.22696
 H1140 H 1.10580 0.29169 0.21210
 H1141 H 1.07845 0.29326 0.16866
 H1142 H 1.05395 0.27831 0.18354
 C1143 C 1.08649 0.80594 0.69394
 C1144 C 1.06929 0.81515 0.69191
 C1145 C 1.05609 0.80711 0.69994
 C1146 C 1.06140 0.79066 0.70921
 C1147 C 1.07584 0.79607 0.72131
 C1148 C 1.08902 0.80410 0.71328
 C1149 C 1.08331 0.78770 0.68748
 C1150 C 1.07012 0.77967 0.69551
 C1151 C 1.10078 0.81450 0.68538
 C1152 C 1.11273 0.82138 0.67850
 C1153 C 1.04730 0.78193 0.71793
 C1154 C 1.03592 0.77461 0.72527
 H1155 H 1.06762 0.82694 0.68479
 H1156 H 1.04311 0.81201 0.69970
 H1157 H 1.07571 0.79381 0.73498
 H1158 H 1.10019 0.80872 0.72008
 H1159 H 1.09075 0.78163 0.67748
 H1160 H 1.06626 0.76672 0.69238
 C1161 C 0.41364 0.69435 0.69405
 C1162 C 0.43105 0.69140 0.68550
 C1163 C 0.44422 0.69945 0.69356
 C1164 C 0.43868 0.70964 0.70937
 C1165 C 0.42925 0.69671 0.72070
 C1166 C 0.41608 0.68868 0.71265
 C1167 C 0.41160 0.71384 0.69489
 C1168 C 0.42476 0.72187 0.70294
 C1169 C 0.39937 0.68578 0.68546
 C1170 C 0.38745 0.67889 0.67857
 C1171 C 0.45275 0.71837 0.71812
 C1172 C 0.46412 0.72570 0.72548
 H1173 H 0.43287 0.68368 0.67413
 H1174 H 0.45733 0.69862 0.68910
 H1175 H 0.43262 0.69409 0.73389
 H1176 H 0.40818 0.67917 0.71894
 H1177 H 0.40078 0.72073 0.68961
 H1178 H 0.42521 0.73564 0.70456
 C1179 C 0.41342 0.19359 0.19413
 C1180 C 0.40796 0.20405 0.20977
 C1181 C 0.42117 0.21207 0.21774
 C1182 C 0.43857 0.20886 0.20929
 C1183 C 0.43622 0.21430 0.19061
 C1184 C 0.42300 0.20627 0.18263
 C1185 C 0.42721 0.18131 0.20076
 C1186 C 0.44044 0.18934 0.20873
 C1187 C 0.39910 0.18504 0.18562
 C1188 C 0.38713 0.17817 0.17878
 C1189 C 0.45270 0.21758 0.21796
 C1190 C 0.46411 0.22492 0.22524
 H1191 H 0.39485 0.20507 0.21421
 H1192 H 0.41938 0.21996 0.22900
 H1193 H 0.44425 0.22362 0.18420
 H1194 H 0.41969 0.20871 0.16940
 H1195 H 0.42664 0.16752 0.19930
 H1196 H 0.45120 0.18243 0.21412
 C1197 C -0.08629 0.69390 0.19435
 C1198 C -0.09184 0.70448 0.20988
 C1199 C -0.07867 0.71257 0.21786
 C1200 C -0.06122 0.70928 0.20953
 C1201 C -0.06347 0.71458 0.19079
 C1202 C -0.07665 0.70649 0.18281
 C1203 C -0.07254 0.68167 0.20115
 C1204 C -0.05935 0.68976 0.20914
 C1205 C -0.10056 0.68528 0.18582
 C1206 C -0.11248 0.67836 0.17897
 C1207 C -0.04714 0.71807 0.21821
 C1208 C -0.03576 0.72545 0.22549
 H1209 H -0.10497 0.70554 0.21424
 H1210 H -0.08053 0.72054 0.22905
 H1211 H -0.05541 0.72385 0.18436
 H1212 H -0.07988 0.70883 0.16953
 H1213 H -0.07310 0.66787 0.19980
 H1214 H -0.04862 0.68290 0.21463
 C1215 C -0.08639 0.19450 0.69424
 C1216 C -0.07328 0.20235 0.68196
 C1217 C -0.06011 0.21039 0.69002
 C1218 C -0.06135 0.20977 0.70957
 C1219 C -0.06280 0.19072 0.71399
 C1220 C -0.07597 0.18269 0.70593
 C1221 C -0.09210 0.20932 0.70574
 C1222 C -0.07894 0.21735 0.71379
 C1223 C -0.10065 0.18593 0.68565
 C1224 C -0.11257 0.17904 0.67875
 C1225 C -0.04727 0.21849 0.71832
 C1226 C -0.03590 0.22581 0.72568
 H1227 H -0.07425 0.20165 0.66815
 H1228 H -0.04979 0.21657 0.68312
 H1229 H -0.05424 0.18411 0.72267
 H1230 H -0.07869 0.16920 0.70771
 H1231 H -0.10532 0.21318 0.70741
 H1232 H -0.08090 0.22808 0.72236
 C1233 C 0.30575 0.41371 0.30603
 C1234 C 0.28823 0.41810 0.31369
 C1235 C 0.28021 0.43131 0.30566
 C1236 C 0.29049 0.43882 0.29075
 C1237 C 0.29427 0.42359 0.27900
 C1238 C 0.30229 0.41039 0.28703
 C1239 C 0.31587 0.43050 0.30650
 C1240 C 0.30784 0.44371 0.29846
 C1241 C 0.31430 0.39940 0.31459
 C1242 C 0.32117 0.38745 0.32146
 C1243 C 0.28178 0.45294 0.28202
 C1244 C 0.27446 0.46433 0.27468
 H1245 H 0.28263 0.41144 0.32448
 H1246 H 0.26774 0.43596 0.30957
 H1247 H 0.29096 0.42321 0.26555
 H1248 H 0.30584 0.39871 0.28045
 H1249 H 0.32824 0.43189 0.31261
 H1250 H 0.31333 0.45642 0.29769
 C1251 C 0.30622 -0.08676 0.80580
 C1252 C 0.29673 -0.07477 0.81808
 C1253 C 0.28866 -0.06156 0.81010
 C1254 C 0.29086 -0.06164 0.79062
 C1255 C 0.28461 -0.07931 0.78488
 C1256 C 0.29268 -0.09251 0.79286
 C1257 C 0.31833 -0.07514 0.79567
 C1258 C 0.31026 -0.06192 0.78769
 C1259 C 0.31483 -0.10107 0.81431
 C1260 C 0.32174 -0.11302 0.82116
 C1261 C 0.28209 -0.04752 0.78196
 C1262 C 0.27473 -0.03612 0.77468
 H1263 H 0.29640 -0.07649 0.83183
 H1264 H 0.28141 -0.05196 0.81701
 H1265 H 0.27471 -0.08129 0.77539
 H1266 H 0.28968 -0.10579 0.79019
 H1267 H 0.33204 -0.07710 0.79485
 H1268 H 0.31705 -0.05257 0.78003
 C1269 C 0.80634 0.41339 0.80590
 C1270 C 0.79047 0.41988 0.81543
 C1271 C 0.78243 0.43308 0.80742
 C1272 C 0.79104 0.43851 0.79067
 C1273 C 0.79195 0.42215 0.77990
 C1274 C 0.79999 0.40895 0.78790
 C1275 C 0.81768 0.42921 0.80354
 C1276 C 0.80964 0.44242 0.79553
 C1277 C 0.81492 0.39908 0.81444
 C1278 C 0.82180 0.38712 0.82131
 C1279 C 0.78231 0.45263 0.78197
 C1280 C 0.77497 0.46403 0.77467
 H1281 H 0.78596 0.41457 0.82742
 H1282 H 0.77103 0.43910 0.81256
 H1283 H 0.78675 0.42104 0.76711
 H1284 H 0.80167 0.39653 0.78196
 H1285 H 0.83086 0.42997 0.80779
 H1286 H 0.81592 0.45451 0.79291
 C1287 C 0.80581 -0.08664 0.30616
 C1288 C 0.79450 -0.09228 0.29119
 C1289 C 0.78650 -0.07909 0.28314
 C1290 C 0.79059 -0.06153 0.29084
 C1291 C 0.81016 -0.06026 0.29047
 C1292 C 0.81817 -0.07347 0.29852
 C1293 C 0.79395 -0.07631 0.31788
 C1294 C 0.78595 -0.06310 0.30982
 C1295 C 0.81435 -0.10095 0.31474
 C1296 C 0.82122 -0.11290 0.32163
 C1297 C 0.78189 -0.04741 0.28210
 C1298 C 0.77459 -0.03602 0.27474
 H1299 H 0.79290 -0.10549 0.28725
 H1300 H 0.77805 -0.08099 0.27232
 H1301 H 0.81711 -0.04989 0.28442
 H1302 H 0.83198 -0.07442 0.29937
 H1303 H 0.79203 -0.07911 0.33131
 H1304 H 0.77716 -0.05459 0.31636
 C1305 C 0.30568 0.58625 0.69411
 C1306 C 0.30795 0.56897 0.68509
 C1307 C 0.29992 0.55579 0.69316
 C1308 C 0.29042 0.56119 0.70945
 C1309 C 0.27826 0.57550 0.70376
 C1310 C 0.28628 0.58866 0.69570
 C1311 C 0.31196 0.58327 0.71243
 C1312 C 0.30393 0.57010 0.72049
 C1313 C 0.31424 0.60052 0.68551
 C1314 C 0.32111 0.61245 0.67861
 C1315 C 0.28170 0.54710 0.71821
 C1316 C 0.27438 0.53574 0.72557
 H1317 H 0.31522 0.56725 0.67341
 H1318 H 0.30031 0.54277 0.68840
 H1319 H 0.26455 0.57530 0.70587
 H1320 H 0.27945 0.59974 0.69090
 H1321 H 0.32185 0.59083 0.71853
 H1322 H 0.30695 0.56638 0.73350
 C1323 C 0.30621 1.08692 0.19432
 C1324 C 0.28880 1.09183 0.20191
 C1325 C 0.28072 1.07866 0.20990
 C1326 C 0.29082 1.06185 0.20954
 C1327 C 0.30828 1.06623 0.21731
 C1328 C 0.31637 1.07941 0.20931
 C1329 C 0.30251 1.07167 0.18256
 C1330 C 0.29442 1.05849 0.19056
 C1331 C 0.31483 1.10119 0.18578
 C1332 C 0.32174 1.11311 0.17891
 C1333 C 0.28204 1.04776 0.21823
 C1334 C 0.27466 1.03639 0.22552
 H1335 H 0.28330 1.10454 0.20106
 H1336 H 0.26830 1.08010 0.21591
 H1337 H 0.31381 1.05956 0.22814
 H1338 H 0.32882 1.08403 0.21329
 H1339 H 0.30595 1.07126 0.16914
 H1340 H 0.29093 1.04678 0.18400
 C1341 C 0.80621 0.58636 0.19403
 C1342 C 0.78668 0.58692 0.19243
 C1343 C 0.77866 0.57372 0.20044
 C1344 C 0.79095 0.56125 0.20927
 C1345 C 0.80170 0.57237 0.22130
 C1346 C 0.80972 0.58558 0.21329
 C1347 C 0.81140 0.56872 0.18720
 C1348 C 0.80337 0.55550 0.19522
 C1349 C 0.81477 0.60067 0.18548
 C1350 C 0.82163 0.61263 0.17861
 C1351 C 0.78223 0.54713 0.21797
 C1352 C 0.77489 0.53573 0.22528
 H1353 H 0.77975 0.59681 0.18560
 H1354 H 0.76486 0.57230 0.20047
 H1355 H 0.80291 0.57008 0.23492
 H1356 H 0.81780 0.59459 0.22004
 H1357 H 0.82056 0.56678 0.17697
 H1358 H 0.80565 0.54224 0.19186
 C1359 C 0.80568 1.08637 0.69421
 C1360 C 0.80825 1.06904 0.68540
 C1361 C 0.80022 1.05585 0.69346
 C1362 C 0.79042 1.06131 0.70955
 C1363 C 0.77822 1.07545 0.70354
 C1364 C 0.78624 1.08862 0.69549
 C1365 C 0.81170 1.08362 0.71266
 C1366 C 0.80368 1.07045 0.72072
 C1367 C 0.81424 1.10065 0.68562
 C1368 C 0.82112 1.11258 0.67873
 C1369 C 0.78170 1.04722 0.71830
 C1370 C 0.77438 1.03585 0.72565
 H1371 H 0.81572 1.06728 0.67385
 H1372 H 0.80081 1.04280 0.68882
 H1373 H 0.76448 1.07514 0.70544
 H1374 H 0.77937 1.09959 0.69048
 H1375 H 0.82142 1.09133 0.71884
 H1376 H 0.80653 1.06687 0.73381
 C1377 C 0.69429 0.58621 0.30576
 C1378 C 0.69699 0.57049 0.31718
 C1379 C 0.70502 0.55730 0.30911
 C1380 C 0.70957 0.56114 0.29043
 C1381 C 0.72018 0.57761 0.29105
 C1382 C 0.71215 0.59078 0.29911
 C1383 C 0.68459 0.57952 0.29011
 C1384 C 0.69262 0.56634 0.28205
 C1385 C 0.68572 0.60049 0.31436
 C1386 C 0.67883 0.61242 0.32125
 C1387 C 0.71830 0.54705 0.28168
 C1388 C 0.72563 0.53567 0.27433
 H1389 H 0.69294 0.56977 0.33042
 H1390 H 0.70786 0.54528 0.31544
 H1391 H 0.73290 0.57882 0.28565
 H1392 H 0.71799 0.60327 0.30060
 H1393 H 0.67247 0.58467 0.28574
 H1394 H 0.68738 0.56020 0.27078
 C1395 C 0.69402 1.08659 0.80616
 C1396 C 0.69898 1.09052 0.78761
 C1397 C 0.70698 1.07731 0.77960
 C1398 C 0.70926 1.06145 0.79090
 C1399 C 0.69120 1.05705 0.79717
 C1400 C 0.68318 1.07027 0.80519
 C1401 C 0.71073 1.08109 0.81483
 C1402 C 0.71874 1.06787 0.80681
 C1403 C 0.68547 1.10091 0.81471
 C1404 C 0.67861 1.11288 0.82157
 C1405 C 0.71796 1.04732 0.78219
 C1406 C 0.72528 1.03592 0.77486
 H1407 H 0.69641 1.10261 0.78132
 H1408 H 0.71128 1.07809 0.76644
 H1409 H 0.68524 1.04464 0.79546
 H1410 H 0.67035 1.06920 0.81036
 H1411 H 0.71581 1.08704 0.82627
 H1412 H 0.73068 1.06250 0.81138
 C1413 C 0.19417 0.58656 0.80619
 C1414 C 0.19505 0.57020 0.81697
 C1415 C 0.20306 0.55697 0.80894
 C1416 C 0.20938 0.56141 0.79092
 C1417 C 0.22075 0.57721 0.79326
 C1418 C 0.21275 0.59042 0.80128
 C1419 C 0.18551 0.58116 0.78946
 C1420 C 0.19351 0.56794 0.78143
 C1421 C 0.18564 0.60088 0.81474
 C1422 C 0.17878 0.61285 0.82160
 C1423 C 0.21806 0.54727 0.78220
 C1424 C 0.22536 0.53586 0.77486
 H1425 H 0.18985 0.56910 0.82977
 H1426 H 0.20471 0.54453 0.81486
 H1427 H 0.23393 0.57795 0.78899
 H1428 H 0.21909 0.60248 0.80389
 H1429 H 0.17409 0.58718 0.78437
 H1430 H 0.18894 0.56264 0.76947
 C1431 C 0.19395 1.08697 0.30587
 C1432 C 0.19672 1.07131 0.31734
 C1433 C 0.20479 1.05811 0.30931
 C1434 C 0.20927 1.06189 0.29061
 C1435 C 0.21984 1.07840 0.29114
 C1436 C 0.21178 1.09158 0.29916
 C1437 C 0.18423 1.08019 0.29026
 C1438 C 0.19229 1.06700 0.28224
 C1439 C 0.18535 1.10126 0.31443
 C1440 C 0.17844 1.11319 0.32130
 C1441 C 0.21803 1.04779 0.28189
 C1442 C 0.22537 1.03641 0.27457
 H1443 H 0.19270 1.07063 0.33059
 H1444 H 0.20768 1.04613 0.31569
 H1445 H 0.23254 1.07963 0.28569
 H1446 H 0.21758 1.10409 0.30058
 H1447 H 0.17208 1.08528 0.28590
 H1448 H 0.18705 1.06080 0.27101
 C1449 C 0.69433 0.41375 0.69412
 C1450 C 0.71382 0.41171 0.69491
 C1451 C 0.72186 0.42485 0.70298
 C1452 C 0.70964 0.43876 0.70947
 C1453 C 0.69674 0.42930 0.72080
 C1454 C 0.68869 0.41616 0.71273
 C1455 C 0.69136 0.43118 0.68562
 C1456 C 0.69942 0.44434 0.69369
 C1457 C 0.68574 0.39951 0.68551
 C1458 C 0.67884 0.38761 0.67860
 C1459 C 0.71839 0.45282 0.71823
 C1460 C 0.72574 0.46417 0.72558
 H1461 H 0.72069 0.40090 0.68960
 H1462 H 0.73564 0.42529 0.70457
 H1463 H 0.69415 0.43264 0.73400
 H1464 H 0.67920 0.40824 0.71902
 H1465 H 0.68362 0.43303 0.67427
 H1466 H 0.69858 0.45746 0.68926
 C1467 C 0.69399 -0.08647 0.19431
 C1468 C 0.71348 -0.08850 0.19508
 C1469 C 0.72154 -0.07534 0.20310
 C1470 C 0.70933 -0.06142 0.20956
 C1471 C 0.69645 -0.07084 0.22094
 C1472 C 0.68838 -0.08401 0.21293
 C1473 C 0.69102 -0.06906 0.18576
 C1474 C 0.69909 -0.05588 0.19379
 C1475 C 0.68539 -0.10074 0.18575
 C1476 C 0.67849 -0.11266 0.17889
 C1477 C 0.71809 -0.04733 0.21827
 C1478 C 0.72545 -0.03596 0.22558
 H1479 H 0.72035 -0.09933 0.18979
 H1480 H 0.73532 -0.07490 0.20467
 H1481 H 0.69387 -0.06746 0.23414
 H1482 H 0.67890 -0.09190 0.21925
 H1483 H 0.68326 -0.06725 0.17442
 H1484 H 0.69825 -0.04277 0.18932
 C1485 C 0.19394 0.41370 0.19439
 C1486 C 0.21344 0.41172 0.19514
 C1487 C 0.22147 0.42492 0.20313
 C1488 C 0.20923 0.43882 0.20959
 C1489 C 0.19638 0.42937 0.22101
 C1490 C 0.18835 0.41616 0.21301
 C1491 C 0.19090 0.43109 0.18583
 C1492 C 0.19894 0.44430 0.19383
 C1493 C 0.18537 0.39939 0.18587
 C1494 C 0.17850 0.38744 0.17902
 C1495 C 0.21796 0.45293 0.21827
 C1496 C 0.22530 0.46433 0.22557
 H1497 H 0.22033 0.40091 0.18985
 H1498 H 0.23524 0.42541 0.20468
 H1499 H 0.19382 0.43276 0.23420
 H1500 H 0.17890 0.40825 0.21936
 H1501 H 0.18312 0.43286 0.17449
 H1502 H 0.19805 0.45740 0.18934
 C1503 C 0.19392 -0.08651 0.69442
 C1504 C 0.18167 -0.07280 0.70129
 C1505 C 0.18974 -0.05963 0.70931
 C1506 C 0.20927 -0.06147 0.70968
 C1507 C 0.21454 -0.06363 0.69093
 C1508 C 0.20647 -0.07680 0.68290
 C1509 C 0.20453 -0.09209 0.70992
 C1510 C 0.21259 -0.07894 0.71794
 C1511 C 0.18531 -0.10077 0.68586
 C1512 C 0.17840 -0.11268 0.67898
 C1513 C 0.21804 -0.04739 0.71839
 C1514 C 0.22540 -0.03602 0.72571
 H1515 H 0.16787 -0.07339 0.69995
 H1516 H 0.18287 -0.04893 0.71486
 H1517 H 0.22379 -0.05553 0.68451
 H1518 H 0.20880 -0.07998 0.66961
 H1519 H 0.20561 -0.10524 0.71423
 H1520 H 0.22059 -0.08082 0.72911
 C1521 C 0.30562 0.30554 0.41399
 C1522 C 0.30099 0.31752 0.42881
 C1523 C 0.29294 0.30950 0.44200
 C1524 C 0.29031 0.29028 0.43907
 C1525 C 0.30822 0.28319 0.43532
 C1526 C 0.31627 0.29122 0.42214
 C1527 C 0.28872 0.29703 0.40888
 C1528 C 0.28068 0.28901 0.42205
 C1529 C 0.31420 0.31410 0.39971
 C1530 C 0.32109 0.32097 0.38778
 C1531 C 0.28157 0.28157 0.45316
 C1532 C 0.27423 0.27424 0.46454
 H1533 H 0.30380 0.33111 0.42893
 H1534 H 0.28885 0.31620 0.45342
 H1535 H 0.31407 0.27280 0.44241
 H1536 H 0.32901 0.28770 0.41793
 H1537 H 0.28352 0.29728 0.39603
 H1538 H 0.26859 0.28240 0.42049
 C1539 C 0.30613 0.80604 -0.08651
 C1540 C 0.30853 0.78657 -0.08650
 C1541 C 0.30051 0.77857 -0.07330
 C1542 C 0.29087 0.79081 -0.06139
 C1543 C 0.27870 0.80079 -0.07308
 C1544 C 0.28672 0.80879 -0.08628
 C1545 C 0.31231 0.81193 -0.06886
 C1546 C 0.30428 0.80391 -0.05564
 C1547 C 0.31469 0.81458 -0.10081
 C1548 C 0.32154 0.82144 -0.11277
 C1549 C 0.28216 0.78211 -0.04727
 C1550 C 0.27483 0.77479 -0.03588
 H1551 H 0.31589 0.77968 -0.09602
 H1552 H 0.30100 0.76482 -0.07152
 H1553 H 0.26498 0.80151 -0.07115
 H1554 H 0.27987 0.81638 -0.09566
 H1555 H 0.32212 0.82153 -0.06692
 H1556 H 0.30721 0.80665 -0.04238
 C1557 C 0.80612 0.30605 -0.08643
 C1558 C 0.80851 0.28658 -0.08650
 C1559 C 0.80051 0.27853 -0.07331
 C1560 C 0.79091 0.29072 -0.06134
 C1561 C 0.77871 0.30075 -0.07297
 C1562 C 0.78670 0.30880 -0.08616
 C1563 C 0.81233 0.31187 -0.06877
 C1564 C 0.80433 0.30381 -0.05557
 C1565 C 0.81465 0.31464 -0.10072
 C1566 C 0.82150 0.32152 -0.11267
 C1567 C 0.78222 0.28197 -0.04723
 C1568 C 0.77491 0.27462 -0.03585
 H1569 H 0.81585 0.27972 -0.09606
 H1570 H 0.80101 0.26477 -0.07158
 H1571 H 0.76499 0.30147 -0.07101
 H1572 H 0.77984 0.31642 -0.09549
 H1573 H 0.82214 0.32147 -0.06681
 H1574 H 0.80728 0.30650 -0.04230
 C1575 C 0.80551 0.80607 0.41393
 C1576 C 0.79805 0.81839 0.42725
 C1577 C 0.79005 0.81034 0.44046
 C1578 C 0.79029 0.79077 0.43904
 C1579 C 0.80925 0.78602 0.43727
 C1580 C 0.81724 0.79406 0.42407
 C1581 C 0.79041 0.79490 0.40835
 C1582 C 0.78242 0.78686 0.42154
 C1583 C 0.81404 0.81465 0.39963
 C1584 C 0.82089 0.82153 0.38769
 C1585 C 0.78161 0.78204 0.45316
 C1586 C 0.77431 0.77469 0.46455
 H1587 H 0.79898 0.83220 0.42640
 H1588 H 0.78413 0.81726 0.45092
 H1589 H 0.81581 0.77713 0.44566
 H1590 H 0.83066 0.79206 0.42114
 H1591 H 0.78634 0.79342 0.39518
 H1592 H 0.77151 0.77850 0.41966
 C1593 C 0.69406 0.30598 0.58578
 C1594 C 0.69578 0.28660 0.58824
 C1595 C 0.70379 0.27858 0.57505
 C1596 C 0.70931 0.29071 0.56068
 C1597 C 0.72036 0.30432 0.56946
 C1598 C 0.71234 0.31234 0.58265
 C1599 C 0.68490 0.30815 0.56858
 C1600 C 0.69292 0.30011 0.55537
 C1601 C 0.68551 0.31454 0.60008
 C1602 C 0.67865 0.32141 0.61203
 C1603 C 0.71803 0.28199 0.54657
 C1604 C 0.72536 0.27465 0.53519
 H1605 H 0.69110 0.27978 0.59937
 H1606 H 0.70598 0.26488 0.57488
 H1607 H 0.73333 0.30739 0.56563
 H1608 H 0.71844 0.32229 0.59013
 H1609 H 0.67316 0.31535 0.56692
 H1610 H 0.68806 0.30043 0.54240
 C1611 C 0.69383 0.80550 1.08632
 C1612 C 0.69153 0.81454 1.06907
 C1613 C 0.69958 0.80650 1.05588
 C1614 C 0.70913 0.79022 1.06125
 C1615 C 0.69565 0.77911 1.07015
 C1616 C 0.68761 0.78714 1.08333
 C1617 C 0.71323 0.80395 1.08871
 C1618 C 0.72127 0.79592 1.07553
 C1619 C 0.68525 0.81406 1.10060
 C1620 C 0.67837 0.82095 1.11253
 C1621 C 0.71788 0.78150 1.04715
 C1622 C 0.72523 0.77418 1.03578
 H1623 H 0.68422 0.82621 1.06737
 H1624 H 0.69917 0.81129 1.04288
 H1625 H 0.69267 0.76609 1.06643
 H1626 H 0.67774 0.78100 1.09089
 H1627 H 0.72006 0.80875 1.09977
 H1628 H 0.73499 0.79385 1.07532
 C1629 C 0.19409 0.30559 1.08649
 C1630 C 0.20047 0.28758 1.09093
 C1631 C 0.20852 0.27957 1.07775
 C1632 C 0.20941 0.29035 1.06140
 C1633 C 0.21800 0.30712 1.06681
 C1634 C 0.20994 0.31514 1.08000
 C1635 C 0.18275 0.30322 1.07067
 C1636 C 0.19081 0.29520 1.05748
 C1637 C 0.18550 0.31413 1.10077
 C1638 C 0.17861 0.32100 1.11271
 C1639 C 0.21816 0.28165 1.04730
 C1640 C 0.22550 0.27433 1.03592
 H1641 H 0.19880 0.28163 1.10334
 H1642 H 0.21374 0.26677 1.07888
 H1643 H 0.22939 0.31226 1.06081
 H1644 H 0.21444 0.32714 1.08529
 H1645 H 0.16956 0.30746 1.06991
 H1646 H 0.18453 0.29258 1.04541
 C1647 C 0.19369 0.80581 0.58612
 C1648 C 0.19513 0.81688 0.57000
 C1649 C 0.20317 0.80889 0.55677
 C1650 C 0.20898 0.79063 0.56098
 C1651 C 0.19277 0.78140 0.56703
 C1652 C 0.18474 0.78938 0.58025
 C1653 C 0.21208 0.80037 0.59021
 C1654 C 0.22012 0.79240 0.57700
 C1655 C 0.18512 0.81432 0.60044
 C1656 C 0.17825 0.82115 0.61240
 C1657 C 0.21772 0.78196 0.54685
 C1658 C 0.22506 0.77467 0.53545
 H1659 H 0.19025 0.82983 0.56905
 H1660 H 0.20519 0.81501 0.54449
 H1661 H 0.18802 0.76965 0.56143
 H1662 H 0.17310 0.78446 0.58596
 H1663 H 0.21826 0.80260 0.60242
 H1664 H 0.23318 0.78779 0.57790
 C1665 C 0.30565 0.69424 0.58594
 C1666 C 0.29741 0.71132 0.59096
 C1667 C 0.28937 0.71934 0.57778
 C1668 C 0.29035 0.70950 0.56086
 C1669 C 0.28307 0.69174 0.56487
 C1670 C 0.29111 0.68372 0.57805
 C1671 C 0.31755 0.69854 0.57097
 C1672 C 0.30950 0.70657 0.55777
 C1673 C 0.31422 0.68568 0.60023
 C1674 C 0.32110 0.67881 0.61217
 C1675 C 0.28162 0.71823 0.54676
 C1676 C 0.27429 0.72556 0.53538
 H1677 H 0.29785 0.71665 0.60375
 H1678 H 0.28294 0.73154 0.57928
 H1679 H 0.27253 0.68597 0.55794
 H1680 H 0.28746 0.67107 0.58243
 H1681 H 0.33109 0.69553 0.57074
 H1682 H 0.31615 0.71044 0.54624
 C1683 C 0.30610 0.19399 1.08653
 C1684 C 0.31684 0.20814 1.07823
 C1685 C 0.30880 0.21614 1.06502
 C1686 C 0.29082 0.20921 1.06142
 C1687 C 0.28127 0.21071 1.07847
 C1688 C 0.28930 0.20271 1.09167
 C1689 C 0.30130 0.18194 1.07184
 C1690 C 0.29326 0.18995 1.05863
 C1691 C 0.31467 0.18545 1.10084
 C1692 C 0.32154 0.17859 1.11279
 C1693 C 0.28208 0.21791 1.04731
 C1694 C 0.27474 0.22522 1.03592
 H1695 H 0.32963 0.21156 1.08234
 H1696 H 0.31471 0.22642 1.05783
 H1697 H 0.26925 0.21746 1.08005
 H1698 H 0.28416 0.20261 1.10454
 H1699 H 0.30399 0.16833 1.07180
 H1700 H 0.28906 0.18320 1.04727
 C1701 C 0.80574 0.69367 1.08635
 C1702 C 0.79115 0.68319 1.07849
 C1703 C 0.78313 0.69123 1.06530
 C1704 C 0.79049 0.70896 1.06126
 C1705 C 0.80962 0.70594 1.05815
 C1706 C 0.81765 0.69789 1.07135
 C1707 C 0.79758 0.71079 1.09135
 C1708 C 0.78957 0.71882 1.07816
 C1709 C 0.81430 0.68509 1.10064
 C1710 C 0.82117 0.67822 1.11258
 C1711 C 0.78178 0.71769 1.04715
 C1712 C 0.77446 0.72504 1.03577
 H1713 H 0.78746 0.67057 1.08289
 H1714 H 0.77257 0.68549 1.05839
 H1715 H 0.81628 0.70976 1.04660
 H1716 H 0.83117 0.69483 1.07111
 H1717 H 0.79806 0.71614 1.10412
 H1718 H 0.78318 0.73105 1.07965
 C1719 C 0.80581 0.19427 0.58594
 C1720 C 0.81655 0.20844 0.57768
 C1721 C 0.80854 0.21646 0.56447
 C1722 C 0.79058 0.20951 0.56081
 C1723 C 0.78098 0.21097 0.57783
 C1724 C 0.78899 0.20296 0.59104
 C1725 C 0.80107 0.18223 0.57122
 C1726 C 0.79305 0.19025 0.55799
 C1727 C 0.81435 0.18573 0.60026
 C1728 C 0.82121 0.17887 0.61222
 C1729 C 0.78188 0.21821 0.54668
 C1730 C 0.77456 0.22552 0.53527
 H1731 H 0.82933 0.21187 0.58184
 H1732 H 0.81446 0.22675 0.55730
 H1733 H 0.76895 0.21770 0.57938
 H1734 H 0.78380 0.20284 0.60390
 H1735 H 0.80377 0.16863 0.57117
 H1736 H 0.78889 0.18351 0.54662
 C1737 C 0.69405 0.69415 0.41397
 C1738 C 0.68360 0.70884 0.42170
 C1739 C 0.69160 0.71687 0.43490
 C1740 C 0.70926 0.70942 0.43907
 C1741 C 0.71923 0.71020 0.42222
 C1742 C 0.71124 0.70218 0.40903
 C1743 C 0.69812 0.68228 0.42904
 C1744 C 0.70612 0.69032 0.44225
 C1745 C 0.68552 0.68559 0.39966
 C1746 C 0.67867 0.67872 0.38771
 C1747 C 0.71795 0.71814 0.45319
 C1748 C 0.72526 0.72547 0.46457
 H1749 H 0.67103 0.71260 0.41721
 H1750 H 0.68587 0.72750 0.44172
 H1751 H 0.73150 0.71650 0.42077
 H1752 H 0.71667 0.70160 0.39628
 H1753 H 0.69499 0.66878 0.42932
 H1754 H 0.70985 0.68369 0.45384
 C1755 C 0.69450 0.19405 -0.08635
 C1756 C 0.68252 0.20514 -0.07547
 C1757 C 0.69055 0.21318 -0.06229
 C1758 C 0.70976 0.20935 -0.06129
 C1759 C 0.71684 0.21418 -0.07891
 C1760 C 0.70882 0.20615 -0.09208
 C1761 C 0.70300 0.18174 -0.07367
 C1762 C 0.71103 0.18979 -0.06049
 C1763 C 0.68594 0.18547 -0.10062
 C1764 C 0.67906 0.17858 -0.11254
 C1765 C 0.71848 0.21808 -0.04720
 C1766 C 0.72581 0.22542 -0.03583
 H1767 H 0.66894 0.20654 -0.07789
 H1768 H 0.68384 0.22147 -0.05342
 H1769 H 0.72724 0.22314 -0.08088
 H1770 H 0.71236 0.20822 -0.10532
 H1771 H 0.70274 0.16793 -0.07492
 H1772 H 0.71764 0.18287 -0.05045
 C1773 C 0.19458 0.69407 -0.08633
 C1774 C 0.20689 0.68249 -0.07636
 C1775 C 0.21489 0.69056 -0.06318
 C1776 C 0.20980 0.70941 -0.06127
 C1777 C 0.19025 0.70928 -0.05967
 C1778 C 0.18224 0.70121 -0.07285
 C1779 C 0.20543 0.70941 -0.09192
 C1780 C 0.21342 0.71747 -0.07876
 C1781 C 0.18604 0.68547 -0.10060
 C1782 C 0.17918 0.67857 -0.11252
 C1783 C 0.21849 0.71817 -0.04718
 C1784 C 0.22579 0.72554 -0.03581
 H1785 H 0.20911 0.66914 -0.07938
 H1786 H 0.22397 0.68411 -0.05492
 H1787 H 0.18331 0.71500 -0.04912
 H1788 H 0.16845 0.70002 -0.07359
 H1789 H 0.20671 0.71358 -0.10508
 H1790 H 0.22156 0.72854 -0.08064
 C1791 C 0.19389 0.19396 0.41377
 C1792 C 0.20257 0.18161 0.42629
 C1793 C 0.21056 0.18959 0.43953
 C1794 C 0.20910 0.20915 0.43893
 C1795 C 0.18984 0.21280 0.43804
 C1796 C 0.18185 0.20481 0.42481
 C1797 C 0.20807 0.20626 0.40811
 C1798 C 0.21606 0.21424 0.42133
 C1799 C 0.18537 0.18544 0.39943
 C1800 C 0.17853 0.17861 0.38746
 C1801 C 0.21778 0.21782 0.45308
 C1802 C 0.22508 0.22513 0.46448
 H1803 H 0.20243 0.16781 0.42489
 H1804 H 0.21728 0.18264 0.44947
 H1805 H 0.18308 0.22093 0.44702
 H1806 H 0.16824 0.20610 0.42245
 H1807 H 0.21154 0.20851 0.39488
 H1808 H 0.22636 0.22332 0.41942
 C1809 C 0.30550 0.41381 0.69424
 C1810 C 0.30114 0.42879 0.68234
 C1811 C 0.29314 0.44200 0.69039
 C1812 C 0.29028 0.43894 0.70954
 C1813 C 0.30807 0.43494 0.71676
 C1814 C 0.31607 0.42173 0.70871
 C1815 C 0.28846 0.40880 0.70254
 C1816 C 0.28046 0.42200 0.71058
 C1817 C 0.31403 0.39950 0.68566
 C1818 C 0.32090 0.38755 0.67878
 C1819 C 0.28159 0.45306 0.71828
 C1820 C 0.27429 0.46446 0.72563
 H1821 H 0.30409 0.42900 0.66880
 H1822 H 0.28923 0.45354 0.68375
 H1823 H 0.31388 0.44188 0.72725
 H1824 H 0.32874 0.41736 0.71232
 H1825 H 0.28313 0.39600 0.70213
 H1826 H 0.26829 0.42050 0.71706
 C1827 C 0.30582 0.91454 0.19398
 C1828 C 0.30242 0.91121 0.21298
 C1829 C 0.29440 0.92440 0.22104
 C1830 C 0.29057 0.93963 0.20930
 C1831 C 0.28027 0.93211 0.19442
 C1832 C 0.28829 0.91892 0.18637
 C1833 C 0.31592 0.93135 0.19347
 C1834 C 0.30790 0.94455 0.20153
 C1835 C 0.31438 0.90025 0.18538
 C1836 C 0.32125 0.88831 0.17849
 C1837 C 0.28186 0.95374 0.21805
 C1838 C 0.27454 0.96512 0.22539
 H1839 H 0.30600 0.89953 0.21955
 H1840 H 0.29112 0.92400 0.23450
 H1841 H 0.26778 0.93674 0.19054
 H1842 H 0.28267 0.91226 0.17559
 H1843 H 0.32828 0.93275 0.18732
 H1844 H 0.31338 0.95726 0.20229
 C1845 C 0.80627 0.41384 0.19388
 C1846 C 0.80185 0.42877 0.18195
 C1847 C 0.79380 0.44198 0.18997
 C1848 C 0.79096 0.43895 0.20913
 C1849 C 0.80877 0.43504 0.21635
 C1850 C 0.81682 0.42184 0.20834
 C1851 C 0.78926 0.40878 0.20220
 C1852 C 0.78121 0.42197 0.21021
 C1853 C 0.81486 0.39955 0.18534
 C1854 C 0.82176 0.38760 0.17847
 C1855 C 0.78222 0.45305 0.21783
 C1856 C 0.77487 0.46444 0.22516
 H1857 H 0.80480 0.42896 0.16841
 H1858 H 0.78984 0.45348 0.18330
 H1859 H 0.81456 0.44203 0.22683
 H1860 H 0.82950 0.41753 0.21194
 H1861 H 0.78398 0.39596 0.20183
 H1862 H 0.76905 0.42044 0.21670
 C1863 C 0.80573 0.91401 0.69434
 C1864 C 0.80137 0.92898 0.68245
 C1865 C 0.79333 0.94218 0.69049
 C1866 C 0.79044 0.93910 0.70963
 C1867 C 0.80823 0.93512 0.71688
 C1868 C 0.81626 0.92193 0.70884
 C1869 C 0.78868 0.90896 0.70261
 C1870 C 0.78065 0.92214 0.71064
 C1871 C 0.81430 0.89972 0.68576
 C1872 C 0.82118 0.88778 0.67888
 C1873 C 0.78171 0.95320 0.71837
 C1874 C 0.77438 0.96459 0.72570
 H1875 H 0.80434 0.92921 0.66891
 H1876 H 0.78941 0.95371 0.68385
 H1877 H 0.81401 0.94207 0.72739
 H1878 H 0.82893 0.91758 0.71246
 H1879 H 0.78338 0.89615 0.70218
 H1880 H 0.76847 0.92062 0.71710
 C1881 C 0.69428 0.58606 0.69453
 C1882 C 0.70489 0.57483 0.68244
 C1883 C 0.71295 0.56163 0.69044
 C1884 C 0.70961 0.56094 0.70974
 C1885 C 0.69008 0.56046 0.71152
 C1886 C 0.68202 0.57367 0.70352
 C1887 C 0.70682 0.59179 0.70844
 C1888 C 0.71488 0.57860 0.71644
 C1889 C 0.68568 0.60036 0.68599
 C1890 C 0.67879 0.61230 0.67913
 C1891 C 0.71836 0.54682 0.71843
 C1892 C 0.72571 0.53542 0.72573
 H1893 H 0.70597 0.57706 0.66880
 H1894 H 0.72094 0.55253 0.68366
 H1895 H 0.68319 0.55061 0.71844
 H1896 H 0.66822 0.57514 0.70358
 H1897 H 0.70918 0.60506 0.71174
 H1898 H 0.72413 0.58056 0.72658
 C1899 C 0.69436 0.08586 0.19394
 C1900 C 0.70423 0.07405 0.18180
 C1901 C 0.71225 0.06085 0.18986
 C1902 C 0.70961 0.06078 0.20929
 C1903 C 0.69015 0.06086 0.21178
 C1904 C 0.68213 0.07405 0.20372
 C1905 C 0.70755 0.09164 0.20723
 C1906 C 0.71556 0.07846 0.21529
 C1907 C 0.68580 0.10015 0.18534
 C1908 C 0.67893 0.11208 0.17844
 C1909 C 0.71831 0.04668 0.21805
 C1910 C 0.72562 0.03529 0.22541
 H1911 H 0.70486 0.07587 0.16807
 H1912 H 0.71975 0.05138 0.18305
 H1913 H 0.68328 0.05138 0.21922
 H1914 H 0.66839 0.07588 0.20424
 H1915 H 0.71036 0.10493 0.21006
 H1916 H 0.72523 0.08046 0.22502
 C1917 C 0.19417 0.58624 0.19398
 C1918 C 0.20449 0.57475 0.18189
 C1919 C 0.21250 0.56154 0.18994
 C1920 C 0.20940 0.56112 0.20929
 C1921 C 0.18989 0.56090 0.21132
 C1922 C 0.18189 0.57411 0.20327
 C1923 C 0.20697 0.59198 0.20766
 C1924 C 0.21497 0.57879 0.21570
 C1925 C 0.18563 0.60054 0.18539
 C1926 C 0.17877 0.61249 0.17851
 C1927 C 0.21810 0.54700 0.21803
 C1928 C 0.22541 0.53561 0.22538
 H1929 H 0.20542 0.57680 0.16821
 H1930 H 0.22029 0.55227 0.18316
 H1931 H 0.18298 0.55121 0.21845
 H1932 H 0.16811 0.57574 0.20350
 H1933 H 0.20953 0.60526 0.21076
 H1934 H 0.22438 0.58076 0.22569
 C1935 C 0.19395 0.08585 0.69456
 C1936 C 0.20458 0.07463 0.68249
 C1937 C 0.21263 0.06142 0.69051
 C1938 C 0.20926 0.06075 0.70980
 C1939 C 0.18973 0.06027 0.71156
 C1940 C 0.18168 0.07347 0.70354
 C1941 C 0.20648 0.09160 0.70849
 C1942 C 0.21453 0.07841 0.71650
 C1943 C 0.18537 0.10015 0.68601
 C1944 C 0.17848 0.11209 0.67914
 C1945 C 0.21801 0.04663 0.71850
 C1946 C 0.22537 0.03524 0.72581
 H1947 H 0.20567 0.07684 0.66885
 H1948 H 0.22062 0.05233 0.68373
 H1949 H 0.18284 0.05042 0.71848
 H1950 H 0.16789 0.07494 0.70359
 H1951 H 0.20883 0.10486 0.71177
 H1952 H 0.22377 0.08038 0.72664
 C1953 C 0.30589 0.58625 0.30570
 C1954 C 0.29087 0.57886 0.31590
 C1955 C 0.28283 0.56565 0.30791
 C1956 C 0.29061 0.56113 0.29049
 C1957 C 0.30959 0.55773 0.29410
 C1958 C 0.31763 0.57094 0.30210
 C1959 C 0.29832 0.59107 0.28828
 C1960 C 0.29029 0.57788 0.28029
 C1961 C 0.31446 0.60055 0.31423
 C1962 C 0.32132 0.61250 0.32109
 C1963 C 0.28189 0.54702 0.28180
 C1964 C 0.27455 0.53562 0.27450
 H1965 H 0.28689 0.58357 0.32832
 H1966 H 0.27198 0.55905 0.31347
 H1967 H 0.31614 0.54598 0.29068
 H1968 H 0.33106 0.57051 0.30554
 H1969 H 0.29919 0.60375 0.28271
 H1970 H 0.28429 0.57925 0.26787
 C1971 C 0.30600 0.08571 0.80612
 C1972 C 0.31113 0.08369 0.78731
 C1973 C 0.30310 0.07051 0.77928
 C1974 C 0.29072 0.06063 0.79084
 C1975 C 0.27843 0.07420 0.79789
 C1976 C 0.28646 0.08738 0.80592
 C1977 C 0.30955 0.06822 0.81426
 C1978 C 0.30151 0.05503 0.80623
 C1979 C 0.31456 0.10000 0.81468
 C1980 C 0.32143 0.11194 0.82155
 C1981 C 0.28200 0.04654 0.78212
 C1982 C 0.27466 0.03516 0.77479
 H1983 H 0.32028 0.09189 0.78087
 H1984 H 0.30537 0.06741 0.76596
 H1985 H 0.26463 0.07350 0.79670
 H1986 H 0.27953 0.09797 0.81160
 H1987 H 0.31765 0.06636 0.82535
 H1988 H 0.30273 0.04186 0.81043
 C1989 C 0.80627 0.58590 0.80606
 C1990 C 0.81138 0.58388 0.78725
 C1991 C 0.80335 0.57069 0.77923
 C1992 C 0.79100 0.56081 0.79081
 C1993 C 0.77870 0.57436 0.79787
 C1994 C 0.78673 0.58755 0.80588
 C1995 C 0.80984 0.56841 0.81420
 C1996 C 0.80181 0.55521 0.80618
 C1997 C 0.81484 0.60019 0.81461
 C1998 C 0.82171 0.61214 0.82147
 C1999 C 0.78227 0.54670 0.78210
 C2000 C 0.77494 0.53532 0.77477
 H2001 H 0.82052 0.59207 0.78079
 H2002 H 0.80561 0.56759 0.76591
 H2003 H 0.76490 0.57366 0.79669
 H2004 H 0.77981 0.59814 0.81157
 H2005 H 0.81796 0.56656 0.82529
 H2006 H 0.80304 0.54205 0.81039
 C2007 C 0.80619 0.08583 0.30578
 C2008 C 0.81127 0.08379 0.28696
 C2009 C 0.80322 0.07061 0.27896
 C2010 C 0.79087 0.06074 0.29055
 C2011 C 0.77860 0.07431 0.29762
 C2012 C 0.78665 0.08749 0.30562
 C2013 C 0.80975 0.06834 0.31392
 C2014 C 0.80169 0.05514 0.30592
 C2015 C 0.81477 0.10011 0.31432
 C2016 C 0.82166 0.11205 0.32117
 C2017 C 0.78212 0.04664 0.28186
 C2018 C 0.77477 0.03526 0.27456
 H2019 H 0.82041 0.09198 0.28049
 H2020 H 0.80546 0.06750 0.26564
 H2021 H 0.76479 0.07363 0.29646
 H2022 H 0.77974 0.09810 0.31131
 H2023 H 0.81788 0.06648 0.32500
 H2024 H 0.80292 0.04198 0.31013
 C2025 C 0.69411 0.41379 0.30530
 C2026 C 0.70423 0.42533 0.31750
 C2027 C 0.71230 0.43853 0.30951
 C2028 C 0.70946 0.43889 0.29012
 C2029 C 0.68997 0.43907 0.28784
 C2030 C 0.68190 0.42587 0.29583
 C2031 C 0.70710 0.40803 0.29180
 C2032 C 0.71517 0.42122 0.28382
 C2033 C 0.68550 0.39949 0.31382
 C2034 C 0.67861 0.38755 0.32068
 C2035 C 0.71822 0.45301 0.28146
 C2036 C 0.72558 0.46440 0.27417
 H2037 H 0.70498 0.42331 0.33119
 H2038 H 0.71997 0.44783 0.31637
 H2039 H 0.68312 0.44873 0.28061
 H2040 H 0.66814 0.42421 0.29543
 H2041 H 0.70974 0.39475 0.28876
 H2042 H 0.72471 0.41924 0.27396
 C2043 C 0.69395 0.91403 0.80622
 C2044 C 0.68528 0.91950 0.78951
 C2045 C 0.69331 0.93270 0.78149
 C2046 C 0.70922 0.93913 0.79095
 C2047 C 0.72053 0.92328 0.79326
 C2048 C 0.71251 0.91009 0.80128
 C2049 C 0.69491 0.93038 0.81702
 C2050 C 0.70294 0.94358 0.80899
 C2051 C 0.68538 0.89974 0.81478
 C2052 C 0.67850 0.88779 0.82165
 C2053 C 0.71794 0.95324 0.78223
 C2054 C 0.72526 0.96463 0.77490
 H2055 H 0.67383 0.91354 0.78444
 H2056 H 0.68874 0.93804 0.76954
 H2057 H 0.73370 0.92248 0.78897
 H2058 H 0.71881 0.89800 0.80386
 H2059 H 0.68974 0.93148 0.82983
 H2060 H 0.70465 0.95600 0.81492
 C2061 C 0.19400 0.41401 0.80632
 C2062 C 0.20328 0.40870 0.78989
 C2063 C 0.21129 0.42188 0.78185
 C2064 C 0.20926 0.43909 0.79101
 C2065 C 0.21573 0.43592 0.80924
 C2066 C 0.20771 0.42273 0.81729
 C2067 C 0.18187 0.42844 0.80090
 C2068 C 0.18989 0.44164 0.79285
 C2069 C 0.18545 0.39972 0.81490
 C2070 C 0.17857 0.38778 0.82178
 C2071 C 0.21797 0.45319 0.78227
 C2072 C 0.22529 0.46457 0.77492
 H2073 H 0.20353 0.39573 0.78499
 H2074 H 0.21841 0.42019 0.77006
 H2075 H 0.22572 0.44338 0.81530
 H2076 H 0.21082 0.41889 0.83024
 H2077 H 0.16819 0.42832 0.80319
 H2078 H 0.18309 0.45282 0.78824
 C2079 C 0.19394 0.91453 0.30573
 C2080 C 0.18280 0.92352 0.29233
 C2081 C 0.19084 0.93672 0.28431
 C2082 C 0.20922 0.93963 0.29048
 C2083 C 0.21819 0.92235 0.28810
 C2084 C 0.21016 0.90916 0.29611
 C2085 C 0.19972 0.92876 0.31791
 C2086 C 0.20776 0.94196 0.30988
 C2087 C 0.18536 0.90023 0.31428
 C2088 C 0.17848 0.88829 0.32114
 C2089 C 0.21795 0.95374 0.28177
 C2090 C 0.22530 0.96513 0.27447
 H2091 H 0.16975 0.91986 0.28940
 H2092 H 0.18467 0.94437 0.27452
 H2093 H 0.22983 0.92062 0.28076
 H2094 H 0.21493 0.89614 0.29563
 H2095 H 0.19767 0.92850 0.33161
 H2096 H 0.21259 0.95301 0.31672
 C2097 C 0.41363 0.30571 0.69415
 C2098 C 0.42619 0.29702 0.68184
 C2099 C 0.43941 0.28900 0.68985
 C2100 C 0.43877 0.29046 0.70939
 C2101 C 0.42114 0.28352 0.71444
 C2102 C 0.40794 0.29153 0.70643
 C2103 C 0.42466 0.31773 0.70501
 C2104 C 0.43788 0.30971 0.71302
 C2105 C 0.39931 0.31426 0.68560
 C2106 C 0.38736 0.32113 0.67874
 C2107 C 0.45290 0.28175 0.71809
 C2108 C 0.46431 0.27443 0.72540
 H2109 H 0.42482 0.29716 0.66804
 H2110 H 0.44937 0.28227 0.68293
 H2111 H 0.41920 0.27321 0.72351
 H2112 H 0.39468 0.28809 0.70865
 H2113 H 0.42231 0.33135 0.70628
 H2114 H 0.44686 0.31646 0.72116
 C2115 C 0.41393 0.80640 0.19384
 C2116 C 0.41320 0.80773 0.21338
 C2117 C 0.42638 0.79968 0.22140
 C2118 C 0.43901 0.79109 0.20911
 C2119 C 0.44477 0.80535 0.19694
 C2120 C 0.43157 0.81341 0.18891
 C2121 C 0.41487 0.78718 0.19009
 C2122 C 0.42805 0.77913 0.19811
 C2123 C 0.39964 0.81499 0.18528
 C2124 C 0.38770 0.82188 0.17842
 C2125 C 0.45311 0.78234 0.21783
 C2126 C 0.46449 0.77499 0.22516
 H2127 H 0.40322 0.81443 0.22030
 H2128 H 0.42769 0.79948 0.23520
 H2129 H 0.45803 0.80882 0.19482
 H2130 H 0.43353 0.82378 0.17991
 H2131 H 0.40597 0.78048 0.18184
 H2132 H 0.43044 0.76553 0.19674
 C2133 C 0.91442 0.30570 0.19399
 C2134 C 0.91363 0.30698 0.21353
 C2135 C 0.92681 0.29894 0.22157
 C2136 C 0.93950 0.29042 0.20929
 C2137 C 0.94525 0.30473 0.19718
 C2138 C 0.93206 0.31278 0.18913
 C2139 C 0.91542 0.28649 0.19019
 C2140 C 0.92861 0.27846 0.19823
 C2141 C 0.90013 0.31428 0.18541
 C2142 C 0.88819 0.32116 0.17853
 C2143 C 0.95360 0.28169 0.21803
 C2144 C 0.96499 0.27435 0.22536
 H2145 H 0.90360 0.31362 0.22044
 H2146 H 0.92807 0.29871 0.23537
 H2147 H 0.95851 0.30824 0.19511
 H2148 H 0.93401 0.32317 0.18017
 H2149 H 0.90657 0.27979 0.18190
 H2150 H 0.93104 0.26487 0.19682
 C2151 C 0.91396 0.80596 0.69414
 C2152 C 0.92688 0.79788 0.68180
 C2153 C 0.94011 0.78984 0.68980
 C2154 C 0.93910 0.79069 0.70936
 C2155 C 0.92151 0.78329 0.71387
 C2156 C 0.90830 0.79131 0.70588
 C2157 C 0.92457 0.81783 0.70556
 C2158 C 0.93779 0.80980 0.71357
 C2159 C 0.89964 0.81452 0.68560
 C2160 C 0.88768 0.82140 0.67875
 C2161 C 0.95322 0.78197 0.71805
 C2162 C 0.96463 0.77464 0.72536
 H2163 H 0.92576 0.79842 0.66799
 H2164 H 0.95031 0.78351 0.68286
 H2165 H 0.91960 0.77267 0.72259
 H2166 H 0.89508 0.78757 0.70774
 H2167 H 0.92195 0.83136 0.70720
 H2168 H 0.94649 0.81645 0.72207
 C2169 C 0.58601 0.30564 0.30528
 C2170 C 0.59161 0.29464 0.29005
 C2171 C 0.57843 0.28659 0.28207
 C2172 C 0.56092 0.29031 0.29008
 C2173 C 0.55935 0.30986 0.29004
 C2174 C 0.57254 0.31793 0.29803
 C2175 C 0.57602 0.29345 0.31695
 C2176 C 0.56283 0.28539 0.30896
 C2177 C 0.60030 0.31423 0.31381
 C2178 C 0.61223 0.32112 0.32067
 C2179 C 0.54682 0.28156 0.28140
 C2180 C 0.53543 0.27420 0.27411
 H2181 H 0.60478 0.29330 0.28590
 H2182 H 0.58031 0.27835 0.27107
 H2183 H 0.54880 0.31677 0.28425
 H2184 H 0.57330 0.33174 0.29910
 H2185 H 0.57904 0.29134 0.33031
 H2186 H 0.55454 0.27638 0.31547
 C2187 C 0.58585 0.80604 0.80613
 C2188 C 0.56985 0.80410 0.81730
 C2189 C 0.55665 0.79609 0.80925
 C2190 C 0.56076 0.79081 0.79083
 C2191 C 0.57697 0.77985 0.79216
 C2192 C 0.59015 0.78785 0.80020
 C2193 C 0.57969 0.81534 0.79001
 C2194 C 0.56650 0.80733 0.78196
 C2195 C 0.60014 0.81458 0.81471
 C2196 C 0.61208 0.82143 0.82159
 C2197 C 0.54666 0.78211 0.78209
 C2198 C 0.53528 0.77480 0.77475
 H2199 H 0.56896 0.80863 0.83037
 H2200 H 0.54445 0.79375 0.81543
 H2201 H 0.57801 0.76693 0.78722
 H2202 H 0.60248 0.78178 0.80215
 H2203 H 0.58519 0.82718 0.78533
 H2204 H 0.56070 0.81232 0.77039
 C2205 C 0.08589 0.30606 0.80633
 C2206 C 0.08864 0.30386 0.78706
 C2207 C 0.07545 0.29586 0.77902
 C2208 C 0.06080 0.29083 0.79104
 C2209 C 0.05558 0.30751 0.79995
 C2210 C 0.06878 0.31552 0.80800
 C2211 C 0.08240 0.28798 0.81307
 C2212 C 0.06921 0.27997 0.80503
 C2213 C 0.10018 0.31460 0.81491
 C2214 C 0.11213 0.32145 0.82179
 C2215 C 0.04670 0.28214 0.78230
 C2216 C 0.03531 0.27484 0.77495
 H2217 H 0.09995 0.30821 0.78031
 H2218 H 0.07547 0.29336 0.76539
 H2219 H 0.04266 0.31258 0.79994
 H2220 H 0.06717 0.32745 0.81489
 H2221 H 0.08964 0.28199 0.82327
 H2222 H 0.06515 0.26713 0.80834
 C2223 C 0.08592 0.80637 0.30565
 C2224 C 0.08867 0.80412 0.28638
 C2225 C 0.07550 0.79606 0.27836
 C2226 C 0.06087 0.79103 0.29040
 C2227 C 0.05560 0.80772 0.29927
 C2228 C 0.06878 0.81579 0.30729
 C2229 C 0.08248 0.78830 0.31244
 C2230 C 0.06931 0.78023 0.30442
 C2231 C 0.10019 0.81497 0.31420
 C2232 C 0.11211 0.82187 0.32108
 C2233 C 0.04679 0.78226 0.28170
 C2234 C 0.03542 0.77489 0.27439
 H2235 H 0.09996 0.80849 0.27961
 H2236 H 0.07552 0.79352 0.26474
 H2237 H 0.04267 0.81275 0.29925
 H2238 H 0.06714 0.82773 0.31414
 H2239 H 0.08974 0.78237 0.32265
 H2240 H 0.06529 0.76739 0.30778
 C2241 C 0.58604 0.69418 0.69450
 C2242 C 0.57297 0.68187 0.70238
 C2243 C 0.55975 0.68993 0.71038
 C2244 C 0.56091 0.70950 0.70971
 C2245 C 0.56238 0.71387 0.69065
 C2246 C 0.57560 0.70582 0.68266
 C2247 C 0.59168 0.70575 0.70928
 C2248 C 0.57848 0.71380 0.71727
 C2249 C 0.60035 0.68560 0.68598
 C2250 C 0.61230 0.67871 0.67912
 C2251 C 0.54679 0.71825 0.71838
 C2252 C 0.53538 0.72560 0.72568
 H2253 H 0.57399 0.66805 0.70173
 H2254 H 0.54945 0.68301 0.71657
 H2255 H 0.55379 0.72251 0.68402
 H2256 H 0.57833 0.70756 0.66918
 H2257 H 0.60489 0.70747 0.71314
 H2258 H 0.58038 0.72241 0.72796
 C2259 C 0.58609 0.19380 0.19367
 C2260 C 0.58731 0.21337 0.19323
 C2261 C 0.57410 0.22137 0.20125
 C2262 C 0.56095 0.20903 0.20894
 C2263 C 0.57131 0.19723 0.22069
 C2264 C 0.58453 0.18923 0.21266
 C2265 C 0.56854 0.18963 0.18598
 C2266 C 0.55531 0.19764 0.19401
 C2267 C 0.60041 0.18526 0.18511
 C2268 C 0.61238 0.17841 0.17825
 C2269 C 0.54682 0.21772 0.21767
 C2270 C 0.53542 0.22503 0.22501
 H2271 H 0.59764 0.22033 0.18713
 H2272 H 0.57311 0.23519 0.20203
 H2273 H 0.56851 0.19531 0.23413
 H2274 H 0.59304 0.18046 0.21922
 H2275 H 0.56667 0.18114 0.17518
 H2276 H 0.54211 0.19601 0.19010
 C2277 C 0.08613 0.69439 0.19396
 C2278 C 0.07314 0.68204 0.20193
 C2279 C 0.05993 0.69006 0.20998
 C2280 C 0.06101 0.70963 0.20926
 C2281 C 0.06237 0.71397 0.19019
 C2282 C 0.07557 0.70595 0.18215
 C2283 C 0.09179 0.70601 0.20868
 C2284 C 0.07860 0.71402 0.21672
 C2285 C 0.10043 0.68584 0.18538
 C2286 C 0.11237 0.67896 0.17850
 C2287 C 0.04690 0.71834 0.21800
 C2288 C 0.03550 0.72565 0.22534
 H2289 H 0.07422 0.66822 0.20130
 H2290 H 0.04970 0.68311 0.21624
 H2291 H 0.05371 0.72256 0.18359
 H2292 H 0.07823 0.70768 0.16865
 H2293 H 0.10502 0.70779 0.21247
 H2294 H 0.08053 0.72266 0.22739
 C2295 C 0.08589 0.19412 0.69459
 C2296 C 0.07285 0.18184 0.70257
 C2297 C 0.05966 0.18992 0.71059
 C2298 C 0.06082 0.20949 0.70984
 C2299 C 0.06221 0.21379 0.69077
 C2300 C 0.07539 0.20571 0.68275
 C2301 C 0.09159 0.20575 0.70930
 C2302 C 0.07841 0.21382 0.71731
 C2303 C 0.10017 0.18551 0.68604
 C2304 C 0.11209 0.17859 0.67916
 C2305 C 0.04672 0.21826 0.71854
 C2306 C 0.03534 0.22564 0.72585
 H2307 H 0.07387 0.16802 0.70196
 H2308 H 0.04939 0.18302 0.71685
 H2309 H 0.05359 0.22240 0.68414
 H2310 H 0.07807 0.20740 0.66925
 H2311 H 0.10481 0.20749 0.71310
 H2312 H 0.08036 0.22247 0.72797
 C2313 C 0.41387 0.69443 0.30560
 C2314 C 0.41030 0.69848 0.28676
 C2315 C 0.42347 0.70652 0.27874
 C2316 C 0.43895 0.70974 0.29034
 C2317 C 0.44371 0.69209 0.29748
 C2318 C 0.43051 0.68404 0.30551
 C2319 C 0.41864 0.71165 0.31367
 C2320 C 0.43182 0.71969 0.30565
 C2321 C 0.39958 0.68585 0.31416
 C2322 C 0.38765 0.67897 0.32103
 C2323 C 0.45305 0.71847 0.28162
 C2324 C 0.46443 0.72581 0.27430
 H2325 H 0.39846 0.69531 0.28028
 H2326 H 0.42292 0.71023 0.26540
 H2327 H 0.45632 0.68643 0.29634
 H2328 H 0.43182 0.67148 0.31125
 H2329 H 0.41223 0.71704 0.32473
 H2330 H 0.43672 0.73198 0.30983
 C2331 C 0.41395 0.19387 0.80594
 C2332 C 0.42785 0.20031 0.81816
 C2333 C 0.44103 0.20837 0.81011
 C2334 C 0.43899 0.20917 0.79063
 C2335 C 0.42158 0.21772 0.78769
 C2336 C 0.40842 0.20967 0.79573
 C2337 C 0.42339 0.18250 0.79305
 C2338 C 0.43656 0.19055 0.78500
 C2339 C 0.39968 0.18529 0.81453
 C2340 C 0.38776 0.17839 0.82143
 C2341 C 0.45307 0.21792 0.78189
 C2342 C 0.46444 0.22526 0.77454
 H2343 H 0.42740 0.19869 0.83192
 H2344 H 0.45186 0.21364 0.81697
 H2345 H 0.41975 0.22909 0.77996
 H2346 H 0.39532 0.21416 0.79490
 H2347 H 0.42003 0.16929 0.79048
 H2348 H 0.44449 0.18423 0.77553
 C2349 C 0.91419 0.69410 0.80590
 C2350 C 0.91054 0.69826 0.78710
 C2351 C 0.92371 0.70630 0.77906
 C2352 C 0.93925 0.70940 0.79059
 C2353 C 0.94398 0.69170 0.79763
 C2354 C 0.93080 0.68366 0.80568
 C2355 C 0.91906 0.71126 0.81404
 C2356 C 0.93223 0.71930 0.80599
 C2357 C 0.89991 0.68553 0.81449
 C2358 C 0.88799 0.67864 0.82138
 C2359 C 0.95333 0.71813 0.78185
 C2360 C 0.96470 0.72546 0.77450
 H2361 H 0.89866 0.69516 0.78067
 H2362 H 0.92310 0.71008 0.76574
 H2363 H 0.95657 0.68600 0.79640
 H2364 H 0.93209 0.67107 0.81135
 H2365 H 0.91273 0.71662 0.82515
 H2366 H 0.93719 0.73155 0.81021
 C2367 C 0.91436 0.19382 0.30575
 C2368 C 0.91693 0.18808 0.28718
 C2369 C 0.93013 0.19611 0.27916
 C2370 C 0.93947 0.20909 0.29050
 C2371 C 0.94494 0.19895 0.30637
 C2372 C 0.93173 0.19092 0.31439
 C2373 C 0.91231 0.21330 0.30482
 C2374 C 0.92550 0.22132 0.29681
 C2375 C 0.90006 0.18526 0.31430
 C2376 C 0.88811 0.17839 0.32116
 C2377 C 0.95359 0.21781 0.28179
 C2378 C 0.96498 0.22515 0.27447
 H2379 H 0.90907 0.17855 0.28089
 H2380 H 0.93358 0.19345 0.26601
 H2381 H 0.95802 0.19816 0.31091
 H2382 H 0.93349 0.18324 0.32580
 H2383 H 0.90144 0.22019 0.31002
 H2384 H 0.92594 0.23509 0.29514
 C2385 C 0.30546 0.30564 0.58626
 C2386 C 0.31087 0.31222 0.56860
 C2387 C 0.30284 0.30416 0.55542
 C2388 C 0.29020 0.29033 0.56120
 C2389 C 0.27792 0.29947 0.57346
 C2390 C 0.28594 0.30751 0.58663
 C2391 C 0.30872 0.28630 0.58571
 C2392 C 0.30070 0.27826 0.57254
 C2393 C 0.31401 0.31422 0.60053
 C2394 C 0.32089 0.32111 0.61245
 C2395 C 0.28148 0.28159 0.54712
 C2396 C 0.27416 0.27425 0.53574
 H2397 H 0.32018 0.32230 0.56662
 H2398 H 0.30527 0.30735 0.54215
 H2399 H 0.26413 0.29961 0.57193
 H2400 H 0.27902 0.31455 0.59637
 H2401 H 0.31664 0.27953 0.59486
 H2402 H 0.30175 0.26459 0.57041
 C2403 C 0.30587 0.80643 0.08590
 C2404 C 0.29317 0.79266 0.09165
 C2405 C 0.28518 0.78460 0.07848
 C2406 C 0.29067 0.79110 0.06082
 C2407 C 0.31019 0.78916 0.06053
 C2408 C 0.31818 0.79723 0.07371
 C2409 C 0.29546 0.81851 0.07448
 C2410 C 0.28746 0.81045 0.06129
 C2411 C 0.31440 0.81503 0.10018
 C2412 C 0.32126 0.82192 0.11210
 C2413 C 0.28199 0.78234 0.04673
 C2414 C 0.27470 0.77497 0.03535
 H2415 H 0.29066 0.78951 0.10492
 H2416 H 0.27583 0.77455 0.08046
 H2417 H 0.31711 0.78209 0.05081
 H2418 H 0.33196 0.79707 0.07530
 H2419 H 0.29446 0.83219 0.07656
 H2420 H 0.27961 0.81722 0.05207
 C2421 C 0.80636 0.30576 0.08593
 C2422 C 0.79358 0.29206 0.09168
 C2423 C 0.78554 0.28406 0.07850
 C2424 C 0.79106 0.29053 0.06085
 C2425 C 0.81057 0.28849 0.06055
 C2426 C 0.81861 0.29650 0.07374
 C2427 C 0.79601 0.31791 0.07452
 C2428 C 0.78796 0.30990 0.06133
 C2429 C 0.81494 0.31431 0.10021
 C2430 C 0.82182 0.32118 0.11214
 C2431 C 0.78233 0.28183 0.04675
 C2432 C 0.77499 0.27452 0.03537
 H2433 H 0.79106 0.28891 0.10494
 H2434 H 0.77614 0.27406 0.08048
 H2435 H 0.81745 0.28138 0.05083
 H2436 H 0.83239 0.29626 0.07532
 H2437 H 0.79509 0.33159 0.07661
 H2438 H 0.78016 0.31672 0.05212
 C2439 C 0.80572 0.80597 0.58630
 C2440 C 0.78958 0.79623 0.59169
 C2441 C 0.78155 0.78821 0.57852
 C2442 C 0.79043 0.79070 0.56123
 C2443 C 0.80887 0.78463 0.56405
 C2444 C 0.81691 0.79265 0.57723
 C2445 C 0.79979 0.81817 0.57213
 C2446 C 0.79175 0.81014 0.55895
 C2447 C 0.81429 0.81453 0.60057
 C2448 C 0.82118 0.82140 0.61249
 C2449 C 0.78170 0.78198 0.54714
 C2450 C 0.77437 0.77465 0.53577
 H2451 H 0.78487 0.79568 0.60472
 H2452 H 0.76997 0.78079 0.58028
 H2453 H 0.81507 0.77489 0.55636
 H2454 H 0.83000 0.78979 0.58083
 H2455 H 0.80175 0.83190 0.57243
 H2456 H 0.78682 0.81699 0.54795
 C2457 C 0.30576 0.69438 0.41362
 C2458 C 0.30464 0.68350 0.42990
 C2459 C 0.29658 0.69154 0.44309
 C2460 C 0.29046 0.70965 0.43870
 C2461 C 0.27921 0.70751 0.42279
 C2462 C 0.28725 0.69948 0.40962
 C2463 C 0.31451 0.71102 0.41919
 C2464 C 0.30647 0.71905 0.43238
 C2465 C 0.31434 0.68582 0.39934
 C2466 C 0.32123 0.67894 0.38741
 C2467 C 0.28171 0.71837 0.45279
 C2468 C 0.27436 0.72569 0.46417
 H2469 H 0.30972 0.67064 0.43097
 H2470 H 0.29477 0.68555 0.45546
 H2471 H 0.26608 0.71190 0.42195
 H2472 H 0.28101 0.69700 0.39750
 H2473 H 0.32603 0.71604 0.41332
 H2474 H 0.31109 0.73095 0.43779
 C2475 C 0.30602 0.19382 0.91412
 C2476 C 0.29951 0.21177 0.90961
 C2477 C 0.29149 0.21980 0.92279
 C2478 C 0.29075 0.20911 0.93921
 C2479 C 0.30940 0.20439 0.94305
 C2480 C 0.31743 0.19634 0.92986
 C2481 C 0.29025 0.18422 0.92075
 C2482 C 0.28223 0.19226 0.93394
 C2483 C 0.31457 0.18524 0.89983
 C2484 C 0.32144 0.17836 0.88790
 C2485 C 0.28203 0.21785 0.95331
 C2486 C 0.27470 0.22518 0.96469
 H2487 H 0.30108 0.21765 0.89716
 H2488 H 0.28619 0.23257 0.92162
 H2489 H 0.31573 0.20711 0.95507
 H2490 H 0.33064 0.19217 0.93057
 H2491 H 0.28580 0.17216 0.91555
 H2492 H 0.27090 0.18709 0.94003
 C2493 C 0.80609 0.69397 0.91400
 C2494 C 0.79942 0.71185 0.90946
 C2495 C 0.79135 0.71985 0.92264
 C2496 C 0.79073 0.70919 0.93908
 C2497 C 0.80942 0.70464 0.94290
 C2498 C 0.81750 0.69663 0.92971
 C2499 C 0.79042 0.68425 0.92067
 C2500 C 0.78234 0.69225 0.93386
 C2501 C 0.81470 0.68544 0.89972
 C2502 C 0.82160 0.67858 0.88779
 C2503 C 0.78196 0.71788 0.95317
 C2504 C 0.77459 0.72518 0.96455
 H2505 H 0.80091 0.71773 0.89699
 H2506 H 0.78593 0.73257 0.92145
 H2507 H 0.81575 0.70744 0.95491
 H2508 H 0.83075 0.69258 0.93042
 H2509 H 0.78606 0.67215 0.91551
 H2510 H 0.77107 0.68700 0.93998
 C2511 C 0.80608 0.19403 0.41360
 C2512 C 0.79959 0.21197 0.40906
 C2513 C 0.79152 0.22001 0.42221
 C2514 C 0.79074 0.20933 0.43863
 C2515 C 0.80938 0.20462 0.44253
 C2516 C 0.81745 0.19657 0.42937
 C2517 C 0.79031 0.18443 0.42019
 C2518 C 0.78224 0.19247 0.43335
 C2519 C 0.81469 0.18544 0.39934
 C2520 C 0.82159 0.17855 0.38743
 C2521 C 0.78198 0.21807 0.45270
 C2522 C 0.77462 0.22542 0.46406
 H2523 H 0.80118 0.21785 0.39661
 H2524 H 0.78622 0.23278 0.42102
 H2525 H 0.81568 0.20735 0.45457
 H2526 H 0.83066 0.19241 0.43012
 H2527 H 0.78587 0.17236 0.41498
 H2528 H 0.77089 0.18730 0.43942
 C2529 C 0.69400 0.30580 0.41336
 C2530 C 0.68882 0.31265 0.43098
 C2531 C 0.69687 0.30463 0.44419
 C2532 C 0.70930 0.29057 0.43846
 C2533 C 0.72157 0.29940 0.42598
 C2534 C 0.71353 0.30740 0.41279
 C2535 C 0.69051 0.28652 0.41416
 C2536 C 0.69855 0.27851 0.42735
 C2537 C 0.68542 0.31434 0.39906
 C2538 C 0.67855 0.32120 0.38711
 C2539 C 0.71803 0.28187 0.45257
 C2540 C 0.72537 0.27456 0.46396
 H2541 H 0.67965 0.32288 0.43292
 H2542 H 0.69460 0.30800 0.45744
 H2543 H 0.73537 0.29938 0.42740
 H2544 H 0.72045 0.31424 0.40291
 H2545 H 0.68242 0.27975 0.40516
 H2546 H 0.69735 0.26489 0.42966
 C2547 C 0.69399 0.80575 0.91407
 C2548 C 0.70657 0.79184 0.90830
 C2549 C 0.71460 0.78379 0.92146
 C2550 C 0.70928 0.79042 0.93912
 C2551 C 0.68975 0.78864 0.93957
 C2552 C 0.68171 0.79670 0.92640
 C2553 C 0.70456 0.81780 0.92535
 C2554 C 0.71260 0.80974 0.93852
 C2555 C 0.68541 0.81434 0.89981
 C2556 C 0.67853 0.82125 0.88790
 C2557 C 0.71801 0.78167 0.95320
 C2558 C 0.72534 0.77431 0.96457
 H2559 H 0.70895 0.78860 0.89504
 H2560 H 0.72386 0.77366 0.91947
 H2561 H 0.68285 0.78167 0.94937
 H2562 H 0.66792 0.79664 0.92491
 H2563 H 0.70563 0.83146 0.92318
 H2564 H 0.72056 0.81650 0.94764
 C2565 C 0.19407 0.30577 0.91425
 C2566 C 0.18892 0.31257 0.93191
 C2567 C 0.19697 0.30450 0.94508
 C2568 C 0.20938 0.29044 0.93929
 C2569 C 0.22165 0.29930 0.92683
 C2570 C 0.21360 0.30736 0.91367
 C2571 C 0.19056 0.28649 0.91499
 C2572 C 0.19861 0.27843 0.92815
 C2573 C 0.18548 0.31437 0.89999
 C2574 C 0.17860 0.32128 0.88808
 C2575 C 0.21812 0.28169 0.95336
 C2576 C 0.22547 0.27434 0.96472
 H2577 H 0.17976 0.32280 0.93389
 H2578 H 0.19472 0.30782 0.95834
 H2579 H 0.23545 0.29926 0.92822
 H2580 H 0.22051 0.31422 0.90380
 H2581 H 0.18246 0.27976 0.90598
 H2582 H 0.19739 0.26480 0.93041
 C2583 C 0.19386 0.80633 0.41370
 C2584 C 0.18879 0.81322 0.43134
 C2585 C 0.19681 0.80514 0.44452
 C2586 C 0.20911 0.79098 0.43876
 C2587 C 0.22142 0.79971 0.42625
 C2588 C 0.21340 0.80777 0.41308
 C2589 C 0.19022 0.78707 0.41452
 C2590 C 0.19823 0.77901 0.42769
 C2591 C 0.18531 0.81493 0.39942
 C2592 C 0.17844 0.82183 0.38749
 C2593 C 0.21781 0.78221 0.45285
 C2594 C 0.22514 0.77485 0.46422
 H2595 H 0.17971 0.82352 0.43330
 H2596 H 0.19460 0.80853 0.45778
 H2597 H 0.23522 0.79958 0.42762
 H2598 H 0.22034 0.81455 0.40317
 H2599 H 0.18205 0.78037 0.40555
 H2600 H 0.19693 0.76539 0.43000
 C2601 C 0.69407 0.69410 0.58645
 C2602 C 0.68289 0.70749 0.57747
 C2603 C 0.69090 0.71552 0.56426
 C2604 C 0.70930 0.70938 0.56133
 C2605 C 0.70789 0.68995 0.55901
 C2606 C 0.69988 0.68191 0.57222
 C2607 C 0.71027 0.70376 0.59177
 C2608 C 0.71827 0.71179 0.57858
 C2609 C 0.68554 0.68554 0.60075
 C2610 C 0.67868 0.67867 0.61270
 C2611 C 0.71799 0.71810 0.54721
 C2612 C 0.72530 0.72544 0.53582
 H2613 H 0.66984 0.71039 0.58115
 H2614 H 0.68470 0.72530 0.55662
 H2615 H 0.71274 0.68311 0.54797
 H2616 H 0.69787 0.66819 0.57250
 H2617 H 0.71505 0.70425 0.60478
 H2618 H 0.72990 0.71915 0.58028
 C2619 C 0.69446 0.19396 0.08587
 C2620 C 0.71248 0.18707 0.08230
 C2621 C 0.72053 0.19511 0.06913
 C2622 C 0.70978 0.20926 0.06082
 C2623 C 0.70488 0.22126 0.07553
 C2624 C 0.69684 0.21322 0.08869
 C2625 C 0.68496 0.19247 0.06879
 C2626 C 0.69301 0.20052 0.05561
 C2627 C 0.68587 0.18538 0.10013
 C2628 C 0.67898 0.17850 0.11205
 C2629 C 0.71852 0.21799 0.04674
 C2630 C 0.72585 0.22534 0.03537
 H2631 H 0.71839 0.17677 0.08947
 H2632 H 0.73333 0.19170 0.06502
 H2633 H 0.70750 0.23488 0.07560
 H2634 H 0.69256 0.21995 0.10003
 H2635 H 0.67297 0.18569 0.06719
 H2636 H 0.68793 0.20063 0.04272
 C2637 C 0.19430 0.69439 0.08596
 C2638 C 0.18331 0.70812 0.07726
 C2639 C 0.19135 0.71615 0.06408
 C2640 C 0.20959 0.70966 0.06088
 C2641 C 0.20775 0.69030 0.05833
 C2642 C 0.19970 0.68227 0.07152
 C2643 C 0.21075 0.70364 0.09124
 C2644 C 0.21879 0.71166 0.07806
 C2645 C 0.18573 0.68583 0.10024
 C2646 C 0.17884 0.67895 0.11217
 C2647 C 0.21832 0.71838 0.04678
 C2648 C 0.22566 0.72571 0.03540
 H2649 H 0.17036 0.71125 0.08111
 H2650 H 0.18529 0.72616 0.05663
 H2651 H 0.21234 0.68350 0.04715
 H2652 H 0.19741 0.66859 0.07165
 H2653 H 0.21567 0.70386 0.10420
 H2654 H 0.23058 0.71876 0.07974
 C2655 C 0.19376 0.19381 0.58637
 C2656 C 0.19917 0.21220 0.59046
 C2657 C 0.20717 0.22021 0.57726
 C2658 C 0.20900 0.20906 0.56125
 C2659 C 0.19075 0.20325 0.55701
 C2660 C 0.18273 0.19523 0.57022
 C2661 C 0.21020 0.18483 0.58056
 C2662 C 0.21821 0.19285 0.56735
 C2663 C 0.18521 0.18526 0.60068
 C2664 C 0.17836 0.17840 0.61264
 C2665 C 0.21770 0.21777 0.54714
 C2666 C 0.22502 0.22509 0.53574
 H2667 H 0.19690 0.21840 0.60265
 H2668 H 0.21176 0.23327 0.57815
 H2669 H 0.18467 0.20526 0.54471
 H2670 H 0.16979 0.19036 0.56925
 H2671 H 0.21511 0.17319 0.58630
 H2672 H 0.22999 0.18808 0.56178
   
