data_POSCAR
  _audit_creation_date              2014-09-24
  _audit_creation_method            'ToBaCCo'
  _symmetry_space_group_name_H-M    'P1'
  _symmetry_Int_Tables_number       1
  _symmetry_cell_setting            triclinic
  loop_
  _symmetry_equiv_pos_as_xyz
 x,y,z
_cell_length_a 44.9983
_cell_length_b 44.9925
_cell_length_c 44.8460
_cell_angle_alpha 90.007400
_cell_angle_beta 89.999600
_cell_angle_gamma 89.999000
loop_
  _atom_site_label
  _atom_site_type_symbol
  _atom_site_fract_x
  _atom_site_fract_y
  _atom_site_fract_z
Zr1 Zr -0.05310 0.00859 0.00469
 O2 O -0.09181 -0.00967 -0.01246
 O3 O -0.07164 0.03971 0.03556
 O4 O -0.07603 -0.02080 0.03572
 O5 O -0.04063 0.05595 -0.05695
 O6 O -0.04030 -0.04752 0.05889
 O7 O -0.07635 0.03815 -0.02633
 O8 O -0.03081 0.06198 0.05380
 O9 O -0.02396 0.00655 0.04034
 O10 O -0.02360 0.04312 -0.00142
 O11 O -0.03030 -0.03205 0.00206
 O12 O -0.03104 0.00198 -0.03624
 Zr13 Zr 0.05154 -0.00583 -0.00874
 Zr14 Zr -0.00060 -0.03331 0.03714
 Zr15 Zr -0.00079 0.03649 -0.04089
 Zr16 Zr 0.00552 0.04060 0.03314
 O17 O -0.00586 0.02881 -0.08615
 O18 O 0.01015 0.03467 0.07884
 O19 O 0.02953 0.03548 -0.00620
 O20 O 0.02918 0.00119 0.03165
 O21 O 0.02249 -0.04094 -0.00245
 O22 O 0.02202 -0.00337 -0.04360
 C23 C -0.05912 0.05909 0.05260
 C24 C -0.06799 0.05465 -0.04886
 C25 C -0.06787 -0.04107 0.05497
 O26 O 0.00405 -0.02523 0.08238
 O27 O 0.03929 -0.05242 0.05397
 O28 O 0.07418 -0.03626 0.02152
 C29 C 0.06638 -0.05178 0.04490
 O30 O -0.04863 -0.05172 -0.05166
 Zr31 Zr -0.00687 -0.03759 -0.03719
 O32 O 0.07035 -0.03761 -0.03883
 O33 O -0.00502 -0.07917 0.03445
 O34 O -0.01107 -0.08240 -0.02633
 O35 O -0.01056 -0.03290 -0.08312
 O36 O 0.02955 -0.06044 -0.05631
 C37 C 0.05790 -0.05766 -0.05512
 O38 O 0.09024 0.01210 0.00877
 O39 O 0.00406 0.08233 -0.03806
 O40 O 0.07440 0.02351 -0.03979
 O41 O 0.03896 0.05150 -0.06183
 O42 O 0.00897 0.08572 0.02331
 O43 O 0.04717 0.05688 0.04550
 C44 C 0.06641 0.04431 -0.05854
 H45 H -0.03366 0.06229 -0.00146
 H46 H 0.04345 0.00146 0.04796
 H47 H 0.03206 -0.00507 -0.06275
 H48 H -0.04420 -0.04859 0.00350
 H49 H 0.00745 0.05424 0.08814
 H50 H 0.00189 -0.04463 0.09220
 H51 H -0.00267 -0.08660 0.05490
 H52 H -0.00877 -0.09373 -0.04489
 H53 H 0.00621 0.09660 0.04208
 H54 H 0.00093 0.08998 -0.05832
 H55 H -0.00310 0.04822 -0.09580
 H56 H -0.00779 -0.05276 -0.09179
 H57 H 0.04451 0.07176 0.06129
 H58 H 0.10651 0.00155 -0.00138
 H59 H -0.10811 0.00093 -0.00240
 H60 H -0.04606 -0.06902 -0.06474
 Zr61 Zr 0.55127 0.49448 0.49087
 O62 O 0.59008 0.51245 0.50806
 O63 O 0.57012 0.46277 0.46071
 O64 O 0.57422 0.46422 0.52118
 O65 O 0.53792 0.55140 0.43749
 O66 O 0.53974 0.44819 0.55413
 O67 O 0.57375 0.52436 0.46011
 O68 O 0.52939 0.43936 0.44386
 O69 O 0.52255 0.45919 0.49768
 O70 O 0.52149 0.49640 0.45614
 O71 O 0.52921 0.50162 0.53138
 O72 O 0.52889 0.53561 0.49303
 Zr73 Zr 0.44684 0.50822 0.50514
 Zr74 Zr 0.49970 0.46695 0.53741
 Zr75 Zr 0.49824 0.53607 0.45851
 Zr76 Zr 0.49294 0.46201 0.46313
 O77 O 0.50198 0.58204 0.46073
 O78 O 0.48926 0.41726 0.47441
 O79 O 0.46840 0.50135 0.46398
 O80 O 0.46979 0.46772 0.50253
 O81 O 0.47624 0.50674 0.54053
 O82 O 0.47593 0.54293 0.49828
 C83 C 0.55772 0.44246 0.44471
 C84 C 0.56552 0.54488 0.44116
 C85 C 0.56671 0.44882 0.54475
 O86 O 0.49568 0.42102 0.53519
 O87 O 0.46014 0.45249 0.55934
 O88 O 0.42413 0.47887 0.53624
 C89 C 0.43249 0.45871 0.55547
 O90 O 0.54718 0.55757 0.54394
 Zr91 Zr 0.50537 0.54093 0.53261
 O92 O 0.42831 0.53918 0.53617
 O93 O 0.50452 0.47556 0.58252
 O94 O 0.51075 0.53569 0.57831
 O95 O 0.50818 0.58603 0.52247
 O96 O 0.46910 0.56210 0.55362
 C97 C 0.44081 0.55883 0.55289
 O98 O 0.40813 0.48980 0.48815
 O99 O 0.49352 0.52781 0.41332
 O100 O 0.42341 0.53794 0.47477
 O101 O 0.45775 0.55410 0.44174
 O102 O 0.48877 0.46633 0.41720
 O103 O 0.45121 0.44731 0.44913
 C104 C 0.43078 0.55340 0.45122
 H105 H 0.53147 0.49464 0.43696
 H106 H 0.45602 0.45110 0.50417
 H107 H 0.46572 0.56202 0.49821
 H108 H 0.54362 0.50212 0.54757
 H109 H 0.49154 0.40579 0.45594
 H110 H 0.49806 0.41381 0.55572
 H111 H 0.50245 0.45626 0.59255
 H112 H 0.50816 0.55540 0.58734
 H113 H 0.49171 0.44645 0.40864
 H114 H 0.49602 0.54715 0.40347
 H115 H 0.49883 0.58926 0.44031
 H116 H 0.50576 0.59697 0.54127
 H117 H 0.45386 0.42995 0.43614
 H118 H 0.39182 0.50037 0.49823
 H119 H 0.60629 0.50190 0.49781
 H120 H 0.54478 0.57257 0.55964
 Zr121 Zr 0.55139 -0.00701 0.50863
 O122 O 0.59007 0.01194 0.49220
 O123 O 0.56998 -0.03869 0.53899
 O124 O 0.57374 0.02118 0.54096
 O125 O 0.54042 -0.05213 0.44473
 O126 O 0.53807 0.04939 0.56233
 O127 O 0.57482 -0.03623 0.47783
 O128 O 0.52905 -0.06120 0.55658
 O129 O 0.52186 -0.00519 0.54388
 O130 O 0.52219 -0.04155 0.50162
 O131 O 0.52868 0.03364 0.50586
 O132 O 0.53002 0.00003 0.46741
 Zr133 Zr 0.44705 0.00722 0.49395
 Zr134 Zr 0.49853 0.03475 0.54052
 Zr135 Zr 0.50000 -0.03448 0.46180
 Zr136 Zr 0.49276 -0.03937 0.53595
 O137 O 0.50468 -0.02629 0.41657
 O138 O 0.48792 -0.03387 0.58167
 O139 O 0.46933 -0.03395 0.49629
 O140 O 0.46899 0.00008 0.53453
 O141 O 0.47585 0.04245 0.50073
 O142 O 0.47692 0.00521 0.45930
 C143 C 0.55744 -0.05839 0.55564
 C144 C 0.56740 -0.05138 0.45409
 C145 C 0.56556 0.04195 0.55962
 O146 O 0.49345 0.02641 0.58565
 O147 O 0.45845 0.05401 0.55683
 O148 O 0.42412 0.03800 0.52376
 C149 C 0.43154 0.05361 0.54723
 O150 O 0.54739 0.05442 0.45261
 Zr151 Zr 0.50568 0.03945 0.46636
 O152 O 0.42854 0.03853 0.46320
 O153 O 0.50283 0.08065 0.53811
 O154 O 0.50917 0.08419 0.47772
 O155 O 0.51042 0.03484 0.42052
 O156 O 0.46942 0.06190 0.44658
 C157 C 0.44110 0.05870 0.44714
 O158 O 0.40800 -0.01012 0.51127
 O159 O 0.49630 -0.08045 0.46396
 O160 O 0.42440 -0.02329 0.46390
 O161 O 0.46037 -0.04960 0.44063
 O162 O 0.48923 -0.08439 0.52570
 O163 O 0.45094 -0.05560 0.54780
 C164 C 0.43273 -0.04357 0.44476
 H165 H 0.53233 -0.06068 0.50144
 H166 H 0.45452 -0.00024 0.55068
 H167 H 0.46703 0.00690 0.44008
 H168 H 0.54264 0.05010 0.50761
 H169 H 0.49055 -0.05355 0.59076
 H170 H 0.49562 0.04576 0.59557
 H171 H 0.50029 0.08800 0.55857
 H172 H 0.50680 0.09570 0.45927
 H173 H 0.49174 -0.09542 0.54442
 H174 H 0.49950 -0.08764 0.44355
 H175 H 0.50212 -0.04562 0.40671
 H176 H 0.50735 0.05461 0.41176
 H177 H 0.45340 -0.07052 0.56357
 H178 H 0.39192 0.00038 0.50077
 H179 H 0.60637 0.00119 0.50210
 H180 H 0.54469 0.07173 0.43957
 Zr181 Zr -0.05286 0.50882 -0.00793
 O182 O -0.09250 0.49235 0.00887
 O183 O -0.07074 0.53998 -0.03958
 O184 O -0.07575 0.53974 0.02196
 O185 O -0.04055 0.45139 -0.06166
 O186 O -0.04168 0.55503 0.05567
 O187 O -0.07612 0.47690 -0.03818
 O188 O -0.02928 0.56333 -0.05414
 O189 O -0.02376 0.54381 -0.00052
 O190 O -0.02252 0.50660 -0.04208
 O191 O -0.03137 0.50135 0.03295
 O192 O -0.03095 0.46750 -0.00526
 Zr193 Zr 0.05131 0.49356 0.00791
 Zr194 Zr -0.00157 0.53572 0.03950
 Zr195 Zr 0.00010 0.46667 -0.03940
 Zr196 Zr 0.00651 0.54051 -0.03444
 O197 O -0.00380 0.42071 -0.03736
 O198 O 0.01049 0.58519 -0.02296
 O199 O 0.03042 0.50087 -0.03340
 O200 O 0.02898 0.53447 0.00522
 O201 O 0.02141 0.49560 0.04296
 O202 O 0.02188 0.45934 0.00061
 C203 C -0.05761 0.56027 -0.05509
 C204 C -0.06757 0.45729 -0.05698
 C205 C -0.06848 0.55497 0.04575
 O206 O 0.00292 0.58161 0.03731
 O207 O 0.03794 0.55009 0.06163
 O208 O 0.07359 0.52166 0.04050
 C209 C 0.06542 0.54249 0.05910
 O210 O -0.04985 0.44563 0.04620
 Zr211 Zr -0.00790 0.46170 0.03462
 O212 O 0.06940 0.46185 0.03843
 O213 O -0.00702 0.52723 0.08456
 O214 O -0.01324 0.46718 0.08029
 O215 O -0.01172 0.41677 0.02410
 O216 O 0.02813 0.43962 0.05557
 C217 C 0.05655 0.44224 0.05492
 O218 O 0.09026 0.51230 -0.00809
 O219 O 0.00509 0.47493 -0.08457
 O220 O 0.07532 0.46308 -0.02334
 O221 O 0.04169 0.44860 -0.05702
 O222 O 0.01153 0.53628 -0.08031
 O223 O 0.04852 0.55499 -0.04782
 C224 C 0.06785 0.44891 -0.04692
 H225 H -0.03211 0.50839 -0.06144
 H226 H 0.04304 0.55083 0.00712
 H227 H 0.03188 0.44014 0.00048
 H228 H -0.04602 0.50106 0.04893
 H229 H 0.00838 0.59678 -0.04138
 H230 H 0.00032 0.58888 0.05778
 H231 H -0.00474 0.54652 0.09457
 H232 H -0.01061 0.44751 0.08941
 H233 H 0.00870 0.55616 -0.08891
 H234 H 0.00244 0.45564 -0.09448
 H235 H -0.00047 0.41355 -0.05777
 H236 H -0.00914 0.40561 0.04273
 H237 H 0.04618 0.57244 -0.06076
 H238 H 0.10639 0.50140 0.00193
 H239 H -0.10820 0.50305 -0.00200
 H240 H -0.04754 0.43054 0.06183
 Zr241 Zr 0.05522 0.50130 0.49470
 O242 O 0.09266 0.48044 0.51169
 O243 O 0.07545 0.53090 0.46431
 O244 O 0.07689 0.47167 0.46273
 O245 O 0.04547 0.55023 0.55635
 O246 O 0.03908 0.44576 0.44215
 O247 O 0.07968 0.52911 0.52616
 O248 O 0.03736 0.55544 0.44334
 O249 O 0.02623 0.50058 0.45897
 O250 O 0.02833 0.53796 0.49996
 O251 O 0.03013 0.46224 0.49788
 O252 O 0.03287 0.49702 0.53562
 Zr253 Zr -0.05007 0.49387 0.50813
 Zr254 Zr 0.00026 0.46248 0.46303
 Zr255 Zr 0.00482 0.53340 0.53936
 Zr256 Zr -0.00061 0.53690 0.46516
 O257 O 0.00856 0.52652 0.58490
 O258 O -0.00585 0.53000 0.41967
 O259 O -0.02530 0.53367 0.50452
 O260 O -0.02705 0.49906 0.46770
 O261 O -0.02320 0.45696 0.50263
 O262 O -0.02036 0.49507 0.54292
 C263 C 0.06533 0.55021 0.44574
 C264 C 0.07265 0.54634 0.54862
 C265 C 0.06701 0.45126 0.44450
 O266 O -0.00423 0.46967 0.41762
 O267 O -0.04028 0.44468 0.44663
 O268 O -0.07435 0.46503 0.47745
 C269 C -0.06740 0.44794 0.45487
 O270 O 0.04767 0.44368 0.55213
 Zr271 Zr 0.00652 0.45906 0.53720
 O272 O -0.07023 0.46263 0.53813
 O273 O 0.00204 0.41648 0.46665
 O274 O 0.00883 0.41387 0.52734
 O275 O 0.00973 0.46427 0.58312
 O276 O -0.03070 0.43796 0.55610
 C277 C -0.05879 0.44198 0.55450
 O278 O -0.08775 0.51398 0.49077
 O279 O 0.00341 0.57941 0.53574
 O280 O -0.07187 0.52435 0.53925
 O281 O -0.03423 0.55122 0.55885
 O282 O -0.00084 0.58223 0.47453
 O283 O -0.04090 0.55589 0.45222
 C284 C -0.06214 0.54547 0.55673
 H285 H 0.03977 0.55634 0.49985
 H286 H -0.04122 0.49984 0.45131
 H287 H -0.03055 0.49426 0.56205
 H288 H 0.04313 0.44497 0.49660
 H289 H -0.00184 0.54906 0.40980
 H290 H -0.00253 0.45001 0.40823
 H291 H -0.00006 0.40874 0.44629
 H292 H 0.00649 0.40304 0.54619
 H293 H 0.00311 0.59265 0.45570
 H294 H 0.00624 0.58714 0.55602
 H295 H 0.00643 0.54622 0.59409
 H296 H 0.00645 0.44459 0.59200
 H297 H -0.03698 0.57051 0.43645
 H298 H -0.10459 0.50400 0.50056
 H299 H 0.10962 0.49044 0.50215
 H300 H 0.04441 0.42683 0.56562
 Zr301 Zr 0.44987 -0.00608 0.00809
 O302 O 0.41218 0.01394 -0.00934
 O303 O 0.42973 -0.03724 0.03817
 O304 O 0.42562 -0.03497 -0.02255
 O305 O 0.46564 0.05149 0.05853
 O306 O 0.45973 -0.05553 -0.05318
 O307 O 0.42802 0.02450 0.03905
 O308 O 0.46928 -0.06180 0.05626
 O309 O 0.47679 -0.04299 0.00273
 O310 O 0.47957 -0.00471 0.04288
 O311 O 0.47290 -0.00103 -0.03235
 O312 O 0.47461 0.03373 0.00435
 Zr313 Zr 0.55516 0.00140 -0.00535
 Zr314 Zr 0.50026 -0.03760 -0.03688
 Zr315 Zr 0.50474 0.03361 0.03919
 Zr316 Zr 0.50649 -0.04073 0.03730
 O317 O 0.50332 0.07962 0.03542
 O318 O 0.50885 -0.08595 0.02761
 O319 O 0.53282 -0.00275 0.03558
 O320 O 0.53012 -0.03767 -0.00201
 O321 O 0.52617 0.00052 -0.04108
 O322 O 0.52823 0.03805 -0.00023
 C323 C 0.44118 -0.05783 0.05462
 C324 C 0.43774 0.04573 0.05642
 C325 C 0.43261 -0.05219 -0.04505
 O326 O 0.50209 -0.08358 -0.03308
 O327 O 0.53911 -0.05436 -0.05767
 O328 O 0.57689 -0.02831 -0.03722
 C329 C 0.56705 -0.04881 -0.05535
 O330 O 0.45896 0.05567 -0.04809
 Zr331 Zr 0.49929 0.03683 -0.03502
 O332 O 0.57535 0.03096 -0.03584
 O333 O 0.49577 -0.03060 -0.08231
 O334 O 0.49417 0.02974 -0.08050
 O335 O 0.49890 0.08220 -0.02581
 O336 O 0.53722 0.05544 -0.05681
 C337 C 0.56519 0.05024 -0.05441
 O338 O 0.59261 -0.01937 0.01171
 O339 O 0.50844 0.02691 0.08475
 O340 O 0.57961 0.02934 0.02600
 O341 O 0.54538 0.05055 0.05611
 O342 O 0.50967 -0.03532 0.08320
 O343 O 0.54763 -0.05603 0.05233
 C344 C 0.57257 0.04665 0.04839
 H345 H 0.46937 -0.00545 0.06200
 H346 H 0.54314 -0.05493 -0.00323
 H347 H 0.53965 0.05646 -0.00040
 H348 H 0.45875 -0.00033 -0.04876
 H349 H 0.50649 -0.09672 0.04649
 H350 H 0.50003 -0.09140 -0.05342
 H351 H 0.49751 -0.05029 -0.09162
 H352 H 0.49813 0.04879 -0.09042
 H353 H 0.50637 -0.05496 0.09217
 H354 H 0.50628 0.04666 0.09386
 H355 H 0.50610 0.08741 0.05568
 H356 H 0.50280 0.09257 -0.04466
 H357 H 0.54436 -0.07283 0.06589
 H358 H 0.60957 -0.00937 0.00215
 H359 H 0.39534 0.00396 0.00047
 H360 H 0.46286 0.07020 -0.06393
 Zr361 Zr 0.44924 0.49492 -0.00859
 O362 O 0.41172 0.51644 0.00733
 O363 O 0.42929 0.46380 -0.03890
 O364 O 0.42870 0.52395 -0.04081
 O365 O 0.45791 0.44622 0.05358
 O366 O 0.46777 0.55066 -0.05819
 O367 O 0.42427 0.46749 0.02281
 O368 O 0.46895 0.43942 -0.05705
 O369 O 0.47933 0.49572 -0.04350
 O370 O 0.47622 0.45840 -0.00259
 O371 O 0.47504 0.53374 -0.00385
 O372 O 0.47147 0.49943 0.03273
 Zr373 Zr 0.55482 0.50116 0.00648
 Zr374 Zr 0.50541 0.53367 -0.03824
 Zr375 Zr 0.49895 0.46265 0.03722
 Zr376 Zr 0.50605 0.45935 -0.03665
 O377 O 0.49442 0.46941 0.08270
 O378 O 0.51020 0.46626 -0.08225
 O379 O 0.52979 0.46174 0.00302
 O380 O 0.53238 0.49691 -0.03404
 O381 O 0.52881 0.53871 0.00136
 O382 O 0.52488 0.50035 0.04115
 C383 C 0.44085 0.44344 -0.05558
 C384 C 0.43088 0.45025 0.04544
 C385 C 0.43953 0.54530 -0.05799
 O386 O 0.50981 0.52710 -0.08375
 O387 O 0.54590 0.55129 -0.05433
 O388 O 0.57970 0.53005 -0.02384
 C389 C 0.57294 0.54755 -0.04621
 O390 O 0.45884 0.55540 0.05021
 Zr391 Zr 0.49886 0.53696 0.03571
 O392 O 0.57500 0.53089 0.03673
 O393 O 0.50413 0.57967 -0.03434
 O394 O 0.49899 0.58207 0.02538
 O395 O 0.49311 0.53024 0.08117
 O396 O 0.53692 0.55598 0.05707
 C397 C 0.56490 0.55063 0.05481
 O398 O 0.59225 0.48055 -0.01082
 O399 O 0.49980 0.41660 0.03367
 O400 O 0.57599 0.47062 0.03787
 O401 O 0.53767 0.44450 0.05723
 O402 O 0.50754 0.41403 -0.02727
 O403 O 0.54667 0.44129 -0.04994
 C404 C 0.56572 0.44982 0.05541
 H405 H 0.46492 0.43993 -0.00270
 H406 H 0.54658 0.49620 -0.05040
 H407 H 0.53481 0.50069 0.06042
 H408 H 0.46223 0.55117 -0.00518
 H409 H 0.50660 0.44705 -0.09200
 H410 H 0.50817 0.54688 -0.09288
 H411 H 0.50683 0.58758 -0.05456
 H412 H 0.50280 0.59291 0.04398
 H413 H 0.50466 0.40339 -0.04616
 H414 H 0.49688 0.40894 0.05396
 H415 H 0.49655 0.44970 0.09189
 H416 H 0.49830 0.54898 0.09111
 H417 H 0.54304 0.42707 -0.06613
 H418 H 0.60920 0.49024 -0.00092
 H419 H 0.39487 0.50630 -0.00227
 H420 H 0.46331 0.57167 0.06409
 Zr421 Zr 0.05543 0.00080 0.50608
 O422 O 0.09283 -0.01944 0.48830
 O423 O 0.07576 0.03067 0.53616
 O424 O 0.07965 0.02988 0.47544
 O425 O 0.03940 -0.05591 0.55760
 O426 O 0.04534 0.05084 0.44527
 O427 O 0.07716 -0.02971 0.53725
 O428 O 0.03771 0.05543 0.55696
 O429 O 0.02895 0.03808 0.50101
 O430 O 0.02600 -0.00020 0.54116
 O431 O 0.03247 -0.00369 0.46582
 O432 O 0.03078 -0.03888 0.50317
 Zr433 Zr -0.04995 -0.00657 0.49265
 Zr434 Zr 0.00493 0.03279 0.46162
 Zr435 Zr 0.00040 -0.03822 0.53785
 Zr436 Zr -0.00036 0.03617 0.53590
 O437 O 0.00176 -0.08427 0.53438
 O438 O -0.00047 0.08123 0.52535
 O439 O -0.02738 -0.00168 0.53369
 O440 O -0.02466 0.03255 0.49668
 O441 O -0.02066 -0.00557 0.45719
 O442 O -0.02268 -0.04290 0.49831
 C443 C 0.06569 0.05027 0.55444
 C444 C 0.06735 -0.05043 0.55520
 C445 C 0.07253 0.04732 0.45313
 O446 O 0.00295 0.07879 0.46524
 O447 O -0.03396 0.04993 0.44114
 O448 O -0.07170 0.02339 0.46093
 C449 C -0.06190 0.04430 0.44324
 O450 O 0.04743 -0.05930 0.45058
 Zr451 Zr 0.00662 -0.04161 0.46378
 O452 O -0.07009 -0.03758 0.46233
 O453 O 0.00911 0.02569 0.41618
 O454 O 0.01046 -0.03504 0.41810
 O455 O 0.00833 -0.08696 0.47300
 O456 O -0.03052 -0.06167 0.44362
 C457 C -0.05864 -0.05776 0.44535
 O458 O -0.08766 0.01408 0.50932
 O459 O -0.00361 -0.03125 0.58334
 O460 O -0.07443 -0.03417 0.52419
 O461 O -0.04037 -0.05500 0.55473
 O462 O -0.00559 0.02982 0.58148
 O463 O -0.04046 0.05430 0.55059
 C464 C -0.06752 -0.05124 0.54679
 H465 H 0.03619 0.00031 0.56030
 H466 H -0.03768 0.04982 0.49550
 H467 H -0.03385 -0.06144 0.49832
 H468 H 0.04650 -0.00435 0.44931
 H469 H 0.00332 0.09216 0.54390
 H470 H 0.00528 0.08659 0.44493
 H471 H 0.00746 0.04539 0.40686
 H472 H 0.00713 -0.05440 0.40854
 H473 H -0.00078 0.04878 0.59119
 H474 H -0.00143 -0.05093 0.59259
 H475 H -0.00105 -0.09191 0.55469
 H476 H 0.00557 -0.09752 0.45405
 H477 H -0.03605 0.07086 0.56413
 H478 H -0.10450 0.00387 0.49976
 H479 H 0.10979 -0.00968 0.49809
 H480 H 0.04399 -0.07358 0.43441
 Zr481 Zr 0.75332 0.19617 0.24596
 O482 O 0.73155 0.15978 0.26403
 O483 O 0.78224 0.17487 0.21533
 O484 O 0.72348 0.17444 0.21432
 O485 O 0.80354 0.20546 0.30647
 O486 O 0.69809 0.21231 0.19326
 O487 O 0.78122 0.17139 0.27704
 O488 O 0.80758 0.21210 0.19375
 O489 O 0.75298 0.22445 0.20972
 O490 O 0.79065 0.22220 0.25041
 O491 O 0.71487 0.22236 0.24924
 O492 O 0.74956 0.21955 0.28647
 Zr493 Zr 0.74889 0.30154 0.25693
 Zr494 Zr 0.71545 0.25122 0.21356
 Zr495 Zr 0.78695 0.24635 0.28947
 Zr496 Zr 0.79003 0.25052 0.21505
 O497 O 0.78022 0.24283 0.33503
 O498 O 0.78320 0.25503 0.16948
 O499 O 0.78799 0.27579 0.25400
 O500 O 0.75279 0.27766 0.21705
 O501 O 0.71094 0.27601 0.25255
 O502 O 0.74944 0.27281 0.29253
 C503 C 0.80168 0.18437 0.19651
 C504 C 0.79908 0.17826 0.29905
 C505 C 0.70328 0.18434 0.19590
 O506 O 0.72237 0.25498 0.16805
 O507 O 0.69804 0.29178 0.19689
 O508 O 0.72026 0.32603 0.22617
 C509 C 0.70235 0.31899 0.20424
 O510 O 0.69425 0.20750 0.30348
 Zr511 Zr 0.71230 0.24734 0.28803
 O512 O 0.71940 0.32311 0.28688
 O513 O 0.66945 0.24991 0.21734
 O514 O 0.66715 0.24770 0.27790
 O515 O 0.71834 0.24354 0.33380
 O516 O 0.69355 0.28603 0.30809
 C517 C 0.69937 0.31380 0.30518
 O518 O 0.77002 0.33810 0.23842
 O519 O 0.83295 0.24726 0.28547
 O520 O 0.77977 0.32314 0.28768
 O521 O 0.80521 0.28532 0.30888
 O522 O 0.83551 0.24963 0.22368
 O523 O 0.80948 0.29054 0.20196
 C524 C 0.80015 0.31330 0.30595
 H525 H 0.80879 0.21036 0.25029
 H526 H 0.75369 0.29145 0.20033
 H527 H 0.74919 0.28337 0.31147
 H528 H 0.69730 0.20972 0.24825
 H529 H 0.80234 0.25113 0.15973
 H530 H 0.70262 0.25353 0.15883
 H531 H 0.66165 0.25203 0.19700
 H532 H 0.65643 0.25144 0.29659
 H533 H 0.84556 0.24607 0.20458
 H534 H 0.84079 0.24447 0.30572
 H535 H 0.80001 0.24467 0.34413
 H536 H 0.69915 0.24808 0.34319
 H537 H 0.82375 0.28646 0.18592
 H538 H 0.76072 0.35548 0.24792
 H539 H 0.74093 0.14231 0.25479
 H540 H 0.67759 0.21213 0.31682
 Zr541 Zr 0.74919 0.80145 0.74400
 O542 O 0.77087 0.83813 0.76160
 O543 O 0.71987 0.82269 0.71359
 O544 O 0.77925 0.82288 0.71233
 O545 O 0.69950 0.79222 0.80502
 O546 O 0.80453 0.78485 0.69143
 O547 O 0.72163 0.82624 0.77538
 O548 O 0.69416 0.78540 0.69258
 O549 O 0.74949 0.77294 0.70793
 O550 O 0.71190 0.77541 0.74876
 O551 O 0.78766 0.77529 0.74737
 O552 O 0.75306 0.77831 0.78463
 Zr553 Zr 0.75384 0.69607 0.75585
 Zr554 Zr 0.78704 0.74611 0.71195
 Zr555 Zr 0.71577 0.75139 0.78789
 Zr556 Zr 0.71244 0.74693 0.71355
 O557 O 0.72245 0.75499 0.83347
 O558 O 0.71944 0.74273 0.66798
 O559 O 0.71468 0.72176 0.75263
 O560 O 0.74970 0.71971 0.71580
 O561 O 0.79173 0.72164 0.75113
 O562 O 0.75331 0.72515 0.79115
 C563 C 0.70002 0.81320 0.69516
 C564 C 0.70400 0.81937 0.79755
 C565 C 0.79948 0.81285 0.69401
 O566 O 0.78002 0.74194 0.66649
 O567 O 0.80448 0.70537 0.69560
 O568 O 0.78283 0.67139 0.72561
 C569 C 0.80055 0.67824 0.70345
 O570 O 0.80882 0.79054 0.80121
 Zr571 Zr 0.79038 0.75066 0.78632
 O572 O 0.78267 0.67482 0.78678
 O573 O 0.83306 0.74746 0.71557
 O574 O 0.83548 0.74984 0.77599
 O575 O 0.78436 0.75533 0.83202
 O576 O 0.80883 0.71226 0.80704
 C577 C 0.80259 0.68452 0.80502
 O578 O 0.73274 0.65951 0.73732
 O579 O 0.66975 0.75064 0.78407
 O580 O 0.72325 0.67446 0.78683
 O581 O 0.69757 0.71244 0.80737
 O582 O 0.66705 0.74716 0.72267
 O583 O 0.69314 0.70703 0.69988
 C584 C 0.70278 0.68444 0.80488
 H585 H 0.69375 0.78722 0.74872
 H586 H 0.74882 0.70577 0.69921
 H587 H 0.75351 0.71486 0.81022
 H588 H 0.80524 0.78791 0.74627
 H589 H 0.70039 0.74690 0.65816
 H590 H 0.79976 0.74341 0.65722
 H591 H 0.84080 0.74508 0.69523
 H592 H 0.84626 0.74617 0.79466
 H593 H 0.65674 0.75105 0.70378
 H594 H 0.66200 0.75337 0.80435
 H595 H 0.70268 0.75300 0.84258
 H596 H 0.80350 0.75075 0.84151
 H597 H 0.67877 0.71133 0.68400
 H598 H 0.74196 0.64212 0.74689
 H599 H 0.76133 0.85546 0.75224
 H600 H 0.82553 0.78594 0.81449
 Zr601 Zr 0.25278 0.30541 0.75345
 O602 O 0.23298 0.34256 0.73466
 O603 O 0.28209 0.32586 0.78388
 O604 O 0.22312 0.32814 0.78432
 O605 O 0.30111 0.29386 0.69230
 O606 O 0.19828 0.29196 0.80877
 O607 O 0.28260 0.32891 0.72329
 O608 O 0.30621 0.28790 0.80553
 O609 O 0.25174 0.27758 0.79002
 O610 O 0.28877 0.27757 0.74864
 O611 O 0.21313 0.28127 0.75128
 O612 O 0.24767 0.28233 0.71306
 Zr613 Zr 0.24303 0.20029 0.74314
 Zr614 Zr 0.21299 0.25253 0.78707
 Zr615 Zr 0.28343 0.25347 0.70965
 Zr616 Zr 0.28733 0.24972 0.78431
 O617 O 0.27588 0.25716 0.66423
 O618 O 0.28097 0.24522 0.82995
 O619 O 0.28334 0.22432 0.74547
 O620 O 0.24883 0.22416 0.78296
 O621 O 0.20675 0.22811 0.74813
 O622 O 0.24457 0.22893 0.70743
 C623 C 0.30118 0.31587 0.80270
 C624 C 0.29922 0.32113 0.70068
 C625 C 0.20372 0.31963 0.80426
 O626 O 0.22052 0.24752 0.83236
 O627 O 0.19335 0.21276 0.80282
 O628 O 0.21311 0.17687 0.77370
 C629 C 0.19560 0.18529 0.79541
 O630 O 0.19406 0.29766 0.69700
 Zr631 Zr 0.20916 0.25668 0.71263
 O632 O 0.21197 0.17984 0.71315
 O633 O 0.16710 0.25683 0.78404
 O634 O 0.16410 0.25952 0.72291
 O635 O 0.21396 0.25896 0.66662
 O636 O 0.18769 0.21928 0.69445
 C637 C 0.19151 0.19118 0.69647
 O638 O 0.26212 0.16272 0.76182
 O639 O 0.32937 0.25033 0.71297
 O640 O 0.27398 0.17773 0.71335
 O641 O 0.29944 0.21378 0.68928
 O642 O 0.33272 0.24893 0.77518
 O643 O 0.30559 0.20908 0.79720
 C644 C 0.29398 0.18612 0.69390
 H645 H 0.30745 0.28852 0.74858
 H646 H 0.24925 0.21032 0.79965
 H647 H 0.24340 0.21827 0.68857
 H648 H 0.19614 0.29466 0.75240
 H649 H 0.30030 0.24881 0.83945
 H650 H 0.20098 0.24950 0.84193
 H651 H 0.15947 0.25451 0.80442
 H652 H 0.15306 0.25682 0.70422
 H653 H 0.34303 0.25270 0.79409
 H654 H 0.33700 0.25329 0.69268
 H655 H 0.29545 0.25504 0.65474
 H656 H 0.19413 0.25585 0.65798
 H657 H 0.32027 0.21270 0.81297
 H658 H 0.25238 0.14582 0.75191
 H659 H 0.24262 0.35968 0.74428
 H660 H 0.17688 0.29430 0.68394
 Zr661 Zr 0.24184 0.70005 0.25597
 O662 O 0.26145 0.66250 0.23777
 O663 O 0.21097 0.67985 0.28634
 O664 O 0.27184 0.67736 0.28658
 O665 O 0.19309 0.71243 0.19571
 O666 O 0.29753 0.71337 0.31043
 O667 O 0.21267 0.67643 0.22482
 O668 O 0.18752 0.71945 0.30580
 O669 O 0.24327 0.72827 0.29236
 O670 O 0.20633 0.72849 0.25094
 O671 O 0.28166 0.72445 0.25334
 O672 O 0.24768 0.72347 0.21558
 Zr673 Zr 0.25207 0.80520 0.24556
 Zr674 Zr 0.28232 0.75304 0.28936
 Zr675 Zr 0.21194 0.75234 0.21199
 Zr676 Zr 0.20809 0.75671 0.28632
 O677 O 0.21941 0.74759 0.16665
 O678 O 0.21425 0.75976 0.33211
 O679 O 0.21172 0.78171 0.24752
 O680 O 0.24666 0.78166 0.28535
 O681 O 0.28858 0.77770 0.25045
 O682 O 0.25068 0.77684 0.20971
 C683 C 0.19109 0.69131 0.30365
 C684 C 0.19532 0.68493 0.20300
 C685 C 0.29180 0.68571 0.30603
 O686 O 0.27463 0.75702 0.33473
 O687 O 0.30110 0.79310 0.30629
 O688 O 0.28292 0.82817 0.27517
 C689 C 0.29956 0.82032 0.29775
 O690 O 0.30382 0.70921 0.19973
 Zr691 Zr 0.28631 0.74948 0.21469
 O692 O 0.28180 0.82566 0.21547
 O693 O 0.32822 0.74929 0.28632
 O694 O 0.33124 0.74870 0.22571
 O695 O 0.28064 0.74504 0.16894
 O696 O 0.30615 0.78762 0.19420
 C697 C 0.30125 0.81563 0.19702
 O698 O 0.23322 0.84263 0.26476
 O699 O 0.16605 0.75642 0.21522
 O700 O 0.22143 0.82790 0.21557
 O701 O 0.19647 0.79182 0.19103
 O702 O 0.16275 0.75917 0.27723
 O703 O 0.19108 0.79774 0.29972
 C704 C 0.20184 0.81946 0.19573
 H705 H 0.18746 0.71787 0.25076
 H706 H 0.24627 0.79550 0.30204
 H707 H 0.25157 0.78737 0.19078
 H708 H 0.29864 0.71105 0.25441
 H709 H 0.19472 0.75672 0.34139
 H710 H 0.29419 0.75518 0.34430
 H711 H 0.33580 0.75171 0.30671
 H712 H 0.34239 0.75257 0.20729
 H713 H 0.15222 0.75640 0.29621
 H714 H 0.15830 0.75343 0.19496
 H715 H 0.19991 0.75005 0.15710
 H716 H 0.29993 0.74933 0.15964
 H717 H 0.17680 0.79447 0.31592
 H718 H 0.24282 0.85958 0.25481
 H719 H 0.25147 0.64557 0.24741
 H720 H 0.32085 0.71344 0.18672
 Zr721 Zr 0.24905 0.80061 0.75765
 O722 O 0.27033 0.83700 0.73900
 O723 O 0.21961 0.82234 0.78755
 O724 O 0.22043 0.82511 0.72687
 O725 O 0.30534 0.78437 0.80955
 O726 O 0.19836 0.79088 0.69746
 O727 O 0.27991 0.82223 0.78841
 O728 O 0.19363 0.78538 0.80883
 O729 O 0.21103 0.77518 0.75331
 O730 O 0.24953 0.77195 0.79330
 O731 O 0.25293 0.77659 0.71784
 O732 O 0.28808 0.77472 0.75477
 Zr733 Zr 0.25310 0.69511 0.74708
 Zr734 Zr 0.21550 0.75027 0.71439
 Zr735 Zr 0.28699 0.74538 0.79029
 Zr736 Zr 0.21229 0.74660 0.78888
 O737 O 0.33298 0.74627 0.78620
 O738 O 0.16713 0.74706 0.77876
 O739 O 0.24946 0.71873 0.78744
 O740 O 0.21475 0.72150 0.75016
 O741 O 0.25291 0.72329 0.71074
 O742 O 0.29057 0.72097 0.75139
 C743 C 0.19953 0.81313 0.80586
 C744 C 0.30032 0.81236 0.80663
 C745 C 0.20263 0.81810 0.70483
 O746 O 0.16949 0.74919 0.71817
 O747 O 0.19806 0.71141 0.69411
 O748 O 0.22322 0.67351 0.71537
 C749 C 0.20315 0.68342 0.69683
 O750 O 0.30970 0.78913 0.70270
 Zr751 Zr 0.29004 0.74926 0.71597
 O752 O 0.28224 0.67365 0.71668
 O753 O 0.22250 0.75385 0.66887
 O754 O 0.28322 0.75364 0.67037
 O755 O 0.33550 0.74821 0.72469
 O756 O 0.30745 0.71078 0.69476
 C757 C 0.30160 0.68307 0.69771
 O758 O 0.23109 0.65861 0.76467
 O759 O 0.28032 0.74194 0.83587
 O760 O 0.27979 0.67027 0.77931
 O761 O 0.30372 0.70453 0.80722
 O762 O 0.21826 0.74297 0.83466
 O763 O 0.19421 0.70681 0.80442
 C764 C 0.29815 0.67727 0.80086
 H765 H 0.24932 0.78255 0.81222
 H766 H 0.19712 0.70894 0.74919
 H767 H 0.30861 0.70899 0.75139
 H768 H 0.25390 0.79032 0.70109
 H769 H 0.15642 0.75081 0.79746
 H770 H 0.16172 0.75129 0.69781
 H771 H 0.20274 0.75248 0.65963
 H772 H 0.30236 0.74967 0.66062
 H773 H 0.19904 0.74749 0.84401
 H774 H 0.30013 0.74379 0.84492
 H775 H 0.34087 0.74357 0.80643
 H776 H 0.34558 0.74452 0.70562
 H777 H 0.17752 0.71148 0.81770
 H778 H 0.24061 0.64117 0.75549
 H779 H 0.26110 0.85447 0.74842
 H780 H 0.32399 0.78489 0.68672
 Zr781 Zr 0.25293 0.19654 0.25452
 O782 O 0.23171 0.16006 0.23597
 O783 O 0.28230 0.17525 0.28475
 O784 O 0.28185 0.17191 0.22420
 O785 O 0.19674 0.21273 0.30623
 O786 O 0.30373 0.20596 0.19444
 O787 O 0.22249 0.17482 0.28564
 O788 O 0.30795 0.21253 0.30588
 O789 O 0.29082 0.22212 0.24988
 O790 O 0.25247 0.22545 0.28994
 O791 O 0.24884 0.22027 0.21453
 O792 O 0.21378 0.22222 0.25143
 Zr793 Zr 0.24835 0.30191 0.24296
 Zr794 Zr 0.28619 0.24668 0.21076
 Zr795 Zr 0.21493 0.25173 0.28679
 Zr796 Zr 0.28952 0.25100 0.28520
 O797 O 0.16892 0.25103 0.28300
 O798 O 0.33463 0.25016 0.27491
 O799 O 0.25222 0.27866 0.28354
 O800 O 0.28682 0.27575 0.24628
 O801 O 0.24862 0.27350 0.20683
 O802 O 0.21106 0.27586 0.24770
 C803 C 0.30212 0.18475 0.30319
 C804 C 0.20199 0.18472 0.30373
 C805 C 0.29970 0.17879 0.20219
 O806 O 0.33220 0.24815 0.21440
 O807 O 0.30357 0.28549 0.19022
 O808 O 0.27826 0.32347 0.21118
 C809 C 0.29846 0.31349 0.19278
 O810 O 0.19230 0.20757 0.19871
 Zr811 Zr 0.21156 0.24748 0.21242
 O812 O 0.21899 0.32322 0.21263
 O813 O 0.27920 0.24250 0.16529
 O814 O 0.21852 0.24342 0.16682
 O815 O 0.16617 0.24771 0.22153
 O816 O 0.19325 0.28597 0.19157
 C817 C 0.19912 0.31376 0.19420
 O818 O 0.27012 0.33851 0.26062
 O819 O 0.22164 0.25519 0.33237
 O820 O 0.22085 0.32663 0.27443
 O821 O 0.19877 0.29254 0.30404
 O822 O 0.28344 0.25558 0.33089
 O823 O 0.30796 0.29085 0.30018
 C824 C 0.20327 0.31971 0.29663
 H825 H 0.25272 0.21505 0.30897
 H826 H 0.30439 0.28838 0.24517
 H827 H 0.19291 0.28768 0.24771
 H828 H 0.24796 0.20638 0.19789
 H829 H 0.34539 0.24648 0.29359
 H830 H 0.33995 0.24579 0.19407
 H831 H 0.29893 0.24398 0.15604
 H832 H 0.19943 0.24755 0.15705
 H833 H 0.30256 0.25098 0.34040
 H834 H 0.20187 0.25322 0.34148
 H835 H 0.16119 0.25372 0.30330
 H836 H 0.15586 0.25153 0.20262
 H837 H 0.32465 0.28621 0.31348
 H838 H 0.26058 0.35588 0.25135
 H839 H 0.24096 0.14263 0.24545
 H840 H 0.17794 0.21186 0.18281
 Zr841 Zr 0.74301 0.70048 0.24265
 O842 O 0.76208 0.66279 0.26112
 O843 O 0.71187 0.68020 0.21265
 O844 O 0.71288 0.67703 0.27288
 O845 O 0.79926 0.71427 0.18872
 O846 O 0.69390 0.71232 0.30321
 O847 O 0.77388 0.67807 0.21265
 O848 O 0.68740 0.71978 0.19450
 O849 O 0.70677 0.72824 0.24809
 O850 O 0.74437 0.72935 0.20714
 O851 O 0.74904 0.72400 0.28264
 O852 O 0.78334 0.72446 0.24497
 Zr853 Zr 0.75285 0.80547 0.25369
 Zr854 Zr 0.71320 0.75231 0.28722
 Zr855 Zr 0.78326 0.75384 0.20935
 Zr856 Zr 0.70899 0.75705 0.21279
 O857 O 0.82922 0.75076 0.21244
 O858 O 0.66399 0.75988 0.22328
 O859 O 0.74751 0.78268 0.21316
 O860 O 0.71318 0.78132 0.25161
 O861 O 0.75197 0.77738 0.29008
 O862 O 0.78880 0.77768 0.24849
 C863 C 0.69125 0.69166 0.19625
 C864 C 0.79384 0.68658 0.19321
 C865 C 0.69582 0.68503 0.29510
 O866 O 0.66728 0.75632 0.28445
 O867 O 0.69846 0.79168 0.30907
 O868 O 0.72324 0.82801 0.28473
 C869 C 0.70386 0.81938 0.30465
 O870 O 0.80590 0.70882 0.29635
 Zr871 Zr 0.78754 0.74957 0.28398
 O872 O 0.78228 0.82571 0.28416
 O873 O 0.72110 0.74727 0.33245
 O874 O 0.78146 0.74464 0.32961
 O875 O 0.83289 0.74895 0.27467
 O876 O 0.80647 0.78760 0.30546
 C877 C 0.80143 0.81560 0.30286
 O878 O 0.73301 0.84278 0.23525
 O879 O 0.77548 0.75777 0.16399
 O880 O 0.78253 0.82914 0.22344
 O881 O 0.80082 0.79430 0.19209
 O882 O 0.71349 0.75964 0.16675
 O883 O 0.69386 0.79818 0.19756
 C884 C 0.79900 0.82151 0.20065
 H885 H 0.74311 0.71881 0.18822
 H886 H 0.69618 0.79467 0.25289
 H887 H 0.80748 0.78864 0.24842
 H888 H 0.74957 0.71000 0.29920
 H889 H 0.65287 0.75733 0.20462
 H890 H 0.65979 0.75400 0.30489
 H891 H 0.70163 0.74922 0.34218
 H892 H 0.80085 0.74815 0.33903
 H893 H 0.69362 0.75660 0.15822
 H894 H 0.79500 0.75564 0.15438
 H895 H 0.83676 0.75379 0.19212
 H896 H 0.84327 0.75251 0.29358
 H897 H 0.67665 0.79495 0.18452
 H898 H 0.74274 0.85982 0.24493
 H899 H 0.75226 0.64595 0.25114
 H900 H 0.82065 0.71228 0.31209
 Zr901 Zr 0.75207 0.30526 0.74540
 O902 O 0.73337 0.34277 0.76461
 O903 O 0.78179 0.32556 0.71523
 O904 O 0.78303 0.32823 0.77488
 O905 O 0.69628 0.29200 0.69102
 O906 O 0.80134 0.29311 0.80588
 O907 O 0.72143 0.32804 0.71543
 O908 O 0.80594 0.28739 0.69397
 O909 O 0.78851 0.27763 0.75022
 O910 O 0.75047 0.27683 0.70962
 O911 O 0.74676 0.28180 0.78526
 O912 O 0.71163 0.28197 0.74753
 Zr913 Zr 0.74135 0.20026 0.75610
 Zr914 Zr 0.78235 0.25304 0.78917
 Zr915 Zr 0.71162 0.25252 0.71206
 Zr916 Zr 0.78600 0.24932 0.71456
 O917 O 0.66575 0.25676 0.71537
 O918 O 0.83096 0.24833 0.72544
 O919 O 0.74724 0.22351 0.71564
 O920 O 0.78135 0.22434 0.75327
 O921 O 0.74312 0.22857 0.79238
 O922 O 0.70598 0.22883 0.75110
 C923 C 0.80116 0.31543 0.69676
 C924 C 0.70177 0.31963 0.69565
 C925 C 0.79978 0.32036 0.79737
 O926 O 0.82823 0.24912 0.78590
 O927 O 0.79762 0.21325 0.81012
 O928 O 0.77019 0.17762 0.78771
 C929 C 0.79070 0.18571 0.80672
 O930 O 0.69136 0.29827 0.79982
 Zr931 Zr 0.70803 0.25710 0.78642
 O932 O 0.71030 0.18019 0.78633
 O933 O 0.77496 0.25705 0.83459
 O934 O 0.71439 0.26015 0.83218
 O935 O 0.66266 0.25983 0.77754
 O936 O 0.68732 0.21994 0.80601
 C937 C 0.69064 0.19177 0.80377
 O938 O 0.76133 0.16283 0.73807
 O939 O 0.71895 0.24766 0.66671
 O940 O 0.71218 0.17658 0.72506
 O941 O 0.69269 0.21258 0.69589
 O942 O 0.78017 0.24482 0.66883
 O943 O 0.80332 0.20897 0.69959
 C944 C 0.69490 0.18508 0.70322
 H945 H 0.75136 0.28732 0.69067
 H946 H 0.79817 0.21074 0.75439
 H947 H 0.68705 0.21830 0.75097
 H948 H 0.74651 0.29567 0.80193
 H949 H 0.84206 0.25221 0.70701
 H950 H 0.83591 0.25159 0.80624
 H951 H 0.79457 0.25515 0.84402
 H952 H 0.69487 0.25724 0.84153
 H953 H 0.79943 0.24909 0.65946
 H954 H 0.69943 0.25013 0.65721
 H955 H 0.65796 0.25367 0.69515
 H956 H 0.65222 0.25715 0.79658
 H957 H 0.82032 0.21313 0.68651
 H958 H 0.75135 0.14585 0.74761
 H959 H 0.74296 0.35969 0.75459
 H960 H 0.67714 0.29512 0.81610
 C961 C 0.09532 0.42829 0.90625
 C962 C 0.11699 0.40747 0.89232
 C963 C 0.13140 0.38681 0.90980
 C964 C 0.12616 0.38821 0.94016
 C965 C 0.10672 0.40983 0.95368
 C966 C 0.08983 0.43028 0.93775
 C967 C 0.15081 0.36516 0.89698
 C968 C 0.15749 0.36424 0.86631
 C969 C 0.14450 0.38604 0.84898
 C970 C 0.12415 0.40688 0.86159
 C971 C 0.15215 0.38680 0.81904
 C972 C 0.17186 0.36641 0.80603
 C973 C 0.18469 0.34305 0.82160
 C974 C 0.17681 0.34240 0.85254
 H975 H 0.08470 0.44310 0.89159
 H976 H 0.13718 0.37273 0.95434
 H977 H 0.10429 0.40808 0.97676
 H978 H 0.16091 0.34923 0.91107
 H979 H 0.11409 0.42284 0.84750
 H980 H 0.14281 0.40346 0.80527
 H981 H 0.17628 0.36849 0.78299
 H982 H 0.18583 0.32529 0.86593
 C983 C 0.40049 0.57494 0.40420
 C984 C 0.37980 0.59616 0.39136
 C985 C 0.36706 0.61764 0.40926
 C986 C 0.37370 0.61667 0.43945
 C987 C 0.39273 0.59535 0.45201
 C988 C 0.40744 0.57390 0.43538
 C989 C 0.34784 0.63977 0.39701
 C990 C 0.33969 0.64048 0.36667
 C991 C 0.35107 0.61796 0.34913
 C992 C 0.37124 0.59656 0.36113
 C993 C 0.34197 0.61706 0.31960
 C994 C 0.32237 0.63795 0.30718
 C995 C 0.31106 0.66200 0.32291
 C996 C 0.32047 0.66280 0.35345
 H997 H 0.41078 0.55924 0.39002
 H998 H 0.36402 0.63264 0.45378
 H999 H 0.39672 0.59641 0.47521
 H1000 H 0.33901 0.65627 0.41130
 H1001 H 0.38002 0.58002 0.34685
 H1002 H 0.35004 0.59987 0.30569
 H1003 H 0.31679 0.63564 0.28441
 H1004 H 0.31267 0.68039 0.36698
 C1005 C 0.91240 0.91278 0.58983
 C1006 C 0.88852 0.89801 0.60559
 C1007 C 0.85943 0.90227 0.59670
 C1008 C 0.85470 0.92098 0.57252
 C1009 C 0.87792 0.93530 0.55724
 C1010 C 0.90770 0.93211 0.56487
 C1011 C 0.83548 0.88786 0.61190
 C1012 C 0.83983 0.86870 0.63647
 C1013 C 0.86905 0.86455 0.64517
 C1014 C 0.89287 0.87897 0.63005
 C1015 C 0.87428 0.84566 0.66893
 C1016 C 0.85154 0.83069 0.68393
 C1017 C 0.82161 0.83364 0.67692
 C1018 C 0.81614 0.85335 0.65233
 H1019 H 0.93450 0.90917 0.59704
 H1020 H 0.83266 0.92471 0.56513
 H1021 H 0.87222 0.94915 0.53906
 H1022 H 0.81346 0.89160 0.60446
 H1023 H 0.91492 0.87516 0.63742
 H1024 H 0.89645 0.84197 0.67599
 H1025 H 0.85770 0.81620 0.70146
 H1026 H 0.79395 0.85625 0.64511
 C1027 C 0.59205 0.08333 0.09101
 C1028 C 0.61569 0.09820 0.10702
 C1029 C 0.64494 0.09344 0.09897
 C1030 C 0.65006 0.07418 0.07530
 C1031 C 0.62706 0.05979 0.05973
 C1032 C 0.59715 0.06344 0.06659
 C1033 C 0.66865 0.10791 0.11449
 C1034 C 0.66387 0.12765 0.13852
 C1035 C 0.63448 0.13233 0.14632
 C1036 C 0.61090 0.11783 0.13092
 C1037 C 0.62882 0.15185 0.16947
 C1038 C 0.65132 0.16691 0.18472
 C1039 C 0.68139 0.16344 0.17862
 C1040 C 0.68731 0.14308 0.15468
 H1041 H 0.56983 0.08732 0.09761
 H1042 H 0.67223 0.07006 0.06853
 H1043 H 0.63304 0.04550 0.04199
 H1044 H 0.69081 0.10376 0.10771
 H1045 H 0.58872 0.12204 0.13761
 H1046 H 0.60652 0.15595 0.17582
 H1047 H 0.64485 0.18188 0.20173
 H1048 H 0.70965 0.13974 0.14817
 C1049 C 0.89563 0.06115 0.40323
 C1050 C 0.88042 0.08498 0.38731
 C1051 C 0.88651 0.11428 0.39448
 C1052 C 0.90717 0.11947 0.41671
 C1053 C 0.92202 0.09662 0.43166
 C1054 C 0.91724 0.06658 0.42622
 C1055 C 0.87225 0.13822 0.37937
 C1056 C 0.85148 0.13395 0.35633
 C1057 C 0.84535 0.10479 0.34887
 C1058 C 0.85954 0.08070 0.36414
 C1059 C 0.82501 0.10014 0.32601
 C1060 C 0.81087 0.12348 0.31070
 C1061 C 0.81580 0.15334 0.31701
 C1062 C 0.83681 0.15796 0.34061
 H1063 H 0.89116 0.03887 0.39720
 H1064 H 0.91237 0.14168 0.42257
 H1065 H 0.93788 0.10282 0.44796
 H1066 H 0.87757 0.16031 0.38559
 H1067 H 0.85430 0.05864 0.35782
 H1068 H 0.81983 0.07806 0.31969
 H1069 H 0.79571 0.11780 0.29359
 H1070 H 0.84186 0.18010 0.34677
 C1071 C 0.40967 0.43007 0.60290
 C1072 C 0.38708 0.41123 0.61619
 C1073 C 0.36408 0.40058 0.59882
 C1074 C 0.36300 0.41000 0.56941
 C1075 C 0.38417 0.42923 0.55694
 C1076 C 0.40867 0.43979 0.57248
 C1077 C 0.34236 0.38080 0.61086
 C1078 C 0.34215 0.37193 0.64098
 C1079 C 0.36416 0.38395 0.65875
 C1080 C 0.38657 0.40278 0.64644
 C1081 C 0.36343 0.37697 0.68885
 C1082 C 0.34186 0.35827 0.70144
 C1083 C 0.31985 0.34432 0.68491
 C1084 C 0.32063 0.35161 0.65382
 H1085 H 0.42760 0.43732 0.61628
 H1086 H 0.34544 0.40249 0.55564
 H1087 H 0.38169 0.43512 0.53427
 H1088 H 0.32544 0.37256 0.59670
 H1089 H 0.40346 0.41105 0.66061
 H1090 H 0.37982 0.38608 0.70309
 H1091 H 0.34314 0.35392 0.72457
 H1092 H 0.30454 0.34183 0.63973
 C1093 C 0.60844 0.93501 0.90360
 C1094 C 0.62370 0.91144 0.88746
 C1095 C 0.61866 0.88208 0.89518
 C1096 C 0.59901 0.87657 0.91823
 C1097 C 0.58413 0.89919 0.93345
 C1098 C 0.58791 0.92924 0.92742
 C1099 C 0.63296 0.85838 0.87981
 C1100 C 0.65276 0.86299 0.85602
 C1101 C 0.65790 0.89220 0.84805
 C1102 C 0.64361 0.91605 0.86355
 C1103 C 0.67735 0.89714 0.82450
 C1104 C 0.69155 0.87401 0.80897
 C1105 C 0.68748 0.84413 0.81574
 C1106 C 0.66741 0.83921 0.84004
 H1107 H 0.61201 0.95733 0.89712
 H1108 H 0.59464 0.85430 0.92452
 H1109 H 0.56902 0.89282 0.95039
 H1110 H 0.62847 0.83622 0.88643
 H1111 H 0.64803 0.93817 0.85682
 H1112 H 0.68178 0.91928 0.81782
 H1113 H 0.70601 0.87984 0.79132
 H1114 H 0.66311 0.81702 0.84656
 C1115 C 0.08401 0.58192 0.10001
 C1116 C 0.10751 0.59646 0.11663
 C1117 C 0.13679 0.58851 0.11182
 C1118 C 0.14211 0.56632 0.09096
 C1119 C 0.11932 0.55217 0.07497
 C1120 C 0.08936 0.55904 0.07840
 C1121 C 0.16040 0.60271 0.12772
 C1122 C 0.15553 0.62527 0.14907
 C1123 C 0.12614 0.63298 0.15389
 C1124 C 0.10263 0.61886 0.13797
 C1125 C 0.12048 0.65511 0.17456
 C1126 C 0.14300 0.66988 0.19010
 C1127 C 0.17306 0.66361 0.18673
 C1128 C 0.17895 0.64055 0.16539
 H1129 H 0.06177 0.58848 0.10394
 H1130 H 0.16430 0.55968 0.08678
 H1131 H 0.12552 0.53556 0.05947
 H1132 H 0.18257 0.59612 0.12333
 H1133 H 0.08045 0.62552 0.14226
 H1134 H 0.09820 0.66154 0.17865
 H1135 H 0.13659 0.68700 0.20497
 H1136 H 0.20135 0.63496 0.16093
 C1137 C 0.39712 0.92546 0.09007
 C1138 C 0.38299 0.90248 0.10717
 C1139 C 0.39346 0.87355 0.10556
 C1140 C 0.41759 0.86794 0.08750
 C1141 C 0.43161 0.89028 0.07144
 C1142 C 0.42220 0.91966 0.07182
 C1143 C 0.38000 0.85051 0.12214
 C1144 C 0.35594 0.85564 0.14113
 C1145 C 0.34567 0.88459 0.14306
 C1146 C 0.35891 0.90761 0.12620
 C1147 C 0.32219 0.89026 0.16200
 C1148 C 0.30887 0.86799 0.17885
 C1149 C 0.31791 0.83846 0.17779
 C1150 C 0.34202 0.83265 0.15827
 H1151 H 0.38919 0.94754 0.09169
 H1152 H 0.42611 0.84603 0.08591
 H1153 H 0.45028 0.88429 0.05838
 H1154 H 0.38849 0.82860 0.12033
 H1155 H 0.35049 0.92953 0.12810
 H1156 H 0.31390 0.91222 0.16398
 H1157 H 0.29095 0.87423 0.19279
 H1158 H 0.35001 0.81059 0.15648
 C1159 C 0.60289 0.42459 0.41102
 C1160 C 0.61675 0.40169 0.39353
 C1161 C 0.60413 0.37362 0.39235
 C1162 C 0.57812 0.36885 0.40791
 C1163 C 0.56439 0.39119 0.42427
 C1164 C 0.57592 0.41971 0.42677
 C1165 C 0.61735 0.35059 0.37553
 C1166 C 0.64329 0.35492 0.35893
 C1167 C 0.65567 0.38308 0.35959
 C1168 C 0.64270 0.40604 0.37683
 C1169 C 0.68096 0.38800 0.34282
 C1170 C 0.69404 0.36575 0.32566
 C1171 C 0.68297 0.33696 0.32434
 C1172 C 0.65702 0.33192 0.34163
 H1173 H 0.61264 0.44599 0.41170
 H1174 H 0.56794 0.34762 0.40731
 H1175 H 0.54433 0.38580 0.43539
 H1176 H 0.60721 0.32932 0.37526
 H1177 H 0.65279 0.42732 0.37700
 H1178 H 0.69089 0.40936 0.34282
 H1179 H 0.71341 0.37132 0.31349
 H1180 H 0.64740 0.31044 0.34150
 C1181 C 0.89663 0.57846 0.91768
 C1182 C 0.88372 0.59961 0.89731
 C1183 C 0.90078 0.62298 0.88677
 C1184 C 0.93006 0.62451 0.89534
 C1185 C 0.94282 0.60356 0.91390
 C1186 C 0.92710 0.57983 0.92634
 C1187 C 0.88873 0.64459 0.86747
 C1188 C 0.85954 0.64312 0.85713
 C1189 C 0.84261 0.61919 0.86650
 C1190 C 0.85440 0.59800 0.88671
 C1191 C 0.81405 0.61670 0.85530
 C1192 C 0.80223 0.63735 0.83534
 C1193 C 0.81785 0.66223 0.82589
 C1194 C 0.84705 0.66480 0.83744
 H1195 H 0.88327 0.56086 0.92579
 H1196 H 0.94362 0.64205 0.88737
 H1197 H 0.96564 0.60682 0.91888
 H1198 H 0.90237 0.66239 0.86021
 H1199 H 0.84079 0.58015 0.89382
 H1200 H 0.80059 0.59853 0.86185
 H1201 H 0.78018 0.63400 0.82775
 H1202 H 0.86016 0.68320 0.83088
 C1203 C 0.08255 0.09133 0.59290
 C1204 C 0.10542 0.10531 0.61016
 C1205 C 0.13431 0.09479 0.60873
 C1206 C 0.14004 0.07100 0.59019
 C1207 C 0.11789 0.05762 0.57324
 C1208 C 0.08843 0.06692 0.57379
 C1209 C 0.15722 0.10811 0.62569
 C1210 C 0.15203 0.13250 0.64432
 C1211 C 0.12316 0.14318 0.64543
 C1212 C 0.10023 0.12966 0.62876
 C1213 C 0.11749 0.16759 0.66311
 C1214 C 0.13973 0.18169 0.67924
 C1215 C 0.16905 0.17210 0.67933
 C1216 C 0.17490 0.14673 0.66149
 H1217 H 0.06054 0.09952 0.59429
 H1218 H 0.16196 0.06252 0.58862
 H1219 H 0.12415 0.03946 0.55962
 H1220 H 0.17910 0.09952 0.62417
 H1221 H 0.07836 0.13832 0.63018
 H1222 H 0.09562 0.17627 0.66430
 H1223 H 0.13371 0.20058 0.69197
 H1224 H 0.19695 0.13864 0.66023
 C1225 C 0.10812 0.43516 0.40318
 C1226 C 0.12336 0.41162 0.38699
 C1227 C 0.11855 0.38227 0.39485
 C1228 C 0.09914 0.37673 0.41809
 C1229 C 0.08429 0.39932 0.43339
 C1230 C 0.08785 0.42936 0.42721
 C1231 C 0.13281 0.35859 0.37941
 C1232 C 0.15236 0.36323 0.35543
 C1233 C 0.15731 0.39245 0.34735
 C1234 C 0.14305 0.41627 0.36290
 C1235 C 0.17655 0.39742 0.32363
 C1236 C 0.19072 0.37431 0.30804
 C1237 C 0.18682 0.34443 0.31491
 C1238 C 0.16697 0.33949 0.33937
 H1239 H 0.11151 0.45748 0.39659
 H1240 H 0.09494 0.35446 0.42449
 H1241 H 0.06936 0.39293 0.45048
 H1242 H 0.12848 0.33644 0.38613
 H1243 H 0.14730 0.43840 0.35608
 H1244 H 0.18082 0.41956 0.31686
 H1245 H 0.20500 0.38017 0.29026
 H1246 H 0.16282 0.31729 0.34598
 C1247 C 0.39108 0.56415 0.91191
 C1248 C 0.37832 0.58590 0.89234
 C1249 C 0.39494 0.61053 0.88403
 C1250 C 0.42386 0.61242 0.89403
 C1251 C 0.43642 0.59135 0.91162
 C1252 C 0.42115 0.56649 0.92204
 C1253 C 0.38303 0.63316 0.86549
 C1254 C 0.35439 0.63183 0.85325
 C1255 C 0.33797 0.60676 0.85997
 C1256 C 0.34957 0.58438 0.87971
 C1257 C 0.31014 0.60449 0.84656
 C1258 C 0.29853 0.62635 0.82724
 C1259 C 0.31340 0.65263 0.82047
 C1260 C 0.34201 0.65478 0.83432
 H1261 H 0.37866 0.54534 0.91916
 H1262 H 0.43700 0.63076 0.88774
 H1263 H 0.45914 0.59499 0.91780
 H1264 H 0.39647 0.65178 0.86026
 H1265 H 0.33615 0.56572 0.88476
 H1266 H 0.29695 0.58547 0.85090
 H1267 H 0.27710 0.62281 0.81817
 H1268 H 0.35485 0.67405 0.83019
 C1269 C 0.58402 0.08154 0.60037
 C1270 C 0.60745 0.09620 0.61696
 C1271 C 0.63676 0.08830 0.61223
 C1272 C 0.64217 0.06607 0.59145
 C1273 C 0.61944 0.05181 0.57546
 C1274 C 0.58947 0.05862 0.57884
 C1275 C 0.66030 0.10259 0.62814
 C1276 C 0.65533 0.12521 0.64939
 C1277 C 0.62592 0.13290 0.65412
 C1278 C 0.60248 0.11867 0.63821
 C1279 C 0.62016 0.15511 0.67467
 C1280 C 0.64262 0.16998 0.69019
 C1281 C 0.67269 0.16373 0.68694
 C1282 C 0.67868 0.14059 0.66572
 H1283 H 0.56176 0.08806 0.60426
 H1284 H 0.66439 0.05947 0.58731
 H1285 H 0.62570 0.03517 0.56002
 H1286 H 0.68250 0.09604 0.62383
 H1287 H 0.58027 0.12529 0.64242
 H1288 H 0.59786 0.16153 0.67867
 H1289 H 0.63615 0.18717 0.70497
 H1290 H 0.70110 0.13501 0.66135
 C1291 C 0.90923 0.93046 0.10248
 C1292 C 0.88665 0.91166 0.11585
 C1293 C 0.86362 0.90097 0.09853
 C1294 C 0.86251 0.91037 0.06910
 C1295 C 0.88367 0.92957 0.05656
 C1296 C 0.90820 0.94015 0.07204
 C1297 C 0.84193 0.88118 0.11064
 C1298 C 0.84176 0.87235 0.14078
 C1299 C 0.86378 0.88443 0.15849
 C1300 C 0.88617 0.90325 0.14612
 C1301 C 0.86308 0.87751 0.18862
 C1302 C 0.84154 0.85881 0.20129
 C1303 C 0.81953 0.84478 0.18482
 C1304 C 0.82028 0.85202 0.15370
 H1305 H 0.92719 0.93771 0.11582
 H1306 H 0.84494 0.90282 0.05536
 H1307 H 0.88117 0.93542 0.03388
 H1308 H 0.82500 0.87292 0.09651
 H1309 H 0.90307 0.91155 0.16024
 H1310 H 0.87948 0.88667 0.20282
 H1311 H 0.84286 0.85452 0.22442
 H1312 H 0.80420 0.84217 0.13965
 C1313 C 0.88971 0.07129 0.91144
 C1314 C 0.87388 0.09483 0.89583
 C1315 C 0.87897 0.12418 0.90345
 C1316 C 0.89902 0.12964 0.92625
 C1317 C 0.91420 0.10697 0.94126
 C1318 C 0.91052 0.07694 0.93507
 C1319 C 0.86432 0.14787 0.88821
 C1320 C 0.84385 0.14316 0.86491
 C1321 C 0.83840 0.11386 0.85746
 C1322 C 0.85326 0.09012 0.87256
 C1323 C 0.81802 0.10865 0.83481
 C1324 C 0.80323 0.13156 0.81957
 C1325 C 0.80772 0.16157 0.82548
 C1326 C 0.82878 0.16682 0.84894
 H1327 H 0.88620 0.04901 0.90483
 H1328 H 0.90344 0.15190 0.93252
 H1329 H 0.92962 0.11327 0.95794
 H1330 H 0.86898 0.17004 0.89461
 H1331 H 0.84866 0.06796 0.86609
 H1332 H 0.81328 0.08643 0.82862
 H1333 H 0.78812 0.12541 0.80258
 H1334 H 0.83345 0.18909 0.85486
 C1335 C 0.09210 0.58276 0.59146
 C1336 C 0.11570 0.59760 0.60754
 C1337 C 0.14496 0.59300 0.59941
 C1338 C 0.15010 0.57391 0.57560
 C1339 C 0.12713 0.55955 0.55997
 C1340 C 0.09722 0.56306 0.56689
 C1341 C 0.16865 0.60744 0.61499
 C1342 C 0.16384 0.62700 0.63916
 C1343 C 0.13444 0.63151 0.64706
 C1344 C 0.11090 0.61704 0.63159
 C1345 C 0.12876 0.65083 0.67037
 C1346 C 0.15123 0.66585 0.68569
 C1347 C 0.18130 0.66255 0.67949
 C1348 C 0.18724 0.64240 0.65538
 H1349 H 0.06987 0.58664 0.59812
 H1350 H 0.17228 0.56991 0.56878
 H1351 H 0.13313 0.54539 0.54213
 H1352 H 0.19081 0.60343 0.60814
 H1353 H 0.08870 0.62112 0.63835
 H1354 H 0.10645 0.65480 0.67680
 H1355 H 0.14475 0.68068 0.70283
 H1356 H 0.20958 0.63922 0.64878
 C1357 C 0.59652 0.92772 0.40629
 C1358 C 0.61722 0.90702 0.39280
 C1359 C 0.63114 0.88593 0.41029
 C1360 C 0.62563 0.88685 0.44069
 C1361 C 0.60655 0.90773 0.45387
 C1362 C 0.59071 0.92869 0.43767
 C1363 C 0.65041 0.86425 0.39740
 C1364 C 0.65742 0.86367 0.36679
 C1365 C 0.64487 0.88585 0.34962
 C1366 C 0.62464 0.90676 0.36229
 C1367 C 0.65285 0.88691 0.31978
 C1368 C 0.67245 0.86646 0.30671
 C1369 C 0.68484 0.84275 0.32210
 C1370 C 0.67663 0.84178 0.35295
 H1371 H 0.58530 0.94308 0.39246
 H1372 H 0.63623 0.87118 0.45471
 H1373 H 0.60343 0.90669 0.47720
 H1374 H 0.66016 0.84801 0.41138
 H1375 H 0.61493 0.92304 0.34832
 H1376 H 0.64386 0.90387 0.30614
 H1377 H 0.67714 0.86881 0.28374
 H1378 H 0.68531 0.82440 0.36620
 C1379 C 0.41080 0.41393 0.08815
 C1380 C 0.38699 0.39915 0.10402
 C1381 C 0.35783 0.40378 0.09558
 C1382 C 0.35299 0.42285 0.07168
 C1383 C 0.37616 0.43717 0.05626
 C1384 C 0.40600 0.43362 0.06348
 C1385 C 0.33394 0.38938 0.11095
 C1386 C 0.33844 0.36983 0.13522
 C1387 C 0.36774 0.36529 0.14342
 C1388 C 0.39149 0.37972 0.12817
 C1389 C 0.37315 0.34601 0.16682
 C1390 C 0.35051 0.33103 0.18196
 C1391 C 0.32049 0.33434 0.17550
 C1392 C 0.31484 0.35447 0.15127
 H1393 H 0.43294 0.41001 0.09506
 H1394 H 0.33089 0.42688 0.06461
 H1395 H 0.37038 0.45131 0.03833
 H1396 H 0.31186 0.39342 0.10386
 H1397 H 0.41360 0.37561 0.13517
 H1398 H 0.39539 0.34201 0.17349
 H1399 H 0.35683 0.31624 0.19919
 H1400 H 0.29257 0.35769 0.14444
 C1401 C 0.58189 0.59196 0.09295
 C1402 C 0.60479 0.60585 0.11024
 C1403 C 0.63354 0.59489 0.10928
 C1404 C 0.63911 0.57075 0.09117
 C1405 C 0.61694 0.55745 0.07417
 C1406 C 0.58761 0.56719 0.07426
 C1407 C 0.65647 0.60812 0.12628
 C1408 C 0.65145 0.63286 0.14447
 C1409 C 0.62273 0.64398 0.14513
 C1410 C 0.59977 0.63055 0.12842
 C1411 C 0.61725 0.66873 0.16238
 C1412 C 0.63953 0.68272 0.17854
 C1413 C 0.66871 0.67271 0.17907
 C1414 C 0.67435 0.64699 0.16167
 H1415 H 0.56000 0.60050 0.09397
 H1416 H 0.66090 0.56191 0.08996
 H1417 H 0.62308 0.53900 0.06089
 H1418 H 0.67823 0.59918 0.12511
 H1419 H 0.57802 0.63955 0.12948
 H1420 H 0.59549 0.67773 0.16324
 H1421 H 0.63363 0.70186 0.19095
 H1422 H 0.69629 0.63855 0.16078
 C1423 C 0.10315 0.92427 0.91141
 C1424 C 0.11696 0.90132 0.89393
 C1425 C 0.10418 0.87334 0.89262
 C1426 C 0.07805 0.86870 0.90803
 C1427 C 0.06437 0.89108 0.92436
 C1428 C 0.07606 0.91952 0.92700
 C1429 C 0.11736 0.85027 0.87583
 C1430 C 0.14342 0.85448 0.85939
 C1431 C 0.15596 0.88257 0.86017
 C1432 C 0.14303 0.90556 0.87739
 C1433 C 0.18137 0.88737 0.84355
 C1434 C 0.19440 0.86508 0.82640
 C1435 C 0.18317 0.83635 0.82496
 C1436 C 0.15711 0.83143 0.84211
 H1437 H 0.11302 0.94561 0.91219
 H1438 H 0.06775 0.84753 0.90732
 H1439 H 0.04420 0.88579 0.93534
 H1440 H 0.10710 0.82907 0.87545
 H1441 H 0.15325 0.92678 0.87767
 H1442 H 0.19143 0.90867 0.84365
 H1443 H 0.21387 0.87056 0.81434
 H1444 H 0.14737 0.81001 0.84189
 C1445 C 0.39673 0.07581 0.41221
 C1446 C 0.38311 0.09843 0.39422
 C1447 C 0.39537 0.12666 0.39332
 C1448 C 0.42080 0.13188 0.40966
 C1449 C 0.43432 0.10981 0.42652
 C1450 C 0.42311 0.08115 0.42874
 C1451 C 0.38237 0.14941 0.37599
 C1452 C 0.35704 0.14462 0.35863
 C1453 C 0.34501 0.11630 0.35905
 C1454 C 0.35776 0.09361 0.37677
 C1455 C 0.32030 0.11094 0.34157
 C1456 C 0.30746 0.13293 0.32393
 C1457 C 0.31822 0.16185 0.32281
 C1458 C 0.34356 0.16733 0.34082
 H1459 H 0.38730 0.05426 0.41265
 H1460 H 0.43070 0.15326 0.40928
 H1461 H 0.45396 0.11550 0.43821
 H1462 H 0.39222 0.17082 0.37592
 H1463 H 0.34797 0.07218 0.37674
 H1464 H 0.31067 0.08945 0.34138
 H1465 H 0.28853 0.12707 0.31122
 H1466 H 0.35288 0.18893 0.34088
 C1467 C 0.89711 0.42523 0.58987
 C1468 C 0.88297 0.40225 0.60695
 C1469 C 0.89346 0.37332 0.60537
 C1470 C 0.91763 0.36773 0.58734
 C1471 C 0.93166 0.39008 0.57131
 C1472 C 0.92223 0.41945 0.57166
 C1473 C 0.87999 0.35027 0.62193
 C1474 C 0.85590 0.35539 0.64088
 C1475 C 0.84561 0.38434 0.64277
 C1476 C 0.85885 0.40736 0.62593
 C1477 C 0.82210 0.39001 0.66167
 C1478 C 0.80877 0.36775 0.67851
 C1479 C 0.81783 0.33822 0.67749
 C1480 C 0.84197 0.33240 0.65802
 H1481 H 0.88916 0.44731 0.59147
 H1482 H 0.92617 0.34582 0.58578
 H1483 H 0.95036 0.38410 0.55828
 H1484 H 0.88850 0.32837 0.62014
 H1485 H 0.85041 0.42928 0.62781
 H1486 H 0.81379 0.41196 0.66361
 H1487 H 0.79082 0.37399 0.69241
 H1488 H 0.84998 0.31034 0.65626
 C1489 C 0.90221 0.57684 0.09326
 C1490 C 0.88140 0.59774 0.10642
 C1491 C 0.86749 0.61854 0.08858
 C1492 C 0.87315 0.61714 0.05820
 C1493 C 0.89233 0.59609 0.04536
 C1494 C 0.90819 0.57536 0.06186
 C1495 C 0.84809 0.64039 0.10111
 C1496 C 0.84093 0.64146 0.13171
 C1497 C 0.85348 0.61956 0.14924
 C1498 C 0.87382 0.59848 0.13692
 C1499 C 0.84538 0.61896 0.17907
 C1500 C 0.82565 0.63956 0.19182
 C1501 C 0.81320 0.66304 0.17611
 C1502 C 0.82157 0.66352 0.14522
 H1503 H 0.91336 0.56168 0.10736
 H1504 H 0.86257 0.63258 0.04391
 H1505 H 0.89549 0.59679 0.02202
 H1506 H 0.83836 0.65639 0.08684
 H1507 H 0.88350 0.58243 0.15117
 H1508 H 0.85435 0.60222 0.19299
 H1509 H 0.82088 0.63749 0.21480
 H1510 H 0.81286 0.68066 0.13167
 C1511 C 0.59521 0.42776 0.59284
 C1512 C 0.61588 0.40718 0.60658
 C1513 C 0.63033 0.38635 0.58921
 C1514 C 0.62535 0.38743 0.55870
 C1515 C 0.60629 0.40822 0.54530
 C1516 C 0.58994 0.42890 0.56135
 C1517 C 0.64957 0.36477 0.60232
 C1518 C 0.65603 0.36404 0.63305
 C1519 C 0.64296 0.38598 0.65014
 C1520 C 0.62276 0.40678 0.63723
 C1521 C 0.65040 0.38690 0.68014
 C1522 C 0.66996 0.36654 0.69345
 C1523 C 0.68286 0.34305 0.67813
 C1524 C 0.67520 0.34225 0.64712
 H1525 H 0.58361 0.44292 0.60657
 H1526 H 0.63636 0.37196 0.54478
 H1527 H 0.60360 0.40730 0.52191
 H1528 H 0.65974 0.34872 0.58841
 H1529 H 0.61263 0.42287 0.65112
 H1530 H 0.64099 0.40367 0.69373
 H1531 H 0.67422 0.36876 0.71652
 H1532 H 0.68429 0.32504 0.63390
 C1533 C 0.09167 0.08388 0.41013
 C1534 C 0.11515 0.09882 0.39391
 C1535 C 0.14445 0.09452 0.40203
 C1536 C 0.14976 0.07565 0.42599
 C1537 C 0.12692 0.06118 0.44176
 C1538 C 0.09696 0.06437 0.43486
 C1539 C 0.16802 0.10903 0.38628
 C1540 C 0.16305 0.12838 0.36195
 C1541 C 0.13362 0.13262 0.35408
 C1542 C 0.11018 0.11807 0.36970
 C1543 C 0.12778 0.15176 0.33063
 C1544 C 0.15013 0.16685 0.31515
 C1545 C 0.18024 0.16379 0.32126
 C1546 C 0.18634 0.14384 0.34553
 H1547 H 0.06941 0.08748 0.40343
 H1548 H 0.17198 0.07188 0.43282
 H1549 H 0.13306 0.04718 0.45968
 H1550 H 0.19022 0.10523 0.39313
 H1551 H 0.08796 0.12194 0.36293
 H1552 H 0.10543 0.15554 0.32423
 H1553 H 0.14349 0.18153 0.29794
 H1554 H 0.20871 0.14084 0.35212
 C1555 C 0.41267 0.91257 0.91122
 C1556 C 0.38891 0.89749 0.89556
 C1557 C 0.35996 0.90023 0.90545
 C1558 C 0.35523 0.91784 0.93044
 C1559 C 0.37831 0.93255 0.94557
 C1560 C 0.40796 0.93079 0.93702
 C1561 C 0.33613 0.88544 0.89041
 C1562 C 0.34046 0.86746 0.86495
 C1563 C 0.36952 0.86489 0.85517
 C1564 C 0.39323 0.87962 0.87018
 C1565 C 0.37469 0.84725 0.83043
 C1566 C 0.35205 0.83201 0.81550
 C1567 C 0.32230 0.83341 0.82361
 C1568 C 0.31690 0.85178 0.84924
 H1569 H 0.43466 0.91012 0.90324
 H1570 H 0.33330 0.92042 0.93859
 H1571 H 0.37262 0.94551 0.96439
 H1572 H 0.31423 0.88797 0.89866
 H1573 H 0.41516 0.87702 0.86200
 H1574 H 0.39673 0.84477 0.82253
 H1575 H 0.35817 0.81851 0.79718
 H1576 H 0.29489 0.85341 0.85732
 C1577 C 0.10779 0.93342 0.59728
 C1578 C 0.12307 0.90990 0.61355
 C1579 C 0.11899 0.88058 0.60516
 C1580 C 0.10031 0.87509 0.58129
 C1581 C 0.08545 0.89766 0.56589
 C1582 C 0.08829 0.92768 0.57256
 C1583 C 0.13327 0.85692 0.62069
 C1584 C 0.15214 0.86152 0.64527
 C1585 C 0.15636 0.89072 0.65384
 C1586 C 0.14205 0.91451 0.63823
 C1587 C 0.17495 0.89569 0.67808
 C1588 C 0.18918 0.87263 0.69373
 C1589 C 0.18599 0.84275 0.68647
 C1590 C 0.16678 0.83780 0.66144
 H1591 H 0.11058 0.95568 0.60432
 H1592 H 0.09667 0.85285 0.57445
 H1593 H 0.07108 0.89126 0.54834
 H1594 H 0.12951 0.83479 0.61355
 H1595 H 0.14575 0.93661 0.64546
 H1596 H 0.17867 0.91781 0.68523
 H1597 H 0.20296 0.87853 0.71190
 H1598 H 0.16320 0.81563 0.65444
 C1599 C 0.58469 0.58002 0.39654
 C1600 C 0.60814 0.59624 0.38140
 C1601 C 0.63664 0.59601 0.39288
 C1602 C 0.64145 0.57916 0.41835
 C1603 C 0.61889 0.56292 0.43258
 C1604 C 0.58953 0.56260 0.42292
 C1605 C 0.65999 0.61246 0.37891
 C1606 C 0.65585 0.62919 0.35263
 C1607 C 0.62751 0.62865 0.34070
 C1608 C 0.60405 0.61271 0.35499
 C1609 C 0.62288 0.64431 0.31449
 C1610 C 0.64532 0.66061 0.30023
 C1611 C 0.67420 0.66273 0.31092
 C1612 C 0.67896 0.64648 0.33806
 H1613 H 0.56293 0.58083 0.38764
 H1614 H 0.66310 0.57839 0.42759
 H1615 H 0.62465 0.55079 0.45193
 H1616 H 0.68146 0.61206 0.38858
 H1617 H 0.58257 0.61314 0.34535
 H1618 H 0.60142 0.64427 0.30479
 H1619 H 0.63962 0.67238 0.28063
 H1620 H 0.70026 0.64745 0.34797
 C1621 C 0.39617 0.06234 0.09731
 C1622 C 0.38081 0.08605 0.11322
 C1623 C 0.38573 0.11534 0.10518
 C1624 C 0.40540 0.12063 0.08207
 C1625 C 0.42039 0.09789 0.06709
 C1626 C 0.41672 0.06787 0.07340
 C1627 C 0.37131 0.13918 0.12031
 C1628 C 0.35151 0.13480 0.14418
 C1629 C 0.34652 0.10565 0.15246
 C1630 C 0.36090 0.08167 0.13721
 C1631 C 0.32709 0.10090 0.17607
 C1632 C 0.31276 0.12413 0.19137
 C1633 C 0.31663 0.15398 0.18431
 C1634 C 0.33670 0.15871 0.15992
 H1635 H 0.39266 0.04009 0.10405
 H1636 H 0.40970 0.14284 0.07554
 H1637 H 0.43549 0.10414 0.05011
 H1638 H 0.37572 0.16127 0.11343
 H1639 H 0.35656 0.05961 0.14418
 H1640 H 0.32278 0.07881 0.18300
 H1641 H 0.29832 0.11838 0.20906
 H1642 H 0.34086 0.18084 0.15313
 C1643 C 0.91084 0.42939 0.89662
 C1644 C 0.88757 0.41035 0.88256
 C1645 C 0.86466 0.39942 0.89975
 C1646 C 0.86372 0.40869 0.92915
 C1647 C 0.88517 0.42876 0.94199
 C1648 C 0.91008 0.43951 0.92705
 C1649 C 0.84299 0.37958 0.88758
 C1650 C 0.84275 0.37091 0.85738
 C1651 C 0.86466 0.38317 0.83966
 C1652 C 0.88699 0.40206 0.85209
 C1653 C 0.86390 0.37640 0.80950
 C1654 C 0.84240 0.35767 0.79679
 C1655 C 0.82048 0.34347 0.81324
 C1656 C 0.82129 0.35058 0.84440
 H1657 H 0.92790 0.43660 0.88234
 H1658 H 0.84612 0.40088 0.94298
 H1659 H 0.88212 0.43355 0.96457
 H1660 H 0.82613 0.37116 0.90171
 H1661 H 0.90381 0.41051 0.83794
 H1662 H 0.88022 0.38570 0.79530
 H1663 H 0.84364 0.35353 0.77362
 H1664 H 0.80526 0.34064 0.85845
 C1665 C 0.58208 0.09184 0.90777
 C1666 C 0.60483 0.10570 0.89027
 C1667 C 0.63341 0.09428 0.89040
 C1668 C 0.63897 0.06973 0.90798
 C1669 C 0.61695 0.05649 0.92524
 C1670 C 0.58780 0.06668 0.92593
 C1671 C 0.65617 0.10748 0.87314
 C1672 C 0.65116 0.13266 0.85554
 C1673 C 0.62263 0.14425 0.85578
 C1674 C 0.59982 0.13085 0.87271
 C1675 C 0.61716 0.16945 0.83918
 C1676 C 0.63928 0.18342 0.82278
 C1677 C 0.66826 0.17294 0.82133
 C1678 C 0.67388 0.14677 0.83807
 H1679 H 0.56031 0.10075 0.90738
 H1680 H 0.66064 0.06054 0.90857
 H1681 H 0.62304 0.03771 0.93809
 H1682 H 0.67780 0.09817 0.87364
 H1683 H 0.57820 0.14021 0.87231
 H1684 H 0.59554 0.17883 0.83902
 H1685 H 0.63340 0.20289 0.81089
 H1686 H 0.69568 0.13792 0.83823
 C1687 C 0.39637 0.57529 0.58798
 C1688 C 0.38263 0.59767 0.60615
 C1689 C 0.39475 0.62596 0.60727
 C1690 C 0.42015 0.63147 0.59100
 C1691 C 0.43379 0.60963 0.57398
 C1692 C 0.42272 0.58094 0.57153
 C1693 C 0.38165 0.64849 0.62476
 C1694 C 0.35636 0.64342 0.64205
 C1695 C 0.34445 0.61505 0.64145
 C1696 C 0.35730 0.59257 0.62355
 C1697 C 0.31977 0.60948 0.65892
 C1698 C 0.30687 0.63131 0.67673
 C1699 C 0.31756 0.66024 0.67799
 C1700 C 0.34282 0.66593 0.66000
 H1701 H 0.38706 0.55369 0.58733
 H1702 H 0.42992 0.65290 0.59156
 H1703 H 0.45339 0.61553 0.56233
 H1704 H 0.39138 0.66995 0.62499
 H1705 H 0.34762 0.57110 0.62341
 H1706 H 0.31022 0.58795 0.65897
 H1707 H 0.28797 0.62534 0.68945
 H1708 H 0.35207 0.68757 0.66008
 C1709 C 0.10225 0.42403 0.08787
 C1710 C 0.11598 0.40132 0.10577
 C1711 C 0.10234 0.37388 0.10871
 C1712 C 0.07546 0.36957 0.09455
 C1713 C 0.06188 0.39176 0.07783
 C1714 C 0.07440 0.41964 0.07352
 C1715 C 0.11546 0.35099 0.12586
 C1716 C 0.14230 0.35491 0.14109
 C1717 C 0.15568 0.38251 0.13876
 C1718 C 0.14283 0.40528 0.12114
 C1719 C 0.18184 0.38709 0.15427
 C1720 C 0.19480 0.36504 0.17180
 C1721 C 0.18279 0.33675 0.17472
 C1722 C 0.15595 0.33205 0.15870
 H1723 H 0.11285 0.44492 0.08576
 H1724 H 0.06448 0.34882 0.09652
 H1725 H 0.04116 0.38668 0.06783
 H1726 H 0.10452 0.33019 0.12746
 H1727 H 0.15371 0.42611 0.11964
 H1728 H 0.19254 0.40804 0.15299
 H1729 H 0.21486 0.37032 0.18295
 H1730 H 0.14556 0.31099 0.16010
 C1731 C 0.89700 0.92546 0.41017
 C1732 C 0.88295 0.90250 0.39295
 C1733 C 0.89388 0.87372 0.39398
 C1734 C 0.91835 0.86821 0.41161
 C1735 C 0.93226 0.89053 0.42779
 C1736 C 0.92245 0.91978 0.42797
 C1737 C 0.88053 0.85069 0.37729
 C1738 C 0.85611 0.85568 0.35874
 C1739 C 0.84535 0.88449 0.35738
 C1740 C 0.85849 0.90749 0.37437
 C1741 C 0.82149 0.89002 0.33887
 C1742 C 0.80830 0.86777 0.32189
 C1743 C 0.81785 0.83839 0.32237
 C1744 C 0.84232 0.83270 0.34147
 H1745 H 0.88870 0.94744 0.40900
 H1746 H 0.92721 0.84642 0.41276
 H1747 H 0.95118 0.88459 0.44052
 H1748 H 0.88939 0.82890 0.37867
 H1749 H 0.84970 0.92930 0.37289
 H1750 H 0.81281 0.91186 0.33734
 H1751 H 0.79008 0.87390 0.30829
 H1752 H 0.85072 0.81076 0.34280
 C1753 C 0.89672 0.56198 0.59808
 C1754 C 0.88133 0.58565 0.61402
 C1755 C 0.88581 0.61492 0.60569
 C1756 C 0.90507 0.62023 0.58223
 C1757 C 0.92008 0.59753 0.56720
 C1758 C 0.91684 0.56754 0.57380
 C1759 C 0.87138 0.63873 0.62085
 C1760 C 0.85197 0.63431 0.64505
 C1761 C 0.84739 0.60518 0.65360
 C1762 C 0.86181 0.58123 0.63833
 C1763 C 0.82834 0.60040 0.67753
 C1764 C 0.81397 0.62360 0.69284
 C1765 C 0.81745 0.65343 0.68553
 C1766 C 0.83715 0.65818 0.66084
 H1767 H 0.89357 0.53975 0.60505
 H1768 H 0.90903 0.64244 0.57546
 H1769 H 0.93487 0.60381 0.54995
 H1770 H 0.87545 0.66081 0.61375
 H1771 H 0.85781 0.55918 0.64553
 H1772 H 0.82435 0.57833 0.68468
 H1773 H 0.79983 0.61784 0.71077
 H1774 H 0.84099 0.68031 0.65383
 C1775 C 0.60738 0.43375 0.09637
 C1776 C 0.62230 0.41030 0.11304
 C1777 C 0.61639 0.38086 0.10635
 C1778 C 0.59613 0.37516 0.08387
 C1779 C 0.58151 0.39767 0.06821
 C1780 C 0.58620 0.42780 0.07312
 C1781 C 0.63042 0.35727 0.12220
 C1782 C 0.65075 0.36209 0.14552
 C1783 C 0.65667 0.39140 0.15254
 C1784 C 0.64273 0.41512 0.13650
 C1785 C 0.67655 0.39656 0.17569
 C1786 C 0.69048 0.37357 0.19170
 C1787 C 0.68573 0.34359 0.18583
 C1788 C 0.66519 0.33845 0.16195
 H1789 H 0.61171 0.45616 0.10202
 H1790 H 0.59107 0.35282 0.07838
 H1791 H 0.56592 0.39114 0.05178
 H1792 H 0.62530 0.33505 0.11632
 H1793 H 0.64780 0.43732 0.14247
 H1794 H 0.68156 0.41878 0.18167
 H1795 H 0.70534 0.37959 0.20894
 H1796 H 0.66037 0.31619 0.15608
 C1797 C 0.40936 0.92898 0.39686
 C1798 C 0.38705 0.90990 0.38342
 C1799 C 0.36501 0.89765 0.40100
 C1800 C 0.36454 0.90577 0.43082
 C1801 C 0.38540 0.92524 0.44349
 C1802 C 0.40900 0.93737 0.42771
 C1803 C 0.34366 0.87759 0.38874
 C1804 C 0.34280 0.87001 0.35827
 C1805 C 0.36376 0.88362 0.34038
 C1806 C 0.38586 0.90273 0.35285
 C1807 C 0.36228 0.87795 0.31002
 C1808 C 0.34098 0.85902 0.29725
 C1809 C 0.32007 0.84349 0.31382
 C1810 C 0.32162 0.84946 0.34517
 H1811 H 0.42659 0.93746 0.38328
 H1812 H 0.34772 0.89701 0.44478
 H1813 H 0.38344 0.93007 0.46647
 H1814 H 0.32751 0.86812 0.40303
 H1815 H 0.40197 0.91224 0.33855
 H1816 H 0.37784 0.88830 0.29570
 H1817 H 0.34162 0.85579 0.27391
 H1818 H 0.30635 0.83850 0.35930
 C1819 C 0.08493 0.08218 0.89906
 C1820 C 0.10838 0.09718 0.88277
 C1821 C 0.13777 0.09176 0.88990
 C1822 C 0.14325 0.07147 0.91258
 C1823 C 0.12051 0.05673 0.92815
 C1824 C 0.09045 0.06122 0.92253
 C1825 C 0.16131 0.10657 0.87445
 C1826 C 0.15628 0.12709 0.85116
 C1827 C 0.12682 0.13213 0.84388
 C1828 C 0.10336 0.11752 0.85945
 C1829 C 0.12105 0.15208 0.82109
 C1830 C 0.14350 0.16728 0.80579
 C1831 C 0.17360 0.16365 0.81162
 C1832 C 0.17959 0.14290 0.83521
 H1833 H 0.06259 0.08681 0.89336
 H1834 H 0.16554 0.06678 0.91854
 H1835 H 0.12682 0.04168 0.94512
 H1836 H 0.18355 0.10202 0.88067
 H1837 H 0.08110 0.12213 0.85331
 H1838 H 0.09870 0.15645 0.81507
 H1839 H 0.13697 0.18265 0.78917
 H1840 H 0.20196 0.13947 0.84158
 C1841 C 0.09555 0.92776 0.09286
 C1842 C 0.11595 0.90694 0.10664
 C1843 C 0.12923 0.88515 0.08952
 C1844 C 0.12338 0.88545 0.05915
 C1845 C 0.10458 0.90641 0.04567
 C1846 C 0.08940 0.92810 0.06151
 C1847 C 0.14820 0.86339 0.10272
 C1848 C 0.15552 0.86337 0.13326
 C1849 C 0.14361 0.88619 0.15004
 C1850 C 0.12370 0.90724 0.13708
 C1851 C 0.15192 0.88774 0.17979
 C1852 C 0.17124 0.86718 0.19314
 C1853 C 0.18300 0.84289 0.17816
 C1854 C 0.17444 0.84144 0.14741
 H1855 H 0.08483 0.94371 0.10642
 H1856 H 0.13348 0.86922 0.04541
 H1857 H 0.10117 0.90487 0.02241
 H1858 H 0.15746 0.84662 0.08903
 H1859 H 0.11447 0.92403 0.15076
 H1860 H 0.14342 0.90518 0.19313
 H1861 H 0.17624 0.86993 0.21600
 H1862 H 0.18265 0.82361 0.13445
 C1863 C 0.91251 0.41343 0.41060
 C1864 C 0.88877 0.39819 0.39505
 C1865 C 0.86000 0.39994 0.40567
 C1866 C 0.85542 0.41681 0.43120
 C1867 C 0.87846 0.43172 0.44617
 C1868 C 0.90796 0.43087 0.43696
 C1869 C 0.83622 0.38492 0.39081
 C1870 C 0.84038 0.36776 0.36478
 C1871 C 0.86923 0.36624 0.35422
 C1872 C 0.89293 0.38115 0.36908
 C1873 C 0.87422 0.34949 0.32881
 C1874 C 0.85160 0.33411 0.31398
 C1875 C 0.82205 0.33444 0.32291
 C1876 C 0.81686 0.35187 0.34922
 H1877 H 0.93438 0.41171 0.40209
 H1878 H 0.83362 0.41863 0.43990
 H1879 H 0.87290 0.44405 0.46545
 H1880 H 0.81446 0.38665 0.39964
 H1881 H 0.91472 0.37936 0.36032
 H1882 H 0.89610 0.34785 0.32028
 H1883 H 0.85759 0.32133 0.29511
 H1884 H 0.79502 0.35266 0.35791
 C1885 C 0.40214 0.07563 0.59460
 C1886 C 0.38141 0.09669 0.60765
 C1887 C 0.36776 0.11759 0.58974
 C1888 C 0.37357 0.11616 0.55939
 C1889 C 0.39267 0.09497 0.54665
 C1890 C 0.40827 0.07412 0.56324
 C1891 C 0.34844 0.13957 0.60215
 C1892 C 0.34113 0.14070 0.63271
 C1893 C 0.35344 0.11872 0.65031
 C1894 C 0.37369 0.09749 0.63811
 C1895 C 0.34518 0.11819 0.68011
 C1896 C 0.32553 0.13892 0.69273
 C1897 C 0.31331 0.16247 0.67694
 C1898 C 0.32184 0.16289 0.64610
 H1899 H 0.41311 0.06039 0.60876
 H1900 H 0.36319 0.13168 0.54504
 H1901 H 0.39597 0.09566 0.52333
 H1902 H 0.33890 0.15564 0.58782
 H1903 H 0.38318 0.08138 0.65242
 H1904 H 0.35398 0.10140 0.69408
 H1905 H 0.32061 0.13689 0.71568
 H1906 H 0.31331 0.18006 0.63249
 C1907 C 0.59233 0.58388 0.91096
 C1908 C 0.61584 0.59877 0.89481
 C1909 C 0.64511 0.59448 0.90305
 C1910 C 0.65035 0.57565 0.92707
 C1911 C 0.62744 0.56122 0.94277
 C1912 C 0.59753 0.56444 0.93572
 C1913 C 0.66871 0.60896 0.88736
 C1914 C 0.66377 0.62825 0.86298
 C1915 C 0.63436 0.63246 0.85501
 C1916 C 0.61091 0.61795 0.87057
 C1917 C 0.62855 0.65153 0.83152
 C1918 C 0.65092 0.66661 0.81608
 C1919 C 0.68100 0.66357 0.82232
 C1920 C 0.68707 0.64368 0.84663
 H1921 H 0.57009 0.58749 0.90417
 H1922 H 0.67254 0.57189 0.93397
 H1923 H 0.63348 0.54725 0.96074
 H1924 H 0.69089 0.60519 0.89428
 H1925 H 0.58870 0.62178 0.86374
 H1926 H 0.60622 0.65528 0.82504
 H1927 H 0.64434 0.68125 0.79883
 H1928 H 0.70943 0.64072 0.85328
 C1929 C 0.39654 0.42642 0.90933
 C1930 C 0.38253 0.40335 0.89224
 C1931 C 0.39353 0.37460 0.89341
 C1932 C 0.41802 0.36923 0.91103
 C1933 C 0.43190 0.39165 0.92708
 C1934 C 0.42202 0.42088 0.92712
 C1935 C 0.38022 0.35146 0.87685
 C1936 C 0.35577 0.35632 0.85831
 C1937 C 0.34494 0.38510 0.85682
 C1938 C 0.35804 0.40821 0.87367
 C1939 C 0.32106 0.39050 0.83831
 C1940 C 0.30791 0.36814 0.82145
 C1941 C 0.31753 0.33878 0.82208
 C1942 C 0.34202 0.33324 0.84117
 H1943 H 0.38818 0.44837 0.90808
 H1944 H 0.42693 0.34745 0.91228
 H1945 H 0.45083 0.38581 0.93983
 H1946 H 0.38912 0.32970 0.87832
 H1947 H 0.34920 0.42999 0.87210
 H1948 H 0.31233 0.41231 0.83667
 H1949 H 0.28967 0.37416 0.80782
 H1950 H 0.35047 0.31132 0.84260
 C1951 C 0.89629 0.07597 0.08727
 C1952 C 0.88263 0.09848 0.10535
 C1953 C 0.89504 0.12663 0.10664
 C1954 C 0.92064 0.13191 0.09060
 C1955 C 0.93419 0.10994 0.07366
 C1956 C 0.92284 0.08137 0.07106
 C1957 C 0.88202 0.14927 0.12405
 C1958 C 0.85653 0.14443 0.14111
 C1959 C 0.84434 0.11618 0.14033
 C1960 C 0.85711 0.09360 0.12251
 C1961 C 0.81946 0.11080 0.15757
 C1962 C 0.80663 0.13272 0.17531
 C1963 C 0.81759 0.16153 0.17675
 C1964 C 0.84306 0.16703 0.15901
 H1965 H 0.88677 0.05448 0.08651
 H1966 H 0.93063 0.15323 0.09128
 H1967 H 0.95396 0.11565 0.06219
 H1968 H 0.89197 0.17063 0.12442
 H1969 H 0.84721 0.07224 0.12224
 H1970 H 0.80970 0.08937 0.15748
 H1971 H 0.78757 0.12688 0.18786
 H1972 H 0.85253 0.18857 0.15924
 C1973 C 0.60314 0.92357 0.58880
 C1974 C 0.61695 0.90081 0.60659
 C1975 C 0.60363 0.87315 0.60902
 C1976 C 0.57700 0.86868 0.59445
 C1977 C 0.56335 0.89089 0.57783
 C1978 C 0.57553 0.91901 0.57403
 C1979 C 0.61679 0.85023 0.62609
 C1980 C 0.64338 0.85429 0.64173
 C1981 C 0.65647 0.88207 0.63987
 C1982 C 0.64355 0.90489 0.62235
 C1983 C 0.68239 0.88676 0.65573
 C1984 C 0.69540 0.86466 0.67317
 C1985 C 0.68367 0.83620 0.67567
 C1986 C 0.65707 0.83139 0.65928
 H1987 H 0.61347 0.94464 0.58711
 H1988 H 0.56628 0.84776 0.59602
 H1989 H 0.54283 0.88567 0.56751
 H1990 H 0.60610 0.82928 0.62730
 H1991 H 0.65421 0.92587 0.62123
 H1992 H 0.69286 0.90784 0.65482
 H1993 H 0.71526 0.87005 0.68462
 H1994 H 0.64690 0.81020 0.66033
 C1995 C 0.08227 0.59154 0.40760
 C1996 C 0.10509 0.60539 0.39017
 C1997 C 0.13377 0.59424 0.39076
 C1998 C 0.13934 0.56995 0.40869
 C1999 C 0.11725 0.55671 0.42585
 C2000 C 0.08800 0.56664 0.42612
 C2001 C 0.15661 0.60744 0.37360
 C2002 C 0.15157 0.63235 0.35562
 C2003 C 0.12292 0.64366 0.35537
 C2004 C 0.10005 0.63025 0.37222
 C2005 C 0.11740 0.66858 0.33836
 C2006 C 0.13958 0.68255 0.32205
 C2007 C 0.16870 0.67237 0.32110
 C2008 C 0.17437 0.64648 0.33825
 H2009 H 0.06042 0.60024 0.40686
 H2010 H 0.16110 0.56096 0.40963
 H2011 H 0.12338 0.53814 0.43899
 H2012 H 0.17832 0.59836 0.37447
 H2013 H 0.07835 0.63941 0.37145
 H2014 H 0.09570 0.67772 0.33782
 H2015 H 0.13365 0.70180 0.30984
 H2016 H 0.19626 0.63787 0.33881
   
