data_POSCAR
  _audit_creation_date              2014-09-24
  _audit_creation_method            'ToBaCCo'
  _symmetry_space_group_name_H-M    'P1'
  _symmetry_Int_Tables_number       1
  _symmetry_cell_setting            triclinic
  loop_
  _symmetry_equiv_pos_as_xyz
 x,y,z
_cell_length_a 60.7945
_cell_length_b 61.0187
_cell_length_c 60.7127
_cell_angle_alpha 90.182900
_cell_angle_beta 89.434900
_cell_angle_gamma 89.972000
loop_
  _atom_site_label
  _atom_site_type_symbol
  _atom_site_fract_x
  _atom_site_fract_y
  _atom_site_fract_z
C1 C 0.13349 -0.03151 0.25136
 C2 C 0.12372 -0.01151 0.25735
 C3 C 0.11382 -0.00920 0.27817
 C4 C 0.11309 -0.02689 0.29283
 C5 C 0.12292 -0.04685 0.28665
 C6 C 0.13355 -0.04947 0.26599
 C7 C 0.12347 0.00694 0.24165
 C8 C 0.11369 0.00447 0.22090
 C9 C 0.11193 0.02240 0.20634
 C10 C 0.12116 0.04259 0.21292
 C11 C 0.13142 0.04507 0.23336
 C12 C 0.13236 0.02722 0.24774
 H13 H 0.14054 -0.03297 0.23499
 H14 H 0.10601 0.00618 0.28262
 H15 H 0.10626 -0.01115 0.21695
 H16 H 0.13998 0.02910 0.26371
 H17 H 0.12326 -0.05987 0.29869
 H18 H 0.12151 0.05636 0.20174
 C19 C 0.36473 -0.02881 0.74647
 C20 C 0.37371 -0.00823 0.74154
 C21 C 0.38299 -0.00452 0.72064
 C22 C 0.38372 -0.02134 0.70482
 C23 C 0.37460 -0.04187 0.70996
 C24 C 0.36479 -0.04565 0.73065
 C25 C 0.37355 0.00940 0.75827
 C26 C 0.38240 0.00567 0.77919
 C27 C 0.38353 0.02265 0.79500
 C28 C 0.37489 0.04334 0.78936
 C29 C 0.36538 0.04703 0.76873
 C30 C 0.36497 0.03005 0.75318
 H31 H 0.35746 -0.03160 0.76259
 H32 H 0.39022 0.01129 0.71695
 H33 H 0.38960 -0.01022 0.78241
 H34 H 0.35793 0.03287 0.73710
 H35 H 0.37442 -0.05464 0.69753
 H36 H 0.37425 0.05644 0.80141
 C37 C 0.86300 0.47050 0.24825
 C38 C 0.87298 0.49077 0.24394
 C39 C 0.88363 0.49425 0.22365
 C40 C 0.88487 0.47741 0.20790
 C41 C 0.87472 0.45722 0.21237
 C42 C 0.86356 0.45370 0.23240
 C43 C 0.87285 0.50814 0.26089
 C44 C 0.88166 0.50406 0.28174
 C45 C 0.88319 0.52090 0.29766
 C46 C 0.87483 0.54179 0.29224
 C47 C 0.86529 0.54579 0.27167
 C48 C 0.86463 0.52895 0.25597
 H49 H 0.85477 0.46787 0.26393
 H50 H 0.89170 0.50978 0.22052
 H51 H 0.88862 0.48803 0.28477
 H52 H 0.85770 0.53201 0.23988
 H53 H 0.87504 0.44442 0.19996
 H54 H 0.87452 0.55481 0.30438
 C55 C 0.63477 0.46969 0.75201
 C56 C 0.62653 0.49056 0.75737
 C57 C 0.61755 0.49434 0.77844
 C58 C 0.61621 0.47733 0.79393
 C59 C 0.62447 0.45653 0.78828
 C60 C 0.63398 0.45260 0.76745
 C61 C 0.62660 0.50826 0.74075
 C62 C 0.61744 0.50462 0.71992
 C63 C 0.61627 0.52164 0.70444
 C64 C 0.62482 0.54232 0.70988
 C65 C 0.63450 0.54610 0.73047
 C66 C 0.63516 0.52901 0.74589
 H67 H 0.64177 0.46676 0.73577
 H68 H 0.61083 0.51033 0.78246
 H69 H 0.61049 0.48873 0.71607
 H70 H 0.64230 0.53184 0.76194
 H71 H 0.62401 0.44351 0.80037
 H72 H 0.62450 0.55535 0.69780
 C73 C 0.24296 0.13570 1.03110
 C74 C 0.23859 0.12717 1.01015
 C75 C 0.21812 0.11750 1.00597
 C76 C 0.20212 0.11537 1.02288
 C77 C 0.20703 0.12406 1.04385
 C78 C 0.22720 0.13435 1.04799
 C79 C 0.25605 0.12715 0.99306
 C80 C 0.27651 0.11771 0.99763
 C81 C 0.29364 0.11739 0.98178
 C82 C 0.28980 0.12763 0.96134
 C83 C 0.26929 0.13704 0.95653
 C84 C 0.25238 0.13647 0.97240
 H85 H 0.25878 0.14318 1.03430
 H86 H 0.21551 0.11029 0.98989
 H87 H 0.27899 0.11102 1.01391
 H88 H 0.23658 0.14387 0.96894
 H89 H 0.19476 0.12396 1.05689
 H90 H 0.30218 0.12720 0.94842
 C91 C 0.75626 0.36341 1.02493
 C92 C 0.76047 0.37449 1.00515
 C93 C 0.78048 0.38540 1.00211
 C94 C 0.79621 0.38569 1.01885
 C95 C 0.79185 0.37452 1.03864
 C96 C 0.77189 0.36304 1.04199
 C97 C 0.74367 0.37496 0.98776
 C98 C 0.72268 0.38353 0.99232
 C99 C 0.70617 0.38365 0.97612
 C100 C 0.71143 0.37491 0.95516
 C101 C 0.73243 0.36649 0.95038
 C102 C 0.74850 0.36658 0.96677
 H103 H 0.74035 0.35570 1.02703
 H104 H 0.78369 0.39386 0.98674
 H105 H 0.71922 0.38940 1.00884
 H106 H 0.76473 0.36002 0.96325
 H107 H 0.80442 0.37447 1.05112
 H108 H 0.69944 0.37511 0.94211
 C109 C 0.25287 0.86463 0.53003
 C110 C 0.25612 0.87501 0.50974
 C111 C 0.27598 0.88592 0.50544
 C112 C 0.29290 0.88664 0.52122
 C113 C 0.28935 0.87566 0.54144
 C114 C 0.26947 0.86467 0.54593
 C115 C 0.23890 0.87421 0.49272
 C116 C 0.21773 0.88232 0.49730
 C117 C 0.20148 0.88208 0.48101
 C118 C 0.20656 0.87345 0.46011
 C119 C 0.22764 0.86522 0.45531
 C120 C 0.24376 0.86568 0.47172
 H121 H 0.23745 0.85629 0.53330
 H122 H 0.27826 0.89322 0.48936
 H123 H 0.21399 0.88899 0.51348
 H124 H 0.26013 0.85950 0.46814
 H125 H 0.30174 0.87597 0.55409
 H126 H 0.19409 0.87325 0.44748
 C127 C 0.74658 0.63599 0.52992
 C128 C 0.74225 0.62774 0.50881
 C129 C 0.72184 0.61805 0.50450
 C130 C 0.70600 0.61597 0.52135
 C131 C 0.71055 0.62427 0.54241
 C132 C 0.73073 0.63444 0.54679
 C133 C 0.75966 0.62800 0.49173
 C134 C 0.77999 0.61822 0.49605
 C135 C 0.79704 0.61796 0.48014
 C136 C 0.79333 0.62870 0.45994
 C137 C 0.77292 0.63844 0.45537
 C138 C 0.75604 0.63777 0.47128
 H139 H 0.76241 0.64339 0.53324
 H140 H 0.71871 0.61126 0.48831
 H141 H 0.78241 0.61119 0.51219
 H142 H 0.74030 0.64538 0.46801
 H143 H 0.69814 0.62324 0.55530
 H144 H 0.80569 0.62836 0.44699
 C145 C -0.02829 0.25525 0.12810
 C146 C -0.00714 0.26011 0.12016
 C147 C -0.00258 0.28108 0.11182
 C148 C -0.01919 0.29724 0.11071
 C149 C -0.04026 0.29197 0.11918
 C150 C -0.04480 0.27125 0.12811
 C151 C 0.01034 0.24330 0.12099
 C152 C 0.00696 0.22250 0.11169
 C153 C 0.02303 0.20587 0.11328
 C154 C 0.04265 0.21079 0.12456
 C155 C 0.04625 0.23160 0.13380
 C156 C 0.03005 0.24780 0.13183
 H157 H -0.03159 0.23928 0.13514
 H158 H 0.01369 0.28413 0.10512
 H159 H -0.00868 0.21926 0.10397
 H160 H 0.03262 0.26387 0.13901
 H161 H -0.05316 0.30419 0.11968
 H162 H 0.05556 0.19866 0.12587
 C163 C -0.02773 0.74544 0.36371
 C164 C -0.00735 0.74204 0.37382
 C165 C -0.00256 0.72158 0.38311
 C166 C -0.01824 0.70471 0.38280
 C167 C -0.03838 0.70821 0.37230
 C168 C -0.04316 0.72842 0.36249
 C169 C 0.00887 0.75998 0.37470
 C170 C 0.00303 0.78017 0.38415
 C171 C 0.01818 0.79751 0.38478
 C172 C 0.03912 0.79458 0.37525
 C173 C 0.04511 0.77450 0.36552
 C174 C 0.02999 0.75711 0.36565
 H175 H -0.03121 0.76110 0.35611
 H176 H 0.01304 0.71907 0.39123
 H177 H -0.01333 0.78231 0.39109
 H178 H 0.03429 0.74164 0.35792
 H179 H -0.05039 0.69511 0.37173
 H180 H 0.05101 0.80778 0.37586
 C181 C 0.47104 0.24234 0.86383
 C182 C 0.49126 0.23922 0.87420
 C183 C 0.49587 0.21911 0.88430
 C184 C 0.48045 0.20180 0.88408
 C185 C 0.46046 0.20519 0.87293
 C186 C 0.45566 0.22530 0.86288
 C187 C 0.50777 0.25696 0.87411
 C188 C 0.50252 0.27749 0.88311
 C189 C 0.51788 0.29486 0.88291
 C190 C 0.53846 0.29115 0.87248
 C191 C 0.54390 0.27059 0.86345
 C192 C 0.52855 0.25349 0.86461
 H193 H 0.46763 0.25781 0.85582
 H194 H 0.51181 0.21701 0.89179
 H195 H 0.48611 0.27981 0.88980
 H196 H 0.53246 0.23765 0.85745
 H197 H 0.44782 0.19271 0.87301
 H198 H 0.55103 0.30370 0.87246
 C199 C 0.47242 0.75446 0.63112
 C200 C 0.49277 0.75852 0.62072
 C201 C 0.49628 0.77844 0.60973
 C202 C 0.47941 0.79406 0.60861
 C203 C 0.45934 0.78999 0.61939
 C204 C 0.45580 0.77045 0.63096
 C205 C 0.51052 0.74208 0.62158
 C206 C 0.50750 0.72125 0.61230
 C207 C 0.52438 0.70556 0.61298
 C208 C 0.54424 0.71084 0.62337
 C209 C 0.54743 0.73162 0.63286
 C210 C 0.53051 0.74724 0.63168
 H211 H 0.46991 0.73931 0.64006
 H212 H 0.51188 0.78144 0.60149
 H213 H 0.49200 0.71729 0.60457
 H214 H 0.53277 0.76341 0.63875
 H215 H 0.44643 0.80224 0.61891
 H216 H 0.55720 0.69869 0.62417
 C217 C 0.86382 1.02855 0.75649
 C218 C 0.87311 1.00792 0.76000
 C219 C 0.88307 1.00325 0.78011
 C220 C 0.88441 1.01920 0.79697
 C221 C 0.87443 1.03982 0.79320
 C222 C 0.86414 1.04458 0.77308
 C223 C 0.87327 0.99136 0.74226
 C224 C 0.88415 0.99576 0.72237
 C225 C 0.88550 0.97991 0.70539
 C226 C 0.87472 0.95958 0.70884
 C227 C 0.86340 0.95520 0.72869
 C228 C 0.86307 0.97111 0.74540
 H229 H 0.85649 1.03212 0.74070
 H230 H 0.88948 0.98688 0.78242
 H231 H 0.89113 1.01193 0.72028
 H232 H 0.85480 0.96779 0.76094
 H233 H 0.87520 1.05264 0.80548
 H234 H 0.87543 0.94680 0.69648
 C235 C 0.36578 0.52779 0.25440
 C236 C 0.37453 0.50691 0.25821
 C237 C 0.38479 0.50248 0.27828
 C238 C 0.38680 0.51882 0.29448
 C239 C 0.37763 0.53961 0.29058
 C240 C 0.36696 0.54422 0.27063
 C241 C 0.37312 0.48956 0.24127
 C242 C 0.38207 0.49285 0.22019
 C243 C 0.38233 0.47575 0.20469
 C244 C 0.37262 0.45553 0.21009
 C245 C 0.36281 0.45225 0.23093
 C246 C 0.36366 0.46929 0.24656
 H247 H 0.35800 0.53116 0.23879
 H248 H 0.39136 0.48624 0.28114
 H249 H 0.38982 0.50837 0.21624
 H250 H 0.35700 0.46685 0.26298
 H251 H 0.37888 0.55225 0.30305
 H252 H 0.37234 0.44260 0.19783
 C253 C 0.63627 1.02701 0.24165
 C254 C 0.62523 1.00724 0.23825
 C255 C 0.61421 1.00360 0.21852
 C256 C 0.61356 1.01989 0.20222
 C257 C 0.62515 1.03962 0.20560
 C258 C 0.63679 1.04319 0.22526
 C259 C 0.62481 0.99057 0.25568
 C260 C 0.61450 0.99517 0.27580
 C261 C 0.61380 0.97958 0.29294
 C262 C 0.62505 0.95945 0.28948
 C263 C 0.63590 0.95490 0.26933
 C264 C 0.63511 0.97042 0.25235
 H265 H 0.64446 1.02972 0.25719
 H266 H 0.60587 0.98810 0.21606
 H267 H 0.60760 1.01138 0.27798
 H268 H 0.64286 0.96704 0.23655
 H269 H 0.62504 1.05217 0.19303
 H270 H 0.62515 0.94702 0.30211
 C271 C 0.13448 0.52846 0.74552
 C272 C 0.12372 0.50876 0.74081
 C273 C 0.11458 0.50543 0.72001
 C274 C 0.11583 0.52185 0.70388
 C275 C 0.12701 0.54147 0.70869
 C276 C 0.13661 0.54482 0.72944
 C277 C 0.12238 0.49152 0.75765
 C278 C 0.11148 0.49557 0.77760
 C279 C 0.11048 0.47946 0.79404
 C280 C 0.12146 0.45938 0.79054
 C281 C 0.13290 0.45529 0.77063
 C282 C 0.13272 0.47134 0.75407
 H283 H 0.14139 0.53089 0.76173
 H284 H 0.10651 0.49001 0.71646
 H285 H 0.10384 0.51142 0.78029
 H286 H 0.14100 0.46840 0.73846
 H287 H 0.12835 0.55409 0.69625
 H288 H 0.12125 0.44706 0.80333
 C289 C 0.74399 0.86928 -0.02985
 C290 C 0.73879 0.87803 -0.00908
 C291 C 0.71769 0.88642 -0.00496
 C292 C 0.70180 0.88638 -0.02158
 C293 C 0.70719 0.87743 -0.04231
 C294 C 0.72822 0.86872 -0.04653
 C295 C 0.75550 0.87829 0.00833
 C296 C 0.77577 0.88847 0.00460
 C297 C 0.79224 0.88872 0.02085
 C298 C 0.78794 0.87736 0.04075
 C299 C 0.76765 0.86678 0.04450
 C300 C 0.75138 0.86782 0.02833
 H301 H 0.76036 0.86286 -0.03294
 H302 H 0.71372 0.89300 0.01120
 H303 H 0.77863 0.89562 -0.01146
 H304 H 0.73553 0.86013 0.03108
 H305 H 0.69498 0.87720 -0.05518
 H306 H 0.80002 0.87700 0.05368
 C307 C 0.24658 0.36716 0.47400
 C308 C 0.24234 0.37740 0.49419
 C309 C 0.22200 0.38740 0.49807
 C310 C 0.20590 0.38777 0.48166
 C311 C 0.21007 0.37686 0.46157
 C312 C 0.23034 0.36623 0.45773
 C313 C 0.25915 0.37755 0.51140
 C314 C 0.27925 0.38807 0.50777
 C315 C 0.29511 0.38903 0.52443
 C316 C 0.29082 0.37846 0.54462
 C317 C 0.27084 0.36730 0.54811
 C318 C 0.25496 0.36729 0.53152
 H319 H 0.26252 0.35965 0.47117
 H320 H 0.21887 0.39508 0.51391
 H321 H 0.28239 0.39567 0.49194
 H322 H 0.23930 0.35918 0.53419
 H323 H 0.19759 0.37661 0.44898
 H324 H 0.30295 0.37887 0.55756
 C325 C 0.25807 0.63428 -0.02661
 C326 C 0.26103 0.62348 -0.00655
 C327 C 0.28110 0.61314 -0.00227
 C328 C 0.29822 0.61330 -0.01797
 C329 C 0.29518 0.62447 -0.03796
 C330 C 0.27512 0.63511 -0.04236
 C331 C 0.24334 0.62344 0.01025
 C332 C 0.22250 0.61503 0.00533
 C333 C 0.20533 0.61510 0.02120
 C334 C 0.20978 0.62433 0.04214
 C335 C 0.23064 0.63285 0.04718
 C336 C 0.24735 0.63212 0.03116
 H337 H 0.24246 0.64216 -0.02985
 H338 H 0.28334 0.60495 0.01336
 H339 H 0.21976 0.60903 -0.01121
 H340 H 0.26357 0.63840 0.03487
 H341 H 0.30836 0.62483 -0.05008
 H342 H 0.19731 0.62445 0.05495
 C343 C 0.75311 0.13294 0.46904
 C344 C 0.75777 0.12293 0.48914
 C345 C 0.77888 0.11458 0.49287
 C346 C 0.79567 0.11600 0.47668
 C347 C 0.79063 0.12670 0.45668
 C348 C 0.76950 0.13525 0.45278
 C349 C 0.74069 0.12167 0.50660
 C350 C 0.72007 0.11250 0.50214
 C351 C 0.70409 0.11063 0.51885
 C352 C 0.70865 0.11865 0.54006
 C353 C 0.72900 0.12864 0.54459
 C354 C 0.74504 0.12967 0.52779
 H355 H 0.73670 0.13921 0.46623
 H356 H 0.78211 0.10759 0.50886
 H357 H 0.71669 0.10620 0.48580
 H358 H 0.76097 0.13686 0.53112
 H359 H 0.80286 0.12809 0.44374
 H360 H 0.69604 0.11778 0.55275
 C361 C 1.02903 0.75743 0.86275
 C362 C 1.00831 0.76081 0.87233
 C363 C 1.00346 0.78082 0.88258
 C364 C 1.01931 0.79770 0.88398
 C365 C 1.04002 0.79405 0.87367
 C366 C 1.04497 0.77403 0.86307
 C367 C 0.99188 0.74302 0.87256
 C368 C 0.99665 0.72321 0.88304
 C369 C 0.98081 0.70635 0.88480
 C370 C 0.96017 0.70980 0.87470
 C371 C 0.95531 0.72961 0.86389
 C372 C 0.97125 0.74619 0.86315
 H373 H 1.03276 0.74171 0.85523
 H374 H 0.98703 0.78302 0.88921
 H375 H 1.01302 0.72115 0.88953
 H376 H 0.96758 0.76174 0.85542
 H377 H 1.05278 0.80633 0.87445
 H378 H 0.94740 0.69754 0.87578
 C379 C 0.52920 0.25547 0.36108
 C380 C 0.50849 0.25926 0.37062
 C381 C 0.50398 0.27948 0.38065
 C382 C 0.52022 0.29580 0.38185
 C383 C 0.54089 0.29190 0.37191
 C384 C 0.54548 0.27178 0.36137
 C385 C 0.49188 0.24166 0.37124
 C386 C 0.49684 0.22166 0.38129
 C387 C 0.48084 0.20519 0.38334
 C388 C 0.45987 0.20874 0.37436
 C389 C 0.45477 0.22865 0.36389
 C390 C 0.47087 0.24513 0.36268
 H391 H 0.53267 0.23965 0.35366
 H392 H 0.48789 0.28223 0.38799
 H393 H 0.51316 0.21914 0.38786
 H394 H 0.46706 0.26077 0.35522
 H395 H 0.55351 0.30438 0.37263
 H396 H 0.44745 0.19609 0.37571
 C397 C 1.03034 0.24971 0.63183
 C398 C 1.01098 0.24474 0.62062
 C399 C 1.00858 0.22425 0.61049
 C400 C 1.02547 0.20835 0.61128
 C401 C 1.04478 0.21370 0.62303
 C402 C 1.04726 0.23420 0.63343
 C403 C 0.99279 0.26075 0.62037
 C404 C 0.99613 0.28173 0.61174
 C405 C 0.97926 0.29766 0.61225
 C406 C 0.95899 0.29193 0.62246
 C407 C 0.95551 0.27088 0.63133
 C408 C 0.97244 0.25530 0.62973
 H409 H 1.03204 0.26563 0.63958
 H410 H 0.99303 0.22068 0.60275
 H411 H 1.01234 0.28561 0.60537
 H412 H 0.97004 0.23894 0.63619
 H413 H 1.05825 0.20220 0.62392
 H414 H 0.94561 0.30358 0.62328
 C415 C 0.53105 0.74432 0.13302
 C416 C 0.51124 0.73922 0.12270
 C417 C 0.50817 0.71835 0.11362
 C418 C 0.52490 0.70251 0.11453
 C419 C 0.54465 0.70771 0.12532
 C420 C 0.54776 0.72855 0.13486
 C421 C 0.49333 0.75546 0.12228
 C422 C 0.49644 0.77570 0.11196
 C423 C 0.47943 0.79131 0.11158
 C424 C 0.45949 0.78668 0.12264
 C425 C 0.45641 0.76656 0.13355
 C426 C 0.47331 0.75088 0.13278
 H427 H 0.53325 0.76055 0.13996
 H428 H 0.49261 0.71446 0.10598
 H429 H 0.51215 0.77917 0.10416
 H430 H 0.47109 0.73511 0.14066
 H431 H 0.55750 0.69549 0.12649
 H432 H 0.44641 0.79873 0.12281
 O433 O -0.01095 0.93882 0.98576
 O434 O 0.00544 0.93796 1.02185
 O435 O -0.06352 0.98530 0.99322
 O436 O -0.06813 1.02020 1.00286
 O437 O -0.01627 0.99163 0.93910
 O438 O 0.02081 1.00512 0.93740
 O439 O -0.00567 1.04500 1.04877
 O440 O -0.03943 1.02667 1.05192
 O441 O 0.04362 0.99836 1.04698
 O442 O 0.04573 0.96159 1.02382
 O443 O 0.04292 1.04660 0.99863
 O444 O 0.02175 1.05337 0.96526
 O445 O 0.00817 1.06177 1.01820
 O446 O -0.00561 1.06472 0.97975
 O447 O 0.05966 1.01655 1.01295
 O448 O 0.06442 0.98134 0.99978
 O449 O 0.01298 1.01268 1.06318
 O450 O -0.02280 0.99301 1.06439
 O451 O 0.00344 0.95571 0.95553
 O452 O 0.03584 0.97710 0.94960
 O453 O -0.04711 1.00467 0.95601
 O454 O -0.05174 1.03838 0.97790
 O455 O -0.04662 0.95441 1.00542
 O456 O -0.02662 0.95234 1.03968
 Zr457 Zr -0.01369 0.96420 1.00931
 O458 O 0.00590 0.98333 1.03049
 Zr459 Zr -0.03824 1.00851 0.98917
 O460 O -0.01984 1.02932 1.00964
 Zr461 Zr 0.00664 0.98883 0.96475
 O462 O 0.02712 1.00875 0.98409
 Zr463 Zr -0.01053 1.01261 1.03818
 O464 O -0.03123 0.99259 1.01894
 Zr465 Zr 0.03459 0.99293 1.01384
 O466 O 0.01619 0.97195 0.99320
 Zr467 Zr 0.01000 1.03715 0.99381
 O468 O -0.00964 1.01840 0.97214
 O469 O -0.02252 0.97963 0.98013
 O470 O 0.01883 1.02188 1.02298
 C471 C -0.00331 0.93860 0.96590
 C472 C -0.06380 0.96526 0.99978
 C473 C -0.03628 0.99847 0.93882
 C474 C 0.00189 1.06183 1.03850
 C475 C 0.03311 1.00642 1.06363
 C476 C 0.05977 1.03652 1.00631
 H477 H 0.00937 0.97484 1.04389
 H478 H 0.04057 1.01228 0.97555
 H479 H -0.03183 0.97025 0.97070
 H480 H -0.02857 1.04251 1.01339
 H481 H -0.05152 1.01622 1.04902
 H482 H -0.06436 1.02839 1.01637
 H483 H 0.06453 0.98561 0.98409
 H484 H 0.04242 0.96656 0.95999
 H485 H -0.02224 1.00186 1.07810
 H486 H -0.03308 0.93760 1.03734
 H487 H 0.03363 1.04428 0.95875
 H488 H 0.01355 1.01962 0.93656
 H489 H -0.00300 0.92411 1.02057
 H490 H 0.05670 0.96357 1.03563
 H491 H -0.04183 1.04383 0.96610
 H492 H -0.01900 1.06791 0.98858
 O493 O 0.48620 0.49047 0.43726
 O494 O 0.52219 0.50696 0.43572
 O495 O 0.49340 0.43833 0.48367
 O496 O 0.50361 0.43400 0.51856
 O497 O 0.43965 0.48523 0.49162
 O498 O 0.43773 0.52195 0.50421
 O499 O 0.54933 0.49628 0.54291
 O500 O 0.55295 0.46340 0.52401
 O501 O 0.54670 0.54597 0.49581
 O502 O 0.52339 0.54753 0.45930
 O503 O 0.50019 0.54455 0.54552
 O504 O 0.46615 0.52345 0.55273
 O505 O 0.51915 0.51057 0.56012
 O506 O 0.48072 0.49619 0.56386
 O507 O 0.51275 0.56167 0.51466
 O508 O 0.49958 0.56591 0.47961
 O509 O 0.56350 0.51596 0.50995
 O510 O 0.56484 0.48014 0.49010
 O511 O 0.45583 0.50428 0.45458
 O512 O 0.45024 0.53700 0.47614
 O513 O 0.45644 0.45458 0.50434
 O514 O 0.47891 0.45010 0.53749
 O515 O 0.50548 0.45527 0.45249
 O516 O 0.53999 0.47533 0.45021
 Zr517 Zr 0.50965 0.48807 0.46238
 O518 O 0.53069 0.50810 0.48115
 Zr519 Zr 0.48974 0.46359 0.50719
 O520 O 0.51033 0.48228 0.52768
 Zr521 Zr 0.46521 0.50803 0.48777
 O522 O 0.48440 0.52870 0.50762
 Zr523 Zr 0.53874 0.49193 0.51038
 O524 O 0.51945 0.47086 0.49072
 Zr525 Zr 0.51383 0.53645 0.49105
 O526 O 0.49343 0.51770 0.47025
 Zr527 Zr 0.49454 0.51186 0.53591
 O528 O 0.47284 0.49203 0.51739
 O529 O 0.48053 0.47905 0.47835
 O530 O 0.52345 0.52101 0.51993
 C531 C 0.46631 0.49769 0.43725
 C532 C 0.49977 0.43811 0.46337
 C533 C 0.43927 0.46543 0.49872
 C534 C 0.53929 0.50405 0.55996
 C535 C 0.56357 0.53597 0.50344
 C536 C 0.50722 0.56154 0.53515
 H537 H 0.54397 0.51174 0.47233
 H538 H 0.47586 0.54200 0.51138
 H539 H 0.47099 0.46965 0.46917
 H540 H 0.51418 0.47364 0.54085
 H541 H 0.54987 0.45126 0.51363
 H542 H 0.51733 0.43794 0.52620
 H543 H 0.48394 0.56583 0.48420
 H544 H 0.46037 0.54325 0.46494
 H545 H 0.57864 0.48117 0.49862
 H546 H 0.53766 0.46866 0.43550
 H547 H 0.46016 0.53585 0.54422
 H548 H 0.43769 0.51590 0.51932
 H549 H 0.52100 0.49836 0.42189
 H550 H 0.53528 0.55850 0.46096
 H551 H 0.46731 0.45995 0.54336
 H552 H 0.48979 0.48314 0.56707
 O553 O 0.45190 -0.04493 0.49278
 O554 O 0.47158 -0.04807 0.45894
 O555 O 0.50128 -0.04574 0.54195
 O556 O 0.53153 -0.02668 0.55046
 O557 O 0.45103 0.00481 0.54261
 O558 O 0.44655 0.03806 0.52223
 O559 O 0.56041 0.01452 0.48817
 O560 O 0.56187 -0.02010 0.50249
 O561 O 0.51493 0.01207 0.43607
 O562 O 0.47843 -0.00471 0.43376
 O563 O 0.50873 0.06204 0.48258
 O564 O 0.49518 0.06417 0.52112
 O565 O 0.54344 0.04541 0.50091
 O566 O 0.52212 0.05190 0.53495
 O567 O 0.49588 0.04602 0.45139
 O568 O 0.46280 0.02929 0.44727
 O569 O 0.54491 -0.00227 0.45285
 O570 O 0.54528 -0.03809 0.47170
 O571 O 0.43544 -0.01399 0.50606
 O572 O 0.43386 0.02439 0.49445
 O573 O 0.48080 -0.01037 0.55901
 O574 O 0.51823 0.00463 0.56107
 O575 O 0.48680 -0.06093 0.51109
 O576 O 0.50305 -0.06144 0.47402
 Zr577 Zr 0.48491 -0.03521 0.48841
 O578 O 0.50572 -0.01629 0.46822
 Zr579 Zr 0.50475 -0.01229 0.53386
 O580 O 0.52630 0.00755 0.51531
 Zr581 Zr 0.46101 0.00907 0.50957
 O582 O 0.48074 0.02969 0.48993
 Zr583 Zr 0.53429 -0.00789 0.48539
 O584 O 0.51464 -0.02895 0.50501
 Zr585 Zr 0.49052 0.01350 0.46091
 O586 O 0.46837 -0.00629 0.47928
 Zr587 Zr 0.51029 0.03661 0.50605
 O588 O 0.48943 0.01789 0.52701
 O589 O 0.47582 -0.02031 0.51796
 O590 O 0.51973 0.02175 0.47658
 C591 C 0.43495 -0.03408 0.49954
 C592 C 0.49387 -0.06215 0.53090
 C593 C 0.46099 -0.00303 0.55945
 C594 C 0.56057 0.03467 0.49450
 C595 C 0.53487 0.00500 0.43584
 C596 C 0.50261 0.06272 0.46234
 H597 H 0.50919 -0.02468 0.45464
 H598 H 0.47227 0.04310 0.48657
 H599 H 0.46624 -0.02979 0.52713
 H600 H 0.53966 0.01050 0.52397
 H601 H 0.55700 -0.03373 0.50989
 H602 H 0.54513 -0.02133 0.54324
 H603 H 0.45016 0.01927 0.44932
 H604 H 0.43089 0.01622 0.48071
 H605 H 0.56041 -0.03594 0.46582
 H606 H 0.49442 -0.07517 0.47558
 H607 H 0.48148 0.06727 0.51305
 H608 H 0.45700 0.04414 0.53306
 H609 H 0.46086 -0.03722 0.45346
 H610 H 0.47951 0.00464 0.42046
 H611 H 0.50984 0.01846 0.56274
 H612 H 0.53361 0.04232 0.54118
 O613 O 0.00695 0.45893 1.04786
 O614 O 0.03945 0.47950 1.05118
 O615 O -0.04424 0.50726 1.04939
 O616 O -0.05226 0.53816 1.03100
 O617 O -0.04426 0.45759 0.99919
 O618 O -0.02374 0.45278 0.96545
 O619 O 0.00913 0.56637 0.98718
 O620 O -0.00559 0.56835 1.02232
 O621 O 0.06150 0.52170 0.98917
 O622 O 0.06452 0.48569 1.00646
 O623 O 0.01453 0.51421 0.94007
 O624 O -0.02389 0.50064 0.93903
 O625 O -0.00444 0.54924 0.95689
 O626 O -0.03767 0.52780 0.95092
 O627 O 0.04599 0.50165 0.95559
 O628 O 0.05081 0.46915 0.97309
 O629 O 0.04403 0.55150 1.00352
 O630 O 0.02575 0.55233 1.03996
 O631 O -0.00799 0.44251 1.01778
 O632 O 0.00428 0.44033 0.97924
 O633 O -0.06101 0.48772 1.01370
 O634 O -0.06353 0.52485 0.99959
 O635 O -0.01313 0.49321 1.06433
 O636 O 0.02350 0.51081 1.06412
 Zr637 Zr 0.00975 0.49198 1.03821
 O638 O 0.02954 0.51255 1.01858
 Zr639 Zr -0.03602 0.51134 1.01581
 O640 O -0.01797 0.53259 0.99527
 Zr641 Zr -0.01133 0.46758 0.99431
 O642 O 0.00794 0.48702 0.97307
 Zr643 Zr 0.01189 0.54078 1.01012
 O644 O -0.00728 0.52145 1.03194
 Zr645 Zr 0.03696 0.49713 0.98863
 O646 O 0.01896 0.47525 1.00909
 Zr647 Zr -0.00870 0.51625 0.96609
 O648 O -0.02922 0.49570 0.98551
 O649 O -0.01972 0.48265 1.02382
 O650 O 0.02073 0.52598 0.98030
 C651 C -0.00050 0.44209 1.03752
 C652 C -0.03319 0.49975 1.06571
 C653 C -0.06128 0.46786 1.00664
 C654 C 0.00224 0.56640 0.96720
 C655 C 0.06122 0.54173 0.99591
 C656 C 0.03472 0.50788 0.93895
 H657 H 0.04309 0.51623 1.02670
 H658 H 0.01129 0.47836 0.95966
 H659 H -0.02874 0.47305 1.03341
 H660 H -0.02681 0.54584 0.99233
 H661 H -0.01258 0.56378 1.03638
 H662 H -0.04584 0.55168 1.02473
 H663 H 0.04900 0.45681 0.98348
 H664 H 0.01791 0.43748 0.98752
 H665 H 0.03122 0.56744 1.03747
 H666 H 0.02188 0.50256 1.07811
 H667 H -0.01550 0.48711 0.93572
 H668 H -0.03492 0.46293 0.95955
 H669 H 0.04576 0.46944 1.03997
 H670 H 0.07766 0.48658 0.99667
 H671 H -0.06499 0.51686 0.98546
 H672 H -0.04422 0.53912 0.96066
 O673 O -0.04737 0.49594 0.45673
 O674 O -0.04892 0.46256 0.47839
 O675 O -0.04486 0.54766 0.50329
 O676 O -0.02515 0.55633 0.53333
 O677 O 0.00416 0.54453 0.45174
 O678 O 0.03615 0.52207 0.44574
 O679 O 0.01710 0.49443 0.56202
 O680 O -0.01710 0.51040 0.56515
 O681 O 0.00979 0.44090 0.51843
 O682 O -0.00608 0.43898 0.47866
 O683 O 0.06186 0.48634 0.50841
 O684 O 0.06420 0.52358 0.49321
 O685 O 0.04714 0.50643 0.54296
 O686 O 0.05319 0.53910 0.51997
 O687 O 0.04483 0.45517 0.49726
 O688 O 0.02470 0.44588 0.46698
 O689 O -0.00171 0.45967 0.54879
 O690 O -0.03697 0.47972 0.55080
 O691 O -0.01727 0.50898 0.43836
 O692 O 0.01935 0.49409 0.43490
 O693 O -0.00960 0.56251 0.48169
 O694 O 0.00634 0.56586 0.51837
 O695 O -0.06195 0.51663 0.49146
 O696 O -0.06242 0.48159 0.51036
 Zr697 Zr -0.03666 0.49321 0.48956
 O698 O -0.01718 0.47350 0.51005
 Zr699 Zr -0.01158 0.53862 0.50644
 O700 O 0.00880 0.52069 0.52760
 Zr701 Zr 0.00726 0.51185 0.46242
 O702 O 0.02843 0.49268 0.48160
 Zr703 Zr -0.00690 0.49170 0.53744
 O704 O -0.02844 0.51091 0.51827
 Zr705 Zr 0.01188 0.46478 0.49339
 O706 O -0.00857 0.48268 0.47185
 Zr707 Zr 0.03687 0.51005 0.51022
 O708 O 0.01775 0.53036 0.48964
 O709 O -0.02126 0.52165 0.47860
 O710 O 0.02192 0.48144 0.52156
 C711 C -0.03739 0.50246 0.43912
 C712 C -0.06202 0.53690 0.49731
 C713 C -0.00275 0.56193 0.46162
 C714 C 0.03733 0.50057 0.56085
 C715 C 0.00401 0.44192 0.53886
 C716 C 0.06202 0.46602 0.50283
 H717 H -0.02589 0.46056 0.51459
 H718 H 0.04147 0.48869 0.47260
 H719 H -0.03079 0.53073 0.46917
 H720 H 0.01258 0.52982 0.54049
 H721 H -0.03083 0.51798 0.56091
 H722 H -0.01873 0.55022 0.54689
 H723 H 0.03159 0.45624 0.45651
 H724 H 0.01135 0.47996 0.43472
 H725 H -0.03418 0.47447 0.56597
 H726 H -0.07655 0.48250 0.50239
 H727 H 0.06673 0.51471 0.47975
 H728 H 0.04320 0.53315 0.45529
 H729 H -0.06391 0.46467 0.47246
 H730 H -0.01730 0.43402 0.48945
 H731 H 0.02003 0.56674 0.50945
 H732 H 0.04462 0.54577 0.53219
 O733 O 0.50341 0.93620 0.01393
 O734 O 0.48633 0.93618 -0.02170
 O735 O 0.55698 0.98116 0.00664
 O736 O 0.56195 1.01599 -0.00370
 O737 O 0.51117 0.98900 0.06168
 O738 O 0.47452 1.00211 0.06479
 O739 O 0.49908 1.04321 -0.04668
 O740 O 0.53168 1.02394 -0.05160
 O741 O 0.44844 0.99645 -0.04401
 O742 O 0.44399 0.96115 -0.02040
 O743 O 0.45182 1.04570 0.00357
 O744 O 0.47345 1.05090 0.03757
 O745 O 0.48693 1.05999 -0.01532
 O746 O 0.50084 1.06193 0.02288
 O747 O 0.43392 1.01541 -0.00872
 O748 O 0.42901 0.97956 0.00328
 O749 O 0.47837 1.01136 -0.06093
 O750 O 0.51389 0.99101 -0.06393
 O751 O 0.49078 0.95283 0.04520
 O752 O 0.45862 0.97476 0.05219
 O753 O 0.54191 1.00128 0.04411
 O754 O 0.54699 1.03459 0.02230
 O755 O 0.53873 0.95094 -0.00546
 O756 O 0.51853 0.95026 -0.03981
 Zr757 Zr 0.50624 0.96180 -0.00899
 O758 O 0.48635 0.98144 -0.02915
 Zr759 Zr 0.53231 1.00517 0.01116
 O760 O 0.51363 1.02659 -0.00835
 Zr761 Zr 0.48766 0.98620 0.03662
 O762 O 0.46699 1.00685 0.01836
 Zr763 Zr 0.50300 1.01050 -0.03691
 O764 O 0.52404 0.98986 -0.01871
 Zr765 Zr 0.45843 0.99138 -0.01129
 O766 O 0.47705 0.96976 0.00821
 Zr767 Zr 0.48440 1.03498 0.00842
 O768 O 0.50433 1.01550 0.02910
 O769 O 0.51619 0.97663 0.02025
 O770 O 0.47426 1.02019 -0.02067
 C771 C 0.49664 0.93575 0.03406
 C772 C 0.55636 0.96104 0.00013
 C773 C 0.53125 0.99561 0.06155
 C774 C 0.49279 1.06020 -0.03574
 C775 C 0.45832 1.00476 -0.06083
 C776 C 0.43444 1.03563 -0.00287
 H777 H 0.48252 0.97318 -0.04262
 H778 H 0.45385 1.01057 0.02732
 H779 H 0.52549 0.96703 0.02942
 H780 H 0.52260 1.03960 -0.01210
 H781 H 0.54368 1.01328 -0.04912
 H782 H 0.55784 1.02474 -0.01670
 H783 H 0.42894 0.98431 0.01886
 H784 H 0.45172 0.96434 0.04181
 H785 H 0.51272 0.99996 -0.07747
 H786 H 0.52472 0.93535 -0.03792
 H787 H 0.46065 1.04269 0.04340
 H788 H 0.48092 1.01702 0.06493
 H789 H 0.49460 0.92218 -0.02109
 H790 H 0.44965 0.95719 -0.03521
 H791 H 0.53750 1.04035 0.03433
 H792 H 0.51436 1.06470 0.01412
 O793 O 0.49697 0.45403 -0.04674
 O794 O 0.46507 0.47533 -0.05066
 O795 O 0.54896 0.50106 -0.04306
 O796 O 0.55740 0.53031 -0.02249
 O797 O 0.54465 0.44882 0.00391
 O798 O 0.52316 0.44373 0.03691
 O799 O 0.49395 0.55903 0.01871
 O800 O 0.51010 0.56199 -0.01535
 O801 O 0.44085 0.51566 0.01270
 O802 O 0.43753 0.48082 -0.00658
 O803 O 0.48502 0.50509 0.06341
 O804 O 0.52232 0.49123 0.06622
 O805 O 0.50543 0.54037 0.04889
 O806 O 0.53836 0.51731 0.05502
 O807 O 0.45391 0.49450 0.04576
 O808 O 0.44954 0.46227 0.02657
 O809 O 0.45903 0.54546 -0.00050
 O810 O 0.47980 0.54714 -0.03557
 O811 O 0.50796 0.43576 -0.01611
 O812 O 0.49545 0.43268 0.02208
 O813 O 0.56327 0.47910 -0.00748
 O814 O 0.56576 0.51593 0.00876
 O815 O 0.51852 0.48833 -0.06041
 O816 O 0.48229 0.50689 -0.06114
 Zr817 Zr 0.49422 0.48662 -0.03553
 O818 O 0.47383 0.50681 -0.01592
 Zr819 Zr 0.53911 0.50366 -0.00977
 O820 O 0.52042 0.52473 0.01056
 Zr821 Zr 0.51210 0.45991 0.00833
 O822 O 0.49244 0.47910 0.02954
 Zr823 Zr 0.49153 0.53433 -0.00539
 O824 O 0.51156 0.51532 -0.02694
 Zr825 Zr 0.46459 0.49055 0.01301
 O826 O 0.48295 0.46907 -0.00768
 Zr827 Zr 0.50939 0.50762 0.03855
 O828 O 0.53027 0.48707 0.01936
 O829 O 0.52253 0.47579 -0.02001
 O830 O 0.48097 0.51869 0.02335
 C831 C 0.50215 0.43641 -0.03642
 C832 C 0.53872 0.49458 -0.06036
 C833 C 0.56237 0.45881 -0.00195
 C834 C 0.49991 0.55812 0.03898
 C835 C 0.44152 0.53572 0.00633
 C836 C 0.46456 0.49964 0.06320
 H837 H 0.46078 0.51108 -0.02454
 H838 H 0.48821 0.47009 0.04241
 H839 H 0.53166 0.46629 -0.02967
 H840 H 0.52943 0.53762 0.01448
 H841 H 0.51792 0.55776 -0.02910
 H842 H 0.55017 0.54385 -0.01713
 H843 H 0.45082 0.45054 0.01535
 H844 H 0.48168 0.43078 0.01375
 H845 H 0.47441 0.56226 -0.03282
 H846 H 0.48446 0.49920 -0.07543
 H847 H 0.51475 0.47693 0.06739
 H848 H 0.53446 0.45330 0.04357
 H849 H 0.45774 0.46536 -0.04007
 H850 H 0.42406 0.48138 0.00277
 H851 H 0.56666 0.50690 0.02223
 H852 H 0.54486 0.52974 0.04683
 O853 O -0.06140 0.02250 0.50975
 O854 O -0.06499 -0.01325 0.49312
 O855 O -0.01542 0.01112 0.56218
 O856 O 0.01900 -0.00070 0.56607
 O857 O -0.00468 0.06492 0.51547
 O858 O 0.00905 0.06543 0.47821
 O859 O 0.04015 -0.04789 0.50334
 O860 O 0.02144 -0.04960 0.53694
 O861 O -0.00630 -0.04269 0.45406
 O862 O -0.04164 -0.01749 0.45280
 O863 O 0.04545 0.00047 0.45442
 O864 O 0.05449 0.03420 0.47562
 O865 O 0.05926 -0.01883 0.48960
 O866 O 0.06531 0.01901 0.50252
 O867 O 0.01380 -0.01059 0.43813
 O868 O -0.02048 0.00542 0.43420
 O869 O 0.00605 -0.05993 0.48464
 O870 O -0.01321 -0.05946 0.52068
 O871 O -0.04206 0.05122 0.49563
 O872 O -0.02004 0.05574 0.46332
 O873 O 0.00653 0.04688 0.54602
 O874 O 0.03874 0.02314 0.54994
 O875 O -0.04732 0.00177 0.54527
 O876 O -0.05214 -0.03189 0.52493
 Zr877 Zr -0.03781 -0.00272 0.51221
 O878 O -0.02034 -0.02523 0.49225
 Zr879 Zr 0.00809 0.01384 0.53655
 O880 O 0.02735 -0.00790 0.51753
 Zr881 Zr -0.00958 0.03964 0.49217
 O882 O 0.00866 0.01885 0.47105
 Zr883 Zr 0.00841 -0.03503 0.50827
 O884 O -0.01018 -0.01444 0.52937
 Zr885 Zr -0.00956 -0.00947 0.46360
 O886 O -0.02878 0.01271 0.48246
 Zr887 Zr 0.03639 0.00701 0.48757
 O888 O 0.01942 0.02988 0.50795
 O889 O -0.02010 0.02507 0.52127
 O890 O 0.01877 -0.02080 0.47882
 C891 C -0.06007 0.04215 0.50218
 C892 C -0.03601 0.00610 0.56252
 C893 C 0.00192 0.06450 0.53554
 C894 C 0.05789 -0.03886 0.49604
 C895 C -0.00004 -0.05988 0.46448
 C896 C 0.03447 -0.00637 0.43770
 H897 H -0.02990 -0.03788 0.48875
 H898 H 0.01283 0.02694 0.45757
 H899 H -0.02881 0.03509 0.53081
 H900 H 0.04029 -0.01250 0.52611
 H901 H 0.01128 -0.04580 0.54921
 H902 H 0.02657 -0.01446 0.56193
 H903 H -0.01445 0.02045 0.43386
 H904 H -0.03117 0.04612 0.45646
 H905 H -0.00542 -0.07374 0.52000
 H906 H -0.06677 -0.02847 0.53146
 H907 H 0.04634 0.04048 0.46311
 H908 H 0.02374 0.06481 0.48508
 H909 H -0.07880 -0.01092 0.50166
 H910 H -0.04042 -0.02916 0.44147
 H911 H 0.04509 0.03435 0.53999
 H912 H 0.06719 0.01108 0.51656
 O913 O 0.74629 0.29347 0.20081
 O914 O 0.71157 0.29497 0.22130
 O915 O 0.79587 0.29312 0.24904
 O916 O 0.80505 0.27374 0.27887
 O917 O 0.79463 0.24286 0.19830
 O918 O 0.77327 0.20996 0.19408
 O919 O 0.74188 0.23349 0.30884
 O920 O 0.75743 0.26779 0.31041
 O921 O 0.68916 0.23817 0.26436
 O922 O 0.68802 0.25256 0.22396
 O923 O 0.73529 0.18624 0.25698
 O924 O 0.77293 0.18349 0.24309
 O925 O 0.75467 0.20272 0.29180
 O926 O 0.78799 0.19595 0.26913
 O927 O 0.70431 0.20270 0.24456
 O928 O 0.69556 0.22183 0.21347
 O929 O 0.70730 0.25070 0.29441
 O930 O 0.72668 0.28641 0.29475
 O931 O 0.75826 0.26233 0.18373
 O932 O 0.74500 0.22523 0.18214
 O933 O 0.81189 0.25758 0.22789
 O934 O 0.81450 0.24236 0.26533
 O935 O 0.76507 0.30932 0.23560
 O936 O 0.72924 0.31014 0.25308
 Zr937 Zr 0.74205 0.28378 0.23390
 O938 O 0.72185 0.26510 0.25503
 Zr939 Zr 0.78739 0.25978 0.25248
 O940 O 0.76895 0.24027 0.27440
 Zr941 Zr 0.76178 0.23916 0.20911
 O942 O 0.74223 0.21872 0.22909
 Zr943 Zr 0.73951 0.25611 0.28305
 O944 O 0.75915 0.27683 0.26316
 Zr945 Zr 0.71377 0.23545 0.23967
 O946 O 0.73215 0.25505 0.21739
 Zr947 Zr 0.75887 0.21146 0.25838
 O948 O 0.77967 0.22983 0.23706
 O949 O 0.77102 0.26829 0.22403
 O950 O 0.72977 0.22666 0.26854
 C951 C 0.75230 0.28257 0.18358
 C952 C 0.78503 0.30993 0.24235
 C953 C 0.81178 0.25040 0.20797
 C954 C 0.74830 0.21342 0.30904
 C955 C 0.68977 0.24443 0.28461
 C956 C 0.71513 0.18578 0.25080
 H957 H 0.70866 0.27381 0.25903
 H958 H 0.73859 0.20539 0.22059
 H959 H 0.78020 0.27767 0.21437
 H960 H 0.77781 0.23716 0.28759
 H961 H 0.76497 0.28134 0.30553
 H962 H 0.79780 0.26886 0.29264
 H963 H 0.70613 0.21393 0.20385
 H964 H 0.73055 0.23268 0.18143
 H965 H 0.72100 0.28416 0.30994
 H966 H 0.73006 0.32382 0.24434
 H967 H 0.76521 0.18111 0.22902
 H968 H 0.78444 0.20375 0.20405
 H969 H 0.71370 0.30962 0.21460
 H970 H 0.68265 0.26403 0.23424
 H971 H 0.81593 0.22869 0.25661
 H972 H 0.79440 0.20513 0.28089
 O973 O 0.75359 0.70090 0.70933
 O974 O 0.78733 0.69889 0.73021
 O975 O 0.70264 0.70675 0.75690
 O976 O 0.69516 0.72767 0.78672
 O977 O 0.70644 0.75274 0.70396
 O978 O 0.72904 0.78445 0.69721
 O979 O 0.75917 0.76869 0.81284
 O980 O 0.74238 0.73521 0.81717
 O981 O 0.81184 0.75854 0.76801
 O982 O 0.81257 0.74114 0.72875
 O983 O 0.76768 0.81125 0.75855
 O984 O 0.73038 0.81446 0.74391
 O985 O 0.74759 0.79833 0.79351
 O986 O 0.71443 0.80447 0.77092
 O987 O 0.79800 0.79312 0.74607
 O988 O 0.80614 0.77110 0.71613
 O989 O 0.79322 0.74890 0.79913
 O990 O 0.77244 0.71419 0.80241
 O991 O 0.74232 0.73095 0.69037
 O992 O 0.75673 0.76719 0.68588
 O993 O 0.68840 0.74208 0.73510
 O994 O 0.68639 0.75874 0.77167
 O995 O 0.73289 0.68826 0.74455
 O996 O 0.76832 0.68747 0.76306
 Zr997 Zr 0.75723 0.71265 0.74176
 O998 O 0.77812 0.73221 0.76112
 Zr999 Zr 0.71286 0.73970 0.75915
 O1000 O 0.73194 0.76015 0.77934
 Zr1001 Zr 0.73939 0.75604 0.71405
 O1002 O 0.75965 0.77724 0.73219
 Zr1003 Zr 0.76077 0.74395 0.78873
 O1004 O 0.74035 0.72243 0.77069
 Zr1005 Zr 0.78741 0.76032 0.74356
 O1006 O 0.76833 0.73968 0.72313
 Zr1007 Zr 0.74310 0.78718 0.76107
 O1008 O 0.72172 0.76805 0.74149
 O1009 O 0.72899 0.72853 0.73109
 O1010 O 0.77159 0.77178 0.77194
 C1011 C 0.74801 0.71067 0.69148
 C1012 C 0.71263 0.68907 0.75086
 C1013 C 0.68885 0.74750 0.71467
 C1014 C 0.75353 0.78895 0.81142
 C1015 C 0.81099 0.75377 0.78864
 C1016 C 0.78786 0.81067 0.75211
 H1017 H 0.79095 0.72333 0.76554
 H1018 H 0.76383 0.78981 0.72280
 H1019 H 0.71951 0.71900 0.72201
 H1020 H 0.72315 0.76462 0.79239
 H1021 H 0.73444 0.72154 0.81349
 H1022 H 0.70213 0.73388 0.80000
 H1023 H 0.79601 0.77910 0.70637
 H1024 H 0.77105 0.75946 0.68573
 H1025 H 0.77812 0.71740 0.81734
 H1026 H 0.76674 0.67311 0.75556
 H1027 H 0.73878 0.81587 0.72995
 H1028 H 0.71825 0.79192 0.70700
 H1029 H 0.78458 0.68377 0.72486
 H1030 H 0.81724 0.73008 0.73963
 H1031 H 0.68571 0.77217 0.76259
 H1032 H 0.70805 0.79692 0.78388
 O1033 O 0.29660 0.20678 0.74372
 O1034 O 0.30003 0.22755 0.71135
 O1035 O 0.29632 0.25372 0.79568
 O1036 O 0.27713 0.28407 0.80474
 O1037 O 0.24641 0.20360 0.79445
 O1038 O 0.21379 0.19844 0.77388
 O1039 O 0.23488 0.31330 0.74344
 O1040 O 0.26934 0.31539 0.75820
 O1041 O 0.23790 0.26956 0.69042
 O1042 O 0.25564 0.23375 0.68637
 O1043 O 0.18820 0.26164 0.73672
 O1044 O 0.18599 0.24719 0.77452
 O1045 O 0.20443 0.29606 0.75689
 O1046 O 0.19832 0.27320 0.78994
 O1047 O 0.20461 0.24953 0.70514
 O1048 O 0.22216 0.21681 0.69995
 O1049 O 0.25239 0.29905 0.70802
 O1050 O 0.28813 0.29979 0.72690
 O1051 O 0.26638 0.18929 0.75743
 O1052 O 0.22768 0.18740 0.74514
 O1053 O 0.26093 0.23320 0.81185
 O1054 O 0.24568 0.27021 0.81531
 O1055 O 0.31197 0.24053 0.76417
 O1056 O 0.31224 0.25879 0.72791
 Zr1057 Zr 0.28635 0.23948 0.74130
 O1058 O 0.26692 0.26011 0.72189
 Zr1059 Zr 0.26284 0.25755 0.78754
 O1060 O 0.24256 0.27909 0.76988
 Zr1061 Zr 0.24240 0.21412 0.76169
 O1062 O 0.22123 0.23391 0.74303
 Zr1063 Zr 0.25797 0.28794 0.74018
 O1064 O 0.27949 0.26848 0.75909
 Zr1065 Zr 0.23731 0.24459 0.71428
 O1066 O 0.25774 0.22257 0.73165
 Zr1067 Zr 0.21367 0.26288 0.76023
 O1068 O 0.23288 0.24186 0.78020
 O1069 O 0.27148 0.22930 0.77051
 O1070 O 0.22848 0.27317 0.73105
 C1071 C 0.28643 0.18950 0.75032
 C1072 C 0.31291 0.24661 0.78441
 C1073 C 0.25385 0.21337 0.81164
 C1074 C 0.21487 0.31330 0.75050
 C1075 C 0.24488 0.28944 0.69082
 C1076 C 0.18771 0.25589 0.71628
 H1077 H 0.27527 0.26403 0.70839
 H1078 H 0.20793 0.22535 0.73942
 H1079 H 0.28103 0.21961 0.77931
 H1080 H 0.23936 0.29215 0.77904
 H1081 H 0.28313 0.31078 0.76540
 H1082 H 0.27117 0.29769 0.79835
 H1083 H 0.23266 0.20452 0.70127
 H1084 H 0.23667 0.18443 0.73179
 H1085 H 0.28571 0.31496 0.72161
 H1086 H 0.32628 0.25063 0.72930
 H1087 H 0.18338 0.23351 0.76616
 H1088 H 0.20686 0.20877 0.78448
 H1089 H 0.28910 0.21747 0.70486
 H1090 H 0.24605 0.23484 0.67330
 H1091 H 0.23190 0.26168 0.81676
 H1092 H 0.20741 0.28502 0.79631
 O1093 O 0.25387 0.79827 0.29264
 O1094 O 0.28873 0.79940 0.27267
 O1095 O 0.20526 0.79274 0.24333
 O1096 O 0.19870 0.77120 0.21382
 O1097 O 0.20584 0.74754 0.29727
 O1098 O 0.22738 0.71520 0.30467
 O1099 O 0.26264 0.72949 0.18968
 O1100 O 0.24692 0.76329 0.18487
 O1101 O 0.31382 0.73963 0.23596
 O1102 O 0.31302 0.75718 0.27509
 O1103 O 0.26910 0.68715 0.24481
 O1104 O 0.23118 0.68444 0.25852
 O1105 O 0.24987 0.70013 0.20896
 O1106 O 0.21619 0.69445 0.23133
 O1107 O 0.29909 0.70572 0.25674
 O1108 O 0.30574 0.72721 0.28754
 O1109 O 0.29686 0.74873 0.20410
 O1110 O 0.27677 0.78372 0.19994
 O1111 O 0.24169 0.76843 0.31161
 O1112 O 0.25501 0.73187 0.31659
 O1113 O 0.18962 0.75882 0.26570
 O1114 O 0.18866 0.74067 0.22968
 O1115 O 0.23525 0.81089 0.25622
 O1116 O 0.27153 0.81112 0.23938
 Zr1117 Zr 0.25893 0.78619 0.26036
 O1118 O 0.28030 0.76623 0.24158
 Zr1119 Zr 0.21500 0.75957 0.24210
 O1120 O 0.23465 0.73857 0.22266
 Zr1121 Zr 0.23915 0.74327 0.28799
 O1122 O 0.26002 0.72165 0.27056
 Zr1123 Zr 0.26403 0.75434 0.21369
 O1124 O 0.24321 0.77632 0.23110
 Zr1125 Zr 0.28835 0.73826 0.25968
 O1126 O 0.26870 0.75920 0.27953
 Zr1127 Zr 0.24471 0.71151 0.24139
 O1128 O 0.22265 0.73120 0.26020
 O1129 O 0.23003 0.77083 0.27042
 O1130 O 0.27376 0.72657 0.23103
 C1131 C 0.24761 0.78865 0.31048
 C1132 C 0.21538 0.81032 0.24920
 C1133 C 0.18901 0.75378 0.28621
 C1134 C 0.25635 0.70939 0.19102
 C1135 C 0.31404 0.74394 0.21524
 C1136 C 0.28927 0.68802 0.25097
 H1137 H 0.29344 0.77489 0.23740
 H1138 H 0.26375 0.70912 0.28011
 H1139 H 0.22041 0.78076 0.27912
 H1140 H 0.22627 0.73410 0.20952
 H1141 H 0.23893 0.77703 0.18840
 H1142 H 0.20594 0.76439 0.20086
 H1143 H 0.29522 0.71900 0.29688
 H1144 H 0.26957 0.73911 0.31692
 H1145 H 0.28303 0.78024 0.18518
 H1146 H 0.26999 0.82551 0.24686
 H1147 H 0.23867 0.68341 0.27286
 H1148 H 0.21685 0.70797 0.29466
 H1149 H 0.28600 0.81453 0.27806
 H1150 H 0.31843 0.76805 0.26426
 H1151 H 0.18720 0.72766 0.23929
 H1152 H 0.20998 0.70236 0.21863
 O1153 O 0.19042 0.73888 0.76853
 O1154 O 0.18900 0.75488 0.73234
 O1155 O 0.23763 0.68644 0.75962
 O1156 O 0.27253 0.68270 0.74833
 O1157 O 0.24491 0.73256 0.81409
 O1158 O 0.25777 0.76992 0.81564
 O1159 O 0.29664 0.74526 0.70364
 O1160 O 0.27827 0.71191 0.70040
 O1161 O 0.24910 0.79431 0.70663
 O1162 O 0.21188 0.79508 0.73032
 O1163 O 0.29766 0.79380 0.75330
 O1164 O 0.30463 0.77218 0.78734
 O1165 O 0.31300 0.75972 0.73392
 O1166 O 0.31727 0.74606 0.77170
 O1167 O 0.26647 0.81020 0.74119
 O1168 O 0.23135 0.81392 0.75387
 O1169 O 0.26301 0.76403 0.68969
 O1170 O 0.24425 0.72816 0.68864
 O1171 O 0.20803 0.75191 0.79877
 O1172 O 0.22884 0.78420 0.80488
 O1173 O 0.25778 0.70232 0.79628
 O1174 O 0.29094 0.69837 0.77395
 O1175 O 0.20618 0.70332 0.74876
 O1176 O 0.20365 0.72326 0.71438
 Zr1177 Zr 0.21571 0.73614 0.74451
 O1178 O 0.23439 0.75612 0.72303
 Zr1179 Zr 0.26080 0.71187 0.76324
 O1180 O 0.28120 0.73105 0.74279
 Zr1181 Zr 0.24096 0.75584 0.78875
 O1182 O 0.26004 0.77708 0.76913
 Zr1183 Zr 0.26401 0.74037 0.71458
 O1184 O 0.24429 0.71922 0.73397
 Zr1185 Zr 0.24368 0.78459 0.73972
 O1186 O 0.22337 0.76567 0.76081
 Zr1187 Zr 0.28869 0.76078 0.75866
 O1188 O 0.27068 0.74022 0.78036
 O1189 O 0.23179 0.72698 0.77323
 O1190 O 0.27292 0.76964 0.72980
 C1191 C 0.19061 0.74585 0.78858
 C1192 C 0.21730 0.68616 0.75381
 C1193 C 0.25205 0.71269 0.81384
 C1194 C 0.31335 0.75325 0.71376
 C1195 C 0.25659 0.78407 0.68957
 C1196 C 0.28678 0.81063 0.74672
 H1197 H 0.22564 0.75963 0.70983
 H1198 H 0.26337 0.79045 0.77770
 H1199 H 0.22265 0.71748 0.78284
 H1200 H 0.29457 0.72265 0.73880
 H1201 H 0.26800 0.69968 0.70350
 H1202 H 0.28179 0.68704 0.73560
 H1203 H 0.23493 0.81354 0.76971
 H1204 H 0.21810 0.79097 0.79481
 H1205 H 0.25299 0.72891 0.67478
 H1206 H 0.18900 0.71655 0.71697
 H1207 H 0.29616 0.78482 0.79314
 H1208 H 0.27242 0.76285 0.81604
 H1209 H 0.17523 0.74628 0.73384
 H1210 H 0.21348 0.80554 0.71796
 H1211 H 0.29686 0.70852 0.78517
 H1212 H 0.31992 0.73224 0.76354
 O1213 O 0.25126 0.20030 0.21027
 O1214 O 0.28531 0.19785 0.23047
 O1215 O 0.20108 0.20444 0.25896
 O1216 O 0.19278 0.22482 0.28857
 O1217 O 0.20418 0.25205 0.20682
 O1218 O 0.22640 0.28402 0.20092
 O1219 O 0.25742 0.26406 0.31592
 O1220 O 0.24114 0.23037 0.31909
 O1221 O 0.30982 0.25650 0.27038
 O1222 O 0.31085 0.24080 0.23085
 O1223 O 0.26514 0.30914 0.26304
 O1224 O 0.22852 0.31330 0.24999
 O1225 O 0.24528 0.29452 0.29828
 O1226 O 0.21156 0.30083 0.27527
 O1227 O 0.29559 0.29160 0.25008
 O1228 O 0.30325 0.27054 0.21872
 O1229 O 0.29156 0.24551 0.30124
 O1230 O 0.27123 0.21033 0.30318
 O1231 O 0.23989 0.23091 0.19231
 O1232 O 0.25451 0.26752 0.18926
 O1233 O 0.18635 0.24022 0.23762
 O1234 O 0.18468 0.25608 0.27501
 O1235 O 0.23113 0.18641 0.24545
 O1236 O 0.26692 0.18520 0.26317
 Zr1237 Zr 0.25530 0.21101 0.24295
 O1238 O 0.27631 0.22999 0.26273
 Zr1239 Zr 0.21093 0.23738 0.26155
 O1240 O 0.23010 0.25694 0.28247
 Zr1241 Zr 0.23710 0.25525 0.21689
 O1242 O 0.25718 0.27597 0.23579
 Zr1243 Zr 0.25911 0.24051 0.29086
 O1244 O 0.23854 0.21972 0.27226
 Zr1245 Zr 0.28519 0.25887 0.24624
 O1246 O 0.26617 0.23874 0.22523
 Zr1247 Zr 0.24088 0.28476 0.26523
 O1248 O 0.21957 0.26634 0.24485
 O1249 O 0.22690 0.22713 0.23306
 O1250 O 0.26957 0.26911 0.27519
 C1251 C 0.24551 0.21057 0.19278
 C1252 C 0.21105 0.18697 0.25236
 C1253 C 0.18669 0.24628 0.21737
 C1254 C 0.25140 0.28424 0.31567
 C1255 C 0.30917 0.25105 0.29084
 C1256 C 0.28529 0.30894 0.25647
 H1257 H 0.28925 0.22107 0.26672
 H1258 H 0.26113 0.28894 0.22687
 H1259 H 0.21737 0.21778 0.22383
 H1260 H 0.22135 0.26077 0.29574
 H1261 H 0.23325 0.21682 0.31491
 H1262 H 0.20072 0.22913 0.30203
 H1263 H 0.29314 0.27961 0.20992
 H1264 H 0.26870 0.25955 0.18861
 H1265 H 0.27712 0.21300 0.31813
 H1266 H 0.26528 0.17108 0.25522
 H1267 H 0.23500 0.31398 0.23500
 H1268 H 0.21564 0.29114 0.21100
 H1269 H 0.28260 0.18288 0.22468
 H1270 H 0.31501 0.22879 0.24090
 H1271 H 0.18330 0.26937 0.26582
 H1272 H 0.20598 0.29348 0.28871
 O1273 O 0.74907 0.70400 0.29340
 O1274 O 0.71451 0.70154 0.27419
 O1275 O 0.79779 0.70569 0.24255
 O1276 O 0.80434 0.72492 0.21158
 O1277 O 0.79830 0.75443 0.29343
 O1278 O 0.77695 0.78711 0.29990
 O1279 O 0.74025 0.76577 0.18698
 O1280 O 0.75566 0.73158 0.18358
 O1281 O 0.68973 0.75995 0.23496
 O1282 O 0.69065 0.74458 0.27502
 O1283 O 0.73563 0.81181 0.23989
 O1284 O 0.77345 0.81500 0.25138
 O1285 O 0.75369 0.79622 0.20383
 O1286 O 0.78814 0.80255 0.22478
 O1287 O 0.70545 0.79498 0.25424
 O1288 O 0.69856 0.77511 0.28572
 O1289 O 0.70628 0.74805 0.20342
 O1290 O 0.72578 0.71254 0.20089
 O1291 O 0.76304 0.73438 0.31006
 O1292 O 0.74923 0.77128 0.31340
 O1293 O 0.81408 0.74094 0.26214
 O1294 O 0.81466 0.75643 0.22488
 O1295 O 0.76799 0.68873 0.25781
 O1296 O 0.73157 0.68785 0.24116
 Zr1297 Zr 0.74434 0.71387 0.26056
 O1298 O 0.72294 0.73292 0.24139
 Zr1299 Zr 0.78838 0.73872 0.23946
 O1300 O 0.76876 0.75852 0.21933
 Zr1301 Zr 0.76491 0.75818 0.28504
 O1302 O 0.74425 0.77893 0.26693
 Zr1303 Zr 0.73907 0.74261 0.21238
 O1304 O 0.75989 0.72157 0.23035
 Zr1305 Zr 0.71546 0.76222 0.25795
 O1306 O 0.73506 0.74220 0.27837
 Zr1307 Zr 0.75936 0.78687 0.23670
 O1308 O 0.78130 0.76824 0.25612
 O1309 O 0.77352 0.72949 0.26883
 O1310 O 0.72993 0.77168 0.22821
 C1311 C 0.75633 0.71437 0.31033
 C1312 C 0.78783 0.68869 0.25021
 C1313 C 0.81497 0.74742 0.28225
 C1314 C 0.74672 0.78583 0.18680
 C1315 C 0.68928 0.75409 0.21458
 C1316 C 0.71576 0.81204 0.24731
 H1317 H 0.70964 0.72422 0.23813
 H1318 H 0.74092 0.79209 0.27589
 H1319 H 0.78318 0.72012 0.27785
 H1320 H 0.77699 0.76197 0.20565
 H1321 H 0.76347 0.71796 0.18763
 H1322 H 0.79680 0.73059 0.19842
 H1323 H 0.70950 0.78311 0.29461
 H1324 H 0.73494 0.76362 0.31489
 H1325 H 0.71940 0.71510 0.18614
 H1326 H 0.73329 0.67387 0.24924
 H1327 H 0.76682 0.81666 0.26623
 H1328 H 0.78747 0.79366 0.28926
 H1329 H 0.71714 0.68665 0.28012
 H1330 H 0.68491 0.73326 0.26489
 H1331 H 0.81648 0.77000 0.23365
 H1332 H 0.79359 0.79415 0.21187
 O1333 O 0.70583 0.24709 0.79470
 O1334 O 0.72698 0.21366 0.79868
 O1335 O 0.75361 0.29758 0.78814
 O1336 O 0.78300 0.30514 0.76680
 O1337 O 0.70154 0.29131 0.74074
 O1338 O 0.69656 0.26750 0.70946
 O1339 O 0.81199 0.23950 0.73061
 O1340 O 0.81450 0.25751 0.76362
 O1341 O 0.76771 0.18692 0.74139
 O1342 O 0.72789 0.18667 0.75769
 O1343 O 0.75918 0.22791 0.68594
 O1344 O 0.74531 0.26404 0.67997
 O1345 O 0.79422 0.24966 0.69948
 O1346 O 0.77016 0.28198 0.69124
 O1347 O 0.74726 0.19863 0.70572
 O1348 O 0.71644 0.19156 0.72676
 O1349 O 0.79811 0.20614 0.75108
 O1350 O 0.79948 0.22842 0.78529
 O1351 O 0.68791 0.25726 0.76360
 O1352 O 0.68533 0.24019 0.72765
 O1353 O 0.73167 0.31016 0.75195
 O1354 O 0.76873 0.31165 0.73517
 O1355 O 0.74079 0.26832 0.80760
 O1356 O 0.75896 0.23315 0.81062
 Zr1357 Zr 0.73873 0.24308 0.78410
 O1358 O 0.75924 0.22157 0.76614
 Zr1359 Zr 0.75631 0.28618 0.75537
 O1360 O 0.77767 0.26633 0.73649
 Zr1361 Zr 0.71248 0.25858 0.73891
 O1362 O 0.73190 0.23761 0.71914
 Zr1363 Zr 0.78688 0.23855 0.75444
 O1364 O 0.76762 0.25976 0.77437
 Zr1365 Zr 0.74301 0.21092 0.73780
 O1366 O 0.72137 0.23064 0.75692
 Zr1367 Zr 0.76092 0.25367 0.70914
 O1368 O 0.74004 0.27571 0.72672
 O1369 O 0.72828 0.27037 0.76660
 O1370 O 0.77157 0.22623 0.72639
 C1371 C 0.68834 0.25249 0.78423
 C1372 C 0.74735 0.28830 0.80618
 C1373 C 0.71142 0.30915 0.74611
 C1374 C 0.81174 0.24456 0.71008
 C1375 C 0.78813 0.18815 0.74661
 C1376 C 0.75322 0.20774 0.68759
 H1377 H 0.76353 0.20925 0.77574
 H1378 H 0.72310 0.23272 0.70643
 H1379 H 0.71886 0.28018 0.77566
 H1380 H 0.79068 0.27505 0.73211
 H1381 H 0.80998 0.26613 0.77675
 H1382 H 0.79662 0.29751 0.76215
 H1383 H 0.70669 0.20129 0.71826
 H1384 H 0.68476 0.22671 0.73667
 H1385 H 0.81455 0.22264 0.78282
 H1386 H 0.75079 0.23520 0.82470
 H1387 H 0.73047 0.25742 0.67986
 H1388 H 0.70630 0.27819 0.70195
 H1389 H 0.72090 0.21699 0.81353
 H1390 H 0.73846 0.18248 0.76922
 H1391 H 0.75950 0.31202 0.72183
 H1392 H 0.78291 0.28866 0.69871
 C1393 C 0.07868 1.01662 1.14566
 C1394 C 0.07965 1.03695 1.15633
 C1395 C 0.09070 1.03885 1.17621
 C1396 C 0.10090 1.02051 1.18587
 C1397 C 0.09952 1.00037 1.17439
 N1398 N 0.08882 0.99905 1.15483
 C1399 C 0.06671 1.01407 1.12473
 N1400 N 0.07458 1.00022 1.10886
 C1401 C 0.06432 0.99756 1.08918
 C1402 C 0.04479 1.00900 1.08477
 C1403 C 0.03630 1.02305 1.10111
 C1404 C 0.04720 1.02568 1.12099
 H1405 H 0.09028 1.05466 1.18431
 H1406 H 0.10756 0.98580 1.18041
 H1407 H 0.07131 0.98640 1.07711
 H1408 H 0.02126 1.03216 1.09851
 H1409 H 0.07202 1.05135 1.14936
 H1410 H 0.04022 1.03644 1.13342
 C1411 C 0.58583 0.51171 0.64187
 C1412 C 0.60024 0.49572 0.65002
 C1413 C 0.61016 0.49889 0.67045
 C1414 C 0.60586 0.51797 0.68273
 C1415 C 0.59129 0.53348 0.67404
 N1416 N 0.58169 0.52994 0.65422
 C1417 C 0.57444 0.50911 0.62057
 N1418 N 0.55485 0.51948 0.61769
 C1419 C 0.54339 0.51802 0.59864
 C1420 C 0.55167 0.50569 0.58082
 C1421 C 0.57202 0.49513 0.58329
 C1422 C 0.58341 0.49674 0.60311
 H1423 H 0.62132 0.48654 0.67657
 H1424 H 0.58726 0.54825 0.68314
 H1425 H 0.52789 0.52666 0.59743
 H1426 H 0.57913 0.48556 0.56996
 H1427 H 0.60355 0.48073 0.64101
 H1428 H 0.59922 0.48874 0.60449
 C1429 C 0.41421 -0.01074 0.64195
 C1430 C 0.40002 0.00530 0.65075
 C1431 C 0.39003 0.00186 0.67126
 C1432 C 0.39405 -0.01750 0.68295
 C1433 C 0.40833 -0.03309 0.67359
 N1434 N 0.41802 -0.02929 0.65371
 C1435 C 0.42576 -0.00786 0.62060
 N1436 N 0.44519 -0.01848 0.61723
 C1437 C 0.45675 -0.01696 0.59805
 C1438 C 0.44870 -0.00432 0.58058
 C1439 C 0.42856 0.00661 0.58360
 C1440 C 0.41708 0.00494 0.60357
 H1441 H 0.37907 0.01427 0.67792
 H1442 H 0.41210 -0.04810 0.68223
 H1443 H 0.47209 -0.02586 0.59642
 H1444 H 0.42166 0.01643 0.57054
 H1445 H 0.39698 0.02051 0.64219
 H1446 H 0.40140 0.01318 0.60537
 C1447 C -0.07884 0.48692 1.14807
 C1448 C -0.07626 0.46742 1.15998
 C1449 C -0.08820 0.46432 1.17940
 C1450 C -0.10270 0.48057 1.18706
 C1451 C -0.10498 0.49977 1.17460
 N1452 N -0.09327 0.50237 1.15557
 C1453 C -0.06646 0.49078 1.12739
 N1454 N -0.07587 0.50257 1.11096
 C1455 C -0.06552 0.50603 1.09129
 C1456 C -0.04438 0.49745 1.08736
 C1457 C -0.03421 0.48579 1.10439
 C1458 C -0.04515 0.48244 1.12433
 H1459 H -0.08593 0.44931 1.18859
 H1460 H -0.11623 0.51255 1.17985
 H1461 H -0.07390 0.51528 1.07871
 H1462 H -0.01789 0.47894 1.10223
 H1463 H -0.06537 0.45453 1.15423
 H1464 H -0.03691 0.47351 1.13723
 C1465 C -0.08591 0.50997 0.35877
 C1466 C -0.09661 0.49256 0.34829
 C1467 C -0.10684 0.49609 0.32811
 C1468 C -0.10683 0.51707 0.31835
 C1469 C -0.09607 0.53407 0.32980
 N1470 N -0.08584 0.53005 0.34915
 C1471 C -0.07379 0.50702 0.37949
 N1472 N -0.05555 0.51940 0.38296
 C1473 C -0.04358 0.51788 0.40164
 C1474 C -0.05003 0.50349 0.41849
 C1475 C -0.06896 0.49072 0.41542
 C1476 C -0.08080 0.49231 0.39587
 H1477 H -0.11530 0.48241 0.32064
 H1478 H -0.09468 0.55036 0.32298
 H1479 H -0.02926 0.52825 0.40344
 H1480 H -0.07455 0.47950 0.42808
 H1481 H -0.09669 0.47629 0.35532
 H1482 H -0.09550 0.48254 0.39383
 C1483 C 0.41260 1.01284 -0.14278
 C1484 C 0.40272 0.99511 -0.15357
 C1485 C 0.39323 0.99824 -0.17416
 C1486 C 0.39317 1.01913 -0.18409
 C1487 C 0.40329 1.03642 -0.17245
 N1488 N 0.41277 1.03280 -0.15264
 C1489 C 0.42368 1.01031 -0.12142
 N1490 N 0.44141 1.02314 -0.11702
 C1491 C 0.45261 1.02168 -0.09783
 C1492 C 0.44591 1.00679 -0.08153
 C1493 C 0.42736 0.99372 -0.08551
 C1494 C 0.41628 0.99535 -0.10548
 H1495 H 0.38528 0.98434 -0.18178
 H1496 H 0.40468 1.05265 -0.17940
 H1497 H 0.46668 1.03224 -0.09532
 H1498 H 0.42161 0.98207 -0.07333
 H1499 H 0.40265 0.97890 -0.14640
 H1500 H 0.40194 0.98524 -0.10823
 C1501 C 0.58560 0.48769 -0.14305
 C1502 C 0.60043 0.50338 -0.15129
 C1503 C 0.61043 0.50007 -0.17187
 C1504 C 0.60583 0.48113 -0.18416
 C1505 C 0.59090 0.46590 -0.17534
 N1506 N 0.58121 0.46958 -0.15541
 C1507 C 0.57403 0.49043 -0.12164
 N1508 N 0.55422 0.48042 -0.11869
 C1509 C 0.54264 0.48179 -0.09949
 C1510 C 0.55105 0.49358 -0.08153
 C1511 C 0.57157 0.50387 -0.08410
 C1512 C 0.58306 0.50241 -0.10411
 H1513 H 0.62187 0.51221 -0.17810
 H1514 H 0.58664 0.45124 -0.18444
 H1515 H 0.52701 0.47338 -0.09823
 H1516 H 0.57875 0.51302 -0.07066
 H1517 H 0.60396 0.51825 -0.14225
 H1518 H 0.59901 0.51014 -0.10558
 C1519 C 0.07985 -0.02025 0.35504
 C1520 C 0.07708 -0.03939 0.34245
 C1521 C 0.08801 -0.04155 0.32227
 C1522 C 0.10175 -0.02475 0.31452
 C1523 C 0.10438 -0.00601 0.32774
 N1524 N 0.09358 -0.00429 0.34743
 C1525 C 0.06802 -0.01705 0.37624
 N1526 N 0.07735 -0.00481 0.39248
 C1527 C 0.06717 -0.00125 0.41227
 C1528 C 0.04618 -0.01002 0.41646
 C1529 C 0.03623 -0.02246 0.39980
 C1530 C 0.04704 -0.02601 0.37979
 H1531 H 0.08547 -0.05625 0.31258
 H1532 H 0.11510 0.00717 0.32251
 H1533 H 0.07537 0.00856 0.42458
 H1534 H 0.02006 -0.02955 0.40222
 H1535 H 0.06674 -0.05268 0.34817
 H1536 H 0.03880 -0.03532 0.36712
 C1537 C 0.14158 1.08304 1.01258
 C1538 C 0.15206 1.09350 0.99484
 C1539 C 0.17216 1.10402 0.99810
 C1540 C 0.18184 1.10454 1.01913
 C1541 C 0.17061 1.09364 1.03636
 N1542 N 0.15128 1.08322 1.03263
 C1543 C 0.12052 1.07134 1.01009
 N1544 N 0.11642 1.05360 1.02303
 C1545 C 0.09728 1.04217 1.02197
 C1546 C 0.08069 1.04873 1.00749
 C1547 C 0.08445 1.06718 0.99422
 C1548 C 0.10437 1.07845 0.99538
 H1549 H 0.17954 1.11242 0.98421
 H1550 H 0.17749 1.09247 1.05267
 H1551 H 0.09497 1.02817 1.03264
 H1552 H 0.07205 1.07280 0.98286
 H1553 H 0.14500 1.09333 0.97855
 H1554 H 0.10687 1.09280 0.98523
 C1555 C 0.64494 0.58328 0.51045
 C1556 C 0.65287 0.59817 0.49465
 C1557 C 0.67288 0.60879 0.49809
 C1558 C 0.68491 0.60466 0.51722
 C1559 C 0.67655 0.58947 0.53244
 N1560 N 0.65712 0.57925 0.52868
 C1561 C 0.62392 0.57150 0.50781
 N1562 N 0.62126 0.55181 0.51794
 C1563 C 0.60229 0.54014 0.51666
 C1564 C 0.58439 0.54838 0.50483
 C1565 C 0.58670 0.56879 0.49446
 C1566 C 0.60640 0.58037 0.49587
 H1567 H 0.67882 0.62039 0.48595
 H1568 H 0.68556 0.58555 0.54721
 H1569 H 0.60120 0.52456 0.52508
 H1570 H 0.57329 0.57585 0.48524
 H1571 H 0.64397 0.60138 0.47966
 H1572 H 0.60763 0.59627 0.48812
 C1573 C 0.64349 0.41132 -0.01141
 C1574 C 0.64555 0.39389 -0.02635
 C1575 C 0.66617 0.38465 -0.03038
 C1576 C 0.68497 0.39244 -0.01937
 C1577 C 0.68188 0.40968 -0.00407
 N1578 N 0.66166 0.41874 -0.00087
 C1579 C 0.62232 0.42272 -0.00793
 N1580 N 0.62237 0.44477 -0.00453
 C1581 C 0.60350 0.45652 -0.00223
 C1582 C 0.58299 0.44601 -0.00316
 C1583 C 0.58256 0.42319 -0.00599
 C1584 C 0.60217 0.41150 -0.00851
 H1585 H 0.66709 0.37097 -0.04172
 H1586 H 0.69561 0.41691 0.00448
 H1587 H 0.60455 0.47407 0.00020
 H1588 H 0.56708 0.41445 -0.00677
 H1589 H 0.63148 0.38781 -0.03529
 H1590 H 0.60157 0.39391 -0.01080
 C1591 C 0.13825 -0.08861 0.49092
 C1592 C 0.13972 -0.10961 0.48146
 C1593 C 0.16032 -0.11941 0.47865
 C1594 C 0.17941 -0.10846 0.48539
 C1595 C 0.17718 -0.08773 0.49521
 N1596 N 0.15699 -0.07836 0.49744
 C1597 C 0.11713 -0.07665 0.49267
 N1598 N 0.11749 -0.05437 0.49196
 C1599 C 0.09887 -0.04210 0.49298
 C1600 C 0.07821 -0.05222 0.49505
 C1601 C 0.07744 -0.07519 0.49622
 C1602 C 0.09684 -0.08746 0.49497
 H1603 H 0.16138 -0.13544 0.47101
 H1604 H 0.19154 -0.07866 0.50039
 H1605 H 0.10028 -0.02444 0.49228
 H1606 H 0.06187 -0.08366 0.49792
 H1607 H 0.12529 -0.11807 0.47555
 H1608 H 0.09591 -0.10513 0.49608
 C1609 C 0.35225 -0.07899 0.50880
 C1610 C 0.33286 -0.07231 0.49852
 C1611 C 0.31337 -0.08374 0.50243
 C1612 C 0.31283 -0.10188 0.51682
 C1613 C 0.33288 -0.10802 0.52664
 N1614 N 0.35172 -0.09674 0.52228
 C1615 C 0.37321 -0.06712 0.50541
 N1616 N 0.39252 -0.07843 0.50561
 C1617 C 0.41236 -0.06837 0.50310
 C1618 C 0.41353 -0.04551 0.50072
 C1619 C 0.39381 -0.03355 0.50060
 C1620 C 0.37366 -0.04428 0.50279
 H1621 H 0.29861 -0.07758 0.49481
 H1622 H 0.33396 -0.12225 0.53713
 H1623 H 0.42721 -0.07816 0.50357
 H1624 H 0.39396 -0.01589 0.49890
 H1625 H 0.33273 -0.05845 0.48744
 H1626 H 0.35867 -0.03470 0.50308
 C1627 C -0.14389 0.42185 1.01132
 C1628 C -0.16385 0.43117 1.00460
 C1629 C -0.18331 0.41929 1.00689
 C1630 C -0.18302 0.39812 1.01582
 C1631 C -0.16268 0.38922 1.02196
 N1632 N -0.14388 0.40110 1.01952
 C1633 C -0.12292 0.43409 1.00978
 N1634 N -0.10369 0.42293 1.00681
 C1635 C -0.08387 0.43326 1.00550
 C1636 C -0.08262 0.45617 1.00755
 C1637 C -0.10225 0.46790 1.01087
 C1638 C -0.12234 0.45698 1.01197
 H1639 H -0.19865 0.42678 1.00199
 H1640 H -0.16171 0.37280 1.02858
 H1641 H -0.06913 0.42354 1.00315
 H1642 H -0.10213 0.48557 1.01265
 H1643 H -0.16448 0.44739 0.99748
 H1644 H -0.13716 0.46640 1.01499
 C1645 C -0.14379 0.58334 0.49072
 C1646 C -0.16306 0.57679 0.50163
 C1647 C -0.18247 0.58840 0.49840
 C1648 C -0.18300 0.60663 0.48416
 C1649 C -0.16302 0.61276 0.47384
 N1650 N -0.14426 0.60124 0.47746
 C1651 C -0.12306 0.57107 0.49317
 N1652 N -0.10358 0.58205 0.49248
 C1653 C -0.08392 0.57158 0.49427
 C1654 C -0.08319 0.54869 0.49645
 C1655 C -0.10309 0.53708 0.49698
 C1656 C -0.12302 0.54820 0.49546
 H1657 H -0.19718 0.58221 0.50636
 H1658 H -0.16199 0.62706 0.46342
 H1659 H -0.06892 0.58110 0.49351
 H1660 H -0.10326 0.51941 0.49854
 H1661 H -0.16320 0.56283 0.51258
 H1662 H -0.13818 0.53890 0.49550
 C1663 C 0.35323 1.08343 -0.00768
 C1664 C 0.33417 1.07706 0.00371
 C1665 C 0.31466 1.08853 0.00062
 C1666 C 0.31379 1.10645 -0.01400
 C1667 C 0.33364 1.11257 -0.02462
 N1668 N 0.35251 1.10115 -0.02116
 C1669 C 0.37391 1.07093 -0.00576
 N1670 N 0.39356 1.08161 -0.00680
 C1671 C 0.41310 1.07081 -0.00553
 C1672 C 0.41352 1.04789 -0.00357
 C1673 C 0.39343 1.03661 -0.00271
 C1674 C 0.37365 1.04804 -0.00370
 H1675 H 0.30010 1.08240 0.00890
 H1676 H 0.33447 1.12671 -0.03526
 H1677 H 0.42826 1.08008 -0.00647
 H1678 H 0.39298 1.01893 -0.00124
 H1679 H 0.33427 1.06324 0.01485
 H1680 H 0.35835 1.03898 -0.00339
 C1681 C 0.01268 1.14341 1.08474
 C1682 C 0.02581 1.14528 1.10347
 C1683 C 0.02931 1.16586 1.11288
 C1684 C 0.01952 1.18479 1.10394
 C1685 C 0.00625 1.18193 1.08519
 N1686 N 0.00351 1.16174 1.07610
 C1687 C 0.00935 1.12215 1.07356
 N1688 N 0.00749 1.12175 1.05125
 C1689 C 0.00492 1.10277 1.03979
 C1690 C 0.00383 1.08264 1.05088
 C1691 C 0.00517 1.08273 1.07395
 C1692 C 0.00806 1.10242 1.08533
 H1693 H 0.03909 1.16660 1.12765
 H1694 H -0.00114 1.19575 1.07698
 H1695 H 0.00373 1.10345 1.02202
 H1696 H 0.00436 1.06757 1.08314
 H1697 H 0.03367 1.13108 1.11058
 H1698 H 0.00904 1.10219 1.10312
 C1699 C 0.51620 0.64273 0.58273
 C1700 C 0.52525 0.64413 0.60389
 C1701 C 0.52782 0.66461 0.61382
 C1702 C 0.52134 0.68368 0.60280
 C1703 C 0.51234 0.68159 0.58171
 N1704 N 0.51019 0.66148 0.57227
 C1705 C 0.51370 0.62154 0.57115
 N1706 N 0.51439 0.62119 0.54873
 C1707 C 0.51236 0.60235 0.53693
 C1708 C 0.50919 0.58226 0.54773
 C1709 C 0.50808 0.58229 0.57085
 C1710 C 0.51035 0.60184 0.58259
 H1711 H 0.53479 0.66554 0.63014
 H1712 H 0.50742 0.69594 0.57255
 H1713 H 0.51314 0.60313 0.51913
 H1714 H 0.50561 0.56721 0.57989
 H1715 H 0.53076 0.62968 0.61253
 H1716 H 0.50913 0.60148 0.60038
 C1717 C -0.00764 0.64332 0.41455
 C1718 C 0.00904 0.65200 0.40097
 C1719 C 0.00579 0.67223 0.39075
 C1720 C -0.01405 0.68360 0.39388
 C1721 C -0.03017 0.67443 0.40772
 N1722 N -0.02655 0.65489 0.41764
 C1723 C -0.00527 0.62226 0.42618
 N1724 N -0.01685 0.61929 0.44522
 C1725 C -0.01613 0.60032 0.45677
 C1726 C -0.00338 0.58264 0.44908
 C1727 C 0.00853 0.58519 0.42933
 C1728 C 0.00771 0.60501 0.41787
 H1729 H 0.01861 0.67885 0.38020
 H1730 H -0.04555 0.68289 0.41080
 H1731 H -0.02576 0.59903 0.47180
 H1732 H 0.01851 0.57193 0.42278
 H1733 H 0.02452 0.64353 0.39855
 H1734 H 0.01672 0.60655 0.40249
 C1735 C 0.49001 1.14242 -0.08158
 C1736 C 0.50067 1.16146 -0.07442
 C1737 C 0.49807 1.18095 -0.08608
 C1738 C 0.48456 1.18176 -0.10484
 C1739 C 0.47477 1.16192 -0.11172
 N1740 N 0.47777 1.14314 -0.10017
 C1741 C 0.49149 1.12159 -0.06936
 N1742 N 0.49056 1.10229 -0.08063
 C1743 C 0.49120 1.08255 -0.07033
 C1744 C 0.49239 1.08150 -0.04727
 C1745 C 0.49309 1.10121 -0.03533
 C1746 C 0.49277 1.12125 -0.04629
 H1747 H 0.50577 1.19551 -0.07953
 H1748 H 0.46513 1.16103 -0.12656
 H1749 H 0.49044 1.06773 -0.08013
 H1750 H 0.49398 1.10115 -0.01752
 H1751 H 0.51089 1.16137 -0.05993
 H1752 H 0.49295 1.13627 -0.03676
 C1753 C 0.50587 0.35481 -0.08382
 C1754 C 0.49465 0.33587 -0.07721
 C1755 C 0.49820 0.31624 -0.08848
 C1756 C 0.51307 0.31514 -0.10646
 C1757 C 0.52338 0.33490 -0.11291
 N1758 N 0.51953 0.35384 -0.10166
 C1759 C 0.50369 0.37560 -0.07144
 N1760 N 0.50549 0.39503 -0.08229
 C1761 C 0.50444 0.41466 -0.07162
 C1762 C 0.50196 0.41540 -0.04860
 C1763 C 0.50018 0.39555 -0.03714
 C1764 C 0.50093 0.37568 -0.04847
 H1765 H 0.49007 0.30181 -0.08210
 H1766 H 0.53415 0.33558 -0.12716
 H1767 H 0.50610 0.42962 -0.08103
 H1768 H 0.49832 0.39536 -0.01938
 H1769 H 0.48334 0.33611 -0.06333
 H1770 H 0.50006 0.36057 -0.03921
 C1771 C 0.00473 -0.14236 0.41863
 C1772 C -0.00269 -0.16224 0.42764
 C1773 C 0.00127 -0.18178 0.41636
 C1774 C 0.01249 -0.18163 0.39606
 C1775 C 0.01888 -0.16133 0.38721
 N1776 N 0.01493 -0.14248 0.39858
 C1777 C 0.00243 -0.12144 0.43077
 N1778 N 0.00111 -0.10227 0.41939
 C1779 C -0.00016 -0.08245 0.42968
 C1780 C 0.00032 -0.08117 0.45277
 C1781 C 0.00181 -0.10075 0.46474
 C1782 C 0.00283 -0.12082 0.45386
 H1783 H -0.00390 -0.19706 0.42380
 H1784 H 0.02718 -0.16048 0.37139
 H1785 H -0.00109 -0.06774 0.41982
 H1786 H 0.00232 -0.10059 0.48256
 H1787 H -0.01138 -0.16277 0.44326
 H1788 H 0.00459 -0.13559 0.46350
 C1789 C 0.48671 -0.14600 0.57329
 C1790 C 0.46789 -0.15894 0.57027
 C1791 C 0.46575 -0.17861 0.58159
 C1792 C 0.48227 -0.18549 0.59593
 C1793 C 0.50090 -0.17218 0.59848
 N1794 N 0.50256 -0.15289 0.58739
 C1795 C 0.48923 -0.12484 0.56181
 N1796 N 0.49966 -0.10788 0.57195
 C1797 C 0.50160 -0.08777 0.56245
 C1798 C 0.49275 -0.08394 0.54151
 C1799 C 0.48243 -0.10145 0.53066
 C1800 C 0.48068 -0.12181 0.54069
 H1801 H 0.45114 -0.18845 0.57918
 H1802 H 0.51386 -0.17688 0.60963
 H1803 H 0.50989 -0.07482 0.57131
 H1804 H 0.47549 -0.09943 0.51443
 H1805 H 0.45469 -0.15374 0.55966
 H1806 H 0.47282 -0.13507 0.53188
 C1807 C -0.00752 0.35931 1.08198
 C1808 C 0.00989 0.34821 1.09199
 C1809 C 0.00618 0.32764 1.10139
 C1810 C -0.01499 0.31811 1.10125
 C1811 C -0.03192 0.33009 1.09102
 N1812 N -0.02772 0.34982 1.08164
 C1813 C -0.00454 0.38061 1.07087
 N1814 N -0.01751 0.38529 1.05337
 C1815 C -0.01620 0.40459 1.04241
 C1816 C -0.00140 0.42087 1.04919
 C1817 C 0.01198 0.41656 1.06739
 C1818 C 0.01058 0.39638 1.07819
 H1819 H 0.01983 0.31970 1.10940
 H1820 H -0.04832 0.32348 1.08943
 H1821 H -0.02703 0.40731 1.02864
 H1822 H 0.02353 0.42873 1.07321
 H1823 H 0.02629 0.35510 1.09223
 H1824 H 0.02081 0.39340 1.09236
 C1825 C 0.76016 0.32809 0.10110
 C1826 C 0.75002 0.32128 0.08163
 C1827 C 0.75368 0.33292 0.06221
 C1828 C 0.76765 0.35139 0.06184
 C1829 C 0.77727 0.35769 0.08199
 N1830 N 0.77319 0.34619 0.10074
 C1831 C 0.75712 0.31603 0.12198
 N1832 N 0.75747 0.32722 0.14142
 C1833 C 0.75534 0.31702 0.16122
 C1834 C 0.75321 0.29412 0.16221
 C1835 C 0.75292 0.28228 0.14236
 C1836 C 0.75475 0.29315 0.12226
 H1837 H 0.74622 0.32665 0.04738
 H1838 H 0.78740 0.37219 0.08321
 H1839 H 0.75588 0.32674 0.17615
 H1840 H 0.75139 0.26460 0.14237
 H1841 H 0.73927 0.30716 0.08137
 H1842 H 0.75495 0.28366 0.10717
 C1843 C 0.26173 0.82965 0.60659
 C1844 C 0.25486 0.82004 0.58675
 C1845 C 0.25716 0.83157 0.56707
 C1846 C 0.26627 0.85269 0.56700
 C1847 C 0.27251 0.86192 0.58723
 N1848 N 0.27006 0.85037 0.60626
 C1849 C 0.26030 0.81763 0.62773
 N1850 N 0.25713 0.82889 0.64694
 C1851 C 0.25575 0.81867 0.66684
 C1852 C 0.25790 0.79578 0.66821
 C1853 C 0.26152 0.78398 0.64860
 C1854 C 0.26270 0.79478 0.62845
 H1855 H 0.25218 0.82382 0.55185
 H1856 H 0.27926 0.87831 0.58793
 H1857 H 0.25316 0.82845 0.68155
 H1858 H 0.26339 0.76634 0.64876
 H1859 H 0.24765 0.80384 0.58639
 H1860 H 0.26588 0.78529 0.61366
 C1861 C 0.74182 0.66257 0.61025
 C1862 C 0.73269 0.64148 0.60873
 C1863 C 0.72933 0.63214 0.58803
 C1864 C 0.73511 0.64368 0.56888
 C1865 C 0.74447 0.66456 0.57112
 N1866 N 0.74734 0.67342 0.59143
 C1867 C 0.74428 0.67405 0.63153
 N1868 N 0.74394 0.69634 0.63163
 C1869 C 0.74540 0.70826 0.65045
 C1870 C 0.74743 0.69774 0.67086
 C1871 C 0.74838 0.67475 0.67114
 C1872 C 0.74679 0.66285 0.65153
 H1873 H 0.72212 0.61595 0.58697
 H1874 H 0.74891 0.67409 0.55675
 H1875 H 0.74486 0.72596 0.64940
 H1876 H 0.75006 0.66596 0.68650
 H1877 H 0.72753 0.63254 0.62324
 H1878 H 0.74770 0.64515 0.65210
 C1879 C 0.23835 0.16326 0.11110
 C1880 C 0.22955 0.14202 0.10981
 C1881 C 0.22617 0.13246 0.08922
 C1882 C 0.23159 0.14394 0.06994
 C1883 C 0.24057 0.16501 0.07193
 N1884 N 0.24347 0.17409 0.09216
 C1885 C 0.24103 0.17473 0.13237
 N1886 N 0.23991 0.19700 0.13277
 C1887 C 0.24156 0.20874 0.15173
 C1888 C 0.24463 0.19803 0.17190
 C1889 C 0.24636 0.17508 0.17180
 C1890 C 0.24457 0.16339 0.15211
 H1891 H 0.21924 0.11613 0.08834
 H1892 H 0.24472 0.17448 0.05744
 H1893 H 0.24035 0.22642 0.15097
 H1894 H 0.24885 0.16612 0.18694
 H1895 H 0.22469 0.13308 0.12442
 H1896 H 0.24614 0.14573 0.15241
 C1897 C 0.25971 0.16706 0.89379
 C1898 C 0.24337 0.15313 0.90237
 C1899 C 0.24638 0.14339 0.92292
 C1900 C 0.26565 0.14739 0.93483
 C1901 C 0.28149 0.16147 0.92570
 N1902 N 0.27811 0.17091 0.90580
 C1903 C 0.25736 0.17836 0.87244
 N1904 N 0.26835 0.19753 0.86931
 C1905 C 0.26734 0.20893 0.85019
 C1906 C 0.25487 0.20098 0.83253
 C1907 C 0.24361 0.18107 0.83525
 C1908 C 0.24476 0.16974 0.85518
 H1909 H 0.23378 0.13259 0.92941
 H1910 H 0.29643 0.16520 0.93451
 H1911 H 0.27648 0.22408 0.84879
 H1912 H 0.23389 0.17428 0.82202
 H1913 H 0.22827 0.15008 0.89361
 H1914 H 0.23624 0.15426 0.85681
 C1915 C 0.76298 0.66900 0.39295
 C1916 C 0.74663 0.65513 0.40162
 C1917 C 0.74979 0.64524 0.42205
 C1918 C 0.76919 0.64903 0.43379
 C1919 C 0.78503 0.66309 0.42461
 N1920 N 0.78152 0.67268 0.40479
 C1921 C 0.76048 0.68019 0.37156
 N1922 N 0.77112 0.69954 0.36827
 C1923 C 0.76987 0.71075 0.34902
 C1924 C 0.75755 0.70239 0.33145
 C1925 C 0.74666 0.68231 0.33438
 C1926 C 0.74803 0.67120 0.35439
 H1927 H 0.73719 0.63445 0.42857
 H1928 H 0.80008 0.66666 0.43331
 H1929 H 0.77873 0.72606 0.34745
 H1930 H 0.73707 0.67518 0.32124
 H1931 H 0.73143 0.65221 0.39298
 H1932 H 0.73982 0.65557 0.35615
 C1933 C 0.24005 0.83696 0.39181
 C1934 C 0.22964 0.85747 0.39337
 C1935 C 0.22590 0.86687 0.41407
 C1936 C 0.23262 0.85600 0.43319
 C1937 C 0.24334 0.83576 0.43091
 N1938 N 0.24649 0.82676 0.41060
 C1939 C 0.24286 0.82539 0.37051
 N1940 N 0.24315 0.80310 0.37047
 C1941 C 0.24490 0.79116 0.35162
 C1942 C 0.24661 0.80166 0.33111
 C1943 C 0.24691 0.82467 0.33077
 C1944 C 0.24499 0.83659 0.35040
 H1945 H 0.21762 0.88256 0.41515
 H1946 H 0.24858 0.82676 0.44527
 H1947 H 0.24487 0.77346 0.35271
 H1948 H 0.24832 0.83344 0.31535
 H1949 H 0.22375 0.86586 0.37891
 H1950 H 0.24534 0.85430 0.34978
 C1951 C 0.74356 0.33762 0.88704
 C1952 C 0.73422 0.35863 0.88851
 C1953 C 0.73104 0.36829 0.90916
 C1954 C 0.73726 0.35717 0.92831
 C1955 C 0.74703 0.33645 0.92610
 N1956 N 0.74963 0.32721 0.90584
 C1957 C 0.74547 0.32574 0.86585
 N1958 N 0.74454 0.30347 0.86604
 C1959 C 0.74532 0.29129 0.84730
 C1960 C 0.74726 0.30151 0.82668
 C1961 C 0.74880 0.32446 0.82609
 C1962 C 0.74787 0.33663 0.84561
 H1963 H 0.72348 0.38434 0.91022
 H1964 H 0.75185 0.32728 0.94050
 H1965 H 0.74436 0.27363 0.84858
 H1966 H 0.75043 0.33301 0.81056
 H1967 H 0.72864 0.36722 0.87404
 H1968 H 0.74917 0.35429 0.84480
 C1969 C 0.82910 0.39327 0.24085
 C1970 C 0.81917 0.41297 0.24770
 C1971 C 0.83061 0.43263 0.24541
 C1972 C 0.85192 0.43274 0.23637
 C1973 C 0.86154 0.41264 0.23039
 N1974 N 0.85006 0.39367 0.23275
 C1975 C 0.81726 0.37217 0.24182
 N1976 N 0.82890 0.35325 0.24415
 C1977 C 0.81905 0.33325 0.24458
 C1978 C 0.79616 0.33148 0.24220
 C1979 C 0.78392 0.35079 0.23952
 C1980 C 0.79436 0.37109 0.23935
 H1981 H 0.82259 0.44779 0.25019
 H1982 H 0.87811 0.41201 0.22372
 H1983 H 0.82914 0.31877 0.24650
 H1984 H 0.76625 0.35026 0.23755
 H1985 H 0.80276 0.41326 0.25475
 H1986 H 0.78461 0.38568 0.23676
 C1987 C 0.33128 0.89366 0.74131
 C1988 C 0.32180 0.91330 0.74891
 C1989 C 0.33295 0.93301 0.74581
 C1990 C 0.35358 0.93326 0.73527
 C1991 C 0.36281 0.91319 0.72852
 N1992 N 0.35159 0.89415 0.73168
 C1993 C 0.31948 0.87256 0.74313
 N1994 N 0.33113 0.85359 0.74503
 C1995 C 0.32117 0.83366 0.74640
 C1996 C 0.29814 0.83205 0.74554
 C1997 C 0.28591 0.85141 0.74328
 C1998 C 0.29646 0.87161 0.74210
 H1999 H 0.32518 0.94811 0.75118
 H2000 H 0.37885 0.91266 0.72065
 H2001 H 0.33124 0.81912 0.74792
 H2002 H 0.26812 0.85101 0.74243
 H2003 H 0.30594 0.91352 0.75715
 H2004 H 0.28665 0.88622 0.73989
 C2005 C 0.16769 0.89155 0.25228
 C2006 C 0.17441 0.91098 0.24199
 C2007 C 0.16279 0.93034 0.24597
 C2008 C 0.14448 0.93064 0.26045
 C2009 C 0.13795 0.91043 0.26973
 N2010 N 0.14949 0.89179 0.26544
 C2011 C 0.18026 0.87095 0.24979
 N2012 N 0.16946 0.85143 0.25099
 C2013 C 0.18022 0.83189 0.25008
 C2014 C 0.20326 0.83130 0.24849
 C2015 C 0.21469 0.85124 0.24726
 C2016 C 0.20328 0.87105 0.24777
 H2017 H 0.16911 0.94518 0.23856
 H2018 H 0.12341 0.90915 0.28005
 H2019 H 0.17081 0.81688 0.25129
 H2020 H 0.23248 0.85152 0.24608
 H2021 H 0.18860 0.91131 0.23109
 H2022 H 0.21246 0.88624 0.24739
 C2023 C 0.66293 0.38995 0.75387
 C2024 C 0.64197 0.39105 0.76378
 C2025 C 0.63236 0.41147 0.76790
 C2026 C 0.64346 0.43079 0.76210
 C2027 C 0.66421 0.42897 0.75191
 N2028 N 0.67338 0.40892 0.74834
 C2029 C 0.67464 0.36887 0.75060
 N2030 N 0.69703 0.36886 0.75059
 C2031 C 0.70904 0.35015 0.74866
 C2032 C 0.69851 0.32977 0.74654
 C2033 C 0.67543 0.32945 0.74585
 C2034 C 0.66345 0.34891 0.74789
 H2035 H 0.61629 0.41217 0.77575
 H2036 H 0.67344 0.44347 0.74742
 H2037 H 0.72680 0.35124 0.74904
 H2038 H 0.66660 0.31413 0.74418
 H2039 H 0.63334 0.37643 0.76898
 H2040 H 0.64569 0.34826 0.74726
 C2041 C 0.66410 0.60840 0.74336
 C2042 C 0.64300 0.60752 0.73417
 C2043 C 0.63319 0.58722 0.73026
 C2044 C 0.64424 0.56778 0.73558
 C2045 C 0.66516 0.56937 0.74503
 N2046 N 0.67452 0.58933 0.74840
 C2047 C 0.67590 0.62939 0.74644
 N2048 N 0.69828 0.62943 0.74539
 C2049 C 0.71030 0.64812 0.74719
 C2050 C 0.69979 0.66843 0.75031
 C2051 C 0.67674 0.66869 0.75206
 C2052 C 0.66476 0.64926 0.75012
 H2053 H 0.61701 0.58668 0.72297
 H2054 H 0.67433 0.55476 0.74913
 H2055 H 0.72804 0.64708 0.74596
 H2056 H 0.66791 0.68393 0.75455
 H2057 H 0.63439 0.62225 0.72937
 H2058 H 0.64702 0.64986 0.75161
 C2059 C 0.16215 0.10647 0.24702
 C2060 C 0.14034 0.10605 0.23959
 C2061 C 0.13014 0.08599 0.23569
 C2062 C 0.14150 0.06634 0.23925
 C2063 C 0.16308 0.06741 0.24715
 N2064 N 0.17283 0.08718 0.25052
 C2065 C 0.17427 0.12729 0.24967
 N2066 N 0.19644 0.12744 0.24630
 C2067 C 0.20854 0.14613 0.24740
 C2068 C 0.19832 0.16628 0.25214
 C2069 C 0.17554 0.16637 0.25625
 C2070 C 0.16349 0.14697 0.25505
 H2071 H 0.11345 0.08580 0.22958
 H2072 H 0.17244 0.05259 0.24987
 H2073 H 0.22609 0.14522 0.24435
 H2074 H 0.16694 0.18146 0.26014
 H2075 H 0.13149 0.12098 0.23602
 H2076 H 0.14599 0.14745 0.25840
 C2077 C 0.33481 0.10883 0.75665
 C2078 C 0.35611 0.10822 0.76540
 C2079 C 0.36624 0.08807 0.76900
 C2080 C 0.35530 0.06853 0.76380
 C2081 C 0.33417 0.06983 0.75481
 N2082 N 0.32449 0.08966 0.75173
 C2083 C 0.32285 0.12970 0.75383
 N2084 N 0.30053 0.12985 0.75592
 C2085 C 0.28851 0.14858 0.75445
 C2086 C 0.29900 0.16873 0.75061
 C2087 C 0.32196 0.16881 0.74779
 C2088 C 0.33391 0.14940 0.74939
 H2089 H 0.38257 0.08771 0.77599
 H2090 H 0.32511 0.05509 0.75085
 H2091 H 0.27083 0.14770 0.75651
 H2092 H 0.33078 0.18393 0.74471
 H2093 H 0.36463 0.12306 0.77009
 H2094 H 0.35157 0.14986 0.74707
 C2095 C 0.83561 0.60793 0.25909
 C2096 C 0.85676 0.60713 0.26817
 C2097 C 0.86657 0.58686 0.27209
 C2098 C 0.85546 0.56743 0.26685
 C2099 C 0.83445 0.56894 0.25761
 N2100 N 0.82510 0.58885 0.25422
 C2101 C 0.82393 0.62888 0.25578
 N2102 N 0.80157 0.62918 0.25733
 C2103 C 0.78970 0.64792 0.25522
 C2104 C 0.80037 0.66793 0.25119
 C2105 C 0.82339 0.66789 0.24895
 C2106 C 0.83520 0.64845 0.25126
 H2107 H 0.88281 0.58634 0.27925
 H2108 H 0.82525 0.55430 0.25362
 H2109 H 0.77198 0.64715 0.25686
 H2110 H 0.83231 0.68293 0.24580
 H2111 H 0.86540 0.62191 0.27281
 H2112 H 0.85292 0.64878 0.24939
 C2113 C 0.89308 0.25893 0.15937
 C2114 C 0.90187 0.24325 0.14473
 C2115 C 0.92214 0.24722 0.13443
 C2116 C 0.93351 0.26679 0.13852
 C2117 C 0.92414 0.28199 0.15324
 N2118 N 0.90456 0.27766 0.16324
 C2119 C 0.87210 0.25556 0.17142
 N2120 N 0.86906 0.26613 0.19098
 C2121 C 0.85019 0.26441 0.20297
 C2122 C 0.83265 0.25165 0.19524
 C2123 C 0.83531 0.24069 0.17501
 C2124 C 0.85502 0.24253 0.16309
 H2125 H 0.92890 0.23507 0.12321
 H2126 H 0.93258 0.29711 0.15715
 H2127 H 0.84884 0.27333 0.21836
 H2128 H 0.82216 0.23077 0.16837
 H2129 H 0.89352 0.22791 0.14163
 H2130 H 0.85657 0.23430 0.14735
 C2131 C 0.39560 0.76294 0.66708
 C2132 C 0.40748 0.78260 0.66849
 C2133 C 0.42715 0.78483 0.65686
 C2134 C 0.43511 0.76759 0.64371
 C2135 C 0.42279 0.74817 0.64265
 N2136 N 0.40347 0.74639 0.65409
 C2137 C 0.37472 0.76014 0.67942
 N2138 N 0.35810 0.74805 0.67063
 C2139 C 0.33834 0.74557 0.68113
 C2140 C 0.33457 0.75547 0.70176
 C2141 C 0.35170 0.76765 0.71115
 C2142 C 0.37168 0.76998 0.70012
 H2143 H 0.43621 0.80005 0.65820
 H2144 H 0.42831 0.73461 0.63248
 H2145 H 0.32567 0.73586 0.67339
 H2146 H 0.34969 0.77553 0.72706
 H2147 H 0.40149 0.79630 0.67821
 H2148 H 0.38469 0.77922 0.70788
 C2149 C 0.39525 0.23407 0.82856
 C2150 C 0.40744 0.21473 0.82552
 C2151 C 0.42707 0.21189 0.83678
 C2152 C 0.43466 0.22825 0.85107
 C2153 C 0.42190 0.24727 0.85386
 N2154 N 0.40269 0.24963 0.84279
 C2155 C 0.37446 0.23773 0.81671
 N2156 N 0.35789 0.24931 0.82655
 C2157 C 0.33820 0.25266 0.81659
 C2158 C 0.33443 0.24423 0.79539
 C2159 C 0.35157 0.23272 0.78483
 C2160 C 0.37150 0.22945 0.79538
 H2161 H 0.43645 0.19700 0.83414
 H2162 H 0.42708 0.26012 0.86499
 H2163 H 0.32551 0.26177 0.82527
 H2164 H 0.34955 0.22594 0.76847
 H2165 H 0.40177 0.20176 0.81478
 H2166 H 0.38449 0.22069 0.78680
 C2167 C 0.89718 0.73686 0.32695
 C2168 C 0.90969 0.71772 0.32394
 C2169 C 0.92908 0.71502 0.33560
 C2170 C 0.93611 0.73129 0.35027
 C2171 C 0.92308 0.75013 0.35298
 N2172 N 0.90409 0.75236 0.34151
 C2173 C 0.87653 0.74024 0.31484
 N2174 N 0.85957 0.75130 0.32462
 C2175 C 0.83990 0.75418 0.31451
 C2176 C 0.83652 0.74571 0.29325
 C2177 C 0.85407 0.73480 0.28273
 C2178 C 0.87400 0.73206 0.29341
 H2179 H 0.93872 0.70029 0.33299
 H2180 H 0.92786 0.76292 0.36436
 H2181 H 0.82689 0.76286 0.32316
 H2182 H 0.85235 0.72807 0.26630
 H2183 H 0.90443 0.70480 0.31294
 H2184 H 0.88730 0.72371 0.28488
 C2185 C 0.10684 0.76677 0.33214
 C2186 C 0.09470 0.78614 0.32948
 C2187 C 0.07473 0.78871 0.34060
 C2188 C 0.06678 0.77208 0.35441
 C2189 C 0.07960 0.75313 0.35700
 N2190 N 0.09911 0.75099 0.34601
 C2191 C 0.12770 0.76319 0.31998
 N2192 N 0.14423 0.75157 0.32944
 C2193 C 0.16389 0.74812 0.31903
 C2194 C 0.16762 0.75643 0.29776
 C2195 C 0.15053 0.76802 0.28763
 C2196 C 0.13066 0.77142 0.29863
 H2197 H 0.06531 0.80355 0.33807
 H2198 H 0.07414 0.74007 0.36777
 H2199 H 0.17656 0.73896 0.32738
 H2200 H 0.15256 0.77473 0.27124
 H2201 H 0.10059 0.79925 0.31900
 H2202 H 0.11768 0.78021 0.29036
 C2203 C 0.60648 0.26052 0.83212
 C2204 C 0.59842 0.24481 0.84700
 C2205 C 0.57800 0.24806 0.85724
 C2206 C 0.56568 0.26697 0.85283
 C2207 C 0.57433 0.28226 0.83788
 N2208 N 0.59412 0.27863 0.82792
 C2209 C 0.62771 0.25772 0.82031
 N2210 N 0.63033 0.26711 0.80016
 C2211 C 0.64935 0.26543 0.78832
 C2212 C 0.66740 0.25397 0.79684
 C2213 C 0.66517 0.24438 0.81773
 C2214 C 0.64537 0.24614 0.82947
 H2215 H 0.57190 0.23588 0.86871
 H2216 H 0.56519 0.29691 0.83382
 H2217 H 0.65040 0.27332 0.77240
 H2218 H 0.67871 0.23551 0.82499
 H2219 H 0.60749 0.22995 0.85037
 H2220 H 0.64413 0.23892 0.84569
 C2221 C 0.60690 0.74335 0.66811
 C2222 C 0.58679 0.75100 0.67676
 C2223 C 0.56747 0.74758 0.66504
 C2224 C 0.56808 0.73662 0.64470
 C2225 C 0.58861 0.72987 0.63629
 N2226 N 0.60723 0.73335 0.64803
 C2227 C 0.62765 0.74539 0.68049
 N2228 N 0.64716 0.74632 0.66928
 C2229 C 0.66685 0.74743 0.67972
 C2230 C 0.66766 0.74720 0.70283
 C2231 C 0.64772 0.74613 0.71465
 C2232 C 0.62778 0.74525 0.70360
 H2233 H 0.55200 0.75301 0.67216
 H2234 H 0.58984 0.72173 0.62046
 H2235 H 0.68182 0.74808 0.66995
 H2236 H 0.64751 0.74584 0.73249
 H2237 H 0.58590 0.75953 0.69239
 H2238 H 0.61272 0.74383 0.71314
 C2239 C 0.10513 0.24233 0.17026
 C2240 C 0.08493 0.24993 0.17872
 C2241 C 0.06579 0.24679 0.16664
 C2242 C 0.06668 0.23613 0.14615
 C2243 C 0.08728 0.22932 0.13800
 N2244 N 0.10572 0.23256 0.15007
 C2245 C 0.12574 0.24430 0.18285
 N2246 N 0.14530 0.24553 0.17179
 C2247 C 0.16490 0.24662 0.18237
 C2248 C 0.16555 0.24605 0.20549
 C2249 C 0.14556 0.24467 0.21717
 C2250 C 0.12569 0.24384 0.20597
 H2251 H 0.05022 0.25227 0.17353
 H2252 H 0.08870 0.22137 0.12208
 H2253 H 0.17992 0.24749 0.17271
 H2254 H 0.14526 0.24412 0.23500
 H2255 H 0.08385 0.25826 0.19445
 H2256 H 0.11057 0.24222 0.21536
 C2257 C -0.08082 1.00676 0.85588
 C2258 C -0.07560 0.99491 0.83674
 C2259 C -0.08710 0.99892 0.81742
 C2260 C -0.10409 1.01472 0.81680
 C2261 C -0.10891 1.02596 0.83665
 N2262 N -0.09744 1.02167 0.85526
 C2263 C -0.06900 1.00346 0.87686
 N2264 N -0.07903 1.00966 0.89602
 C2265 C -0.06914 1.00778 0.91590
 C2266 C -0.04765 0.99942 0.91734
 C2267 C -0.03698 0.99290 0.89779
 C2268 C -0.04753 0.99491 0.87757
 H2269 H -0.08178 0.99012 0.80283
 H2270 H -0.12225 1.03762 0.83783
 H2271 H -0.07801 1.01314 0.93049
 H2272 H -0.02034 0.98656 0.89803
 H2273 H -0.06287 0.98253 0.83652
 H2274 H -0.03862 0.99038 0.86275
 C2275 C 0.42198 0.50612 0.35408
 C2276 C 0.42939 0.49697 0.33406
 C2277 C 0.41796 0.50118 0.31474
 C2278 C 0.39892 0.51421 0.31515
 C2279 C 0.39180 0.52271 0.33553
 N2280 N 0.40332 0.51851 0.35415
 C2281 C 0.43374 0.50278 0.37515
 N2282 N 0.42311 0.50757 0.39444
 C2283 C 0.43291 0.50563 0.41439
 C2284 C 0.45487 0.49863 0.41580
 C2285 C 0.46611 0.49351 0.39614
 C2286 C 0.45572 0.49564 0.37588
 H2287 H 0.42423 0.49442 0.29941
 H2288 H 0.37700 0.53251 0.33674
 H2289 H 0.42358 0.50984 0.42908
 H2290 H 0.48313 0.48827 0.39632
 H2291 H 0.44371 0.48651 0.33310
 H2292 H 0.46519 0.49227 0.36112
 C2293 C 0.57942 -0.00595 0.35239
 C2294 C 0.57363 0.00466 0.33287
 C2295 C 0.58476 -0.00034 0.31336
 C2296 C 0.60215 -0.01571 0.31289
 C2297 C 0.60740 -0.02591 0.33302
 N2298 N 0.59619 -0.02074 0.35185
 C2299 C 0.56790 -0.00151 0.37359
 N2300 N 0.57800 -0.00696 0.39272
 C2301 C 0.56820 -0.00420 0.41277
 C2302 C 0.54674 0.00428 0.41440
 C2303 C 0.53612 0.01027 0.39491
 C2304 C 0.54654 0.00734 0.37456
 H2305 H 0.57894 0.00750 0.29858
 H2306 H 0.62091 -0.03732 0.33423
 H2307 H 0.57702 -0.00916 0.42733
 H2308 H 0.51948 0.01663 0.39529
 H2309 H 0.56075 0.01686 0.33245
 H2310 H 0.53750 0.01129 0.35986
 C2311 C 0.07577 0.49437 0.85407
 C2312 C 0.06706 0.50094 0.83378
 C2313 C 0.07815 0.49562 0.81429
 C2314 C 0.09809 0.48402 0.81478
 C2315 C 0.10626 0.47773 0.83535
 N2316 N 0.09510 0.48304 0.85415
 C2317 C 0.06482 0.49948 0.87545
 N2318 N 0.07652 0.49707 0.89429
 C2319 C 0.06758 0.50052 0.91461
 C2320 C 0.04538 0.50662 0.91692
 C2321 C 0.03308 0.50957 0.89772
 C2322 C 0.04264 0.50595 0.87704
 H2323 H 0.07111 0.50065 0.79879
 H2324 H 0.12172 0.46904 0.83654
 H2325 H 0.07773 0.49800 0.92893
 H2326 H 0.01584 0.51399 0.89866
 H2327 H 0.05209 0.51039 0.83270
 H2328 H 0.03237 0.50755 0.86272
 C2329 C 0.08562 0.51112 0.64128
 C2330 C 0.10612 0.52176 0.64226
 C2331 C 0.11598 0.52525 0.66263
 C2332 C 0.10550 0.51836 0.68208
 C2333 C 0.08494 0.50803 0.68042
 N2334 N 0.07566 0.50479 0.66040
 C2335 C 0.07404 0.50730 0.62023
 N2336 N 0.05196 0.50346 0.62076
 C2337 C 0.04000 0.50051 0.60217
 C2338 C 0.05025 0.50160 0.58138
 C2339 C 0.07310 0.50486 0.58048
 C2340 C 0.08504 0.50756 0.59978
 H2341 H 0.13190 0.53318 0.66312
 H2342 H 0.07608 0.50279 0.69502
 H2343 H 0.02244 0.49793 0.60367
 H2344 H 0.08179 0.50547 0.56484
 H2345 H 0.11441 0.52774 0.62765
 H2346 H 0.10265 0.50972 0.59848
 C2347 C 0.57604 1.00779 0.14397
 C2348 C 0.56793 1.00101 0.16460
 C2349 C 0.57999 1.00537 0.18350
 C2350 C 0.60034 1.01617 0.18208
 C2351 C 0.60791 1.02270 0.16120
 N2352 N 0.59579 1.01834 0.14297
 C2353 C 0.56401 1.00359 0.12320
 N2354 N 0.57498 1.00586 0.10368
 C2355 C 0.56511 1.00282 0.08390
 C2356 C 0.54271 0.99723 0.08293
 C2357 C 0.53111 0.99465 0.10283
 C2358 C 0.54158 0.99791 0.12291
 H2359 H 0.57334 1.00025 0.19927
 H2360 H 0.62362 1.03084 0.15929
 H2361 H 0.57473 1.00508 0.06899
 H2362 H 0.51375 0.99066 0.10293
 H2363 H 0.55267 0.99211 0.16639
 H2364 H 0.53186 0.99653 0.13782
 C2365 C 0.41757 0.48632 0.14454
 C2366 C 0.42295 0.46835 0.15783
 C2367 C 0.41094 0.46451 0.17713
 C2368 C 0.39387 0.47873 0.18337
 C2369 C 0.38886 0.49640 0.16955
 N2370 N 0.40055 0.49962 0.15060
 C2371 C 0.43008 0.49092 0.12411
 N2372 N 0.41919 0.49678 0.10555
 C2373 C 0.42985 0.50026 0.08604
 C2374 C 0.45283 0.49812 0.08459
 C2375 C 0.46439 0.49286 0.10375
 C2376 C 0.45307 0.48907 0.12346
 H2377 H 0.41530 0.45078 0.18747
 H2378 H 0.37570 0.50763 0.17386
 H2379 H 0.42037 0.50445 0.07165
 H2380 H 0.48210 0.49095 0.10334
 H2381 H 0.43619 0.45732 0.15325
 H2382 H 0.46219 0.48474 0.13806
 C2383 C -0.07955 -0.00617 0.64627
 C2384 C -0.07388 0.00460 0.66581
 C2385 C -0.08525 -0.00013 0.68525
 C2386 C -0.10259 -0.01555 0.68560
 C2387 C -0.10761 -0.02598 0.66547
 N2388 N -0.09629 -0.02096 0.64672
 C2389 C -0.06807 -0.00172 0.62511
 N2390 N -0.07867 -0.00610 0.60595
 C2391 C -0.06907 -0.00303 0.58588
 C2392 C -0.04731 0.00463 0.58422
 C2393 C -0.03611 0.00936 0.60378
 C2394 C -0.04637 0.00619 0.62418
 H2395 H -0.07969 0.00792 0.70007
 H2396 H -0.12109 -0.03743 0.66421
 H2397 H -0.07834 -0.00704 0.57129
 H2398 H -0.01925 0.01508 0.60336
 H2399 H -0.06098 0.01677 0.66621
 H2400 H -0.03706 0.00929 0.63895
 C2401 C -0.14775 0.92241 1.00947
 C2402 C -0.16671 0.92868 0.99819
 C2403 C -0.18641 0.91771 1.00209
 C2404 C -0.18762 0.90007 1.01706
 C2405 C -0.16799 0.89430 1.02790
 N2406 N -0.14896 0.90534 1.02378
 C2407 C -0.12642 0.93373 1.00610
 N2408 N -0.10747 0.92303 1.01113
 C2409 C -0.08733 0.93250 1.00882
 C2410 C -0.08544 0.95415 1.00118
 C2411 C -0.10479 0.96546 0.99593
 C2412 C -0.12522 0.95540 0.99844
 H2413 H -0.20079 0.92385 0.99377
 H2414 H -0.16732 0.88052 1.03900
 H2415 H -0.07289 0.92318 1.01322
 H2416 H -0.10422 0.98225 0.99024
 H2417 H -0.16651 0.94181 0.98628
 H2418 H -0.13981 0.96485 0.99494
 C2419 C 0.35514 0.42380 0.51194
 C2420 C 0.33511 0.43221 0.50428
 C2421 C 0.31561 0.42108 0.50878
 C2422 C 0.31584 0.40134 0.52056
 C2423 C 0.33616 0.39340 0.52790
 N2424 N 0.35500 0.40463 0.52341
 C2425 C 0.37644 0.43493 0.50767
 N2426 N 0.39545 0.42343 0.51025
 C2427 C 0.41563 0.43257 0.50703
 C2428 C 0.41753 0.45467 0.50090
 C2429 C 0.39815 0.46680 0.49810
 C2430 C 0.37768 0.45711 0.50159
 H2431 H 0.30031 0.42797 0.50299
 H2432 H 0.33715 0.37809 0.53678
 H2433 H 0.43012 0.42259 0.50950
 H2434 H 0.39875 0.48398 0.49372
 H2435 H 0.33427 0.44699 0.49458
 H2436 H 0.36321 0.46723 0.50004
 C2437 C 0.35837 0.57979 -0.00347
 C2438 C 0.33804 0.56970 0.00110
 C2439 C 0.31854 0.58063 -0.00374
 C2440 C 0.31904 0.60150 -0.01335
 C2441 C 0.33961 0.61087 -0.01809
 N2442 N 0.35845 0.59996 -0.01308
 C2443 C 0.37974 0.56886 0.00097
 N2444 N 0.39830 0.57681 -0.00890
 C2445 C 0.41832 0.56718 -0.00659
 C2446 C 0.42050 0.54805 0.00602
 C2447 C 0.40178 0.53999 0.01697
 C2448 C 0.38149 0.55039 0.01468
 H2449 H 0.30301 0.57260 -0.00026
 H2450 H 0.34074 0.62698 -0.02542
 H2451 H 0.43233 0.57403 -0.01528
 H2452 H 0.40274 0.52546 0.02713
 H2453 H 0.33691 0.55341 0.00791
 H2454 H 0.36752 0.54384 0.02357
 C2455 C -0.14133 0.08869 0.48867
 C2456 C -0.14341 0.10597 0.47363
 C2457 C -0.16410 0.11500 0.46964
 C2458 C -0.18307 0.10700 0.48054
 C2459 C -0.18005 0.08948 0.49540
 N2460 N -0.15973 0.08092 0.49884
 C2461 C -0.11996 0.07787 0.49310
 N2462 N -0.12004 0.05715 0.50140
 C2463 C -0.10123 0.04575 0.50518
 C2464 C -0.08063 0.05512 0.50038
 C2465 C -0.08015 0.07674 0.49249
 C2466 C -0.09968 0.08816 0.48892
 H2467 H -0.16481 0.12877 0.45853
 H2468 H -0.19380 0.08174 0.50365
 H2469 H -0.10246 0.02919 0.51141
 H2470 H -0.06469 0.08477 0.48875
 H2471 H -0.12937 0.11236 0.46468
 H2472 H -0.09874 0.10483 0.48303
 C2473 C 0.64276 0.07969 0.50478
 C2474 C 0.64985 0.09739 0.49181
 C2475 C 0.66991 0.10750 0.49638
 C2476 C 0.68266 0.10027 0.51405
 C2477 C 0.67496 0.08262 0.52668
 N2478 N 0.65557 0.07275 0.52167
 C2479 C 0.62173 0.06840 0.50051
 N2480 N 0.62038 0.04631 0.50332
 C2481 C 0.60128 0.03508 0.50048
 C2482 C 0.58188 0.04627 0.49519
 C2483 C 0.58291 0.06905 0.49220
 C2484 C 0.60283 0.08013 0.49461
 H2485 H 0.67542 0.12104 0.48624
 H2486 H 0.68452 0.07646 0.54028
 H2487 H 0.60109 0.01755 0.50318
 H2488 H 0.56826 0.07828 0.48821
 H2489 H 0.64019 0.10309 0.47807
 H2490 H 0.60326 0.09775 0.49264
 C2491 C 0.14301 0.58768 1.00668
 C2492 C 0.14462 0.60436 1.02252
 C2493 C 0.16508 0.61345 1.02726
 C2494 C 0.18430 0.60614 1.01628
 C2495 C 0.18175 0.58934 1.00040
 N2496 N 0.16162 0.58057 0.99631
 C2497 C 0.12173 0.57688 1.00187
 N2498 N 0.12155 0.55549 0.99534
 C2499 C 0.10251 0.54418 0.99218
 C2500 C 0.08208 0.55438 0.99593
 C2501 C 0.08197 0.57671 1.00165
 C2502 C 0.10166 0.58798 1.00454
 H2503 H 0.16545 0.62673 1.03908
 H2504 H 0.19577 0.58229 0.99190
 H2505 H 0.10341 0.52705 0.98759
 H2506 H 0.06666 0.58542 1.00439
 H2507 H 0.13032 0.61015 1.03156
 H2508 H 0.10107 0.60516 1.00898
 C2509 C 0.14576 0.42265 0.49368
 C2510 C 0.16573 0.43111 0.50145
 C2511 C 0.18523 0.41986 0.49721
 C2512 C 0.18506 0.39993 0.48562
 C2513 C 0.16477 0.39185 0.47834
 N2514 N 0.14593 0.40324 0.48251
 C2515 C 0.12452 0.43415 0.49726
 N2516 N 0.10543 0.42286 0.49433
 C2517 C 0.08532 0.43242 0.49662
 C2518 C 0.08359 0.45476 0.50202
 C2519 C 0.10304 0.46664 0.50527
 C2520 C 0.12343 0.45651 0.50279
 H2521 H 0.20050 0.42688 0.50294
 H2522 H 0.16380 0.37638 0.46964
 H2523 H 0.07076 0.42262 0.49386
 H2524 H 0.10259 0.48397 0.50918
 H2525 H 0.16654 0.44608 0.51095
 H2526 H 0.13799 0.46646 0.50457
 C2527 C 0.63820 0.91451 -0.00996
 C2528 C 0.64007 0.89480 -0.02191
 C2529 C 0.66076 0.88552 -0.02548
 C2530 C 0.67965 0.89579 -0.01735
 C2531 C 0.67710 0.91545 -0.00551
 N2532 N 0.65678 0.92423 -0.00228
 C2533 C 0.61679 0.92561 -0.00635
 N2534 N 0.61662 0.94749 -0.00179
 C2535 C 0.59765 0.95904 0.00094
 C2536 C 0.57722 0.94856 -0.00112
 C2537 C 0.57703 0.92590 -0.00518
 C2538 C 0.59669 0.91437 -0.00766
 H2539 H 0.66196 0.87027 -0.03459
 H2540 H 0.69128 0.92409 0.00076
 H2541 H 0.59860 0.97646 0.00421
 H2542 H 0.56168 0.91702 -0.00655
 H2543 H 0.62592 0.88680 -0.02894
 H2544 H 0.59597 0.89689 -0.01045
 C2545 C 0.00623 0.85620 0.91988
 C2546 C -0.00553 0.83707 0.92484
 C2547 C -0.00128 0.81789 0.91299
 C2548 C 0.01465 0.81739 0.89587
 C2549 C 0.02581 0.83720 0.89135
 N2550 N 0.02129 0.85567 0.90317
 C2551 C 0.00264 0.87704 0.93208
 N2552 N 0.00897 0.89616 0.92244
 C2553 C 0.00679 0.91590 0.93267
 C2554 C -0.00203 0.91726 0.95413
 C2555 C -0.00868 0.89775 0.96441
 C2556 C -0.00634 0.87767 0.95352
 H2557 H -0.01002 0.80334 0.91814
 H2558 H 0.03758 0.83847 0.87797
 H2559 H 0.01226 0.93046 0.92409
 H2560 H -0.01537 0.89792 0.98101
 H2561 H -0.01802 0.83674 0.93763
 H2562 H -0.01098 0.86289 0.96216
 C2563 C 0.50817 0.35513 0.41819
 C2564 C 0.49958 0.33517 0.42590
 C2565 C 0.50356 0.31594 0.41406
 C2566 C 0.51581 0.31639 0.39434
 C2567 C 0.52381 0.33671 0.38699
 N2568 N 0.51983 0.35524 0.39891
 C2569 C 0.50495 0.37611 0.43029
 N2570 N 0.50868 0.39529 0.41947
 C2571 C 0.50671 0.41518 0.42948
 C2572 C 0.50078 0.41663 0.45187
 C2573 C 0.49680 0.39708 0.46334
 C2574 C 0.49895 0.37688 0.45272
 H2575 H 0.49725 0.30066 0.42055
 H2576 H 0.53304 0.33791 0.37172
 H2577 H 0.51002 0.42979 0.41994
 H2578 H 0.49244 0.39732 0.48068
 H2579 H 0.48970 0.33419 0.44075
 H2580 H 0.49648 0.36219 0.46230
 C2581 C -0.00905 0.36039 0.58461
 C2582 C -0.02478 0.35806 0.60150
 C2583 C -0.02880 0.33742 0.61055
 C2584 C -0.01716 0.31880 0.60300
 C2585 C -0.00170 0.32204 0.58576
 N2586 N 0.00173 0.34229 0.57714
 C2587 C -0.00449 0.38175 0.57395
 N2588 N 0.00347 0.38197 0.55290
 C2589 C 0.00721 0.40089 0.54167
 C2590 C 0.00275 0.42125 0.55162
 C2591 C -0.00466 0.42139 0.57362
 C2592 C -0.00824 0.40177 0.58482
 H2593 H -0.04049 0.33648 0.62405
 H2594 H 0.00712 0.30848 0.57834
 H2595 H 0.01308 0.39994 0.52481
 H2596 H -0.00815 0.43666 0.58211
 H2597 H -0.03419 0.37191 0.60756
 H2598 H -0.01387 0.40239 0.60176
 C2599 C 0.48884 0.85166 0.07664
 C2600 C 0.49757 0.83205 0.06805
 C2601 C 0.49427 0.81247 0.07934
 C2602 C 0.48261 0.81221 0.09941
 C2603 C 0.47437 0.83218 0.10760
 N2604 N 0.47767 0.85108 0.09620
 C2605 C 0.49157 0.87299 0.06521
 N2606 N 0.48793 0.89189 0.07672
 C2607 C 0.48974 0.91204 0.06734
 C2608 C 0.49547 0.91406 0.04496
 C2609 C 0.49926 0.89480 0.03280
 C2610 C 0.49721 0.87435 0.04274
 H2611 H 0.50076 0.79748 0.07224
 H2612 H 0.46560 0.83285 0.12318
 H2613 H 0.48655 0.92642 0.07736
 H2614 H 0.50343 0.89546 0.01543
 H2615 H 0.50712 0.83160 0.05296
 H2616 H 0.49954 0.85994 0.03261
 C2617 C 0.51325 0.63938 0.08560
 C2618 C 0.52458 0.64087 0.10566
 C2619 C 0.52854 0.66141 0.11503
 C2620 C 0.52141 0.68053 0.10449
 C2621 C 0.51051 0.67835 0.08431
 N2622 N 0.50682 0.65819 0.07552
 C2623 C 0.50870 0.61812 0.07459
 N2624 N 0.50381 0.61808 0.05273
 C2625 C 0.50009 0.59930 0.04121
 C2626 C 0.50143 0.57886 0.05168
 C2627 C 0.50575 0.57856 0.07436
 C2628 C 0.50925 0.59805 0.08587
 H2629 H 0.53691 0.66229 0.13067
 H2630 H 0.50508 0.69266 0.07539
 H2631 H 0.49673 0.60038 0.02378
 H2632 H 0.50667 0.56322 0.08323
 H2633 H 0.53066 0.62651 0.11401
 H2634 H 0.51227 0.59721 0.10335
 C2635 C 0.01632 0.14642 0.58076
 C2636 C 0.03097 0.14843 0.59836
 C2637 C 0.03416 0.16880 0.60831
 C2638 C 0.02284 0.18754 0.60090
 C2639 C 0.00865 0.18469 0.58279
 N2640 N 0.00592 0.16464 0.57337
 C2641 C 0.01216 0.12511 0.56977
 N2642 N 0.00524 0.12483 0.54848
 C2643 C 0.00142 0.10584 0.53731
 C2644 C 0.00458 0.08551 0.54762
 C2645 C 0.01115 0.08550 0.56974
 C2646 C 0.01486 0.10515 0.58084
 H2647 H 0.04485 0.16936 0.62241
 H2648 H 0.00021 0.19839 0.57545
 H2649 H -0.00375 0.10667 0.52033
 H2650 H 0.01357 0.07029 0.57854
 H2651 H 0.04008 0.13450 0.60441
 H2652 H 0.01956 0.10457 0.59796
 C2653 C 0.49484 0.14597 0.41847
 C2654 C 0.50321 0.16604 0.42609
 C2655 C 0.49861 0.18526 0.41465
 C2656 C 0.48591 0.18468 0.39546
 C2657 C 0.47815 0.16427 0.38819
 N2658 N 0.48275 0.14576 0.39969
 C2659 C 0.49856 0.12495 0.43013
 N2660 N 0.49453 0.10588 0.41920
 C2661 C 0.49646 0.08592 0.42886
 C2662 C 0.50254 0.08426 0.45106
 C2663 C 0.50710 0.10367 0.46261
 C2664 C 0.50507 0.12398 0.45229
 H2665 H 0.50479 0.20064 0.42102
 H2666 H 0.46861 0.16296 0.37329
 H2667 H 0.49278 0.07144 0.41925
 H2668 H 0.51165 0.10323 0.47980
 H2669 H 0.51335 0.16710 0.44057
 H2670 H 0.50789 0.13859 0.46194
 C2671 C -0.00630 0.64832 0.92088
 C2672 C 0.00537 0.66752 0.92562
 C2673 C 0.00119 0.68656 0.91371
 C2674 C -0.01460 0.68683 0.89676
 C2675 C -0.02567 0.66694 0.89247
 N2676 N -0.02122 0.64862 0.90433
 C2677 C -0.00282 0.62761 0.93312
 N2678 N -0.00914 0.60841 0.92363
 C2679 C -0.00718 0.58878 0.93393
 C2680 C 0.00139 0.58761 0.95532
 C2681 C 0.00810 0.60719 0.96543
 C2682 C 0.00600 0.62716 0.95445
 H2683 H 0.00986 0.70119 0.91867
 H2684 H -0.03732 0.66549 0.87922
 H2685 H -0.01267 0.57416 0.92546
 H2686 H 0.01462 0.60715 0.98196
 H2687 H 0.01774 0.66802 0.93828
 H2688 H 0.01066 0.64200 0.96296
 C2689 C 0.26434 0.66850 0.89669
 C2690 C 0.25728 0.67816 0.91654
 C2691 C 0.26097 0.66738 0.93641
 C2692 C 0.27178 0.64703 0.93664
 C2693 C 0.27882 0.63805 0.91647
 N2694 N 0.27491 0.64880 0.89732
 C2695 C 0.26055 0.67937 0.87521
 N2696 N 0.25193 0.69999 0.87451
 C2697 C 0.24860 0.71079 0.85524
 C2698 C 0.25413 0.70083 0.83504
 C2699 C 0.26274 0.67945 0.83543
 C2700 C 0.26598 0.66874 0.85538
 H2701 H 0.25550 0.67502 0.95163
 H2702 H 0.28701 0.62231 0.91586
 H2703 H 0.24191 0.72723 0.85577
 H2704 H 0.26730 0.67104 0.82033
 H2705 H 0.24889 0.69382 0.91674
 H2706 H 0.27279 0.65235 0.85522
 C2707 C 0.75620 0.16967 0.39275
 C2708 C 0.74701 0.17714 0.41275
 C2709 C 0.75136 0.16593 0.43221
 C2710 C 0.76460 0.14707 0.43196
 C2711 C 0.77309 0.13985 0.41159
 N2712 N 0.76875 0.15116 0.39284
 C2713 C 0.75283 0.18125 0.37154
 N2714 N 0.75773 0.17056 0.35237
 C2715 C 0.75591 0.18021 0.33230
 C2716 C 0.74895 0.20210 0.33064
 C2717 C 0.74365 0.21339 0.35017
 C2718 C 0.74564 0.20313 0.37055
 H2719 H 0.74457 0.17222 0.44752
 H2720 H 0.78301 0.12516 0.41050
 H2721 H 0.76024 0.17084 0.31773
 H2722 H 0.73840 0.23035 0.34978
 H2723 H 0.73643 0.19135 0.41359
 H2724 H 0.74215 0.21263 0.38521
 C2725 C 0.24278 0.32994 0.39839
 C2726 C 0.25071 0.32216 0.41857
 C2727 C 0.24639 0.33390 0.43781
 C2728 C 0.23458 0.35365 0.43716
 C2729 C 0.22720 0.36107 0.41665
 N2730 N 0.23144 0.34920 0.39808
 C2731 C 0.24631 0.31787 0.37742
 N2732 N 0.24293 0.32851 0.35805
 C2733 C 0.24505 0.31838 0.33816
 C2734 C 0.25074 0.29610 0.33696
 C2735 C 0.25450 0.28488 0.35670
 C2736 C 0.25218 0.29558 0.37686
 H2737 H 0.25220 0.32736 0.45326
 H2738 H 0.21834 0.37638 0.41531
 H2739 H 0.24194 0.32769 0.32337
 H2740 H 0.25867 0.26762 0.35665
 H2741 H 0.26034 0.30735 0.41974
 H2742 H 0.25435 0.28611 0.39168
 C2743 C 0.74318 0.83889 0.89122
 C2744 C 0.73123 0.85862 0.89193
 C2745 C 0.72655 0.86848 0.91219
 C2746 C 0.73363 0.85876 0.93178
 C2747 C 0.74557 0.83910 0.93038
 N2748 N 0.74984 0.82974 0.91046
 C2749 C 0.74757 0.82700 0.87035
 N2750 N 0.75151 0.80504 0.87110
 C2751 C 0.75441 0.79269 0.85262
 C2752 C 0.75308 0.80240 0.83175
 C2753 C 0.74991 0.82516 0.83062
 C2754 C 0.74729 0.83750 0.84981
 H2755 H 0.71739 0.88370 0.91253
 H2756 H 0.75106 0.83089 0.94511
 H2757 H 0.75701 0.77523 0.85429
 H2758 H 0.74916 0.83344 0.81489
 H2759 H 0.72497 0.86617 0.87718
 H2760 H 0.74503 0.85502 0.84841
 C2761 C 0.75496 0.83060 0.10372
 C2762 C 0.74745 0.82257 0.08342
 C2763 C 0.75185 0.83427 0.06421
 C2764 C 0.76339 0.85417 0.06501
 C2765 C 0.77040 0.86178 0.08561
 N2766 N 0.76607 0.84999 0.10413
 C2767 C 0.75129 0.81873 0.12475
 N2768 N 0.75519 0.82945 0.14404
 C2769 C 0.75313 0.81958 0.16400
 C2770 C 0.74698 0.79744 0.16540
 C2771 C 0.74257 0.78614 0.14578
 C2772 C 0.74480 0.79661 0.12551
 H2773 H 0.74630 0.82760 0.04868
 H2774 H 0.77904 0.87721 0.08707
 H2775 H 0.75673 0.82897 0.17868
 H2776 H 0.73800 0.76899 0.14599
 H2777 H 0.73809 0.80760 0.08209
 H2778 H 0.74207 0.78707 0.11079
 C2779 C 0.25572 0.33352 0.60795
 C2780 C 0.25185 0.32332 0.58757
 C2781 C 0.25705 0.33430 0.56815
 C2782 C 0.26631 0.35533 0.56882
 C2783 C 0.27047 0.36478 0.58943
 N2784 N 0.26510 0.35382 0.60820
 C2785 C 0.25087 0.32259 0.62922
 N2786 N 0.26034 0.33065 0.64778
 C2787 C 0.25774 0.32100 0.66777
 C2788 C 0.24526 0.30175 0.66988
 C2789 C 0.23464 0.29360 0.65116
 C2790 C 0.23722 0.30403 0.63090
 H2791 H 0.25401 0.32627 0.55254
 H2792 H 0.27754 0.38101 0.59063
 H2793 H 0.26615 0.32795 0.68178
 H2794 H 0.22460 0.27896 0.65209
 H2795 H 0.24528 0.30692 0.58637
 H2796 H 0.22863 0.29742 0.61688
 C2797 C 0.74174 0.15821 0.60747
 C2798 C 0.73024 0.13821 0.60647
 C2799 C 0.72616 0.12849 0.58604
 C2800 C 0.73340 0.13857 0.56654
 C2801 C 0.74471 0.15857 0.56825
 N2802 N 0.74844 0.16774 0.58830
 C2803 C 0.74596 0.16990 0.62852
 N2804 N 0.75113 0.19162 0.62783
 C2805 C 0.75439 0.20381 0.64631
 C2806 C 0.75225 0.19424 0.66723
 C2807 C 0.74764 0.17171 0.66833
 C2808 C 0.74462 0.15949 0.64911
 H2809 H 0.71744 0.11303 0.58552
 H2810 H 0.75023 0.16717 0.55366
 H2811 H 0.75801 0.22109 0.64461
 H2812 H 0.74608 0.16352 0.68407
 H2813 H 0.72398 0.13026 0.62111
 H2814 H 0.74130 0.14216 0.65059
 C2815 C 0.24415 0.66143 0.11025
 C2816 C 0.23154 0.64213 0.10903
 C2817 C 0.22713 0.63279 0.08852
 C2818 C 0.23510 0.64260 0.06916
 C2819 C 0.24749 0.66192 0.07108
 N2820 N 0.25154 0.67074 0.09122
 C2821 C 0.24877 0.67265 0.13143
 N2822 N 0.25452 0.69422 0.13107
 C2823 C 0.25802 0.70603 0.14975
 C2824 C 0.25547 0.69619 0.17050
 C2825 C 0.25037 0.67375 0.17124
 C2826 C 0.24714 0.66193 0.15183
 H2827 H 0.21763 0.61781 0.08782
 H2828 H 0.25368 0.67023 0.05657
 H2829 H 0.26205 0.72324 0.14833
 H2830 H 0.24852 0.66536 0.18684
 H2831 H 0.22471 0.63445 0.12357
 H2832 H 0.24339 0.64466 0.15299
 C2833 C 0.17295 0.60340 0.74323
 C2834 C 0.18047 0.58315 0.75115
 C2835 C 0.16868 0.56412 0.74655
 C2836 C 0.14924 0.56508 0.73429
 C2837 C 0.14212 0.58565 0.72690
 N2838 N 0.15395 0.60397 0.73152
 C2839 C 0.18484 0.62424 0.74725
 N2840 N 0.17393 0.64347 0.74423
 C2841 C 0.18373 0.66331 0.74679
 C2842 C 0.20602 0.66467 0.75255
 C2843 C 0.21758 0.64507 0.75591
 C2844 C 0.20713 0.62489 0.75321
 H2845 H 0.17491 0.54860 0.75243
 H2846 H 0.12705 0.58722 0.71770
 H2847 H 0.17413 0.67796 0.74397
 H2848 H 0.23484 0.64527 0.76014
 H2849 H 0.19511 0.58183 0.76101
 H2850 H 0.21675 0.61014 0.75517
 C2851 C 0.67256 0.10231 0.23837
 C2852 C 0.68122 0.08196 0.24475
 C2853 C 0.66980 0.06279 0.23993
 C2854 C 0.64954 0.06362 0.22906
 C2855 C 0.64144 0.08421 0.22287
 N2856 N 0.65295 0.10273 0.22768
 C2857 C 0.68389 0.12338 0.24306
 N2858 N 0.67254 0.14244 0.24048
 C2859 C 0.68183 0.16245 0.24368
 C2860 C 0.70402 0.16418 0.24972
 C2861 C 0.71595 0.14477 0.25281
 C2862 C 0.70606 0.12444 0.24941
 H2863 H 0.67683 0.04726 0.24480
 H2864 H 0.62577 0.08567 0.21470
 H2865 H 0.67197 0.17696 0.24104
 H2866 H 0.73317 0.14525 0.25718
 H2867 H 0.69641 0.08056 0.25370
 H2868 H 0.71610 0.10996 0.25114
 C2869 C 0.83513 0.10734 0.76039
 C2870 C 0.85517 0.10615 0.77173
 C2871 C 0.86460 0.08574 0.77595
 C2872 C 0.85414 0.06644 0.76906
 C2873 C 0.83404 0.06832 0.75802
 N2874 N 0.82517 0.08838 0.75410
 C2875 C 0.82401 0.12848 0.75574
 N2876 N 0.80211 0.12833 0.75116
 C2877 C 0.79050 0.14699 0.74743
 C2878 C 0.80090 0.16751 0.74839
 C2879 C 0.82361 0.16801 0.75240
 C2880 C 0.83521 0.14862 0.75595
 H2881 H 0.88020 0.08508 0.78437
 H2882 H 0.82523 0.05386 0.75271
 H2883 H 0.77305 0.14575 0.74429
 H2884 H 0.83243 0.18341 0.75303
 H2885 H 0.86343 0.12065 0.77768
 H2886 H 0.85271 0.14959 0.75873
 C2887 C 0.33734 0.60711 0.26002
 C2888 C 0.35779 0.60575 0.27058
 C2889 C 0.36753 0.58532 0.27383
 C2890 C 0.35699 0.56613 0.26679
 C2891 C 0.33656 0.56817 0.25637
 N2892 N 0.32737 0.58826 0.25340
 C2893 C 0.32580 0.62828 0.25669
 N2894 N 0.30373 0.62812 0.25294
 C2895 C 0.29182 0.64683 0.25045
 C2896 C 0.30210 0.66737 0.25194
 C2897 C 0.32493 0.66791 0.25518
 C2898 C 0.33682 0.64851 0.25741
 H2899 H 0.38337 0.58457 0.28180
 H2900 H 0.32767 0.55379 0.25098
 H2901 H 0.27428 0.64560 0.24784
 H2902 H 0.33366 0.68335 0.25607
 H2903 H 0.36611 0.62012 0.27676
 H2904 H 0.35441 0.64956 0.25954
 C2905 C 0.32923 0.39216 0.24625
 C2906 C 0.32132 0.41216 0.25474
 C2907 C 0.33220 0.43160 0.24961
 C2908 C 0.35129 0.43138 0.23640
 C2909 C 0.35897 0.41103 0.22862
 N2910 N 0.34790 0.39227 0.23363
 C2911 C 0.31779 0.37100 0.25034
 N2912 N 0.32852 0.35188 0.24572
 C2913 C 0.31886 0.33189 0.24817
 C2914 C 0.29692 0.33030 0.25551
 C2915 C 0.28565 0.34978 0.26058
 C2916 C 0.29588 0.37003 0.25793
 H2917 H 0.32544 0.44685 0.25582
 H2918 H 0.37382 0.40996 0.21872
 H2919 H 0.32820 0.31734 0.24397
 H2920 H 0.26865 0.34948 0.26607
 H2921 H 0.30700 0.41309 0.26535
 H2922 H 0.28627 0.38458 0.26119
 C2923 C 0.83046 0.89432 0.74101
 C2924 C 0.81979 0.91427 0.74573
 C2925 C 0.83050 0.93400 0.74148
 C2926 C 0.85172 0.93413 0.73224
 C2927 C 0.86161 0.91394 0.72710
 N2928 N 0.85092 0.89483 0.73161
 C2929 C 0.81988 0.87278 0.74539
 N2930 N 0.82785 0.85455 0.73501
 C2931 C 0.81854 0.83441 0.73756
 C2932 C 0.79979 0.83181 0.75100
 C2933 C 0.79173 0.85021 0.76240
 C2934 C 0.80179 0.87057 0.75983
 H2935 H 0.82211 0.94924 0.74524
 H2936 H 0.87799 0.91333 0.71998
 H2937 H 0.82534 0.82064 0.72851
 H2938 H 0.77754 0.84890 0.77324
 H2939 H 0.80323 0.91489 0.75232
 H2940 H 0.79533 0.88426 0.76919
 C2941 C 0.67195 0.89535 0.25806
 C2942 C 0.68018 0.91536 0.25009
 C2943 C 0.66860 0.93466 0.25418
 C2944 C 0.64856 0.93428 0.26585
 C2945 C 0.64080 0.91399 0.27349
 N2946 N 0.65248 0.89534 0.26942
 C2947 C 0.68362 0.87423 0.25431
 N2948 N 0.67258 0.85512 0.25786
 C2949 C 0.68222 0.83513 0.25523
 C2950 C 0.70441 0.83352 0.24871
 C2951 C 0.71606 0.85299 0.24485
 C2952 C 0.70586 0.87326 0.24775
 H2953 H 0.67540 0.94994 0.24818
 H2954 H 0.62529 0.91286 0.28231
 H2955 H 0.67259 0.82056 0.25850
 H2956 H 0.73328 0.85263 0.24012
 H2957 H 0.69518 0.91637 0.24048
 H2958 H 0.71568 0.88782 0.24538
 C2959 C 0.16980 0.39611 0.76012
 C2960 C 0.17797 0.41618 0.75226
 C2961 C 0.16606 0.43535 0.75598
 C2962 C 0.14575 0.43478 0.76717
 C2963 C 0.13803 0.41440 0.77464
 N2964 N 0.15004 0.39588 0.77094
 C2965 C 0.18188 0.37514 0.75684
 N2966 N 0.17096 0.35589 0.75999
 C2967 C 0.18092 0.33603 0.75768
 C2968 C 0.20332 0.33469 0.75191
 C2969 C 0.21488 0.35431 0.74854
 C2970 C 0.20435 0.37446 0.75111
 H2971 H 0.17287 0.45069 0.75016
 H2972 H 0.12234 0.41310 0.78310
 H2973 H 0.17134 0.32134 0.76054
 H2974 H 0.23225 0.35416 0.74439
 H2975 H 0.19321 0.41733 0.74305
 H2976 H 0.21405 0.38914 0.74912
 C2977 C 0.10828 0.76075 0.83409
 C2978 C 0.10684 0.77247 0.85405
 C2979 C 0.08625 0.77695 0.86341
 C2980 C 0.06700 0.77001 0.85294
 C2981 C 0.06912 0.75870 0.83282
 N2982 N 0.08936 0.75448 0.82404
 C2983 C 0.12969 0.75560 0.82325
 N2984 N 0.13013 0.75086 0.80129
 C2985 C 0.14918 0.74676 0.79002
 C2986 C 0.16946 0.74756 0.80088
 C2987 C 0.16929 0.75164 0.82366
 C2988 C 0.14955 0.75551 0.83488
 H2989 H 0.08544 0.78558 0.87901
 H2990 H 0.05471 0.75335 0.82398
 H2991 H 0.14848 0.74359 0.77250
 H2992 H 0.18448 0.75211 0.83283
 H2993 H 0.12130 0.77844 0.86235
 H2994 H 0.15004 0.75833 0.85245
 C2995 C 0.60836 0.25790 0.33189
 C2996 C 0.60723 0.26961 0.35187
 C2997 C 0.58677 0.27426 0.36142
 C2998 C 0.56737 0.26743 0.35114
 C2999 C 0.56920 0.25605 0.33105
 N3000 N 0.58930 0.25172 0.32206
 C3001 C 0.62957 0.25285 0.32067
 N3002 N 0.62960 0.24838 0.29866
 C3003 C 0.64844 0.24459 0.28698
 C3004 C 0.66892 0.24548 0.29743
 C3005 C 0.66920 0.24920 0.32026
 C3006 C 0.64964 0.25274 0.33193
 H3007 H 0.58616 0.28296 0.37699
 H3008 H 0.55466 0.25080 0.32236
 H3009 H 0.64741 0.24168 0.26942
 H3010 H 0.68457 0.24972 0.32911
 H3011 H 0.62182 0.27552 0.35998
 H3012 H 0.65044 0.25537 0.34951
 C3013 C 0.60634 0.74358 0.17069
 C3014 C 0.58588 0.75121 0.17845
 C3015 C 0.56686 0.74619 0.16683
 C3016 C 0.56803 0.73378 0.14732
 C3017 C 0.58880 0.72666 0.13998
 N3018 N 0.60711 0.73170 0.15164
 C3019 C 0.62720 0.74799 0.18241
 N3020 N 0.64653 0.74500 0.17131
 C3021 C 0.66642 0.74766 0.18098
 C3022 C 0.66774 0.75342 0.20336
 C3023 C 0.64803 0.75691 0.21509
 C3024 C 0.62779 0.75415 0.20476
 H3025 H 0.55117 0.75187 0.17325
 H3026 H 0.59054 0.71735 0.12487
 H3027 H 0.68114 0.74478 0.17123
 H3028 H 0.64821 0.76114 0.23242
 H3029 H 0.58437 0.76115 0.19315
 H3030 H 0.61297 0.75614 0.21451
 C3031 C 0.10519 0.24817 0.67084
 C3032 C 0.08451 0.25511 0.67875
 C3033 C 0.06570 0.25058 0.66654
 C3034 C 0.06729 0.23931 0.64637
 C3035 C 0.08827 0.23299 0.63889
 N3036 N 0.10635 0.23751 0.65110
 C3037 C 0.12590 0.25190 0.68311
 N3038 N 0.14536 0.24913 0.67219
 C3039 C 0.16513 0.25108 0.68222
 C3040 C 0.16624 0.25587 0.70485
 C3041 C 0.14641 0.25916 0.71644
 C3042 C 0.12626 0.25714 0.70571
 H3043 H 0.04984 0.25566 0.67304
 H3044 H 0.09037 0.22463 0.62326
 H3045 H 0.17994 0.24845 0.67253
 H3046 H 0.14643 0.26268 0.73394
 H3047 H 0.08268 0.26407 0.69403
 H3048 H 0.11133 0.25898 0.71532
 C3049 C 0.89528 0.25506 0.66536
 C3050 C 0.91541 0.24684 0.67300
 C3051 C 0.93489 0.25212 0.66196
 C3052 C 0.93459 0.26524 0.64301
 C3053 C 0.91411 0.27275 0.63560
 N3054 N 0.89530 0.26758 0.64680
 C3055 C 0.87406 0.25078 0.67699
 N3056 N 0.85485 0.25474 0.66633
 C3057 C 0.83479 0.25215 0.67617
 C3058 C 0.83322 0.24540 0.69825
 C3059 C 0.85281 0.24097 0.70945
 C3060 C 0.87314 0.24372 0.69901
 H3061 H 0.95025 0.24611 0.66849
 H3062 H 0.91298 0.28257 0.62085
 H3063 H 0.82016 0.25585 0.66688
 H3064 H 0.85253 0.23593 0.72653
 H3065 H 0.91638 0.23633 0.68723
 H3066 H 0.88778 0.24099 0.70854
 C3067 C 0.39727 0.75300 0.17008
 C3068 C 0.41768 0.74610 0.17822
 C3069 C 0.43686 0.75072 0.16639
 C3070 C 0.43593 0.76192 0.14626
 C3071 C 0.41522 0.76832 0.13853
 N3072 N 0.39672 0.76374 0.15044
 C3073 C 0.37629 0.74905 0.18211
 N3074 N 0.35704 0.75129 0.17105
 C3075 C 0.33707 0.74894 0.18102
 C3076 C 0.33560 0.74428 0.20364
 C3077 C 0.35522 0.74161 0.21532
 C3078 C 0.37551 0.74406 0.20470
 H3079 H 0.45247 0.74566 0.17314
 H3080 H 0.41367 0.77668 0.12293
 H3081 H 0.32240 0.75119 0.17133
 H3082 H 0.35494 0.73824 0.23282
 H3083 H 0.41905 0.73702 0.19339
 H3084 H 0.39022 0.74274 0.21444
 C3085 C 0.39117 0.24033 0.33630
 C3086 C 0.39286 0.22918 0.35646
 C3087 C 0.41354 0.22535 0.36546
 C3088 C 0.43263 0.23245 0.35445
 C3089 C 0.43025 0.24335 0.33426
 N3090 N 0.40994 0.24687 0.32581
 C3091 C 0.36974 0.24441 0.32556
 N3092 N 0.36949 0.24858 0.30353
 C3093 C 0.35051 0.25162 0.29225
 C3094 C 0.33009 0.25028 0.30317
 C3095 C 0.32999 0.24674 0.32602
 C3096 C 0.34968 0.24393 0.33726
 H3097 H 0.41458 0.21700 0.38112
 H3098 H 0.44454 0.24880 0.32503
 H3099 H 0.35142 0.25443 0.27467
 H3100 H 0.31467 0.24587 0.33522
 H3101 H 0.37853 0.22303 0.36512
 H3102 H 0.34901 0.24147 0.35487
 C3103 C 0.89241 0.74176 0.83489
 C3104 C 0.89356 0.73081 0.85521
 C3105 C 0.91402 0.72672 0.86461
 C3106 C 0.93341 0.73335 0.85384
 C3107 C 0.93157 0.74397 0.83344
 N3108 N 0.91146 0.74777 0.82461
 C3109 C 0.87118 0.74626 0.82387
 N3110 N 0.87118 0.74993 0.80174
 C3111 C 0.85236 0.75331 0.79028
 C3112 C 0.83184 0.75287 0.80111
 C3113 C 0.83153 0.74991 0.82405
 C3114 C 0.85107 0.74674 0.83546
 H3115 H 0.91463 0.71862 0.88043
 H3116 H 0.94611 0.74906 0.82440
 H3117 H 0.85344 0.75562 0.77264
 H3118 H 0.81615 0.74973 0.83319
 H3119 H 0.87897 0.72508 0.86372
 H3120 H 0.85024 0.74473 0.85313
   
