data_POSCAR
  _audit_creation_date              2014-09-24
  _audit_creation_method            'ToBaCCo'
  _symmetry_space_group_name_H-M    'P1'
  _symmetry_Int_Tables_number       1
  _symmetry_cell_setting            triclinic
  loop_
  _symmetry_equiv_pos_as_xyz
 x,y,z
_cell_length_a 42.7467
_cell_length_b 42.9209
_cell_length_c 37.8626
_cell_angle_alpha 89.351500
_cell_angle_beta 90.940500
_cell_angle_gamma 89.718000
loop_
  _atom_site_label
  _atom_site_type_symbol
  _atom_site_fract_x
  _atom_site_fract_y
  _atom_site_fract_z
C1 C 0.36515 0.01909 0.25296
 C2 C 0.13737 -0.01479 0.76678
 C3 C 0.63841 0.48399 0.25113
 C4 C 0.86613 0.51363 0.76002
 C5 C 0.26886 0.38418 1.00202
 C6 C 0.73243 0.11513 0.99424
 C7 C 0.23250 0.61425 0.48717
 C8 C 0.76762 0.89358 0.51047
 C9 C 0.00084 0.25188 0.37393
 C10 C -0.01081 0.74300 0.13488
 C11 C 0.49971 0.24992 0.62557
 C12 C 0.50024 0.75520 0.87516
 C13 C -0.23410 0.60986 0.99470
 C14 C -0.26769 0.38505 0.49374
 C15 C 0.23658 -0.11375 -0.02379
 C16 C 0.26914 1.11899 0.50119
 C17 C 0.13759 0.51832 0.26014
 C18 C -0.14021 0.98181 0.26029
 C19 C 0.36241 0.48328 -0.26287
 C20 C 0.64013 0.01546 -0.24570
 C21 C 0.00313 0.24372 0.88485
 C22 C 0.49803 0.25452 0.11859
 C23 C -0.00297 0.75031 0.61951
 C24 C 0.49905 0.75156 0.36954
 B25 B -0.02985 0.00795 1.03107
 B26 B -0.05646 0.00325 0.99774
 B27 B -0.02444 0.02597 0.99159
 B28 B 0.00636 0.00995 1.01320
 B29 B -0.00613 -0.02345 1.03210
 B30 B -0.04534 -0.02760 1.02322
 B31 B -0.01379 -0.02977 0.96080
 B32 B 0.01308 -0.02456 0.99361
 B33 B -0.01843 -0.04786 1.00050
 B34 B -0.04985 -0.03192 0.97879
 B35 B -0.03734 0.00165 0.95983
 B36 B 0.00171 0.00584 0.96868
 B37 B 0.46587 0.51956 0.51349
 B38 B 0.44408 0.50900 0.47782
 B39 B 0.47590 0.53230 0.47342
 B40 B 0.50419 0.52031 0.50203
 B41 B 0.48961 0.48966 0.52446
 B42 B 0.45231 0.48276 0.50987
 B43 B 0.49189 0.47353 0.45452
 B44 B 0.51369 0.48347 0.49048
 B45 B 0.48171 0.46065 0.49561
 B46 B 0.45382 0.47248 0.46644
 B47 B 0.46811 0.50393 0.44436
 B48 B 0.50562 0.51031 0.45878
 B49 B 0.53294 0.97579 0.52828
 B50 B 0.54810 0.98610 0.48881
 B51 B 0.51567 0.96350 0.49035
 B52 B 0.49321 0.97545 0.52420
 B53 B 0.51202 1.00593 0.54298
 B54 B 0.54603 1.01241 0.52120
 B55 B 0.49716 1.02252 0.47459
 B56 B 0.48235 1.01263 0.51437
 B57 B 0.51495 1.03487 0.51246
 B58 B 0.53693 1.02299 0.47859
 B59 B 0.51821 0.99240 0.45980
 B60 B 0.48411 0.98594 0.48178
 B61 B 0.02987 0.47272 1.03581
 B62 B 0.05178 0.48279 1.00059
 B63 B 0.02032 0.45938 0.99548
 B64 B -0.00817 0.47130 1.02260
 B65 B 0.00580 0.50288 1.04433
 B66 B 0.04325 0.50950 1.03106
 B67 B 0.00365 0.51791 0.97438
 B68 B -0.01811 0.50770 1.00947
 B69 B 0.01352 0.53122 1.01465
 B70 B 0.04183 0.51935 0.98736
 B71 B 0.02779 0.48790 0.96560
 B72 B -0.00955 0.48095 0.97886
 B73 B -0.00644 0.52164 0.46480
 B74 B 0.01706 0.51229 0.49952
 B75 B -0.01423 0.53603 0.50483
 B76 B -0.04397 0.52356 0.47862
 B77 B -0.03059 0.49144 0.45785
 B78 B 0.00723 0.48479 0.47042
 B79 B -0.02951 0.47847 0.52896
 B80 B -0.05291 0.48720 0.49341
 B81 B -0.02125 0.46394 0.48861
 B82 B 0.00812 0.47647 0.51464
 B83 B -0.00518 0.50841 0.53514
 B84 B -0.04341 0.51508 0.52263
 B85 B 0.50103 0.02873 -0.03728
 B86 B 0.51626 0.02103 0.00370
 B87 B 0.48388 0.04390 -0.00149
 B88 B 0.46122 0.02970 -0.03460
 B89 B 0.47984 -0.00233 -0.04987
 B90 B 0.51408 -0.00753 -0.02662
 B91 B 0.46576 -0.01339 0.01964
 B92 B 0.45026 -0.00643 -0.02099
 B93 B 0.48266 -0.02883 -0.01655
 B94 B 0.50520 -0.01483 0.01652
 B95 B 0.48683 0.01742 0.03183
 B96 B 0.45250 0.02242 0.00831
 B97 B 0.49949 0.47725 -0.04760
 B98 B 0.48348 0.48325 -0.00742
 B99 B 0.51585 0.46055 -0.01153
 B100 B 0.53919 0.47634 -0.04258
 B101 B 0.52072 0.50889 -0.05806
 B102 B 0.48621 0.51304 -0.03677
 B103 B 0.53344 0.51689 0.01277
 B104 B 0.54964 0.51195 -0.02727
 B105 B 0.51716 0.53393 -0.02400
 B106 B 0.49419 0.51830 0.00719
 B107 B 0.51246 0.48518 0.02257
 B108 B 0.54713 0.48185 0.00103
 B109 B 0.00512 0.98212 0.46891
 B110 B -0.01539 0.99156 0.50513
 B111 B 0.01570 0.96702 0.50829
 B112 B 0.04364 0.97919 0.47998
 B113 B 0.02919 1.01191 0.45979
 B114 B -0.00735 1.01917 0.47497
 B115 B 0.03441 1.02355 0.53069
 B116 B 0.05451 1.01512 0.49378
 B117 B 0.02312 1.03901 0.49094
 B118 B -0.00424 1.02685 0.51914
 B119 B 0.01000 0.99430 0.53913
 B120 B 0.04682 0.98682 0.52379
 B121 B 0.76726 0.21552 0.22666
 B122 B 0.75926 0.19726 0.26518
 B123 B 0.78227 0.22906 0.26511
 B124 B 0.76901 0.25453 0.23429
 B125 B 0.73706 0.23860 0.21516
 B126 B 0.73084 0.20265 0.23425
 B127 B 0.72421 0.24648 0.28494
 B128 B 0.73298 0.26527 0.24694
 B129 B 0.70953 0.23356 0.24629
 B130 B 0.72280 0.20773 0.27748
 B131 B 0.75522 0.22384 0.29661
 B132 B 0.76104 0.25945 0.27807
 B133 B 0.72919 0.77899 0.72925
 B134 B 0.74075 0.80089 0.76401
 B135 B 0.71768 0.76930 0.76994
 B136 B 0.72866 0.74089 0.74233
 B137 B 0.75883 0.75515 0.71915
 B138 B 0.76615 0.79243 0.73212
 B139 B 0.77724 0.75339 0.78870
 B140 B 0.76598 0.73135 0.75384
 B141 B 0.78865 0.76324 0.74736
 B142 B 0.77778 0.79127 0.77547
 B143 B 0.74710 0.77712 0.79856
 B144 B 0.74016 0.73968 0.78561
 B145 B 0.27796 0.24898 0.79224
 B146 B 0.26718 0.26759 0.75421
 B147 B 0.29090 0.23571 0.75335
 B148 B 0.27915 0.20990 0.78483
 B149 B 0.24777 0.22633 0.80468
 B150 B 0.24071 0.26201 0.78612
 B151 B 0.23253 0.21813 0.73444
 B152 B 0.24206 0.19956 0.77296
 B153 B 0.21914 0.23153 0.77366
 B154 B 0.23075 0.25696 0.74265
 B155 B 0.26211 0.24095 0.72315
 B156 B 0.26920 0.20485 0.74167
 B157 B 0.22572 0.75874 0.27847
 B158 B 0.23396 0.73618 0.24364
 B159 B 0.20980 0.76741 0.23869
 B160 B 0.22321 0.79645 0.26476
 B161 B 0.25620 0.78266 0.28518
 B162 B 0.26254 0.74536 0.27247
 B163 B 0.26678 0.78343 0.21402
 B164 B 0.25926 0.80582 0.24962
 B165 B 0.28287 0.77420 0.25415
 B166 B 0.26939 0.74561 0.22814
 B167 B 0.23646 0.75929 0.20786
 B168 B 0.23016 0.79703 0.22065
 B169 B 0.27464 0.72481 0.70929
 B170 B 0.26458 0.70008 0.74239
 B171 B 0.28821 0.73080 0.75066
 B172 B 0.27625 0.76151 0.72555
 B173 B 0.24449 0.74968 0.70207
 B174 B 0.23766 0.71135 0.71201
 B175 B 0.22969 0.74557 0.77152
 B176 B 0.23976 0.77035 0.73867
 B177 B 0.21623 0.73945 0.73034
 B178 B 0.22809 0.70888 0.75546
 B179 B 0.25969 0.72083 0.77904
 B180 B 0.26673 0.75903 0.76901
 B181 B 0.23035 0.28617 0.22963
 B182 B 0.24178 0.30625 0.26589
 B183 B 0.21866 0.27426 0.26948
 B184 B 0.22999 0.24747 0.24011
 B185 B 0.26007 0.26318 0.21793
 B186 B 0.26736 0.29960 0.23353
 B187 B 0.27830 0.25769 0.28765
 B188 B 0.26731 0.23754 0.25123
 B189 B 0.28996 0.26969 0.24682
 B190 B 0.27883 0.29613 0.27683
 B191 B 0.24795 0.28072 0.29874
 B192 B 0.24128 0.24406 0.28331
 B193 B 0.75938 0.74751 0.30018
 B194 B 0.75482 0.76718 0.26188
 B195 B 0.78348 0.74006 0.26533
 B196 B 0.77074 0.71044 0.29091
 B197 B 0.73303 0.71883 0.30189
 B198 B 0.72293 0.75389 0.28339
 B199 B 0.73471 0.71473 0.22959
 B200 B 0.74069 0.69436 0.26818
 B201 B 0.71134 0.72117 0.26381
 B202 B 0.72437 0.75177 0.23906
 B203 B 0.76174 0.74313 0.22834
 B204 B 0.77136 0.70748 0.24562
 B205 B 0.72967 0.25020 0.78229
 B206 B 0.74019 0.23019 0.74609
 B207 B 0.71670 0.26212 0.74232
 B208 B 0.72865 0.28886 0.77217
 B209 B 0.75997 0.27303 0.79419
 B210 B 0.76678 0.23677 0.77834
 B211 B 0.77520 0.27888 0.72403
 B212 B 0.76566 0.29868 0.76094
 B213 B 0.78855 0.26661 0.76451
 B214 B 0.77659 0.24028 0.73483
 B215 B 0.74514 0.25578 0.71325
 B216 B 0.73846 0.29249 0.72899
 C217 C 0.42137 1.03976 0.34786
 C218 C 0.43585 1.04216 0.31510
 C219 C 0.41808 1.03667 0.28410
 C220 C 0.38651 1.02623 0.28574
 C221 C 0.37234 1.02623 0.31923
 C222 C 0.38949 1.03254 0.35005
 C223 C 0.44011 1.04371 0.38064
 C224 C 0.42558 1.03977 0.41307
 C225 C 0.44387 1.03810 0.44373
 C226 C 0.47693 1.04007 0.44333
 C227 C 0.49085 1.04743 0.41053
 C228 C 0.47253 1.04861 0.37898
 C229 C 0.37543 1.03083 0.38320
 C230 C 0.39319 1.03432 0.41423
 C231 C 0.46798 1.04935 0.31419
 C232 C 0.48604 1.05219 0.34554
 H233 H 0.35073 1.02567 0.38524
 H234 H 0.38170 1.03149 0.43937
 H235 H 0.47953 1.05162 0.28905
 H236 H 0.51094 1.05630 0.34352
 H237 H 0.42901 1.04113 0.25906
 H238 H 0.34769 1.02099 0.32142
 H239 H 0.43178 1.03047 0.46652
 H240 H 0.51609 1.04873 0.40891
 C241 C -0.07005 0.53036 0.84946
 C242 C -0.05956 0.51322 0.82071
 C243 C -0.08062 0.50569 0.79363
 C244 C -0.11118 0.51857 0.79215
 C245 C -0.12161 0.53469 0.82240
 C246 C -0.10123 0.54041 0.85115
 C247 C -0.04840 0.53611 0.87932
 C248 C -0.05966 0.54970 0.91015
 C249 C -0.04013 0.55031 0.94039
 C250 C -0.01018 0.53625 0.94008
 C251 C 0.00235 0.52842 0.90701
 C252 C -0.01723 0.52609 0.87730
 C253 C -0.11132 0.55567 0.88169
 C254 C -0.09099 0.55989 0.91088
 C255 C -0.02808 0.50385 0.81945
 C256 C -0.00706 0.51082 0.84694
 H257 H -0.13535 0.56358 0.88347
 H258 H -0.10007 0.57050 0.93448
 H259 H -0.01962 0.49100 0.79703
 H260 H 0.01691 0.50273 0.84524
 H261 H -0.07245 0.49031 0.77339
 H262 H -0.14561 0.54281 0.82352
 H263 H -0.04929 0.55938 0.96449
 H264 H 0.02604 0.51956 0.90531
 C265 C 0.06451 -0.03153 0.84418
 C266 C 0.08934 -0.05285 0.84280
 C267 C 0.11406 -0.04693 0.81953
 C268 C 0.11380 -0.01993 0.79727
 C269 C 0.08994 0.00242 0.80259
 C270 C 0.06465 -0.00393 0.82415
 C271 C 0.03813 -0.03770 0.86770
 C272 C 0.01311 -0.01660 0.86816
 C273 C -0.01004 -0.02059 0.89317
 C274 C -0.00546 -0.04206 0.92155
 C275 C 0.01555 -0.06685 0.91606
 C276 C 0.03869 -0.06400 0.89005
 C277 C 0.03891 0.01646 0.82498
 C278 C 0.01326 0.00995 0.84619
 C279 C 0.08850 -0.07988 0.86425
 C280 C 0.06361 -0.08534 0.88751
 H281 H 0.03857 0.03761 0.80906
 H282 H -0.00592 0.02654 0.84663
 H283 H 0.10738 -0.09677 0.86336
 H284 H 0.06432 -0.10596 0.90424
 H285 H 0.13294 -0.06375 0.81857
 H286 H 0.08900 0.02367 0.78724
 H287 H -0.02851 -0.00329 0.89354
 H288 H 0.01497 -0.08721 0.93284
 C289 C 0.57086 0.46706 0.33557
 C290 C 0.59840 0.44939 0.33559
 C291 C 0.61999 0.45437 0.30835
 C292 C 0.61522 0.47844 0.28237
 C293 C 0.58982 0.49906 0.28768
 C294 C 0.56607 0.49150 0.31124
 C295 C 0.54702 0.46077 0.36240
 C296 C 0.51830 0.47629 0.35989
 C297 C 0.49622 0.47113 0.38597
 C298 C 0.50525 0.45717 0.41885
 C299 C 0.53262 0.43850 0.41902
 C300 C 0.55364 0.44013 0.39055
 C301 C 0.53728 0.50738 0.31031
 C302 C 0.51328 0.49899 0.33332
 C303 C 0.60360 0.42723 0.36289
 C304 C 0.58200 0.42329 0.39043
 H305 H 0.53297 0.52584 0.29106
 H306 H 0.49128 0.51163 0.33162
 H307 H 0.62494 0.41350 0.36358
 H308 H 0.58761 0.40711 0.41180
 H309 H 0.64057 0.43969 0.30814
 H310 H 0.58743 0.52007 0.27171
 H311 H 0.47380 0.48269 0.38255
 H312 H 0.53827 0.42378 0.44130
 C313 C 0.59368 0.51320 0.14959
 C314 C 0.62581 0.50710 0.15174
 C315 C 0.63911 0.49661 0.18380
 C316 C 0.62131 0.49299 0.21491
 C317 C 0.58819 0.49511 0.20994
 C318 C 0.57460 0.50698 0.17843
 C319 C 0.57928 0.52274 0.11535
 C320 C 0.54680 0.52719 0.11261
 C321 C 0.53288 0.53289 0.07916
 C322 C 0.55062 0.53006 0.04803
 C323 C 0.58352 0.52696 0.05200
 C324 C 0.59789 0.52392 0.08531
 C325 C 0.54212 0.51199 0.17488
 C326 C 0.52856 0.52254 0.14278
 C327 C 0.64402 0.51051 0.12141
 C328 C 0.63026 0.51853 0.08869
 H329 H 0.52701 0.50750 0.19705
 H330 H 0.50339 0.52549 0.14110
 H331 H 0.66898 0.50600 0.12274
 H332 H 0.64494 0.51956 0.06564
 H333 H 0.66304 0.48910 0.18320
 H334 H 0.57223 0.48635 0.22928
 H335 H 0.50761 0.53469 0.07725
 H336 H 0.59801 0.52236 0.02973
 C337 C 0.09237 1.01210 0.66687
 C338 C 0.12504 1.00895 0.66938
 C339 C 0.13878 0.99787 0.70086
 C340 C 0.12028 0.98981 0.73017
 C341 C 0.08723 0.98946 0.72520
 C342 C 0.07328 1.00220 0.69443
 C343 C 0.07785 1.02445 0.63396
 C344 C 0.04520 1.02737 0.63098
 C345 C 0.03150 1.03590 0.59810
 C346 C 0.04984 1.03671 0.56717
 C347 C 0.08279 1.03572 0.57205
 C348 C 0.09680 1.03040 0.60505
 C349 C 0.04062 1.00574 0.69085
 C350 C 0.02686 1.01859 0.65991
 C351 C 0.14341 1.01731 0.64048
 C352 C 0.12948 1.02736 0.60862
 H353 H 0.02555 0.99853 0.71215
 H354 H 0.00160 1.02036 0.65805
 H355 H 0.16866 1.01517 0.64215
 H356 H 0.14438 1.03210 0.58632
 H357 H 0.16408 0.99709 0.70346
 H358 H 0.07205 0.98034 0.74528
 H359 H 0.00619 1.03651 0.59571
 H360 H 0.09833 1.03371 0.55056
 C361 C -0.08674 0.48858 0.66273
 C362 C -0.07029 0.50600 0.68788
 C363 C -0.08631 0.51787 0.71689
 C364 C -0.11751 0.50870 0.72377
 C365 C -0.13416 0.49347 0.69632
 C366 C -0.11890 0.48324 0.66600
 C367 C -0.07022 0.47682 0.63162
 C368 C -0.08733 0.46270 0.60449
 C369 C -0.07256 0.45649 0.57252
 C370 C -0.04083 0.46418 0.56703
 C371 C -0.02298 0.47223 0.59763
 C372 C -0.03796 0.48137 0.62868
 C373 C -0.13499 0.46729 0.63914
 C374 C -0.11957 0.45759 0.60865
 C375 C -0.03794 0.51044 0.68399
 C376 C -0.02192 0.49771 0.65533
 H377 H -0.15983 0.46286 0.64133
 H378 H -0.13309 0.44649 0.58791
 H379 H -0.02482 0.52355 0.70347
 H380 H 0.00296 0.50189 0.65324
 H381 H -0.07368 0.53279 0.73490
 H382 H -0.15875 0.48826 0.69945
 H383 H -0.08724 0.44854 0.55180
 H384 H 0.00187 0.47663 0.59557
 C385 C 0.40626 -0.01040 0.15318
 C386 C 0.42488 -0.01214 0.18386
 C387 C 0.41251 -0.00205 0.21600
 C388 C 0.38192 0.01111 0.21773
 C389 C 0.36360 0.01149 0.18619
 C390 C 0.37558 0.00116 0.15416
 C391 C 0.41934 -0.02022 0.11915
 C392 C 0.40100 -0.01707 0.08839
 C393 C 0.41483 -0.02141 0.05565
 C394 C 0.44726 -0.02787 0.05294
 C395 C 0.46420 -0.03509 0.08447
 C396 C 0.45057 -0.03033 0.11766
 C397 C 0.35739 0.00232 0.12296
 C398 C 0.36992 -0.00653 0.09059
 C399 C 0.45553 -0.02409 0.18179
 C400 C 0.46821 -0.03282 0.14926
 H401 H 0.33353 0.01092 0.12340
 H402 H 0.35547 -0.00413 0.06692
 H403 H 0.47014 -0.02589 0.20538
 H404 H 0.49232 -0.04069 0.14871
 H405 H 0.42644 -0.00632 0.23959
 H406 H 0.33949 0.01931 0.18663
 H407 H 0.40099 -0.01477 0.03276
 H408 H 0.48901 -0.04021 0.08340
 C409 C 0.35778 0.43294 0.01258
 C410 C 0.33270 0.44758 -0.00538
 C411 C 0.30386 0.43238 -0.00790
 C412 C 0.29915 0.40306 0.00865
 C413 C 0.32485 0.38891 0.02685
 C414 C 0.35415 0.40365 0.02875
 C415 C 0.38891 0.44775 0.01257
 C416 C 0.41462 0.43222 0.02833
 C417 C 0.44468 0.44514 0.02525
 C418 C 0.44924 0.47235 0.00473
 C419 C 0.42257 0.48917 -0.00754
 C420 C 0.39259 0.47655 -0.00467
 C421 C 0.38021 0.38927 0.04540
 C422 C 0.40991 0.40330 0.04520
 C423 C 0.33721 0.47677 -0.02161
 C424 C 0.36657 0.49117 -0.02094
 H425 H 0.37779 0.36665 0.05800
 H426 H 0.42950 0.39098 0.05750
 H427 H 0.31799 0.48836 -0.03546
 H428 H 0.36918 0.51338 -0.03444
 H429 H 0.28550 0.44306 -0.02396
 H430 H 0.32228 0.36586 0.03837
 H431 H 0.46447 0.43329 0.03751
 H432 H 0.42512 0.51085 -0.02208
 C433 C -0.14466 0.94489 0.51737
 C434 C -0.16681 0.95270 0.49098
 C435 C -0.19587 0.93748 0.49040
 C436 C -0.20349 0.91474 0.51631
 C437 C -0.18075 0.90787 0.54305
 C438 C -0.15149 0.92274 0.54361
 C439 C -0.11308 0.95887 0.51634
 C440 C -0.09032 0.94971 0.54154
 C441 C -0.05979 0.96152 0.53910
 C442 C -0.05142 0.98151 0.51098
 C443 C -0.07532 0.99192 0.48724
 C444 C -0.10593 0.98028 0.48945
 C445 C -0.12833 0.91488 0.56905
 C446 C -0.09833 0.92812 0.56805
 C447 C -0.15898 0.97474 0.46485
 C448 C -0.12919 0.98848 0.46429
 H449 H -0.13324 0.89784 0.58952
 H450 H -0.08104 0.92087 0.58776
 H451 H -0.17584 0.98104 0.44429
 H452 H -0.12399 1.00488 0.44324
 H453 H -0.21209 0.94234 0.46875
 H454 H -0.18481 0.88967 0.56240
 H455 H -0.04264 0.95467 0.55889
 H456 H -0.06986 1.00772 0.46574
 C457 C -0.18047 0.06478 0.97944
 C458 C -0.18141 0.09739 0.97922
 C459 C -0.21025 0.11260 0.97774
 C460 C -0.23860 0.09604 0.98110
 C461 C -0.23710 0.06354 0.97416
 C462 C -0.20798 0.04756 0.97536
 C463 C -0.15008 0.04861 0.98413
 C464 C -0.14848 0.01592 0.98408
 C465 C -0.11899 0.00094 0.98944
 C466 C -0.09153 0.01868 0.99571
 C467 C -0.09490 0.05140 0.99626
 C468 C -0.12326 0.06635 0.98963
 C469 C -0.20561 0.01479 0.97410
 C470 C -0.17645 -0.00072 0.97845
 C471 C -0.15362 0.11432 0.98293
 C472 C -0.12504 0.09904 0.98861
 H473 H -0.22656 0.00096 0.97076
 H474 H -0.17590 -0.02594 0.97794
 H475 H -0.15412 0.13957 0.98285
 H476 H -0.10416 0.11292 0.99238
 H477 H -0.21035 0.13771 0.97696
 H478 H -0.25777 0.05059 0.96723
 H479 H -0.11747 -0.02424 0.98851
 H480 H -0.07582 0.06615 1.00345
 C481 C 0.31645 0.55923 0.46634
 C482 C 0.29276 0.54606 0.48669
 C483 C 0.26466 0.56266 0.49089
 C484 C 0.26029 0.59295 0.47592
 C485 C 0.28423 0.60459 0.45397
 C486 C 0.31207 0.58804 0.44921
 C487 C 0.34724 0.54364 0.46487
 C488 C 0.37127 0.55774 0.44587
 C489 C 0.40125 0.54471 0.44744
 C490 C 0.40826 0.51901 0.46956
 C491 C 0.38311 0.50343 0.48604
 C492 C 0.35260 0.51594 0.48407
 C493 C 0.33630 0.60066 0.42900
 C494 C 0.36538 0.58564 0.42718
 C495 C 0.29836 0.51734 0.50403
 C496 C 0.32775 0.50251 0.50269
 H497 H 0.33309 0.62279 0.41533
 H498 H 0.38379 0.59663 0.41223
 H499 H 0.28022 0.50676 0.51974
 H500 H 0.33142 0.48103 0.51751
 H501 H 0.24723 0.55299 0.50825
 H502 H 0.28241 0.62720 0.44150
 H503 H 0.41899 0.55553 0.43223
 H504 H 0.38750 0.48291 0.50231
 C505 C 0.14442 0.56380 0.49978
 C506 C 0.16546 0.55452 0.47392
 C507 C 0.19446 0.56949 0.47158
 C508 C 0.20236 0.59484 0.49376
 C509 C 0.18059 0.60334 0.51991
 C510 C 0.15197 0.58776 0.52323
 C511 C 0.11343 0.54888 0.50159
 C512 C 0.09236 0.55824 0.52744
 C513 C 0.06256 0.54480 0.52827
 C514 C 0.05286 0.52355 0.50225
 C515 C 0.07502 0.51339 0.47745
 C516 C 0.10520 0.52610 0.47691
 C517 C 0.13034 0.59626 0.54904
 C518 C 0.10115 0.58156 0.55132
 C519 C 0.15665 0.53112 0.45008
 C520 C 0.12697 0.51727 0.45143
 H521 H 0.13589 0.61464 0.56745
 H522 H 0.08504 0.58907 0.57137
 H523 H 0.17259 0.52388 0.42976
 H524 H 0.12088 0.49982 0.43205
 H525 H 0.21024 0.56253 0.45096
 H526 H 0.18517 0.62249 0.53744
 H527 H 0.04698 0.55143 0.54890
 H528 H 0.06852 0.49663 0.45750
 C529 C 0.64216 0.07144 0.01748
 C530 C 0.64538 0.10383 0.01791
 C531 C 0.67469 0.11688 0.01113
 C532 C 0.70135 0.09809 0.00422
 C533 C 0.69802 0.06553 0.00995
 C534 C 0.66828 0.05206 0.01367
 C535 C 0.61080 0.05760 0.02098
 C536 C 0.60708 0.02537 0.01725
 C537 C 0.57665 0.01304 0.01520
 C538 C 0.55009 0.03274 0.01780
 C539 C 0.55499 0.06407 0.02730
 C540 C 0.58498 0.07703 0.02661
 C541 C 0.66400 0.01957 0.01300
 C542 C 0.63385 0.00651 0.01383
 C543 C 0.61906 0.12258 0.02433
 C544 C 0.58942 0.10936 0.02915
 H545 H 0.68397 0.00422 0.01013
 H546 H 0.63148 -0.01849 0.01141
 H547 H 0.62129 0.14770 0.02517
 H548 H 0.56962 0.12468 0.03331
 H549 H 0.67664 0.14198 0.01110
 H550 H 0.71794 0.05045 0.01359
 H551 H 0.57376 -0.01144 0.00935
 H552 H 0.53574 0.07915 0.03291
 C553 C 0.67606 0.93683 0.48844
 C554 C 0.68022 0.90448 0.48823
 C555 C 0.70975 0.89196 0.49525
 C556 C 0.73585 0.91095 0.50337
 C557 C 0.73096 0.94369 0.50470
 C558 C 0.70110 0.95670 0.49653
 C559 C 0.64440 0.94989 0.48171
 C560 C 0.63954 0.98220 0.48250
 C561 C 0.60868 0.99412 0.47894
 C562 C 0.58259 0.97369 0.47791
 C563 C 0.58880 0.94137 0.47669
 C564 C 0.61921 0.92952 0.47741
 C565 C 0.69549 0.98908 0.49664
 C566 C 0.66538 1.00158 0.48943
 C567 C 0.65464 0.88495 0.48167
 C568 C 0.62453 0.89723 0.47690
 H569 H 0.71445 1.00492 0.50265
 H570 H 0.66212 1.02660 0.49045
 H571 H 0.65774 0.85987 0.48134
 H572 H 0.60517 0.88130 0.47335
 H573 H 0.71265 0.86689 0.49425
 H574 H 0.74984 0.95904 0.51216
 H575 H 0.60491 1.01901 0.48096
 H576 H 0.57073 0.92458 0.47995
 C577 C 0.18083 0.43465 0.98916
 C578 C 0.18647 0.40865 0.96795
 C579 C 0.21585 0.39377 0.96977
 C580 C 0.24006 0.40496 0.99218
 C581 C 0.23385 0.43214 1.01205
 C582 C 0.20444 0.44670 1.01099
 C583 C 0.14913 0.44848 0.99000
 C584 C 0.14299 0.47327 1.01280
 C585 C 0.11230 0.48495 1.01512
 C586 C 0.08756 0.47171 0.99515
 C587 C 0.09498 0.44829 0.97076
 C588 C 0.12531 0.43598 0.96879
 C589 C 0.19774 0.47218 1.03271
 C590 C 0.16754 0.48518 1.03367
 C591 C 0.16204 0.39715 0.94655
 C592 C 0.13208 0.41075 0.94673
 H593 H 0.21582 0.48170 1.04975
 H594 H 0.16324 0.50434 1.05138
 H595 H 0.16599 0.37717 0.92994
 H596 H 0.11381 0.40084 0.93023
 H597 H 0.21913 0.37244 0.95526
 H598 H 0.25142 0.44111 1.03006
 H599 H 0.10760 0.50348 1.03350
 H600 H 0.07741 0.43925 0.95332
 C601 C -0.01675 0.33859 0.43009
 C602 C -0.02970 0.33400 0.39637
 C603 C -0.02486 0.30577 0.37957
 C604 C -0.00771 0.28115 0.39594
 C605 C 0.00498 0.28668 0.43035
 C606 C 0.00044 0.31508 0.44741
 C607 C -0.01966 0.36926 0.44655
 C608 C -0.00539 0.37461 0.47964
 C609 C -0.00687 0.40456 0.49417
 C610 C -0.02194 0.42893 0.47526
 C611 C -0.03658 0.42259 0.44240
 C612 C -0.03553 0.39307 0.42806
 C613 C 0.01383 0.32087 0.48089
 C614 C 0.01088 0.35014 0.49680
 C615 C -0.04629 0.35822 0.37922
 C616 C -0.04923 0.38733 0.39489
 H617 H 0.02715 0.30280 0.49465
 H618 H 0.02200 0.35382 0.52233
 H619 H -0.05653 0.35483 0.35319
 H620 H -0.06169 0.40568 0.38056
 H621 H -0.03367 0.30411 0.35298
 H622 H 0.01998 0.26976 0.44359
 H623 H 0.00435 0.40904 0.51946
 H624 H -0.04892 0.44061 0.42749
 C625 C 0.48556 -0.15663 -0.07079
 C626 C 0.47303 -0.16152 -0.10463
 C627 C 0.47675 -0.19036 -0.12032
 C628 C 0.49218 -0.21547 -0.10275
 C629 C 0.50406 -0.21005 -0.06798
 C630 C 0.50093 -0.18066 -0.05209
 C631 C 0.48408 -0.12517 -0.05570
 C632 C 0.49784 -0.11939 -0.02246
 C633 C 0.49720 -0.08880 -0.00901
 C634 C 0.48329 -0.06438 -0.02915
 C635 C 0.46974 -0.07123 -0.06244
 C636 C 0.46985 -0.10120 -0.07558
 C637 C 0.51401 -0.17431 -0.01854
 C638 C 0.51242 -0.14425 -0.00396
 C639 C 0.45811 -0.13703 -0.12317
 C640 C 0.45644 -0.10733 -0.10879
 H641 H 0.52600 -0.19261 -0.00365
 H642 H 0.52312 -0.14035 0.02173
 H643 H 0.44816 -0.14072 -0.14929
 H644 H 0.44515 -0.08886 -0.12413
 H645 H 0.46866 -0.19233 -0.14727
 H646 H 0.51789 -0.22761 -0.05415
 H647 H 0.50779 -0.08399 0.01653
 H648 H 0.45850 -0.05326 -0.07850
 C649 C -0.01127 -0.17233 1.06744
 C650 C 0.01286 -0.17753 1.09225
 C651 C 0.01284 -0.20441 1.11303
 C652 C -0.01038 -0.22778 1.10913
 C653 C -0.03508 -0.22137 1.08421
 C654 C -0.03541 -0.19392 1.06317
 C655 C -0.01218 -0.14263 1.04734
 C656 C -0.03696 -0.13616 1.02346
 C657 C -0.03822 -0.10677 1.00585
 C658 C -0.01524 -0.08394 1.01305
 C659 C 0.00875 -0.09149 1.03797
 C660 C 0.01092 -0.12050 1.05414
 C661 C -0.05975 -0.18705 1.03867
 C662 C -0.06041 -0.15880 1.01907
 C663 C 0.03629 -0.15516 1.09706
 C664 C 0.03530 -0.12705 1.07833
 H665 H -0.07863 -0.20347 1.03489
 H666 H -0.07981 -0.15439 1.00091
 H667 H 0.05520 -0.15911 1.11603
 H668 H 0.05343 -0.11003 1.08336
 H669 H 0.03080 -0.20577 1.13334
 H670 H -0.05470 -0.23720 1.08237
 H671 H -0.05766 -0.10123 0.98812
 H672 H 0.02610 -0.07447 1.04564
 C673 C 0.48699 0.33805 0.56750
 C674 C 0.48030 0.31055 0.54947
 C675 C 0.48284 0.28182 0.56781
 C676 C 0.49458 0.28032 0.60323
 C677 C 0.49858 0.30886 0.62094
 C678 C 0.49541 0.33735 0.60341
 C679 C 0.48445 0.36830 0.54882
 C680 C 0.49031 0.39545 0.56771
 C681 C 0.48842 0.42398 0.55042
 C682 C 0.48136 0.42644 0.51375
 C683 C 0.47490 0.39883 0.49501
 C684 C 0.47623 0.36955 0.51270
 C685 C 0.50078 0.36521 0.62138
 C686 C 0.49825 0.39384 0.60380
 C687 C 0.47126 0.31250 0.51353
 C688 C 0.46959 0.34143 0.49540
 H689 H 0.50719 0.36488 0.64919
 H690 H 0.50277 0.41489 0.61854
 H691 H 0.46589 0.29147 0.49914
 H692 H 0.46295 0.34177 0.46766
 H693 H 0.47465 0.26121 0.55454
 H694 H 0.50421 0.30913 0.64884
 H695 H 0.49326 0.44416 0.56634
 H696 H 0.46919 0.40012 0.46704
 C697 C 0.51143 1.15956 0.57475
 C698 C 0.51469 1.18637 0.55382
 C699 C 0.51191 1.21579 0.56959
 C700 C 0.50317 1.21860 0.60553
 C701 C 0.50175 1.19086 0.62596
 C702 C 0.50566 1.16167 0.61095
 C703 C 0.51485 1.12861 0.55877
 C704 C 0.51270 1.10214 0.58040
 C705 C 0.51496 1.07288 0.56543
 C706 C 0.51810 1.06925 0.52853
 C707 C 0.52146 1.09616 0.50712
 C708 C 0.51999 1.12605 0.52233
 C709 C 0.50397 1.13452 0.63174
 C710 C 0.50754 1.10519 0.61671
 C711 C 0.52090 1.18312 0.51761
 C712 C 0.52307 1.15350 0.50205
 H713 H 0.49974 1.13594 0.65983
 H714 H 0.50589 1.08472 0.63359
 H715 H 0.52355 1.20364 0.50104
 H716 H 0.52725 1.15211 0.47398
 H717 H 0.51816 1.23594 0.55403
 H718 H 0.49811 1.19189 0.65411
 H719 H 0.51276 1.05307 0.58306
 H720 H 0.52415 1.09388 0.47886
 C721 C -0.00376 0.65334 1.08006
 C722 C -0.01238 0.67967 1.06008
 C723 C -0.01621 0.70846 1.07719
 C724 C -0.01236 0.71118 1.11459
 C725 C -0.00355 0.68357 1.13332
 C726 C 0.00062 0.65515 1.11664
 C727 C 0.00251 0.62362 1.06225
 C728 C 0.01294 0.59807 1.08251
 C729 C 0.01875 0.56999 1.06604
 C730 C 0.01286 0.56614 1.02945
 C731 C 0.00366 0.59245 1.00898
 C732 C -0.00147 0.62141 1.02543
 C733 C 0.01074 0.62881 1.13601
 C734 C 0.01687 0.60072 1.11920
 C735 C -0.01585 0.67685 1.02315
 C736 C -0.01079 0.64820 1.00619
 H737 H 0.01426 0.63000 1.16437
 H738 H 0.02473 0.58091 1.13506
 H739 H -0.02245 0.69699 1.00716
 H740 H -0.01389 0.64712 0.97777
 H741 H -0.02026 0.72834 1.06030
 H742 H 0.00393 0.68445 1.16058
 H743 H 0.02657 0.55064 1.08259
 H744 H -0.00023 0.59031 0.98082
 C745 C 0.51406 0.66423 -0.07369
 C746 C 0.52668 0.67075 -0.10680
 C747 C 0.52306 0.70034 -0.12149
 C748 C 0.50781 0.72467 -0.10352
 C749 C 0.49568 0.71756 -0.06957
 C750 C 0.49863 0.68736 -0.05473
 C751 C 0.51546 0.63206 -0.05975
 C752 C 0.50159 0.62466 -0.02734
 C753 C 0.50232 0.59345 -0.01496
 C754 C 0.51643 0.57005 -0.03535
 C755 C 0.53000 0.57850 -0.06783
 C756 C 0.52978 0.60907 -0.07991
 C757 C 0.48532 0.67935 -0.02208
 C758 C 0.48685 0.64859 -0.00859
 C759 C 0.54160 0.64718 -0.12566
 C760 C 0.54322 0.61680 -0.11235
 H761 H 0.47323 0.69690 -0.00706
 H762 H 0.47598 0.64342 0.01643
 H763 H 0.55164 0.65213 -0.15120
 H764 H 0.55453 0.59909 -0.12791
 H765 H 0.53110 0.70361 -0.14808
 H766 H 0.48166 0.73443 -0.05583
 H767 H 0.49167 0.58741 0.00994
 H768 H 0.54131 0.56133 -0.08408
 C769 C 0.01977 1.16529 0.43188
 C770 C 0.03222 1.17017 0.39826
 C771 C 0.02679 1.19843 0.38084
 C772 C 0.00972 1.22268 0.39673
 C773 C -0.00257 1.21697 0.43085
 C774 C 0.00253 1.18854 0.44848
 C775 C 0.02279 1.13442 0.44872
 C776 C 0.00857 1.12864 0.48135
 C777 C 0.00972 1.09844 0.49596
 C778 C 0.02438 1.07423 0.47756
 C779 C 0.03908 1.08096 0.44525
 C780 C 0.03838 1.11077 0.43082
 C781 C -0.01064 1.18235 0.48161
 C782 C -0.00754 1.15290 0.49787
 C783 C 0.04877 1.14621 0.38187
 C784 C 0.05193 1.11694 0.39800
 H785 H -0.02396 1.20023 0.49475
 H786 H -0.01853 1.14888 0.52308
 H787 H 0.05872 1.14988 0.35601
 H788 H 0.06424 1.09874 0.38421
 H789 H 0.03492 1.20087 0.35406
 H790 H -0.01856 1.23336 0.44251
 H791 H -0.00159 1.09364 0.52083
 H792 H 0.05102 1.06296 0.43077
 C793 C 0.78591 0.67687 0.91005
 C794 C 0.76578 0.68525 0.93719
 C795 C 0.75730 0.66286 0.96226
 C796 C 0.77218 0.63332 0.96393
 C797 C 0.79145 0.62500 0.93522
 C798 C 0.79809 0.64658 0.90811
 C799 C 0.79301 0.69989 0.88216
 C800 C 0.80987 0.69074 0.85256
 C801 C 0.81208 0.71159 0.82370
 C802 C 0.79604 0.74041 0.82370
 C803 C 0.78578 0.75127 0.85681
 C804 C 0.78153 0.73036 0.88485
 C805 C 0.81648 0.63861 0.87900
 C806 C 0.82193 0.66019 0.85146
 C807 C 0.75472 0.71604 0.93904
 C808 C 0.76314 0.73845 0.91378
 H809 H 0.82603 0.61527 0.87703
 H810 H 0.83500 0.65267 0.82877
 H811 H 0.73953 0.72291 0.96026
 H812 H 0.75382 0.76186 0.91592
 H813 H 0.74026 0.66937 0.98163
 H814 H 0.80120 0.60171 0.93384
 H815 H 0.82473 0.70456 0.80100
 H816 H 0.77613 0.77451 0.85924
 C817 C 0.28632 0.18259 0.41200
 C818 C 0.26749 0.19247 0.43965
 C819 C 0.25933 0.17116 0.46614
 C820 C 0.27380 0.14143 0.46881
 C821 C 0.29132 0.13147 0.43931
 C822 C 0.29740 0.15186 0.41083
 C823 C 0.29316 0.20448 0.38283
 C824 C 0.30850 0.19379 0.35288
 C825 C 0.31049 0.21362 0.32310
 C826 C 0.29648 0.24352 0.32275
 C827 C 0.28763 0.25552 0.35596
 C828 C 0.28307 0.23546 0.38481
 C829 C 0.31429 0.14230 0.38118
 C830 C 0.31936 0.16277 0.35248
 C831 C 0.25745 0.22368 0.44057
 C832 C 0.26586 0.24503 0.41410
 H833 H 0.32298 0.11860 0.37975
 H834 H 0.33134 0.15408 0.32956
 H835 H 0.24326 0.23174 0.46213
 H836 H 0.25748 0.26883 0.41569
 H837 H 0.24246 0.17862 0.48519
 H838 H 0.30042 0.10788 0.43863
 H839 H 0.32160 0.20491 0.30025
 H840 H 0.27941 0.27933 0.35809
 C841 C 0.71437 0.32196 0.40568
 C842 C 0.73162 0.31125 0.43515
 C843 C 0.74014 0.33221 0.46140
 C844 C 0.72743 0.36270 0.46187
 C845 C 0.71130 0.37341 0.43087
 C846 C 0.70511 0.35323 0.40256
 C847 C 0.70772 0.30035 0.37662
 C848 C 0.69445 0.31175 0.34488
 C849 C 0.69320 0.29202 0.31543
 C850 C 0.70625 0.26174 0.31766
 C851 C 0.71332 0.24929 0.35155
 C852 C 0.71660 0.26901 0.38035
 C853 C 0.69008 0.36355 0.37115
 C854 C 0.68525 0.34326 0.34258
 C855 C 0.74001 0.27965 0.43803
 C856 C 0.73186 0.25868 0.41146
 H857 H 0.68285 0.38769 0.36821
 H858 H 0.67495 0.35248 0.31827
 H859 H 0.75289 0.27106 0.46106
 H860 H 0.73911 0.23455 0.41443
 H861 H 0.75608 0.32391 0.48180
 H862 H 0.70349 0.39743 0.42890
 H863 H 0.68434 0.30113 0.29058
 H864 H 0.72119 0.22536 0.35464
 C865 C 0.22287 0.82074 0.89014
 C866 C 0.24251 0.81231 0.91870
 C867 C 0.24988 0.83444 0.94426
 C868 C 0.23494 0.86393 0.94398
 C869 C 0.21790 0.87286 0.91292
 C870 C 0.21120 0.85117 0.88639
 C871 C 0.21536 0.79752 0.86302
 C872 C 0.19762 0.80637 0.83301
 C873 C 0.19463 0.78530 0.80500
 C874 C 0.21154 0.75702 0.80601
 C875 C 0.22328 0.74631 0.83912
 C876 C 0.22730 0.76718 0.86681
 C877 C 0.19242 0.85898 0.85668
 C878 C 0.18573 0.83693 0.83043
 C879 C 0.25371 0.78157 0.92182
 C880 C 0.24585 0.75924 0.89653
 H881 H 0.18305 0.88237 0.85353
 H882 H 0.17182 0.84409 0.80756
 H883 H 0.26858 0.77469 0.94404
 H884 H 0.25542 0.73591 0.89954
 H885 H 0.26573 0.82760 0.96546
 H886 H 0.20844 0.89625 0.91028
 H887 H 0.18220 0.79235 0.78123
 H888 H 0.23403 0.72348 0.84173
 C889 C 0.25797 0.84017 0.07699
 C890 C 0.26092 0.87258 0.07357
 C891 C 0.25151 0.88725 0.04191
 C892 C 0.23975 0.86980 0.01312
 C893 C 0.23271 0.83797 0.01943
 C894 C 0.24362 0.82271 0.05030
 C895 C 0.26893 0.82443 0.10979
 C896 C 0.26625 0.79203 0.11335
 C897 C 0.27428 0.77768 0.14590
 C898 C 0.28028 0.79590 0.17637
 C899 C 0.28553 0.82807 0.17070
 C900 C 0.28011 0.84236 0.13779
 C901 C 0.24123 0.79021 0.05469
 C902 C 0.25285 0.77508 0.08540
 C903 C 0.27384 0.88962 0.10163
 C904 C 0.28290 0.87481 0.13340
 H905 H 0.23051 0.77633 0.03411
 H906 H 0.25021 0.75006 0.08783
 H907 H 0.27641 0.91465 0.09929
 H908 H 0.29165 0.88895 0.15491
 H909 H 0.25496 0.91213 0.03884
 H910 H 0.22009 0.82455 -0.00007
 H911 H 0.27094 0.75276 0.14862
 H912 H 0.29015 0.84342 0.19182
 C913 C 0.76211 0.33905 0.59191
 C914 C 0.74555 0.32174 0.56678
 C915 C 0.73113 0.33734 0.53804
 C916 C 0.73825 0.36894 0.53055
 C917 C 0.75275 0.38629 0.55789
 C918 C 0.76436 0.37152 0.58870
 C919 C 0.77592 0.32303 0.62315
 C920 C 0.78754 0.34072 0.65113
 C921 C 0.79415 0.32583 0.68358
 C922 C 0.79065 0.29318 0.68805
 C923 C 0.78628 0.27567 0.65669
 C924 C 0.77514 0.29047 0.62561
 C925 C 0.77853 0.38840 0.61617
 C926 C 0.78917 0.37334 0.64729
 C927 C 0.74458 0.28910 0.57036
 C928 C 0.76000 0.27366 0.59867
 H929 H 0.78048 0.41351 0.61409
 H930 H 0.79833 0.38736 0.66868
 H931 H 0.73224 0.27536 0.55081
 H932 H 0.75859 0.24849 0.60046
 H933 H 0.71611 0.32415 0.52059
 H934 H 0.75617 0.41114 0.55438
 H935 H 0.79792 0.34083 0.70533
 H936 H 0.78486 0.25049 0.65835
 C937 C 0.24217 0.16141 0.60035
 C938 C 0.24336 0.12892 0.59746
 C939 C 0.25369 0.11581 0.56601
 C940 C 0.26429 0.13476 0.53777
 C941 C 0.26804 0.16701 0.54431
 C942 C 0.25438 0.18069 0.57394
 C943 C 0.22973 0.17545 0.63264
 C944 C 0.22731 0.20790 0.63518
 C945 C 0.21780 0.22104 0.66723
 C946 C 0.21781 0.20260 0.69868
 C947 C 0.21893 0.16976 0.69452
 C948 C 0.22334 0.15620 0.66157
 C949 C 0.25208 0.21322 0.57747
 C950 C 0.23785 0.22657 0.60703
 C951 C 0.23406 0.11022 0.62605
 C952 C 0.22514 0.12365 0.65798
 H953 H 0.26094 0.22849 0.55700
 H954 H 0.23671 0.25172 0.60874
 H955 H 0.23489 0.08505 0.62422
 H956 H 0.21996 0.10846 0.68017
 H957 H 0.25250 0.09079 0.56288
 H958 H 0.28044 0.18187 0.52620
 H959 H 0.21686 0.24621 0.66899
 H960 H 0.22176 0.15420 0.71656
 C961 C 0.74401 0.65608 0.09395
 C962 C 0.73649 0.62459 0.08989
 C963 C 0.74562 0.60927 0.05895
 C964 C 0.76117 0.62561 0.03148
 C965 C 0.77117 0.65634 0.03849
 C966 C 0.76141 0.67201 0.06847
 C967 C 0.73441 0.67256 0.12600
 C968 C 0.74209 0.70401 0.12963
 C969 C 0.73580 0.71881 0.16121
 C970 C 0.72538 0.70170 0.19092
 C971 C 0.71331 0.67160 0.18521
 C972 C 0.71865 0.65648 0.15284
 C973 C 0.76822 0.70368 0.07294
 C974 C 0.75830 0.71955 0.10281
 C975 C 0.71939 0.60945 0.11652
 C976 C 0.71058 0.62514 0.14740
 H977 H 0.78123 0.71633 0.05314
 H978 H 0.76441 0.74389 0.10555
 H979 H 0.71300 0.58521 0.11363
 H980 H 0.69795 0.61243 0.16747
 H981 H 0.73922 0.58511 0.05529
 H982 H 0.78574 0.66886 0.02016
 H983 H 0.74237 0.74305 0.16337
 H984 H 0.70192 0.65926 0.20643
 C985 C 0.18443 0.60818 0.24641
 C986 C 0.15859 0.60089 0.22489
 C987 C 0.14424 0.57173 0.22873
 C988 C 0.15591 0.54904 0.25321
 C989 C 0.18246 0.55709 0.27416
 C990 C 0.19646 0.58654 0.27116
 C991 C 0.19848 0.63951 0.24382
 C992 C 0.22332 0.64738 0.26659
 C993 C 0.23549 0.67770 0.26525
 C994 C 0.22291 0.70034 0.24143
 C995 C 0.19936 0.69110 0.21731
 C996 C 0.18638 0.66117 0.21912
 C997 C 0.22171 0.59514 0.29317
 C998 C 0.23483 0.62506 0.29102
 C999 C 0.14709 0.62323 0.20043
 C1000 C 0.16092 0.65274 0.19736
 H1001 H 0.23117 0.57875 0.31257
 H1002 H 0.25394 0.63086 0.30887
 H1003 H 0.12709 0.61793 0.18365
 H1004 H 0.15117 0.66933 0.17834
 H1005 H 0.12350 0.56729 0.21295
 H1006 H 0.19122 0.54105 0.29432
 H1007 H 0.25395 0.68379 0.28379
 H1008 H 0.19061 0.70712 0.19745
 C1009 C 0.68991 0.10323 0.73954
 C1010 C 0.70285 0.08021 0.76199
 C1011 C 0.68740 0.05164 0.76583
 C1012 C 0.65922 0.04544 0.74700
 C1013 C 0.64643 0.06941 0.72506
 C1014 C 0.66183 0.09804 0.72089
 C1015 C 0.70517 0.13399 0.73703
 C1016 C 0.69145 0.15754 0.71591
 C1017 C 0.70458 0.18748 0.71594
 C1018 C 0.73016 0.19460 0.73841
 C1019 C 0.74495 0.16984 0.75740
 C1020 C 0.73232 0.13972 0.75716
 C1021 C 0.64929 0.12192 0.69914
 C1022 C 0.66391 0.15111 0.69658
 C1023 C 0.73060 0.08652 0.78096
 C1024 C 0.74513 0.11572 0.77851
 H1025 H 0.62772 0.11820 0.68439
 H1026 H 0.65307 0.16908 0.68011
 H1027 H 0.74087 0.06893 0.79839
 H1028 H 0.76603 0.11985 0.79431
 H1029 H 0.69703 0.03458 0.78430
 H1030 H 0.62411 0.06596 0.71175
 H1031 H 0.69382 0.20522 0.69966
 H1032 H 0.76510 0.17421 0.77428
 C1033 C 0.81581 0.07229 0.27625
 C1034 C 0.84711 0.06944 0.26656
 C1035 C 0.86005 0.04010 0.26298
 C1036 C 0.84227 0.01270 0.26739
 C1037 C 0.81103 0.01580 0.27908
 C1038 C 0.79755 0.04583 0.28298
 C1039 C 0.80179 0.10369 0.27793
 C1040 C 0.77014 0.10729 0.28637
 C1041 C 0.75658 0.13752 0.28523
 C1042 C 0.77450 0.16354 0.27445
 C1043 C 0.80621 0.15857 0.26626
 C1044 C 0.82002 0.12941 0.26874
 C1045 C 0.76614 0.05025 0.29264
 C1046 C 0.75271 0.08038 0.29430
 C1047 C 0.86493 0.09595 0.25920
 C1048 C 0.85151 0.12552 0.25999
 H1049 H 0.75162 0.03024 0.29829
 H1050 H 0.72829 0.08258 0.30108
 H1051 H 0.88920 0.09376 0.25170
 H1052 H 0.86574 0.14545 0.25310
 H1053 H 0.88414 0.03863 0.25485
 H1054 H 0.79727 -0.00459 0.28505
 H1055 H 0.73196 0.14046 0.29073
 H1056 H 0.81994 0.17658 0.25416
 C1057 C 0.31297 0.57118 0.74888
 C1058 C 0.33884 0.56447 0.77104
 C1059 C 0.35377 0.53541 0.76882
 C1060 C 0.34219 0.51219 0.74589
 C1061 C 0.31492 0.51920 0.72531
 C1062 C 0.30086 0.54876 0.72597
 C1063 C 0.29918 0.60276 0.74855
 C1064 C 0.27478 0.61032 0.72462
 C1065 C 0.26314 0.64108 0.72311
 C1066 C 0.27570 0.66417 0.74557
 C1067 C 0.29847 0.65504 0.77097
 C1068 C 0.31115 0.62501 0.77174
 C1069 C 0.27577 0.55677 0.70304
 C1070 C 0.26312 0.58709 0.70217
 C1071 C 0.35009 0.58746 0.79402
 C1072 C 0.33616 0.61709 0.79473
 H1073 H 0.26633 0.53967 0.68499
 H1074 H 0.24431 0.59246 0.68354
 H1075 H 0.36994 0.58258 0.81141
 H1076 H 0.34566 0.63425 0.81269
 H1077 H 0.37524 0.53157 0.78383
 H1078 H 0.30551 0.50219 0.70722
 H1079 H 0.24499 0.64709 0.70391
 H1080 H 0.30668 0.67097 0.79034
 C1081 C 0.31330 0.39500 0.73046
 C1082 C 0.29997 0.41951 0.74928
 C1083 C 0.31451 0.44871 0.74911
 C1084 C 0.34250 0.45387 0.73036
 C1085 C 0.35514 0.42881 0.71115
 C1086 C 0.34060 0.39950 0.71098
 C1087 C 0.29948 0.36358 0.73296
 C1088 C 0.31363 0.33872 0.71550
 C1089 C 0.30179 0.30852 0.72005
 C1090 C 0.27692 0.30263 0.74322
 C1091 C 0.26176 0.32840 0.75866
 C1092 C 0.27321 0.35874 0.75402
 C1093 C 0.35355 0.37417 0.69295
 C1094 C 0.34020 0.34435 0.69501
 C1095 C 0.27309 0.41397 0.76929
 C1096 C 0.25990 0.38413 0.77155
 H1097 H 0.37455 0.37728 0.67769
 H1098 H 0.35132 0.32536 0.68128
 H1099 H 0.26256 0.43271 0.78397
 H1100 H 0.23966 0.38074 0.78799
 H1101 H 0.30482 0.46688 0.76528
 H1102 H 0.37715 0.43170 0.69774
 H1103 H 0.31272 0.28980 0.70624
 H1104 H 0.24216 0.32484 0.77599
 C1105 C 0.81009 0.89321 0.25816
 C1106 C 0.79515 0.91901 0.24222
 C1107 C 0.81052 0.94832 0.24268
 C1108 C 0.84072 0.95121 0.25873
 C1109 C 0.85617 0.92348 0.26963
 C1110 C 0.84053 0.89548 0.27200
 C1111 C 0.79412 0.86291 0.25983
 C1112 C 0.80879 0.83849 0.27823
 C1113 C 0.79392 0.81026 0.28085
 C1114 C 0.76608 0.80356 0.26169
 C1115 C 0.75110 0.82855 0.24316
 C1116 C 0.76489 0.85876 0.24302
 C1117 C 0.85492 0.86985 0.28880
 C1118 C 0.83889 0.84201 0.29280
 C1119 C 0.76537 0.91457 0.22641
 C1120 C 0.75078 0.88493 0.22629
 H1121 H 0.87843 0.87160 0.29976
 H1122 H 0.85050 0.82278 0.30655
 H1123 H 0.75336 0.93407 0.21372
 H1124 H 0.72817 0.88259 0.21331
 H1125 H 0.79927 0.96845 0.23047
 H1126 H 0.88054 0.92363 0.27787
 H1127 H 0.80601 0.79263 0.29640
 H1128 H 0.72926 0.82454 0.22906
 C1129 C 0.69202 0.92914 0.77235
 C1130 C 0.66442 0.93447 0.79097
 C1131 C 0.64894 0.96325 0.78716
 C1132 C 0.66096 0.98717 0.76528
 C1133 C 0.68934 0.98124 0.74752
 C1134 C 0.70484 0.95245 0.75093
 C1135 C 0.70667 0.89790 0.77353
 C1136 C 0.73319 0.89192 0.75326
 C1137 C 0.74517 0.86136 0.75193
 C1138 C 0.73045 0.83667 0.77030
 C1139 C 0.70563 0.84411 0.79278
 C1140 C 0.69304 0.87424 0.79371
 C1141 C 0.73213 0.94601 0.73202
 C1142 C 0.74613 0.91630 0.73326
 C1143 C 0.65202 0.91036 0.81178
 C1144 C 0.66620 0.88081 0.81331
 H1145 H 0.74235 0.96387 0.71544
 H1146 H 0.76662 0.91211 0.71749
 H1147 H 0.63080 0.91417 0.82643
 H1148 H 0.65548 0.86266 0.82908
 H1149 H 0.62658 0.96627 0.79975
 H1150 H 0.69865 0.99847 0.72951
 H1151 H 0.76486 0.85668 0.73512
 H1152 H 0.69536 0.82668 0.80912
 C1153 C 0.19246 0.43358 0.28067
 C1154 C 0.20601 0.45811 0.26173
 C1155 C 0.18980 0.48666 0.25829
 C1156 C 0.15943 0.49069 0.27245
 C1157 C 0.14769 0.46591 0.29348
 C1158 C 0.16378 0.43758 0.29738
 C1159 C 0.20751 0.40251 0.28113
 C1160 C 0.19289 0.37770 0.29848
 C1161 C 0.20541 0.34768 0.29591
 C1162 C 0.23161 0.34161 0.27499
 C1163 C 0.24769 0.36743 0.26034
 C1164 C 0.23530 0.39782 0.26270
 C1165 C 0.15071 0.41249 0.31611
 C1166 C 0.16506 0.38306 0.31671
 C1167 C 0.23462 0.45293 0.24482
 C1168 C 0.24905 0.42335 0.24538
 H1169 H 0.12866 0.41535 0.32946
 H1170 H 0.15368 0.36409 0.33049
 H1171 H 0.24549 0.47166 0.23012
 H1172 H 0.27054 0.42020 0.23105
 H1173 H 0.19976 0.50474 0.24186
 H1174 H 0.12524 0.46742 0.30575
 H1175 H 0.19384 0.32925 0.30945
 H1176 H 0.26850 0.36374 0.24498
 C1177 C 0.09222 0.23119 0.83079
 C1178 C 0.06785 0.24678 0.81287
 C1179 C 0.03867 0.24947 0.82911
 C1180 C 0.03314 0.23632 0.86319
 C1181 C 0.05859 0.22051 0.87998
 C1182 C 0.08770 0.21784 0.86418
 C1183 C 0.12360 0.23039 0.81529
 C1184 C 0.14820 0.21624 0.83444
 C1185 C 0.17817 0.21681 0.82074
 C1186 C 0.18406 0.23105 0.78769
 C1187 C 0.15899 0.24478 0.76841
 C1188 C 0.12866 0.24477 0.78236
 C1189 C 0.11282 0.20310 0.88207
 C1190 C 0.14260 0.20229 0.86740
 C1191 C 0.07354 0.26055 0.77969
 C1192 C 0.10338 0.25941 0.76460
 H1193 H 0.10959 0.19264 0.90793
 H1194 H 0.16152 0.19117 0.88228
 H1195 H 0.05487 0.27267 0.76545
 H1196 H 0.10681 0.27059 0.73917
 H1197 H 0.02122 0.26376 0.81573
 H1198 H 0.05694 0.21130 0.90630
 H1199 H 0.19684 0.20575 0.83602
 H1200 H 0.16309 0.25581 0.74303
 C1201 C 0.58375 0.72747 0.31120
 C1202 C 0.56292 0.74938 0.29625
 C1203 C 0.53537 0.75683 0.31427
 C1204 C 0.52861 0.74304 0.34765
 C1205 C 0.55121 0.72214 0.36239
 C1206 C 0.57784 0.71358 0.34405
 C1207 C 0.61346 0.72066 0.29353
 C1208 C 0.63457 0.69975 0.30962
 C1209 C 0.66429 0.69650 0.29582
 C1210 C 0.67436 0.71471 0.26707
 C1211 C 0.65194 0.73393 0.24932
 C1212 C 0.62145 0.73716 0.26276
 C1213 C 0.59917 0.69186 0.35864
 C1214 C 0.62693 0.68477 0.34147
 C1215 C 0.57069 0.76409 0.26415
 C1216 C 0.59954 0.75831 0.24786
 H1217 H 0.59470 0.68074 0.38390
 H1218 H 0.64323 0.66853 0.35408
 H1219 H 0.55474 0.78094 0.25208
 H1220 H 0.60506 0.77112 0.22397
 H1221 H 0.51986 0.77434 0.30278
 H1222 H 0.54855 0.71235 0.38853
 H1223 H 0.68049 0.68305 0.31117
 H1224 H 0.65891 0.74850 0.22729
 C1225 C 0.58485 0.23851 0.17854
 C1226 C 0.55766 0.24338 0.19787
 C1227 C 0.52866 0.24600 0.17964
 C1228 C 0.52747 0.24747 0.14208
 C1229 C 0.55547 0.24150 0.12389
 C1230 C 0.58365 0.23640 0.14167
 C1231 C 0.61531 0.23577 0.19704
 C1232 C 0.64178 0.22916 0.17730
 C1233 C 0.67052 0.22674 0.19428
 C1234 C 0.67433 0.23322 0.23069
 C1235 C 0.64737 0.23934 0.25062
 C1236 C 0.61751 0.24005 0.23376
 C1237 C 0.61082 0.22985 0.12291
 C1238 C 0.63940 0.22576 0.14056
 C1239 C 0.56031 0.24611 0.23488
 C1240 C 0.58974 0.24508 0.25242
 H1241 H 0.60997 0.22790 0.09440
 H1242 H 0.65996 0.22069 0.12520
 H1243 H 0.53956 0.24996 0.25031
 H1244 H 0.59073 0.24815 0.28078
 H1245 H 0.50773 0.24687 0.19505
 H1246 H 0.55546 0.24170 0.09529
 H1247 H 0.69015 0.22057 0.17805
 H1248 H 0.64957 0.24357 0.27868
 C1249 C 0.08937 0.74467 0.67007
 C1250 C 0.06341 0.73865 0.69102
 C1251 C 0.03351 0.73911 0.67520
 C1252 C 0.02908 0.74876 0.63941
 C1253 C 0.05608 0.75307 0.61894
 C1254 C 0.08591 0.75105 0.63385
 C1255 C 0.12091 0.74300 0.68591
 C1256 C 0.14668 0.74667 0.66402
 C1257 C 0.17648 0.74446 0.67863
 C1258 C 0.18124 0.74057 0.71548
 C1259 C 0.15514 0.73656 0.73727
 C1260 C 0.12475 0.73722 0.72235
 C1261 C 0.11236 0.75495 0.61291
 C1262 C 0.14235 0.75252 0.62774
 C1263 C 0.06797 0.73195 0.72723
 C1264 C 0.09812 0.73182 0.74277
 H1265 H 0.10985 0.75968 0.58483
 H1266 H 0.16230 0.75545 0.61074
 H1267 H 0.04807 0.72723 0.74378
 H1268 H 0.10061 0.72704 0.77084
 H1269 H 0.01441 0.73032 0.69061
 H1270 H 0.05401 0.75725 0.59081
 H1271 H 0.19592 0.74674 0.66085
 H1272 H 0.15842 0.73253 0.76539
 C1273 C 0.90985 0.75669 0.67763
 C1274 C 0.93757 0.76390 0.69572
 C1275 C 0.96593 0.76244 0.67761
 C1276 C 0.96709 0.75148 0.64226
 C1277 C 0.93831 0.74579 0.62477
 C1278 C 0.91004 0.74812 0.64204
 C1279 C 0.87986 0.75942 0.69572
 C1280 C 0.85233 0.75388 0.67653
 C1281 C 0.82399 0.75665 0.69315
 C1282 C 0.82227 0.76357 0.72958
 C1283 C 0.85016 0.76953 0.74865
 C1284 C 0.87918 0.76787 0.73150
 C1285 C 0.88186 0.74246 0.62391
 C1286 C 0.85338 0.74542 0.64089
 C1287 C 0.93623 0.77299 0.73131
 C1288 C 0.90756 0.77451 0.74905
 H1289 H 0.88182 0.73587 0.59636
 H1290 H 0.83200 0.74099 0.62603
 H1291 H 0.95754 0.77868 0.74567
 H1292 H 0.90759 0.78126 0.77653
 H1293 H 0.98637 0.77164 0.69083
 H1294 H 0.93760 0.74030 0.59701
 H1295 H 0.80340 0.75225 0.67709
 H1296 H 0.84928 0.77521 0.77643
 C1297 C 0.40977 0.26921 0.17234
 C1298 C 0.41040 0.25453 0.13954
 C1299 C 0.43863 0.25106 0.12260
 C1300 C 0.46709 0.26123 0.13807
 C1301 C 0.46516 0.28011 0.16854
 C1302 C 0.43682 0.28246 0.18702
 C1303 C 0.38014 0.27057 0.19149
 C1304 C 0.37916 0.28389 0.22520
 C1305 C 0.35070 0.28352 0.24387
 C1306 C 0.32359 0.27038 0.22831
 C1307 C 0.32555 0.25845 0.19366
 C1308 C 0.35337 0.25799 0.17568
 C1309 C 0.43492 0.29687 0.22018
 C1310 C 0.40671 0.29720 0.23915
 C1311 C 0.38289 0.24270 0.12441
 C1312 C 0.35472 0.24456 0.14216
 H1313 H 0.45557 0.30722 0.23201
 H1314 H 0.40649 0.30792 0.26491
 H1315 H 0.38321 0.23155 0.09887
 H1316 H 0.33393 0.23489 0.12981
 H1317 H 0.43821 0.23961 0.09728
 H1318 H 0.48571 0.29199 0.17850
 H1319 H 0.34962 0.29339 0.27003
 H1320 H 0.30571 0.24784 0.18055
 C1321 C 0.41113 0.77060 0.31215
 C1322 C 0.41622 0.78235 0.34606
 C1323 C 0.44491 0.77723 0.36306
 C1324 C 0.46968 0.76117 0.34667
 C1325 C 0.46404 0.75034 0.31170
 C1326 C 0.43485 0.75477 0.29460
 C1327 C 0.37971 0.77318 0.29580
 C1328 C 0.37369 0.75978 0.26269
 C1329 C 0.34302 0.76084 0.24835
 C1330 C 0.31866 0.77479 0.26741
 C1331 C 0.32578 0.78856 0.30031
 C1332 C 0.35591 0.78781 0.31448
 C1333 C 0.42836 0.74238 0.26100
 C1334 C 0.39832 0.74486 0.24532
 C1335 C 0.39198 0.79782 0.36335
 C1336 C 0.36230 0.80064 0.34771
 H1337 H 0.44648 0.73009 0.24702
 H1338 H 0.39421 0.73447 0.21973
 H1339 H 0.39579 0.80723 0.38950
 H1340 H 0.34399 0.81220 0.36217
 H1341 H 0.44687 0.78478 0.38996
 H1342 H 0.48120 0.73623 0.29855
 H1343 H 0.33802 0.75024 0.22306
 H1344 H 0.30791 0.80004 0.31543
 C1345 C 0.91516 0.26103 0.82700
 C1346 C 0.91977 0.27262 0.86112
 C1347 C 0.94854 0.26799 0.87831
 C1348 C 0.97357 0.25238 0.86187
 C1349 C 0.96804 0.24073 0.82727
 C1350 C 0.93912 0.24526 0.80975
 C1351 C 0.88397 0.26370 0.81004
 C1352 C 0.87868 0.25090 0.77648
 C1353 C 0.84847 0.25254 0.76116
 C1354 C 0.82368 0.26621 0.77973
 C1355 C 0.82983 0.27896 0.81337
 C1356 C 0.85972 0.27795 0.82843
 C1357 C 0.93320 0.23310 0.77594
 C1358 C 0.90355 0.23603 0.75951
 C1359 C 0.89509 0.28759 0.87818
 C1360 C 0.86553 0.29027 0.86205
 H1361 H 0.95152 0.22086 0.76225
 H1362 H 0.89991 0.22600 0.73364
 H1363 H 0.89849 0.29681 0.90448
 H1364 H 0.84692 0.30155 0.87631
 H1365 H 0.95080 0.27547 0.90541
 H1366 H 0.98502 0.22571 0.81505
 H1367 H 0.84418 0.24265 0.73534
 H1368 H 0.81141 0.28992 0.82816
 C1369 C 0.59776 0.97684 0.65852
 C1370 C 0.62736 0.99069 0.65752
 C1371 C 0.63964 1.00446 0.68798
 C1372 C 0.62351 1.00338 0.72033
 C1373 C 0.59547 0.98571 0.72138
 C1374 C 0.58144 0.97448 0.69015
 C1375 C 0.58313 0.96575 0.62545
 C1376 C 0.55188 0.95590 0.62516
 C1377 C 0.53623 0.95178 0.59235
 C1378 C 0.55184 0.95804 0.56026
 C1379 C 0.58469 0.96155 0.56224
 C1380 C 0.59993 0.96764 0.59420
 C1381 C 0.55117 0.96165 0.68959
 C1382 C 0.53635 0.95325 0.65754
 C1383 C 0.64400 0.99093 0.62588
 C1384 C 0.63071 0.97904 0.59483
 H1385 H 0.53823 0.95953 0.71386
 H1386 H 0.51233 0.94534 0.65803
 H1387 H 0.66719 1.00096 0.62493
 H1388 H 0.64395 0.98051 0.57070
 H1389 H 0.66225 1.01560 0.68653
 H1390 H 0.58417 0.98108 0.74622
 H1391 H 0.51117 0.94805 0.59201
 H1392 H 0.59816 0.96529 0.53925
 C1393 C 0.08989 0.48295 1.16490
 C1394 C 0.07332 0.50099 1.18888
 C1395 C 0.08963 0.51581 1.21625
 C1396 C 0.12133 0.50817 1.22437
 C1397 C 0.13788 0.49182 1.19790
 C1398 C 0.12236 0.47948 1.16814
 C1399 C 0.07312 0.46909 1.13463
 C1400 C 0.09008 0.45530 1.10744
 C1401 C 0.07427 0.44764 1.07574
 C1402 C 0.04219 0.45491 1.07131
 C1403 C 0.02494 0.46079 1.10215
 C1404 C 0.04047 0.47155 1.13240
 C1405 C 0.13853 0.46366 1.14153
 C1406 C 0.12273 0.45226 1.11141
 C1407 C 0.04062 0.50339 1.18547
 C1408 C 0.02435 0.48805 1.15834
 H1409 H 0.16370 0.46083 1.14352
 H1410 H 0.13624 0.44154 1.09080
 H1411 H 0.02746 0.51686 1.20422
 H1412 H -0.00086 0.49063 1.15653
 H1413 H 0.07697 0.53223 1.23218
 H1414 H 0.16281 0.48860 1.19977
 H1415 H 0.08745 0.43917 1.05374
 H1416 H -0.00023 0.46387 1.10028
 C1417 C -0.09020 -0.00124 1.16302
 C1418 C -0.12048 0.01087 1.16635
 C1419 C -0.13784 0.00278 1.19612
 C1420 C -0.12452 -0.01604 1.22355
 C1421 C -0.09606 -0.03166 1.21669
 C1422 C -0.07795 -0.02286 1.18769
 C1423 C -0.07106 0.00862 1.13290
 C1424 C -0.04055 -0.00290 1.12992
 C1425 C -0.02345 0.00472 1.09977
 C1426 C -0.03814 0.02011 1.07045
 C1427 C -0.06673 0.03538 1.07673
 C1428 C -0.08383 0.02891 1.10722
 C1429 C -0.04726 -0.03406 1.18378
 C1430 C -0.02871 -0.02390 1.15564
 C1431 C -0.13231 0.03180 1.14054
 C1432 C -0.11432 0.04059 1.11138
 H1433 H -0.03735 -0.05048 1.20286
 H1434 H -0.00525 -0.03326 1.15345
 H1435 H -0.15566 0.04141 1.14286
 H1436 H -0.12456 0.05620 1.09163
 H1437 H -0.16096 0.01280 1.19896
 H1438 H -0.08655 -0.04841 1.23563
 H1439 H -0.00026 -0.00525 1.09747
 H1440 H -0.07694 0.05070 1.05752
 C1441 C 0.40732 0.52083 0.64305
 C1442 C 0.42428 0.51993 0.67489
 C1443 C 0.40914 0.51003 0.70561
 C1444 C 0.37983 0.49453 0.70360
 C1445 C 0.36360 0.49549 0.67062
 C1446 C 0.37636 0.51049 0.64116
 C1447 C 0.42253 0.53197 0.61076
 C1448 C 0.40463 0.53601 0.57981
 C1449 C 0.41984 0.54330 0.54839
 C1450 C 0.45243 0.53894 0.54629
 C1451 C 0.47011 0.53956 0.57827
 C1452 C 0.45496 0.53655 0.61088
 C1453 C 0.35883 0.51557 0.60988
 C1454 C 0.37247 0.52949 0.58016
 C1455 C 0.45609 0.52830 0.67505
 C1456 C 0.47151 0.53520 0.64329
 H1457 H 0.33442 0.50891 0.60842
 H1458 H 0.35823 0.53324 0.55665
 H1459 H 0.46959 0.52762 0.69953
 H1460 H 0.49652 0.53916 0.64407
 H1461 H 0.42069 0.51400 0.73075
 H1462 H 0.34047 0.48561 0.66808
 H1463 H 0.40592 0.54803 0.52514
 H1464 H 0.49544 0.53836 0.57771
 C1465 C 0.42254 0.45873 -0.17216
 C1466 C 0.43556 0.45942 -0.20580
 C1467 C 0.41569 0.46357 -0.23541
 C1468 C 0.38408 0.47303 -0.23132
 C1469 C 0.37130 0.47009 -0.19714
 C1470 C 0.39021 0.46218 -0.16778
 C1471 C 0.44321 0.45560 -0.14078
 C1472 C 0.42995 0.45301 -0.10741
 C1473 C 0.44956 0.45281 -0.07755
 C1474 C 0.48154 0.46035 -0.08011
 C1475 C 0.49491 0.46002 -0.11410
 C1476 C 0.47577 0.45694 -0.14456
 C1477 C 0.37768 0.45864 -0.13391
 C1478 C 0.39721 0.45315 -0.10432
 C1479 C 0.46829 0.45745 -0.20892
 C1480 C 0.48809 0.45720 -0.17879
 H1481 H 0.35266 0.46051 -0.13018
 H1482 H 0.38670 0.45085 -0.07861
 H1483 H 0.47871 0.45795 -0.23481
 H1484 H 0.51318 0.45764 -0.18233
 H1485 H 0.42546 0.46090 -0.26136
 H1486 H 0.34670 0.47476 -0.19323
 H1487 H 0.43902 0.44880 -0.05258
 H1488 H 0.51968 0.46443 -0.11706
 C1489 C -0.07276 0.96992 0.34763
 C1490 C -0.06319 0.98488 0.31656
 C1491 C -0.08506 0.99064 0.28940
 C1492 C -0.11631 0.98014 0.29201
 C1493 C -0.12595 0.96807 0.32516
 C1494 C -0.10408 0.96167 0.35237
 C1495 C -0.04978 0.96421 0.37644
 C1496 C -0.05945 0.95038 0.40819
 C1497 C -0.03849 0.94924 0.43720
 C1498 C -0.00948 0.96456 0.43521
 C1499 C 0.00156 0.97308 0.40149
 C1500 C -0.01893 0.97432 0.37241
 C1501 C -0.11273 0.94667 0.38394
 C1502 C -0.09068 0.94075 0.41121
 C1503 C -0.03177 0.99362 0.31303
 C1504 C -0.00996 0.98832 0.34048
 H1505 H -0.13678 0.93972 0.38775
 H1506 H -0.09847 0.92981 0.43542
 H1507 H -0.02407 1.00499 0.28903
 H1508 H 0.01384 0.99628 0.33714
 H1509 H -0.07727 1.00292 0.26612
 H1510 H -0.15022 0.96181 0.32884
 H1511 H -0.04617 0.93967 0.46211
 H1512 H 0.02477 0.98268 0.39856
 C1513 C 0.06842 0.53569 0.34311
 C1514 C 0.06183 0.51462 0.31611
 C1515 C 0.08486 0.50774 0.29166
 C1516 C 0.11323 0.52476 0.29008
 C1517 C 0.11939 0.54563 0.31839
 C1518 C 0.09742 0.55058 0.34520
 C1519 C 0.04529 0.54038 0.37112
 C1520 C 0.05334 0.55782 0.40104
 C1521 C 0.03322 0.55747 0.43029
 C1522 C 0.00595 0.53896 0.42962
 C1523 C -0.00420 0.52700 0.39673
 C1524 C 0.01630 0.52546 0.36852
 C1525 C 0.10403 0.56957 0.37450
 C1526 C 0.08257 0.57277 0.40216
 C1527 C 0.03238 0.50037 0.31422
 C1528 C 0.00966 0.50637 0.33950
 H1529 H 0.12641 0.58117 0.37671
 H1530 H 0.08928 0.58633 0.42500
 H1531 H 0.02687 0.48440 0.29307
 H1532 H -0.01260 0.49451 0.33741
 H1533 H 0.08049 0.48875 0.27371
 H1534 H 0.14136 0.55765 0.32062
 H1535 H 0.04050 0.56868 0.45451
 H1536 H -0.02613 0.51462 0.39436
 C1537 C 0.57949 0.04176 -0.15880
 C1538 C 0.61171 0.03759 -0.15293
 C1539 C 0.63061 0.02899 -0.18113
 C1540 C 0.61795 0.02535 -0.21563
 C1541 C 0.58612 0.03386 -0.22145
 C1542 C 0.56643 0.03995 -0.19287
 C1543 C 0.55890 0.04680 -0.12842
 C1544 C 0.52631 0.04727 -0.13347
 C1545 C 0.50687 0.04657 -0.10366
 C1546 C 0.52002 0.04551 -0.06903
 C1547 C 0.55258 0.05023 -0.06546
 C1548 C 0.57218 0.04902 -0.09457
 C1549 C 0.53381 0.04315 -0.19738
 C1550 C 0.51405 0.04609 -0.16815
 C1551 C 0.62428 0.04115 -0.11871
 C1552 C 0.60487 0.04729 -0.09008
 H1553 H 0.52333 0.04186 -0.22357
 H1554 H 0.48897 0.04676 -0.17268
 H1555 H 0.64922 0.03854 -0.11389
 H1556 H 0.61541 0.04905 -0.06395
 H1557 H 0.65523 0.02453 -0.17606
 H1558 H 0.57624 0.03497 -0.24790
 H1559 H 0.48187 0.04381 -0.10754
 H1560 H 0.56368 0.05179 -0.04023
 C1561 C 0.67398 0.57022 -0.03071
 C1562 C 0.67695 0.59933 -0.01489
 C1563 C 0.70654 0.61128 -0.00840
 C1564 C 0.73419 0.59449 -0.01624
 C1565 C 0.73049 0.56715 -0.03676
 C1566 C 0.70040 0.55396 -0.04214
 C1567 C 0.64254 0.55644 -0.03462
 C1568 C 0.63906 0.52643 -0.04847
 C1569 C 0.60903 0.51242 -0.04869
 C1570 C 0.58294 0.52847 -0.03489
 C1571 C 0.58758 0.55908 -0.02254
 C1572 C 0.61673 0.57304 -0.02242
 C1573 C 0.69599 0.52462 -0.05783
 C1574 C 0.66597 0.51095 -0.06050
 C1575 C 0.65030 0.61575 -0.00443
 C1576 C 0.62063 0.60278 -0.00810
 H1577 H 0.71600 0.51163 -0.06700
 H1578 H 0.66391 0.48789 -0.07159
 H1579 H 0.65248 0.63845 0.00758
 H1580 H 0.60066 0.61580 0.00121
 H1581 H 0.70776 0.63370 0.00426
 H1582 H 0.75035 0.55628 -0.04892
 H1583 H 0.60632 0.48877 -0.05791
 H1584 H 0.56938 0.57135 -0.00904
 C1585 C 0.17874 1.07414 0.48330
 C1586 C 0.18098 1.10514 0.49403
 C1587 C 0.21018 1.11866 0.49775
 C1588 C 0.23814 1.10178 0.49214
 C1589 C 0.23534 1.07144 0.47776
 C1590 C 0.20557 1.05706 0.47471
 C1591 C 0.14772 1.05919 0.48237
 C1592 C 0.14487 1.02762 0.47352
 C1593 C 0.11506 1.01316 0.47542
 C1594 C 0.08870 1.03027 0.48685
 C1595 C 0.09299 1.06201 0.49512
 C1596 C 0.12167 1.07651 0.49249
 C1597 C 0.20185 1.02580 0.46439
 C1598 C 0.17214 1.01131 0.46402
 C1599 C 0.15404 1.12199 0.50252
 C1600 C 0.12482 1.10784 0.50187
 H1601 H 0.22218 1.01212 0.45750
 H1602 H 0.17061 0.98700 0.45686
 H1603 H 0.15565 1.14604 0.51072
 H1604 H 0.10459 1.12136 0.50954
 H1605 H 0.21102 1.14233 0.50713
 H1606 H 0.25581 1.05893 0.46922
 H1607 H 0.11268 0.98869 0.46932
 H1608 H 0.07491 1.07513 0.50780
 C1609 C 0.14335 -0.07213 0.98436
 C1610 C 0.14759 -0.10391 0.97822
 C1611 C 0.17773 -0.11593 0.97640
 C1612 C 0.20454 -0.09673 0.97889
 C1613 C 0.19987 -0.06489 0.98724
 C1614 C 0.16913 -0.05239 0.98928
 C1615 C 0.11117 -0.05961 0.98653
 C1616 C 0.10623 -0.02795 0.99328
 C1617 C 0.07514 -0.01650 0.99532
 C1618 C 0.04916 -0.03677 0.99107
 C1619 C 0.05555 -0.06831 0.98449
 C1620 C 0.08590 -0.07985 0.98224
 C1621 C 0.16337 -0.02071 0.99631
 C1622 C 0.13256 -0.00870 0.99813
 C1623 C 0.12160 -0.12341 0.97402
 C1624 C 0.09123 -0.11157 0.97605
 H1625 H 0.18284 -0.00502 1.00033
 H1626 H 0.12935 0.01582 1.00359
 H1627 H 0.12475 -0.14803 0.96907
 H1628 H 0.07174 -0.12739 0.97273
 H1629 H 0.18037 -0.14077 0.97247
 H1630 H 0.21956 -0.05007 0.99313
 H1631 H 0.07131 0.00800 1.00030
 H1632 H 0.03707 -0.08473 0.98162
 C1633 C 0.64135 0.43052 0.50351
 C1634 C 0.66779 0.44967 0.50382
 C1635 C 0.69786 0.43574 0.50389
 C1636 C 0.70125 0.40313 0.49903
 C1637 C 0.67395 0.38472 0.50093
 C1638 C 0.64436 0.39803 0.50337
 C1639 C 0.60978 0.44459 0.50311
 C1640 C 0.58381 0.42505 0.50420
 C1641 C 0.55401 0.43800 0.50237
 C1642 C 0.54895 0.47022 0.49732
 C1643 C 0.57555 0.48986 0.49724
 C1644 C 0.60611 0.47705 0.50060
 C1645 C 0.61768 0.37926 0.50477
 C1646 C 0.58785 0.39257 0.50557
 C1647 C 0.66341 0.48225 0.50330
 C1648 C 0.63315 0.49567 0.50099
 H1649 H 0.61984 0.35409 0.50494
 H1650 H 0.56774 0.37730 0.50637
 H1651 H 0.68352 0.49750 0.50346
 H1652 H 0.63096 0.52080 0.49944
 H1653 H 0.71788 0.45040 0.50839
 H1654 H 0.67572 0.35957 0.49960
 H1655 H 0.53530 0.42176 0.50149
 H1656 H 0.57258 0.51481 0.49398
 C1657 C -0.17775 0.43016 0.47781
 C1658 C -0.20462 0.44815 0.47071
 C1659 C -0.23433 0.43368 0.47180
 C1660 C -0.23706 0.40247 0.48428
 C1661 C -0.20914 0.38484 0.48819
 C1662 C -0.17992 0.39825 0.48512
 C1663 C -0.14672 0.44496 0.47878
 C1664 C -0.12045 0.42644 0.48626
 C1665 C -0.09155 0.44039 0.49023
 C1666 C -0.08759 0.47289 0.48741
 C1667 C -0.11424 0.49135 0.47848
 C1668 C -0.14404 0.47733 0.47422
 C1669 C -0.15284 0.38034 0.49117
 C1670 C -0.12349 0.39424 0.49162
 C1671 C -0.20103 0.48031 0.46399
 C1672 C -0.17136 0.49471 0.46620
 H1673 H -0.15440 0.35554 0.49651
 H1674 H -0.10308 0.37979 0.49717
 H1675 H -0.22144 0.49469 0.45830
 H1676 H -0.16988 0.51966 0.46206
 H1677 H -0.25458 0.44681 0.46291
 H1678 H -0.20997 0.36058 0.49596
 H1679 H -0.07301 0.42561 0.50015
 H1680 H -0.11196 0.51636 0.47551
 C1681 C 0.32667 -0.06669 -0.03523
 C1682 C 0.29982 -0.05002 -0.04620
 C1683 C 0.27004 -0.06465 -0.04433
 C1684 C 0.26737 -0.09524 -0.02982
 C1685 C 0.29547 -0.11149 -0.02145
 C1686 C 0.32453 -0.09752 -0.02327
 C1687 C 0.35770 -0.05159 -0.03532
 C1688 C 0.38366 -0.06837 -0.02246
 C1689 C 0.41231 -0.05368 -0.01928
 C1690 C 0.41682 -0.02254 -0.03044
 C1691 C 0.39048 -0.00595 -0.04438
 C1692 C 0.36061 -0.02043 -0.04639
 C1693 C 0.35140 -0.11385 -0.01197
 C1694 C 0.38048 -0.09941 -0.01128
 C1695 C 0.30360 -0.01898 -0.05806
 C1696 C 0.33334 -0.00449 -0.05809
 H1697 H 0.34981 -0.13777 -0.00271
 H1698 H 0.40061 -0.11255 -0.00150
 H1699 H 0.28332 -0.00556 -0.06676
 H1700 H 0.33490 0.01956 -0.06684
 H1701 H 0.24956 -0.05233 -0.05423
 H1702 H 0.29482 -0.13517 -0.01151
 H1703 H 0.43038 -0.06639 -0.00509
 H1704 H 0.39285 0.01831 -0.05201
 C1705 C 0.35832 1.07108 0.52187
 C1706 C 0.33115 1.05296 0.52248
 C1707 C 0.30169 1.06764 0.51675
 C1708 C 0.29972 1.09991 0.50785
 C1709 C 0.32765 1.11738 0.50948
 C1710 C 0.35661 1.10332 0.51594
 C1711 C 0.38934 1.05608 0.52680
 C1712 C 0.41604 1.07454 0.52493
 C1713 C 0.44528 1.06037 0.52486
 C1714 C 0.44924 1.02768 0.52688
 C1715 C 0.42196 1.00938 0.53148
 C1716 C 0.39182 1.02358 0.53085
 C1717 C 0.38399 1.12110 0.51578
 C1718 C 0.41326 1.10693 0.52007
 C1719 C 0.33428 1.02057 0.52838
 C1720 C 0.36401 1.00614 0.53212
 H1721 H 0.38286 1.14608 0.51140
 H1722 H 0.43396 1.12137 0.51862
 H1723 H 0.31361 1.00612 0.52914
 H1724 H 0.36521 0.98105 0.53538
 H1725 H 0.28083 1.05395 0.52016
 H1726 H 0.32680 1.14241 0.50536
 H1727 H 0.46389 1.07543 0.51794
 H1728 H 0.42392 0.98421 0.53238
 C1729 C -0.14530 0.55987 1.01051
 C1730 C -0.17140 0.54238 1.00008
 C1731 C -0.20117 0.55696 0.99808
 C1732 C -0.20396 0.58983 1.00106
 C1733 C -0.17656 0.60649 1.01070
 C1734 C -0.14806 0.59163 1.01737
 C1735 C -0.11428 0.54489 1.01390
 C1736 C -0.08920 0.56180 1.02800
 C1737 C -0.05991 0.54763 1.03133
 C1738 C -0.05376 0.51894 1.01508
 C1739 C -0.07954 0.50167 1.00184
 C1740 C -0.11013 0.51424 1.00247
 C1741 C -0.12215 0.60815 1.03048
 C1742 C -0.09343 0.59318 1.03688
 C1743 C -0.16685 0.51088 0.99123
 C1744 C -0.13663 0.49738 0.99127
 H1745 H -0.12419 0.63275 1.03622
 H1746 H -0.07402 0.60661 1.04730
 H1747 H -0.18660 0.49693 0.98283
 H1748 H -0.13404 0.47349 0.98281
 H1749 H -0.22131 0.54239 0.99444
 H1750 H -0.17729 0.63151 1.01315
 H1751 H -0.04192 0.56013 1.04498
 H1752 H -0.07583 0.47885 0.99066
 C1753 C -0.00792 0.66082 0.56620
 C1754 C -0.00061 0.66278 0.60231
 C1755 C 0.00069 0.69172 0.61803
 C1756 C -0.00494 0.71946 0.59855
 C1757 C -0.01579 0.71651 0.56301
 C1758 C -0.01564 0.68743 0.54624
 C1759 C -0.00917 0.63009 0.54964
 C1760 C -0.01623 0.62751 0.51337
 C1761 C -0.01686 0.59765 0.49795
 C1762 C -0.01186 0.57087 0.51930
 C1763 C -0.00702 0.57470 0.55608
 C1764 C -0.00435 0.60372 0.57092
 C1765 C -0.02342 0.68423 0.51015
 C1766 C -0.02315 0.65483 0.49385
 C1767 C 0.00486 0.63571 0.62246
 C1768 C 0.00269 0.60653 0.60704
 H1769 H -0.02939 0.70463 0.49430
 H1770 H -0.02896 0.65344 0.46595
 H1771 H 0.01047 0.63708 0.65042
 H1772 H 0.00663 0.58600 0.62351
 H1773 H 0.00549 0.69243 0.64609
 H1774 H -0.02604 0.73599 0.54870
 H1775 H -0.02198 0.59523 0.47000
 H1776 H -0.00468 0.55512 0.57413
 C1777 C 0.48759 0.16766 0.06118
 C1778 C 0.47860 0.16988 0.09655
 C1779 C 0.48346 0.19757 0.11448
 C1780 C 0.49461 0.22430 0.09684
 C1781 C 0.50399 0.22148 0.06117
 C1782 C 0.50087 0.19302 0.04344
 C1783 C 0.48383 0.13785 0.04283
 C1784 C 0.49491 0.13441 0.00828
 C1785 C 0.49329 0.10490 -0.00785
 C1786 C 0.48078 0.07933 0.01088
 C1787 C 0.46764 0.08449 0.04439
 C1788 C 0.47001 0.11302 0.06079
 C1789 C 0.51101 0.18919 0.00854
 C1790 C 0.50837 0.16031 -0.00861
 C1791 C 0.46476 0.14440 0.11349
 C1792 C 0.46009 0.11650 0.09568
 H1793 H 0.52148 0.20855 -0.00547
 H1794 H 0.51709 0.15821 -0.03519
 H1795 H 0.45741 0.14606 0.14067
 H1796 H 0.44943 0.09722 0.10967
 H1797 H 0.47751 0.19882 0.14217
 H1798 H 0.51458 0.24089 0.04746
 H1799 H 0.50317 0.10154 -0.03369
 H1800 H 0.45702 0.06574 0.05928
 C1801 C -0.01601 0.15518 0.93973
 C1802 C -0.03085 0.16256 0.90753
 C1803 C -0.02533 0.19124 0.89149
 C1804 C -0.00551 0.21390 0.90701
 C1805 C 0.00889 0.20576 0.94011
 C1806 C 0.00373 0.17656 0.95642
 C1807 C -0.01978 0.12369 0.95497
 C1808 C -0.00381 0.11532 0.98641
 C1809 C -0.00633 0.08452 0.99962
 C1810 C -0.02412 0.06229 0.98088
 C1811 C -0.04002 0.07177 0.94949
 C1812 C -0.03820 0.10211 0.93675
 C1813 C 0.01887 0.16773 0.98834
 C1814 C 0.01509 0.13770 1.00313
 C1815 C -0.05008 0.14059 0.89084
 C1816 C -0.05375 0.11083 0.90527
 H1817 H 0.03418 0.18399 1.00172
 H1818 H 0.02758 0.13177 1.02743
 H1819 H -0.06186 0.14622 0.86599
 H1820 H -0.06827 0.09429 0.89123
 H1821 H -0.03599 0.19472 0.86588
 H1822 H 0.02591 0.22102 0.95223
 H1823 H 0.00629 0.07768 1.02353
 H1824 H -0.05418 0.05560 0.93452
 C1825 C 0.48169 0.66070 0.41896
 C1826 C 0.47451 0.66622 0.38328
 C1827 C 0.47782 0.69613 0.36929
 C1828 C 0.48981 0.72103 0.38966
 C1829 C 0.49884 0.71399 0.42527
 C1830 C 0.49323 0.68450 0.44041
 C1831 C 0.47924 0.62883 0.43339
 C1832 C 0.48569 0.62307 0.46935
 C1833 C 0.48290 0.59250 0.48283
 C1834 C 0.47584 0.56768 0.45991
 C1835 C 0.47211 0.57404 0.42341
 C1836 C 0.47194 0.60448 0.41045
 C1837 C 0.50016 0.67788 0.47621
 C1838 C 0.49569 0.64787 0.49064
 C1839 C 0.46564 0.64139 0.36154
 C1840 C 0.46493 0.61089 0.37479
 H1841 H 0.50893 0.69608 0.49325
 H1842 H 0.50101 0.64385 0.51840
 H1843 H 0.46014 0.64542 0.33382
 H1844 H 0.45879 0.59220 0.35700
 H1845 H 0.47334 0.69897 0.34141
 H1846 H 0.51259 0.73008 0.44067
 H1847 H 0.48747 0.58794 0.51064
 H1848 H 0.46816 0.55539 0.40483
 C1849 C 0.51244 0.83857 0.42733
 C1850 C 0.49820 0.81370 0.44482
 C1851 C 0.49478 0.78516 0.42726
 C1852 C 0.50739 0.78029 0.39306
 C1853 C 0.52233 0.80608 0.37699
 C1854 C 0.52436 0.83498 0.39340
 C1855 C 0.51314 0.86954 0.44387
 C1856 C 0.52467 0.89484 0.42461
 C1857 C 0.52407 0.92434 0.43937
 C1858 C 0.51407 0.92897 0.47443
 C1859 C 0.50261 0.90318 0.49365
 C1860 C 0.50146 0.87344 0.47805
 C1861 C 0.53680 0.86080 0.37554
 C1862 C 0.53668 0.89032 0.39076
 C1863 C 0.48633 0.81838 0.47886
 C1864 C 0.48846 0.84755 0.49544
 H1865 H 0.54601 0.85834 0.34921
 H1866 H 0.54596 0.90979 0.37585
 H1867 H 0.47531 0.79931 0.49284
 H1868 H 0.47922 0.85002 0.52174
 H1869 H 0.47948 0.76822 0.43913
 H1870 H 0.53067 0.80484 0.35044
 H1871 H 0.53314 0.94343 0.42375
 H1872 H 0.49427 0.90629 0.52026
 C1873 C 0.01757 0.33279 0.93775
 C1874 C 0.00886 0.30729 0.95868
 C1875 C 0.00426 0.27811 0.94261
 C1876 C 0.01086 0.27369 0.90622
 C1877 C 0.01989 0.30026 0.88651
 C1878 C 0.02265 0.32946 0.90160
 C1879 C 0.01932 0.36406 0.95330
 C1880 C 0.02424 0.38971 0.93103
 C1881 C 0.02363 0.41941 0.94497
 C1882 C 0.02117 0.42422 0.98169
 C1883 C 0.01641 0.39813 1.00402
 C1884 C 0.01459 0.36792 0.98962
 C1885 C 0.02894 0.35568 0.88050
 C1886 C 0.02924 0.38543 0.89490
 C1887 C 0.00382 0.31191 0.99495
 C1888 C 0.00726 0.34156 1.01027
 H1889 H 0.03275 0.35329 0.85243
 H1890 H 0.03333 0.40524 0.87761
 H1891 H -0.00276 0.29245 1.01166
 H1892 H 0.00332 0.34399 1.03830
 H1893 H -0.00655 0.26009 0.95818
 H1894 H 0.02248 0.29912 0.85836
 H1895 H 0.02589 0.43877 0.92666
 H1896 H 0.01305 0.40141 1.03203
 C1897 C 0.51097 0.33724 0.05285
 C1898 C 0.53200 0.33088 0.08086
 C1899 C 0.52731 0.30490 0.10241
 C1900 C 0.50304 0.28360 0.09501
 C1901 C 0.48196 0.29071 0.06667
 C1902 C 0.48566 0.31758 0.04578
 C1903 C 0.51472 0.36589 0.03174
 C1904 C 0.49241 0.37383 0.00544
 C1905 C 0.49442 0.40296 -0.01181
 C1906 C 0.51786 0.42424 -0.00173
 C1907 C 0.54162 0.41417 0.02226
 C1908 C 0.53968 0.38568 0.03970
 C1909 C 0.46437 0.32552 0.01835
 C1910 C 0.46757 0.35329 -0.00134
 C1911 C 0.55719 0.35092 0.08733
 C1912 C 0.56116 0.37777 0.06679
 H1913 H 0.44468 0.31050 0.01257
 H1914 H 0.45009 0.35906 -0.02144
 H1915 H 0.57375 0.34601 0.10868
 H1916 H 0.58055 0.39303 0.07302
 H1917 H 0.54268 0.30178 0.12516
 H1918 H 0.46269 0.27529 0.06076
 H1919 H 0.47632 0.40990 -0.03057
 H1920 H 0.56065 0.42927 0.02998
 C1921 C 0.00247 0.84107 0.56698
 C1922 C -0.00245 0.83827 0.60332
 C1923 C -0.00521 0.80895 0.61846
 C1924 C -0.00264 0.78155 0.59842
 C1925 C 0.00520 0.78510 0.56217
 C1926 C 0.00608 0.81474 0.54602
 C1927 C 0.00600 0.87220 0.55120
 C1928 C 0.01053 0.87564 0.51467
 C1929 C 0.01312 0.90590 0.50000
 C1930 C 0.01285 0.93200 0.52230
 C1931 C 0.01103 0.92711 0.55919
 C1932 C 0.00605 0.89792 0.57342
 C1933 C 0.01142 0.81875 0.50961
 C1934 C 0.01293 0.84870 0.49407
 C1935 C -0.00341 0.86482 0.62443
 C1936 C 0.00127 0.89423 0.60976
 H1937 H 0.01418 0.79858 0.49297
 H1938 H 0.01673 0.85076 0.46592
 H1939 H -0.00711 0.86277 0.65262
 H1940 H 0.00105 0.91425 0.62695
 H1941 H -0.00767 0.80773 0.64670
 H1942 H 0.01297 0.76568 0.54677
 H1943 H 0.01591 0.90903 0.47180
 H1944 H 0.01259 0.94607 0.57768
 C1945 C 0.23070 0.34315 0.09810
 C1946 C 0.22931 0.32601 0.06696
 C1947 C 0.24007 0.33974 0.03560
 C1948 C 0.25781 0.36767 0.03635
 C1949 C 0.25914 0.38406 0.06867
 C1950 C 0.24406 0.37284 0.09876
 C1951 C 0.21885 0.32941 0.13102
 C1952 C 0.21759 0.34765 0.16132
 C1953 C 0.20937 0.33355 0.19325
 C1954 C 0.21049 0.30086 0.19674
 C1955 C 0.20724 0.28324 0.16545
 C1956 C 0.21096 0.29775 0.13220
 C1957 C 0.24195 0.39072 0.12951
 C1958 C 0.22780 0.37870 0.15991
 C1959 C 0.21778 0.29533 0.06811
 C1960 C 0.20995 0.28102 0.10047
 H1961 H 0.25133 0.41413 0.13009
 H1962 H 0.22686 0.39306 0.18318
 H1963 H 0.21658 0.28172 0.04421
 H1964 H 0.20343 0.25666 0.10069
 H1965 H 0.23495 0.32826 0.01092
 H1966 H 0.27077 0.40635 0.07016
 H1967 H 0.20691 0.34796 0.21590
 H1968 H 0.20616 0.25804 0.16703
 C1969 C 0.73378 0.84140 0.60187
 C1970 C 0.74238 0.82479 0.57191
 C1971 C 0.75424 0.84097 0.54270
 C1972 C 0.75988 0.87356 0.54383
 C1973 C 0.75156 0.88945 0.57503
 C1974 C 0.73766 0.87374 0.60345
 C1975 C 0.72078 0.82449 0.63240
 C1976 C 0.71151 0.84109 0.66213
 C1977 C 0.70342 0.82452 0.69283
 C1978 C 0.70957 0.79225 0.69538
 C1979 C 0.71236 0.77576 0.66340
 C1980 C 0.71921 0.79187 0.63199
 C1981 C 0.72684 0.88979 0.63309
 C1982 C 0.71335 0.87378 0.66160
 C1983 C 0.73843 0.79226 0.57150
 C1984 C 0.72748 0.77602 0.60123
 H1985 H 0.72892 0.91491 0.63434
 H1986 H 0.70554 0.88697 0.68401
 H1987 H 0.74479 0.77913 0.54841
 H1988 H 0.72623 0.75084 0.60043
 H1989 H 0.75713 0.82791 0.51887
 H1990 H 0.75423 0.91452 0.57614
 H1991 H 0.69637 0.83723 0.71573
 H1992 H 0.71462 0.75059 0.66402
 C1993 C 0.26608 0.66456 0.58106
 C1994 C 0.24533 0.67903 0.55698
 C1995 C 0.23161 0.66141 0.53002
 C1996 C 0.24258 0.63096 0.52245
 C1997 C 0.26235 0.61645 0.54859
 C1998 C 0.27357 0.63295 0.57813
 C1999 C 0.27888 0.68254 0.61093
 C2000 C 0.29561 0.66718 0.63824
 C2001 C 0.30250 0.68350 0.66959
 C2002 C 0.29188 0.71449 0.67344
 C2003 C 0.28272 0.73097 0.64231
 C2004 C 0.27268 0.71453 0.61257
 C2005 C 0.29219 0.61862 0.60483
 C2006 C 0.30247 0.63528 0.63471
 C2007 C 0.23920 0.71109 0.55982
 C2008 C 0.25350 0.72876 0.58648
 H2009 H 0.29811 0.59411 0.60314
 H2010 H 0.31545 0.62300 0.65541
 H2011 H 0.22361 0.72270 0.54098
 H2012 H 0.24807 0.75339 0.58783
 H2013 H 0.21361 0.67226 0.51356
 H2014 H 0.26920 0.59240 0.54663
 H2015 H 0.31296 0.67118 0.69189
 H2016 H 0.27711 0.75559 0.64348
 C2017 C 0.76862 0.15486 0.09312
 C2018 C 0.75707 0.12434 0.09217
 C2019 C 0.74559 0.11244 0.06032
 C2020 C 0.74479 0.13069 0.02896
 C2021 C 0.76005 0.16018 0.03025
 C2022 C 0.77041 0.17289 0.06233
 C2023 C 0.77766 0.16861 0.12727
 C2024 C 0.78635 0.20011 0.12895
 C2025 C 0.78929 0.21447 0.16225
 C2026 C 0.78224 0.19765 0.19344
 C2027 C 0.77707 0.16514 0.19047
 C2028 C 0.77439 0.15074 0.15794
 C2029 C 0.78173 0.20360 0.06443
 C2030 C 0.78915 0.21712 0.09723
 C2031 C 0.75626 0.10651 0.12337
 C2032 C 0.76482 0.11951 0.15578
 H2033 H 0.78349 0.21778 0.04070
 H2034 H 0.79611 0.24135 0.09781
 H2035 H 0.74782 0.08275 0.12295
 H2036 H 0.76246 0.10545 0.17954
 H2037 H 0.73716 0.08873 0.06011
 H2038 H 0.76438 0.17363 0.00661
 H2039 H 0.79307 0.23939 0.16343
 H2040 H 0.76950 0.15129 0.21235
 C2041 C 0.70767 0.17699 0.90541
 C2042 C 0.71184 0.18989 0.93886
 C2043 C 0.71642 0.16997 0.96802
 C2044 C 0.72271 0.13775 0.96348
 C2045 C 0.71637 0.12520 0.92965
 C2046 C 0.70802 0.14463 0.90083
 C2047 C 0.70387 0.19779 0.87441
 C2048 C 0.69776 0.18498 0.84122
 C2049 C 0.69786 0.20459 0.81136
 C2050 C 0.70949 0.23522 0.81390
 C2051 C 0.71135 0.24864 0.84782
 C2052 C 0.70821 0.22995 0.87825
 C2053 C 0.70059 0.13258 0.86736
 C2054 C 0.69448 0.15251 0.83829
 C2055 C 0.71252 0.22249 0.94230
 C2056 C 0.71176 0.24217 0.91235
 H2057 H 0.69978 0.10761 0.86353
 H2058 H 0.68902 0.14232 0.81293
 H2059 H 0.71564 0.23277 0.96812
 H2060 H 0.71454 0.26702 0.91587
 H2061 H 0.71506 0.18002 0.99393
 H2062 H 0.71801 0.10026 0.92584
 H2063 H 0.69166 0.19495 0.78619
 H2064 H 0.71829 0.27274 0.85072
 C2065 C 0.21371 0.68322 0.40190
 C2066 C 0.19956 0.65396 0.39987
 C2067 C 0.20486 0.63208 0.42737
 C2068 C 0.22538 0.63854 0.45644
 C2069 C 0.24157 0.66736 0.45508
 C2070 C 0.23437 0.69022 0.42968
 C2071 C 0.20865 0.70624 0.37310
 C2072 C 0.22302 0.73542 0.37543
 C2073 C 0.22129 0.75582 0.34653
 C2074 C 0.20926 0.74565 0.31364
 C2075 C 0.19124 0.71815 0.31314
 C2076 C 0.19143 0.69794 0.34277
 C2077 C 0.24792 0.71991 0.43137
 C2078 C 0.24173 0.74241 0.40510
 C2079 C 0.18093 0.64700 0.36995
 C2080 C 0.17723 0.66846 0.34174
 H2081 H 0.26358 0.72573 0.45308
 H2082 H 0.25308 0.76486 0.40706
 H2083 H 0.16995 0.62438 0.36777
 H2084 H 0.16392 0.66157 0.31853
 H2085 H 0.19335 0.61000 0.42494
 H2086 H 0.26020 0.67220 0.47389
 H2087 H 0.23337 0.77786 0.34860
 H2088 H 0.17978 0.71092 0.28892
 C2089 C 0.77841 0.83492 0.41851
 C2090 C 0.79674 0.82753 0.44844
 C2091 C 0.79616 0.84798 0.47762
 C2092 C 0.77569 0.87429 0.47710
 C2093 C 0.76279 0.88359 0.44405
 C2094 C 0.76222 0.86335 0.41584
 C2095 C 0.77483 0.81208 0.38996
 C2096 C 0.75360 0.81880 0.36263
 C2097 C 0.74742 0.79647 0.33770
 C2098 C 0.76513 0.76845 0.33559
 C2099 C 0.78729 0.76208 0.36306
 C2100 C 0.79138 0.78367 0.39118
 C2101 C 0.74348 0.87020 0.38611
 C2102 C 0.73867 0.84794 0.36024
 C2103 C 0.81356 0.79912 0.44895
 C2104 C 0.81128 0.77782 0.42064
 H2105 H 0.73104 0.89222 0.38381
 H2106 H 0.72294 0.85350 0.33829
 H2107 H 0.82815 0.79302 0.47166
 H2108 H 0.82448 0.75624 0.42235
 H2109 H 0.80923 0.84204 0.50154
 H2110 H 0.75055 0.90561 0.44085
 H2111 H 0.72969 0.80281 0.31826
 H2112 H 0.80085 0.74071 0.36273
 C2113 C 0.29463 0.32377 0.91449
 C2114 C 0.29167 0.31060 0.94824
 C2115 C 0.28614 0.33019 0.97697
 C2116 C 0.27820 0.36208 0.97153
 C2117 C 0.28273 0.37486 0.93728
 C2118 C 0.29180 0.35602 0.90906
 C2119 C 0.29969 0.30332 0.88400
 C2120 C 0.30432 0.31658 0.85056
 C2121 C 0.30589 0.29704 0.82119
 C2122 C 0.29731 0.26541 0.82407
 C2123 C 0.29652 0.25197 0.85839
 C2124 C 0.29801 0.27090 0.88850
 C2125 C 0.29750 0.36859 0.87532
 C2126 C 0.30454 0.34922 0.84678
 C2127 C 0.29318 0.27799 0.95232
 C2128 C 0.29536 0.25845 0.92282
 H2129 H 0.29618 0.39354 0.87086
 H2130 H 0.30840 0.35984 0.82115
 H2131 H 0.29090 0.26743 0.97827
 H2132 H 0.29435 0.23344 0.92686
 H2133 H 0.28737 0.32013 1.00324
 H2134 H 0.27911 0.39957 0.93263
 H2135 H 0.31097 0.30729 0.79597
 H2136 H 0.29157 0.22737 0.86168
 C2137 C 0.82272 0.42277 0.77750
 C2138 C 0.80459 0.44922 0.78457
 C2139 C 0.81864 0.47906 0.78277
 C2140 C 0.84939 0.48249 0.76958
 C2141 C 0.86731 0.45492 0.76564
 C2142 C 0.85438 0.42551 0.76937
 C2143 C 0.80826 0.39161 0.77742
 C2144 C 0.82686 0.36571 0.76991
 C2145 C 0.81299 0.33676 0.76633
 C2146 C 0.78043 0.33255 0.76961
 C2147 C 0.76204 0.35874 0.77880
 C2148 C 0.77600 0.38847 0.78266
 C2149 C 0.87244 0.39882 0.76330
 C2150 C 0.85890 0.36934 0.76371
 C2151 C 0.77265 0.44511 0.79202
 C2152 C 0.75853 0.41538 0.79058
 H2153 H 0.89706 0.40079 0.75730
 H2154 H 0.87344 0.34930 0.75807
 H2155 H 0.75816 0.46517 0.79765
 H2156 H 0.73366 0.41355 0.79516
 H2157 H 0.80559 0.49888 0.79184
 H2158 H 0.89137 0.45619 0.75748
 H2159 H 0.82753 0.31863 0.75601
 H2160 H 0.73702 0.35626 0.78177
 C2161 C 0.31810 0.92947 0.26704
 C2162 C 0.30015 0.95629 0.27252
 C2163 C 0.31502 0.98573 0.27194
 C2164 C 0.34702 0.98843 0.26246
 C2165 C 0.36472 0.96045 0.26300
 C2166 C 0.35054 0.93137 0.26341
 C2167 C 0.30283 0.89876 0.26491
 C2168 C 0.32116 0.87263 0.25789
 C2169 C 0.30673 0.84421 0.25238
 C2170 C 0.27409 0.84025 0.25552
 C2171 C 0.25591 0.86676 0.26405
 C2172 C 0.27026 0.89628 0.26824
 C2173 C 0.36827 0.90426 0.25843
 C2174 C 0.35373 0.87537 0.25515
 C2175 C 0.26769 0.95296 0.27746
 C2176 C 0.25302 0.92354 0.27520
 H2177 H 0.39343 0.90553 0.25570
 H2178 H 0.36807 0.85505 0.25013
 H2179 H 0.25336 0.97334 0.28208
 H2180 H 0.22792 0.92224 0.27830
 H2181 H 0.30176 1.00563 0.28031
 H2182 H 0.38985 0.96106 0.26151
 H2183 H 0.32115 0.82614 0.24178
 H2184 H 0.23081 0.86463 0.26662
 C2185 C 0.18680 0.89690 0.74882
 C2186 C 0.20427 0.92149 0.76290
 C2187 C 0.18985 0.95100 0.76687
 C2188 C 0.15708 0.95485 0.76117
 C2189 C 0.14028 0.92871 0.74828
 C2190 C 0.15506 0.90070 0.74042
 C2191 C 0.20185 0.86638 0.74298
 C2192 C 0.18484 0.84296 0.72604
 C2193 C 0.19890 0.81404 0.72075
 C2194 C 0.22808 0.80635 0.73650
 C2195 C 0.24536 0.83060 0.75273
 C2196 C 0.23257 0.86095 0.75511
 C2197 C 0.13854 0.87639 0.72420
 C2198 C 0.15344 0.84829 0.71621
 C2199 C 0.23571 0.91579 0.77293
 C2200 C 0.24930 0.88587 0.77004
 H2201 H 0.11400 0.87926 0.71725
 H2202 H 0.13994 0.83016 0.70345
 H2203 H 0.24963 0.93435 0.78415
 H2204 H 0.27317 0.88231 0.77932
 H2205 H 0.20465 0.97012 0.77391
 H2206 H 0.11524 0.93046 0.74364
 H2207 H 0.18569 0.79728 0.70635
 H2208 H 0.26834 0.82582 0.76406
 C2209 C 0.68374 0.39333 0.23928
 C2210 C 0.65441 0.39901 0.22342
 C2211 C 0.64047 0.42846 0.22682
 C2212 C 0.65592 0.45283 0.24501
 C2213 C 0.68555 0.44632 0.26079
 C2214 C 0.69940 0.41674 0.25806
 C2215 C 0.69769 0.36182 0.23753
 C2216 C 0.72629 0.35578 0.25491
 C2217 C 0.73851 0.32545 0.25512
 C2218 C 0.72200 0.30069 0.23902
 C2219 C 0.69426 0.30775 0.21974
 C2220 C 0.68168 0.33812 0.21958
 C2221 C 0.72828 0.40983 0.27466
 C2222 C 0.74148 0.37989 0.27312
 C2223 C 0.63925 0.37488 0.20517
 C2224 C 0.65270 0.34501 0.20313
 H2225 H 0.74058 0.42762 0.28939
 H2226 H 0.76352 0.37544 0.28685
 H2227 H 0.61661 0.37903 0.19265
 H2228 H 0.63998 0.32699 0.18924
 H2229 H 0.61717 0.43221 0.21585
 H2230 H 0.69730 0.46367 0.27665
 H2231 H 0.76022 0.32109 0.26950
 H2232 H 0.68164 0.28966 0.20616
 C2233 C 0.69825 0.56542 0.27094
 C2234 C 0.70445 0.54590 0.24262
 C2235 C 0.68774 0.51801 0.23932
 C2236 C 0.66167 0.51112 0.26091
 C2237 C 0.65771 0.53041 0.29094
 C2238 C 0.67618 0.55709 0.29625
 C2239 C 0.71456 0.59555 0.27364
 C2240 C 0.70932 0.61455 0.30277
 C2241 C 0.72272 0.64432 0.30348
 C2242 C 0.73617 0.65708 0.27278
 C2243 C 0.74549 0.63609 0.24639
 C2244 C 0.73434 0.60527 0.24649
 C2245 C 0.67237 0.57626 0.32582
 C2246 C 0.68913 0.60422 0.32936
 C2247 C 0.72652 0.55518 0.21741
 C2248 C 0.74087 0.58458 0.21904
 H2249 H 0.65592 0.56987 0.34610
 H2250 H 0.68498 0.61863 0.35213
 H2251 H 0.73155 0.54028 0.19527
 H2252 H 0.75641 0.59151 0.19808
 H2253 H 0.69562 0.50181 0.21992
 H2254 H 0.64017 0.52545 0.31033
 H2255 H 0.72080 0.65809 0.32710
 H2256 H 0.75946 0.64420 0.22454
 C2257 C 0.18133 0.07680 0.78416
 C2258 C 0.19619 0.05061 0.79935
 C2259 C 0.18140 0.02100 0.79687
 C2260 C 0.15454 0.01696 0.77456
 C2261 C 0.14014 0.04477 0.76121
 C2262 C 0.15266 0.07402 0.76644
 C2263 C 0.19606 0.10780 0.78610
 C2264 C 0.17987 0.13354 0.77198
 C2265 C 0.19429 0.16230 0.77110
 C2266 C 0.22579 0.16626 0.78198
 C2267 C 0.24158 0.14032 0.79774
 C2268 C 0.22642 0.11090 0.80023
 C2269 C 0.13695 0.10055 0.75324
 C2270 C 0.15015 0.12994 0.75647
 C2271 C 0.22572 0.05484 0.81583
 C2272 C 0.24086 0.08421 0.81549
 H2273 H 0.11445 0.09852 0.73988
 H2274 H 0.13752 0.14986 0.74549
 H2275 H 0.23780 0.03507 0.82784
 H2276 H 0.26410 0.08597 0.82709
 H2277 H 0.19079 0.00177 0.81237
 H2278 H 0.11842 0.04428 0.74624
 H2279 H 0.18174 0.18060 0.75711
 H2280 H 0.26556 0.14273 0.80695
 C2281 C 0.31947 0.11026 0.23833
 C2282 C 0.35202 0.10694 0.23736
 C2283 C 0.36532 0.07731 0.24054
 C2284 C 0.34691 0.05031 0.24552
 C2285 C 0.31396 0.05407 0.24104
 C2286 C 0.30014 0.08408 0.23980
 C2287 C 0.30551 0.14182 0.23781
 C2288 C 0.27306 0.14567 0.24096
 C2289 C 0.26048 0.17615 0.24391
 C2290 C 0.28031 0.20256 0.24344
 C2291 C 0.31251 0.19736 0.23803
 C2292 C 0.32520 0.16758 0.23570
 C2293 C 0.26747 0.08864 0.24066
 C2294 C 0.25422 0.11885 0.24189
 C2295 C 0.37090 0.13342 0.23423
 C2296 C 0.35770 0.16327 0.23332
 H2297 H 0.25207 0.06870 0.24166
 H2298 H 0.22907 0.12118 0.24387
 H2299 H 0.39611 0.13108 0.23317
 H2300 H 0.37312 0.18318 0.23158
 H2301 H 0.39049 0.07540 0.23948
 H2302 H 0.29886 0.03451 0.23670
 H2303 H 0.23559 0.17916 0.24765
 H2304 H 0.32911 0.21571 0.24054
 C2305 C 0.81896 0.60387 0.74659
 C2306 C 0.85157 0.60105 0.74614
 C2307 C 0.86529 0.57179 0.75047
 C2308 C 0.84723 0.54438 0.75381
 C2309 C 0.81420 0.54752 0.74981
 C2310 C 0.79997 0.57742 0.74864
 C2311 C 0.80461 0.63523 0.74510
 C2312 C 0.77221 0.63888 0.74887
 C2313 C 0.75939 0.66940 0.75090
 C2314 C 0.77887 0.69597 0.74779
 C2315 C 0.81074 0.69075 0.74063
 C2316 C 0.82389 0.66110 0.74093
 C2317 C 0.76728 0.58171 0.75012
 C2318 C 0.75373 0.61184 0.75110
 C2319 C 0.87011 0.62766 0.74209
 C2320 C 0.85645 0.65719 0.73895
 H2321 H 0.75211 0.56163 0.75179
 H2322 H 0.72860 0.61396 0.75359
 H2323 H 0.89537 0.62565 0.74141
 H2324 H 0.87159 0.67722 0.73606
 H2325 H 0.89056 0.57040 0.75183
 H2326 H 0.79939 0.52748 0.74685
 H2327 H 0.73461 0.67237 0.75549
 H2328 H 0.82699 0.70931 0.73902
 C2329 C 0.90798 0.74929 0.20468
 C2330 C 0.92902 0.72459 0.20934
 C2331 C 0.95519 0.72284 0.18741
 C2332 C 0.96108 0.74585 0.16092
 C2333 C 0.94077 0.77216 0.16006
 C2334 C 0.91369 0.77314 0.18013
 C2335 C 0.87889 0.74974 0.22502
 C2336 C 0.85650 0.77261 0.21704
 C2337 C 0.82711 0.77021 0.23176
 C2338 C 0.81993 0.74681 0.25710
 C2339 C 0.84376 0.72527 0.26687
 C2340 C 0.87297 0.72605 0.24993
 C2341 C 0.89157 0.79711 0.17503
 C2342 C 0.86307 0.79643 0.19258
 C2343 C 0.92308 0.70175 0.23538
 C2344 C 0.89569 0.70264 0.25557
 H2345 H 0.89565 0.81570 0.15607
 H2346 H 0.84585 0.81442 0.18658
 H2347 H 0.93947 0.68272 0.23979
 H2348 H 0.89179 0.68425 0.27480
 H2349 H 0.97099 0.70385 0.19235
 H2350 H 0.94520 0.79231 0.14372
 H2351 H 0.80923 0.78556 0.22095
 H2352 H 0.83871 0.70637 0.28506
 C2353 C 0.41267 0.24028 0.68371
 C2354 C 0.44070 0.23844 0.70304
 C2355 C 0.46903 0.23892 0.68476
 C2356 C 0.46969 0.24629 0.64799
 C2357 C 0.44078 0.24643 0.62938
 C2358 C 0.41257 0.24292 0.64677
 C2359 C 0.38280 0.23797 0.70223
 C2360 C 0.35528 0.23599 0.68216
 C2361 C 0.32719 0.23275 0.69929
 C2362 C 0.32518 0.23537 0.73655
 C2363 C 0.35319 0.23685 0.75666
 C2364 C 0.38232 0.23710 0.73939
 C2365 C 0.38425 0.24168 0.62771
 C2366 C 0.35604 0.23763 0.64513
 C2367 C 0.43971 0.23592 0.74017
 C2368 C 0.41103 0.23617 0.75808
 H2369 H 0.38394 0.24346 0.59913
 H2370 H 0.33460 0.23637 0.62954
 H2371 H 0.46129 0.23459 0.75553
 H2372 H 0.41133 0.23504 0.78667
 H2373 H 0.48978 0.23187 0.69931
 H2374 H 0.44018 0.24835 0.60089
 H2375 H 0.30673 0.22965 0.68257
 H2376 H 0.35236 0.23741 0.78523
 C2377 C 0.41306 0.73800 0.81616
 C2378 C 0.43742 0.75249 0.79825
 C2379 C 0.46537 0.75887 0.81679
 C2380 C 0.47054 0.74792 0.85212
 C2381 C 0.44481 0.73416 0.86921
 C2382 C 0.41639 0.72942 0.85181
 C2383 C 0.38261 0.73399 0.79819
 C2384 C 0.35740 0.72339 0.81790
 C2385 C 0.32799 0.72262 0.80221
 C2386 C 0.32334 0.72926 0.76583
 C2387 C 0.34912 0.73927 0.74592
 C2388 C 0.37875 0.74266 0.76246
 C2389 C 0.39084 0.71733 0.87009
 C2390 C 0.36163 0.71476 0.85350
 C2391 C 0.43287 0.76126 0.76256
 C2392 C 0.40424 0.75582 0.74476
 H2393 H 0.39319 0.71068 0.89771
 H2394 H 0.34215 0.70621 0.86873
 H2395 H 0.45162 0.77232 0.74823
 H2396 H 0.40174 0.76286 0.71729
 H2397 H 0.48174 0.77432 0.80420
 H2398 H 0.44595 0.72844 0.89694
 H2399 H 0.30868 0.71672 0.81911
 H2400 H 0.34579 0.74606 0.71846
 C2401 C 0.91167 0.23410 0.31893
 C2402 C 0.93403 0.25211 0.30155
 C2403 C 0.96352 0.25666 0.31783
 C2404 C 0.97126 0.24281 0.35124
 C2405 C 0.94781 0.22430 0.36717
 C2406 C 0.91851 0.22002 0.35158
 C2407 C 0.87976 0.23165 0.30395
 C2408 C 0.85703 0.21554 0.32307
 C2409 C 0.82639 0.21492 0.31024
 C2410 C 0.81809 0.22940 0.27778
 C2411 C 0.84135 0.24500 0.25838
 C2412 C 0.87223 0.24659 0.27175
 C2413 C 0.89538 0.20307 0.36926
 C2414 C 0.86507 0.20094 0.35526
 C2415 C 0.92584 0.26647 0.26906
 C2416 C 0.89556 0.26352 0.25427
 H2417 H 0.90052 0.19207 0.39462
 H2418 H 0.84766 0.18828 0.37007
 H2419 H 0.94284 0.28043 0.25516
 H2420 H 0.89017 0.27522 0.22939
 H2421 H 0.97900 0.27338 0.30577
 H2422 H 0.95099 0.21411 0.39298
 H2423 H 0.80907 0.20276 0.32567
 H2424 H 0.83536 0.25648 0.23353
 C2425 C 0.09115 0.26803 0.32432
 C2426 C 0.08702 0.27277 0.36038
 C2427 C 0.05736 0.26974 0.37439
 C2428 C 0.03118 0.26049 0.35367
 C2429 C 0.03651 0.25412 0.31743
 C2430 C 0.06605 0.25928 0.30242
 C2431 C 0.12282 0.27026 0.30982
 C2432 C 0.12730 0.26626 0.27351
 C2433 C 0.15772 0.26893 0.26000
 C2434 C 0.18351 0.27367 0.28309
 C2435 C 0.17833 0.27509 0.31975
 C2436 C 0.14820 0.27508 0.33294
 C2437 C 0.07141 0.25475 0.26623
 C2438 C 0.10136 0.25889 0.25188
 C2439 C 0.11291 0.27898 0.38242
 C2440 C 0.14312 0.27961 0.36899
 H2441 H 0.05228 0.24814 0.24881
 H2442 H 0.10437 0.25548 0.22383
 H2443 H 0.10990 0.28251 0.41045
 H2444 H 0.16264 0.28371 0.38696
 H2445 H 0.05566 0.27210 0.40250
 H2446 H 0.01904 0.24293 0.30121
 H2447 H 0.16136 0.26629 0.23195
 H2448 H 0.19767 0.27758 0.33832
 C2449 C 0.59066 0.76899 0.82524
 C2450 C 0.58652 0.77569 0.86093
 C2451 C 0.55678 0.77359 0.87512
 C2452 C 0.53073 0.76326 0.85492
 C2453 C 0.53635 0.75477 0.81932
 C2454 C 0.56563 0.75919 0.80399
 C2455 C 0.62228 0.76978 0.81065
 C2456 C 0.62664 0.76357 0.77472
 C2457 C 0.65699 0.76476 0.76107
 C2458 C 0.68282 0.77004 0.78380
 C2459 C 0.67780 0.77346 0.82031
 C2460 C 0.64772 0.77517 0.83343
 C2461 C 0.57079 0.75248 0.76824
 C2462 C 0.60068 0.75541 0.75362
 C2463 C 0.61251 0.78271 0.88248
 C2464 C 0.64274 0.78189 0.86906
 H2465 H 0.55157 0.74500 0.75142
 H2466 H 0.60364 0.75028 0.72593
 H2467 H 0.60955 0.78784 0.91018
 H2468 H 0.66235 0.78652 0.88670
 H2469 H 0.55485 0.77761 0.90299
 H2470 H 0.51949 0.74172 0.80414
 H2471 H 0.66055 0.76051 0.73326
 H2472 H 0.69723 0.77626 0.83869
 C2473 C 0.59111 0.25970 0.67765
 C2474 C 0.56455 0.26473 0.69784
 C2475 C 0.53504 0.26433 0.68108
 C2476 C 0.53152 0.25427 0.64557
 C2477 C 0.55907 0.25169 0.62563
 C2478 C 0.58859 0.25452 0.64125
 C2479 C 0.62224 0.26109 0.69455
 C2480 C 0.64858 0.25903 0.67337
 C2481 C 0.67798 0.26090 0.68902
 C2482 C 0.68191 0.26192 0.72622
 C2483 C 0.65517 0.26459 0.74728
 C2484 C 0.62511 0.26494 0.73129
 C2485 C 0.61563 0.25227 0.62101
 C2486 C 0.64523 0.25494 0.63678
 C2487 C 0.56811 0.27007 0.73432
 C2488 C 0.59785 0.26942 0.75092
 H2489 H 0.61391 0.24863 0.59277
 H2490 H 0.66565 0.25331 0.62029
 H2491 H 0.54770 0.27396 0.75031
 H2492 H 0.59953 0.27286 0.77918
 H2493 H 0.51553 0.27322 0.69563
 H2494 H 0.55766 0.24784 0.59750
 H2495 H 0.69777 0.26018 0.67161
 H2496 H 0.65771 0.26693 0.77564
 C2497 C 0.08150 0.74876 0.18470
 C2498 C 0.05554 0.75237 0.20643
 C2499 C 0.02523 0.74975 0.19148
 C2500 C 0.02107 0.74209 0.15527
 C2501 C 0.04801 0.73646 0.13505
 C2502 C 0.07785 0.74097 0.14903
 C2503 C 0.11315 0.75445 0.19908
 C2504 C 0.13834 0.75420 0.17606
 C2505 C 0.16797 0.76111 0.18897
 C2506 C 0.17398 0.76449 0.22561
 C2507 C 0.14832 0.76506 0.24862
 C2508 C 0.11757 0.76085 0.23514
 C2509 C 0.10399 0.73946 0.12726
 C2510 C 0.13373 0.74661 0.14041
 C2511 C 0.06059 0.75947 0.24232
 C2512 C 0.09108 0.76302 0.25656
 H2513 H 0.10131 0.73362 0.09961
 H2514 H 0.15331 0.74590 0.12261
 H2515 H 0.04083 0.76223 0.25957
 H2516 H 0.09387 0.76817 0.28438
 H2517 H 0.00538 0.75480 0.20781
 H2518 H 0.04550 0.73124 0.10720
 H2519 H 0.18656 0.76204 0.16997
 H2520 H 0.15218 0.76897 0.27655
   
