data_POSCAR
  _audit_creation_date              2014-09-24
  _audit_creation_method            'ToBaCCo'
  _symmetry_space_group_name_H-M    'P1'
  _symmetry_Int_Tables_number       1
  _symmetry_cell_setting            triclinic
  loop_
  _symmetry_equiv_pos_as_xyz
 x,y,z
_cell_length_a 49.7776
_cell_length_b 49.8108
_cell_length_c 50.1298
_cell_angle_alpha 89.764100
_cell_angle_beta 89.885600
_cell_angle_gamma 89.647000
loop_
  _atom_site_label
  _atom_site_type_symbol
  _atom_site_fract_x
  _atom_site_fract_y
  _atom_site_fract_z
N1 N 0.30360 0.41960 0.93531
 N2 N 0.45094 0.83057 0.44401
 N3 N 0.93645 0.93556 0.82761
 N4 N 0.44263 -0.06968 0.32186
 N5 N 0.82245 0.32958 0.32235
 N6 N -0.18492 0.81492 0.80146
 N7 N 0.91963 0.34352 0.41124
 N8 N 0.41903 0.41681 0.83424
 N9 N 0.81032 0.93054 0.92051
 N10 N 0.33694 0.81639 0.32824
 N11 N 0.82500 0.44447 0.40785
 N12 N 0.90625 0.81834 -0.08266
 N13 N 0.31926 0.31043 0.82648
 N14 N 0.18488 0.57140 0.56607
 N15 N 0.56587 0.67577 0.07538
 N16 N 0.69038 0.19781 0.67903
 N17 N 1.06186 0.05291 0.19320
 N18 N 0.05686 0.16032 1.08178
 N19 N 0.18516 0.67251 0.68716
 N20 N 1.18135 0.16282 0.18522
 N21 N 0.68864 1.08799 0.56880
 N22 N 0.57529 0.56818 0.17641
 N23 N 0.68549 0.68133 0.16133
 N24 N 0.16725 0.05326 1.07500
 N25 N 0.56713 0.19975 0.58207
 N26 N 0.07010 0.57854 0.67713
 N27 N 0.66319 0.56744 0.05486
 N28 N 0.08212 0.68935 0.56208
 N29 N 0.58033 1.07331 0.67784
 N30 N 0.41626 0.31040 0.94560
 N31 N 0.93645 0.43121 0.31458
 N32 N 0.33462 0.93018 0.43306
 O33 O 0.26651 0.40475 0.74248
 O34 O 0.26616 0.41563 0.69758
 O35 O 0.31281 0.46733 0.77735
 O36 O 0.31067 0.51405 0.77725
 O37 O 0.23680 0.44769 0.81587
 O38 O 0.19427 0.44482 0.80659
 O39 O 0.25006 0.55082 0.71279
 O40 O 0.29301 0.53517 0.70827
 O41 O 0.20453 0.48643 0.67680
 O42 O 0.19581 0.44307 0.68538
 O43 O 0.17641 0.52412 0.75044
 O44 O 0.18750 0.52157 0.79358
 O45 O 0.21709 0.55489 0.74400
 O46 O 0.22439 0.54328 0.79395
 O47 O 0.17088 0.49619 0.71512
 O48 O 0.17403 0.44298 0.71999
 O49 O 0.23894 0.51623 0.67591
 O50 O 0.28945 0.50324 0.68357
 O51 O 0.23875 0.40820 0.77845
 O52 O 0.18913 0.42453 0.77150
 O53 O 0.27553 0.47173 0.81565
 O54 O 0.28011 0.52022 0.80500
 O55 O 0.30840 0.43721 0.74365
 O56 O 0.29604 0.44450 0.69557
 Zr57 Zr 0.26928 0.44423 0.72841
 O58 O 0.24657 0.47085 0.70457
 Zr59 Zr 0.27659 0.48897 0.77681
 O60 O 0.25678 0.51843 0.75379
 Zr61 Zr 0.22384 0.44831 0.77650
 O62 O 0.20070 0.47750 0.75634
 Zr63 Zr 0.25931 0.50994 0.71270
 O64 O 0.28342 0.48318 0.73555
 Zr65 Zr 0.20560 0.47094 0.71543
 O66 O 0.22765 0.44040 0.73564
 Zr67 Zr 0.21567 0.51647 0.76241
 O68 O 0.23553 0.48780 0.78664
 O69 O 0.26484 0.44989 0.76928
 O70 O 0.21833 0.51022 0.72138
 C71 C 0.25490 0.39497 0.76311
 C72 C 0.32162 0.44797 0.76288
 C73 C 0.25766 0.45707 0.82724
 C74 C 0.23250 0.56446 0.72564
 C75 C 0.21855 0.50452 0.66532
 C76 C 0.16286 0.51505 0.73089
 H77 H 0.24908 0.46596 0.68563
 H78 H 0.18174 0.47605 0.76208
 H79 H 0.27513 0.43717 0.78058
 H80 H 0.26446 0.53619 0.75791
 H81 H 0.29899 0.53975 0.72648
 H82 H 0.31831 0.51360 0.75901
 H83 H 0.15982 0.45144 0.73101
 H84 H 0.19357 0.41067 0.75806
 H85 H 0.28152 0.49253 0.66903
 H86 H 0.30972 0.45834 0.69925
 H87 H 0.19161 0.50750 0.80698
 H88 H 0.18551 0.46264 0.80794
 H89 H 0.24704 0.41034 0.69693
 H90 H 0.21302 0.43531 0.67911
 H91 H 0.26374 0.51971 0.81623
 H92 H 0.23798 0.55625 0.78763
 O93 O 0.18968 0.03115 0.25219
 O94 O 0.20146 0.02989 0.29752
 O95 O 0.26586 0.05542 0.21676
 O96 O 0.30770 0.03941 0.21574
 O97 O 0.21860 -0.00476 0.18075
 O98 O 0.21240 -0.05195 0.18909
 O99 O 0.32343 -0.02983 0.28362
 O100 O 0.32390 0.01702 0.28082
 O101 O 0.24908 -0.04854 0.32086
 O102 O 0.20146 -0.03776 0.31023
 O103 O 0.27838 -0.08924 0.25621
 O104 O 0.27323 -0.08550 0.21015
 O105 O 0.31810 -0.05992 0.25007
 O106 O 0.30342 -0.05656 0.20108
 O107 O 0.24463 -0.08411 0.28640
 O108 O 0.19753 -0.06662 0.28249
 O109 O 0.28798 -0.02480 0.31997
 O110 O 0.29357 0.02390 0.31167
 O111 O 0.18216 -0.00009 0.22006
 O112 O 0.18488 -0.04868 0.22028
 O113 O 0.25761 0.01881 0.17965
 O114 O 0.30413 0.00490 0.18958
 O115 O 0.23319 0.06148 0.24804
 O116 O 0.23679 0.05188 0.29575
 Zr117 Zr 0.22867 0.02336 0.26574
 O118 O 0.24720 -0.00480 0.29104
 Zr119 Zr 0.27386 0.01399 0.21797
 O120 O 0.29518 -0.01384 0.24159
 Zr121 Zr 0.21831 -0.02275 0.21897
 O122 O 0.23748 -0.05291 0.24199
 Zr123 Zr 0.28846 -0.00615 0.28225
 O124 O 0.27030 0.02417 0.25862
 Zr125 Zr 0.23312 -0.04353 0.28254
 O126 O 0.21173 -0.01484 0.25970
 Zr127 Zr 0.27918 -0.05232 0.23554
 O128 O 0.25957 -0.02481 0.20946
 O129 O 0.23273 0.01567 0.22528
 O130 O 0.27446 -0.04482 0.27602
 C131 C 0.17479 0.01981 0.23477
 C132 C 0.24863 0.06998 0.22924
 C133 C 0.23582 0.01047 0.16902
 C134 C 0.33163 -0.04943 0.26909
 C135 C 0.27087 -0.04026 0.33148
 C136 C 0.26372 -0.09773 0.27561
 H137 H 0.24356 0.00021 0.30975
 H138 H 0.23012 -0.07078 0.23777
 H139 H 0.22299 0.02912 0.21432
 H140 H 0.31445 -0.01278 0.23690
 H141 H 0.31917 0.03413 0.27180
 H142 H 0.32174 0.03156 0.22736
 H143 H 0.19882 -0.07978 0.26782
 H144 H 0.17694 -0.04679 0.23831
 H145 H 0.27745 0.02421 0.32323
 H146 H 0.25557 0.05774 0.29308
 H147 H 0.25620 -0.08211 0.20061
 H148 H 0.22915 -0.05273 0.17843
 H149 H 0.19012 0.01367 0.29865
 H150 H 0.20677 -0.02318 0.32245
 H151 H 0.29733 -0.00988 0.17837
 H152 H 0.31944 -0.04518 0.20357
 O153 O 0.59490 0.71001 0.26709
 O154 O 0.58117 0.71408 0.31522
 O155 O 0.52702 0.67938 0.22964
 O156 O 0.48250 0.68971 0.22742
 O157 O 0.56474 0.75054 0.19771
 O158 O 0.56591 0.79720 0.21206
 O159 O 0.45202 0.75648 0.29232
 O160 O 0.45847 0.70757 0.28567
 O161 O 0.51651 0.78150 0.33683
 O162 O 0.56807 0.77191 0.33162
 O163 O 0.49558 0.82149 0.26982
 O164 O 0.50470 0.81441 0.21992
 O165 O 0.45765 0.78826 0.26011
 O166 O 0.47297 0.79038 0.21579
 O167 O 0.52693 0.81852 0.30267
 O168 O 0.57101 0.80559 0.30821
 O169 O 0.48400 0.75000 0.33229
 O170 O 0.48240 0.70550 0.32267
 O171 O 0.59913 0.74339 0.23624
 O172 O 0.59421 0.79064 0.24260
 O173 O 0.53250 0.71854 0.19414
 O174 O 0.48485 0.72467 0.19945
 O175 O 0.55489 0.67603 0.26549
 O176 O 0.55191 0.68439 0.31156
 Zr177 Zr 0.55507 0.71458 0.28198
 O178 O 0.52944 0.73799 0.30625
 Zr179 Zr 0.51254 0.71936 0.23110
 O180 O 0.48596 0.74423 0.25265
 Zr181 Zr 0.56212 0.76351 0.23757
 O182 O 0.53824 0.78955 0.26053
 Zr183 Zr 0.48926 0.73554 0.29346
 O184 O 0.51429 0.70862 0.27182
 Zr185 Zr 0.53936 0.77847 0.30110
 O186 O 0.56679 0.75491 0.27851
 Zr187 Zr 0.49800 0.78459 0.24940
 O188 O 0.52219 0.76012 0.22463
 O189 O 0.55250 0.72319 0.24152
 O190 O 0.49902 0.77599 0.29014
 C191 C 0.60796 0.72255 0.24862
 C192 C 0.54329 0.66627 0.24493
 C193 C 0.55184 0.73264 0.18463
 C194 C 0.44347 0.77597 0.27752
 C195 C 0.49602 0.76833 0.34547
 C196 C 0.50891 0.83122 0.28947
 H197 H 0.53140 0.73228 0.32505
 H198 H 0.54452 0.80814 0.25774
 H199 H 0.56371 0.71127 0.23031
 H200 H 0.46745 0.74148 0.24613
 H201 H 0.46734 0.69084 0.27949
 H202 H 0.46557 0.69726 0.23465
 H203 H 0.57716 0.81203 0.29056
 H204 H 0.60208 0.78682 0.26035
 H205 H 0.50011 0.69996 0.32971
 H206 H 0.53372 0.67669 0.30980
 H207 H 0.51825 0.82706 0.22681
 H208 H 0.54957 0.79775 0.20086
 H209 H 0.59348 0.72947 0.31304
 H210 H 0.56000 0.75994 0.34519
 H211 H 0.48907 0.74206 0.19082
 H212 H 0.46310 0.77345 0.21299
 O213 O 0.00081 0.69651 0.70345
 O214 O -0.04103 0.71532 0.69500
 O215 O 0.05208 0.76356 0.67747
 O216 O 0.06511 0.80248 0.69140
 O217 O 0.06956 0.71911 0.75429
 O218 O 0.05024 0.71434 0.79357
 O219 O -0.01437 0.84110 0.73982
 O220 O -0.00416 0.83431 0.69581
 O221 O -0.06708 0.78055 0.76270
 O222 O -0.06825 0.73326 0.76108
 O223 O -0.00045 0.79618 0.81244
 O224 O 0.04408 0.78854 0.81177
 O225 O 0.00666 0.83336 0.77939
 O226 O 0.05664 0.81603 0.78036
 O227 O -0.03873 0.77287 0.80445
 O228 O -0.04244 0.72288 0.79074
 O229 O -0.05591 0.81269 0.73240
 O230 O -0.03700 0.80752 0.68580
 O231 O 0.02753 0.68870 0.73945
 O232 O 0.01226 0.69858 0.78724
 O233 O 0.08142 0.74834 0.72141
 O234 O 0.07916 0.79949 0.72998
 O235 O 0.01761 0.73489 0.66949
 O236 O -0.03068 0.74748 0.67079
 Zr237 Zr -0.00656 0.73797 0.70424
 O238 O -0.03215 0.76468 0.72481
 Zr239 Zr 0.04763 0.77413 0.71753
 O240 O 0.02400 0.80376 0.73634
 Zr241 Zr 0.02844 0.72612 0.75932
 O242 O 0.00609 0.75411 0.78176
 Zr243 Zr -0.01572 0.80324 0.72221
 O244 O 0.00908 0.77691 0.70004
 Zr245 Zr -0.03289 0.75603 0.76600
 O246 O -0.01103 0.72636 0.74455
 Zr247 Zr 0.02091 0.79331 0.77677
 O248 O 0.04625 0.76448 0.75834
 O249 O 0.03234 0.73544 0.71905
 O250 O -0.01845 0.79497 0.76294
 C251 C 0.01506 0.68107 0.71835
 C252 C 0.03915 0.74737 0.66252
 C253 C 0.08639 0.72868 0.73749
 C254 C -0.00617 0.84850 0.76281
 C255 C -0.07241 0.80163 0.74881
 C256 C -0.02361 0.78749 0.81927
 H257 H -0.05035 0.76391 0.71704
 H258 H 0.00635 0.74853 0.80071
 H259 H 0.04360 0.72254 0.70896
 H260 H 0.03210 0.82165 0.73365
 H261 H 0.00855 0.82618 0.68291
 H262 H 0.05211 0.81749 0.68986
 H263 H -0.03146 0.72417 0.80711
 H264 H -0.00297 0.68954 0.77841
 H265 H -0.05312 0.79603 0.68660
 H266 H -0.02263 0.76347 0.66222
 H267 H 0.05773 0.77457 0.80781
 H268 H 0.05062 0.73017 0.80538
 H269 H -0.04777 0.70809 0.71216
 H270 H -0.07269 0.73355 0.74187
 H271 H 0.08754 0.79093 0.74579
 H272 H 0.05417 0.83325 0.77075
 O273 O -0.01870 0.04063 0.06383
 O274 O -0.06423 0.03101 0.06188
 O275 O 0.01103 -0.03368 0.10153
 O276 O 0.01459 -0.07616 0.09230
 O277 O 0.05415 0.00287 0.03542
 O278 O 0.04765 0.00418 -0.01113
 O279 O -0.05446 -0.09854 0.02261
 O280 O -0.05374 -0.09309 0.06820
 O281 O -0.08444 -0.02980 -0.01190
 O282 O -0.07618 0.01744 -0.00887
 O283 O -0.01155 -0.06062 -0.04242
 O284 O 0.03274 -0.06503 -0.02818
 O285 O -0.02270 -0.09705 -0.01002
 O286 O 0.02868 -0.09211 0.00222
 O287 O -0.04439 -0.02876 -0.04479
 O288 O -0.04259 0.02071 -0.03119
 O289 O -0.08862 -0.06129 0.02083
 O290 O -0.08174 -0.05886 0.07044
 O291 O 0.01695 0.04143 0.03537
 O292 O 0.01679 0.03271 -0.01290
 O293 O 0.05200 -0.03106 0.06585
 O294 O 0.03956 -0.07970 0.05826
 O295 O -0.01747 0.00227 0.10036
 O296 O -0.06614 -0.00164 0.08818
 Zr297 Zr -0.03357 0.00150 0.06122
 O298 O -0.05805 -0.01977 0.03444
 Zr299 Zr 0.01289 -0.04662 0.06196
 O300 O -0.01061 -0.07104 0.03713
 Zr301 Zr 0.01626 0.00296 0.01731
 O302 O -0.00511 -0.02016 -0.01046
 Zr303 Zr -0.05144 -0.06092 0.04067
 O304 O -0.02842 -0.03976 0.06896
 Zr305 Zr -0.04639 -0.01287 -0.00548
 O306 O -0.02487 0.01202 0.02126
 Zr307 Zr -0.00076 -0.06156 -0.00241
 O308 O 0.02440 -0.03843 0.02246
 O309 O 0.00736 -0.00547 0.05683
 O310 O -0.04174 -0.05389 0.00074
 C311 C 0.00119 0.05244 0.05265
 C312 C -0.00056 -0.01340 0.11228
 C313 C 0.06442 -0.01200 0.05376
 C314 C -0.04266 -0.10819 0.00202
 C315 C -0.09746 -0.04827 0.00047
 C316 C -0.02902 -0.04685 -0.05523
 H317 H -0.07703 -0.01468 0.03739
 H318 H 0.00138 -0.01531 -0.02848
 H319 H 0.01833 0.00542 0.06911
 H320 H -0.00761 -0.09025 0.04130
 H321 H -0.04432 -0.08721 0.08452
 H322 H 0.00012 -0.08909 0.08850
 H323 H -0.02694 0.01743 -0.04295
 H324 H 0.00000 0.04330 -0.01097
 H325 H -0.09374 -0.04352 0.06632
 H326 H -0.06314 -0.01819 0.09880
 H327 H 0.03633 -0.04683 -0.03523
 H328 H 0.05622 -0.01380 -0.01096
 H329 H -0.06525 0.03833 0.04353
 H330 H -0.08672 0.01743 0.00786
 H331 H 0.05271 -0.07509 0.04415
 H332 H 0.01998 -0.10800 0.01030
 O333 O -0.00079 0.58381 0.53070
 O334 O -0.04486 0.57198 0.53705
 O335 O 0.03839 0.50915 0.55997
 O336 O 0.04593 0.46807 0.54632
 O337 O 0.06732 0.55166 0.48712
 O338 O 0.05103 0.55296 0.44279
 O339 O -0.03344 0.44279 0.49483
 O340 O -0.02657 0.44907 0.53909
 O341 O -0.07562 0.50963 0.46607
 O342 O -0.06922 0.55968 0.47343
 O343 O -0.01319 0.48360 0.42312
 O344 O 0.03441 0.48506 0.42464
 O345 O -0.00879 0.44614 0.45668
 O346 O 0.04222 0.45800 0.45465
 O347 O -0.04461 0.51655 0.42802
 O348 O -0.04395 0.56402 0.44182
 O349 O -0.07084 0.47673 0.49733
 O350 O -0.05550 0.48109 0.54625
 O351 O 0.02884 0.58713 0.49618
 O352 O 0.01905 0.58014 0.44861
 O353 O 0.07269 0.51922 0.51875
 O354 O 0.06373 0.46950 0.50889
 O355 O 0.00838 0.54332 0.56581
 O356 O -0.04087 0.53880 0.56193
 Zr357 Zr -0.01374 0.54391 0.52981
 O358 O -0.04195 0.52145 0.50816
 Zr359 Zr 0.03523 0.49929 0.51964
 O360 O 0.00868 0.47394 0.49919
 Zr361 Zr 0.02641 0.54947 0.47701
 O362 O 0.00074 0.52587 0.45340
 Zr363 Zr -0.03118 0.48089 0.51142
 O364 O -0.00420 0.50302 0.53492
 Zr365 Zr -0.03889 0.53032 0.46722
 O366 O -0.01353 0.55586 0.48938
 Zr367 Zr 0.00915 0.48464 0.45861
 O368 O 0.03776 0.50866 0.47883
 O369 O 0.02594 0.53992 0.51738
 O370 O -0.03047 0.48949 0.47074
 C371 C 0.01620 0.59678 0.51647
 C372 C 0.02716 0.52744 0.57407
 C373 C 0.08146 0.53883 0.50441
 C374 C -0.02441 0.43342 0.47286
 C375 C -0.08420 0.48912 0.47909
 C376 C -0.03323 0.49763 0.41476
 H377 H -0.06027 0.52489 0.51497
 H378 H 0.00261 0.53144 0.43454
 H379 H 0.03807 0.55112 0.52824
 H380 H 0.01407 0.45503 0.50220
 H381 H -0.01373 0.45532 0.55274
 H382 H 0.03082 0.45529 0.54639
 H383 H -0.02901 0.56383 0.42879
 H384 H 0.00236 0.58945 0.45426
 H385 H -0.07153 0.49244 0.54290
 H386 H -0.03609 0.52159 0.57070
 H387 H 0.03426 0.50360 0.41755
 H388 H 0.05974 0.53522 0.44033
 H389 H -0.05118 0.57798 0.51929
 H390 H -0.08115 0.55331 0.48790
 H391 H 0.07383 0.47648 0.49333
 H392 H 0.03934 0.44272 0.46697
 O393 O 0.47928 -0.04443 0.48401
 O394 O 0.48022 -0.03461 0.53101
 O395 O 0.43533 0.02564 0.45442
 O396 O 0.44010 0.06955 0.45354
 O397 O 0.50641 -0.00393 0.41550
 O398 O 0.55428 0.00378 0.42430
 O399 O 0.50572 0.09917 0.52273
 O400 O 0.45805 0.08894 0.51605
 O401 O 0.54072 0.03392 0.55709
 O402 O 0.54291 -0.01480 0.54666
 O403 O 0.57479 0.06848 0.48781
 O404 O 0.56450 0.06682 0.43997
 O405 O 0.53594 0.10238 0.48878
 O406 O 0.53436 0.09335 0.44076
 O407 O 0.57731 0.03689 0.52060
 O408 O 0.57123 -0.01249 0.51834
 O409 O 0.50479 0.06233 0.55748
 O410 O 0.45920 0.05856 0.54843
 O411 O 0.51264 -0.04118 0.45309
 O412 O 0.55760 -0.02700 0.45257
 O413 O 0.47272 0.02721 0.41599
 O414 O 0.47424 0.07499 0.42661
 O415 O 0.43849 -0.00911 0.48394
 O416 O 0.44788 -0.00746 0.53107
 Zr417 Zr 0.47717 -0.00530 0.50054
 O418 O 0.49887 0.01979 0.52644
 Zr419 Zr 0.47348 0.04305 0.45466
 O420 O 0.49506 0.07005 0.47843
 Zr421 Zr 0.52408 -0.00079 0.45367
 O422 O 0.54797 0.02406 0.47768
 Zr423 Zr 0.48954 0.06034 0.51876
 O424 O 0.46517 0.03515 0.49517
 Zr425 Zr 0.54021 0.01679 0.51839
 O426 O 0.51873 -0.01072 0.49427
 Zr427 Zr 0.53632 0.06417 0.47154
 O428 O 0.51452 0.03949 0.44526
 O429 O 0.48304 0.00266 0.46036
 O430 O 0.53081 0.05713 0.51227
 C431 C 0.49493 -0.05451 0.46608
 C432 C 0.42569 0.00517 0.46662
 C433 C 0.48665 0.00880 0.40459
 C434 C 0.52344 0.11193 0.50901
 C435 C 0.52496 0.05091 0.56865
 C436 C 0.58712 0.05631 0.50679
 H437 H 0.49469 0.01467 0.54505
 H438 H 0.56706 0.02098 0.47313
 H439 H 0.47237 -0.00963 0.44918
 H440 H 0.48928 0.08870 0.47466
 H441 H 0.44236 0.07954 0.50845
 H442 H 0.44470 0.08554 0.46420
 H443 H 0.58284 -0.00903 0.50268
 H444 H 0.55935 -0.03464 0.47075
 H445 H 0.45904 0.04008 0.55567
 H446 H 0.43689 0.00912 0.52968
 H447 H 0.57642 0.05090 0.44106
 H448 H 0.55009 0.02056 0.41446
 H449 H 0.49882 -0.04173 0.53023
 H450 H 0.52658 -0.01414 0.55792
 H451 H 0.49107 0.07314 0.41621
 H452 H 0.51734 0.10348 0.44290
 O453 O 0.39754 0.50702 -0.01702
 O454 O 0.41128 0.55259 -0.01500
 O455 O 0.46434 0.46764 -0.05285
 O456 O 0.50871 0.46421 -0.04482
 O457 O 0.42881 0.43272 0.01798
 O458 O 0.42758 0.44309 0.06286
 O459 O 0.54077 0.52964 0.02264
 O460 O 0.53408 0.52819 -0.02327
 O461 O 0.47270 0.57075 0.05359
 O462 O 0.42535 0.56522 0.05190
 O463 O 0.50362 0.50218 0.08761
 O464 O 0.49390 0.45233 0.07990
 O465 O 0.53804 0.49527 0.05251
 O466 O 0.52280 0.44848 0.05147
 O467 O 0.47141 0.53473 0.08868
 O468 O 0.42103 0.53401 0.07745
 O469 O 0.50778 0.56812 0.02451
 O470 O 0.50393 0.56059 -0.02555
 O471 O 0.39404 0.47300 0.01331
 O472 O 0.40222 0.47689 0.06203
 O473 O 0.46032 0.42992 -0.01488
 O474 O 0.50936 0.43665 -0.01054
 O475 O 0.43601 0.50370 -0.05343
 O476 O 0.44266 0.55052 -0.04261
 Zr477 Zr 0.43770 0.51919 -0.01447
 O478 O 0.46221 0.54244 0.01036
 Zr479 Zr 0.48011 0.46754 -0.01373
 O480 O 0.50732 0.48915 0.01026
 Zr481 Zr 0.43194 0.47196 0.03221
 O482 O 0.45729 0.49249 0.05875
 Zr483 Zr 0.50250 0.53088 0.00488
 O484 O 0.47811 0.50915 -0.02218
 Zr485 Zr 0.45390 0.53361 0.05054
 O486 O 0.42660 0.51334 0.02569
 Zr487 Zr 0.49772 0.48293 0.05069
 O488 O 0.47207 0.45929 0.02674
 O489 O 0.44022 0.47798 -0.00801
 O490 O 0.49439 0.52416 0.04499
 C491 C 0.38453 0.48817 -0.00534
 C492 C 0.44742 0.48341 -0.06455
 C493 C 0.44128 0.41999 -0.00047
 C494 C 0.55089 0.51413 0.04062
 C495 C 0.49388 0.58019 0.04265
 C496 C 0.49146 0.52201 0.09882
 H497 H 0.45920 0.56165 0.00632
 H498 H 0.45237 0.48827 0.07740
 H499 H 0.42836 0.46743 -0.01976
 H500 H 0.52588 0.48341 0.00598
 H501 H 0.52657 0.51932 -0.03921
 H502 H 0.52471 0.47442 -0.03926
 H503 H 0.42434 0.52018 0.09129
 H504 H 0.39302 0.49418 0.05835
 H505 H 0.49108 0.57508 -0.02101
 H506 H 0.46041 0.54763 -0.05110
 H507 H 0.48156 0.45884 0.09399
 H508 H 0.44586 0.43604 0.06645
 H509 H 0.40180 0.55258 0.00238
 H510 H 0.42625 0.57486 0.03464
 H511 H 0.50504 0.42624 0.00576
 H512 H 0.53426 0.44907 0.03534
 O513 O 0.71817 0.28975 0.57628
 O514 O 0.71930 0.33498 0.55926
 O515 O 0.67214 0.24732 0.52105
 O516 O 0.67173 0.23773 0.47806
 O517 O 0.75070 0.21504 0.54494
 O518 O 0.79528 0.22722 0.53769
 O519 O 0.73038 0.30332 0.42731
 O520 O 0.68570 0.29900 0.44325
 O521 O 0.77348 0.34760 0.47911
 O522 O 0.78094 0.34979 0.52502
 O523 O 0.80506 0.27249 0.45671
 O524 O 0.79433 0.22643 0.46545
 O525 O 0.76567 0.27413 0.42775
 O526 O 0.75939 0.22429 0.44417
 O527 O 0.80961 0.31145 0.47974
 O528 O 0.80701 0.31756 0.53129
 O529 O 0.73484 0.34329 0.45538
 O530 O 0.68786 0.33480 0.46975
 O531 O 0.74978 0.25652 0.57643
 O532 O 0.79675 0.26315 0.55918
 O533 O 0.71208 0.20944 0.52140
 O534 O 0.70651 0.21231 0.47209
 O535 O 0.67620 0.28546 0.54560
 O536 O 0.68587 0.33192 0.53390
 Zr537 Zr 0.71436 0.30030 0.53563
 O538 O 0.73319 0.32128 0.50425
 Zr539 Zr 0.70792 0.24520 0.49868
 O540 O 0.72516 0.26440 0.46520
 Zr541 Zr 0.76241 0.25424 0.53612
 O542 O 0.78278 0.27213 0.50384
 Zr543 Zr 0.71946 0.30609 0.46771
 O544 O 0.69865 0.28668 0.49907
 Zr545 Zr 0.77480 0.31358 0.50412
 O546 O 0.75638 0.29599 0.53821
 Zr547 Zr 0.76693 0.25899 0.46723
 O548 O 0.74959 0.23785 0.49955
 O549 O 0.72099 0.25904 0.53526
 O550 O 0.76091 0.30025 0.46755
 C551 C 0.73199 0.27134 0.58807
 C552 C 0.66339 0.26451 0.53815
 C553 C 0.73053 0.20115 0.53753
 C554 C 0.75019 0.29128 0.41601
 C555 C 0.75652 0.35561 0.46141
 C556 C 0.81787 0.29374 0.46288
 H557 H 0.72950 0.34071 0.50605
 H558 H 0.80215 0.26799 0.50554
 H559 H 0.71156 0.24915 0.54960
 H560 H 0.71759 0.25739 0.44841
 H561 H 0.67146 0.29174 0.45501
 H562 H 0.67287 0.24739 0.46083
 H563 H 0.82004 0.30296 0.52758
 H564 H 0.79319 0.28050 0.56814
 H565 H 0.69361 0.34962 0.48145
 H566 H 0.67324 0.32747 0.51936
 H567 H 0.80748 0.22895 0.47997
 H568 H 0.79425 0.21616 0.52138
 H569 H 0.73796 0.33443 0.56608
 H570 H 0.76345 0.35488 0.53294
 H571 H 0.72374 0.20245 0.47393
 H572 H 0.74728 0.22937 0.42934
 O573 O 0.75125 0.82003 -0.03946
 O574 O 0.75125 0.81050 0.00750
 O575 O 0.78339 0.74547 -0.07061
 O576 O 0.77152 0.70342 -0.07503
 O577 O 0.71315 0.78607 -0.10616
 O578 O 0.66685 0.78607 -0.09492
 O579 O 0.70783 0.68104 0.00104
 O580 O 0.75452 0.68527 -0.00539
 O581 O 0.68297 0.75381 0.03665
 O582 O 0.68337 0.79960 0.02541
 O583 O 0.64124 0.72031 -0.03121
 O584 O 0.64785 0.72009 -0.07736
 O585 O 0.67570 0.68251 -0.03114
 O586 O 0.67870 0.69354 -0.08141
 O587 O 0.64564 0.74956 0.00320
 O588 O 0.65554 0.80057 -0.00413
 O589 O 0.71160 0.71806 0.03603
 O590 O 0.76018 0.71743 0.02393
 O591 O 0.71636 0.82263 -0.06869
 O592 O 0.66840 0.81441 -0.06410
 O593 O 0.74488 0.75298 -0.10740
 O594 O 0.73535 0.70328 -0.09689
 O595 O 0.78653 0.77983 -0.04102
 O596 O 0.77847 0.77818 0.00670
 Zr597 Zr 0.74823 0.78120 -0.02272
 O598 O 0.72398 0.75958 0.00419
 Zr599 Zr 0.74290 0.73437 -0.06927
 O600 O 0.71970 0.70992 -0.04369
 Zr601 Zr 0.69857 0.78448 -0.06697
 O602 O 0.67266 0.76187 -0.04265
 Zr603 Zr 0.72761 0.71819 -0.00329
 O604 O 0.75403 0.73969 -0.02892
 Zr605 Zr 0.68316 0.76806 -0.00269
 O606 O 0.70761 0.79283 -0.02689
 Zr607 Zr 0.67924 0.72067 -0.04900
 O608 O 0.70225 0.74346 -0.07635
 O609 O 0.73916 0.77530 -0.06254
 O610 O 0.68710 0.72686 -0.00862
 C611 C 0.73683 0.83260 -0.05685
 C612 C 0.79646 0.76410 -0.05887
 C613 C 0.73181 0.77280 -0.11794
 C614 C 0.68807 0.67078 -0.01184
 C615 C 0.69490 0.73394 0.04790
 C616 C 0.63277 0.73161 -0.00990
 H617 H 0.72933 0.76434 0.02253
 H618 H 0.65381 0.76705 -0.04624
 H619 H 0.75109 0.78614 -0.07408
 H620 H 0.72313 0.69077 -0.04770
 H621 H 0.77015 0.69138 -0.01599
 H622 H 0.76877 0.69026 -0.06049
 H623 H 0.63957 0.79482 -0.01428
 H624 H 0.67128 0.82372 -0.04694
 H625 H 0.75888 0.73357 0.03528
 H626 H 0.78644 0.76001 0.00501
 H627 H 0.64090 0.73866 -0.07900
 H628 H 0.66653 0.76838 -0.10384
 H629 H 0.73433 0.82104 0.00704
 H630 H 0.70181 0.80054 0.03265
 H631 H 0.72099 0.70977 -0.10899
 H632 H 0.69131 0.67867 -0.07730
 O633 O 1.07183 0.19831 0.26561
 O634 O 1.06136 0.18862 0.30631
 O635 O 0.99328 0.17054 0.22994
 O636 O 0.95196 0.18690 0.22590
 O637 O 1.03737 0.23972 0.19532
 O638 O 1.04386 0.28360 0.20824
 O639 O 0.93366 0.24251 0.30058
 O640 O 0.93961 0.19813 0.30105
 O641 O 1.00876 0.26863 0.33870
 O642 O 1.05319 0.26090 0.32997
 O643 O 0.97759 0.31247 0.27472
 O644 O 0.97580 0.30836 0.22826
 O645 O 0.93769 0.27985 0.27459
 O646 O 0.94774 0.27913 0.22321
 O647 O 1.01092 0.30661 0.30520
 O648 O 1.05908 0.29049 0.29851
 O649 O 0.96887 0.24706 0.33495
 O650 O 0.97406 0.19383 0.32703
 O651 O 1.07496 0.22948 0.23243
 O652 O 1.07052 0.27891 0.23953
 O653 O 1.00322 0.20967 0.19358
 O654 O 0.95482 0.22249 0.20487
 O655 O 1.02901 0.16432 0.25755
 O656 O 1.02363 0.17193 0.30819
 Zr657 Zr 1.03197 0.20103 0.27845
 O658 O 1.01309 0.22642 0.30638
 Zr659 Zr 0.98560 0.21175 0.23203
 O660 O 0.96303 0.23536 0.25871
 Zr661 Zr 1.03851 0.25152 0.23539
 O662 O 1.01743 0.27843 0.26026
 Zr663 Zr 0.97179 0.22551 0.29869
 O664 O 0.99042 0.19850 0.27181
 Zr665 Zr 1.02396 0.26661 0.29992
 O666 O 1.04654 0.24068 0.27521
 Zr667 Zr 0.97550 0.27538 0.25496
 O668 O 0.99703 0.25194 0.22660
 O669 O 1.02679 0.21166 0.23863
 O670 O 0.98247 0.26557 0.29455
 C671 C 1.08458 0.21019 0.24681
 C672 C 1.01186 0.15602 0.24027
 C673 C 1.02278 0.22273 0.18295
 C674 C 0.92467 0.26459 0.29097
 C675 C 0.98549 0.26224 0.34740
 C676 C 0.99258 0.32079 0.29378
 H677 H 1.01744 0.22071 0.32481
 H678 H 1.02367 0.29691 0.25675
 H679 H 1.03695 0.19967 0.22649
 H680 H 0.94379 0.23300 0.25452
 H681 H 0.94388 0.18350 0.28840
 H682 H 0.94239 0.18609 0.24318
 H683 H 1.05598 0.30547 0.28585
 H684 H 1.08114 0.27294 0.25516
 H685 H 0.98021 0.20134 0.34419
 H686 H 1.00775 0.16176 0.30216
 H687 H 0.99479 0.31348 0.22569
 H688 H 1.02569 0.28856 0.20182
 H689 H 1.06291 0.20331 0.31940
 H690 H 1.06644 0.24792 0.32278
 H691 H 0.96173 0.23746 0.19382
 H692 H 0.93213 0.26766 0.22744
 O693 O 0.69744 1.03526 0.72280
 O694 O 0.70210 1.03993 0.76904
 O695 O 0.76889 1.07802 0.69493
 O696 O 0.81210 1.07185 0.69146
 O697 O 0.74310 0.99948 0.66119
 O698 O 0.75028 0.95492 0.67569
 O699 O 0.83797 1.02162 0.77421
 O700 O 0.82483 1.06520 0.76456
 O701 O 0.77307 0.98173 0.80661
 O702 O 0.72744 0.97621 0.79661
 O703 O 0.81580 0.94566 0.74623
 O704 O 0.81847 0.94911 0.69925
 O705 O 0.84483 0.98513 0.74785
 O706 O 0.83962 0.98467 0.69554
 O707 O 0.77982 0.94277 0.77412
 O708 O 0.72862 0.94871 0.76644
 O709 O 0.79991 1.01850 0.80610
 O710 O 0.78924 1.06596 0.79070
 O711 O 0.70359 0.99901 0.69591
 O712 O 0.72014 0.95316 0.70498
 O713 O 0.76903 1.03696 0.65992
 O714 O 0.81943 1.03495 0.67355
 O715 O 0.73171 1.07724 0.72144
 O716 O 0.72990 1.07084 0.77031
 Zr717 Zr 0.73469 1.03984 0.74197
 O718 O 0.75801 1.02115 0.77192
 Zr719 Zr 0.78554 1.03969 0.69873
 O720 O 0.81169 1.02329 0.72760
 Zr721 Zr 0.74417 0.98788 0.70147
 O722 O 0.76947 0.96786 0.72885
 Zr723 Zr 0.79818 1.03235 0.76631
 O724 O 0.77470 1.05258 0.73746
 Zr725 Zr 0.75816 0.97907 0.76756
 O726 O 0.73121 0.99757 0.74026
 Zr727 Zr 0.80933 0.98137 0.72508
 O728 O 0.78469 0.99782 0.69455
 O729 O 0.74539 1.02959 0.70338
 O730 O 0.79804 0.99060 0.76391
 C731 C 0.68910 1.01804 0.70570
 C732 C 0.74764 1.08881 0.70465
 C733 C 0.75287 1.02001 0.64919
 C734 C 0.85210 1.00173 0.76606
 C735 C 0.78930 0.99816 0.81781
 C736 C 0.80213 0.93383 0.76441
 H737 H 0.75123 1.02640 0.78970
 H738 H 0.76812 0.94827 0.72608
 H739 H 0.73347 1.03900 0.69058
 H740 H 0.83016 1.02989 0.72466
 H741 H 0.81686 1.07836 0.75197
 H742 H 0.82301 1.07386 0.70778
 H743 H 0.73549 0.93417 0.75484
 H744 H 0.70767 0.95624 0.72008
 H745 H 0.77506 1.06084 0.80356
 H746 H 0.74571 1.08266 0.76845
 H747 H 0.80178 0.93869 0.69703
 H748 H 0.76887 0.95646 0.66882
 H749 H 0.69634 1.02102 0.77087
 H750 H 0.72097 0.99466 0.80011
 H751 H 0.81579 1.01953 0.66173
 H752 H 0.85275 0.99817 0.70158
 O753 O 0.77126 0.56608 0.17102
 O754 O 0.81831 0.55379 0.17113
 O755 O 0.73297 0.49547 0.14339
 O756 O 0.73899 0.44999 0.15384
 O757 O 0.70065 0.53245 0.20978
 O758 O 0.71368 0.53582 0.25627
 O759 O 0.80565 0.42760 0.21994
 O760 O 0.79867 0.43189 0.17183
 O761 O 0.84344 0.49560 0.24476
 O762 O 0.83641 0.54583 0.23200
 O763 O 0.77904 0.47334 0.28566
 O764 O 0.72886 0.47525 0.27757
 O765 O 0.77690 0.43298 0.25485
 O766 O 0.72839 0.44232 0.25430
 O767 O 0.80963 0.50659 0.27986
 O768 O 0.81046 0.55142 0.26286
 O769 O 0.84248 0.46193 0.21429
 O770 O 0.83420 0.45927 0.16994
 O771 O 0.73928 0.56976 0.20337
 O772 O 0.74254 0.56557 0.25065
 O773 O 0.69925 0.49552 0.18322
 O774 O 0.71023 0.44993 0.18878
 O775 O 0.76682 0.52557 0.13778
 O776 O 0.81444 0.52237 0.14398
 Zr777 Zr 0.78601 0.52668 0.17510
 O778 O 0.81283 0.50507 0.19964
 Zr779 Zr 0.73868 0.48081 0.18277
 O780 O 0.76304 0.45742 0.20848
 Zr781 Zr 0.74088 0.53288 0.22396
 O782 O 0.76619 0.51230 0.25089
 Zr783 Zr 0.80346 0.46406 0.19882
 O784 O 0.77910 0.48522 0.17107
 Zr785 Zr 0.80667 0.51646 0.23941
 O786 O 0.78157 0.54023 0.21463
 Zr787 Zr 0.75919 0.47084 0.24823
 O788 O 0.73192 0.49170 0.22293
 O789 O 0.74559 0.52182 0.18453
 O790 O 0.79953 0.47534 0.23866
 C791 C 0.75292 0.57910 0.18361
 C792 C 0.74597 0.51305 0.12956
 C793 C 0.68822 0.51578 0.19457
 C794 C 0.79445 0.41951 0.24159
 C795 C 0.85380 0.47499 0.23310
 C796 C 0.79781 0.48886 0.29415
 H797 H 0.83155 0.50819 0.19387
 H798 H 0.76282 0.51931 0.26902
 H799 H 0.73328 0.53250 0.17315
 H800 H 0.75841 0.43825 0.20663
 H801 H 0.79272 0.43973 0.15461
 H802 H 0.74759 0.43401 0.16202
 H803 H 0.79347 0.55362 0.27290
 H804 H 0.76025 0.57411 0.24792
 H805 H 0.83675 0.47692 0.16132
 H806 H 0.81120 0.50468 0.13567
 H807 H 0.73266 0.49178 0.28772
 H808 H 0.70455 0.51826 0.25761
 H809 H 0.81868 0.56447 0.18773
 H810 H 0.85075 0.53761 0.22099
 H811 H 0.70372 0.45171 0.20737
 H812 H 0.72966 0.42894 0.23982
 O813 O 0.58366 0.20702 0.77261
 O814 O 0.57728 0.20882 0.82022
 O815 O 0.51385 0.16665 0.74565
 O816 O 0.46876 0.17132 0.75487
 O817 O 0.53730 0.23611 0.70522
 O818 O 0.53560 0.28328 0.71453
 O819 O 0.44340 0.23779 0.81888
 O820 O 0.45433 0.19226 0.81827
 O821 O 0.51392 0.27547 0.84804
 O822 O 0.56278 0.27181 0.83422
 O823 O 0.47476 0.30749 0.78499
 O824 O 0.47362 0.29737 0.73544
 O825 O 0.44001 0.27068 0.78742
 O826 O 0.44551 0.26864 0.73881
 O827 O 0.51179 0.30970 0.81137
 O828 O 0.55961 0.30018 0.80563
 O829 O 0.48035 0.24485 0.85100
 O830 O 0.48898 0.19446 0.84570
 O831 O 0.57936 0.23739 0.73876
 O832 O 0.56834 0.28431 0.74072
 O833 O 0.50521 0.20401 0.70952
 O834 O 0.46017 0.20419 0.72542
 O835 O 0.54766 0.16774 0.77618
 O836 O 0.54913 0.17802 0.82268
 Zr837 Zr 0.54602 0.20691 0.79183
 O838 O 0.52422 0.23070 0.81916
 Zr839 Zr 0.49476 0.20443 0.74994
 O840 O 0.47060 0.22821 0.77517
 Zr841 Zr 0.54013 0.25288 0.74375
 O842 O 0.51813 0.27871 0.76895
 Zr843 Zr 0.48294 0.22333 0.81495
 O844 O 0.50501 0.19685 0.78998
 Zr845 Zr 0.52879 0.27126 0.80888
 O846 O 0.55317 0.24769 0.78343
 Zr847 Zr 0.47706 0.26922 0.76705
 O848 O 0.49879 0.24527 0.73949
 O849 O 0.53559 0.21237 0.75202
 O850 O 0.48766 0.26401 0.80677
 C851 C 0.59283 0.21995 0.75233
 C852 C 0.53421 0.15611 0.75770
 C853 C 0.52201 0.21769 0.69578
 C854 C 0.43047 0.25654 0.80669
 C855 C 0.49411 0.26447 0.86027
 C856 C 0.49022 0.31970 0.80148
 H857 H 0.53045 0.22709 0.83752
 H858 H 0.52155 0.29753 0.76372
 H859 H 0.54639 0.20137 0.73952
 H860 H 0.45161 0.22306 0.77276
 H861 H 0.46235 0.17617 0.80979
 H862 H 0.45335 0.17745 0.76580
 H863 H 0.55652 0.31046 0.78898
 H864 H 0.57914 0.28373 0.75727
 H865 H 0.50160 0.20182 0.85897
 H866 H 0.53096 0.17040 0.82502
 H867 H 0.48806 0.31075 0.73748
 H868 H 0.51670 0.28252 0.70850
 H869 H 0.58517 0.22694 0.81855
 H870 H 0.56031 0.25799 0.84821
 H871 H 0.45940 0.22185 0.71630
 H872 H 0.43479 0.25231 0.74219
 O873 O 0.35327 0.75903 0.49706
 O874 O 0.34917 0.71101 0.50342
 O875 O 0.29060 0.78025 0.44564
 O876 O 0.24658 0.78087 0.44404
 O877 O 0.30342 0.82409 0.52122
 O878 O 0.29387 0.81464 0.56611
 O879 O 0.21076 0.71030 0.50269
 O880 O 0.23052 0.71197 0.46056
 O881 O 0.27263 0.68090 0.55358
 O882 O 0.31608 0.69257 0.56391
 O883 O 0.22696 0.74937 0.57712
 O884 O 0.22484 0.79519 0.56467
 O885 O 0.20067 0.74165 0.53407
 O886 O 0.20714 0.79274 0.52881
 O887 O 0.25950 0.71846 0.58633
 O888 O 0.31097 0.72630 0.58701
 O889 O 0.24655 0.67780 0.51654
 O890 O 0.26361 0.68414 0.46959
 O891 O 0.34367 0.79073 0.52831
 O892 O 0.32377 0.78580 0.57346
 O893 O 0.28179 0.82037 0.48144
 O894 O 0.23356 0.80593 0.47575
 O895 O 0.32398 0.75002 0.45428
 O896 O 0.32607 0.70398 0.46923
 Zr897 Zr 0.31708 0.73728 0.49375
 O898 O 0.29076 0.71041 0.51301
 Zr899 Zr 0.26745 0.78050 0.48073
 O900 O 0.23887 0.75485 0.49816
 Zr901 Zr 0.30248 0.78523 0.53699
 O902 O 0.27450 0.76114 0.55739
 Zr903 Zr 0.25212 0.71475 0.49672
 O904 O 0.27894 0.73991 0.47565
 Zr905 Zr 0.28602 0.72077 0.55334
 O906 O 0.31571 0.74514 0.53499
 Zr907 Zr 0.23656 0.76358 0.53902
 O908 O 0.26361 0.79096 0.52116
 O909 O 0.30578 0.77736 0.49639
 O910 O 0.24755 0.72325 0.53716
 C911 C 0.35960 0.77939 0.51147
 C912 C 0.31159 0.76668 0.43896
 C913 C 0.29496 0.83369 0.49904
 C914 C 0.19441 0.72201 0.51870
 C915 C 0.25657 0.66821 0.53821
 C916 C 0.23789 0.73157 0.59211
 H917 H 0.29776 0.69190 0.51128
 H918 H 0.27381 0.76680 0.57626
 H919 H 0.31803 0.78941 0.48651
 H920 H 0.22143 0.75713 0.48901
 H921 H 0.24127 0.72135 0.44679
 H922 H 0.23377 0.76579 0.44468
 H923 H 0.30234 0.73988 0.59859
 H924 H 0.33634 0.77032 0.57322
 H925 H 0.27658 0.67199 0.47852
 H926 H 0.31055 0.70183 0.45714
 H927 H 0.23956 0.79776 0.57761
 H928 H 0.27561 0.82153 0.56213
 H929 H 0.35482 0.71547 0.52180
 H930 H 0.32621 0.68853 0.54742
 H931 H 0.23311 0.81824 0.49119
 H932 H 0.19716 0.78616 0.51312
 O933 O 0.26453 0.30316 1.00283
 O934 O 0.26504 0.28764 1.04609
 O935 O 0.29923 0.23257 0.96275
 O936 O 0.28597 0.18836 0.95752
 O937 O 0.22959 0.27345 0.92597
 O938 O 0.18823 0.28311 0.93481
 O939 O 0.21699 0.16280 1.02338
 O940 O 0.26361 0.16537 1.02489
 O941 O 0.19016 0.23221 1.06283
 O942 O 0.19086 0.27840 1.05590
 O943 O 0.15418 0.20476 0.98954
 O944 O 0.16373 0.21198 0.94520
 O945 O 0.18764 0.16716 0.98889
 O946 O 0.19538 0.18151 0.94083
 O947 O 0.15582 0.23032 1.02697
 O948 O 0.16673 0.28245 1.02309
 O949 O 0.21948 0.19702 1.06215
 O950 O 0.27034 0.19596 1.05098
 O951 O 0.23632 0.30879 0.96757
 O952 O 0.18523 0.30116 0.97190
 O953 O 0.26286 0.24189 0.92470
 O954 O 0.25519 0.19273 0.93004
 O955 O 0.30052 0.26376 0.99573
 O956 O 0.28882 0.25378 1.04348
 Zr957 Zr 0.26132 0.26250 1.01246
 O958 O 0.23391 0.23973 1.03501
 Zr959 Zr 0.25883 0.22092 0.96124
 O960 O 0.23322 0.19486 0.98241
 Zr961 Zr 0.21547 0.27186 0.96518
 O962 O 0.18687 0.24723 0.98416
 Zr963 Zr 0.23789 0.19931 1.02394
 O964 O 0.26694 0.22190 1.00253
 Zr965 Zr 0.19378 0.24951 1.02525
 O966 O 0.22137 0.27574 1.00643
 Zr967 Zr 0.19344 0.20664 0.97486
 O968 O 0.21892 0.23167 0.95213
 O969 O 0.25540 0.26118 0.97152
 O970 O 0.19801 0.20906 1.01611
 C971 C 0.25390 0.31736 0.98430
 C972 C 0.31155 0.24997 0.97690
 C973 C 0.24895 0.26117 0.91433
 C974 C 0.19818 0.15394 1.00831
 C975 C 0.20169 0.21196 1.07363
 C976 C 0.14393 0.21386 1.01115
 H977 H 0.23786 0.24274 1.05408
 H978 H 0.16843 0.25287 0.97930
 H979 H 0.26790 0.27278 0.96139
 H980 H 0.23675 0.17614 0.97690
 H981 H 0.26743 0.16046 1.00618
 H982 H 0.29249 0.18435 0.97576
 H983 H 0.15047 0.27659 1.01347
 H984 H 0.19101 0.31199 0.98736
 H985 H 0.26722 0.20913 1.06540
 H986 H 0.29934 0.23783 1.03788
 H987 H 0.17162 0.22389 0.93145
 H988 H 0.17484 0.26857 0.93376
 H989 H 0.24722 0.29613 1.04878
 H990 H 0.20855 0.27880 1.06483
 H991 H 0.23959 0.19844 0.91914
 H992 H 0.20820 0.16671 0.94453
 C993 C 0.30366 0.33426 0.82147
 C994 C 0.29059 0.33796 0.79851
 C995 C 0.27428 0.36244 0.79400
 C996 C 0.26307 0.36751 0.77031
 H997 H 0.29243 0.32307 0.78290
 H998 H 0.27368 0.37773 0.80936
 H999 H 0.30097 0.34853 0.83756
 H1000 H 0.26546 0.35307 0.75435
 C1001 C 0.32838 -0.16380 0.30882
 C1002 C 0.30255 -0.15680 0.30539
 C1003 C 0.29500 -0.13425 0.28763
 C1004 C 0.27004 -0.12401 0.28784
 H1005 H 0.28698 -0.16685 0.31670
 H1006 H 0.31061 -0.12431 0.27622
 H1007 H 0.34356 -0.15390 0.29681
 H1008 H 0.25492 -0.13313 0.30049
 C1009 C 0.80167 0.83873 0.79134
 C1010 C 0.81369 0.86269 0.79103
 C1011 C 0.79970 0.88730 0.78191
 C1012 C 0.81399 0.90883 0.77496
 H1013 H 0.83433 0.86426 0.79766
 H1014 H 0.77801 0.88753 0.77995
 H1015 H 0.78098 0.83746 0.78487
 H1016 H 0.83575 0.90750 0.77521
 C1017 C 0.44868 0.90475 0.30993
 C1018 C 0.47389 0.89663 0.30584
 C1019 C 0.47945 0.87017 0.29443
 C1020 C 0.50341 0.85876 0.29788
 H1021 H 0.49053 0.90923 0.31165
 H1022 H 0.46342 0.85926 0.28473
 H1023 H 0.43235 0.89175 0.30404
 H1024 H 0.51872 0.86908 0.30922
 C1025 C -0.04650 0.91239 0.82388
 C1026 C -0.03456 0.90768 0.80049
 C1027 C -0.02011 0.88238 0.79537
 C1028 C -0.01338 0.87598 0.77043
 H1029 H -0.03706 0.92202 0.78434
 H1030 H -0.01777 0.86778 0.81133
 H1031 H -0.04356 0.89847 0.84032
 H1032 H -0.01749 0.89017 0.75444
 C1033 C -0.07565 -0.16196 -0.07190
 C1034 C -0.07196 -0.15922 -0.04566
 C1035 C -0.05464 -0.13791 -0.03498
 C1036 C -0.05419 -0.13293 -0.00883
 H1037 H -0.08259 -0.17224 -0.03191
 H1038 H -0.04415 -0.12473 -0.04871
 H1039 H -0.06435 -0.14940 -0.08557
 H1040 H -0.06606 -0.14529 0.00454
 C1041 C -0.06173 0.36522 0.41386
 C1042 C -0.05487 0.37406 0.43791
 C1043 C -0.03817 0.39799 0.44170
 C1044 C -0.03368 0.40638 0.46648
 H1045 H -0.06297 0.36397 0.45535
 H1046 H -0.03215 0.41006 0.42468
 H1047 H -0.05278 0.37394 0.39611
 H1048 H -0.04103 0.39442 0.48308
 C1049 C 0.45149 -0.14325 0.45653
 C1050 C 0.47302 -0.12730 0.45512
 C1051 C 0.47288 -0.09946 0.46539
 C1052 C 0.49325 -0.08320 0.45908
 H1053 H 0.49107 -0.13458 0.44535
 H1054 H 0.45590 -0.09202 0.47679
 H1055 H 0.43376 -0.13610 0.46698
 H1056 H 0.50941 -0.09106 0.44675
 C1057 C 0.42928 0.33606 -0.05110
 C1058 C 0.42676 0.35039 -0.02873
 C1059 C 0.43863 0.37734 -0.02597
 C1060 C 0.43227 0.39224 -0.00476
 H1061 H 0.41521 0.34234 -0.01222
 H1062 H 0.45154 0.38529 -0.04151
 H1063 H 0.44146 0.34398 -0.06724
 H1064 H 0.41858 0.38405 0.01001
 C1065 C 0.81820 0.42246 0.42530
 C1066 C 0.79310 0.41341 0.42754
 C1067 C 0.78698 0.39074 0.44537
 C1068 C 0.76241 0.38015 0.44615
 H1069 H 0.77710 0.42267 0.41602
 H1070 H 0.80306 0.38187 0.45708
 H1071 H 0.83385 0.41348 0.43751
 H1072 H 0.74667 0.38855 0.43367
 C1073 C 0.80155 0.90551 -0.06782
 C1074 C 0.77634 0.89672 -0.07016
 C1075 C 0.76850 0.87038 -0.05927
 C1076 C 0.74447 0.86000 -0.06481
 H1077 H 0.76152 0.90874 -0.08067
 H1078 H 0.78299 0.85885 -0.04777
 H1079 H 0.81591 0.89341 -0.05674
 H1080 H 0.73053 0.87133 -0.07714
 C1081 C 0.81436 0.31559 0.34635
 C1082 C 0.78861 0.31269 0.35359
 C1083 C 0.78158 0.29919 0.37895
 C1084 C 0.75637 0.29934 0.38833
 H1085 H 0.77272 0.32085 0.34117
 H1086 H 0.79762 0.29089 0.39112
 H1087 H 0.82986 0.30667 0.35880
 H1088 H 0.74064 0.30905 0.37680
 C1089 C 0.80143 0.79562 -0.18178
 C1090 C 0.77554 0.79739 -0.17474
 C1091 C 0.76480 0.77956 -0.15374
 C1092 C 0.74001 0.78325 -0.14420
 H1093 H 0.76274 0.81314 -0.18258
 H1094 H 0.77833 0.76559 -0.14384
 H1095 H 0.81321 0.77933 -0.17321
 H1096 H 0.72700 0.79803 -0.15362
 C1097 C 0.30440 0.43490 0.91090
 C1098 C 0.28231 0.43817 0.89631
 C1099 C 0.28256 0.45058 0.86963
 C1100 C 0.26000 0.44981 0.85546
 H1101 H 0.26357 0.43011 0.90385
 H1102 H 0.30101 0.45824 0.86106
 H1103 H 0.32316 0.44379 0.90441
 H1104 H 0.24220 0.44113 0.86451
 C1105 C 0.32907 -0.05657 0.40811
 C1106 C 0.30485 -0.05770 0.39692
 C1107 C 0.29976 -0.04565 0.37072
 C1108 C 0.27633 -0.04971 0.35863
 H1109 H 0.28873 -0.06826 0.40696
 H1110 H 0.31556 -0.03448 0.36083
 H1111 H 0.34489 -0.04532 0.39832
 H1112 H 0.26096 -0.06147 0.36855
 C1113 C -0.06624 -0.05251 -0.14631
 C1114 C -0.04610 -0.05358 -0.12884
 C1115 C -0.04871 -0.04469 -0.10094
 C1116 C -0.02967 -0.05250 -0.08390
 H1117 H -0.02719 -0.06254 -0.13499
 H1118 H -0.06604 -0.03325 -0.09431
 H1119 H -0.08502 -0.04292 -0.14071
 H1120 H -0.01328 -0.06490 -0.09131
 C1121 C -0.05202 0.43761 0.34021
 C1122 C -0.05166 0.46264 0.34985
 C1123 C -0.03985 0.46829 0.37610
 C1124 C -0.04415 0.49181 0.38818
 H1125 H -0.06012 0.47914 0.33843
 H1126 H -0.02815 0.45274 0.38598
 H1127 H -0.04335 0.42163 0.35221
 H1128 H -0.05703 0.50673 0.37884
 C1129 C 0.45991 -0.05990 0.34260
 C1130 C 0.46293 -0.03375 0.34723
 C1131 C 0.47894 -0.02464 0.37005
 C1132 C 0.47747 0.00081 0.37803
 H1133 H 0.45246 -0.01913 0.33494
 H1134 H 0.48956 -0.03938 0.38211
 H1135 H 0.47105 -0.07433 0.35459
 H1136 H 0.46537 0.01505 0.36678
 C1137 C 0.43157 0.42348 -0.14063
 C1138 C 0.43125 0.44830 -0.13042
 C1139 C 0.44288 0.45384 -0.10389
 C1140 C 0.43932 0.47776 -0.09229
 H1141 H 0.42185 0.46461 -0.14138
 H1142 H 0.45310 0.43782 -0.09320
 H1143 H 0.44176 0.40767 -0.12957
 H1144 H 0.42811 0.49324 -0.10279
 C1145 C 0.46608 0.82620 0.41959
 C1146 C 0.47146 0.80164 0.41001
 C1147 C 0.48566 0.79768 0.38428
 C1148 C 0.48507 0.77371 0.37234
 H1149 H 0.46473 0.78409 0.42089
 H1150 H 0.49521 0.81455 0.37446
 H1151 H 0.47321 0.84344 0.40844
 H1152 H 0.47390 0.75760 0.38175
 C1153 C -0.08850 0.80719 0.89126
 C1154 C -0.06344 0.80364 0.88230
 C1155 C -0.05749 0.79376 0.85523
 C1156 C -0.03225 0.79495 0.84630
 H1157 H -0.04673 0.80874 0.89511
 H1158 H -0.07350 0.78668 0.84248
 H1159 H -0.10521 0.80148 0.87870
 H1160 H -0.01691 0.80317 0.85921
 C1161 C 0.36371 0.80518 0.32649
 C1162 C 0.37494 0.79830 0.30332
 C1163 C 0.40196 0.78603 0.30249
 C1164 C 0.41545 0.78511 0.27956
 H1165 H 0.36421 0.80188 0.28484
 H1166 H 0.41139 0.77910 0.32077
 H1167 H 0.37474 0.80125 0.34475
 H1168 H 0.40646 0.79384 0.26181
 C1169 C -0.15649 0.81015 0.79801
 C1170 C -0.14280 0.81706 0.77602
 C1171 C -0.11487 0.80746 0.77291
 C1172 C -0.09940 0.81378 0.75195
 H1173 H -0.15243 0.82820 0.76006
 H1174 H -0.10691 0.79414 0.78818
 H1175 H -0.14620 0.79822 0.81305
 H1176 H -0.10662 0.82784 0.73702
 C1177 C 0.89514 0.34348 0.42667
 C1178 C 0.88173 0.32081 0.43129
 C1179 C 0.85691 0.32010 0.44725
 C1180 C 0.84378 0.29694 0.44936
 H1181 H 0.88929 0.30211 0.42313
 H1182 H 0.84905 0.33823 0.45636
 H1183 H 0.88811 0.36204 0.43558
 H1184 H 0.85170 0.27938 0.43921
 C1185 C 0.88050 0.81442 -0.06998
 C1186 C 0.86615 0.79214 -0.07358
 C1187 C 0.83925 0.78899 -0.06165
 C1188 C 0.82452 0.76749 -0.06750
 H1189 H 0.87413 0.77614 -0.08591
 H1190 H 0.83105 0.80476 -0.04915
 H1191 H 0.87274 0.82990 -0.05684
 H1192 H 0.83285 0.75231 -0.08065
 C1193 C -0.16602 -0.05664 -0.06896
 C1194 C -0.15900 -0.05898 -0.04328
 C1195 C -0.13330 -0.04849 -0.03341
 C1196 C -0.12425 -0.05568 -0.00931
 H1197 H -0.17185 -0.06976 -0.02950
 H1198 H -0.12108 -0.03617 -0.04648
 H1199 H -0.15314 -0.04539 -0.08236
 H1200 H -0.13623 -0.06893 0.00308
 C1201 C -0.15271 0.46156 0.41493
 C1202 C -0.14552 0.46547 0.44042
 C1203 C -0.12101 0.48027 0.44758
 C1204 C -0.11067 0.47812 0.47217
 H1205 H -0.15722 0.45658 0.45638
 H1206 H -0.11033 0.49131 0.43222
 H1207 H -0.14096 0.47085 0.39922
 H1208 H -0.12059 0.46554 0.48684
 C1209 C 0.35683 -0.06119 0.44915
 C1210 C 0.36399 -0.03546 0.45011
 C1211 C 0.38894 -0.02725 0.46320
 C1212 C 0.39847 -0.00265 0.45892
 H1213 H 0.35218 -0.02046 0.43958
 H1214 H 0.40069 -0.04197 0.47419
 H1215 H 0.36822 -0.07605 0.46034
 H1216 H 0.38699 0.01142 0.44685
 C1217 C 0.32212 0.42578 -0.04366
 C1218 C 0.32750 0.45112 -0.03717
 C1219 C 0.34904 0.45740 -0.01826
 C1220 C 0.35788 0.48253 -0.01619
 H1221 H 0.31715 0.46738 -0.04738
 H1222 H 0.35997 0.44107 -0.00876
 H1223 H 0.33186 0.40945 -0.03297
 H1224 H 0.34781 0.49845 -0.02718
 C1225 C 0.39540 0.43122 0.82526
 C1226 C 0.38577 0.42892 0.80038
 C1227 C 0.36049 0.44225 0.79258
 C1228 C 0.34817 0.43651 0.76955
 H1229 H 0.39614 0.41663 0.78582
 H1230 H 0.35120 0.45605 0.80656
 H1231 H 0.38471 0.44394 0.83927
 H1232 H 0.35701 0.42193 0.75609
 C1233 C 0.41673 -0.05726 0.31762
 C1234 C 0.40170 -0.06281 0.29629
 C1235 C 0.37464 -0.05147 0.29309
 C1236 C 0.35861 -0.06045 0.27378
 H1237 H 0.40922 -0.07619 0.28099
 H1238 H 0.36775 -0.03600 0.30668
 H1239 H 0.40908 -0.04323 0.33233
 H1240 H 0.36566 -0.07628 0.26068
 C1241 C 0.09369 0.56169 0.67888
 C1242 C 0.10253 0.55210 0.70214
 C1243 C 0.12647 0.53452 0.70360
 C1244 C 0.13639 0.52767 0.72734
 H1245 H 0.09208 0.55756 0.72034
 H1246 H 0.13701 0.52882 0.68552
 H1247 H 0.10358 0.55542 0.66062
 H1248 H 0.12645 0.53501 0.74519
 C1249 C 0.08603 0.03669 0.19377
 C1250 C 0.10314 0.03771 0.21427
 C1251 C 0.12954 0.02416 0.21405
 C1252 C 0.14752 0.03102 0.23249
 H1253 H 0.09805 0.04984 0.23146
 H1254 H 0.13449 0.00963 0.19874
 H1255 H 0.09071 0.02389 0.17692
 H1256 H 0.14209 0.04628 0.24697
 C1257 C 0.66628 0.69877 0.17448
 C1258 C 0.66333 0.69935 0.20119
 C1259 C 0.64142 0.71496 0.21357
 C1260 C 0.63338 0.71069 0.23885
 H1261 H 0.67624 0.68736 0.21394
 H1262 H 0.63010 0.72860 0.20088
 H1263 H 0.65303 0.71110 0.16238
 H1264 H 0.64358 0.69581 0.25106
 C1265 C 0.16245 0.69047 0.68928
 C1266 C 0.15053 0.69556 0.71258
 C1267 C 0.12698 0.71351 0.71402
 C1268 C 0.11260 0.71507 0.73642
 H1269 H 0.15785 0.68594 0.73061
 H1270 H 0.12025 0.72395 0.69619
 H1271 H 0.15529 0.70067 0.67147
 H1272 H 0.11867 0.70332 0.75367
 C1273 C 0.58933 0.20661 0.56493
 C1274 C 0.60046 0.23092 0.56507
 C1275 C 0.62440 0.23646 0.54883
 C1276 C 0.63741 0.25966 0.55122
 H1277 H 0.59238 0.24652 0.57783
 H1278 H 0.63229 0.22082 0.53597
 H1279 H 0.59719 0.19150 0.55143
 H1280 H 0.62970 0.27490 0.56465
 C1281 C 0.58581 0.69304 0.06396
 C1282 C 0.58411 0.70129 0.03871
 C1283 C 0.60508 0.71844 0.02747
 C1284 C 0.60763 0.72145 0.00119
 H1285 H 0.56777 0.69454 0.02621
 H1286 H 0.62041 0.72621 0.04068
 H1287 H 0.60202 0.70014 0.07646
 H1288 H 0.59344 0.71195 -0.01212
 C1289 C 0.14228 0.04625 0.06233
 C1290 C 0.13169 0.02176 0.06498
 C1291 C 0.10493 0.01574 0.05451
 C1292 C 0.09205 -0.00646 0.06220
 H1293 H 0.14238 0.00624 0.07592
 H1294 H 0.09519 0.03024 0.04150
 H1295 H 0.13135 0.06140 0.05110
 H1296 H 0.10159 -0.02034 0.07601
 C1297 C 0.16000 0.55776 0.56016
 C1298 C 0.14873 0.55780 0.53590
 C1299 C 0.12260 0.54462 0.53129
 C1300 C 0.10914 0.54848 0.50849
 H1301 H 0.15843 0.56804 0.51943
 H1302 H 0.11359 0.53300 0.54726
 H1303 H 0.15001 0.54692 0.57612
 H1304 H 0.11773 0.56128 0.49319
 C1305 C 0.66699 0.07003 0.56239
 C1306 C 0.65438 0.07177 0.53892
 C1307 C 0.62875 0.05826 0.53371
 C1308 C 0.61431 0.06592 0.51254
 H1309 H 0.66212 0.08527 0.52377
 H1310 H 0.62094 0.04375 0.54787
 H1311 H 0.66003 0.05590 0.57735
 H1312 H 0.62230 0.08114 0.49922
 C1313 C 0.63543 0.56457 0.04676
 C1314 C 0.62196 0.54151 0.04964
 C1315 C 0.59361 0.53922 0.04144
 C1316 C 0.57926 0.51760 0.04819
 H1317 H 0.63184 0.52404 0.05813
 H1318 H 0.58436 0.55546 0.03022
 H1319 H 0.62500 0.58165 0.03808
 H1320 H 0.58850 0.50199 0.06029
 C1321 C 0.04181 0.04784 0.17324
 C1322 C 0.03274 0.02317 0.16858
 C1323 C 0.01437 0.01805 0.14619
 C1324 C 0.00843 -0.00707 0.13936
 H1325 H 0.04022 0.00648 0.18043
 H1326 H 0.00862 0.03458 0.13319
 H1327 H 0.03360 0.06468 0.16207
 H1328 H 0.01582 -0.02354 0.15157
 C1329 C 0.05384 0.57706 0.65343
 C1330 C 0.04969 0.55374 0.64119
 C1331 C 0.03546 0.55227 0.61561
 C1332 C 0.03725 0.52981 0.60137
 H1333 H 0.05813 0.53547 0.64962
 H1334 H 0.02532 0.56986 0.60762
 H1335 H 0.04496 0.59526 0.64530
 H1336 H 0.04875 0.51296 0.60919
 C1337 C 0.57763 0.06357 0.65080
 C1338 C 0.55401 0.06280 0.63819
 C1339 C 0.55187 0.05365 0.61027
 C1340 C 0.52914 0.05806 0.59682
 H1341 H 0.53594 0.06937 0.64840
 H1342 H 0.56895 0.04425 0.60055
 H1343 H 0.59538 0.05658 0.64029
 H1344 H 0.51278 0.06855 0.60671
 C1345 C 0.56491 0.55036 0.15628
 C1346 C 0.53847 0.54668 0.15301
 C1347 C 0.52788 0.53098 0.13052
 C1348 C 0.50175 0.53219 0.12432
 H1349 H 0.52436 0.55653 0.16630
 H1350 H 0.54182 0.52044 0.11755
 H1351 H 0.57886 0.54008 0.14313
 H1352 H 0.48828 0.54422 0.13647
 C1353 C 0.19820 0.56574 0.59107
 C1354 C 0.20027 0.54086 0.60083
 C1355 C 0.21301 0.53535 0.62685
 C1356 C 0.21008 0.51123 0.63804
 H1357 H 0.19180 0.52432 0.58971
 H1358 H 0.22314 0.55125 0.63750
 H1359 H 0.20726 0.58211 0.60198
 H1360 H 0.19849 0.49618 0.62761
 C1361 C 0.17396 0.04039 0.09990
 C1362 C 0.19930 0.03585 0.10728
 C1363 C 0.20502 0.02222 0.13273
 C1364 C 0.23003 0.02052 0.14205
 H1365 H 0.21573 0.04232 0.09462
 H1366 H 0.18842 0.01481 0.14467
 H1367 H 0.15780 0.03320 0.11255
 H1368 H 0.24639 0.02913 0.13062
 C1369 C 0.70572 0.20639 0.65601
 C1370 C 0.70963 0.23230 0.64974
 C1371 C 0.72400 0.23978 0.62492
 C1372 C 0.72445 0.26516 0.61593
 H1373 H 0.70143 0.24795 0.66236
 H1374 H 0.73208 0.22386 0.61251
 H1375 H 0.71456 0.19115 0.64327
 H1376 H 0.71479 0.28081 0.62754
 C1377 C 0.69139 0.68401 0.13311
 C1378 C 0.68882 0.70706 0.11953
 C1379 C 0.69563 0.70859 0.09079
 C1380 C 0.68895 0.73035 0.07656
 H1381 H 0.68189 0.72504 0.12954
 H1382 H 0.70571 0.69184 0.08124
 H1383 H 0.69874 0.66654 0.12242
 H1384 H 0.67801 0.74645 0.08635
 C1385 C 0.55710 0.67970 0.10256
 C1386 C 0.56092 0.70289 0.11540
 C1387 C 0.55224 0.70654 0.14315
 C1388 C 0.56015 0.72800 0.15691
 H1389 H 0.57062 0.71957 0.10546
 H1390 H 0.53967 0.69144 0.15244
 H1391 H 0.54706 0.66343 0.11290
 H1392 H 0.57359 0.74240 0.14772
 C1393 C 0.06453 0.69385 0.58461
 C1394 C 0.06277 0.71766 0.59665
 C1395 C 0.04697 0.72135 0.62128
 C1396 C 0.05065 0.74338 0.63581
 H1397 H 0.07416 0.73445 0.58890
 H1398 H 0.03405 0.70544 0.62847
 H1399 H 0.05253 0.67733 0.59209
 H1400 H 0.06483 0.75834 0.62888
 C1401 C 0.56015 0.59194 0.18324
 C1402 C 0.56095 0.60223 0.20774
 C1403 C 0.54772 0.62793 0.21416
 C1404 C 0.55079 0.63849 0.23837
 H1405 H 0.57256 0.59200 0.22303
 H1406 H 0.53739 0.63911 0.19862
 H1407 H 0.54774 0.60150 0.16814
 H1408 H 0.56197 0.62729 0.25332
 C1409 C 0.06654 0.60064 0.69537
 C1410 C 0.04269 0.61281 0.69841
 C1411 C 0.03967 0.63824 0.71310
 C1412 C 0.01753 0.65311 0.70945
 H1413 H 0.02530 0.60494 0.68818
 H1414 H 0.05636 0.64600 0.72453
 H1415 H 0.08381 0.60807 0.70617
 H1416 H 0.00185 0.64571 0.69645
 C1417 C 0.05352 0.13531 0.06759
 C1418 C 0.03063 0.12136 0.06871
 C1419 C 0.02784 0.09452 0.05651
 C1420 C 0.00559 0.08035 0.06125
 H1421 H 0.01366 0.12954 0.07963
 H1422 H 0.04420 0.08597 0.04498
 H1423 H 0.07014 0.12750 0.05588
 H1424 H -0.01005 0.08922 0.07356
 C1425 C 0.07676 0.66707 0.54461
 C1426 C 0.05170 0.65984 0.53863
 C1427 C 0.04619 0.63493 0.52399
 C1428 C 0.02170 0.62426 0.52517
 H1429 H 0.03492 0.67152 0.54621
 H1430 H 0.06258 0.62396 0.51470
 H1431 H 0.09347 0.65549 0.53671
 H1432 H 0.00602 0.63454 0.53627
 C1433 C 0.55060 0.17719 0.57503
 C1434 C 0.54420 0.17212 0.54971
 C1435 C 0.53060 0.14714 0.54226
 C1436 C 0.53100 0.13915 0.51691
 H1437 H 0.55068 0.18575 0.53409
 H1438 H 0.52278 0.13402 0.55771
 H1439 H 0.54374 0.16369 0.59061
 H1440 H 0.54052 0.15171 0.50195
 C1441 C 0.55842 0.65205 0.06091
 C1442 C 0.53398 0.64149 0.06310
 C1443 C 0.52664 0.61674 0.04898
 C1444 C 0.50222 0.60653 0.05258
 H1445 H 0.51920 0.65115 0.07581
 H1446 H 0.54143 0.60626 0.03693
 H1447 H 0.57277 0.64320 0.04715
 H1448 H 0.48807 0.61710 0.06533
 C1449 C 0.68766 0.11518 0.55871
 C1450 C 0.70946 0.13054 0.55744
 C1451 C 0.70824 0.15784 0.54624
 C1452 C 0.72941 0.17385 0.54855
 H1453 H 0.72859 0.12280 0.56445
 H1454 H 0.69015 0.16484 0.53631
 H1455 H 0.66880 0.12316 0.55121
 H1456 H 0.74697 0.16667 0.55929
 C1457 C 0.67823 0.59092 0.04672
 C1458 C 0.67312 0.60418 0.02390
 C1459 C 0.68621 0.62995 0.01710
 C1460 C 0.67814 0.64385 -0.00442
 H1461 H 0.65833 0.59637 0.01020
 H1462 H 0.70141 0.63804 0.03021
 H1463 H 0.69383 0.59834 0.05978
 H1464 H 0.66246 0.63554 -0.01685
 C1465 C 0.18546 0.64795 0.70253
 C1466 C 0.20829 0.63461 0.70738
 C1467 C 0.20856 0.60778 0.71988
 C1468 C 0.23089 0.59295 0.71823
 H1469 H 0.22715 0.64301 0.70059
 H1470 H 0.19030 0.59941 0.72820
 H1471 H 0.16665 0.63995 0.70997
 H1472 H 0.24837 0.60130 0.70833
 C1473 C 0.18948 0.14261 0.20420
 C1474 C 0.21486 0.13390 0.20589
 C1475 C 0.22154 0.11046 0.22251
 C1476 C 0.24493 0.09756 0.21941
 H1477 H 0.23030 0.14282 0.19349
 H1478 H 0.20594 0.10179 0.23492
 H1479 H 0.17436 0.13384 0.21712
 H1480 H 0.25989 0.10561 0.20586
 C1481 C 0.69327 1.17052 0.68869
 C1482 C 0.71678 1.15749 0.68850
 C1483 C 0.71943 1.12986 0.69907
 C1484 C 0.74244 1.11650 0.69555
 H1485 H 0.73443 1.16739 0.68061
 H1486 H 0.70267 1.12041 0.70917
 H1487 H 0.67593 1.16051 0.69718
 H1488 H 0.75854 1.12621 0.68460
 C1489 C 0.69406 0.65708 0.17465
 C1490 C 0.71783 0.64563 0.16962
 C1491 C 0.72507 0.61984 0.18198
 C1492 C 0.74673 0.60626 0.17383
 H1493 H 0.73165 0.65493 0.15568
 H1494 H 0.71175 0.61125 0.19684
 H1495 H 0.68070 0.64775 0.18903
 H1496 H 0.75947 0.61466 0.15837
 C1497 C 0.56222 0.09387 0.68773
 C1498 C 0.55895 0.09864 0.71387
 C1499 C 0.54297 0.12184 0.72340
 C1500 C 0.54446 0.12976 0.74886
 H1501 H 0.56930 0.08617 0.72837
 H1502 H 0.53201 0.13398 0.70903
 H1503 H 0.55139 0.10629 0.67352
 H1504 H 0.55691 0.11843 0.76267
 C1505 C 1.06076 0.07794 0.20753
 C1506 C 1.03746 0.08885 0.21518
 C1507 C 1.03658 0.11490 0.22883
 C1508 C 1.01341 0.12827 0.23077
 H1509 H 1.01878 0.07881 0.21060
 H1510 H 1.05510 0.12402 0.23554
 H1511 H 1.07932 0.08807 0.21240
 H1512 H 0.99534 0.11966 0.22240
 C1513 C 0.19314 0.59463 0.55083
 C1514 C 0.21845 0.60356 0.55158
 C1515 C 0.22626 0.62926 0.53932
 C1516 C 0.24917 0.64097 0.54668
 H1517 H 0.23348 0.59247 0.56279
 H1518 H 0.21249 0.63950 0.52592
 H1519 H 0.17834 0.60567 0.53928
 H1520 H 0.26189 0.63117 0.56137
 C1521 C 0.18176 0.07701 1.06702
 C1522 C 0.17945 0.08810 1.04274
 C1523 C 0.19287 0.11362 1.03638
 C1524 C 0.18729 0.12704 1.01387
 H1525 H 0.16706 0.07883 1.02768
 H1526 H 0.20639 0.12218 1.05095
 H1527 H 0.19482 0.08647 1.08146
 H1528 H 0.17306 0.11877 0.99982
 C1529 C 0.20395 0.67603 0.66543
 C1530 C 0.20915 0.70026 0.65520
 C1531 C 0.22600 0.70378 0.63130
 C1532 C 0.22431 0.72677 0.61766
 H1533 H 0.19973 0.71786 0.66386
 H1534 H 0.23822 0.68729 0.62397
 H1535 H 0.21378 0.65855 0.65693
 H1536 H 0.21063 0.74232 0.62455
 C1537 C 0.19390 0.16375 1.15927
 C1538 C 0.19240 0.18579 1.14422
 C1539 C 0.20213 0.18681 1.11654
 C1540 C 0.19381 0.20721 1.10137
 H1541 H 0.18261 0.20352 1.15224
 H1542 H 0.21510 0.17120 1.10864
 H1543 H 0.20430 0.14616 1.15172
 H1544 H 0.18014 0.22192 1.10993
 C1545 C 0.67346 0.55074 0.07619
 C1546 C 0.69916 0.54280 0.07735
 C1547 C 0.70906 0.52665 0.10017
 C1548 C 0.73531 0.52184 0.10355
 H1549 H 0.71306 0.54896 0.06185
 H1550 H 0.69502 0.52095 0.11575
 H1551 H 0.65965 0.54392 0.09152
 H1552 H 0.74945 0.52927 0.08885
 C1553 C 0.70717 1.08133 0.58989
 C1554 C 0.71725 1.05662 0.59320
 C1555 C 0.73552 1.05089 0.61564
 C1556 C 0.74210 1.02576 0.62249
 H1557 H 0.71133 1.04058 0.57994
 H1558 H 0.74132 1.06734 0.62850
 H1559 H 0.71376 1.09722 0.60303
 H1560 H 0.73469 1.00917 0.61073
 C1561 C 0.56600 0.21055 0.60871
 C1562 C 0.54379 0.20919 0.62359
 C1563 C 0.54348 0.21839 0.65140
 C1564 C 0.52332 0.21110 0.66733
 H1565 H 0.52575 0.20035 0.61546
 H1566 H 0.56015 0.22988 0.65912
 H1567 H 0.58376 0.21980 0.61703
 H1568 H 0.50748 0.19856 0.65944
 C1569 C 1.04259 0.16494 0.10653
 C1570 C 1.03932 0.18963 0.11653
 C1571 C 1.02720 0.19413 0.14304
 C1572 C 1.03010 0.21789 0.15494
 H1573 H 1.04685 0.20678 0.10552
 H1574 H 1.01788 0.17759 0.15362
 H1575 H 1.03468 0.14794 0.11753
 H1576 H 1.04105 0.23363 0.14470
 C1577 C 0.66754 0.21334 0.68813
 C1578 C 0.65771 0.21022 0.71285
 C1579 C 0.63147 0.22132 0.72104
 C1580 C 0.62044 0.21321 0.74406
 H1581 H 0.66843 0.19749 0.72687
 H1582 H 0.62044 0.23438 0.70756
 H1583 H 0.65739 0.22672 0.67428
 H1584 H 0.63160 0.19949 0.75682
 C1585 C 1.15663 0.17750 0.18952
 C1586 C 1.14853 0.18490 0.21380
 C1587 C 1.12279 0.19907 0.21770
 C1588 C 1.11195 0.20031 0.24198
 H1589 H 1.16062 0.17975 0.23106
 H1590 H 1.11178 0.20669 0.20059
 H1591 H 1.14444 0.18309 0.17243
 H1592 H 1.12236 0.19092 0.25860
 C1593 C 0.10787 0.70259 0.56115
 C1594 C 0.12301 0.70336 0.53909
 C1595 C 0.14971 0.71599 0.53917
 C1596 C 0.16676 0.71177 0.51900
 H1597 H 0.11597 0.69415 0.52089
 H1598 H 0.15587 0.72772 0.55625
 H1599 H 0.11530 0.71223 0.57902
 H1600 H 0.16076 0.69890 0.50269
 C1601 C 0.07922 0.17741 1.07512
 C1602 C 0.08588 0.18301 1.04988
 C1603 C 0.10958 0.19960 1.04357
 C1604 C 0.11734 0.20319 1.01829
 H1605 H 0.07413 0.17468 1.03376
 H1606 H 0.12194 0.20701 1.05971
 H1607 H 0.09049 0.18656 1.09115
 H1608 H 0.10549 0.19449 1.00242
 C1609 C 0.60294 0.56624 0.18513
 C1610 C 0.61685 0.54319 0.18476
 C1611 C 0.64534 0.54180 0.19305
 C1612 C 0.65933 0.51923 0.18898
 H1613 H 0.60722 0.52501 0.17797
 H1614 H 0.65500 0.55928 0.20142
 H1615 H 0.61269 0.58409 0.19264
 H1616 H 0.64934 0.50241 0.17964
 C1617 C 0.60498 1.06791 0.69211
 C1618 C 0.61927 1.04532 0.68866
 C1619 C 0.64565 1.04171 0.70151
 C1620 C 0.66141 1.02069 0.69560
 H1621 H 0.61191 1.02973 0.67560
 H1622 H 0.65278 1.05714 0.71490
 H1623 H 0.61241 1.08291 0.70583
 H1624 H 0.65431 1.00566 0.68174
 C1625 C 0.91505 0.44783 0.30405
 C1626 C 0.91040 0.45017 0.27788
 C1627 C 0.88733 0.46598 0.26790
 C1628 C 0.87980 0.46436 0.24239
 H1629 H 0.92314 0.43962 0.26379
 H1630 H 0.87509 0.47718 0.28195
 H1631 H 0.90242 0.45891 0.31786
 H1632 H 0.89121 0.45175 0.22884
 C1633 C 0.91737 0.94202 0.80705
 C1634 C 0.90898 0.96710 0.80263
 C1635 C 0.88813 0.97263 0.78259
 C1636 C 0.87754 0.99716 0.78014
 H1637 H 0.91679 0.98336 0.81459
 H1638 H 0.87956 0.95600 0.77167
 H1639 H 0.91022 0.92602 0.79432
 H1640 H 0.88541 1.01340 0.79211
 C1641 C 0.34496 0.30698 0.81347
 C1642 C 0.35968 0.28458 0.81686
 C1643 C 0.38729 0.28167 0.80662
 C1644 C 0.40265 0.26135 0.81547
 H1645 H 0.35160 0.26805 0.82838
 H1646 H 0.39517 0.29628 0.79262
 H1647 H 0.35284 0.32319 0.80132
 H1648 H 0.39451 0.24753 0.83014
 C1649 C 0.84921 0.32536 0.31202
 C1650 C 0.86004 0.30089 0.31055
 C1651 C 0.88696 0.29629 0.29904
 C1652 C 0.89731 0.27159 0.29957
 H1653 H 0.84865 0.28385 0.31779
 H1654 H 0.89848 0.31292 0.29111
 H1655 H 0.86016 0.34228 0.30387
 H1656 H 0.88566 0.25557 0.30856
 C1657 C 0.43037 0.81160 0.45172
 C1658 C 0.42090 0.80962 0.47675
 C1659 C 0.39823 0.79158 0.48317
 C1660 C 0.38582 0.79244 0.50693
 H1661 H 0.42918 0.82206 0.49234
 H1662 H 0.39014 0.77912 0.46746
 H1663 H 0.42207 0.79858 0.43658
 H1664 H 0.39308 0.80607 0.52206
 C1665 C 0.39015 0.30609 0.95769
 C1666 C 0.37963 0.28160 0.96108
 C1667 C 0.35229 0.27795 0.97213
 C1668 C 0.34004 0.25423 0.97003
 H1669 H 0.39096 0.26403 0.95498
 H1670 H 0.34152 0.29502 0.98034
 H1671 H 0.37858 0.32335 0.96427
 H1672 H 0.35049 0.23785 0.96019
 C1673 C 0.81345 0.44508 0.38137
 C1674 C 0.81393 0.46688 0.36572
 C1675 C 0.80242 0.46667 0.33852
 C1676 C 0.80682 0.48739 0.32213
 H1677 H 0.82310 0.48514 0.37288
 H1678 H 0.79129 0.44940 0.33166
 H1679 H 0.80362 0.42721 0.37400
 H1680 H 0.81896 0.50391 0.32918
 C1681 C 0.79983 0.93841 0.89476
 C1682 C 0.80228 0.96325 0.88473
 C1683 C 0.79205 0.96951 0.85781
 C1684 C 0.79707 0.99300 0.84578
 H1685 H 0.81210 0.97881 0.89608
 H1686 H 0.78123 0.95406 0.84718
 H1687 H 0.78944 0.92350 0.88300
 H1688 H 0.80868 1.00809 0.85608
 C1689 C 0.32201 0.81265 0.35271
 C1690 C 0.32601 0.79114 0.36833
 C1691 C 0.31350 0.78868 0.39479
 C1692 C 0.32254 0.77010 0.41194
 H1693 H 0.33965 0.77537 0.36199
 H1694 H 0.29765 0.80253 0.40052
 H1695 H 0.30789 0.82802 0.35905
 H1696 H 0.33900 0.75701 0.40608
 C1697 C 0.31277 0.29482 0.84978
 C1698 C 0.28755 0.28783 0.85512
 C1699 C 0.28108 0.27261 0.87939
 C1700 C 0.25573 0.27099 0.88764
 H1701 H 0.27152 0.29418 0.84187
 H1702 H 0.29720 0.26475 0.89176
 H1703 H 0.32876 0.28827 0.86300
 H1704 H 0.23994 0.28059 0.87609
 C1705 C 0.42601 0.29222 0.92528
 C1706 C 0.45204 0.29069 0.91844
 C1707 C 0.46104 0.27422 0.89565
 C1708 C 0.48605 0.27640 0.88597
 H1709 H 0.46671 0.30261 0.92898
 H1710 H 0.44649 0.26189 0.88540
 H1711 H 0.41171 0.27974 0.91486
 H1712 H 0.50005 0.28985 0.89558
 C1713 C 0.92474 0.32313 0.39176
 C1714 C 0.94733 0.30866 0.39265
 C1715 C 0.95282 0.28770 0.37282
 C1716 C 0.97680 0.27563 0.37187
 H1717 H 0.96219 0.31294 0.40782
 H1718 H 0.93830 0.28432 0.35708
 H1719 H 0.90916 0.31826 0.37751
 H1720 H 0.99195 0.28059 0.38653
 C1721 C 0.42617 0.39179 0.82163
 C1722 C 0.45150 0.38291 0.82071
 C1723 C 0.45821 0.35692 0.80843
 C1724 C 0.48303 0.34687 0.81044
 H1725 H 0.46736 0.39476 0.82949
 H1726 H 0.44252 0.34537 0.79894
 H1727 H 0.41055 0.38003 0.81226
 H1728 H 0.49824 0.35818 0.82093
 C1729 C 0.94172 0.40535 0.30252
 C1730 C 0.96410 0.39104 0.30736
 C1731 C 0.96795 0.36400 0.29601
 C1732 C 0.98862 0.34843 0.30361
 H1733 H 0.97966 0.39905 0.32005
 H1734 H 0.95330 0.35649 0.28196
 H1735 H 0.92684 0.39710 0.28912
 H1736 H 1.00272 0.35589 0.31824
 C1737 C 0.32209 0.90486 0.43860
 C1738 C 0.31680 0.89698 0.46344
 C1739 C 0.30446 0.87081 0.46854
 C1740 C 0.30239 0.86152 0.49337
 H1741 H 0.32216 0.90971 0.48006
 H1742 H 0.29885 0.85827 0.45182
 H1743 H 0.31592 0.89238 0.42204
 H1744 H 0.30925 0.87373 0.50985
 C1745 C 0.28857 0.39495 0.93605
 C1746 C 0.28039 0.38399 0.95897
 C1747 C 0.26616 0.35818 0.95950
 C1748 C 0.26345 0.34508 0.98254
 H1749 H 0.28502 0.39375 0.97767
 H1750 H 0.25983 0.34897 0.94100
 H1751 H 0.28332 0.38534 0.91741
 H1752 H 0.27150 0.35385 1.00060
 C1753 C 0.80673 0.35164 0.31187
 C1754 C 0.80912 0.35933 0.28636
 C1755 C 0.79662 0.38413 0.27616
 C1756 C 0.80308 0.39314 0.25182
 H1757 H 0.82184 0.34782 0.27301
 H1758 H 0.78365 0.39584 0.28911
 H1759 H 0.79339 0.36262 0.32508
 H1760 H 0.81671 0.38148 0.23948
   
