data_POSCAR
  _audit_creation_date              2014-09-24
  _audit_creation_method            'ToBaCCo'
  _symmetry_space_group_name_H-M    'P1'
  _symmetry_Int_Tables_number       1
  _symmetry_cell_setting            triclinic
  loop_
  _symmetry_equiv_pos_as_xyz
 x,y,z
_cell_length_a 63.3671
_cell_length_b 63.4878
_cell_length_c 64.0443
_cell_angle_alpha 89.936700
_cell_angle_beta 89.933600
_cell_angle_gamma 89.943300
loop_
  _atom_site_label
  _atom_site_type_symbol
  _atom_site_fract_x
  _atom_site_fract_y
  _atom_site_fract_z
N1 N 0.38197 0.32575 0.33921
 N2 N 0.38274 0.34119 0.32557
 C3 C 0.39769 0.33675 0.31123
 C4 C 0.40683 0.31754 0.31623
 C5 C 0.39634 0.31106 0.33410
 H6 H 0.40036 0.34568 0.29709
 H7 H 0.39752 0.29586 0.34160
 Cu8 Cu 0.36105 0.36301 0.32553
 Cu9 Cu 0.35927 0.32322 0.35947
 Cu10 Cu 0.32708 0.36694 0.36581
 N11 N 0.33910 0.38447 0.32613
 N12 N 0.32577 0.38589 0.34181
 C13 C 0.31108 0.40055 0.33731
 C14 C 0.31547 0.40885 0.31776
 C15 C 0.33325 0.39810 0.31110
 H16 H 0.29739 0.40376 0.34689
 H17 H 0.34041 0.39911 0.29580
 N18 N 0.32638 0.34238 0.38478
 N19 N 0.33871 0.32581 0.38231
 C20 C 0.33303 0.31085 0.39606
 C21 C 0.31635 0.31824 0.40791
 C22 C 0.31238 0.33823 0.40011
 H23 H 0.33936 0.29504 0.39636
 H24 H 0.29920 0.34827 0.40414
 H25 H 0.33617 0.34309 0.34676
 H26 H 0.35769 0.35500 0.36271
 N27 N 0.38139 0.82440 -0.16023
 N28 N 0.38314 0.84037 -0.17316
 C29 C 0.39833 0.83602 -0.18726
 C30 C 0.40684 0.81638 -0.18269
 C31 C 0.39539 0.80944 -0.16556
 H32 H 0.40172 0.84557 -0.20085
 H33 H 0.39596 0.79390 -0.15866
 Cu34 Cu 0.36317 0.86369 -0.17247
 Cu35 Cu 0.35862 0.82238 -0.14007
 Cu36 Cu 0.32736 0.86656 -0.13350
 N37 N 0.34003 0.88384 -0.17303
 N38 N 0.32614 0.88499 -0.15782
 C39 C 0.31135 0.89937 -0.16282
 C40 C 0.31633 0.90791 -0.18218
 C41 C 0.33450 0.89737 -0.18826
 H42 H 0.29735 0.90237 -0.15362
 H43 H 0.34240 0.89863 -0.20319
 N44 N 0.32612 0.84200 -0.11462
 N45 N 0.33809 0.82520 -0.11722
 C46 C 0.33221 0.81034 -0.10344
 C47 C 0.31577 0.81803 -0.09145
 C48 C 0.31214 0.83812 -0.09920
 H49 H 0.33825 0.79441 -0.10321
 H50 H 0.29918 0.84841 -0.09510
 H51 H 0.33697 0.84348 -0.15312
 H52 H 0.35800 0.85411 -0.13568
 N53 N 0.88359 0.32564 -0.16071
 N54 N 0.88398 0.34096 -0.17451
 C55 C 0.89834 0.33627 -0.18934
 C56 C 0.90749 0.31704 -0.18449
 C57 C 0.89761 0.31077 -0.16623
 H58 H 0.90077 0.34526 -0.20349
 H59 H 0.89908 0.29567 -0.15858
 Cu60 Cu 0.86348 0.36393 -0.17364
 Cu61 Cu 0.86209 0.32407 -0.13923
 Cu62 Cu 0.82519 0.36370 -0.13644
 N63 N 0.84072 0.38457 -0.17326
 N64 N 0.82608 0.38453 -0.15870
 C65 C 0.81115 0.39875 -0.16363
 C66 C 0.81677 0.40853 -0.18218
 C67 C 0.83555 0.39889 -0.18792
 H68 H 0.79643 0.40051 -0.15527
 H69 H 0.84387 0.40099 -0.20254
 N70 N 0.82697 0.34083 -0.11566
 N71 N 0.84115 0.32566 -0.11671
 C72 C 0.83649 0.31087 -0.10237
 C73 C 0.81859 0.31702 -0.09161
 C74 C 0.81288 0.33601 -0.10063
 H75 H 0.84425 0.29576 -0.10116
 H76 H 0.79841 0.34459 -0.09780
 H77 H 0.83868 0.34149 -0.15499
 H78 H 0.85660 0.35632 -0.13701
 N79 N 0.88252 0.82727 0.34210
 N80 N 0.88283 0.84235 0.32804
 C81 C 0.89640 0.83704 0.31271
 C82 C 0.90536 0.81773 0.31763
 C83 C 0.89597 0.81195 0.33632
 H84 H 0.89882 0.84600 0.29854
 H85 H 0.89782 0.79718 0.34453
 Cu86 Cu 0.86400 0.86644 0.33031
 Cu87 Cu 0.86351 0.82773 0.36601
 Cu88 Cu 0.82453 0.86616 0.36520
 N89 N 0.84017 0.88558 0.32772
 N90 N 0.82468 0.88521 0.34138
 C91 C 0.80953 0.89873 0.33533
 C92 C 0.81589 0.90836 0.31692
 C93 C 0.83532 0.89931 0.31240
 H94 H 0.79450 0.90045 0.34315
 H95 H 0.84464 0.90168 0.29843
 N96 N 0.82462 0.84259 0.38524
 N97 N 0.83947 0.82801 0.38560
 C98 C 0.83404 0.81305 0.39952
 C99 C 0.81500 0.81860 0.40861
 C100 C 0.80938 0.83727 0.39892
 H101 H 0.84252 0.79845 0.40183
 H102 H 0.79457 0.84556 0.40068
 H103 H 0.84053 0.84297 0.34899
 H104 H 0.85620 0.85930 0.36743
 N105 N 0.61552 0.67415 0.33980
 N106 N 0.61653 0.65941 0.32544
 C107 C 0.60268 0.66391 0.31014
 C108 C 0.59217 0.68232 0.31531
 C109 C 0.60086 0.68842 0.33419
 H110 H 0.60153 0.65538 0.29559
 H111 H 0.59791 0.70305 0.34231
 Cu112 Cu 0.63793 0.63760 0.32699
 Cu113 Cu 0.63579 0.67580 0.36272
 Cu114 Cu 0.67506 0.63744 0.36398
 N115 N 0.66017 0.61659 0.32695
 N116 N 0.67458 0.61646 0.34170
 C117 C 0.68937 0.60200 0.33697
 C118 C 0.68385 0.59238 0.31836
 C119 C 0.66538 0.60230 0.31233
 H120 H 0.70394 0.59987 0.34549
 H121 H 0.65734 0.60037 0.29758
 N122 N 0.67273 0.66009 0.38496
 N123 N 0.65786 0.67468 0.38447
 C124 C 0.66230 0.68944 0.39889
 C125 C 0.68068 0.68383 0.40915
 C126 C 0.68692 0.66525 0.39972
 H127 H 0.65390 0.70418 0.40054
 H128 H 0.70175 0.65719 0.40218
 H129 H 0.66034 0.66107 0.34717
 H130 H 0.64331 0.64425 0.36403
 N131 N 0.61713 0.17334 -0.15945
 N132 N 0.61723 0.15874 -0.17398
 C133 C 0.60292 0.16378 -0.18869
 C134 C 0.59319 0.18245 -0.18302
 C135 C 0.60280 0.18814 -0.16446
 H136 H 0.60097 0.15557 -0.20333
 H137 H 0.60093 0.20290 -0.15625
 Cu138 Cu 0.63859 0.13679 -0.17399
 Cu139 Cu 0.63826 0.17438 -0.13736
 Cu140 Cu 0.67657 0.13527 -0.13766
 N141 N 0.66005 0.11494 -0.17425
 N142 N 0.67480 0.11432 -0.15985
 C143 C 0.68914 0.09959 -0.16506
 C144 C 0.68297 0.09022 -0.18363
 C145 C 0.66455 0.10066 -0.18910
 H146 H 0.70396 0.09722 -0.15703
 H147 H 0.65618 0.09926 -0.20373
 N148 N 0.67560 0.15787 -0.11658
 N149 N 0.66098 0.17270 -0.11642
 C150 C 0.66610 0.18718 -0.10194
 C151 C 0.68471 0.18115 -0.09235
 C152 C 0.69037 0.16260 -0.10223
 H153 H 0.65796 0.20198 -0.09973
 H154 H 0.70509 0.15421 -0.10032
 H155 H 0.66208 0.15951 -0.15403
 H156 H 0.64499 0.14269 -0.13710
 N157 N 0.11802 0.67234 -0.15998
 N158 N 0.11827 0.65727 -0.17400
 C159 C 0.10463 0.66214 -0.18939
 C160 C 0.09528 0.68131 -0.18475
 C161 C 0.10415 0.68725 -0.16592
 H162 H 0.10282 0.65309 -0.20354
 H163 H 0.10176 0.70209 -0.15798
 Cu164 Cu 0.13816 0.63398 -0.17255
 Cu165 Cu 0.13808 0.67317 -0.13705
 Cu166 Cu 0.17577 0.63374 -0.13517
 N167 N 0.16028 0.61276 -0.17167
 N168 N 0.17486 0.61256 -0.15711
 C169 C 0.18950 0.59797 -0.16198
 C170 C 0.18372 0.58831 -0.18051
 C171 C 0.16521 0.59835 -0.18628
 H172 H 0.20426 0.59588 -0.15378
 H173 H 0.15706 0.59666 -0.20100
 N174 N 0.17414 0.65652 -0.11433
 N175 N 0.15969 0.67147 -0.11503
 C176 C 0.16439 0.68622 -0.10070
 C177 C 0.18254 0.68026 -0.09025
 C178 C 0.18837 0.66142 -0.09949
 H179 H 0.15641 0.70121 -0.09933
 H180 H 0.20298 0.65302 -0.09688
 H181 H 0.16168 0.65711 -0.15295
 H182 H 0.14412 0.64121 -0.13557
 N183 N 0.11539 0.17341 0.34097
 N184 N 0.11700 0.15980 0.32560
 C185 C 0.10359 0.16533 0.31025
 C186 C 0.09281 0.18330 0.31633
 C187 C 0.10090 0.18807 0.33587
 H188 H 0.10284 0.15779 0.29513
 H189 H 0.09756 0.20197 0.34504
 Cu190 Cu 0.13781 0.13732 0.32622
 Cu191 Cu 0.13399 0.17233 0.36530
 Cu192 Cu 0.17779 0.13974 0.35986
 N193 N 0.15936 0.11546 0.32686
 N194 N 0.17483 0.11635 0.34046
 C195 C 0.18927 0.10160 0.33569
 C196 C 0.18248 0.09059 0.31829
 C197 C 0.16342 0.09994 0.31306
 H198 H 0.20464 0.10054 0.34291
 H199 H 0.15450 0.09714 0.29893
 N200 N 0.17509 0.16082 0.38224
 N201 N 0.15849 0.17321 0.38440
 C202 C 0.16251 0.18737 0.39955
 C203 C 0.18244 0.18345 0.40758
 C204 C 0.18995 0.16664 0.39603
 H205 H 0.15242 0.20057 0.40334
 H206 H 0.20574 0.16023 0.39660
 H207 H 0.15812 0.16275 0.34669
 H208 H 0.14611 0.14175 0.36320
 N209 N 0.61616 0.32727 0.65903
 N210 N 0.61574 0.34247 0.67291
 C211 C 0.60120 0.33785 0.68756
 C212 C 0.59176 0.31887 0.68247
 C213 C 0.60187 0.31255 0.66435
 H214 H 0.59898 0.34660 0.70187
 H215 H 0.60031 0.29744 0.65673
 Cu216 Cu 0.63658 0.36493 0.67276
 Cu217 Cu 0.63758 0.32581 0.63732
 Cu218 Cu 0.67377 0.36664 0.63508
 N219 N 0.66027 0.38433 0.67404
 N220 N 0.67472 0.38503 0.65934
 C221 C 0.68973 0.39896 0.66484
 C222 C 0.68432 0.40760 0.68397
 C223 C 0.66564 0.39769 0.68943
 H224 H 0.70410 0.40175 0.65614
 H225 H 0.65724 0.39918 0.70405
 N226 N 0.67409 0.34267 0.61554
 N227 N 0.66034 0.32712 0.61644
 C228 C 0.66611 0.31209 0.60277
 C229 C 0.68437 0.31841 0.59273
 C230 C 0.68903 0.33788 0.60132
 H231 H 0.65855 0.29692 0.60122
 H232 H 0.70311 0.34711 0.59866
 H233 H 0.66072 0.34298 0.65284
 H234 H 0.64209 0.35764 0.63552
 N235 N 0.61652 0.82637 1.15987
 N236 N 0.61749 0.84055 1.17477
 C237 C 0.60323 0.83571 1.18963
 C238 C 0.59250 0.81772 1.18359
 C239 C 0.60160 0.81212 1.16473
 H240 H 0.60187 0.84360 1.20452
 H241 H 0.59882 0.79776 1.15612
 Cu242 Cu 0.63932 0.86207 1.17454
 Cu243 Cu 0.63705 0.82526 1.13720
 Cu244 Cu 0.67586 0.86383 1.13660
 N245 N 0.66112 0.88359 1.17428
 N246 N 0.67517 0.88444 1.15918
 C247 C 0.68962 0.89923 1.16383
 C248 C 0.68431 0.90830 1.18278
 C249 C 0.66626 0.89775 1.18905
 H250 H 0.70392 0.90199 1.15501
 H251 H 0.65850 0.89911 1.20402
 N252 N 0.67390 0.84149 1.11527
 N253 N 0.65922 0.82676 1.11561
 C254 C 0.66399 0.81203 1.10125
 C255 C 0.68246 0.81777 1.09120
 C256 C 0.68833 0.83648 1.10062
 H257 H 0.65579 0.79722 1.09963
 H258 H 0.70310 0.84467 1.09828
 H259 H 0.66169 0.83959 1.15301
 H260 H 0.64414 0.85696 1.13717
 N261 N 0.11740 0.32672 1.15877
 N262 N 0.11932 0.33987 1.17446
 C263 C 0.10524 0.33476 1.18935
 C264 C 0.09370 0.31756 1.18266
 C265 C 0.10199 0.31279 1.16320
 H266 H 0.10464 0.34188 1.20465
 H267 H 0.09831 0.29910 1.15386
 Cu268 Cu 0.14197 0.36040 1.17581
 Cu269 Cu 0.13756 0.32634 1.13581
 Cu270 Cu 0.17614 0.36499 1.13565
 N271 N 0.16211 0.38336 1.17409
 N272 N 0.17550 0.38521 1.15854
 C273 C 0.18925 0.40077 1.16293
 C274 C 0.18397 0.40937 1.18214
 C275 C 0.16681 0.39772 1.18878
 H276 H 0.20311 0.40438 1.15374
 H277 H 0.15951 0.39850 1.20402
 N278 N 0.17415 0.34309 1.11391
 N279 N 0.15939 0.32844 1.11398
 C280 C 0.16410 0.31397 1.09936
 C281 C 0.18258 0.31979 1.08937
 C282 C 0.18857 0.33826 1.09919
 H283 H 0.15595 0.29913 1.09758
 H284 H 0.20346 0.34633 1.09715
 H285 H 0.16298 0.33968 1.15126
 H286 H 0.14435 0.35821 1.13800
 N287 N 0.11720 0.82647 0.65956
 N288 N 0.11855 0.84024 0.67480
 C289 C 0.10536 0.83458 0.69030
 C290 C 0.09489 0.81641 0.68434
 C291 C 0.10290 0.81169 0.66474
 H292 H 0.10445 0.84237 0.70526
 H293 H 0.09946 0.79785 0.65553
 Cu294 Cu 0.13894 0.86295 0.67344
 Cu295 Cu 0.13564 0.82768 0.63507
 Cu296 Cu 0.17700 0.86381 0.63752
 N297 N 0.16095 0.88412 0.67442
 N298 N 0.17574 0.88453 0.66002
 C299 C 0.19027 0.89901 0.66527
 C300 C 0.18424 0.90831 0.68389
 C301 C 0.16570 0.89819 0.68939
 H302 H 0.20502 0.90142 0.65709
 H303 H 0.15727 0.89978 0.70399
 N304 N 0.17514 0.84158 0.61609
 N305 N 0.15950 0.82789 0.61513
 C306 C 0.16417 0.81326 0.60060
 C307 C 0.18353 0.81811 0.59178
 C308 C 0.19008 0.83602 0.60219
 H309 H 0.15503 0.79917 0.59782
 H310 H 0.20539 0.84340 0.60093
 H311 H 0.16029 0.83974 0.65217
 H312 H 0.14528 0.85892 0.63595
 N313 N 0.38254 0.67416 0.66040
 N314 N 0.38156 0.65982 0.67518
 C315 C 0.39554 0.66469 0.69024
 C316 C 0.40609 0.68289 0.68443
 C317 C 0.39723 0.68853 0.66550
 H318 H 0.39679 0.65664 0.70506
 H319 H 0.40007 0.70296 0.65698
 Cu320 Cu 0.35988 0.63817 0.67457
 Cu321 Cu 0.36228 0.67527 0.63759
 Cu322 Cu 0.32650 0.63397 0.63418
 N323 N 0.33823 0.61652 0.67393
 N324 N 0.32515 0.61490 0.65810
 C325 C 0.31079 0.59985 0.66236
 C326 C 0.31523 0.59143 0.68184
 C327 C 0.33255 0.60268 0.68880
 H328 H 0.29731 0.59628 0.65265
 H329 H 0.33952 0.60180 0.70417
 N330 N 0.32689 0.65787 0.61441
 N331 N 0.34056 0.67349 0.61573
 C332 C 0.33516 0.68857 0.60198
 C333 C 0.31736 0.68217 0.59126
 C334 C 0.31242 0.66272 0.59976
 H335 H 0.34248 0.70391 0.60110
 H336 H 0.29833 0.65364 0.59671
 H337 H 0.33758 0.65884 0.65166
 H338 H 0.35779 0.64340 0.63691
 N339 N 0.38230 0.17478 1.15950
 N340 N 0.38436 0.15864 1.17219
 C341 C 0.39957 0.16298 1.18624
 C342 C 0.40766 0.18282 1.18193
 C343 C 0.39609 0.18984 1.16497
 H344 H 0.40323 0.15327 1.19964
 H345 H 0.39639 0.20550 1.15833
 Cu346 Cu 0.36462 0.13516 1.17114
 Cu347 Cu 0.35935 0.17689 1.13952
 Cu348 Cu 0.32804 0.13276 1.13317
 N349 N 0.34063 0.11610 1.17302
 N350 N 0.32649 0.11507 1.15806
 C351 C 0.31123 0.10145 1.16369
 C352 C 0.31598 0.09357 1.18335
 C353 C 0.33479 0.10325 1.18873
 H354 H 0.29723 0.09849 1.15454
 H355 H 0.34308 0.10172 1.20341
 N356 N 0.32672 0.15732 1.11426
 N357 N 0.33864 0.17414 1.11682
 C358 C 0.33263 0.18902 1.10311
 C359 C 0.31613 0.18133 1.09125
 C360 C 0.31263 0.16121 1.09896
 H361 H 0.33862 0.20496 1.10284
 H362 H 0.29969 0.15089 1.09495
 H363 H 0.33808 0.15559 1.15258
 H364 H 0.35872 0.14524 1.13453
 N365 N 0.88357 0.67467 1.16040
 N366 N 0.88259 0.66050 1.17532
 C367 C 0.89657 0.66551 1.19032
 C368 C 0.90707 0.68368 1.18437
 C369 C 0.89822 0.68913 1.16537
 H370 H 0.89773 0.65766 1.20524
 H371 H 0.90097 0.70355 1.15678
 Cu372 Cu 0.86085 0.63897 1.17507
 Cu373 Cu 0.86308 0.67566 1.13777
 Cu374 Cu 0.82673 0.63477 1.13539
 N375 N 0.83898 0.61759 1.17511
 N376 N 0.82558 0.61597 1.15955
 C377 C 0.81113 0.60115 1.16423
 C378 C 0.81590 0.59284 1.18369
 C379 C 0.83348 0.60392 1.19021
 H380 H 0.79741 0.59766 1.15482
 H381 H 0.84077 0.60305 1.20543
 N382 N 0.82719 0.65837 1.11525
 N383 N 0.84110 0.67380 1.11617
 C384 C 0.83570 0.68880 1.10233
 C385 C 0.81755 0.68259 1.09207
 C386 C 0.81257 0.66323 1.10075
 H387 H 0.84331 0.70397 1.10120
 H388 H 0.79834 0.65428 1.09794
 H389 H 0.83837 0.65971 1.15241
 H390 H 0.85808 0.64386 1.13748
 N391 N 0.88304 0.17400 0.65944
 N392 N 0.88423 0.15823 0.67267
 C393 C 0.89945 0.16243 0.68677
 C394 C 0.90844 0.18175 0.68190
 C395 C 0.89742 0.18862 0.66455
 H396 H 0.90243 0.15316 0.70063
 H397 H 0.89836 0.20405 0.65746
 Cu398 Cu 0.86337 0.13566 0.67238
 Cu399 Cu 0.86018 0.17673 0.63957
 Cu400 Cu 0.82746 0.13367 0.63345
 N401 N 0.83956 0.11629 0.67309
 N402 N 0.82573 0.11540 0.65784
 C403 C 0.81060 0.10139 0.66283
 C404 C 0.81522 0.09294 0.68225
 C405 C 0.83359 0.10298 0.68837
 H406 H 0.79667 0.09853 0.65353
 H407 H 0.84142 0.10143 0.70329
 N408 N 0.82683 0.15825 0.61459
 N409 N 0.83935 0.17464 0.61705
 C410 C 0.83381 0.18972 0.60339
 C411 C 0.81702 0.18260 0.59159
 C412 C 0.81282 0.16264 0.59934
 H413 H 0.84038 0.20542 0.60307
 H414 H 0.79954 0.15276 0.59532
 H415 H 0.83783 0.15652 0.65288
 H416 H 0.85849 0.14498 0.63548
 N417 N 0.32702 0.38301 0.65844
 N418 N 0.34130 0.38228 0.67329
 C419 C 0.33628 0.39651 0.68808
 C420 C 0.31800 0.40687 0.68211
 C421 C 0.31252 0.39769 0.66328
 H422 H 0.34418 0.39802 0.70296
 H423 H 0.29800 0.40010 0.65475
 Cu424 Cu 0.36305 0.36061 0.67323
 Cu425 Cu 0.32580 0.36225 0.63611
 Cu426 Cu 0.36461 0.32370 0.63574
 N427 N 0.38499 0.33916 0.67272
 N428 N 0.38575 0.32501 0.65778
 C429 C 0.40078 0.31074 0.66234
 C430 C 0.41012 0.31627 0.68108
 C431 C 0.39946 0.33426 0.68732
 H432 H 0.40338 0.29631 0.65376
 H433 H 0.40086 0.34202 0.70226
 N434 N 0.34182 0.32506 0.61484
 N435 N 0.32715 0.33983 0.61490
 C436 C 0.31236 0.33491 0.60065
 C437 C 0.31798 0.31625 0.59102
 C438 C 0.33667 0.31037 0.60057
 H439 H 0.29759 0.34321 0.59866
 H440 H 0.34487 0.29557 0.59858
 H441 H 0.34044 0.33796 0.65222
 H442 H 0.35764 0.35536 0.63600
 N443 N 0.32377 0.88269 0.15800
 N444 N 0.33908 0.88400 0.17174
 C445 C 0.33429 0.89921 0.18562
 C446 C 0.31504 0.90801 0.18019
 C447 C 0.30880 0.89696 0.16264
 H448 H 0.34303 0.90231 0.19977
 H449 H 0.29358 0.89780 0.15506
 Cu450 Cu 0.36123 0.86273 0.17268
 Cu451 Cu 0.32211 0.85976 0.13800
 Cu452 Cu 0.36646 0.82814 0.13313
 N453 N 0.38303 0.84114 0.17287
 N454 N 0.38496 0.82756 0.15751
 C455 C 0.39981 0.81326 0.16259
 C456 C 0.40771 0.81818 0.18216
 C457 C 0.39644 0.83583 0.18827
 H458 H 0.40354 0.79945 0.15342
 H459 H 0.39685 0.84326 0.20344
 N460 N 0.34239 0.82690 0.11354
 N461 N 0.32566 0.83914 0.11542
 C462 C 0.31112 0.83324 0.10135
 C463 C 0.31889 0.81646 0.08994
 C464 C 0.33873 0.81269 0.09831
 H465 H 0.29523 0.83940 0.10064
 H466 H 0.34891 0.79947 0.09482
 H467 H 0.34207 0.83725 0.15160
 H468 H 0.35407 0.85864 0.13547
 N469 N 0.82394 0.38342 0.15859
 N470 N 0.83833 0.38324 0.17336
 C471 C 0.83293 0.39734 0.18813
 C472 C 0.81435 0.40713 0.18215
 C473 C 0.80900 0.39765 0.16343
 H474 H 0.84099 0.39926 0.20288
 H475 H 0.79445 0.39974 0.15488
 Cu476 Cu 0.86085 0.36247 0.17285
 Cu477 Cu 0.82353 0.36271 0.13612
 Cu478 Cu 0.86313 0.32474 0.13651
 N479 N 0.88259 0.34091 0.17383
 N480 N 0.88363 0.32639 0.15924
 C481 C 0.89845 0.31217 0.16454
 C482 C 0.90725 0.31807 0.18342
 C483 C 0.89663 0.33632 0.18894
 H484 H 0.90144 0.29767 0.15620
 H485 H 0.89781 0.34464 0.20361
 N486 N 0.84080 0.32589 0.11500
 N487 N 0.82583 0.34037 0.11487
 C488 C 0.81144 0.33529 0.10029
 C489 C 0.81765 0.31686 0.09056
 C490 C 0.83624 0.31125 0.10047
 H491 H 0.79652 0.34327 0.09822
 H492 H 0.84470 0.29660 0.09848
 H493 H 0.83863 0.33894 0.15252
 H494 H 0.85538 0.35615 0.13576
 N495 N 0.82579 0.88300 0.65921
 N496 N 0.84037 0.88260 0.67378
 C497 C 0.83553 0.89691 0.68852
 C498 C 0.81714 0.90717 0.68270
 C499 C 0.81130 0.89769 0.66412
 H500 H 0.84373 0.89859 0.70322
 H501 H 0.79666 0.90008 0.65579
 Cu502 Cu 0.86219 0.86112 0.67334
 Cu503 Cu 0.82458 0.86197 0.63699
 Cu504 Cu 0.86556 0.82532 0.63543
 N505 N 0.88265 0.83838 0.67497
 N506 N 0.88399 0.82440 0.65991
 C507 C 0.89840 0.80974 0.66518
 C508 C 0.90648 0.81472 0.68465
 C509 C 0.89597 0.83296 0.69044
 H510 H 0.90192 0.79583 0.65607
 H511 H 0.89702 0.84105 0.70523
 N512 N 0.84189 0.82547 0.61531
 N513 N 0.82643 0.83943 0.61587
 C514 C 0.81164 0.83390 0.60184
 C515 C 0.81807 0.81571 0.59182
 C516 C 0.83722 0.81069 0.60097
 H517 H 0.79647 0.84151 0.60016
 H518 H 0.84622 0.79641 0.59857
 H519 H 0.84083 0.83791 0.65215
 H520 H 0.85628 0.85669 0.63586
 N521 N 0.67470 0.61685 0.66116
 N522 N 0.66039 0.61781 0.67599
 C523 C 0.66530 0.60381 0.69101
 C524 C 0.68346 0.59321 0.68517
 C525 C 0.68912 0.60213 0.66623
 H526 H 0.65727 0.60255 0.70586
 H527 H 0.70356 0.59928 0.65769
 Cu528 Cu 0.63854 0.63928 0.67568
 Cu529 Cu 0.67558 0.63715 0.63833
 Cu530 Cu 0.63660 0.67568 0.63771
 N531 N 0.61674 0.66079 0.67526
 N532 N 0.61585 0.67487 0.66022
 C533 C 0.60088 0.68918 0.66491
 C534 C 0.59176 0.68371 0.68382
 C535 C 0.60246 0.66575 0.69002
 H536 H 0.59803 0.70347 0.65617
 H537 H 0.60113 0.65795 0.70498
 N538 N 0.65904 0.67380 0.61639
 N539 N 0.67380 0.65912 0.61662
 C540 C 0.68839 0.66379 0.60205
 C541 C 0.68250 0.68214 0.59194
 C542 C 0.66391 0.68814 0.60164
 H543 H 0.70325 0.65561 0.60021
 H544 H 0.65569 0.70289 0.59940
 H545 H 0.66102 0.66169 0.65412
 H546 H 0.64381 0.64408 0.63830
 N547 N 0.67493 0.11700 0.15916
 N548 N 0.66083 0.11807 0.17416
 C549 C 0.66594 0.10413 0.18921
 C550 C 0.68399 0.09346 0.18313
 C551 C 0.68938 0.10227 0.16408
 H552 H 0.65812 0.10296 0.20416
 H553 H 0.70371 0.09937 0.15536
 Cu554 Cu 0.63902 0.13959 0.17400
 Cu555 Cu 0.67565 0.13723 0.13627
 Cu556 Cu 0.63695 0.17602 0.13612
 N557 N 0.61725 0.16114 0.17372
 N558 N 0.61640 0.17531 0.15879
 C559 C 0.60148 0.18963 0.16352
 C560 C 0.59227 0.18405 0.18235
 C561 C 0.60294 0.16606 0.18850
 H562 H 0.59873 0.20400 0.15485
 H563 H 0.60150 0.15818 0.20340
 N564 N 0.65914 0.17402 0.11459
 N565 N 0.67376 0.15919 0.11456
 C566 C 0.68823 0.16382 0.09986
 C567 C 0.68242 0.18232 0.08998
 C568 C 0.66400 0.18843 0.09992
 H569 H 0.70301 0.15556 0.09782
 H570 H 0.65594 0.20330 0.09795
 H571 H 0.66145 0.16181 0.15225
 H572 H 0.64391 0.14436 0.13661
 N573 N 0.17285 0.61739 0.16016
 N574 N 0.15699 0.61618 0.17333
 C575 C 0.16168 0.60192 0.18824
 C576 C 0.18142 0.59348 0.18394
 C577 C 0.18806 0.60393 0.16614
 H578 H 0.15218 0.59900 0.20198
 H579 H 0.20350 0.60298 0.15901
 Cu580 Cu 0.13332 0.63555 0.17117
 Cu581 Cu 0.17412 0.63835 0.13800
 Cu582 Cu 0.13263 0.67391 0.13499
 N583 N 0.11452 0.65963 0.17368
 N584 N 0.11436 0.67464 0.15954
 C585 C 0.10096 0.68990 0.16563
 C586 C 0.09213 0.68412 0.18458
 C587 C 0.10131 0.66488 0.18932
 H588 H 0.09856 0.70459 0.15740
 H589 H 0.09942 0.65588 0.20354
 N590 N 0.15675 0.67419 0.11542
 N591 N 0.17247 0.66061 0.11663
 C592 C 0.18744 0.66608 0.10275
 C593 C 0.18085 0.68384 0.09205
 C594 C 0.16140 0.68871 0.10074
 H595 H 0.20277 0.65871 0.10159
 H596 H 0.15212 0.70268 0.09768
 H597 H 0.15561 0.66069 0.15305
 H598 H 0.14226 0.64260 0.13441
 N599 N 0.17613 0.11686 0.66009
 N600 N 0.16077 0.11618 0.67387
 C601 C 0.16527 0.10131 0.68823
 C602 C 0.18430 0.09192 0.68294
 C603 C 0.19079 0.10241 0.66510
 H604 H 0.15645 0.09882 0.70249
 H605 H 0.20601 0.10105 0.65757
 Cu606 Cu 0.13882 0.13762 0.67331
 Cu607 Cu 0.17856 0.13954 0.63970
 Cu608 Cu 0.13429 0.17139 0.63349
 N609 N 0.11737 0.15949 0.67357
 N610 N 0.11563 0.17271 0.65785
 C611 C 0.10086 0.18724 0.66248
 C612 C 0.09283 0.18284 0.68215
 C613 C 0.10395 0.16530 0.68880
 H614 H 0.09732 0.20082 0.65288
 H615 H 0.10326 0.15821 0.70415
 N616 N 0.15887 0.17219 0.61440
 N617 N 0.17560 0.16003 0.61680
 C618 C 0.19049 0.16587 0.60301
 C619 C 0.18288 0.18245 0.59123
 C620 C 0.16284 0.18623 0.59908
 H621 H 0.20640 0.15972 0.60266
 H622 H 0.15266 0.19932 0.59513
 H623 H 0.15850 0.16253 0.65217
 H624 H 0.14682 0.14103 0.63617
 N625 N 0.32694 0.61591 0.34156
 N626 N 0.34276 0.61489 0.32832
 C627 C 0.33823 0.60056 0.31347
 C628 C 0.31864 0.59187 0.31786
 C629 C 0.31192 0.60224 0.33568
 H630 H 0.34764 0.59787 0.29963
 H631 H 0.29647 0.60120 0.34279
 Cu632 Cu 0.36601 0.63477 0.33004
 Cu633 Cu 0.32525 0.63716 0.36340
 Cu634 Cu 0.36676 0.67267 0.36643
 N635 N 0.38436 0.65915 0.32734
 N636 N 0.38465 0.67391 0.34170
 C637 C 0.39776 0.68939 0.33560
 C638 C 0.40613 0.68414 0.31632
 C639 C 0.39719 0.66480 0.31153
 H640 H 0.40027 0.70391 0.34407
 H641 H 0.39901 0.65593 0.29725
 N642 N 0.34246 0.67314 0.38567
 N643 N 0.32660 0.65975 0.38443
 C644 C 0.31142 0.66572 0.39790
 C645 C 0.31798 0.68371 0.40815
 C646 C 0.33773 0.68802 0.39990
 H647 H 0.29603 0.65849 0.39917
 H648 H 0.34722 0.70185 0.40277
 H649 H 0.34364 0.65961 0.34843
 H650 H 0.35701 0.64130 0.36692
 N651 N 0.32664 0.11735 0.84069
 N652 N 0.34034 0.11892 0.82537
 C653 C 0.33551 0.10475 0.81053
 C654 C 0.31799 0.09346 0.81691
 C655 C 0.31262 0.10212 0.83605
 H656 H 0.34312 0.10374 0.79545
 H657 H 0.29859 0.09873 0.84506
 Cu658 Cu 0.36154 0.14100 0.82461
 Cu659 Cu 0.32609 0.13736 0.86368
 Cu660 Cu 0.36539 0.17522 0.86467
 N661 N 0.38426 0.16142 0.82639
 N662 N 0.38593 0.17465 0.84206
 C663 C 0.40139 0.18858 0.83781
 C664 C 0.41009 0.18364 0.81857
 C665 C 0.39863 0.16645 0.81176
 H666 H 0.40473 0.20242 0.84705
 H667 H 0.39946 0.15941 0.79642
 N668 N 0.34314 0.17332 0.88612
 N669 N 0.32811 0.15898 0.88565
 C670 C 0.31347 0.16384 0.90011
 C671 C 0.31961 0.18199 0.91041
 C672 C 0.33843 0.18762 0.90095
 H673 H 0.29838 0.15604 0.90160
 H674 H 0.34683 0.20224 0.90326
 H675 H 0.34034 0.16238 0.84840
 H676 H 0.35815 0.14354 0.86234
 N677 N 0.82603 0.61650 0.84277
 N678 N 0.84075 0.61596 0.82832
 C679 C 0.83541 0.60161 0.81381
 C680 C 0.81645 0.59247 0.81952
 C681 C 0.81086 0.60251 0.83792
 H682 H 0.84375 0.59915 0.79927
 H683 H 0.79608 0.60097 0.84622
 Cu684 Cu 0.86383 0.63611 0.82780
 Cu685 Cu 0.82586 0.63764 0.86470
 Cu686 Cu 0.86552 0.67505 0.86358
 N687 N 0.88520 0.65804 0.82696
 N688 N 0.88607 0.67298 0.84111
 C689 C 0.90064 0.68725 0.83533
 C690 C 0.90930 0.68104 0.81647
 C691 C 0.89910 0.66239 0.81165
 H692 H 0.90345 0.70202 0.84324
 H693 H 0.90031 0.65362 0.79725
 N694 N 0.84328 0.67462 0.88506
 N695 N 0.82824 0.66027 0.88555
 C696 C 0.81392 0.66579 0.90010
 C697 C 0.82016 0.68450 0.90923
 C698 C 0.83884 0.68966 0.89923
 H699 H 0.79903 0.65788 0.90264
 H700 H 0.84750 0.70422 0.90081
 H701 H 0.84140 0.66042 0.84724
 H702 H 0.85788 0.64349 0.86472
 N703 N 0.82676 0.11679 0.34152
 N704 N 0.84142 0.11696 0.32700
 C705 C 0.83588 0.10361 0.31164
 C706 C 0.81687 0.09428 0.31697
 C707 C 0.81148 0.10318 0.33600
 H708 H 0.84451 0.10153 0.29721
 H709 H 0.79700 0.10091 0.34465
 Cu710 Cu 0.86553 0.13574 0.32896
 Cu711 Cu 0.82776 0.13543 0.36569
 Cu712 Cu 0.86333 0.17681 0.36173
 N713 N 0.88527 0.15903 0.32656
 N714 N 0.88435 0.17496 0.33960
 C715 C 0.89815 0.18980 0.33348
 C716 C 0.90845 0.18284 0.31572
 C717 C 0.89961 0.16331 0.31159
 H718 H 0.89949 0.20523 0.34048
 H719 H 0.90228 0.15368 0.29791
 N720 N 0.84096 0.17565 0.38312
 N721 N 0.82749 0.15989 0.38470
 C722 C 0.81296 0.16470 0.39933
 C723 C 0.81768 0.18429 0.40759
 C724 C 0.83538 0.19082 0.39671
 H725 H 0.79909 0.15536 0.40266
 H726 H 0.84270 0.20616 0.39762
 H727 H 0.84070 0.15829 0.34719
 H728 H 0.85913 0.14513 0.36572
 N729 N 0.67297 0.38377 0.33991
 N730 N 0.65767 0.38350 0.32607
 C731 C 0.66164 0.39812 0.31134
 C732 C 0.68025 0.40837 0.31642
 C733 C 0.68704 0.39865 0.33456
 H734 H 0.65284 0.39984 0.29698
 H735 H 0.70218 0.40078 0.34203
 Cu736 Cu 0.63664 0.36123 0.32702
 Cu737 Cu 0.67626 0.36156 0.36073
 Cu738 Cu 0.63402 0.32708 0.36660
 N739 N 0.61647 0.33823 0.32659
 N740 N 0.61551 0.32483 0.34224
 C741 C 0.60143 0.30965 0.33767
 C742 C 0.59318 0.31372 0.31803
 C743 C 0.60319 0.33193 0.31147
 H744 H 0.59847 0.29605 0.34740
 H745 H 0.60165 0.33933 0.29633
 N746 N 0.65849 0.32768 0.38579
 N747 N 0.67447 0.34083 0.38357
 C748 C 0.68962 0.33570 0.39736
 C749 C 0.68294 0.31857 0.40895
 C750 C 0.66320 0.31376 0.40099
 H751 H 0.70515 0.34270 0.39776
 H752 H 0.65382 0.30006 0.40477
 H753 H 0.65782 0.33750 0.34803
 H754 H 0.64466 0.35808 0.36415
 N755 N 0.67512 0.88214 0.84022
 N756 N 0.66013 0.88240 0.82606
 C757 C 0.66481 0.89707 0.81158
 C758 C 0.68358 0.90673 0.81709
 C759 C 0.68977 0.89662 0.83523
 H760 H 0.65620 0.89938 0.79719
 H761 H 0.70473 0.89839 0.84312
 Cu762 Cu 0.63750 0.86165 0.82624
 Cu763 Cu 0.67658 0.86031 0.86144
 Cu764 Cu 0.63637 0.82383 0.86354
 N765 N 0.61633 0.83949 0.82633
 N766 N 0.61569 0.82511 0.84110
 C767 C 0.60098 0.81067 0.83620
 C768 C 0.59172 0.81637 0.81746
 C769 C 0.60202 0.83465 0.81159
 H770 H 0.59852 0.79617 0.84470
 H771 H 0.60034 0.84279 0.79684
 N772 N 0.65909 0.82515 0.88455
 N773 N 0.67444 0.83916 0.88379
 C774 C 0.68899 0.83422 0.89828
 C775 C 0.68256 0.81630 0.90880
 C776 C 0.66362 0.81087 0.89948
 H777 H 0.70416 0.84183 0.89979
 H778 H 0.65488 0.79649 0.90205
 H779 H 0.65948 0.83706 0.84571
 H780 H 0.64435 0.85525 0.86310
 N781 N 0.17309 0.38256 0.83983
 N782 N 0.15718 0.38337 0.82672
 C783 C 0.16147 0.39764 0.81172
 C784 C 0.18099 0.40655 0.81587
 C785 C 0.18795 0.39634 0.83370
 H786 H 0.15190 0.40023 0.79798
 H787 H 0.20338 0.39767 0.84075
 Cu788 Cu 0.13395 0.36352 0.82901
 Cu789 Cu 0.17481 0.36179 0.86218
 Cu790 Cu 0.13304 0.32671 0.86660
 N791 N 0.11541 0.33922 0.82720
 N792 N 0.11494 0.32499 0.84210
 C793 C 0.10150 0.30953 0.83670
 C794 C 0.09311 0.31429 0.81728
 C795 C 0.10245 0.33320 0.81169
 H796 H 0.09902 0.29537 0.84576
 H797 H 0.10057 0.34147 0.79703
 N798 N 0.15746 0.32654 0.88566
 N799 N 0.17344 0.33973 0.88383
 C800 C 0.18866 0.33403 0.89734
 C801 C 0.18194 0.31655 0.90842
 C802 C 0.16217 0.31209 0.90036
 H803 H 0.20418 0.34104 0.89800
 H804 H 0.15270 0.29834 0.90376
 H805 H 0.15620 0.33904 0.84799
 H806 H 0.14305 0.35800 0.86599
 N807 N 0.17352 0.88433 0.34156
 N808 N 0.15916 0.88346 0.32680
 C809 C 0.16472 0.89660 0.31122
 C810 C 0.18335 0.90660 0.31670
 C811 C 0.18858 0.89816 0.33598
 H812 H 0.15638 0.89809 0.29657
 H813 H 0.20287 0.90099 0.34476
 Cu814 Cu 0.13529 0.86433 0.32893
 Cu815 Cu 0.17247 0.86623 0.36613
 Cu816 Cu 0.13699 0.82469 0.36357
 N817 N 0.11516 0.84125 0.32784
 N818 N 0.11584 0.82594 0.34165
 C819 C 0.10175 0.81107 0.33637
 C820 C 0.09149 0.81738 0.31836
 C821 C 0.10065 0.83653 0.31323
 H822 H 0.10026 0.79601 0.34412
 H823 H 0.09801 0.84552 0.29912
 N824 N 0.15950 0.82637 0.38463
 N825 N 0.17297 0.84218 0.38565
 C826 C 0.18789 0.83756 0.39991
 C827 C 0.18350 0.81796 0.40840
 C828 C 0.16544 0.81137 0.39826
 H829 H 0.20181 0.84699 0.40262
 H830 H 0.15819 0.79603 0.39967
 H831 H 0.15978 0.84254 0.34841
 H832 H 0.14104 0.85647 0.36611
 C833 C 0.26157 0.95505 0.23367
 C834 C 0.24704 0.94445 0.24640
 C835 C 0.23559 0.95437 0.26239
 C836 C 0.23646 0.97684 0.26348
 C837 C 0.24916 0.98835 0.24908
 C838 C 0.26135 0.97744 0.23391
 C839 C 0.27212 0.98928 0.21873
 C840 C 0.27252 1.01110 0.21939
 C841 C 0.26231 1.02233 0.23535
 C842 C 0.24949 1.01090 0.24967
 C843 C 0.22447 0.98825 0.27808
 C844 C 0.22494 1.01008 0.27876
 C845 C 0.23676 1.02191 0.26435
 C846 C 0.23603 1.04436 0.26402
 C847 C 0.25043 1.05494 0.25102
 C848 C 0.26415 1.04463 0.23714
 H849 H 0.28007 0.98196 0.20572
 H850 H 0.28064 1.01891 0.20677
 H851 H 0.21412 0.98070 0.28912
 H852 H 0.21575 1.01737 0.29094
 H853 H 0.24399 0.92825 0.24299
 H854 H 0.25087 1.07169 0.25153
 C855 C 0.26284 0.45300 0.73495
 C856 C 0.24785 0.44259 0.74737
 C857 C 0.23361 0.45294 0.76068
 C858 C 0.23464 0.47539 0.76165
 C859 C 0.24863 0.48666 0.74831
 C860 C 0.26245 0.47547 0.73472
 C861 C 0.27561 0.48714 0.72136
 C862 C 0.27589 0.50893 0.72169
 C863 C 0.26245 0.52050 0.73483
 C864 C 0.24899 0.50925 0.74870
 C865 C 0.22212 0.48698 0.77566
 C866 C 0.22262 0.50879 0.77620
 C867 C 0.23600 0.52047 0.76306
 C868 C 0.23721 0.54292 0.76431
 C869 C 0.25121 0.55320 0.75072
 C870 C 0.26253 0.54293 0.73488
 H871 H 0.28601 0.47979 0.71023
 H872 H 0.28732 0.51638 0.71166
 H873 H 0.21181 0.47956 0.78682
 H874 H 0.21225 0.51613 0.78736
 H875 H 0.24732 0.42595 0.74666
 H876 H 0.25407 0.56953 0.75280
 C877 C 0.76506 -0.04419 0.26310
 C878 C 0.75025 -0.05447 0.25046
 C879 C 0.73795 -0.04408 0.23545
 C880 C 0.73789 -0.02163 0.23561
 C881 C 0.75157 -0.01045 0.24929
 C882 C 0.76493 -0.02173 0.26324
 C883 C 0.77676 -0.01018 0.27781
 C884 C 0.77659 0.01166 0.27799
 C885 C 0.76464 0.02331 0.26357
 C886 C 0.75140 0.01212 0.24948
 C887 C 0.72362 -0.01000 0.22341
 C888 C 0.72346 0.01181 0.22360
 C889 C 0.73756 0.02338 0.23600
 C890 C 0.73732 0.04582 0.23620
 C891 C 0.74949 0.05608 0.25135
 C892 C 0.76455 0.04576 0.26370
 H893 H 0.78587 -0.01770 0.28991
 H894 H 0.78552 0.01912 0.29024
 H895 H 0.71172 -0.01743 0.21395
 H896 H 0.71144 0.01927 0.21427
 H897 H 0.74726 -0.07082 0.25330
 H898 H 0.74633 0.07237 0.25445
 C899 C 0.76390 0.45524 0.76538
 C900 C 0.74917 0.44492 0.75268
 C901 C 0.73684 0.45532 0.73769
 C902 C 0.73661 0.47777 0.73800
 C903 C 0.75019 0.48895 0.75177
 C904 C 0.76364 0.47768 0.76561
 C905 C 0.77555 0.48921 0.78014
 C906 C 0.77526 0.51102 0.78046
 C907 C 0.76312 0.52268 0.76621
 C908 C 0.74993 0.51151 0.75207
 C909 C 0.72230 0.48940 0.72583
 C910 C 0.72207 0.51123 0.72610
 C911 C 0.73612 0.52279 0.73857
 C912 C 0.73591 0.54523 0.73880
 C913 C 0.74794 0.55548 0.75409
 C914 C 0.76292 0.54512 0.76649
 H915 H 0.78488 0.48169 0.79207
 H916 H 0.78432 0.51842 0.79264
 H917 H 0.71045 0.48195 0.71632
 H918 H 0.71008 0.51872 0.71676
 H919 H 0.74631 0.42853 0.75539
 H920 H 0.74475 0.57175 0.75717
 C921 C 0.26153 0.45671 0.26529
 C922 C 0.24646 0.44671 0.25275
 C923 C 0.23536 0.45707 0.23684
 C924 C 0.23603 0.47950 0.23646
 C925 C 0.24948 0.49056 0.25044
 C926 C 0.26243 0.47914 0.26464
 C927 C 0.27523 0.49058 0.27845
 C928 C 0.27584 0.51239 0.27810
 C929 C 0.26365 0.52418 0.26396
 C930 C 0.24982 0.51314 0.25034
 C931 C 0.22306 0.49125 0.22303
 C932 C 0.22340 0.51306 0.22293
 C933 C 0.23617 0.52454 0.23677
 C934 C 0.23554 0.54700 0.23752
 C935 C 0.25025 0.55724 0.25037
 C936 C 0.26468 0.54663 0.26329
 H937 H 0.28479 0.48302 0.29018
 H938 H 0.28585 0.51966 0.28959
 H939 H 0.21191 0.48394 0.21263
 H940 H 0.21329 0.52057 0.21165
 H941 H 0.24255 0.43066 0.25604
 H942 H 0.25040 0.57393 0.25036
 C943 C 0.76416 0.95450 0.73642
 C944 C 0.75244 0.94425 0.75198
 C945 C 0.73692 0.95436 0.76395
 C946 C 0.73610 0.97678 0.76323
 C947 C 0.74941 0.98808 0.74925
 C948 C 0.76328 0.97694 0.73570
 C949 C 0.77632 0.98864 0.72224
 C950 C 0.77542 1.01044 0.72150
 C951 C 0.76219 1.02197 0.73490
 C952 C 0.74889 1.01064 0.74887
 C953 C 0.72279 0.98830 0.77654
 C954 C 0.72197 1.01008 0.77587
 C955 C 0.73507 1.02177 0.76248
 C956 C 0.73428 1.04419 0.76190
 C957 C 0.74593 1.05449 0.74634
 C958 C 0.76144 1.04442 0.73431
 H959 H 0.78772 0.98130 0.71210
 H960 H 0.78526 1.01794 0.70995
 H961 H 0.71281 0.98084 0.78799
 H962 H 0.71059 1.01740 0.78605
 H963 H 0.75615 0.92820 0.75551
 H964 H 0.74222 1.07058 0.74289
 C965 C 0.76397 0.54454 0.23752
 C966 C 0.75290 0.55465 0.25360
 C967 C 0.73728 0.54465 0.26550
 C968 C 0.73586 0.52229 0.26425
 C969 C 0.74880 0.51102 0.24992
 C970 C 0.76278 0.52216 0.23647
 C971 C 0.77565 0.51050 0.22285
 C972 C 0.77445 0.48873 0.22182
 C973 C 0.76090 0.47721 0.23493
 C974 C 0.74776 0.48850 0.24905
 C975 C 0.72230 0.51079 0.27732
 C976 C 0.72083 0.48907 0.27604
 C977 C 0.73364 0.47739 0.26236
 C978 C 0.73235 0.45501 0.26129
 C979 C 0.74396 0.44478 0.24565
 C980 C 0.75976 0.45481 0.23396
 H981 H 0.78719 0.51786 0.21287
 H982 H 0.78431 0.48127 0.21027
 H983 H 0.71260 0.51821 0.28903
 H984 H 0.70924 0.48179 0.28602
 H985 H 0.75714 0.57050 0.25745
 H986 H 0.74009 0.42881 0.24196
 C987 C 0.26372 -0.04466 0.76565
 C988 C 0.24814 -0.05478 0.75379
 C989 C 0.23643 -0.04456 0.73825
 C990 C 0.23712 -0.02215 0.73760
 C991 C 0.25107 -0.01096 0.75096
 C992 C 0.26458 -0.02222 0.76479
 C993 C 0.27811 -0.01061 0.77778
 C994 C 0.27885 0.01121 0.77699
 C995 C 0.26540 0.02282 0.76388
 C996 C 0.25146 0.01160 0.75053
 C997 C 0.22377 -0.01055 0.72440
 C998 C 0.22445 0.01122 0.72367
 C999 C 0.23790 0.02282 0.73673
 C1000 C 0.23858 0.04525 0.73593
 C1001 C 0.25405 0.05546 0.74781
 C1002 C 0.26591 0.04527 0.76330
 H1003 H 0.28829 -0.01804 0.78907
 H1004 H 0.29045 0.01865 0.78681
 H1005 H 0.21224 -0.01793 0.71447
 H1006 H 0.21422 0.01859 0.71240
 H1007 H 0.24436 -0.07080 0.75734
 H1008 H 0.25762 0.07155 0.74432
 C1009 C 0.23581 0.26397 1.04422
 C1010 C 0.24790 0.24875 1.05471
 C1011 C 0.26128 0.23431 1.04465
 C1012 C 0.26232 0.23508 1.02237
 C1013 C 0.24928 0.24933 1.01102
 C1014 C 0.23586 0.26356 1.02194
 C1015 C 0.22281 0.27698 1.01021
 C1016 C 0.22317 0.27699 0.98860
 C1017 C 0.23603 0.26306 0.97727
 C1018 C 0.24969 0.24939 0.98860
 C1019 C 0.27597 0.22191 1.01102
 C1020 C 0.27645 0.22205 0.98939
 C1021 C 0.26374 0.23580 0.97765
 C1022 C 0.26478 0.23641 0.95537
 C1023 C 0.25046 0.24958 0.94488
 C1024 C 0.23563 0.26245 0.95500
 H1025 H 0.21179 0.28769 1.01735
 H1026 H 0.21314 0.28842 0.98112
 H1027 H 0.28676 0.21119 1.01849
 H1028 H 0.28700 0.21089 0.98222
 H1029 H 0.24672 0.24812 1.07116
 H1030 H 0.25091 0.24996 0.92837
 C1031 C 0.26503 0.73755 0.45559
 C1032 C 0.25269 0.75274 0.44540
 C1033 C 0.23753 0.76508 0.45565
 C1034 C 0.23736 0.76483 0.47790
 C1035 C 0.25073 0.75072 0.48899
 C1036 C 0.26482 0.73735 0.47784
 C1037 C 0.27912 0.72504 0.48933
 C1038 C 0.27874 0.72461 0.51095
 C1039 C 0.26414 0.73658 0.52245
 C1040 C 0.25040 0.75035 0.51136
 C1041 C 0.22508 0.77911 0.48944
 C1042 C 0.22476 0.77876 0.51107
 C1043 C 0.23675 0.76414 0.52253
 C1044 C 0.23640 0.76380 0.54479
 C1045 C 0.25114 0.75095 0.55504
 C1046 C 0.26377 0.73609 0.54470
 H1047 H 0.29139 0.71595 0.48193
 H1048 H 0.29072 0.71514 0.51834
 H1049 H 0.21594 0.79136 0.48208
 H1050 H 0.21534 0.79074 0.51850
 H1051 H 0.25576 0.75581 0.42922
 H1052 H 0.25381 0.75348 0.57134
 C1053 C 0.23551 0.73620 0.04471
 C1054 C 0.25126 0.74786 0.05484
 C1055 C 0.26538 0.76136 0.04448
 C1056 C 0.26408 0.76247 0.02222
 C1057 C 0.24955 0.74948 0.01121
 C1058 C 0.23556 0.73610 0.02246
 C1059 C 0.22216 0.72278 0.01106
 C1060 C 0.22176 0.72302 -0.01054
 C1061 C 0.23526 0.73606 -0.02219
 C1062 C 0.24900 0.74987 -0.01119
 C1063 C 0.27710 0.77600 0.01056
 C1064 C 0.27637 0.77657 -0.01107
 C1065 C 0.26226 0.76397 -0.02246
 C1066 C 0.26102 0.76512 -0.04471
 C1067 C 0.24760 0.75083 -0.05487
 C1068 C 0.23539 0.73566 -0.04446
 H1069 H 0.21187 0.71155 0.01850
 H1070 H 0.21038 0.71278 -0.01777
 H1071 H 0.28816 0.78658 0.01777
 H1072 H 0.28741 0.78704 -0.01853
 H1073 H 0.25263 0.74602 0.07122
 H1074 H 0.24655 0.75148 -0.07135
 C1075 C 0.23450 0.23802 0.45492
 C1076 C 0.24942 0.25067 0.44468
 C1077 C 0.26205 0.26550 0.45499
 C1078 C 0.26231 0.26508 0.47723
 C1079 C 0.24842 0.25149 0.48834
 C1080 C 0.23471 0.23778 0.47718
 C1081 C 0.22255 0.22333 0.48864
 C1082 C 0.22273 0.22307 0.51027
 C1083 C 0.23513 0.23722 0.52181
 C1084 C 0.24869 0.25114 0.51071
 C1085 C 0.27699 0.27691 0.48871
 C1086 C 0.27734 0.27647 0.51033
 C1087 C 0.26294 0.26429 0.52184
 C1088 C 0.26323 0.26398 0.54410
 C1089 C 0.25060 0.24905 0.55430
 C1090 C 0.23528 0.23693 0.54406
 H1091 H 0.21311 0.21139 0.48123
 H1092 H 0.21342 0.21095 0.51762
 H1093 H 0.28906 0.28624 0.48130
 H1094 H 0.28968 0.28545 0.51768
 H1095 H 0.25225 0.24797 0.42842
 H1096 H 0.25363 0.24587 0.57045
 C1097 C 0.76666 0.73816 0.95625
 C1098 C 0.75360 0.75252 0.94578
 C1099 C 0.73740 0.76385 0.95570
 C1100 C 0.73641 0.76302 0.97798
 C1101 C 0.75113 0.75051 0.98932
 C1102 C 0.76653 0.73846 0.97844
 C1103 C 0.78200 0.72787 0.99010
 C1104 C 0.78131 0.72734 1.01172
 C1105 C 0.76515 0.73746 1.02292
 C1106 C 0.75062 0.75022 1.01167
 C1107 C 0.72160 0.77489 0.98936
 C1108 C 0.72106 0.77449 1.01101
 C1109 C 0.73579 0.76286 1.02265
 C1110 C 0.73625 0.76363 1.04491
 C1111 C 0.74931 0.74914 1.05533
 C1112 C 0.76332 0.73552 1.04501
 H1113 H 0.79523 0.72010 0.98279
 H1114 H 0.79403 0.71915 1.01940
 H1115 H 0.71029 0.78509 0.98193
 H1116 H 0.70870 0.78354 1.01832
 H1117 H 0.75692 0.75550 0.92966
 H1118 H 0.74869 0.74857 1.07194
 C1119 C 0.73724 0.26488 0.54473
 C1120 C 0.75192 0.25189 0.55488
 C1121 C 0.76400 0.23659 0.54452
 C1122 C 0.76408 0.23687 0.52226
 C1123 C 0.75049 0.25083 0.51124
 C1124 C 0.73733 0.26505 0.52248
 C1125 C 0.72556 0.27986 0.51108
 C1126 C 0.72538 0.27985 0.48945
 C1127 C 0.73712 0.26514 0.47787
 C1128 C 0.75046 0.25094 0.48887
 C1129 C 0.77829 0.22451 0.51068
 C1130 C 0.77837 0.22475 0.48904
 C1131 C 0.76417 0.23725 0.47762
 C1132 C 0.76414 0.23734 0.45535
 C1133 C 0.75168 0.25250 0.44523
 C1134 C 0.73681 0.26507 0.45563
 H1135 H 0.71670 0.29223 0.51858
 H1136 H 0.71631 0.29216 0.48210
 H1137 H 0.79018 0.21490 0.51802
 H1138 H 0.79035 0.21533 0.48157
 H1139 H 0.75490 0.25460 0.57111
 H1140 H 0.75446 0.25546 0.42899
 C1141 C 0.76406 0.26334 0.04374
 C1142 C 0.74850 0.25137 0.05381
 C1143 C 0.73649 0.23594 0.04364
 C1144 C 0.73733 0.23526 0.02140
 C1145 C 0.75127 0.24883 0.01032
 C1146 C 0.76475 0.26273 0.02150
 C1147 C 0.77808 0.27610 0.01003
 C1148 C 0.77872 0.27559 -0.01157
 C1149 C 0.76546 0.26226 -0.02313
 C1150 C 0.75165 0.24857 -0.01205
 C1151 C 0.72418 0.22183 0.00983
 C1152 C 0.72498 0.22117 -0.01177
 C1153 C 0.73823 0.23461 -0.02324
 C1154 C 0.73885 0.23410 -0.04549
 C1155 C 0.75419 0.24634 -0.05559
 C1156 C 0.76605 0.26185 -0.04538
 H1157 H 0.78819 0.28751 0.01739
 H1158 H 0.79009 0.28583 -0.01886
 H1159 H 0.71277 0.21161 0.01711
 H1160 H 0.71498 0.20966 -0.01913
 H1161 H 0.74496 0.25486 0.06976
 H1162 H 0.75765 0.24309 -0.07161
 C1163 C 0.76078 0.76577 0.45581
 C1164 C 0.74494 0.75411 0.44585
 C1165 C 0.73315 0.73846 0.45597
 C1166 C 0.73420 0.73751 0.47818
 C1167 C 0.74852 0.75066 0.48922
 C1168 C 0.76194 0.76465 0.47803
 C1169 C 0.77575 0.77753 0.48947
 C1170 C 0.77700 0.77631 0.51104
 C1171 C 0.76382 0.76287 0.52262
 C1172 C 0.74944 0.74979 0.51157
 C1173 C 0.72092 0.72417 0.48975
 C1174 C 0.72207 0.72305 0.51132
 C1175 C 0.73596 0.73584 0.52275
 C1176 C 0.73714 0.73465 0.54495
 C1177 C 0.75310 0.74614 0.55491
 C1178 C 0.76499 0.76175 0.54483
 H1179 H 0.78580 0.78902 0.48210
 H1180 H 0.78877 0.78609 0.51831
 H1181 H 0.70913 0.71441 0.48248
 H1182 H 0.71189 0.71167 0.51868
 H1183 H 0.74111 0.75786 0.43001
 H1184 H 0.75696 0.74225 0.57071
 C1185 C 0.95575 0.26514 0.23618
 C1186 C 0.94528 0.25211 0.25048
 C1187 C 0.95545 0.23625 0.26201
 C1188 C 0.97798 0.23558 0.26132
 C1189 C 0.98931 0.25038 0.24892
 C1190 C 0.97818 0.26543 0.23669
 C1191 C 0.98979 0.28103 0.22622
 C1192 C 1.01167 0.28083 0.22606
 C1193 C 1.02316 0.26503 0.23639
 C1194 C 1.01191 0.25037 0.24898
 C1195 C 0.98962 0.22105 0.27326
 C1196 C 1.01151 0.22094 0.27314
 C1197 C 1.02314 0.23590 0.26179
 C1198 C 1.04559 0.23696 0.26301
 C1199 C 1.05606 0.25028 0.24887
 C1200 C 1.04554 0.26373 0.23489
 H1201 H 0.98224 0.29403 0.21834
 H1202 H 1.01931 0.29368 0.21804
 H1203 H 0.98221 0.20964 0.28331
 H1204 H 1.01902 0.20876 0.28222
 H1205 H 0.92894 0.25527 0.25333
 H1206 H 1.07288 0.25031 0.24878
 C1207 C 0.54655 0.23671 0.76392
 C1208 C 0.55688 0.25227 0.75220
 C1209 C 0.54661 0.26516 0.73756
 C1210 C 0.52410 0.26405 0.73655
 C1211 C 0.51284 0.25011 0.74993
 C1212 C 0.52407 0.23647 0.76361
 C1213 C 0.51245 0.22334 0.77700
 C1214 C 0.49063 0.22303 0.77674
 C1215 C 0.47898 0.23649 0.76370
 C1216 C 0.49020 0.24986 0.74972
 C1217 C 0.51242 0.27701 0.72301
 C1218 C 0.49056 0.27668 0.72272
 C1219 C 0.47893 0.26307 0.73565
 C1220 C 0.45642 0.26234 0.73491
 C1221 C 0.44604 0.24936 0.74940
 C1222 C 0.45649 0.23696 0.76430
 H1223 H 0.51982 0.21323 0.78837
 H1224 H 0.48326 0.21185 0.78707
 H1225 H 0.51977 0.28794 0.71240
 H1226 H 0.48315 0.28768 0.71224
 H1227 H 0.57318 0.25481 0.75525
 H1228 H 0.42937 0.24877 0.74907
 C1229 C -0.04507 0.23576 0.73525
 C1230 C -0.05555 0.25036 0.74807
 C1231 C -0.04507 0.26429 0.76156
 C1232 C -0.02270 0.26256 0.76309
 C1233 C -0.01140 0.24954 0.74890
 C1234 C -0.02257 0.23651 0.73465
 C1235 C -0.01086 0.22445 0.72036
 C1236 C 0.01101 0.22415 0.72069
 C1237 C 0.02258 0.23651 0.73482
 C1238 C 0.01120 0.24932 0.74918
 C1239 C -0.01128 0.27307 0.77871
 C1240 C 0.01058 0.27258 0.77923
 C1241 C 0.02229 0.26168 0.76406
 C1242 C 0.04473 0.26187 0.76409
 C1243 C 0.05519 0.24729 0.75135
 C1244 C 0.04509 0.23580 0.73555
 H1245 H -0.01826 0.21491 0.70855
 H1246 H 0.01848 0.21359 0.70980
 H1247 H -0.01895 0.28152 0.79119
 H1248 H 0.01803 0.28055 0.79212
 H1249 H -0.07233 0.25079 0.74774
 H1250 H 0.07146 0.24416 0.75465
 C1251 C 0.54430 0.23560 0.23683
 C1252 C 0.55433 0.24653 0.25304
 C1253 C 0.54394 0.26118 0.26576
 C1254 C 0.52151 0.26128 0.26550
 C1255 C 0.51043 0.24926 0.25033
 C1256 C 0.52182 0.23660 0.23584
 C1257 C 0.51029 0.22469 0.22132
 C1258 C 0.48843 0.22521 0.22079
 C1259 C 0.47670 0.23702 0.23528
 C1260 C 0.48786 0.24971 0.24984
 C1261 C 0.50979 0.27215 0.28066
 C1262 C 0.48794 0.27289 0.27994
 C1263 C 0.47655 0.26264 0.26410
 C1264 C 0.45421 0.26457 0.26240
 C1265 C 0.44372 0.25086 0.24868
 C1266 C 0.45421 0.23634 0.23576
 H1267 H 0.51778 0.21430 0.21028
 H1268 H 0.48104 0.21607 0.20868
 H1269 H 0.51725 0.27989 0.29370
 H1270 H 0.48024 0.28131 0.29241
 H1271 H 0.57049 0.24305 0.25656
 H1272 H 0.42694 0.25139 0.24820
 C1273 C 0.95666 0.76148 0.73562
 C1274 C 0.94626 0.74745 0.74914
 C1275 C 0.95694 0.73356 0.76256
 C1276 C 0.97926 0.73221 0.76064
 C1277 C 0.99034 0.74769 0.74896
 C1278 C 0.97900 0.76306 0.73736
 C1279 C 0.99037 0.77970 0.72826
 C1280 C 1.01231 0.77987 0.72829
 C1281 C 1.02395 0.76342 0.73742
 C1282 C 1.01286 0.74786 0.74898
 C1283 C 0.99088 0.71578 0.76982
 C1284 C 1.01280 0.71590 0.76978
 C1285 C 1.02417 0.73250 0.76063
 C1286 C 1.04649 0.73412 0.76251
 C1287 C 1.05694 0.74825 0.74915
 C1288 C 1.04632 0.76218 0.73571
 H1289 H 0.98253 0.79307 0.72130
 H1290 H 1.01992 0.79335 0.72129
 H1291 H 0.98325 0.70240 0.77698
 H1292 H 1.02061 0.70258 0.77687
 H1293 H 0.92937 0.74739 0.74924
 H1294 H 1.07383 0.74841 0.74923
 C1295 C 0.45462 0.76491 0.23611
 C1296 C 0.44402 0.75191 0.25047
 C1297 C 0.45440 0.73793 0.26402
 C1298 C 0.47673 0.73608 0.26214
 C1299 C 0.48815 0.75062 0.24956
 C1300 C 0.47710 0.76545 0.23703
 C1301 C 0.48891 0.78027 0.22566
 C1302 C 0.51079 0.77964 0.22522
 C1303 C 0.52225 0.76470 0.23682
 C1304 C 0.51073 0.75009 0.24929
 C1305 C 0.48801 0.71989 0.27211
 C1306 C 0.50987 0.71930 0.27179
 C1307 C 0.52167 0.73476 0.26133
 C1308 C 0.54409 0.73464 0.26167
 C1309 C 0.55468 0.74732 0.24715
 C1310 C 0.54475 0.76345 0.23580
 H1311 H 0.48153 0.79273 0.21685
 H1312 H 0.51836 0.79100 0.21522
 H1313 H 0.48020 0.70707 0.28002
 H1314 H 0.51729 0.70612 0.27952
 H1315 H 0.42721 0.75256 0.25099
 H1316 H 0.57090 0.74375 0.24416
 C1317 C -0.04604 0.73742 0.23738
 C1318 C -0.05651 0.75014 0.25198
 C1319 C -0.04619 0.76507 0.26444
 C1320 C -0.02369 0.76473 0.26476
 C1321 C -0.01238 0.75105 0.25115
 C1322 C -0.02356 0.73717 0.23772
 C1323 C -0.01192 0.72255 0.22593
 C1324 C 0.00994 0.72233 0.22616
 C1325 C 0.02151 0.73676 0.23814
 C1326 C 0.01022 0.75082 0.25138
 C1327 C -0.01214 0.77673 0.27917
 C1328 C 0.00973 0.77655 0.27937
 C1329 C 0.02142 0.76428 0.26521
 C1330 C 0.04391 0.76416 0.26536
 C1331 C 0.05429 0.74905 0.25311
 C1332 C 0.04400 0.73668 0.23815
 H1333 H -0.01936 0.71045 0.21674
 H1334 H 0.01745 0.71007 0.21719
 H1335 H -0.01969 0.78601 0.29112
 H1336 H 0.01716 0.78578 0.29140
 H1337 H -0.07297 0.74743 0.25465
 H1338 H 0.07065 0.74600 0.25609
 C1339 C 0.45351 0.73634 0.73734
 C1340 C 0.44316 0.74883 0.75222
 C1341 C 0.45350 0.76399 0.76440
 C1342 C 0.47599 0.76409 0.76418
 C1343 C 0.48723 0.75050 0.75044
 C1344 C 0.47599 0.73644 0.73723
 C1345 C 0.48762 0.72204 0.72517
 C1346 C 0.50947 0.72217 0.72498
 C1347 C 0.52106 0.73666 0.73687
 C1348 C 0.50984 0.75057 0.75030
 C1349 C 0.48764 0.77651 0.77818
 C1350 C 0.50950 0.77648 0.77814
 C1351 C 0.52110 0.76413 0.76401
 C1352 C 0.54359 0.76402 0.76407
 C1353 C 0.55390 0.74901 0.75167
 C1354 C 0.54354 0.73673 0.73668
 H1355 H 0.48016 0.70986 0.71610
 H1356 H 0.51698 0.71007 0.71580
 H1357 H 0.48020 0.78601 0.79002
 H1358 H 0.51698 0.78592 0.78997
 H1359 H 0.42682 0.74581 0.75524
 H1360 H 0.57024 0.74587 0.75458
 C1361 C 0.41979 0.30384 0.30185
 C1362 C 0.43871 0.31487 0.29154
 C1363 C 0.44960 0.30237 0.27790
 C1364 C 0.44106 0.27964 0.27622
 C1365 C 0.43993 0.27145 0.29879
 C1366 C 0.42913 0.28406 0.31214
 C1367 C 0.40670 0.29566 0.28348
 C1368 C 0.41770 0.28335 0.26996
 H1369 H 0.44275 0.33127 0.29415
 H1370 H 0.46274 0.30829 0.26873
 H1371 H 0.44745 0.25698 0.30394
 H1372 H 0.42785 0.28035 0.32862
 H1373 H 0.39069 0.30082 0.28024
 H1374 H 0.41081 0.27952 0.25497
 C1375 C 0.41903 0.80339 0.80365
 C1376 C 0.40515 0.79196 0.78769
 C1377 C 0.41606 0.77938 0.77434
 C1378 C 0.44021 0.77878 0.77834
 C1379 C 0.44630 0.80228 0.77689
 C1380 C 0.43556 0.81505 0.79034
 C1381 C 0.43150 0.78588 0.81474
 C1382 C 0.44226 0.77300 0.80157
 H1383 H 0.38837 0.79493 0.78583
 H1384 H 0.40816 0.77293 0.76080
 H1385 H 0.45785 0.80841 0.76593
 H1386 H 0.43826 0.83192 0.79100
 H1387 H 0.43208 0.78384 0.83156
 H1388 H 0.45174 0.75993 0.80722
 C1389 C -0.07956 0.30339 0.80109
 C1390 C -0.06082 0.31455 0.79061
 C1391 C -0.04992 0.30212 0.77693
 C1392 C -0.05826 0.27930 0.77539
 C1393 C -0.05914 0.27118 0.79799
 C1394 C -0.06997 0.28372 0.81137
 C1395 C -0.09272 0.29503 0.78285
 C1396 C -0.08170 0.28278 0.76928
 H1397 H -0.05692 0.33100 0.79314
 H1398 H -0.03692 0.30814 0.76764
 H1399 H -0.05144 0.25680 0.80313
 H1400 H -0.07109 0.28004 0.82787
 H1401 H -0.10880 0.30004 0.77971
 H1402 H -0.08865 0.27885 0.75435
 C1403 C -0.08148 0.80402 0.30346
 C1404 C -0.06409 0.81574 0.29139
 C1405 C -0.05297 0.80324 0.27797
 C1406 C -0.05965 0.77985 0.27828
 C1407 C -0.05884 0.77320 0.30135
 C1408 C -0.07002 0.78580 0.31445
 C1409 C -0.09481 0.79358 0.28646
 C1410 C -0.08356 0.78124 0.27317
 H1411 H -0.06124 0.83255 0.29271
 H1412 H -0.04089 0.80953 0.26769
 H1413 H -0.04989 0.75975 0.30695
 H1414 H -0.07027 0.78313 0.33118
 H1415 H -0.11139 0.79710 0.28393
 H1416 H -0.09089 0.77550 0.25900
 C1417 C 0.57898 0.69595 0.30114
 C1418 C 0.59201 0.71382 0.29156
 C1419 C 0.58076 0.72689 0.27901
 C1420 C 0.55722 0.72071 0.27653
 C1421 C 0.55772 0.69754 0.26962
 C1422 C 0.56890 0.68461 0.28245
 C1423 C 0.56053 0.70713 0.31210
 C1424 C 0.54941 0.72032 0.29939
 H1425 H 0.60835 0.71692 0.29562
 H1426 H 0.58773 0.74144 0.27346
 H1427 H 0.54961 0.69173 0.25586
 H1428 H 0.57006 0.66781 0.27965
 H1429 H 0.55696 0.70540 0.32860
 H1430 H 0.53658 0.73002 0.30522
 C1431 C 0.58061 0.19660 0.80279
 C1432 C 0.59472 0.20840 0.78727
 C1433 C 0.58400 0.22122 0.77398
 C1434 C 0.55978 0.22164 0.77766
 C1435 C 0.55389 0.19812 0.77562
 C1436 C 0.56443 0.18515 0.78902
 C1437 C 0.56795 0.21380 0.81404
 C1438 C 0.55732 0.22688 0.80098
 H1439 H 0.61150 0.20535 0.78551
 H1440 H 0.59206 0.22781 0.76056
 H1441 H 0.54269 0.19213 0.76427
 H1442 H 0.56198 0.16823 0.78927
 H1443 H 0.56717 0.21549 0.83088
 H1444 H 0.54772 0.23981 0.80674
 C1445 C 1.08193 0.69509 0.80127
 C1446 C 1.09388 0.71487 0.79434
 C1447 C 1.08235 0.72814 0.78223
 C1448 C 1.05972 0.72025 0.77739
 C1449 C 1.06282 0.69798 0.76853
 C1450 C 1.07425 0.68486 0.78091
 C1451 C 1.06183 0.70359 0.81177
 C1452 C 1.05044 0.71700 0.79948
 H1453 H 1.10945 0.71906 0.80005
 H1454 H 1.08818 0.74385 0.77901
 H1455 H 1.05631 0.69289 0.75369
 H1456 H 1.07718 0.66863 0.77654
 H1457 H 1.05739 0.70005 0.82776
 H1458 H 1.03652 0.72511 0.80523
 C1459 C 1.07997 0.19764 0.30251
 C1460 C 1.06185 0.20928 0.31358
 C1461 C 1.05106 0.22286 0.30093
 C1462 C 1.05880 0.22314 0.27805
 C1463 C 1.08254 0.22868 0.28056
 C1464 C 1.09345 0.21521 0.29303
 C1465 C 1.06956 0.18671 0.28380
 C1466 C 1.05876 0.19998 0.27105
 H1467 H 1.05827 0.20756 0.33007
 H1468 H 1.03849 0.23287 0.30680
 H1469 H 1.08989 0.24332 0.27585
 H1470 H 1.10975 0.21808 0.29742
 H1471 H 1.07028 0.16990 0.28089
 H1472 H 1.05057 0.19442 0.25724
 C1473 C 0.57960 0.30481 0.69713
 C1474 C 0.59434 0.29242 0.71152
 C1475 C 0.58426 0.27928 0.72497
 C1476 C 0.55978 0.27969 0.72308
 C1477 C 0.55433 0.30324 0.72564
 C1478 C 0.56437 0.31625 0.71192
 C1479 C 0.56611 0.28797 0.68633
 C1480 C 0.55608 0.27476 0.69980
 H1481 H 0.61143 0.29373 0.71104
 H1482 H 0.59363 0.26957 0.73525
 H1483 H 0.54337 0.30916 0.73728
 H1484 H 0.56175 0.33315 0.71175
 H1485 H 0.56480 0.28630 0.66952
 H1486 H 0.54647 0.26172 0.69437
 C1487 C 0.57957 0.80361 0.19753
 C1488 C 0.56547 0.81514 0.21340
 C1489 C 0.55470 0.80197 0.22646
 C1490 C 0.55834 0.77833 0.22215
 C1491 C 0.55379 0.77538 0.19872
 C1492 C 0.56465 0.78862 0.18595
 C1493 C 0.59358 0.78931 0.21086
 C1494 C 0.58273 0.77634 0.22386
 H1495 H 0.56444 0.83215 0.21466
 H1496 H 0.54477 0.80785 0.23899
 H1497 H 0.54276 0.76383 0.19270
 H1498 H 0.56269 0.78844 0.16912
 H1499 H 0.61066 0.79060 0.21139
 H1500 H 0.59131 0.76791 0.23584
 C1501 C 1.08045 0.30326 0.19614
 C1502 C 1.06146 0.29316 0.18509
 C1503 C 1.05035 0.27952 0.19741
 C1504 C 1.05874 0.27766 0.21999
 C1505 C 1.08204 0.27102 0.21641
 C1506 C 1.09327 0.28454 0.20430
 C1507 C 1.07113 0.31373 0.21569
 C1508 C 1.06004 0.30039 0.22811
 H1509 H 1.05753 0.29592 0.16883
 H1510 H 1.03716 0.27045 0.19144
 H1511 H 1.08867 0.25577 0.22023
 H1512 H 1.10927 0.28106 0.19926
 H1513 H 1.07266 0.33033 0.21937
 H1514 H 1.05246 0.30565 0.24240
 C1515 C 1.08152 0.80219 0.69779
 C1516 C 1.06173 0.79350 0.68693
 C1517 C 1.05040 0.77976 0.69894
 C1518 C 1.05944 0.77641 0.72109
 C1519 C 1.08228 0.76895 0.71643
 C1520 C 1.09373 0.78254 0.70461
 C1521 C 1.07331 0.81206 0.71814
 C1522 C 1.06197 0.79862 0.73024
 H1523 H 1.05745 0.79717 0.67093
 H1524 H 1.03670 0.77151 0.69294
 H1525 H 1.08833 0.75329 0.71952
 H1526 H 1.10943 0.77867 0.69898
 H1527 H 1.07566 0.82837 0.72257
 H1528 H 1.05499 0.80349 0.74496
 C1529 C 0.41896 0.69700 0.69834
 C1530 C 0.43086 0.68570 0.71595
 C1531 C 0.44174 0.69888 0.72870
 C1532 C 0.44021 0.72232 0.72272
 C1533 C 0.44666 0.72344 0.69949
 C1534 C 0.43588 0.70995 0.68687
 C1535 C 0.40521 0.71347 0.70930
 C1536 C 0.41616 0.72685 0.72178
 H1537 H 0.43093 0.66876 0.71817
 H1538 H 0.45087 0.69314 0.74187
 H1539 H 0.45843 0.73425 0.69341
 H1540 H 0.43870 0.70908 0.67017
 H1541 H 0.38851 0.71560 0.70613
 H1542 H 0.40842 0.74071 0.72800
 C1543 C 0.42035 0.19656 0.19641
 C1544 C 0.43164 0.21492 0.18554
 C1545 C 0.44220 0.22784 0.19878
 C1546 C 0.44109 0.22129 0.22189
 C1547 C 0.41710 0.21946 0.22654
 C1548 C 0.40643 0.20683 0.21309
 C1549 C 0.43770 0.18521 0.20886
 C1550 C 0.44826 0.19801 0.22240
 H1551 H 0.43157 0.21751 0.16879
 H1552 H 0.45087 0.24151 0.19327
 H1553 H 0.40925 0.22478 0.24059
 H1554 H 0.38991 0.20289 0.21539
 H1555 H 0.44099 0.16848 0.20761
 H1556 H 0.46033 0.19203 0.23287
 C1557 C -0.08023 0.69793 0.19826
 C1558 C -0.06867 0.68677 0.21618
 C1559 C -0.05794 0.70004 0.22896
 C1560 C -0.05923 0.72340 0.22268
 C1561 C -0.05241 0.72422 0.19953
 C1562 C -0.06308 0.71065 0.18690
 C1563 C -0.09407 0.71461 0.20882
 C1564 C -0.08323 0.72807 0.22132
 H1565 H -0.06865 0.66985 0.21856
 H1566 H -0.04902 0.69438 0.24230
 H1567 H -0.04051 0.73492 0.19351
 H1568 H -0.06005 0.70960 0.17025
 H1569 H -0.11070 0.71681 0.20535
 H1570 H -0.09097 0.74206 0.22723
 C1571 C -0.07887 0.19560 0.69626
 C1572 C -0.06734 0.21372 0.68521
 C1573 C -0.05685 0.22678 0.69835
 C1574 C -0.05819 0.22058 0.72153
 C1575 C -0.08224 0.21898 0.72600
 C1576 C -0.09287 0.20623 0.71265
 C1577 C -0.06172 0.18433 0.70903
 C1578 C -0.05117 0.19727 0.72246
 H1579 H -0.06718 0.21602 0.66842
 H1580 H -0.04803 0.24029 0.69269
 H1581 H -0.09022 0.22453 0.73990
 H1582 H -0.10943 0.20243 0.71487
 H1583 H -0.05857 0.16755 0.70809
 H1584 H -0.03923 0.19139 0.73312
 C1585 C 0.30109 0.42183 0.30410
 C1586 C 0.28464 0.43524 0.31565
 C1587 C 0.27151 0.44615 0.30275
 C1588 C 0.27607 0.44316 0.27930
 C1589 C 0.29972 0.44820 0.27658
 C1590 C 0.31270 0.43737 0.28971
 C1591 C 0.28829 0.40797 0.28925
 C1592 C 0.27546 0.41890 0.27616
 H1593 H 0.28349 0.43633 0.33251
 H1594 H 0.25908 0.45628 0.30870
 H1595 H 0.30578 0.45909 0.26495
 H1596 H 0.32973 0.43924 0.28939
 H1597 H 0.29026 0.39101 0.28809
 H1598 H 0.26776 0.41068 0.26350
 C1599 C 0.30301 -0.07969 0.80462
 C1600 C 0.31489 -0.06418 0.79033
 C1601 C 0.30210 -0.05327 0.77703
 C1602 C 0.27838 -0.05815 0.77959
 C1603 C 0.27769 -0.08238 0.77639
 C1604 C 0.29027 -0.09344 0.78960
 C1605 C 0.28654 -0.06607 0.81598
 C1606 C 0.27367 -0.05506 0.80295
 H1607 H 0.33191 -0.06231 0.79022
 H1608 H 0.30834 -0.04240 0.76548
 H1609 H 0.27047 -0.09042 0.76332
 H1610 H 0.29239 -0.11036 0.78814
 H1611 H 0.28525 -0.06477 0.83282
 H1612 H 0.26136 -0.04469 0.80877
 C1613 C 0.80339 0.42071 0.80450
 C1614 C 0.79245 0.40701 0.78806
 C1615 C 0.77985 0.41796 0.77476
 C1616 C 0.77871 0.44194 0.77930
 C1617 C 0.77251 0.44334 0.80248
 C1618 C 0.78542 0.43254 0.81561
 C1619 C 0.81492 0.43774 0.79175
 C1620 C 0.80214 0.44852 0.77835
 H1621 H 0.79574 0.39036 0.78589
 H1622 H 0.77373 0.41026 0.76096
 H1623 H 0.75918 0.45246 0.80813
 H1624 H 0.78314 0.43285 0.83240
 H1625 H 0.83176 0.44071 0.79272
 H1626 H 0.80823 0.46041 0.76775
 C1627 C 0.80315 -0.07925 0.30315
 C1628 C 0.81524 -0.06224 0.29087
 C1629 C 0.80299 -0.05124 0.27714
 C1630 C 0.77947 -0.05760 0.27733
 C1631 C 0.78058 -0.08157 0.27267
 C1632 C 0.79264 -0.09273 0.28628
 C1633 C 0.78493 -0.06730 0.31375
 C1634 C 0.77258 -0.05627 0.30030
 H1635 H 0.83208 -0.05948 0.29234
 H1636 H 0.80952 -0.03938 0.26678
 H1637 H 0.77488 -0.08908 0.25858
 H1638 H 0.79592 -0.10938 0.28406
 H1639 H 0.78213 -0.06702 0.33046
 H1640 H 0.75921 -0.04699 0.30561
 C1641 C 0.30093 0.57814 0.69525
 C1642 C 0.31250 0.56592 0.71246
 C1643 C 0.29956 0.55479 0.72524
 C1644 C 0.27601 0.55635 0.71973
 C1645 C 0.27132 0.58035 0.71912
 C1646 C 0.28452 0.59158 0.70665
 C1647 C 0.28784 0.56143 0.68368
 C1648 C 0.27454 0.55033 0.69639
 H1649 H 0.32952 0.56576 0.71434
 H1650 H 0.30558 0.54536 0.73807
 H1651 H 0.25721 0.58780 0.72522
 H1652 H 0.28202 0.60820 0.70346
 H1653 H 0.28844 0.55899 0.66692
 H1654 H 0.26361 0.53870 0.69032
 C1655 C 0.30236 1.08024 0.19753
 C1656 C 0.28217 1.07138 0.18760
 C1657 C 0.27004 1.06000 0.20096
 C1658 C 0.27893 1.05806 0.22320
 C1659 C 0.30163 1.04960 0.22046
 C1660 C 0.31369 1.06094 0.20679
 C1661 C 0.29477 1.09260 0.21664
 C1662 C 0.28290 1.08113 0.23017
 H1663 H 0.27773 1.07351 0.17141
 H1664 H 0.25534 1.05275 0.19606
 H1665 H 0.30791 1.03623 0.22902
 H1666 H 0.33004 1.05702 0.20353
 H1667 H 0.30004 1.10845 0.22030
 H1668 H 0.27960 1.08738 0.24556
 C1669 C 0.80188 0.57966 0.19747
 C1670 C 0.81390 0.56627 0.21351
 C1671 C 0.80123 0.55516 0.22661
 C1672 C 0.77749 0.55798 0.22252
 C1673 C 0.77392 0.58216 0.22318
 C1674 C 0.78683 0.59332 0.21036
 C1675 C 0.78741 0.56402 0.18608
 C1676 C 0.77442 0.55298 0.19912
 H1677 H 0.83098 0.56546 0.21444
 H1678 H 0.80754 0.54502 0.23876
 H1679 H 0.76076 0.59001 0.23069
 H1680 H 0.78508 0.61019 0.20815
 H1681 H 0.78697 0.56214 0.16925
 H1682 H 0.76275 0.54197 0.19328
 C1683 C 0.80104 1.07976 0.69594
 C1684 C 0.81275 1.06360 0.70959
 C1685 C 0.79990 1.05254 0.72270
 C1686 C 0.77624 1.05797 0.72059
 C1687 C 0.77606 1.08210 0.72454
 C1688 C 0.78874 1.09330 0.71153
 C1689 C 0.78419 1.06691 0.68437
 C1690 C 0.77125 1.05573 0.69719
 H1691 H 0.82975 1.06150 0.70945
 H1692 H 0.80606 1.04126 0.73389
 H1693 H 0.76899 1.08986 0.73789
 H1694 H 0.79120 1.11012 0.71340
 H1695 H 0.78267 1.06634 0.66751
 H1696 H 0.75865 1.04587 0.69120
 C1697 C 0.69798 0.57946 0.30447
 C1698 C 0.71419 0.56568 0.31590
 C1699 C 0.72717 0.55473 0.30292
 C1700 C 0.72277 0.55814 0.27952
 C1701 C 0.69905 0.55349 0.27665
 C1702 C 0.68618 0.56428 0.28992
 C1703 C 0.71100 0.59336 0.28978
 C1704 C 0.72372 0.58240 0.27660
 H1705 H 0.71534 0.56450 0.33277
 H1706 H 0.73948 0.54439 0.30876
 H1707 H 0.69287 0.54284 0.26491
 H1708 H 0.66915 0.56254 0.28965
 H1709 H 0.70908 0.61032 0.28863
 H1710 H 0.73142 0.59059 0.26386
 C1711 C 0.69612 1.07826 0.80266
 C1712 C 0.71085 1.06245 0.81361
 C1713 C 0.72391 1.05192 0.80030
 C1714 C 0.72066 1.05741 0.77703
 C1715 C 0.69693 1.05449 0.77297
 C1716 C 0.68416 1.06511 0.78639
 C1717 C 0.71097 1.09236 0.78994
 C1718 C 0.72393 1.08164 0.77680
 H1719 H 0.71137 1.06007 0.83039
 H1720 H 0.73572 1.04086 0.80586
 H1721 H 0.69068 1.04461 0.76062
 H1722 H 0.66709 1.06401 0.78553
 H1723 H 0.71248 1.10923 0.79236
 H1724 H 0.73684 1.08984 0.76926
 C1725 C 0.19802 0.57604 0.80515
 C1726 C 0.21265 0.59063 0.79286
 C1727 C 0.22583 0.58050 0.77949
 C1728 C 0.22333 0.55610 0.77943
 C1729 C 0.22627 0.55022 0.80264
 C1730 C 0.21289 0.56035 0.81598
 C1731 C 0.18651 0.56306 0.78849
 C1732 C 0.19963 0.55297 0.77499
 H1733 H 0.21305 0.60761 0.79492
 H1734 H 0.23712 0.58977 0.77085
 H1735 H 0.23802 0.53905 0.80811
 H1736 H 0.21311 0.55763 0.83271
 H1737 H 0.16947 0.56197 0.78724
 H1738 H 0.19367 0.54356 0.76214
 C1739 C 0.19634 1.07795 0.30383
 C1740 C 0.21473 1.06653 0.31455
 C1741 C 0.22763 1.05605 0.30116
 C1742 C 0.22101 1.05737 0.27809
 C1743 C 0.19770 1.05029 0.27761
 C1744 C 0.18492 1.06077 0.29128
 C1745 C 0.20663 1.09194 0.28723
 C1746 C 0.21920 1.08136 0.27363
 H1747 H 0.21734 1.06644 0.33129
 H1748 H 0.24130 1.04727 0.30655
 H1749 H 0.19166 1.03837 0.26705
 H1750 H 0.16814 1.05759 0.29254
 H1751 H 0.20269 1.10845 0.28504
 H1752 H 0.22440 1.08929 0.25958
 C1753 C 0.69829 0.42058 0.69797
 C1754 C 0.71104 0.43779 0.68673
 C1755 C 0.72429 0.44871 0.69954
 C1756 C 0.72316 0.44203 0.72271
 C1757 C 0.69964 0.44312 0.72856
 C1758 C 0.68669 0.43216 0.71564
 C1759 C 0.71496 0.40705 0.70890
 C1760 C 0.72810 0.41810 0.72155
 H1761 H 0.71026 0.44069 0.67004
 H1762 H 0.73496 0.46069 0.69364
 H1763 H 0.69364 0.45212 0.74170
 H1764 H 0.66970 0.43210 0.71772
 H1765 H 0.71742 0.39047 0.70555
 H1766 H 0.74211 0.41057 0.72773
 C1767 C 0.69859 -0.07871 0.19645
 C1768 C 0.71149 -0.06183 0.18488
 C1769 C 0.72501 -0.05095 0.19746
 C1770 C 0.72397 -0.05735 0.22072
 C1771 C 0.70051 -0.05586 0.22674
 C1772 C 0.68731 -0.06678 0.21406
 C1773 C 0.71517 -0.09235 0.20739
 C1774 C 0.72858 -0.08134 0.21979
 H1775 H 0.71058 -0.05909 0.16818
 H1776 H 0.73579 -0.03919 0.19134
 H1777 H 0.69474 -0.04666 0.23984
 H1778 H 0.67033 -0.06665 0.21627
 H1779 H 0.71740 -0.10900 0.20418
 H1780 H 0.74258 -0.08898 0.22586
 C1781 C 0.19785 0.42246 0.19609
 C1782 C 0.18570 0.43525 0.21250
 C1783 C 0.19827 0.44619 0.22579
 C1784 C 0.22203 0.44382 0.22151
 C1785 C 0.22596 0.41969 0.22158
 C1786 C 0.21316 0.40870 0.20857
 C1787 C 0.21205 0.43859 0.18498
 C1788 C 0.22494 0.44946 0.19820
 H1789 H 0.16862 0.43581 0.21354
 H1790 H 0.19185 0.45589 0.23823
 H1791 H 0.23927 0.41184 0.22882
 H1792 H 0.21516 0.39192 0.20595
 H1793 H 0.21239 0.44088 0.16819
 H1794 H 0.23646 0.46076 0.19255
 C1795 C 0.19811 -0.07891 0.69810
 C1796 C 0.18622 -0.06593 0.71454
 C1797 C 0.19904 -0.05515 0.72774
 C1798 C 0.22276 -0.05785 0.72331
 C1799 C 0.22631 -0.08204 0.72348
 C1800 C 0.21328 -0.09288 0.71055
 C1801 C 0.21249 -0.06301 0.68690
 C1802 C 0.22562 -0.05233 0.69998
 H1803 H 0.16916 -0.06508 0.71566
 H1804 H 0.19285 -0.04532 0.74019
 H1805 H 0.23944 -0.09010 0.73079
 H1806 H 0.21492 -0.10971 0.70804
 H1807 H 0.21277 -0.06074 0.67010
 H1808 H 0.23727 -0.04122 0.69422
 C1809 C 0.30173 0.30475 0.42078
 C1810 C 0.28493 0.29412 0.40726
 C1811 C 0.27141 0.28165 0.41813
 C1812 C 0.27613 0.28033 0.44187
 C1813 C 0.29949 0.27388 0.44308
 C1814 C 0.31281 0.28666 0.43234
 C1815 C 0.28910 0.31638 0.43773
 C1816 C 0.27548 0.30372 0.44848
 H1817 H 0.28268 0.29761 0.39080
 H1818 H 0.25732 0.27574 0.41057
 H1819 H 0.30511 0.26042 0.45196
 H1820 H 0.32976 0.28417 0.43228
 H1821 H 0.29030 0.33317 0.44066
 H1822 H 0.26489 0.30986 0.46034
 C1823 C 0.30091 0.80467 -0.07868
 C1824 C 0.28465 0.79370 -0.09252
 C1825 C 0.27099 0.78115 -0.08194
 C1826 C 0.27498 0.78012 -0.05798
 C1827 C 0.29843 0.77401 -0.05618
 C1828 C 0.31188 0.78685 -0.06668
 C1829 C 0.28766 0.81631 -0.06218
 C1830 C 0.27391 0.80357 -0.05163
 H1831 H 0.28277 0.79706 -0.10905
 H1832 H 0.25725 0.77539 -0.09011
 H1833 H 0.30401 0.76065 -0.04713
 H1834 H 0.32884 0.78450 -0.06638
 H1835 H 0.28860 0.83313 -0.05938
 H1836 H 0.26299 0.80967 -0.04005
 C1837 C 0.80452 0.30270 -0.07907
 C1838 C 0.78955 0.29014 -0.09308
 C1839 C 0.77646 0.27698 -0.08249
 C1840 C 0.77976 0.27704 -0.05847
 C1841 C 0.80346 0.27264 -0.05565
 C1842 C 0.81633 0.28609 -0.06615
 C1843 C 0.78993 0.31386 -0.06341
 C1844 C 0.77675 0.30053 -0.05296
 H1845 H 0.78808 0.29275 -0.10978
 H1846 H 0.76347 0.26960 -0.09065
 H1847 H 0.80961 0.26002 -0.04595
 H1848 H 0.83340 0.28501 -0.06523
 H1849 H 0.78954 0.33079 -0.06113
 H1850 H 0.76496 0.30623 -0.04202
 C1851 C 0.80080 0.80453 0.42135
 C1852 C 0.81237 0.78970 0.43651
 C1853 C 0.79930 0.77647 0.44719
 C1854 C 0.77563 0.77964 0.44245
 C1855 C 0.77144 0.80328 0.44573
 C1856 C 0.78461 0.81622 0.43492
 C1857 C 0.78772 0.78983 0.40756
 C1858 C 0.77481 0.77668 0.41839
 H1859 H 0.82939 0.78921 0.43829
 H1860 H 0.80530 0.76455 0.45781
 H1861 H 0.75915 0.80933 0.45591
 H1862 H 0.78360 0.83324 0.43607
 H1863 H 0.78979 0.78858 0.39077
 H1864 H 0.76710 0.76387 0.41029
 C1865 C 0.69843 0.30447 0.57966
 C1866 C 0.68671 0.29237 0.56244
 C1867 C 0.69921 0.27882 0.55147
 C1868 C 0.72263 0.27903 0.55807
 C1869 C 0.72932 0.30231 0.55729
 C1870 C 0.71670 0.31556 0.56837
 C1871 C 0.70890 0.28726 0.59285
 C1872 C 0.72125 0.27384 0.58172
 H1873 H 0.66988 0.29380 0.55957
 H1874 H 0.69289 0.26853 0.53949
 H1875 H 0.74286 0.30792 0.54849
 H1876 H 0.71945 0.33242 0.56877
 H1877 H 0.70548 0.28474 0.60928
 H1878 H 0.72704 0.25956 0.58902
 C1879 C 0.69669 0.80362 1.07856
 C1880 C 0.71378 0.79350 1.09216
 C1881 C 0.72729 0.78084 1.08151
 C1882 C 0.72227 0.77876 1.05787
 C1883 C 0.69893 0.77215 1.05719
 C1884 C 0.68562 0.78512 1.06774
 C1885 C 0.70900 0.81481 1.06108
 C1886 C 0.72260 0.80195 1.05054
 H1887 H 0.71631 0.79758 1.10843
 H1888 H 0.74166 0.77567 1.08908
 H1889 H 0.69331 0.75842 1.04877
 H1890 H 0.66871 0.78250 1.06803
 H1891 H 0.70766 0.83151 1.05772
 H1892 H 0.73303 0.80785 1.03842
 C1893 C 0.19684 0.30535 1.07708
 C1894 C 0.21187 0.29322 1.09139
 C1895 C 0.22521 0.28002 1.08117
 C1896 C 0.22207 0.27952 1.05710
 C1897 C 0.19840 0.27487 1.05430
 C1898 C 0.18531 0.28838 1.06445
 C1899 C 0.21140 0.31634 1.06124
 C1900 C 0.22480 0.30294 1.05111
 H1901 H 0.21333 0.29628 1.10801
 H1902 H 0.23837 0.27339 1.08968
 H1903 H 0.19242 0.26202 1.04484
 H1904 H 0.16827 0.28712 1.06340
 H1905 H 0.21160 0.33323 1.05865
 H1906 H 0.23657 0.30853 1.04010
 C1907 C 0.19726 0.80361 0.57902
 C1908 C 0.21530 0.81461 0.56730
 C1909 C 0.22806 0.80125 0.55657
 C1910 C 0.22165 0.77793 0.55798
 C1911 C 0.22048 0.77334 0.58177
 C1912 C 0.20802 0.78690 0.59261
 C1913 C 0.18555 0.79091 0.56222
 C1914 C 0.19819 0.77725 0.55151
 H1915 H 0.21777 0.83151 0.56719
 H1916 H 0.24147 0.80681 0.54756
 H1917 H 0.22642 0.75931 0.58941
 H1918 H 0.20463 0.78474 0.60910
 H1919 H 0.16871 0.79206 0.55941
 H1920 H 0.19197 0.76660 0.53978
 C1921 C 0.30300 0.69615 0.57863
 C1922 C 0.29021 0.68482 0.56165
 C1923 C 0.27673 0.69772 0.55103
 C1924 C 0.27767 0.72106 0.55778
 C1925 C 0.27296 0.71967 0.58153
 C1926 C 0.28634 0.70693 0.59228
 C1927 C 0.31429 0.71416 0.56716
 C1928 C 0.30111 0.72719 0.55654
 H1929 H 0.29117 0.66802 0.55864
 H1930 H 0.26603 0.69179 0.53919
 H1931 H 0.25897 0.72576 0.58917
 H1932 H 0.28408 0.70341 0.60873
 H1933 H 0.33126 0.71643 0.56717
 H1934 H 0.30689 0.74063 0.54775
 C1935 C 0.30122 0.19471 1.07856
 C1936 C 0.28731 0.18301 1.06270
 C1937 C 0.27356 0.19581 1.05223
 C1938 C 0.27527 0.21937 1.05799
 C1939 C 0.27190 0.21903 1.08207
 C1940 C 0.28555 0.20638 1.09256
 C1941 C 0.31224 0.21200 1.06588
 C1942 C 0.29880 0.22490 1.05543
 H1943 H 0.28786 0.16612 1.06021
 H1944 H 0.26226 0.18970 1.04105
 H1945 H 0.25867 0.22551 1.09057
 H1946 H 0.28410 0.20354 1.10923
 H1947 H 0.32924 0.21400 1.06517
 H1948 H 0.30443 0.23798 1.04602
 C1949 C 0.80313 0.69635 1.07922
 C1950 C 0.78435 0.70434 1.09205
 C1951 C 0.77071 0.71662 1.08111
 C1952 C 0.77728 0.72050 1.05807
 C1953 C 0.80001 0.72882 1.05944
 C1954 C 0.81347 0.71624 1.07021
 C1955 C 0.79303 0.68537 1.06034
 C1956 C 0.77927 0.69783 1.04952
 H1957 H 0.78096 0.69911 1.10785
 H1958 H 0.75545 0.72034 1.08780
 H1959 H 0.80519 0.74337 1.05212
 H1960 H 0.83008 0.72007 1.07168
 H1961 H 0.79590 0.66903 1.05623
 H1962 H 0.77022 0.69193 1.03639
 C1963 C 0.80267 0.19635 0.57870
 C1964 C 0.78973 0.18499 0.56185
 C1965 C 0.77642 0.19798 0.55108
 C1966 C 0.77769 0.22138 0.55760
 C1967 C 0.77295 0.22028 0.58136
 C1968 C 0.78616 0.20748 0.59224
 C1969 C 0.81419 0.21408 0.56703
 C1970 C 0.80119 0.22716 0.55627
 H1971 H 0.79047 0.16815 0.55901
 H1972 H 0.76565 0.19207 0.53930
 H1973 H 0.75899 0.22655 0.58890
 H1974 H 0.78380 0.20409 0.60870
 H1975 H 0.83119 0.21612 0.56703
 H1976 H 0.80715 0.24043 0.54732
 C1977 C 0.69454 0.69818 0.42186
 C1978 C 0.70906 0.68681 0.43745
 C1979 C 0.72223 0.69996 0.44805
 C1980 C 0.71930 0.72352 0.44278
 C1981 C 0.72267 0.72388 0.41877
 C1982 C 0.70959 0.71089 0.40802
 C1983 C 0.68271 0.71466 0.43494
 C1984 C 0.69559 0.72792 0.44565
 H1985 H 0.70940 0.66985 0.43957
 H1986 H 0.73396 0.69408 0.45893
 H1987 H 0.73567 0.73140 0.41070
 H1988 H 0.71107 0.70855 0.39129
 H1989 H 0.66564 0.71578 0.43582
 H1990 H 0.68945 0.74041 0.45550
 C1991 C 0.69892 0.19517 -0.07966
 C1992 C 0.68737 0.20940 -0.06396
 C1993 C 0.70038 0.22272 -0.05336
 C1994 C 0.72401 0.22019 -0.05875
 C1995 C 0.72881 0.19658 -0.05602
 C1996 C 0.71567 0.18357 -0.06672
 C1997 C 0.71134 0.21045 -0.09350
 C1998 C 0.72420 0.22366 -0.08275
 H1999 H 0.67039 0.20947 -0.06177
 H2000 H 0.69437 0.23430 -0.04240
 H2001 H 0.74148 0.19061 -0.04627
 H2002 H 0.71707 0.16655 -0.06588
 H2003 H 0.70886 0.21199 -0.11020
 H2004 H 0.73140 0.23683 -0.09081
 C2005 C 0.19669 0.69458 -0.07778
 C2006 C 0.21236 0.70623 -0.09183
 C2007 C 0.22562 0.71930 -0.08140
 C2008 C 0.22177 0.72018 -0.05744
 C2009 C 0.19811 0.72530 -0.05532
 C2010 C 0.18510 0.71193 -0.06567
 C2011 C 0.21059 0.68352 -0.06142
 C2012 C 0.22392 0.69679 -0.05110
 H2013 H 0.21430 0.70290 -0.10835
 H2014 H 0.23921 0.72553 -0.08957
 H2015 H 0.19209 0.73836 -0.04613
 H2016 H 0.16806 0.71351 -0.06507
 H2017 H 0.21044 0.66665 -0.05864
 H2018 H 0.23529 0.69110 -0.03974
 C2019 C 0.19575 0.19813 0.42051
 C2020 C 0.20658 0.21484 0.40699
 C2021 C 0.21888 0.22843 0.41791
 C2022 C 0.21985 0.22387 0.44171
 C2023 C 0.19631 0.22452 0.44800
 C2024 C 0.18382 0.21083 0.43721
 C2025 C 0.21371 0.18718 0.43238
 C2026 C 0.22631 0.20056 0.44320
 H2027 H 0.20332 0.21701 0.39048
 H2028 H 0.22482 0.24249 0.41032
 H2029 H 0.18995 0.23516 0.45969
 H2030 H 0.16696 0.20961 0.43993
 H2031 H 0.21626 0.17028 0.43246
 H2032 H 0.23967 0.19503 0.45228
 C2033 C 0.30367 0.41941 0.69619
 C2034 C 0.31488 0.43556 0.71017
 C2035 C 0.30167 0.44594 0.72350
 C2036 C 0.27818 0.43985 0.72130
 C2037 C 0.27310 0.44238 0.69792
 C2038 C 0.28643 0.43199 0.68489
 C2039 C 0.29182 0.40514 0.71147
 C2040 C 0.27880 0.41560 0.72474
 H2041 H 0.33181 0.43816 0.71005
 H2042 H 0.30745 0.45718 0.73490
 H2043 H 0.26012 0.45189 0.69210
 H2044 H 0.28490 0.43294 0.66804
 H2045 H 0.29497 0.38840 0.71310
 H2046 H 0.27242 0.40717 0.73800
 C2047 C 0.30100 0.92087 0.19426
 C2048 C 0.31232 0.93865 0.20601
 C2049 C 0.29959 0.94944 0.21945
 C2050 C 0.27637 0.94203 0.21952
 C2051 C 0.26942 0.94248 0.19653
 C2052 C 0.28228 0.93164 0.18336
 C2053 C 0.29109 0.90735 0.21150
 C2054 C 0.27851 0.91828 0.22482
 H2055 H 0.32903 0.94202 0.20443
 H2056 H 0.30562 0.96180 0.22950
 H2057 H 0.25554 0.95086 0.19106
 H2058 H 0.27943 0.93104 0.16668
 H2059 H 0.29496 0.89087 0.21401
 H2060 H 0.27282 0.91084 0.23899
 C2061 C 0.80002 0.42001 0.19589
 C2062 C 0.81147 0.43551 0.21038
 C2063 C 0.79831 0.44633 0.22337
 C2064 C 0.77467 0.44132 0.22033
 C2065 C 0.77046 0.44436 0.19686
 C2066 C 0.78374 0.43346 0.18416
 C2067 C 0.78703 0.40613 0.21064
 C2068 C 0.77402 0.41709 0.22355
 H2069 H 0.82848 0.43740 0.21083
 H2070 H 0.80422 0.45718 0.23506
 H2071 H 0.75810 0.45449 0.19076
 H2072 H 0.78277 0.43450 0.16727
 H2073 H 0.78919 0.38922 0.21204
 H2074 H 0.76629 0.40898 0.23633
 C2075 C 0.80306 0.92004 0.69670
 C2076 C 0.81472 0.93336 0.71299
 C2077 C 0.80171 0.94419 0.72602
 C2078 C 0.77804 0.94119 0.72160
 C2079 C 0.77521 0.94638 0.69821
 C2080 C 0.78852 0.93565 0.68528
 C2081 C 0.78802 0.90609 0.70929
 C2082 C 0.77480 0.91695 0.72205
 H2083 H 0.83177 0.93436 0.71413
 H2084 H 0.80773 0.95424 0.73835
 H2085 H 0.76344 0.95728 0.69230
 H2086 H 0.78826 0.93769 0.66845
 H2087 H 0.78656 0.88921 0.70696
 H2088 H 0.76169 0.90881 0.72932
 C2089 C 0.69742 0.58017 0.69915
 C2090 C 0.71368 0.59374 0.71057
 C2091 C 0.72679 0.58263 0.72324
 C2092 C 0.72222 0.55863 0.72391
 C2093 C 0.69863 0.55708 0.72936
 C2094 C 0.68572 0.56811 0.71642
 C2095 C 0.71064 0.56338 0.68781
 C2096 C 0.72385 0.55242 0.70065
 H2097 H 0.71592 0.61042 0.70754
 H2098 H 0.74058 0.59024 0.72976
 H2099 H 0.69257 0.54780 0.74229
 H2100 H 0.66870 0.56800 0.71825
 H2101 H 0.71016 0.56077 0.67108
 H2102 H 0.73481 0.54070 0.69472
 C2103 C 0.69817 0.08054 0.19699
 C2104 C 0.71442 0.09422 0.20829
 C2105 C 0.72775 0.08321 0.22082
 C2106 C 0.72339 0.05916 0.22148
 C2107 C 0.69986 0.05742 0.22715
 C2108 C 0.68673 0.06836 0.21434
 C2109 C 0.71142 0.06387 0.18551
 C2110 C 0.72486 0.05301 0.19820
 H2111 H 0.71648 0.11093 0.20527
 H2112 H 0.74153 0.09093 0.22724
 H2113 H 0.69400 0.04809 0.24014
 H2114 H 0.66973 0.06815 0.21635
 H2115 H 0.71079 0.06127 0.16878
 H2116 H 0.73585 0.04140 0.19215
 C2117 C 0.19529 0.58094 0.19848
 C2118 C 0.18390 0.56436 0.21187
 C2119 C 0.19689 0.55387 0.22535
 C2120 C 0.22036 0.56031 0.22384
 C2121 C 0.22613 0.55835 0.20058
 C2122 C 0.21302 0.56880 0.18742
 C2123 C 0.20650 0.59505 0.21432
 C2124 C 0.21934 0.58447 0.22771
 H2125 H 0.16703 0.56154 0.21129
 H2126 H 0.19095 0.54232 0.23639
 H2127 H 0.23941 0.54917 0.19491
 H2128 H 0.21506 0.56826 0.17061
 H2129 H 0.20307 0.61171 0.21616
 H2130 H 0.22535 0.59269 0.24123
 C2131 C 0.19837 0.07928 0.69715
 C2132 C 0.18688 0.06395 0.71184
 C2133 C 0.20002 0.05342 0.72509
 C2134 C 0.22367 0.05851 0.72208
 C2135 C 0.22807 0.05516 0.69868
 C2136 C 0.21480 0.06574 0.68573
 C2137 C 0.21118 0.09346 0.71172
 C2138 C 0.22416 0.08279 0.72488
 H2139 H 0.16988 0.06193 0.71220
 H2140 H 0.19411 0.04265 0.73690
 H2141 H 0.24057 0.04507 0.69280
 H2142 H 0.21589 0.06447 0.66887
 H2143 H 0.20889 0.11038 0.71282
 H2144 H 0.23172 0.09117 0.73753
 C2145 C 0.30478 0.57961 0.30313
 C2146 C 0.31614 0.56296 0.28980
 C2147 C 0.30321 0.55276 0.27610
 C2148 C 0.27982 0.55957 0.27728
 C2149 C 0.27368 0.55753 0.30045
 C2150 C 0.28674 0.56767 0.31386
 C2151 C 0.29399 0.59401 0.28721
 C2152 C 0.28123 0.58374 0.27357
 H2153 H 0.33297 0.55989 0.29060
 H2154 H 0.30915 0.54119 0.26509
 H2155 H 0.26021 0.54848 0.30588
 H2156 H 0.28448 0.56697 0.33065
 H2157 H 0.29761 0.61065 0.28555
 H2158 H 0.27550 0.59219 0.26004
 C2159 C 0.30408 0.08031 0.80306
 C2160 C 0.28840 0.09393 0.79089
 C2161 C 0.27541 0.08282 0.77816
 C2162 C 0.27953 0.05871 0.77819
 C2163 C 0.30321 0.05655 0.77338
 C2164 C 0.31599 0.06762 0.78639
 C2165 C 0.29026 0.06406 0.81446
 C2166 C 0.27718 0.05307 0.80154
 H2167 H 0.28638 0.11072 0.79348
 H2168 H 0.26194 0.09059 0.77114
 H2169 H 0.30942 0.04690 0.76081
 H2170 H 0.33305 0.06722 0.78497
 H2171 H 0.29030 0.06178 0.83125
 H2172 H 0.26588 0.04169 0.80746
 C2173 C 0.80233 0.57963 0.80555
 C2174 C 0.81391 0.56275 0.79271
 C2175 C 0.80116 0.55197 0.77935
 C2176 C 0.77768 0.55839 0.78045
 C2177 C 0.77164 0.55685 0.80368
 C2178 C 0.78452 0.56774 0.81675
 C2179 C 0.79123 0.59335 0.78922
 C2180 C 0.77862 0.58240 0.77597
 H2181 H 0.83079 0.55997 0.79353
 H2182 H 0.80731 0.54026 0.76860
 H2183 H 0.75832 0.54776 0.80938
 H2184 H 0.78224 0.56770 0.83354
 H2185 H 0.79440 0.61003 0.78714
 H2186 H 0.77229 0.59014 0.76225
 C2187 C 0.80314 0.08105 0.30292
 C2188 C 0.79258 0.09433 0.28592
 C2189 C 0.78035 0.08305 0.27261
 C2190 C 0.77916 0.05916 0.27769
 C2191 C 0.80265 0.05266 0.27742
 C2192 C 0.81505 0.06380 0.29086
 C2193 C 0.78496 0.06947 0.31390
 C2194 C 0.77247 0.05823 0.30076
 H2195 H 0.79589 0.11093 0.28344
 H2196 H 0.77450 0.09037 0.25846
 H2197 H 0.80908 0.04068 0.26714
 H2198 H 0.83190 0.06106 0.29221
 H2199 H 0.78226 0.06968 0.33062
 H2200 H 0.75909 0.04915 0.30633
 C2201 C 0.69395 0.42100 0.30185
 C2202 C 0.68200 0.43456 0.28592
 C2203 C 0.69481 0.44520 0.27251
 C2204 C 0.71857 0.44177 0.27626
 C2205 C 0.72217 0.44679 0.29957
 C2206 C 0.70906 0.43631 0.31285
 C2207 C 0.70837 0.40682 0.28878
 C2208 C 0.72138 0.41749 0.27564
 H2209 H 0.66494 0.43574 0.28521
 H2210 H 0.68860 0.45532 0.26030
 H2211 H 0.73427 0.45747 0.30517
 H2212 H 0.70982 0.43833 0.32965
 H2213 H 0.70953 0.38989 0.29095
 H2214 H 0.73400 0.40912 0.26781
 C2215 C 0.69749 0.91966 0.80298
 C2216 C 0.71007 0.90578 0.78791
 C2217 C 0.72274 0.91671 0.77466
 C2218 C 0.72224 0.94094 0.77791
 C2219 C 0.69854 0.94604 0.77546
 C2220 C 0.68569 0.93524 0.78879
 C2221 C 0.71408 0.93303 0.81431
 C2222 C 0.72704 0.94391 0.80127
 H2223 H 0.70778 0.88889 0.78651
 H2224 H 0.72995 0.90861 0.76160
 H2225 H 0.69235 0.95695 0.76392
 H2226 H 0.66868 0.93722 0.78879
 H2227 H 0.71544 0.93406 0.83116
 H2228 H 0.73953 0.95402 0.80706
 C2229 C 0.19449 0.41912 0.80099
 C2230 C 0.21246 0.43131 0.81149
 C2231 C 0.22516 0.44174 0.79791
 C2232 C 0.21878 0.43968 0.77481
 C2233 C 0.21773 0.41548 0.77112
 C2234 C 0.20531 0.40496 0.78491
 C2235 C 0.18269 0.43563 0.78785
 C2236 C 0.19528 0.44609 0.77396
 H2237 H 0.21498 0.43188 0.82824
 H2238 H 0.23858 0.45093 0.80316
 H2239 H 0.22336 0.40711 0.75751
 H2240 H 0.20192 0.38828 0.78326
 H2241 H 0.16583 0.43846 0.78893
 H2242 H 0.18902 0.45763 0.76308
 C2243 C 0.19736 0.91949 0.30258
 C2244 C 0.21303 0.93406 0.31385
 C2245 C 0.22610 0.94483 0.30071
 C2246 C 0.22197 0.94078 0.27731
 C2247 C 0.22423 0.91645 0.27577
 C2248 C 0.21122 0.90555 0.28874
 C2249 C 0.18545 0.93392 0.28740
 C2250 C 0.19822 0.94482 0.27418
 H2251 H 0.21411 0.93551 0.33070
 H2252 H 0.23846 0.95512 0.30645
 H2253 H 0.23661 0.90804 0.26763
 H2254 H 0.21212 0.88854 0.29034
 H2255 H 0.16840 0.93553 0.28707
 H2256 H 0.19198 0.95557 0.26252
 C2257 C 0.42270 0.30186 0.69501
 C2258 C 0.43895 0.28789 0.68374
 C2259 C 0.44934 0.27428 0.69666
 C2260 C 0.44316 0.27622 0.71990
 C2261 C 0.44561 0.29975 0.72522
 C2262 C 0.43521 0.31306 0.71219
 C2263 C 0.40840 0.28632 0.70653
 C2264 C 0.41886 0.27280 0.71928
 H2265 H 0.44166 0.28825 0.66701
 H2266 H 0.46069 0.26289 0.69082
 H2267 H 0.45498 0.30547 0.73821
 H2268 H 0.43595 0.33004 0.71397
 H2269 H 0.39161 0.28480 0.70348
 H2270 H 0.41028 0.25952 0.72557
 C2271 C 0.42053 0.80399 0.19615
 C2272 C 0.40697 0.78661 0.20586
 C2273 C 0.41781 0.77326 0.21850
 C2274 C 0.44156 0.77872 0.22095
 C2275 C 0.44932 0.77867 0.19807
 C2276 C 0.43860 0.79212 0.18524
 C2277 C 0.43100 0.81512 0.21471
 C2278 C 0.44174 0.80197 0.22764
 H2279 H 0.39065 0.78378 0.20153
 H2280 H 0.41039 0.75874 0.22347
 H2281 H 0.46185 0.76853 0.19233
 H2282 H 0.44223 0.79363 0.16874
 H2283 H 0.43036 0.83198 0.21737
 H2284 H 0.44998 0.80767 0.24137
 C2285 C 0.92055 0.30426 0.19735
 C2286 C 0.90762 0.28618 0.20668
 C2287 C 0.91896 0.27296 0.21899
 C2288 C 0.94248 0.27919 0.22151
 C2289 C 0.95022 0.27996 0.19864
 C2290 C 0.93901 0.29332 0.18616
 C2291 C 0.93063 0.31534 0.21617
 C2292 C 0.94189 0.30226 0.22878
 H2293 H 0.89130 0.28304 0.20257
 H2294 H 0.91207 0.25825 0.22424
 H2295 H 0.96307 0.27041 0.19264
 H2296 H 0.94254 0.29534 0.16969
 H2297 H 0.92939 0.33209 0.21924
 H2298 H 0.94999 0.30789 0.24262
 C2299 C 0.92031 0.80081 0.69801
 C2300 C 0.90879 0.78067 0.70457
 C2301 C 0.92069 0.76733 0.71623
 C2302 C 0.94322 0.77549 0.72106
 C2303 C 0.95223 0.77943 0.69897
 C2304 C 0.94045 0.79292 0.68710
 C2305 C 0.92806 0.81069 0.71851
 C2306 C 0.93987 0.79750 0.73046
 H2307 H 0.89326 0.77634 0.69888
 H2308 H 0.91521 0.75143 0.71914
 H2309 H 0.96621 0.77168 0.69288
 H2310 H 0.94465 0.79691 0.67114
 H2311 H 0.92510 0.82684 0.72316
 H2312 H 0.94663 0.80242 0.74524
 C2313 C 0.57968 0.29968 0.30457
 C2314 C 0.56150 0.31130 0.29360
 C2315 C 0.55011 0.29892 0.28038
 C2316 C 0.55735 0.27571 0.27976
 C2317 C 0.58096 0.27773 0.27366
 C2318 C 0.59249 0.28994 0.28674
 C2319 C 0.56916 0.28092 0.31562
 C2320 C 0.55763 0.26844 0.30267
 H2321 H 0.55836 0.32801 0.29545
 H2322 H 0.53749 0.30525 0.27079
 H2323 H 0.58782 0.27222 0.25915
 H2324 H 0.60893 0.29365 0.28369
 H2325 H 0.57032 0.27776 0.33221
 H2326 H 0.54922 0.25465 0.30827
 C2327 C 0.57857 0.80265 0.80343
 C2328 C 0.59217 0.79146 0.78708
 C2329 C 0.58106 0.77920 0.77369
 C2330 C 0.55698 0.77858 0.77809
 C2331 C 0.55524 0.77243 0.80128
 C2332 C 0.56630 0.78501 0.81447
 C2333 C 0.56190 0.81459 0.79061
 C2334 C 0.55091 0.80212 0.77712
 H2335 H 0.60891 0.79447 0.78498
 H2336 H 0.58873 0.77312 0.75982
 H2337 H 0.54572 0.75937 0.80687
 H2338 H 0.56593 0.78275 0.83126
 H2339 H 0.55940 0.83148 0.79157
 H2340 H 0.53929 0.80851 0.76640
 C2341 C 0.07992 0.30040 0.80337
 C2342 C 0.06183 0.31200 0.79225
 C2343 C 0.05066 0.29963 0.77882
 C2344 C 0.05802 0.27644 0.77817
 C2345 C 0.08169 0.27862 0.77234
 C2346 C 0.09301 0.29084 0.78563
 C2347 C 0.06935 0.28151 0.81416
 C2348 C 0.05808 0.26904 0.80102
 H2349 H 0.05857 0.32867 0.79417
 H2350 H 0.03812 0.30594 0.76912
 H2351 H 0.08874 0.27323 0.75787
 H2352 H 0.10945 0.29472 0.78277
 H2353 H 0.07021 0.27829 0.83077
 H2354 H 0.04965 0.25521 0.80647
 C2355 C 0.07853 0.80357 0.30424
 C2356 C 0.06171 0.81520 0.29134
 C2357 C 0.05085 0.80245 0.27801
 C2358 C 0.05719 0.77898 0.27920
 C2359 C 0.08126 0.77981 0.27475
 C2360 C 0.09225 0.79238 0.28799
 C2361 C 0.06646 0.78590 0.31546
 C2362 C 0.05556 0.77303 0.30242
 H2363 H 0.05899 0.83205 0.29215
 H2364 H 0.03910 0.80858 0.26728
 H2365 H 0.08900 0.77349 0.26103
 H2366 H 0.10897 0.79551 0.28588
 H2367 H 0.06620 0.78377 0.33227
 H2368 H 0.04629 0.75987 0.30816
 C2369 C 0.57858 0.69780 0.69756
 C2370 C 0.56699 0.68644 0.71536
 C2371 C 0.55589 0.69950 0.72808
 C2372 C 0.55690 0.72289 0.72190
 C2373 C 0.58083 0.72790 0.72069
 C2374 C 0.59202 0.71464 0.70826
 C2375 C 0.56133 0.71030 0.68609
 C2376 C 0.55027 0.72367 0.69870
 H2377 H 0.56716 0.66951 0.71767
 H2378 H 0.54687 0.69368 0.74130
 H2379 H 0.58825 0.74203 0.72668
 H2380 H 0.60863 0.71713 0.70490
 H2381 H 0.55848 0.70924 0.66942
 H2382 H 0.53823 0.73418 0.69264
 C2383 C 0.57924 0.19796 0.19637
 C2384 C 0.56438 0.21341 0.18514
 C2385 C 0.55351 0.22634 0.19835
 C2386 C 0.55782 0.22225 0.22173
 C2387 C 0.55409 0.19852 0.22496
 C2388 C 0.56506 0.18591 0.21169
 C2389 C 0.59315 0.21197 0.21005
 C2390 C 0.58216 0.22483 0.22306
 H2391 H 0.56291 0.21453 0.16830
 H2392 H 0.54307 0.23863 0.19266
 H2393 H 0.54348 0.19217 0.23670
 H2394 H 0.56365 0.16888 0.21204
 H2395 H 0.61015 0.21317 0.20824
 H2396 H 0.59040 0.23740 0.23101
 C2397 C 0.07908 0.69796 0.19873
 C2398 C 0.06174 0.71052 0.18745
 C2399 C 0.05073 0.72379 0.20017
 C2400 C 0.05741 0.72287 0.22333
 C2401 C 0.05647 0.69943 0.22935
 C2402 C 0.06759 0.68646 0.21653
 C2403 C 0.09251 0.71476 0.20951
 C2404 C 0.08134 0.72791 0.22210
 H2405 H 0.05881 0.70958 0.17078
 H2406 H 0.03868 0.73436 0.19419
 H2407 H 0.04751 0.69351 0.24257
 H2408 H 0.06784 0.66953 0.21877
 H2409 H 0.10914 0.71723 0.20618
 H2410 H 0.08879 0.74193 0.22828
 C2411 C 0.07986 0.19716 0.69582
 C2412 C 0.06586 0.18551 0.71160
 C2413 C 0.05497 0.19845 0.72461
 C2414 C 0.05856 0.22209 0.72069
 C2415 C 0.08290 0.22480 0.72171
 C2416 C 0.09382 0.21162 0.70898
 C2417 C 0.06481 0.21223 0.68430
 C2418 C 0.05401 0.22548 0.69724
 H2419 H 0.06453 0.16848 0.71244
 H2420 H 0.04448 0.19239 0.73661
 H2421 H 0.09117 0.23764 0.72920
 H2422 H 0.11079 0.21282 0.70697
 H2423 H 0.06311 0.21281 0.66746
 H2424 H 0.04342 0.23753 0.69132
 C2425 C 0.41922 0.69831 0.30251
 C2426 C 0.42781 0.68813 0.28249
 C2427 C 0.43903 0.70151 0.27020
 C2428 C 0.44107 0.72400 0.27884
 C2429 C 0.41801 0.73110 0.28303
 C2430 C 0.40669 0.71755 0.29507
 C2431 C 0.43870 0.70769 0.31335
 C2432 C 0.44985 0.72140 0.30118
 H2433 H 0.42564 0.67174 0.27829
 H2434 H 0.44611 0.69646 0.25559
 H2435 H 0.41166 0.74657 0.27962
 H2436 H 0.39087 0.72126 0.30047
 H2437 H 0.44287 0.70450 0.32948
 H2438 H 0.46329 0.73009 0.30714
 C2439 C 0.42276 0.19806 0.80474
 C2440 C 0.43506 0.18667 0.78748
 C2441 C 0.44550 0.19979 0.77432
 C2442 C 0.44332 0.22334 0.77959
 C2443 C 0.41910 0.22715 0.78047
 C2444 C 0.40855 0.21379 0.79332
 C2445 C 0.43921 0.21182 0.81586
 C2446 C 0.44966 0.22528 0.80281
 H2447 H 0.43565 0.16967 0.78576
 H2448 H 0.45479 0.19391 0.76131
 H2449 H 0.41083 0.24078 0.77444
 H2450 H 0.39186 0.21568 0.79667
 H2451 H 0.44199 0.21149 0.83257
 H2452 H 0.46112 0.23658 0.80853
 C2453 C 0.92239 0.69471 0.80219
 C2454 C 0.93023 0.68418 0.78202
 C2455 C 0.94133 0.69725 0.76930
 C2456 C 0.94400 0.71975 0.77770
 C2457 C 0.92123 0.72732 0.78248
 C2458 C 0.91002 0.71411 0.79492
 C2459 C 0.94233 0.70379 0.81242
 C2460 C 0.95342 0.71712 0.79980
 H2461 H 0.92769 0.66778 0.77808
 H2462 H 0.94792 0.69198 0.75454
 H2463 H 0.91504 0.74284 0.77896
 H2464 H 0.89437 0.71812 0.80061
 H2465 H 0.94688 0.70066 0.82846
 H2466 H 0.96720 0.72559 0.80530
 C2467 C 0.92117 0.19644 0.30111
 C2468 C 0.93566 0.21214 0.31229
 C2469 C 0.94632 0.22519 0.29920
 C2470 C 0.94207 0.22137 0.27586
 C2471 C 0.94626 0.19767 0.27235
 C2472 C 0.93566 0.18469 0.28575
 C2473 C 0.90697 0.20996 0.28718
 C2474 C 0.91767 0.22274 0.27385
 H2475 H 0.93745 0.21293 0.32912
 H2476 H 0.95704 0.23718 0.30496
 H2477 H 0.95644 0.19161 0.26010
 H2478 H 0.93707 0.16767 0.28505
 H2479 H 0.88995 0.20817 0.28645
 H2480 H 0.90908 0.23045 0.26141
 C2481 C 0.30355 0.30246 0.57830
 C2482 C 0.29055 0.31437 0.56183
 C2483 C 0.27675 0.30193 0.55117
 C2484 C 0.27761 0.27841 0.55728
 C2485 C 0.30099 0.27209 0.55546
 C2486 C 0.31450 0.28466 0.56622
 C2487 C 0.28705 0.29146 0.59197
 C2488 C 0.27336 0.27917 0.58114
 H2489 H 0.29159 0.33123 0.55924
 H2490 H 0.26586 0.30833 0.53972
 H2491 H 0.30647 0.25882 0.54624
 H2492 H 0.33143 0.28217 0.56594
 H2493 H 0.28514 0.29450 0.60855
 H2494 H 0.25948 0.27299 0.58890
 C2495 C 0.30544 0.80146 0.07751
 C2496 C 0.31701 0.78736 0.06170
 C2497 C 0.30406 0.77357 0.05150
 C2498 C 0.28050 0.77542 0.05750
 C2499 C 0.28100 0.77239 0.08163
 C2500 C 0.29382 0.78605 0.09181
 C2501 C 0.28804 0.81238 0.06485
 C2502 C 0.27498 0.79889 0.05473
 H2503 H 0.33392 0.78784 0.05904
 H2504 H 0.31005 0.76218 0.04034
 H2505 H 0.27427 0.75955 0.09046
 H2506 H 0.29668 0.78490 0.10849
 H2507 H 0.28610 0.82934 0.06387
 H2508 H 0.26182 0.80445 0.04537
 C2509 C 0.80372 0.30257 0.07787
 C2510 C 0.81544 0.28819 0.06243
 C2511 C 0.80253 0.27476 0.05182
 C2512 C 0.77885 0.27732 0.05697
 C2513 C 0.77844 0.27407 0.08100
 C2514 C 0.79118 0.28740 0.09174
 C2515 C 0.78707 0.31401 0.06465
 C2516 C 0.77405 0.30089 0.05398
 H2517 H 0.83245 0.28811 0.06042
 H2518 H 0.80864 0.26310 0.04101
 H2519 H 0.77120 0.26094 0.08910
 H2520 H 0.79354 0.28600 0.10848
 H2521 H 0.78569 0.33101 0.06357
 H2522 H 0.76149 0.30676 0.04403
 C2523 C 0.80415 0.80143 0.57907
 C2524 C 0.81578 0.78504 0.56573
 C2525 C 0.80273 0.77198 0.55496
 C2526 C 0.77905 0.77647 0.55807
 C2527 C 0.77590 0.77586 0.58211
 C2528 C 0.78915 0.78865 0.59290
 C2529 C 0.78956 0.81304 0.56372
 C2530 C 0.77622 0.80009 0.55309
 H2531 H 0.83283 0.78383 0.56467
 H2532 H 0.80871 0.75957 0.54490
 H2533 H 0.76291 0.76836 0.59022
 H2534 H 0.78781 0.79081 0.60967
 H2535 H 0.78927 0.83002 0.56180
 H2536 H 0.76441 0.80616 0.54239
 C2537 C 0.30413 0.69799 0.42104
 C2538 C 0.28748 0.70909 0.40763
 C2539 C 0.27419 0.72171 0.41862
 C2540 C 0.27896 0.72269 0.44236
 C2541 C 0.27790 0.69926 0.44877
 C2542 C 0.29131 0.68649 0.43795
 C2543 C 0.31556 0.71577 0.43266
 C2544 C 0.30245 0.72866 0.44360
 H2545 H 0.28516 0.70588 0.39114
 H2546 H 0.26021 0.72801 0.41114
 H2547 H 0.26714 0.69315 0.46050
 H2548 H 0.29215 0.66963 0.44067
 H2549 H 0.33252 0.71800 0.43261
 H2550 H 0.30830 0.74191 0.45259
 C2551 C 0.30537 0.19649 0.92264
 C2552 C 0.31658 0.21041 0.93882
 C2553 C 0.30345 0.22412 0.94890
 C2554 C 0.28004 0.22234 0.94249
 C2555 C 0.28107 0.22571 0.91844
 C2556 C 0.29403 0.21209 0.90830
 C2557 C 0.28773 0.18543 0.93484
 C2558 C 0.27448 0.19884 0.94492
 H2559 H 0.33344 0.20995 0.94171
 H2560 H 0.30926 0.23547 0.96017
 H2561 H 0.27490 0.23900 0.90983
 H2562 H 0.29735 0.21355 0.89172
 H2563 H 0.28580 0.16846 0.93561
 H2564 H 0.26117 0.19322 0.95405
 C2565 C 0.80627 0.69878 0.92209
 C2566 C 0.78854 0.70841 0.90893
 C2567 C 0.77517 0.72096 0.91988
 C2568 C 0.78092 0.72338 0.94329
 C2569 C 0.78130 0.70029 0.95090
 C2570 C 0.79480 0.68759 0.94010
 C2571 C 0.81735 0.71765 0.93232
 C2572 C 0.80412 0.73049 0.94320
 H2573 H 0.78575 0.70438 0.89269
 H2574 H 0.76068 0.72646 0.91273
 H2575 H 0.77140 0.69430 0.96340
 H2576 H 0.79660 0.67096 0.94363
 H2577 H 0.83417 0.72061 0.93140
 H2578 H 0.80970 0.74442 0.95130
 C2579 C 0.80336 0.19803 0.42057
 C2580 C 0.78681 0.20926 0.40717
 C2581 C 0.77345 0.22178 0.41822
 C2582 C 0.77807 0.22253 0.44201
 C2583 C 0.77697 0.19903 0.44818
 C2584 C 0.79043 0.18634 0.43728
 C2585 C 0.81470 0.21567 0.43248
 C2586 C 0.80155 0.22847 0.44345
 H2587 H 0.78457 0.20616 0.39065
 H2588 H 0.75949 0.22807 0.41070
 H2589 H 0.76620 0.19284 0.45986
 H2590 H 0.79131 0.16947 0.43992
 H2591 H 0.83168 0.21787 0.43249
 H2592 H 0.80736 0.24163 0.45259
 C2593 C 0.69689 0.30429 0.42169
 C2594 C 0.71502 0.31556 0.43296
 C2595 C 0.72805 0.30242 0.44364
 C2596 C 0.72180 0.27904 0.44261
 C2597 C 0.69844 0.27825 0.44950
 C2598 C 0.68554 0.29169 0.43884
 C2599 C 0.70758 0.28754 0.40812
 C2600 C 0.72032 0.27420 0.41891
 H2601 H 0.71737 0.33249 0.43275
 H2602 H 0.74158 0.30816 0.45231
 H2603 H 0.69249 0.26769 0.46147
 H2604 H 0.66874 0.29277 0.44197
 H2605 H 0.70401 0.28522 0.39170
 H2606 H 0.72639 0.26019 0.41135
 C2607 C 0.69666 0.80211 0.92150
 C2608 C 0.68528 0.78637 0.93588
 C2609 C 0.69860 0.77325 0.94644
 C2610 C 0.72225 0.77742 0.94235
 C2611 C 0.72377 0.77532 0.91822
 C2612 C 0.71063 0.78836 0.90755
 C2613 C 0.71203 0.81389 0.93580
 C2614 C 0.72543 0.80109 0.94645
 H2615 H 0.66825 0.78522 0.93727
 H2616 H 0.69283 0.76079 0.95655
 H2617 H 0.73196 0.76301 0.90981
 H2618 H 0.70895 0.78753 0.89069
 H2619 H 0.71235 0.83089 0.93749
 H2620 H 0.73725 0.80726 0.95706
 C2621 C 0.19576 0.30197 0.92102
 C2622 C 0.20703 0.28588 0.90716
 C2623 C 0.21972 0.27234 0.91778
 C2624 C 0.22058 0.27633 0.94171
 C2625 C 0.22639 0.29979 0.94360
 C2626 C 0.21342 0.31310 0.93307
 C2627 C 0.18422 0.28858 0.93746
 C2628 C 0.19708 0.27495 0.94796
 H2629 H 0.20372 0.28396 0.89063
 H2630 H 0.22568 0.25858 0.90973
 H2631 H 0.23966 0.30548 0.95270
 H2632 H 0.21556 0.33005 0.93340
 H2633 H 0.16733 0.28929 0.94023
 H2634 H 0.19102 0.26388 0.95942
 C2635 C 0.19784 0.80415 0.42125
 C2636 C 0.21564 0.81556 0.43288
 C2637 C 0.22858 0.80247 0.44377
 C2638 C 0.22263 0.77901 0.44247
 C2639 C 0.19917 0.77790 0.44890
 C2640 C 0.18634 0.79129 0.43812
 C2641 C 0.20897 0.78759 0.40778
 C2642 C 0.22164 0.77431 0.41872
 H2643 H 0.21782 0.83250 0.43288
 H2644 H 0.24184 0.80830 0.45278
 H2645 H 0.19308 0.76711 0.46060
 H2646 H 0.16945 0.79208 0.44087
 H2647 H 0.20573 0.78531 0.39128
 H2648 H 0.22793 0.76038 0.41119
 C2649 C 0.69676 0.69613 0.57922
 C2650 C 0.71007 0.71055 0.59309
 C2651 C 0.72312 0.72362 0.58233
 C2652 C 0.72218 0.72086 0.55826
 C2653 C 0.72607 0.69719 0.55479
 C2654 C 0.71275 0.68434 0.56551
 C2655 C 0.68532 0.71121 0.56423
 C2656 C 0.69853 0.72436 0.55361
 H2657 H 0.70809 0.71167 0.60990
 H2658 H 0.73103 0.73625 0.59052
 H2659 H 0.73827 0.69106 0.54455
 H2660 H 0.71352 0.66731 0.56423
 H2661 H 0.66830 0.71192 0.56251
 H2662 H 0.69265 0.73644 0.54311
 C2663 C 0.69677 0.19634 0.07741
 C2664 C 0.68544 0.21287 0.06399
 C2665 C 0.69871 0.22590 0.05344
 C2666 C 0.72231 0.22121 0.05677
 C2667 C 0.72516 0.22168 0.08085
 C2668 C 0.71168 0.20893 0.09144
 C2669 C 0.71148 0.18467 0.06221
 C2670 C 0.72505 0.19758 0.05176
 H2671 H 0.66841 0.21420 0.06276
 H2672 H 0.69294 0.23842 0.04339
 H2673 H 0.73815 0.22894 0.08912
 H2674 H 0.71282 0.20662 0.10821
 H2675 H 0.71164 0.16770 0.06024
 H2676 H 0.73694 0.19151 0.04113
 C2677 C 0.19478 0.69805 0.07917
 C2678 C 0.18340 0.71170 0.06282
 C2679 C 0.19653 0.72490 0.05206
 C2680 C 0.22007 0.72283 0.05802
 C2681 C 0.21953 0.72701 0.08192
 C2682 C 0.20662 0.71390 0.09279
 C2683 C 0.21199 0.68637 0.06689
 C2684 C 0.22519 0.69923 0.05612
 H2685 H 0.16646 0.71153 0.06037
 H2686 H 0.19064 0.73613 0.04068
 H2687 H 0.22588 0.74077 0.08967
 H2688 H 0.20346 0.71608 0.10932
 H2689 H 0.21358 0.66936 0.06646
 H2690 H 0.23810 0.69312 0.04675
 C2691 C 0.19622 0.19717 0.57834
 C2692 C 0.20736 0.21355 0.59194
 C2693 C 0.21978 0.22711 0.58106
 C2694 C 0.22052 0.22282 0.55721
 C2695 C 0.22666 0.19946 0.55541
 C2696 C 0.21394 0.18612 0.56620
 C2697 C 0.18434 0.21023 0.56189
 C2698 C 0.19695 0.22389 0.55113
 H2699 H 0.20423 0.21556 0.60850
 H2700 H 0.22599 0.24098 0.58872
 H2701 H 0.23988 0.19386 0.54615
 H2702 H 0.21626 0.16918 0.56595
 H2703 H 0.16745 0.20929 0.55930
 H2704 H 0.19066 0.23476 0.53962
   
