data_POSCAR
  _audit_creation_date              2014-09-24
  _audit_creation_method            'ToBaCCo'
  _symmetry_space_group_name_H-M    'P1'
  _symmetry_Int_Tables_number       1
  _symmetry_cell_setting            triclinic
  loop_
  _symmetry_equiv_pos_as_xyz
 x,y,z
_cell_length_a 94.5928
_cell_length_b 94.4922
_cell_length_c 94.5586
_cell_angle_alpha 90.024100
_cell_angle_beta 89.959700
_cell_angle_gamma 90.050800
loop_
  _atom_site_label
  _atom_site_type_symbol
  _atom_site_fract_x
  _atom_site_fract_y
  _atom_site_fract_z
N1 N 0.31568 0.43430 0.93466
 N2 N 0.43491 0.81538 0.43427
 N3 N 0.93319 0.93342 0.81708
 N4 N 0.43356 -0.06641 0.31671
 N5 N 0.81503 0.31433 0.31410
 N6 N -0.18405 0.81605 0.81490
 N7 N 0.93488 0.31523 0.43469
 N8 N 0.43468 0.43429 0.81619
 N9 N 0.81542 0.93463 0.93444
 N10 N 0.31604 0.81594 0.31491
 N11 N 0.81456 0.43601 0.43612
 N12 N 0.93486 0.81528 -0.06571
 N13 N 0.31552 0.31512 0.81528
 N14 N 0.18482 0.56562 0.56565
 N15 N 0.56446 0.68592 0.06395
 N16 N 0.68608 0.18628 0.68543
 N17 N 1.06351 0.06308 0.18722
 N18 N 0.06243 0.18694 1.06302
 N19 N 0.18494 0.68435 0.68399
 N20 N 1.18708 0.18713 0.18667
 N21 N 0.68567 1.06448 0.56437
 N22 N 0.56517 0.56412 0.18618
 N23 N 0.68519 0.68454 0.18416
 N24 N 0.18683 0.06271 1.06272
 N25 N 0.56425 0.18615 0.56399
 N26 N 0.06504 0.56439 0.68608
 N27 N 0.68479 0.56510 0.06589
 N28 N 0.06441 0.68603 0.56370
 N29 N 0.56342 1.06313 0.68705
 N30 N 0.43289 0.31645 0.93325
 N31 N 0.93502 0.43444 0.31582
 N32 N 0.31588 0.93484 0.43367
 O33 O 0.25139 0.48201 0.78770
 O34 O 0.22665 0.48292 0.78249
 O35 O 0.26831 0.46225 0.75054
 O36 O 0.26866 0.46635 0.72732
 O37 O 0.28818 0.49934 0.76808
 O38 O 0.28288 0.52408 0.76696
 O39 O 0.23221 0.50109 0.71307
 O40 O 0.23471 0.47643 0.71711
 O41 O 0.21345 0.51798 0.74897
 O42 O 0.21850 0.51696 0.77458
 O43 O 0.24931 0.53699 0.73190
 O44 O 0.27491 0.53203 0.73295
 O45 O 0.24919 0.51809 0.71307
 O46 O 0.27505 0.51672 0.71814
 O47 O 0.23231 0.53695 0.74885
 O48 O 0.23370 0.53181 0.77471
 O49 O 0.21350 0.50112 0.73184
 O50 O 0.21818 0.47564 0.73353
 O51 O 0.26827 0.49916 0.78780
 O52 O 0.26700 0.52408 0.78254
 O53 O 0.28823 0.48225 0.75116
 O54 O 0.28283 0.48465 0.72582
 O55 O 0.25152 0.46222 0.76776
 O56 O 0.22663 0.46739 0.76662
 Zr57 Zr 0.24290 0.48274 0.76713
 O58 O 0.22928 0.49524 0.75477
 Zr59 Zr 0.26779 0.48293 0.74234
 O60 O 0.25514 0.49524 0.72874
 Zr61 Zr 0.26760 0.50774 0.76727
 O62 O 0.25516 0.52130 0.75474
 Zr63 Zr 0.23366 0.49190 0.73325
 O64 O 0.24625 0.47811 0.74559
 Zr65 Zr 0.23368 0.51676 0.75812
 O66 O 0.24611 0.50428 0.77191
 Zr67 Zr 0.25850 0.51678 0.73323
 O68 O 0.27236 0.50446 0.74578
 O69 O 0.26429 0.48631 0.76375
 O70 O 0.23701 0.51343 0.73660
 C71 C 0.26118 0.48921 0.79382
 C72 C 0.26128 0.45615 0.76047
 C73 C 0.29427 0.48945 0.76100
 C74 C 0.23904 0.51125 0.70716
 C75 C 0.20754 0.51118 0.73878
 C76 C 0.23915 0.54289 0.73872
 H77 H 0.21937 0.49295 0.75716
 H78 H 0.25746 0.53124 0.75703
 H79 H 0.27031 0.48024 0.76979
 H80 H 0.25728 0.49290 0.71878
 H81 H 0.23931 0.46800 0.72129
 H82 H 0.26287 0.46927 0.71912
 H83 H 0.24189 0.53817 0.77330
 H84 H 0.25764 0.52346 0.78719
 H85 H 0.21222 0.47689 0.74203
 H86 H 0.22718 0.46279 0.75723
 H87 H 0.27391 0.53797 0.74151
 H88 H 0.28739 0.52375 0.75752
 H89 H 0.22691 0.49239 0.78696
 H90 H 0.21257 0.50840 0.77357
 H91 H 0.28815 0.49353 0.72743
 H92 H 0.27361 0.50850 0.71182
 O93 O 0.24962 0.03820 0.23129
 O94 O 0.27433 0.03305 0.23220
 O95 O 0.23283 0.00099 0.21138
 O96 O 0.23250 -0.02225 0.21544
 O97 O 0.21280 0.01837 0.24849
 O98 O 0.21807 0.01728 0.27319
 O99 O 0.26893 -0.03647 0.25015
 O100 O 0.26651 -0.03236 0.22554
 O101 O 0.28753 -0.00057 0.26726
 O102 O 0.28243 0.02510 0.26620
 O103 O 0.25173 -0.01776 0.28608
 O104 O 0.22613 -0.01680 0.28107
 O105 O 0.25196 -0.03656 0.26715
 O106 O 0.22608 -0.03159 0.26574
 O107 O 0.26865 -0.00071 0.28613
 O108 O 0.26722 0.02515 0.28104
 O109 O 0.28757 -0.01767 0.25037
 O110 O 0.28297 -0.01585 0.22484
 O111 O 0.23267 0.03821 0.24836
 O112 O 0.23390 0.03289 0.27326
 O113 O 0.21283 0.00148 0.23137
 O114 O 0.21834 -0.02385 0.23368
 O115 O 0.24957 0.01827 0.21144
 O116 O 0.27444 0.01721 0.21667
 Zr117 Zr 0.25813 0.01764 0.23197
 O118 O 0.27177 0.00528 0.24446
 Zr119 Zr 0.23331 -0.00724 0.23204
 O120 O 0.24599 -0.02084 0.24434
 Zr121 Zr 0.23338 0.01764 0.25689
 O122 O 0.24583 0.00511 0.27044
 Zr123 Zr 0.26745 -0.01626 0.24105
 O124 O 0.25485 -0.00392 0.22728
 Zr125 Zr 0.26730 0.00857 0.26596
 O126 O 0.25486 0.02236 0.25349
 Zr127 Zr 0.24257 -0.01642 0.26587
 O128 O 0.22870 -0.00388 0.25356
 O129 O 0.23673 0.01419 0.23546
 O130 O 0.26405 -0.01297 0.26257
 C131 C 0.23981 0.04429 0.23849
 C132 C 0.23987 0.01094 0.20532
 C133 C 0.20673 0.01126 0.23860
 C134 C 0.26213 -0.04243 0.26030
 C135 C 0.29346 -0.01076 0.26049
 C136 C 0.26184 -0.01089 0.29202
 H137 H 0.28168 0.00771 0.24221
 H138 H 0.24350 0.00737 0.28037
 H139 H 0.23071 0.02022 0.22940
 H140 H 0.24388 -0.03081 0.24197
 H141 H 0.26191 -0.02817 0.21712
 H142 H 0.23836 -0.03041 0.21832
 H143 H 0.25899 0.02372 0.28734
 H144 H 0.24324 0.03758 0.27266
 H145 H 0.28899 -0.00740 0.22622
 H146 H 0.27396 0.00780 0.21208
 H147 H 0.22710 -0.00826 0.28704
 H148 H 0.21363 0.00779 0.27288
 H149 H 0.27410 0.03745 0.24170
 H150 H 0.28848 0.02404 0.25772
 H151 H 0.21301 -0.02230 0.24256
 H152 H 0.22757 -0.03790 0.25752
 O153 O 0.50145 0.71238 0.23171
 O154 O 0.47672 0.71753 0.23274
 O155 O 0.51820 0.74962 0.21185
 O156 O 0.51855 0.77284 0.21596
 O157 O 0.53829 0.73212 0.24880
 O158 O 0.53311 0.73322 0.27354
 O159 O 0.48218 0.78701 0.25090
 O160 O 0.48458 0.78298 0.22625
 O161 O 0.46362 0.75108 0.26792
 O162 O 0.46871 0.72546 0.26684
 O163 O 0.49954 0.76824 0.28666
 O164 O 0.52510 0.76728 0.28154
 O165 O 0.49924 0.78706 0.26780
 O166 O 0.52513 0.78207 0.26622
 O167 O 0.48257 0.75124 0.28673
 O168 O 0.48400 0.72535 0.28157
 O169 O 0.46354 0.76820 0.25107
 O170 O 0.46810 0.76647 0.22554
 O171 O 0.51841 0.71233 0.24873
 O172 O 0.51726 0.71761 0.27365
 O173 O 0.53823 0.74905 0.23173
 O174 O 0.53276 0.77440 0.23417
 O175 O 0.50147 0.73233 0.21192
 O176 O 0.47659 0.73342 0.21725
 Zr177 Zr 0.49293 0.73294 0.23248
 O178 O 0.47934 0.74528 0.24507
 Zr179 Zr 0.51777 0.75781 0.23253
 O180 O 0.50513 0.77140 0.24491
 Zr181 Zr 0.51775 0.73288 0.25731
 O182 O 0.50535 0.74540 0.27094
 Zr183 Zr 0.48365 0.76683 0.24170
 O184 O 0.49621 0.75451 0.22784
 Zr185 Zr 0.48386 0.74196 0.26655
 O186 O 0.49625 0.72818 0.25398
 Zr187 Zr 0.50862 0.76693 0.26640
 O188 O 0.52244 0.75439 0.25401
 O189 O 0.51434 0.73638 0.23591
 O190 O 0.48712 0.76350 0.26320
 C191 C 0.51128 0.70627 0.23886
 C192 C 0.51116 0.73966 0.20579
 C193 C 0.54432 0.73922 0.23888
 C194 C 0.48903 0.79294 0.26103
 C195 C 0.45766 0.76126 0.26117
 C196 C 0.48943 0.76139 0.29263
 H197 H 0.46943 0.74286 0.24285
 H198 H 0.50770 0.74312 0.28086
 H199 H 0.52034 0.73035 0.22981
 H200 H 0.50723 0.78137 0.24255
 H201 H 0.48916 0.77881 0.21780
 H202 H 0.51272 0.78101 0.21889
 H203 H 0.49220 0.72681 0.28789
 H204 H 0.50791 0.71293 0.27309
 H205 H 0.46213 0.75798 0.22687
 H206 H 0.47710 0.74282 0.21265
 H207 H 0.52417 0.75870 0.28745
 H208 H 0.53758 0.74269 0.27320
 H209 H 0.47699 0.71310 0.24222
 H210 H 0.46272 0.72646 0.25833
 H211 H 0.53814 0.77280 0.24300
 H212 H 0.52359 0.78842 0.25806
 O213 O 0.00136 0.71244 0.73181
 O214 O -0.02338 0.71759 0.73278
 O215 O 0.01811 0.74952 0.71166
 O216 O 0.01845 0.77278 0.71559
 O217 O 0.03815 0.73234 0.74879
 O218 O 0.03293 0.73367 0.77352
 O219 O -0.01799 0.78721 0.75036
 O220 O -0.01550 0.78300 0.72574
 O221 O -0.03656 0.75146 0.76763
 O222 O -0.03146 0.72580 0.76674
 O223 O -0.00067 0.76874 0.78631
 O224 O 0.02491 0.76776 0.78120
 O225 O -0.00098 0.78742 0.76729
 O226 O 0.02491 0.78246 0.76580
 O227 O -0.01764 0.75173 0.78648
 O228 O -0.01623 0.72583 0.78153
 O229 O -0.03661 0.76841 0.75061
 O230 O -0.03199 0.76648 0.72512
 O231 O 0.01829 0.71255 0.74887
 O232 O 0.01710 0.71804 0.77373
 O233 O 0.03811 0.74911 0.73157
 O234 O 0.03265 0.77448 0.73380
 O235 O 0.00137 0.73223 0.71186
 O236 O -0.02349 0.73332 0.71714
 Zr237 Zr -0.00717 0.73300 0.73240
 O238 O -0.02080 0.74545 0.74485
 Zr239 Zr 0.01765 0.75788 0.73227
 O240 O 0.00500 0.77157 0.74452
 Zr241 Zr 0.01760 0.73316 0.75727
 O242 O 0.00516 0.74579 0.77077
 Zr243 Zr -0.01647 0.76697 0.74131
 O244 O -0.00389 0.75453 0.72758
 Zr245 Zr -0.01632 0.74231 0.76637
 O246 O -0.00389 0.72843 0.75395
 Zr247 Zr 0.00843 0.76729 0.76606
 O248 O 0.02229 0.75466 0.75379
 O249 O 0.01422 0.73648 0.73584
 O250 O -0.01306 0.76382 0.76284
 C251 C 0.01118 0.70640 0.73903
 C252 C 0.01107 0.73952 0.70568
 C253 C 0.04420 0.73934 0.73882
 C254 C -0.01118 0.79323 0.76047
 C255 C -0.04250 0.76157 0.76077
 C256 C -0.01078 0.76192 0.79231
 H257 H -0.03070 0.74301 0.74262
 H258 H 0.00750 0.74359 0.78071
 H259 H 0.02023 0.73040 0.72979
 H260 H 0.00709 0.78153 0.74209
 H261 H -0.01092 0.77876 0.71732
 H262 H 0.01264 0.78099 0.71845
 H263 H -0.00800 0.72730 0.78781
 H264 H 0.00775 0.71335 0.77320
 H265 H -0.03795 0.75800 0.72650
 H266 H -0.02301 0.74268 0.71247
 H267 H 0.02396 0.75923 0.78720
 H268 H 0.03742 0.74312 0.77308
 H269 H -0.02310 0.71322 0.74230
 H270 H -0.03747 0.72676 0.75824
 H271 H 0.03799 0.77296 0.74267
 H272 H 0.02340 0.78873 0.75756
 O273 O 0.03744 0.01769 0.00187
 O274 O 0.03229 0.01672 -0.02286
 O275 O 0.00025 0.03762 0.01861
 O276 O -0.02294 0.03352 0.01899
 O277 O 0.01764 0.00056 0.03871
 O278 O 0.01652 -0.02417 0.03349
 O279 O -0.03716 -0.00131 -0.01744
 O280 O -0.03305 0.02332 -0.01505
 O281 O -0.00129 -0.01843 -0.03602
 O282 O 0.02433 -0.01735 -0.03092
 O283 O -0.01848 -0.03719 -0.00017
 O284 O -0.01752 -0.03212 0.02542
 O285 O -0.03725 -0.01827 -0.00042
 O286 O -0.03227 -0.01678 0.02547
 O287 O -0.00146 -0.03726 -0.01710
 O288 O 0.02439 -0.03214 -0.01566
 O289 O -0.01837 -0.00155 -0.03609
 O290 O -0.01655 0.02401 -0.03151
 O291 O 0.03745 0.00063 0.01882
 O292 O 0.03210 -0.02429 0.01765
 O293 O 0.00078 0.01768 0.03866
 O294 O -0.02454 0.01530 0.03315
 O295 O 0.01753 0.03755 0.00189
 O296 O 0.01647 0.03225 -0.02298
 Zr297 Zr 0.01690 0.01698 -0.00665
 O298 O 0.00455 0.00443 -0.02028
 Zr299 Zr -0.00795 0.01693 0.01818
 O300 O -0.02154 0.00459 0.00551
 Zr301 Zr 0.01690 -0.00791 0.01814
 O302 O 0.00437 -0.02150 0.00571
 Zr303 Zr -0.01696 0.00782 -0.01597
 O304 O -0.00464 0.02165 -0.00338
 Zr305 Zr 0.00783 -0.01708 -0.01578
 O306 O 0.02161 -0.00455 -0.00335
 Zr307 Zr -0.01713 -0.01694 0.00896
 O308 O -0.00459 -0.00458 0.02282
 O309 O 0.01346 0.01352 0.01476
 O310 O -0.01368 -0.01370 -0.01254
 C311 C 0.04353 0.01050 0.01168
 C312 C 0.01020 0.04368 0.01157
 C313 C 0.01056 0.01047 0.04476
 C314 C -0.04312 -0.01145 -0.01061
 C315 C -0.01147 -0.01167 -0.04197
 C316 C -0.01163 -0.04316 -0.01028
 H317 H 0.00698 0.00666 -0.03019
 H318 H 0.00663 -0.03144 0.00805
 H319 H 0.01949 0.01961 0.02077
 H320 H -0.03150 0.00696 0.00761
 H321 H -0.02887 0.03177 -0.01045
 H322 H -0.03109 0.03064 0.01311
 H323 H 0.02294 -0.03845 -0.00745
 H324 H 0.03679 -0.02372 0.00830
 H325 H -0.00811 0.02262 -0.03753
 H326 H 0.00708 0.03683 -0.02251
 H327 H -0.00897 -0.03807 0.02448
 H328 H 0.00705 -0.02384 0.03794
 H329 H 0.03669 0.00722 -0.02261
 H330 H 0.02331 -0.00886 -0.03695
 H331 H -0.02297 0.00644 0.03852
 H332 H -0.03858 -0.00858 0.02396
 O333 O 0.03786 0.51769 0.50147
 O334 O 0.03270 0.51655 0.47672
 O335 O 0.00082 0.53779 0.51816
 O336 O -0.02242 0.53378 0.51853
 O337 O 0.01808 0.50076 0.53839
 O338 O 0.01687 0.47601 0.53327
 O339 O -0.03683 0.49880 0.48235
 O340 O -0.03263 0.52343 0.48461
 O341 O -0.00100 0.48152 0.46376
 O342 O 0.02461 0.48249 0.46884
 O343 O -0.01823 0.46295 0.49973
 O344 O -0.01718 0.46814 0.52531
 O345 O -0.03695 0.48195 0.49946
 O346 O -0.03190 0.48350 0.52531
 O347 O -0.00124 0.46275 0.48277
 O348 O 0.02463 0.46778 0.48416
 O349 O -0.01804 0.49844 0.46364
 O350 O -0.01617 0.52399 0.46811
 O351 O 0.03784 0.50072 0.51850
 O352 O 0.03245 0.47579 0.51740
 O353 O 0.00128 0.51795 0.53827
 O354 O -0.02405 0.51563 0.53284
 O355 O 0.01804 0.53757 0.50138
 O356 O 0.01693 0.53215 0.47654
 Zr357 Zr 0.01732 0.51697 0.49294
 O358 O 0.00491 0.50439 0.47940
 Zr359 Zr -0.00749 0.51713 0.51781
 O360 O -0.02114 0.50476 0.50523
 Zr361 Zr 0.01728 0.49220 0.51786
 O362 O 0.00469 0.47859 0.50551
 Zr363 Zr -0.01659 0.50788 0.48373
 O364 O -0.00420 0.52173 0.49623
 Zr365 Zr 0.00812 0.48290 0.48399
 O366 O 0.02197 0.49544 0.49634
 Zr367 Zr -0.01680 0.48324 0.50878
 O368 O -0.00420 0.49563 0.52256
 O369 O 0.01389 0.51363 0.51437
 O370 O -0.01338 0.48636 0.48725
 C371 C 0.04392 0.51056 0.51133
 C372 C 0.01077 0.54377 0.51107
 C373 C 0.01105 0.51074 0.54440
 C374 C -0.04281 0.48874 0.48926
 C375 C -0.01114 0.48829 0.45778
 C376 C -0.01142 0.45692 0.48964
 H377 H 0.00733 0.50658 0.46948
 H378 H 0.00691 0.46866 0.50789
 H379 H 0.01995 0.51973 0.52035
 H380 H -0.03109 0.50717 0.50734
 H381 H -0.02842 0.53188 0.48916
 H382 H -0.03061 0.53087 0.51273
 H383 H 0.02318 0.46152 0.49242
 H384 H 0.03714 0.47632 0.50805
 H385 H -0.00772 0.52259 0.46212
 H386 H 0.00755 0.53678 0.47700
 H387 H -0.00868 0.46213 0.52435
 H388 H 0.00741 0.47638 0.53773
 H389 H 0.03712 0.50707 0.47707
 H390 H 0.02365 0.49100 0.46282
 H391 H -0.02251 0.50679 0.53823
 H392 H -0.03815 0.49176 0.52382
 O393 O 0.53779 0.01775 0.50143
 O394 O 0.53257 0.01684 0.47670
 O395 O 0.50081 0.03779 0.51838
 O396 O 0.47757 0.03382 0.51877
 O397 O 0.51804 0.00056 0.53827
 O398 O 0.51681 -0.02414 0.53295
 O399 O 0.46305 -0.00087 0.48230
 O400 O 0.46726 0.02375 0.48479
 O401 O 0.49875 -0.01807 0.46355
 O402 O 0.52440 -0.01713 0.46855
 O403 O 0.48162 -0.03688 0.49942
 O404 O 0.48270 -0.03186 0.52503
 O405 O 0.46294 -0.01788 0.49926
 O406 O 0.46799 -0.01648 0.52514
 O407 O 0.49858 -0.03698 0.48242
 O408 O 0.52444 -0.03198 0.48376
 O409 O 0.48177 -0.00110 0.46360
 O410 O 0.48371 0.02443 0.46826
 O411 O 0.53778 0.00065 0.51834
 O412 O 0.53234 -0.02425 0.51706
 O413 O 0.50127 0.01778 0.53834
 O414 O 0.47594 0.01556 0.53293
 O415 O 0.51799 0.03768 0.50155
 O416 O 0.51683 0.03245 0.47667
 Zr417 Zr 0.51723 0.01714 0.49296
 O418 O 0.50477 0.00470 0.47934
 Zr419 Zr 0.49247 0.01715 0.51789
 O420 O 0.47877 0.00491 0.50523
 Zr421 Zr 0.51720 -0.00782 0.51768
 O422 O 0.50456 -0.02131 0.50525
 Zr423 Zr 0.48329 0.00819 0.48375
 O424 O 0.49573 0.02192 0.49633
 Zr425 Zr 0.50796 -0.01684 0.48376
 O426 O 0.52185 -0.00442 0.49618
 Zr427 Zr 0.48309 -0.01666 0.50859
 O428 O 0.49574 -0.00440 0.52244
 O429 O 0.51384 0.01364 0.51437
 O430 O 0.48648 -0.01336 0.48709
 C431 C 0.54387 0.01054 0.51123
 C432 C 0.51075 0.04382 0.51130
 C433 C 0.51103 0.01049 0.54439
 C434 C 0.45707 -0.01101 0.48910
 C435 C 0.48860 -0.01123 0.45766
 C436 C 0.48841 -0.04285 0.48927
 H437 H 0.50717 0.00696 0.46943
 H438 H 0.50678 -0.03126 0.50755
 H439 H 0.51992 0.01968 0.52039
 H440 H 0.46883 0.00731 0.50737
 H441 H 0.47150 0.03216 0.48939
 H442 H 0.46936 0.03097 0.51296
 H443 H 0.52302 -0.03828 0.49198
 H444 H 0.53702 -0.02365 0.50770
 H445 H 0.49213 0.02304 0.46221
 H446 H 0.50746 0.03709 0.47719
 H447 H 0.49119 -0.03788 0.52401
 H448 H 0.50736 -0.02379 0.53744
 H449 H 0.53695 0.00733 0.47693
 H450 H 0.52340 -0.00862 0.46257
 H451 H 0.47746 0.00666 0.53823
 H452 H 0.46173 -0.00824 0.52368
 O453 O 0.53769 0.51758 0.00177
 O454 O 0.53245 0.51668 -0.02296
 O455 O 0.50067 0.53750 0.01877
 O456 O 0.47746 0.53348 0.01922
 O457 O 0.51803 0.50028 0.03858
 O458 O 0.51681 0.47558 0.03323
 O459 O 0.46296 0.49883 -0.01732
 O460 O 0.46713 0.52346 -0.01480
 O461 O 0.49870 0.48175 -0.03616
 O462 O 0.52432 0.48267 -0.03116
 O463 O 0.48159 0.46285 -0.00030
 O464 O 0.48272 0.46779 0.02532
 O465 O 0.46289 0.48182 -0.00036
 O466 O 0.46800 0.48317 0.02551
 O467 O 0.49851 0.46281 -0.01734
 O468 O 0.52441 0.46783 -0.01596
 O469 O 0.48167 0.49868 -0.03605
 O470 O 0.48355 0.52419 -0.03134
 O471 O 0.53772 0.50043 0.01863
 O472 O 0.53233 0.47552 0.01731
 O473 O 0.50124 0.51747 0.03870
 O474 O 0.47588 0.51518 0.03332
 O475 O 0.51785 0.53746 0.00194
 O476 O 0.51667 0.53226 -0.02296
 Zr477 Zr 0.51712 0.51693 -0.00669
 O478 O 0.50466 0.50448 -0.02032
 Zr479 Zr 0.49239 0.51685 0.01826
 O480 O 0.47869 0.50460 0.00560
 Zr481 Zr 0.51716 0.49192 0.01798
 O482 O 0.50453 0.47842 0.00554
 Zr483 Zr 0.48318 0.50792 -0.01588
 O484 O 0.49561 0.52165 -0.00329
 Zr485 Zr 0.50790 0.48295 -0.01594
 O486 O 0.52178 0.49537 -0.00352
 Zr487 Zr 0.48306 0.48304 0.00893
 O488 O 0.49570 0.49530 0.02279
 O489 O 0.51376 0.51338 0.01471
 O490 O 0.48641 0.48638 -0.01257
 C491 C 0.54378 0.51035 0.01155
 C492 C 0.51060 0.54356 0.01170
 C493 C 0.51103 0.51020 0.04471
 C494 C 0.45700 0.48868 -0.01050
 C495 C 0.48853 0.48858 -0.04203
 C496 C 0.48835 0.45692 -0.01049
 H497 H 0.50705 0.50676 -0.03023
 H498 H 0.50676 0.46847 0.00782
 H499 H 0.51983 0.51943 0.02073
 H500 H 0.46875 0.50699 0.00776
 H501 H 0.47135 0.53186 -0.01018
 H502 H 0.46926 0.53064 0.01339
 H503 H 0.52295 0.46146 -0.00779
 H504 H 0.53698 0.47614 0.00794
 H505 H 0.49197 0.52284 -0.03739
 H506 H 0.50730 0.53689 -0.02241
 H507 H 0.49122 0.46180 0.02428
 H508 H 0.50737 0.47591 0.03773
 H509 H 0.53686 0.50719 -0.02273
 H510 H 0.52336 0.49125 -0.03708
 H511 H 0.47746 0.50630 0.03864
 H512 H 0.46172 0.49141 0.02408
 O513 O 0.76791 0.28768 0.49859
 O514 O 0.76705 0.28241 0.52332
 O515 O 0.78756 0.25049 0.48153
 O516 O 0.78340 0.22726 0.48117
 O517 O 0.75051 0.26810 0.46178
 O518 O 0.72581 0.26702 0.46716
 O519 O 0.74875 0.21298 0.51770
 O520 O 0.77337 0.21701 0.51515
 O521 O 0.73196 0.24889 0.53658
 O522 O 0.73305 0.27454 0.53155
 O523 O 0.71286 0.23192 0.50073
 O524 O 0.71780 0.23296 0.47512
 O525 O 0.73172 0.21302 0.50079
 O526 O 0.73304 0.21813 0.47493
 O527 O 0.71297 0.24887 0.51775
 O528 O 0.71818 0.27471 0.51642
 O529 O 0.74876 0.23175 0.53646
 O530 O 0.77421 0.23340 0.53171
 O531 O 0.75077 0.28782 0.48174
 O532 O 0.72586 0.28257 0.48306
 O533 O 0.76754 0.25115 0.46166
 O534 O 0.76510 0.22580 0.46705
 O535 O 0.78765 0.26770 0.49834
 O536 O 0.78252 0.26652 0.52325
 Zr537 Zr 0.76716 0.26708 0.50703
 O538 O 0.75467 0.25470 0.52068
 Zr539 Zr 0.76688 0.24231 0.48210
 O540 O 0.75456 0.22870 0.49478
 Zr541 Zr 0.74215 0.26728 0.48240
 O542 O 0.72860 0.25474 0.49487
 Zr543 Zr 0.75795 0.23316 0.51626
 O544 O 0.77173 0.24552 0.50364
 Zr545 Zr 0.73317 0.25808 0.51635
 O546 O 0.74566 0.27189 0.50389
 Zr547 Zr 0.73305 0.23321 0.49150
 O548 O 0.74537 0.24578 0.47761
 O549 O 0.76356 0.26374 0.48564
 O550 O 0.73644 0.23654 0.51299
 C551 C 0.76070 0.29383 0.48883
 C552 C 0.79368 0.26041 0.48856
 C553 C 0.76036 0.26101 0.45565
 C554 C 0.73858 0.20707 0.51089
 C555 C 0.73874 0.23869 0.54246
 C556 C 0.70699 0.23877 0.51089
 H557 H 0.75698 0.25708 0.53059
 H558 H 0.71868 0.25705 0.49260
 H559 H 0.76963 0.26978 0.47961
 H560 H 0.75688 0.21873 0.49262
 H561 H 0.78179 0.22119 0.51052
 H562 H 0.78048 0.21904 0.48695
 H563 H 0.71185 0.27335 0.50821
 H564 H 0.72650 0.28722 0.49242
 H565 H 0.77300 0.24191 0.53767
 H566 H 0.78710 0.25711 0.52268
 H567 H 0.71191 0.24155 0.47613
 H568 H 0.72611 0.25757 0.46264
 H569 H 0.75760 0.28688 0.52311
 H570 H 0.74159 0.27348 0.53749
 H571 H 0.75622 0.22742 0.46176
 H572 H 0.74125 0.21181 0.47632
 O573 O 0.76798 0.78715 -0.00184
 O574 O 0.76706 0.78193 0.02290
 O575 O 0.78782 0.75003 -0.01878
 O576 O 0.78376 0.72677 -0.01914
 O577 O 0.75077 0.76747 -0.03865
 O578 O 0.72605 0.76628 -0.03335
 O579 O 0.74906 0.71241 0.01735
 O580 O 0.77367 0.71652 0.01484
 O581 O 0.73206 0.74824 0.03610
 O582 O 0.73307 0.77390 0.03107
 O583 O 0.71315 0.73117 0.00021
 O584 O 0.71817 0.73218 -0.02537
 O585 O 0.73207 0.71236 0.00040
 O586 O 0.73349 0.71742 -0.02549
 O587 O 0.71314 0.74813 0.01722
 O588 O 0.71825 0.77400 0.01587
 O589 O 0.74895 0.73119 0.03605
 O590 O 0.77443 0.73297 0.03136
 O591 O 0.75089 0.78720 -0.01873
 O592 O 0.72599 0.78185 -0.01746
 O593 O 0.76787 0.75059 -0.03870
 O594 O 0.76550 0.72522 -0.03330
 O595 O 0.78780 0.76726 -0.00199
 O596 O 0.78260 0.76609 0.02291
 Zr597 Zr 0.76729 0.76656 0.00664
 O598 O 0.75480 0.75415 0.02028
 Zr599 Zr 0.76718 0.74176 -0.01826
 O600 O 0.75489 0.72811 -0.00559
 Zr601 Zr 0.74235 0.76663 -0.01806
 O602 O 0.72882 0.75404 -0.00561
 Zr603 Zr 0.75819 0.73263 0.01589
 O604 O 0.77196 0.74502 0.00329
 Zr605 Zr 0.73330 0.75743 0.01587
 O606 O 0.74577 0.77128 0.00344
 Zr607 Zr 0.73337 0.73253 -0.00895
 O608 O 0.74567 0.74513 -0.02282
 O609 O 0.76376 0.76317 -0.01476
 O610 O 0.73668 0.73591 0.01255
 C611 C 0.76079 0.79325 -0.01163
 C612 C 0.79389 0.75998 -0.01175
 C613 C 0.76068 0.76042 -0.04474
 C614 C 0.73891 0.70647 0.01055
 C615 C 0.73887 0.73808 0.04201
 C616 C 0.70722 0.73800 0.01035
 H617 H 0.75707 0.75655 0.03018
 H618 H 0.71889 0.75631 -0.00792
 H619 H 0.76982 0.76924 -0.02077
 H620 H 0.75725 0.71815 -0.00773
 H621 H 0.78209 0.72072 0.01023
 H622 H 0.78086 0.71856 -0.01334
 H623 H 0.71195 0.77260 0.00765
 H624 H 0.72660 0.78652 -0.00811
 H625 H 0.77313 0.74146 0.03734
 H626 H 0.78722 0.75671 0.02236
 H627 H 0.71226 0.74076 -0.02442
 H628 H 0.72642 0.75683 -0.03787
 H629 H 0.75759 0.78635 0.02266
 H630 H 0.74160 0.77289 0.03702
 H631 H 0.75663 0.72681 -0.03861
 H632 H 0.74169 0.71110 -0.02403
 O633 O 1.00152 0.21204 0.23234
 O634 O 0.97679 0.21715 0.23329
 O635 O 1.01821 0.24921 0.21227
 O636 O 1.01858 0.27244 0.21626
 O637 O 1.03830 0.23198 0.24941
 O638 O 1.03305 0.23318 0.27411
 O639 O 0.98208 0.28676 0.25101
 O640 O 0.98451 0.28257 0.22641
 O641 O 0.96354 0.25087 0.26822
 O642 O 0.96869 0.22527 0.26734
 O643 O 0.99939 0.26824 0.28694
 O644 O 1.02496 0.26731 0.28187
 O645 O 0.99910 0.28696 0.26794
 O646 O 1.02499 0.28200 0.26647
 O647 O 0.98246 0.25120 0.28709
 O648 O 0.98396 0.22528 0.28208
 O649 O 0.96346 0.26789 0.25128
 O650 O 0.96808 0.26602 0.22577
 O651 O 1.01845 0.21213 0.24940
 O652 O 1.01723 0.21757 0.27428
 O653 O 1.03824 0.24878 0.23222
 O654 O 1.03270 0.27414 0.23449
 O655 O 1.00152 0.23189 0.21242
 O656 O 0.97665 0.23293 0.21771
 Zr657 Zr 0.99297 0.23259 0.23297
 O658 O 0.97932 0.24498 0.24545
 Zr659 Zr 1.01776 0.25751 0.23291
 O660 O 1.00506 0.27114 0.24518
 Zr661 Zr 1.01773 0.23273 0.25785
 O662 O 1.00528 0.24531 0.27137
 Zr663 Zr 0.98360 0.26651 0.24196
 O664 O 0.99622 0.25414 0.22820
 Zr665 Zr 0.98381 0.24180 0.26696
 O666 O 0.99625 0.22797 0.25450
 Zr667 Zr 1.00851 0.26682 0.26671
 O668 O 1.02239 0.25424 0.25442
 O669 O 1.01437 0.23608 0.23641
 O670 O 0.98702 0.26333 0.26348
 C671 C 1.01134 0.20600 0.23955
 C672 C 1.01119 0.23923 0.20626
 C673 C 1.04435 0.23904 0.23947
 C674 C 0.98890 0.29278 0.26111
 C675 C 0.95757 0.26099 0.26140
 C676 C 0.98929 0.26140 0.29294
 H677 H 0.96942 0.24252 0.24322
 H678 H 1.00762 0.24310 0.28131
 H679 H 1.02039 0.23003 0.23035
 H680 H 1.00715 0.28111 0.24276
 H681 H 0.98912 0.27836 0.21800
 H682 H 1.01267 0.28059 0.21909
 H683 H 0.99214 0.22680 0.28841
 H684 H 1.00790 0.21285 0.27372
 H685 H 0.96212 0.25753 0.22715
 H686 H 0.97713 0.24231 0.21306
 H687 H 1.02404 0.25877 0.28785
 H688 H 1.03749 0.24267 0.27374
 H689 H 0.97706 0.21277 0.24279
 H690 H 0.96274 0.22617 0.25879
 H691 H 1.03807 0.27260 0.24333
 H692 H 1.02347 0.28829 0.25825
 O693 O 0.71237 1.01863 0.74931
 O694 O 0.71757 1.01772 0.77403
 O695 O 0.74948 1.03861 0.73244
 O696 O 0.77270 1.03459 0.73209
 O697 O 0.73210 1.00150 0.71244
 O698 O 0.73325 0.97677 0.71768
 O699 O 0.78699 0.99979 0.76852
 O700 O 0.78291 1.02443 0.76606
 O701 O 0.75119 0.98268 0.78716
 O702 O 0.72555 0.98367 0.78209
 O703 O 0.76831 0.96387 0.75125
 O704 O 0.76731 0.96892 0.72567
 O705 O 0.78707 0.98281 0.75152
 O706 O 0.78206 0.98430 0.72561
 O707 O 0.75134 0.96379 0.76824
 O708 O 0.72549 0.96884 0.76686
 O709 O 0.76823 0.99962 0.78718
 O710 O 0.76643 1.02515 0.78256
 O711 O 0.71233 1.00156 0.73236
 O712 O 0.71768 0.97665 0.73355
 O713 O 0.74897 1.01864 0.71245
 O714 O 0.77429 1.01633 0.71790
 O715 O 0.73225 1.03852 0.74921
 O716 O 0.73339 1.03328 0.77410
 Zr717 Zr 0.73293 1.01798 0.75779
 O718 O 0.74530 1.00547 0.77140
 Zr719 Zr 0.75773 1.01795 0.73291
 O720 O 0.77136 1.00565 0.74556
 Zr721 Zr 0.73289 0.99305 0.73301
 O722 O 0.74545 0.97951 0.74543
 Zr723 Zr 0.76681 1.00892 0.76704
 O724 O 0.75445 1.02270 0.75446
 Zr725 Zr 0.74203 0.98396 0.76693
 O726 O 0.72822 0.99644 0.75451
 Zr727 Zr 0.76694 0.98411 0.74213
 O728 O 0.75437 0.99643 0.72829
 O729 O 0.73633 1.01449 0.73637
 O730 O 0.76353 0.98738 0.76364
 C731 C 0.70627 1.01143 0.73951
 C732 C 0.73954 1.04465 0.73949
 C733 C 0.73917 1.01142 0.70637
 C734 C 0.79293 0.98964 0.76171
 C735 C 0.76134 0.98950 0.79309
 C736 C 0.76149 0.95791 0.76138
 H737 H 0.74289 1.00773 0.78131
 H738 H 0.74319 0.96957 0.74310
 H739 H 0.73028 1.02056 0.73037
 H740 H 0.78131 1.00804 0.74345
 H741 H 0.77873 1.03286 0.76147
 H742 H 0.78089 1.03170 0.73790
 H743 H 0.72692 0.96254 0.75863
 H744 H 0.71302 0.97722 0.74291
 H745 H 0.75797 1.02380 0.78855
 H746 H 0.74276 1.03792 0.77357
 H747 H 0.75876 0.96297 0.72662
 H748 H 0.74270 0.97713 0.71320
 H749 H 0.71317 1.00821 0.77380
 H750 H 0.72658 0.99217 0.78811
 H751 H 0.77272 1.00745 0.71256
 H752 H 0.78839 0.99249 0.72713
 O753 O 0.78837 0.49947 0.26833
 O754 O 0.78313 0.52421 0.26741
 O755 O 0.75135 0.48246 0.28824
 O756 O 0.72813 0.48201 0.28423
 O757 O 0.76875 0.46258 0.25106
 O758 O 0.76761 0.46790 0.22638
 O759 O 0.71367 0.51847 0.24960
 O760 O 0.71782 0.51604 0.27419
 O761 O 0.74944 0.53733 0.23247
 O762 O 0.77506 0.53235 0.23342
 O763 O 0.73239 0.50141 0.21361
 O764 O 0.73349 0.47579 0.21858
 O765 O 0.71363 0.50150 0.23259
 O766 O 0.71876 0.47562 0.23395
 O767 O 0.74933 0.51844 0.21356
 O768 O 0.77519 0.51712 0.21860
 O769 O 0.73238 0.53725 0.24938
 O770 O 0.73424 0.53259 0.27489
 O771 O 0.78845 0.48254 0.25123
 O772 O 0.78311 0.48385 0.22631
 O773 O 0.75193 0.46249 0.26824
 O774 O 0.72658 0.46786 0.26596
 O775 O 0.76850 0.49933 0.28818
 O776 O 0.76732 0.52423 0.28297
 Zr777 Zr 0.76780 0.50792 0.26767
 O778 O 0.75537 0.52153 0.25521
 Zr779 Zr 0.74308 0.48293 0.26760
 O780 O 0.72941 0.49558 0.25535
 Zr781 Zr 0.76791 0.48319 0.24270
 O782 O 0.75529 0.49560 0.22920
 Zr783 Zr 0.73388 0.51709 0.25865
 O784 O 0.74629 0.50451 0.27239
 Zr785 Zr 0.75865 0.51711 0.23370
 O786 O 0.77251 0.50471 0.24613
 Zr787 Zr 0.73381 0.49222 0.23381
 O788 O 0.74644 0.47838 0.24607
 O789 O 0.76446 0.48649 0.26414
 O790 O 0.73715 0.51374 0.23712
 C791 C 0.79449 0.48966 0.26114
 C792 C 0.76126 0.48956 0.29429
 C793 C 0.76173 0.45646 0.26097
 C794 C 0.70772 0.51163 0.23947
 C795 C 0.73925 0.54321 0.23928
 C796 C 0.73919 0.51157 0.20767
 H797 H 0.75775 0.53145 0.25748
 H798 H 0.75755 0.49330 0.21926
 H799 H 0.77052 0.48048 0.27019
 H800 H 0.71947 0.49341 0.25774
 H801 H 0.72203 0.51142 0.28259
 H802 H 0.71993 0.48783 0.28137
 H803 H 0.77379 0.50890 0.21228
 H804 H 0.78779 0.49321 0.22696
 H805 H 0.74264 0.53866 0.27351
 H806 H 0.75794 0.52369 0.28759
 H807 H 0.74202 0.47680 0.21261
 H808 H 0.75815 0.46340 0.22670
 H809 H 0.78755 0.52397 0.25792
 H810 H 0.77407 0.53830 0.24197
 H811 H 0.72816 0.46253 0.25708
 H812 H 0.71247 0.47705 0.24218
 O813 O 0.50103 0.21219 0.73187
 O814 O 0.47631 0.21738 0.73293
 O815 O 0.51779 0.24941 0.71197
 O816 O 0.51812 0.27265 0.71607
 O817 O 0.53794 0.23194 0.74889
 O818 O 0.53279 0.23302 0.77363
 O819 O 0.48186 0.28685 0.75110
 O820 O 0.48421 0.28281 0.72644
 O821 O 0.46329 0.25089 0.76812
 O822 O 0.46841 0.22525 0.76702
 O823 O 0.49921 0.26807 0.78681
 O824 O 0.52480 0.26704 0.78166
 O825 O 0.49896 0.28689 0.76794
 O826 O 0.52482 0.28187 0.76637
 O827 O 0.48225 0.25107 0.78690
 O828 O 0.48368 0.22519 0.78177
 O829 O 0.46320 0.26803 0.75129
 O830 O 0.46770 0.26633 0.72577
 O831 O 0.51804 0.21213 0.74885
 O832 O 0.51694 0.21741 0.77376
 O833 O 0.53784 0.24887 0.73182
 O834 O 0.53238 0.27420 0.73424
 O835 O 0.50103 0.23215 0.71207
 O836 O 0.47618 0.23325 0.71743
 Zr837 Zr 0.49254 0.23277 0.73264
 O838 O 0.47897 0.24511 0.74526
 Zr839 Zr 0.51738 0.25762 0.73264
 O840 O 0.50478 0.27121 0.74506
 Zr841 Zr 0.51740 0.23268 0.75743
 O842 O 0.50503 0.24520 0.77108
 Zr843 Zr 0.48329 0.26666 0.74189
 O844 O 0.49582 0.25433 0.72800
 Zr845 Zr 0.48353 0.24178 0.76672
 O846 O 0.49590 0.22800 0.75413
 Zr847 Zr 0.50830 0.26673 0.76655
 O848 O 0.52210 0.25420 0.75412
 O849 O 0.51396 0.23619 0.73603
 O850 O 0.48679 0.26331 0.76337
 C851 C 0.51086 0.20608 0.73900
 C852 C 0.51073 0.23946 0.70593
 C853 C 0.54396 0.23906 0.73898
 C854 C 0.48875 0.29278 0.76120
 C855 C 0.45733 0.26108 0.76139
 C856 C 0.48909 0.26124 0.79277
 H857 H 0.46906 0.24270 0.74305
 H858 H 0.50740 0.24292 0.78100
 H859 H 0.51994 0.23015 0.72992
 H860 H 0.50689 0.28118 0.74270
 H861 H 0.48875 0.27863 0.71797
 H862 H 0.51231 0.28083 0.71902
 H863 H 0.49190 0.22664 0.78806
 H864 H 0.50758 0.21275 0.77323
 H865 H 0.46176 0.25782 0.72708
 H866 H 0.47667 0.24265 0.71285
 H867 H 0.52382 0.25851 0.78763
 H868 H 0.53724 0.24250 0.77330
 H869 H 0.47661 0.21292 0.74240
 H870 H 0.46237 0.22628 0.75855
 H871 H 0.53776 0.27262 0.74308
 H872 H 0.52331 0.28819 0.75818
 O873 O 0.26798 0.78791 0.49838
 O874 O 0.26711 0.78268 0.52313
 O875 O 0.28765 0.75074 0.48137
 O876 O 0.28352 0.72750 0.48100
 O877 O 0.25056 0.76830 0.46164
 O878 O 0.22586 0.76717 0.46704
 O879 O 0.24893 0.71320 0.51759
 O880 O 0.27354 0.71726 0.51500
 O881 O 0.23207 0.74905 0.53644
 O882 O 0.23315 0.77472 0.53144
 O883 O 0.21300 0.73208 0.50062
 O884 O 0.21792 0.73310 0.47502
 O885 O 0.23187 0.71321 0.50071
 O886 O 0.23320 0.71829 0.47482
 O887 O 0.21309 0.74904 0.51763
 O888 O 0.21828 0.77489 0.51629
 O889 O 0.24891 0.73195 0.53631
 O890 O 0.27439 0.73369 0.53154
 O891 O 0.25082 0.78801 0.48156
 O892 O 0.22591 0.78274 0.48294
 O893 O 0.26763 0.75138 0.46151
 O894 O 0.26521 0.72602 0.46690
 O895 O 0.28773 0.76796 0.49818
 O896 O 0.28261 0.76680 0.52309
 Zr897 Zr 0.26725 0.76732 0.50687
 O898 O 0.25479 0.75493 0.52054
 Zr899 Zr 0.26698 0.74254 0.48195
 O900 O 0.25470 0.72891 0.49465
 Zr901 Zr 0.24222 0.76747 0.48226
 O902 O 0.22870 0.75491 0.49475
 Zr903 Zr 0.25810 0.73340 0.51612
 O904 O 0.27186 0.74577 0.50348
 Zr905 Zr 0.23328 0.75827 0.51622
 O906 O 0.24573 0.77210 0.50375
 Zr907 Zr 0.23319 0.73339 0.49138
 O908 O 0.24547 0.74597 0.47747
 O909 O 0.26364 0.76396 0.48548
 O910 O 0.23659 0.73674 0.51287
 C911 C 0.26078 0.79403 0.48861
 C912 C 0.29377 0.76067 0.48840
 C913 C 0.26043 0.76124 0.45550
 C914 C 0.23874 0.70729 0.51082
 C915 C 0.23886 0.73885 0.54230
 C916 C 0.20712 0.73892 0.51078
 H917 H 0.25710 0.75731 0.53045
 H918 H 0.21877 0.75721 0.49248
 H919 H 0.26970 0.77000 0.47945
 H920 H 0.25703 0.71894 0.49250
 H921 H 0.28195 0.72145 0.51036
 H922 H 0.28062 0.71929 0.48680
 H923 H 0.21195 0.77352 0.50808
 H924 H 0.22658 0.78742 0.49229
 H925 H 0.27311 0.74215 0.53756
 H926 H 0.28719 0.75740 0.52254
 H927 H 0.21203 0.74169 0.47601
 H928 H 0.22618 0.75773 0.46251
 H929 H 0.25765 0.78714 0.52292
 H930 H 0.24170 0.77367 0.53737
 H931 H 0.25632 0.72763 0.46162
 H932 H 0.24139 0.71196 0.47624
 O933 O 0.24810 0.21197 1.01737
 O934 O 0.27282 0.21716 1.01644
 O935 O 0.23133 0.24916 1.03733
 O936 O 0.23095 0.27238 1.03328
 O937 O 0.21129 0.23174 1.00024
 O938 O 0.21655 0.23286 0.97554
 O939 O 0.26743 0.28669 0.99852
 O940 O 0.26500 0.28257 1.02313
 O941 O 0.28602 0.25082 0.98138
 O942 O 0.28092 0.22517 0.98239
 O943 O 0.25019 0.26798 0.96262
 O944 O 0.22461 0.26698 0.96767
 O945 O 0.25044 0.28676 0.98157
 O946 O 0.22454 0.28173 0.98303
 O947 O 0.26713 0.25098 0.96254
 O948 O 0.26567 0.22508 0.96761
 O949 O 0.28606 0.26791 0.99827
 O950 O 0.28145 0.26606 1.02381
 O951 O 0.23117 0.21194 1.00032
 O952 O 0.23239 0.21730 0.97542
 O953 O 0.21132 0.24861 1.01738
 O954 O 0.21683 0.27397 1.01505
 O955 O 0.24806 0.23190 1.03725
 O956 O 0.27293 0.23300 1.03197
 Zr957 Zr 0.25662 0.23255 1.01670
 O958 O 0.27025 0.24493 1.00419
 Zr959 Zr 0.23179 0.25739 1.01668
 O960 O 0.24447 0.27102 1.00437
 Zr961 Zr 0.23187 0.23252 0.99181
 O962 O 0.24431 0.24509 0.97825
 Zr963 Zr 0.26594 0.26647 1.00762
 O964 O 0.25333 0.25410 1.02140
 Zr965 Zr 0.26578 0.24166 0.98269
 O966 O 0.25335 0.22784 0.99518
 Zr967 Zr 0.24105 0.26661 0.98285
 O968 O 0.22718 0.25402 0.99517
 O969 O 0.23522 0.23596 1.01323
 O970 O 0.26253 0.26319 0.98610
 C971 C 0.23830 0.20587 1.01018
 C972 C 0.23837 0.23922 1.04338
 C973 C 0.20523 0.23882 1.01015
 C974 C 0.26061 0.29265 0.98839
 C975 C 0.29196 0.26101 0.98815
 C976 C 0.26031 0.26115 0.95666
 H977 H 0.28016 0.24252 1.00643
 H978 H 0.24198 0.24283 0.96832
 H979 H 0.22920 0.22991 1.01930
 H980 H 0.24237 0.28098 1.00676
 H981 H 0.26040 0.27838 1.03155
 H982 H 0.23684 0.28054 1.03042
 H983 H 0.25748 0.22654 0.96129
 H984 H 0.24173 0.21261 0.97600
 H985 H 0.28748 0.25764 1.02241
 H986 H 0.27245 0.24240 1.03657
 H987 H 0.22556 0.25843 0.96171
 H988 H 0.21211 0.24234 0.97586
 H989 H 0.27258 0.21276 1.00694
 H990 H 0.28692 0.22618 0.99090
 H991 H 0.21147 0.27239 1.00620
 H992 H 0.22605 0.28805 0.99123
 C993 C 0.31289 0.35081 0.79803
 C994 C 0.29824 0.35228 0.79664
 C995 C 0.28928 0.34137 0.80116
 C996 C 0.29496 0.32909 0.80714
 C997 C 0.30966 0.32760 0.80868
 C998 C 0.31858 0.33856 0.80401
 C999 C 0.29244 0.36514 0.79094
 C1000 C 0.28776 0.37608 0.78636
 C1001 C 0.28251 0.38906 0.78121
 C1002 C 0.27823 0.40031 0.77701
 C1003 C 0.27337 0.41394 0.77226
 C1004 C 0.26223 0.42068 0.77927
 C1005 C 0.25806 0.43429 0.77524
 C1006 C 0.26503 0.44136 0.76412
 C1007 C 0.27605 0.43435 0.75697
 C1008 C 0.28019 0.42075 0.76103
 H1009 H 0.31992 0.35921 0.79463
 H1010 H 0.27792 0.34240 0.80015
 H1011 H 0.28790 0.32076 0.81060
 H1012 H 0.32993 0.33771 0.80522
 H1013 H 0.25690 0.41552 0.78802
 H1014 H 0.24955 0.43934 0.78100
 H1015 H 0.28167 0.43946 0.74838
 H1016 H 0.28886 0.41563 0.75556
 C1017 C 0.31424 -0.14781 0.29875
 C1018 C 0.29964 -0.14608 0.29717
 C1019 C 0.29044 -0.15698 0.30120
 C1020 C 0.29583 -0.16952 0.30688
 C1021 C 0.31049 -0.17129 0.30862
 C1022 C 0.31965 -0.16033 0.30444
 C1023 C 0.29411 -0.13299 0.29171
 C1024 C 0.28961 -0.12192 0.28728
 C1025 C 0.28449 -0.10883 0.28225
 C1026 C 0.28025 -0.09755 0.27809
 C1027 C 0.27536 -0.08396 0.27328
 C1028 C 0.26400 -0.07734 0.28006
 C1029 C 0.25955 -0.06392 0.27573
 C1030 C 0.26644 -0.05692 0.26452
 C1031 C 0.27777 -0.06375 0.25768
 C1032 C 0.28219 -0.07717 0.26204
 H1033 H 0.32145 -0.13942 0.29572
 H1034 H 0.27912 -0.15575 0.30002
 H1035 H 0.28860 -0.17785 0.30997
 H1036 H 0.33096 -0.16139 0.30581
 H1037 H 0.25866 -0.08249 0.28880
 H1038 H 0.25083 -0.05899 0.28126
 H1039 H 0.28334 -0.05867 0.24905
 H1040 H 0.29102 -0.08218 0.25674
 C1041 C 0.79952 0.85217 0.81303
 C1042 C 0.79853 0.85414 0.79839
 C1043 C 0.80309 0.84346 0.78919
 C1044 C 0.80869 0.83089 0.79461
 C1045 C 0.80981 0.82887 0.80929
 C1046 C 0.80512 0.83962 0.81845
 C1047 C 0.79310 0.86724 0.79286
 C1048 C 0.78868 0.87833 0.78839
 C1049 C 0.78363 0.89143 0.78332
 C1050 C 0.77944 0.90272 0.77914
 C1051 C 0.77459 0.91632 0.77432
 C1052 C 0.78141 0.92309 0.76307
 C1053 C 0.77704 0.93653 0.75872
 C1054 C 0.76575 0.94340 0.76559
 C1055 C 0.75886 0.93642 0.77681
 C1056 C 0.76327 0.92299 0.78113
 H1057 H 0.79607 0.86038 0.82024
 H1058 H 0.80238 0.84488 0.77784
 H1059 H 0.81217 0.82273 0.78736
 H1060 H 0.80601 0.83837 0.82980
 H1061 H 0.79022 0.91804 0.75775
 H1062 H 0.78261 0.94158 0.75007
 H1063 H 0.75017 0.94139 0.78236
 H1064 H 0.75793 0.91785 0.78989
 C1065 C 0.44705 0.90686 0.29058
 C1066 C 0.45136 0.89593 0.29959
 C1067 C 0.45002 0.89752 0.31425
 C1068 C 0.44430 0.90993 0.31988
 C1069 C 0.43985 0.92092 0.31091
 C1070 C 0.44132 0.91929 0.29620
 C1071 C 0.45690 0.88297 0.29384
 C1072 C 0.46141 0.87199 0.28916
 C1073 C 0.46654 0.85901 0.28386
 C1074 C 0.47080 0.84782 0.27949
 C1075 C 0.47574 0.83432 0.27446
 C1076 C 0.48720 0.82771 0.28106
 C1077 C 0.49167 0.81435 0.27656
 C1078 C 0.48472 0.80739 0.26538
 C1079 C 0.47329 0.81422 0.25871
 C1080 C 0.46884 0.82758 0.26324
 H1081 H 0.44803 0.90573 0.27922
 H1082 H 0.45328 0.88912 0.32132
 H1083 H 0.44314 0.91089 0.33123
 H1084 H 0.43803 0.92764 0.28911
 H1085 H 0.49259 0.83282 0.28979
 H1086 H 0.50048 0.80942 0.28197
 H1087 H 0.46766 0.80918 0.25011
 H1088 H 0.45993 0.83259 0.25808
 C1089 C -0.04078 0.90677 0.80329
 C1090 C -0.04983 0.89595 0.79874
 C1091 C -0.06448 0.89759 0.80005
 C1092 C -0.07006 0.90993 0.80596
 C1093 C -0.06106 0.92081 0.81064
 C1094 C -0.04636 0.91913 0.80920
 C1095 C -0.04412 0.88305 0.79302
 C1096 C -0.03947 0.87212 0.78837
 C1097 C -0.03419 0.85919 0.78310
 C1098 C -0.02981 0.84803 0.77874
 C1099 C -0.02474 0.83457 0.77374
 C1100 C -0.03156 0.82777 0.76250
 C1101 C -0.02701 0.81442 0.75802
 C1102 C -0.01556 0.80769 0.76473
 C1103 C -0.00868 0.81472 0.77592
 C1104 C -0.01325 0.82806 0.78038
 H1105 H -0.02942 0.90561 0.80234
 H1106 H -0.07157 0.88926 0.79662
 H1107 H -0.08141 0.91092 0.80708
 H1108 H -0.03923 0.92740 0.81267
 H1109 H -0.04049 0.83270 0.75732
 H1110 H -0.03259 0.80932 0.74941
 H1111 H 0.00014 0.80985 0.78136
 H1112 H -0.00792 0.83322 0.78911
 C1113 C -0.06342 -0.14882 -0.04875
 C1114 C -0.04880 -0.14683 -0.04763
 C1115 C -0.03956 -0.15744 -0.05225
 C1116 C -0.04493 -0.16996 -0.05805
 C1117 C -0.05960 -0.17199 -0.05932
 C1118 C -0.06880 -0.16131 -0.05456
 C1119 C -0.04332 -0.13376 -0.04205
 C1120 C -0.03886 -0.12270 -0.03753
 C1121 C -0.03379 -0.10962 -0.03240
 C1122 C -0.02959 -0.09834 -0.02817
 C1123 C -0.02472 -0.08475 -0.02330
 C1124 C -0.01338 -0.07807 -0.03007
 C1125 C -0.00897 -0.06463 -0.02571
 C1126 C -0.01588 -0.05767 -0.01450
 C1127 C -0.02720 -0.06456 -0.00767
 C1128 C -0.03157 -0.07799 -0.01206
 H1129 H -0.07066 -0.14065 -0.04527
 H1130 H -0.02823 -0.15601 -0.05144
 H1131 H -0.03766 -0.17807 -0.06159
 H1132 H -0.08013 -0.16257 -0.05556
 H1133 H -0.00802 -0.08319 -0.03882
 H1134 H -0.00026 -0.05965 -0.03124
 H1135 H -0.03279 -0.05951 0.00096
 H1136 H -0.04040 -0.08305 -0.00677
 C1137 C -0.03954 0.34253 0.44812
 C1138 C -0.04878 0.35317 0.45268
 C1139 C -0.06340 0.35119 0.45153
 C1140 C -0.06877 0.33868 0.44576
 C1141 C -0.05958 0.32798 0.44105
 C1142 C -0.04491 0.33000 0.44234
 C1143 C -0.04330 0.36625 0.45823
 C1144 C -0.03883 0.37732 0.46272
 C1145 C -0.03375 0.39042 0.46781
 C1146 C -0.02953 0.40170 0.47200
 C1147 C -0.02463 0.41530 0.47681
 C1148 C -0.03148 0.42214 0.48801
 C1149 C -0.02706 0.43558 0.49234
 C1150 C -0.01572 0.44240 0.48549
 C1151 C -0.00882 0.43535 0.47432
 C1152 C -0.01326 0.42191 0.47002
 H1153 H -0.02821 0.34395 0.44894
 H1154 H -0.07064 0.35938 0.45497
 H1155 H -0.08011 0.33743 0.44474
 H1156 H -0.03764 0.32188 0.43885
 H1157 H -0.04032 0.41713 0.49331
 H1158 H -0.03265 0.44069 0.50094
 H1159 H -0.00008 0.44027 0.46878
 H1160 H -0.00791 0.41673 0.46131
 C1161 C 0.43657 -0.14859 0.45096
 C1162 C 0.45119 -0.14659 0.45211
 C1163 C 0.46044 -0.15723 0.44760
 C1164 C 0.45510 -0.16978 0.44186
 C1165 C 0.44043 -0.17183 0.44057
 C1166 C 0.43122 -0.16112 0.44522
 C1167 C 0.45665 -0.13349 0.45764
 C1168 C 0.46109 -0.12240 0.46213
 C1169 C 0.46614 -0.10930 0.46722
 C1170 C 0.47034 -0.09801 0.47142
 C1171 C 0.47521 -0.08441 0.47626
 C1172 C 0.48655 -0.07775 0.46947
 C1173 C 0.49099 -0.06432 0.47382
 C1174 C 0.48410 -0.05734 0.48504
 C1175 C 0.47279 -0.06420 0.49188
 C1176 C 0.46838 -0.07764 0.48751
 H1177 H 0.42931 -0.14040 0.45437
 H1178 H 0.47177 -0.15579 0.44843
 H1179 H 0.46238 -0.17792 0.43840
 H1180 H 0.41989 -0.16239 0.44420
 H1181 H 0.49189 -0.08289 0.46072
 H1182 H 0.49970 -0.05936 0.46828
 H1183 H 0.46722 -0.05915 0.50052
 H1184 H 0.45956 -0.08268 0.49281
 C1185 C 0.45889 0.34316 -0.05296
 C1186 C 0.44983 0.35402 -0.04856
 C1187 C 0.43519 0.35240 -0.04995
 C1188 C 0.42961 0.34001 -0.05580
 C1189 C 0.43863 0.32909 -0.06034
 C1190 C 0.45332 0.33076 -0.05881
 C1191 C 0.45553 0.36696 -0.04291
 C1192 C 0.46017 0.37792 -0.03831
 C1193 C 0.46544 0.39089 -0.03309
 C1194 C 0.46981 0.40207 -0.02877
 C1195 C 0.47485 0.41555 -0.02379
 C1196 C 0.46814 0.42225 -0.01243
 C1197 C 0.47266 0.43561 -0.00795
 C1198 C 0.48398 0.44247 -0.01479
 C1199 C 0.49076 0.43555 -0.02611
 C1200 C 0.48621 0.42219 -0.03057
 H1201 H 0.47024 0.34431 -0.05194
 H1202 H 0.42809 0.36075 -0.04663
 H1203 H 0.41827 0.33902 -0.05700
 H1204 H 0.46045 0.32245 -0.06217
 H1205 H 0.45930 0.41722 -0.00714
 H1206 H 0.46717 0.44062 0.00077
 H1207 H 0.49947 0.44051 -0.03165
 H1208 H 0.49146 0.41712 -0.03941
 C1209 C 0.79751 0.40018 0.43839
 C1210 C 0.79645 0.39840 0.45304
 C1211 C 0.80111 0.40913 0.46213
 C1212 C 0.80692 0.42156 0.45657
 C1213 C 0.80813 0.42338 0.44186
 C1214 C 0.80331 0.41259 0.43282
 C1215 C 0.79092 0.38538 0.45870
 C1216 C 0.78645 0.37433 0.46324
 C1217 C 0.78143 0.36121 0.46831
 C1218 C 0.77731 0.34986 0.47244
 C1219 C 0.77261 0.33614 0.47710
 C1220 C 0.77964 0.32926 0.48814
 C1221 C 0.77559 0.31561 0.49217
 C1222 C 0.76445 0.30863 0.48516
 C1223 C 0.75730 0.31576 0.47422
 C1224 C 0.76138 0.32941 0.47022
 H1225 H 0.79399 0.39192 0.43126
 H1226 H 0.80036 0.40785 0.47349
 H1227 H 0.81051 0.42976 0.46372
 H1228 H 0.80428 0.41369 0.42147
 H1229 H 0.78838 0.33436 0.49351
 H1230 H 0.78134 0.31045 0.50061
 H1231 H 0.74870 0.31073 0.46858
 H1232 H 0.75589 0.33463 0.46163
 C1233 C 0.79830 0.89885 -0.06296
 C1234 C 0.79702 0.89731 -0.04830
 C1235 C 0.80156 0.90819 -0.03932
 C1236 C 0.80747 0.92052 -0.04499
 C1237 C 0.80891 0.92210 -0.05971
 C1238 C 0.80421 0.91116 -0.06864
 C1239 C 0.79138 0.88440 -0.04251
 C1240 C 0.78683 0.87343 -0.03786
 C1241 C 0.78171 0.86040 -0.03264
 C1242 C 0.77752 0.84913 -0.02840
 C1243 C 0.77276 0.83548 -0.02361
 C1244 C 0.77974 0.82867 -0.01250
 C1245 C 0.77566 0.81505 -0.00838
 C1246 C 0.76453 0.80804 -0.01536
 C1247 C 0.75741 0.81511 -0.02636
 C1248 C 0.76152 0.82872 -0.03045
 H1249 H 0.79488 0.89048 -0.07000
 H1250 H 0.80063 0.90709 -0.02795
 H1251 H 0.81096 0.92883 -0.03792
 H1252 H 0.80534 0.91207 -0.08000
 H1253 H 0.78849 0.83379 -0.00716
 H1254 H 0.78139 0.80995 0.00011
 H1255 H 0.74881 0.81004 -0.03199
 H1256 H 0.75606 0.83388 -0.03910
 C1257 C 0.80123 0.28832 0.34080
 C1258 C 0.79654 0.29741 0.35152
 C1259 C 0.79773 0.31208 0.34979
 C1260 C 0.80367 0.31764 0.33745
 C1261 C 0.80850 0.30859 0.32667
 C1262 C 0.80717 0.29388 0.32844
 C1263 C 0.79087 0.29175 0.36446
 C1264 C 0.78629 0.28720 0.37546
 C1265 C 0.78115 0.28208 0.38851
 C1266 C 0.77697 0.27789 0.39980
 C1267 C 0.77224 0.27312 0.41346
 C1268 C 0.76113 0.28008 0.42033
 C1269 C 0.75705 0.27596 0.43393
 C1270 C 0.76407 0.26481 0.44088
 C1271 C 0.77507 0.25772 0.43376
 C1272 C 0.77912 0.26187 0.42016
 H1273 H 0.80038 0.27696 0.34204
 H1274 H 0.79420 0.31921 0.35804
 H1275 H 0.80472 0.32900 0.33640
 H1276 H 0.81076 0.28672 0.32025
 H1277 H 0.75576 0.28883 0.41525
 H1278 H 0.74856 0.28167 0.43908
 H1279 H 0.78071 0.24912 0.43878
 H1280 H 0.78776 0.25643 0.41495
 C1281 C 0.78935 0.80213 -0.15906
 C1282 C 0.79818 0.79750 -0.14812
 C1283 C 0.81286 0.79876 -0.14949
 C1284 C 0.81870 0.80471 -0.16169
 C1285 C 0.80992 0.80950 -0.17268
 C1286 C 0.79519 0.80809 -0.17128
 C1287 C 0.79222 0.79179 -0.13533
 C1288 C 0.78743 0.78717 -0.12445
 C1289 C 0.78208 0.78195 -0.11153
 C1290 C 0.77774 0.77766 -0.10033
 C1291 C 0.77285 0.77276 -0.08678
 C1292 C 0.76166 0.77965 -0.07997
 C1293 C 0.75747 0.77544 -0.06643
 C1294 C 0.76445 0.76428 -0.05948
 C1295 C 0.77552 0.75724 -0.06655
 C1296 C 0.77968 0.76147 -0.08009
 H1297 H 0.77797 0.80123 -0.15810
 H1298 H 0.81978 0.79526 -0.14106
 H1299 H 0.83007 0.80582 -0.16246
 H1300 H 0.78824 0.81164 -0.17964
 H1301 H 0.75633 0.78843 -0.08504
 H1302 H 0.74894 0.78111 -0.06131
 H1303 H 0.78114 0.74862 -0.06154
 H1304 H 0.78838 0.75609 -0.08525
 C1305 C 0.28932 0.44816 0.90841
 C1306 C 0.29824 0.45274 0.89751
 C1307 C 0.31291 0.45149 0.89897
 C1308 C 0.31864 0.44557 0.91123
 C1309 C 0.30977 0.44083 0.92219
 C1310 C 0.29505 0.44224 0.92069
 C1311 C 0.29238 0.45839 0.88465
 C1312 C 0.28767 0.46296 0.87373
 C1313 C 0.28239 0.46810 0.86076
 C1314 C 0.27810 0.47232 0.84953
 C1315 C 0.27326 0.47712 0.83593
 C1316 C 0.28004 0.48844 0.82922
 C1317 C 0.27591 0.49259 0.81565
 C1318 C 0.26493 0.48544 0.80857
 C1319 C 0.25800 0.47423 0.81554
 C1320 C 0.26216 0.47011 0.82911
 H1321 H 0.27795 0.44907 0.90738
 H1322 H 0.31990 0.45494 0.89058
 H1323 H 0.33000 0.44446 0.91208
 H1324 H 0.28802 0.43872 0.92902
 H1325 H 0.28868 0.49392 0.83439
 H1326 H 0.28150 0.50125 0.81063
 H1327 H 0.24952 0.46847 0.81042
 H1328 H 0.25686 0.46130 0.83419
 C1329 C 0.31392 -0.04915 0.39738
 C1330 C 0.29929 -0.04769 0.39566
 C1331 C 0.29015 -0.05176 0.40657
 C1332 C 0.29560 -0.05737 0.41912
 C1333 C 0.31027 -0.05897 0.42089
 C1334 C 0.31938 -0.05475 0.40991
 C1335 C 0.29371 -0.04229 0.38257
 C1336 C 0.28918 -0.03790 0.37150
 C1337 C 0.28404 -0.03290 0.35842
 C1338 C 0.27980 -0.02875 0.34714
 C1339 C 0.27492 -0.02392 0.33356
 C1340 C 0.26369 -0.03082 0.32683
 C1341 C 0.25928 -0.02647 0.31341
 C1342 C 0.26608 -0.01513 0.30651
 C1343 C 0.27728 -0.00818 0.31346
 C1344 C 0.28166 -0.01256 0.32688
 H1345 H 0.32109 -0.04608 0.38899
 H1346 H 0.27881 -0.05069 0.40535
 H1347 H 0.28839 -0.06048 0.42746
 H1348 H 0.33070 -0.05601 0.41097
 H1349 H 0.25842 -0.03966 0.33190
 H1350 H 0.25066 -0.03209 0.30838
 H1351 H 0.28278 0.00055 0.30847
 H1352 H 0.29039 -0.00717 0.33197
 C1353 C -0.05018 -0.06451 -0.14692
 C1354 C -0.04888 -0.04986 -0.14515
 C1355 C -0.05329 -0.04072 -0.15593
 C1356 C -0.05905 -0.04621 -0.16840
 C1357 C -0.06049 -0.06091 -0.17021
 C1358 C -0.05595 -0.07001 -0.15937
 C1359 C -0.04332 -0.04424 -0.13215
 C1360 C -0.03879 -0.03965 -0.12115
 C1361 C -0.03366 -0.03443 -0.10814
 C1362 C -0.02942 -0.03011 -0.09692
 C1363 C -0.02453 -0.02510 -0.08340
 C1364 C -0.03138 -0.01379 -0.07675
 C1365 C -0.02700 -0.00927 -0.06337
 C1366 C -0.01569 -0.01602 -0.05644
 C1367 C -0.00877 -0.02729 -0.06331
 C1368 C -0.01318 -0.03178 -0.07669
 H1369 H -0.04686 -0.07168 -0.13862
 H1370 H -0.05234 -0.02936 -0.15467
 H1371 H -0.06241 -0.03902 -0.17664
 H1372 H -0.05708 -0.08136 -0.16046
 H1373 H -0.04020 -0.00856 -0.08184
 H1374 H -0.03259 -0.00059 -0.05840
 H1375 H -0.00006 -0.03276 -0.05830
 H1376 H -0.00782 -0.04057 -0.08173
 C1377 C -0.05147 0.46004 0.34306
 C1378 C -0.04749 0.45082 0.35394
 C1379 C -0.04904 0.43620 0.35215
 C1380 C -0.05465 0.43080 0.33959
 C1381 C -0.05877 0.43998 0.32864
 C1382 C -0.05707 0.45465 0.33048
 C1383 C -0.04210 0.45633 0.36706
 C1384 C -0.03774 0.46082 0.37817
 C1385 C -0.03278 0.46592 0.39129
 C1386 C -0.02868 0.47015 0.40260
 C1387 C -0.02395 0.47504 0.41621
 C1388 C -0.01267 0.46830 0.42299
 C1389 C -0.00837 0.47272 0.43643
 C1390 C -0.01532 0.48397 0.44329
 C1391 C -0.02657 0.49076 0.43631
 C1392 C -0.03084 0.48632 0.42287
 H1393 H -0.05032 0.47137 0.34434
 H1394 H -0.04605 0.42897 0.36052
 H1395 H -0.05600 0.41948 0.33848
 H1396 H -0.06012 0.46191 0.32216
 H1397 H -0.00728 0.45953 0.41794
 H1398 H 0.00030 0.46722 0.44148
 H1399 H -0.03219 0.49942 0.44128
 H1400 H -0.03962 0.49159 0.41774
 C1401 C 0.43586 -0.04988 0.35276
 C1402 C 0.45051 -0.04867 0.35446
 C1403 C 0.45957 -0.05309 0.34362
 C1404 C 0.45401 -0.05880 0.33116
 C1405 C 0.43931 -0.06015 0.32941
 C1406 C 0.43028 -0.05559 0.34032
 C1407 C 0.45620 -0.04315 0.36746
 C1408 C 0.46082 -0.03866 0.37846
 C1409 C 0.46605 -0.03354 0.39146
 C1410 C 0.47037 -0.02930 0.40268
 C1411 C 0.47533 -0.02439 0.41621
 C1412 C 0.46857 -0.01307 0.42293
 C1413 C 0.47302 -0.00864 0.43632
 C1414 C 0.48431 -0.01549 0.44318
 C1415 C 0.49113 -0.02677 0.43624
 C1416 C 0.48666 -0.03118 0.42285
 H1417 H 0.42875 -0.04654 0.36111
 H1418 H 0.47093 -0.05221 0.34483
 H1419 H 0.46114 -0.06218 0.32287
 H1420 H 0.41894 -0.05666 0.33928
 H1421 H 0.45976 -0.00777 0.41790
 H1422 H 0.46749 0.00005 0.44134
 H1423 H 0.49982 -0.03232 0.44121
 H1424 H 0.49194 -0.03998 0.41776
 C1425 C 0.43661 0.45072 -0.14769
 C1426 C 0.45125 0.45173 -0.14575
 C1427 C 0.46042 0.44720 -0.15646
 C1428 C 0.45499 0.44159 -0.16902
 C1429 C 0.44030 0.44044 -0.17101
 C1430 C 0.43117 0.44511 -0.16023
 C1431 C 0.45679 0.45716 -0.13266
 C1432 C 0.46129 0.46158 -0.12158
 C1433 C 0.46639 0.46661 -0.10848
 C1434 C 0.47060 0.47078 -0.09720
 C1435 C 0.47545 0.47560 -0.08360
 C1436 C 0.46861 0.48684 -0.07683
 C1437 C 0.47298 0.49121 -0.06339
 C1438 C 0.48428 0.48436 -0.05653
 C1439 C 0.49118 0.47315 -0.06351
 C1440 C 0.48678 0.46882 -0.07695
 H1441 H 0.42941 0.45414 -0.13946
 H1442 H 0.47177 0.44793 -0.15506
 H1443 H 0.46221 0.43812 -0.17720
 H1444 H 0.41982 0.44420 -0.16146
 H1445 H 0.45980 0.49214 -0.08187
 H1446 H 0.46740 0.49984 -0.05833
 H1447 H 0.49988 0.46762 -0.05855
 H1448 H 0.49213 0.46007 -0.08208
 C1449 C 0.45118 0.81349 0.39808
 C1450 C 0.45272 0.79886 0.39635
 C1451 C 0.44864 0.78968 0.40724
 C1452 C 0.44294 0.79511 0.41976
 C1453 C 0.44124 0.80979 0.42153
 C1454 C 0.44548 0.81893 0.41058
 C1455 C 0.45818 0.79330 0.38328
 C1456 C 0.46261 0.78877 0.37221
 C1457 C 0.46762 0.78363 0.35912
 C1458 C 0.47177 0.77939 0.34783
 C1459 C 0.47656 0.77450 0.33424
 C1460 C 0.46971 0.76320 0.32756
 C1461 C 0.47401 0.75879 0.31412
 C1462 C 0.48525 0.76564 0.30714
 C1463 C 0.49217 0.77691 0.31403
 C1464 C 0.48784 0.78129 0.32747
 H1465 H 0.45425 0.82069 0.38970
 H1466 H 0.44978 0.77834 0.40601
 H1467 H 0.43980 0.78789 0.42808
 H1468 H 0.44414 0.83026 0.41164
 H1469 H 0.46093 0.75789 0.33269
 H1470 H 0.46842 0.75011 0.30914
 H1471 H 0.50083 0.78246 0.30898
 H1472 H 0.49320 0.79008 0.33253
 C1473 C -0.04896 0.81373 0.89804
 C1474 C -0.04739 0.79912 0.89619
 C1475 C -0.05144 0.78984 0.90700
 C1476 C -0.05713 0.79515 0.91958
 C1477 C -0.05885 0.80981 0.92148
 C1478 C -0.05465 0.81905 0.91060
 C1479 C -0.04194 0.79368 0.88306
 C1480 C -0.03752 0.78924 0.87195
 C1481 C -0.03251 0.78419 0.85882
 C1482 C -0.02838 0.78000 0.84751
 C1483 C -0.02362 0.77513 0.83389
 C1484 C -0.03043 0.76377 0.82728
 C1485 C -0.02615 0.75934 0.81384
 C1486 C -0.01496 0.76624 0.80680
 C1487 C -0.00810 0.77757 0.81363
 C1488 C -0.01241 0.78198 0.82707
 H1489 H -0.04591 0.82101 0.88972
 H1490 H -0.05029 0.77851 0.90567
 H1491 H -0.06024 0.78785 0.92784
 H1492 H -0.05600 0.83037 0.91176
 H1493 H -0.03915 0.75842 0.83246
 H1494 H -0.03170 0.75061 0.80891
 H1495 H 0.00052 0.78315 0.80853
 H1496 H -0.00708 0.79081 0.83208
 C1497 C 0.34340 0.80268 0.28934
 C1498 C 0.35402 0.79813 0.29858
 C1499 C 0.35201 0.79922 0.31321
 C1500 C 0.33949 0.80494 0.31858
 C1501 C 0.32881 0.80964 0.30937
 C1502 C 0.33086 0.80840 0.29470
 C1503 C 0.36711 0.79263 0.29310
 C1504 C 0.37818 0.78817 0.28864
 C1505 C 0.39127 0.78311 0.28355
 C1506 C 0.40254 0.77894 0.27933
 C1507 C 0.41613 0.77415 0.27442
 C1508 C 0.42287 0.76283 0.28115
 C1509 C 0.43629 0.75849 0.27673
 C1510 C 0.44318 0.76545 0.26549
 C1511 C 0.43622 0.77673 0.25870
 C1512 C 0.42280 0.78104 0.26316
 H1513 H 0.34485 0.80189 0.27800
 H1514 H 0.36017 0.79578 0.32046
 H1515 H 0.33821 0.80592 0.32992
 H1516 H 0.32275 0.81189 0.28742
 H1517 H 0.41781 0.75744 0.28991
 H1518 H 0.44132 0.74979 0.28222
 H1519 H 0.44120 0.78236 0.25005
 H1520 H 0.41770 0.78984 0.25790
 C1521 C -0.14772 0.81390 0.79899
 C1522 C -0.14610 0.79926 0.79746
 C1523 C -0.15709 0.79016 0.80145
 C1524 C -0.16962 0.79568 0.80703
 C1525 C -0.17129 0.81037 0.80870
 C1526 C -0.16024 0.81943 0.80457
 C1527 C -0.13303 0.79360 0.79210
 C1528 C -0.12197 0.78901 0.78773
 C1529 C -0.10890 0.78382 0.78276
 C1530 C -0.09762 0.77955 0.77862
 C1531 C -0.08404 0.77465 0.77379
 C1532 C -0.07733 0.76341 0.78068
 C1533 C -0.06390 0.75901 0.77633
 C1534 C -0.05700 0.76581 0.76501
 C1535 C -0.06393 0.77702 0.75807
 C1536 C -0.07735 0.78139 0.76245
 H1537 H -0.13927 0.82103 0.79599
 H1538 H -0.15594 0.77880 0.80032
 H1539 H -0.17802 0.78851 0.81008
 H1540 H -0.16122 0.83077 0.80590
 H1541 H -0.08240 0.75815 0.78950
 H1542 H -0.05888 0.75038 0.78194
 H1543 H -0.05893 0.78252 0.74936
 H1544 H -0.08244 0.79014 0.75707
 C1545 C 0.90850 0.30105 0.46082
 C1546 C 0.89766 0.29652 0.45180
 C1547 C 0.89921 0.29792 0.43715
 C1548 C 0.91149 0.30393 0.43152
 C1549 C 0.92238 0.30861 0.44049
 C1550 C 0.92079 0.30705 0.45520
 C1551 C 0.88477 0.29080 0.45755
 C1552 C 0.87382 0.28620 0.46218
 C1553 C 0.86081 0.28105 0.46738
 C1554 C 0.84954 0.27686 0.47163
 C1555 C 0.83590 0.27214 0.47646
 C1556 C 0.82905 0.26096 0.46958
 C1557 C 0.81544 0.25692 0.47371
 C1558 C 0.80847 0.26404 0.48479
 C1559 C 0.81559 0.27510 0.49181
 C1560 C 0.82919 0.27911 0.48766
 H1561 H 0.90740 0.30003 0.47218
 H1562 H 0.89086 0.29452 0.43008
 H1563 H 0.91240 0.30515 0.42017
 H1564 H 0.92908 0.31053 0.46229
 H1565 H 0.83413 0.25552 0.46087
 H1566 H 0.81029 0.24838 0.46806
 H1567 H 0.81056 0.28083 0.50037
 H1568 H 0.83439 0.28781 0.49303
 C1569 C 0.90858 0.80098 -0.03955
 C1570 C 0.89772 0.79645 -0.04855
 C1571 C 0.89923 0.79789 -0.06320
 C1572 C 0.91148 0.80393 -0.06885
 C1573 C 0.92239 0.80861 -0.05990
 C1574 C 0.92085 0.80702 -0.04519
 C1575 C 0.88486 0.79071 -0.04278
 C1576 C 0.87393 0.78608 -0.03813
 C1577 C 0.86094 0.78089 -0.03291
 C1578 C 0.84969 0.77666 -0.02865
 C1579 C 0.83607 0.77188 -0.02381
 C1580 C 0.82929 0.76064 -0.03065
 C1581 C 0.81570 0.75654 -0.02653
 C1582 C 0.80867 0.76367 -0.01549
 C1583 C 0.81571 0.77480 -0.00851
 C1584 C 0.82930 0.77887 -0.01266
 H1585 H 0.90751 0.79993 -0.02819
 H1586 H 0.89087 0.79449 -0.07025
 H1587 H 0.91236 0.80519 -0.08020
 H1588 H 0.92915 0.81049 -0.03811
 H1589 H 0.83442 0.75518 -0.03933
 H1590 H 0.81061 0.74795 -0.03215
 H1591 H 0.81063 0.78054 0.00001
 H1592 H 0.83444 0.78762 -0.00732
 C1593 C -0.14855 -0.06346 -0.04901
 C1594 C -0.14665 -0.04881 -0.04786
 C1595 C -0.15735 -0.03962 -0.05232
 C1596 C -0.16987 -0.04506 -0.05801
 C1597 C -0.17182 -0.05976 -0.05930
 C1598 C -0.16105 -0.06891 -0.05470
 C1599 C -0.13358 -0.04326 -0.04238
 C1600 C -0.12252 -0.03875 -0.03792
 C1601 C -0.10945 -0.03364 -0.03285
 C1602 C -0.09818 -0.02942 -0.02865
 C1603 C -0.08461 -0.02455 -0.02378
 C1604 C -0.07782 -0.01334 -0.03067
 C1605 C -0.06441 -0.00894 -0.02627
 C1606 C -0.05759 -0.01571 -0.01490
 C1607 C -0.06459 -0.02689 -0.00796
 C1608 C -0.07800 -0.03127 -0.01238
 H1609 H -0.14031 -0.07067 -0.04564
 H1610 H -0.15598 -0.02827 -0.05149
 H1611 H -0.17806 -0.03782 -0.06142
 H1612 H -0.16225 -0.08026 -0.05572
 H1613 H -0.08283 -0.00810 -0.03953
 H1614 H -0.05934 -0.00033 -0.03189
 H1615 H -0.05966 -0.03237 0.00080
 H1616 H -0.08314 -0.03999 -0.00700
 C1617 C -0.14911 0.43759 0.45204
 C1618 C -0.14713 0.45221 0.45335
 C1619 C -0.15789 0.46149 0.44923
 C1620 C -0.17055 0.45617 0.44372
 C1621 C -0.17257 0.44150 0.44226
 C1622 C -0.16174 0.43226 0.44653
 C1623 C -0.13393 0.45765 0.45862
 C1624 C -0.12276 0.46206 0.46290
 C1625 C -0.10957 0.46705 0.46776
 C1626 C -0.09820 0.47117 0.47180
 C1627 C -0.08452 0.47591 0.47649
 C1628 C -0.07786 0.46919 0.48786
 C1629 C -0.06438 0.47347 0.49214
 C1630 C -0.05734 0.48455 0.48507
 C1631 C -0.06419 0.49131 0.47372
 C1632 C -0.07768 0.48701 0.46947
 H1633 H -0.14083 0.43031 0.45514
 H1634 H -0.15647 0.47283 0.45019
 H1635 H -0.17877 0.46348 0.44055
 H1636 H -0.16299 0.42093 0.44536
 H1637 H -0.08305 0.46056 0.49335
 H1638 H -0.05943 0.46800 0.50089
 H1639 H -0.05909 0.49984 0.46801
 H1640 H -0.08272 0.49225 0.46062
 C1641 C 0.35184 -0.06310 0.45038
 C1642 C 0.35373 -0.04844 0.45143
 C1643 C 0.34305 -0.03929 0.44683
 C1644 C 0.33056 -0.04478 0.44111
 C1645 C 0.32862 -0.05948 0.43993
 C1646 C 0.33937 -0.06859 0.44466
 C1647 C 0.36675 -0.04284 0.45697
 C1648 C 0.37778 -0.03831 0.46148
 C1649 C 0.39081 -0.03317 0.46663
 C1650 C 0.40205 -0.02893 0.47090
 C1651 C 0.41559 -0.02405 0.47584
 C1652 C 0.42239 -0.01281 0.46901
 C1653 C 0.43579 -0.00841 0.47345
 C1654 C 0.44259 -0.01523 0.48480
 C1655 C 0.43558 -0.02643 0.49169
 C1656 C 0.42219 -0.03080 0.48722
 H1657 H 0.36005 -0.07028 0.45386
 H1658 H 0.34441 -0.02793 0.44758
 H1659 H 0.32239 -0.03757 0.43759
 H1660 H 0.33818 -0.07995 0.44373
 H1661 H 0.41740 -0.00753 0.46015
 H1662 H 0.44087 0.00021 0.46787
 H1663 H 0.44050 -0.03195 0.50043
 H1664 H 0.41703 -0.03955 0.49256
 C1665 C 0.35188 0.43640 -0.04917
 C1666 C 0.35355 0.45104 -0.04767
 C1667 C 0.34264 0.46016 -0.05176
 C1668 C 0.33013 0.45466 -0.05743
 C1669 C 0.32841 0.43997 -0.05908
 C1670 C 0.33939 0.43089 -0.05484
 C1671 C 0.36659 0.45668 -0.04220
 C1672 C 0.37763 0.46125 -0.03776
 C1673 C 0.39068 0.46642 -0.03270
 C1674 C 0.40193 0.47069 -0.02849
 C1675 C 0.41549 0.47559 -0.02362
 C1676 C 0.42212 0.46887 -0.01224
 C1677 C 0.43553 0.47325 -0.00782
 C1678 C 0.44251 0.48444 -0.01476
 C1679 C 0.43567 0.49123 -0.02611
 C1680 C 0.42226 0.48682 -0.03050
 H1681 H 0.36027 0.42925 -0.04609
 H1682 H 0.34382 0.47151 -0.05065
 H1683 H 0.32179 0.46184 -0.06057
 H1684 H 0.33838 0.41955 -0.05615
 H1685 H 0.41699 0.46013 -0.00686
 H1686 H 0.44047 0.46776 0.00092
 H1687 H 0.44073 0.49985 -0.03172
 H1688 H 0.41724 0.49207 -0.03935
 C1689 C 0.39904 0.43734 0.79899
 C1690 C 0.39767 0.45203 0.79777
 C1691 C 0.40861 0.46088 0.80239
 C1692 C 0.42084 0.45505 0.80830
 C1693 C 0.42225 0.44030 0.80967
 C1694 C 0.41125 0.43150 0.80490
 C1695 C 0.38487 0.45798 0.79211
 C1696 C 0.37398 0.46276 0.78753
 C1697 C 0.36106 0.46811 0.78236
 C1698 C 0.34986 0.47244 0.77811
 C1699 C 0.33630 0.47731 0.77325
 C1700 C 0.32950 0.48848 0.78018
 C1701 C 0.31595 0.49266 0.77601
 C1702 C 0.30900 0.48568 0.76483
 C1703 C 0.31607 0.47464 0.75775
 C1704 C 0.32961 0.47049 0.76195
 H1705 H 0.39061 0.43039 0.79551
 H1706 H 0.40766 0.47227 0.80151
 H1707 H 0.42921 0.46202 0.81185
 H1708 H 0.41202 0.42012 0.80598
 H1709 H 0.33456 0.49381 0.78897
 H1710 H 0.31084 0.50118 0.78171
 H1711 H 0.31105 0.46902 0.74912
 H1712 H 0.33476 0.46180 0.75653
 C1713 C 0.39770 -0.06382 0.29992
 C1714 C 0.39614 -0.04914 0.29868
 C1715 C 0.40702 -0.04016 0.30318
 C1716 C 0.41937 -0.04583 0.30899
 C1717 C 0.42097 -0.06056 0.31036
 C1718 C 0.41003 -0.06950 0.30572
 C1719 C 0.38326 -0.04335 0.29305
 C1720 C 0.37234 -0.03866 0.28846
 C1721 C 0.35942 -0.03335 0.28324
 C1722 C 0.34827 -0.02899 0.27890
 C1723 C 0.33481 -0.02399 0.27387
 C1724 C 0.32813 -0.01263 0.28060
 C1725 C 0.31478 -0.00815 0.27611
 C1726 C 0.30792 -0.01502 0.26481
 C1727 C 0.31482 -0.02634 0.25801
 C1728 C 0.32817 -0.03078 0.26253
 H1729 H 0.38932 -0.07087 0.29652
 H1730 H 0.40593 -0.02878 0.30227
 H1731 H 0.42770 -0.03875 0.31242
 H1732 H 0.41096 -0.08087 0.30681
 H1733 H 0.33316 -0.00732 0.28942
 H1734 H 0.30978 0.00056 0.28161
 H1735 H 0.30986 -0.03189 0.24931
 H1736 H 0.33323 -0.03962 0.25727
 C1737 C 0.10137 0.54846 0.68770
 C1738 C 0.10332 0.54721 0.70232
 C1739 C 0.09255 0.55139 0.71158
 C1740 C 0.07991 0.55690 0.70625
 C1741 C 0.07791 0.55829 0.69158
 C1742 C 0.08875 0.55396 0.68236
 C1743 C 0.11650 0.54192 0.70777
 C1744 C 0.12765 0.53763 0.71218
 C1745 C 0.14083 0.53274 0.71717
 C1746 C 0.15218 0.52868 0.72128
 C1747 C 0.16585 0.52396 0.72601
 C1748 C 0.17256 0.53079 0.73730
 C1749 C 0.18604 0.52653 0.74158
 C1750 C 0.19302 0.51536 0.73461
 C1751 C 0.18611 0.50848 0.72335
 C1752 C 0.17262 0.51277 0.71909
 H1753 H 0.10965 0.54531 0.68044
 H1754 H 0.09396 0.55048 0.72291
 H1755 H 0.07169 0.56010 0.71354
 H1756 H 0.08751 0.55507 0.67103
 H1757 H 0.16742 0.53949 0.74270
 H1758 H 0.19104 0.53208 0.75026
 H1759 H 0.19115 0.49988 0.71772
 H1760 H 0.16754 0.50743 0.71031
 C1761 C 0.09965 0.04676 0.18903
 C1762 C 0.10153 0.04553 0.20366
 C1763 C 0.09075 0.04980 0.21287
 C1764 C 0.07819 0.05540 0.20747
 C1765 C 0.07627 0.05680 0.19279
 C1766 C 0.08710 0.05236 0.18362
 C1767 C 0.11469 0.04024 0.20916
 C1768 C 0.12585 0.03598 0.21358
 C1769 C 0.13908 0.03119 0.21852
 C1770 C 0.15052 0.02727 0.22253
 C1771 C 0.16432 0.02277 0.22706
 C1772 C 0.17116 0.02982 0.23814
 C1773 C 0.18486 0.02592 0.24208
 C1774 C 0.19193 0.01491 0.23495
 C1775 C 0.18486 0.00775 0.22396
 C1776 C 0.17116 0.01168 0.22005
 H1777 H 0.10794 0.04354 0.18181
 H1778 H 0.09211 0.04891 0.22421
 H1779 H 0.06996 0.05870 0.21472
 H1780 H 0.08594 0.05348 0.17229
 H1781 H 0.16597 0.03846 0.24361
 H1782 H 0.18996 0.03168 0.25056
 H1783 H 0.18996 -0.00076 0.21824
 H1784 H 0.16598 0.00617 0.21144
 C1785 C 0.64946 0.70158 0.18697
 C1786 C 0.64804 0.70296 0.20164
 C1787 C 0.65899 0.69852 0.21055
 C1788 C 0.67127 0.69261 0.20480
 C1789 C 0.67272 0.69107 0.19008
 C1790 C 0.66172 0.69568 0.18122
 C1791 C 0.63518 0.70859 0.20751
 C1792 C 0.62424 0.71313 0.21223
 C1793 C 0.61126 0.71824 0.21752
 C1794 C 0.60002 0.72243 0.22182
 C1795 C 0.58641 0.72720 0.22668
 C1796 C 0.57967 0.72025 0.23787
 C1797 C 0.56609 0.72435 0.24206
 C1798 C 0.55906 0.73546 0.23507
 C1799 C 0.56607 0.74254 0.22398
 C1800 C 0.57964 0.73842 0.21982
 H1801 H 0.64102 0.70493 0.17999
 H1802 H 0.65799 0.69952 0.22192
 H1803 H 0.67964 0.68920 0.21181
 H1804 H 0.66253 0.69446 0.16986
 H1805 H 0.58481 0.71153 0.24322
 H1806 H 0.56104 0.71865 0.25061
 H1807 H 0.56099 0.75112 0.21835
 H1808 H 0.58475 0.74384 0.21112
 C1809 C 0.14921 0.70140 0.68690
 C1810 C 0.14778 0.70269 0.70158
 C1811 C 0.15872 0.69816 0.71046
 C1812 C 0.17099 0.69227 0.70468
 C1813 C 0.17245 0.69083 0.68995
 C1814 C 0.16146 0.69551 0.68112
 C1815 C 0.13494 0.70833 0.70748
 C1816 C 0.12403 0.71290 0.71222
 C1817 C 0.11107 0.71806 0.71752
 C1818 C 0.09984 0.72230 0.72182
 C1819 C 0.08626 0.72714 0.72667
 C1820 C 0.07950 0.72028 0.73791
 C1821 C 0.06594 0.72444 0.74208
 C1822 C 0.05893 0.73553 0.73503
 C1823 C 0.06595 0.74253 0.72391
 C1824 C 0.07951 0.73834 0.71976
 H1825 H 0.14079 0.70481 0.67993
 H1826 H 0.15772 0.69910 0.72184
 H1827 H 0.17935 0.68880 0.71168
 H1828 H 0.16228 0.69437 0.66975
 H1829 H 0.08461 0.71157 0.74331
 H1830 H 0.06087 0.71880 0.75067
 H1831 H 0.06090 0.75109 0.71823
 H1832 H 0.08463 0.74370 0.71102
 C1833 C 0.59181 0.19901 0.53842
 C1834 C 0.60259 0.20322 0.54766
 C1835 C 0.60061 0.20205 0.56228
 C1836 C 0.58797 0.19659 0.56766
 C1837 C 0.57713 0.19223 0.55845
 C1838 C 0.57915 0.19355 0.54378
 C1839 C 0.61580 0.20844 0.54218
 C1840 C 0.62698 0.21267 0.53774
 C1841 C 0.64018 0.21749 0.53272
 C1842 C 0.65156 0.22148 0.52858
 C1843 C 0.66525 0.22613 0.52381
 C1844 C 0.67206 0.23737 0.53064
 C1845 C 0.68556 0.24160 0.52633
 C1846 C 0.69246 0.23463 0.51512
 C1847 C 0.68545 0.22341 0.50825
 C1848 C 0.67195 0.21920 0.51258
 H1849 H 0.59324 0.19986 0.52708
 H1850 H 0.60889 0.20522 0.56953
 H1851 H 0.58672 0.19554 0.57899
 H1852 H 0.57093 0.19032 0.53651
 H1853 H 0.66698 0.24278 0.53937
 H1854 H 0.69062 0.25025 0.53189
 H1855 H 0.69044 0.21778 0.49961
 H1856 H 0.66679 0.21046 0.50725
 C1857 C 0.59212 0.71116 0.05062
 C1858 C 0.60282 0.70179 0.04651
 C1859 C 0.60077 0.68719 0.04791
 C1860 C 0.58812 0.68197 0.05349
 C1861 C 0.57735 0.69130 0.05775
 C1862 C 0.57945 0.70595 0.05620
 C1863 C 0.61604 0.70712 0.04115
 C1864 C 0.62722 0.71145 0.03681
 C1865 C 0.64043 0.71637 0.03189
 C1866 C 0.65181 0.72044 0.02782
 C1867 C 0.66550 0.72516 0.02312
 C1868 C 0.67223 0.73642 0.02999
 C1869 C 0.68573 0.74072 0.02574
 C1870 C 0.69269 0.73379 0.01453
 C1871 C 0.68576 0.72256 0.00762
 C1872 C 0.67226 0.71828 0.01190
 H1873 H 0.59361 0.72249 0.04959
 H1874 H 0.60900 0.67984 0.04482
 H1875 H 0.58681 0.67065 0.05472
 H1876 H 0.57128 0.71332 0.05936
 H1877 H 0.66710 0.74179 0.03871
 H1878 H 0.69074 0.74938 0.03132
 H1879 H 0.69080 0.71696 -0.00102
 H1880 H 0.66716 0.70953 0.00653
 C1881 C 0.15953 0.04924 0.03719
 C1882 C 0.14881 0.04492 0.04644
 C1883 C 0.15075 0.04618 0.06106
 C1884 C 0.16329 0.05185 0.06642
 C1885 C 0.17407 0.05635 0.05720
 C1886 C 0.17210 0.05491 0.04253
 C1887 C 0.13564 0.03957 0.04099
 C1888 C 0.12447 0.03527 0.03662
 C1889 C 0.11123 0.03044 0.03172
 C1890 C 0.09979 0.02650 0.02773
 C1891 C 0.08597 0.02200 0.02320
 C1892 C 0.07912 0.01088 0.03019
 C1893 C 0.06542 0.00696 0.02628
 C1894 C 0.05834 0.01414 0.01532
 C1895 C 0.06542 0.02517 0.00823
 C1896 C 0.07913 0.02907 0.01216
 H1897 H 0.15814 0.04833 0.02585
 H1898 H 0.14249 0.04293 0.06832
 H1899 H 0.16450 0.05299 0.07775
 H1900 H 0.18029 0.05825 0.03525
 H1901 H 0.08431 0.00537 0.03878
 H1902 H 0.06031 -0.00156 0.03199
 H1903 H 0.06031 0.03094 -0.00024
 H1904 H 0.08432 0.03772 0.00671
 C1905 C 0.15856 0.55169 0.53930
 C1906 C 0.14766 0.54712 0.54823
 C1907 C 0.14913 0.54842 0.56290
 C1908 C 0.16138 0.55436 0.56863
 C1909 C 0.17234 0.55908 0.55974
 C1910 C 0.17084 0.55763 0.54502
 C1911 C 0.13481 0.54143 0.54239
 C1912 C 0.12389 0.53684 0.53769
 C1913 C 0.11091 0.53167 0.53244
 C1914 C 0.09967 0.52743 0.52817
 C1915 C 0.08606 0.52262 0.52336
 C1916 C 0.07929 0.51141 0.53026
 C1917 C 0.06571 0.50727 0.52615
 C1918 C 0.05869 0.51432 0.51507
 C1919 C 0.06572 0.52541 0.50803
 C1920 C 0.07931 0.52953 0.51216
 H1921 H 0.15753 0.55075 0.52792
 H1922 H 0.14073 0.54497 0.56990
 H1923 H 0.16223 0.55550 0.57999
 H1924 H 0.17917 0.56114 0.53799
 H1925 H 0.08441 0.50601 0.53896
 H1926 H 0.06063 0.49870 0.53182
 H1927 H 0.06066 0.53109 0.49948
 H1928 H 0.08444 0.53825 0.50678
 C1929 C 0.65898 0.05085 0.53829
 C1930 C 0.64822 0.04619 0.54735
 C1931 C 0.64993 0.04732 0.56201
 C1932 C 0.66229 0.05318 0.56760
 C1933 C 0.67310 0.05799 0.55859
 C1934 C 0.67135 0.05671 0.54388
 C1935 C 0.63525 0.04062 0.54165
 C1936 C 0.62424 0.03613 0.53708
 C1937 C 0.61116 0.03108 0.53195
 C1938 C 0.59984 0.02696 0.52778
 C1939 C 0.58615 0.02228 0.52306
 C1940 C 0.57934 0.01110 0.52997
 C1941 C 0.56570 0.00707 0.52593
 C1942 C 0.55866 0.01420 0.51492
 C1943 C 0.56573 0.02528 0.50788
 C1944 C 0.57937 0.02929 0.51195
 H1945 H 0.65775 0.05005 0.52693
 H1946 H 0.64165 0.04381 0.56911
 H1947 H 0.66332 0.05419 0.57896
 H1948 H 0.67957 0.06030 0.53675
 H1949 H 0.58448 0.00563 0.53862
 H1950 H 0.56060 -0.00149 0.53160
 H1951 H 0.56065 0.03102 0.49938
 H1952 H 0.58453 0.03799 0.50656
 C1953 C 0.65854 0.55108 0.03957
 C1954 C 0.64761 0.54659 0.04850
 C1955 C 0.64906 0.54795 0.06317
 C1956 C 0.66133 0.55389 0.06889
 C1957 C 0.67231 0.55854 0.06000
 C1958 C 0.67082 0.55702 0.04528
 C1959 C 0.63475 0.54094 0.04266
 C1960 C 0.62381 0.53638 0.03796
 C1961 C 0.61082 0.53126 0.03270
 C1962 C 0.59957 0.52706 0.02842
 C1963 C 0.58595 0.52229 0.02358
 C1964 C 0.57920 0.51101 0.03038
 C1965 C 0.56561 0.50691 0.02627
 C1966 C 0.55856 0.51407 0.01528
 C1967 C 0.56557 0.52524 0.00834
 C1968 C 0.57916 0.52932 0.01248
 H1969 H 0.65752 0.55010 0.02820
 H1970 H 0.64065 0.54457 0.07017
 H1971 H 0.66216 0.55508 0.08024
 H1972 H 0.67917 0.56047 0.03824
 H1973 H 0.58434 0.50553 0.03902
 H1974 H 0.56055 0.49828 0.03186
 H1975 H 0.56048 0.53100 -0.00014
 H1976 H 0.58428 0.53810 0.00717
 C1977 C 0.04681 0.06091 0.15127
 C1978 C 0.04558 0.04625 0.14951
 C1979 C 0.04999 0.03714 0.16031
 C1980 C 0.05572 0.04267 0.17278
 C1981 C 0.05711 0.05737 0.17457
 C1982 C 0.05254 0.06644 0.16372
 C1983 C 0.04016 0.04062 0.13645
 C1984 C 0.03579 0.03610 0.12536
 C1985 C 0.03087 0.03104 0.11221
 C1986 C 0.02685 0.02693 0.10083
 C1987 C 0.02226 0.02228 0.08708
 C1988 C 0.01115 0.02925 0.08025
 C1989 C 0.00716 0.02524 0.06659
 C1990 C 0.01425 0.01420 0.05955
 C1991 C 0.02527 0.00710 0.06662
 C1992 C 0.02923 0.01114 0.08028
 H1993 H 0.04348 0.06805 0.14296
 H1994 H 0.04911 0.02578 0.15905
 H1995 H 0.05913 0.03549 0.18102
 H1996 H 0.05364 0.07780 0.16479
 H1997 H 0.00570 0.03792 0.08541
 H1998 H -0.00135 0.03095 0.06149
 H1999 H 0.03097 -0.00143 0.06153
 H2000 H 0.03788 0.00569 0.08546
 C2001 C 0.04802 0.56193 0.65029
 C2002 C 0.04695 0.54726 0.64858
 C2003 C 0.05161 0.53823 0.65934
 C2004 C 0.05742 0.54385 0.67173
 C2005 C 0.05863 0.55858 0.67348
 C2006 C 0.05382 0.56757 0.66266
 C2007 C 0.04141 0.54153 0.63561
 C2008 C 0.03693 0.53693 0.62459
 C2009 C 0.03189 0.53177 0.61153
 C2010 C 0.02775 0.52757 0.60023
 C2011 C 0.02303 0.52282 0.58656
 C2012 C 0.02990 0.51157 0.57982
 C2013 C 0.02583 0.50744 0.56621
 C2014 C 0.01482 0.51454 0.55914
 C2015 C 0.00782 0.52569 0.56613
 C2016 C 0.01192 0.52979 0.57973
 H2017 H 0.04450 0.56902 0.64201
 H2018 H 0.05086 0.52685 0.65811
 H2019 H 0.06100 0.53674 0.67995
 H2020 H 0.05478 0.57894 0.66370
 H2021 H 0.03854 0.50613 0.58499
 H2022 H 0.03146 0.49884 0.56117
 H2023 H -0.00068 0.53140 0.56103
 H2024 H 0.00655 0.53853 0.58484
 C2025 C 0.53766 0.04949 0.66006
 C2026 C 0.54681 0.04517 0.64926
 C2027 C 0.56144 0.04649 0.65104
 C2028 C 0.56691 0.05223 0.66351
 C2029 C 0.55779 0.05672 0.67437
 C2030 C 0.54311 0.05523 0.67256
 C2031 C 0.54124 0.03975 0.63617
 C2032 C 0.53676 0.03539 0.62505
 C2033 C 0.53173 0.03051 0.61188
 C2034 C 0.52762 0.02653 0.60049
 C2035 C 0.52295 0.02200 0.58673
 C2036 C 0.52979 0.01082 0.57986
 C2037 C 0.52575 0.00689 0.56619
 C2038 C 0.51480 0.01412 0.55918
 C2039 C 0.50784 0.02522 0.56628
 C2040 C 0.51190 0.02912 0.57995
 H2041 H 0.52632 0.04853 0.65879
 H2042 H 0.56862 0.04324 0.64272
 H2043 H 0.57824 0.05341 0.66460
 H2044 H 0.53591 0.05856 0.68081
 H2045 H 0.53839 0.00526 0.58500
 H2046 H 0.53136 -0.00168 0.56106
 H2047 H 0.49938 0.03103 0.56122
 H2048 H 0.50656 0.03783 0.58515
 C2049 C 0.56268 0.54726 0.15030
 C2050 C 0.54803 0.54574 0.14883
 C2051 C 0.53905 0.55001 0.15979
 C2052 C 0.54468 0.55589 0.17214
 C2053 C 0.55937 0.55758 0.17365
 C2054 C 0.56832 0.55314 0.16263
 C2055 C 0.54227 0.54017 0.13589
 C2056 C 0.53762 0.53569 0.12489
 C2057 C 0.53239 0.53067 0.11185
 C2058 C 0.52813 0.52657 0.10056
 C2059 C 0.52328 0.52192 0.08690
 C2060 C 0.51217 0.52900 0.08018
 C2061 C 0.50797 0.52500 0.06658
 C2062 C 0.51488 0.51387 0.05947
 C2063 C 0.52589 0.50667 0.06644
 C2064 C 0.53005 0.51069 0.08004
 H2065 H 0.56973 0.54405 0.14186
 H2066 H 0.52769 0.54890 0.15875
 H2067 H 0.53760 0.55918 0.18052
 H2068 H 0.57966 0.55447 0.16348
 H2069 H 0.50688 0.53774 0.08538
 H2070 H 0.49948 0.53080 0.06155
 H2071 H 0.53145 0.49807 0.06130
 H2072 H 0.53870 0.50517 0.08513
 C2073 C 0.20088 0.56357 0.60190
 C2074 C 0.20235 0.54893 0.60358
 C2075 C 0.19830 0.53980 0.59265
 C2076 C 0.19268 0.54529 0.58012
 C2077 C 0.19105 0.55997 0.57840
 C2078 C 0.19526 0.56907 0.58939
 C2079 C 0.20774 0.54331 0.61665
 C2080 C 0.21212 0.53875 0.62771
 C2081 C 0.21710 0.53358 0.64079
 C2082 C 0.22123 0.52931 0.65206
 C2083 C 0.22604 0.52441 0.66564
 C2084 C 0.21911 0.51319 0.67238
 C2085 C 0.22345 0.50876 0.68579
 C2086 C 0.23480 0.51553 0.69268
 C2087 C 0.24178 0.52672 0.68574
 C2088 C 0.23741 0.53112 0.67232
 H2089 H 0.20393 0.57073 0.61032
 H2090 H 0.19939 0.52845 0.59384
 H2091 H 0.18957 0.53810 0.57176
 H2092 H 0.19397 0.58041 0.58837
 H2093 H 0.21027 0.50795 0.66732
 H2094 H 0.21781 0.50015 0.69082
 H2095 H 0.25052 0.53220 0.69071
 H2096 H 0.24282 0.53985 0.66722
 C2097 C 0.20053 0.03690 0.08962
 C2098 C 0.20492 0.04606 0.10040
 C2099 C 0.20363 0.06071 0.09863
 C2100 C 0.19785 0.06618 0.08619
 C2101 C 0.19329 0.05707 0.07535
 C2102 C 0.19475 0.04237 0.07716
 C2103 C 0.21038 0.04048 0.11346
 C2104 C 0.21476 0.03601 0.12456
 C2105 C 0.21969 0.03102 0.13773
 C2106 C 0.22372 0.02697 0.14912
 C2107 C 0.22831 0.02240 0.16289
 C2108 C 0.23935 0.02949 0.16973
 C2109 C 0.24331 0.02558 0.18342
 C2110 C 0.23624 0.01453 0.19049
 C2111 C 0.22530 0.00731 0.18341
 C2112 C 0.22136 0.01125 0.16971
 H2113 H 0.20146 0.02555 0.09089
 H2114 H 0.20694 0.06789 0.10693
 H2115 H 0.19669 0.07753 0.08511
 H2116 H 0.19136 0.03516 0.06893
 H2117 H 0.24477 0.03817 0.16456
 H2118 H 0.25177 0.03138 0.18853
 H2119 H 0.21961 -0.00122 0.18851
 H2120 H 0.21277 0.00572 0.16453
 C2121 C 0.69893 0.21173 0.65774
 C2122 C 0.70316 0.20242 0.64701
 C2123 C 0.70200 0.18780 0.64906
 C2124 C 0.69654 0.18249 0.66173
 C2125 C 0.69217 0.19175 0.67252
 C2126 C 0.69347 0.20642 0.67042
 C2127 C 0.70839 0.20783 0.63378
 C2128 C 0.71263 0.21222 0.62258
 C2129 C 0.71745 0.21717 0.60935
 C2130 C 0.72146 0.22126 0.59796
 C2131 C 0.72611 0.22595 0.58425
 C2132 C 0.73724 0.21901 0.57741
 C2133 C 0.74147 0.22325 0.56390
 C2134 C 0.73461 0.23452 0.55700
 C2135 C 0.72349 0.24152 0.56404
 C2136 C 0.71929 0.23725 0.57756
 H2137 H 0.69977 0.22306 0.65626
 H2138 H 0.70519 0.18050 0.64081
 H2139 H 0.69550 0.17115 0.66303
 H2140 H 0.69022 0.21374 0.67861
 H2141 H 0.74257 0.21023 0.58248
 H2142 H 0.75004 0.21760 0.55881
 H2143 H 0.71794 0.25021 0.55906
 H2144 H 0.71063 0.24268 0.58274
 C2145 C 0.70113 0.68638 0.14782
 C2146 C 0.70257 0.70101 0.14602
 C2147 C 0.69852 0.71021 0.15690
 C2148 C 0.69296 0.70480 0.16949
 C2149 C 0.69137 0.69012 0.17134
 C2150 C 0.69557 0.68095 0.16039
 C2151 C 0.70790 0.70655 0.13288
 C2152 C 0.71224 0.71104 0.12176
 C2153 C 0.71716 0.71613 0.10862
 C2154 C 0.72126 0.72032 0.09730
 C2155 C 0.72601 0.72513 0.08366
 C2156 C 0.73724 0.71828 0.07689
 C2157 C 0.74156 0.72261 0.06343
 C2158 C 0.73467 0.73386 0.05653
 C2159 C 0.72347 0.74077 0.06350
 C2160 C 0.71918 0.73642 0.07697
 H2161 H 0.70418 0.67916 0.13944
 H2162 H 0.69958 0.72155 0.15562
 H2163 H 0.68985 0.71204 0.17781
 H2164 H 0.69431 0.66962 0.16151
 H2165 H 0.74258 0.70950 0.08196
 H2166 H 0.75019 0.71702 0.05838
 H2167 H 0.71791 0.74944 0.05851
 H2168 H 0.71044 0.74177 0.08210
 C2169 C 0.53842 0.70011 0.09039
 C2170 C 0.54744 0.70437 0.10134
 C2171 C 0.56207 0.70283 0.09982
 C2172 C 0.56768 0.69693 0.08748
 C2173 C 0.55870 0.69250 0.07648
 C2174 C 0.54401 0.69422 0.07803
 C2175 C 0.54171 0.70993 0.11430
 C2176 C 0.53710 0.71439 0.12532
 C2177 C 0.53193 0.71940 0.13840
 C2178 C 0.52773 0.72347 0.14973
 C2179 C 0.52298 0.72810 0.16343
 C2180 C 0.52976 0.73937 0.17022
 C2181 C 0.52572 0.74335 0.18387
 C2182 C 0.51483 0.73606 0.19097
 C2183 C 0.50790 0.72489 0.18393
 C2184 C 0.51197 0.72095 0.17027
 H2185 H 0.52707 0.70124 0.09147
 H2186 H 0.56914 0.70602 0.10824
 H2187 H 0.57901 0.69558 0.08659
 H2188 H 0.53691 0.69094 0.06967
 H2189 H 0.53833 0.74495 0.16503
 H2190 H 0.53130 0.75197 0.18895
 H2191 H 0.49949 0.71904 0.18906
 H2192 H 0.50667 0.71217 0.16513
 C2193 C 0.04739 0.68855 0.59950
 C2194 C 0.04637 0.70322 0.60121
 C2195 C 0.05105 0.71224 0.59043
 C2196 C 0.05683 0.70660 0.57804
 C2197 C 0.05800 0.69187 0.57629
 C2198 C 0.05316 0.68289 0.58713
 C2199 C 0.04088 0.70897 0.61420
 C2200 C 0.03646 0.71358 0.62523
 C2201 C 0.03147 0.71874 0.63832
 C2202 C 0.02739 0.72292 0.64966
 C2203 C 0.02274 0.72765 0.66336
 C2204 C 0.02966 0.73887 0.67009
 C2205 C 0.02568 0.74295 0.68374
 C2206 C 0.01472 0.73580 0.69088
 C2207 C 0.00767 0.72468 0.68390
 C2208 C 0.01167 0.72064 0.67025
 H2209 H 0.04386 0.68147 0.60781
 H2210 H 0.05033 0.72362 0.59165
 H2211 H 0.06043 0.71370 0.56980
 H2212 H 0.05409 0.67152 0.58610
 H2213 H 0.03828 0.74435 0.66487
 H2214 H 0.03136 0.75153 0.68878
 H2215 H -0.00080 0.71893 0.68905
 H2216 H 0.00627 0.71190 0.66515
 C2217 C 0.55166 0.59108 0.21207
 C2218 C 0.54698 0.60176 0.20294
 C2219 C 0.54806 0.59991 0.18830
 C2220 C 0.55390 0.58750 0.18279
 C2221 C 0.55873 0.57676 0.19187
 C2222 C 0.55750 0.57865 0.20657
 C2223 C 0.54142 0.61478 0.20855
 C2224 C 0.53693 0.62583 0.21306
 C2225 C 0.53188 0.63894 0.21812
 C2226 C 0.52776 0.65028 0.22225
 C2227 C 0.52308 0.66399 0.22695
 C2228 C 0.51197 0.67082 0.21998
 C2229 C 0.50792 0.68446 0.22403
 C2230 C 0.51498 0.69149 0.23511
 C2231 C 0.52599 0.68441 0.24220
 C2232 C 0.53001 0.67077 0.23813
 H2233 H 0.55089 0.59241 0.22343
 H2234 H 0.54454 0.60813 0.18114
 H2235 H 0.55487 0.58635 0.17144
 H2236 H 0.56109 0.57050 0.21376
 H2237 H 0.50656 0.66568 0.21128
 H2238 H 0.49942 0.68957 0.21833
 H2239 H 0.53167 0.68949 0.25076
 H2240 H 0.53866 0.66560 0.24356
 C2241 C 0.06248 0.60044 0.70261
 C2242 C 0.04783 0.60192 0.70407
 C2243 C 0.03886 0.59090 0.69988
 C2244 C 0.04452 0.57849 0.69413
 C2245 C 0.05922 0.57698 0.69250
 C2246 C 0.06815 0.58806 0.69686
 C2247 C 0.04205 0.61491 0.70952
 C2248 C 0.03739 0.62594 0.71390
 C2249 C 0.03218 0.63904 0.71883
 C2250 C 0.02794 0.65037 0.72286
 C2251 C 0.02317 0.66408 0.72746
 C2252 C 0.01209 0.67084 0.72037
 C2253 C 0.00797 0.68449 0.72431
 C2254 C 0.01492 0.69160 0.73541
 C2255 C 0.02590 0.68459 0.74263
 C2256 C 0.02998 0.67094 0.73866
 H2257 H 0.06952 0.60893 0.70577
 H2258 H 0.02751 0.59194 0.70095
 H2259 H 0.03745 0.57007 0.69089
 H2260 H 0.07949 0.58720 0.69557
 H2261 H 0.00677 0.66564 0.71165
 H2262 H -0.00050 0.68955 0.71851
 H2263 H 0.03150 0.68972 0.75120
 H2264 H 0.03860 0.66582 0.74419
 C2265 C 0.04584 0.15087 0.06119
 C2266 C 0.04450 0.14903 0.04657
 C2267 C 0.04878 0.15982 0.03737
 C2268 C 0.05450 0.17235 0.04277
 C2269 C 0.05602 0.17423 0.05745
 C2270 C 0.05156 0.16338 0.06661
 C2271 C 0.03911 0.13589 0.04105
 C2272 C 0.03478 0.12473 0.03663
 C2273 C 0.02994 0.11150 0.03167
 C2274 C 0.02599 0.10006 0.02764
 C2275 C 0.02151 0.08623 0.02307
 C2276 C 0.02869 0.07935 0.01211
 C2277 C 0.02484 0.06561 0.00817
 C2278 C 0.01376 0.05854 0.01518
 C2279 C 0.00646 0.06567 0.02605
 C2280 C 0.01033 0.07940 0.02996
 H2281 H 0.04262 0.14256 0.06841
 H2282 H 0.04781 0.15849 0.02603
 H2283 H 0.05781 0.18059 0.03553
 H2284 H 0.05276 0.16451 0.07794
 H2285 H 0.03739 0.08453 0.00673
 H2286 H 0.03070 0.06047 -0.00023
 H2287 H -0.00211 0.06057 0.03169
 H2288 H 0.00473 0.08462 0.03849
 C2289 C 0.03822 0.65949 0.54995
 C2290 C 0.04718 0.64846 0.54578
 C2291 C 0.06183 0.64995 0.54724
 C2292 C 0.06750 0.66235 0.55297
 C2293 C 0.05858 0.67342 0.55731
 C2294 C 0.04388 0.67190 0.55568
 C2295 C 0.04139 0.63546 0.54036
 C2296 C 0.03675 0.62440 0.53599
 C2297 C 0.03156 0.61129 0.53109
 C2298 C 0.02735 0.59993 0.52708
 C2299 C 0.02261 0.58619 0.52251
 C2300 C 0.02955 0.57928 0.51141
 C2301 C 0.02551 0.56560 0.50748
 C2302 C 0.01446 0.55861 0.51463
 C2303 C 0.00738 0.56577 0.52562
 C2304 C 0.01145 0.57946 0.52952
 H2305 H 0.02686 0.65844 0.54888
 H2306 H 0.06886 0.64146 0.54411
 H2307 H 0.07884 0.66321 0.55426
 H2308 H 0.03682 0.68033 0.55890
 H2309 H 0.03824 0.58438 0.50594
 H2310 H 0.03121 0.56043 0.49899
 H2311 H -0.00115 0.56073 0.53137
 H2312 H 0.00604 0.58470 0.53816
 C2313 C 0.53809 0.15953 0.55031
 C2314 C 0.54706 0.14850 0.54618
 C2315 C 0.56171 0.15001 0.54764
 C2316 C 0.56737 0.16243 0.55334
 C2317 C 0.55843 0.17351 0.55764
 C2318 C 0.54374 0.17197 0.55600
 C2319 C 0.54129 0.13548 0.54078
 C2320 C 0.53666 0.12442 0.53643
 C2321 C 0.53149 0.11129 0.53153
 C2322 C 0.52730 0.09993 0.52751
 C2323 C 0.52259 0.08619 0.52292
 C2324 C 0.51147 0.07940 0.52995
 C2325 C 0.50741 0.06573 0.52599
 C2326 C 0.51446 0.05863 0.51495
 C2327 C 0.52547 0.06567 0.50779
 C2328 C 0.52950 0.07934 0.51177
 H2329 H 0.52673 0.15847 0.54924
 H2330 H 0.56875 0.14152 0.54454
 H2331 H 0.57871 0.16331 0.55463
 H2332 H 0.53667 0.18040 0.55919
 H2333 H 0.50607 0.08459 0.53862
 H2334 H 0.49890 0.06065 0.53175
 H2335 H 0.53114 0.06055 0.49926
 H2336 H 0.53816 0.08448 0.50628
 C2337 C 0.55085 0.65894 0.03813
 C2338 C 0.54615 0.64828 0.04729
 C2339 C 0.54724 0.65015 0.06193
 C2340 C 0.55310 0.66257 0.06741
 C2341 C 0.55796 0.67329 0.05829
 C2342 C 0.55671 0.67138 0.04360
 C2343 C 0.54058 0.63524 0.04171
 C2344 C 0.53609 0.62417 0.03723
 C2345 C 0.53106 0.61104 0.03221
 C2346 C 0.52695 0.59967 0.02811
 C2347 C 0.52231 0.58594 0.02345
 C2348 C 0.51114 0.57913 0.03038
 C2349 C 0.50712 0.56546 0.02638
 C2350 C 0.51427 0.55838 0.01538
 C2351 C 0.52533 0.56544 0.00832
 C2352 C 0.52932 0.57911 0.01235
 H2353 H 0.55007 0.65758 0.02678
 H2354 H 0.54370 0.64195 0.06911
 H2355 H 0.55409 0.66374 0.07875
 H2356 H 0.56033 0.67952 0.03639
 H2357 H 0.50566 0.58430 0.03902
 H2358 H 0.49858 0.56036 0.03206
 H2359 H 0.53108 0.56033 -0.00017
 H2360 H 0.53801 0.58427 0.00694
 C2361 C 0.68725 0.10078 0.54828
 C2362 C 0.70187 0.10278 0.54703
 C2363 C 0.71114 0.09204 0.55124
 C2364 C 0.70582 0.07939 0.55679
 C2365 C 0.69116 0.07735 0.55820
 C2366 C 0.68193 0.08815 0.55383
 C2367 C 0.70730 0.11598 0.54171
 C2368 C 0.71171 0.12714 0.53740
 C2369 C 0.71671 0.14034 0.53250
 C2370 C 0.72085 0.15170 0.52843
 C2371 C 0.72562 0.16538 0.52372
 C2372 C 0.73684 0.17213 0.53062
 C2373 C 0.74118 0.18561 0.52635
 C2374 C 0.73434 0.19255 0.51510
 C2375 C 0.72314 0.18560 0.50815
 C2376 C 0.71882 0.17212 0.51245
 H2377 H 0.67999 0.10904 0.54510
 H2378 H 0.72247 0.09348 0.55033
 H2379 H 0.71312 0.07119 0.56004
 H2380 H 0.67060 0.08689 0.55494
 H2381 H 0.74215 0.16702 0.53939
 H2382 H 0.74980 0.19064 0.53197
 H2383 H 0.71760 0.19062 0.49948
 H2384 H 0.71010 0.16700 0.50706
 C2385 C 0.71059 0.59227 0.05262
 C2386 C 0.70143 0.60296 0.04803
 C2387 C 0.68680 0.60107 0.04912
 C2388 C 0.68132 0.58859 0.05485
 C2389 C 0.69043 0.57783 0.05958
 C2390 C 0.70512 0.57977 0.05835
 C2391 C 0.70701 0.61601 0.04250
 C2392 C 0.71154 0.62705 0.03800
 C2393 C 0.71667 0.64011 0.03288
 C2394 C 0.72091 0.65137 0.02865
 C2395 C 0.72580 0.66494 0.02374
 C2396 C 0.71906 0.67158 0.01238
 C2397 C 0.72344 0.68500 0.00794
 C2398 C 0.73465 0.69198 0.01484
 C2399 C 0.74145 0.68513 0.02617
 C2400 C 0.73704 0.67171 0.03058
 H2401 H 0.72193 0.59364 0.05184
 H2402 H 0.67962 0.60929 0.04565
 H2403 H 0.66998 0.58739 0.05582
 H2404 H 0.71233 0.57160 0.06187
 H2405 H 0.71031 0.66646 0.00703
 H2406 H 0.71794 0.68995 -0.00079
 H2407 H 0.75008 0.69018 0.03176
 H2408 H 0.74230 0.66668 0.03942
 C2409 C 0.21078 0.65716 0.69703
 C2410 C 0.20164 0.64643 0.70160
 C2411 C 0.18700 0.64829 0.70056
 C2412 C 0.18151 0.66079 0.69490
 C2413 C 0.19060 0.67159 0.69021
 C2414 C 0.20530 0.66968 0.69137
 C2415 C 0.20724 0.63337 0.70706
 C2416 C 0.21177 0.62233 0.71152
 C2417 C 0.21691 0.60926 0.71659
 C2418 C 0.22116 0.59800 0.72079
 C2419 C 0.22604 0.58443 0.72565
 C2420 C 0.23734 0.57773 0.71884
 C2421 C 0.24175 0.56431 0.72321
 C2422 C 0.23490 0.55738 0.73448
 C2423 C 0.22363 0.56429 0.74136
 C2424 C 0.21925 0.57771 0.73696
 H2425 H 0.22213 0.65583 0.69778
 H2426 H 0.17983 0.64004 0.70401
 H2427 H 0.17016 0.66196 0.69398
 H2428 H 0.21249 0.67788 0.68788
 H2429 H 0.24265 0.58282 0.71005
 H2430 H 0.25043 0.55932 0.71765
 H2431 H 0.21809 0.55928 0.75004
 H2432 H 0.21046 0.58278 0.74228
 C2433 C 0.20072 0.16011 0.21239
 C2434 C 0.20501 0.14930 0.20321
 C2435 C 0.20366 0.15108 0.18858
 C2436 C 0.19793 0.16357 0.18314
 C2437 C 0.19348 0.17444 0.19227
 C2438 C 0.19500 0.17262 0.20695
 C2439 C 0.21041 0.13619 0.20876
 C2440 C 0.21476 0.12507 0.21321
 C2441 C 0.21965 0.11188 0.21820
 C2442 C 0.22364 0.10047 0.22226
 C2443 C 0.22820 0.08669 0.22685
 C2444 C 0.23932 0.07986 0.21987
 C2445 C 0.24328 0.06618 0.22382
 C2446 C 0.23614 0.05910 0.23482
 C2447 C 0.22511 0.06616 0.24192
 C2448 C 0.22118 0.07985 0.23794
 H2449 H 0.20170 0.15883 0.22373
 H2450 H 0.20688 0.14276 0.18139
 H2451 H 0.19673 0.16466 0.17181
 H2452 H 0.19170 0.18087 0.21417
 H2453 H 0.24480 0.08505 0.21124
 H2454 H 0.25180 0.06108 0.21811
 H2455 H 0.21937 0.06105 0.25041
 H2456 H 0.21253 0.08503 0.24339
 C2457 C 0.71233 1.15974 0.69898
 C2458 C 0.70336 1.14894 0.70370
 C2459 C 0.68869 1.15057 0.70264
 C2460 C 0.68301 1.16289 0.69679
 C2461 C 0.69194 1.17374 0.69191
 C2462 C 0.70666 1.17208 0.69312
 C2463 C 0.70913 1.13601 0.70927
 C2464 C 0.71376 1.12502 0.71377
 C2465 C 0.71892 1.11196 0.71884
 C2466 C 0.72310 1.10066 0.72298
 C2467 C 0.72780 1.08697 0.72770
 C2468 C 0.72080 1.08015 0.73881
 C2469 C 0.72481 1.06650 0.74286
 C2470 C 0.73589 1.05946 0.73582
 C2471 C 0.74303 1.06654 0.72482
 C2472 C 0.73900 1.08019 0.72079
 H2473 H 0.72370 1.15858 0.69973
 H2474 H 0.68165 1.14225 0.70620
 H2475 H 0.67165 1.16386 0.69583
 H2476 H 0.71373 1.18033 0.68949
 H2477 H 0.71209 1.08528 0.74420
 H2478 H 0.71906 1.06139 0.75135
 H2479 H 0.75158 1.06146 0.71915
 H2480 H 0.74446 1.08536 0.71214
 C2481 C 0.68721 0.64859 0.20094
 C2482 C 0.70185 0.64671 0.20198
 C2483 C 0.71100 0.65740 0.19735
 C2484 C 0.70554 0.66989 0.19162
 C2485 C 0.69085 0.67182 0.19045
 C2486 C 0.68174 0.66106 0.19521
 C2487 C 0.70743 0.63367 0.20751
 C2488 C 0.71195 0.62263 0.21201
 C2489 C 0.71706 0.60958 0.21711
 C2490 C 0.72129 0.59832 0.22134
 C2491 C 0.72616 0.58475 0.22622
 C2492 C 0.73753 0.57809 0.21947
 C2493 C 0.74193 0.56467 0.22384
 C2494 C 0.73500 0.55770 0.23504
 C2495 C 0.72367 0.56457 0.24185
 C2496 C 0.71930 0.57799 0.23745
 H2497 H 0.68003 0.64036 0.20444
 H2498 H 0.72235 0.65605 0.19809
 H2499 H 0.71274 0.67806 0.18808
 H2500 H 0.67039 0.66224 0.19429
 H2501 H 0.74289 0.58322 0.21073
 H2502 H 0.75066 0.55971 0.21833
 H2503 H 0.71807 0.55953 0.25048
 H2504 H 0.71046 0.58304 0.24272
 C2505 C 0.54684 0.09918 0.68894
 C2506 C 0.54555 0.10103 0.70357
 C2507 C 0.54987 0.09026 0.71276
 C2508 C 0.55559 0.07773 0.70733
 C2509 C 0.55705 0.07585 0.69265
 C2510 C 0.55256 0.08668 0.68351
 C2511 C 0.54014 0.11415 0.70910
 C2512 C 0.53579 0.12528 0.71355
 C2513 C 0.53091 0.13848 0.71854
 C2514 C 0.52692 0.14989 0.72261
 C2515 C 0.52239 0.16368 0.72723
 C2516 C 0.52942 0.17048 0.73832
 C2517 C 0.52551 0.18417 0.74234
 C2518 C 0.51450 0.19127 0.73528
 C2519 C 0.50734 0.18422 0.72427
 C2520 C 0.51128 0.17053 0.72028
 H2521 H 0.54359 0.10748 0.68174
 H2522 H 0.54894 0.09158 0.72410
 H2523 H 0.55892 0.06951 0.71456
 H2524 H 0.55371 0.08554 0.67217
 H2525 H 0.53806 0.16528 0.74375
 H2526 H 0.53126 0.18925 0.75085
 H2527 H 0.49884 0.18935 0.71859
 H2528 H 0.50579 0.16537 0.71164
 C2529 C 1.03771 0.09007 0.20081
 C2530 C 1.04685 0.10094 0.20504
 C2531 C 1.06148 0.09920 0.20366
 C2532 C 1.06696 0.08671 0.19797
 C2533 C 1.05787 0.07578 0.19358
 C2534 C 1.04319 0.07755 0.19512
 C2535 C 1.04127 0.11404 0.21042
 C2536 C 1.03678 0.12517 0.21475
 C2537 C 1.03177 0.13837 0.21961
 C2538 C 1.02769 0.14978 0.22358
 C2539 C 1.02306 0.16356 0.22810
 C2540 C 1.03000 0.17045 0.23921
 C2541 C 1.02602 0.18415 0.24313
 C2542 C 1.01503 0.19117 0.23594
 C2543 C 1.00798 0.18405 0.22492
 C2544 C 1.01199 0.17035 0.22103
 H2545 H 1.02637 0.09131 0.20181
 H2546 H 1.06864 0.10758 0.20683
 H2547 H 1.07829 0.08566 0.19674
 H2548 H 1.03600 0.06925 0.19186
 H2549 H 1.03861 0.16531 0.24472
 H2550 H 1.03169 0.18929 0.25164
 H2551 H 0.99950 0.18912 0.21915
 H2552 H 1.00658 0.16513 0.21238
 C2553 C 0.21056 0.59293 0.55253
 C2554 C 0.20138 0.60362 0.54801
 C2555 C 0.18675 0.60169 0.54908
 C2556 C 0.18130 0.58916 0.55475
 C2557 C 0.19044 0.57840 0.55941
 C2558 C 0.20512 0.58038 0.55820
 C2559 C 0.20694 0.61671 0.54254
 C2560 C 0.21144 0.62778 0.53808
 C2561 C 0.21655 0.64087 0.53302
 C2562 C 0.22077 0.65215 0.52882
 C2563 C 0.22563 0.66574 0.52395
 C2564 C 0.21886 0.67242 0.51263
 C2565 C 0.22324 0.68584 0.50822
 C2566 C 0.23448 0.69280 0.51510
 C2567 C 0.24131 0.68591 0.52639
 C2568 C 0.23690 0.67248 0.53078
 H2569 H 0.22190 0.59431 0.55175
 H2570 H 0.17955 0.60992 0.54567
 H2571 H 0.16996 0.58794 0.55572
 H2572 H 0.21235 0.57221 0.56166
 H2573 H 0.21011 0.66731 0.50729
 H2574 H 0.21772 0.69082 0.49951
 H2575 H 0.24995 0.69095 0.53196
 H2576 H 0.24219 0.66743 0.53959
 C2577 C 0.18862 0.09883 1.04626
 C2578 C 0.20324 0.10066 1.04483
 C2579 C 0.21244 0.08985 1.04903
 C2580 C 0.20705 0.07731 1.05474
 C2581 C 0.19238 0.07544 1.05634
 C2582 C 0.18322 0.08631 1.05197
 C2583 C 0.20874 0.11380 1.03943
 C2584 C 0.21315 0.12495 1.03509
 C2585 C 0.21810 0.13817 1.03021
 C2586 C 0.22213 0.14960 1.02623
 C2587 C 0.22669 0.16341 1.02170
 C2588 C 0.23775 0.17026 1.02875
 C2589 C 0.24172 0.18397 1.02484
 C2590 C 0.23463 0.19104 1.01382
 C2591 C 0.22366 0.18395 1.00665
 C2592 C 0.21973 0.17024 1.01059
 H2593 H 0.18140 0.10715 1.04311
 H2594 H 0.22377 0.09117 1.04799
 H2595 H 0.21429 0.06906 1.05798
 H2596 H 0.17190 0.08518 1.05324
 H2597 H 0.24319 0.16508 1.03739
 H2598 H 0.25019 0.18909 1.03059
 H2599 H 0.21797 0.18905 0.99814
 H2600 H 0.21112 0.16505 1.00509
 C2601 C 0.19830 0.71024 0.65696
 C2602 C 0.20237 0.70113 0.64601
 C2603 C 0.20094 0.68648 0.64769
 C2604 C 0.19535 0.68096 0.66022
 C2605 C 0.19113 0.69003 0.67123
 C2606 C 0.19271 0.70473 0.66950
 C2607 C 0.20774 0.70678 0.63293
 C2608 C 0.21210 0.71136 0.62186
 C2609 C 0.21706 0.71655 0.60877
 C2610 C 0.22118 0.72082 0.59749
 C2611 C 0.22597 0.72572 0.58389
 C2612 C 0.23721 0.71890 0.57710
 C2613 C 0.24154 0.72329 0.56366
 C2614 C 0.23467 0.73459 0.55681
 C2615 C 0.22348 0.74148 0.56382
 C2616 C 0.21916 0.73706 0.57726
 H2617 H 0.19935 0.72159 0.65577
 H2618 H 0.20401 0.67934 0.63927
 H2619 H 0.19410 0.66961 0.66124
 H2620 H 0.18959 0.71190 0.67787
 H2621 H 0.24252 0.71009 0.58213
 H2622 H 0.25017 0.71772 0.55860
 H2623 H 0.21792 0.75018 0.55886
 H2624 H 0.21043 0.74239 0.58241
 C2625 C 0.18885 0.20361 1.15058
 C2626 C 0.20346 0.20494 1.14869
 C2627 C 0.21268 0.20066 1.15945
 C2628 C 0.20730 0.19498 1.17200
 C2629 C 0.19263 0.19349 1.17392
 C2630 C 0.18346 0.19793 1.16311
 C2631 C 0.20895 0.21030 1.13554
 C2632 C 0.21336 0.21462 1.12438
 C2633 C 0.21829 0.21945 1.11115
 C2634 C 0.22231 0.22340 1.09971
 C2635 C 0.22686 0.22788 1.08589
 C2636 C 0.23783 0.22072 1.07901
 C2637 C 0.24177 0.22457 1.06528
 C2638 C 0.23475 0.23565 1.05823
 C2639 C 0.22388 0.24293 1.06535
 C2640 C 0.21997 0.23905 1.07907
 H2641 H 0.18162 0.20683 1.14230
 H2642 H 0.22402 0.20162 1.15809
 H2643 H 0.21455 0.19168 1.18021
 H2644 H 0.17213 0.19674 1.16428
 H2645 H 0.24321 0.21202 1.08417
 H2646 H 0.25017 0.21872 1.06014
 H2647 H 0.21824 0.25149 1.06026
 H2648 H 0.21144 0.24464 1.08429
 C2649 C 0.69822 0.53945 0.09307
 C2650 C 0.70230 0.54866 0.10394
 C2651 C 0.70083 0.56329 0.10216
 C2652 C 0.69521 0.56870 0.08962
 C2653 C 0.69099 0.55953 0.07868
 C2654 C 0.69260 0.54486 0.08051
 C2655 C 0.70771 0.54313 0.11704
 C2656 C 0.71212 0.53865 0.12812
 C2657 C 0.71713 0.53356 0.14122
 C2658 C 0.72129 0.52937 0.15251
 C2659 C 0.72612 0.52455 0.16611
 C2660 C 0.73742 0.53137 0.17280
 C2661 C 0.74181 0.52704 0.18623
 C2662 C 0.73493 0.51579 0.19318
 C2663 C 0.72366 0.50891 0.18629
 C2664 C 0.71929 0.51327 0.17286
 H2665 H 0.69930 0.52811 0.09435
 H2666 H 0.70391 0.57051 0.11052
 H2667 H 0.69394 0.58003 0.08851
 H2668 H 0.68948 0.53761 0.07221
 H2669 H 0.74276 0.54014 0.16769
 H2670 H 0.75049 0.53260 0.19121
 H2671 H 0.71809 0.50025 0.19132
 H2672 H 0.71051 0.50794 0.16779
 C2673 C 0.70217 1.06218 0.60040
 C2674 C 0.70368 1.04753 0.60196
 C2675 C 0.69952 1.03847 0.59100
 C2676 C 0.69375 1.04405 0.57858
 C2677 C 0.69208 1.05874 0.57699
 C2678 C 0.69641 1.06776 0.58800
 C2679 C 0.70916 1.04184 0.61496
 C2680 C 0.71357 1.03726 0.62600
 C2681 C 0.71855 1.03214 0.63910
 C2682 C 0.72263 1.02798 0.65043
 C2683 C 0.72730 1.02328 0.66413
 C2684 C 0.72033 1.01213 0.67094
 C2685 C 0.72436 1.00807 0.68457
 C2686 C 0.73543 1.01514 0.69160
 C2687 C 0.74252 1.02619 0.68454
 C2688 C 0.73846 1.03022 0.67092
 H2689 H 0.70531 1.06928 0.60884
 H2690 H 0.70062 1.02712 0.59210
 H2691 H 0.69055 1.03691 0.57021
 H2692 H 0.69509 1.07910 0.58708
 H2693 H 0.71164 1.00671 0.66580
 H2694 H 0.71865 0.99954 0.68967
 H2695 H 0.75107 1.03188 0.68961
 H2696 H 0.74390 1.03890 0.66575
 C2697 C 0.55085 0.21241 0.59065
 C2698 C 0.54616 0.20341 0.60144
 C2699 C 0.54720 0.18873 0.59977
 C2700 C 0.55300 0.18306 0.58742
 C2701 C 0.55783 0.19201 0.57656
 C2702 C 0.55664 0.20674 0.57827
 C2703 C 0.54065 0.20918 0.61441
 C2704 C 0.53619 0.21380 0.62543
 C2705 C 0.53117 0.21895 0.63851
 C2706 C 0.52706 0.22311 0.64984
 C2707 C 0.52239 0.22780 0.66355
 C2708 C 0.51130 0.22078 0.67039
 C2709 C 0.50729 0.22476 0.68406
 C2710 C 0.51435 0.23584 0.69109
 C2711 C 0.52532 0.24301 0.68400
 C2712 C 0.52931 0.23899 0.67033
 H2713 H 0.55011 0.22379 0.59184
 H2714 H 0.54367 0.18167 0.60809
 H2715 H 0.55394 0.17168 0.58642
 H2716 H 0.56024 0.21382 0.57002
 H2717 H 0.50590 0.21207 0.66525
 H2718 H 0.49882 0.21900 0.68918
 H2719 H 0.53101 0.25156 0.68908
 H2720 H 0.53794 0.24448 0.66515
 C2721 C 1.06067 0.20351 0.09908
 C2722 C 1.04605 0.20482 0.10096
 C2723 C 1.03684 0.20052 0.09021
 C2724 C 1.04221 0.19482 0.07766
 C2725 C 1.05688 0.19333 0.07575
 C2726 C 1.06606 0.19781 0.08656
 C2727 C 1.04057 0.21020 0.11411
 C2728 C 1.03616 0.21452 0.12527
 C2729 C 1.03123 0.21936 0.13850
 C2730 C 1.02722 0.22332 0.14994
 C2731 C 1.02267 0.22781 0.16376
 C2732 C 1.01173 0.22062 0.17067
 C2733 C 1.00780 0.22449 0.18439
 C2734 C 1.01480 0.23562 0.19141
 C2735 C 1.02564 0.24293 0.18427
 C2736 C 1.02955 0.23903 0.17054
 H2737 H 1.06790 0.20675 0.10736
 H2738 H 1.02550 0.20147 0.09157
 H2739 H 1.03496 0.19149 0.06945
 H2740 H 1.07738 0.19663 0.08539
 H2741 H 1.00637 0.21189 0.16553
 H2742 H 0.99943 0.21863 0.18956
 H2743 H 1.03127 0.25153 0.18933
 H2744 H 1.03806 0.24464 0.16531
 C2745 C 0.64996 0.20255 0.68785
 C2746 C 0.64844 0.20410 0.70249
 C2747 C 0.65946 0.20005 0.71150
 C2748 C 0.67190 0.19435 0.70589
 C2749 C 0.67345 0.19264 0.69120
 C2750 C 0.66238 0.19686 0.68223
 C2751 C 0.63542 0.20950 0.70823
 C2752 C 0.62437 0.21385 0.71284
 C2753 C 0.61125 0.21874 0.71801
 C2754 C 0.59991 0.22276 0.72221
 C2755 C 0.58620 0.22735 0.72695
 C2756 C 0.57943 0.22031 0.73807
 C2757 C 0.56580 0.22428 0.74218
 C2758 C 0.55872 0.23536 0.73519
 C2759 C 0.56574 0.24252 0.72416
 C2760 C 0.57937 0.23852 0.72008
 H2761 H 0.64148 0.20560 0.68078
 H2762 H 0.65839 0.20119 0.72285
 H2763 H 0.68031 0.19123 0.71299
 H2764 H 0.66326 0.19550 0.67090
 H2765 H 0.58461 0.21161 0.74344
 H2766 H 0.56073 0.21852 0.75069
 H2767 H 0.56063 0.25108 0.71853
 H2768 H 0.58450 0.24402 0.71142
 C2769 C 1.15110 0.18903 0.20336
 C2770 C 1.14927 0.20367 0.20465
 C2771 C 1.16004 0.21286 0.20028
 C2772 C 1.17254 0.20743 0.19454
 C2773 C 1.17440 0.19273 0.19309
 C2774 C 1.16358 0.18359 0.19762
 C2775 C 1.13618 0.20921 0.21007
 C2776 C 1.12506 0.21366 0.21443
 C2777 C 1.11188 0.21865 0.21932
 C2778 C 1.10048 0.22271 0.22332
 C2779 C 1.08671 0.22732 0.22786
 C2780 C 1.07991 0.22044 0.23907
 C2781 C 1.06623 0.22442 0.24303
 C2782 C 1.05914 0.23534 0.23580
 C2783 C 1.06618 0.24234 0.22469
 C2784 C 1.07986 0.23834 0.22075
 H2785 H 1.14281 0.18182 0.20665
 H2786 H 1.15873 0.22421 0.20121
 H2787 H 1.18076 0.21466 0.19117
 H2788 H 1.16469 0.17224 0.19647
 H2789 H 1.08510 0.21187 0.24462
 H2790 H 1.06115 0.21879 0.25161
 H2791 H 1.06107 0.25077 0.21888
 H2792 H 1.08501 0.24371 0.21204
 C2793 C 0.09200 0.69897 0.53819
 C2794 C 0.10276 0.70315 0.54745
 C2795 C 0.10078 0.70192 0.56207
 C2796 C 0.08814 0.69644 0.56742
 C2797 C 0.07730 0.69212 0.55820
 C2798 C 0.07933 0.69349 0.54353
 C2799 C 0.11597 0.70840 0.54200
 C2800 C 0.12715 0.71267 0.53759
 C2801 C 0.14035 0.71752 0.53259
 C2802 C 0.15172 0.72154 0.52846
 C2803 C 0.16541 0.72622 0.52370
 C2804 C 0.17211 0.71931 0.51245
 C2805 C 0.18560 0.72354 0.50812
 C2806 C 0.19260 0.73476 0.51501
 C2807 C 0.18569 0.74171 0.52624
 C2808 C 0.17220 0.73745 0.53054
 H2809 H 0.09343 0.69986 0.52686
 H2810 H 0.10906 0.70507 0.56933
 H2811 H 0.08688 0.69535 0.57875
 H2812 H 0.07111 0.69028 0.53624
 H2813 H 0.16696 0.71057 0.50711
 H2814 H 0.19059 0.71793 0.49948
 H2815 H 0.19075 0.75035 0.53181
 H2816 H 0.16712 0.74284 0.53929
 C2817 C 0.08951 0.21264 1.04935
 C2818 C 0.10026 0.20343 1.04501
 C2819 C 0.09842 0.18880 1.04633
 C2820 C 0.08593 0.18337 1.05208
 C2821 C 0.07512 0.19253 1.05659
 C2822 C 0.07700 0.20722 1.05511
 C2823 C 0.11337 0.20896 1.03958
 C2824 C 0.12449 0.21340 1.03521
 C2825 C 0.13768 0.21838 1.03031
 C2826 C 0.14909 0.22245 1.02630
 C2827 C 0.16286 0.22706 1.02175
 C2828 C 0.16968 0.22014 1.01059
 C2829 C 0.18336 0.22412 1.00663
 C2830 C 0.19043 0.23510 1.01382
 C2831 C 0.18337 0.24214 1.02489
 C2832 C 0.16970 0.23812 1.02883
 H2833 H 0.09084 0.22398 1.04840
 H2834 H 0.10670 0.18158 1.04306
 H2835 H 0.08480 0.17203 1.05326
 H2836 H 0.06879 0.21446 1.05846
 H2837 H 0.16450 0.21153 1.00507
 H2838 H 0.18845 0.21846 0.99807
 H2839 H 0.18848 0.25061 1.03067
 H2840 H 0.16453 0.24353 1.03751
 C2841 C 0.59271 0.53876 0.19941
 C2842 C 0.60346 0.54808 0.20351
 C2843 C 0.60148 0.56269 0.20215
 C2844 C 0.58886 0.56797 0.19660
 C2845 C 0.57804 0.55869 0.19235
 C2846 C 0.58006 0.54403 0.19386
 C2847 C 0.61666 0.54269 0.20883
 C2848 C 0.62782 0.53831 0.21313
 C2849 C 0.64100 0.53334 0.21802
 C2850 C 0.65236 0.52923 0.22207
 C2851 C 0.66603 0.52449 0.22676
 C2852 C 0.67282 0.53138 0.23796
 C2853 C 0.68630 0.52709 0.24222
 C2854 C 0.69320 0.51583 0.23532
 C2855 C 0.68620 0.50889 0.22415
 C2856 C 0.67272 0.51320 0.21991
 H2857 H 0.59413 0.52743 0.20041
 H2858 H 0.60976 0.57000 0.20525
 H2859 H 0.58761 0.57930 0.19540
 H2860 H 0.57185 0.53669 0.19071
 H2861 H 0.66775 0.54016 0.24331
 H2862 H 0.69137 0.53271 0.25083
 H2863 H 0.69118 0.50021 0.21857
 H2864 H 0.66757 0.50782 0.21121
 C2865 C 0.59049 1.03743 0.70059
 C2866 C 0.60128 1.04663 0.70488
 C2867 C 0.59946 1.06127 0.70356
 C2868 C 0.58697 1.06670 0.69787
 C2869 C 0.57612 1.05754 0.69342
 C2870 C 0.57797 1.04285 0.69490
 C2871 C 0.61439 1.04109 0.71026
 C2872 C 0.62551 1.03665 0.71459
 C2873 C 0.63870 1.03167 0.71945
 C2874 C 0.65011 1.02762 0.72343
 C2875 C 0.66388 1.02304 0.72797
 C2876 C 0.67072 1.03002 0.73908
 C2877 C 0.68440 1.02608 0.74303
 C2878 C 0.69146 1.01508 0.73587
 C2879 C 0.68439 1.00798 0.72485
 C2880 C 0.67071 1.01195 0.72093
 H2881 H 0.59179 1.02608 0.70155
 H2882 H 0.60777 1.06848 0.70678
 H2883 H 0.58586 1.07804 0.69669
 H2884 H 0.56973 1.03561 0.69160
 H2885 H 0.66555 1.03865 0.74458
 H2886 H 0.68950 1.03179 0.75154
 H2887 H 0.68949 0.99949 0.71909
 H2888 H 0.66552 1.00650 0.71228
 C2889 C 0.90896 0.44857 0.28942
 C2890 C 0.89804 0.45313 0.29832
 C2891 C 0.89943 0.45177 0.31299
 C2892 C 0.91163 0.44577 0.31875
 C2893 C 0.92261 0.44106 0.30989
 C2894 C 0.92119 0.44258 0.29517
 C2895 C 0.88523 0.45884 0.29244
 C2896 C 0.87434 0.46345 0.28771
 C2897 C 0.86140 0.46863 0.28241
 C2898 C 0.85018 0.47287 0.27810
 C2899 C 0.83660 0.47768 0.27324
 C2900 C 0.82981 0.48888 0.28012
 C2901 C 0.81624 0.49301 0.27598
 C2902 C 0.80925 0.48594 0.26489
 C2903 C 0.81629 0.47485 0.25786
 C2904 C 0.82986 0.47075 0.26203
 H2905 H 0.90799 0.44956 0.27804
 H2906 H 0.89102 0.45520 0.31997
 H2907 H 0.91242 0.44458 0.33011
 H2908 H 0.92954 0.43908 0.28816
 H2909 H 0.83492 0.49429 0.28885
 H2910 H 0.81116 0.50157 0.28165
 H2911 H 0.81124 0.46916 0.24930
 H2912 H 0.83500 0.46203 0.25666
 C2913 C 0.89726 0.95016 0.81481
 C2914 C 0.89566 0.95158 0.80016
 C2915 C 0.90653 0.94722 0.79110
 C2916 C 0.91892 0.94138 0.79666
 C2917 C 0.92056 0.93982 0.81135
 C2918 C 0.90963 0.94432 0.82038
 C2919 C 0.88274 0.95723 0.79447
 C2920 C 0.87180 0.96182 0.78983
 C2921 C 0.85886 0.96704 0.78456
 C2922 C 0.84770 0.97135 0.78020
 C2923 C 0.83424 0.97634 0.77517
 C2924 C 0.82765 0.96963 0.76374
 C2925 C 0.81432 0.97409 0.75920
 C2926 C 0.80737 0.98534 0.76606
 C2927 C 0.81417 0.99212 0.77745
 C2928 C 0.82751 0.98764 0.78196
 H2929 H 0.88890 0.95344 0.82192
 H2930 H 0.90540 0.94827 0.77975
 H2931 H 0.92723 0.93806 0.78952
 H2932 H 0.91060 0.94309 0.83172
 H2933 H 0.83276 0.96084 0.75843
 H2934 H 0.80940 0.96860 0.75044
 H2935 H 0.80914 1.00078 0.78301
 H2936 H 0.83250 0.99288 0.79085
 C2937 C 0.34272 0.30154 0.78970
 C2938 C 0.35357 0.29749 0.79892
 C2939 C 0.35176 0.29902 0.81353
 C2940 C 0.33922 0.30467 0.81892
 C2941 C 0.32831 0.30887 0.80974
 C2942 C 0.33016 0.30719 0.79508
 C2943 C 0.36668 0.29207 0.79341
 C2944 C 0.37777 0.28768 0.78893
 C2945 C 0.39088 0.28270 0.78382
 C2946 C 0.40217 0.27859 0.77958
 C2947 C 0.41577 0.27385 0.77467
 C2948 C 0.42254 0.26253 0.78138
 C2949 C 0.43597 0.25824 0.77695
 C2950 C 0.44284 0.26523 0.76572
 C2951 C 0.43587 0.27652 0.75897
 C2952 C 0.42243 0.28079 0.76342
 H2953 H 0.34402 0.30042 0.77837
 H2954 H 0.36010 0.29597 0.82076
 H2955 H 0.33809 0.30599 0.83024
 H2956 H 0.32188 0.31030 0.78782
 H2957 H 0.41749 0.25711 0.79013
 H2958 H 0.44102 0.24954 0.78242
 H2959 H 0.44083 0.28217 0.75033
 H2960 H 0.41730 0.28959 0.75818
 C2961 C 0.84261 0.30113 0.28873
 C2962 C 0.85329 0.29689 0.29804
 C2963 C 0.85126 0.29815 0.31265
 C2964 C 0.83864 0.30373 0.31793
 C2965 C 0.82789 0.30812 0.30866
 C2966 C 0.82997 0.30671 0.29400
 C2967 C 0.86649 0.29156 0.29264
 C2968 C 0.87765 0.28724 0.28825
 C2969 C 0.89083 0.28235 0.28326
 C2970 C 0.90219 0.27830 0.27913
 C2971 C 0.91586 0.27363 0.27435
 C2972 C 0.92264 0.26237 0.28115
 C2973 C 0.93612 0.25813 0.27683
 C2974 C 0.94304 0.26511 0.26563
 C2975 C 0.93606 0.27634 0.25878
 C2976 C 0.92258 0.28056 0.26313
 H2977 H 0.84408 0.30021 0.27740
 H2978 H 0.85948 0.29495 0.31994
 H2979 H 0.83734 0.30485 0.32925
 H2980 H 0.82181 0.30997 0.28667
 H2981 H 0.91755 0.25695 0.28987
 H2982 H 0.94117 0.24947 0.28237
 H2983 H 0.94106 0.28198 0.25015
 H2984 H 0.91744 0.28931 0.25781
 C2985 C 0.39926 0.79805 0.43681
 C2986 C 0.39771 0.79672 0.45148
 C2987 C 0.40855 0.80129 0.46046
 C2988 C 0.42084 0.80728 0.45481
 C2989 C 0.42242 0.80877 0.44010
 C2990 C 0.41153 0.80404 0.43115
 C2991 C 0.38483 0.79102 0.45725
 C2992 C 0.37388 0.78644 0.46191
 C2993 C 0.36088 0.78131 0.46714
 C2994 C 0.34961 0.77713 0.47141
 C2995 C 0.33598 0.77241 0.47626
 C2996 C 0.32926 0.77941 0.48743
 C2997 C 0.31565 0.77540 0.49160
 C2998 C 0.30855 0.76431 0.48461
 C2999 C 0.31553 0.75716 0.47356
 C3000 C 0.32914 0.76120 0.46942
 H3001 H 0.39091 0.79460 0.42977
 H3002 H 0.40745 0.80033 0.47183
 H3003 H 0.42912 0.81079 0.46189
 H3004 H 0.41244 0.80521 0.41980
 H3005 H 0.33444 0.78814 0.49277
 H3006 H 0.31062 0.78115 0.50013
 H3007 H 0.31040 0.74859 0.46794
 H3008 H 0.33423 0.75573 0.46072
 C3009 C 0.40596 0.30287 0.95913
 C3010 C 0.39515 0.29847 0.95002
 C3011 C 0.39689 0.29978 0.93538
 C3012 C 0.40933 0.30556 0.92986
 C3013 C 0.42020 0.31010 0.93893
 C3014 C 0.41842 0.30864 0.95363
 C3015 C 0.38215 0.29291 0.95566
 C3016 C 0.37115 0.28838 0.96025
 C3017 C 0.35814 0.28325 0.96548
 C3018 C 0.34693 0.27901 0.96980
 C3019 C 0.33340 0.27411 0.97480
 C3020 C 0.32670 0.26272 0.96811
 C3021 C 0.31332 0.25831 0.97259
 C3022 C 0.30643 0.26525 0.98383
 C3023 C 0.31335 0.27659 0.99058
 C3024 C 0.32673 0.28098 0.98608
 H3025 H 0.40472 0.30191 0.97048
 H3026 H 0.38857 0.29647 0.92823
 H3027 H 0.41040 0.30670 0.91852
 H3028 H 0.42668 0.31200 0.96080
 H3029 H 0.33176 0.25735 0.95934
 H3030 H 0.30831 0.24957 0.96712
 H3031 H 0.30836 0.28221 0.99923
 H3032 H 0.33181 0.28984 0.99130
 C3033 C 0.81208 0.45269 0.40017
 C3034 C 0.79743 0.45417 0.39868
 C3035 C 0.78844 0.44993 0.40966
 C3036 C 0.79407 0.44412 0.42203
 C3037 C 0.80876 0.44248 0.42356
 C3038 C 0.81772 0.44689 0.41253
 C3039 C 0.79168 0.45967 0.38572
 C3040 C 0.78706 0.46411 0.37470
 C3041 C 0.78191 0.46910 0.36162
 C3042 C 0.77772 0.47318 0.35030
 C3043 C 0.77302 0.47784 0.33660
 C3044 C 0.76189 0.47084 0.32980
 C3045 C 0.75785 0.47483 0.31616
 C3046 C 0.76492 0.48589 0.30910
 C3047 C 0.77594 0.49303 0.31615
 C3048 C 0.77995 0.48901 0.32979
 H3049 H 0.81913 0.45588 0.39172
 H3050 H 0.77709 0.45101 0.40861
 H3051 H 0.78699 0.44086 0.43042
 H3052 H 0.82905 0.44559 0.41339
 H3053 H 0.75648 0.46215 0.33497
 H3054 H 0.74935 0.46909 0.31106
 H3055 H 0.78163 0.50157 0.31106
 H3056 H 0.78860 0.49447 0.33494
 C3057 C 0.78963 0.94823 0.90750
 C3058 C 0.79875 0.95238 0.89660
 C3059 C 0.81338 0.95090 0.89827
 C3060 C 0.81886 0.94521 0.91075
 C3061 C 0.80978 0.94092 0.92172
 C3062 C 0.79510 0.94254 0.92000
 C3063 C 0.79315 0.95785 0.88356
 C3064 C 0.78860 0.96229 0.87251
 C3065 C 0.78345 0.96735 0.85946
 C3066 C 0.77922 0.97154 0.84820
 C3067 C 0.77435 0.97641 0.83462
 C3068 C 0.78118 0.98771 0.82792
 C3069 C 0.77682 0.99211 0.81450
 C3070 C 0.76556 0.98524 0.80758
 C3071 C 0.75867 0.97398 0.81450
 C3072 C 0.76305 0.96960 0.82792
 H3073 H 0.77829 0.94932 0.90631
 H3074 H 0.82053 0.95402 0.88988
 H3075 H 0.83019 0.94393 0.91177
 H3076 H 0.78792 0.93937 0.92833
 H3077 H 0.78997 0.99302 0.83300
 H3078 H 0.78240 1.00078 0.80950
 H3079 H 0.74999 0.96843 0.80949
 H3080 H 0.75772 0.96082 0.83300
 C3081 C 0.30182 0.78965 0.34111
 C3082 C 0.29722 0.79861 0.35197
 C3083 C 0.29859 0.81328 0.35050
 C3084 C 0.30464 0.81898 0.33828
 C3085 C 0.30940 0.81007 0.32736
 C3086 C 0.30788 0.79534 0.32887
 C3087 C 0.29143 0.79279 0.36479
 C3088 C 0.28677 0.78810 0.37569
 C3089 C 0.28153 0.78282 0.38864
 C3090 C 0.27727 0.77850 0.39985
 C3091 C 0.27245 0.77359 0.41343
 C3092 C 0.26128 0.78046 0.42028
 C3093 C 0.25714 0.77625 0.43383
 C3094 C 0.26416 0.76509 0.44076
 C3095 C 0.27521 0.75808 0.43365
 C3096 C 0.27932 0.76232 0.42010
 H3097 H 0.30083 0.77827 0.34215
 H3098 H 0.29512 0.82031 0.35886
 H3099 H 0.30583 0.83035 0.33742
 H3100 H 0.31141 0.78828 0.32057
 H3101 H 0.25591 0.78924 0.41523
 H3102 H 0.24861 0.78190 0.43897
 H3103 H 0.28087 0.74946 0.43864
 H3104 H 0.28801 0.75695 0.41491
 C3105 C 0.29867 0.31325 0.85120
 C3106 C 0.29758 0.29860 0.85313
 C3107 C 0.30218 0.28940 0.84248
 C3108 C 0.30794 0.29482 0.82998
 C3109 C 0.30917 0.30952 0.82800
 C3110 C 0.30443 0.31868 0.83872
 C3111 C 0.29204 0.29306 0.86619
 C3112 C 0.28754 0.28856 0.87724
 C3113 C 0.28244 0.28344 0.89030
 C3114 C 0.27822 0.27921 0.90156
 C3115 C 0.27336 0.27431 0.91513
 C3116 C 0.28014 0.26298 0.92179
 C3117 C 0.27577 0.25855 0.93521
 C3118 C 0.26454 0.26543 0.94217
 C3119 C 0.25770 0.27673 0.93530
 C3120 C 0.26209 0.28113 0.92188
 H3121 H 0.29520 0.32047 0.85940
 H3122 H 0.30139 0.27804 0.84387
 H3123 H 0.31146 0.28757 0.82183
 H3124 H 0.30541 0.33003 0.83751
 H3125 H 0.28890 0.25765 0.91668
 H3126 H 0.28131 0.24985 0.94018
 H3127 H 0.24905 0.28229 0.94034
 H3128 H 0.25680 0.28995 0.91684
 C3129 C 0.44658 0.29043 0.90651
 C3130 C 0.45110 0.29951 0.89571
 C3131 C 0.44981 0.31417 0.89739
 C3132 C 0.44395 0.31974 0.90976
 C3133 C 0.43930 0.31070 0.92062
 C3134 C 0.44072 0.29599 0.91890
 C3135 C 0.45678 0.29382 0.88278
 C3136 C 0.46139 0.28920 0.87183
 C3137 C 0.46662 0.28394 0.85887
 C3138 C 0.47095 0.27960 0.84769
 C3139 C 0.47592 0.27458 0.83420
 C3140 C 0.48721 0.28137 0.82747
 C3141 C 0.49167 0.27689 0.81410
 C3142 C 0.48485 0.26554 0.80726
 C3143 C 0.47361 0.25868 0.81421
 C3144 C 0.46918 0.26318 0.82759
 H3145 H 0.44752 0.27907 0.90532
 H3146 H 0.45322 0.32129 0.88908
 H3147 H 0.44283 0.33110 0.91078
 H3148 H 0.43727 0.28884 0.92716
 H3149 H 0.49248 0.29024 0.83248
 H3150 H 0.50033 0.28245 0.80906
 H3151 H 0.46809 0.24993 0.80927
 H3152 H 0.46039 0.25787 0.83269
 C3153 C 0.95114 0.31347 0.39849
 C3154 C 0.95266 0.29885 0.39670
 C3155 C 0.94858 0.28963 0.40755
 C3156 C 0.94288 0.29501 0.42010
 C3157 C 0.94120 0.30968 0.42193
 C3158 C 0.94544 0.31887 0.41102
 C3159 C 0.95811 0.29333 0.38360
 C3160 C 0.96252 0.28883 0.37252
 C3161 C 0.96752 0.28372 0.35941
 C3162 C 0.97165 0.27949 0.34811
 C3163 C 0.97642 0.27460 0.33451
 C3164 C 0.96959 0.26326 0.32788
 C3165 C 0.97389 0.25883 0.31444
 C3166 C 0.98510 0.26570 0.30743
 C3167 C 0.99199 0.27701 0.31427
 C3168 C 0.98766 0.28142 0.32771
 H3169 H 0.95421 0.32070 0.39014
 H3170 H 0.94970 0.27829 0.40628
 H3171 H 0.93975 0.28776 0.42839
 H3172 H 0.94412 0.33019 0.41212
 H3173 H 0.96085 0.25793 0.33303
 H3174 H 0.96832 0.25012 0.30949
 H3175 H 1.00062 0.28257 0.30920
 H3176 H 0.99300 0.29023 0.33274
 C3177 C 0.44808 0.40732 0.79025
 C3178 C 0.45208 0.39633 0.79932
 C3179 C 0.45058 0.39795 0.81396
 C3180 C 0.44501 0.41046 0.81951
 C3181 C 0.44086 0.42152 0.81048
 C3182 C 0.44250 0.41985 0.79579
 C3183 C 0.45745 0.38326 0.79364
 C3184 C 0.46181 0.37220 0.78902
 C3185 C 0.46678 0.35912 0.78379
 C3186 C 0.47091 0.34785 0.77948
 C3187 C 0.47572 0.33428 0.77452
 C3188 C 0.48716 0.32763 0.78112
 C3189 C 0.49153 0.31422 0.77666
 C3190 C 0.48450 0.30726 0.76553
 C3191 C 0.47309 0.31412 0.75887
 C3192 C 0.46874 0.32753 0.76335
 H3193 H 0.44918 0.40617 0.77890
 H3194 H 0.45360 0.38949 0.82107
 H3195 H 0.44371 0.41145 0.83084
 H3196 H 0.43943 0.42826 0.78865
 H3197 H 0.49261 0.33275 0.78980
 H3198 H 0.50032 0.30926 0.78206
 H3199 H 0.46740 0.30907 0.75030
 H3200 H 0.45985 0.33257 0.75820
 C3201 C 0.93685 0.39844 0.29907
 C3202 C 0.95147 0.39647 0.29803
 C3203 C 0.96068 0.40712 0.30264
 C3204 C 0.95529 0.41966 0.30836
 C3205 C 0.94061 0.42167 0.30953
 C3206 C 0.93144 0.41096 0.30478
 C3207 C 0.95699 0.38338 0.29254
 C3208 C 0.96147 0.37231 0.28808
 C3209 C 0.96656 0.35922 0.28303
 C3210 C 0.97078 0.34793 0.27885
 C3211 C 0.97567 0.33434 0.27404
 C3212 C 0.98707 0.32776 0.28077
 C3213 C 0.99152 0.31433 0.27645
 C3214 C 0.98459 0.30727 0.26531
 C3215 C 0.97322 0.31406 0.25851
 C3216 C 0.96880 0.32749 0.26286
 H3217 H 0.92962 0.39025 0.29558
 H3218 H 0.97202 0.40570 0.30191
 H3219 H 0.96253 0.42779 0.31189
 H3220 H 0.92010 0.41221 0.30571
 H3221 H 0.99244 0.33295 0.28946
 H3222 H 1.00027 0.30943 0.28195
 H3223 H 0.96761 0.30894 0.24993
 H3224 H 0.95994 0.33247 0.25760
 C3225 C 0.29873 0.89911 0.43657
 C3226 C 0.29740 0.89771 0.45125
 C3227 C 0.30193 0.90867 0.46013
 C3228 C 0.30786 0.92094 0.45436
 C3229 C 0.30934 0.92237 0.43963
 C3230 C 0.30466 0.91135 0.43079
 C3231 C 0.29173 0.88486 0.45715
 C3232 C 0.28715 0.87394 0.46190
 C3233 C 0.28199 0.86098 0.46723
 C3234 C 0.27776 0.84975 0.47156
 C3235 C 0.27293 0.83615 0.47644
 C3236 C 0.27994 0.82933 0.48753
 C3237 C 0.27580 0.81576 0.49172
 C3238 C 0.26457 0.80880 0.48484
 C3239 C 0.25741 0.81588 0.47387
 C3240 C 0.26158 0.82945 0.46971
 H3241 H 0.29532 0.89066 0.42961
 H3242 H 0.30096 0.90769 0.47151
 H3243 H 0.31133 0.92932 0.46136
 H3244 H 0.30582 0.91215 0.41943
 H3245 H 0.28877 0.83441 0.49279
 H3246 H 0.28156 0.81064 0.50018
 H3247 H 0.24874 0.81086 0.46832
 H3248 H 0.25610 0.83462 0.46108
 C3249 C 0.29913 0.39821 0.93654
 C3250 C 0.29801 0.39629 0.95118
 C3251 C 0.30252 0.40700 0.96037
 C3252 C 0.30820 0.41954 0.95495
 C3253 C 0.30944 0.42151 0.94027
 C3254 C 0.30481 0.41074 0.93111
 C3255 C 0.29252 0.38320 0.95671
 C3256 C 0.28805 0.37213 0.96120
 C3257 C 0.28296 0.35905 0.96629
 C3258 C 0.27873 0.34777 0.97050
 C3259 C 0.27384 0.33418 0.97535
 C3260 C 0.28070 0.32740 0.98656
 C3261 C 0.27628 0.31398 0.99095
 C3262 C 0.26492 0.30714 0.98416
 C3263 C 0.25801 0.31413 0.97298
 C3264 C 0.26245 0.32755 0.96862
 H3265 H 0.29572 0.38997 0.92933
 H3266 H 0.30171 0.40562 0.97172
 H3267 H 0.31164 0.42773 0.96219
 H3268 H 0.30579 0.41195 0.91977
 H3269 H 0.28955 0.33242 0.99182
 H3270 H 0.28188 0.30891 0.99955
 H3271 H 0.24926 0.30919 0.96749
 H3272 H 0.25709 0.33270 0.95990
 C3273 C 0.78913 0.34099 0.30013
 C3274 C 0.79820 0.35194 0.29599
 C3275 C 0.81283 0.35038 0.29754
 C3276 C 0.81837 0.33796 0.30333
 C3277 C 0.80934 0.32695 0.30764
 C3278 C 0.79466 0.32855 0.30592
 C3279 C 0.79253 0.36497 0.29052
 C3280 C 0.78796 0.37602 0.28612
 C3281 C 0.78282 0.38914 0.28119
 C3282 C 0.77862 0.40048 0.27716
 C3283 C 0.77385 0.41419 0.27258
 C3284 C 0.78066 0.42105 0.26137
 C3285 C 0.77654 0.43469 0.25740
 C3286 C 0.76555 0.44168 0.26462
 C3287 C 0.75861 0.43457 0.27573
 C3288 C 0.76276 0.42093 0.27968
 H3289 H 0.77779 0.34210 0.29899
 H3290 H 0.81994 0.35881 0.29443
 H3291 H 0.82970 0.33704 0.30469
 H3292 H 0.78752 0.32018 0.30911
 H3293 H 0.78929 0.41594 0.25583
 H3294 H 0.78213 0.43982 0.24882
 H3295 H 0.75012 0.43961 0.28154
 H3296 H 0.75744 0.41573 0.28840
   
