data_POSCAR
  _audit_creation_date              2014-09-24
  _audit_creation_method            'ToBaCCo'
  _symmetry_space_group_name_H-M    'P1'
  _symmetry_Int_Tables_number       1
  _symmetry_cell_setting            triclinic
  loop_
  _symmetry_equiv_pos_as_xyz
 x,y,z
_cell_length_a 40.6305
_cell_length_b 40.0915
_cell_length_c 43.3269
_cell_angle_alpha 90.200100
_cell_angle_beta 89.726200
_cell_angle_gamma 89.710000
loop_
  _atom_site_label
  _atom_site_type_symbol
  _atom_site_fract_x
  _atom_site_fract_y
  _atom_site_fract_z
Zr1 Zr 0.23748 0.23818 0.30249
 O2 O 0.24531 0.24708 0.35016
 O3 O 0.20602 0.19840 0.31542
 O4 O 0.20396 0.26761 0.32858
 O5 O 0.30991 0.19133 0.29059
 O6 O 0.17850 0.30184 0.29431
 O7 O 0.27569 0.21406 0.32680
 O8 O 0.18535 0.17927 0.27015
 O9 O 0.19859 0.24191 0.27115
 O10 O 0.24663 0.20104 0.26951
 O11 O 0.24026 0.28719 0.28508
 O12 O 0.28465 0.24812 0.28396
 Zr13 Zr 0.25634 0.26402 0.19878
 Zr14 Zr 0.20244 0.29010 0.25224
 Zr15 Zr 0.29209 0.21217 0.24916
 Zr16 Zr 0.20947 0.20645 0.23676
 O17 O 0.34340 0.22018 0.25248
 O18 O 0.15805 0.21066 0.22922
 O19 O 0.25486 0.21490 0.21584
 O20 O 0.20973 0.25388 0.21774
 O21 O 0.24794 0.30135 0.23181
 O22 O 0.29528 0.25991 0.22996
 C23 C 0.18770 0.17871 0.29946
 C24 C 0.30114 0.19682 0.31874
 C25 C 0.18395 0.29155 0.32195
 O26 O 0.15144 0.28198 0.24654
 O27 O 0.18676 0.31412 0.21134
 O28 O 0.22419 0.29653 0.17533
 C29 C 0.19781 0.31224 0.18344
 O30 O 0.30011 0.30285 0.31073
 Zr31 Zr 0.28561 0.29540 0.26412
 O32 O 0.28773 0.30278 0.18462
 O33 O 0.20313 0.34229 0.25960
 O34 O 0.27473 0.34574 0.27582
 O35 O 0.33767 0.29233 0.26652
 O36 O 0.30362 0.32662 0.22986
 C37 C 0.30262 0.32537 0.20039
 O38 O 0.24090 0.24919 0.15411
 O39 O 0.29282 0.15961 0.24414
 O40 O 0.28888 0.23432 0.17211
 O41 O 0.31219 0.19795 0.20603
 O42 O 0.22090 0.15531 0.22966
 O43 O 0.20169 0.19377 0.18966
 C44 C 0.30699 0.20881 0.17851
 H45 H 0.24753 0.17845 0.27865
 H46 H 0.19213 0.25416 0.20205
 H47 H 0.31686 0.26323 0.21973
 H48 H 0.23845 0.30452 0.30129
 H49 H 0.14909 0.18780 0.22724
 H50 H 0.14050 0.30401 0.24880
 H51 H 0.18004 0.35022 0.25812
 H52 H 0.29585 0.35794 0.27694
 H53 H 0.19987 0.14312 0.22749
 H54 H 0.31612 0.15240 0.24568
 H55 H 0.35418 0.19827 0.24896
 H56 H 0.34611 0.31545 0.26763
 H57 H 0.18408 0.17688 0.18818
 H58 H 0.25267 0.26313 0.13868
 H59 H 0.23277 0.23000 0.36190
 H60 H 0.31563 0.32176 0.31194
 Zr61 Zr 0.76048 0.76319 0.30120
 O62 O 0.74798 0.74724 0.34637
 O63 O 0.79620 0.79900 0.31358
 O64 O 0.79619 0.73478 0.32468
 O65 O 0.69062 0.81372 0.29378
 O66 O 0.81434 0.69582 0.29003
 O67 O 0.72922 0.79463 0.32754
 O68 O 0.81579 0.81656 0.26721
 O69 O 0.79712 0.75633 0.26761
 O70 O 0.75240 0.80084 0.26884
 O71 O 0.75365 0.71458 0.28391
 O72 O 0.71187 0.75692 0.28533
 Zr73 Zr 0.73397 0.73812 0.19876
 Zr74 Zr 0.78911 0.70863 0.24888
 Zr75 Zr 0.70527 0.79304 0.25096
 Zr76 Zr 0.78737 0.79262 0.23425
 O77 O 0.65364 0.78932 0.25669
 O78 O 0.83778 0.78466 0.22333
 O79 O 0.74054 0.78705 0.21573
 O80 O 0.78240 0.74537 0.21489
 O81 O 0.74160 0.70030 0.23118
 O82 O 0.69734 0.74552 0.23214
 C83 C 0.81582 0.81648 0.29672
 C84 C 0.70245 0.81051 0.32115
 C85 C 0.81293 0.70848 0.31747
 O86 O 0.84026 0.71291 0.24057
 O87 O 0.80160 0.68384 0.20713
 O88 O 0.76498 0.70574 0.17311
 C89 C 0.79012 0.68742 0.17964
 O90 O 0.69527 0.70261 0.31343
 Zr91 Zr 0.70656 0.70963 0.26592
 O92 O 0.69714 0.70261 0.18772
 O93 O 0.78514 0.65668 0.25618
 O94 O 0.71511 0.65849 0.27576
 O95 O 0.65539 0.71734 0.27310
 O96 O 0.68192 0.68085 0.23384
 C97 C 0.68042 0.68219 0.20447
 O98 O 0.73998 0.74420 0.15048
 O99 O 0.70842 0.84551 0.24651
 O100 O 0.70802 0.77505 0.17373
 O101 O 0.68361 0.80901 0.20934
 O102 O 0.77942 0.84458 0.22872
 O103 O 0.79368 0.80567 0.18706
 C104 C 0.68977 0.80020 0.18131
 H105 H 0.75402 0.82335 0.27817
 H106 H 0.79926 0.74430 0.19838
 H107 H 0.67493 0.74420 0.22334
 H108 H 0.75569 0.69754 0.30025
 H109 H 0.84836 0.80680 0.22155
 H110 H 0.84976 0.69022 0.24273
 H111 H 0.80760 0.64723 0.25379
 H112 H 0.69344 0.64761 0.27850
 H113 H 0.80128 0.85527 0.22685
 H114 H 0.68599 0.85455 0.25011
 H115 H 0.64454 0.81216 0.25450
 H116 H 0.64504 0.69516 0.27554
 H117 H 0.81195 0.82177 0.18506
 H118 H 0.72357 0.72971 0.14007
 H119 H 0.76057 0.76101 0.36133
 H120 H 0.67932 0.68419 0.31568
 Zr121 Zr 0.75340 0.24687 -0.30667
 O122 O 0.73219 0.27249 -0.34449
 O123 O 0.78026 0.20997 -0.33080
 O124 O 0.78649 0.27497 -0.33357
 O125 O 0.68438 0.19803 -0.29173
 O126 O 0.81626 0.30513 -0.29886
 O127 O 0.71561 0.22134 -0.32982
 O128 O 0.81023 0.18484 -0.29296
 O129 O 0.79713 0.24508 -0.28128
 O130 O 0.74919 0.20504 -0.27827
 O131 O 0.75547 0.29242 -0.28259
 O132 O 0.70988 0.25394 -0.28061
 Zr133 Zr 0.75225 0.25590 -0.19931
 Zr134 Zr 0.79801 0.28949 -0.25542
 Zr135 Zr 0.70773 0.21310 -0.25046
 Zr136 Zr 0.79165 0.20450 -0.25156
 O137 O 0.65651 0.22214 -0.24672
 O138 O 0.84375 0.20746 -0.25026
 O139 O 0.75011 0.20988 -0.22304
 O140 O 0.79529 0.24831 -0.22581
 O141 O 0.75638 0.29783 -0.22771
 O142 O 0.70884 0.25748 -0.22494
 C143 C 0.80179 0.18883 -0.32118
 C144 C 0.69069 0.20451 -0.32028
 C145 C 0.80787 0.29738 -0.32666
 O146 O 0.84929 0.28024 -0.25636
 O147 O 0.81902 0.30793 -0.21398
 O148 O 0.78746 0.28471 -0.17607
 C149 C 0.81197 0.30226 -0.18538
 O150 O 0.69228 0.31242 -0.29722
 Zr151 Zr 0.71390 0.29780 -0.25475
 O152 O 0.72514 0.29305 -0.17520
 O153 O 0.79754 0.34220 -0.25708
 O154 O 0.72380 0.34917 -0.26163
 O155 O 0.66203 0.29664 -0.24912
 O156 O 0.70374 0.32409 -0.21433
 C157 C 0.70952 0.31861 -0.18577
 O158 O 0.77550 0.23173 -0.16173
 O159 O 0.70703 0.16031 -0.25127
 O160 O 0.72176 0.22496 -0.17234
 O161 O 0.69257 0.19440 -0.20717
 O162 O 0.78127 0.15270 -0.25175
 O163 O 0.80679 0.18312 -0.20906
 C164 C 0.70137 0.20166 -0.17942
 H165 H 0.74664 0.18408 -0.29015
 H166 H 0.81505 0.24626 -0.21268
 H167 H 0.68916 0.25976 -0.21151
 H168 H 0.75594 0.31163 -0.29684
 H169 H 0.85264 0.18477 -0.25422
 H170 H 0.86010 0.30229 -0.25781
 H171 H 0.82085 0.34936 -0.25755
 H172 H 0.70311 0.36171 -0.25763
 H173 H 0.80225 0.14071 -0.25580
 H174 H 0.68359 0.15361 -0.25096
 H175 H 0.64584 0.20003 -0.24516
 H176 H 0.65452 0.31993 -0.24576
 H177 H 0.82393 0.16597 -0.21303
 H178 H 0.76760 0.24245 -0.14232
 H179 H 0.73944 0.26110 -0.36380
 H180 H 0.67654 0.33095 -0.29354
 Zr181 Zr 0.23815 0.76480 -0.29801
 O182 O 0.24224 0.75919 -0.34653
 O183 O 0.20246 0.80228 -0.30810
 O184 O 0.20644 0.73275 -0.32279
 O185 O 0.30773 0.81607 -0.28965
 O186 O 0.18472 0.69678 -0.28770
 O187 O 0.27438 0.79044 -0.32411
 O188 O 0.18225 0.81839 -0.26161
 O189 O 0.20157 0.75769 -0.26450
 O190 O 0.24629 0.80204 -0.26512
 O191 O 0.24557 0.71575 -0.28158
 O192 O 0.28687 0.75771 -0.28245
 Zr193 Zr 0.26519 0.73789 -0.19590
 Zr194 Zr 0.21005 0.70956 -0.24656
 Zr195 Zr 0.29362 0.79347 -0.24752
 Zr196 Zr 0.21165 0.79335 -0.23032
 O197 O 0.34509 0.78927 -0.25439
 O198 O 0.16137 0.78566 -0.21896
 O199 O 0.25860 0.78714 -0.21215
 O200 O 0.21672 0.74578 -0.21193
 O201 O 0.25765 0.70061 -0.22903
 O202 O 0.30169 0.74565 -0.22931
 C203 C 0.18250 0.81963 -0.29107
 C204 C 0.29887 0.80967 -0.31760
 C205 C 0.18826 0.70768 -0.31550
 O206 O 0.15891 0.71440 -0.23824
 O207 O 0.19754 0.68429 -0.20513
 O208 O 0.23322 0.70633 -0.17050
 C209 C 0.20820 0.68791 -0.17727
 O210 O 0.30381 0.70385 -0.31133
 Zr211 Zr 0.29263 0.71026 -0.26366
 O212 O 0.30201 0.70150 -0.18572
 O213 O 0.21423 0.65762 -0.25451
 O214 O 0.28435 0.65918 -0.27395
 O215 O 0.34368 0.71796 -0.27105
 O216 O 0.31803 0.68111 -0.23233
 C217 C 0.31921 0.68157 -0.20292
 O218 O 0.26030 0.74295 -0.14739
 O219 O 0.29011 0.84573 -0.24105
 O220 O 0.29101 0.77468 -0.17045
 O221 O 0.31616 0.80802 -0.20577
 O222 O 0.21957 0.84517 -0.22388
 O223 O 0.20642 0.80540 -0.18269
 C224 C 0.30988 0.79922 -0.17782
 H225 H 0.24477 0.82470 -0.27404
 H226 H 0.19974 0.74475 -0.19556
 H227 H 0.32413 0.74405 -0.22060
 H228 H 0.24426 0.69841 -0.29779
 H229 H 0.15095 0.80780 -0.21564
 H230 H 0.14940 0.69179 -0.24039
 H231 H 0.19185 0.64823 -0.25203
 H232 H 0.30605 0.64829 -0.27719
 H233 H 0.19779 0.85594 -0.22074
 H234 H 0.31245 0.85485 -0.24445
 H235 H 0.35434 0.81187 -0.25137
 H236 H 0.35416 0.69583 -0.27423
 H237 H 0.18815 0.82157 -0.17990
 H238 H 0.27679 0.72788 -0.13774
 H239 H 0.22775 0.77625 -0.35617
 H240 H 0.31938 0.68498 -0.31400
 Zr241 Zr 1.26196 1.26058 0.80046
 O242 O 1.25635 1.25378 0.84870
 O243 O 1.30176 1.29232 0.81212
 O244 O 1.28958 1.22432 0.82433
 O245 O 1.19762 1.31910 0.79357
 O246 O 1.30924 1.18845 0.78770
 O247 O 1.22907 1.28986 0.82738
 O248 O 1.32434 1.30731 0.76627
 O249 O 1.29785 1.25058 0.76686
 O250 O 1.25826 1.29980 0.76899
 O251 O 1.24966 1.21326 0.78235
 O252 O 1.21306 1.25978 0.78428
 Zr253 Zr 1.23337 1.24077 0.69738
 Zr254 Zr 1.28464 1.20446 0.74732
 Zr255 Zr 1.21057 1.29745 0.75076
 Zr256 Zr 1.29199 1.28835 0.73391
 O257 O 1.15883 1.29978 0.75665
 O258 O 1.34099 1.27535 0.72138
 O259 O 1.24481 1.28847 0.71523
 O260 O 1.28200 1.24225 0.71399
 O261 O 1.23671 1.20171 0.72919
 O262 O 1.19782 1.25161 0.73105
 C263 C 1.32395 1.30691 0.79572
 C264 C 1.20607 1.31100 0.82113
 C265 C 1.30617 1.19843 0.81586
 O266 O 1.33592 1.20365 0.73857
 O267 O 1.29444 1.17955 0.70516
 O268 O 1.25823 1.20328 0.67169
 C269 C 1.28247 1.18356 0.67791
 O270 O 1.19035 1.20591 0.81100
 Zr271 Zr 1.20256 1.21399 0.76383
 O272 O 1.19313 1.21018 0.68466
 O273 O 1.27563 1.15307 0.75400
 O274 O 1.20548 1.16169 0.77080
 O275 O 1.15279 1.22753 0.77236
 O276 O 1.17383 1.19093 0.73058
 C277 C 1.17300 1.19283 0.70116
 O278 O 1.24824 1.25205 0.65160
 O279 O 1.21990 1.34915 0.74676
 O280 O 1.20669 1.27757 0.67317
 O281 O 1.19036 1.31579 0.70932
 O282 O 1.28973 1.34108 0.73033
 O283 O 1.29866 1.30161 0.68682
 C284 C 1.19274 1.30517 0.68131
 H285 H 1.26218 1.32170 0.77892
 H286 H 1.29837 1.23928 0.69723
 H287 H 1.17537 1.25310 0.72238
 H288 H 1.24920 1.19522 0.79784
 H289 H 1.35363 1.29627 0.71900
 H290 H 1.34316 1.18006 0.74003
 H291 H 1.29696 1.14140 0.75094
 H292 H 1.18271 1.15316 0.77272
 H293 H 1.31258 1.34927 0.72802
 H294 H 1.19859 1.36076 0.75010
 H295 H 1.15228 1.32347 0.75426
 H296 H 1.13990 1.20669 0.77414
 H297 H 1.31758 1.31693 0.68486
 H298 H 1.23252 1.24119 0.63722
 H299 H 1.27263 1.26832 0.85923
 H300 H 1.17353 1.18820 0.81252
 Zr301 Zr 0.73297 0.73860 0.80245
 O302 O 0.73851 0.74428 0.85082
 O303 O 0.69539 0.70424 0.81401
 O304 O 0.70349 0.77275 0.82758
 O305 O 0.80028 0.68386 0.79322
 O306 O 0.68271 0.80911 0.79240
 O307 O 0.76820 0.71147 0.82818
 O308 O 0.67285 0.68929 0.76827
 O309 O 0.69627 0.74735 0.76972
 O310 O 0.73850 0.70021 0.77004
 O311 O 0.74250 0.78686 0.78532
 O312 O 0.78153 0.74229 0.78548
 Zr313 Zr 0.75937 0.76191 0.69954
 Zr314 Zr 0.70682 0.79452 0.75103
 Zr315 Zr 0.78580 0.70552 0.75102
 Zr316 Zr 0.70379 0.71048 0.73588
 O317 O 0.83761 0.70608 0.75609
 O318 O 0.65396 0.72058 0.72452
 O319 O 0.75059 0.71333 0.71638
 O320 O 0.71093 0.75737 0.71681
 O321 O 0.75440 0.80021 0.73221
 O322 O 0.79596 0.75247 0.73218
 C323 C 0.67376 0.68893 0.79767
 C324 C 0.79204 0.69151 0.82109
 C325 C 0.68630 0.79856 0.82024
 O326 O 0.65541 0.79269 0.74380
 O327 O 0.69500 0.81991 0.70978
 O328 O 0.72921 0.79540 0.67457
 C329 C 0.70525 0.81511 0.68193
 O330 O 0.80167 0.79524 0.81349
 Zr331 Zr 0.78935 0.78897 0.76617
 O332 O 0.79800 0.79513 0.68791
 O333 O 0.71357 0.84624 0.75827
 O334 O 0.78396 0.84067 0.77584
 O335 O 0.84006 0.77831 0.77256
 O336 O 0.81550 0.81569 0.73377
 C337 C 0.81651 0.81409 0.70441
 O338 O 0.75249 0.75619 0.65134
 O339 O 0.77928 0.65345 0.74592
 O340 O 0.78336 0.72396 0.67384
 O341 O 0.80684 0.68917 0.70891
 O342 O 0.70876 0.65801 0.73112
 O343 O 0.69770 0.69781 0.68855
 C344 C 0.80107 0.69845 0.68104
 H345 H 0.73590 0.67792 0.77951
 H346 H 0.69382 0.75925 0.70076
 H347 H 0.81832 0.75242 0.72299
 H348 H 0.74235 0.80453 0.80129
 H349 H 0.64268 0.69894 0.72157
 H350 H 0.64702 0.81585 0.74595
 H351 H 0.69161 0.85690 0.75634
 H352 H 0.80626 0.85017 0.77840
 H353 H 0.68635 0.64867 0.72885
 H354 H 0.80120 0.64300 0.74879
 H355 H 0.84545 0.68282 0.75322
 H356 H 0.85164 0.79983 0.77517
 H357 H 0.67964 0.68150 0.68643
 H358 H 0.76939 0.76993 0.64069
 H359 H 0.72299 0.72868 0.86108
 H360 H 0.81800 0.81334 0.81559
 Zr361 Zr 1.25546 0.74547 0.19333
 O362 O 1.23602 0.77116 0.15471
 O363 O 1.28175 0.70731 0.17029
 O364 O 1.29013 0.77195 0.16680
 O365 O 1.18477 0.69889 0.20738
 O366 O 1.31915 0.80265 0.20164
 O367 O 1.21759 0.72067 0.16968
 O368 O 1.31013 0.68197 0.20908
 O369 O 1.29850 0.74306 0.21965
 O370 O 1.24950 0.70426 0.22219
 O371 O 1.25796 0.79135 0.21681
 O372 O 1.21149 0.75408 0.21833
 Zr373 Zr 1.25188 0.75641 0.30048
 Zr374 Zr 1.29976 0.78788 0.24490
 Zr375 Zr 1.20759 0.71382 0.24898
 Zr376 Zr 1.29130 0.70313 0.24978
 O377 O 1.15656 0.72421 0.25181
 O378 O 1.34342 0.70489 0.25191
 O379 O 1.24924 0.71009 0.27731
 O380 O 1.29533 0.74727 0.27500
 O381 O 1.25769 0.79773 0.27162
 O382 O 1.20911 0.75856 0.27396
 C383 C 1.30238 0.68566 0.18065
 C384 C 1.19196 0.70474 0.17888
 C385 C 1.31153 0.79432 0.17378
 O386 O 1.35082 0.77743 0.24495
 O387 O 1.32037 0.80632 0.28651
 O388 O 1.28735 0.78454 0.32407
 C389 C 1.31255 0.80122 0.31503
 O390 O 1.19564 0.81264 0.20055
 Zr391 Zr 1.21587 0.79824 0.24369
 O392 O 1.22508 0.79468 0.32344
 O393 O 1.30058 0.84056 0.24272
 O394 O 1.22709 0.84923 0.23622
 O395 O 1.16386 0.79828 0.24825
 O396 O 1.20536 0.82557 0.28347
 C397 C 1.21032 0.82046 0.31223
 O398 O 1.27348 0.73252 0.33908
 O399 O 1.20543 0.66107 0.24859
 O400 O 1.22021 0.72643 0.32717
 O401 O 1.19143 0.69573 0.29216
 O402 O 1.27952 0.65165 0.25042
 O403 O 1.30507 0.68223 0.29289
 C404 C 1.19981 0.70319 0.31999
 H405 H 1.24667 0.68317 0.21057
 H406 H 1.31474 0.74492 0.28854
 H407 H 1.18921 0.76150 0.28699
 H408 H 1.25922 0.81028 0.20227
 H409 H 1.35185 0.68193 0.24849
 H410 H 1.36216 0.79919 0.24343
 H411 H 1.32406 0.84715 0.24258
 H412 H 1.20659 0.86230 0.23953
 H413 H 1.30023 0.63899 0.24696
 H414 H 1.18181 0.65503 0.24847
 H415 H 1.14532 0.70240 0.25343
 H416 H 1.15677 0.82178 0.25114
 H417 H 1.32194 0.66467 0.28951
 H418 H 1.26531 0.74383 0.35810
 H419 H 1.24334 0.75922 0.13572
 H420 H 1.18008 0.83146 0.20366
 Zr421 Zr 0.74407 1.26260 0.20089
 O422 O 0.75649 1.24560 0.15589
 O423 O 0.71310 1.30265 0.18748
 O424 O 0.70693 1.23749 0.17598
 O425 O 0.81797 1.30598 0.21127
 O426 O 0.68344 1.20152 0.21019
 O427 O 0.77938 1.29049 0.17599
 O428 O 0.69525 1.32367 0.23341
 O429 O 0.70554 1.26011 0.23320
 O430 O 0.75487 1.29908 0.23392
 O431 O 0.74530 1.21359 0.21828
 O432 O 0.79123 1.25077 0.21825
 Zr433 Zr 0.76419 1.23447 0.30425
 Zr434 Zr 0.70814 1.21181 0.25214
 Zr435 Zr 0.80024 1.28581 0.25327
 Zr436 Zr 0.71798 1.29494 0.26720
 O437 O 0.85116 1.27554 0.24856
 O438 O 0.66654 1.29331 0.27533
 O439 O 0.76322 1.28379 0.28731
 O440 O 0.71743 1.24754 0.28664
 O441 O 0.75385 1.19795 0.27113
 O442 O 0.80259 1.23762 0.27209
 C443 C 0.69615 1.32351 0.20390
 C444 C 0.80684 1.30430 0.18349
 C445 C 0.68742 1.21325 0.18272
 O446 O 0.65756 1.22219 0.25907
 O447 O 0.69189 1.18814 0.29324
 O448 O 0.72811 1.20732 0.32900
 C449 C 0.70203 1.19115 0.32128
 O450 O 0.80354 1.19590 0.19032
 Zr451 Zr 0.79093 1.20316 0.23756
 O452 O 0.79619 1.19402 0.31562
 O453 O 0.70688 1.15970 0.24444
 O454 O 0.77771 1.15358 0.22574
 O455 O 0.84294 1.20448 0.23323
 O456 O 0.80995 1.17031 0.26971
 C457 C 0.81030 1.17112 0.29913
 O458 O 0.75882 1.23995 0.35269
 O459 O 0.80272 1.33825 0.25871
 O460 O 0.79229 1.26893 0.33032
 O461 O 0.82188 1.29923 0.29573
 O462 O 0.73278 1.34451 0.27654
 O463 O 0.70533 1.31106 0.31241
 C464 C 0.81342 1.29171 0.32350
 H465 H 0.75614 1.32173 0.22497
 H466 H 0.69977 1.24861 0.30239
 H467 H 0.82431 1.23352 0.28168
 H468 H 0.74224 1.19678 0.20181
 H469 H 0.65856 1.31665 0.27724
 H470 H 0.64578 1.20079 0.25635
 H471 H 0.68353 1.15289 0.24626
 H472 H 0.79825 1.14044 0.22296
 H473 H 0.71266 1.35860 0.27656
 H474 H 0.82609 1.34457 0.25587
 H475 H 0.86272 1.29700 0.25158
 H476 H 0.85082 1.18121 0.23057
 H477 H 0.72089 1.29990 0.32659
 H478 H 0.77347 1.22325 0.36264
 H479 H 0.74580 1.26076 0.14079
 H480 H 0.81834 1.17633 0.18822
 O481 O 0.54474 1.06543 0.05793
 O482 O 0.58337 1.03656 0.02939
 C483 C 0.57487 1.05855 0.05027
 O484 O 0.45725 0.94353 0.05476
 O485 O 0.41986 0.97290 0.02572
 C486 C 0.42751 0.95025 0.04607
 O487 O 0.54751 0.94871 0.05916
 O488 O 0.58483 0.97788 0.02994
 C489 C 0.57734 0.95659 0.05152
 O490 O 0.45456 1.06614 0.05382
 O491 O 0.41837 1.03472 0.02544
 C492 C 0.42509 1.05782 0.04572
 Zr493 Zr 0.50041 1.04691 0.03997
 O494 O 0.49877 1.04067 0.08838
 O495 O 0.49984 1.09948 0.04405
 Zr496 Zr 0.50229 0.96408 0.04050
 O497 O 0.49975 0.96933 0.08903
 O498 O 0.50597 0.91147 0.04256
 O499 O 0.53120 1.00616 0.04657
 O500 O 0.47176 1.00503 0.04527
 O501 O 0.45664 1.06373 -0.05450
 O502 O 0.41938 1.03324 -0.02643
 C503 C 0.42683 1.05546 -0.04718
 O504 O 0.54969 0.94847 -0.05539
 O505 O 0.58594 0.97737 -0.02490
 C506 C 0.57917 0.95624 -0.04687
 O507 O 0.45920 0.94294 -0.05332
 O508 O 0.42069 0.97321 -0.02600
 C509 C 0.42901 0.95034 -0.04612
 O510 O 0.54777 1.06295 -0.05539
 O511 O 0.58489 1.03511 -0.02496
 C512 C 0.57758 1.05598 -0.04688
 Zr513 Zr 0.50221 1.04625 -0.03799
 O514 O 0.50227 1.04246 -0.08667
 O515 O 0.50366 1.09903 -0.03906
 Zr516 Zr 0.50384 0.96283 -0.03712
 O517 O 0.50232 0.96013 -0.08587
 O518 O 0.50656 0.91039 -0.03282
 Zr519 Zr 0.55207 1.00605 0.00193
 Zr520 Zr 0.45240 1.00423 0.00039
 O521 O 0.47419 1.00398 -0.04369
 O522 O 0.53281 1.00502 -0.04314
 O523 O 0.47185 1.05291 0.00046
 O524 O 0.53212 0.95773 0.00207
 O525 O 0.52981 1.05350 0.00133
 O526 O 0.47378 0.95628 0.00125
 H527 H 0.45625 1.00488 0.06300
 H528 H 0.54721 0.93824 0.00235
 H529 H 0.46002 1.00332 -0.06224
 H530 H 0.54387 1.07361 0.00120
 H531 H 0.49351 0.90254 0.02481
 H532 H 0.50751 0.90138 -0.05413
 H533 H 0.51364 0.98018 -0.09376
 H534 H 0.50190 1.06562 -0.09463
 H535 H 0.48497 1.10742 -0.02646
 H536 H 0.50356 1.10849 0.02316
 H537 H 0.49705 1.06339 0.09732
 H538 H 0.49975 0.94641 0.09752
 O539 O 1.04415 0.56345 0.55622
 O540 O 1.08275 0.53536 0.52703
 C541 C 1.07430 0.55664 0.54858
 O542 O 0.95633 0.44344 0.55258
 O543 O 0.91893 0.47270 0.52351
 C544 C 0.92653 0.45034 0.54414
 O545 O 1.04685 0.44856 0.55706
 O546 O 1.08419 0.47722 0.52748
 C547 C 1.07669 0.45637 0.54936
 O548 O 0.95370 0.56480 0.55166
 O549 O 0.91756 0.53273 0.52392
 C550 C 0.92418 0.55586 0.54413
 Zr551 Zr 0.99980 0.54686 0.53664
 O552 O 0.99620 0.54967 0.58532
 O553 O 1.00012 0.59932 0.53202
 Zr554 Zr 1.00154 0.46346 0.53805
 O555 O 0.99884 0.46779 0.58665
 O556 O 1.00528 0.41083 0.53971
 O557 O 1.03020 0.50572 0.54386
 O558 O 0.97152 0.50472 0.54259
 O559 O 0.95662 0.56383 0.44297
 O560 O 0.91913 0.53394 0.47150
 C561 C 0.92683 0.55645 0.45105
 O562 O 1.04882 0.44646 0.44274
 O563 O 1.08518 0.47549 0.47303
 C564 C 1.07830 0.45384 0.45147
 O565 O 0.95864 0.44176 0.44436
 O566 O 0.92009 0.47281 0.47084
 C567 C 0.92848 0.44939 0.45129
 O568 O 1.04734 0.56161 0.44173
 O569 O 1.08434 0.53385 0.47238
 C570 C 1.07710 0.55468 0.45039
 Zr571 Zr 1.00176 0.54509 0.45914
 O572 O 1.00157 0.54033 0.41053
 O573 O 1.00342 0.59780 0.45745
 Zr574 Zr 1.00305 0.46181 0.46055
 O575 O 1.00149 0.45956 0.41176
 O576 O 1.00540 0.40934 0.46484
 Zr577 Zr 1.05144 0.50501 0.49942
 Zr578 Zr 0.95161 0.50353 0.49788
 O579 O 0.97337 0.50301 0.45377
 O580 O 1.03231 0.50374 0.45430
 O581 O 0.97108 0.55216 0.49741
 O582 O 1.03131 0.45678 0.49978
 O583 O 1.02958 0.55266 0.49833
 O584 O 0.97288 0.45554 0.49893
 H585 H 0.95654 0.50458 0.56070
 H586 H 1.04625 0.43718 0.50034
 H587 H 0.95905 0.50258 0.43533
 H588 H 1.04382 0.57265 0.49833
 H589 H 0.99170 0.40194 0.52269
 H590 H 1.00631 0.40028 0.44354
 H591 H 1.01475 0.47837 0.40392
 H592 H 1.00148 0.56333 0.40221
 H593 H 0.98868 0.60629 0.47398
 H594 H 0.99951 0.60851 0.55328
 H595 H 1.00835 0.53026 0.59362
 H596 H 0.99909 0.44473 0.59483
 O597 O 0.94570 0.45597 -0.05895
 O598 O 0.97372 0.41912 -0.02812
 C599 C 0.95353 0.42599 -0.05054
 O600 O 1.06132 0.54936 -0.05439
 O601 O 1.03031 0.58728 -0.02666
 C602 C 1.05366 0.57954 -0.04637
 O603 O 1.05956 0.45786 -0.05619
 O604 O 1.03114 0.41998 -0.02677
 C605 C 1.05262 0.42763 -0.04802
 O606 O 0.94030 0.54774 -0.05669
 O607 O 0.96967 0.58658 -0.02930
 C608 C 0.94741 0.57824 -0.04945
 Zr609 Zr 0.96008 0.50238 -0.04088
 O610 O 0.96641 0.50316 -0.08934
 O611 O 0.90829 0.49833 -0.04406
 Zr612 Zr 1.04193 0.50376 -0.03914
 O613 O 1.03827 0.50410 -0.08781
 O614 O 1.09399 0.50205 -0.03970
 O615 O 1.00183 0.47271 -0.04559
 O616 O 1.00059 0.53278 -0.04580
 O617 O 0.93769 0.54906 0.05202
 O618 O 0.96669 0.58715 0.02325
 C619 C 0.94429 0.57923 0.04359
 O620 O 1.05575 0.45950 0.05768
 O621 O 1.02921 0.42083 0.02767
 C622 C 1.04923 0.42906 0.04978
 O623 O 1.05684 0.55161 0.05399
 O624 O 1.02586 0.58847 0.02571
 C625 C 1.04813 0.58160 0.04628
 O626 O 0.94217 0.45735 0.05530
 O627 O 0.97220 0.41972 0.02653
 C628 C 0.95048 0.42714 0.04776
 Zr629 Zr 0.95749 0.50336 0.03679
 O630 O 0.95542 0.50769 0.08550
 O631 O 0.90564 0.49883 0.03432
 Zr632 Zr 1.03994 0.50498 0.03841
 O633 O 1.04060 0.50910 0.08714
 O634 O 1.09190 0.50439 0.03577
 Zr635 Zr 1.00089 0.45309 -0.00053
 Zr636 Zr 0.99874 0.55427 -0.00155
 O637 O 0.99787 0.53352 0.04302
 O638 O 0.99920 0.47425 0.04409
 O639 O 0.95149 0.53269 -0.00244
 O640 O 1.04773 0.47521 0.00012
 O641 O 0.95318 0.47361 -0.00192
 O642 O 1.04682 0.53441 -0.00044
 H643 H 1.00105 0.54771 -0.06399
 H644 H 1.06758 0.46076 0.00070
 H645 H 0.99695 0.54846 0.06127
 H646 H 0.93400 0.45844 -0.00225
 H647 H 1.10156 0.51546 -0.02191
 H648 H 1.09985 0.50475 0.05735
 H649 H 1.02471 0.49277 0.09539
 H650 H 0.96966 0.49005 0.09424
 H651 H 0.89699 0.51865 0.02343
 H652 H 0.89865 0.51415 -0.02893
 H653 H 0.94400 0.50305 -0.09828
 H654 H 1.06114 0.50449 -0.09585
 O655 O 0.44396 0.95323 0.44438
 O656 O 0.47212 0.91645 0.47519
 C657 C 0.45202 0.92328 0.45270
 O658 O 0.55846 1.04724 0.44862
 O659 O 0.52713 1.08506 0.47609
 C660 C 0.55019 1.07745 0.45604
 O661 O 0.55745 0.95572 0.44688
 O662 O 0.52941 0.91765 0.47640
 C663 C 0.55063 0.92545 0.45495
 O664 O 0.43826 1.04528 0.44641
 O665 O 0.46744 1.08405 0.47405
 C666 C 0.44544 1.07578 0.45369
 Zr667 Zr 0.45785 0.99974 0.46252
 O668 O 0.46367 1.00045 0.41400
 O669 O 0.40603 0.99535 0.45990
 Zr670 Zr 0.53981 1.00149 0.46422
 O671 O 0.53637 1.00172 0.41553
 O672 O 0.59188 1.00010 0.46393
 O673 O 0.49980 0.97031 0.45780
 O674 O 0.49826 1.03017 0.45752
 O675 O 0.43466 1.04614 0.55472
 O676 O 0.46363 1.08441 0.52613
 C677 C 0.44087 1.07632 0.54607
 O678 O 0.55441 0.95764 0.56086
 O679 O 0.52795 0.91865 0.53110
 C680 C 0.54832 0.92713 0.55291
 O681 O 0.55453 1.04955 0.55728
 O682 O 0.52337 1.08616 0.52893
 C683 C 0.54569 1.07947 0.54952
 O684 O 0.43987 0.95468 0.55844
 O685 O 0.47030 0.91715 0.52986
 C686 C 0.44813 0.92454 0.55071
 Zr687 Zr 0.45554 1.00069 0.54026
 O688 O 0.45504 1.00531 0.58900
 O689 O 0.40369 0.99578 0.53911
 Zr690 Zr 0.53783 1.00285 0.54172
 O691 O 0.53817 1.00693 0.59045
 O692 O 0.58980 1.00273 0.53904
 Zr693 Zr 0.49907 0.95058 0.50281
 Zr694 Zr 0.49633 1.05180 0.50172
 O695 O 0.49562 1.03125 0.54633
 O696 O 0.49737 0.97172 0.54745
 O697 O 0.44923 1.02991 0.50095
 O698 O 0.54577 0.97301 0.50344
 O699 O 0.45127 0.97094 0.50150
 O700 O 0.54455 1.03231 0.50282
 H701 H 0.49857 1.04491 0.43920
 H702 H 0.56572 0.95871 0.50388
 H703 H 0.49449 1.04638 0.56444
 H704 H 0.43211 0.95575 0.50110
 H705 H 0.59931 1.01436 0.48119
 H706 H 0.59779 1.00329 0.56062
 H707 H 0.52268 0.99017 0.59863
 H708 H 0.46739 0.98620 0.59761
 H709 H 0.39493 1.01369 0.52578
 H710 H 0.39638 1.01268 0.47353
 H711 H 0.44116 1.00026 0.40526
 H712 H 0.55926 1.00232 0.40755
 O713 O 0.94960 0.92996 0.54333
 O714 O 0.97311 0.96656 0.57746
 C715 C 0.95532 0.94078 0.57102
 O716 O 1.07101 0.94323 0.46361
 O717 O 1.03936 0.96864 0.42656
 C718 C 1.06408 0.95029 0.43525
 O719 O 1.06236 0.94306 0.54852
 O720 O 1.02745 0.97260 0.58030
 C721 C 1.05135 0.95150 0.57557
 O722 O 0.95067 0.92980 0.45739
 O723 O 0.98075 0.96153 0.42372
 C724 C 0.95950 0.93847 0.42978
 Zr725 Zr 0.96569 0.94878 0.50052
 O726 O 0.97666 0.89721 0.50122
 O727 O 0.91433 0.94011 0.50111
 Zr728 Zr 1.04724 0.95838 0.50448
 O729 O 1.04877 0.90567 0.50503
 O730 O 1.09884 0.96261 0.50931
 O731 O 1.00544 0.94848 0.53043
 O732 O 1.00887 0.94650 0.47541
 O733 O 0.93728 1.04350 0.45388
 O734 O 0.97373 1.01666 0.42154
 C735 C 0.94818 1.03557 0.42672
 O736 O 1.04855 1.06447 0.54374
 O737 O 1.02050 1.03145 0.57795
 C738 C 1.03952 1.05640 0.57140
 O739 O 1.05770 1.05755 0.45868
 O740 O 1.03142 1.02326 0.42437
 C741 C 1.05181 1.04689 0.43098
 O742 O 0.93364 1.04819 0.53892
 O743 O 0.96532 1.02334 0.57625
 C744 C 0.94056 1.04144 0.56734
 Zr745 Zr 0.95611 1.03263 0.49757
 O746 O 0.95472 1.08527 0.49336
 O747 O 0.90414 1.03211 0.49583
 Zr748 Zr 1.03794 1.04179 0.50119
 O749 O 1.03354 1.09411 0.49607
 O750 O 1.08969 1.04448 0.50524
 Zr751 Zr 0.99872 0.99752 0.54699
 Zr752 Zr 1.00434 0.99359 0.45477
 O753 O 0.99791 1.04222 0.47210
 O754 O 0.99445 1.04507 0.52683
 O755 O 0.95581 0.98889 0.47151
 O756 O 1.04701 1.00196 0.53008
 O757 O 0.95299 0.99091 0.52528
 O758 O 1.05061 0.99968 0.47568
 H759 H 1.01201 0.92669 0.46194
 H760 H 1.06533 1.00468 0.54488
 H761 H 0.99655 1.06105 0.45739
 H762 H 0.93268 0.98849 0.53780
 H763 H 1.10557 0.98250 0.49743
 H764 H 1.09528 1.06851 0.50463
 H765 H 1.01567 1.10168 0.51004
 H766 H 0.95835 1.09505 0.51407
 H767 H 0.89734 1.00873 0.49882
 H768 H 0.90440 0.95473 0.48529
 H769 H 0.95522 0.88562 0.50011
 H770 H 1.07235 0.89939 0.50618
 O771 O 0.56419 0.44331 0.04634
 O772 O 0.52939 0.47169 0.07919
 C773 C 0.55427 0.45198 0.07367
 O774 O 0.55311 0.56001 -0.04169
 O775 O 0.52841 0.52454 -0.07614
 C776 C 0.54647 0.55008 -0.06949
 O777 O 0.55361 0.55879 0.04413
 O778 O 0.52346 0.52711 0.07783
 C779 C 0.54484 0.55009 0.07175
 O780 O 0.56484 0.43749 -0.03892
 O781 O 0.53545 0.46690 -0.07505
 C782 C 0.55818 0.44580 -0.06707
 Zr783 Zr 0.54601 0.45671 0.00285
 O784 O 0.59717 0.46600 0.00311
 O785 O 0.55309 0.40460 0.00705
 Zr786 Zr 0.53824 0.54007 0.00110
 O787 O 0.59026 0.54054 0.00147
 O788 O 0.53502 0.59274 0.00259
 O789 O 0.54724 0.49968 0.02979
 O790 O 0.54934 0.49831 -0.02494
 O791 O 0.45041 0.42861 -0.04300
 O792 O 0.47966 0.46091 -0.07684
 C793 C 0.45967 0.43675 -0.07060
 O794 O 0.43222 0.54550 0.03944
 O795 O 0.46498 0.52109 0.07610
 C796 C 0.43939 0.53821 0.06765
 O797 O 0.44085 0.54955 -0.04541
 O798 O 0.47417 0.51950 -0.07818
 C799 C 0.45104 0.54128 -0.07275
 O800 O 0.44197 0.43544 0.04233
 O801 O 0.47079 0.46704 0.07703
 C802 C 0.44843 0.44550 0.07011
 Zr803 Zr 0.46406 0.44867 0.00005
 O804 O 0.41337 0.43766 -0.00314
 O805 O 0.47348 0.39695 0.00528
 Zr806 Zr 0.45611 0.53268 -0.00194
 O807 O 0.40440 0.53033 -0.00728
 O808 O 0.45503 0.58538 -0.00061
 Zr809 Zr 0.49878 0.49586 0.04672
 Zr810 Zr 0.50295 0.49332 -0.04567
 O811 O 0.45496 0.48947 -0.02791
 O812 O 0.45222 0.49085 0.02588
 O813 O 0.50689 0.44536 -0.02616
 O814 O 0.49516 0.54330 0.02661
 O815 O 0.50425 0.44732 0.02881
 O816 O 0.49779 0.54211 -0.02810
 H817 H 0.56917 0.49997 -0.03825
 H818 H 0.49242 0.56297 0.04032
 H819 H 0.43627 0.48773 -0.04242
 H820 H 0.50517 0.42846 0.04352
 H821 H 0.51600 0.59918 -0.01030
 H822 H 0.43149 0.59190 -0.00128
 H823 H 0.39632 0.51246 0.00646
 H824 H 0.40197 0.45877 -0.00807
 H825 H 0.48123 0.38811 -0.01485
 H826 H 0.53770 0.39373 -0.00740
 H827 H 0.60808 0.44384 0.00338
 H828 H 0.59670 0.56434 0.00069
 C829 C 0.35731 1.14689 0.13178
 C830 C 0.33911 1.14561 0.10508
 C831 C 0.31189 1.16602 0.10022
 C832 C 0.30268 1.18808 0.12404
 C833 C 0.32034 1.18906 0.15229
 C834 C 0.34824 1.16820 0.15601
 O835 O 0.38299 1.12633 0.13136
 C836 C 0.38085 1.11166 0.10393
 C837 C 0.35424 1.12218 0.08702
 C838 C 0.34755 1.10983 0.05759
 C839 C 0.36982 1.08654 0.04472
 C840 C 0.39832 1.07674 0.06109
 C841 C 0.40335 1.08897 0.09146
 H842 H 0.29807 1.16484 0.07895
 H843 H 0.28098 1.20343 0.12087
 H844 H 0.36220 1.16824 0.17724
 H845 H 0.32635 1.11831 0.04473
 H846 H 0.36580 1.07749 0.02157
 H847 H 0.42489 1.08197 0.10463
 C848 C 0.85349 0.63994 0.63280
 C849 C 0.83275 0.63417 0.60831
 C850 C 0.80216 0.64958 0.60581
 C851 C 0.79251 0.67152 0.62958
 C852 C 0.81309 0.67711 0.65549
 C853 C 0.84402 0.66096 0.65710
 O854 O 0.88208 0.62409 0.63012
 C855 C 0.87926 0.60785 0.60353
 C856 C 0.84944 0.61272 0.58937
 C857 C 0.84147 0.59754 0.56138
 C858 C 0.86553 0.57718 0.54714
 C859 C 0.89709 0.57337 0.56054
 C860 C 0.90359 0.58846 0.58951
 H861 H 0.78637 0.64503 0.58621
 H862 H 0.76863 0.68353 0.62818
 H863 H 0.86030 0.66491 0.67647
 H864 H 0.81767 0.60138 0.55081
 H865 H 0.85991 0.56523 0.52539
 H866 H 0.92724 0.58574 0.60067
 C867 C 0.64181 0.86507 0.13657
 C868 C 0.66196 0.86876 0.11118
 C869 C 0.68999 0.84936 0.10652
 C870 C 0.69791 0.82572 0.12918
 C871 C 0.67820 0.82221 0.15617
 C872 C 0.64961 0.84221 0.15976
 O873 O 0.61551 0.88481 0.13587
 C874 C 0.61926 0.90142 0.10962
 C875 C 0.64748 0.89293 0.09380
 C876 C 0.65601 0.90742 0.06568
 C877 C 0.63394 0.93069 0.05287
 C878 C 0.60371 0.93825 0.06785
 C879 C 0.59686 0.92400 0.09710
 H880 H 0.70527 0.85235 0.08620
 H881 H 0.72010 0.81095 0.12619
 H882 H 0.63405 0.84014 0.18002
 H883 H 0.67850 0.90054 0.05372
 H884 H 0.63964 0.94153 0.03070
 H885 H 0.57402 0.92922 0.10922
 C886 C 1.14350 0.36851 0.63621
 C887 C 1.16381 0.37271 0.61100
 C888 C 1.19265 0.35443 0.60682
 C889 C 1.20111 0.33127 0.62972
 C890 C 1.18115 0.32729 0.65644
 C891 C 1.15191 0.34627 0.65972
 O892 O 1.11634 0.38696 0.63491
 C893 C 1.11970 0.40326 0.60846
 C894 C 1.14852 0.39587 0.59312
 C895 C 1.15685 0.41029 0.56494
 C896 C 1.13403 0.43238 0.55159
 C897 C 1.10324 0.43873 0.56604
 C898 C 1.09650 0.42455 0.59533
 H899 H 1.20802 0.35775 0.58660
 H900 H 1.22374 0.31712 0.62709
 H901 H 1.13618 0.34362 0.67979
 H902 H 1.17983 0.40432 0.55341
 H903 H 1.13974 0.44335 0.52945
 H904 H 1.07329 0.42896 0.60710
 C905 C 0.64794 1.14326 -0.13255
 C906 C 0.66811 1.13739 -0.10770
 C907 C 0.69838 1.15295 -0.10426
 C908 C 0.70844 1.17505 -0.12754
 C909 C 0.68856 1.18079 -0.15391
 C910 C 0.65776 1.16462 -0.15631
 O911 O 0.61969 1.12685 -0.13091
 C912 C 0.62217 1.11015 -0.10459
 C913 C 0.65145 1.11536 -0.08962
 C914 C 0.65915 1.09986 -0.06182
 C915 C 0.63538 1.07878 -0.04857
 C916 C 0.60434 1.07428 -0.06283
 C917 C 0.59807 1.08983 -0.09160
 H918 H 0.71374 1.14823 -0.08439
 H919 H 0.73221 1.18692 -0.12542
 H920 H 0.64197 1.16851 -0.17605
 H921 H 0.68251 1.10406 -0.05058
 H922 H 0.64080 1.06683 -0.02682
 H923 H 0.57478 1.08679 -0.10331
 C924 C 1.14687 0.64348 0.36588
 C925 C 1.16646 0.63851 0.39130
 C926 C 1.19596 0.65528 0.39552
 C927 C 1.20592 0.67761 0.37242
 C928 C 1.18670 0.68242 0.34544
 C929 C 1.15660 0.66510 0.34231
 O930 O 1.11926 0.62594 0.36680
 C931 C 1.12159 0.60943 0.39324
 C932 C 1.15016 0.61587 0.40898
 C933 C 1.15759 0.60086 0.43707
 C934 C 1.13422 0.57900 0.44982
 C935 C 1.10383 0.57324 0.43476
 C936 C 1.09789 0.58828 0.40570
 H937 H 1.21086 0.65124 0.41583
 H938 H 1.22918 0.69033 0.37513
 H939 H 1.14134 0.66821 0.32209
 H940 H 1.18038 0.60608 0.44893
 H941 H 1.13928 0.56757 0.47187
 H942 H 1.07505 0.58435 0.39345
 C943 C 0.36270 0.85775 -0.13037
 C944 C 0.34081 0.86627 -0.10726
 C945 C 0.30964 0.85228 -0.10504
 C946 C 0.30052 0.82899 -0.12773
 C947 C 0.32213 0.82069 -0.15249
 C948 C 0.35375 0.83534 -0.15375
 O949 O 0.39146 0.87308 -0.12769
 C950 C 0.38753 0.89182 -0.10255
 C951 C 0.35685 0.88901 -0.08940
 C952 C 0.34730 0.90745 -0.06349
 C953 C 0.37060 0.92903 -0.05020
 C954 C 0.40308 0.93088 -0.06220
 C955 C 0.41126 0.91233 -0.08921
 H956 H 0.29291 0.85908 -0.08653
 H957 H 0.27611 0.81831 -0.12664
 H958 H 0.37074 0.82955 -0.17236
 H959 H 0.32276 0.90539 -0.05389
 H960 H 0.36349 0.94378 -0.03032
 H961 H 0.43558 0.91348 -0.09947
 C962 C 0.86461 0.35292 0.36955
 C963 C 0.84334 0.35982 0.39359
 C964 C 0.81348 0.34348 0.39717
 C965 C 0.80489 0.31964 0.37478
 C966 C 0.82576 0.31299 0.34902
 C967 C 0.85623 0.32983 0.34659
 O968 O 0.89216 0.37055 0.37084
 C969 C 0.88806 0.38912 0.39606
 C970 C 0.85843 0.38394 0.41063
 C971 C 0.84891 0.40165 0.43699
 C972 C 0.87126 0.42489 0.44928
 C973 C 0.90278 0.42921 0.43575
 C974 C 0.91081 0.41146 0.40827
 H975 H 0.79721 0.34907 0.41638
 H976 H 0.78129 0.30740 0.37686
 H977 H 0.87263 0.32549 0.32721
 H978 H 0.82521 0.39761 0.44780
 H979 H 0.86440 0.43874 0.46975
 H980 H 0.93446 0.41438 0.39700
 C981 C 1.13586 0.36274 0.13778
 C982 C 1.13333 0.34289 0.11191
 C983 C 1.15239 0.31446 0.10744
 C984 C 1.17458 0.30582 0.13076
 C985 C 1.17700 0.32514 0.15822
 C986 C 1.15723 0.35409 0.16178
 O987 O 1.11663 0.38960 0.13660
 C988 C 1.10160 0.38640 0.10956
 C989 C 1.11058 0.35800 0.09376
 C990 C 1.09778 0.34976 0.06498
 C991 C 1.07555 0.37229 0.05148
 C992 C 1.06734 0.40269 0.06648
 C993 C 1.08004 0.40938 0.09631
 H994 H 1.15027 0.29945 0.08674
 H995 H 1.18907 0.28328 0.12784
 H996 H 1.15848 0.36927 0.18245
 H997 H 1.10509 0.32709 0.05310
 H998 H 1.06597 0.36678 0.02881
 H999 H 1.07424 0.43236 0.10842
 C1000 C 0.64184 0.86475 0.63710
 C1001 C 0.64050 0.84591 0.61052
 C1002 C 0.66167 0.81930 0.60484
 C1003 C 0.68448 0.81109 0.62782
 C1004 C 0.68544 0.82899 0.65623
 C1005 C 0.66391 0.85655 0.66069
 O1006 O 0.62029 0.88980 0.63731
 C1007 C 0.60492 0.88644 0.61044
 C1008 C 0.61598 0.85965 0.59341
 C1009 C 0.60289 0.85129 0.56476
 C1010 C 0.57827 0.87218 0.55265
 C1011 C 0.56797 0.90122 0.56880
 C1012 C 0.58097 0.90785 0.59855
 H1013 H 0.66043 0.80508 0.58360
 H1014 H 0.70028 0.78965 0.62396
 H1015 H 0.66380 0.87061 0.68207
 H1016 H 0.61176 0.82983 0.55192
 H1017 H 0.56851 0.86673 0.53007
 H1018 H 0.57367 0.92984 0.61151
 C1019 C 1.14272 0.64482 -0.13321
 C1020 C 1.15076 0.65459 -0.10377
 C1021 C 1.17902 0.67258 -0.09733
 C1022 C 1.19927 0.68192 -0.12220
 C1023 C 1.19082 0.67419 -0.15344
 C1024 C 1.16213 0.65449 -0.15858
 O1025 O 1.11565 0.62624 -0.13406
 C1026 C 1.10634 0.62457 -0.10457
 C1027 C 1.12671 0.64193 -0.08512
 C1028 C 1.12159 0.64328 -0.05328
 C1029 C 1.09509 0.62510 -0.04087
 C1030 C 1.07461 0.60572 -0.06020
 C1031 C 1.08014 0.60591 -0.09261
 H1032 H 1.18528 0.67935 -0.07388
 H1033 H 1.22092 0.69642 -0.11682
 H1034 H 1.15460 0.64740 -0.18163
 H1035 H 1.13806 0.65699 -0.03838
 H1036 H 1.09200 0.62416 -0.01607
 H1037 H 1.06552 0.59053 -0.10784
 C1038 C 0.63786 1.14321 0.36774
 C1039 C 0.63754 1.16167 0.39461
 C1040 C 0.65854 1.18843 0.39932
 C1041 C 0.68036 1.19681 0.37535
 C1042 C 0.68069 1.17891 0.34692
 C1043 C 0.65894 1.15162 0.34316
 O1044 O 0.61699 1.11778 0.36858
 C1045 C 0.60315 1.12043 0.39641
 C1046 C 0.61451 1.14710 0.41316
 C1047 C 0.60332 1.15425 0.44299
 C1048 C 0.58017 1.13250 0.45640
 C1049 C 0.56922 1.10394 0.44017
 C1050 C 0.58055 1.09832 0.40947
 H1051 H 0.65817 1.20240 0.42074
 H1052 H 0.69638 1.21800 0.37868
 H1053 H 0.65852 1.13739 0.32189
 H1054 H 0.61260 1.17544 0.45575
 H1055 H 0.57217 1.13689 0.47988
 H1056 H 0.57286 1.07660 0.39649
 C1057 C 0.85574 0.64257 0.13217
 C1058 C 0.84943 0.65560 0.10344
 C1059 C 0.82277 0.67640 0.09775
 C1060 C 0.80233 0.68495 0.12277
 C1061 C 0.80893 0.67310 0.15309
 C1062 C 0.83596 0.65113 0.15762
 O1063 O 0.88161 0.62216 0.13228
 C1064 C 0.89188 0.62255 0.10309
 C1065 C 0.87330 0.64294 0.08455
 C1066 C 0.87953 0.64660 0.05307
 C1067 C 0.90525 0.62754 0.03998
 C1068 C 0.92378 0.60525 0.05835
 C1069 C 0.91733 0.60326 0.09048
 H1070 H 0.81800 0.68600 0.07487
 H1071 H 0.78205 0.70188 0.11852
 H1072 H 0.84187 0.64161 0.18029
 H1073 H 0.86442 0.66267 0.03890
 H1074 H 0.90915 0.62837 0.01533
 H1075 H 0.93062 0.58583 0.10491
 C1076 C 0.34778 1.13777 0.63139
 C1077 C 0.34115 1.14952 0.60227
 C1078 C 0.31371 1.16913 0.59594
 C1079 C 0.29302 1.17806 0.62076
 C1080 C 0.30015 1.16770 0.65142
 C1081 C 0.32768 1.14652 0.65648
 O1082 O 0.37463 1.11880 0.63240
 C1083 C 0.38530 1.11877 0.60336
 C1084 C 0.36595 1.13748 0.58399
 C1085 C 0.37271 1.14056 0.55254
 C1086 C 0.39975 1.12260 0.54043
 C1087 C 0.41913 1.10201 0.55974
 C1088 C 0.41208 1.10067 0.59177
 H1089 H 0.30871 1.17780 0.57279
 H1090 H 0.27231 1.19434 0.61615
 H1091 H 0.33413 1.13820 0.67943
 H1092 H 0.35707 1.15531 0.53768
 H1093 H 0.40411 1.12283 0.51581
 H1094 H 0.42597 1.08447 0.60691
 C1095 C 0.87273 0.35431 -0.13991
 C1096 C 0.87788 0.33372 -0.11499
 C1097 C 0.86202 0.30335 -0.11165
 C1098 C 0.84010 0.29377 -0.13491
 C1099 C 0.83465 0.31423 -0.16116
 C1100 C 0.85150 0.34491 -0.16377
 O1101 O 0.88887 0.38293 -0.13770
 C1102 C 0.90454 0.38021 -0.11095
 C1103 C 0.89895 0.35046 -0.09626
 C1104 C 0.91257 0.34279 -0.06766
 C1105 C 0.93216 0.36712 -0.05330
 C1106 C 0.93716 0.39856 -0.06741
 C1107 C 0.92358 0.40477 -0.09698
 H1108 H 0.86611 0.28774 -0.09169
 H1109 H 0.82768 0.27006 -0.13266
 H1110 H 0.84765 0.36117 -0.18334
 H1111 H 0.90777 0.31917 -0.05652
 H1112 H 0.94230 0.36197 -0.03076
 H1113 H 0.92688 0.42848 -0.10845
 C1114 C 0.37311 0.85231 0.36155
 C1115 C 0.37777 0.83147 0.38638
 C1116 C 0.36168 0.80117 0.38928
 C1117 C 0.34001 0.79196 0.36568
 C1118 C 0.33509 0.81271 0.33953
 C1119 C 0.35218 0.84326 0.33735
 O1120 O 0.38928 0.88084 0.36421
 C1121 C 0.40447 0.87784 0.39117
 C1122 C 0.39857 0.84798 0.40556
 C1123 C 0.41164 0.84008 0.43435
 C1124 C 0.43096 0.86430 0.44921
 C1125 C 0.43615 0.89586 0.43541
 C1126 C 0.42320 0.90227 0.40564
 H1127 H 0.36535 0.78537 0.40919
 H1128 H 0.32736 0.76835 0.36758
 H1129 H 0.34870 0.85973 0.31787
 H1130 H 0.40663 0.81637 0.44523
 H1131 H 0.44071 0.85897 0.47187
 H1132 H 0.42669 0.92608 0.39438
 C1133 C 1.13977 1.12997 0.35844
 C1134 C 1.12650 1.10594 0.33952
 C1135 C 1.13351 1.10332 0.30840
 C1136 C 1.15466 1.12694 0.29595
 C1137 C 1.16806 1.15283 0.31461
 C1138 C 1.16097 1.15398 0.34653
 O1139 O 1.12922 1.12791 0.38736
 C1140 C 1.10884 1.10217 0.38639
 C1141 C 1.10626 1.08808 0.35758
 C1142 C 1.08558 1.06164 0.35089
 C1143 C 1.06695 1.04876 0.37517
 C1144 C 1.06980 1.06221 0.40539
 C1145 C 1.09086 1.08955 0.41096
 H1146 H 1.12278 1.08405 0.29413
 H1147 H 1.16009 1.12522 0.27151
 H1148 H 1.17067 1.17341 0.36128
 H1149 H 1.08381 1.05136 0.32783
 H1150 H 1.05076 1.02801 0.37044
 H1151 H 1.09336 1.10058 0.43367
 C1152 C 0.62615 0.64003 -0.14322
 C1153 C 0.60152 0.62748 -0.16154
 C1154 C 0.59834 0.63511 -0.19249
 C1155 C 0.62188 0.65619 -0.20532
 C1156 C 0.64814 0.66897 -0.18717
 C1157 C 0.64995 0.66112 -0.15548
 O1158 O 0.62489 0.62892 -0.11448
 C1159 C 0.59902 0.60890 -0.11486
 C1160 C 0.58397 0.60708 -0.14315
 C1161 C 0.55714 0.58676 -0.14909
 C1162 C 0.54513 0.56758 -0.12465
 C1163 C 0.55997 0.56938 -0.09513
 C1164 C 0.58732 0.59034 -0.09022
 H1165 H 0.57870 0.62487 -0.20636
 H1166 H 0.61977 0.66208 -0.22960
 H1167 H 0.66968 0.67026 -0.14108
 H1168 H 0.54598 0.58564 -0.17170
 H1169 H 0.52408 0.55170 -0.12864
 H1170 H 0.59935 0.59193 -0.06801
 C1171 C 0.86381 1.13320 0.64085
 C1172 C 0.84312 1.11111 0.62645
 C1173 C 0.80918 1.11564 0.62512
 C1174 C 0.79586 1.14348 0.64043
 C1175 C 0.81656 1.16548 0.65688
 C1176 C 0.85103 1.16058 0.65677
 O1177 O 0.89544 1.12525 0.63782
 C1178 C 0.89467 1.09732 0.62133
 C1179 C 0.86315 1.08738 0.61433
 C1180 C 0.85635 1.05934 0.59675
 C1181 C 0.88317 1.04180 0.58441
 C1182 C 0.91582 1.05283 0.58948
 C1183 C 0.92186 1.08028 0.60907
 H1184 H 0.79352 1.09814 0.61315
 H1185 H 0.76938 1.14686 0.64102
 H1186 H 0.86717 1.17700 0.66951
 H1187 H 0.83134 1.05211 0.59155
 H1188 H 0.87850 1.02111 0.56890
 H1189 H 0.94652 1.08978 0.61228
 C1190 C 0.36371 0.62868 0.14318
 C1191 C 0.34278 0.60639 0.12933
 C1192 C 0.30882 0.61094 0.12851
 C1193 C 0.29579 0.63907 0.14360
 C1194 C 0.31680 0.66140 0.15932
 C1195 C 0.35123 0.65637 0.15888
 O1196 O 0.39529 0.62087 0.13950
 C1197 C 0.39426 0.59286 0.12314
 C1198 C 0.36264 0.58270 0.11683
 C1199 C 0.35564 0.55475 0.09914
 C1200 C 0.38228 0.53763 0.08593
 C1201 C 0.41493 0.54893 0.09035
 C1202 C 0.42123 0.57615 0.11012
 H1203 H 0.29294 0.59331 0.11696
 H1204 H 0.26934 0.64257 0.14445
 H1205 H 0.36761 0.67307 0.17100
 H1206 H 0.33057 0.54737 0.09443
 H1207 H 0.37743 0.51707 0.07032
 H1208 H 0.44588 0.58588 0.11282
 C1209 C 1.13595 0.86741 0.65146
 C1210 C 1.11532 0.88521 0.67073
 C1211 C 1.11581 0.88208 0.70247
 C1212 C 1.13856 0.85977 0.71501
 C1213 C 1.16060 0.84074 0.69583
 C1214 C 1.15890 0.84486 0.66333
 O1215 O 1.13128 0.87429 0.62189
 C1216 C 1.10724 0.89684 0.62271
 C1217 C 1.09659 0.90439 0.65202
 C1218 C 1.07151 0.92729 0.65814
 C1219 C 1.05670 0.94304 0.63284
 C1220 C 1.06725 0.93561 0.60230
 C1221 C 1.09300 0.91216 0.59736
 H1222 H 1.09929 0.89637 0.71713
 H1223 H 1.13875 0.85760 0.73993
 H1224 H 1.17491 0.83118 0.64767
 H1225 H 1.06358 0.93274 0.68150
 H1226 H 1.03703 0.96082 0.63708
 H1227 H 1.10170 0.90574 0.57443
 C1228 C 0.64436 0.37069 0.14626
 C1229 C 0.63352 0.39676 0.16451
 C1230 C 0.64359 0.40117 0.19473
 C1231 C 0.66516 0.37739 0.20688
 C1232 C 0.67615 0.34963 0.18888
 C1233 C 0.66597 0.34663 0.15786
 O1234 O 0.63138 0.37104 0.11826
 C1235 C 0.61196 0.39776 0.11902
 C1236 C 0.61224 0.41432 0.14681
 C1237 C 0.59314 0.44259 0.15273
 C1238 C 0.57318 0.45454 0.12877
 C1239 C 0.57303 0.43823 0.09969
 C1240 C 0.59257 0.40926 0.09497
 H1241 H 0.63482 0.42193 0.20859
 H1242 H 0.67287 0.38043 0.23061
 H1243 H 0.67363 0.32572 0.14361
 H1244 H 0.59372 0.45508 0.17491
 H1245 H 0.55853 0.47682 0.13262
 H1246 H 0.59285 0.39606 0.07311
 C1247 C 0.87014 0.85891 0.35528
 C1248 C 0.88920 0.87797 0.33589
 C1249 C 0.88507 0.87873 0.30425
 C1250 C 0.86045 0.85869 0.29190
 C1251 C 0.84050 0.83825 0.31121
 C1252 C 0.84538 0.83858 0.34350
 O1253 O 0.87798 0.86257 0.38476
 C1254 C 0.90246 0.88435 0.38376
 C1255 C 0.91027 0.89443 0.35438
 C1256 C 0.93472 0.91747 0.34791
 C1257 C 0.95162 0.93116 0.37293
 C1258 C 0.94365 0.92168 0.40361
 C1259 C 0.91893 0.89757 0.40898
 H1260 H 0.90026 0.89419 0.28958
 H1261 H 0.85718 0.85911 0.26712
 H1262 H 0.83067 0.82343 0.35886
 H1263 H 0.94026 0.92498 0.32449
 H1264 H 0.97039 0.94959 0.36836
 H1265 H 0.91206 0.88993 0.43206
 C1266 C 0.37540 0.35148 -0.14489
 C1267 C 0.40066 0.36273 -0.16335
 C1268 C 0.40290 0.35560 -0.19457
 C1269 C 0.37783 0.33644 -0.20745
 C1270 C 0.35098 0.32498 -0.18913
 C1271 C 0.35009 0.33228 -0.15720
 O1272 O 0.37762 0.36198 -0.11595
 C1273 C 0.40474 0.38027 -0.11631
 C1274 C 0.41970 0.38160 -0.14477
 C1275 C 0.44768 0.40042 -0.15063
 C1276 C 0.46085 0.41867 -0.12601
 C1277 C 0.44594 0.41751 -0.09636
 C1278 C 0.41753 0.39790 -0.09153
 H1279 H 0.42299 0.36482 -0.20859
 H1280 H 0.37925 0.33097 -0.23191
 H1281 H 0.32995 0.32417 -0.14264
 H1282 H 0.45875 0.40128 -0.17338
 H1283 H 0.48262 0.43354 -0.13002
 H1284 H 0.40529 0.39683 -0.06929
 C1285 C 1.14422 0.36147 -0.13251
 C1286 C 1.14168 0.34216 -0.10641
 C1287 C 1.16124 0.31412 -0.10168
 C1288 C 1.18371 0.30520 -0.12507
 C1289 C 1.18597 0.32400 -0.15279
 C1290 C 1.16604 0.35279 -0.15629
 O1291 O 1.12413 0.38765 -0.13212
 C1292 C 1.10847 0.38469 -0.10531
 C1293 C 1.11794 0.35709 -0.08880
 C1294 C 1.10436 0.34934 -0.06011
 C1295 C 1.08086 0.37154 -0.04755
 C1296 C 1.07202 0.40106 -0.06348
 C1297 C 1.08557 0.40716 -0.09313
 H1298 H 1.15906 0.29943 -0.08087
 H1299 H 1.19839 0.28286 -0.12204
 H1300 H 1.16703 0.36765 -0.17709
 H1301 H 1.11203 0.32734 -0.04758
 H1302 H 1.07078 0.36656 -0.02492
 H1303 H 1.07935 0.42945 -0.10594
 C1304 C 0.64031 0.85994 0.36812
 C1305 C 0.63905 0.84095 0.39451
 C1306 C 0.65955 0.81358 0.39912
 C1307 C 0.68167 0.80501 0.37533
 C1308 C 0.68255 0.82338 0.34734
 C1309 C 0.66160 0.85141 0.34385
 O1310 O 0.61971 0.88573 0.36884
 C1311 C 0.60500 0.88280 0.39614
 C1312 C 0.61554 0.85557 0.41261
 C1313 C 0.60301 0.84781 0.44171
 C1314 C 0.57949 0.86968 0.45474
 C1315 C 0.56976 0.89899 0.43898
 C1316 C 0.58220 0.90505 0.40888
 H1317 H 0.65843 0.79919 0.42019
 H1318 H 0.69718 0.78322 0.37826
 H1319 H 0.66163 0.86589 0.32279
 H1320 H 0.61142 0.82605 0.45415
 H1321 H 0.57009 0.86461 0.47757
 H1322 H 0.57523 0.92717 0.39615
 C1323 C 0.85415 0.64189 -0.13297
 C1324 C 0.85952 0.66346 -0.10873
 C1325 C 0.84200 0.69308 -0.10511
 C1326 C 0.81854 0.70107 -0.12765
 C1327 C 0.81341 0.67984 -0.15353
 C1328 C 0.83146 0.64969 -0.15605
 O1329 O 0.87250 0.61449 -0.13157
 C1330 C 0.88993 0.61897 -0.10606
 C1331 C 0.88335 0.64871 -0.09138
 C1332 C 0.89945 0.65841 -0.06447
 C1333 C 0.92247 0.63604 -0.05169
 C1334 C 0.92805 0.60434 -0.06540
 C1335 C 0.91207 0.59625 -0.09347
 H1336 H 0.84635 0.70955 -0.08572
 H1337 H 0.80529 0.72448 -0.12554
 H1338 H 0.82819 0.63302 -0.17551
 H1339 H 0.89424 0.68218 -0.05353
 H1340 H 0.93498 0.64291 -0.03064
 H1341 H 0.91600 0.57244 -0.10482
 C1342 C 0.36003 1.14456 0.36591
 C1343 C 0.36584 1.16597 0.39018
 C1344 C 0.35056 1.19694 0.39281
 C1345 C 0.32863 1.20629 0.36940
 C1346 C 0.32289 1.18505 0.34369
 C1347 C 0.33897 1.15374 0.34190
 O1348 O 0.37590 1.11570 0.36852
 C1349 C 0.39218 1.11908 0.39485
 C1350 C 0.38726 1.14951 0.40886
 C1351 C 0.40239 1.15827 0.43650
 C1352 C 0.42293 1.13444 0.45055
 C1353 C 0.42707 1.10228 0.43730
 C1354 C 0.41181 1.09486 0.40873
 H1355 H 0.35517 1.21323 0.41227
 H1356 H 0.31664 1.23044 0.37095
 H1357 H 0.33488 1.13696 0.32268
 H1358 H 0.39842 1.18253 0.44696
 H1359 H 0.43482 1.14071 0.47208
 H1360 H 0.41470 1.07071 0.39775
 C1361 C 1.13071 0.65351 0.13380
 C1362 C 1.12505 0.67423 0.10907
 C1363 C 1.14074 0.70475 0.10574
 C1364 C 1.16303 0.71426 0.12881
 C1365 C 1.16879 0.69361 0.15483
 C1366 C 1.15215 0.66286 0.15740
 O1367 O 1.11481 0.62479 0.13173
 C1368 C 1.09870 0.62749 0.10527
 C1369 C 1.10375 0.65737 0.09059
 C1370 C 1.08929 0.66505 0.06234
 C1371 C 1.06939 0.64064 0.04842
 C1372 C 1.06512 0.60906 0.06250
 C1373 C 1.07958 0.60284 0.09165
 H1374 H 1.13632 0.72047 0.08592
 H1375 H 1.17553 0.73794 0.12660
 H1376 H 1.15639 0.64640 0.17677
 H1377 H 1.09352 0.68879 0.05123
 H1378 H 1.05833 0.64587 0.02627
 H1379 H 1.07671 0.57908 0.10316
 C1380 C 0.62968 1.15210 0.63549
 C1381 C 0.62249 1.17312 0.61134
 C1382 C 0.63713 1.20418 0.60806
 C1383 C 0.65993 1.21396 0.63058
 C1384 C 0.66721 1.19302 0.65606
 C1385 C 0.65164 1.16169 0.65859
 O1386 O 0.61457 1.12293 0.63344
 C1387 C 0.59740 1.12566 0.60756
 C1388 C 0.60100 1.15597 0.59328
 C1389 C 0.58515 1.16380 0.56574
 C1390 C 0.56538 1.13910 0.55209
 C1391 C 0.56264 1.10708 0.56565
 C1392 C 0.57846 1.10070 0.59416
 H1393 H 0.63151 1.22014 0.58867
 H1394 H 0.67160 1.23808 0.62842
 H1395 H 0.65703 1.14503 0.67755
 H1396 H 0.58817 1.18792 0.55498
 H1397 H 0.55310 1.14456 0.53060
 H1398 H 0.57675 1.07665 0.60534
 C1399 C 0.86744 0.35607 0.13679
 C1400 C 0.86941 0.33722 0.11021
 C1401 C 0.85087 0.30854 0.10588
 C1402 C 0.82971 0.29872 0.12991
 C1403 C 0.82780 0.31710 0.15797
 C1404 C 0.84715 0.34622 0.16142
 O1405 O 0.88589 0.38335 0.13559
 C1406 C 0.89992 0.38154 0.10780
 C1407 C 0.89103 0.35358 0.09147
 C1408 C 0.90294 0.34686 0.06184
 C1409 C 0.92426 0.37026 0.04822
 C1410 C 0.93264 0.40005 0.06401
 C1411 C 0.92057 0.40538 0.09447
 H1412 H 0.85248 0.29429 0.08465
 H1413 H 0.81537 0.27625 0.12695
 H1414 H 0.84612 0.36088 0.18244
 H1415 H 0.89567 0.32463 0.04943
 H1416 H 0.93298 0.36592 0.02492
 H1417 H 0.92640 0.42790 0.10715
 C1418 C 0.36279 0.85509 0.63842
 C1419 C 0.35755 0.84222 0.60943
 C1420 C 0.33200 0.82041 0.60311
 C1421 C 0.31144 0.81082 0.62766
 C1422 C 0.31709 0.82208 0.65854
 C1423 C 0.34332 0.84503 0.66357
 O1424 O 0.38708 0.87724 0.63903
 C1425 C 0.39756 0.87806 0.60986
 C1426 C 0.38068 0.85664 0.59090
 C1427 C 0.38762 0.85359 0.55946
 C1428 C 0.41225 0.87414 0.54688
 C1429 C 0.42884 0.89769 0.56557
 C1430 C 0.42162 0.89928 0.59765
 H1431 H 0.32786 0.81119 0.57994
 H1432 H 0.29179 0.79358 0.62244
 H1433 H 0.34849 0.85497 0.68631
 H1434 H 0.37399 0.83657 0.54495
 H1435 H 0.41685 0.87328 0.52227
 H1436 H 0.43340 0.91750 0.61237
 C1437 C 0.35853 1.13952 -0.13671
 C1438 C 0.33720 1.13336 -0.11260
 C1439 C 0.30648 1.14846 -0.11020
 C1440 C 0.29727 1.17058 -0.13365
 C1441 C 0.31840 1.17674 -0.15921
 C1442 C 0.34947 1.16079 -0.16085
 O1443 O 0.38719 1.12386 -0.13371
 C1444 C 0.38373 1.10741 -0.10732
 C1445 C 0.35346 1.11197 -0.09367
 C1446 C 0.34467 1.09670 -0.06600
 C1447 C 0.36836 1.07652 -0.05145
 C1448 C 0.40036 1.07291 -0.06421
 C1449 C 0.40776 1.08813 -0.09295
 H1450 H 0.29026 1.14357 -0.09087
 H1451 H 0.27325 1.18236 -0.13228
 H1452 H 0.36610 1.16513 -0.18001
 H1453 H 0.32051 1.10036 -0.05587
 H1454 H 0.36208 1.06451 -0.02994
 H1455 H 0.43180 1.08561 -0.10362
 C1456 C 0.86083 0.64393 0.36347
 C1457 C 0.84811 0.64990 0.39247
 C1458 C 0.82660 0.67604 0.39875
 C1459 C 0.81698 0.69630 0.37405
 C1460 C 0.82837 0.68996 0.34343
 C1461 C 0.85106 0.66346 0.33826
 O1462 O 0.88210 0.61861 0.36290
 C1463 C 0.88251 0.60833 0.39207
 C1464 C 0.86177 0.62635 0.41101
 C1465 C 0.85847 0.61990 0.44245
 C1466 C 0.87818 0.59453 0.45511
 C1467 C 0.90083 0.57661 0.43640
 C1468 C 0.90263 0.58332 0.40431
 H1469 H 0.81730 0.68056 0.42185
 H1470 H 0.79955 0.71615 0.37880
 H1471 H 0.86027 0.65780 0.31534
 H1472 H 0.84205 0.63455 0.45689
 H1473 H 0.87745 0.59043 0.47973
 H1474 H 0.92028 0.57049 0.38963
 C1475 C 0.63789 1.15038 0.13652
 C1476 C 0.65276 1.15356 0.10810
 C1477 C 0.67613 1.17782 0.10195
 C1478 C 0.68540 1.19895 0.12627
 C1479 C 0.67184 1.19525 0.15643
 C1480 C 0.64722 1.17078 0.16134
 O1481 O 0.61549 1.12631 0.13715
 C1482 C 0.61651 1.11393 0.10861
 C1483 C 0.63927 1.12939 0.09005
 C1484 C 0.64466 1.12004 0.05941
 C1485 C 0.62503 1.09446 0.04712
 C1486 C 0.60025 1.07927 0.06529
 C1487 C 0.59636 1.08887 0.09667
 H1488 H 0.68723 1.18013 0.07930
 H1489 H 0.70437 1.21715 0.12178
 H1490 H 0.63641 1.16703 0.18395
 H1491 H 0.66281 1.13252 0.04527
 H1492 H 0.62772 1.08796 0.02300
 H1493 H 0.57731 1.07803 0.11099
 C1494 C 1.13858 0.64522 0.63746
 C1495 C 1.15632 0.64549 0.61031
 C1496 C 1.18259 0.66684 0.60541
 C1497 C 1.19145 0.68828 0.62959
 C1498 C 1.17454 0.68784 0.65845
 C1499 C 1.14749 0.66592 0.66229
 O1500 O 1.11363 0.62386 0.63674
 C1501 C 1.11593 0.61030 0.60869
 C1502 C 1.14193 0.62234 0.59176
 C1503 C 1.14900 0.61138 0.56188
 C1504 C 1.12786 0.58772 0.54854
 C1505 C 1.09991 0.57610 0.56486
 C1506 C 1.09427 0.58724 0.59563
 H1507 H 1.19596 0.66688 0.58374
 H1508 H 1.21245 0.70435 0.62609
 H1509 H 1.13410 0.66480 0.68391
 H1510 H 1.16972 0.62116 0.54906
 H1511 H 1.13228 0.57983 0.52500
 H1512 H 1.07302 0.57900 0.60865
 C1513 C 0.64211 0.86632 -0.13435
 C1514 C 0.65909 0.86475 -0.10697
 C1515 C 0.68288 0.84065 -0.10123
 C1516 C 0.69011 0.81783 -0.12491
 C1517 C 0.67395 0.81962 -0.15396
 C1518 C 0.64933 0.84421 -0.15854
 O1519 O 0.61915 0.88999 -0.13438
 C1520 C 0.62188 0.90366 -0.10653
 C1521 C 0.64626 0.88947 -0.08898
 C1522 C 0.65277 0.89960 -0.05882
 C1523 C 0.63235 0.92440 -0.04579
 C1524 C 0.60581 0.93789 -0.06281
 C1525 C 0.60124 0.92805 -0.09396
 H1526 H 0.69557 0.83955 -0.07934
 H1527 H 0.70932 0.79957 -0.12090
 H1528 H 0.63654 0.84633 -0.18032
 H1529 H 0.67209 0.88799 -0.04543
 H1530 H 0.63576 0.93132 -0.02191
 H1531 H 0.58086 0.93758 -0.10739
 C1532 C 1.13929 0.35921 0.36702
 C1533 C 1.15430 0.35611 0.39527
 C1534 C 1.17614 0.33037 0.40186
 C1535 C 1.18378 0.30768 0.37808
 C1536 C 1.16996 0.31122 0.34812
 C1537 C 1.14680 0.33715 0.34287
 O1538 O 1.11832 0.38467 0.36589
 C1539 C 1.12032 0.39801 0.39393
 C1540 C 1.14229 0.38178 0.41273
 C1541 C 1.14780 0.39150 0.44318
 C1542 C 1.12881 0.41808 0.45512
 C1543 C 1.10466 0.43390 0.43670
 C1544 C 1.10113 0.42425 0.40538
 H1545 H 1.18731 0.32809 0.42439
 H1546 H 1.20167 0.28830 0.38278
 H1547 H 1.13581 0.34080 0.32041
 H1548 H 1.16520 0.37831 0.45759
 H1549 H 1.13113 0.42458 0.47922
 H1550 H 1.08242 0.43542 0.39093
 C1551 C 0.36175 0.85730 0.12889
 C1552 C 0.34542 0.85695 0.10114
 C1553 C 0.32002 0.83492 0.09492
 C1554 C 0.31045 0.81303 0.11849
 C1555 C 0.32593 0.81372 0.14790
 C1556 C 0.35237 0.83603 0.15286
 O1557 O 0.38578 0.87959 0.12980
 C1558 C 0.38441 0.89370 0.10214
 C1559 C 0.35991 0.88107 0.08380
 C1560 C 0.35415 0.89255 0.05397
 C1561 C 0.37517 0.91733 0.04228
 C1562 C 0.40154 0.92960 0.06024
 C1563 C 0.40572 0.91796 0.09084
 H1564 H 0.30773 0.83484 0.07281
 H1565 H 0.29006 0.79644 0.11408
 H1566 H 0.36472 0.83739 0.17491
 H1567 H 0.33464 0.88230 0.03997
 H1568 H 0.37202 0.92562 0.01882
 H1569 H 0.42577 0.92671 0.10508
 C1570 C 0.85993 0.35783 0.62732
 C1571 C 0.84054 0.36182 0.60161
 C1572 C 0.81188 0.34377 0.59705
 C1573 C 0.80245 0.32126 0.62018
 C1574 C 0.82130 0.31753 0.64756
 C1575 C 0.85069 0.33602 0.65094
 O1576 O 0.88664 0.37673 0.62678
 C1577 C 0.88391 0.39312 0.60030
 C1578 C 0.85596 0.38528 0.58416
 C1579 C 0.84813 0.40018 0.55609
 C1580 C 0.87052 0.42336 0.54378
 C1581 C 0.90036 0.43047 0.55919
 C1582 C 0.90665 0.41554 0.58824
 H1583 H 0.79714 0.34709 0.57654
 H1584 H 0.77970 0.30772 0.61719
 H1585 H 0.86560 0.33390 0.67149
 H1586 H 0.82576 0.39394 0.54395
 H1587 H 0.86518 0.43480 0.52186
 H1588 H 0.92906 0.42057 0.60082
 C1589 C 1.12171 1.14616 0.64298
 C1590 C 1.09688 1.13479 0.66191
 C1591 C 1.09489 1.14252 0.69300
 C1592 C 1.11976 1.16241 0.70524
 C1593 C 1.14619 1.17401 0.68643
 C1594 C 1.14681 1.16615 0.65464
 O1595 O 1.11943 1.13482 0.61432
 C1596 C 1.09276 1.11589 0.61538
 C1597 C 1.07808 1.11496 0.64396
 C1598 C 1.05066 1.09550 0.65050
 C1599 C 1.03782 1.07612 0.62643
 C1600 C 1.05251 1.07683 0.59669
 C1601 C 1.08031 1.09717 0.59119
 H1602 H 1.07519 1.13318 0.70742
 H1603 H 1.11851 1.16835 0.72961
 H1604 H 1.16666 1.17431 0.63975
 H1605 H 1.03980 1.09498 0.67335
 H1606 H 1.01653 1.06069 0.63092
 H1607 H 1.09243 1.09791 0.56889
 C1608 C 0.62985 0.63498 0.14597
 C1609 C 0.61164 0.61521 0.16546
 C1610 C 0.61495 0.61577 0.19720
 C1611 C 0.63791 0.63780 0.20950
 C1612 C 0.65707 0.65884 0.19006
 C1613 C 0.65294 0.65728 0.15770
 O1614 O 0.62285 0.63005 0.11645
 C1615 C 0.59978 0.60675 0.11753
 C1616 C 0.59204 0.59691 0.14700
 C1617 C 0.56874 0.57270 0.15358
 C1618 C 0.55280 0.55774 0.12860
 C1619 C 0.56055 0.56716 0.09786
 C1620 C 0.58430 0.59223 0.09237
 H1621 H 0.60038 0.59984 0.21198
 H1622 H 0.64049 0.63840 0.23436
 H1623 H 0.66709 0.67285 0.14223
 H1624 H 0.56319 0.56545 0.17707
 H1625 H 0.53474 0.53862 0.13327
 H1626 H 0.59090 0.59997 0.06925
 C1627 C 1.15919 0.86586 0.37117
 C1628 C 1.16087 0.89757 0.35910
 C1629 C 1.18180 0.90601 0.33507
 C1630 C 1.20059 0.88039 0.32187
 C1631 C 1.19781 0.84703 0.33251
 C1632 C 1.17779 0.83981 0.35833
 O1633 O 1.13665 0.86311 0.39327
 C1634 C 1.12374 0.89357 0.39482
 C1635 C 1.13744 0.91546 0.37413
 C1636 C 1.12623 0.94806 0.37046
 C1637 C 1.10038 0.95886 0.38963
 C1638 C 1.08685 0.93716 0.41196
 C1639 C 1.09848 0.90399 0.41443
 H1640 H 1.18262 0.93111 0.32598
 H1641 H 1.21587 0.88611 0.30203
 H1642 H 1.17461 0.81446 0.36633
 H1643 H 1.13712 0.96460 0.35362
 H1644 H 1.09194 0.98441 0.38809
 H1645 H 1.08841 0.88702 0.43139
 C1646 C 0.65520 0.36210 -0.12871
 C1647 C 0.65736 0.39402 -0.14021
 C1648 C 0.68012 0.40325 -0.16245
 C1649 C 0.70023 0.37811 -0.17471
 C1650 C 0.69681 0.34450 -0.16499
 C1651 C 0.67499 0.33652 -0.14071
 O1652 O 0.63116 0.35871 -0.10814
 C1653 C 0.61777 0.38898 -0.10703
 C1654 C 0.63260 0.41132 -0.12659
 C1655 C 0.62139 0.44386 -0.13047
 C1656 C 0.59454 0.45428 -0.11240
 C1657 C 0.58014 0.43226 -0.09079
 C1658 C 0.59150 0.39898 -0.08845
 H1659 H 0.68136 0.42854 -0.17103
 H1660 H 0.71680 0.38433 -0.19347
 H1661 H 0.67130 0.31095 -0.13357
 H1662 H 0.63319 0.46074 -0.14647
 H1663 H 0.58625 0.47996 -0.11389
 H1664 H 0.58089 0.38183 -0.07195
 C1665 C 0.86130 1.12131 0.35550
 C1666 C 0.86983 1.09439 0.33723
 C1667 C 0.85811 1.09020 0.30752
 C1668 C 0.83742 1.11511 0.29590
 C1669 C 0.82898 1.14379 0.31388
 C1670 C 0.84067 1.14652 0.34443
 O1671 O 0.87535 1.12050 0.38301
 C1672 C 0.89309 1.09263 0.38193
 C1673 C 0.89077 1.07575 0.35441
 C1674 C 0.90795 1.04622 0.34833
 C1675 C 0.92795 1.03330 0.37190
 C1676 C 0.92992 1.04995 0.40072
 C1677 C 0.91249 1.08022 0.40552
 H1678 H 0.86495 1.06874 0.29364
 H1679 H 0.82847 1.11222 0.27255
 H1680 H 0.83494 1.16804 0.35867
 H1681 H 0.90585 1.03349 0.32637
 H1682 H 0.94106 1.01007 0.36806
 H1683 H 0.91376 1.09372 0.42718
 C1684 C 0.36753 0.62973 -0.14564
 C1685 C 0.38691 0.61133 -0.16562
 C1686 C 0.38552 0.61480 -0.19734
 C1687 C 0.36319 0.63809 -0.20904
 C1688 C 0.34263 0.65753 -0.18906
 C1689 C 0.34502 0.65324 -0.15676
 O1690 O 0.37289 0.62235 -0.11627
 C1691 C 0.39604 0.59890 -0.11793
 C1692 C 0.40549 0.59124 -0.14758
 C1693 C 0.42942 0.56737 -0.15455
 C1694 C 0.44432 0.55069 -0.12981
 C1695 C 0.43506 0.55821 -0.09894
 C1696 C 0.41046 0.58271 -0.09311
 H1697 H 0.40104 0.60007 -0.21257
 H1698 H 0.36208 0.64084 -0.23386
 H1699 H 0.32982 0.66751 -0.14086
 H1700 H 0.43638 0.56182 -0.17817
 H1701 H 0.46302 0.53205 -0.13473
 H1702 H 0.40273 0.58923 -0.06990
 C1703 C 0.86907 0.85784 0.64533
 C1704 C 0.89026 0.87447 0.66462
 C1705 C 0.88861 0.87262 0.69642
 C1706 C 0.86405 0.85269 0.70901
 C1707 C 0.84168 0.83504 0.68975
 C1708 C 0.84435 0.83764 0.65733
 O1709 O 0.87466 0.86398 0.61573
 C1710 C 0.89983 0.88491 0.61660
 C1711 C 0.91026 0.89202 0.64599
 C1712 C 0.93562 0.91397 0.65247
 C1713 C 0.95078 0.92962 0.62746
 C1714 C 0.94027 0.92299 0.59686
 C1715 C 0.91463 0.90001 0.59139
 H1716 H 0.90551 0.88616 0.71102
 H1717 H 0.86270 0.85110 0.73392
 H1718 H 0.82770 0.82467 0.64205
 H1719 H 0.94317 0.91915 0.67592
 H1720 H 0.97049 0.94702 0.63199
 H1721 H 0.90587 0.89468 0.56834
 C1722 C 0.35326 0.37024 0.14143
 C1723 C 0.36214 0.39791 0.15828
 C1724 C 0.35041 0.40451 0.18774
 C1725 C 0.32932 0.38104 0.20078
 C1726 C 0.32071 0.35162 0.18431
 C1727 C 0.33217 0.34660 0.15386
 O1728 O 0.36829 0.36821 0.11431
 C1729 C 0.38715 0.39506 0.11424
 C1730 C 0.38437 0.41395 0.14067
 C1731 C 0.40287 0.44235 0.14609
 C1732 C 0.42488 0.45202 0.12295
 C1733 C 0.42768 0.43326 0.09520
 C1734 C 0.40865 0.40428 0.09090
 H1735 H 0.35788 0.42644 0.20050
 H1736 H 0.32049 0.38539 0.22408
 H1737 H 0.32639 0.32423 0.14095
 H1738 H 0.40041 0.45655 0.16727
 H1739 H 0.43907 0.47451 0.12638
 H1740 H 0.41041 0.38942 0.07002
   
