data_POSCAR
  _audit_creation_date              2014-09-24
  _audit_creation_method            'ToBaCCo'
  _symmetry_space_group_name_H-M    'P1'
  _symmetry_Int_Tables_number       1
  _symmetry_cell_setting            triclinic
  loop_
  _symmetry_equiv_pos_as_xyz
 x,y,z
_cell_length_a 68.6716
_cell_length_b 68.6610
_cell_length_c 68.7017
_cell_angle_alpha 90.004600
_cell_angle_beta 90.007300
_cell_angle_gamma 90.009200
loop_
  _atom_site_label
  _atom_site_type_symbol
  _atom_site_fract_x
  _atom_site_fract_y
  _atom_site_fract_z
C1 C 0.19282 0.21137 0.22120
 C2 C 0.19608 0.22394 0.20537
 C3 C 0.21180 0.22095 0.19262
 C4 C 0.22437 0.20513 0.19588
 C5 C 0.22140 0.19238 0.21161
 C6 C 0.20558 0.19564 0.22418
 H7 H 0.18633 0.23609 0.20297
 H8 H 0.23652 0.20272 0.18613
 H9 H 0.20318 0.18589 0.23633
 C10 C 0.69272 0.71204 0.72133
 C11 C 0.70543 0.69626 0.72425
 C12 C 0.72124 0.69299 0.71167
 C13 C 0.72424 0.70579 0.69598
 C14 C 0.71171 0.72166 0.69277
 C15 C 0.69600 0.72464 0.70554
 H16 H 0.70301 0.68648 0.73637
 H17 H 0.73638 0.70338 0.68622
 H18 H 0.68628 0.73682 0.70318
 C19 C 0.30676 0.78860 0.72152
 C20 C 0.29399 0.80432 0.72451
 C21 C 0.27808 0.80761 0.71197
 C22 C 0.27517 0.79475 0.69623
 C23 C 0.28777 0.77895 0.69299
 C24 C 0.30351 0.77602 0.70572
 H25 H 0.29650 0.81402 0.73669
 H26 H 0.26304 0.79701 0.68642
 H27 H 0.31328 0.76389 0.70332
 C28 C 0.80770 0.28806 0.22162
 C29 C 0.79483 0.30378 0.22456
 C30 C 0.77900 0.30701 0.21199
 C31 C 0.77606 0.29427 0.19626
 C32 C 0.78864 0.27848 0.19298
 C33 C 0.80439 0.27551 0.20572
 H34 H 0.79711 0.31361 0.23668
 H35 H 0.76390 0.29666 0.18651
 H36 H 0.81409 0.26334 0.20319
 C37 C 0.80738 0.71195 0.27874
 C38 C 0.79464 0.69619 0.27581
 C39 C 0.77883 0.69294 0.28840
 C40 C 0.77586 0.70573 0.30410
 C41 C 0.78842 0.72158 0.30732
 C42 C 0.80413 0.72454 0.29454
 H43 H 0.79703 0.68642 0.26368
 H44 H 0.76372 0.70333 0.31387
 H45 H 0.81388 0.73671 0.29691
 C46 C 0.30778 0.21160 -0.22171
 C47 C 0.30444 0.22417 -0.20583
 C48 C 0.28870 0.22120 -0.19311
 C49 C 0.27613 0.20538 -0.19637
 C50 C 0.27911 0.19262 -0.21208
 C51 C 0.29494 0.19585 -0.22463
 H52 H 0.31413 0.23636 -0.20332
 H53 H 0.26397 0.20299 -0.18663
 H54 H 0.29724 0.18601 -0.23674
 C55 C 0.69228 0.28791 -0.22164
 C56 C 0.69560 0.27537 -0.20574
 C57 C 0.71134 0.27837 -0.19301
 C58 C 0.72391 0.29417 -0.19629
 C59 C 0.72096 0.30690 -0.21202
 C60 C 0.70513 0.30365 -0.22459
 H61 H 0.68590 0.26319 -0.20321
 H62 H 0.73607 0.29658 -0.18655
 H63 H 0.70285 0.31346 -0.23672
 C64 C 0.19306 0.78847 0.27867
 C65 C 0.20586 0.80418 0.27570
 C66 C 0.22173 0.80748 0.28829
 C67 C 0.22458 0.79465 0.30405
 C68 C 0.21195 0.77886 0.30728
 C69 C 0.19625 0.77592 0.29450
 H70 H 0.20340 0.81386 0.26350
 H71 H 0.23668 0.79692 0.31390
 H72 H 0.18646 0.76379 0.29689
 C73 C 0.46167 0.44271 0.47163
 C74 C 0.47423 0.44595 0.45580
 C75 C 0.47125 0.46166 0.44303
 C76 C 0.45542 0.47423 0.44627
 C77 C 0.44267 0.47128 0.46200
 C78 C 0.44593 0.45547 0.47459
 H79 H 0.48638 0.43619 0.45341
 H80 H 0.45301 0.48637 0.43650
 H81 H 0.43619 0.45308 0.48674
 C82 C -0.03848 -0.05668 0.97124
 C83 C -0.05422 -0.04394 0.97421
 C84 C -0.05758 -0.02808 0.96162
 C85 C -0.04476 -0.02519 0.94586
 C86 C -0.02893 -0.03776 0.94264
 C87 C -0.02594 -0.05345 0.95542
 H88 H -0.06389 -0.04643 0.98641
 H89 H -0.04706 -0.01310 0.93601
 H90 H -0.01378 -0.06320 0.95303
 C91 C 1.03820 0.55728 0.97117
 C92 C 1.05391 0.54450 0.97415
 C93 C 1.05714 0.52865 0.96161
 C94 C 1.04436 0.52567 0.94590
 C95 C 1.02855 0.53826 0.94264
 C96 C 1.02561 0.55401 0.95537
 H97 H 1.06368 0.54691 0.98628
 H98 H 1.04673 0.51350 0.93616
 H99 H 1.01347 0.56378 0.95297
 C100 C 0.53856 0.05694 0.47157
 C101 C 0.55432 0.04422 0.47453
 C102 C 0.55766 0.02834 0.46197
 C103 C 0.54482 0.02540 0.44623
 C104 C 0.52897 0.03795 0.44301
 C105 C 0.52599 0.05366 0.45577
 H106 H 0.56400 0.04674 0.48671
 H107 H 0.54711 0.01329 0.43640
 H108 H 0.51382 0.06340 0.45338
 C109 C -0.03862 0.05732 0.52856
 C110 C -0.05438 0.04458 0.52560
 C111 C -0.05770 0.02868 0.53814
 C112 C -0.04483 0.02573 0.55385
 C113 C -0.02899 0.03829 0.55707
 C114 C -0.02603 0.05403 0.54434
 H115 H -0.06409 0.04712 0.51344
 H116 H -0.04711 0.01360 0.56366
 H117 H -0.01386 0.06377 0.54672
 C118 C 0.46185 0.55736 0.02873
 C119 C 0.47443 0.55410 0.04454
 C120 C 0.47148 0.53835 0.05727
 C121 C 0.45567 0.52576 0.05400
 C122 C 0.44290 0.52873 0.03829
 C123 C 0.44613 0.54458 0.02575
 H124 H 0.48657 0.56387 0.04694
 H125 H 0.45329 0.51359 0.06374
 H126 H 0.43637 0.54698 0.01361
 C127 C 0.53827 -0.05769 0.02849
 C128 C 0.52574 -0.05440 0.04440
 C129 C 0.52876 -0.03871 0.05720
 C130 C 0.54458 -0.02615 0.05397
 C131 C 0.55731 -0.02907 0.03823
 C132 C 0.55403 -0.04485 0.02560
 H133 H 0.51354 -0.06408 0.04689
 H134 H 0.54701 -0.01404 0.06376
 H135 H 0.56384 -0.04710 0.01347
 C136 C 1.03843 0.44314 0.52840
 C137 C 1.05417 0.45590 0.52545
 C138 C 1.05751 0.47176 0.53804
 C139 C 1.04467 0.47464 0.55379
 C140 C 1.02885 0.46205 0.55700
 C141 C 1.02587 0.44636 0.54421
 H142 H 1.06385 0.45341 0.51326
 H143 H 1.04696 0.48673 0.56365
 H144 H 1.01372 0.43660 0.54659
 C145 C 0.40492 0.00855 0.22398
 H146 H 0.40568 0.02177 0.23251
 C147 C 0.41764 0.00580 0.20836
 H148 H 0.42811 0.01709 0.20495
 C149 C 0.39044 -0.02227 0.21839
 H150 H 0.38004 -0.03332 0.22251
 C151 C 0.40288 -0.02562 0.20266
 H152 H 0.40171 -0.03921 0.19475
 N153 N 0.39152 -0.00530 0.22854
 C154 C 0.34537 0.02572 0.25924
 H155 H 0.34459 0.01721 0.27246
 C156 C 0.33266 0.04135 0.25646
 H157 H 0.32218 0.04478 0.26772
 C158 C 0.35988 0.03128 0.22845
 H159 H 0.37029 0.02713 0.21743
 C160 C 0.34745 0.04701 0.22507
 H161 H 0.34863 0.05491 0.21148
 Zn162 Zn 0.37514 -0.00054 0.25020
 N163 N 0.35878 0.02114 0.24542
 C164 C 0.39039 0.02120 0.28202
 N165 N 0.39148 0.00422 0.27189
 C166 C 0.40488 -0.00961 0.27647
 C167 C 0.41758 -0.00685 0.29210
 C168 C 0.40282 0.02458 0.29776
 C169 C 0.34539 -0.02681 0.24110
 C170 C 0.33267 -0.04244 0.24383
 C171 C 0.34741 -0.04812 0.27526
 C172 C 0.35985 -0.03238 0.27191
 N173 N 0.35878 -0.02223 0.25494
 H174 H 0.38000 0.03224 0.27788
 H175 H 0.40565 -0.02284 0.26796
 H176 H 0.42805 -0.01812 0.29553
 H177 H 0.40165 0.03818 0.30565
 H178 H 0.34464 -0.01829 0.22787
 H179 H 0.32221 -0.04586 0.23255
 H180 H 0.34856 -0.05602 0.28885
 H181 H 0.37023 -0.02824 0.28295
 C182 C 0.33363 0.05228 0.23920
 C183 C 0.41669 -0.01146 0.19742
 C184 C 0.33361 -0.05338 0.26110
 C185 C 0.41663 0.01042 0.30303
 C186 C 0.09523 -0.00924 0.72351
 H187 H 0.09443 -0.02244 0.73206
 C188 C 0.08253 -0.00649 0.70788
 H189 H 0.07203 -0.01775 0.70448
 C190 C 0.10979 0.02153 0.71787
 H191 H 0.12021 0.03256 0.72199
 C192 C 0.09737 0.02489 0.70213
 H193 H 0.09857 0.03846 0.69420
 N194 N 0.10866 0.00458 0.72806
 C195 C 0.15469 -0.02644 0.75894
 H196 H 0.15546 -0.01787 0.77214
 C197 C 0.16738 -0.04209 0.75625
 H198 H 0.17784 -0.04550 0.76754
 C199 C 0.14022 -0.03208 0.72815
 H200 H 0.12984 -0.02795 0.71709
 C201 C 0.15263 -0.04784 0.72484
 H202 H 0.15146 -0.05578 0.71128
 Zn203 Zn 0.12499 -0.00015 0.74976
 N204 N 0.14131 -0.02188 0.74509
 C205 C 0.10964 -0.02176 0.78162
 N206 N 0.10860 -0.00481 0.77143
 C207 C 0.09522 0.00907 0.77595
 C208 C 0.08249 0.00639 0.79156
 C209 C 0.09718 -0.02505 0.79735
 C210 C 0.15482 0.02603 0.74066
 C211 C 0.16756 0.04164 0.74339
 C212 C 0.15277 0.04744 0.77476
 C213 C 0.14031 0.03172 0.77142
 N214 N 0.14139 0.02152 0.75448
 H215 H 0.12001 -0.03283 0.77753
 H216 H 0.09449 0.02227 0.76739
 H217 H 0.07203 0.01769 0.79494
 H218 H 0.09831 -0.03863 0.80529
 H219 H 0.15558 0.01747 0.72746
 H220 H 0.17806 0.04501 0.73212
 H221 H 0.15160 0.05538 0.78832
 H222 H 0.12989 0.02763 0.78245
 C223 C 0.16642 -0.05308 0.73902
 C224 C 0.08352 0.01075 0.69691
 C225 C 0.16662 0.05263 0.76062
 C226 C 0.08339 -0.01085 0.80255
 C227 C 0.59536 0.49081 0.22394
 H228 H 0.59457 0.47759 0.23247
 C229 C 0.58268 0.49357 0.20830
 H230 H 0.57220 0.48230 0.20487
 C231 C 0.60989 0.52161 0.21839
 H232 H 0.62029 0.53265 0.22254
 C233 C 0.59748 0.52498 0.20264
 H234 H 0.59867 0.53857 0.19474
 N235 N 0.60877 0.50464 0.22853
 C236 C 0.65483 0.47359 0.25935
 H237 H 0.65558 0.48212 0.27257
 C238 C 0.66753 0.45795 0.25662
 H239 H 0.67799 0.45453 0.26790
 C240 C 0.64037 0.46802 0.22854
 H241 H 0.62999 0.47216 0.21748
 C242 C 0.65280 0.45227 0.22519
 H243 H 0.65164 0.44436 0.21161
 Zn244 Zn 0.62510 0.49987 0.25023
 N245 N 0.64145 0.47817 0.24550
 C246 C 0.60977 0.47816 0.28203
 N247 N 0.60871 0.49514 0.27188
 C248 C 0.59532 0.50899 0.27644
 C249 C 0.58259 0.50625 0.29205
 C250 C 0.59732 0.47481 0.29775
 C251 C 0.65490 0.52610 0.24118
 C252 C 0.66762 0.54173 0.24393
 C253 C 0.65283 0.54746 0.27531
 C254 C 0.64038 0.53172 0.27195
 N255 N 0.64148 0.52155 0.25499
 H256 H 0.62016 0.46711 0.27790
 H257 H 0.59458 0.52222 0.26792
 H258 H 0.57213 0.51754 0.29546
 H259 H 0.59847 0.46122 0.30565
 H260 H 0.65567 0.51756 0.22796
 H261 H 0.67810 0.54514 0.23266
 H262 H 0.65165 0.55537 0.28889
 H263 H 0.62997 0.52760 0.28298
 C264 C 0.66659 0.44701 0.23936
 C265 C 0.58366 0.51084 0.19737
 C266 C 0.66665 0.55269 0.26117
 C267 C 0.58352 0.48898 0.30299
 C268 C 0.90459 0.50901 0.72355
 H269 H 0.90533 0.52222 0.73210
 C270 C 0.91733 0.50630 0.70794
 H271 H 0.92779 0.51760 0.70456
 C272 C 0.89015 0.47818 0.71791
 H273 H 0.87976 0.46712 0.72201
 C274 C 0.90261 0.47486 0.70219
 H275 H 0.90147 0.46128 0.69426
 N276 N 0.89120 0.49514 0.72808
 C277 C 0.84502 0.52606 0.75882
 H278 H 0.84424 0.51751 0.77203
 C279 C 0.83230 0.54169 0.75608
 H280 H 0.82181 0.54509 0.76734
 C281 C 0.85953 0.53169 0.72805
 H282 H 0.86994 0.52757 0.71702
 C283 C 0.84709 0.54743 0.72470
 H284 H 0.84827 0.55535 0.71112
 Zn285 Zn 0.87481 0.49984 0.74974
 N286 N 0.85843 0.52151 0.74500
 C287 C 0.89003 0.52155 0.78161
 N288 N 0.89115 0.50459 0.77144
 C289 C 0.90456 0.49077 0.77601
 C290 C 0.91726 0.49352 0.79164
 C291 C 0.90245 0.52492 0.79736
 C292 C 0.84509 0.47354 0.74060
 C293 C 0.83239 0.45790 0.74332
 C294 C 0.84712 0.45221 0.77475
 C295 C 0.85955 0.46797 0.77141
 N296 N 0.85847 0.47813 0.75445
 H297 H 0.87962 0.53259 0.77748
 H298 H 0.90535 0.47755 0.76747
 H299 H 0.92774 0.48225 0.79506
 H300 H 0.90126 0.53850 0.80527
 H301 H 0.84433 0.48208 0.72738
 H302 H 0.82193 0.45448 0.73204
 H303 H 0.84829 0.44431 0.78833
 H304 H 0.86993 0.47211 0.78246
 C305 C 0.83326 0.55265 0.73884
 C306 C 0.91641 0.48905 0.69698
 C307 C 0.83333 0.44695 0.76058
 C308 C 0.91627 0.51077 0.80260
 C309 C 0.22378 0.40456 0.00894
 H310 H 0.23231 0.40532 0.02216
 C311 C 0.20814 0.41727 0.00621
 H312 H 0.20472 0.42773 0.01750
 C313 C 0.21820 0.39011 -0.02187
 H314 H 0.22233 0.37972 -0.03292
 C315 C 0.20245 0.40254 -0.02521
 H316 H 0.19454 0.40138 -0.03880
 N317 N 0.22835 0.39118 -0.00490
 C318 C 0.25916 0.34504 0.02603
 H319 H 0.27238 0.34429 0.01750
 C320 C 0.25642 0.33231 0.04164
 H321 H 0.26771 0.32184 0.04504
 C322 C 0.22834 0.35949 0.03162
 H323 H 0.21729 0.36989 0.02750
 C324 C 0.22499 0.34704 0.04734
 H325 H 0.21140 0.34819 0.05524
 Zn326 Zn 0.25005 0.37483 -0.00018
 N327 N 0.24531 0.35844 0.02147
 C328 C 0.28188 0.39011 0.02155
 N329 N 0.27172 0.39121 0.00459
 C330 C 0.27628 0.40463 -0.00922
 C331 C 0.29190 0.41735 -0.00646
 C332 C 0.29761 0.40255 0.02492
 C333 C 0.24099 0.34509 -0.02647
 C334 C 0.24375 0.33239 -0.04210
 C335 C 0.27517 0.34720 -0.04776
 C336 C 0.27179 0.35961 -0.03201
 N337 N 0.25481 0.35850 -0.02187
 H338 H 0.27776 0.37969 0.03258
 H339 H 0.26774 0.40541 -0.02244
 H340 H 0.29531 0.42784 -0.01772
 H341 H 0.30553 0.40137 0.03850
 H342 H 0.22776 0.34430 -0.01795
 H343 H 0.23249 0.32191 -0.04554
 H344 H 0.28876 0.34839 -0.05565
 H345 H 0.28282 0.37002 -0.02786
 C346 C 0.23916 0.33323 0.05258
 C347 C 0.19720 0.41633 -0.01104
 C348 C 0.26102 0.33337 -0.05303
 C349 C 0.30285 0.41639 0.01079
 C350 C 0.72395 0.09506 -0.00907
 H351 H 0.73246 0.09431 -0.02230
 C352 C 0.70833 0.08233 -0.00631
 H353 H 0.70491 0.07186 -0.01758
 C354 C 0.71840 0.10953 0.02174
 H355 H 0.72254 0.11993 0.03277
 C356 C 0.70267 0.09708 0.02511
 H357 H 0.69478 0.09824 0.03870
 N358 N 0.72853 0.10846 0.00476
 C359 C 0.75917 0.15464 -0.02629
 H360 H 0.77241 0.15542 -0.01780
 C361 C 0.75636 0.16734 -0.04191
 H362 H 0.76762 0.17783 -0.04536
 C363 C 0.72836 0.14011 -0.03179
 H364 H 0.71734 0.12970 -0.02762
 C365 C 0.72494 0.15253 -0.04752
 H366 H 0.71133 0.15134 -0.05538
 Zn367 Zn 0.75018 0.12486 -0.00002
 N368 N 0.74536 0.14122 -0.02168
 C369 C 0.78199 0.10963 -0.02180
 N370 N 0.77188 0.10853 -0.00482
 C371 C 0.77649 0.09513 0.00900
 C372 C 0.79213 0.08244 0.00623
 C373 C 0.79774 0.09722 -0.02519
 C374 C 0.74111 0.15460 0.02626
 C375 C 0.74387 0.16731 0.04188
 C376 C 0.77532 0.15259 0.04750
 C377 C 0.77195 0.14016 0.03176
 N378 N 0.75495 0.14122 0.02165
 H379 H 0.77782 0.12002 -0.03283
 H380 H 0.76799 0.09435 0.02224
 H381 H 0.79559 0.07197 0.01749
 H382 H 0.80562 0.09840 -0.03879
 H383 H 0.72786 0.15535 0.01776
 H384 H 0.73258 0.17776 0.04533
 H385 H 0.78893 0.15144 0.05537
 H386 H 0.78300 0.12979 0.02760
 C387 C 0.73907 0.16636 -0.05281
 C388 C 0.69741 0.08327 0.01096
 C389 C 0.76115 0.16638 0.05279
 C390 C 0.80304 0.08341 -0.01105
 C391 C 0.22342 0.59523 0.49106
 H392 H 0.23196 0.59447 0.47785
 C393 C 0.20779 0.58251 0.49378
 H394 H 0.20438 0.57204 0.48250
 C395 C 0.21780 0.60970 0.52185
 H396 H 0.22192 0.62009 0.53290
 C397 C 0.20206 0.59725 0.52519
 H398 H 0.19414 0.59842 0.53876
 N399 N 0.22797 0.60862 0.50490
 C400 C 0.25879 0.65477 0.47398
 H401 H 0.27200 0.65553 0.48254
 C402 C 0.25608 0.66749 0.45836
 H403 H 0.26736 0.67796 0.45498
 C404 C 0.22800 0.64027 0.46833
 H405 H 0.21695 0.62987 0.47243
 C406 C 0.22467 0.65272 0.45259
 H407 H 0.21110 0.65155 0.44466
 Zn408 Zn 0.24966 0.62499 0.50019
 N409 N 0.24495 0.64136 0.47852
 C410 C 0.28152 0.60973 0.47852
 N411 N 0.27135 0.60863 0.49547
 C412 C 0.27592 0.59523 0.50930
 C413 C 0.29155 0.58252 0.50657
 C414 C 0.29727 0.59730 0.47517
 C415 C 0.24054 0.65475 0.52643
 C416 C 0.24327 0.66746 0.54206
 C417 C 0.27468 0.65271 0.54779
 C418 C 0.27134 0.64027 0.53205
 N419 N 0.25438 0.64135 0.52188
 H420 H 0.27739 0.62012 0.46748
 H421 H 0.26738 0.59446 0.52251
 H422 H 0.29496 0.57205 0.51784
 H423 H 0.30518 0.59847 0.46159
 H424 H 0.22733 0.65551 0.51789
 H425 H 0.23199 0.67794 0.54546
 H426 H 0.28826 0.65154 0.55571
 H427 H 0.28239 0.62987 0.52793
 C428 C 0.23884 0.66653 0.44739
 C429 C 0.19682 0.58345 0.51102
 C430 C 0.26052 0.66652 0.55302
 C431 C 0.30251 0.58348 0.48932
 C432 C 0.72382 0.90530 0.50910
 H433 H 0.73235 0.90609 0.52231
 C434 C 0.70817 0.91799 0.50636
 H435 H 0.70474 0.92847 0.51762
 C436 C 0.71823 0.89079 0.47832
 H437 H 0.72237 0.88039 0.46728
 C438 C 0.70247 0.90320 0.47496
 H439 H 0.69456 0.90201 0.46138
 N440 N 0.72840 0.89190 0.49528
 C441 C 0.75921 0.84581 0.52628
 H442 H 0.77243 0.84505 0.51775
 C443 C 0.75647 0.83310 0.54190
 H444 H 0.76775 0.82263 0.54532
 C445 C 0.72839 0.86028 0.53186
 H446 H 0.71734 0.87067 0.52772
 C447 C 0.72504 0.84785 0.54760
 H448 H 0.71145 0.84901 0.55550
 Zn449 Zn 0.75009 0.87556 0.50003
 N450 N 0.74536 0.85920 0.52171
 C451 C 0.78192 0.89087 0.52173
 N452 N 0.77177 0.89194 0.50477
 C453 C 0.77634 0.90534 0.49093
 C454 C 0.79196 0.91806 0.49368
 C455 C 0.79766 0.90331 0.52509
 C456 C 0.74102 0.84577 0.47380
 C457 C 0.74376 0.83305 0.45819
 C458 C 0.77517 0.84784 0.45247
 C459 C 0.77181 0.86029 0.46820
 N460 N 0.75485 0.85919 0.47836
 H461 H 0.77779 0.88047 0.53277
 H462 H 0.76781 0.90610 0.47771
 H463 H 0.79538 0.92854 0.48240
 H464 H 0.80556 0.90215 0.53867
 H465 H 0.72780 0.84500 0.48234
 H466 H 0.73249 0.82256 0.45479
 H467 H 0.78875 0.84902 0.44456
 H468 H 0.78284 0.87070 0.47232
 C469 C 0.73921 0.83404 0.55284
 C470 C 0.69721 0.91701 0.48911
 C471 C 0.76101 0.83401 0.44724
 C472 C 0.80291 0.91712 0.51093
 C473 C 0.00891 0.22397 0.40456
 H474 H 0.02214 0.23250 0.40531
 C475 C 0.00615 0.20837 0.41730
 H476 H 0.01742 0.20497 0.42778
 C477 C -0.02189 0.21836 0.39007
 H478 H -0.03292 0.22248 0.37966
 C479 C -0.02526 0.20265 0.40253
 H480 H -0.03885 0.19474 0.40136
 N481 N -0.00491 0.22851 0.39114
 C482 C 0.02615 0.25915 0.34498
 H483 H 0.01763 0.27238 0.34418
 C484 C 0.04178 0.25635 0.33230
 H485 H 0.04522 0.26760 0.32180
 C486 C 0.03169 0.22837 0.35954
 H487 H 0.02753 0.21735 0.36996
 C488 C 0.04743 0.22496 0.34714
 H489 H 0.05532 0.21136 0.34835
 Zn490 Zn -0.00014 0.25016 0.37474
 N491 N 0.02155 0.24534 0.35841
 C492 C 0.02160 0.28202 0.38994
 N493 N 0.00462 0.27188 0.39104
 C494 C -0.00922 0.27649 0.40442
 C495 C -0.00646 0.29214 0.41709
 C496 C 0.02497 0.29778 0.40235
 C497 C -0.02639 0.24100 0.34500
 C498 C -0.04201 0.24372 0.33228
 C499 C -0.04769 0.27519 0.34695
 C500 C -0.03196 0.27186 0.35940
 N501 N -0.02181 0.25488 0.35836
 H502 H 0.03264 0.27786 0.37957
 H503 H -0.02245 0.26797 0.40519
 H504 H -0.01774 0.29559 0.42755
 H505 H 0.03857 0.30568 0.40117
 H506 H -0.01787 0.22777 0.34427
 H507 H -0.04544 0.23242 0.32184
 H508 H -0.05559 0.28879 0.34809
 H509 H -0.02782 0.28292 0.36976
 C510 C 0.05270 0.23908 0.33330
 C511 C -0.01112 0.19742 0.41635
 C512 C -0.05295 0.26100 0.33318
 C513 C 0.01081 0.30307 0.41614
 C514 C -0.00898 0.72411 0.09507
 H515 H -0.02220 0.73264 0.09432
 C516 C -0.00625 0.70848 0.08235
 H517 H -0.01754 0.70507 0.07189
 C518 C 0.02184 0.71850 0.10953
 H519 H 0.03289 0.72263 0.11992
 C520 C 0.02518 0.70277 0.09709
 H521 H 0.03876 0.69486 0.09824
 N522 N 0.00487 0.72867 0.10846
 C523 C -0.02608 0.75939 0.15463
 H524 H -0.01753 0.77261 0.15541
 C525 C -0.04169 0.75664 0.16735
 H526 H -0.04509 0.76790 0.17784
 C527 C -0.03170 0.72861 0.14011
 H528 H -0.02758 0.71757 0.12970
 C529 C -0.04743 0.72524 0.15255
 H530 H -0.05535 0.71165 0.15137
 Zn531 Zn 0.00014 0.75033 0.12485
 N532 N -0.02153 0.74557 0.14121
 C533 C -0.02158 0.78220 0.10964
 N534 N -0.00461 0.77205 0.10853
 C535 C 0.00921 0.77664 0.09513
 C536 C 0.00646 0.79229 0.08245
 C537 C -0.02495 0.79796 0.09724
 C538 C 0.02641 0.74120 0.15457
 C539 C 0.04204 0.74392 0.16728
 C540 C 0.04775 0.77536 0.15256
 C541 C 0.03201 0.77202 0.14013
 N542 N 0.02184 0.75506 0.14119
 H543 H -0.03262 0.77804 0.12003
 H544 H 0.02244 0.76811 0.09435
 H545 H 0.01772 0.79573 0.07198
 H546 H -0.03854 0.80586 0.09843
 H547 H 0.01787 0.72797 0.15532
 H548 H 0.04545 0.73263 0.17773
 H549 H 0.05566 0.78895 0.15141
 H550 H 0.02787 0.78308 0.12975
 C551 C -0.05265 0.73938 0.16638
 C552 C 0.01101 0.69753 0.08329
 C553 C 0.05299 0.76118 0.16635
 C554 C -0.01081 0.80323 0.08343
 C555 C 0.49094 0.22355 0.59560
 H556 H 0.47771 0.23208 0.59484
 C557 C 0.49369 0.20794 0.58288
 H558 H 0.48241 0.20452 0.57241
 C559 C 0.52174 0.21796 0.61009
 H560 H 0.53278 0.22209 0.62049
 C561 C 0.52511 0.20224 0.59765
 H562 H 0.53870 0.19433 0.59881
 N563 N 0.50477 0.22812 0.60901
 C564 C 0.47377 0.25886 0.65513
 H565 H 0.48230 0.27209 0.65591
 C566 C 0.45813 0.25611 0.66783
 H567 H 0.45472 0.26738 0.67830
 C568 C 0.46818 0.22806 0.64062
 H569 H 0.47231 0.21703 0.63022
 C570 C 0.45243 0.22470 0.65304
 H571 H 0.44452 0.21111 0.65185
 Zn572 Zn 0.50002 0.24979 0.62538
 N573 N 0.47834 0.24503 0.64172
 C574 C 0.47832 0.28165 0.61013
 N575 N 0.49528 0.27149 0.60904
 C576 C 0.50912 0.27607 0.59565
 C577 C 0.50638 0.29170 0.58295
 C578 C 0.47496 0.29740 0.59771
 C579 C 0.52628 0.24068 0.65512
 C580 C 0.54192 0.24342 0.66783
 C581 C 0.54762 0.27485 0.65309
 C582 C 0.53187 0.27150 0.64066
 N583 N 0.52171 0.25453 0.64174
 H584 H 0.46727 0.27752 0.62052
 H585 H 0.52234 0.26753 0.59488
 H586 H 0.51765 0.29512 0.57248
 H587 H 0.46138 0.30531 0.59888
 H588 H 0.51774 0.22746 0.65588
 H589 H 0.54533 0.23213 0.67829
 H590 H 0.55553 0.28844 0.65192
 H591 H 0.52774 0.28255 0.63028
 C592 C 0.44718 0.23885 0.66685
 C593 C 0.51095 0.19699 0.58383
 C594 C 0.55287 0.26068 0.66688
 C595 C 0.48912 0.30265 0.58391
 C596 C 0.50898 0.72420 0.90485
 H597 H 0.52220 0.73275 0.90561
 C598 C 0.50626 0.70857 0.91756
 H599 H 0.51754 0.70517 0.92803
 C600 C 0.47818 0.71857 0.89038
 H601 H 0.46713 0.72269 0.87999
 C602 C 0.47484 0.70283 0.90281
 H603 H 0.46126 0.69490 0.90165
 N604 N 0.49514 0.72875 0.89146
 C605 C 0.52611 0.75953 0.84534
 H606 H 0.51758 0.77275 0.84457
 C607 C 0.54174 0.75678 0.83263
 H608 H 0.54515 0.76806 0.82216
 C609 C 0.53170 0.72872 0.85983
 H610 H 0.52757 0.71768 0.87022
 C611 C 0.54744 0.72536 0.84740
 H612 H 0.55535 0.71178 0.84857
 Zn613 Zn 0.49986 0.75044 0.87509
 N614 N 0.52154 0.74569 0.85874
 C615 C 0.52158 0.78230 0.89035
 N616 N 0.50461 0.77213 0.89144
 C617 C 0.49078 0.77670 0.90484
 C618 C 0.49353 0.79233 0.91755
 C619 C 0.52494 0.79804 0.90278
 C620 C 0.47360 0.74132 0.84536
 C621 C 0.45796 0.74405 0.83265
 C622 C 0.45227 0.77548 0.84740
 C623 C 0.46801 0.77213 0.85983
 N624 N 0.47817 0.75516 0.85875
 H625 H 0.53262 0.77816 0.87996
 H626 H 0.47755 0.76816 0.90560
 H627 H 0.48225 0.79574 0.92802
 H628 H 0.53853 0.80594 0.90162
 H629 H 0.48213 0.72809 0.84459
 H630 H 0.45455 0.73276 0.82219
 H631 H 0.44436 0.78907 0.84856
 H632 H 0.47215 0.78318 0.87021
 C633 C 0.55268 0.73952 0.83359
 C634 C 0.48901 0.69760 0.91661
 C635 C 0.44702 0.76131 0.83360
 C636 C 0.51079 0.80328 0.91660
 N637 N 0.14880 0.23282 0.24375
 C638 C 0.14567 0.22069 0.25899
 N639 N 0.15796 0.20553 0.26189
 N640 N 0.17292 0.20257 0.24990
 C641 C 0.17615 0.21467 0.23457
 N642 N 0.16376 0.22986 0.23176
 C643 C 0.12956 0.22387 0.27190
 C644 C 0.11601 0.22655 0.28273
 C645 C 0.09988 0.22974 0.29562
 N646 N 0.09491 0.21609 0.30896
 N647 N 0.07993 0.21906 0.32092
 C648 C 0.06937 0.23578 0.31998
 N649 N 0.07445 0.24941 0.30656
 N650 N 0.08943 0.24645 0.29459
 N651 N 0.64875 0.73351 0.74396
 C652 C 0.64560 0.72134 0.75916
 N653 N 0.65784 0.70613 0.76200
 N654 N 0.67279 0.70319 0.75000
 C655 C 0.67606 0.71533 0.73471
 N656 N 0.66370 0.73056 0.73196
 C657 C 0.62949 0.72451 0.77208
 C658 C 0.61595 0.72717 0.78292
 C659 C 0.59983 0.73032 0.79583
 N660 N 0.59489 0.71663 0.80916
 N661 N 0.57992 0.71956 0.82114
 C662 C 0.56934 0.73627 0.82024
 N663 N 0.57439 0.74994 0.80684
 N664 N 0.58936 0.74702 0.79485
 N665 N 0.34170 0.79453 0.76216
 C666 C 0.35400 0.77938 0.75925
 N667 N 0.35086 0.76724 0.74402
 N668 N 0.33588 0.77017 0.73205
 C669 C 0.32347 0.78534 0.73487
 N670 N 0.32671 0.79745 0.75019
 C671 C 0.37014 0.77623 0.77214
 C672 C 0.38369 0.77359 0.78297
 C673 C 0.39983 0.77046 0.79587
 N674 N 0.41030 0.75376 0.79490
 N675 N 0.42529 0.75086 0.80688
 C676 C 0.43034 0.76454 0.82026
 N677 N 0.41977 0.78126 0.82115
 N678 N 0.40478 0.78416 0.80917
 N679 N -0.15823 0.29413 0.26166
 C680 C -0.14592 0.27899 0.25876
 N681 N -0.14902 0.26687 0.24351
 N682 N -0.16399 0.26980 0.23153
 C683 C -0.17646 0.28496 0.23431
 N684 N -0.17320 0.29705 0.24968
 C685 C -0.12979 0.27585 0.27166
 C686 C -0.11624 0.27322 0.28250
 C687 C -0.10011 0.27011 0.29542
 N688 N -0.09515 0.28383 0.30869
 N689 N -0.08018 0.28094 0.32068
 C690 C -0.06961 0.26422 0.31983
 N691 N -0.07468 0.25051 0.30648
 N692 N -0.08965 0.25340 0.29448
 N693 N -0.14863 0.73337 0.25610
 C694 C -0.14551 0.72120 0.24088
 N695 N -0.15779 0.70602 0.23803
 N696 N -0.17273 0.70309 0.25005
 C697 C -0.17596 0.71522 0.26535
 N698 N -0.16357 0.73043 0.26811
 C699 C -0.12941 0.72436 0.22795
 C700 C -0.11588 0.72700 0.21709
 C701 C -0.09977 0.73016 0.20417
 N702 N -0.09485 0.71648 0.19082
 N703 N -0.07989 0.71941 0.17883
 C704 C -0.06930 0.73612 0.17973
 N705 N -0.07433 0.74978 0.19316
 N706 N -0.08929 0.74685 0.20516
 N707 N 0.34189 0.20553 0.73829
 C708 C 0.35419 0.22068 0.74119
 N709 N 0.35106 0.23283 0.75641
 N710 N 0.33608 0.22989 0.76838
 C711 C 0.32364 0.21471 0.76561
 N712 N 0.32692 0.20260 0.75027
 C713 C 0.37032 0.22383 0.72830
 C714 C 0.38388 0.22647 0.71747
 C715 C 0.40000 0.22963 0.70457
 N716 N 0.41048 0.24633 0.70556
 N717 N 0.42546 0.24925 0.69359
 C718 C 0.43051 0.23559 0.68018
 N719 N 0.41993 0.21887 0.67927
 N720 N 0.40495 0.21594 0.69125
 N721 N 0.65819 0.29392 0.73832
 C722 C 0.64589 0.27878 0.74123
 N723 N 0.64900 0.26666 0.75648
 N724 N 0.66398 0.26961 0.76846
 C725 C 0.67643 0.28478 0.76567
 N726 N 0.67316 0.29686 0.75030
 C727 C 0.62975 0.27562 0.72834
 C728 C 0.61620 0.27297 0.71750
 C729 C 0.60006 0.26984 0.70461
 N730 N 0.58958 0.25314 0.70558
 N731 N 0.57460 0.25024 0.69360
 C732 C 0.56954 0.26392 0.68022
 N733 N 0.58013 0.28063 0.67933
 N734 N 0.59511 0.28354 0.69130
 N735 N 0.14900 0.76711 0.25607
 C736 C 0.14592 0.77923 0.24082
 N737 N 0.15825 0.79437 0.23793
 N738 N 0.17320 0.79730 0.24994
 C739 C 0.17639 0.78520 0.26528
 N740 N 0.16396 0.77004 0.26808
 C741 C 0.12981 0.77608 0.22790
 C742 C 0.11627 0.77344 0.21704
 C743 C 0.10016 0.77031 0.20412
 N744 N 0.09521 0.78403 0.19082
 N745 N 0.08024 0.78112 0.17883
 C746 C 0.06966 0.76441 0.17969
 N747 N 0.07471 0.75072 0.19307
 N748 N 0.08968 0.75361 0.20507
 N749 N 0.24396 0.14834 0.23304
 C750 C 0.25920 0.14521 0.22090
 N751 N 0.26209 0.15749 0.20574
 N752 N 0.25009 0.17245 0.20279
 C753 C 0.23477 0.17570 0.21490
 N754 N 0.23197 0.16331 0.23009
 C755 C 0.27211 0.12909 0.22407
 C756 C 0.28295 0.11554 0.22674
 C757 C 0.29586 0.09942 0.22992
 N758 N 0.30920 0.09446 0.21625
 N759 N 0.32119 0.07949 0.21920
 C760 C 0.32028 0.06894 0.23592
 N761 N 0.30686 0.07400 0.24956
 N762 N 0.29488 0.08897 0.24662
 N763 N 0.74370 0.64884 0.73296
 C764 C 0.75893 0.64571 0.72081
 N765 N 0.76184 0.65803 0.70568
 N766 N 0.74988 0.67303 0.70279
 C767 C 0.73457 0.67627 0.71491
 N768 N 0.73175 0.66384 0.73005
 C769 C 0.77180 0.62955 0.72393
 C770 C 0.78263 0.61598 0.72656
 C771 C 0.79552 0.59984 0.72968
 N772 N 0.80885 0.59491 0.71600
 N773 N 0.82083 0.57992 0.71891
 C774 C 0.81992 0.56932 0.73560
 N775 N 0.80651 0.57436 0.74926
 N776 N 0.79453 0.58934 0.74636
 N777 N 0.74360 0.35090 0.76654
 C778 C 0.75884 0.35401 0.77868
 N779 N 0.76171 0.34173 0.79385
 N780 N 0.74969 0.32679 0.79679
 C781 C 0.73436 0.32356 0.78468
 N782 N 0.73159 0.33595 0.76949
 C783 C 0.77177 0.37012 0.77552
 C784 C 0.78264 0.38366 0.77287
 C785 C 0.79556 0.39978 0.76973
 N786 N 0.80887 0.40473 0.78343
 N787 N 0.82086 0.41971 0.78052
 C788 C 0.81999 0.43028 0.76381
 N789 N 0.80660 0.42522 0.75013
 N790 N 0.79460 0.41025 0.75304
 N791 N 0.26186 -0.15853 0.29438
 C792 C 0.25903 -0.14625 0.27921
 N793 N 0.24381 -0.14935 0.26706
 N794 N 0.23178 -0.16428 0.26999
 C795 C 0.23448 -0.17671 0.28519
 N796 N 0.24982 -0.17346 0.29731
 C797 C 0.27199 -0.13015 0.27606
 C798 C 0.28286 -0.11663 0.27342
 C799 C 0.29580 -0.10052 0.27028
 N800 N 0.29485 -0.09006 0.25358
 N801 N 0.30686 -0.07510 0.25066
 C802 C 0.32025 -0.07004 0.26434
 N803 N 0.32111 -0.08060 0.28106
 N804 N 0.30911 -0.09557 0.28397
 N805 N 0.25611 -0.14916 0.73318
 C806 C 0.24085 -0.14607 0.72107
 N807 N 0.23797 -0.15838 0.70593
 N808 N 0.24998 -0.17333 0.70300
 C809 C 0.26536 -0.17657 0.71508
 N810 N 0.26811 -0.16411 0.73025
 C811 C 0.22793 -0.12996 0.72421
 C812 C 0.21708 -0.11641 0.72684
 C813 C 0.20416 -0.10029 0.72995
 N814 N 0.19085 -0.09536 0.71625
 N815 N 0.17887 -0.08037 0.71913
 C816 C 0.17975 -0.06976 0.73582
 N817 N 0.19314 -0.07480 0.74950
 N818 N 0.20512 -0.08979 0.74663
 N819 N 0.73823 0.34180 0.20609
 C820 C 0.74109 0.35409 0.22126
 N821 N 0.75633 0.35100 0.23340
 N822 N 0.76835 0.33606 0.23046
 C823 C 0.76559 0.32366 0.21527
 N824 N 0.75026 0.32687 0.20316
 C825 C 0.72814 0.37019 0.22441
 C826 C 0.71728 0.38373 0.22705
 C827 C 0.70435 0.39984 0.23020
 N828 N 0.70531 0.41031 0.24689
 N829 N 0.69332 0.42528 0.24980
 C830 C 0.67993 0.43034 0.23612
 N831 N 0.67906 0.41977 0.21941
 N832 N 0.69105 0.40479 0.21650
 N833 N 0.73816 0.65803 0.29437
 C834 C 0.74105 0.64572 0.27923
 N835 N 0.75627 0.64884 0.26708
 N836 N 0.76826 0.66382 0.26999
 C837 C 0.76547 0.67624 0.28516
 N838 N 0.75015 0.67301 0.29728
 C839 C 0.72814 0.62959 0.27609
 C840 C 0.71730 0.61603 0.27347
 C841 C 0.70440 0.59989 0.27034
 N842 N 0.70539 0.58939 0.25366
 N843 N 0.69341 0.57440 0.25076
 C844 C 0.68000 0.56936 0.26442
 N845 N 0.67909 0.57996 0.28111
 N846 N 0.69107 0.59495 0.28402
 N847 N 0.23835 0.15779 0.79382
 C848 C 0.24123 0.14548 0.77868
 N849 N 0.25648 0.14857 0.76655
 N850 N 0.26849 0.16353 0.76949
 C851 C 0.26571 0.17595 0.78465
 N852 N 0.25037 0.17274 0.79675
 C853 C 0.22829 0.12937 0.77553
 C854 C 0.21742 0.11584 0.77289
 C855 C 0.20448 0.09973 0.76976
 N856 N 0.20545 0.08922 0.75309
 N857 N 0.19343 0.07427 0.75019
 C858 C 0.18000 0.06927 0.76385
 N859 N 0.17911 0.07989 0.78053
 N860 N 0.19113 0.09485 0.78343
 N861 N 0.23321 0.24351 0.14859
 C862 C 0.22107 0.25875 0.14546
 N863 N 0.20591 0.26164 0.15775
 N864 N 0.20298 0.24965 0.17271
 C865 C 0.21508 0.23432 0.17594
 N866 N 0.23027 0.23152 0.16355
 C867 C 0.22423 0.27166 0.12934
 C868 C 0.22687 0.28251 0.11581
 C869 C 0.23000 0.29543 0.09969
 N870 N 0.21630 0.30874 0.09476
 N871 N 0.21921 0.32074 0.07979
 C872 C 0.23592 0.31987 0.06922
 N873 N 0.24960 0.30648 0.07426
 N874 N 0.24670 0.29447 0.08922
 N875 N 0.70591 0.76245 0.65801
 C876 C 0.72105 0.75954 0.64570
 N877 N 0.73315 0.74426 0.64878
 N878 N 0.73019 0.73225 0.66372
 C879 C 0.71502 0.73506 0.67613
 N880 N 0.70295 0.75043 0.67294
 C881 C 0.72422 0.77248 0.62961
 C882 C 0.72688 0.78334 0.61608
 C883 C 0.73003 0.79627 0.59998
 N884 N 0.74673 0.79530 0.58951
 N885 N 0.74964 0.80730 0.57455
 C886 C 0.73597 0.82070 0.56950
 N887 N 0.71925 0.82158 0.58007
 N888 N 0.71633 0.80959 0.59503
 N889 N 0.76703 0.74420 0.35132
 C890 C 0.77915 0.75947 0.35440
 N891 N 0.79430 0.76235 0.34210
 N892 N 0.79724 0.75033 0.32716
 C893 C 0.78514 0.73498 0.32397
 N894 N 0.76997 0.73219 0.33638
 C895 C 0.77599 0.77241 0.37049
 C896 C 0.77334 0.78328 0.38402
 C897 C 0.77020 0.79621 0.40012
 N898 N 0.78389 0.80955 0.40505
 N899 N 0.78097 0.82155 0.42001
 C900 C 0.76426 0.82065 0.43059
 N901 N 0.75060 0.80723 0.42556
 N902 N 0.75351 0.79523 0.41060
 N903 N 0.26720 0.24375 -0.14912
 C904 C 0.27933 0.25900 -0.14596
 N905 N 0.29451 0.26190 -0.15822
 N906 N 0.29748 0.24990 -0.17317
 C907 C 0.28538 0.23457 -0.17644
 N908 N 0.27017 0.23176 -0.16407
 C909 C 0.27613 0.27190 -0.12985
 C910 C 0.27346 0.28275 -0.11631
 C911 C 0.27029 0.29565 -0.10019
 N912 N 0.28396 0.30898 -0.09522
 N913 N 0.28102 0.32096 -0.08025
 C914 C 0.26430 0.32004 -0.06969
 N915 N 0.25064 0.30663 -0.07477
 N916 N 0.25358 0.29465 -0.08974
 N917 N 0.73279 0.25590 -0.14895
 C918 C 0.72065 0.24066 -0.14578
 N919 N 0.70547 0.23774 -0.15804
 N920 N 0.70252 0.24971 -0.17302
 C921 C 0.71463 0.26503 -0.17630
 N922 N 0.72983 0.26785 -0.16393
 C923 C 0.72383 0.22778 -0.12964
 C924 C 0.72651 0.21696 -0.11609
 C925 C 0.72971 0.20407 -0.09996
 N926 N 0.71605 0.19074 -0.09497
 N927 N 0.71902 0.17877 -0.07999
 C928 C 0.73576 0.17969 -0.06946
 N929 N 0.74941 0.19311 -0.07456
 N930 N 0.74644 0.20508 -0.08954
 N931 N 0.23318 0.75622 0.35136
 C932 C 0.22098 0.74102 0.35445
 N933 N 0.20584 0.73817 0.34213
 N934 N 0.20298 0.75018 0.32716
 C935 C 0.21515 0.76547 0.32396
 N936 N 0.23031 0.76822 0.33640
 C937 C 0.22406 0.72809 0.37057
 C938 C 0.22666 0.71724 0.38411
 C939 C 0.22976 0.70432 0.40023
 N940 N 0.21606 0.69099 0.40514
 N941 N 0.21894 0.67900 0.42011
 C942 C 0.23563 0.67989 0.43073
 N943 N 0.24931 0.69329 0.42571
 N944 N 0.24644 0.70529 0.41074
 N945 N 0.29374 0.73821 0.65817
 C946 C 0.27856 0.74105 0.64589
 N947 N 0.26639 0.75627 0.64900
 N948 N 0.26932 0.76829 0.66394
 C949 C 0.28451 0.76554 0.67634
 N950 N 0.29666 0.75024 0.67312
 C951 C 0.27542 0.72811 0.62979
 C952 C 0.27279 0.71724 0.61626
 C953 C 0.26966 0.70431 0.60015
 N954 N 0.25297 0.70527 0.58967
 N955 N 0.25007 0.69327 0.57471
 C956 C 0.26375 0.67987 0.56967
 N957 N 0.28045 0.67900 0.58026
 N958 N 0.28336 0.69100 0.59523
 N959 N 0.79454 0.23784 0.15804
 C960 C 0.77936 0.24073 0.14577
 N961 N 0.76721 0.25595 0.14894
 N962 N 0.77016 0.26792 0.16391
 C963 C 0.78536 0.26512 0.17629
 N964 N 0.79748 0.24981 0.17301
 C965 C 0.77618 0.22784 0.12964
 C966 C 0.77353 0.21700 0.11609
 C967 C 0.77038 0.20411 0.09996
 N968 N 0.75365 0.20506 0.08953
 N969 N 0.75073 0.19308 0.07455
 C970 C 0.76442 0.17972 0.06945
 N971 N 0.78115 0.17885 0.07999
 N972 N 0.78408 0.19082 0.09497
 N973 N 0.48309 0.39870 0.49424
 C974 C 0.47096 0.39559 0.50948
 N975 N 0.45580 0.40788 0.51236
 N976 N 0.45285 0.42283 0.50035
 C977 C 0.46496 0.42605 0.48502
 N978 N 0.48014 0.41365 0.48223
 C979 C 0.47413 0.37949 0.52240
 C980 C 0.47678 0.36595 0.53326
 C981 C 0.47993 0.34983 0.54617
 N982 N 0.46624 0.34488 0.55948
 N983 N 0.46916 0.32990 0.57147
 C984 C 0.48587 0.31932 0.57057
 N985 N 0.49954 0.32438 0.55717
 N986 N 0.49662 0.33935 0.54519
 N987 N -0.01698 0.89933 -0.00617
 C988 C -0.02909 0.89621 0.00909
 N989 N -0.04427 0.90848 0.01198
 N990 N -0.04724 0.92343 -0.00002
 C991 C -0.03516 0.92666 -0.01537
 N992 N -0.01996 0.91428 -0.01817
 C993 C -0.02590 0.88009 0.02200
 C994 C -0.02323 0.86655 0.03284
 C995 C -0.02006 0.85043 0.04574
 N996 N -0.03373 0.84546 0.05906
 N997 N -0.03079 0.83048 0.07103
 C998 C -0.01407 0.81991 0.07011
 N999 N -0.00042 0.82498 0.05671
 N1000 N -0.00335 0.83997 0.04474
 N1001 N 0.04416 0.59221 0.01181
 C1002 C 0.02901 0.60451 0.00891
 N1003 N 0.01686 0.60138 -0.00631
 N1004 N 0.01977 0.58639 -0.01828
 C1005 C 0.03495 0.57398 -0.01548
 N1006 N 0.04707 0.57723 -0.00017
 C1007 C 0.02587 0.62065 0.02180
 C1008 C 0.02324 0.63421 0.03264
 C1009 C 0.02013 0.65035 0.04554
 N1010 N 0.00344 0.66083 0.04458
 N1011 N 0.00054 0.67581 0.05656
 C1012 C 0.01423 0.68086 0.06994
 N1013 N 0.03094 0.67028 0.07082
 N1014 N 0.03384 0.65530 0.05884
 N1015 N 0.51705 0.10094 0.49413
 C1016 C 0.52918 0.10410 0.50936
 N1017 N 0.54438 0.09184 0.51225
 N1018 N 0.54735 0.07688 0.50026
 C1019 C 0.53524 0.07361 0.48494
 N1020 N 0.52003 0.08598 0.48214
 C1021 C 0.52599 0.12021 0.52227
 C1022 C 0.52333 0.13375 0.53312
 C1023 C 0.52017 0.14986 0.54604
 N1024 N 0.53385 0.15481 0.55936
 N1025 N 0.53092 0.16977 0.57136
 C1026 C 0.51421 0.18034 0.57047
 N1027 N 0.50054 0.17529 0.55707
 N1028 N 0.50347 0.16033 0.54507
 N1029 N -0.01716 0.10136 0.50603
 C1030 C -0.02932 0.10453 0.49082
 N1031 N -0.04452 0.09227 0.48794
 N1032 N -0.04746 0.07729 0.49992
 C1033 C -0.03533 0.07401 0.51521
 N1034 N -0.02012 0.08638 0.51800
 C1035 C -0.02615 0.12065 0.47792
 C1036 C -0.02349 0.13420 0.46708
 C1037 C -0.02034 0.15031 0.45416
 N1038 N -0.03402 0.15524 0.44083
 N1039 N -0.03109 0.17020 0.42883
 C1040 C -0.01438 0.18078 0.42972
 N1041 N -0.00071 0.17575 0.44313
 N1042 N -0.00364 0.16079 0.45513
 N1043 N 0.48319 0.60146 1.00621
 C1044 C 0.47103 0.60459 0.99099
 N1045 N 0.45588 0.59228 0.98809
 N1046 N 0.45298 0.57729 1.00007
 C1047 C 0.46510 0.57406 1.01538
 N1048 N 0.48027 0.58648 1.01818
 C1049 C 0.47416 0.62073 0.97810
 C1050 C 0.47678 0.63429 0.96726
 C1051 C 0.47990 0.65042 0.95436
 N1052 N 0.46620 0.65535 0.94105
 N1053 N 0.46909 0.67033 0.92907
 C1054 C 0.48579 0.68093 0.92996
 N1055 N 0.49947 0.67590 0.94335
 N1056 N 0.49658 0.66092 0.95533
 N1057 N 0.54422 0.90837 0.98832
 C1058 C 0.52906 0.89608 0.99119
 N1059 N 0.51695 0.89916 1.00644
 N1060 N 0.51993 0.91409 1.01848
 C1061 C 0.53512 0.92652 1.01574
 N1062 N 0.54719 0.92329 1.00036
 C1063 C 0.52587 0.88000 0.97823
 C1064 C 0.52320 0.86649 0.96735
 C1065 C 0.52003 0.85039 0.95441
 N1066 N 0.50332 0.83993 0.95537
 N1067 N 0.50039 0.82497 0.94336
 C1068 C 0.51405 0.81993 0.92995
 N1069 N 0.53077 0.83050 0.92907
 N1070 N 0.53371 0.84546 0.94108
 N1071 N 0.01696 0.39914 0.50578
 C1072 C 0.02909 0.39603 0.49053
 N1073 N 0.04426 0.40831 0.48765
 N1074 N 0.04722 0.42326 0.49967
 C1075 C 0.03512 0.42648 0.51500
 N1076 N 0.01993 0.41409 0.51778
 C1077 C 0.02590 0.37992 0.47761
 C1078 C 0.02323 0.36639 0.46676
 C1079 C 0.02006 0.35026 0.45385
 N1080 N 0.03375 0.34529 0.44054
 N1081 N 0.03081 0.33030 0.42857
 C1082 C 0.01408 0.31975 0.42946
 N1083 N 0.00041 0.32483 0.44284
 N1084 N 0.00335 0.33981 0.45482
 N1085 N 0.40778 0.51196 0.45606
 C1086 C 0.39550 0.50908 0.47123
 N1087 N 0.39863 0.49386 0.48338
 N1088 N 0.41360 0.48187 0.48045
 C1089 C 0.42599 0.48465 0.46527
 N1090 N 0.42275 0.49996 0.45314
 C1091 C 0.37937 0.52199 0.47437
 C1092 C 0.36582 0.53283 0.47702
 C1093 C 0.34969 0.54574 0.48016
 N1094 N 0.33921 0.54475 0.49684
 N1095 N 0.32423 0.55674 0.49975
 C1096 C 0.31918 0.57014 0.48608
 N1097 N 0.32977 0.57105 0.46939
 N1098 N 0.34475 0.55907 0.46647
 N1099 N 0.89919 -0.00614 -0.01715
 C1100 C 0.89604 0.00907 -0.02931
 N1101 N 0.90831 0.01194 -0.04448
 N1102 N 0.92328 -0.00005 -0.04740
 C1103 C 0.92658 -0.01538 -0.03528
 N1104 N 0.91416 -0.01812 -0.02008
 C1105 C 0.87992 0.02198 -0.02615
 C1106 C 0.86637 0.03282 -0.02350
 C1107 C 0.85023 0.04571 -0.02033
 N1108 N 0.83980 0.04472 -0.00362
 N1109 N 0.82481 0.05669 -0.00067
 C1110 C 0.81971 0.07009 -0.01433
 N1111 N 0.83025 0.07099 -0.03106
 N1112 N 0.84524 0.05902 -0.03401
 N1113 N 0.59220 0.01161 0.04425
 C1114 C 0.60447 0.00878 0.02906
 N1115 N 0.60133 -0.00641 0.01687
 N1116 N 0.58637 -0.01842 0.01978
 C1117 C 0.57399 -0.01568 0.03498
 N1118 N 0.57724 -0.00040 0.04715
 C1119 C 0.62058 0.02171 0.02593
 C1120 C 0.63413 0.03257 0.02329
 C1121 C 0.65025 0.04549 0.02016
 N1122 N 0.66071 0.04452 0.00346
 N1123 N 0.67568 0.05652 0.00054
 C1124 C 0.68075 0.06991 0.01421
 N1125 N 0.67019 0.07079 0.03093
 N1126 N 0.65522 0.05880 0.03385
 N1127 N 0.09159 0.51181 0.54417
 C1128 C 0.10387 0.50895 0.52901
 N1129 N 0.10075 0.49374 0.51685
 N1130 N 0.08578 0.48174 0.51977
 C1131 C 0.07335 0.48447 0.53496
 N1132 N 0.07663 0.49980 0.54708
 C1133 C 0.11999 0.52188 0.52587
 C1134 C 0.13353 0.53273 0.52325
 C1135 C 0.14966 0.54566 0.52013
 N1136 N 0.16015 0.54470 0.50345
 N1137 N 0.17512 0.55669 0.50056
 C1138 C 0.18016 0.57009 0.51424
 N1139 N 0.16957 0.57097 0.53094
 N1140 N 0.15459 0.55897 0.53383
 N1141 N 0.10117 0.50606 -0.01701
 C1142 C 0.10426 0.49080 -0.02912
 N1143 N 0.09195 0.48790 -0.04426
 N1144 N 0.07700 0.49991 -0.04720
 C1145 C 0.07380 0.51526 -0.03511
 N1146 N 0.08622 0.51807 -0.01995
 C1147 C 0.12037 0.47787 -0.02597
 C1148 C 0.13391 0.46701 -0.02333
 C1149 C 0.15003 0.45410 -0.02019
 N1150 N 0.16050 0.45505 -0.00350
 N1151 N 0.17547 0.44306 -0.00060
 C1152 C 0.18053 0.42968 -0.01428
 N1153 N 0.16996 0.42880 -0.03099
 N1154 N 0.15498 0.44079 -0.03390
 N1155 N 0.59180 0.98834 0.45588
 C1156 C 0.60410 0.99125 0.47102
 N1157 N 0.60096 1.00648 0.48316
 N1158 N 0.58597 1.01844 0.48023
 C1159 C 0.57353 1.01566 0.46506
 N1160 N 0.57682 1.00031 0.45296
 C1161 C 0.62025 0.97837 0.47416
 C1162 C 0.63382 0.96756 0.47680
 C1163 C 0.64997 0.95468 0.47994
 N1164 N 0.66046 0.95569 0.49662
 N1165 N 0.67546 0.94373 0.49953
 C1166 C 0.68052 0.93033 0.48587
 N1167 N 0.66993 0.92940 0.46917
 N1168 N 0.65493 0.94136 0.46625
 N1169 N 0.89900 1.00681 0.51695
 C1170 C 0.89589 0.99155 0.52905
 N1171 N 0.90820 0.98863 0.54418
 N1172 N 0.92318 1.00061 0.54711
 C1173 C 0.92644 1.01599 0.53503
 N1174 N 0.91398 1.01879 0.51988
 C1175 C 0.87976 0.97865 0.52589
 C1176 C 0.86621 0.96780 0.52325
 C1177 C 0.85007 0.95489 0.52011
 N1178 N 0.83960 0.95586 0.50342
 N1179 N 0.82463 0.94387 0.50051
 C1180 C 0.81957 0.93047 0.51418
 N1181 N 0.83014 0.92959 0.53089
 N1182 N 0.84512 0.94158 0.53380
 N1183 N 0.40807 0.48798 0.04414
 C1184 C 0.39577 0.49087 0.02899
 N1185 N 0.39887 0.50614 0.01687
 N1186 N 0.41383 0.51814 0.01983
 C1187 C 0.42624 0.51534 0.03500
 N1188 N 0.42302 0.49999 0.04708
 C1189 C 0.37966 0.47795 0.02582
 C1190 C 0.36612 0.46709 0.02316
 C1191 C 0.35000 0.45417 0.02001
 N1192 N 0.33952 0.45516 0.00332
 N1193 N 0.32455 0.44316 0.00040
 C1194 C 0.31951 0.42974 0.01405
 N1195 N 0.33010 0.42883 0.03075
 N1196 N 0.34507 0.44083 0.03368
 N1197 N 0.49379 0.48302 0.39897
 C1198 C 0.50903 0.47088 0.39586
 N1199 N 0.51193 0.45574 0.40816
 N1200 N 0.49994 0.45281 0.42313
 C1201 C 0.48461 0.46492 0.42635
 N1202 N 0.48181 0.48009 0.41394
 C1203 C 0.52194 0.47403 0.37974
 C1204 C 0.53279 0.47667 0.36620
 C1205 C 0.54571 0.47981 0.35010
 N1206 N 0.55902 0.46611 0.34515
 N1207 N 0.57102 0.46902 0.33019
 C1208 C 0.57016 0.48574 0.31963
 N1209 N 0.55677 0.49943 0.32468
 N1210 N 0.54477 0.49652 0.33964
 N1211 N -0.00636 -0.01648 0.89854
 C1212 C 0.00888 -0.02863 0.89546
 N1213 N 0.01177 -0.04376 0.90779
 N1214 N -0.00023 -0.04665 0.92276
 C1215 C -0.01555 -0.03453 0.92595
 N1216 N -0.01835 -0.01938 0.91351
 C1217 C 0.02179 -0.02553 0.87934
 C1218 C 0.03265 -0.02293 0.86580
 C1219 C 0.04557 -0.01985 0.84968
 N1220 N 0.05887 -0.03358 0.84478
 N1221 N 0.07087 -0.03072 0.82981
 C1222 C 0.07002 -0.01403 0.81920
 N1223 N 0.05665 -0.00032 0.82420
 N1224 N 0.04464 -0.00317 0.83917
 N1225 N -0.00629 0.01684 0.60102
 C1226 C 0.00896 0.02896 0.60410
 N1227 N 0.01183 0.04414 0.59182
 N1228 N -0.00021 0.04709 0.57690
 C1229 C -0.01556 0.03499 0.57370
 N1230 N -0.01833 0.01980 0.58609
 C1231 C 0.02192 0.02579 0.62018
 C1232 C 0.03279 0.02313 0.63370
 C1233 C 0.04573 0.01997 0.64979
 N1234 N 0.05910 0.03363 0.65470
 N1235 N 0.07110 0.03070 0.66966
 C1236 C 0.07017 0.01400 0.68025
 N1237 N 0.05673 0.00036 0.67524
 N1238 N 0.04473 0.00328 0.66028
 N1239 N 0.49408 0.51690 0.10126
 C1240 C 0.50931 0.52906 0.10440
 N1241 N 0.51218 0.54424 0.09213
 N1242 N 0.50018 0.54719 0.07718
 C1243 C 0.48487 0.53506 0.07393
 N1244 N 0.48209 0.51985 0.08630
 C1245 C 0.52223 0.52589 0.12051
 C1246 C 0.53307 0.52323 0.13405
 C1247 C 0.54596 0.52007 0.15018
 N1248 N 0.55929 0.53375 0.15515
 N1249 N 0.57126 0.53082 0.17013
 C1250 C 0.57034 0.51410 0.18069
 N1251 N 0.55693 0.50044 0.17562
 N1252 N 0.54496 0.50337 0.16064
 N1253 N 0.50630 -0.01739 0.10133
 C1254 C 0.49105 -0.02952 0.10444
 N1255 N 0.48811 -0.04464 0.09212
 N1256 N 0.50008 -0.04756 0.07713
 C1257 C 0.51542 -0.03546 0.07390
 N1258 N 0.51826 -0.02031 0.08634
 C1259 C 0.47817 -0.02638 0.12058
 C1260 C 0.46734 -0.02375 0.13414
 C1261 C 0.45444 -0.02062 0.15026
 N1262 N 0.44112 -0.03432 0.15521
 N1263 N 0.42914 -0.03141 0.17018
 C1264 C 0.43003 -0.01470 0.18076
 N1265 N 0.44343 -0.00102 0.17571
 N1266 N 0.45541 -0.00392 0.16074
 N1267 N 0.98812 0.45603 0.59181
 C1268 C 0.99099 0.47116 0.60414
 N1269 N 1.00623 0.48332 0.60108
 N1270 N 1.01824 0.48043 0.58612
 C1271 C 1.01546 0.46528 0.57367
 N1272 N 1.00013 0.45315 0.57685
 C1273 C 0.97807 0.47426 0.62026
 C1274 C 0.96720 0.47686 0.63379
 C1275 C 0.95426 0.47997 0.64988
 N1276 N 0.95519 0.49666 0.66037
 N1277 N 0.94318 0.49954 0.67533
 C1278 C 0.92979 0.48584 0.68034
 N1279 N 0.92893 0.46913 0.66974
 N1280 N 0.94095 0.46625 0.65479
 N1281 N 1.00592 0.51680 0.89866
 C1282 C 0.99069 0.52896 0.89553
 N1283 N 0.98783 0.54415 0.90780
 N1284 N 0.99984 0.54709 0.92274
 C1285 C 1.01515 0.53497 0.92598
 N1286 N 1.01792 0.51976 0.91361
 C1287 C 0.97777 0.52579 0.87943
 C1288 C 0.96691 0.52313 0.86589
 C1289 C 0.95400 0.51998 0.84977
 N1290 N 0.94067 0.53366 0.84483
 N1291 N 0.92869 0.53073 0.82985
 C1292 C 0.92961 0.51402 0.81927
 N1293 N 0.94302 0.50037 0.82432
 N1294 N 0.95500 0.50329 0.83929
 N1295 N 0.48821 0.04381 0.40821
 C1296 C 0.49109 0.02866 0.39591
 N1297 N 0.50635 0.01654 0.39900
 N1298 N 0.51836 0.01949 0.41394
 C1299 C 0.51557 0.03466 0.42635
 N1300 N 0.50022 0.04676 0.42315
 C1301 C 0.47816 0.02549 0.37981
 C1302 C 0.46730 0.02283 0.36628
 C1303 C 0.45439 0.01967 0.35017
 N1304 N 0.45536 0.00296 0.33972
 N1305 N 0.44337 0.00002 0.32475
 C1306 C 0.42997 0.01369 0.31968
 N1307 N 0.42908 0.03042 0.33024
 N1308 N 0.44107 0.03335 0.34521
   
