data_POSCAR
  _audit_creation_date              2014-09-24
  _audit_creation_method            'ToBaCCo'
  _symmetry_space_group_name_H-M    'P1'
  _symmetry_Int_Tables_number       1
  _symmetry_cell_setting            triclinic
  loop_
  _symmetry_equiv_pos_as_xyz
 x,y,z
_cell_length_a 78.5369
_cell_length_b 78.4879
_cell_length_c 78.5612
_cell_angle_alpha 89.984700
_cell_angle_beta 89.982200
_cell_angle_gamma 89.955900
loop_
  _atom_site_label
  _atom_site_type_symbol
  _atom_site_fract_x
  _atom_site_fract_y
  _atom_site_fract_z
C1 C 0.35122 0.35095 0.32973
 C2 C 0.36572 0.34349 0.32242
 C3 C 0.37288 0.32880 0.32961
 C4 C 0.36568 0.32152 0.34421
 C5 C 0.35119 0.32882 0.35169
 C6 C 0.34390 0.34360 0.34443
 C7 C 0.34378 0.36550 0.32249
 C8 C 0.32915 0.37269 0.32974
 C9 C 0.32189 0.36546 0.34435
 C10 C 0.32917 0.35091 0.35176
 C11 C 0.32186 0.34341 0.36623
 C12 C 0.32908 0.32872 0.37336
 C13 C 0.34371 0.32148 0.36616
 H14 H 0.37135 0.34898 0.31107
 H15 H 0.37128 0.31011 0.34963
 H16 H 0.34925 0.37115 0.31114
 H17 H 0.31052 0.37108 0.34982
 H18 H 0.31049 0.34887 0.37186
 H19 H 0.34915 0.31007 0.37174
 C20 C 0.35142 0.85139 -0.17120
 C21 C 0.36592 0.84394 -0.17853
 C22 C 0.37315 0.82928 -0.17132
 C23 C 0.36598 0.82203 -0.15666
 C24 C 0.35148 0.82932 -0.14918
 C25 C 0.34414 0.84406 -0.15647
 C26 C 0.34393 0.86590 -0.17848
 C27 C 0.32928 0.87308 -0.17122
 C28 C 0.32208 0.86587 -0.15656
 C29 C 0.32942 0.85136 -0.14913
 C30 C 0.32216 0.84388 -0.13462
 C31 C 0.32943 0.82924 -0.12746
 C32 C 0.34406 0.82201 -0.13467
 H33 H 0.37148 0.84945 -0.18991
 H34 H 0.37159 0.81064 -0.15118
 H35 H 0.34940 0.87150 -0.18986
 H36 H 0.31071 0.87145 -0.15104
 H37 H 0.31079 0.84933 -0.12898
 H38 H 0.34954 0.81063 -0.12907
 C39 C 0.85134 0.35159 -0.17093
 C40 C 0.86587 0.34417 -0.17822
 C41 C 0.87311 0.32952 -0.17099
 C42 C 0.86591 0.32226 -0.15635
 C43 C 0.85138 0.32952 -0.14891
 C44 C 0.84404 0.34425 -0.15621
 C45 C 0.84385 0.36609 -0.17822
 C46 C 0.82917 0.37325 -0.17100
 C47 C 0.82194 0.36602 -0.15637
 C48 C 0.82928 0.35153 -0.14891
 C49 C 0.82199 0.34403 -0.13443
 C50 C 0.82927 0.32940 -0.12724
 C51 C 0.84393 0.32220 -0.13442
 H52 H 0.87146 0.34969 -0.18959
 H53 H 0.87153 0.31088 -0.15085
 H54 H 0.84934 0.37171 -0.18959
 H55 H 0.81054 0.37159 -0.15087
 H56 H 0.81059 0.34946 -0.12882
 H57 H 0.84942 0.31083 -0.12880
 C58 C 0.85099 0.85140 0.32925
 C59 C 0.86550 0.84393 0.32196
 C60 C 0.87269 0.82929 0.32919
 C61 C 0.86551 0.82204 0.34383
 C62 C 0.85101 0.82934 0.35129
 C63 C 0.84369 0.84408 0.34398
 C64 C 0.84353 0.86591 0.32195
 C65 C 0.82887 0.87311 0.32919
 C66 C 0.82164 0.86591 0.34383
 C67 C 0.82895 0.85140 0.35129
 C68 C 0.82167 0.84393 0.36579
 C69 C 0.82891 0.82928 0.37297
 C70 C 0.84355 0.82204 0.36578
 H71 H 0.87112 0.84940 0.31059
 H72 H 0.87114 0.81066 0.34928
 H73 H 0.84903 0.87150 0.31058
 H74 H 0.81026 0.87150 0.34933
 H75 H 0.81029 0.84939 0.37141
 H76 H 0.84902 0.81066 0.37140
 C77 C 0.64871 0.64876 0.32911
 C78 C 0.63422 0.65623 0.32179
 C79 C 0.62700 0.67086 0.32903
 C80 C 0.63413 0.67807 0.34369
 C81 C 0.64862 0.67077 0.35118
 C82 C 0.65597 0.65604 0.34386
 C83 C 0.65621 0.63427 0.32181
 C84 C 0.67084 0.62707 0.32907
 C85 C 0.67802 0.63423 0.34373
 C86 C 0.67069 0.64872 0.35120
 C87 C 0.67793 0.65616 0.36572
 C88 C 0.67065 0.67079 0.37291
 C89 C 0.65603 0.67804 0.36570
 H90 H 0.62865 0.65079 0.31039
 H91 H 0.62849 0.68944 0.34916
 H92 H 0.65079 0.62867 0.31041
 H93 H 0.68939 0.62861 0.34921
 H94 H 0.68930 0.65070 0.37136
 H95 H 0.65054 0.68941 0.37132
 C96 C 0.64886 0.14830 -0.17089
 C97 C 0.63435 0.15577 -0.17817
 C98 C 0.62717 0.17042 -0.17094
 C99 C 0.63436 0.17766 -0.15632
 C100 C 0.64887 0.17036 -0.14887
 C101 C 0.65618 0.15561 -0.15618
 C102 C 0.65631 0.13379 -0.17819
 C103 C 0.67097 0.12658 -0.17097
 C104 C 0.67821 0.13378 -0.15634
 C105 C 0.67091 0.14829 -0.14888
 C106 C 0.67821 0.15576 -0.13439
 C107 C 0.67097 0.17041 -0.12721
 C108 C 0.65633 0.17765 -0.13439
 H109 H 0.62873 0.15031 -0.18954
 H110 H 0.62875 0.18905 -0.15086
 H111 H 0.65081 0.12820 -0.18956
 H112 H 0.68960 0.12818 -0.15085
 H113 H 0.68959 0.15029 -0.12878
 H114 H 0.65087 0.18904 -0.12877
 C115 C 0.14917 0.64843 -0.17098
 C116 C 0.13466 0.65591 -0.17826
 C117 C 0.12747 0.67054 -0.17100
 C118 C 0.13465 0.67776 -0.15637
 C119 C 0.14916 0.67045 -0.14893
 C120 C 0.15648 0.65572 -0.15625
 C121 C 0.15663 0.63393 -0.17830
 C122 C 0.17128 0.62671 -0.17108
 C123 C 0.17852 0.63389 -0.15644
 C124 C 0.17121 0.64839 -0.14896
 C125 C 0.17850 0.65584 -0.13446
 C126 C 0.17126 0.67047 -0.12726
 C127 C 0.15662 0.67772 -0.13443
 H128 H 0.12904 0.65046 -0.18963
 H129 H 0.12903 0.68914 -0.15089
 H130 H 0.15113 0.62835 -0.18968
 H131 H 0.18990 0.62829 -0.15095
 H132 H 0.18988 0.65037 -0.12886
 H133 H 0.15115 0.68910 -0.12880
 C134 C 0.14869 0.14877 0.32876
 C135 C 0.13421 0.15626 0.32145
 C136 C 0.12694 0.17086 0.32874
 C137 C 0.13406 0.17801 0.34347
 C138 C 0.14854 0.17068 0.35093
 C139 C 0.15592 0.15600 0.34356
 C140 C 0.15622 0.13432 0.32140
 C141 C 0.17085 0.12709 0.32865
 C142 C 0.17800 0.13421 0.34337
 C143 C 0.17063 0.14866 0.35088
 C144 C 0.17784 0.15604 0.36546
 C145 C 0.17054 0.17062 0.37270
 C146 C 0.15592 0.17789 0.36551
 H147 H 0.12868 0.15083 0.31002
 H148 H 0.12842 0.18935 0.34901
 H149 H 0.15078 0.12880 0.30997
 H150 H 0.18936 0.12860 0.34888
 H151 H 0.18920 0.15056 0.37109
 H152 H 0.15041 0.18923 0.37117
 C153 C 0.64875 0.35123 0.67058
 C154 C 0.63424 0.34376 0.67784
 C155 C 0.62705 0.32915 0.67056
 C156 C 0.63424 0.32196 0.65590
 C157 C 0.64875 0.32926 0.64847
 C158 C 0.65606 0.34396 0.65583
 C159 C 0.65622 0.36570 0.67792
 C160 C 0.67086 0.37290 0.67071
 C161 C 0.67810 0.36575 0.65606
 C162 C 0.67080 0.35128 0.64855
 C163 C 0.67810 0.34386 0.63403
 C164 C 0.67085 0.32925 0.62680
 C165 C 0.65621 0.32200 0.63395
 H166 H 0.62863 0.34919 0.68923
 H167 H 0.62862 0.31060 0.65040
 H168 H 0.65076 0.37129 0.68931
 H169 H 0.68948 0.37138 0.65062
 H170 H 0.68948 0.34932 0.62843
 H171 H 0.65075 0.31065 0.62830
 C172 C 0.64840 0.85104 1.17097
 C173 C 0.63387 0.84362 1.17824
 C174 C 0.62664 0.82900 1.17098
 C175 C 0.63384 0.82176 1.15633
 C176 C 0.64837 0.82903 1.14891
 C177 C 0.65571 0.84373 1.15625
 C178 C 0.65589 0.86552 1.17829
 C179 C 0.67056 0.87266 1.17108
 C180 C 0.67779 0.86547 1.15645
 C181 C 0.67047 0.85100 1.14897
 C182 C 0.67777 0.84353 1.13447
 C183 C 0.67051 0.82893 1.12726
 C184 C 0.65584 0.82173 1.13441
 H185 H 0.62828 0.84913 1.18962
 H186 H 0.62823 0.81040 1.15081
 H187 H 0.65043 0.87114 1.18966
 H188 H 0.68919 0.87106 1.15102
 H189 H 0.68917 0.84897 1.12888
 H190 H 0.65036 0.81037 1.12877
 C191 C 0.14859 0.35112 1.17124
 C192 C 0.13410 0.34364 1.17853
 C193 C 0.12692 0.32899 1.17127
 C194 C 0.13412 0.32180 1.15660
 C195 C 0.14861 0.32913 1.14916
 C196 C 0.15590 0.34385 1.15649
 C197 C 0.15603 0.36562 1.17856
 C198 C 0.17066 0.37284 1.17133
 C199 C 0.17789 0.36569 1.15668
 C200 C 0.17062 0.35119 1.14919
 C201 C 0.17792 0.34377 1.13467
 C202 C 0.17070 0.32914 1.12746
 C203 C 0.15608 0.32187 1.13464
 H204 H 0.12851 0.34911 1.18992
 H205 H 0.12855 0.31042 1.15108
 H206 H 0.15057 0.37121 1.18994
 H207 H 0.18926 0.37133 1.15122
 H208 H 0.18928 0.34926 1.12906
 H209 H 0.15063 0.31050 1.12900
 C210 C 0.14819 0.85114 0.67103
 C211 C 0.13371 0.84364 0.67833
 C212 C 0.12650 0.82903 0.67102
 C213 C 0.13366 0.82188 0.65631
 C214 C 0.14814 0.82923 0.64886
 C215 C 0.15546 0.84392 0.65624
 C216 C 0.15567 0.86560 0.67839
 C217 C 0.17028 0.87283 0.67116
 C218 C 0.17748 0.86573 0.65646
 C219 C 0.17017 0.85127 0.64894
 C220 C 0.17743 0.84390 0.63438
 C221 C 0.17018 0.82931 0.62712
 C222 C 0.15557 0.82203 0.63430
 H223 H 0.12815 0.84907 0.68975
 H224 H 0.12806 0.81054 0.65076
 H225 H 0.15024 0.87115 0.68982
 H226 H 0.18884 0.87138 0.65101
 H227 H 0.18879 0.84940 0.62876
 H228 H 0.15010 0.81068 0.62863
 C229 C 0.35102 0.64906 0.67036
 C230 C 0.36551 0.65651 0.67767
 C231 C 0.37269 0.67117 0.67046
 C232 C 0.36551 0.67843 0.65583
 C233 C 0.35102 0.67115 0.64836
 C234 C 0.34372 0.65640 0.65564
 C235 C 0.34357 0.63454 0.67763
 C236 C 0.32894 0.62736 0.67038
 C237 C 0.32171 0.63457 0.65576
 C238 C 0.32900 0.64909 0.64832
 C239 C 0.32171 0.65658 0.63384
 C240 C 0.32894 0.67124 0.62667
 C241 C 0.34356 0.67847 0.63387
 H242 H 0.37112 0.65103 0.68903
 H243 H 0.37112 0.68983 0.65039
 H244 H 0.34903 0.62890 0.68900
 H245 H 0.31034 0.62896 0.65029
 H246 H 0.31034 0.65113 0.62821
 H247 H 0.34901 0.68986 0.62827
 C248 C 0.35161 0.14889 1.17119
 C249 C 0.36612 0.15631 1.17849
 C250 C 0.37336 0.17095 1.17125
 C251 C 0.36619 0.17820 1.15660
 C252 C 0.35169 0.17094 1.14914
 C253 C 0.34433 0.15623 1.15645
 C254 C 0.34411 0.13441 1.17848
 C255 C 0.32945 0.12725 1.17124
 C256 C 0.32225 0.13447 1.15659
 C257 C 0.32960 0.14895 1.14913
 C258 C 0.32234 0.15644 1.13463
 C259 C 0.32962 0.17105 1.12744
 C260 C 0.34426 0.17825 1.13463
 H261 H 0.37168 0.15080 1.18987
 H262 H 0.37181 0.18957 1.15110
 H263 H 0.34958 0.12880 1.18987
 H264 H 0.31087 0.12891 1.15108
 H265 H 0.31096 0.15101 1.12900
 H266 H 0.34975 0.18962 1.12901
 C267 C 0.85131 0.64813 1.17092
 C268 C 0.86581 0.65559 1.17821
 C269 C 0.87299 0.67023 1.17098
 C270 C 0.86581 0.67747 1.15634
 C271 C 0.85132 0.67018 1.14889
 C272 C 0.84401 0.65544 1.15620
 C273 C 0.84386 0.63362 1.17822
 C274 C 0.82921 0.62643 1.17099
 C275 C 0.82199 0.63363 1.15634
 C276 C 0.82928 0.64814 1.14889
 C277 C 0.82200 0.65561 1.13439
 C278 C 0.82923 0.67025 1.12721
 C279 C 0.84386 0.67748 1.13439
 H280 H 0.87142 0.65012 1.18959
 H281 H 0.87142 0.68885 1.15088
 H282 H 0.84935 0.62803 1.18960
 H283 H 0.81061 0.62805 1.15085
 H284 H 0.81062 0.65016 1.12877
 H285 H 0.84932 0.68886 1.12877
 C286 C 0.85115 0.14888 0.67094
 C287 C 0.86559 0.15635 0.67831
 C288 C 0.87281 0.17099 0.67110
 C289 C 0.86570 0.17822 0.65642
 C290 C 0.85125 0.17092 0.64889
 C291 C 0.84391 0.15618 0.65617
 C292 C 0.84366 0.13437 0.67820
 C293 C 0.82907 0.12717 0.67090
 C294 C 0.82191 0.13435 0.65622
 C295 C 0.82923 0.14886 0.64879
 C296 C 0.82202 0.15632 0.63425
 C297 C 0.82928 0.17096 0.62709
 C298 C 0.84387 0.17821 0.63435
 H299 H 0.87115 0.15089 0.68971
 H300 H 0.87134 0.18960 0.65099
 H301 H 0.84906 0.12876 0.68961
 H302 H 0.81057 0.12873 0.65070
 H303 H 0.81068 0.15085 0.62858
 H304 H 0.84935 0.18959 0.62876
 C305 C 0.35107 0.35115 0.67060
 C306 C 0.34362 0.36569 0.67785
 C307 C 0.32896 0.37285 0.67064
 C308 C 0.32169 0.36561 0.65606
 C309 C 0.32897 0.35107 0.64863
 C310 C 0.34373 0.34378 0.65593
 C311 C 0.36560 0.34371 0.67787
 C312 C 0.37277 0.32904 0.67068
 C313 C 0.36555 0.32174 0.65610
 C314 C 0.35102 0.32901 0.64866
 C315 C 0.34353 0.32166 0.63421
 C316 C 0.32887 0.32888 0.62704
 C317 C 0.32164 0.34355 0.63419
 H318 H 0.34911 0.37135 0.68919
 H319 H 0.31030 0.37121 0.65061
 H320 H 0.37124 0.34921 0.68921
 H321 H 0.37116 0.31034 0.65067
 H322 H 0.34898 0.31026 0.62863
 H323 H 0.31025 0.34900 0.62859
 C324 C 0.35135 0.85200 0.17028
 C325 C 0.34388 0.86652 0.17754
 C326 C 0.32923 0.87370 0.17031
 C327 C 0.32199 0.86648 0.15570
 C328 C 0.32929 0.85195 0.14826
 C329 C 0.34403 0.84465 0.15557
 C330 C 0.36585 0.84454 0.17757
 C331 C 0.37305 0.82989 0.17036
 C332 C 0.36586 0.82262 0.15575
 C333 C 0.35135 0.82990 0.14829
 C334 C 0.34389 0.82258 0.13382
 C335 C 0.32924 0.82980 0.12663
 C336 C 0.32200 0.84446 0.13379
 H337 H 0.34934 0.87216 0.18890
 H338 H 0.31061 0.87209 0.15024
 H339 H 0.37147 0.85003 0.18893
 H340 H 0.37148 0.81122 0.15032
 H341 H 0.34936 0.81118 0.12823
 H342 H 0.31062 0.84991 0.12817
 C343 C 0.85173 0.35111 0.17043
 C344 C 0.84426 0.36562 0.17769
 C345 C 0.82961 0.37279 0.17046
 C346 C 0.82238 0.36558 0.15584
 C347 C 0.82969 0.35106 0.14841
 C348 C 0.84443 0.34376 0.15572
 C349 C 0.86624 0.34366 0.17772
 C350 C 0.87344 0.32901 0.17051
 C351 C 0.86626 0.32174 0.15590
 C352 C 0.85175 0.32901 0.14844
 C353 C 0.84430 0.32169 0.13396
 C354 C 0.82965 0.32892 0.12677
 C355 C 0.82240 0.34357 0.13393
 H356 H 0.84971 0.37127 0.18905
 H357 H 0.81099 0.37118 0.15038
 H358 H 0.87186 0.34914 0.18908
 H359 H 0.87189 0.31035 0.15046
 H360 H 0.84977 0.31030 0.12836
 H361 H 0.81101 0.34902 0.12831
 C362 C 0.85126 0.85128 0.67075
 C363 C 0.84378 0.86578 0.67805
 C364 C 0.82912 0.87295 0.67084
 C365 C 0.82188 0.86575 0.65623
 C366 C 0.82919 0.85125 0.64876
 C367 C 0.84395 0.84396 0.65604
 C368 C 0.86579 0.84384 0.67802
 C369 C 0.87300 0.82921 0.67078
 C370 C 0.86581 0.82195 0.65616
 C371 C 0.85128 0.82923 0.64873
 C372 C 0.84381 0.82192 0.63425
 C373 C 0.82915 0.82914 0.62709
 C374 C 0.82189 0.84378 0.63428
 H375 H 0.84924 0.87141 0.68941
 H376 H 0.81048 0.87135 0.65079
 H377 H 0.87141 0.84931 0.68938
 H378 H 0.87144 0.81058 0.65070
 H379 H 0.84929 0.81055 0.62862
 H380 H 0.81050 0.84922 0.62868
 C381 C 0.64858 0.64863 0.67108
 C382 C 0.65607 0.63414 0.67839
 C383 C 0.67071 0.62695 0.67116
 C384 C 0.67793 0.63412 0.65651
 C385 C 0.67061 0.64862 0.64903
 C386 C 0.65587 0.65593 0.65634
 C387 C 0.63407 0.65609 0.67837
 C388 C 0.62685 0.67072 0.67112
 C389 C 0.63402 0.67794 0.65647
 C390 C 0.64853 0.67065 0.64901
 C391 C 0.65597 0.67793 0.63450
 C392 C 0.67061 0.67069 0.62731
 C393 C 0.67788 0.65607 0.63452
 H394 H 0.65062 0.62853 0.68978
 H395 H 0.68931 0.62851 0.65105
 H396 H 0.62847 0.65064 0.68976
 H397 H 0.62838 0.68931 0.65099
 H398 H 0.65049 0.68930 0.62886
 H399 H 0.68926 0.65061 0.62890
 C400 C 0.64877 0.14838 0.17056
 C401 C 0.65623 0.13389 0.17790
 C402 C 0.67089 0.12669 0.17072
 C403 C 0.67816 0.13386 0.15608
 C404 C 0.67086 0.14834 0.14857
 C405 C 0.65610 0.15566 0.15583
 C406 C 0.63424 0.15585 0.17780
 C407 C 0.62705 0.17047 0.17051
 C408 C 0.63426 0.17769 0.15588
 C409 C 0.64879 0.17038 0.14847
 C410 C 0.65628 0.17765 0.13397
 C411 C 0.67094 0.17041 0.12684
 C412 C 0.67818 0.15578 0.13408
 H413 H 0.65075 0.12829 0.18927
 H414 H 0.68955 0.12823 0.15066
 H415 H 0.62860 0.15041 0.18917
 H416 H 0.62865 0.18906 0.15038
 H417 H 0.65082 0.18902 0.12832
 H418 H 0.68958 0.15031 0.12850
 C419 C 0.14882 0.64875 0.17060
 C420 C 0.15628 0.63425 0.17792
 C421 C 0.17094 0.62705 0.17071
 C422 C 0.17819 0.63422 0.15608
 C423 C 0.17089 0.64872 0.14859
 C424 C 0.15615 0.65605 0.15587
 C425 C 0.13431 0.65622 0.17786
 C426 C 0.12712 0.67086 0.17060
 C427 C 0.13432 0.67808 0.15596
 C428 C 0.14884 0.67078 0.14853
 C429 C 0.15631 0.67806 0.13403
 C430 C 0.17096 0.67081 0.12688
 C431 C 0.17820 0.65617 0.13409
 H432 H 0.15081 0.62864 0.18929
 H433 H 0.18958 0.62860 0.15064
 H434 H 0.12868 0.65077 0.18923
 H435 H 0.12870 0.68946 0.15048
 H436 H 0.15085 0.68943 0.12840
 H437 H 0.18959 0.65070 0.12850
 C438 C 0.14822 0.14847 0.67136
 C439 C 0.15570 0.13398 0.67868
 C440 C 0.17031 0.12675 0.67144
 C441 C 0.17751 0.13388 0.65675
 C442 C 0.17020 0.14837 0.64926
 C443 C 0.15549 0.15573 0.65658
 C444 C 0.13374 0.15598 0.67866
 C445 C 0.12655 0.17061 0.67139
 C446 C 0.13369 0.17779 0.65671
 C447 C 0.14817 0.17045 0.64924
 C448 C 0.15560 0.17768 0.63470
 C449 C 0.17021 0.17040 0.62750
 C450 C 0.17746 0.15577 0.63472
 H451 H 0.15026 0.12841 0.69009
 H452 H 0.18887 0.12822 0.65128
 H453 H 0.12816 0.15057 0.69007
 H454 H 0.12807 0.18916 0.65123
 H455 H 0.15013 0.18905 0.62905
 H456 H 0.18882 0.15028 0.62909
 C457 C 0.35131 0.64908 0.32915
 C458 C 0.34388 0.63453 0.32193
 C459 C 0.32925 0.62737 0.32919
 C460 C 0.32200 0.63461 0.34379
 C461 C 0.32926 0.64916 0.35118
 C462 C 0.34398 0.65645 0.34384
 C463 C 0.36581 0.65652 0.32183
 C464 C 0.37297 0.67121 0.32900
 C465 C 0.36576 0.67851 0.34359
 C466 C 0.35127 0.67123 0.35108
 C467 C 0.34379 0.67859 0.36554
 C468 C 0.32916 0.67136 0.37276
 C469 C 0.32195 0.65668 0.36564
 H470 H 0.34935 0.62887 0.31058
 H471 H 0.31063 0.62901 0.34927
 H472 H 0.37144 0.65101 0.31048
 H473 H 0.37136 0.68992 0.34900
 H474 H 0.34923 0.68999 0.37111
 H475 H 0.31058 0.65124 0.37128
 C476 C 0.35141 0.14844 0.82955
 C477 C 0.34395 0.13392 0.82230
 C478 C 0.32932 0.12675 0.82957
 C479 C 0.32211 0.13397 0.84420
 C480 C 0.32940 0.14849 0.85162
 C481 C 0.34412 0.15578 0.84427
 C482 C 0.36590 0.15588 0.82221
 C483 C 0.37309 0.17054 0.82940
 C484 C 0.36592 0.17781 0.84403
 C485 C 0.35144 0.17053 0.85153
 C486 C 0.34400 0.17786 0.86602
 C487 C 0.32937 0.17064 0.87325
 C488 C 0.32213 0.15598 0.86611
 H489 H 0.34939 0.12827 0.81093
 H490 H 0.31074 0.12837 0.84969
 H491 H 0.37150 0.15039 0.81084
 H492 H 0.37154 0.18920 0.84945
 H493 H 0.34946 0.18925 0.87160
 H494 H 0.31077 0.15054 0.87176
 C495 C 0.85168 0.64853 0.82943
 C496 C 0.84423 0.63401 0.82215
 C497 C 0.82960 0.62683 0.82941
 C498 C 0.82237 0.63402 0.84404
 C499 C 0.82965 0.64854 0.85148
 C500 C 0.84437 0.65585 0.84415
 C501 C 0.86617 0.65600 0.82212
 C502 C 0.87334 0.67065 0.82933
 C503 C 0.86615 0.67790 0.84396
 C504 C 0.85166 0.67060 0.85144
 C505 C 0.84420 0.67790 0.86593
 C506 C 0.82957 0.67066 0.87313
 C507 C 0.82235 0.65601 0.86597
 H508 H 0.84969 0.62839 0.81078
 H509 H 0.81100 0.62840 0.84951
 H510 H 0.87178 0.65053 0.81075
 H511 H 0.87176 0.68928 0.84941
 H512 H 0.84965 0.68929 0.87153
 H513 H 0.81099 0.65055 0.87160
 C514 C 0.85185 0.14838 0.32915
 C515 C 0.84438 0.13387 0.32189
 C516 C 0.82973 0.12671 0.32914
 C517 C 0.82250 0.13394 0.34375
 C518 C 0.82980 0.14845 0.35118
 C519 C 0.84454 0.15573 0.34386
 C520 C 0.86635 0.15581 0.32184
 C521 C 0.87354 0.17046 0.32905
 C522 C 0.86636 0.17774 0.34366
 C523 C 0.85185 0.17048 0.35114
 C524 C 0.84439 0.17781 0.36562
 C525 C 0.82975 0.17060 0.37281
 C526 C 0.82251 0.15595 0.36566
 H527 H 0.84984 0.12822 0.31053
 H528 H 0.81112 0.12835 0.34922
 H529 H 0.87197 0.15032 0.31048
 H530 H 0.87198 0.18912 0.34910
 H531 H 0.84985 0.18920 0.37121
 H532 H 0.81113 0.15052 0.37129
 C533 C 0.64868 0.35116 0.32882
 C534 C 0.65613 0.36566 0.32151
 C535 C 0.67076 0.37286 0.32872
 C536 C 0.67801 0.36569 0.34336
 C537 C 0.67072 0.35119 0.35085
 C538 C 0.65600 0.34387 0.34356
 C539 C 0.63418 0.34369 0.32155
 C540 C 0.62701 0.32906 0.32882
 C541 C 0.63420 0.32183 0.34346
 C542 C 0.64870 0.32914 0.35089
 C543 C 0.65617 0.32186 0.36540
 C544 C 0.67080 0.32911 0.37256
 C545 C 0.67802 0.34374 0.36535
 H546 H 0.65066 0.37127 0.31013
 H547 H 0.68938 0.37131 0.34881
 H548 H 0.62856 0.34914 0.31018
 H549 H 0.62859 0.31046 0.34894
 H550 H 0.65071 0.31048 0.37103
 H551 H 0.68940 0.34921 0.37095
 C552 C 0.64836 0.85132 0.82960
 C553 C 0.65583 0.86582 0.82231
 C554 C 0.67048 0.87298 0.82952
 C555 C 0.67773 0.86577 0.84414
 C556 C 0.67044 0.85127 0.85160
 C557 C 0.65569 0.84398 0.84431
 C558 C 0.63385 0.84388 0.82233
 C559 C 0.62667 0.82924 0.82957
 C560 C 0.63387 0.82197 0.84418
 C561 C 0.64838 0.82924 0.85162
 C562 C 0.65586 0.82192 0.86610
 C563 C 0.67051 0.82914 0.87326
 C564 C 0.67774 0.84378 0.86608
 H565 H 0.65035 0.87146 0.81095
 H566 H 0.68911 0.87137 0.84958
 H567 H 0.62822 0.84936 0.81097
 H568 H 0.62825 0.81059 0.84964
 H569 H 0.65040 0.81054 0.87172
 H570 H 0.68913 0.84922 0.87168
 C571 C 0.14860 0.35162 0.82963
 C572 C 0.15610 0.36611 0.82233
 C573 C 0.17076 0.37324 0.82955
 C574 C 0.17799 0.36601 0.84417
 C575 C 0.17066 0.35153 0.85163
 C576 C 0.15590 0.34427 0.84434
 C577 C 0.13407 0.34422 0.82235
 C578 C 0.12685 0.32960 0.82959
 C579 C 0.13403 0.32232 0.84421
 C580 C 0.14856 0.32956 0.85165
 C581 C 0.15601 0.32222 0.86614
 C582 C 0.17067 0.32940 0.87330
 C583 C 0.17795 0.34403 0.86612
 H584 H 0.15065 0.37176 0.81097
 H585 H 0.18939 0.37159 0.84962
 H586 H 0.12846 0.34971 0.81099
 H587 H 0.12839 0.31095 0.84967
 H588 H 0.15052 0.31086 0.87175
 H589 H 0.18934 0.34944 0.87172
 C590 C 0.14841 0.85212 0.32878
 C591 C 0.15586 0.86662 0.32147
 C592 C 0.17048 0.87383 0.32870
 C593 C 0.17770 0.86667 0.34336
 C594 C 0.17042 0.85217 0.35084
 C595 C 0.15570 0.84484 0.34353
 C596 C 0.13392 0.84463 0.32149
 C597 C 0.12675 0.83000 0.32875
 C598 C 0.13392 0.82279 0.34341
 C599 C 0.14840 0.83011 0.35086
 C600 C 0.15585 0.82284 0.36538
 C601 C 0.17047 0.83010 0.37256
 C602 C 0.17770 0.84473 0.36536
 H603 H 0.15041 0.87221 0.31008
 H604 H 0.18906 0.87230 0.34881
 H605 H 0.12832 0.85007 0.31010
 H606 H 0.12831 0.81141 0.34888
 H607 H 0.15040 0.81146 0.37101
 H608 H 0.18906 0.85021 0.37097
 O609 O 0.22831 0.98438 0.25127
 O610 O 0.25188 1.01760 0.22801
 O611 O 0.25180 0.98438 0.22791
 O612 O 0.22837 1.01760 0.25135
 O613 O 0.24822 1.01749 0.27131
 O614 O 0.27165 0.98426 0.24787
 O615 O 0.27173 1.01749 0.24797
 O616 O 0.24816 0.98427 0.27123
 Cu617 Cu 0.23809 1.00100 0.23762
 Cu618 Cu 0.26194 1.00087 0.26161
 C619 C 0.23429 0.97868 0.26515
 C620 C 0.26575 1.02319 0.23409
 C621 C 0.26565 0.97867 0.23396
 C622 C 0.23437 1.02319 0.26526
 O623 O 0.27159 0.48360 0.74808
 O624 O 0.24826 0.51686 0.77155
 O625 O 0.24827 0.48364 0.77160
 O626 O 0.27158 0.51682 0.74803
 O627 O 0.25158 0.51680 0.72821
 O628 O 0.22827 0.48362 0.75179
 O629 O 0.22826 0.51684 0.75174
 O630 O 0.25160 0.48358 0.72826
 Cu631 Cu 0.26194 0.50023 0.76181
 Cu632 Cu 0.23791 0.50021 0.73800
 C633 C 0.26551 0.47794 0.73424
 C634 C 0.23435 0.52250 0.76558
 C635 C 0.23437 0.47799 0.76564
 C636 C 0.26549 0.52245 0.73417
 O637 O 0.77185 0.01616 0.25194
 O638 O 0.74833 -0.01704 0.22863
 O639 O 0.74839 0.01618 0.22857
 O640 O 0.77178 -0.01707 0.25201
 O641 O 0.75190 -0.01698 0.27195
 O642 O 0.72850 0.01627 0.24851
 O643 O 0.72844 -0.01695 0.24857
 O644 O 0.75197 0.01624 0.27188
 Cu645 Cu 0.76209 -0.00045 0.23828
 Cu646 Cu 0.73820 -0.00035 0.26224
 C647 C 0.76585 0.02184 0.26582
 C648 C 0.73444 -0.02264 0.23469
 C649 C 0.73452 0.02187 0.23461
 C650 C 0.76576 -0.02267 0.26591
 O651 O 0.75199 0.48310 0.77192
 O652 O 0.72854 0.51638 0.74857
 O653 O 0.72855 0.48315 0.74853
 O654 O 0.75200 0.51633 0.77195
 O655 O 0.77189 0.51633 0.75202
 O656 O 0.74844 0.48317 0.72860
 O657 O 0.74843 0.51639 0.72864
 O658 O 0.77188 0.48311 0.75199
 Cu659 Cu 0.73826 0.49974 0.76225
 Cu660 Cu 0.76217 0.49975 0.73830
 C661 C 0.76586 0.47745 0.76587
 C662 C 0.73456 0.52204 0.73469
 C663 C 0.73456 0.47752 0.73463
 C664 C 0.76588 0.52197 0.76591
 O665 O 0.25174 0.48342 0.27213
 O666 O 0.22838 0.51663 0.24860
 O667 O 0.22832 0.48340 0.24872
 O668 O 0.25179 0.51664 0.27202
 O669 O 0.27171 0.51654 0.25212
 O670 O 0.24824 0.48330 0.22881
 O671 O 0.24830 0.51652 0.22870
 O672 O 0.27166 0.48332 0.25223
 Cu673 Cu 0.23805 0.50003 0.26238
 Cu674 Cu 0.26199 0.49991 0.23846
 C675 C 0.26562 0.47772 0.26612
 C676 C 0.23443 0.52221 0.23470
 C677 C 0.23435 0.47770 0.23486
 C678 C 0.26568 0.52224 0.26598
 O679 O 0.74798 1.01669 0.77182
 O680 O 0.77140 0.98345 0.74840
 O681 O 0.77139 1.01667 0.74838
 O682 O 0.74798 0.98347 0.77183
 O683 O 0.72806 0.98348 0.75194
 O684 O 0.75147 1.01668 0.72849
 O685 O 0.75148 0.98346 0.72851
 O686 O 0.72806 1.01670 0.75193
 Cu687 Cu 0.76170 1.00007 0.76211
 Cu688 Cu 0.73776 1.00008 0.73821
 C689 C 0.73410 1.02235 0.76580
 C690 C 0.76536 0.97781 0.73453
 C691 C 0.76535 1.02232 0.73450
 C692 C 0.73410 0.97783 0.76582
 O693 O 0.74847 0.51658 0.27133
 O694 O 0.77189 0.48336 0.24788
 O695 O 0.77192 0.51658 0.24793
 O696 O 0.74842 0.48335 0.27127
 O697 O 0.72854 0.48343 0.25134
 O698 O 0.75203 0.51666 0.22801
 O699 O 0.75200 0.48343 0.22796
 O700 O 0.72858 0.51666 0.25141
 Cu701 Cu 0.76218 0.49996 0.26161
 Cu702 Cu 0.73828 0.50005 0.23767
 C703 C 0.73460 0.52226 0.26530
 C704 C 0.76587 0.47775 0.23399
 C705 C 0.76591 0.52227 0.23406
 C706 C 0.73454 0.47775 0.26521
 O707 O 0.25179 -0.01704 0.77216
 O708 O 0.22823 0.01622 0.74892
 O709 O 0.22826 -0.01700 0.74886
 O710 O 0.25175 0.01618 0.77223
 O711 O 0.27157 0.01623 0.75223
 O712 O 0.24808 -0.01695 0.72886
 O713 O 0.24806 0.01627 0.72892
 O714 O 0.27162 -0.01700 0.75216
 Cu715 Cu 0.23801 -0.00042 0.76256
 Cu716 Cu 0.26183 -0.00036 0.73853
 C717 C 0.26565 -0.02267 0.76606
 C718 C 0.23419 0.02190 0.73502
 C719 C 0.23423 -0.02261 0.73495
 C720 C 0.26560 0.02184 0.76615
 O721 O 0.22849 0.25181 1.01692
 O722 O 0.25195 0.22841 0.98373
 O723 O 0.25200 0.22845 1.01692
 O724 O 0.22845 0.25178 0.98373
 O725 O 0.24829 0.27176 0.98367
 O726 O 0.27184 0.24843 1.01686
 O727 O 0.27180 0.24838 0.98367
 O728 O 0.24833 0.27180 1.01686
 Cu729 Cu 0.23822 0.23810 1.00033
 Cu730 Cu 0.26207 0.26211 1.00026
 C731 C 0.23447 0.26573 1.02253
 C732 C 0.26581 0.23447 0.97806
 C733 C 0.26586 0.23453 1.02253
 C734 C 0.23443 0.26568 0.97806
 O735 O 0.24785 0.77244 0.48314
 O736 O 0.27128 0.74896 0.51631
 O737 O 0.27132 0.74903 0.48312
 O738 O 0.24779 0.77234 0.51633
 O739 O 0.22792 0.75238 0.51626
 O740 O 0.25146 0.72907 0.48305
 O741 O 0.25142 0.72900 0.51624
 O742 O 0.22799 0.75248 0.48307
 Cu743 Cu 0.26156 0.76271 0.49973
 Cu744 Cu 0.23769 0.73872 0.49965
 C745 C 0.23400 0.76639 0.47746
 C746 C 0.26528 0.73504 0.52191
 C747 C 0.26534 0.73514 0.47744
 C748 C 0.23391 0.76627 0.52195
 O749 O 0.22864 0.74817 -0.01687
 O750 O 0.25195 0.77173 0.01629
 O751 O 0.25201 0.77164 -0.01690
 O752 O 0.22860 0.74824 0.01632
 O753 O 0.24856 0.72835 0.01640
 O754 O 0.27198 0.75175 -0.01682
 O755 O 0.27192 0.75184 0.01637
 O756 O 0.24860 0.72828 -0.01679
 Cu757 Cu 0.23829 0.76195 -0.00030
 Cu758 Cu 0.26228 0.73805 -0.00020
 C759 C 0.23472 0.73427 -0.02247
 C760 C 0.26584 0.76573 0.02196
 C761 C 0.26592 0.76561 -0.02251
 C762 C 0.23465 0.73438 0.02201
 O763 O 0.27117 0.25109 0.48365
 O764 O 0.24766 0.22771 0.51682
 O765 O 0.24770 0.22771 0.48363
 O766 O 0.27113 0.25109 0.51684
 O767 O 0.25125 0.27106 0.51682
 O768 O 0.22783 0.24769 0.48361
 O769 O 0.22778 0.24768 0.51680
 O770 O 0.25129 0.27107 0.48363
 Cu771 Cu 0.26142 0.23738 0.50024
 Cu772 Cu 0.23753 0.26139 0.50021
 C773 C 0.26517 0.26500 0.47801
 C774 C 0.23378 0.23378 0.52245
 C775 C 0.23384 0.23379 0.47797
 C776 C 0.26512 0.26500 0.52247
 O777 O 0.74818 0.77144 0.98363
 O778 O 0.77163 0.74799 1.01681
 O779 O 0.77168 0.74806 0.98361
 O780 O 0.74816 0.77140 1.01682
 O781 O 0.72830 0.75144 1.01678
 O782 O 0.75182 0.72809 0.98357
 O783 O 0.75177 0.72803 1.01676
 O784 O 0.72832 0.75148 0.98359
 Cu785 Cu 0.76192 0.76174 1.00022
 Cu786 Cu 0.73805 0.73775 1.00017
 C787 C 0.73432 0.76539 0.97797
 C788 C 0.76563 0.73408 1.02242
 C789 C 0.76569 0.73416 0.97795
 C790 C 0.73429 0.76533 1.02244
 O791 O 0.74847 0.27172 0.48308
 O792 O 0.77194 0.24837 0.51631
 O793 O 0.77196 0.24833 0.48312
 O794 O 0.74846 0.27176 0.51627
 O795 O 0.72860 0.25180 0.51630
 O796 O 0.75210 0.22837 0.48314
 O797 O 0.75208 0.22841 0.51634
 O798 O 0.72861 0.25176 0.48310
 Cu799 Cu 0.76221 0.26206 0.49969
 Cu800 Cu 0.73834 0.23807 0.49972
 C801 C 0.73461 0.26566 0.47744
 C802 C 0.76594 0.23448 0.52197
 C803 C 0.76597 0.23442 0.47750
 C804 C 0.73459 0.26571 0.52192
 O805 O 0.75203 0.27136 0.01640
 O806 O 0.72858 0.24798 -0.01679
 O807 O 0.72862 0.24793 0.01641
 O808 O 0.75198 0.27142 -0.01679
 O809 O 0.77191 0.25150 -0.01685
 O810 O 0.74854 0.22800 0.01635
 O811 O 0.74851 0.22805 -0.01684
 O812 O 0.77195 0.25144 0.01634
 Cu813 Cu 0.73829 0.26168 -0.00019
 Cu814 Cu 0.76224 0.23774 -0.00026
 C815 C 0.76592 0.26532 0.02201
 C816 C 0.73461 0.23409 -0.02245
 C817 C 0.73466 0.23403 0.02202
 C818 C 0.76586 0.26540 -0.02246
 O819 O 0.72808 0.74820 0.48353
 O820 O 0.75154 0.77159 0.51671
 O821 O 0.75151 0.77162 0.48352
 O822 O 0.72811 0.74819 0.51673
 O823 O 0.74801 0.72824 0.51670
 O824 O 0.77141 0.75167 0.48348
 O825 O 0.77145 0.75164 0.51668
 O826 O 0.74799 0.72826 0.48350
 Cu827 Cu 0.73780 0.76191 0.50012
 Cu828 Cu 0.76172 0.73794 0.50009
 C829 C 0.73410 0.73431 0.47788
 C830 C 0.76543 0.76554 0.52233
 C831 C 0.76538 0.76557 0.47786
 C832 C 0.73414 0.73429 0.52236
 O833 O 1.01719 0.27154 0.24815
 O834 O 0.98400 0.24803 0.27150
 O835 O 1.01720 0.24807 0.27154
 O836 O 0.98398 0.27149 0.24810
 O837 O 0.98406 0.25159 0.22818
 O838 O 1.01728 0.22817 0.25162
 O839 O 0.98407 0.22812 0.25158
 O840 O 1.01726 0.25164 0.22822
 Cu841 Cu 1.00059 0.26179 0.26183
 Cu842 Cu 1.00068 0.23787 0.23789
 C843 C 1.02287 0.26553 0.23427
 C844 C 0.97840 0.23413 0.26545
 C845 C 1.02288 0.23419 0.26551
 C846 C 0.97838 0.26546 0.23421
 O847 O 0.51661 0.27147 0.74805
 O848 O 0.48344 0.24805 0.77152
 O849 O 0.51664 0.24804 0.77149
 O850 O 0.48341 0.27148 0.74809
 O851 O 0.48340 0.25154 0.72820
 O852 O 0.51664 0.22811 0.75160
 O853 O 0.48344 0.22811 0.75163
 O854 O 0.51661 0.25154 0.72816
 Cu855 Cu 0.50002 0.26177 0.76180
 Cu856 Cu 0.50002 0.23781 0.73789
 C857 C 0.52224 0.26543 0.73417
 C858 C 0.47780 0.23415 0.76551
 C859 C 0.52229 0.23415 0.76546
 C860 C 0.47776 0.26544 0.73422
 O861 O -0.01697 0.27218 0.75218
 O862 O 0.01624 0.24861 0.72888
 O863 O -0.01696 0.24866 0.72886
 O864 O 0.01624 0.27213 0.75221
 O865 O 0.01620 0.25228 0.77219
 O866 O -0.01699 0.22880 0.74884
 O867 O 0.01621 0.22876 0.74886
 O868 O -0.01700 0.25233 0.77217
 Cu869 Cu -0.00036 0.26240 0.73852
 Cu870 Cu -0.00040 0.23854 0.76253
 C871 C -0.02263 0.26620 0.76608
 C872 C 0.02186 0.23473 0.73496
 C873 C -0.02262 0.23479 0.73494
 C874 C 0.02186 0.26613 0.76611
 O875 O 0.51652 0.25139 0.27148
 O876 O 0.48329 0.22795 0.24814
 O877 O 0.51649 0.22799 0.24803
 O878 O 0.48332 0.25136 0.27159
 O879 O 0.48322 0.27131 0.25171
 O880 O 0.51640 0.24794 0.22815
 O881 O 0.48319 0.24791 0.22826
 O882 O 0.51642 0.27134 0.25160
 Cu883 Cu 0.49991 0.23766 0.26181
 Cu884 Cu 0.49980 0.26164 0.23792
 C885 C 0.52212 0.26530 0.26545
 C886 C 0.47759 0.23400 0.23429
 C887 C 0.52209 0.23405 0.23414
 C888 C 0.47764 0.26525 0.26560
 O889 O 1.01688 0.77165 0.74810
 O890 O 0.98372 0.74821 0.77156
 O891 O 1.01692 0.74821 0.77152
 O892 O 0.98368 0.77165 0.74814
 O893 O 0.98367 0.75173 0.72823
 O894 O 1.01691 0.72829 0.75161
 O895 O 0.98371 0.72829 0.75166
 O896 O 1.01688 0.75173 0.72820
 Cu897 Cu 1.00030 0.76194 0.76184
 Cu898 Cu 1.00029 0.73800 0.73792
 C899 C 1.02252 0.76562 0.73422
 C900 C 0.97808 0.73432 0.76554
 C901 C 1.02256 0.73432 0.76548
 C902 C 0.97803 0.76562 0.73427
 O903 O 0.51669 0.77204 0.24790
 O904 O 0.48345 0.74865 0.27130
 O905 O 0.51665 0.74859 0.27131
 O906 O 0.48349 0.77210 0.24789
 O907 O 0.48348 0.75219 0.22798
 O908 O 0.51664 0.72868 0.25140
 O909 O 0.48344 0.72874 0.25139
 O910 O 0.51668 0.75213 0.22799
 Cu911 Cu 0.50007 0.76236 0.26161
 Cu912 Cu 0.50006 0.73842 0.23768
 C913 C 0.52233 0.76600 0.23402
 C914 C 0.47780 0.73477 0.26527
 C915 C 0.52229 0.73470 0.26528
 C916 C 0.47785 0.76609 0.23401
 O917 O -0.01680 0.77170 0.25159
 O918 O 0.01645 0.74832 0.22816
 O919 O -0.01675 0.74819 0.22825
 O920 O 0.01640 0.77183 0.25151
 O921 O 0.01653 0.75196 0.27147
 O922 O -0.01661 0.72833 0.24822
 O923 O 0.01659 0.72845 0.24813
 O924 O -0.01667 0.75183 0.27156
 Cu925 Cu -0.00019 0.76201 0.23786
 Cu926 Cu -0.00003 0.73814 0.26186
 C927 C -0.02239 0.76568 0.26550
 C928 C 0.02217 0.73447 0.23422
 C929 C -0.02231 0.73430 0.23434
 C930 C 0.02210 0.76585 0.26539
 O931 O 0.48305 0.77197 0.75178
 O932 O 0.51630 0.74845 0.72848
 O933 O 0.48310 0.74853 0.72836
 O934 O 0.51625 0.77187 0.75190
 O935 O 0.51613 0.75194 0.77181
 O936 O 0.48298 0.72860 0.74827
 O937 O 0.51618 0.72852 0.74838
 O938 O 0.48293 0.75204 0.77168
 Cu939 Cu 0.49968 0.76222 0.73812
 Cu940 Cu 0.49955 0.73826 0.76204
 C941 C 0.47734 0.76594 0.76563
 C942 C 0.52189 0.73454 0.73453
 C943 C 0.47741 0.73465 0.73437
 C944 C 0.52183 0.76582 0.76580
 C945 C 0.41361 0.30605 0.30673
 N946 N 0.42027 0.31265 0.29222
 N947 N 0.43313 0.30484 0.28436
 C948 C 0.43973 0.29021 0.29076
 N949 N 0.43308 0.28362 0.30528
 N950 N 0.42022 0.29143 0.31314
 C951 C 0.39946 0.31420 0.31493
 C952 C 0.38742 0.32092 0.32170
 C953 C 0.45326 0.28156 0.28204
 C954 C 0.46448 0.27418 0.27460
 C955 C 0.41316 0.80695 0.80633
 N956 N 0.41929 0.81300 0.79136
 N957 N 0.43219 0.80517 0.78357
 C958 C 0.43934 0.79105 0.79051
 N959 N 0.43322 0.78501 0.80548
 N960 N 0.42032 0.79284 0.81327
 C961 C 0.39898 0.81510 0.81447
 C962 C 0.38692 0.82182 0.82120
 C963 C 0.45291 0.78236 0.78189
 C964 C 0.46415 0.77493 0.77453
 C965 C -0.08682 0.30723 0.80673
 N966 N -0.08068 0.31328 0.79177
 N967 N -0.06777 0.30545 0.78399
 C968 C -0.06063 0.29134 0.79094
 N969 N -0.06676 0.28530 0.80591
 N970 N -0.07966 0.29313 0.81369
 C971 C -0.10102 0.31537 0.81485
 C972 C -0.11310 0.32208 0.82156
 C973 C -0.04705 0.28264 0.78233
 C974 C -0.03581 0.27520 0.77498
 C975 C -0.08653 0.80652 0.30641
 N976 N -0.07992 0.81303 0.29184
 N977 N -0.06704 0.80522 0.28402
 C978 C -0.06038 0.79066 0.29053
 N979 N -0.06697 0.78416 0.30510
 N980 N -0.07986 0.79197 0.31293
 C981 C -0.10070 0.81467 0.31458
 C982 C -0.11275 0.82140 0.32131
 C983 C -0.04681 0.78200 0.28186
 C984 C -0.03557 0.77461 0.27446
 C985 C 0.58629 0.69369 0.30620
 N986 N 0.57969 0.68719 0.29163
 N987 N 0.56683 0.69504 0.28380
 C988 C 0.56019 0.70960 0.29031
 N989 N 0.56678 0.71608 0.30488
 N990 N 0.57964 0.70824 0.31271
 C991 C 0.60044 0.68550 0.31438
 C992 C 0.61247 0.67876 0.32112
 C993 C 0.54665 0.71829 0.28163
 C994 C 0.53544 0.72572 0.27422
 C995 C 0.58641 0.19324 0.80632
 N996 N 0.57960 0.18658 0.79192
 N997 N 0.56672 0.19441 0.78411
 C998 C 0.56026 0.20912 0.79046
 N999 N 0.56705 0.21577 0.80487
 N1000 N 0.57993 0.20794 0.81268
 C1001 C 0.60057 0.18506 0.81447
 C1002 C 0.61262 0.17832 0.82119
 C1003 C 0.54670 0.21779 0.78180
 C1004 C 0.53547 0.22520 0.77440
 C1005 C 1.08670 0.69337 0.80629
 N1006 N 1.07986 0.68672 0.79190
 N1007 N 1.06698 0.69455 0.78410
 C1008 C 1.06054 0.70928 0.79045
 N1009 N 1.06736 0.71592 0.80485
 N1010 N 1.08025 0.70809 0.81265
 C1011 C 1.10087 0.68519 0.81442
 C1012 C 1.11291 0.67844 0.82114
 C1013 C 1.04698 0.71795 0.78180
 C1014 C 1.03575 0.72536 0.77442
 C1015 C 1.08698 0.19328 0.30640
 N1016 N 1.08012 0.18658 0.29205
 N1017 N 1.06724 0.19441 0.28423
 C1018 C 1.06084 0.20917 0.29053
 N1019 N 1.06769 0.21586 0.30490
 N1020 N 1.08057 0.20804 0.31271
 C1021 C 1.10114 0.18510 0.31455
 C1022 C 1.11319 0.17836 0.32128
 C1023 C 1.04729 0.21784 0.28186
 C1024 C 1.03606 0.22525 0.27446
 C1025 C 0.58630 0.30633 0.69327
 N1026 N 0.57939 0.31305 0.70760
 N1027 N 0.56652 0.30522 0.71542
 C1028 C 0.56017 0.29045 0.70913
 N1029 N 0.56706 0.28374 0.69478
 N1030 N 0.57993 0.29157 0.68697
 C1031 C 0.60046 0.31451 0.68513
 C1032 C 0.61250 0.32125 0.67841
 C1033 C 0.54662 0.28178 0.71780
 C1034 C 0.53540 0.27437 0.72521
 C1035 C 0.58655 0.80675 0.19323
 N1036 N 0.58006 0.79208 0.18684
 N1037 N 0.56715 0.78429 0.19463
 C1038 C 0.56035 0.79095 0.20905
 N1039 N 0.56683 0.80563 0.21542
 N1040 N 0.57974 0.81341 0.20763
 C1041 C 0.60076 0.81487 0.18511
 C1042 C 0.61284 0.82157 0.17841
 C1043 C 0.54677 0.78231 0.21770
 C1044 C 0.53552 0.77493 0.22508
 C1045 C 1.08695 0.30656 0.19354
 N1046 N 1.08023 0.31308 0.20805
 N1047 N 1.06736 0.30523 0.21584
 C1048 C 1.06081 0.29063 0.20935
 N1049 N 1.06751 0.28412 0.19482
 N1050 N 1.08039 0.29197 0.18704
 C1051 C 1.10111 0.31475 0.18542
 C1052 C 1.11316 0.32150 0.17871
 C1053 C 1.04726 0.28193 0.21798
 C1054 C 1.03603 0.27451 0.22535
 C1055 C 1.08655 0.80657 0.69333
 N1056 N 1.08027 0.79175 0.68708
 N1057 N 1.06740 0.78391 0.69489
 C1058 C 1.06043 0.79066 0.70918
 N1059 N 1.06671 0.80549 0.71542
 N1060 N 1.07958 0.81333 0.70761
 C1061 C 1.10071 0.81476 0.68519
 C1062 C 1.11275 0.82152 0.67848
 C1063 C 1.04689 0.78198 0.71785
 C1064 C 1.03568 0.77457 0.72526
 C1065 C 0.41340 0.69389 0.69330
 N1066 N 0.42009 0.70843 0.68680
 N1067 N 0.43295 0.71623 0.69465
 C1068 C 0.43951 0.70972 0.70924
 N1069 N 0.43284 0.69516 0.71573
 N1070 N 0.41998 0.68737 0.70788
 C1071 C 0.39925 0.68576 0.68511
 C1072 C 0.38722 0.67904 0.67836
 C1073 C 0.45304 0.71836 0.71794
 C1074 C 0.46425 0.72574 0.72538
 C1075 C 0.41340 0.19318 0.19357
 N1076 N 0.42042 0.20742 0.18675
 N1077 N 0.43332 0.21521 0.19454
 C1078 C 0.43958 0.20900 0.20939
 N1079 N 0.43258 0.19476 0.21620
 N1080 N 0.41968 0.18697 0.20841
 C1081 C 0.39921 0.18507 0.18543
 C1082 C 0.38714 0.17837 0.17872
 C1083 C 0.45316 0.21766 0.21802
 C1084 C 0.46440 0.22506 0.22538
 C1085 C -0.08630 0.69307 0.19370
 N1086 N -0.08013 0.68704 0.20866
 N1087 N -0.06727 0.69491 0.21644
 C1088 C -0.06020 0.70906 0.20949
 N1089 N -0.06635 0.71508 0.19453
 N1090 N -0.07921 0.70721 0.18675
 C1091 C -0.10044 0.68487 0.18557
 C1092 C -0.11247 0.67812 0.17886
 C1093 C -0.04667 0.71780 0.21810
 C1094 C -0.03546 0.72527 0.22545
 C1095 C -0.08659 0.19375 0.69411
 N1096 N -0.07804 0.20653 0.68624
 N1097 N -0.06520 0.21437 0.69408
 C1098 C -0.06052 0.20966 0.71003
 N1099 N -0.06907 0.19687 0.71788
 N1100 N -0.08190 0.18903 0.71004
 C1101 C -0.10070 0.18561 0.68586
 C1102 C -0.11270 0.17888 0.67906
 C1103 C -0.04699 0.21838 0.71865
 C1104 C -0.03578 0.22582 0.72602
 C1105 C 0.30641 0.41355 0.30706
 N1106 N 0.31321 0.42054 0.29281
 N1107 N 0.30541 0.43344 0.28500
 C1108 C 0.29057 0.43974 0.29120
 N1109 N 0.28378 0.43277 0.30547
 N1110 N 0.29158 0.41987 0.31328
 C1111 C 0.31456 0.39936 0.31520
 C1112 C 0.32128 0.38728 0.32190
 C1113 C 0.28192 0.45331 0.28252
 C1114 C 0.27454 0.46455 0.27510
 C1115 C 0.30682 -0.08688 0.80658
 N1116 N 0.31312 -0.08036 0.79188
 N1117 N 0.30525 -0.06746 0.78414
 C1118 C 0.29084 -0.06069 0.79085
 N1119 N 0.28455 -0.06720 0.80556
 N1120 N 0.29242 -0.08010 0.81331
 C1121 C 0.31502 -0.10107 0.81467
 C1122 C 0.32178 -0.11313 0.82135
 C1123 C 0.28211 -0.04712 0.78227
 C1124 C 0.27466 -0.03587 0.77493
 C1125 C 0.80676 0.41326 0.80668
 N1126 N 0.81337 0.42003 0.79223
 N1127 N 0.80555 0.43292 0.78442
 C1128 C 0.79089 0.43943 0.79083
 N1129 N 0.78429 0.43268 0.80529
 N1130 N 0.79211 0.41978 0.81309
 C1131 C 0.81493 0.39908 0.81482
 C1132 C 0.82168 0.38703 0.82154
 C1133 C 0.78222 0.45301 0.78218
 C1134 C 0.77482 0.46425 0.77479
 C1135 C 0.80655 -0.08686 0.30683
 N1136 N 0.81304 -0.08028 0.29224
 N1137 N 0.80524 -0.06739 0.28441
 C1138 C 0.79073 -0.06068 0.29094
 N1139 N 0.78425 -0.06724 0.30554
 N1140 N 0.79205 -0.08013 0.31337
 C1141 C 0.81469 -0.10104 0.31499
 C1142 C 0.82141 -0.11311 0.32172
 C1143 C 0.78208 -0.04711 0.28227
 C1144 C 0.77469 -0.03586 0.27486
 C1145 C 0.30620 0.58656 0.69312
 N1146 N 0.29125 0.58041 0.68706
 N1147 N 0.28346 0.56753 0.69490
 C1148 C 0.29038 0.56040 0.70903
 N1149 N 0.30534 0.56654 0.71507
 N1150 N 0.31313 0.57943 0.70724
 C1151 C 0.31435 0.60074 0.68497
 C1152 C 0.32107 0.61279 0.67825
 C1153 C 0.28175 0.54685 0.71773
 C1154 C 0.27439 0.53562 0.72517
 C1155 C 0.30695 1.08729 0.19350
 N1156 N 0.29257 1.08051 0.18677
 N1157 N 0.28469 1.06763 0.19453
 C1158 C 0.29095 1.06115 0.20926
 N1159 N 0.30534 1.06792 0.21598
 N1160 N 0.31322 1.08079 0.20822
 C1161 C 0.31517 1.10145 0.18539
 C1162 C 0.32194 1.11349 0.17869
 C1163 C 0.28222 1.04760 0.21786
 C1164 C 0.27476 1.03637 0.22520
 C1165 C 0.80686 0.58641 0.19331
 N1166 N 0.79244 0.57965 0.18666
 N1167 N 0.78461 0.56676 0.19446
 C1168 C 0.79098 0.56025 0.20913
 N1169 N 0.80541 0.56700 0.21577
 N1170 N 0.81324 0.57989 0.20797
 C1171 C 0.81502 0.60059 0.18517
 C1172 C 0.82175 0.61265 0.17845
 C1173 C 0.78230 0.54669 0.21777
 C1174 C 0.77488 0.53545 0.22515
 C1175 C 0.80624 1.08641 0.69360
 N1176 N 0.81295 1.07950 0.70794
 N1177 N 0.80512 1.06663 0.71576
 C1178 C 0.79036 1.06027 0.70947
 N1179 N 0.78366 1.06716 0.69512
 N1180 N 0.79148 1.08004 0.68730
 C1181 C 0.81441 1.10057 0.68546
 C1182 C 0.82116 1.11262 0.67875
 C1183 C 0.78169 1.04672 0.71814
 C1184 C 0.77429 1.03549 0.72555
 C1185 C 0.69373 0.58635 0.30629
 N1186 N 0.68654 0.57883 0.29252
 N1187 N 0.69436 0.56596 0.28468
 C1188 C 0.70962 0.56022 0.29039
 N1189 N 0.71681 0.56772 0.30418
 N1190 N 0.70898 0.58059 0.31201
 C1191 C 0.68553 0.60050 0.31445
 C1192 C 0.67876 0.61253 0.32118
 C1193 C 0.71827 0.54667 0.28169
 C1194 C 0.72566 0.53544 0.27427
 C1195 C 0.69328 1.08654 0.80667
 N1196 N 0.70767 1.07968 0.81333
 N1197 N 0.71547 1.06678 0.80551
 C1198 C 0.70911 1.06036 0.79080
 N1199 N 0.69472 1.06721 0.78416
 N1200 N 0.68692 1.08010 0.79197
 C1201 C 0.68514 1.10073 0.81484
 C1202 C 0.67843 1.11279 0.82156
 C1203 C 0.71777 1.04678 0.78214
 C1204 C 0.72516 1.03554 0.77474
 C1205 C 0.19359 0.58670 0.80652
 N1206 N 0.20804 0.57989 0.81311
 N1207 N 0.21583 0.56700 0.80528
 C1208 C 0.20941 0.56052 0.79063
 N1209 N 0.19496 0.56731 0.78404
 N1210 N 0.18717 0.58021 0.79187
 C1211 C 0.18546 0.60088 0.81470
 C1212 C 0.17875 0.61294 0.82144
 C1213 C 0.21805 0.54695 0.78195
 C1214 C 0.22543 0.53570 0.77454
 C1215 C 0.19335 1.08722 0.30620
 N1216 N 0.18692 1.08066 0.29158
 N1217 N 0.19477 1.06781 0.28375
 C1218 C 0.20929 1.06112 0.29030
 N1219 N 0.21571 1.06766 0.30492
 N1220 N 0.20786 1.08052 0.31276
 C1221 C 0.18514 1.10135 0.31438
 C1222 C 0.17837 1.11337 0.32114
 C1223 C 0.21799 1.04758 0.28162
 C1224 C 0.22541 1.03636 0.27421
 C1225 C 0.69364 0.41356 0.69363
 N1226 N 0.68735 0.41989 0.70841
 N1227 N 0.69517 0.43274 0.71626
 C1228 C 0.70952 0.43964 0.70957
 N1229 N 0.71580 0.43332 0.69478
 N1230 N 0.70798 0.42047 0.68693
 C1231 C 0.68548 0.39943 0.68542
 C1232 C 0.67875 0.38741 0.67865
 C1233 C 0.71819 0.45316 0.71826
 C1234 C 0.72560 0.46437 0.72568
 C1235 C 0.69339 -0.08666 0.19391
 N1236 N 0.70756 -0.07958 0.18702
 N1237 N 0.71540 -0.06672 0.19483
 C1238 C 0.70932 -0.06055 0.20977
 N1239 N 0.69514 -0.06762 0.21665
 N1240 N 0.68730 -0.08048 0.20884
 C1241 C 0.68521 -0.10080 0.18573
 C1242 C 0.67846 -0.11282 0.17899
 C1243 C 0.71802 -0.04702 0.21841
 C1244 C 0.72546 -0.03580 0.22579
 C1245 C 0.19340 0.41359 0.19412
 N1246 N 0.18728 0.41979 0.20903
 N1247 N 0.19510 0.43266 0.21683
 C1248 C 0.20928 0.43973 0.20996
 N1249 N 0.21539 0.43354 0.19504
 N1250 N 0.20756 0.42066 0.18724
 C1251 C 0.18524 0.39942 0.18597
 C1252 C 0.17852 0.38738 0.17923
 C1253 C 0.21797 0.45329 0.21859
 C1254 C 0.22538 0.46452 0.22595
 C1255 C 0.19313 -0.08655 0.69407
 N1256 N 0.20728 -0.07945 0.68716
 N1257 N 0.21514 -0.06661 0.69499
 C1258 C 0.20909 -0.06049 0.70997
 N1259 N 0.19494 -0.06758 0.71686
 N1260 N 0.18708 -0.08042 0.70903
 C1261 C 0.18494 -0.10067 0.68587
 C1262 C 0.17819 -0.11267 0.67910
 C1263 C 0.21781 -0.04697 0.71863
 C1264 C 0.22525 -0.03576 0.72602
 C1265 C 0.30623 0.30587 0.41402
 N1266 N 0.31248 0.29106 0.42037
 N1267 N 0.30462 0.28323 0.43322
 C1268 C 0.29029 0.28999 0.44011
 N1269 N 0.28406 0.30481 0.43378
 N1270 N 0.29191 0.31263 0.42093
 C1271 C 0.31442 0.31405 0.39989
 C1272 C 0.32117 0.32080 0.38788
 C1273 C 0.28159 0.28133 0.45364
 C1274 C 0.27415 0.27393 0.46485
 C1275 C 0.30674 0.80645 -0.08667
 N1276 N 0.31316 0.79179 -0.08015
 N1277 N 0.30536 0.78398 -0.06726
 C1278 C 0.29091 0.79059 -0.06050
 N1279 N 0.28449 0.80526 -0.06700
 N1280 N 0.29229 0.81307 -0.07989
 C1281 C 0.31487 0.81461 -0.10084
 C1282 C 0.32158 0.82134 -0.11290
 C1283 C 0.28225 0.78193 -0.04693
 C1284 C 0.27486 0.77455 -0.03569
 C1285 C 0.80657 0.30649 -0.08653
 N1286 N 0.81309 0.29189 -0.07997
 N1287 N 0.80531 0.28403 -0.06710
 C1288 C 0.79077 0.29052 -0.06040
 N1289 N 0.78426 0.30513 -0.06695
 N1290 N 0.79204 0.31300 -0.07981
 C1291 C 0.81469 0.31471 -0.10068
 C1292 C 0.82140 0.32148 -0.11271
 C1293 C 0.78215 0.28181 -0.04686
 C1294 C 0.77478 0.27437 -0.03563
 C1295 C 0.80618 0.80648 0.41373
 N1296 N 0.79166 0.81303 0.42042
 N1297 N 0.78386 0.80520 0.43330
 C1298 C 0.79035 0.79060 0.43989
 N1299 N 0.80488 0.78407 0.43321
 N1300 N 0.81268 0.79189 0.42032
 C1301 C 0.81432 0.81465 0.39956
 C1302 C 0.82104 0.82139 0.38752
 C1303 C 0.78170 0.78193 0.45344
 C1304 C 0.77432 0.77452 0.46468
 C1305 C 0.69364 0.30655 0.58601
 N1306 N 0.68711 0.29203 0.57931
 N1307 N 0.69493 0.28423 0.56643
 C1308 C 0.70953 0.29071 0.55985
 N1309 N 0.71605 0.30524 0.56653
 N1310 N 0.70822 0.31304 0.57942
 C1311 C 0.68548 0.31469 0.60018
 C1312 C 0.67874 0.32140 0.61223
 C1313 C 0.71820 0.28205 0.54630
 C1314 C 0.72562 0.27465 0.53508
 C1315 C 0.69329 0.80613 1.08652
 N1316 N 0.68713 0.79125 1.08027
 N1317 N 0.69496 0.78344 1.06740
 C1318 C 0.70919 0.79028 1.06038
 N1319 N 0.71533 0.80517 1.06662
 N1320 N 0.70750 0.81298 1.07949
 C1321 C 0.68512 0.81430 1.10068
 C1322 C 0.67839 0.82104 1.11272
 C1323 C 0.71788 0.78163 1.04684
 C1324 C 0.72531 0.77425 1.03561
 C1325 C 0.19350 0.30647 1.08666
 N1326 N 0.20789 0.31317 1.07986
 N1327 N 0.21572 0.30538 1.06697
 C1328 C 0.20940 0.29067 1.06050
 N1329 N 0.19500 0.28399 1.06729
 N1330 N 0.18717 0.29177 1.08018
 C1331 C 0.18533 0.31460 1.10084
 C1332 C 0.17859 0.32130 1.11290
 C1333 C 0.21809 0.28204 1.04694
 C1334 C 0.22551 0.27466 1.03571
 C1335 C 0.19291 0.80679 0.58620
 N1336 N 0.18657 0.79211 0.57966
 N1337 N 0.19440 0.78438 0.56674
 C1338 C 0.20881 0.79108 0.55997
 N1339 N 0.21514 0.80576 0.56650
 N1340 N 0.20731 0.81350 0.57942
 C1341 C 0.18476 0.81486 0.60042
 C1342 C 0.17804 0.82151 0.61251
 C1343 C 0.21750 0.78250 0.54639
 C1344 C 0.22493 0.77516 0.53514
 C1345 C 0.30617 0.69408 0.58595
 N1346 N 0.29170 0.68750 0.57922
 N1347 N 0.28388 0.69533 0.56636
 C1348 C 0.29030 0.70998 0.55983
 N1349 N 0.30478 0.71656 0.56655
 N1350 N 0.31260 0.70872 0.57942
 C1351 C 0.31433 0.68590 0.60011
 C1352 C 0.32105 0.67915 0.61214
 C1353 C 0.28163 0.71867 0.54629
 C1354 C 0.27422 0.72608 0.53507
 C1355 C 0.30689 0.19383 1.08666
 N1356 N 0.31302 0.20871 1.08040
 N1357 N 0.30519 0.21650 1.06751
 C1358 C 0.29099 0.20964 1.06050
 N1359 N 0.28486 0.19474 1.06675
 N1360 N 0.29269 0.18695 1.07963
 C1361 C 0.31505 0.18568 1.10083
 C1362 C 0.32176 0.17895 1.11288
 C1363 C 0.28229 0.21826 1.04694
 C1364 C 0.27485 0.22563 1.03571
 C1365 C 0.80649 0.69310 1.08647
 N1366 N 0.79217 0.68639 1.07956
 N1367 N 0.78436 0.69424 1.06669
 C1368 C 0.79065 0.70902 1.06035
 N1369 N 0.80498 0.71572 1.06725
 N1370 N 0.81279 0.70788 1.08012
 C1371 C 0.81463 0.68491 1.10063
 C1372 C 0.82135 0.67815 1.11267
 C1373 C 0.78198 0.71771 1.04681
 C1374 C 0.77459 0.72512 1.03559
 C1375 C 0.80671 0.19371 0.58622
 N1376 N 0.79259 0.18681 0.57907
 N1377 N 0.78482 0.19461 0.56616
 C1378 C 0.79093 0.20955 0.56000
 N1379 N 0.80505 0.21644 0.56713
 N1380 N 0.81283 0.20864 0.58005
 C1381 C 0.81480 0.18556 0.60042
 C1382 C 0.82147 0.17884 0.61250
 C1383 C 0.78228 0.21819 0.54642
 C1384 C 0.77489 0.22556 0.53517
 C1385 C 0.69328 0.69353 0.41373
 N1386 N 0.68717 0.70848 0.41989
 N1387 N 0.69496 0.71628 0.43278
 C1388 C 0.70910 0.70937 0.43991
 N1389 N 0.71520 0.69441 0.43377
 N1390 N 0.70741 0.68661 0.42087
 C1391 C 0.68517 0.68538 0.39955
 C1392 C 0.67849 0.67866 0.38748
 C1393 C 0.71775 0.71801 0.45347
 C1394 C 0.72515 0.72539 0.46471
 C1395 C 0.69373 0.19321 -0.08650
 N1396 N 0.70806 0.18648 -0.07959
 N1397 N 0.71588 0.19431 -0.06673
 C1398 C 0.70959 0.20910 -0.06038
 N1399 N 0.69525 0.21582 -0.06727
 N1400 N 0.68744 0.20800 -0.08014
 C1401 C 0.68558 0.18504 -0.10065
 C1402 C 0.67886 0.17830 -0.11268
 C1403 C 0.71825 0.21777 -0.04684
 C1404 C 0.72566 0.22516 -0.03562
 C1405 C 0.19399 0.69325 -0.08651
 N1406 N 0.20867 0.68687 -0.08001
 N1407 N 0.21646 0.69471 -0.06714
 C1408 C 0.20981 0.70915 -0.06038
 N1409 N 0.19512 0.71552 -0.06687
 N1410 N 0.18733 0.70768 -0.07974
 C1411 C 0.18586 0.68507 -0.10067
 C1412 C 0.17914 0.67834 -0.11271
 C1413 C 0.21844 0.71785 -0.04684
 C1414 C 0.22581 0.72528 -0.03562
 C1415 C 0.19311 0.19318 0.41366
 N1416 N 0.20744 0.18642 0.42055
 N1417 N 0.21521 0.19418 0.43348
 C1418 C 0.20889 0.20892 0.43992
 N1419 N 0.19455 0.21566 0.43304
 N1420 N 0.18678 0.20791 0.42011
 C1421 C 0.18501 0.18509 0.39943
 C1422 C 0.17834 0.17843 0.38733
 C1423 C 0.21753 0.21752 0.45351
 C1424 C 0.22491 0.22488 0.46477
 C1425 C 0.30624 0.41371 0.69334
 N1426 N 0.31295 0.42056 0.70769
 N1427 N 0.30516 0.43347 0.71550
 C1428 C 0.29043 0.43991 0.70920
 N1429 N 0.28373 0.43307 0.69483
 N1430 N 0.29152 0.42016 0.68702
 C1431 C 0.31438 0.39951 0.68520
 C1432 C 0.32109 0.38744 0.67849
 C1433 C 0.28179 0.45349 0.71787
 C1434 C 0.27442 0.46474 0.72528
 C1435 C 0.30647 0.91451 0.19304
 N1436 N 0.31318 0.92137 0.20739
 N1437 N 0.30538 0.93427 0.21521
 C1438 C 0.29063 0.94069 0.20892
 N1439 N 0.28393 0.93384 0.19456
 N1440 N 0.29173 0.92094 0.18674
 C1441 C 0.31462 0.90033 0.18489
 C1442 C 0.32135 0.88827 0.17817
 C1443 C 0.28198 0.95425 0.21760
 C1444 C 0.27459 0.96549 0.22501
 C1445 C 0.80678 0.41360 0.19315
 N1446 N 0.81355 0.42058 0.20741
 N1447 N 0.80572 0.43347 0.21521
 C1448 C 0.79089 0.43977 0.20898
 N1449 N 0.78413 0.43280 0.19470
 N1450 N 0.79196 0.41991 0.18690
 C1451 C 0.81496 0.39942 0.18502
 C1452 C 0.82171 0.38736 0.17831
 C1453 C 0.78221 0.45333 0.21764
 C1454 C 0.77481 0.46457 0.22504
 C1455 C 0.80629 0.91370 0.69363
 N1456 N 0.81288 0.92044 0.70809
 N1457 N 0.80505 0.93332 0.71591
 C1458 C 0.79039 0.93984 0.70950
 N1459 N 0.78381 0.93311 0.69503
 N1460 N 0.79164 0.92024 0.68721
 C1461 C 0.81447 0.89954 0.68546
 C1462 C 0.82121 0.88750 0.67873
 C1463 C 0.78172 0.95340 0.71817
 C1464 C 0.77431 0.96463 0.72558
 C1465 C 0.69357 0.58620 0.69393
 N1466 N 0.68721 0.57970 0.70862
 N1467 N 0.69505 0.56682 0.71641
 C1468 C 0.70949 0.56004 0.70977
 N1469 N 0.71583 0.56653 0.69507
 N1470 N 0.70799 0.57941 0.68727
 C1471 C 0.68538 0.60036 0.68578
 C1472 C 0.67862 0.61241 0.67905
 C1473 C 0.71818 0.54648 0.71840
 C1474 C 0.72560 0.53523 0.72578
 C1475 C 0.69364 0.08597 0.19363
 N1476 N 0.70779 0.07882 0.18676
 N1477 N 0.71560 0.06595 0.19461
 C1478 C 0.70951 0.05984 0.20957
 N1479 N 0.69535 0.06698 0.21643
 N1480 N 0.68754 0.07985 0.20858
 C1481 C 0.68550 0.10012 0.18542
 C1482 C 0.67877 0.11216 0.17865
 C1483 C 0.71818 0.04629 0.21825
 C1484 C 0.72558 0.03506 0.22566
 C1485 C 0.19367 0.58630 0.19360
 N1486 N 0.18713 0.57971 0.20816
 N1487 N 0.19492 0.56684 0.21602
 C1488 C 0.20949 0.56016 0.20956
 N1489 N 0.21601 0.56674 0.19499
 N1490 N 0.20822 0.57961 0.18712
 C1491 C 0.18553 0.60046 0.18539
 C1492 C 0.17881 0.61251 0.17862
 C1493 C 0.21813 0.54661 0.21827
 C1494 C 0.22550 0.53539 0.22571
 C1495 C 0.19312 0.08602 0.69427
 N1496 N 0.20720 0.07882 0.68731
 N1497 N 0.21504 0.06595 0.69512
 C1498 C 0.20905 0.05988 0.71013
 N1499 N 0.19496 0.06706 0.71709
 N1500 N 0.18712 0.07994 0.70928
 C1501 C 0.18495 0.10017 0.68610
 C1502 C 0.17821 0.11221 0.67935
 C1503 C 0.21775 0.04632 0.71877
 C1504 C 0.22519 0.03508 0.72613
 C1505 C 0.30654 0.58648 0.30661
 N1506 N 0.31308 0.57976 0.29211
 N1507 N 0.30527 0.56685 0.28435
 C1508 C 0.29069 0.56027 0.29085
 N1509 N 0.28416 0.56698 0.30536
 N1510 N 0.29197 0.57989 0.31312
 C1511 C 0.31468 0.60069 0.31470
 C1512 C 0.32139 0.61277 0.32138
 C1513 C 0.28203 0.54669 0.28224
 C1514 C 0.27463 0.53543 0.27488
 C1515 C 0.30653 0.08595 0.80691
 N1516 N 0.29194 0.07938 0.81340
 N1517 N 0.28412 0.06649 0.80561
 C1518 C 0.29065 0.05980 0.79109
 N1519 N 0.30525 0.06636 0.78461
 N1520 N 0.31307 0.07924 0.79240
 C1521 C 0.31470 0.10013 0.81504
 C1522 C 0.32143 0.11219 0.82173
 C1523 C 0.28198 0.04624 0.78245
 C1524 C 0.27456 0.03501 0.77507
 C1525 C 0.80682 0.58604 0.80671
 N1526 N 0.81335 0.57934 0.79219
 N1527 N 0.80552 0.56646 0.78440
 C1528 C 0.79093 0.55990 0.79088
 N1529 N 0.78441 0.56659 0.80541
 N1530 N 0.79224 0.57947 0.81320
 C1531 C 0.81499 0.60021 0.81484
 C1532 C 0.82173 0.61227 0.82154
 C1533 C 0.78225 0.54635 0.78224
 C1534 C 0.77483 0.53513 0.77485
 C1535 C 0.80691 0.08594 0.30648
 N1536 N 0.79248 0.07919 0.31314
 N1537 N 0.78463 0.06631 0.30537
 C1538 C 0.79098 0.05979 0.29069
 N1539 N 0.80542 0.06652 0.28404
 N1540 N 0.81327 0.07940 0.29181
 C1541 C 0.81509 0.10011 0.31459
 C1542 C 0.82184 0.11216 0.32129
 C1543 C 0.78227 0.04624 0.28208
 C1544 C 0.77484 0.03501 0.27472
 C1545 C 0.69354 0.41362 0.30594
 N1546 N 0.68737 0.41991 0.29109
 N1547 N 0.69521 0.43279 0.28329
 C1548 C 0.70944 0.43977 0.29012
 N1549 N 0.71560 0.43350 0.30498
 N1550 N 0.70776 0.42062 0.31278
 C1551 C 0.68537 0.39945 0.31409
 C1552 C 0.67864 0.38741 0.32082
 C1553 C 0.71814 0.45333 0.28149
 C1554 C 0.72557 0.46457 0.27412
 C1555 C 0.69324 0.91374 0.80674
 N1556 N 0.68676 0.92034 0.79215
 N1557 N 0.69457 0.93322 0.78433
 C1558 C 0.70910 0.93989 0.79085
 N1559 N 0.71557 0.93330 0.80545
 N1560 N 0.70776 0.92042 0.81327
 C1561 C 0.68508 0.89958 0.81490
 C1562 C 0.67836 0.88753 0.82164
 C1563 C 0.71776 0.95344 0.78218
 C1564 C 0.72516 0.96466 0.77477
 C1565 C 0.19365 0.41394 0.80677
 N1566 N 0.20929 0.41912 0.81193
 N1567 N 0.21710 0.43198 0.80408
 C1568 C 0.20950 0.44005 0.79084
 N1569 N 0.19385 0.43489 0.78569
 N1570 N 0.18604 0.42202 0.79354
 C1571 C 0.18545 0.39980 0.81493
 C1572 C 0.17868 0.38777 0.82166
 C1573 C 0.21811 0.45360 0.78210
 C1574 C 0.22547 0.46482 0.77465
 C1575 C 0.19325 0.91457 0.30589
 N1576 N 0.20739 0.92168 0.31280
 N1577 N 0.21522 0.93455 0.30499
 C1578 C 0.20915 0.94071 0.29004
 N1579 N 0.19501 0.93362 0.28315
 N1580 N 0.18717 0.92075 0.29095
 C1581 C 0.18508 0.90041 0.31406
 C1582 C 0.17836 0.88837 0.32080
 C1583 C 0.21785 0.95427 0.28141
 C1584 C 0.22529 0.96550 0.27404
 C1585 C 0.41359 0.30632 0.69341
 N1586 N 0.41999 0.31264 0.70815
 N1587 N 0.43288 0.30483 0.71595
 C1588 C 0.43977 0.29046 0.70926
 N1589 N 0.43338 0.28415 0.69451
 N1590 N 0.42048 0.29196 0.68671
 C1591 C 0.39940 0.31446 0.68527
 C1592 C 0.38734 0.32117 0.67855
 C1593 C 0.45333 0.28179 0.71790
 C1594 C 0.46457 0.27439 0.72529
 C1595 C 0.41380 0.80711 0.19315
 N1596 N 0.42006 0.81330 0.20800
 N1597 N 0.43293 0.80546 0.21582
 C1598 C 0.43993 0.79120 0.20902
 N1599 N 0.43368 0.78502 0.19416
 N1600 N 0.42081 0.79286 0.18634
 C1601 C 0.39964 0.81527 0.18499
 C1602 C 0.38760 0.82201 0.17825
 C1603 C 0.45347 0.78250 0.21768
 C1604 C 0.46469 0.77507 0.22507
 C1605 C 0.91424 0.30629 0.19331
 N1606 N 0.92062 0.31262 0.20805
 N1607 N 0.93350 0.30482 0.21587
 C1608 C 0.94040 0.29045 0.20919
 N1609 N 0.93403 0.28413 0.19444
 N1610 N 0.92114 0.29193 0.18662
 C1611 C 0.90006 0.31443 0.18514
 C1612 C 0.88800 0.32114 0.17840
 C1613 C 0.95396 0.28180 0.21786
 C1614 C 0.96520 0.27440 0.22526
 C1615 C 0.91383 0.80649 0.69349
 N1616 N 0.92027 0.81284 0.70819
 N1617 N 0.93317 0.80504 0.71598
 C1618 C 0.94002 0.79064 0.70931
 N1619 N 0.93359 0.78430 0.69460
 N1620 N 0.92069 0.79210 0.68681
 C1621 C 0.89964 0.81463 0.68534
 C1622 C 0.88757 0.82134 0.67863
 C1623 C 0.95359 0.78197 0.71796
 C1624 C 0.96484 0.77457 0.72534
 C1625 C 0.58625 0.30624 0.30615
 N1626 N 0.57943 0.31285 0.29172
 N1627 N 0.56655 0.30502 0.28394
 C1628 C 0.56010 0.29033 0.29035
 N1629 N 0.56689 0.28373 0.30479
 N1630 N 0.57978 0.29156 0.31257
 C1631 C 0.60041 0.31442 0.31426
 C1632 C 0.61246 0.32116 0.32096
 C1633 C 0.54654 0.28166 0.28173
 C1634 C 0.53530 0.27425 0.27436
 C1635 C 0.58589 0.80653 0.80682
 N1636 N 0.57892 0.81337 0.79257
 N1637 N 0.56604 0.80558 0.78474
 C1638 C 0.55975 0.79073 0.79092
 N1639 N 0.56670 0.78390 0.80518
 N1640 N 0.57958 0.79169 0.81301
 C1641 C 0.60006 0.81467 0.81498
 C1642 C 0.61211 0.82138 0.82170
 C1643 C 0.54620 0.78210 0.78222
 C1644 C 0.53498 0.77473 0.77479
 C1645 C 0.08602 0.30696 0.80687
 N1646 N 0.07964 0.31327 0.79212
 N1647 N 0.06674 0.30548 0.78432
 C1648 C 0.05984 0.29114 0.79104
 N1649 N 0.06621 0.28484 0.80580
 N1650 N 0.07911 0.29263 0.81360
 C1651 C 0.10021 0.31507 0.81501
 C1652 C 0.11228 0.32176 0.82173
 C1653 C 0.04628 0.28249 0.78240
 C1654 C 0.03504 0.27509 0.77502
 C1655 C 0.08607 0.80709 0.30603
 N1656 N 0.07961 0.81336 0.29130
 N1657 N 0.06676 0.80548 0.28352
 C1658 C 0.05998 0.79109 0.29024
 N1659 N 0.06642 0.78482 0.30499
 N1660 N 0.07927 0.79271 0.31277
 C1661 C 0.10020 0.81531 0.31416
 C1662 C 0.11223 0.82208 0.32087
 C1663 C 0.04645 0.78235 0.28162
 C1664 C 0.03525 0.77488 0.27427
 C1665 C 0.58606 0.69352 0.69384
 N1666 N 0.57963 0.68722 0.70857
 N1667 N 0.56674 0.69506 0.71636
 C1668 C 0.55989 0.70943 0.70964
 N1669 N 0.56631 0.71572 0.69490
 N1670 N 0.57920 0.70788 0.68711
 C1671 C 0.60024 0.68534 0.68570
 C1672 C 0.61229 0.67860 0.67899
 C1673 C 0.54632 0.71813 0.71827
 C1674 C 0.53508 0.72556 0.72563
 C1675 C 0.58623 0.19327 0.19317
 N1676 N 0.57891 0.18621 0.20713
 N1677 N 0.56601 0.19401 0.21494
 C1678 C 0.56005 0.20912 0.20903
 N1679 N 0.56736 0.21618 0.19507
 N1680 N 0.58025 0.20837 0.18726
 C1681 C 0.60041 0.18511 0.18504
 C1682 C 0.61248 0.17837 0.17835
 C1683 C 0.54649 0.21776 0.21773
 C1684 C 0.53526 0.22513 0.22515
 C1685 C 0.08633 0.69365 0.19332
 N1686 N 0.07936 0.68686 0.20758
 N1687 N 0.06647 0.69467 0.21540
 C1688 C 0.06016 0.70950 0.20918
 N1689 N 0.06711 0.71629 0.19491
 N1690 N 0.08000 0.70848 0.18709
 C1691 C 0.10050 0.68549 0.18517
 C1692 C 0.11256 0.67875 0.17845
 C1693 C 0.04660 0.71815 0.21786
 C1694 C 0.03536 0.72554 0.22527
 C1695 C 0.08586 0.19355 0.69417
 N1696 N 0.07929 0.18714 0.70880
 N1697 N 0.06644 0.19502 0.71661
 C1698 C 0.05977 0.20954 0.71002
 N1699 N 0.06633 0.21594 0.69539
 N1700 N 0.07919 0.20806 0.68758
 C1701 C 0.10000 0.18533 0.68602
 C1702 C 0.11202 0.17855 0.67929
 C1703 C 0.04624 0.21827 0.71867
 C1704 C 0.03502 0.22572 0.72605
 C1705 C 0.41371 0.69392 0.30616
 N1706 N 0.42002 0.68767 0.29135
 N1707 N 0.43289 0.69548 0.28352
 C1708 C 0.43984 0.70977 0.29027
 N1709 N 0.43354 0.71602 0.30509
 N1710 N 0.42067 0.70821 0.31292
 C1711 C 0.39955 0.68578 0.31434
 C1712 C 0.38751 0.67907 0.32109
 C1713 C 0.45339 0.71844 0.28161
 C1714 C 0.46462 0.72583 0.27421
 C1715 C 0.41380 0.19327 0.80651
 N1716 N 0.42076 0.20756 0.81326
 N1717 N 0.43362 0.21537 0.80541
 C1718 C 0.43990 0.20913 0.79058
 N1719 N 0.43295 0.19483 0.78385
 N1720 N 0.42009 0.18702 0.79169
 C1721 C 0.39965 0.18512 0.81471
 C1722 C 0.38762 0.17841 0.82148
 C1723 C 0.45343 0.21780 0.78190
 C1724 C 0.46465 0.22520 0.77448
 C1725 C 0.91406 0.69342 0.80650
 N1726 N 0.92089 0.70782 0.81315
 N1727 N 0.93375 0.71564 0.80532
 C1728 C 0.94017 0.70929 0.79060
 N1729 N 0.93335 0.69488 0.78395
 N1730 N 0.92049 0.68706 0.79179
 C1731 C 0.89991 0.68526 0.81469
 C1732 C 0.88787 0.67853 0.82143
 C1733 C 0.95370 0.71797 0.78191
 C1734 C 0.96492 0.72537 0.77450
 C1735 C 0.91431 0.19318 0.30625
 N1736 N 0.92139 0.20735 0.31312
 N1737 N 0.93427 0.21517 0.30531
 C1738 C 0.94045 0.20905 0.29040
 N1739 N 0.93338 0.19487 0.28353
 N1740 N 0.92051 0.18705 0.29134
 C1741 C 0.90014 0.18503 0.31441
 C1742 C 0.88810 0.17832 0.32115
 C1743 C 0.95400 0.21774 0.28175
 C1744 C 0.96523 0.22516 0.27437
 C1745 C 0.30604 0.30595 0.58644
 N1746 N 0.31232 0.29115 0.58011
 N1747 N 0.30449 0.28330 0.56727
 C1748 C 0.29015 0.29002 0.56037
 N1749 N 0.28388 0.30483 0.56669
 N1750 N 0.29171 0.31268 0.57953
 C1751 C 0.31421 0.31417 0.60055
 C1752 C 0.32096 0.32094 0.61255
 C1753 C 0.28147 0.28134 0.54685
 C1754 C 0.27407 0.27393 0.53563
 C1755 C 0.30652 0.80689 0.08596
 N1756 N 0.31314 0.79238 0.07930
 N1757 N 0.30535 0.78451 0.06645
 C1758 C 0.29073 0.79091 0.05986
 N1759 N 0.28413 0.80543 0.06650
 N1760 N 0.29191 0.81331 0.07935
 C1761 C 0.31465 0.81511 0.10009
 C1762 C 0.32137 0.82188 0.11211
 C1763 C 0.28211 0.78218 0.04633
 C1764 C 0.27474 0.77473 0.03512
 C1765 C 0.80687 0.30611 0.08606
 N1766 N 0.81319 0.29137 0.07963
 N1767 N 0.80536 0.28357 0.06677
 C1768 C 0.79097 0.29027 0.05994
 N1769 N 0.78467 0.30502 0.06636
 N1770 N 0.79249 0.31283 0.07923
 C1771 C 0.81504 0.31427 0.10021
 C1772 C 0.82177 0.32101 0.11224
 C1773 C 0.78229 0.28163 0.04640
 C1774 C 0.77488 0.27425 0.03518
 C1775 C 0.80637 0.80636 0.58637
 N1776 N 0.81276 0.79168 0.57987
 N1777 N 0.80493 0.78387 0.56700
 C1778 C 0.79048 0.79051 0.56025
 N1779 N 0.78410 0.80520 0.56674
 N1780 N 0.79193 0.81300 0.57961
 C1781 C 0.81453 0.81452 0.60052
 C1782 C 0.82127 0.82125 0.61255
 C1783 C 0.78180 0.78185 0.54671
 C1784 C 0.77439 0.77447 0.53549
 C1785 C 0.30636 0.69427 0.41342
 N1786 N 0.29220 0.68739 0.42052
 N1787 N 0.28437 0.69522 0.43338
 C1788 C 0.29045 0.71018 0.43952
 N1789 N 0.30462 0.71705 0.43243
 N1790 N 0.31245 0.70921 0.41957
 C1791 C 0.31453 0.68607 0.39928
 C1792 C 0.32127 0.67930 0.38727
 C1793 C 0.28176 0.71884 0.45306
 C1794 C 0.27433 0.72622 0.46428
 C1795 C 0.30666 0.19352 0.91398
 N1796 N 0.29236 0.18679 0.92094
 N1797 N 0.28456 0.19463 0.93381
 C1798 C 0.29083 0.20944 0.94011
 N1799 N 0.30514 0.21616 0.93317
 N1800 N 0.31294 0.20832 0.92030
 C1801 C 0.31480 0.18532 0.89982
 C1802 C 0.32151 0.17856 0.88779
 C1803 C 0.28217 0.21812 0.95366
 C1804 C 0.27477 0.22553 0.96489
 C1805 C 0.80675 0.69342 0.91387
 N1806 N 0.81313 0.70806 0.92042
 N1807 N 0.80529 0.71586 0.93330
 C1808 C 0.79081 0.70924 0.94000
 N1809 N 0.78444 0.69458 0.93346
 N1810 N 0.79229 0.68679 0.92059
 C1811 C 0.81494 0.68528 0.89971
 C1812 C 0.82168 0.67855 0.88767
 C1813 C 0.78211 0.71788 0.95355
 C1814 C 0.77468 0.72525 0.96478
 C1815 C 0.80696 0.19347 0.41351
 N1816 N 0.79269 0.18670 0.42048
 N1817 N 0.78485 0.19454 0.43333
 C1818 C 0.79106 0.20938 0.43961
 N1819 N 0.80535 0.21615 0.43265
 N1820 N 0.81318 0.20831 0.41980
 C1821 C 0.81513 0.18528 0.39937
 C1822 C 0.82186 0.17852 0.38734
 C1823 C 0.78237 0.21806 0.45314
 C1824 C 0.77494 0.22546 0.46435
 C1825 C 0.69362 0.30639 0.41332
 N1826 N 0.70805 0.31305 0.42006
 N1827 N 0.71589 0.30526 0.43295
 C1828 C 0.70953 0.29058 0.43947
 N1829 N 0.69509 0.28394 0.43274
 N1830 N 0.68725 0.29173 0.41986
 C1831 C 0.68544 0.31453 0.39916
 C1832 C 0.67869 0.32124 0.38711
 C1833 C 0.71823 0.28195 0.45303
 C1834 C 0.72565 0.27458 0.46426
 C1835 C 0.69333 0.80630 0.91396
 N1836 N 0.68701 0.79158 0.92040
 N1837 N 0.69485 0.78375 0.93326
 C1838 C 0.70925 0.79042 0.94006
 N1839 N 0.71556 0.80515 0.93363
 N1840 N 0.70772 0.81298 0.92077
 C1841 C 0.68515 0.81448 0.89982
 C1842 C 0.67841 0.82123 0.88779
 C1843 C 0.71794 0.78175 0.95360
 C1844 C 0.72536 0.77435 0.96481
 C1845 C 0.19342 0.30653 0.91401
 N1846 N 0.20740 0.31356 0.92130
 N1847 N 0.21523 0.30573 0.93417
 C1848 C 0.20931 0.29063 0.94013
 N1849 N 0.19532 0.28361 0.93286
 N1850 N 0.18749 0.29144 0.91999
 C1851 C 0.18527 0.31472 0.89986
 C1852 C 0.17855 0.32148 0.88783
 C1853 C 0.21801 0.28198 0.95367
 C1854 C 0.22544 0.27460 0.96490
 C1855 C 0.19319 0.80734 0.41336
 N1856 N 0.20771 0.81387 0.42004
 N1857 N 0.21551 0.80604 0.43292
 C1858 C 0.20902 0.79145 0.43951
 N1859 N 0.19449 0.78494 0.43285
 N1860 N 0.18669 0.79276 0.41996
 C1861 C 0.18506 0.81551 0.39918
 C1862 C 0.17834 0.82223 0.38713
 C1863 C 0.21767 0.78277 0.45307
 C1864 C 0.22506 0.77536 0.46430
 C1865 C 0.69332 0.69344 0.58651
 N1866 N 0.68697 0.70818 0.58008
 N1867 N 0.69477 0.71599 0.56719
 C1868 C 0.70915 0.70929 0.56034
 N1869 N 0.71548 0.69455 0.56675
 N1870 N 0.70768 0.68674 0.57965
 C1871 C 0.68518 0.68529 0.60069
 C1872 C 0.67847 0.67857 0.61275
 C1873 C 0.71781 0.71795 0.54677
 C1874 C 0.72520 0.72534 0.53554
 C1875 C 0.69378 0.19313 0.08610
 N1876 N 0.70851 0.18678 0.07968
 N1877 N 0.71634 0.19459 0.06681
 C1878 C 0.70967 0.20898 0.05996
 N1879 N 0.69493 0.21533 0.06637
 N1880 N 0.68711 0.20752 0.07924
 C1881 C 0.68560 0.18498 0.10026
 C1882 C 0.67885 0.17827 0.11230
 C1883 C 0.71834 0.21765 0.04642
 C1884 C 0.72574 0.22506 0.03519
 C1885 C 0.19376 0.69355 0.08612
 N1886 N 0.20820 0.68691 0.07936
 N1887 N 0.21602 0.69472 0.06648
 C1888 C 0.20963 0.70940 0.05998
 N1889 N 0.19518 0.71603 0.06673
 N1890 N 0.18736 0.70823 0.07961
 C1891 C 0.18559 0.68540 0.10029
 C1892 C 0.17886 0.67868 0.11233
 C1893 C 0.21830 0.71805 0.04642
 C1894 C 0.22571 0.72544 0.03519
 C1895 C 0.19289 0.19306 0.58663
 N1896 N 0.20714 0.18623 0.57965
 N1897 N 0.21495 0.19402 0.56674
 C1898 C 0.20873 0.20886 0.56044
 N1899 N 0.19447 0.21567 0.56741
 N1900 N 0.18667 0.20789 0.58031
 C1901 C 0.18476 0.18493 0.60083
 C1902 C 0.17806 0.17823 0.61291
 C1903 C 0.21741 0.21749 0.54687
 C1904 C 0.22482 0.22486 0.53563
   
