data_POSCAR
  _audit_creation_date              2014-09-24
  _audit_creation_method            'ToBaCCo'
  _symmetry_space_group_name_H-M    'P1'
  _symmetry_Int_Tables_number       1
  _symmetry_cell_setting            triclinic
  loop_
  _symmetry_equiv_pos_as_xyz
 x,y,z
_cell_length_a 52.8152
_cell_length_b 54.5323
_cell_length_c 51.8150
_cell_angle_alpha 89.938300
_cell_angle_beta 89.916400
_cell_angle_gamma 90.105500
loop_
  _atom_site_label
  _atom_site_type_symbol
  _atom_site_fract_x
  _atom_site_fract_y
  _atom_site_fract_z
O1 O 0.33132 0.36272 0.02518
 O2 O 0.36387 0.32779 -0.02529
 O3 O 0.33054 0.36270 -0.02472
 O4 O 0.36468 0.32792 0.02471
 O5 O 0.33430 0.30013 0.02544
 O6 O 0.29967 0.33548 -0.02422
 O7 O 0.33335 0.30014 -0.02492
 O8 O 0.30056 0.33532 0.02603
 Cu9 Cu 0.35065 0.34799 -0.00011
 Cu10 Cu 0.31388 0.31497 0.00062
 C11 C 0.31032 0.35519 0.03416
 C12 C 0.35438 0.30793 -0.03367
 C13 C 0.30914 0.35536 -0.03282
 C14 C 0.35552 0.30806 0.03350
 O15 O 0.66925 0.63655 0.02512
 O16 O 0.63572 0.67086 -0.02514
 O17 O 0.66882 0.63576 -0.02477
 O18 O 0.63608 0.67154 0.02488
 O19 O 0.66665 0.69914 0.02424
 O20 O 0.69982 0.66284 -0.02571
 O21 O 0.66636 0.69838 -0.02609
 O22 O 0.70020 0.66375 0.02456
 Cu23 Cu 0.64940 0.65099 0.00009
 Cu24 Cu 0.68636 0.68381 -0.00084
 C25 C 0.69051 0.64407 0.03334
 C26 C 0.64512 0.69054 -0.03415
 C27 C 0.69003 0.64288 -0.03364
 C28 C 0.64558 0.69148 0.03302
 O29 O 0.66999 0.35770 0.97483
 O30 O 0.63892 0.32526 1.02807
 O31 O 0.67201 0.36003 1.02475
 O32 O 0.63680 0.32233 0.97858
 O33 O 0.66781 0.29527 0.97784
 O34 O 0.70274 0.33277 1.02552
 O35 O 0.66914 0.29739 1.02802
 O36 O 0.70126 0.33098 0.97521
 Cu37 Cu 0.65142 0.34408 1.00142
 Cu38 Cu 0.68839 0.31137 1.00161
 C39 C 0.69109 0.35026 0.96614
 C40 C 0.64841 0.30564 1.03698
 C41 C 0.69334 0.35295 1.03324
 C42 C 0.64596 0.30220 0.97062
 O43 O 0.36372 0.67322 1.02559
 O44 O 0.32955 0.63852 0.97607
 O45 O 0.36324 0.67317 0.97557
 O46 O 0.33022 0.63841 1.02600
 O47 O 0.29955 0.66574 1.02653
 O48 O 0.33306 0.70106 0.97582
 O49 O 0.29896 0.66600 0.97624
 O50 O 0.33344 0.70101 1.02618
 Cu51 Cu 0.34971 0.65311 1.00077
 Cu52 Cu 0.31319 0.68626 1.00124
 C53 C 0.35460 0.69308 1.03432
 C54 C 0.30835 0.64612 0.96777
 C55 C 0.35401 0.69309 0.96711
 C56 C 0.30913 0.64584 1.03482
 O57 O 0.02443 0.32414 0.35817
 O58 O -0.02416 0.35826 0.32271
 O59 O -0.02463 0.32461 0.35812
 O60 O 0.02490 0.35798 0.32292
 O61 O 0.02464 0.32977 0.29242
 O62 O -0.02494 0.29585 0.32830
 O63 O -0.02436 0.32992 0.29234
 O64 O 0.02450 0.29550 0.32816
 Cu65 Cu 0.00016 0.34405 0.34349
 Cu66 Cu -0.00006 0.30982 0.30731
 C67 C 0.03272 0.30395 0.34942
 C68 C -0.03235 0.35016 0.30132
 C69 C -0.03323 0.30445 0.34951
 C70 C 0.03301 0.34986 0.30150
 O71 O 0.02351 0.67199 0.63898
 O72 O -0.02659 0.63810 0.67256
 O73 O -0.02553 0.67287 0.63843
 O74 O 0.02238 0.63730 0.67320
 O75 O 0.02272 0.66472 0.70445
 O76 O -0.02548 0.70073 0.66919
 O77 O -0.02665 0.66550 0.70383
 O78 O 0.02387 0.69982 0.66983
 Cu79 Cu -0.00158 0.65234 0.65271
 Cu80 Cu -0.00139 0.68549 0.68997
 C81 C 0.03224 0.69172 0.64846
 C82 C -0.03510 0.64577 0.69399
 C83 C -0.03366 0.69298 0.64759
 C84 C 0.03068 0.64473 0.69480
 O85 O 1.02385 0.63987 0.32388
 O86 O 0.97484 0.67421 0.35859
 O87 O 0.97480 0.64038 0.32335
 O88 O 1.02391 0.67349 0.35924
 O89 O 1.02482 0.70226 0.32936
 O90 O 0.97576 0.66860 0.29280
 O91 O 0.97542 0.70284 0.32851
 O92 O 1.02474 0.66825 0.29349
 Cu93 Cu 0.99925 0.65418 0.34428
 Cu94 Cu 1.00026 0.68842 0.30804
 C95 C 1.03248 0.64796 0.30262
 C96 C 0.96682 0.69445 0.34969
 C97 C 0.96715 0.64854 0.30178
 C98 C 1.03273 0.69362 0.35070
 O99 O 0.97621 0.32683 0.63769
 O100 O 1.02545 0.36080 0.67232
 O101 O 1.02524 0.32627 0.63798
 O102 O 0.97649 0.36145 0.67191
 O103 O 0.97562 0.33390 0.70310
 O104 O 1.02470 0.29823 0.66862
 O105 O 1.02499 0.33322 0.70347
 O106 O 0.97534 0.29886 0.66846
 Cu107 Cu 1.00093 0.34657 0.65190
 Cu108 Cu 1.00012 0.31324 0.68905
 C109 C 0.96739 0.30702 0.64696
 C110 C 1.03355 0.35304 0.69388
 C111 C 1.03327 0.30614 0.64720
 C112 C 0.96777 0.35391 0.69335
 O113 O 0.35584 0.02084 0.32364
 O114 O 0.31909 -0.02769 0.35535
 O115 O 0.35476 -0.02658 0.32086
 O116 O 0.32035 0.01977 0.35815
 O117 O 0.29145 0.02241 0.32759
 O118 O 0.32635 -0.02408 0.28980
 O119 O 0.28999 -0.02521 0.32495
 O120 O 0.32720 0.02351 0.29282
 Cu121 Cu 0.34036 -0.00370 0.34255
 Cu122 Cu 0.30582 -0.00074 0.30567
 C123 C 0.34796 0.03048 0.30283
 C124 C 0.29810 -0.03453 0.34585
 C125 C 0.34674 -0.03301 0.29881
 C126 C 0.30006 0.02905 0.34940
 O127 O 0.68289 -0.02461 0.64474
 O128 O 0.64366 0.01993 0.67950
 O129 O 0.67843 0.02285 0.64379
 O130 O 0.64787 -0.02709 0.67969
 O131 O 0.67637 -0.02356 0.71058
 O132 O 0.70811 0.02577 0.67352
 O133 O 0.67321 0.02392 0.70930
 O134 O 0.71222 -0.02181 0.67489
 Cu135 Cu 0.66038 -0.00248 0.65886
 Cu136 Cu 0.69549 0.00130 0.69509
 C137 C 0.70429 -0.03079 0.65376
 C138 C 0.65148 0.02931 0.70047
 C139 C 0.69856 0.03273 0.65224
 C140 C 0.65645 -0.03349 0.70154
 O141 O 0.32191 1.02019 0.64061
 O142 O 0.35604 0.97306 0.67714
 O143 O 0.32052 0.97265 0.64251
 O144 O 0.35743 1.02050 0.67511
 O145 O 0.32860 1.02284 0.70584
 O146 O 0.29137 0.97468 0.67297
 O147 O 0.32755 0.97522 0.70824
 O148 O 0.29288 1.02232 0.67116
 Cu149 Cu 0.34182 0.99636 0.65577
 Cu150 Cu 0.30717 0.99883 0.69267
 C151 C 0.30158 1.02932 0.64949
 C152 C 0.34794 0.96637 0.69913
 C153 C 0.29949 0.96570 0.65190
 C154 C 0.34949 1.02983 0.69604
 O155 O 0.64578 0.97383 0.32213
 O156 O 0.67771 1.02174 0.35962
 O157 O 0.64232 1.02111 0.32509
 O158 O 0.68119 0.97437 0.35691
 O159 O 0.71032 0.97825 0.32660
 O160 O 0.67103 1.02525 0.29444
 O161 O 0.70667 1.02572 0.32923
 O162 O 0.67423 0.97779 0.29118
 Cu163 Cu 0.65891 0.99732 0.34398
 Cu164 Cu 0.69350 1.00200 0.30726
 C165 C 0.65421 0.96791 0.30006
 C166 C 0.69766 1.03198 0.35103
 C167 C 0.64987 1.03117 0.30435
 C168 C 0.70255 0.96856 0.34750
 C169 C 0.86403 0.78922 0.47648
 C170 C 0.87098 0.77867 0.50000
 C171 C 0.86398 0.78909 0.52358
 C172 C 0.84906 0.81060 0.52382
 C173 C 0.84149 0.82134 0.50007
 C174 C 0.84909 0.81069 0.47630
 C175 C 0.84121 0.82152 0.45305
 C176 C 0.82620 0.84248 0.45307
 C177 C 0.81834 0.85328 0.47635
 C178 C 0.82616 0.84271 0.50009
 C179 C 0.84115 0.82137 0.54709
 C180 C 0.82621 0.84239 0.54710
 C181 C 0.81839 0.85327 0.52383
 C182 C 0.80308 0.87451 0.52365
 C183 C 0.79595 0.88498 0.50011
 C184 C 0.80294 0.87447 0.47656
 H185 H 0.84645 0.81379 0.43457
 H186 H 0.82086 0.85019 0.43461
 H187 H 0.84632 0.81356 0.56555
 H188 H 0.82085 0.85006 0.56557
 H189 H 0.88272 0.76236 0.49995
 H190 H 0.78370 0.90094 0.50014
 C191 C 0.21024 0.13554 0.52354
 C192 C 0.21921 0.12663 0.50000
 C193 C 0.20993 0.13532 0.47650
 C194 C 0.19113 0.15372 0.47631
 C195 C 0.18198 0.16317 0.50009
 C196 C 0.19145 0.15395 0.52383
 C197 C 0.18240 0.16380 0.54713
 C198 C 0.16453 0.18256 0.54717
 C199 C 0.15507 0.19212 0.52391
 C200 C 0.16378 0.18227 0.50013
 C201 C 0.18176 0.16334 0.45305
 C202 C 0.16389 0.18209 0.45309
 C203 C 0.15475 0.19188 0.47638
 C204 C 0.13730 0.21148 0.47663
 C205 C 0.12914 0.22114 0.50016
 C206 C 0.13762 0.21173 0.52370
 H207 H 0.18932 0.15730 0.56555
 H208 H 0.15845 0.18974 0.56562
 H209 H 0.18842 0.15667 0.43459
 H210 H 0.15754 0.18908 0.43464
 H211 H 0.23370 0.11253 0.49997
 H212 H 0.11576 0.23622 0.50016
 C213 C 0.13904 0.78408 0.47646
 C214 C 0.13195 0.77380 0.50011
 C215 C 0.13938 0.78417 0.52356
 C216 C 0.15492 0.80530 0.52358
 C217 C 0.16264 0.81577 0.49974
 C218 C 0.15462 0.80519 0.47607
 C219 C 0.16271 0.81576 0.45271
 C220 C 0.17817 0.83646 0.45255
 C221 C 0.18632 0.84725 0.47574
 C222 C 0.17846 0.83685 0.49956
 C223 C 0.16322 0.81597 0.54676
 C224 C 0.17870 0.83667 0.54658
 C225 C 0.18660 0.84735 0.52321
 C226 C 0.20231 0.86836 0.52282
 C227 C 0.20945 0.87869 0.49920
 C228 C 0.20202 0.86826 0.47576
 H229 H 0.15729 0.80802 0.43431
 H230 H 0.18365 0.84399 0.43403
 H231 H 0.15792 0.80833 0.56528
 H232 H 0.18439 0.84427 0.56497
 H233 H 0.11968 0.75780 0.50029
 H234 H 0.22187 0.89456 0.49905
 C235 C 0.78455 0.14104 0.52363
 C236 C 0.77491 0.13232 0.50028
 C237 C 0.78404 0.14075 0.47655
 C238 C 0.80328 0.15880 0.47592
 C239 C 0.81310 0.16806 0.49949
 C240 C 0.80381 0.15906 0.52345
 C241 C 0.81355 0.16874 0.54652
 C242 C 0.83198 0.18704 0.54614
 C243 C 0.84132 0.19631 0.52266
 C244 C 0.83189 0.18670 0.49909
 C245 C 0.81246 0.16826 0.45245
 C246 C 0.83092 0.18653 0.45207
 C247 C 0.84083 0.19604 0.47514
 C248 C 0.85898 0.21513 0.47500
 C249 C 0.86784 0.22456 0.49836
 C250 C 0.85942 0.21541 0.52206
 H251 H 0.80675 0.16247 0.56511
 H252 H 0.83862 0.19407 0.56445
 H253 H 0.80519 0.16186 0.43414
 H254 H 0.83713 0.19339 0.43349
 H255 H 0.76022 0.11838 0.50060
 H256 H 0.88177 0.23922 0.49811
 C257 C 0.52298 0.78581 0.85902
 C258 C 0.49966 0.77573 0.86614
 C259 C 0.47679 0.78652 0.85881
 C260 C 0.47708 0.80784 0.84327
 C261 C 0.50063 0.81813 0.83552
 C262 C 0.52368 0.80716 0.84354
 C263 C 0.54675 0.81761 0.83558
 C264 C 0.54723 0.83853 0.82017
 C265 C 0.52465 0.84962 0.81187
 C266 C 0.50112 0.83938 0.81967
 C267 C 0.45451 0.81892 0.83498
 C268 C 0.45500 0.83975 0.81941
 C269 C 0.47809 0.85020 0.81144
 C270 C 0.47877 0.87130 0.79559
 C271 C 0.50209 0.88150 0.78852
 C272 C 0.52495 0.87081 0.79610
 H273 H 0.56469 0.80962 0.84111
 H274 H 0.56552 0.84595 0.81484
 H275 H 0.43623 0.81147 0.84032
 H276 H 0.43706 0.84764 0.81374
 H277 H 0.49929 0.75954 0.87834
 H278 H 0.50245 0.89747 0.77602
 C279 C 0.52138 0.13812 0.21795
 C280 C 0.49802 0.12959 0.22692
 C281 C 0.47523 0.13871 0.21725
 C282 C 0.47557 0.15723 0.19817
 C283 C 0.49915 0.16634 0.18909
 C284 C 0.52217 0.15668 0.19891
 C285 C 0.54529 0.16625 0.18993
 C286 C 0.54585 0.18502 0.17171
 C287 C 0.52331 0.19494 0.16185
 C288 C 0.49972 0.18548 0.17053
 C289 C 0.45303 0.16726 0.18841
 C290 C 0.45359 0.18603 0.17017
 C291 C 0.47671 0.19545 0.16103
 C292 C 0.47752 0.21500 0.14312
 C293 C 0.50090 0.22428 0.13502
 C294 C 0.52367 0.21448 0.14397
 H295 H 0.56319 0.15953 0.19718
 H296 H 0.56415 0.19191 0.16564
 H297 H 0.43472 0.16088 0.19506
 H298 H 0.43570 0.19332 0.16353
 H299 H 0.49756 0.11531 0.24153
 H300 H 0.50139 0.23930 0.12126
 C301 C 0.52164 0.12867 0.79391
 C302 C 0.49875 0.12210 0.78223
 C303 C 0.47593 0.13323 0.78900
 C304 C 0.47574 0.15203 0.80770
 C305 C 0.49880 0.15915 0.81964
 C306 C 0.52182 0.14727 0.81297
 C307 C 0.54415 0.15387 0.82599
 C308 C 0.54412 0.17239 0.84449
 C309 C 0.52177 0.18503 0.85068
 C310 C 0.49878 0.17806 0.83846
 C311 C 0.45320 0.16402 0.81455
 C312 C 0.45319 0.18259 0.83294
 C313 C 0.47573 0.18982 0.84515
 C314 C 0.47589 0.20866 0.86378
 C315 C 0.49864 0.21559 0.87533
 C316 C 0.52153 0.20406 0.86925
 H317 H 0.56186 0.14461 0.82219
 H318 H 0.56181 0.17654 0.85404
 H319 H 0.43535 0.15923 0.80561
 H320 H 0.43533 0.19132 0.83746
 H321 H 0.49864 0.10782 0.76766
 H322 H 0.49849 0.23022 0.88951
 C323 C 0.47826 0.78773 0.14004
 C324 C 0.50133 0.77725 0.13284
 C325 C 0.52445 0.78775 0.13990
 C326 C 0.52471 0.80921 0.15518
 C327 C 0.50142 0.81986 0.16304
 C328 C 0.47809 0.80917 0.15534
 C329 C 0.45529 0.81996 0.16344
 C330 C 0.45534 0.84092 0.17875
 C331 C 0.47820 0.85176 0.18672
 C332 C 0.50147 0.84120 0.17871
 C333 C 0.54755 0.82005 0.16312
 C334 C 0.54759 0.84100 0.17844
 C335 C 0.52478 0.85178 0.18658
 C336 C 0.52462 0.87298 0.20228
 C337 C 0.50155 0.88346 0.20957
 C338 C 0.47844 0.87297 0.20238
 H339 H 0.43716 0.81219 0.15815
 H340 H 0.43724 0.84860 0.18424
 H341 H 0.56565 0.81233 0.15766
 H342 H 0.56572 0.84873 0.18380
 H343 H 0.50129 0.76097 0.12081
 H344 H 0.50158 0.89945 0.22202
 C345 C 0.78061 0.47486 0.85864
 C346 C 0.77049 0.49698 0.86745
 C347 C 0.78009 0.51958 0.85923
 C348 C 0.80023 0.52025 0.84124
 C349 C 0.81051 0.49791 0.83186
 C350 C 0.80079 0.47512 0.84071
 C351 C 0.81107 0.45323 0.83097
 C352 C 0.83046 0.45369 0.81275
 C353 C 0.84026 0.47604 0.80358
 C354 C 0.83026 0.49837 0.81326
 C355 C 0.80991 0.54260 0.83189
 C356 C 0.82927 0.54304 0.81364
 C357 C 0.83962 0.52116 0.80401
 C358 C 0.85873 0.52140 0.78492
 C359 C 0.86821 0.49929 0.77539
 C360 C 0.85939 0.47672 0.78449
 H361 H 0.80398 0.43553 0.83714
 H362 H 0.83751 0.43632 0.80566
 H363 H 0.80236 0.55997 0.83837
 H364 H 0.83588 0.56073 0.80690
 H365 H 0.75507 0.49659 0.88131
 H366 H 0.88284 0.49968 0.76066
 C367 C 0.13321 0.52177 0.20850
 C368 C 0.12280 0.49928 0.21598
 C369 C 0.13345 0.47709 0.20803
 C370 C 0.15485 0.47723 0.19162
 C371 C 0.16533 0.49995 0.18347
 C372 C 0.15456 0.52232 0.19206
 C373 C 0.16536 0.54462 0.18397
 C374 C 0.18639 0.54498 0.16773
 C375 C 0.19731 0.52305 0.15887
 C376 C 0.18676 0.50030 0.16691
 C377 C 0.16596 0.45529 0.18309
 C378 C 0.18703 0.45562 0.16690
 C379 C 0.19764 0.47791 0.15848
 C380 C 0.21910 0.47844 0.14217
 C381 C 0.22945 0.50097 0.13471
 C382 C 0.21877 0.52319 0.14253
 H383 H 0.15761 0.56203 0.19012
 H384 H 0.19413 0.56264 0.16233
 H385 H 0.15844 0.43763 0.18886
 H386 H 0.19502 0.43820 0.16117
 H387 H 0.10659 0.49903 0.22888
 H388 H 0.24570 0.50121 0.12186
 C389 C 0.86880 0.52170 0.20602
 C390 C 0.87937 0.49942 0.21381
 C391 C 0.86898 0.47702 0.20608
 C392 C 0.84777 0.47668 0.18950
 C393 C 0.83711 0.49916 0.18106
 C394 C 0.84756 0.52177 0.18947
 C395 C 0.83657 0.54382 0.18106
 C396 C 0.81562 0.54370 0.16478
 C397 C 0.80502 0.52152 0.15615
 C398 C 0.81581 0.49902 0.16439
 C399 C 0.83701 0.45449 0.18111
 C400 C 0.81612 0.45434 0.16476
 C401 C 0.80530 0.47638 0.15607
 C402 C 0.78396 0.47645 0.13963
 C403 C 0.77333 0.49877 0.13204
 C404 C 0.78363 0.52119 0.13980
 H405 H 0.84410 0.56141 0.18700
 H406 H 0.80773 0.56120 0.15913
 H407 H 0.84470 0.43700 0.18711
 H408 H 0.80840 0.43675 0.15914
 H409 H 0.89545 0.49951 0.22683
 H410 H 0.75713 0.49870 0.11917
 C411 C 0.13762 0.47684 0.78771
 C412 C 0.12829 0.49907 0.77830
 C413 C 0.13712 0.52153 0.78763
 C414 C 0.15607 0.52198 0.80685
 C415 C 0.16592 0.49953 0.81641
 C416 C 0.15656 0.47685 0.80692
 C417 C 0.16676 0.45484 0.81642
 C418 C 0.18602 0.45506 0.83474
 C419 C 0.19574 0.47728 0.84425
 C420 C 0.18555 0.49975 0.83508
 C421 C 0.16586 0.54421 0.81626
 C422 C 0.18514 0.54443 0.83457
 C423 C 0.19531 0.52243 0.84414
 C424 C 0.21543 0.52244 0.86207
 C425 C 0.22546 0.50020 0.87067
 C426 C 0.21585 0.47772 0.86220
 H427 H 0.16012 0.43724 0.80953
 H428 H 0.19346 0.43760 0.84113
 H429 H 0.15890 0.56166 0.80930
 H430 H 0.19224 0.56205 0.84093
 H431 H 0.11384 0.49887 0.76344
 H432 H 0.24091 0.50039 0.88445
 C433 C 0.27067 0.40090 0.08846
 C434 C 0.29524 0.40695 0.08017
 C435 C 0.30825 0.39177 0.06307
 C436 C 0.29702 0.37014 0.05378
 C437 C 0.27270 0.36370 0.06255
 C438 C 0.25962 0.37896 0.07969
 C439 C 0.25628 0.41832 0.10489
 C440 C 0.23067 0.42336 0.09968
 C441 C 0.21811 0.44214 0.11282
 C442 C 0.23089 0.45608 0.13143
 C443 C 0.25607 0.45044 0.13747
 C444 C 0.26862 0.43163 0.12444
 H445 H 0.32694 0.39731 0.05670
 H446 H 0.26356 0.34712 0.05578
 H447 H 0.19877 0.44654 0.10767
 H448 H 0.26623 0.46113 0.15171
 H449 H 0.24080 0.37370 0.08593
 H450 H 0.22074 0.41368 0.08451
 H451 H 0.30413 0.42391 0.08617
 H452 H 0.28821 0.42794 0.12917
 C453 C 0.73125 0.59884 0.08723
 C454 C 0.70650 0.59274 0.07961
 C455 C 0.69315 0.60779 0.06267
 C456 C 0.70419 0.62932 0.05284
 C457 C 0.72870 0.63582 0.06093
 C458 C 0.74211 0.62070 0.07794
 C459 C 0.74597 0.58151 0.10345
 C460 C 0.77147 0.57643 0.09767
 C461 C 0.78425 0.55762 0.11055
 C462 C 0.77177 0.54368 0.12945
 C463 C 0.74675 0.54940 0.13610
 C464 C 0.73400 0.56825 0.12335
 H465 H 0.67433 0.60220 0.05682
 H466 H 0.73770 0.65233 0.05374
 H467 H 0.80347 0.55317 0.10496
 H468 H 0.73684 0.53870 0.15058
 H469 H 0.76106 0.62599 0.08365
 H470 H 0.78112 0.58608 0.08225
 H471 H 0.69773 0.57583 0.08601
 H472 H 0.71452 0.57198 0.12853
 C473 C 0.73029 0.39557 0.91095
 C474 C 0.70535 0.40097 0.91847
 C475 C 0.69243 0.38577 0.93569
 C476 C 0.70412 0.36478 0.94592
 C477 C 0.72877 0.35887 0.93780
 C478 C 0.74175 0.37415 0.92050
 C479 C 0.74462 0.41329 0.89470
 C480 C 0.73238 0.42622 0.87481
 C481 C 0.74461 0.44553 0.86218
 C482 C 0.76940 0.45202 0.86893
 C483 C 0.78222 0.43840 0.88776
 C484 C 0.76994 0.41915 0.90055
 H485 H 0.67347 0.39088 0.94154
 H486 H 0.73827 0.34280 0.94530
 H487 H 0.73446 0.45596 0.84772
 H488 H 0.80128 0.44342 0.89336
 H489 H 0.76086 0.36938 0.91486
 H490 H 0.71304 0.42190 0.86956
 H491 H 0.69609 0.41752 0.91187
 H492 H 0.77980 0.40977 0.91597
 C493 C 0.26718 0.60057 0.91447
 C494 C 0.29202 0.59466 0.92183
 C495 C 0.30549 0.60979 0.93861
 C496 C 0.29446 0.63123 0.94854
 C497 C 0.26982 0.63752 0.94075
 C498 C 0.25628 0.62230 0.92391
 C499 C 0.25246 0.58321 0.89826
 C500 C 0.26439 0.57030 0.87815
 C501 C 0.25178 0.55133 0.86545
 C502 C 0.22693 0.54513 0.87236
 C503 C 0.21442 0.55875 0.89140
 C504 C 0.22707 0.57770 0.90426
 H505 H 0.32441 0.60436 0.94422
 H506 H 0.26082 0.65395 0.94804
 H507 H 0.26170 0.54087 0.85083
 H508 H 0.19531 0.55394 0.89714
 H509 H 0.23723 0.62743 0.91843
 H510 H 0.28377 0.57438 0.87279
 H511 H 0.30083 0.57785 0.91531
 H512 H 0.21745 0.58710 0.91982
 C513 C 0.08538 0.26296 0.39583
 C514 C 0.07829 0.28690 0.40269
 C515 C 0.06168 0.30029 0.38729
 C516 C 0.05168 0.29011 0.36458
 C517 C 0.05918 0.26636 0.35731
 C518 C 0.07582 0.25288 0.37284
 C519 C 0.10146 0.24832 0.41357
 C520 C 0.09550 0.22368 0.41901
 C521 C 0.10826 0.21107 0.43860
 C522 C 0.12717 0.22289 0.45293
 C523 C 0.13405 0.24700 0.44668
 C524 C 0.12143 0.25956 0.42708
 H525 H 0.05630 0.31852 0.39348
 H526 H 0.05182 0.25802 0.33991
 H527 H 0.10255 0.19254 0.44345
 H528 H 0.14855 0.25638 0.45768
 H529 H 0.08109 0.23454 0.36696
 H530 H 0.08006 0.21459 0.40916
 H531 H 0.08491 0.29505 0.42050
 H532 H 0.12673 0.27837 0.42305
 C533 C 0.08687 0.73242 0.60391
 C534 C 0.07701 0.74233 0.62686
 C535 C 0.05974 0.72892 0.64182
 C536 C 0.05191 0.70541 0.63401
 C537 C 0.06227 0.69535 0.61141
 C538 C 0.07951 0.70866 0.59656
 C539 C 0.10336 0.74714 0.58654
 C540 C 0.09764 0.77183 0.58129
 C541 C 0.11055 0.78449 0.56180
 C542 C 0.12941 0.77270 0.54737
 C543 C 0.13611 0.74853 0.55349
 C544 C 0.12332 0.73591 0.57301
 H545 H 0.05211 0.73716 0.65917
 H546 H 0.05667 0.67729 0.60483
 H547 H 0.10492 0.80304 0.55703
 H548 H 0.15055 0.73914 0.54242
 H549 H 0.08636 0.70065 0.57877
 H550 H 0.08219 0.78091 0.59115
 H551 H 0.08246 0.76054 0.63309
 H552 H 0.12843 0.71704 0.57690
 C553 C 0.91437 0.73618 0.39564
 C554 C 0.92099 0.71212 0.40261
 C555 C 0.93748 0.69845 0.38730
 C556 C 0.94781 0.70847 0.36461
 C557 C 0.94068 0.73229 0.35720
 C558 C 0.92417 0.74604 0.37261
 C559 C 0.89867 0.75121 0.41340
 C560 C 0.90520 0.77574 0.41861
 C561 C 0.89283 0.78871 0.43818
 C562 C 0.87369 0.77740 0.45275
 C563 C 0.86626 0.75339 0.44676
 C564 C 0.87852 0.74045 0.42716
 H565 H 0.94256 0.68017 0.39359
 H566 H 0.94830 0.74052 0.33980
 H567 H 0.89903 0.80712 0.44285
 H568 H 0.85160 0.74437 0.45794
 H569 H 0.91926 0.76446 0.36664
 H570 H 0.92081 0.78444 0.40858
 H571 H 0.91416 0.70411 0.42044
 H572 H 0.87279 0.72174 0.42333
 C573 C 0.91338 0.26648 0.60168
 C574 C 0.92289 0.25649 0.62474
 C575 C 0.94000 0.26982 0.63989
 C576 C 0.94805 0.29331 0.63215
 C577 C 0.93813 0.30340 0.60935
 C578 C 0.92104 0.29016 0.59433
 C579 C 0.89672 0.25199 0.58435
 C580 C 0.87689 0.26352 0.57094
 C581 C 0.86377 0.25106 0.55160
 C582 C 0.87001 0.22678 0.54555
 C583 C 0.88876 0.21470 0.55982
 C584 C 0.90201 0.22720 0.57914
 H585 H 0.94730 0.26156 0.65737
 H586 H 0.94392 0.32142 0.60280
 H587 H 0.84940 0.26063 0.54064
 H588 H 0.89398 0.19603 0.55511
 H589 H 0.91447 0.29822 0.57645
 H590 H 0.87210 0.28246 0.57480
 H591 H 0.91720 0.23834 0.63096
 H592 H 0.91734 0.21790 0.58894
 C593 C 0.39479 0.08444 0.26521
 C594 C 0.37225 0.07643 0.25352
 C595 C 0.35667 0.05924 0.26590
 C596 C 0.36343 0.04967 0.29014
 C597 C 0.38575 0.05804 0.30195
 C598 C 0.40122 0.07519 0.28965
 C599 C 0.41249 0.10125 0.25162
 C600 C 0.42578 0.11931 0.26548
 C601 C 0.44530 0.13254 0.25376
 C602 C 0.45166 0.12819 0.22792
 C603 C 0.43755 0.11124 0.21355
 C604 C 0.41805 0.09788 0.22530
 H605 H 0.33956 0.05318 0.25632
 H606 H 0.39154 0.05104 0.32060
 H607 H 0.45613 0.14551 0.26511
 H608 H 0.44250 0.10748 0.19365
 H609 H 0.41868 0.08061 0.29898
 H610 H 0.42164 0.12262 0.28565
 H611 H 0.36673 0.08336 0.23477
 H612 H 0.40834 0.08394 0.21419
 C613 C 0.60133 0.07469 0.74477
 C614 C 0.59190 0.05899 0.72563
 C615 C 0.60835 0.04487 0.71078
 C616 C 0.63459 0.04583 0.71507
 C617 C 0.64410 0.06175 0.73409
 C618 C 0.62757 0.07633 0.74865
 C619 C 0.58340 0.08881 0.76075
 C620 C 0.58409 0.11455 0.76106
 C621 C 0.56463 0.12776 0.77305
 C622 C 0.54461 0.11534 0.78532
 C623 C 0.54480 0.08962 0.78617
 C624 C 0.56393 0.07647 0.77387
 H625 H 0.60044 0.03270 0.69638
 H626 H 0.66425 0.06285 0.73776
 H627 H 0.56457 0.14758 0.77176
 H628 H 0.52946 0.07970 0.79540
 H629 H 0.63515 0.08838 0.76334
 H630 H 0.59887 0.12435 0.75083
 H631 H 0.57171 0.05763 0.72224
 H632 H 0.56314 0.05662 0.77389
 C633 C 0.39612 0.91933 0.74384
 C634 C 0.37719 0.93324 0.75601
 C635 C 0.36064 0.94769 0.74141
 C636 C 0.36306 0.94880 0.71441
 C637 C 0.38153 0.93433 0.70225
 C638 C 0.39777 0.91964 0.71679
 C639 C 0.41528 0.90585 0.75913
 C640 C 0.42264 0.88204 0.75200
 C641 C 0.44264 0.87039 0.76465
 C642 C 0.45568 0.88242 0.78452
 C643 C 0.44803 0.90593 0.79212
 C644 C 0.42783 0.91749 0.77967
 H645 H 0.34665 0.95873 0.75130
 H646 H 0.38381 0.93478 0.68148
 H647 H 0.44850 0.85231 0.75843
 H648 H 0.45811 0.91553 0.80726
 H649 H 0.41234 0.90929 0.70693
 H650 H 0.41321 0.87265 0.73630
 H651 H 0.37546 0.93320 0.77684
 H652 H 0.42276 0.93596 0.78531
 C653 C 0.60756 0.92042 0.25419
 C654 C 0.62613 0.93514 0.24238
 C655 C 0.64227 0.94970 0.25735
 C656 C 0.63981 0.95009 0.28436
 C657 C 0.62179 0.93475 0.29615
 C658 C 0.60595 0.91996 0.28124
 C659 C 0.58855 0.90701 0.23858
 C660 C 0.57576 0.91901 0.21843
 C661 C 0.55549 0.90758 0.20592
 C662 C 0.54799 0.88386 0.21308
 C663 C 0.56132 0.87146 0.23249
 C664 C 0.58142 0.88296 0.24519
 H665 H 0.65592 0.96142 0.24774
 H666 H 0.61949 0.93463 0.31693
 H667 H 0.54519 0.91747 0.19116
 H668 H 0.55557 0.85322 0.23840
 H669 H 0.59165 0.90899 0.29084
 H670 H 0.58064 0.93767 0.21320
 H671 H 0.62781 0.93570 0.22155
 H672 H 0.59103 0.87330 0.26058
 C673 C 0.39781 0.26509 0.91242
 C674 C 0.40602 0.28850 0.92011
 C675 C 0.39153 0.30259 0.93700
 C676 C 0.36845 0.29364 0.94673
 C677 C 0.35979 0.27054 0.93849
 C678 C 0.37435 0.25639 0.92152
 C679 C 0.41474 0.24937 0.89659
 C680 C 0.41781 0.22439 0.90264
 C681 C 0.43674 0.21058 0.89061
 C682 C 0.45279 0.22152 0.87237
 C683 C 0.44891 0.24600 0.86523
 C684 C 0.42992 0.25977 0.87709
 H685 H 0.39878 0.32029 0.94294
 H686 H 0.34204 0.26317 0.94558
 H687 H 0.43977 0.19176 0.89654
 H688 H 0.46129 0.25470 0.85126
 H689 H 0.36741 0.23852 0.91577
 H690 H 0.40666 0.21590 0.91775
 H691 H 0.42419 0.29560 0.91389
 H692 H 0.42774 0.27884 0.87168
 C693 C 0.60095 0.73219 0.91158
 C694 C 0.62386 0.74170 0.92113
 C695 C 0.63867 0.72796 0.93824
 C696 C 0.63074 0.70452 0.94625
 C697 C 0.60815 0.69485 0.93619
 C698 C 0.59346 0.70850 0.91909
 C699 C 0.58392 0.74725 0.89522
 C700 C 0.57021 0.73636 0.87498
 C701 C 0.55131 0.74944 0.86218
 C702 C 0.54596 0.77371 0.86916
 C703 C 0.56047 0.78510 0.88838
 C704 C 0.57936 0.77200 0.90128
 H705 H 0.65601 0.73590 0.94562
 H706 H 0.60149 0.67686 0.94194
 H707 H 0.54017 0.74035 0.84747
 H708 H 0.55630 0.80372 0.89426
 H709 H 0.57571 0.70079 0.91247
 H710 H 0.57355 0.71745 0.86962
 H711 H 0.63020 0.75984 0.91553
 H712 H 0.58938 0.78081 0.91696
 C713 C 0.39933 0.73478 0.08812
 C714 C 0.37661 0.74447 0.07837
 C715 C 0.36163 0.73074 0.06138
 C716 C 0.36919 0.70714 0.05371
 C717 C 0.39161 0.69731 0.06394
 C718 C 0.40647 0.71094 0.08091
 C719 C 0.41655 0.74977 0.10437
 C720 C 0.42155 0.77441 0.09804
 C721 C 0.44068 0.78736 0.11080
 C722 C 0.45498 0.77592 0.13015
 C723 C 0.44917 0.75180 0.13742
 C724 C 0.43003 0.73888 0.12476
 H725 H 0.34443 0.73881 0.05385
 H726 H 0.39800 0.67919 0.05844
 H727 H 0.44521 0.80586 0.10470
 H728 H 0.46014 0.74268 0.15223
 H729 H 0.42407 0.70309 0.08768
 H730 H 0.41172 0.78322 0.08224
 H731 H 0.37055 0.76273 0.08372
 H732 H 0.42634 0.72006 0.13034
 C733 C 0.60450 0.26519 0.09258
 C734 C 0.62648 0.25479 0.08186
 C735 C 0.64142 0.26819 0.06448
 C736 C 0.63453 0.29216 0.05738
 C737 C 0.61304 0.30276 0.06879
 C738 C 0.59823 0.28946 0.08614
 C739 C 0.58688 0.25049 0.10877
 C740 C 0.57405 0.26144 0.12958
 C741 C 0.55430 0.24911 0.14198
 C742 C 0.54729 0.22552 0.13405
 C743 C 0.56097 0.21389 0.11438
 C744 C 0.58066 0.22628 0.10182
 H745 H 0.65789 0.25954 0.05601
 H746 H 0.60721 0.32119 0.06379
 H747 H 0.54382 0.25831 0.15711
 H748 H 0.55554 0.19575 0.10790
 H749 H 0.58121 0.29790 0.09367
 H750 H 0.57867 0.27991 0.13564
 H751 H 0.63188 0.23619 0.08663
 H752 H 0.58998 0.21745 0.08570
 C753 C 0.26129 0.08200 0.60326
 C754 C 0.28528 0.07348 0.59572
 C755 C 0.29842 0.05670 0.61095
 C756 C 0.28792 0.04799 0.63414
 C757 C 0.26411 0.05679 0.64198
 C758 C 0.25088 0.07359 0.62663
 C759 C 0.24691 0.09857 0.58590
 C760 C 0.22102 0.09448 0.58111
 C761 C 0.20849 0.10770 0.56182
 C762 C 0.22164 0.12521 0.54718
 C763 C 0.24704 0.13027 0.55284
 C764 C 0.25954 0.11717 0.57213
 H765 H 0.31670 0.05029 0.60432
 H766 H 0.25553 0.05044 0.65977
 H767 H 0.18894 0.10339 0.55740
 H768 H 0.25746 0.14366 0.54157
 H769 H 0.23249 0.07994 0.63300
 H770 H 0.21085 0.08013 0.59121
 H771 H 0.29363 0.07923 0.57759
 H772 H 0.27935 0.12102 0.57568
 C773 C 0.73484 0.08505 0.39715
 C774 C 0.71194 0.07440 0.40523
 C775 C 0.69960 0.05714 0.38989
 C776 C 0.70981 0.05002 0.36592
 C777 C 0.73259 0.06104 0.35761
 C778 C 0.74501 0.07827 0.37313
 C779 C 0.74842 0.10220 0.41452
 C780 C 0.77464 0.09987 0.41856
 C781 C 0.78669 0.11358 0.43780
 C782 C 0.77273 0.12990 0.45310
 C783 C 0.74687 0.13320 0.44819
 C784 C 0.73484 0.11957 0.42900
 H785 H 0.68216 0.04918 0.39708
 H786 H 0.74105 0.05615 0.33928
 H787 H 0.80660 0.11058 0.44162
 H788 H 0.73581 0.14565 0.45994
 H789 H 0.76258 0.08630 0.36637
 H790 H 0.78554 0.08648 0.40789
 H791 H 0.70384 0.07891 0.42385
 H792 H 0.71471 0.12202 0.42604
 C793 C 0.75065 0.92241 0.60677
 C794 C 0.76172 0.93694 0.62610
 C795 C 0.74659 0.95142 0.64222
 C796 C 0.72018 0.95194 0.63893
 C797 C 0.70914 0.93693 0.62000
 C798 C 0.72419 0.92221 0.60422
 C799 C 0.76648 0.90882 0.58799
 C800 C 0.78668 0.92064 0.57537
 C801 C 0.79936 0.90906 0.55506
 C802 C 0.79234 0.88535 0.54740
 C803 C 0.77293 0.87310 0.56069
 C804 C 0.76005 0.88476 0.58079
 H805 H 0.75560 0.96288 0.65659
 H806 H 0.68884 0.93691 0.61706
 H807 H 0.81412 0.91885 0.54477
 H808 H 0.76711 0.85489 0.55480
 H809 H 0.71519 0.91140 0.58928
 H810 H 0.79179 0.93929 0.58032
 H811 H 0.78209 0.93733 0.62849
 H812 H 0.74461 0.87523 0.59029
 C813 C 0.25310 0.91646 0.39182
 C814 C 0.27957 0.91679 0.39423
 C815 C 0.29424 0.93210 0.37860
 C816 C 0.28278 0.94716 0.35999
 C817 C 0.25641 0.94595 0.35667
 C818 C 0.24166 0.93088 0.37262
 C819 C 0.23761 0.90267 0.41079
 C820 C 0.21737 0.91425 0.42349
 C821 C 0.20505 0.90263 0.44404
 C822 C 0.21251 0.87912 0.45188
 C823 C 0.23195 0.86707 0.43854
 C824 C 0.24447 0.87878 0.41818
 H825 H 0.31453 0.93260 0.38154
 H826 H 0.24708 0.95744 0.34253
 H827 H 0.19024 0.91224 0.45436
 H828 H 0.23806 0.84900 0.44457
 H829 H 0.22128 0.93085 0.37033
 H830 H 0.21195 0.93278 0.41840
 H831 H 0.28885 0.90606 0.40904
 H832 H 0.25996 0.86946 0.40864
 C833 C 0.08616 0.39835 0.73571
 C834 C 0.07627 0.37697 0.74713
 C835 C 0.05971 0.36175 0.73337
 C836 C 0.05262 0.36774 0.70798
 C837 C 0.06304 0.38878 0.69642
 C838 C 0.07957 0.40388 0.71010
 C839 C 0.10199 0.41582 0.75065
 C840 C 0.12221 0.42823 0.73865
 C841 C 0.13466 0.44734 0.75131
 C842 C 0.12733 0.45415 0.77626
 C843 C 0.10812 0.44104 0.78890
 C844 C 0.09554 0.42196 0.77620
 H845 H 0.05201 0.34564 0.74279
 H846 H 0.05800 0.39394 0.67691
 H847 H 0.14942 0.45740 0.74132
 H848 H 0.10213 0.44633 0.80810
 H849 H 0.08647 0.42042 0.70086
 H850 H 0.12788 0.42366 0.71915
 H851 H 0.08117 0.37214 0.76677
 H852 H 0.07989 0.41295 0.78585
 C853 C 0.08265 0.60134 0.25973
 C854 C 0.07017 0.62082 0.24740
 C855 C 0.05466 0.63669 0.26152
 C856 C 0.05105 0.63310 0.28814
 C857 C 0.06408 0.61400 0.30053
 C858 C 0.07983 0.59839 0.28651
 C859 C 0.09719 0.58305 0.24469
 C860 C 0.12068 0.57451 0.25368
 C861 C 0.13297 0.55525 0.24112
 C862 C 0.12190 0.54417 0.21951
 C863 C 0.09886 0.55307 0.21000
 C864 C 0.08666 0.57251 0.22239
 H865 H 0.04478 0.65122 0.25145
 H866 H 0.06172 0.61082 0.32103
 H867 H 0.15070 0.54840 0.24874
 H868 H 0.09001 0.54449 0.19345
 H869 H 0.08902 0.58337 0.29645
 H870 H 0.12923 0.58241 0.27075
 H871 H 0.07215 0.62353 0.22678
 H872 H 0.06844 0.57855 0.21526
 C873 C 0.91835 0.39690 0.25760
 C874 C 0.93144 0.37774 0.24537
 C875 C 0.94664 0.36178 0.25974
 C876 C 0.94933 0.36499 0.28651
 C877 C 0.93567 0.38375 0.29877
 C878 C 0.92022 0.39943 0.28449
 C879 C 0.90421 0.41533 0.24238
 C880 C 0.91550 0.42644 0.22073
 C881 C 0.90360 0.44603 0.20828
 C882 C 0.88009 0.45449 0.21706
 C883 C 0.86828 0.44284 0.23799
 C884 C 0.88028 0.42344 0.25063
 H885 H 0.95703 0.34753 0.24977
 H886 H 0.93734 0.38663 0.31938
 H887 H 0.91302 0.45505 0.19229
 H888 H 0.85018 0.44935 0.24505
 H889 H 0.91054 0.41420 0.29436
 H890 H 0.93407 0.42074 0.21420
 H891 H 0.93020 0.37536 0.22466
 H892 H 0.87115 0.41511 0.26719
 C893 C 0.91119 0.60039 0.73452
 C894 C 0.91824 0.59507 0.70898
 C895 C 0.93512 0.61021 0.69572
 C896 C 0.94544 0.63107 0.70764
 C897 C 0.93790 0.63686 0.73295
 C898 C 0.92099 0.62160 0.74630
 C899 C 0.89503 0.58283 0.74905
 C900 C 0.90099 0.57640 0.77464
 C901 C 0.88816 0.55720 0.78695
 C902 C 0.86919 0.54423 0.77387
 C903 C 0.86232 0.55133 0.74887
 C904 C 0.87501 0.57057 0.73661
 H905 H 0.94051 0.60520 0.67626
 H906 H 0.94551 0.65283 0.74264
 H907 H 0.89381 0.55169 0.80619
 H908 H 0.84774 0.54139 0.73855
 H909 H 0.91575 0.62627 0.76589
 H910 H 0.91648 0.58528 0.78463
 H911 H 0.91143 0.57866 0.69949
 H912 H 0.86971 0.57536 0.71707
 C913 C 0.72904 0.59707 0.91363
 C914 C 0.70483 0.59075 0.92271
 C915 C 0.69186 0.60610 0.93966
 C916 C 0.70273 0.62827 0.94813
 C917 C 0.72680 0.63489 0.93856
 C918 C 0.73982 0.61941 0.92157
 C919 C 0.74324 0.57964 0.89703
 C920 C 0.76908 0.57502 0.90148
 C921 C 0.78153 0.55624 0.88818
 C922 C 0.76837 0.54189 0.87018
 C923 C 0.74294 0.54713 0.86488
 C924 C 0.73053 0.56592 0.87805
 H925 H 0.67341 0.60023 0.94647
 H926 H 0.73581 0.65183 0.94449
 H927 H 0.80109 0.55218 0.89272
 H928 H 0.73251 0.53615 0.85109
 H929 H 0.75837 0.62486 0.91471
 H930 H 0.77932 0.58505 0.91617
 H931 H 0.69616 0.57349 0.91735
 H932 H 0.71075 0.56929 0.87388
 C933 C 0.26846 0.40033 0.91500
 C934 C 0.29291 0.40682 0.92313
 C935 C 0.30644 0.39173 0.93987
 C936 C 0.29589 0.36965 0.94909
 C937 C 0.27158 0.36284 0.94044
 C938 C 0.25799 0.37807 0.92366
 C939 C 0.25368 0.41758 0.89871
 C940 C 0.22801 0.42225 0.90410
 C941 C 0.21517 0.44102 0.89117
 C942 C 0.22776 0.45529 0.87263
 C943 C 0.25296 0.44994 0.86634
 C944 C 0.26576 0.43115 0.87913
 H945 H 0.32506 0.39773 0.94596
 H946 H 0.26280 0.34596 0.94697
 H947 H 0.19579 0.44516 0.89644
 H948 H 0.26295 0.46087 0.85212
 H949 H 0.23925 0.37249 0.91755
 H950 H 0.21826 0.41231 0.91925
 H951 H 0.30137 0.42404 0.91721
 H952 H 0.28538 0.42773 0.87424
 C953 C 0.26986 0.60110 0.08862
 C954 C 0.29407 0.59462 0.07977
 C955 C 0.30713 0.60962 0.06246
 C956 C 0.29636 0.63162 0.05342
 C957 C 0.27232 0.63845 0.06282
 C958 C 0.25919 0.62329 0.08014
 C959 C 0.25548 0.58388 0.10540
 C960 C 0.22976 0.57895 0.10060
 C961 C 0.21728 0.56007 0.11382
 C962 C 0.23028 0.54593 0.13213
 C963 C 0.25555 0.55160 0.13788
 C964 C 0.26800 0.57048 0.12476
 H965 H 0.32556 0.60361 0.05582
 H966 H 0.26338 0.65526 0.05646
 H967 H 0.19788 0.55568 0.10888
 H968 H 0.26589 0.54077 0.15187
 H969 H 0.24062 0.62884 0.08679
 H970 H 0.21968 0.58875 0.08562
 H971 H 0.30266 0.57746 0.08555
 H972 H 0.28769 0.57408 0.12917
 C973 C 0.73314 0.39881 0.08533
 C974 C 0.70896 0.40524 0.07641
 C975 C 0.69582 0.38998 0.05951
 C976 C 0.70648 0.36775 0.05098
 C977 C 0.73059 0.36110 0.06025
 C978 C 0.74380 0.37653 0.07717
 C979 C 0.74740 0.41608 0.10206
 C980 C 0.77315 0.42101 0.09734
 C981 C 0.78556 0.43982 0.11066
 C982 C 0.77246 0.45384 0.12901
 C983 C 0.74716 0.44819 0.13464
 C984 C 0.73477 0.42939 0.12141
 H985 H 0.67736 0.39588 0.05291
 H986 H 0.73945 0.34414 0.05425
 H987 H 0.80500 0.44421 0.10581
 H988 H 0.73675 0.45892 0.14866
 H989 H 0.76236 0.37104 0.08386
 H990 H 0.78330 0.41127 0.08237
 H991 H 0.70041 0.42249 0.08194
 H992 H 0.71506 0.42576 0.12576
 C993 C 0.91495 0.73502 0.60309
 C994 C 0.92279 0.71172 0.59483
 C995 C 0.93937 0.69779 0.60973
 C996 C 0.94860 0.70671 0.63343
 C997 C 0.94024 0.72985 0.64202
 C998 C 0.92371 0.74390 0.62691
 C999 C 0.89888 0.75028 0.58594
 C1000 C 0.90475 0.77512 0.58160
 C1001 C 0.89222 0.78836 0.56232
 C1002 C 0.87352 0.77701 0.54725
 C1003 C 0.86666 0.75267 0.55252
 C1004 C 0.87913 0.73945 0.57175
 H1005 H 0.94523 0.68011 0.60233
 H1006 H 0.94681 0.73737 0.66016
 H1007 H 0.89802 0.80702 0.55822
 H1008 H 0.85237 0.74360 0.54096
 H1009 H 0.91786 0.76175 0.63380
 H1010 H 0.92004 0.78387 0.59203
 H1011 H 0.91674 0.70453 0.57637
 H1012 H 0.87395 0.72046 0.57491
 C1013 C 0.91324 0.26520 0.39463
 C1014 C 0.92199 0.25542 0.37117
 C1015 C 0.93927 0.26852 0.35588
 C1016 C 0.94838 0.29162 0.36388
 C1017 C 0.93919 0.30143 0.38721
 C1018 C 0.92191 0.28843 0.40231
 C1019 C 0.89625 0.25099 0.41199
 C1020 C 0.87698 0.26297 0.42584
 C1021 C 0.86373 0.25072 0.44531
 C1022 C 0.86925 0.22621 0.45110
 C1023 C 0.88736 0.21369 0.43633
 C1024 C 0.90073 0.22597 0.41685
 H1025 H 0.94578 0.26033 0.33804
 H1026 H 0.94562 0.31911 0.39417
 H1027 H 0.84989 0.26067 0.45664
 H1028 H 0.89206 0.19484 0.44083
 H1029 H 0.91592 0.29630 0.42050
 H1030 H 0.87280 0.28210 0.42225
 H1031 H 0.91552 0.23761 0.36471
 H1032 H 0.91560 0.21632 0.40669
 C1033 C 0.08560 0.26466 0.60321
 C1034 C 0.07653 0.25557 0.62688
 C1035 C 0.05968 0.26944 0.64184
 C1036 C 0.05133 0.29259 0.63325
 C1037 C 0.06089 0.30172 0.60973
 C1038 C 0.07775 0.28797 0.59498
 C1039 C 0.10201 0.24963 0.58616
 C1040 C 0.09645 0.22475 0.58169
 C1041 C 0.10924 0.21177 0.56237
 C1042 C 0.12782 0.22346 0.54740
 C1043 C 0.13442 0.24781 0.55281
 C1044 C 0.12175 0.26074 0.57211
 H1045 H 0.05286 0.26177 0.65985
 H1046 H 0.05506 0.31942 0.60234
 H1047 H 0.10372 0.19306 0.55817
 H1048 H 0.14866 0.25710 0.54132
 H1049 H 0.08402 0.29532 0.57663
 H1050 H 0.08119 0.21576 0.59202
 H1051 H 0.08238 0.23770 0.63376
 H1052 H 0.12673 0.27976 0.57540
 C1053 C 0.08555 0.73285 0.39639
 C1054 C 0.07679 0.70963 0.40404
 C1055 C 0.05975 0.69659 0.38874
 C1056 C 0.05094 0.70640 0.36526
 C1057 C 0.06020 0.72946 0.35728
 C1058 C 0.07722 0.74258 0.37276
 C1059 C 0.10214 0.74719 0.41393
 C1060 C 0.12133 0.73542 0.42805
 C1061 C 0.13439 0.74792 0.44742
 C1062 C 0.12871 0.77248 0.45287
 C1063 C 0.11051 0.78470 0.43795
 C1064 C 0.09738 0.77218 0.41855
 H1065 H 0.05320 0.67893 0.39567
 H1066 H 0.05399 0.73763 0.33932
 H1067 H 0.14828 0.73818 0.45886
 H1068 H 0.10560 0.80354 0.44219
 H1069 H 0.08378 0.76039 0.36631
 H1070 H 0.12566 0.71629 0.42468
 H1071 H 0.08250 0.70179 0.42234
 H1072 H 0.08253 0.78166 0.40820
 C1073 C 0.60946 0.91806 0.74614
 C1074 C 0.60852 0.91776 0.71906
 C1075 C 0.62461 0.93275 0.70457
 C1076 C 0.64222 0.94816 0.71681
 C1077 C 0.64412 0.94753 0.74385
 C1078 C 0.62773 0.93275 0.75841
 C1079 C 0.59000 0.90463 0.76127
 C1080 C 0.58275 0.88072 0.75430
 C1081 C 0.56224 0.86928 0.76647
 C1082 C 0.54861 0.88160 0.78574
 C1083 C 0.55621 0.90517 0.79326
 C1084 C 0.57687 0.91654 0.78127
 H1085 H 0.62273 0.93282 0.68375
 H1086 H 0.65743 0.95931 0.75380
 H1087 H 0.55645 0.85116 0.76029
 H1088 H 0.54570 0.91500 0.80793
 H1089 H 0.62893 0.93319 0.77926
 H1090 H 0.59260 0.87112 0.73901
 H1091 H 0.59448 0.90682 0.70909
 H1092 H 0.58181 0.93509 0.78677
 C1093 C 0.39512 0.92039 0.25377
 C1094 C 0.37636 0.93454 0.24165
 C1095 C 0.35974 0.94887 0.25634
 C1096 C 0.36192 0.94960 0.28336
 C1097 C 0.38023 0.93489 0.29545
 C1098 C 0.39653 0.92033 0.28083
 C1099 C 0.41438 0.90703 0.23844
 C1100 C 0.42168 0.88315 0.24543
 C1101 C 0.44185 0.87165 0.23287
 C1102 C 0.45510 0.88388 0.21321
 C1103 C 0.44748 0.90744 0.20572
 C1104 C 0.42713 0.91886 0.21809
 H1105 H 0.34588 0.96010 0.24651
 H1106 H 0.38232 0.93504 0.31624
 H1107 H 0.44769 0.85354 0.23903
 H1108 H 0.45772 0.91720 0.19075
 H1109 H 0.41097 0.90980 0.29065
 H1110 H 0.41211 0.87361 0.26098
 H1111 H 0.37482 0.93480 0.22081
 H1112 H 0.42211 0.93738 0.21256
 C1113 C 0.60105 0.08329 0.26676
 C1114 C 0.59448 0.07311 0.29078
 C1115 C 0.61053 0.05652 0.30305
 C1116 C 0.63358 0.04964 0.29161
 C1117 C 0.64039 0.06005 0.26775
 C1118 C 0.62425 0.07668 0.25541
 C1119 C 0.58305 0.09984 0.25332
 C1120 C 0.56881 0.11700 0.26744
 C1121 C 0.54954 0.13033 0.25555
 C1122 C 0.54434 0.12699 0.22928
 C1123 C 0.55921 0.11077 0.21479
 C1124 C 0.57848 0.09732 0.22670
 H1125 H 0.60466 0.04882 0.32138
 H1126 H 0.65805 0.05514 0.25846
 H1127 H 0.53813 0.14273 0.26701
 H1128 H 0.55517 0.10776 0.19455
 H1129 H 0.62989 0.08436 0.23700
 H1130 H 0.57215 0.11965 0.28786
 H1131 H 0.57655 0.07744 0.29982
 H1132 H 0.58892 0.08407 0.21537
 C1133 C 0.39651 0.08240 0.73546
 C1134 C 0.37273 0.07588 0.74563
 C1135 C 0.35715 0.05916 0.73264
 C1136 C 0.36506 0.04863 0.70923
 C1137 C 0.38858 0.05559 0.69882
 C1138 C 0.40411 0.07220 0.71178
 C1139 C 0.41417 0.09853 0.74999
 C1140 C 0.43000 0.11514 0.73680
 C1141 C 0.44925 0.12755 0.74986
 C1142 C 0.45277 0.12389 0.77637
 C1143 C 0.43617 0.10846 0.78993
 C1144 C 0.41700 0.09587 0.77686
 H1145 H 0.33909 0.05424 0.74112
 H1146 H 0.39530 0.04779 0.68087
 H1147 H 0.46203 0.13932 0.73912
 H1148 H 0.43892 0.10519 0.81036
 H1149 H 0.42250 0.07641 0.70362
 H1150 H 0.42803 0.11793 0.71621
 H1151 H 0.36624 0.08359 0.76371
 H1152 H 0.40534 0.08303 0.78754
 C1153 C 0.60233 0.73417 0.08726
 C1154 C 0.59488 0.71025 0.08063
 C1155 C 0.60927 0.69632 0.06350
 C1156 C 0.63151 0.70592 0.05252
 C1157 C 0.63939 0.72962 0.05959
 C1158 C 0.62488 0.74365 0.07674
 C1159 C 0.58556 0.74943 0.10373
 C1160 C 0.57240 0.73883 0.12458
 C1161 C 0.55351 0.75191 0.13742
 C1162 C 0.54766 0.77593 0.12991
 C1163 C 0.56172 0.78713 0.11015
 C1164 C 0.58058 0.77401 0.09719
 H1165 H 0.60264 0.67814 0.05850
 H1166 H 0.65647 0.73752 0.05147
 H1167 H 0.54272 0.74297 0.15254
 H1168 H 0.55715 0.80555 0.10387
 H1169 H 0.63118 0.76198 0.08162
 H1170 H 0.57609 0.72008 0.13034
 H1171 H 0.57739 0.70254 0.08799
 H1172 H 0.59018 0.78260 0.08106
 C1173 C 0.39996 0.26685 0.08802
 C1174 C 0.40737 0.29049 0.08022
 C1175 C 0.39266 0.30390 0.06295
 C1176 C 0.37011 0.29407 0.05296
 C1177 C 0.36234 0.27061 0.06109
 C1178 C 0.37718 0.25709 0.07840
 C1179 C 0.41685 0.25222 0.10498
 C1180 C 0.43019 0.26365 0.12515
 C1181 C 0.44900 0.25100 0.13855
 C1182 C 0.45460 0.22662 0.13229
 C1183 C 0.44042 0.21466 0.11321
 C1184 C 0.42163 0.22735 0.09966
 H1185 H 0.39923 0.32190 0.05710
 H1186 H 0.34505 0.26254 0.05375
 H1187 H 0.45988 0.26051 0.15317
 H1188 H 0.44478 0.19592 0.10794
 H1189 H 0.37091 0.23899 0.08418
 H1190 H 0.42666 0.28265 0.12999
 H1191 H 0.42502 0.29838 0.08686
 H1192 H 0.41187 0.21811 0.08409
 C1193 C 0.59932 0.25490 0.92446
 C1194 C 0.58865 0.27401 0.93888
 C1195 C 0.60400 0.28972 0.95318
 C1196 C 0.63036 0.28641 0.95373
 C1197 C 0.64114 0.26739 0.93906
 C1198 C 0.62570 0.25189 0.92424
 C1199 C 0.58241 0.23815 0.91022
 C1200 C 0.58341 0.23667 0.88319
 C1201 C 0.56435 0.22427 0.86965
 C1202 C 0.54441 0.21283 0.88305
 C1203 C 0.54441 0.21308 0.91014
 C1204 C 0.56316 0.22573 0.92359
 H1205 H 0.59510 0.30409 0.96437
 H1206 H 0.66141 0.26445 0.93914
 H1207 H 0.56443 0.22466 0.84875
 H1208 H 0.52912 0.20451 0.92082
 H1209 H 0.63423 0.23723 0.91317
 H1210 H 0.59801 0.24636 0.87257
 H1211 H 0.56833 0.27671 0.93912
 H1212 H 0.56210 0.22668 0.94445
 C1213 C 0.39784 0.73462 0.91210
 C1214 C 0.37547 0.74450 0.92253
 C1215 C 0.36076 0.73085 0.93993
 C1216 C 0.36825 0.70713 0.94733
 C1217 C 0.39029 0.69713 0.93643
 C1218 C 0.40488 0.71068 0.91906
 C1219 C 0.41485 0.74949 0.89537
 C1220 C 0.42785 0.73847 0.87470
 C1221 C 0.44699 0.75114 0.86169
 C1222 C 0.45328 0.77517 0.86885
 C1223 C 0.43938 0.78679 0.88838
 C1224 C 0.42026 0.77407 0.90152
 H1225 H 0.34385 0.73905 0.94797
 H1226 H 0.39662 0.67892 0.94168
 H1227 H 0.45766 0.74187 0.84674
 H1228 H 0.44427 0.80522 0.89440
 H1229 H 0.42221 0.70266 0.91178
 H1230 H 0.42384 0.71971 0.86922
 H1231 H 0.36948 0.76285 0.91740
 H1232 H 0.41080 0.78299 0.91750
 C1233 C 0.74965 0.92160 0.39348
 C1234 C 0.72318 0.92079 0.39594
 C1235 C 0.70788 0.93546 0.38036
 C1236 C 0.71868 0.95102 0.36172
 C1237 C 0.74509 0.95102 0.35840
 C1238 C 0.76047 0.93659 0.37432
 C1239 C 0.76571 0.90825 0.41225
 C1240 C 0.78561 0.92044 0.42491
 C1241 C 0.79849 0.90906 0.44520
 C1242 C 0.79197 0.88519 0.45284
 C1243 C 0.77286 0.87259 0.43953
 C1244 C 0.75979 0.88404 0.41943
 H1245 H 0.68757 0.93504 0.38332
 H1246 H 0.75393 0.96293 0.34426
 H1247 H 0.81300 0.91912 0.45550
 H1248 H 0.76742 0.85425 0.44540
 H1249 H 0.78083 0.93745 0.37198
 H1250 H 0.79032 0.93921 0.41999
 H1251 H 0.71435 0.90961 0.41073
 H1252 H 0.74459 0.87423 0.40993
 C1253 C 0.25434 0.91708 0.60568
 C1254 C 0.24300 0.93117 0.62522
 C1255 C 0.25780 0.94615 0.64116
 C1256 C 0.28413 0.94762 0.63750
 C1257 C 0.29549 0.93297 0.61846
 C1258 C 0.28078 0.91774 0.60285
 C1259 C 0.23876 0.90318 0.58694
 C1260 C 0.24576 0.87938 0.57941
 C1261 C 0.23297 0.86751 0.55937
 C1262 C 0.21310 0.87933 0.54647
 C1263 C 0.20554 0.90276 0.55444
 C1264 C 0.21813 0.91452 0.57468
 H1265 H 0.24853 0.95731 0.65562
 H1266 H 0.31575 0.93368 0.61524
 H1267 H 0.23917 0.84951 0.55324
 H1268 H 0.19042 0.91220 0.54445
 H1269 H 0.28999 0.90728 0.58777
 H1270 H 0.26154 0.87022 0.58860
 H1271 H 0.22265 0.93088 0.62784
 H1272 H 0.21257 0.93298 0.57988
 C1273 C 0.26001 0.08136 0.39635
 C1274 C 0.24942 0.07309 0.37304
 C1275 C 0.26254 0.05638 0.35747
 C1276 C 0.28640 0.04752 0.36503
 C1277 C 0.29702 0.05603 0.38820
 C1278 C 0.28401 0.07272 0.40363
 C1279 C 0.24585 0.09798 0.41386
 C1280 C 0.25870 0.11654 0.42740
 C1281 C 0.24645 0.12973 0.44679
 C1282 C 0.22107 0.12482 0.45280
 C1283 C 0.20770 0.10732 0.43840
 C1284 C 0.21999 0.09402 0.41900
 H1285 H 0.25386 0.05017 0.33972
 H1286 H 0.31534 0.04957 0.39463
 H1287 H 0.25703 0.14311 0.45785
 H1288 H 0.18818 0.10311 0.44308
 H1289 H 0.29249 0.07836 0.42170
 H1290 H 0.27850 0.12029 0.42358
 H1291 H 0.23101 0.07952 0.36688
 H1292 H 0.20966 0.07970 0.40907
 C1293 C 0.73607 0.08682 0.60500
 C1294 C 0.71214 0.07759 0.59819
 C1295 C 0.69983 0.06047 0.61383
 C1296 C 0.71112 0.05209 0.63672
 C1297 C 0.73483 0.06168 0.64391
 C1298 C 0.74721 0.07882 0.62816
 C1299 C 0.74971 0.10358 0.58709
 C1300 C 0.77563 0.10023 0.58186
 C1301 C 0.78751 0.11360 0.56218
 C1302 C 0.77369 0.13056 0.54755
 C1303 C 0.74821 0.13486 0.55359
 C1304 C 0.73636 0.12161 0.57328
 H1305 H 0.68162 0.05346 0.60768
 H1306 H 0.74402 0.05560 0.66145
 H1307 H 0.80711 0.10983 0.55749
 H1308 H 0.73725 0.14780 0.54235
 H1309 H 0.76556 0.08573 0.63401
 H1310 H 0.78636 0.08632 0.59195
 H1311 H 0.70322 0.08299 0.58026
 H1312 H 0.71650 0.12491 0.57713
 C1313 C 0.91782 0.60217 0.25751
 C1314 C 0.91904 0.59988 0.28448
 C1315 C 0.93447 0.61549 0.29892
 C1316 C 0.94875 0.63393 0.28674
 C1317 C 0.94669 0.63695 0.25988
 C1318 C 0.93151 0.62106 0.24536
 C1319 C 0.90378 0.58370 0.24219
 C1320 C 0.87959 0.57581 0.24998
 C1321 C 0.86767 0.55633 0.23735
 C1322 C 0.87982 0.54438 0.21687
 C1323 C 0.90361 0.55262 0.20853
 C1324 C 0.91543 0.57228 0.22096
 H1325 H 0.93564 0.61276 0.31959
 H1326 H 0.95757 0.65095 0.24998
 H1327 H 0.84937 0.55000 0.24411
 H1328 H 0.91330 0.54337 0.19290
 H1329 H 0.93078 0.62325 0.22460
 H1330 H 0.87018 0.58438 0.26622
 H1331 H 0.90889 0.58533 0.29430
 H1332 H 0.93420 0.57780 0.21479
 C1333 C 0.91439 0.39967 0.73368
 C1334 C 0.92271 0.40572 0.70870
 C1335 C 0.93960 0.39058 0.69555
 C1336 C 0.94870 0.36897 0.70704
 C1337 C 0.94009 0.36261 0.73185
 C1338 C 0.92313 0.37785 0.74507
 C1339 C 0.89772 0.41689 0.74798
 C1340 C 0.90220 0.42218 0.77416
 C1341 C 0.88873 0.44085 0.78657
 C1342 C 0.87056 0.45442 0.77301
 C1343 C 0.86521 0.44847 0.74730
 C1344 C 0.87853 0.42977 0.73494
 H1345 H 0.94587 0.39608 0.67650
 H1346 H 0.94674 0.34607 0.74121
 H1347 H 0.89324 0.44547 0.80636
 H1348 H 0.85128 0.45886 0.73658
 H1349 H 0.91692 0.37261 0.76423
 H1350 H 0.91702 0.41279 0.78466
 H1351 H 0.91677 0.42260 0.69953
 H1352 H 0.87432 0.42584 0.71492
 C1353 C 0.08322 0.59882 0.73605
 C1354 C 0.07539 0.59284 0.71092
 C1355 C 0.05876 0.60801 0.69749
 C1356 C 0.04944 0.62958 0.70882
 C1357 C 0.05756 0.63587 0.73379
 C1358 C 0.07425 0.62060 0.74730
 C1359 C 0.09962 0.58157 0.75063
 C1360 C 0.09458 0.57615 0.77671
 C1361 C 0.10781 0.55743 0.78932
 C1362 C 0.12628 0.54396 0.77607
 C1363 C 0.13219 0.55006 0.75050
 C1364 C 0.11911 0.56879 0.73793
 H1365 H 0.05288 0.60256 0.67832
 H1366 H 0.05073 0.65239 0.74304
 H1367 H 0.10285 0.55270 0.80900
 H1368 H 0.14636 0.53972 0.74001
 H1369 H 0.08007 0.62578 0.76657
 H1370 H 0.07953 0.58547 0.78694
 H1371 H 0.08154 0.57598 0.70185
 H1372 H 0.12374 0.57281 0.71801
 C1373 C 0.08332 0.39633 0.25822
 C1374 C 0.06985 0.37751 0.24579
 C1375 C 0.05433 0.36159 0.25999
 C1376 C 0.05170 0.36452 0.28681
 C1377 C 0.06576 0.38290 0.29928
 C1378 C 0.08152 0.39853 0.28516
 C1379 C 0.09775 0.41483 0.24320
 C1380 C 0.08664 0.42629 0.22171
 C1381 C 0.09874 0.44601 0.20958
 C1382 C 0.12228 0.45429 0.21850
 C1383 C 0.13394 0.44227 0.23923
 C1384 C 0.12173 0.42273 0.25156
 H1385 H 0.04365 0.34764 0.24987
 H1386 H 0.06415 0.38556 0.31993
 H1387 H 0.08942 0.45531 0.19375
 H1388 H 0.15204 0.44863 0.24644
 H1389 H 0.09148 0.41303 0.29520
 H1390 H 0.06804 0.42077 0.21509
 H1391 H 0.07102 0.37538 0.22504
 H1392 H 0.13074 0.41414 0.26800
   
