data_POSCAR
  _audit_creation_date              2014-09-24
  _audit_creation_method            'ToBaCCo'
  _symmetry_space_group_name_H-M    'P1'
  _symmetry_Int_Tables_number       1
  _symmetry_cell_setting            triclinic
  loop_
  _symmetry_equiv_pos_as_xyz
 x,y,z
_cell_length_a 50.0059
_cell_length_b 51.1639
_cell_length_c 45.9130
_cell_angle_alpha 92.298500
_cell_angle_beta 90.631400
_cell_angle_gamma 90.388100
loop_
  _atom_site_label
  _atom_site_type_symbol
  _atom_site_fract_x
  _atom_site_fract_y
  _atom_site_fract_z
C1 C 0.35750 -0.00224 0.24848
 C2 C 0.14248 -0.00637 0.74856
 C3 C 0.63499 0.49492 0.25247
 C4 C 0.85920 0.51952 0.74950
 C5 C 0.23836 0.37796 1.01152
 C6 C 0.75382 0.11722 0.97353
 C7 C 0.25055 0.61159 0.50879
 C8 C 0.75672 0.88255 0.51287
 C9 C 0.00188 0.24817 0.37646
 C10 C 0.00440 0.75850 0.12510
 C11 C 0.49662 0.24140 0.61175
 C12 C 0.50609 0.74841 0.89269
 C13 C -0.26293 0.61139 0.98709
 C14 C -0.25593 0.38166 0.49284
 C15 C 0.25114 -0.11208 -0.00080
 C16 C 0.24868 1.10024 0.49506
 C17 C 0.14476 0.49165 0.24911
 C18 C -0.14229 0.99514 0.24636
 C19 C 0.35744 0.49789 -0.25433
 C20 C 0.64587 0.01708 -0.24701
 C21 C 0.00933 0.25105 0.87433
 C22 C 0.49569 0.25403 0.12415
 C23 C -0.00220 0.75313 0.61466
 C24 C 0.49902 0.73799 0.36943
 B25 B -0.01365 0.02192 1.02588
 B26 B -0.02681 0.01627 0.99232
 B27 B 0.00023 0.03582 0.99685
 B28 B 0.02001 0.02385 1.02315
 B29 B 0.00490 -0.00381 1.03457
 B30 B -0.02436 -0.00854 1.01545
 B31 B 0.01682 -0.01144 0.97680
 B32 B 0.02993 -0.00586 1.01034
 B33 B 0.00300 -0.02546 1.00576
 B34 B -0.01689 -0.01347 0.97953
 B35 B -0.00176 0.01418 0.96813
 B36 B 0.02746 0.01892 0.98728
 B37 B 0.47764 0.51111 0.52313
 B38 B 0.46499 0.50346 0.48977
 B39 B 0.49112 0.52427 0.49342
 B40 B 0.51130 0.51427 0.52052
 B41 B 0.49729 0.48677 0.53347
 B42 B 0.46838 0.47993 0.51443
 B43 B 0.50964 0.47685 0.47609
 B44 B 0.52253 0.48452 0.50936
 B45 B 0.49642 0.46378 0.50601
 B46 B 0.47616 0.47366 0.47886
 B47 B 0.49014 0.50140 0.46581
 B48 B 0.51911 0.50801 0.48483
 B49 B 0.51499 0.97763 0.52531
 B50 B 0.53216 0.97855 0.49399
 B51 B 0.50658 0.95730 0.49651
 B52 B 0.48236 0.97162 0.51704
 B53 B 0.49327 1.00243 0.52675
 B54 B 0.52438 1.00669 0.51242
 B55 B 0.48916 0.99863 0.46725
 B56 B 0.47185 0.99751 0.49835
 B57 B 0.49745 1.01875 0.49594
 B58 B 0.52172 1.00447 0.47538
 B59 B 0.51067 0.97375 0.46557
 B60 B 0.47968 0.96944 0.47999
 B61 B 0.00815 0.48824 1.02411
 B62 B 0.02294 0.49135 0.99132
 B63 B -0.00548 0.47352 0.99391
 B64 B -0.02545 0.48832 1.01886
 B65 B -0.00913 0.51582 1.03186
 B66 B 0.02111 0.51744 1.01509
 B67 B -0.01810 0.52073 0.97350
 B68 B -0.03297 0.51789 1.00593
 B69 B -0.00455 0.53549 1.00368
 B70 B 0.01541 0.52073 0.97863
 B71 B -0.00110 0.49331 0.96555
 B72 B -0.03114 0.49185 0.98266
 B73 B 0.00672 0.51425 0.46326
 B74 B 0.02213 0.51162 0.49566
 B75 B -0.00239 0.53358 0.49200
 B76 B -0.02594 0.52046 0.46892
 B77 B -0.01562 0.48983 0.45860
 B78 B 0.01439 0.48439 0.47531
 B79 B -0.02293 0.49158 0.51773
 B80 B -0.03830 0.49418 0.48528
 B81 B -0.01374 0.47220 0.48890
 B82 B 0.00973 0.48530 0.51205
 B83 B -0.00053 0.51601 0.52235
 B84 B -0.03054 0.52144 0.50563
 B85 B 0.51765 0.02010 -0.02554
 B86 B 0.53513 0.01487 0.00519
 B87 B 0.51097 0.03756 0.00535
 B88 B 0.48562 0.02663 -0.01671
 B89 B 0.49449 -0.00348 -0.03043
 B90 B 0.52541 -0.01076 -0.01682
 B91 B 0.49106 -0.00563 0.02894
 B92 B 0.47374 -0.00054 -0.00177
 B93 B 0.49787 -0.02322 -0.00202
 B94 B 0.52312 -0.01234 0.02019
 B95 B 0.51433 0.01785 0.03384
 B96 B 0.48351 0.02521 0.02009
 B97 B 0.46840 0.48373 -0.02171
 B98 B 0.45633 0.48960 0.01189
 B99 B 0.48126 0.46806 0.00686
 B100 B 0.50176 0.47898 -0.01902
 B101 B 0.48939 0.50806 -0.02981
 B102 B 0.46097 0.51467 -0.01058
 B103 B 0.50273 0.51339 0.02817
 B104 B 0.51493 0.50737 -0.00545
 B105 B 0.49005 0.52903 -0.00040
 B106 B 0.46936 0.51807 0.02542
 B107 B 0.48182 0.48905 0.03621
 B108 B 0.51024 0.48246 0.01703
 B109 B -0.02734 0.98964 0.47990
 B110 B -0.03913 0.99645 0.51352
 B111 B -0.01473 0.97435 0.50870
 B112 B 0.00590 0.98446 0.48251
 B113 B -0.00605 1.01357 0.47111
 B114 B -0.03426 1.02066 0.49049
 B115 B 0.00780 1.01979 0.52895
 B116 B 0.01962 1.01271 0.49516
 B117 B -0.00483 1.03512 0.50008
 B118 B -0.02544 1.02498 0.52625
 B119 B -0.01364 0.99583 0.53757
 B120 B 0.01447 0.98844 0.51856
 B121 B 0.76573 0.23426 0.21280
 B122 B 0.76174 0.21697 0.24286
 B123 B 0.78404 0.24160 0.24327
 B124 B 0.77159 0.26583 0.22324
 B125 B 0.74082 0.25580 0.21068
 B126 B 0.73475 0.22522 0.22290
 B127 B 0.73958 0.25883 0.27031
 B128 B 0.74371 0.27612 0.24035
 B129 B 0.72138 0.25140 0.23993
 B130 B 0.73385 0.22722 0.26002
 B131 B 0.76453 0.23734 0.27264
 B132 B 0.77065 0.26784 0.26038
 B133 B 0.74194 0.78852 0.74587
 B134 B 0.74956 0.80246 0.77879
 B135 B 0.72815 0.77679 0.77606
 B136 B 0.73860 0.75587 0.74936
 B137 B 0.76705 0.76879 0.73547
 B138 B 0.77368 0.79783 0.75380
 B139 B 0.77648 0.75906 0.79296
 B140 B 0.76867 0.74520 0.75983
 B141 B 0.79026 0.77067 0.76265
 B142 B 0.77993 0.79166 0.78944
 B143 B 0.75127 0.77903 0.80314
 B144 B 0.74468 0.74988 0.78505
 B145 B 0.27014 0.25581 0.77885
 B146 B 0.26542 0.27203 0.74810
 B147 B 0.28858 0.24836 0.74896
 B148 B 0.27707 0.22413 0.76975
 B149 B 0.24603 0.23305 0.78129
 B150 B 0.23878 0.26293 0.76782
 B151 B 0.24463 0.22849 0.72167
 B152 B 0.24947 0.21199 0.75224
 B153 B 0.22631 0.23564 0.75152
 B154 B 0.23779 0.25998 0.73082
 B155 B 0.26877 0.25096 0.71918
 B156 B 0.27599 0.22112 0.73261
 B157 B 0.23930 0.73145 0.27970
 B158 B 0.24212 0.71420 0.24772
 B159 B 0.21808 0.73712 0.25203
 B160 B 0.23081 0.76243 0.27280
 B161 B 0.26299 0.75507 0.28104
 B162 B 0.26981 0.72484 0.26582
 B163 B 0.25869 0.75769 0.22186
 B164 B 0.25618 0.77488 0.25358
 B165 B 0.27998 0.75195 0.24965
 B166 B 0.26737 0.72671 0.22880
 B167 B 0.23501 0.73433 0.22036
 B168 B 0.22829 0.76427 0.23592
 B169 B 0.27365 0.73562 0.72962
 B170 B 0.26380 0.72182 0.76061
 B171 B 0.28353 0.74876 0.76232
 B172 B 0.27428 0.76835 0.73542
 B173 B 0.24813 0.75349 0.71705
 B174 B 0.24191 0.72443 0.73249
 B175 B 0.23278 0.76361 0.77335
 B176 B 0.24247 0.77732 0.74227
 B177 B 0.22281 0.75042 0.74086
 B178 B 0.23219 0.73070 0.76761
 B179 B 0.25816 0.74574 0.78598
 B180 B 0.26425 0.77490 0.77023
 B181 B 0.24420 0.26718 0.24169
 B182 B 0.25004 0.27967 0.27551
 B183 B 0.22636 0.25642 0.26989
 B184 B 0.23686 0.23503 0.24341
 B185 B 0.26778 0.24523 0.23316
 B186 B 0.27595 0.27297 0.25325
 B187 B 0.27035 0.23333 0.29083
 B188 B 0.26461 0.22104 0.25676
 B189 B 0.28821 0.24417 0.26272
 B190 B 0.27768 0.26562 0.28914
 B191 B 0.24678 0.25546 0.29937
 B192 B 0.23863 0.22757 0.27920
 B193 B 0.77174 0.75327 0.28590
 B194 B 0.76527 0.77034 0.25617
 B195 B 0.78907 0.74737 0.25494
 B196 B 0.77922 0.72221 0.27516
 B197 B 0.74847 0.72992 0.28856
 B198 B 0.73980 0.76000 0.27672
 B199 B 0.74466 0.72705 0.22897
 B200 B 0.75127 0.70994 0.25865
 B201 B 0.72737 0.73293 0.25992
 B202 B 0.73732 0.75815 0.23972
 B203 B 0.76800 0.75033 0.22628
 B204 B 0.77669 0.72029 0.23806
 B205 B 0.73569 0.25505 0.76812
 B206 B 0.74413 0.23797 0.73733
 B207 B 0.72320 0.26363 0.73568
 B208 B 0.73328 0.28704 0.76051
 B209 B 0.76104 0.27556 0.77741
 B210 B 0.76752 0.24495 0.76341
 B211 B 0.77236 0.27933 0.71968
 B212 B 0.76424 0.29637 0.75029
 B213 B 0.78490 0.27070 0.75220
 B214 B 0.77485 0.24733 0.72735
 B215 B 0.74715 0.25891 0.71025
 B216 B 0.74059 0.28955 0.72463
 C217 C 0.39811 1.02513 0.26695
 C218 C 0.41639 1.03337 0.28878
 C219 C 0.41274 1.02617 0.31755
 C220 C 0.39020 1.01108 0.32423
 C221 C 0.37233 1.00242 0.30241
 C222 C 0.37683 1.00790 0.27301
 C223 C 0.43378 1.03175 0.33988
 C224 C 0.42752 1.03573 0.36789
 C225 C 0.44503 1.02633 0.39096
 C226 C 0.43655 1.00420 0.40515
 C227 C 0.45155 0.99465 0.42790
 C228 C 0.47505 1.00765 0.43792
 C229 C 0.48408 1.02946 0.42292
 C230 C 0.46920 1.03867 0.39935
 H231 H 0.40120 1.03138 0.24498
 H232 H 0.43349 1.04518 0.28318
 H233 H 0.38685 1.00494 0.34619
 H234 H 0.35520 0.99102 0.30869
 H235 H 0.45441 1.02840 0.33385
 H236 H 0.40678 1.03879 0.37364
 H237 H 0.41805 0.99433 0.39868
 H238 H 0.44372 0.97776 0.43847
 H239 H 0.50221 1.03970 0.42974
 H240 H 0.47606 1.05574 0.38832
 C241 C -0.09289 0.53341 0.76734
 C242 C -0.07479 0.54050 0.78988
 C243 C -0.08331 0.54271 0.81884
 C244 C -0.11032 0.53772 0.82485
 C245 C -0.12822 0.53037 0.80253
 C246 C -0.11973 0.52690 0.77345
 C247 C -0.06359 0.54752 0.84284
 C248 C -0.07056 0.55886 0.86840
 C249 C -0.05680 0.55248 0.89563
 C250 C -0.07183 0.53995 0.91641
 C251 C -0.05955 0.53041 0.94102
 C252 C -0.03206 0.53463 0.94666
 C253 C -0.01707 0.54811 0.92611
 C254 C -0.02930 0.55665 0.90051
 H255 H -0.08569 0.53325 0.74524
 H256 H -0.05411 0.54441 0.78467
 H257 H -0.11764 0.53854 0.84696
 H258 H -0.14886 0.52679 0.80813
 H259 H -0.04408 0.53859 0.84066
 H260 H -0.09011 0.56767 0.87053
 H261 H -0.09298 0.53616 0.91275
 H262 H -0.07178 0.51908 0.95521
 H263 H 0.00422 0.55116 0.92919
 H264 H -0.01735 0.56617 0.88445
 C265 C 0.14068 -0.03175 0.79586
 C266 C 0.12905 -0.03769 0.82226
 C267 C 0.10642 -0.02429 0.83205
 C268 C 0.09671 -0.00345 0.81605
 C269 C 0.10885 0.00300 0.78994
 C270 C 0.12980 -0.01231 0.77821
 C271 C 0.09493 -0.03071 0.86035
 C272 C 0.06862 -0.03001 0.86549
 C273 C 0.05758 -0.03179 0.89514
 C274 C 0.03088 -0.03958 0.89876
 C275 C 0.01858 -0.03635 0.92595
 C276 C 0.03261 -0.02463 0.94988
 C277 C 0.05987 -0.01845 0.94635
 C278 C 0.07221 -0.02219 0.91956
 H279 H 0.15829 -0.04256 0.78934
 H280 H 0.13765 -0.05299 0.83498
 H281 H 0.08021 0.00827 0.82410
 H282 H 0.10142 0.01964 0.77856
 H283 H 0.10868 -0.03643 0.87730
 H284 H 0.05479 -0.02686 0.84765
 H285 H 0.01914 -0.04691 0.88018
 H286 H -0.00249 -0.04102 0.92749
 H287 H 0.07136 -0.00840 0.96351
 H288 H 0.09257 -0.01524 0.91759
 C289 C 0.62995 0.49531 0.30775
 C290 C 0.61635 0.48989 0.33297
 C291 C 0.59165 0.47698 0.33157
 C292 C 0.58092 0.46893 0.30425
 C293 C 0.59447 0.47482 0.27865
 C294 C 0.61863 0.48940 0.27994
 C295 C 0.57764 0.47408 0.35931
 C296 C 0.56152 0.45413 0.36584
 C297 C 0.55035 0.45304 0.39558
 C298 C 0.52395 0.44466 0.39973
 C299 C 0.51163 0.44921 0.42678
 C300 C 0.52548 0.46253 0.44991
 C301 C 0.55271 0.46847 0.44614
 C302 C 0.56515 0.46296 0.41977
 H303 H 0.64951 0.50435 0.31022
 H304 H 0.62534 0.49571 0.35385
 H305 H 0.56192 0.45869 0.30261
 H306 H 0.58602 0.46807 0.25788
 H307 H 0.58200 0.48922 0.37589
 H308 H 0.55594 0.43927 0.34940
 H309 H 0.51228 0.43641 0.38155
 H310 H 0.49064 0.44431 0.42866
 H311 H 0.56417 0.47936 0.46266
 H312 H 0.58601 0.46836 0.41779
 C313 C 0.63131 0.49958 0.19784
 C314 C 0.61770 0.50485 0.17229
 C315 C 0.59135 0.51368 0.17308
 C316 C 0.57897 0.51802 0.20016
 C317 C 0.59258 0.51225 0.22603
 C318 C 0.61858 0.50160 0.22510
 C319 C 0.57728 0.51565 0.14494
 C320 C 0.55903 0.53373 0.13872
 C321 C 0.54664 0.53419 0.10918
 C322 C 0.52021 0.54263 0.10572
 C323 C 0.50682 0.53862 0.07888
 C324 C 0.51963 0.52585 0.05513
 C325 C 0.54678 0.51946 0.05829
 C326 C 0.56029 0.52437 0.08454
 H327 H 0.65182 0.49310 0.19619
 H328 H 0.62779 0.50178 0.15167
 H329 H 0.55861 0.52503 0.20128
 H330 H 0.58270 0.51609 0.24657
 H331 H 0.58314 0.50138 0.12824
 H332 H 0.55239 0.54754 0.15557
 H333 H 0.50938 0.55079 0.12421
 H334 H 0.48591 0.54377 0.07750
 H335 H 0.55742 0.50896 0.04120
 H336 H 0.58117 0.51907 0.08573
 C337 C 0.09459 0.99499 0.72527
 C338 C 0.07737 1.00203 0.70275
 C339 C 0.08719 1.01437 0.67827
 C340 C 0.11490 1.01845 0.67616
 C341 C 0.13207 1.01144 0.69863
 C342 C 0.12220 1.00081 0.72436
 C343 C 0.06823 1.02062 0.65449
 C344 C 0.07378 1.03701 0.63319
 C345 C 0.05614 1.03904 0.60735
 C346 C 0.06771 1.04116 0.57992
 C347 C 0.05212 1.03783 0.55459
 C348 C 0.02451 1.03258 0.55613
 C349 C 0.01259 1.03402 0.58388
 C350 C 0.02823 1.03695 0.60919
 H351 H 0.08611 0.98452 0.74297
 H352 H 0.05624 0.99755 0.70434
 H353 H 0.12365 1.02640 0.65698
 H354 H 0.15335 1.01458 0.69608
 H355 H 0.04919 1.01037 0.65402
 H356 H 0.09278 1.04721 0.63296
 H357 H 0.08915 1.04359 0.57799
 H358 H 0.06222 1.03840 0.53413
 H359 H -0.00870 1.03093 0.58630
 H360 H 0.01857 1.03648 0.63015
 C361 C -0.14060 0.51694 0.69332
 C362 C -0.13087 0.50701 0.66684
 C363 C -0.10896 0.49011 0.66597
 C364 C -0.09761 0.48231 0.69230
 C365 C -0.10776 0.49187 0.71896
 C366 C -0.12854 0.51050 0.72001
 C367 C -0.09888 0.48140 0.63704
 C368 C -0.07298 0.47696 0.63137
 C369 C -0.06242 0.47672 0.60120
 C370 C -0.03778 0.46487 0.59471
 C371 C -0.02586 0.46781 0.56744
 C372 C -0.03824 0.48299 0.54632
 C373 C -0.06326 0.49412 0.55279
 C374 C -0.07512 0.49106 0.57963
 H375 H -0.15804 0.52930 0.69268
 H376 H -0.14042 0.51279 0.64682
 H377 H -0.08137 0.46845 0.69237
 H378 H -0.09931 0.48471 0.73890
 H379 H -0.11312 0.48171 0.61914
 H380 H -0.05864 0.47600 0.64913
 H381 H -0.02737 0.45403 0.61108
 H382 H -0.00646 0.45920 0.56345
 H383 H -0.07341 0.50640 0.53759
 H384 H -0.09348 0.50151 0.58383
 C385 C 0.35820 -0.01382 0.19374
 C386 C 0.37103 -0.02236 0.16829
 C387 C 0.39825 -0.02888 0.16870
 C388 C 0.41196 -0.02817 0.19558
 C389 C 0.39909 -0.01967 0.22104
 C390 C 0.37240 -0.01069 0.22034
 C391 C 0.41164 -0.03377 0.14036
 C392 C 0.43818 -0.03618 0.13680
 C393 C 0.45066 -0.03073 0.10857
 C394 C 0.47475 -0.04265 0.10004
 C395 C 0.48753 -0.03548 0.07439
 C396 C 0.47659 -0.01594 0.05725
 C397 C 0.45267 -0.00392 0.06642
 C398 C 0.43993 -0.01124 0.09144
 H399 H 0.33713 -0.00919 0.19256
 H400 H 0.35971 -0.02325 0.14801
 H401 H 0.43266 -0.03386 0.19730
 H402 H 0.41024 -0.02030 0.24130
 H403 H 0.39916 -0.03224 0.12105
 H404 H 0.45142 -0.03956 0.15498
 H405 H 0.48375 -0.05730 0.11334
 H406 H 0.50616 -0.04476 0.06841
 H407 H 0.44350 0.01147 0.05437
 H408 H 0.42211 -0.00070 0.09792
 C409 C 0.28663 0.37896 0.02983
 C410 C 0.31064 0.39149 0.03742
 C411 C 0.31250 0.41883 0.03890
 C412 C 0.28901 0.43339 0.03519
 C413 C 0.26473 0.42073 0.02785
 C414 C 0.26358 0.39330 0.02277
 C415 C 0.33966 0.43063 0.04213
 C416 C 0.34591 0.45576 0.03792
 C417 C 0.37400 0.46389 0.03318
 C418 C 0.38324 0.48882 0.04258
 C419 C 0.40946 0.49685 0.03658
 C420 C 0.42676 0.48027 0.02051
 C421 C 0.41700 0.45552 0.01077
 C422 C 0.39118 0.44744 0.01707
 H423 H 0.28639 0.35779 0.02790
 H424 H 0.32818 0.37963 0.04089
 H425 H 0.28920 0.45449 0.03757
 H426 H 0.24715 0.43270 0.02604
 H427 H 0.35595 0.41714 0.04537
 H428 H 0.33054 0.47035 0.03599
 H429 H 0.37016 0.50207 0.05455
 H430 H 0.41594 0.51620 0.04413
 H431 H 0.42885 0.44247 -0.00280
 H432 H 0.38437 0.42858 0.00825
 C433 C -0.19376 0.88718 0.52693
 C434 C -0.17196 0.90070 0.53908
 C435 C -0.17513 0.92563 0.55197
 C436 C -0.20096 0.93585 0.55516
 C437 C -0.22315 0.92164 0.54396
 C438 C -0.21962 0.89818 0.52713
 C439 C -0.15062 0.94059 0.55942
 C440 C -0.14686 0.96491 0.55058
 C441 C -0.11987 0.97323 0.54200
 C442 C -0.10973 0.99808 0.55000
 C443 C -0.08416 1.00554 0.54109
 C444 C -0.06862 0.98847 0.52339
 C445 C -0.07963 0.96404 0.51454
 C446 C -0.10473 0.95646 0.52388
 H447 H -0.19005 0.86810 0.51685
 H448 H -0.15228 0.89211 0.53710
 H449 H -0.20392 0.95470 0.56618
 H450 H -0.24293 0.92939 0.54775
 H451 H -0.13311 0.92928 0.56491
 H452 H -0.16369 0.97680 0.54444
 H453 H -0.12140 1.01151 0.56345
 H454 H -0.07668 1.02470 0.54807
 H455 H -0.06906 0.95063 0.50008
 H456 H -0.11258 0.93753 0.51643
 C457 C -0.22589 0.07114 0.95966
 C458 C -0.20297 0.05599 0.95452
 C459 C -0.17816 0.06807 0.95004
 C460 C -0.17742 0.09527 0.94699
 C461 C -0.19983 0.11032 0.95315
 C462 C -0.22399 0.09872 0.96184
 C463 C -0.15305 0.05271 0.95126
 C464 C -0.13060 0.06382 0.96249
 C465 C -0.10507 0.05050 0.96864
 C466 C -0.08639 0.06451 0.98611
 C467 C -0.06202 0.05363 0.99333
 C468 C -0.05514 0.02829 0.98316
 C469 C -0.07376 0.01414 0.96532
 C470 C -0.09856 0.02513 0.95811
 H471 H -0.24457 0.06103 0.96282
 H472 H -0.20439 0.03490 0.95547
 H473 H -0.15915 0.10521 0.94130
 H474 H -0.19784 0.13139 0.95282
 H475 H -0.15389 0.03193 0.94600
 H476 H -0.13131 0.08416 0.96990
 H477 H -0.09077 0.08404 0.99466
 H478 H -0.04884 0.06519 1.00758
 H479 H -0.06926 -0.00541 0.95700
 H480 H -0.11233 0.01382 0.94427
 C481 C 0.27754 0.57099 0.51990
 C482 C 0.29915 0.55424 0.51568
 C483 C 0.31654 0.55746 0.49243
 C484 C 0.31198 0.57774 0.47336
 C485 C 0.29070 0.59488 0.47789
 C486 C 0.27270 0.59162 0.50103
 C487 C 0.34159 0.54252 0.49153
 C488 C 0.35498 0.53685 0.46704
 C489 C 0.38311 0.52909 0.46917
 C490 C 0.39187 0.50469 0.45830
 C491 C 0.41817 0.49673 0.46381
 C492 C 0.43605 0.51329 0.47990
 C493 C 0.42726 0.53838 0.48898
 C494 C 0.40115 0.54607 0.48385
 H495 H 0.26484 0.56827 0.53850
 H496 H 0.30275 0.53916 0.53113
 H497 H 0.32588 0.58148 0.45606
 H498 H 0.28940 0.61131 0.46391
 H499 H 0.35044 0.53760 0.51228
 H500 H 0.34621 0.53987 0.44579
 H501 H 0.37810 0.49143 0.44673
 H502 H 0.42414 0.47736 0.45623
 H503 H 0.43999 0.55177 0.50163
 H504 H 0.39473 0.56512 0.49215
 C505 C 0.20143 0.61400 0.52235
 C506 C 0.17560 0.60381 0.52354
 C507 C 0.17026 0.57791 0.51426
 C508 C 0.19126 0.56234 0.50349
 C509 C 0.21716 0.57256 0.50214
 C510 C 0.22288 0.59850 0.51213
 C511 C 0.14221 0.56881 0.51326
 C512 C 0.13484 0.54358 0.51288
 C513 C 0.10663 0.53560 0.50861
 C514 C 0.09681 0.51333 0.52185
 C515 C 0.07003 0.50574 0.51798
 C516 C 0.05271 0.52011 0.50041
 C517 C 0.06302 0.54199 0.48658
 C518 C 0.08956 0.54961 0.49058
 H519 H 0.20473 0.63429 0.52915
 H520 H 0.15962 0.61638 0.53128
 H521 H 0.18760 0.54266 0.49480
 H522 H 0.23224 0.56027 0.49213
 H523 H 0.12693 0.58371 0.51289
 H524 H 0.14952 0.52851 0.51627
 H525 H 0.10978 0.50202 0.53550
 H526 H 0.06303 0.48860 0.52877
 H527 H 0.05065 0.55349 0.47260
 H528 H 0.09676 0.56630 0.47912
 C529 C 0.70278 0.11462 -0.02049
 C530 C 0.67977 0.10409 -0.00892
 C531 C 0.68109 0.08234 0.00841
 C532 C 0.70614 0.07195 0.01534
 C533 C 0.72953 0.08321 0.00450
 C534 C 0.72824 0.10369 -0.01531
 C535 C 0.65562 0.07175 0.01872
 C536 C 0.64903 0.04635 0.01612
 C537 C 0.62052 0.03829 0.01431
 C538 C 0.61168 0.01477 0.02574
 C539 C 0.58465 0.00726 0.02313
 C540 C 0.56613 0.02294 0.00854
 C541 C 0.57553 0.04605 -0.00353
 C542 C 0.60217 0.05356 -0.00075
 H543 H 0.70032 0.13192 -0.03299
 H544 H 0.66067 0.11288 -0.01384
 H545 H 0.70764 0.05573 0.02969
 H546 H 0.74867 0.07586 0.01161
 H547 H 0.63996 0.08588 0.02314
 H548 H 0.66424 0.03174 0.01191
 H549 H 0.62560 0.00238 0.03689
 H550 H 0.57837 -0.01085 0.03246
 H551 H 0.56243 0.05851 -0.01555
 H552 H 0.60850 0.07120 -0.01108
 C553 C 0.73599 0.92591 0.49412
 C554 C 0.71331 0.93990 0.48564
 C555 C 0.68867 0.92703 0.48109
 C556 C 0.68793 0.89961 0.48171
 C557 C 0.71018 0.88586 0.49083
 C558 C 0.73404 0.89896 0.49957
 C559 C 0.66362 0.94219 0.47780
 C560 C 0.64091 0.93353 0.48950
 C561 C 0.61462 0.94675 0.48996
 C562 C 0.59508 0.93594 0.50748
 C563 C 0.56957 0.94622 0.50869
 C564 C 0.56236 0.96786 0.49240
 C565 C 0.58199 0.97901 0.47482
 C566 C 0.60797 0.96854 0.47357
 H567 H 0.75468 0.93646 0.49685
 H568 H 0.71478 0.96089 0.48379
 H569 H 0.66979 0.88874 0.47622
 H570 H 0.70836 0.86487 0.49245
 H571 H 0.66448 0.96114 0.46822
 H572 H 0.64173 0.91554 0.50114
 H573 H 0.59946 0.91916 0.52035
 H574 H 0.55542 0.93675 0.52249
 H575 H 0.57727 0.99562 0.46187
 H576 H 0.62247 0.97726 0.45954
 C577 C 0.21884 0.41580 0.98253
 C578 C 0.19773 0.43205 0.97449
 C579 C 0.17167 0.42726 0.98400
 C580 C 0.16705 0.40577 1.00132
 C581 C 0.18810 0.39001 1.00985
 C582 C 0.21481 0.39556 1.00212
 C583 C 0.14967 0.44546 0.97746
 C584 C 0.12457 0.43685 0.97255
 C585 C 0.10072 0.45389 0.97254
 C586 C 0.07721 0.44437 0.95885
 C587 C 0.05296 0.45729 0.96305
 C588 C 0.05137 0.47935 0.98222
 C589 C 0.07542 0.49037 0.99355
 C590 C 0.09980 0.47762 0.98905
 H591 H 0.23858 0.41951 0.97409
 H592 H 0.20172 0.44827 0.96068
 H593 H 0.14717 0.40143 1.00896
 H594 H 0.18306 0.37332 1.02244
 H595 H 0.15417 0.46620 0.97764
 H596 H 0.12101 0.41597 0.96971
 H597 H 0.07744 0.42636 0.94562
 H598 H 0.03532 0.44930 0.95206
 H599 H 0.07528 0.50789 1.00756
 H600 H 0.11749 0.48550 1.00009
 C601 C 0.02274 0.27903 0.41661
 C602 C 0.02308 0.30211 0.43428
 C603 C 0.00333 0.32117 0.43104
 C604 C -0.01569 0.31735 0.40851
 C605 C -0.01606 0.29446 0.39100
 C606 C 0.00223 0.27401 0.39563
 C607 C 0.00392 0.34578 0.44958
 C608 C -0.01823 0.35989 0.45468
 C609 C -0.01799 0.38728 0.46638
 C610 C -0.03563 0.40472 0.45369
 C611 C -0.03496 0.43122 0.46176
 C612 C -0.01759 0.44107 0.48402
 C613 C -0.00066 0.42326 0.49778
 C614 C -0.00063 0.39663 0.48881
 H615 H 0.03829 0.26473 0.41967
 H616 H 0.03872 0.30500 0.45062
 H617 H -0.02997 0.33238 0.40361
 H618 H -0.03057 0.29343 0.37340
 H619 H 0.02309 0.35299 0.45780
 H620 H -0.03735 0.35236 0.44672
 H621 H -0.04911 0.39803 0.43626
 H622 H -0.04752 0.44409 0.44955
 H623 H 0.01339 0.43002 0.51458
 H624 H 0.01302 0.38347 0.49920
 C625 C 0.51336 -0.22436 -0.05824
 C626 C 0.51247 -0.20081 -0.04165
 C627 C 0.50162 -0.17831 -0.05329
 C628 C 0.49194 -0.17970 -0.08213
 C629 C 0.49302 -0.20308 -0.09881
 C630 C 0.50376 -0.22615 -0.08741
 C631 C 0.50248 -0.15320 -0.03588
 C632 C 0.48435 -0.13436 -0.03951
 C633 C 0.48662 -0.10723 -0.02690
 C634 C 0.47171 -0.08793 -0.04030
 C635 C 0.47467 -0.06169 -0.03165
 C636 C 0.49216 -0.05381 -0.00862
 C637 C 0.50637 -0.07327 0.00571
 C638 C 0.50366 -0.09973 -0.00330
 H639 H 0.52199 -0.24079 -0.04776
 H640 H 0.52040 -0.20016 -0.01958
 H641 H 0.48446 -0.16250 -0.09240
 H642 H 0.48629 -0.20280 -0.12129
 H643 H 0.51892 -0.15015 -0.02061
 H644 H 0.46770 -0.13838 -0.05435
 H645 H 0.45839 -0.09303 -0.05845
 H646 H 0.46353 -0.04752 -0.04366
 H647 H 0.52025 -0.06805 0.02327
 H648 H 0.51515 -0.11405 0.00805
 C649 C 0.01233 -0.19264 1.12117
 C650 C 0.01515 -0.16986 1.10589
 C651 C 0.01012 -0.16990 1.07584
 C652 C 0.00145 -0.19320 1.06138
 C653 C -0.00080 -0.21638 1.07670
 C654 C 0.00600 -0.21677 1.10670
 C655 C 0.01513 -0.14524 1.06094
 C656 C 0.00028 -0.13639 1.03888
 C657 C 0.00266 -0.10888 1.02947
 C658 C -0.00629 -0.10201 1.00163
 C659 C -0.00560 -0.07578 0.99341
 C660 C 0.00390 -0.05590 1.01301
 C661 C 0.01299 -0.06304 1.04070
 C662 C 0.01212 -0.08887 1.04886
 H663 H 0.01605 -0.19162 1.14447
 H664 H 0.02123 -0.15200 1.11770
 H665 H -0.00300 -0.19369 1.03824
 H666 H -0.00801 -0.23378 1.06494
 H667 H 0.03078 -0.13292 1.07057
 H668 H -0.01494 -0.14891 1.02862
 H669 H -0.01406 -0.11692 0.98634
 H670 H -0.01291 -0.07105 0.97199
 H671 H 0.02049 -0.04862 1.05667
 H672 H 0.01806 -0.09269 1.07098
 C673 C 0.49383 0.26411 0.56166
 C674 C 0.49235 0.28666 0.54543
 C675 C 0.49295 0.31148 0.55933
 C676 C 0.49467 0.31337 0.58994
 C677 C 0.49593 0.29092 0.60617
 C678 C 0.49467 0.26571 0.59256
 C679 C 0.49161 0.33520 0.54177
 C680 C 0.50510 0.35698 0.55009
 C681 C 0.50273 0.38282 0.53676
 C682 C 0.51245 0.40434 0.55340
 C683 C 0.51034 0.42944 0.54341
 C684 C 0.49889 0.43411 0.51591
 C685 C 0.48945 0.41250 0.49874
 C686 C 0.49125 0.38699 0.50911
 H687 H 0.49479 0.24563 0.54956
 H688 H 0.49142 0.28470 0.52185
 H689 H 0.49467 0.33223 0.60150
 H690 H 0.49742 0.29320 0.62969
 H691 H 0.47939 0.33453 0.52217
 H692 H 0.51799 0.35629 0.56917
 H693 H 0.52144 0.40184 0.57469
 H694 H 0.51812 0.44517 0.55755
 H695 H 0.48055 0.41531 0.47750
 H696 H 0.48381 0.37079 0.49544
 C697 C 0.46905 1.21089 0.57749
 C698 C 0.46513 1.18811 0.56015
 C699 C 0.48516 1.16919 0.55800
 C700 C 0.50867 1.17283 0.57470
 C701 C 0.51243 1.19539 0.59246
 C702 C 0.49323 1.21555 0.59318
 C703 C 0.48006 1.14468 0.54063
 C704 C 0.49961 1.13086 0.52766
 C705 C 0.49557 1.10385 0.51550
 C706 C 0.51327 1.09351 0.49455
 C707 C 0.51252 1.06684 0.48631
 C708 C 0.49421 1.04987 0.49915
 C709 C 0.47609 1.06063 0.51957
 C710 C 0.47656 1.08717 0.52739
 H711 H 0.45327 1.22528 0.57837
 H712 H 0.44644 1.18531 0.54825
 H713 H 0.52381 1.15781 0.57488
 H714 H 0.53027 1.19641 0.60590
 H715 H 0.45957 1.13777 0.53885
 H716 H 0.51960 1.13910 0.52699
 H717 H 0.52840 1.10591 0.48540
 H718 H 0.52734 1.05934 0.47121
 H719 H 0.46239 1.04835 0.53103
 H720 H 0.46322 1.09410 0.54436
 C721 C -0.01282 0.71129 1.11695
 C722 C -0.01185 0.68656 1.10339
 C723 C 0.00470 0.68162 1.07953
 C724 C 0.02071 0.70194 1.06948
 C725 C 0.02024 0.72681 1.08361
 C726 C 0.00271 0.73228 1.10704
 C727 C 0.00594 0.65441 1.06779
 C728 C 0.00734 0.64736 1.03940
 C729 C 0.00328 0.61964 1.02918
 C730 C 0.01516 0.60991 1.00339
 C731 C 0.01213 0.58344 0.99446
 C732 C -0.00297 0.56630 1.01114
 C733 C -0.01547 0.57649 1.03640
 C734 C -0.01287 0.60273 1.04491
 H735 H -0.02510 0.71341 1.13612
 H736 H -0.02387 0.67099 1.11197
 H737 H 0.03441 0.69830 1.05170
 H738 H 0.03399 0.74167 1.07661
 H739 H 0.00336 0.63950 1.08361
 H740 H 0.01068 0.66204 1.02345
 H741 H 0.02729 0.62263 0.99055
 H742 H 0.02211 0.57634 0.97493
 H743 H -0.02752 0.56420 1.04981
 H744 H -0.02371 0.60962 1.06393
 C745 C 0.53168 0.71656 -0.07466
 C746 C 0.53373 0.69367 -0.05912
 C747 C 0.51128 0.67779 -0.05523
 C748 C 0.48667 0.68528 -0.06703
 C749 C 0.48469 0.70778 -0.08316
 C750 C 0.50726 0.72390 -0.08791
 C751 C 0.51442 0.65216 -0.04179
 C752 C 0.49506 0.64093 -0.02651
 C753 C 0.49625 0.61324 -0.01843
 C754 C 0.48432 0.60531 0.00735
 C755 C 0.48325 0.57877 0.01383
 C756 C 0.49346 0.55959 -0.00577
 C757 C 0.50522 0.56775 -0.03167
 C758 C 0.50689 0.59418 -0.03773
 H759 H 0.54954 0.72837 -0.07684
 H760 H 0.55301 0.68824 -0.05032
 H761 H 0.46906 0.67309 -0.06499
 H762 H 0.46526 0.71168 -0.09217
 H763 H 0.53307 0.64191 -0.04537
 H764 H 0.47746 0.65203 -0.02045
 H765 H 0.47563 0.61967 0.02234
 H766 H 0.47379 0.57330 0.03380
 H767 H 0.51304 0.55370 -0.04758
 H768 H 0.51549 0.59955 -0.05820
 C769 C -0.00032 1.19857 0.37915
 C770 C -0.00098 1.17522 0.39366
 C771 C -0.00078 1.17529 0.42413
 C772 C -0.00082 1.19938 0.43992
 C773 C -0.00053 1.22299 0.42531
 C774 C 0.00079 1.22306 0.39452
 C775 C -0.00286 1.14977 0.43806
 C776 C 0.00561 1.14484 0.46516
 C777 C 0.00211 1.11838 0.47685
 C778 C 0.02162 1.10762 0.49500
 C779 C 0.01927 1.08160 0.50353
 C780 C -0.00256 1.06585 0.49393
 C781 C -0.02277 1.07757 0.47727
 C782 C -0.02058 1.10334 0.46915
 H783 H -0.00016 1.19755 0.35555
 H784 H -0.00158 1.15694 0.38091
 H785 H -0.00195 1.20005 0.46346
 H786 H -0.00187 1.24086 0.43845
 H787 H -0.01091 1.13373 0.42446
 H788 H 0.01627 1.15971 0.47819
 H789 H 0.03913 1.11900 0.50165
 H790 H 0.03509 1.07364 0.51654
 H791 H -0.04036 1.06687 0.46963
 H792 H -0.03663 1.11134 0.45631
 C793 C 0.75301 0.61692 0.93528
 C794 C 0.76194 0.63174 0.91245
 C795 C 0.76120 0.65905 0.91468
 C796 C 0.74920 0.67128 0.93914
 C797 C 0.73973 0.65638 0.96184
 C798 C 0.74325 0.62901 0.96122
 C799 C 0.77164 0.67405 0.89036
 C800 C 0.78322 0.69769 0.89410
 C801 C 0.79056 0.71373 0.86919
 C802 C 0.78903 0.74100 0.87242
 C803 C 0.78918 0.75631 0.84790
 C804 C 0.79038 0.74453 0.81961
 C805 C 0.79696 0.71786 0.81721
 C806 C 0.79681 0.70251 0.84169
 H807 H 0.75477 0.59584 0.93328
 H808 H 0.77016 0.62182 0.89330
 H809 H 0.74673 0.69229 0.94054
 H810 H 0.72984 0.66651 0.97972
 H811 H 0.76956 0.66506 0.86871
 H812 H 0.78508 0.70657 0.91586
 H813 H 0.78534 0.75029 0.89360
 H814 H 0.78543 0.77704 0.85109
 H815 H 0.80089 0.70829 0.79647
 H816 H 0.80030 0.68173 0.83874
 C817 C 0.28025 0.13824 0.48302
 C818 C 0.29158 0.15538 0.46347
 C819 C 0.28654 0.15197 0.43350
 C820 C 0.27039 0.13082 0.42342
 C821 C 0.25867 0.11412 0.44292
 C822 C 0.26202 0.11844 0.47327
 C823 C 0.29558 0.17187 0.41313
 C824 C 0.30168 0.16517 0.38558
 C825 C 0.29625 0.18278 0.36170
 C826 C 0.27827 0.17373 0.34009
 C827 C 0.27017 0.18992 0.31823
 C828 C 0.28104 0.21526 0.31613
 C829 C 0.29956 0.22429 0.33767
 C830 C 0.30685 0.20824 0.36062
 H831 H 0.28499 0.14106 0.50600
 H832 H 0.30416 0.17137 0.47175
 H833 H 0.26585 0.12769 0.40043
 H834 H 0.24663 0.09800 0.43404
 H835 H 0.29321 0.19231 0.41966
 H836 H 0.30382 0.14460 0.37946
 H837 H 0.26956 0.15431 0.34081
 H838 H 0.25529 0.18223 0.30284
 H839 H 0.30793 0.24382 0.33716
 H840 H 0.32066 0.21560 0.37738
 C841 C 0.73661 0.36560 0.43962
 C842 C 0.72717 0.34756 0.41848
 C843 C 0.71399 0.32464 0.42637
 C844 C 0.70979 0.32052 0.45596
 C845 C 0.71876 0.33906 0.47729
 C846 C 0.73388 0.36114 0.46957
 C847 C 0.70723 0.30423 0.40368
 C848 C 0.69887 0.31096 0.37727
 C849 C 0.70818 0.29673 0.35097
 C850 C 0.69930 0.27147 0.34248
 C851 C 0.70898 0.25921 0.31680
 C852 C 0.72795 0.27194 0.29972
 C853 C 0.73745 0.29679 0.30945
 C854 C 0.72719 0.30922 0.33425
 H855 H 0.74631 0.38305 0.43223
 H856 H 0.73103 0.35124 0.39584
 H857 H 0.69951 0.30305 0.46253
 H858 H 0.71450 0.33580 0.49992
 H859 H 0.71397 0.28448 0.40702
 H860 H 0.69261 0.33095 0.37440
 H861 H 0.68478 0.26147 0.35545
 H862 H 0.70179 0.23979 0.31053
 H863 H 0.75254 0.30711 0.29762
 H864 H 0.73453 0.32859 0.34077
 C865 C 0.25647 0.87740 0.94405
 C866 C 0.24910 0.86423 0.91820
 C867 C 0.22885 0.84523 0.91745
 C868 C 0.21570 0.83983 0.94349
 C869 C 0.22323 0.85312 0.96974
 C870 C 0.24450 0.87154 0.97079
 C871 C 0.22280 0.83227 0.88867
 C872 C 0.20357 0.81444 0.88224
 C873 C 0.20191 0.80241 0.85229
 C874 C 0.19855 0.77531 0.84807
 C875 C 0.20486 0.76302 0.82118
 C876 C 0.21501 0.77765 0.79826
 C877 C 0.21515 0.80508 0.80184
 C878 C 0.20791 0.81729 0.82815
 H879 H 0.27111 0.89286 0.94240
 H880 H 0.25916 0.86937 0.89841
 H881 H 0.19962 0.82563 0.94376
 H882 H 0.21234 0.84915 0.98935
 H883 H 0.23611 0.83752 0.87133
 H884 H 0.19094 0.80699 0.89902
 H885 H 0.19344 0.76343 0.86623
 H886 H 0.20433 0.74186 0.81948
 H887 H 0.22349 0.81740 0.78577
 H888 H 0.20957 0.83840 0.83039
 C889 C 0.26218 0.88474 0.05305
 C890 C 0.26826 0.87130 0.07798
 C891 C 0.26984 0.84397 0.07698
 C892 C 0.26597 0.83034 0.05000
 C893 C 0.25998 0.84390 0.02479
 C894 C 0.25690 0.87137 0.02609
 C895 C 0.27326 0.83103 0.10511
 C896 C 0.27665 0.80531 0.10849
 C897 C 0.27386 0.79401 0.13759
 C898 C 0.25527 0.80455 0.15740
 C899 C 0.25138 0.79344 0.18410
 C900 C 0.26583 0.77125 0.19207
 C901 C 0.28455 0.76060 0.17233
 C902 C 0.28836 0.77179 0.14518
 H903 H 0.26113 0.90588 0.05486
 H904 H 0.27131 0.88242 0.09834
 H905 H 0.26714 0.80925 0.04820
 H906 H 0.25812 0.83266 0.00446
 H907 H 0.27172 0.84363 0.12455
 H908 H 0.28063 0.79220 0.09001
 H909 H 0.24292 0.82099 0.15198
 H910 H 0.23659 0.80230 0.19832
 H911 H 0.29582 0.74339 0.17756
 H912 H 0.30255 0.76308 0.13008
 C913 C 0.76052 0.38609 0.54557
 C914 C 0.77375 0.37698 0.56997
 C915 C 0.78310 0.35124 0.57029
 C916 C 0.77974 0.33498 0.54510
 C917 C 0.76664 0.34421 0.52047
 C918 C 0.75565 0.36964 0.52064
 C919 C 0.79508 0.34235 0.59782
 C920 C 0.79580 0.31729 0.60543
 C921 C 0.79730 0.31012 0.63642
 C922 C 0.78648 0.32675 0.65823
 C923 C 0.78134 0.31767 0.68569
 C924 C 0.78727 0.29178 0.69271
 C925 C 0.80029 0.27578 0.67168
 C926 C 0.80494 0.28479 0.64367
 H927 H 0.75424 0.40630 0.54607
 H928 H 0.77644 0.39013 0.58888
 H929 H 0.78767 0.31537 0.54399
 H930 H 0.76592 0.33153 0.50108
 H931 H 0.80033 0.35751 0.61405
 H932 H 0.79161 0.30165 0.58946
 H933 H 0.77928 0.34603 0.65354
 H934 H 0.77020 0.33048 0.70027
 H935 H 0.80480 0.25562 0.67595
 H936 H 0.81304 0.27145 0.62716
 C937 C 0.23165 0.10082 0.54731
 C938 C 0.22242 0.11345 0.57265
 C939 C 0.21882 0.14061 0.57405
 C940 C 0.22285 0.15465 0.54873
 C941 C 0.23197 0.14192 0.52326
 C942 C 0.23842 0.11506 0.52273
 C943 C 0.21425 0.15336 0.60309
 C944 C 0.21224 0.17923 0.60848
 C945 C 0.21835 0.19076 0.63785
 C946 C 0.20566 0.21362 0.64827
 C947 C 0.21322 0.22540 0.67528
 C948 C 0.23403 0.21477 0.69187
 C949 C 0.24676 0.19203 0.68095
 C950 C 0.23899 0.18019 0.65452
 H951 H 0.23433 0.07984 0.54720
 H952 H 0.21897 0.10199 0.59160
 H953 H 0.21969 0.17550 0.54845
 H954 H 0.23405 0.15335 0.50411
 H955 H 0.21578 0.14087 0.62157
 H956 H 0.20853 0.19248 0.59116
 H957 H 0.19003 0.22237 0.63546
 H958 H 0.20317 0.24303 0.68284
 H959 H 0.26297 0.18316 0.69274
 H960 H 0.24994 0.16319 0.64666
 C961 C 0.71210 0.61612 0.03580
 C962 C 0.70789 0.62799 0.06317
 C963 C 0.72266 0.65009 0.07239
 C964 C 0.74256 0.65964 0.05422
 C965 C 0.74731 0.64730 0.02703
 C966 C 0.73119 0.62612 0.01649
 C967 C 0.71959 0.66042 0.10255
 C968 C 0.72157 0.68587 0.11022
 C969 C 0.72388 0.69472 0.14115
 C970 C 0.71278 0.71853 0.15107
 C971 C 0.71745 0.72801 0.17979
 C972 C 0.73393 0.71413 0.19875
 C973 C 0.74471 0.69015 0.18850
 C974 C 0.73948 0.68045 0.16035
 H975 H 0.70071 0.59854 0.03027
 H976 H 0.69329 0.61960 0.07742
 H977 H 0.75530 0.67583 0.06160
 H978 H 0.76381 0.65428 0.01436
 H979 H 0.71601 0.64637 0.11915
 H980 H 0.72262 0.70032 0.09364
 H981 H 0.70094 0.72998 0.13644
 H982 H 0.70921 0.74676 0.18662
 H983 H 0.75825 0.67915 0.20177
 H984 H 0.74903 0.66244 0.15310
 C985 C 0.17710 0.52452 0.27391
 C986 C 0.19398 0.54633 0.27428
 C987 C 0.19946 0.55899 0.24854
 C988 C 0.18935 0.54811 0.22199
 C989 C 0.17250 0.52614 0.22157
 C990 C 0.16478 0.51481 0.24778
 C991 C 0.21504 0.58379 0.25057
 C992 C 0.21188 0.60283 0.23160
 C993 C 0.22323 0.62967 0.23566
 C994 C 0.22172 0.64629 0.21215
 C995 C 0.22882 0.67266 0.21568
 C996 C 0.23694 0.68337 0.24315
 C997 C 0.24061 0.66625 0.26603
 C998 C 0.23344 0.63984 0.26255
 H999 H 0.17269 0.51574 0.29441
 H1000 H 0.20201 0.55390 0.29497
 H1001 H 0.19444 0.55643 0.20147
 H1002 H 0.16566 0.51833 0.20058
 H1003 H 0.22761 0.58704 0.26967
 H1004 H 0.19894 0.59933 0.21277
 H1005 H 0.21427 0.63902 0.19109
 H1006 H 0.22667 0.68484 0.19707
 H1007 H 0.24858 0.67323 0.28690
 H1008 H 0.23517 0.62793 0.28136
 C1009 C 0.68977 0.04432 0.75780
 C1010 C 0.70534 0.06617 0.75186
 C1011 C 0.69711 0.08362 0.73093
 C1012 C 0.67382 0.07771 0.71453
 C1013 C 0.65823 0.05573 0.72033
 C1014 C 0.66548 0.03863 0.74253
 C1015 C 0.71257 0.10830 0.72828
 C1016 C 0.70173 0.13052 0.71915
 C1017 C 0.71536 0.15645 0.72142
 C1018 C 0.70540 0.17672 0.70479
 C1019 C 0.71538 0.20221 0.70872
 C1020 C 0.73519 0.20827 0.72995
 C1021 C 0.74623 0.18766 0.74547
 C1022 C 0.73628 0.16215 0.74151
 H1023 H 0.69600 0.03298 0.77603
 H1024 H 0.72318 0.07023 0.76492
 H1025 H 0.66722 0.09021 0.69746
 H1026 H 0.64012 0.05296 0.70769
 H1027 H 0.73294 0.10850 0.73646
 H1028 H 0.68137 0.13030 0.71093
 H1029 H 0.68941 0.17291 0.68905
 H1030 H 0.70708 0.21717 0.69546
 H1031 H 0.76171 0.19135 0.76181
 H1032 H 0.74424 0.14737 0.75529
 C1033 C 0.84658 0.03787 0.27626
 C1034 C 0.83162 0.06064 0.28028
 C1035 C 0.81198 0.06701 0.25990
 C1036 C 0.80694 0.04998 0.23576
 C1037 C 0.82161 0.02711 0.23188
 C1038 C 0.84130 0.02019 0.25239
 C1039 C 0.79857 0.09249 0.26284
 C1040 C 0.79529 0.10712 0.23967
 C1041 C 0.78695 0.13450 0.24224
 C1042 C 0.80120 0.15280 0.22676
 C1043 C 0.79381 0.17890 0.22799
 C1044 C 0.77119 0.18724 0.24374
 C1045 C 0.75705 0.16877 0.25963
 C1046 C 0.76504 0.14259 0.25909
 H1047 H 0.86266 0.03473 0.29160
 H1048 H 0.83622 0.07392 0.29866
 H1049 H 0.79182 0.05448 0.21968
 H1050 H 0.81750 0.01460 0.21275
 H1051 H 0.79459 0.10070 0.28448
 H1052 H 0.80234 0.10001 0.21857
 H1053 H 0.81831 0.14690 0.21385
 H1054 H 0.80573 0.19239 0.21599
 H1055 H 0.73972 0.17441 0.27225
 H1056 H 0.75374 0.12857 0.27114
 C1057 C 0.32035 0.52982 0.73324
 C1058 C 0.30733 0.55374 0.73657
 C1059 C 0.31521 0.57216 0.75848
 C1060 C 0.33665 0.56605 0.77705
 C1061 C 0.34969 0.54202 0.77372
 C1062 C 0.34129 0.52305 0.75227
 C1063 C 0.30168 0.59791 0.75943
 C1064 C 0.30425 0.61629 0.78104
 C1065 C 0.29174 0.64239 0.77921
 C1066 C 0.30428 0.66427 0.79292
 C1067 C 0.29466 0.68948 0.78865
 C1068 C 0.27251 0.69332 0.77018
 C1069 C 0.25843 0.67110 0.75898
 C1070 C 0.26793 0.64600 0.76339
 H1071 H 0.31426 0.51667 0.71530
 H1072 H 0.29132 0.55809 0.72147
 H1073 H 0.34422 0.57999 0.79345
 H1074 H 0.36699 0.53878 0.78742
 H1075 H 0.28946 0.60209 0.74060
 H1076 H 0.31698 0.61304 0.79970
 H1077 H 0.32214 0.66195 0.80610
 H1078 H 0.30501 0.70578 0.79939
 H1079 H 0.24056 0.67296 0.74575
 H1080 H 0.25676 0.62951 0.75393
 C1081 C 0.31312 0.47166 0.74810
 C1082 C 0.29844 0.44841 0.74398
 C1083 C 0.30989 0.42641 0.73012
 C1084 C 0.33586 0.42851 0.71900
 C1085 C 0.35046 0.45179 0.72287
 C1086 C 0.33937 0.47400 0.73725
 C1087 C 0.29534 0.40102 0.72968
 C1088 C 0.30832 0.37876 0.73442
 C1089 C 0.29512 0.35330 0.73895
 C1090 C 0.30802 0.33619 0.75732
 C1091 C 0.29785 0.31125 0.76110
 C1092 C 0.27463 0.30218 0.74609
 C1093 C 0.26122 0.31964 0.72808
 C1094 C 0.27130 0.34507 0.72463
 H1095 H 0.30416 0.48740 0.76094
 H1096 H 0.27862 0.44715 0.75313
 H1097 H 0.34519 0.41193 0.70792
 H1098 H 0.37089 0.45218 0.71532
 H1099 H 0.27368 0.40108 0.72904
 H1100 H 0.32976 0.37960 0.73812
 H1101 H 0.32639 0.34202 0.76861
 H1102 H 0.30916 0.29873 0.77499
 H1103 H 0.24335 0.31351 0.71608
 H1104 H 0.26106 0.35783 0.71001
 C1105 C 0.81228 0.97008 0.24900
 C1106 C 0.79727 0.94698 0.24578
 C1107 C 0.80927 0.92379 0.23565
 C1108 C 0.83627 0.92425 0.22758
 C1109 C 0.85131 0.94714 0.23103
 C1110 C 0.83958 0.97073 0.24115
 C1111 C 0.79419 0.89888 0.23618
 C1112 C 0.80649 0.87726 0.24447
 C1113 C 0.79337 0.85186 0.24865
 C1114 C 0.80668 0.83469 0.26655
 C1115 C 0.79710 0.80957 0.26965
 C1116 C 0.77377 0.80054 0.25489
 C1117 C 0.75983 0.81806 0.23746
 C1118 C 0.76956 0.84360 0.23433
 H1119 H 0.80252 0.98699 0.25875
 H1120 H 0.77660 0.94693 0.25260
 H1121 H 0.84603 0.90674 0.21919
 H1122 H 0.87236 0.94651 0.22574
 H1123 H 0.77274 0.89899 0.23277
 H1124 H 0.82746 0.87856 0.25064
 H1125 H 0.82511 0.84051 0.27774
 H1126 H 0.80901 0.79695 0.28280
 H1127 H 0.74195 0.81185 0.22555
 H1128 H 0.75904 0.85637 0.21997
 C1129 C 0.65113 0.98101 0.79128
 C1130 C 0.66359 0.95882 0.80153
 C1131 C 0.68695 0.94919 0.78872
 C1132 C 0.69836 0.96294 0.76603
 C1133 C 0.68594 0.98523 0.75573
 C1134 C 0.66157 0.99456 0.76757
 C1135 C 0.69645 0.92308 0.79694
 C1136 C 0.72063 0.91349 0.79050
 C1137 C 0.72707 0.88541 0.79275
 C1138 C 0.75381 0.87776 0.79538
 C1139 C 0.76068 0.85130 0.79319
 C1140 C 0.74095 0.83183 0.78773
 C1141 C 0.71408 0.83964 0.78629
 C1142 C 0.70723 0.86598 0.78875
 H1143 H 0.63282 0.98659 0.80182
 H1144 H 0.65428 0.94853 0.81898
 H1145 H 0.71597 0.95581 0.75491
 H1146 H 0.69459 0.99424 0.73706
 H1147 H 0.68224 0.91081 0.80777
 H1148 H 0.73598 0.92617 0.78228
 H1149 H 0.76952 0.89236 0.79817
 H1150 H 0.78166 0.84631 0.79418
 H1151 H 0.69823 0.82591 0.78119
 H1152 H 0.68646 0.87104 0.78552
 C1153 C 0.15713 0.45985 0.29013
 C1154 C 0.17151 0.43877 0.30030
 C1155 C 0.19171 0.42719 0.28355
 C1156 C 0.19824 0.43793 0.25683
 C1157 C 0.18350 0.45885 0.24636
 C1158 C 0.16146 0.46917 0.26193
 C1159 C 0.20230 0.40175 0.29229
 C1160 C 0.22652 0.39257 0.28529
 C1161 C 0.23197 0.36425 0.28639
 C1162 C 0.25660 0.35476 0.29624
 C1163 C 0.26181 0.32774 0.29478
 C1164 C 0.24275 0.30990 0.28259
 C1165 C 0.21832 0.32000 0.27255
 C1166 C 0.21288 0.34652 0.27484
 H1167 H 0.14257 0.46849 0.30470
 H1168 H 0.16646 0.43111 0.32123
 H1169 H 0.21369 0.42931 0.24328
 H1170 H 0.18854 0.46635 0.22537
 H1171 H 0.18854 0.38909 0.30329
 H1172 H 0.24153 0.40526 0.27641
 H1173 H 0.27184 0.36822 0.30476
 H1174 H 0.28116 0.32101 0.30201
 H1175 H 0.20375 0.30789 0.26089
 H1176 H 0.19415 0.35334 0.26591
 C1177 C 0.05792 0.26575 0.86229
 C1178 C 0.07999 0.26497 0.84391
 C1179 C 0.08132 0.24655 0.82060
 C1180 C 0.06049 0.22815 0.81660
 C1181 C 0.03828 0.22906 0.83486
 C1182 C 0.03575 0.24890 0.85697
 C1183 C 0.10478 0.24719 0.80119
 C1184 C 0.11454 0.22589 0.78733
 C1185 C 0.14132 0.22639 0.77428
 C1186 C 0.16042 0.20906 0.78430
 C1187 C 0.18700 0.21147 0.77618
 C1188 C 0.19504 0.23027 0.75631
 C1189 C 0.17539 0.24679 0.74502
 C1190 C 0.14879 0.24510 0.75424
 H1191 H 0.05855 0.27983 0.88043
 H1192 H 0.09623 0.27879 0.84807
 H1193 H 0.06085 0.21355 0.79891
 H1194 H 0.02224 0.21502 0.83073
 H1195 H 0.11611 0.26533 0.80077
 H1196 H 0.10529 0.20697 0.79010
 H1197 H 0.15511 0.19476 0.80008
 H1198 H 0.20136 0.19916 0.78669
 H1199 H 0.18076 0.26191 0.73027
 H1200 H 0.13420 0.25874 0.74632
 C1201 C 0.52389 0.74163 0.31996
 C1202 C 0.54729 0.74195 0.30362
 C1203 C 0.57223 0.73831 0.31686
 C1204 C 0.57344 0.73574 0.34723
 C1205 C 0.55004 0.73575 0.36368
 C1206 C 0.52457 0.73730 0.35027
 C1207 C 0.59665 0.73851 0.29873
 C1208 C 0.61816 0.72419 0.30500
 C1209 C 0.64395 0.72430 0.28908
 C1210 C 0.66408 0.70778 0.29880
 C1211 C 0.68986 0.70920 0.28787
 C1212 C 0.69644 0.72693 0.26630
 C1213 C 0.67587 0.74240 0.25511
 C1214 C 0.64989 0.74120 0.26642
 H1215 H 0.50547 0.74558 0.30853
 H1216 H 0.54589 0.74502 0.28044
 H1217 H 0.59249 0.73429 0.35845
 H1218 H 0.55174 0.73426 0.38709
 H1219 H 0.59621 0.74995 0.27945
 H1220 H 0.61702 0.71161 0.32339
 H1221 H 0.66023 0.69447 0.31607
 H1222 H 0.70495 0.69719 0.29766
 H1223 H 0.68011 0.75648 0.23877
 H1224 H 0.63507 0.75431 0.25811
 C1225 C 0.53120 0.28379 0.15086
 C1226 C 0.55440 0.28714 0.16789
 C1227 C 0.56799 0.26553 0.17847
 C1228 C 0.55734 0.24038 0.17236
 C1229 C 0.53412 0.23704 0.15534
 C1230 C 0.52139 0.25853 0.14287
 C1231 C 0.59414 0.27000 0.19359
 C1232 C 0.60655 0.25226 0.20966
 C1233 C 0.63471 0.25526 0.22002
 C1234 C 0.65315 0.27101 0.20571
 C1235 C 0.68020 0.27080 0.21329
 C1236 C 0.68979 0.25495 0.23546
 C1237 C 0.67123 0.23975 0.25032
 C1238 C 0.64403 0.23989 0.24263
 H1239 H 0.52106 0.30117 0.14414
 H1240 H 0.56187 0.30679 0.17267
 H1241 H 0.56715 0.22309 0.17983
 H1242 H 0.52642 0.21739 0.15120
 H1243 H 0.60369 0.28875 0.19073
 H1244 H 0.59614 0.23451 0.21501
 H1245 H 0.64718 0.28248 0.18751
 H1246 H 0.69374 0.28247 0.20085
 H1247 H 0.67775 0.22680 0.26699
 H1248 H 0.63034 0.22729 0.25377
 C1249 C 0.04487 0.77324 0.62497
 C1250 C 0.06980 0.77344 0.63872
 C1251 C 0.07648 0.75448 0.65859
 C1252 C 0.05772 0.73466 0.66393
 C1253 C 0.03259 0.73437 0.64996
 C1254 C 0.02517 0.75430 0.63108
 C1255 C 0.10387 0.75548 0.67132
 C1256 C 0.11164 0.74355 0.69546
 C1257 C 0.13959 0.74556 0.70674
 C1258 C 0.14481 0.74336 0.73664
 C1259 C 0.17104 0.74530 0.74766
 C1260 C 0.19264 0.74938 0.72894
 C1261 C 0.18730 0.75121 0.69894
 C1262 C 0.16124 0.74917 0.68799
 H1263 H 0.04168 0.78776 0.60887
 H1264 H 0.08415 0.78844 0.63340
 H1265 H 0.06258 0.71900 0.67817
 H1266 H 0.01879 0.71853 0.65390
 H1267 H 0.11810 0.76786 0.66069
 H1268 H 0.09714 0.73314 0.70803
 H1269 H 0.12855 0.74026 0.75153
 H1270 H 0.17435 0.74335 0.77078
 H1271 H 0.20325 0.75396 0.68361
 H1272 H 0.15829 0.74991 0.66466
 C1273 C 0.94768 0.74838 0.62248
 C1274 C 0.92477 0.74903 0.63948
 C1275 C 0.92657 0.75251 0.66987
 C1276 C 0.95205 0.75503 0.68297
 C1277 C 0.97515 0.75432 0.66588
 C1278 C 0.97348 0.75058 0.63519
 C1279 C 0.90127 0.75589 0.68620
 C1280 C 0.89876 0.75562 0.71531
 C1281 C 0.87266 0.76120 0.72934
 C1282 C 0.86510 0.74841 0.75450
 C1283 C 0.83955 0.75218 0.76632
 C1284 C 0.82110 0.76889 0.75323
 C1285 C 0.82965 0.78292 0.72916
 C1286 C 0.85499 0.77925 0.71755
 H1287 H 0.94529 0.74664 0.59901
 H1288 H 0.90543 0.74752 0.62865
 H1289 H 0.95430 0.75876 0.70621
 H1290 H 0.99403 0.75809 0.67692
 H1291 H 0.88343 0.75871 0.67312
 H1292 H 0.91550 0.75045 0.72898
 H1293 H 0.87861 0.73478 0.76437
 H1294 H 0.83415 0.74132 0.78500
 H1295 H 0.81650 0.79628 0.71838
 H1296 H 0.86055 0.79040 0.69897
 C1297 C 0.46637 0.22121 0.15156
 C1298 C 0.44676 0.21567 0.17185
 C1299 C 0.43518 0.23571 0.18905
 C1300 C 0.44475 0.26144 0.18657
 C1301 C 0.46447 0.26697 0.16627
 C1302 C 0.47436 0.24724 0.14695
 C1303 C 0.41156 0.22916 0.20675
 C1304 C 0.40056 0.24526 0.22702
 C1305 C 0.37338 0.24074 0.23864
 C1306 C 0.36588 0.25294 0.26524
 C1307 C 0.33920 0.25231 0.27432
 C1308 C 0.31938 0.23975 0.25671
 C1309 C 0.32727 0.22670 0.23065
 C1310 C 0.35379 0.22711 0.22180
 H1311 H 0.47509 0.20489 0.13948
 H1312 H 0.44025 0.19557 0.17373
 H1313 H 0.43652 0.27758 0.19938
 H1314 H 0.47138 0.28698 0.16490
 H1315 H 0.40207 0.21042 0.20167
 H1316 H 0.41096 0.26292 0.23447
 H1317 H 0.38052 0.26381 0.27850
 H1318 H 0.33396 0.26285 0.29432
 H1319 H 0.31274 0.21719 0.21608
 H1320 H 0.35836 0.21818 0.20071
 C1321 C 0.46853 0.71667 0.32968
 C1322 C 0.44638 0.71656 0.31072
 C1323 C 0.42802 0.73712 0.31203
 C1324 C 0.43118 0.75677 0.33409
 C1325 C 0.45316 0.75685 0.35307
 C1326 C 0.47322 0.73763 0.35017
 C1327 C 0.40470 0.73687 0.29172
 C1328 C 0.39272 0.75896 0.28396
 C1329 C 0.36582 0.75930 0.27036
 C1330 C 0.34794 0.77826 0.28076
 C1331 C 0.32111 0.77705 0.27249
 C1332 C 0.31153 0.75763 0.25229
 C1333 C 0.33009 0.73986 0.23999
 C1334 C 0.35696 0.74047 0.24922
 H1335 H 0.48266 0.70076 0.32773
 H1336 H 0.44383 0.70059 0.29470
 H1337 H 0.41635 0.77189 0.33725
 H1338 H 0.45396 0.77202 0.37009
 H1339 H 0.39654 0.71808 0.28425
 H1340 H 0.40110 0.77767 0.29137
 H1341 H 0.35431 0.79290 0.29714
 H1342 H 0.30767 0.79040 0.28369
 H1343 H 0.32359 0.72437 0.22473
 H1344 H 0.37054 0.72583 0.24050
 C1345 C 0.98716 0.26029 0.82377
 C1346 C 0.96443 0.26275 0.80608
 C1347 C 0.93881 0.26191 0.81797
 C1348 C 0.93636 0.25900 0.84816
 C1349 C 0.95902 0.25647 0.86582
 C1350 C 0.98491 0.25561 0.85385
 C1351 C 0.91503 0.26342 0.79844
 C1352 C 0.89195 0.27371 0.80776
 C1353 C 0.86663 0.27442 0.79061
 C1354 C 0.84564 0.28878 0.80297
 C1355 C 0.82040 0.28825 0.79010
 C1356 C 0.81517 0.27355 0.76400
 C1357 C 0.83643 0.25984 0.75083
 C1358 C 0.86196 0.26016 0.76405
 H1359 H 1.00632 0.26228 0.81347
 H1360 H 0.96689 0.26557 0.78300
 H1361 H 0.91694 0.25790 0.85821
 H1362 H 0.95633 0.25402 0.88893
 H1363 H 0.91702 0.25652 0.77600
 H1364 H 0.89140 0.28243 0.82963
 H1365 H 0.84853 0.29999 0.82331
 H1366 H 0.80484 0.29921 0.80119
 H1367 H 0.83316 0.24819 0.73088
 H1368 H 0.87752 0.24855 0.75390
 C1369 C 0.63718 0.98195 0.71086
 C1370 C 0.62249 0.97172 0.68700
 C1371 C 0.59919 0.98386 0.67767
 C1372 C 0.59092 1.00687 0.69247
 C1373 C 0.60593 1.01750 0.71608
 C1374 C 0.62937 1.00516 0.72630
 C1375 C 0.58635 0.97414 0.65013
 C1376 C 0.56023 0.97643 0.64388
 C1377 C 0.55000 0.97223 0.61362
 C1378 C 0.52403 0.96253 0.60780
 C1379 C 0.51351 0.96173 0.57921
 C1380 C 0.52857 0.97130 0.55611
 C1381 C 0.55469 0.98067 0.56241
 C1382 C 0.56531 0.98075 0.59044
 H1383 H 0.65478 0.97125 0.71639
 H1384 H 0.62961 0.95426 0.67549
 H1385 H 0.57352 1.01730 0.68504
 H1386 H 0.59926 1.03575 0.72620
 H1387 H 0.59938 0.96536 0.63381
 H1388 H 0.54643 0.98286 0.66068
 H1389 H 0.51168 0.95622 0.62546
 H1390 H 0.49312 0.95506 0.57554
 H1391 H 0.56674 0.98954 0.54604
 H1392 H 0.58499 0.98928 0.59420
 C1393 C 0.13228 0.45825 1.20632
 C1394 C 0.11835 0.45187 1.18032
 C1395 C 0.10256 0.47050 1.16687
 C1396 C 0.10169 0.49599 1.17931
 C1397 C 0.11602 0.50255 1.20489
 C1398 C 0.13187 0.48396 1.21895
 C1399 C 0.08759 0.46328 1.13961
 C1400 C 0.06305 0.47256 1.13435
 C1401 C 0.04818 0.46900 1.10623
 C1402 C 0.02088 0.47499 1.10565
 C1403 C 0.00728 0.47757 1.07919
 C1404 C 0.02078 0.47488 1.05242
 C1405 C 0.04724 0.46567 1.05314
 C1406 C 0.06090 0.46300 1.07966
 H1407 H 0.14252 0.44254 1.21664
 H1408 H 0.11920 0.43204 1.17120
 H1409 H 0.09004 0.51097 1.16916
 H1410 H 0.11448 0.52230 1.21409
 H1411 H 0.09681 0.44970 1.12417
 H1412 H 0.05340 0.48415 1.15146
 H1413 H 0.01037 0.47925 1.12577
 H1414 H -0.01333 0.48388 1.07999
 H1415 H 0.05805 0.46154 1.03349
 H1416 H 0.08185 0.45792 1.07901
 C1417 C -0.13343 -0.00893 1.19098
 C1418 C -0.11943 -0.00235 1.16632
 C1419 C -0.09813 0.01554 1.16820
 C1420 C -0.09132 0.02722 1.19553
 C1421 C -0.10534 0.02043 1.22048
 C1422 C -0.12594 0.00131 1.21892
 C1423 C -0.08392 0.02058 1.14085
 C1424 C -0.06715 0.04057 1.13611
 C1425 C -0.05509 0.04295 1.10690
 C1426 C -0.02812 0.05008 1.10409
 C1427 C -0.01532 0.04651 1.07714
 C1428 C -0.02931 0.03550 1.05272
 C1429 C -0.05695 0.03088 1.05535
 C1430 C -0.06976 0.03531 1.08173
 H1431 H -0.15056 -0.02171 1.18762
 H1432 H -0.12564 -0.01112 1.14543
 H1433 H -0.07515 0.04131 1.19784
 H1434 H -0.10000 0.03001 1.24122
 H1435 H -0.08793 0.00651 1.12303
 H1436 H -0.06133 0.05434 1.15355
 H1437 H -0.01649 0.05651 1.12312
 H1438 H 0.00597 0.05026 1.07617
 H1439 H -0.06860 0.02166 1.03781
 H1440 H -0.09091 0.03080 1.08283
 C1441 C 0.39895 0.52162 0.72704
 C1442 C 0.41505 0.53055 0.70473
 C1443 C 0.40774 0.52561 0.67554
 C1444 C 0.38420 0.51126 0.66902
 C1445 C 0.36839 0.50190 0.69126
 C1446 C 0.37594 0.50604 0.72078
 C1447 C 0.42564 0.53376 0.65203
 C1448 C 0.41584 0.54115 0.62643
 C1449 C 0.43133 0.53879 0.59933
 C1450 C 0.41862 0.52645 0.57529
 C1451 C 0.43311 0.51894 0.55083
 C1452 C 0.46053 0.52512 0.54861
 C1453 C 0.47294 0.53923 0.57210
 C1454 C 0.45853 0.54569 0.59751
 H1455 H 0.40461 0.52680 0.74935
 H1456 H 0.43303 0.54167 0.71028
 H1457 H 0.37816 0.50678 0.64665
 H1458 H 0.35006 0.49165 0.68518
 H1459 H 0.44696 0.53104 0.65492
 H1460 H 0.39444 0.54377 0.62411
 H1461 H 0.39779 0.52060 0.57635
 H1462 H 0.42280 0.50681 0.53444
 H1463 H 0.49408 0.54387 0.57162
 H1464 H 0.46875 0.55535 0.61590
 C1465 C 0.39868 0.47688 -0.23031
 C1466 C 0.41234 0.46798 -0.20596
 C1467 C 0.40054 0.46921 -0.17843
 C1468 C 0.37445 0.47913 -0.17586
 C1469 C 0.36087 0.48814 -0.20016
 C1470 C 0.37323 0.48855 -0.22758
 C1471 C 0.41676 0.46247 -0.15259
 C1472 C 0.40594 0.45616 -0.12724
 C1473 C 0.42117 0.45844 -0.09955
 C1474 C 0.40895 0.47132 -0.07591
 C1475 C 0.42366 0.47826 -0.05090
 C1476 C 0.45075 0.47122 -0.04809
 C1477 C 0.46255 0.45670 -0.07122
 C1478 C 0.44795 0.45059 -0.09690
 H1479 H 0.40821 0.47460 -0.25128
 H1480 H 0.43227 0.46013 -0.20862
 H1481 H 0.36465 0.48086 -0.15501
 H1482 H 0.34071 0.49533 -0.19738
 H1483 H 0.43824 0.46508 -0.15386
 H1484 H 0.38451 0.45351 -0.12576
 H1485 H 0.38841 0.47778 -0.07759
 H1486 H 0.41391 0.49034 -0.03441
 H1487 H 0.48340 0.45127 -0.07019
 H1488 H 0.45775 0.44039 -0.11489
 C1489 C -0.09738 0.98169 0.27091
 C1490 C -0.08282 0.97462 0.29558
 C1491 C -0.09530 0.97265 0.32263
 C1492 C -0.12288 0.97759 0.32438
 C1493 C -0.13736 0.98460 0.29985
 C1494 C -0.12480 0.98793 0.27286
 C1495 C -0.07872 0.96772 0.34889
 C1496 C -0.08899 0.96043 0.37421
 C1497 C -0.07391 0.96359 0.40191
 C1498 C -0.08650 0.97628 0.42548
 C1499 C -0.07204 0.98343 0.45065
 C1500 C -0.04487 0.97681 0.45361
 C1501 C -0.03271 0.96255 0.43048
 C1502 C -0.04703 0.95625 0.40470
 H1503 H -0.08699 0.98186 0.25042
 H1504 H -0.06165 0.97069 0.29352
 H1505 H -0.13346 0.97696 0.34472
 H1506 H -0.15858 0.98809 0.30210
 H1507 H -0.05757 0.97236 0.34794
 H1508 H -0.11003 0.95579 0.37577
 H1509 H -0.10716 0.98232 0.42364
 H1510 H -0.08201 0.99535 0.46712
 H1511 H -0.01177 0.95747 0.43155
 H1512 H -0.03698 0.94624 0.38676
 C1513 C 0.10131 0.47919 0.27405
 C1514 C 0.08123 0.48360 0.29445
 C1515 C 0.07897 0.50796 0.30926
 C1516 C 0.09574 0.52856 0.30134
 C1517 C 0.11591 0.52413 0.28090
 C1518 C 0.12048 0.49874 0.26867
 C1519 C 0.06192 0.50967 0.33540
 C1520 C 0.05511 0.53188 0.34991
 C1521 C 0.04436 0.53065 0.37965
 C1522 C 0.05701 0.51476 0.39969
 C1523 C 0.04589 0.51110 0.42679
 C1524 C 0.02174 0.52328 0.43477
 C1525 C 0.00997 0.54062 0.41539
 C1526 C 0.02138 0.54447 0.38806
 H1527 H 0.10310 0.45982 0.26390
 H1528 H 0.06824 0.46747 0.29974
 H1529 H 0.09438 0.54777 0.31187
 H1530 H 0.12818 0.54066 0.27553
 H1531 H 0.05635 0.49124 0.34463
 H1532 H 0.05809 0.55079 0.34071
 H1533 H 0.07526 0.50456 0.39403
 H1534 H 0.05594 0.49789 0.44105
 H1535 H -0.00857 0.55037 0.42077
 H1536 H 0.01159 0.55716 0.37300
 C1537 C 0.63636 0.05015 -0.20401
 C1538 C 0.62154 0.05825 -0.17980
 C1539 C 0.59681 0.04677 -0.17430
 C1540 C 0.58643 0.02776 -0.19429
 C1541 C 0.60136 0.01937 -0.21841
 C1542 C 0.62704 0.03001 -0.22371
 C1543 C 0.58503 0.05128 -0.14521
 C1544 C 0.55916 0.04749 -0.13950
 C1545 C 0.55016 0.04392 -0.10942
 C1546 C 0.52514 0.05305 -0.10033
 C1547 C 0.51544 0.04705 -0.07287
 C1548 C 0.53035 0.03118 -0.05436
 C1549 C 0.55543 0.02213 -0.06379
 C1550 C 0.56537 0.02872 -0.09070
 H1551 H 0.65571 0.05917 -0.20595
 H1552 H 0.63011 0.07271 -0.16445
 H1553 H 0.56781 0.01776 -0.19013
 H1554 H 0.59362 0.00291 -0.23149
 H1555 H 0.59876 0.05589 -0.12725
 H1556 H 0.54464 0.04512 -0.15710
 H1557 H 0.51292 0.06442 -0.11469
 H1558 H 0.49578 0.05390 -0.06681
 H1559 H 0.56718 0.00913 -0.05083
 H1560 H 0.58436 0.02064 -0.09753
 C1561 C 0.68809 0.61133 -0.02683
 C1562 C 0.66348 0.59952 -0.03292
 C1563 C 0.66113 0.57231 -0.03607
 C1564 C 0.68460 0.55720 -0.03554
 C1565 C 0.70966 0.56923 -0.02996
 C1566 C 0.71150 0.59641 -0.02353
 C1567 C 0.63360 0.56130 -0.03815
 C1568 C 0.62665 0.53673 -0.03228
 C1569 C 0.59829 0.52976 -0.02704
 C1570 C 0.58807 0.50511 -0.03594
 C1571 C 0.56154 0.49826 -0.02990
 C1572 C 0.54480 0.51576 -0.01422
 C1573 C 0.55551 0.54023 -0.00491
 C1574 C 0.58171 0.54718 -0.01133
 H1575 H 0.68868 0.63237 -0.02320
 H1576 H 0.64593 0.61179 -0.03381
 H1577 H 0.68373 0.53621 -0.03923
 H1578 H 0.72722 0.55709 -0.03047
 H1579 H 0.61767 0.57513 -0.04174
 H1580 H 0.64166 0.52189 -0.02952
 H1581 H 0.60062 0.49117 -0.04763
 H1582 H 0.55440 0.47904 -0.03711
 H1583 H 0.54408 0.55386 0.00843
 H1584 H 0.58929 0.56593 -0.00301
 C1585 C 0.20325 1.10313 0.46960
 C1586 C 0.17752 1.09369 0.46328
 C1587 C 0.17008 1.06823 0.47003
 C1588 C 0.18943 1.05204 0.48248
 C1589 C 0.21530 1.06147 0.48875
 C1590 C 0.22277 1.08727 0.48248
 C1591 C 0.14137 1.06071 0.46710
 C1592 C 0.13220 1.03608 0.46812
 C1593 C 0.10347 1.02957 0.47145
 C1594 C 0.09692 1.00711 0.48632
 C1595 C 0.07041 1.00148 0.49290
 C1596 C 0.04957 1.01825 0.48478
 C1597 C 0.05594 1.03949 0.46755
 C1598 C 0.08265 1.04534 0.46127
 H1599 H 0.20757 1.12343 0.46562
 H1600 H 0.16299 1.10679 0.45419
 H1601 H 0.18444 1.03261 0.48917
 H1602 H 0.22880 1.04894 0.50021
 H1603 H 0.12719 1.07653 0.46593
 H1604 H 0.14618 1.02013 0.46938
 H1605 H 0.11249 0.99434 0.49392
 H1606 H 0.06655 0.98432 0.50526
 H1607 H 0.04041 1.05180 0.45916
 H1608 H 0.08686 1.06216 0.44848
 C1609 C 0.21960 -0.07649 0.98225
 C1610 C 0.19595 -0.06220 0.98385
 C1611 C 0.17850 -0.06503 1.00714
 C1612 C 0.18494 -0.08257 1.02876
 C1613 C 0.20824 -0.09739 1.02683
 C1614 C 0.22643 -0.09434 1.00378
 C1615 C 0.15216 -0.05230 1.00634
 C1616 C 0.13899 -0.04421 1.03026
 C1617 C 0.11109 -0.03542 1.02792
 C1618 C 0.10293 -0.01168 1.04116
 C1619 C 0.07692 -0.00255 1.03651
 C1620 C 0.05854 -0.01735 1.01906
 C1621 C 0.06655 -0.04202 1.00768
 C1622 C 0.09250 -0.05078 1.01179
 H1623 H 0.23240 -0.07409 0.96367
 H1624 H 0.19102 -0.04922 0.96653
 H1625 H 0.17120 -0.08600 1.04630
 H1626 H 0.21110 -0.11194 1.04295
 H1627 H 0.14297 -0.04995 0.98510
 H1628 H 0.14862 -0.04405 1.05152
 H1629 H 0.11699 0.00025 1.05405
 H1630 H 0.07152 0.01638 1.04595
 H1631 H 0.05331 -0.05420 0.99417
 H1632 H 0.09824 -0.06947 1.00191
 C1633 C 0.71072 0.41609 0.47719
 C1634 C 0.68717 0.43026 0.48036
 C1635 C 0.67149 0.42796 0.50517
 C1636 C 0.67964 0.41101 0.52679
 C1637 C 0.70299 0.39630 0.52333
 C1638 C 0.71941 0.39907 0.49876
 C1639 C 0.64497 0.44034 0.50566
 C1640 C 0.63272 0.44913 0.52990
 C1641 C 0.60454 0.45734 0.52820
 C1642 C 0.59617 0.48168 0.53979
 C1643 C 0.56991 0.49019 0.53481
 C1644 C 0.55161 0.47422 0.51856
 C1645 C 0.56002 0.44917 0.50876
 C1646 C 0.58601 0.44093 0.51343
 H1647 H 0.72202 0.41814 0.45744
 H1648 H 0.68086 0.44268 0.46303
 H1649 H 0.66720 0.40797 0.54553
 H1650 H 0.70753 0.38218 0.53954
 H1651 H 0.63475 0.44190 0.48483
 H1652 H 0.64314 0.45010 0.55073
 H1653 H 0.61022 0.49453 0.55152
 H1654 H 0.56424 0.50949 0.54293
 H1655 H 0.54705 0.43615 0.49594
 H1656 H 0.59191 0.42186 0.50471
 C1657 C -0.21035 0.38359 0.46870
 C1658 C -0.18667 0.39636 0.46203
 C1659 C -0.18328 0.42309 0.46883
 C1660 C -0.20442 0.43706 0.48183
 C1661 C -0.22823 0.42428 0.48848
 C1662 C -0.23178 0.39728 0.48178
 C1663 C -0.15621 0.43437 0.46613
 C1664 C -0.15039 0.45998 0.46799
 C1665 C -0.12245 0.46892 0.47213
 C1666 C -0.11316 0.49152 0.45910
 C1667 C -0.08649 0.49963 0.46305
 C1668 C -0.06886 0.48546 0.48054
 C1669 C -0.07879 0.46338 0.49427
 C1670 C -0.10511 0.45525 0.49015
 H1671 H -0.21162 0.36266 0.46441
 H1672 H -0.17047 0.38499 0.45264
 H1673 H -0.20217 0.45746 0.48855
 H1674 H -0.24324 0.43543 0.50022
 H1675 H -0.13988 0.42060 0.46411
 H1676 H -0.16598 0.47450 0.46725
 H1677 H -0.12640 0.50261 0.44552
 H1678 H -0.07977 0.51693 0.45238
 H1679 H -0.06625 0.45204 0.50825
 H1680 H -0.11198 0.43832 0.50145
 C1681 C 0.30088 -0.11052 -0.01092
 C1682 C 0.32519 -0.09783 -0.01441
 C1683 C 0.32731 -0.07062 -0.01043
 C1684 C 0.30444 -0.05630 -0.00242
 C1685 C 0.27985 -0.06907 0.00091
 C1686 C 0.27747 -0.09642 -0.00414
 C1687 C 0.35430 -0.05891 -0.01252
 C1688 C 0.36024 -0.03327 -0.01082
 C1689 C 0.38846 -0.02444 -0.00851
 C1690 C 0.39695 -0.00121 -0.02092
 C1691 C 0.42395 0.00652 -0.01907
 C1692 C 0.44279 -0.00881 -0.00456
 C1693 C 0.43376 -0.03171 0.00829
 C1694 C 0.40711 -0.03919 0.00671
 H1695 H 0.30014 -0.13162 -0.01402
 H1696 H 0.34256 -0.10949 -0.01992
 H1697 H 0.30545 -0.03541 0.00201
 H1698 H 0.26307 -0.05739 0.00807
 H1699 H 0.37062 -0.07263 -0.01503
 H1700 H 0.34471 -0.01868 -0.01097
 H1701 H 0.38280 0.01071 -0.03237
 H1702 H 0.42998 0.02442 -0.02903
 H1703 H 0.44715 -0.04412 0.01998
 H1704 H 0.40115 -0.05656 0.01775
 C1705 C 0.28763 1.08396 0.52709
 C1706 C 0.30962 1.06782 0.53149
 C1707 C 0.31667 1.04871 0.51038
 C1708 C 0.30056 1.04520 0.48523
 C1709 C 0.27820 1.06099 0.48106
 C1710 C 0.27102 1.08054 0.50205
 C1711 C 0.34206 1.03433 0.51409
 C1712 C 0.35871 1.03028 0.49178
 C1713 C 0.38679 1.02220 0.49563
 C1714 C 0.40635 1.03542 0.48040
 C1715 C 0.43307 1.02840 0.48255
 C1716 C 0.44115 1.00711 0.49905
 C1717 C 0.42143 0.99398 0.51474
 C1718 C 0.39448 1.00165 0.51330
 H1719 H 0.28442 1.09976 0.54298
 H1720 H 0.32206 1.07127 0.55075
 H1721 H 0.30552 1.03054 0.46852
 H1722 H 0.26679 1.05836 0.46097
 H1723 H 0.34893 1.03061 0.53600
 H1724 H 0.35296 1.03686 0.47046
 H1725 H 0.40094 1.05149 0.46688
 H1726 H 0.44725 1.03970 0.47066
 H1727 H 0.42668 0.97760 0.52780
 H1728 H 0.37962 0.99108 0.52522
 C1729 C -0.23846 0.57203 1.00988
 C1730 C -0.21477 0.55885 1.01708
 C1731 C -0.18964 0.56909 1.00984
 C1732 C -0.18880 0.59350 0.99700
 C1733 C -0.21211 0.60611 0.98925
 C1734 C -0.23765 0.59509 0.99390
 C1735 C -0.16437 0.55519 1.01688
 C1736 C -0.14193 0.55948 1.00189
 C1737 C -0.11486 0.54999 1.00899
 C1738 C -0.09327 0.56530 1.00042
 C1739 C -0.06727 0.55601 1.00182
 C1740 C -0.06186 0.53086 1.01162
 C1741 C -0.08345 0.51608 1.02205
 C1742 C -0.10977 0.52558 1.02080
 H1743 H -0.25733 0.56428 1.01709
 H1744 H -0.21607 0.54076 1.02846
 H1745 H -0.17009 0.60355 0.99349
 H1746 H -0.20978 0.62518 0.98021
 H1747 H -0.16412 0.54202 1.03476
 H1748 H -0.14286 0.57185 0.98334
 H1749 H -0.09664 0.58417 0.99116
 H1750 H -0.05190 0.56789 0.99254
 H1751 H -0.08031 0.49656 1.02961
 H1752 H -0.12611 0.51323 1.02736
 C1753 C 0.02037 0.72902 0.57147
 C1754 C 0.02468 0.70694 0.55313
 C1755 C 0.00854 0.68462 0.55504
 C1756 C -0.01150 0.68447 0.57613
 C1757 C -0.01525 0.70613 0.59511
 C1758 C 0.00009 0.72930 0.59274
 C1759 C 0.01449 0.66058 0.53733
 C1760 C -0.00493 0.64539 0.52527
 C1761 C -0.00013 0.61865 0.51290
 C1762 C -0.01645 0.60848 0.49006
 C1763 C -0.01542 0.58191 0.48147
 C1764 C 0.00146 0.56473 0.49614
 C1765 C 0.01834 0.57531 0.51850
 C1766 C 0.01787 0.60194 0.52644
 H1767 H 0.03330 0.74590 0.56945
 H1768 H 0.04073 0.70724 0.53750
 H1769 H -0.02345 0.66703 0.57893
 H1770 H -0.02967 0.70397 0.61218
 H1771 H 0.03522 0.65497 0.53493
 H1772 H -0.02538 0.65230 0.52556
 H1773 H -0.03074 0.62094 0.47955
 H1774 H -0.02910 0.57465 0.46456
 H1775 H 0.03095 0.56282 0.53115
 H1776 H 0.03018 0.60900 0.54468
 C1777 C 0.47576 0.22159 0.08579
 C1778 C 0.47765 0.20083 0.06525
 C1779 C 0.50261 0.19039 0.05782
 C1780 C 0.52580 0.20273 0.06950
 C1781 C 0.52389 0.22338 0.09022
 C1782 C 0.49874 0.23199 0.10031
 C1783 C 0.50346 0.16598 0.03919
 C1784 C 0.52372 0.14901 0.04045
 C1785 C 0.52203 0.12172 0.02848
 C1786 C 0.53658 0.10273 0.04283
 C1787 C 0.53362 0.07636 0.03481
 C1788 C 0.51664 0.06814 0.01149
 C1789 C 0.50300 0.08732 -0.00390
 C1790 C 0.50562 0.11389 0.00454
 H1791 H 0.45611 0.22891 0.09130
 H1792 H 0.45945 0.19231 0.05590
 H1793 H 0.54550 0.19649 0.06284
 H1794 H 0.54225 0.23246 0.09828
 H1795 H 0.48538 0.16027 0.02734
 H1796 H 0.54082 0.15377 0.05435
 H1797 H 0.54943 0.10820 0.06126
 H1798 H 0.54439 0.06237 0.04747
 H1799 H 0.48964 0.08183 -0.02183
 H1800 H 0.49456 0.12813 -0.00745
 C1801 C -0.01329 0.20603 0.88261
 C1802 C -0.01629 0.18359 0.89847
 C1803 C 0.00123 0.17826 0.92147
 C1804 C 0.02289 0.19543 0.92731
 C1805 C 0.02587 0.21809 0.91137
 C1806 C 0.00679 0.22476 0.88998
 C1807 C -0.00399 0.15415 0.93757
 C1808 C 0.01194 0.14404 0.95799
 C1809 C 0.00672 0.11766 0.96938
 C1810 C 0.01673 0.11097 0.99685
 C1811 C 0.01350 0.08545 1.00667
 C1812 C 0.00037 0.06611 0.98904
 C1813 C -0.00996 0.07320 0.96183
 C1814 C -0.00668 0.09834 0.95210
 H1815 H -0.02692 0.20828 0.86451
 H1816 H -0.03249 0.17019 0.89251
 H1817 H 0.03741 0.19177 0.94424
 H1818 H 0.04256 0.23112 0.91655
 H1819 H -0.02229 0.14379 0.93155
 H1820 H 0.02947 0.15461 0.96605
 H1821 H 0.02743 0.12539 1.01049
 H1822 H 0.02199 0.08070 1.02758
 H1823 H -0.02002 0.05909 0.94726
 H1824 H -0.01372 0.10204 0.93032
 C1825 C 0.47363 0.71169 0.40671
 C1826 C 0.46916 0.68953 0.42294
 C1827 C 0.48726 0.66878 0.42197
 C1828 C 0.50949 0.67019 0.40373
 C1829 C 0.51352 0.69194 0.38670
 C1830 C 0.49613 0.71366 0.38848
 C1831 C 0.48130 0.64473 0.43765
 C1832 C 0.50011 0.63172 0.45211
 C1833 C 0.49492 0.60587 0.46448
 C1834 C 0.50742 0.59917 0.49066
 C1835 C 0.50480 0.57384 0.50099
 C1836 C 0.49027 0.55442 0.48486
 C1837 C 0.47772 0.56142 0.45865
 C1838 C 0.47965 0.58683 0.44887
 H1839 H 0.45924 0.72739 0.40811
 H1840 H 0.45149 0.68859 0.43631
 H1841 H 0.52312 0.65388 0.40162
 H1842 H 0.52991 0.69095 0.37164
 H1843 H 0.46082 0.63766 0.43735
 H1844 H 0.51999 0.64012 0.45476
 H1845 H 0.51956 0.61347 0.50290
 H1846 H 0.51506 0.56927 0.52102
 H1847 H 0.46688 0.54705 0.44510
 H1848 H 0.47034 0.59120 0.42824
 C1849 C 0.50413 0.76515 0.41897
 C1850 C 0.50619 0.78929 0.43456
 C1851 C 0.50658 0.81283 0.41978
 C1852 C 0.50557 0.81161 0.38923
 C1853 C 0.50343 0.78770 0.37375
 C1854 C 0.50176 0.76390 0.38817
 C1855 C 0.50945 0.83906 0.43462
 C1856 C 0.50553 0.84486 0.46312
 C1857 C 0.50867 0.87219 0.47520
 C1858 C 0.52710 0.88933 0.46309
 C1859 C 0.52727 0.91579 0.47116
 C1860 C 0.50996 0.92607 0.49273
 C1861 C 0.49300 0.90850 0.50667
 C1862 C 0.49240 0.88178 0.49798
 H1863 H 0.50481 0.74766 0.43135
 H1864 H 0.50804 0.78934 0.45805
 H1865 H 0.50637 0.82935 0.37713
 H1866 H 0.50253 0.78778 0.35018
 H1867 H 0.51407 0.85492 0.42053
 H1868 H 0.49839 0.83002 0.47732
 H1869 H 0.54089 0.88255 0.44647
 H1870 H 0.54044 0.92831 0.45934
 H1871 H 0.47923 0.91557 0.52317
 H1872 H 0.47828 0.86888 0.50805
 C1873 C 0.00463 0.27346 0.92640
 C1874 C 0.00471 0.29586 0.94493
 C1875 C 0.00810 0.32067 0.93372
 C1876 C 0.01181 0.32272 0.90362
 C1877 C 0.01205 0.30039 0.88517
 C1878 C 0.00936 0.27512 0.89615
 C1879 C 0.00696 0.34429 0.95342
 C1880 C -0.00546 0.36582 0.94497
 C1881 C -0.00737 0.39073 0.96234
 C1882 C -0.02710 0.40820 0.95403
 C1883 C -0.02749 0.43361 0.96579
 C1884 C -0.00793 0.44262 0.98626
 C1885 C 0.01057 0.42440 0.99649
 C1886 C 0.01106 0.39869 0.98444
 H1887 H 0.00015 0.25513 0.93614
 H1888 H 0.00122 0.29388 0.96798
 H1889 H 0.01469 0.34161 0.89428
 H1890 H 0.01475 0.30279 0.86205
 H1891 H 0.01502 0.34335 0.97533
 H1892 H -0.01553 0.36511 0.92390
 H1893 H -0.04171 0.40253 0.93730
 H1894 H -0.04255 0.44641 0.95730
 H1895 H 0.02581 0.43036 1.01224
 H1896 H 0.02672 0.38572 0.99125
 C1897 C 0.46179 0.28731 0.10404
 C1898 C 0.45588 0.30904 0.08768
 C1899 C 0.47587 0.32161 0.07214
 C1900 C 0.50190 0.31144 0.07259
 C1901 C 0.50783 0.28974 0.08900
 C1902 C 0.48826 0.27810 0.10637
 C1903 C 0.46926 0.34641 0.05805
 C1904 C 0.48425 0.35731 0.03760
 C1905 C 0.48006 0.38444 0.02821
 C1906 C 0.48998 0.39204 0.00128
 C1907 C 0.48907 0.41827 -0.00646
 C1908 C 0.47852 0.43752 0.01281
 C1909 C 0.46804 0.42963 0.03945
 C1910 C 0.46876 0.40357 0.04702
 H1911 H 0.44541 0.27781 0.11467
 H1912 H 0.43553 0.31617 0.08731
 H1913 H 0.51802 0.32057 0.06113
 H1914 H 0.52808 0.28239 0.08879
 H1915 H 0.45142 0.35636 0.06553
 H1916 H 0.50058 0.34646 0.02783
 H1917 H 0.49906 0.37773 -0.01350
 H1918 H 0.49754 0.42353 -0.02703
 H1919 H 0.45987 0.44373 0.05509
 H1920 H 0.46167 0.39885 0.06836
 C1921 C -0.00812 0.80242 0.61763
 C1922 C -0.01182 0.82676 0.60588
 C1923 C -0.01552 0.82916 0.57583
 C1924 C -0.01644 0.80623 0.55778
 C1925 C -0.01271 0.78160 0.56964
 C1926 C -0.00747 0.77934 0.59976
 C1927 C -0.01833 0.85606 0.56517
 C1928 C -0.01950 0.86269 0.53715
 C1929 C -0.02071 0.89053 0.52892
 C1930 C -0.01043 0.89786 0.50206
 C1931 C -0.00931 0.92427 0.49498
 C1932 C -0.01848 0.94391 0.51468
 C1933 C -0.02966 0.93632 0.54106
 C1934 C -0.03128 0.91007 0.54780
 H1935 H -0.00495 0.80162 0.64094
 H1936 H -0.01145 0.84392 0.62051
 H1937 H -0.02013 0.80706 0.53461
 H1938 H -0.01413 0.76453 0.55506
 H1939 H -0.01805 0.87154 0.58191
 H1940 H -0.01780 0.84787 0.51983
 H1941 H -0.00250 0.88319 0.48689
 H1942 H -0.00059 0.92927 0.47446
 H1943 H -0.03727 0.95069 0.55675
 H1944 H -0.04071 0.90532 0.56801
 C1945 C 0.23484 0.33425 0.03856
 C1946 C 0.22832 0.32047 0.06317
 C1947 C 0.21805 0.33343 0.08803
 C1948 C 0.21384 0.36055 0.08754
 C1949 C 0.22065 0.37439 0.06311
 C1950 C 0.23053 0.36149 0.03775
 C1951 C 0.21395 0.31832 0.11454
 C1952 C 0.21528 0.32944 0.14142
 C1953 C 0.21943 0.31412 0.16758
 C1954 C 0.23725 0.32426 0.18882
 C1955 C 0.24454 0.30953 0.21231
 C1956 C 0.23323 0.28461 0.21608
 C1957 C 0.21438 0.27484 0.19535
 C1958 C 0.20764 0.28942 0.17113
 H1959 H 0.24405 0.32344 0.02069
 H1960 H 0.23225 0.29967 0.06315
 H1961 H 0.20546 0.37133 0.10595
 H1962 H 0.21786 0.39538 0.06379
 H1963 H 0.21363 0.29717 0.11200
 H1964 H 0.21818 0.35035 0.14425
 H1965 H 0.24667 0.34320 0.18648
 H1966 H 0.25956 0.31773 0.22722
 H1967 H 0.20551 0.25565 0.19725
 H1968 H 0.19354 0.28130 0.15510
 C1969 C 0.76031 0.84455 0.54770
 C1970 C 0.75192 0.83100 0.57179
 C1971 C 0.72980 0.83951 0.58792
 C1972 C 0.71575 0.86153 0.57910
 C1973 C 0.72402 0.87500 0.55490
 C1974 C 0.74602 0.86633 0.53805
 C1975 C 0.72308 0.82589 0.61471
 C1976 C 0.71311 0.83835 0.63838
 C1977 C 0.71419 0.82653 0.66712
 C1978 C 0.72392 0.84175 0.69093
 C1979 C 0.73092 0.83009 0.71681
 C1980 C 0.72725 0.80303 0.71998
 C1981 C 0.71517 0.78826 0.69674
 C1982 C 0.70882 0.79987 0.67052
 H1983 H 0.77822 0.83801 0.53671
 H1984 H 0.76340 0.81435 0.57849
 H1985 H 0.69855 0.86862 0.59104
 H1986 H 0.71335 0.89261 0.54992
 H1987 H 0.73014 0.80601 0.61642
 H1988 H 0.70877 0.85903 0.63793
 H1989 H 0.72833 0.86233 0.68869
 H1990 H 0.74119 0.84216 0.73320
 H1991 H 0.71216 0.76737 0.69802
 H1992 H 0.70089 0.78779 0.65250
 C1993 C 0.24982 0.61842 0.56500
 C1994 C 0.26024 0.62922 0.59106
 C1995 C 0.28201 0.64658 0.59122
 C1996 C 0.29395 0.65215 0.56458
 C1997 C 0.28360 0.64113 0.53834
 C1998 C 0.26056 0.62494 0.53786
 C1999 C 0.29103 0.65831 0.61974
 C2000 C 0.30438 0.68109 0.62317
 C2001 C 0.30552 0.69544 0.65188
 C2002 C 0.30544 0.68241 0.67824
 C2003 C 0.29870 0.69578 0.70423
 C2004 C 0.29184 0.72240 0.70442
 C2005 C 0.29636 0.73608 0.67880
 C2006 C 0.30302 0.72269 0.65280
 H2007 H 0.23368 0.60441 0.56653
 H2008 H 0.25105 0.62402 0.61132
 H2009 H 0.31146 0.66462 0.56387
 H2010 H 0.29358 0.64527 0.51821
 H2011 H 0.28313 0.64937 0.63886
 H2012 H 0.31033 0.69152 0.60422
 H2013 H 0.30897 0.66157 0.67858
 H2014 H 0.29756 0.68466 0.72349
 H2015 H 0.29228 0.75679 0.67799
 H2016 H 0.30377 0.73336 0.63291
 C2017 C 0.78592 0.12456 0.01779
 C2018 C 0.79331 0.13740 0.04404
 C2019 C 0.77953 0.15954 0.05423
 C2020 C 0.75790 0.16858 0.03776
 C2021 C 0.75008 0.15536 0.01171
 C2022 C 0.76441 0.13350 0.00059
 C2023 C 0.78535 0.17008 0.08405
 C2024 C 0.78252 0.19528 0.09243
 C2025 C 0.78243 0.20362 0.12367
 C2026 C 0.79257 0.22821 0.13315
 C2027 C 0.78951 0.23721 0.16222
 C2028 C 0.77555 0.22203 0.18208
 C2029 C 0.76579 0.19727 0.17226
 C2030 C 0.76952 0.18807 0.14373
 H2031 H 0.79656 0.10683 0.01193
 H2032 H 0.80940 0.12951 0.05693
 H2033 H 0.74607 0.18491 0.04582
 H2034 H 0.73237 0.16195 0.00049
 H2035 H 0.79141 0.15620 0.10005
 H2036 H 0.77888 0.20980 0.07635
 H2037 H 0.80230 0.24068 0.11790
 H2038 H 0.79682 0.25657 0.16865
 H2039 H 0.75402 0.18523 0.18620
 H2040 H 0.76071 0.16939 0.13693
 C2041 C 0.73405 0.12068 0.92253
 C2042 C 0.72587 0.13444 0.89843
 C2043 C 0.73019 0.16143 0.89775
 C2044 C 0.74437 0.17419 0.92087
 C2045 C 0.75296 0.16034 0.94486
 C2046 C 0.74672 0.13353 0.94683
 C2047 C 0.72172 0.17533 0.87164
 C2048 C 0.71436 0.20049 0.87273
 C2049 C 0.71148 0.21582 0.84624
 C2050 C 0.71829 0.24241 0.84813
 C2051 C 0.72243 0.25607 0.82288
 C2052 C 0.72005 0.24330 0.79514
 C2053 C 0.70854 0.21812 0.79353
 C2054 C 0.70466 0.20430 0.81882
 H2055 H 0.72992 0.09987 0.92263
 H2056 H 0.71581 0.12402 0.88041
 H2057 H 0.74952 0.19473 0.92009
 H2058 H 0.76473 0.17076 0.96146
 H2059 H 0.72258 0.16455 0.85090
 H2060 H 0.71359 0.21100 0.89366
 H2061 H 0.72265 0.25207 0.86909
 H2062 H 0.72975 0.27600 0.82535
 H2063 H 0.70351 0.20852 0.77289
 H2064 H 0.69740 0.18434 0.81673
 C2065 C 0.24447 0.65835 0.48929
 C2066 C 0.23905 0.67488 0.46646
 C2067 C 0.23363 0.66464 0.43821
 C2068 C 0.23335 0.63738 0.43328
 C2069 C 0.23884 0.62088 0.45601
 C2070 C 0.24562 0.63097 0.48426
 C2071 C 0.23087 0.68289 0.41410
 C2072 C 0.21979 0.67636 0.38800
 C2073 C 0.22266 0.69282 0.36234
 C2074 C 0.20461 0.68984 0.33877
 C2075 C 0.20886 0.70297 0.31297
 C2076 C 0.23161 0.71894 0.31000
 C2077 C 0.24923 0.72226 0.33406
 C2078 C 0.24488 0.70942 0.35971
 H2079 H 0.24734 0.66728 0.51082
 H2080 H 0.23911 0.69584 0.47091
 H2081 H 0.22972 0.62860 0.41177
 H2082 H 0.23834 0.59995 0.45143
 H2083 H 0.23914 0.70235 0.41794
 H2084 H 0.20905 0.65801 0.38482
 H2085 H 0.18753 0.67682 0.34006
 H2086 H 0.19503 0.69949 0.29503
 H2087 H 0.26723 0.73402 0.33296
 H2088 H 0.25987 0.71156 0.37683
 C2089 C 0.78241 0.87840 0.46545
 C2090 C 0.79230 0.86450 0.44127
 C2091 C 0.78640 0.83788 0.43667
 C2092 C 0.76981 0.82548 0.45652
 C2093 C 0.75977 0.83946 0.48079
 C2094 C 0.76677 0.86599 0.48631
 C2095 C 0.79416 0.82515 0.40864
 C2096 C 0.79411 0.79924 0.40299
 C2097 C 0.79198 0.78874 0.37259
 C2098 C 0.80350 0.76476 0.36383
 C2099 C 0.79876 0.75397 0.33557
 C2100 C 0.78191 0.76680 0.31604
 C2101 C 0.77053 0.79078 0.32532
 C2102 C 0.77567 0.80164 0.35287
 H2103 H 0.78715 0.89906 0.46805
 H2104 H 0.80419 0.87477 0.42573
 H2105 H 0.76349 0.80536 0.45271
 H2106 H 0.74604 0.82951 0.49467
 H2107 H 0.79785 0.83800 0.39087
 H2108 H 0.79295 0.78570 0.42046
 H2109 H 0.81575 0.75423 0.37896
 H2110 H 0.80737 0.73521 0.32948
 H2111 H 0.75674 0.80111 0.31165
 H2112 H 0.76553 0.81959 0.35921
 C2113 C 0.22492 0.34266 0.97297
 C2114 C 0.22981 0.32635 0.94854
 C2115 C 0.25433 0.32750 0.93417
 C2116 C 0.27350 0.34604 0.94391
 C2117 C 0.26842 0.36277 0.96799
 C2118 C 0.24448 0.36061 0.98394
 C2119 C 0.25773 0.31180 0.90682
 C2120 C 0.28138 0.30366 0.89640
 C2121 C 0.28293 0.29295 0.86612
 C2122 C 0.29617 0.26945 0.85894
 C2123 C 0.29406 0.25816 0.83051
 C2124 C 0.27901 0.27052 0.80898
 C2125 C 0.26751 0.29500 0.81628
 C2126 C 0.26968 0.30608 0.84418
 H2127 H 0.20584 0.34102 0.98368
 H2128 H 0.21432 0.31283 0.94075
 H2129 H 0.29196 0.34843 0.93217
 H2130 H 0.28328 0.37762 0.97349
 H2131 H 0.23975 0.30746 0.89405
 H2132 H 0.29944 0.30550 0.90957
 H2133 H 0.30682 0.25919 0.87562
 H2134 H 0.30301 0.23927 0.82583
 H2135 H 0.25548 0.30535 0.80086
 H2136 H 0.25994 0.32460 0.84896
 C2137 C 0.81755 0.49051 0.74184
 C2138 C 0.80239 0.46811 0.74672
 C2139 C 0.81129 0.44984 0.76646
 C2140 C 0.83520 0.45492 0.78213
 C2141 C 0.85041 0.47727 0.77724
 C2142 C 0.84163 0.49588 0.75741
 C2143 C 0.79647 0.42480 0.76840
 C2144 C 0.80927 0.40238 0.77271
 C2145 C 0.79678 0.37637 0.76773
 C2146 C 0.81249 0.35668 0.75501
 C2147 C 0.80195 0.33187 0.74914
 C2148 C 0.77553 0.32553 0.75677
 C2149 C 0.75970 0.34534 0.76979
 C2150 C 0.77018 0.37067 0.77503
 H2151 H 0.81059 0.50361 0.72549
 H2152 H 0.78422 0.46451 0.73409
 H2153 H 0.84256 0.44138 0.79781
 H2154 H 0.86943 0.47940 0.78852
 H2155 H 0.77550 0.42424 0.76218
 H2156 H 0.83078 0.40272 0.77580
 H2157 H 0.83295 0.36068 0.74892
 H2158 H 0.81474 0.31778 0.73819
 H2159 H 0.73926 0.34137 0.77584
 H2160 H 0.75770 0.38559 0.78514
 C2161 C 0.35789 0.95157 0.26730
 C2162 C 0.34648 0.92700 0.27064
 C2163 C 0.31976 0.92207 0.26276
 C2164 C 0.30440 0.94249 0.25186
 C2165 C 0.31588 0.96722 0.24840
 C2166 C 0.34285 0.97234 0.25637
 C2167 C 0.31000 0.89472 0.26294
 C2168 C 0.28419 0.88743 0.26290
 C2169 C 0.27650 0.85945 0.26001
 C2170 C 0.25462 0.84985 0.27527
 C2171 C 0.24805 0.82313 0.27333
 C2172 C 0.26305 0.80560 0.25572
 C2173 C 0.28429 0.81572 0.23963
 C2174 C 0.29090 0.84216 0.24173
 H2175 H 0.37894 0.95413 0.27247
 H2176 H 0.35893 0.91148 0.27854
 H2177 H 0.28401 0.93911 0.24448
 H2178 H 0.30388 0.98186 0.23818
 H2179 H 0.32514 0.87965 0.26307
 H2180 H 0.26861 0.90187 0.26566
 H2181 H 0.24298 0.86292 0.28918
 H2182 H 0.23133 0.81629 0.28578
 H2183 H 0.29631 0.80320 0.22560
 H2184 H 0.30732 0.84909 0.22886
 C2185 C 0.13898 0.94581 0.73237
 C2186 C 0.14923 0.92193 0.72257
 C2187 C 0.17622 0.91964 0.71555
 C2188 C 0.19238 0.94229 0.71615
 C2189 C 0.18184 0.96660 0.72528
 C2190 C 0.15532 0.96842 0.73539
 C2191 C 0.18656 0.89305 0.70930
 C2192 C 0.21069 0.88541 0.71841
 C2193 C 0.21791 0.85747 0.72050
 C2194 C 0.24495 0.85061 0.72124
 C2195 C 0.25254 0.82506 0.72691
 C2196 C 0.23323 0.80567 0.73238
 C2197 C 0.20608 0.81258 0.73108
 C2198 C 0.19851 0.83808 0.72526
 H2199 H 0.11821 0.94643 0.73874
 H2200 H 0.13624 0.90487 0.72180
 H2201 H 0.21307 0.94123 0.70953
 H2202 H 0.19459 0.98365 0.72443
 H2203 H 0.17241 0.87855 0.70065
 H2204 H 0.22498 0.89988 0.72688
 H2205 H 0.26031 0.86523 0.71812
 H2206 H 0.27370 0.82089 0.72798
 H2207 H 0.19053 0.79898 0.73643
 H2208 H 0.17748 0.84277 0.72625
 C2209 C 0.63845 0.44868 0.22981
 C2210 C 0.65069 0.42449 0.22637
 C2211 C 0.67496 0.41967 0.24043
 C2212 C 0.68666 0.43943 0.25860
 C2213 C 0.67420 0.46374 0.26230
 C2214 C 0.65042 0.46922 0.24694
 C2215 C 0.68558 0.39292 0.23807
 C2216 C 0.71134 0.38680 0.24172
 C2217 C 0.71966 0.35917 0.24123
 C2218 C 0.74411 0.35158 0.22903
 C2219 C 0.75160 0.32522 0.22810
 C2220 C 0.73485 0.30608 0.23973
 C2221 C 0.71066 0.31414 0.25249
 C2222 C 0.70324 0.34023 0.25332
 H2223 H 0.61916 0.45104 0.21937
 H2224 H 0.64081 0.40924 0.21308
 H2225 H 0.70472 0.43579 0.27096
 H2226 H 0.68294 0.47806 0.27763
 H2227 H 0.67131 0.37742 0.23248
 H2228 H 0.72645 0.40201 0.24432
 H2229 H 0.75723 0.36598 0.21991
 H2230 H 0.77059 0.31997 0.21851
 H2231 H 0.69754 0.30051 0.26274
 H2232 H 0.68475 0.34560 0.26398
 C2233 C 0.64060 0.54218 0.27042
 C2234 C 0.65474 0.56552 0.27414
 C2235 C 0.68103 0.56756 0.26441
 C2236 C 0.69298 0.54565 0.25058
 C2237 C 0.67873 0.52206 0.24686
 C2238 C 0.65252 0.51965 0.25766
 C2239 C 0.69357 0.59376 0.26613
 C2240 C 0.71961 0.59891 0.26263
 C2241 C 0.72873 0.62630 0.26071
 C2242 C 0.75281 0.63503 0.27382
 C2243 C 0.76023 0.66152 0.27326
 C2244 C 0.74374 0.67953 0.25931
 C2245 C 0.72014 0.67020 0.24542
 C2246 C 0.71291 0.64405 0.24585
 H2247 H 0.62000 0.54176 0.27742
 H2248 H 0.64475 0.58231 0.28406
 H2249 H 0.71278 0.54693 0.24149
 H2250 H 0.68801 0.50609 0.23472
 H2251 H 0.68017 0.61007 0.27015
 H2252 H 0.73417 0.58336 0.26140
 H2253 H 0.76548 0.62153 0.28508
 H2254 H 0.77870 0.66784 0.28394
 H2255 H 0.70692 0.68305 0.23407
 H2256 H 0.69472 0.63774 0.23454
 C2257 C 0.18680 0.01404 0.76971
 C2258 C 0.20400 0.03565 0.77509
 C2259 C 0.19603 0.06077 0.76756
 C2260 C 0.16984 0.06419 0.75727
 C2261 C 0.15290 0.04287 0.75196
 C2262 C 0.16170 0.01703 0.75570
 C2263 C 0.21436 0.08374 0.77031
 C2264 C 0.21436 0.10100 0.74908
 C2265 C 0.22442 0.12826 0.75169
 C2266 C 0.21066 0.14649 0.73550
 C2267 C 0.21833 0.17257 0.73644
 C2268 C 0.24074 0.18155 0.75289
 C2269 C 0.25471 0.16323 0.76937
 C2270 C 0.24646 0.13677 0.76901
 H2271 H 0.19337 -0.00508 0.77592
 H2272 H 0.22367 0.03267 0.78443
 H2273 H 0.16240 0.08356 0.75319
 H2274 H 0.13277 0.04688 0.74459
 H2275 H 0.22587 0.08731 0.79019
 H2276 H 0.20292 0.09598 0.72939
 H2277 H 0.19337 0.14062 0.72230
 H2278 H 0.20613 0.18566 0.72423
 H2279 H 0.27194 0.16928 0.78250
 H2280 H 0.25754 0.12303 0.78170
 C2281 C 0.31963 0.02719 0.26652
 C2282 C 0.30568 0.05074 0.26698
 C2283 C 0.30994 0.06896 0.24553
 C2284 C 0.32816 0.06302 0.22324
 C2285 C 0.34263 0.03969 0.22312
 C2286 C 0.33847 0.02111 0.24464
 C2287 C 0.29855 0.09541 0.24964
 C2288 C 0.29203 0.11081 0.22776
 C2289 C 0.28534 0.13858 0.23378
 C2290 C 0.26294 0.14994 0.22084
 C2291 C 0.25634 0.17607 0.22780
 C2292 C 0.27246 0.19146 0.24727
 C2293 C 0.29568 0.18008 0.25879
 C2294 C 0.30182 0.15402 0.25245
 H2295 H 0.31660 0.01417 0.28421
 H2296 H 0.29220 0.05517 0.28479
 H2297 H 0.33268 0.07721 0.20709
 H2298 H 0.35809 0.03708 0.20703
 H2299 H 0.29612 0.10285 0.27191
 H2300 H 0.29194 0.10320 0.20540
 H2301 H 0.25017 0.13839 0.20601
 H2302 H 0.23851 0.18407 0.21811
 H2303 H 0.30905 0.19103 0.27340
 H2304 H 0.31963 0.14589 0.26212
 C2305 C 0.81866 0.54881 0.76233
 C2306 C 0.80560 0.57282 0.76231
 C2307 C 0.81646 0.59388 0.74776
 C2308 C 0.84104 0.59063 0.73358
 C2309 C 0.85420 0.56664 0.73372
 C2310 C 0.84289 0.54495 0.74729
 C2311 C 0.80277 0.61942 0.75019
 C2312 C 0.80583 0.63843 0.73119
 C2313 C 0.79403 0.66475 0.73575
 C2314 C 0.80649 0.68617 0.72328
 C2315 C 0.79771 0.71160 0.72963
 C2316 C 0.77653 0.71620 0.74904
 C2317 C 0.76245 0.69451 0.75921
 C2318 C 0.77113 0.66911 0.75273
 H2319 H 0.81001 0.53362 0.77504
 H2320 H 0.78712 0.57508 0.77421
 H2321 H 0.85078 0.60677 0.72338
 H2322 H 0.87358 0.56506 0.72353
 H2323 H 0.79009 0.62259 0.76891
 H2324 H 0.81864 0.63532 0.71255
 H2325 H 0.82363 0.68330 0.70932
 H2326 H 0.80793 0.72757 0.71968
 H2327 H 0.74530 0.69704 0.77318
 H2328 H 0.75998 0.65305 0.76139
 C2329 C 0.95370 0.76093 0.12847
 C2330 C 0.92985 0.76238 0.14380
 C2331 C 0.93001 0.76631 0.17418
 C2332 C 0.95458 0.77063 0.18876
 C2333 C 0.97858 0.76945 0.17330
 C2334 C 0.97863 0.76287 0.14308
 C2335 C 0.90397 0.76666 0.18922
 C2336 C 0.90040 0.76202 0.21756
 C2337 C 0.87315 0.76097 0.23012
 C2338 C 0.86745 0.74426 0.25288
 C2339 C 0.84101 0.74088 0.26228
 C2340 C 0.81988 0.75416 0.24899
 C2341 C 0.82614 0.77179 0.22720
 C2342 C 0.85231 0.77566 0.21852
 H2343 H 0.95275 0.75721 0.10510
 H2344 H 0.91115 0.75983 0.13185
 H2345 H 0.95534 0.77524 0.21196
 H2346 H 0.99694 0.77368 0.18524
 H2347 H 0.88656 0.76900 0.17537
 H2348 H 0.91727 0.75694 0.23113
 H2349 H 0.88326 0.73299 0.26252
 H2350 H 0.83704 0.72709 0.27900
 H2351 H 0.81074 0.78244 0.21608
 H2352 H 0.85595 0.78973 0.20202
 C2353 C 0.47367 0.22023 0.65473
 C2354 C 0.45382 0.21890 0.67591
 C2355 C 0.43349 0.23757 0.67744
 C2356 C 0.43250 0.25663 0.65625
 C2357 C 0.45211 0.25784 0.63495
 C2358 C 0.47391 0.24044 0.63454
 C2359 C 0.41219 0.23579 0.69955
 C2360 C 0.39977 0.25716 0.71019
 C2361 C 0.37323 0.25621 0.72384
 C2362 C 0.35393 0.27331 0.71377
 C2363 C 0.32761 0.27138 0.72269
 C2364 C 0.31988 0.25337 0.74357
 C2365 C 0.33970 0.23700 0.75490
 C2366 C 0.36614 0.23814 0.74479
 H2367 H 0.48930 0.20568 0.65435
 H2368 H 0.45449 0.20341 0.69131
 H2369 H 0.41607 0.27026 0.65550
 H2370 H 0.44956 0.27224 0.61862
 H2371 H 0.40541 0.21656 0.70541
 H2372 H 0.40688 0.27625 0.70421
 H2373 H 0.35887 0.28716 0.69736
 H2374 H 0.31315 0.28344 0.71199
 H2375 H 0.33455 0.22246 0.77042
 H2376 H 0.38085 0.22476 0.75294
 C2377 C 0.48303 0.73701 0.84216
 C2378 C 0.46030 0.73493 0.82412
 C2379 C 0.43515 0.74207 0.83468
 C2380 C 0.43298 0.75052 0.86404
 C2381 C 0.45556 0.75251 0.88211
 C2382 C 0.48130 0.74604 0.87169
 C2383 C 0.41131 0.73977 0.81514
 C2384 C 0.39061 0.75606 0.81836
 C2385 C 0.36467 0.75350 0.80252
 C2386 C 0.34287 0.76638 0.81514
 C2387 C 0.31769 0.76466 0.80219
 C2388 C 0.31334 0.75030 0.77569
 C2389 C 0.33532 0.73762 0.76261
 C2390 C 0.36079 0.73908 0.77597
 H2391 H 0.50174 0.73139 0.83246
 H2392 H 0.46244 0.72799 0.80167
 H2393 H 0.41372 0.75509 0.87341
 H2394 H 0.45281 0.75870 0.90471
 H2395 H 0.41096 0.72440 0.79826
 H2396 H 0.39210 0.77178 0.83485
 H2397 H 0.34518 0.77759 0.83556
 H2398 H 0.30156 0.77463 0.81343
 H2399 H 0.33296 0.72634 0.74238
 H2400 H 0.37726 0.72917 0.76533
 C2401 C 0.95111 0.24568 0.37105
 C2402 C 0.92728 0.24328 0.35512
 C2403 C 0.92740 0.24087 0.32461
 C2404 C 0.95212 0.24033 0.31034
 C2405 C 0.97615 0.24264 0.32635
 C2406 C 0.97612 0.24615 0.35711
 C2407 C 0.90128 0.23754 0.30916
 C2408 C 0.89687 0.24100 0.28062
 C2409 C 0.86958 0.23810 0.26761
 C2410 C 0.86138 0.25407 0.24500
 C2411 C 0.83459 0.25391 0.23540
 C2412 C 0.81557 0.23764 0.24817
 C2413 C 0.82449 0.22042 0.26936
 C2414 C 0.85109 0.22034 0.27855
 H2415 H 0.95009 0.24740 0.39460
 H2416 H 0.90858 0.24325 0.36681
 H2417 H 0.95309 0.23737 0.28692
 H2418 H 0.99452 0.24093 0.31434
 H2419 H 0.88436 0.23315 0.32270
 H2420 H 0.91281 0.24788 0.26708
 H2421 H 0.87538 0.26765 0.23584
 H2422 H 0.82858 0.26747 0.21910
 H2423 H 0.81072 0.20761 0.28002
 H2424 H 0.85689 0.20687 0.29503
 C2425 C 0.04844 0.23022 0.36073
 C2426 C 0.07062 0.23031 0.34264
 C2427 C 0.07397 0.24987 0.32261
 C2428 C 0.05480 0.26972 0.32114
 C2429 C 0.03208 0.26925 0.33876
 C2430 C 0.02781 0.24883 0.35811
 C2431 C 0.09817 0.24919 0.30443
 C2432 C 0.11295 0.27055 0.30034
 C2433 C 0.14086 0.26824 0.29056
 C2434 C 0.16096 0.27971 0.30824
 C2435 C 0.18775 0.27572 0.30165
 C2436 C 0.19526 0.26136 0.27618
 C2437 C 0.17494 0.25029 0.25806
 C2438 C 0.14793 0.25346 0.26537
 H2439 H 0.04798 0.21538 0.37676
 H2440 H 0.08564 0.21534 0.34484
 H2441 H 0.05713 0.28527 0.30604
 H2442 H 0.01737 0.28453 0.33680
 H2443 H 0.10632 0.23018 0.29833
 H2444 H 0.10650 0.28927 0.30955
 H2445 H 0.15591 0.29088 0.32794
 H2446 H 0.20261 0.28419 0.31659
 H2447 H 0.17983 0.23868 0.23866
 H2448 H 0.13260 0.24429 0.25153
 C2449 C 0.54431 0.72681 0.86289
 C2450 C 0.56826 0.72768 0.84752
 C2451 C 0.58020 0.75167 0.84164
 C2452 C 0.56774 0.77482 0.85125
 C2453 C 0.54421 0.77401 0.86731
 C2454 C 0.53212 0.74994 0.87423
 C2455 C 0.60692 0.75212 0.82828
 C2456 C 0.61482 0.77059 0.81026
 C2457 C 0.64302 0.77269 0.80135
 C2458 C 0.66354 0.77079 0.82213
 C2459 C 0.69019 0.77300 0.81411
 C2460 C 0.69721 0.77683 0.78491
 C2461 C 0.67649 0.77892 0.76412
 C2462 C 0.64962 0.77738 0.77240
 H2463 H 0.53540 0.70783 0.86618
 H2464 H 0.57751 0.70953 0.84023
 H2465 H 0.57677 0.79365 0.84741
 H2466 H 0.53613 0.79260 0.87439
 H2467 H 0.62078 0.73689 0.83395
 H2468 H 0.60056 0.78446 0.80214
 H2469 H 0.65895 0.76778 0.84476
 H2470 H 0.70523 0.77115 0.83100
 H2471 H 0.68089 0.78161 0.74149
 H2472 H 0.63400 0.77916 0.75609
 C2473 C 0.54773 0.24346 0.60939
 C2474 C 0.57325 0.24573 0.62195
 C2475 C 0.57667 0.24960 0.65221
 C2476 C 0.55373 0.25200 0.66953
 C2477 C 0.52818 0.24955 0.65697
 C2478 C 0.52460 0.24401 0.62672
 C2479 C 0.60444 0.25168 0.66418
 C2480 C 0.61106 0.25471 0.69263
 C2481 C 0.63920 0.25730 0.70334
 C2482 C 0.64526 0.25250 0.73261
 C2483 C 0.67159 0.25476 0.74334
 C2484 C 0.69256 0.26157 0.72491
 C2485 C 0.68614 0.26729 0.69588
 C2486 C 0.65997 0.26534 0.68532
 H2487 H 0.54599 0.24071 0.58593
 H2488 H 0.59045 0.24449 0.60783
 H2489 H 0.55510 0.25608 0.69275
 H2490 H 0.51143 0.25263 0.67130
 H2491 H 0.62021 0.25003 0.64832
 H2492 H 0.59572 0.25470 0.70899
 H2493 H 0.62956 0.24691 0.74725
 H2494 H 0.67521 0.25131 0.76603
 H2495 H 0.70138 0.27338 0.68098
 H2496 H 0.65625 0.27063 0.66310
 C2497 C 0.05425 0.76793 0.13803
 C2498 C 0.07657 0.76570 0.15619
 C2499 C 0.07582 0.74981 0.18031
 C2500 C 0.05248 0.73537 0.18537
 C2501 C 0.03000 0.73778 0.16727
 C2502 C 0.02982 0.75543 0.14432
 C2503 C 0.09960 0.74956 0.19976
 C2504 C 0.10619 0.72971 0.21660
 C2505 C 0.13214 0.72990 0.23239
 C2506 C 0.14781 0.70734 0.23174
 C2507 C 0.17460 0.70866 0.24080
 C2508 C 0.18620 0.73252 0.25095
 C2509 C 0.16919 0.75422 0.25510
 C2510 C 0.14256 0.75298 0.24574
 H2511 H 0.05637 0.77961 0.11908
 H2512 H 0.09463 0.77639 0.15125
 H2513 H 0.05122 0.72274 0.20365
 H2514 H 0.01232 0.72642 0.17185
 H2515 H 0.11341 0.76590 0.19852
 H2516 H 0.09429 0.71195 0.21593
 H2517 H 0.13992 0.68911 0.22227
 H2518 H 0.18613 0.69114 0.23858
 H2519 H 0.17686 0.77290 0.26351
 H2520 H 0.13052 0.77047 0.24756
   
