data_POSCAR
  _audit_creation_date              2014-09-24
  _audit_creation_method            'ToBaCCo'
  _symmetry_space_group_name_H-M    'P1'
  _symmetry_Int_Tables_number       1
  _symmetry_cell_setting            triclinic
  loop_
  _symmetry_equiv_pos_as_xyz
 x,y,z
_cell_length_a 47.1122
_cell_length_b 46.9603
_cell_length_c 42.6065
_cell_angle_alpha 90.274500
_cell_angle_beta 89.448600
_cell_angle_gamma 92.559600
loop_
  _atom_site_label
  _atom_site_type_symbol
  _atom_site_fract_x
  _atom_site_fract_y
  _atom_site_fract_z
C1 C 0.38349 0.02895 0.29808
 C2 C 0.36365 0.05128 0.28638
 C3 C 0.34705 0.04245 0.26210
 C4 C 0.35186 0.01187 0.25121
 C5 C 0.36401 0.00269 0.30541
 C6 C 0.34748 -0.00636 0.28100
 C7 C 0.40033 0.01974 0.26891
 C8 C 0.38405 0.01109 0.24392
 H9 H 0.36261 0.07230 0.29682
 H10 H 0.33726 0.00523 0.23211
 H11 H 0.36520 -0.00921 0.32704
 H12 H 0.42294 0.01752 0.26928
 C13 C 0.11782 -0.01494 0.77489
 C14 C 0.13178 -0.04101 0.76121
 C15 C 0.14820 -0.03552 0.73551
 C16 C 0.14893 -0.00430 0.72522
 C17 C 0.14240 0.00708 0.78033
 C18 C 0.15879 0.01281 0.75446
 C19 C 0.10213 -0.00332 0.74891
 C20 C 0.11897 0.00244 0.72098
 H21 H 0.12960 -0.06198 0.77173
 H22 H 0.16342 -0.00121 0.70491
 H23 H 0.14461 0.01916 0.80196
 H24 H 0.08086 0.00381 0.75167
 C25 C 0.61822 0.47797 0.28226
 C26 C 0.63216 0.45161 0.26939
 C27 C 0.64827 0.45640 0.24317
 C28 C 0.64898 0.48731 0.23179
 C29 C 0.64270 0.50030 0.28651
 C30 C 0.65878 0.50529 0.26025
 C31 C 0.60158 0.48954 0.25441
 C32 C 0.61752 0.49426 0.22789
 H33 H 0.62980 0.43089 0.28045
 H34 H 0.66251 0.49089 0.21060
 H35 H 0.64471 0.51364 0.30725
 H36 H 0.57929 0.49393 0.25550
 C37 C 0.88813 0.53326 0.79723
 C38 C 0.86660 0.55480 0.78756
 C39 C 0.84933 0.54597 0.76381
 C40 C 0.85523 0.51608 0.75127
 C41 C 0.87043 0.50576 0.80414
 C42 C 0.85322 0.49671 0.78031
 C43 C 0.90422 0.52623 0.76682
 C44 C 0.88722 0.51725 0.74257
 H45 H 0.86530 0.57556 0.79858
 H46 H 0.84066 0.50918 0.73214
 H47 H 0.87264 0.49361 0.82547
 H48 H 0.92698 0.52522 0.76545
 C49 C 0.27743 0.41134 1.00028
 C50 C 0.26574 0.39210 1.02689
 C51 C 0.24387 0.37378 1.01813
 C52 C 0.23581 0.37635 0.98339
 C53 C 0.28505 0.39092 0.97386
 C54 C 0.26362 0.37260 0.96500
 C55 C 0.25098 0.42618 0.98883
 C56 C 0.22890 0.40803 0.98005
 H57 H 0.27335 0.39371 1.05076
 H58 H 0.21870 0.36100 0.97583
 H59 H 0.30574 0.39158 0.96247
 H60 H 0.24842 0.44870 0.99253
 C61 C 0.77520 0.08782 0.98487
 C62 C 0.76548 0.10713 0.95856
 C63 C 0.74546 0.12552 0.96766
 C64 C 0.73683 0.12273 1.00236
 C65 C 0.78460 0.10810 1.01140
 C66 C 0.76465 0.12624 1.02078
 C67 C 0.74900 0.07351 0.99628
 C68 C 0.72729 0.09264 1.00586
 H69 H 0.77287 0.10545 0.93449
 H70 H 0.72201 0.13911 1.00954
 H71 H 0.80438 0.10610 1.02383
 H72 H 0.74448 0.05111 0.99207
 C73 C 0.27701 0.58557 0.50275
 C74 C 0.26938 0.60295 0.47381
 C75 C 0.24888 0.62200 0.47930
 C76 C 0.23770 0.62177 0.51327
 C77 C 0.28450 0.60769 0.52802
 C78 C 0.26413 0.62649 0.53378
 C79 C 0.24842 0.57159 0.51323
 C80 C 0.22757 0.59038 0.51861
 H81 H 0.27814 0.59945 0.45063
 H82 H 0.22153 0.63770 0.51797
 H83 H 0.30352 0.60690 0.54205
 H84 H 0.24424 0.54877 0.51216
 C85 C 0.77545 0.90649 0.50635
 C86 C 0.76170 0.88881 0.53304
 C87 C 0.73920 0.87149 0.52411
 C88 C 0.73246 0.87341 0.48898
 C89 C 0.78260 0.88473 0.48095
 C90 C 0.76044 0.86736 0.47188
 C91 C 0.75064 0.92264 0.49277
 C92 C 0.72796 0.90540 0.48392
 H93 H 0.76901 0.89027 0.55704
 H94 H 0.71440 0.85911 0.48144
 H95 H 0.80341 0.88417 0.46993
 H96 H 0.74898 0.94545 0.49461
 C97 C -0.00653 0.27986 0.40417
 C98 C 0.01897 0.28030 0.38129
 C99 C 0.01844 0.25811 0.36042
 C100 C -0.00764 0.23715 0.36484
 C101 C -0.03103 0.27857 0.38369
 C102 C -0.03217 0.25509 0.36217
 C103 C -0.00621 0.25067 0.41987
 C104 C -0.00674 0.22800 0.39976
 H105 H 0.03532 0.29713 0.38040
 H106 H -0.00776 0.21936 0.34773
 H107 H -0.04757 0.29380 0.38539
 H108 H -0.00353 0.24868 0.44495
 C109 C 0.01210 0.77665 0.11173
 C110 C -0.01457 0.77481 0.13239
 C111 C -0.01578 0.75293 0.15326
 C112 C 0.00980 0.73370 0.15065
 C113 C 0.03685 0.77657 0.13489
 C114 C 0.03558 0.75445 0.15540
 C115 C 0.01257 0.74746 0.09552
 C116 C 0.01147 0.72484 0.11562
 H117 H -0.03106 0.79006 0.13066
 H118 H 0.00911 0.71575 0.16751
 H119 H 0.05411 0.79262 0.13482
 H120 H 0.01334 0.74465 0.07041
 C121 C 0.52150 0.28507 0.60472
 C122 C 0.49320 0.28420 0.62280
 C123 C 0.48903 0.26151 0.64252
 C124 C 0.51366 0.24094 0.64154
 C125 C 0.54373 0.28312 0.63077
 C126 C 0.53970 0.26014 0.64975
 C127 C 0.52180 0.25640 0.58763
 C128 C 0.51784 0.23318 0.60655
 H129 H 0.47820 0.30085 0.62066
 H130 H 0.51094 0.22240 0.65748
 H131 H 0.56078 0.29870 0.63511
 H132 H 0.52445 0.25489 0.56242
 C133 C 0.49023 0.78314 0.91034
 C134 C 0.51537 0.78440 0.88701
 C135 C 0.51716 0.76071 0.86851
 C136 C 0.49332 0.73767 0.87529
 C137 C 0.46442 0.77754 0.88909
 C138 C 0.46577 0.75380 0.87094
 C139 C 0.49312 0.75712 0.92779
 C140 C 0.49494 0.73172 0.90915
 H141 H 0.52999 0.80270 0.88464
 H142 H 0.49391 0.71900 0.85941
 H143 H 0.44729 0.79203 0.88700
 H144 H 0.49670 0.75790 0.95281
 C145 C -0.22151 0.62764 0.94589
 C146 C -0.19824 0.60961 0.95880
 C147 C -0.20655 0.59303 0.98357
 C148 C -0.23772 0.59588 0.99349
 C149 C -0.24637 0.60653 0.93880
 C150 C -0.25526 0.59019 0.96361
 C151 C -0.23238 0.64444 0.97440
 C152 C -0.24039 0.62814 0.99973
 H153 H -0.17654 0.61099 0.95008
 H154 H -0.24397 0.58169 1.01330
 H155 H -0.25831 0.60714 0.91724
 H156 H -0.23540 0.66708 0.97360
 C157 C -0.27529 0.36691 0.47502
 C158 C -0.29755 0.38713 0.48691
 C159 C -0.28831 0.40498 0.51011
 C160 C -0.25772 0.40024 0.52045
 C161 C -0.24931 0.38649 0.46633
 C162 C -0.23997 0.40385 0.49014
 C163 C -0.26685 0.35178 0.50291
 C164 C -0.25642 0.36985 0.52794
 H165 H -0.31808 0.38899 0.47600
 H166 H -0.25077 0.41555 0.53893
 H167 H -0.23799 0.38487 0.44419
 H168 H -0.27150 0.32934 0.50643
 C169 C 0.22635 -0.12299 -0.01605
 C170 C 0.20280 -0.10644 -0.00057
 C171 C 0.21148 -0.09024 0.02427
 C172 C 0.24308 -0.09216 0.03180
 C173 C 0.24987 -0.10030 -0.02402
 C174 C 0.25871 -0.08412 0.00093
 C175 C 0.23853 -0.13931 0.00910
 C176 C 0.24773 -0.12264 0.03584
 H177 H 0.18125 -0.10671 -0.00929
 H178 H 0.24964 -0.07781 0.05133
 H179 H 0.26097 -0.09964 -0.04641
 H180 H 0.24079 -0.16199 0.00750
 C181 C 0.26986 1.11753 0.44384
 C182 C 0.29602 1.10362 0.45639
 C183 C 0.29131 1.08833 0.48304
 C184 C 0.26042 1.08810 0.49487
 C185 C 0.24738 1.09320 0.44019
 C186 C 0.24197 1.07785 0.46680
 C187 C 0.25844 1.13493 0.47160
 C188 C 0.25412 1.12002 0.49884
 H189 H 0.31681 1.10640 0.44545
 H190 H 0.25726 1.07466 0.51595
 H191 H 0.23376 1.09143 0.41987
 H192 H 0.25250 1.15668 0.46902
 C193 C 0.16559 0.52721 0.23885
 C194 C 0.14891 0.51605 0.21028
 C195 C 0.13182 0.49248 0.21610
 C196 C 0.13270 0.48223 0.25014
 C197 C 0.14311 0.53146 0.26444
 C198 C 0.12560 0.50834 0.27023
 C199 C 0.18164 0.50124 0.24985
 C200 C 0.16447 0.47753 0.25534
 H201 H 0.15130 0.52547 0.18719
 H202 H 0.11861 0.46307 0.25445
 H203 H 0.14207 0.55110 0.27776
 H204 H 0.20448 0.50042 0.25019
 C205 C -0.16748 1.01880 0.26829
 C206 C -0.14766 1.00739 0.29318
 C207 C -0.12937 0.98801 0.28202
 C208 C -0.13267 0.98168 0.24679
 C209 C -0.14781 1.03010 0.24204
 C210 C -0.12969 1.01095 0.23064
 C211 C -0.18176 0.99340 0.25518
 C212 C -0.16275 0.97250 0.24356
 H213 H -0.14927 1.01280 0.31787
 H214 H -0.11711 0.96677 0.23731
 H215 H -0.14909 1.05129 0.23231
 H216 H -0.20389 0.98797 0.26000
 C217 C 0.32512 0.52714 -0.22566
 C218 C 0.34436 0.51478 -0.20079
 C219 C 0.36313 0.49617 -0.21229
 C220 C 0.36071 0.49107 -0.24779
 C221 C 0.34534 0.53939 -0.25105
 C222 C 0.36387 0.52074 -0.26291
 C223 C 0.31057 0.50062 -0.24086
 C224 C 0.32922 0.48149 -0.25222
 H225 H 0.34283 0.51989 -0.17603
 H226 H 0.37589 0.47574 -0.25721
 H227 H 0.34485 0.56129 -0.25878
 H228 H 0.28802 0.49548 -0.23875
 C229 C 0.66344 0.03323 -0.26296
 C230 C 0.64287 0.02235 -0.28849
 C231 C 0.62510 0.00017 -0.27937
 C232 C 0.62922 -0.00907 -0.24537
 C233 C 0.64470 0.03981 -0.23467
 C234 C 0.62670 0.01812 -0.22561
 C235 C 0.67882 0.00637 -0.25355
 C236 C 0.66102 -0.01611 -0.24452
 H237 H 0.64463 0.02928 -0.31268
 H238 H 0.61406 -0.02639 -0.23757
 H239 H 0.64543 0.06036 -0.22294
 H240 H 0.70105 0.00380 -0.25860
 C241 C 0.03984 0.24471 0.84283
 C242 C 0.04021 0.27182 0.86322
 C243 C 0.01705 0.27371 0.88247
 C244 C -0.00444 0.24817 0.87945
 C245 C 0.03614 0.22014 0.86641
 C246 C 0.01326 0.22204 0.88581
 C247 C 0.01295 0.24411 0.82637
 C248 C -0.01173 0.24684 0.84596
 H249 H 0.05701 0.28829 0.86188
 H250 H -0.02219 0.24952 0.89641
 H251 H 0.04981 0.20223 0.86721
 H252 H 0.01157 0.23807 0.80195
 C253 C 0.52021 0.25567 0.14866
 C254 C 0.52089 0.23251 0.12327
 C255 C 0.49896 0.23248 0.10262
 C256 C 0.47779 0.25591 0.10945
 C257 C 0.51865 0.28328 0.12966
 C258 C 0.49654 0.28369 0.10930
 C259 C 0.49108 0.25151 0.16427
 C260 C 0.46871 0.25185 0.14422
 H261 H 0.53777 0.21767 0.12146
 H262 H 0.45984 0.25613 0.09281
 H263 H 0.53538 0.29979 0.12935
 H264 H 0.48861 0.24848 0.18933
 C265 C 0.02025 0.75115 0.64729
 C266 C 0.01814 0.72325 0.62829
 C267 C -0.00379 0.72150 0.60765
 C268 C -0.02184 0.74790 0.60769
 C269 C 0.02166 0.77428 0.62179
 C270 C -0.00036 0.77286 0.60135
 C271 C -0.00909 0.75338 0.66268
 C272 C -0.03125 0.75143 0.64228
 H273 H 0.03362 0.70695 0.62946
 H274 H -0.03947 0.74652 0.59060
 H275 H 0.03850 0.79065 0.62013
 H276 H -0.01194 0.75436 0.68790
 C277 C 0.53747 0.74337 0.35030
 C278 C 0.53774 0.77168 0.36863
 C279 C 0.51444 0.77498 0.38744
 C280 C 0.49280 0.74941 0.38620
 C281 C 0.53360 0.72074 0.37611
 C282 C 0.51029 0.72367 0.39484
 C283 C 0.50942 0.74226 0.33270
 C284 C 0.48603 0.74558 0.35103
 H285 H 0.55554 0.78707 0.36799
 H286 H 0.47373 0.75189 0.40128
 H287 H 0.54856 0.70438 0.38014
 H288 H 0.50851 0.74095 0.30733
 B289 B -0.01831 0.02114 1.03230
 B290 B -0.03178 0.01297 0.99678
 B291 B -0.00497 0.03778 0.99994
 B292 B 0.01725 0.02757 1.02835
 B293 B 0.00375 -0.00411 1.04243
 B294 B -0.02682 -0.01318 1.02291
 B295 B 0.01691 -0.01136 0.98034
 B296 B 0.03040 -0.00337 1.01581
 B297 B 0.00354 -0.02795 1.01265
 B298 B -0.01852 -0.01786 0.98426
 B299 B -0.00511 0.01394 0.97009
 B300 B 0.02552 0.02292 0.98971
 B301 B 0.49189 0.52716 0.54968
 B302 B 0.47310 0.51907 0.51715
 B303 B 0.49758 0.54674 0.51712
 B304 B 0.52545 0.53748 0.53906
 B305 B 0.51788 0.50388 0.55241
 B306 B 0.48529 0.49263 0.53908
 B307 B 0.52028 0.50138 0.48840
 B308 B 0.53927 0.50932 0.52088
 B309 B 0.51478 0.48202 0.52098
 B310 B 0.48698 0.49113 0.49916
 B311 B 0.49449 0.52489 0.48580
 B312 B 0.52720 0.53577 0.49893
 B313 B 0.52021 0.97557 0.53593
 B314 B 0.53419 0.98487 0.50067
 B315 B 0.50420 0.96410 0.50249
 B316 B 0.48432 0.97478 0.53330
 B317 B 0.50240 1.00310 0.55042
 B318 B 0.53364 1.00911 0.53018
 B319 B 0.48986 1.01788 0.49037
 B320 B 0.47578 1.00854 0.52542
 B321 B 0.50595 1.02935 0.52349
 B322 B 0.52573 1.01857 0.49284
 B323 B 0.50760 0.99068 0.47578
 B324 B 0.47652 0.98430 0.49591
 B325 B 0.01602 0.46881 1.03844
 B326 B 0.03192 0.47934 1.00435
 B327 B 0.00192 0.45818 1.00386
 B328 B -0.01965 0.46815 1.03361
 B329 B -0.00268 0.49605 1.05249
 B330 B 0.02950 0.50256 1.03465
 B331 B -0.01185 0.51233 0.99218
 B332 B -0.02780 0.50223 1.02603
 B333 B 0.00237 0.52295 1.02667
 B334 B 0.02371 0.51298 0.99698
 B335 B 0.00660 0.48527 0.97794
 B336 B -0.02551 0.47874 0.99615
 B337 B 0.00828 0.51265 0.46883
 B338 B 0.02389 0.51273 0.50415
 B339 B -0.00138 0.53610 0.49714
 B340 B -0.02638 0.51986 0.47398
 B341 B -0.01633 0.48583 0.46751
 B342 B 0.01498 0.48151 0.48638
 B343 B -0.02510 0.49250 0.53071
 B344 B -0.04079 0.49252 0.49539
 B345 B -0.01550 0.46927 0.50260
 B346 B 0.00956 0.48552 0.52559
 B347 B -0.00059 0.51937 0.53212
 B348 B -0.03200 0.52365 0.51340
 B349 B 0.50712 0.02317 -0.02934
 B350 B 0.52279 0.02217 0.00594
 B351 B 0.49708 0.04530 -0.00005
 B352 B 0.47231 0.02957 -0.02377
 B353 B 0.48289 -0.00394 -0.03189
 B354 B 0.51440 -0.00848 -0.01342
 B355 B 0.47419 0.00022 0.03160
 B356 B 0.45839 0.00134 -0.00355
 B357 B 0.48406 -0.02178 0.00235
 B358 B 0.50892 -0.00609 0.02602
 B359 B 0.49827 0.02738 0.03422
 B360 B 0.46677 0.03190 0.01579
 B361 B 0.49532 0.48465 -0.04036
 B362 B 0.47823 0.48937 -0.00578
 B363 B 0.50379 0.46516 -0.00911
 B364 B 0.52975 0.47881 -0.03337
 B365 B 0.51987 0.51161 -0.04467
 B366 B 0.48779 0.51780 -0.02785
 B367 B 0.52639 0.51260 0.01906
 B368 B 0.54320 0.50873 -0.01554
 B369 B 0.51747 0.53226 -0.01225
 B370 B 0.49190 0.51863 0.01203
 B371 B 0.50184 0.48575 0.02343
 B372 B 0.53392 0.47976 0.00627
 B373 B -0.01122 0.97828 0.46438
 B374 B -0.02478 0.98528 0.50015
 B375 B 0.00082 0.96161 0.49635
 B376 B 0.02397 0.97316 0.46798
 B377 B 0.01230 1.00469 0.45455
 B378 B -0.01815 1.01207 0.47453
 B379 B 0.02496 1.01128 0.51694
 B380 B 0.03856 1.00446 0.48117
 B381 B 0.01283 1.02803 0.48491
 B382 B -0.01014 1.01643 0.51327
 B383 B 0.00148 0.98494 0.52667
 B384 B 0.03186 0.97745 0.50669
 B385 B 0.76278 0.22339 0.22735
 B386 B 0.75463 0.21010 0.26302
 B387 B 0.77842 0.23782 0.25953
 B388 B 0.76775 0.25926 0.23039
 B389 B 0.73682 0.24426 0.21623
 B390 B 0.72872 0.21365 0.23651
 B391 B 0.72829 0.25810 0.27793
 B392 B 0.73615 0.27135 0.24221
 B393 B 0.71265 0.24348 0.24578
 B394 B 0.72323 0.22235 0.27491
 B395 B 0.75426 0.23722 0.28911
 B396 B 0.76228 0.26790 0.26877
 B397 B 0.71071 0.76010 0.70582
 B398 B 0.72139 0.78047 0.73685
 B399 B 0.69888 0.75165 0.74216
 B400 B 0.70843 0.72558 0.71730
 B401 B 0.73711 0.73842 0.69630
 B402 B 0.74491 0.77261 0.70813
 B403 B 0.75217 0.73773 0.75801
 B404 B 0.74152 0.71723 0.72731
 B405 B 0.76379 0.74590 0.72168
 B406 B 0.75444 0.77201 0.74664
 B407 B 0.72557 0.75913 0.76771
 B408 B 0.71824 0.72510 0.75581
 B409 B 0.27281 0.25799 0.76556
 B410 B 0.27105 0.27282 0.72986
 B411 B 0.29513 0.24819 0.73655
 B412 B 0.28047 0.22331 0.76119
 B413 B 0.24673 0.23286 0.76918
 B414 B 0.24091 0.26364 0.74960
 B415 B 0.25105 0.22267 0.70595
 B416 B 0.25277 0.20786 0.74171
 B417 B 0.22876 0.23247 0.73503
 B418 B 0.24341 0.25730 0.71034
 B419 B 0.27724 0.24782 0.70231
 B420 B 0.28297 0.21690 0.72185
 B421 B 0.24119 0.74133 0.28999
 B422 B 0.24595 0.72824 0.25362
 B423 B 0.22253 0.75375 0.25971
 B424 B 0.23574 0.77667 0.28740
 B425 B 0.26799 0.76490 0.29796
 B426 B 0.27422 0.73470 0.27695
 B427 B 0.27050 0.77846 0.23545
 B428 B 0.26602 0.79160 0.27182
 B429 B 0.28921 0.76597 0.26570
 B430 B 0.27597 0.74323 0.23811
 B431 B 0.24377 0.75495 0.22756
 B432 B 0.23751 0.78515 0.24858
 B433 B 0.25917 0.73188 0.73610
 B434 B 0.25041 0.71879 0.77167
 B435 B 0.27531 0.74552 0.76840
 B436 B 0.26571 0.76754 0.73938
 B437 B 0.23425 0.75401 0.72499
 B438 B 0.22478 0.72362 0.74505
 B439 B 0.22606 0.76784 0.78675
 B440 B 0.23476 0.78102 0.75122
 B441 B 0.21000 0.75420 0.75439
 B442 B 0.21953 0.73231 0.78344
 B443 B 0.25103 0.74577 0.79791
 B444 B 0.26048 0.77624 0.77783
 B445 B 0.21072 0.25499 0.19603
 B446 B 0.21953 0.27332 0.22921
 B447 B 0.19585 0.24508 0.23051
 B448 B 0.20651 0.21997 0.20495
 B449 B 0.23717 0.23298 0.18758
 B450 B 0.24490 0.26628 0.20233
 B451 B 0.24694 0.22825 0.25031
 B452 B 0.23830 0.20993 0.21747
 B453 B 0.26174 0.23815 0.21587
 B454 B 0.25120 0.26310 0.24154
 B455 B 0.22048 0.25003 0.25888
 B456 B 0.21299 0.21701 0.24413
 B457 B 0.76816 0.75247 0.27231
 B458 B 0.76740 0.76778 0.23682
 B459 B 0.79055 0.74231 0.24351
 B460 B 0.77484 0.71759 0.26748
 B461 B 0.74132 0.72799 0.27513
 B462 B 0.73672 0.75928 0.25598
 B463 B 0.74616 0.71856 0.21179
 B464 B 0.74706 0.70316 0.24730
 B465 B 0.72383 0.72858 0.24073
 B466 B 0.73957 0.75338 0.21671
 B467 B 0.77315 0.74296 0.20900
 B468 B 0.77768 0.71159 0.22803
 B469 B 0.74204 0.24605 0.78379
 B470 B 0.74807 0.23221 0.74797
 B471 B 0.72510 0.25837 0.75236
 B472 B 0.73751 0.28150 0.78012
 B473 B 0.76885 0.26922 0.79274
 B474 B 0.77536 0.23847 0.77279
 B475 B 0.77456 0.28170 0.73015
 B476 B 0.76865 0.29558 0.76587
 B477 B 0.79156 0.26928 0.76176
 B478 B 0.77911 0.24634 0.73391
 B479 B 0.74768 0.25854 0.72131
 B480 B 0.74115 0.28924 0.74123
 C481 C 0.43075 1.05393 0.38071
 C482 C 0.44503 1.05405 0.35165
 C483 C 0.42988 1.04726 0.32444
 C484 C 0.40061 1.03982 0.32612
 C485 C 0.38681 1.04293 0.35518
 N486 N 0.40206 1.04907 0.38136
 C487 C 0.44589 1.05291 0.41084
 N488 N 0.43146 1.04033 0.43512
 C489 C 0.44425 1.03236 0.46168
 C490 C 0.47384 1.03627 0.46506
 C491 C 0.48899 1.05108 0.44115
 C492 C 0.47509 1.05963 0.41411
 H493 H 0.44150 1.04740 0.30250
 H494 H 0.36407 1.03894 0.35738
 H495 H 0.43138 1.02025 0.47829
 H496 H 0.51186 1.05422 0.44212
 H497 H 0.46780 1.05763 0.34983
 H498 H 0.48745 1.06992 0.39554
 C499 C -0.06552 0.55449 0.88146
 C500 C -0.05026 0.55327 0.85309
 C501 C -0.06487 0.54790 0.82515
 C502 C -0.09466 0.54354 0.82547
 C503 C -0.10907 0.54780 0.85398
 N504 N -0.09439 0.55235 0.88085
 C505 C -0.05175 0.55124 0.91208
 N506 N -0.06731 0.53718 0.93450
 C507 C -0.05582 0.52757 0.96112
 C508 C -0.02651 0.53152 0.96660
 C509 C -0.01022 0.54766 0.94463
 C510 C -0.02276 0.55762 0.91734
 H511 H -0.05241 0.54628 0.80393
 H512 H -0.13203 0.54564 0.85522
 H513 H -0.06944 0.51452 0.97616
 H514 H 0.01251 0.55093 0.94732
 H515 H -0.02729 0.55434 0.85252
 H516 H -0.00964 0.56891 0.90008
 C517 C 0.07608 -0.03388 0.86357
 C518 C 0.10528 -0.03725 0.85978
 C519 C 0.11807 -0.03159 0.83084
 C520 C 0.10203 -0.02261 0.80533
 C521 C 0.07236 -0.02172 0.80955
 N522 N 0.06041 -0.02688 0.83830
 C523 C 0.06296 -0.03391 0.89512
 N524 N 0.03520 -0.04259 0.89922
 C525 C 0.02117 -0.03893 0.92696
 C526 C 0.03475 -0.02441 0.95204
 C527 C 0.06355 -0.01588 0.94807
 C528 C 0.07774 -0.02106 0.92014
 H529 H 0.14082 -0.03356 0.82849
 H530 H 0.05855 -0.01649 0.79060
 H531 H -0.00110 -0.04548 0.92852
 H532 H 0.07487 -0.00331 0.96563
 H533 H 0.11827 -0.04337 0.87924
 H534 H 0.09944 -0.01280 0.91738
 C535 C 0.57122 0.46731 0.36898
 C536 C 0.55664 0.46468 0.34050
 C537 C 0.57174 0.46668 0.31228
 C538 C 0.60137 0.47175 0.31232
 C539 C 0.61530 0.47077 0.34139
 N540 N 0.60009 0.46931 0.36865
 C541 C 0.55584 0.47219 0.39866
 N542 N 0.56584 0.46245 0.42633
 C543 C 0.55421 0.46970 0.45452
 C544 C 0.53240 0.48921 0.45596
 C545 C 0.52142 0.49855 0.42737
 C546 C 0.53289 0.49004 0.39896
 H547 H 0.55998 0.46477 0.29069
 H548 H 0.63825 0.47264 0.34252
 H549 H 0.56279 0.46109 0.47573
 H550 H 0.50432 0.51312 0.42650
 H551 H 0.53369 0.46210 0.34006
 H552 H 0.52483 0.49873 0.37748
 C553 C 0.58099 0.52005 0.14121
 C554 C 0.57002 0.53034 0.16965
 C555 C 0.58228 0.52254 0.19799
 C556 C 0.60542 0.50458 0.19814
 C557 C 0.61629 0.49569 0.16921
 N558 N 0.60390 0.50335 0.14209
 C559 C 0.56793 0.52462 0.11011
 N560 N 0.58169 0.51421 0.08472
 C561 C 0.57033 0.51318 0.05571
 C562 C 0.54279 0.52255 0.05043
 C563 C 0.52857 0.53482 0.07596
 C564 C 0.54102 0.53594 0.10582
 H565 H 0.57357 0.53053 0.21974
 H566 H 0.63387 0.48167 0.16799
 H567 H 0.58220 0.50272 0.03757
 H568 H 0.50716 0.54189 0.07337
 H569 H 0.55215 0.54397 0.17034
 H570 H 0.52892 0.54411 0.12527
 C571 C 0.08416 1.02871 0.63486
 C572 C 0.11363 1.03002 0.63877
 C573 C 0.12514 1.02186 0.66713
 C574 C 0.10753 1.01302 0.69260
 C575 C 0.07783 1.01423 0.68811
 N576 N 0.06719 1.02139 0.65976
 C577 C 0.07161 1.03062 0.60326
 N578 N 0.04465 1.03944 0.59962
 C579 C 0.03077 1.03709 0.57166
 C580 C 0.04350 1.02377 0.54575
 C581 C 0.07151 1.01512 0.54937
 C582 C 0.08567 1.01902 0.57748
 H583 H 0.14794 1.02246 0.66808
 H584 H 0.06269 1.00788 0.70616
 H585 H 0.00906 1.04359 0.57048
 H586 H 0.08208 1.00307 0.53144
 H587 H 0.12784 1.03635 0.61967
 H588 H 0.10652 1.01048 0.57964
 C589 C -0.07827 0.49005 0.65442
 C590 C -0.10571 0.48039 0.66329
 C591 C -0.11687 0.48875 0.69223
 C592 C -0.10099 0.50734 0.71199
 C593 C -0.07340 0.51629 0.70203
 N594 N -0.06295 0.50755 0.67397
 C595 C -0.06728 0.48522 0.62257
 N596 N -0.04078 0.47538 0.61805
 C597 C -0.02822 0.47475 0.58911
 C598 C -0.04184 0.48600 0.56299
 C599 C -0.06920 0.49634 0.56772
 C600 C -0.08219 0.49521 0.59707
 H601 H -0.13784 0.48054 0.69890
 H602 H -0.06033 0.53097 0.71585
 H603 H -0.00696 0.46711 0.58698
 H604 H -0.08030 0.50656 0.54907
 H605 H -0.11844 0.46675 0.64781
 H606 H -0.10285 0.50411 0.60030
 C607 C 0.41945 -0.01210 0.15437
 C608 C 0.39040 -0.01729 0.16023
 C609 C 0.37903 -0.01065 0.18955
 C610 C 0.39642 0.00142 0.21327
 C611 C 0.42579 0.00507 0.20652
 N612 N 0.43628 -0.00149 0.17770
 C613 C 0.43117 -0.01361 0.12231
 N614 N 0.45752 -0.02358 0.11699
 C615 C 0.47051 -0.02177 0.08828
 C616 C 0.45742 -0.00803 0.06337
 C617 C 0.43030 0.00251 0.06893
 C618 C 0.41694 -0.00086 0.09786
 H619 H 0.35651 -0.01463 0.19285
 H620 H 0.44056 0.01428 0.22329
 H621 H 0.49159 -0.02973 0.08546
 H622 H 0.41953 0.01436 0.05127
 H623 H 0.37649 -0.02567 0.14197
 H624 H 0.39646 0.00825 0.10168
 C625 C 0.35690 0.45872 0.01041
 C626 C 0.33481 0.47102 -0.00583
 C627 C 0.30826 0.45678 -0.00728
 C628 C 0.30318 0.43065 0.00825
 C629 C 0.32548 0.42006 0.02591
 N630 N 0.35141 0.43400 0.02630
 C631 C 0.38664 0.46999 0.00759
 N632 N 0.40542 0.46493 0.03079
 C633 C 0.43369 0.47186 0.02786
 C634 C 0.44483 0.48302 -0.00052
 C635 C 0.42546 0.48987 -0.02389
 C636 C 0.39660 0.48315 -0.02013
 H637 H 0.29241 0.46557 -0.02215
 H638 H 0.32297 0.39970 0.03760
 H639 H 0.44757 0.46722 0.04708
 H640 H 0.43257 0.49979 -0.04563
 H641 H 0.33823 0.49084 -0.01844
 H642 H 0.38257 0.48707 -0.03943
 C643 C -0.14364 0.94904 0.52441
 C644 C -0.16577 0.96560 0.51427
 C645 C -0.19280 0.95271 0.50987
 C646 C -0.19783 0.92349 0.51627
 C647 C -0.17545 0.90852 0.52888
 N648 N -0.14921 0.92122 0.53171
 C649 C -0.11380 0.95902 0.52110
 N650 N -0.09579 0.94110 0.50704
 C651 C -0.06830 0.94866 0.50086
 C652 C -0.05691 0.97575 0.50946
 C653 C -0.07524 0.99463 0.52431
 C654 C -0.10380 0.98644 0.52988
 H655 H -0.20887 0.96546 0.49986
 H656 H -0.17831 0.88606 0.53423
 H657 H -0.05594 0.93372 0.48789
 H658 H -0.06777 1.01591 0.53098
 H659 H -0.16170 0.98759 0.50742
 H660 H -0.11786 1.00124 0.54085
 C661 C -0.14792 0.04411 0.96982
 C662 C -0.17148 0.02837 0.98190
 C663 C -0.19751 0.04138 0.98501
 C664 C -0.20013 0.06977 0.97519
 C665 C -0.17634 0.08369 0.96094
 N666 N -0.15113 0.07102 0.95944
 C667 C -0.11893 0.03509 0.97458
 N668 N -0.10031 0.05415 0.98811
 C669 C -0.07336 0.04780 0.99488
 C670 C -0.06325 0.02088 0.98735
 C671 C -0.08229 0.00077 0.97326
 C672 C -0.11029 0.00772 0.96714
 H673 H -0.21467 0.02980 0.99701
 H674 H -0.17708 0.10564 0.95348
 H675 H -0.06044 0.06358 1.00732
 H676 H -0.07580 -0.02045 0.96747
 H677 H -0.16916 0.00724 0.99136
 H678 H -0.12491 -0.00793 0.95662
 C679 C 0.35238 0.53786 0.50241
 C680 C 0.32998 0.52989 0.52289
 C681 C 0.30457 0.54390 0.52129
 C682 C 0.30107 0.56538 0.49891
 C683 C 0.32357 0.57145 0.47775
 N684 N 0.34824 0.55788 0.48018
 C685 C 0.38139 0.52792 0.50613
 N686 N 0.39964 0.53065 0.48133
 C687 C 0.42780 0.52658 0.48393
 C688 C 0.43958 0.52107 0.51340
 C689 C 0.42076 0.51571 0.53865
 C690 C 0.39177 0.51955 0.53531
 H691 H 0.28826 0.53902 0.53875
 H692 H 0.32264 0.58835 0.46075
 H693 H 0.44105 0.52934 0.46320
 H694 H 0.42840 0.50916 0.56123
 H695 H 0.33228 0.51384 0.54069
 H696 H 0.37811 0.51732 0.55577
 C697 C 0.14066 0.55993 0.52054
 C698 C 0.14763 0.58807 0.51133
 C699 C 0.17576 0.59825 0.51171
 C700 C 0.19715 0.58091 0.52223
 C701 C 0.18896 0.55365 0.53377
 N702 N 0.16136 0.54382 0.53225
 C703 C 0.11169 0.54722 0.51578
 N704 N 0.10118 0.52565 0.53450
 C705 C 0.07439 0.51380 0.53094
 C706 C 0.05652 0.52373 0.50749
 C707 C 0.06762 0.54547 0.48769
 C708 C 0.09494 0.55684 0.49143
 H709 H 0.18056 0.61926 0.50233
 H710 H 0.20452 0.53981 0.54311
 H711 H 0.06695 0.49710 0.54680
 H712 H 0.05490 0.55478 0.46982
 H713 H 0.13167 0.60204 0.50309
 H714 H 0.10270 0.57310 0.47520
 C715 C 0.64170 0.06380 0.01895
 C716 C 0.64855 0.09305 0.01798
 C717 C 0.67671 0.10268 0.01488
 C718 C 0.69876 0.08331 0.01301
 C719 C 0.69085 0.05409 0.01714
 N720 N 0.66297 0.04521 0.01943
 C721 C 0.61184 0.05328 0.01621
 N722 N 0.60189 0.02960 0.03191
 C723 C 0.57438 0.01947 0.02943
 C724 C 0.55531 0.03325 0.00998
 C725 C 0.56582 0.05720 -0.00688
 C726 C 0.59370 0.06720 -0.00380
 H727 H 0.68012 0.12536 0.01251
 H728 H 0.70648 0.03802 0.01800
 H729 H 0.56752 0.00070 0.04255
 H730 H 0.55255 0.06840 -0.02278
 H731 H 0.63211 0.10846 0.01847
 H732 H 0.60112 0.08542 -0.01756
 C733 C 0.64631 0.94046 0.47304
 C734 C 0.67043 0.95523 0.46058
 C735 C 0.69706 0.94338 0.46299
 C736 C 0.69971 0.91684 0.47756
 C737 C 0.67492 0.90229 0.48835
 N738 N 0.64942 0.91438 0.48606
 C739 C 0.61769 0.95241 0.47472
 N740 N 0.59585 0.93482 0.48477
 C741 C 0.56953 0.94396 0.49095
 C742 C 0.56367 0.97294 0.48795
 C743 C 0.58567 0.99146 0.47654
 C744 C 0.61263 0.98136 0.46992
 H745 H 0.71561 0.95513 0.45387
 H746 H 0.67577 0.88201 0.50012
 H747 H 0.55427 0.92879 0.50088
 H748 H 0.58251 1.01401 0.47396
 H749 H 0.66910 0.97575 0.44947
 H750 H 0.62935 0.99644 0.46260
 C751 C 0.14489 0.43914 0.97390
 C752 C 0.14819 0.41013 0.97928
 C753 C 0.17546 0.39971 0.98035
 C754 C 0.19955 0.41799 0.97512
 C755 C 0.19494 0.44661 0.96764
 N756 N 0.16823 0.45645 0.96799
 C757 C 0.11688 0.45149 0.97809
 N758 N 0.09314 0.43814 0.96604
 C759 C 0.06666 0.44746 0.97198
 C760 C 0.06281 0.47045 0.99267
 C761 C 0.08735 0.48523 1.00393
 C762 C 0.11428 0.47597 0.99650
 H763 H 0.17736 0.37769 0.98681
 H764 H 0.21250 0.46147 0.96240
 H765 H 0.04881 0.43647 0.96094
 H766 H 0.08589 0.50354 1.01928
 H767 H 0.12996 0.39602 0.98454
 H768 H 0.13285 0.48698 1.00634
 C769 C -0.01334 0.34974 0.46987
 C770 C -0.03601 0.32977 0.46633
 C771 C -0.03301 0.30663 0.44622
 C772 C -0.00781 0.30371 0.42865
 C773 C 0.01519 0.32303 0.43506
 N774 N 0.01171 0.34551 0.45480
 C775 C -0.01807 0.37772 0.48413
 N776 N 0.00042 0.38950 0.50541
 C777 C -0.00082 0.41722 0.51486
 C778 C -0.02026 0.43525 0.50102
 C779 C -0.03948 0.42292 0.47920
 C780 C -0.03901 0.39423 0.47154
 H781 H -0.05090 0.29159 0.44325
 H782 H 0.03572 0.32097 0.42411
 H783 H 0.01490 0.42567 0.53118
 H784 H -0.05356 0.43566 0.46590
 H785 H -0.05620 0.33277 0.47797
 H786 H -0.05322 0.38567 0.45365
 C787 C 0.48258 -0.14228 -0.03072
 C788 C 0.45848 -0.15981 -0.03710
 C789 C 0.46118 -0.18431 -0.05521
 C790 C 0.48772 -0.19108 -0.06795
 C791 C 0.51169 -0.17425 -0.05848
 N792 N 0.50851 -0.15032 -0.04086
 C793 C 0.47957 -0.11341 -0.01777
 N794 N 0.49802 -0.10237 0.00401
 C795 C 0.49785 -0.07451 0.01333
 C796 C 0.47934 -0.05572 -0.00078
 C797 C 0.46037 -0.06717 -0.02338
 C798 C 0.45990 -0.09585 -0.03120
 H799 H 0.44230 -0.19759 -0.05981
 H800 H 0.53287 -0.17966 -0.06556
 H801 H 0.51341 -0.06672 0.03019
 H802 H 0.44684 -0.05378 -0.03665
 H803 H 0.43764 -0.15410 -0.02891
 H804 H 0.44573 -0.10375 -0.04946
 C805 C 0.01103 -0.14502 1.05869
 C806 C 0.00889 -0.17094 1.04213
 C807 C 0.00968 -0.19667 1.05861
 C808 C 0.01273 -0.19661 1.09153
 C809 C 0.01478 -0.17009 1.10685
 N810 N 0.01399 -0.14560 1.09038
 C811 C 0.01034 -0.11662 1.04387
 N812 N 0.01848 -0.09394 1.06199
 C813 C 0.01718 -0.06673 1.05230
 C814 C 0.00687 -0.06052 1.02233
 C815 C -0.00127 -0.08355 1.00270
 C816 C 0.00042 -0.11170 1.01337
 H817 H 0.00744 -0.21623 1.04534
 H818 H 0.01668 -0.16883 1.13213
 H819 H 0.02420 -0.05009 1.06843
 H820 H -0.00939 -0.07982 0.97947
 H821 H 0.00677 -0.17152 1.01689
 H822 H -0.00671 -0.12907 0.99825
 C823 C 0.52722 0.36148 0.54843
 C824 C 0.50364 0.34241 0.54533
 C825 C 0.50266 0.31697 0.56233
 C826 C 0.52494 0.31055 0.58256
 C827 C 0.54933 0.32904 0.58221
 N828 N 0.54944 0.35393 0.56620
 C829 C 0.52672 0.39123 0.53763
 N830 N 0.53829 0.41176 0.55671
 C831 C 0.53628 0.43992 0.55096
 C832 C 0.52190 0.44919 0.52443
 C833 C 0.51068 0.42826 0.50365
 C834 C 0.51288 0.39926 0.51027
 H835 H 0.48382 0.30295 0.56095
 H836 H 0.56814 0.32458 0.59512
 H837 H 0.54447 0.45472 0.56834
 H838 H 0.49928 0.43422 0.48292
 H839 H 0.48541 0.34788 0.53172
 H840 H 0.50348 0.38339 0.49453
 C841 C 0.51611 1.14799 0.56932
 C842 C 0.53349 1.16938 0.55510
 C843 C 0.53435 1.19695 0.56751
 C844 C 0.51797 1.20349 0.59412
 C845 C 0.50151 1.18130 0.60818
 N846 N 0.50098 1.15455 0.59560
 C847 C 0.51409 1.11841 0.55681
 N848 N 0.50665 1.09666 0.57665
 C849 C 0.50419 1.06904 0.56693
 C850 C 0.50892 1.06182 0.53522
 C851 C 0.51651 1.08400 0.51438
 C852 C 0.51902 1.11218 0.52497
 H853 H 0.54812 1.21304 0.55638
 H854 H 0.48852 1.18523 0.62864
 H855 H 0.49815 1.05288 0.58403
 H856 H 0.52055 1.07968 0.48986
 H857 H 0.54669 1.16493 0.53491
 H858 H 0.52426 1.12884 0.50818
 C859 C 0.01008 0.63920 1.07971
 C860 C -0.00309 0.64480 1.10869
 C861 C -0.00220 0.67256 1.12078
 C862 C 0.01184 0.69483 1.10418
 C863 C 0.02550 0.68809 1.07573
 N864 N 0.02412 0.66099 1.06433
 C865 C 0.00868 0.61017 1.06565
 N866 N -0.00107 0.58761 1.08318
 C867 C -0.00303 0.56061 1.07162
 C868 C 0.00474 0.55486 1.04027
 C869 C 0.01498 0.57784 1.02179
 C870 C 0.01703 0.60542 1.03437
 H871 H -0.01319 0.67662 1.14262
 H872 H 0.03733 0.70427 1.06243
 H873 H -0.01112 0.54381 1.08698
 H874 H 0.02148 0.57458 0.99769
 H875 H -0.01447 0.62803 1.12163
 H876 H 0.02487 0.62285 1.01967
 C877 C 0.50979 0.65148 -0.04934
 C878 C 0.50069 0.67402 -0.03072
 C879 C 0.49532 0.70008 -0.04455
 C880 C 0.49931 0.70455 -0.07715
 C881 C 0.50829 0.68107 -0.09490
 N882 N 0.51332 0.65583 -0.08076
 C883 C 0.51518 0.62289 -0.03615
 N884 N 0.53033 0.60454 -0.05372
 C885 C 0.53398 0.57716 -0.04496
 C886 C 0.52119 0.56614 -0.01727
 C887 C 0.50675 0.58512 0.00208
 C888 C 0.50365 0.61335 -0.00723
 H889 H 0.48738 0.71630 -0.02919
 H890 H 0.51216 0.68254 -0.11982
 H891 H 0.54557 0.56362 -0.06068
 H892 H 0.49639 0.57780 0.02354
 H893 H 0.49784 0.67193 -0.00563
 H894 H 0.49098 0.62679 0.00742
 C895 C 0.00576 1.14379 0.43526
 C896 C 0.01194 1.15003 0.40357
 C897 C 0.00708 1.17706 0.39175
 C898 C -0.00406 1.19814 0.41113
 C899 C -0.01137 1.19047 0.44224
 N900 N -0.00622 1.16409 0.45330
 C901 C 0.01098 1.11556 0.44941
 N902 N -0.00223 1.10802 0.47697
 C903 C 0.00010 1.08187 0.49025
 C904 C 0.01609 1.06107 0.47530
 C905 C 0.03084 1.06902 0.44759
 C906 C 0.02875 1.09611 0.43496
 H907 H 0.01264 1.18135 0.36758
 H908 H -0.02114 1.20536 0.45796
 H909 H -0.01176 1.07693 0.51155
 H910 H 0.04330 1.05394 0.43477
 H911 H 0.02024 1.13438 0.38770
 H912 H 0.04063 1.10123 0.41377
 C913 C 0.79674 0.68086 0.86554
 C914 C 0.80212 0.69196 0.89561
 C915 C 0.79821 0.67433 0.92168
 C916 C 0.78838 0.64580 0.91792
 C917 C 0.78711 0.63476 0.88717
 N918 N 0.79051 0.65245 0.86213
 C919 C 0.79294 0.69966 0.83838
 N920 N 0.79775 0.68974 0.80883
 C921 C 0.78856 0.70330 0.78292
 C922 C 0.77140 0.72691 0.78610
 C923 C 0.76865 0.73887 0.81625
 C924 C 0.77939 0.72541 0.84230
 H925 H 0.80192 0.68344 0.94471
 H926 H 0.78173 0.61244 0.88297
 H927 H 0.79346 0.69459 0.76015
 H928 H 0.75668 0.75770 0.82025
 H929 H 0.80810 0.71428 0.89905
 H930 H 0.77483 0.73384 0.86541
 C931 C 0.28374 0.16616 0.35895
 C932 C 0.28056 0.13637 0.35703
 C933 C 0.27707 0.12054 0.38458
 C934 C 0.27646 0.13432 0.41396
 C935 C 0.28274 0.16390 0.41471
 N936 N 0.28524 0.17890 0.38763
 C937 C 0.28044 0.18421 0.33121
 N938 N 0.26549 0.20809 0.33477
 C939 C 0.25724 0.22360 0.31002
 C940 C 0.26331 0.21482 0.27915
 C941 C 0.28151 0.19209 0.27526
 C942 C 0.28961 0.17633 0.30115
 H943 H 0.27381 0.09762 0.38283
 H944 H 0.28493 0.17542 0.43661
 H945 H 0.24460 0.24182 0.31472
 H946 H 0.28868 0.18570 0.25226
 H947 H 0.27898 0.12555 0.33458
 H948 H 0.30228 0.15788 0.29763
 C949 C 0.70128 0.32010 0.39112
 C950 C 0.69633 0.34919 0.39361
 C951 C 0.70323 0.36370 0.42118
 C952 C 0.71440 0.34932 0.44684
 C953 C 0.71737 0.31966 0.44390
 N954 N 0.71117 0.30613 0.41636
 C955 C 0.70166 0.30602 0.36024
 N956 N 0.69429 0.27775 0.35736
 C957 C 0.69933 0.26290 0.33045
 C958 C 0.71412 0.27620 0.30527
 C959 C 0.72153 0.30544 0.30816
 C960 C 0.71472 0.32043 0.33499
 H961 H 0.70082 0.38652 0.42207
 H962 H 0.72613 0.30725 0.46237
 H963 H 0.69368 0.24033 0.32975
 H964 H 0.73443 0.31666 0.29071
 H965 H 0.68863 0.36092 0.37383
 H966 H 0.72210 0.34253 0.33698
 C967 C 0.20075 0.83070 0.90025
 C968 C 0.20036 0.81611 0.92891
 C969 C 0.20744 0.83098 0.95644
 C970 C 0.21549 0.86024 0.95538
 C971 C 0.21250 0.87436 0.92667
 N972 N 0.20619 0.85938 0.90019
 C973 C 0.20088 0.81560 0.86981
 N974 N 0.21633 0.82813 0.84622
 C975 C 0.22206 0.81451 0.81903
 C976 C 0.21229 0.78610 0.81421
 C977 C 0.19469 0.77326 0.83747
 C978 C 0.18897 0.78792 0.86536
 H979 H 0.20709 0.81924 0.97819
 H980 H 0.21652 0.89716 0.92493
 H981 H 0.23596 0.82546 0.80228
 H982 H 0.18670 0.75140 0.83496
 H983 H 0.19632 0.79328 0.93000
 H984 H 0.17628 0.77735 0.88351
 C985 C 0.27976 0.83972 0.11770
 C986 C 0.28061 0.82493 0.08910
 C987 C 0.27082 0.83766 0.06195
 C988 C 0.26002 0.86526 0.06278
 C989 C 0.26114 0.87979 0.09181
 N990 N 0.27028 0.86667 0.11794
 C991 C 0.28440 0.82582 0.14831
 N992 N 0.27272 0.83792 0.17407
 C993 C 0.27127 0.82492 0.20234
 C994 C 0.28142 0.79739 0.20613
 C995 C 0.29551 0.78529 0.18044
 C996 C 0.29714 0.79944 0.15153
 H997 H 0.27203 0.82551 0.04044
 H998 H 0.25300 0.90074 0.09478
 H999 H 0.25997 0.83536 0.22099
 H1000 H 0.30366 0.76416 0.18204
 H1001 H 0.28749 0.80332 0.08762
 H1002 H 0.30723 0.78919 0.13187
 C1003 C 0.77951 0.33686 0.61030
 C1004 C 0.77663 0.31965 0.58348
 C1005 C 0.76491 0.33063 0.55639
 C1006 C 0.75592 0.35892 0.55545
 C1007 C 0.76017 0.37564 0.58271
 N1008 N 0.77118 0.36422 0.60895
 C1009 C 0.78682 0.32515 0.64132
 N1010 N 0.77766 0.33916 0.66717
 C1011 C 0.77792 0.32773 0.69626
 C1012 C 0.78682 0.29979 0.70079
 C1013 C 0.79912 0.28609 0.67495
 C1014 C 0.79924 0.29870 0.64520
 H1015 H 0.76346 0.31671 0.53614
 H1016 H 0.75346 0.39727 0.58425
 H1017 H 0.76800 0.33944 0.71491
 H1018 H 0.80644 0.26466 0.67707
 H1019 H 0.78220 0.29758 0.58347
 H1020 H 0.80758 0.28708 0.62545
 C1021 C 0.23608 0.16014 0.58748
 C1022 C 0.23363 0.13039 0.58484
 C1023 C 0.23846 0.11736 0.55591
 C1024 C 0.24568 0.13379 0.52923
 C1025 C 0.24638 0.16378 0.53283
 N1026 N 0.24189 0.17591 0.56139
 C1027 C 0.23647 0.17428 0.61851
 N1028 N 0.22535 0.20039 0.62257
 C1029 C 0.22792 0.21524 0.65011
 C1030 C 0.24337 0.20432 0.67509
 C1031 C 0.25523 0.17756 0.67074
 C1032 C 0.25137 0.16239 0.64302
 H1033 H 0.23706 0.09441 0.55517
 H1034 H 0.25186 0.17788 0.51361
 H1035 H 0.21885 0.23595 0.65201
 H1036 H 0.26814 0.16831 0.68855
 H1037 H 0.22884 0.11724 0.60519
 H1038 H 0.26141 0.14223 0.64021
 C1039 C 0.73624 0.66373 0.08892
 C1040 C 0.72853 0.63520 0.08218
 C1041 C 0.73504 0.62384 0.05272
 C1042 C 0.74984 0.64063 0.03014
 C1043 C 0.75629 0.66946 0.03778
 N1044 N 0.74953 0.68002 0.06650
 C1045 C 0.73390 0.67530 0.12100
 N1046 N 0.72439 0.70195 0.12592
 C1047 C 0.72557 0.71491 0.15463
 C1048 C 0.73827 0.70153 0.18007
 C1049 C 0.74831 0.67406 0.17497
 C1050 C 0.74548 0.66069 0.14594
 H1051 H 0.72865 0.60187 0.04804
 H1052 H 0.76787 0.68348 0.02171
 H1053 H 0.71802 0.73624 0.15702
 H1054 H 0.75949 0.66311 0.19303
 H1055 H 0.71803 0.62174 0.09973
 H1056 H 0.75415 0.63992 0.14242
 C1057 C 0.20787 0.60982 0.22829
 C1058 C 0.22462 0.58666 0.23462
 C1059 C 0.21174 0.55930 0.23682
 C1060 C 0.18227 0.55507 0.23216
 C1061 C 0.16696 0.57876 0.22342
 N1062 N 0.17974 0.60515 0.22260
 C1063 C 0.21854 0.63936 0.23294
 N1064 N 0.20192 0.65688 0.24965
 C1065 C 0.20999 0.68424 0.25615
 C1066 C 0.23610 0.69604 0.24495
 C1067 C 0.25369 0.67817 0.22755
 C1068 C 0.24508 0.64970 0.22176
 H1069 H 0.22486 0.54211 0.24340
 H1070 H 0.14434 0.57651 0.21923
 H1071 H 0.19609 0.69636 0.27080
 H1072 H 0.27420 0.68597 0.21878
 H1073 H 0.24698 0.58993 0.23990
 H1074 H 0.25878 0.63606 0.20850
 C1075 C 0.70818 0.11398 0.72255
 C1076 C 0.72408 0.09063 0.73067
 C1077 C 0.71043 0.06364 0.73361
 C1078 C 0.68112 0.05986 0.72766
 C1079 C 0.66674 0.08360 0.71724
 N1080 N 0.68019 0.10969 0.71581
 C1081 C 0.71928 0.14352 0.72687
 N1082 N 0.70224 0.16185 0.74183
 C1083 C 0.71064 0.18915 0.74830
 C1084 C 0.73771 0.20009 0.73900
 C1085 C 0.75574 0.18139 0.72337
 C1086 C 0.74670 0.15300 0.71754
 H1087 H 0.72261 0.04648 0.74234
 H1088 H 0.64418 0.08183 0.71260
 H1089 H 0.69633 0.20174 0.76185
 H1090 H 0.77696 0.18847 0.71611
 H1091 H 0.74621 0.09359 0.73707
 H1092 H 0.76082 0.13874 0.70577
 C1093 C 0.78818 0.09426 0.28919
 C1094 C 0.77259 0.07105 0.27627
 C1095 C 0.78585 0.04534 0.27137
 C1096 C 0.81435 0.04260 0.28024
 C1097 C 0.82809 0.06582 0.29568
 N1098 N 0.81519 0.09087 0.29882
 C1099 C 0.77891 0.12336 0.28543
 N1100 N 0.79734 0.14237 0.27132
 C1101 C 0.79037 0.16926 0.26465
 C1102 C 0.76346 0.17889 0.27284
 C1103 C 0.74406 0.15949 0.28768
 C1104 C 0.75162 0.13156 0.29370
 H1105 H 0.77432 0.02868 0.25861
 H1106 H 0.85007 0.06492 0.30260
 H1107 H 0.80570 0.18256 0.25184
 H1108 H 0.72287 0.16558 0.29401
 H1109 H 0.75140 0.07358 0.26738
 H1110 H 0.73645 0.11659 0.30460
 C1111 C 0.28008 0.60158 0.79676
 C1112 C 0.30586 0.59704 0.81137
 C1113 C 0.31910 0.57162 0.80626
 C1114 C 0.30658 0.55031 0.78690
 C1115 C 0.27955 0.55496 0.77457
 N1116 N 0.26737 0.58042 0.77924
 C1117 C 0.27159 0.63094 0.79307
 N1118 N 0.29100 0.64984 0.78043
 C1119 C 0.28502 0.67710 0.77427
 C1120 C 0.25807 0.68720 0.78136
 C1121 C 0.23757 0.66785 0.79446
 C1122 C 0.24417 0.63952 0.79998
 H1123 H 0.34028 0.56967 0.81540
 H1124 H 0.26920 0.53961 0.75901
 H1125 H 0.30111 0.69013 0.76237
 H1126 H 0.21627 0.67431 0.79971
 H1127 H 0.31680 0.61398 0.82447
 H1128 H 0.22821 0.62457 0.80951
 C1129 C 0.30279 0.39526 0.72643
 C1130 C 0.28535 0.41732 0.71754
 C1131 C 0.29416 0.44567 0.72370
 C1132 C 0.32023 0.45201 0.73852
 C1133 C 0.33716 0.42935 0.74631
 N1134 N 0.32804 0.40214 0.74037
 C1135 C 0.29425 0.36461 0.72415
 N1136 N 0.30947 0.34639 0.74115
 C1137 C 0.30317 0.31807 0.74232
 C1138 C 0.28001 0.30594 0.72563
 C1139 C 0.26416 0.32423 0.70730
 C1140 C 0.27120 0.35356 0.70645
 H1141 H 0.28048 0.46257 0.71724
 H1142 H 0.35704 0.43294 0.75845
 H1143 H 0.31603 0.30533 0.75711
 H1144 H 0.24606 0.31602 0.69406
 H1145 H 0.26483 0.41295 0.70699
 H1146 H 0.25867 0.36715 0.69222
 C1147 C 0.80670 0.88804 0.22684
 C1148 C 0.78871 0.91051 0.22198
 C1149 C 0.79910 0.93854 0.22646
 C1150 C 0.82749 0.94446 0.23557
 C1151 C 0.84508 0.92114 0.23844
 N1152 N 0.83421 0.89410 0.23472
 C1153 C 0.79617 0.85795 0.22729
 N1154 N 0.80956 0.83984 0.24628
 C1155 C 0.80106 0.81208 0.24939
 C1156 C 0.77774 0.80055 0.23244
 C1157 C 0.76368 0.81886 0.21237
 C1158 C 0.77277 0.84757 0.20978
 H1159 H 0.78469 0.95549 0.22278
 H1160 H 0.86685 0.92379 0.24596
 H1161 H 0.81265 0.79921 0.26535
 H1162 H 0.74561 0.81113 0.19879
 H1163 H 0.76656 0.90659 0.21621
 H1164 H 0.76178 0.86128 0.19408
 C1165 C 0.69032 0.89870 0.75759
 C1166 C 0.70948 0.92162 0.76371
 C1167 C 0.69973 0.94927 0.76467
 C1168 C 0.67104 0.95427 0.75857
 C1169 C 0.65252 0.93037 0.75327
 N1170 N 0.66249 0.90364 0.75293
 C1171 C 0.70013 0.86958 0.75387
 N1172 N 0.68877 0.84819 0.77208
 C1173 C 0.69584 0.82063 0.76803
 C1174 C 0.71408 0.81302 0.74332
 C1175 C 0.72678 0.83517 0.72513
 C1176 C 0.71990 0.86338 0.73040
 H1177 H 0.71484 0.96666 0.76973
 H1178 H 0.63040 0.93268 0.74797
 H1179 H 0.68678 0.80467 0.78385
 H1180 H 0.74156 0.83077 0.70631
 H1181 H 0.73175 0.91814 0.76753
 H1182 H 0.72918 0.88011 0.71562
 C1183 C 0.19220 0.39207 0.25627
 C1184 C 0.16863 0.39930 0.27470
 C1185 C 0.16040 0.42749 0.27556
 C1186 C 0.17546 0.44856 0.25822
 C1187 C 0.19935 0.44063 0.24081
 N1188 N 0.20678 0.41300 0.24004
 C1189 C 0.20026 0.36215 0.25170
 N1190 N 0.21611 0.35559 0.22599
 C1191 C 0.22285 0.32844 0.21889
 C1192 C 0.21263 0.30560 0.23766
 C1193 C 0.19796 0.31222 0.26548
 C1194 C 0.19156 0.34026 0.27244
 H1195 H 0.14187 0.43263 0.28927
 H1196 H 0.21129 0.45599 0.22650
 H1197 H 0.23536 0.32474 0.19796
 H1198 H 0.19080 0.29566 0.28168
 H1199 H 0.15582 0.38340 0.28731
 H1200 H 0.18002 0.34450 0.29389
 C1201 C 0.11412 0.23688 0.78298
 C1202 C 0.09039 0.25003 0.77103
 C1203 C 0.06664 0.25344 0.79045
 C1204 C 0.06612 0.24319 0.82158
 C1205 C 0.09108 0.23182 0.83291
 N1206 N 0.11374 0.22864 0.81356
 C1207 C 0.14015 0.23194 0.76437
 N1208 N 0.15830 0.21317 0.77614
 C1209 C 0.18466 0.20999 0.76422
 C1210 C 0.19505 0.22719 0.73927
 C1211 C 0.17593 0.24531 0.72515
 C1212 C 0.14846 0.24778 0.73761
 H1213 H 0.04869 0.26394 0.78090
 H1214 H 0.09268 0.22521 0.85707
 H1215 H 0.19826 0.19607 0.77665
 H1216 H 0.18289 0.25932 0.70620
 H1217 H 0.08985 0.25723 0.74698
 H1218 H 0.13490 0.26334 0.72774
 C1219 C 0.60754 0.73285 0.28513
 C1220 C 0.59608 0.75975 0.28881
 C1221 C 0.57348 0.76310 0.30988
 C1222 C 0.56247 0.73990 0.32772
 C1223 C 0.57348 0.71303 0.32161
 N1224 N 0.59571 0.71042 0.30144
 C1225 C 0.63439 0.72873 0.26774
 N1226 N 0.65166 0.70879 0.27875
 C1227 C 0.67846 0.70596 0.26780
 C1228 C 0.68993 0.72422 0.24428
 C1229 C 0.67167 0.74365 0.23090
 C1230 C 0.64396 0.74609 0.24266
 H1231 H 0.56482 0.78396 0.31244
 H1232 H 0.56465 0.69397 0.33273
 H1233 H 0.69142 0.69119 0.27984
 H1234 H 0.67941 0.75844 0.21302
 H1235 H 0.60510 0.77823 0.27663
 H1236 H 0.63066 0.76202 0.23301
 C1237 C 0.59398 0.25118 0.20745
 C1238 C 0.58417 0.27792 0.19977
 C1239 C 0.55934 0.27968 0.18253
 C1240 C 0.54463 0.25475 0.17199
 C1241 C 0.55369 0.22847 0.18318
 N1242 N 0.57823 0.22726 0.19966
 C1243 C 0.62348 0.24889 0.21773
 N1244 N 0.62986 0.23783 0.24619
 C1245 C 0.65731 0.23591 0.25575
 C1246 C 0.68000 0.24505 0.23595
 C1247 C 0.67332 0.25571 0.20620
 C1248 C 0.64532 0.25798 0.19732
 H1249 H 0.55236 0.30064 0.17693
 H1250 H 0.54215 0.20877 0.17726
 H1251 H 0.66137 0.22728 0.27870
 H1252 H 0.68969 0.26305 0.18979
 H1253 H 0.59639 0.29723 0.20583
 H1254 H 0.64067 0.26658 0.17448
 C1255 C 0.09293 0.75710 0.70864
 C1256 C 0.08117 0.78205 0.69781
 C1257 C 0.05675 0.78019 0.67956
 C1258 C 0.04448 0.75345 0.67098
 C1259 C 0.05540 0.72916 0.68508
 N1260 N 0.07934 0.73149 0.70278
 C1261 C 0.12177 0.75815 0.72196
 N1262 N 0.12767 0.74391 0.74877
 C1263 C 0.15459 0.74344 0.76036
 C1264 C 0.17752 0.75707 0.74411
 C1265 C 0.17150 0.77111 0.71597
 C1266 C 0.14385 0.77223 0.70533
 H1267 H 0.04809 0.79975 0.67139
 H1268 H 0.04556 0.70821 0.68127
 H1269 H 0.15813 0.73178 0.78170
 H1270 H 0.18821 0.78121 0.70177
 H1271 H 0.09136 0.80274 0.70257
 H1272 H 0.13988 0.78303 0.68351
 C1273 C 0.88193 0.74642 0.67423
 C1274 C 0.88985 0.73168 0.64694
 C1275 C 0.91802 0.73358 0.63642
 C1276 C 0.93853 0.75002 0.65295
 C1277 C 0.92981 0.76416 0.68037
 N1278 N 0.90220 0.76201 0.69017
 C1279 C 0.85208 0.74550 0.68587
 N1280 N 0.84649 0.74937 0.71702
 C1281 C 0.81949 0.74904 0.72894
 C1282 C 0.79599 0.74466 0.70909
 C1283 C 0.80154 0.74168 0.67673
 C1284 C 0.82927 0.74182 0.66518
 H1285 H 0.92379 0.72154 0.61579
 H1286 H 0.94482 0.77718 0.69386
 H1287 H 0.81651 0.75277 0.75378
 H1288 H 0.78447 0.73944 0.65998
 H1289 H 0.87465 0.71831 0.63411
 H1290 H 0.83264 0.73991 0.64012
 C1291 C 0.38267 0.24418 0.17853
 C1292 C 0.40376 0.25803 0.19683
 C1293 C 0.43157 0.26077 0.18542
 C1294 C 0.43875 0.24984 0.15575
 C1295 C 0.41692 0.23682 0.13782
 N1296 N 0.38988 0.23434 0.14948
 C1297 C 0.35259 0.24107 0.18934
 N1298 N 0.33185 0.23745 0.16753
 C1299 C 0.30379 0.23550 0.17532
 C1300 C 0.29486 0.23697 0.20693
 C1301 C 0.31599 0.24062 0.22981
 C1302 C 0.34472 0.24229 0.22124
 H1303 H 0.44738 0.27189 0.19975
 H1304 H 0.42134 0.22814 0.11484
 H1305 H 0.28853 0.23341 0.15656
 H1306 H 0.31043 0.24291 0.25434
 H1307 H 0.39894 0.26729 0.21943
 H1308 H 0.36040 0.24462 0.23953
 C1309 C 0.40634 0.75795 0.30684
 C1310 C 0.42405 0.73689 0.29537
 C1311 C 0.44959 0.73228 0.31043
 C1312 C 0.45761 0.74836 0.33702
 C1313 C 0.43903 0.76858 0.34832
 N1314 N 0.41429 0.77282 0.33315
 C1315 C 0.37841 0.76336 0.29260
 N1316 N 0.35950 0.77801 0.30987
 C1317 C 0.33252 0.78165 0.30031
 C1318 C 0.32265 0.76950 0.27194
 C1319 C 0.34234 0.75597 0.25269
 C1320 C 0.37022 0.75300 0.26280
 H1321 H 0.46311 0.71609 0.30124
 H1322 H 0.44450 0.78162 0.36857
 H1323 H 0.31842 0.79267 0.31592
 H1324 H 0.33593 0.74648 0.23052
 H1325 H 0.41835 0.72369 0.27538
 H1326 H 0.38472 0.74211 0.24760
 C1327 C 0.90679 0.25957 0.80831
 C1328 C 0.90953 0.25481 0.84055
 C1329 C 0.93613 0.24985 0.85299
 C1330 C 0.96054 0.24980 0.83354
 C1331 C 0.95633 0.25395 0.80097
 N1332 N 0.93011 0.25858 0.78950
 C1333 C 0.87900 0.26558 0.79458
 N1334 N 0.87163 0.25474 0.76589
 C1335 C 0.84532 0.25777 0.75355
 C1336 C 0.82457 0.27214 0.77057
 C1337 C 0.83267 0.28491 0.79930
 C1338 C 0.85965 0.28175 0.81122
 H1339 H 0.93683 0.24579 0.87783
 H1340 H 0.97370 0.25467 0.78431
 H1341 H 0.84025 0.24770 0.73128
 H1342 H 0.81778 0.29646 0.81343
 H1343 H 0.89119 0.25454 0.85607
 H1344 H 0.86510 0.29139 0.83363
 C1345 C 0.58019 0.95557 0.64839
 C1346 C 0.61002 0.95654 0.64825
 C1347 C 0.62465 0.97008 0.67269
 C1348 C 0.60968 0.98216 0.69754
 C1349 C 0.58004 0.97826 0.69860
 N1350 N 0.56607 0.96586 0.67385
 C1351 C 0.56497 0.95031 0.61861
 N1352 N 0.57920 0.95686 0.59159
 C1353 C 0.56597 0.96034 0.56396
 C1354 C 0.53614 0.95806 0.56224
 C1355 C 0.52119 0.94835 0.58925
 C1356 C 0.53549 0.94488 0.61759
 H1357 H 0.64764 0.97220 0.67160
 H1358 H 0.56797 0.98687 0.71790
 H1359 H 0.57889 0.96872 0.54495
 H1360 H 0.49821 0.94641 0.58946
 H1361 H 0.62190 0.94870 0.62836
 H1362 H 0.52344 0.94002 0.63882
 C1363 C 0.08459 0.45073 1.14301
 C1364 C 0.11289 0.46032 1.13739
 C1365 C 0.12848 0.47333 1.16148
 C1366 C 0.11616 0.47672 1.19122
 C1367 C 0.08852 0.46539 1.19653
 N1368 N 0.07340 0.45342 1.17244
 C1369 C 0.06523 0.44347 1.11673
 N1370 N 0.03720 0.44847 1.12048
 C1371 C 0.01952 0.45050 1.09569
 C1372 C 0.03052 0.45010 1.06483
 C1373 C 0.05810 0.44034 1.06084
 C1374 C 0.07544 0.43677 1.08668
 H1375 H 0.15000 0.48130 1.15667
 H1376 H 0.07839 0.46746 1.21928
 H1377 H -0.00216 0.45614 1.10029
 H1378 H 0.06721 0.43708 1.03796
 H1379 H 0.12253 0.45961 1.11430
 H1380 H 0.09712 0.43088 1.08276
 C1381 C -0.07927 0.03187 1.14966
 C1382 C -0.06616 0.02028 1.17589
 C1383 C -0.08263 0.01277 1.20238
 C1384 C -0.11178 0.01744 1.20278
 C1385 C -0.12388 0.02948 1.17629
 N1386 N -0.10767 0.03583 1.15059
 C1387 C -0.06422 0.03560 1.11942
 N1388 N -0.07807 0.02661 1.09320
 C1389 C -0.06508 0.02537 1.06479
 C1390 C -0.03605 0.03337 1.06130
 C1391 C -0.02189 0.04481 1.08782
 C1392 C -0.03581 0.04561 1.11700
 H1393 H -0.07267 0.00358 1.22252
 H1394 H -0.14638 0.03323 1.17574
 H1395 H -0.07701 0.01530 1.04604
 H1396 H 0.00052 0.05094 1.08668
 H1397 H -0.04376 0.01601 1.17543
 H1398 H -0.02427 0.05300 1.13756
 C1399 C 0.42275 0.54069 0.66198
 C1400 C 0.39705 0.55472 0.66373
 C1401 C 0.37799 0.54848 0.68837
 C1402 C 0.38433 0.52835 0.71134
 C1403 C 0.41040 0.51527 0.70898
 N1404 N 0.42849 0.52160 0.68478
 C1405 C 0.44293 0.54343 0.63503
 N1406 N 0.46541 0.52630 0.63500
 C1407 C 0.48283 0.52350 0.60983
 C1408 C 0.47751 0.53769 0.58164
 C1409 C 0.45619 0.55768 0.58199
 C1410 C 0.43870 0.56049 0.60852
 H1411 H 0.35793 0.55884 0.68882
 H1412 H 0.41651 0.49991 0.72609
 H1413 H 0.49950 0.50852 0.61152
 H1414 H 0.45147 0.56944 0.56107
 H1415 H 0.39112 0.56981 0.64619
 H1416 H 0.42147 0.57483 0.60733
 C1417 C 0.42298 0.46525 -0.14817
 C1418 C 0.39382 0.46197 -0.14112
 C1419 C 0.37408 0.47063 -0.16289
 C1420 C 0.38326 0.48213 -0.19175
 C1421 C 0.41234 0.48310 -0.19884
 N1422 N 0.43127 0.47543 -0.17687
 C1423 C 0.44452 0.46361 -0.12333
 N1424 N 0.46770 0.48181 -0.12503
 C1425 C 0.48561 0.48623 -0.10059
 C1426 C 0.48001 0.47272 -0.07159
 C1427 C 0.45805 0.45152 -0.07060
 C1428 C 0.44011 0.44704 -0.09625
 H1429 H 0.35171 0.46950 -0.15669
 H1430 H 0.42019 0.49202 -0.22072
 H1431 H 0.50295 0.50188 -0.10347
 H1432 H 0.45319 0.43990 -0.04940
 H1433 H 0.38630 0.45491 -0.11826
 H1434 H 0.42229 0.43177 -0.09428
 C1435 C -0.07767 0.95411 0.35198
 C1436 C -0.10728 0.94996 0.35416
 C1437 C -0.12416 0.95910 0.32995
 C1438 C -0.11160 0.97204 0.30342
 C1439 C -0.08191 0.97298 0.30048
 N1440 N -0.06575 0.96481 0.32497
 C1441 C -0.06108 0.95445 0.38114
 N1442 N -0.07291 0.96672 0.40667
 C1443 C -0.05841 0.97224 0.43335
 C1444 C -0.02985 0.96508 0.43605
 C1445 C -0.01731 0.95153 0.41014
 C1446 C -0.03276 0.94655 0.38243
 H1447 H -0.14706 0.95772 0.33277
 H1448 H -0.07162 0.98257 0.28004
 H1449 H -0.06895 0.98422 0.45131
 H1450 H 0.00483 0.94631 0.41058
 H1451 H -0.11732 0.94186 0.37550
 H1452 H -0.02257 0.93741 0.36210
 C1453 C 0.06704 0.51173 0.34709
 C1454 C 0.07851 0.48563 0.33865
 C1455 C 0.09652 0.48414 0.31264
 C1456 C 0.10309 0.50856 0.29486
 C1457 C 0.08935 0.53377 0.30263
 N1458 N 0.07220 0.53486 0.32849
 C1459 C 0.05312 0.51491 0.37803
 N1460 N 0.02848 0.52887 0.38162
 C1461 C 0.01482 0.53051 0.41004
 C1462 C 0.02603 0.51762 0.43671
 C1463 C 0.05216 0.50438 0.43305
 C1464 C 0.06562 0.50317 0.40419
 H1465 H 0.10643 0.46429 0.30763
 H1466 H 0.09304 0.55289 0.28884
 H1467 H -0.00524 0.54083 0.41152
 H1468 H 0.06211 0.49388 0.45232
 H1469 H 0.07458 0.46682 0.35294
 H1470 H 0.08556 0.49263 0.40226
 C1471 C 0.57077 0.03054 -0.14796
 C1472 C 0.55950 0.01921 -0.17598
 C1473 C 0.57783 0.01432 -0.20138
 C1474 C 0.60698 0.02132 -0.19885
 C1475 C 0.61716 0.03309 -0.17063
 N1476 N 0.59916 0.03686 -0.14612
 C1477 C 0.55391 0.03158 -0.11879
 N1478 N 0.56596 0.02156 -0.09261
 C1479 C 0.55227 0.02025 -0.06466
 C1480 C 0.52459 0.03018 -0.06116
 C1481 C 0.51177 0.04114 -0.08798
 C1482 C 0.52630 0.04165 -0.11699
 H1483 H 0.56930 0.00542 -0.22299
 H1484 H 0.63953 0.03873 -0.16785
 H1485 H 0.56294 0.01022 -0.04562
 H1486 H 0.49024 0.04827 -0.08682
 H1487 H 0.53711 0.01321 -0.17775
 H1488 H 0.51616 0.04967 -0.13764
 C1489 C 0.66164 0.55034 -0.03229
 C1490 C 0.66595 0.57676 -0.04698
 C1491 C 0.69314 0.58931 -0.04881
 C1492 C 0.71621 0.57565 -0.03597
 C1493 C 0.71113 0.54899 -0.02172
 N1494 N 0.68421 0.53704 -0.02023
 C1495 C 0.63242 0.53898 -0.02693
 N1496 N 0.62353 0.51289 -0.03810
 C1497 C 0.59597 0.50296 -0.03505
 C1498 C 0.57572 0.51965 -0.02003
 C1499 C 0.58515 0.54622 -0.00769
 C1500 C 0.61317 0.55596 -0.01135
 H1501 H 0.69593 0.61020 -0.05936
 H1502 H 0.72845 0.53788 -0.01158
 H1503 H 0.58996 0.48210 -0.04436
 H1504 H 0.57116 0.55948 0.00551
 H1505 H 0.64824 0.58789 -0.05631
 H1506 H 0.61988 0.57662 -0.00190
 C1507 C 0.15985 1.03645 0.47177
 C1508 C 0.17161 1.04926 0.49877
 C1509 C 0.19926 1.06092 0.49783
 C1510 C 0.21540 1.05980 0.47012
 C1511 C 0.20367 1.04457 0.44439
 N1512 N 0.17636 1.03374 0.44565
 C1513 C 0.12906 1.02934 0.47064
 N1514 N 0.11875 1.00392 0.45893
 C1515 C 0.09042 0.99632 0.45983
 C1516 C 0.07083 1.01475 0.47329
 C1517 C 0.08137 1.04159 0.48381
 C1518 C 0.11015 1.04887 0.48251
 H1519 H 0.20709 1.07247 0.51815
 H1520 H 0.21567 1.04262 0.42277
 H1521 H 0.08345 0.97545 0.45129
 H1522 H 0.06783 1.05649 0.49526
 H1523 H 0.15899 1.05146 0.51997
 H1524 H 0.11768 1.06943 0.49153
 C1525 C 0.14304 -0.04126 1.04970
 C1526 C 0.14536 -0.06805 1.06366
 C1527 C 0.16975 -0.08316 1.05843
 C1528 C 0.19187 -0.07126 1.03998
 C1529 C 0.19025 -0.04307 1.02974
 N1530 N 0.16575 -0.02917 1.03394
 C1531 C 0.11457 -0.03144 1.04298
 N1532 N 0.10630 -0.00503 1.05145
 C1533 C 0.08024 0.00432 1.04359
 C1534 C 0.06138 -0.01305 1.02555
 C1535 C 0.07053 -0.03985 1.01595
 C1536 C 0.09663 -0.04915 1.02490
 H1537 H 0.17024 -0.10507 1.06621
 H1538 H 0.20707 -0.03342 1.01532
 H1539 H 0.07443 0.02530 1.05119
 H1540 H 0.05785 -0.05381 1.00093
 H1541 H 0.12727 -0.07843 1.07546
 H1542 H 0.10318 -0.06982 1.01692
 C1543 C 0.65439 0.47040 0.52573
 C1544 C 0.66136 0.45297 0.55110
 C1545 C 0.68206 0.43277 0.54707
 C1546 C 0.69576 0.43027 0.51801
 C1547 C 0.69005 0.44966 0.49425
 N1548 N 0.66946 0.46862 0.49843
 C1549 C 0.62824 0.48683 0.52636
 N1550 N 0.61113 0.48601 0.55226
 C1551 C 0.58436 0.49558 0.55193
 C1552 C 0.57261 0.50491 0.52377
 C1553 C 0.59107 0.50934 0.49805
 C1554 C 0.61876 0.50004 0.49910
 H1555 H 0.68595 0.41794 0.56576
 H1556 H 0.70053 0.44833 0.47159
 H1557 H 0.57200 0.49455 0.57341
 H1558 H 0.58370 0.51844 0.47648
 H1559 H 0.64969 0.45360 0.57309
 H1560 H 0.63194 0.50171 0.47818
 C1561 C -0.15967 0.44972 0.48682
 C1562 C -0.17682 0.44931 0.46003
 C1563 C -0.20342 0.43475 0.46102
 C1564 C -0.21289 0.42101 0.48867
 C1565 C -0.19535 0.42263 0.51501
 N1566 N -0.16953 0.43641 0.51329
 C1567 C -0.13015 0.46161 0.48702
 N1568 N -0.11226 0.45038 0.50788
 C1569 C -0.08480 0.45951 0.51052
 C1570 C -0.07343 0.48181 0.49167
 C1571 C -0.09154 0.49385 0.46979
 C1572 C -0.11992 0.48375 0.46730
 H1573 H -0.21642 0.43400 0.44019
 H1574 H -0.20149 0.41195 0.53662
 H1575 H -0.07196 0.44899 0.52740
 H1576 H -0.08388 0.51104 0.45467
 H1577 H -0.16945 0.45909 0.43832
 H1578 H -0.13367 0.49349 0.45065
 C1579 C 0.33817 -0.03735 -0.00492
 C1580 C 0.31912 -0.03566 -0.02987
 C1581 C 0.29247 -0.04993 -0.02759
 C1582 C 0.28484 -0.06550 -0.00046
 C1583 C 0.30400 -0.06537 0.02444
 N1584 N 0.32990 -0.05191 0.02139
 C1585 C 0.36807 -0.02686 -0.00711
 N1586 N 0.38707 -0.04052 0.01035
 C1587 C 0.41499 -0.03274 0.01074
 C1588 C 0.42570 -0.00927 -0.00681
 C1589 C 0.40646 0.00514 -0.02539
 C1590 C 0.37761 -0.00368 -0.02575
 H1591 H 0.27816 -0.04945 -0.04730
 H1592 H 0.29925 -0.07735 0.04561
 H1593 H 0.42853 -0.04471 0.02557
 H1594 H 0.41354 0.02342 -0.03922
 H1595 H 0.32516 -0.02479 -0.05142
 H1596 H 0.36298 0.00794 -0.03969
 C1597 C 0.36247 1.05184 0.52642
 C1598 C 0.33653 1.03575 0.52497
 C1599 C 0.31269 1.04796 0.51195
 C1600 C 0.31482 1.07585 0.50027
 C1601 C 0.34051 1.09160 0.50384
 N1602 N 0.36327 1.07933 0.51633
 C1603 C 0.39003 1.03991 0.53497
 N1604 N 0.41326 1.05806 0.53391
 C1605 C 0.44018 1.04924 0.53499
 C1606 C 0.44544 1.02003 0.53613
 C1607 C 0.42173 1.00092 0.54000
 C1608 C 0.39404 1.01070 0.53931
 H1609 H 0.29304 1.03527 0.50978
 H1610 H 0.34278 1.11346 0.49592
 H1611 H 0.45683 1.06517 0.53121
 H1612 H 0.42441 0.97817 0.54095
 H1613 H 0.33462 1.01391 0.53283
 H1614 H 0.37639 0.99523 0.54012
 C1615 C -0.14060 0.54861 1.02671
 C1616 C -0.16509 0.53300 1.01659
 C1617 C -0.18777 0.54756 1.00412
 C1618 C -0.18582 0.57733 1.00161
 C1619 C -0.16196 0.59210 1.01379
 N1620 N -0.14023 0.57760 1.02546
 C1621 C -0.11331 0.53545 1.03374
 N1622 N -0.08967 0.55299 1.03269
 C1623 C -0.06305 0.54348 1.03359
 C1624 C -0.05843 0.51412 1.03505
 C1625 C -0.08261 0.49552 1.03832
 C1626 C -0.11006 0.50604 1.03758
 H1627 H -0.20601 0.53558 0.99481
 H1628 H -0.15999 0.61513 1.01261
 H1629 H -0.04611 0.55904 1.02957
 H1630 H -0.08042 0.47270 1.03933
 H1631 H -0.16625 0.50997 1.01649
 H1632 H -0.12821 0.49117 1.03878
 C1633 C -0.00740 0.64934 0.54697
 C1634 C -0.00714 0.64561 0.57964
 C1635 C -0.00739 0.66918 0.59939
 C1636 C -0.00845 0.69654 0.58681
 C1637 C -0.01108 0.69938 0.55412
 N1638 N -0.00996 0.67597 0.53504
 C1639 C -0.00120 0.62479 0.52658
 N1640 N -0.01964 0.61506 0.50407
 C1641 C -0.01728 0.58889 0.49022
 C1642 C 0.00343 0.57024 0.50045
 C1643 C 0.02342 0.58130 0.52225
 C1644 C 0.02167 0.60849 0.53441
 H1645 H -0.00578 0.66616 0.62449
 H1646 H -0.01215 0.72029 0.54373
 H1647 H -0.03339 0.58153 0.47377
 H1648 H 0.03864 0.56823 0.53322
 H1649 H -0.00539 0.62463 0.58974
 H1650 H 0.03653 0.61563 0.55238
 C1651 C 0.49789 0.16578 0.03454
 C1652 C 0.47186 0.17490 0.04628
 C1653 C 0.47168 0.19818 0.06707
 C1654 C 0.49736 0.21224 0.07575
 C1655 C 0.52245 0.20421 0.06074
 N1656 N 0.52220 0.18109 0.04156
 C1657 C 0.50033 0.13687 0.02129
 N1658 N 0.48189 0.12586 -0.00055
 C1659 C 0.48242 0.09809 -0.01026
 C1660 C 0.50134 0.07936 0.00341
 C1661 C 0.52014 0.09084 0.02615
 C1662 C 0.52033 0.11943 0.03424
 H1663 H 0.45187 0.20377 0.07800
 H1664 H 0.54259 0.21516 0.06582
 H1665 H 0.46689 0.09026 -0.02712
 H1666 H 0.53378 0.07753 0.03936
 H1667 H 0.45227 0.16274 0.04162
 H1668 H 0.53462 0.12735 0.05238
 C1669 C -0.00204 0.15425 0.95077
 C1670 C 0.02388 0.17015 0.95160
 C1671 C 0.02840 0.19315 0.93125
 C1672 C 0.00699 0.20074 0.91064
 C1673 C -0.01923 0.18553 0.91190
 N1674 N -0.02279 0.16250 0.93109
 C1675 C -0.00547 0.12635 0.96669
 N1676 N -0.01932 0.10468 0.95115
 C1677 C -0.02062 0.07755 0.96196
 C1678 C -0.00754 0.07060 0.99038
 C1679 C 0.00600 0.09290 1.00747
 C1680 C 0.00721 0.12075 0.99563
 H1681 H 0.04896 0.20445 0.93079
 H1682 H -0.03615 0.19077 0.89623
 H1683 H -0.03125 0.06131 0.94769
 H1684 H 0.01650 0.08870 1.02934
 H1685 H 0.04113 0.16376 0.96622
 H1686 H 0.01835 0.13757 1.00866
 C1687 C 0.49306 0.66075 0.46575
 C1688 C 0.47020 0.67249 0.44993
 C1689 C 0.47558 0.69410 0.42777
 C1690 C 0.50354 0.70401 0.42135
 C1691 C 0.52545 0.69316 0.43922
 N1692 N 0.51977 0.67201 0.46027
 C1693 C 0.49011 0.63473 0.48563
 N1694 N 0.51355 0.62628 0.50085
 C1695 C 0.51483 0.60034 0.51464
 C1696 C 0.49198 0.58008 0.51224
 C1697 C 0.46673 0.58940 0.49926
 C1698 C 0.46565 0.61649 0.48590
 H1699 H 0.45807 0.70207 0.41463
 H1700 H 0.54725 0.70084 0.43579
 H1701 H 0.53471 0.59485 0.52501
 H1702 H 0.44808 0.57556 0.49782
 H1703 H 0.44850 0.66479 0.45374
 H1704 H 0.44637 0.62197 0.47432
 C1705 C 0.50560 0.85013 0.44382
 C1706 C 0.49555 0.82365 0.45571
 C1707 C 0.49812 0.79899 0.43728
 C1708 C 0.51089 0.80069 0.40733
 C1709 C 0.52053 0.82755 0.39648
 N1710 N 0.51755 0.85107 0.41459
 C1711 C 0.50305 0.87765 0.46074
 N1712 N 0.50584 0.90165 0.44322
 C1713 C 0.50534 0.92814 0.45567
 C1714 C 0.50235 0.93223 0.48832
 C1715 C 0.49889 0.90775 0.50714
 C1716 C 0.49924 0.88038 0.49346
 H1717 H 0.49052 0.77862 0.44661
 H1718 H 0.53006 0.83001 0.37338
 H1719 H 0.50798 0.94582 0.43964
 H1720 H 0.49658 0.90976 0.53235
 H1721 H 0.48546 0.82194 0.47857
 H1722 H 0.49736 0.86184 0.50841
 C1723 C 0.00425 0.34636 0.94117
 C1724 C -0.01892 0.33301 0.92563
 C1725 C -0.01477 0.30905 0.90692
 C1726 C 0.01243 0.29845 0.90339
 C1727 C 0.03495 0.31199 0.91991
 N1728 N 0.03037 0.33527 0.93817
 C1729 C 0.00115 0.37328 0.95888
 N1730 N 0.01650 0.37865 0.98535
 C1731 C 0.01580 0.40397 1.00114
 C1732 C -0.00005 0.42629 0.98960
 C1733 C -0.01649 0.42062 0.96262
 C1734 C -0.01607 0.39434 0.94747
 H1735 H -0.03270 0.29931 0.89453
 H1736 H 0.05616 0.30413 0.91825
 H1737 H 0.02847 0.40677 1.02184
 H1738 H -0.02908 0.43679 0.95229
 H1739 H -0.04002 0.34111 0.92776
 H1740 H -0.02811 0.39107 0.92613
 C1741 C 0.49379 0.35286 0.04475
 C1742 C 0.50187 0.35810 0.07578
 C1743 C 0.50157 0.33570 0.09703
 C1744 C 0.49347 0.30789 0.08741
 C1745 C 0.48457 0.30369 0.05623
 N1746 N 0.48505 0.32602 0.03579
 C1747 C 0.49508 0.37666 0.02242
 N1748 N 0.47163 0.39187 0.01801
 C1749 C 0.47302 0.41797 0.00422
 C1750 C 0.49938 0.43107 -0.00454
 C1751 C 0.52340 0.41430 -0.00267
 C1752 C 0.52137 0.38733 0.01107
 H1753 H 0.50804 0.34011 0.12095
 H1754 H 0.47829 0.28258 0.04782
 H1755 H 0.45360 0.42868 0.00190
 H1756 H 0.54428 0.42283 -0.00945
 H1757 H 0.50858 0.37938 0.08340
 H1758 H 0.54043 0.37577 0.01476
 C1759 C -0.00812 0.84307 0.53961
 C1760 C -0.03262 0.83041 0.55370
 C1761 C -0.03041 0.80622 0.57228
 C1762 C -0.00384 0.79480 0.57699
 C1763 C 0.01978 0.80683 0.56059
 N1764 N 0.01717 0.83057 0.54284
 C1765 C -0.00852 0.87206 0.52639
 N1766 N 0.00626 0.87916 0.49966
 C1767 C 0.00832 0.90649 0.48870
 C1768 C -0.00402 0.92864 0.50566
 C1769 C -0.01869 0.92140 0.53366
 C1770 C -0.02150 0.89335 0.54360
 H1771 H -0.04911 0.79762 0.58454
 H1772 H 0.04053 0.79815 0.56307
 H1773 H 0.02033 0.91099 0.46739
 H1774 H -0.02800 0.93745 0.54833
 H1775 H -0.05300 0.84000 0.55162
 H1776 H -0.03253 0.88857 0.56550
 C1777 C 0.20126 0.31888 0.08491
 C1778 C 0.20403 0.30968 0.05361
 C1779 C 0.21741 0.32783 0.03156
 C1780 C 0.22789 0.35504 0.04057
 C1781 C 0.22305 0.36403 0.07153
 N1782 N 0.21034 0.34591 0.09261
 C1783 C 0.19267 0.29933 0.11082
 N1784 N 0.18570 0.31082 0.13909
 C1785 C 0.18553 0.29558 0.16612
 C1786 C 0.19523 0.26778 0.16609
 C1787 C 0.19816 0.25433 0.13667
 C1788 C 0.19715 0.27003 0.10905
 H1789 H 0.22048 0.32016 0.00783
 H1790 H 0.22983 0.38524 0.07919
 H1791 H 0.18032 0.30627 0.18759
 H1792 H 0.20430 0.23244 0.13492
 H1793 H 0.19667 0.28857 0.04627
 H1794 H 0.20278 0.25980 0.08723
 C1795 C 0.69611 0.81905 0.59273
 C1796 C 0.69918 0.80860 0.56192
 C1797 C 0.71227 0.82610 0.53899
 C1798 C 0.72224 0.85380 0.54672
 C1799 C 0.71683 0.86406 0.57704
 N1800 N 0.70444 0.84661 0.59896
 C1801 C 0.68827 0.80057 0.61989
 N1802 N 0.68309 0.81344 0.64791
 C1803 C 0.68409 0.79950 0.67568
 C1804 C 0.69299 0.77138 0.67660
 C1805 C 0.69393 0.75654 0.64780
 C1806 C 0.69188 0.77106 0.61943
 H1807 H 0.71577 0.81753 0.51570
 H1808 H 0.72326 0.88566 0.58365
 H1809 H 0.68069 0.81155 0.69672
 H1810 H 0.69954 0.73444 0.64691
 H1811 H 0.69244 0.78704 0.55565
 H1812 H 0.69605 0.75969 0.59788
 C1813 C 0.27163 0.67445 0.61818
 C1814 C 0.24497 0.66271 0.60927
 C1815 C 0.24213 0.64855 0.58067
 C1816 C 0.26582 0.64598 0.56103
 C1817 C 0.29181 0.65948 0.56994
 N1818 N 0.29413 0.67316 0.59809
 C1819 C 0.27538 0.68642 0.64989
 N1820 N 0.28724 0.71310 0.65422
 C1821 C 0.28641 0.72651 0.68267
 C1822 C 0.27200 0.71333 0.70824
 C1823 C 0.26195 0.68485 0.70436
 C1824 C 0.26382 0.67140 0.67550
 H1825 H 0.22182 0.63827 0.57480
 H1826 H 0.31044 0.65828 0.55502
 H1827 H 0.29462 0.74834 0.68440
 H1828 H 0.24997 0.67359 0.72250
 H1829 H 0.22668 0.66380 0.62476
 H1830 H 0.25451 0.65003 0.67268
 C1831 C 0.77570 0.16815 0.10876
 C1832 C 0.74889 0.15633 0.10057
 C1833 C 0.74498 0.14393 0.07117
 C1834 C 0.76775 0.14315 0.04994
 C1835 C 0.79399 0.15632 0.05846
 N1836 N 0.79734 0.16841 0.08738
 C1837 C 0.78027 0.17937 0.14068
 N1838 N 0.79132 0.20633 0.14532
 C1839 C 0.79034 0.21932 0.17398
 C1840 C 0.77640 0.20547 0.19943
 C1841 C 0.76734 0.17674 0.19528
 C1842 C 0.76952 0.16366 0.16622
 H1843 H 0.72451 0.13380 0.06569
 H1844 H 0.81194 0.15641 0.04241
 H1845 H 0.79790 0.24135 0.17596
 H1846 H 0.75579 0.16495 0.21337
 H1847 H 0.73122 0.15627 0.11703
 H1848 H 0.76079 0.14210 0.16315
 C1849 C 0.71633 0.17891 0.89590
 C1850 C 0.72215 0.19098 0.92554
 C1851 C 0.72983 0.17326 0.95016
 C1852 C 0.73165 0.14389 0.94497
 C1853 C 0.72301 0.13253 0.91602
 N1854 N 0.71631 0.15010 0.89239
 C1855 C 0.71730 0.19605 0.86701
 N1856 N 0.73007 0.18431 0.84176
 C1857 C 0.73599 0.19889 0.81513
 C1858 C 0.72880 0.22750 0.81223
 C1859 C 0.71453 0.23994 0.83768
 C1860 C 0.70892 0.22433 0.86528
 H1861 H 0.73634 0.18265 0.97237
 H1862 H 0.72339 0.10984 0.91150
 H1863 H 0.74811 0.18834 0.79727
 H1864 H 0.70904 0.26206 0.83692
 H1865 H 0.72318 0.21385 0.92895
 H1866 H 0.69887 0.23441 0.88512
 C1867 C 0.22283 0.67295 0.40303
 C1868 C 0.22457 0.68520 0.43317
 C1869 C 0.23173 0.66824 0.45867
 C1870 C 0.23723 0.63939 0.45400
 C1871 C 0.23325 0.62767 0.42400
 N1872 N 0.22676 0.64456 0.39964
 C1873 C 0.22217 0.69013 0.37407
 N1874 N 0.23482 0.67917 0.34827
 C1875 C 0.23883 0.69395 0.32137
 C1876 C 0.22981 0.72200 0.31880
 C1877 C 0.21552 0.73351 0.34477
 C1878 C 0.21173 0.71768 0.37253
 H1879 H 0.23458 0.67801 0.48157
 H1880 H 0.23638 0.60531 0.41959
 H1881 H 0.25077 0.68407 0.30285
 H1882 H 0.20851 0.75514 0.34420
 H1883 H 0.22232 0.70780 0.43677
 H1884 H 0.20141 0.72713 0.39258
 C1885 C 0.77069 0.81266 0.39268
 C1886 C 0.79142 0.81347 0.41608
 C1887 C 0.78768 0.83060 0.44263
 C1888 C 0.76319 0.84646 0.44604
 C1889 C 0.74245 0.84396 0.42282
 N1890 N 0.74690 0.82777 0.39689
 C1891 C 0.77455 0.79802 0.36227
 N1892 N 0.76190 0.80916 0.33699
 C1893 C 0.76215 0.79661 0.30840
 C1894 C 0.77507 0.77038 0.30373
 C1895 C 0.78922 0.75884 0.32931
 C1896 C 0.78920 0.77273 0.35862
 H1897 H 0.80415 0.83192 0.46021
 H1898 H 0.72343 0.85601 0.42439
 H1899 H 0.75081 0.80666 0.28984
 H1900 H 0.79914 0.73857 0.32706
 H1901 H 0.81079 0.80212 0.41330
 H1902 H 0.79924 0.76307 0.37841
 C1903 C 0.27515 0.31869 0.88547
 C1904 C 0.29638 0.32067 0.90829
 C1905 C 0.29230 0.33759 0.93491
 C1906 C 0.26702 0.35208 0.93896
 C1907 C 0.24589 0.34845 0.91630
 N1908 N 0.25063 0.33249 0.89029
 C1909 C 0.27909 0.30419 0.85503
 N1910 N 0.26531 0.31456 0.83010
 C1911 C 0.26550 0.30190 0.80158
 C1912 C 0.27959 0.27637 0.79665
 C1913 C 0.29493 0.26570 0.82184
 C1914 C 0.29491 0.27969 0.85108
 H1915 H 0.30908 0.33979 0.95207
 H1916 H 0.22624 0.35943 0.91841
 H1917 H 0.25325 0.31129 0.78331
 H1918 H 0.30580 0.24597 0.81938
 H1919 H 0.31630 0.31037 0.90500
 H1920 H 0.30589 0.27066 0.87062
 C1921 C 0.81075 0.41448 0.78195
 C1922 C 0.79547 0.43811 0.77309
 C1923 C 0.80929 0.46518 0.77220
 C1924 C 0.83787 0.46859 0.78094
 C1925 C 0.85210 0.44447 0.79018
 N1926 N 0.83853 0.41840 0.78996
 C1927 C 0.79886 0.38500 0.77946
 N1928 N 0.81590 0.36513 0.76734
 C1929 C 0.80715 0.33750 0.76369
 C1930 C 0.77968 0.32783 0.77320
 C1931 C 0.76165 0.34809 0.78601
 C1932 C 0.77109 0.37677 0.78894
 H1933 H 0.79774 0.48340 0.76486
 H1934 H 0.87427 0.44622 0.79670
 H1935 H 0.82150 0.32363 0.75195
 H1936 H 0.74013 0.34196 0.79310
 H1937 H 0.77354 0.43551 0.76582
 H1938 H 0.75703 0.39220 0.79872
 C1939 C 0.30514 0.91144 0.28407
 C1940 C 0.30208 0.92999 0.30967
 C1941 C 0.31524 0.95731 0.30851
 C1942 C 0.33083 0.96619 0.28173
 C1943 C 0.33233 0.94735 0.25630
 N1944 N 0.32006 0.92075 0.25830
 C1945 C 0.29515 0.88123 0.28482
 N1946 N 0.31072 0.86241 0.26864
 C1947 C 0.30288 0.83447 0.26611
 C1948 C 0.27719 0.82368 0.27950
 C1949 C 0.26093 0.84265 0.29701
 C1950 C 0.26996 0.87145 0.29994
 H1951 H 0.31367 0.97132 0.32866
 H1952 H 0.34450 0.95312 0.23549
 H1953 H 0.31618 0.82128 0.25197
 H1954 H 0.24093 0.83548 0.30766
 H1955 H 0.29082 0.92307 0.33075
 H1956 H 0.25686 0.88600 0.31271
 C1957 C 0.19436 0.89235 0.71480
 C1958 C 0.20959 0.91840 0.71934
 C1959 C 0.19460 0.94338 0.72268
 C1960 C 0.16484 0.94202 0.72118
 C1961 C 0.15094 0.91620 0.71295
 N1962 N 0.16573 0.89221 0.71090
 C1963 C 0.20654 0.86507 0.72260
 N1964 N 0.19042 0.84731 0.74112
 C1965 C 0.19924 0.82192 0.75080
 C1966 C 0.22574 0.81220 0.74113
 C1967 C 0.24310 0.83042 0.72216
 C1968 C 0.23368 0.85713 0.71311
 H1969 H 0.20587 0.96303 0.72942
 H1970 H 0.12799 0.91456 0.71137
 H1971 H 0.18507 0.80938 0.76586
 H1972 H 0.26378 0.82406 0.71425
 H1973 H 0.23224 0.91903 0.72349
 H1974 H 0.24708 0.87106 0.69854
 C1975 C 0.69218 0.38381 0.21561
 C1976 C 0.70794 0.40958 0.22012
 C1977 C 0.69351 0.43449 0.22646
 C1978 C 0.66373 0.43339 0.22816
 C1979 C 0.64894 0.40791 0.22049
 N1980 N 0.66330 0.38401 0.21517
 C1981 C 0.70475 0.35583 0.21899
 N1982 N 0.68852 0.33566 0.23414
 C1983 C 0.69782 0.30974 0.24104
 C1984 C 0.72530 0.30203 0.23224
 C1985 C 0.74267 0.32253 0.21626
 C1986 C 0.73256 0.34964 0.20982
 H1987 H 0.70550 0.45393 0.23253
 H1988 H 0.62593 0.40647 0.22120
 H1989 H 0.68380 0.29593 0.25482
 H1990 H 0.76412 0.31785 0.20928
 H1991 H 0.73089 0.41004 0.22154
 H1992 H 0.74618 0.36539 0.19792
 C1993 C 0.70863 0.58290 0.25605
 C1994 C 0.71040 0.56574 0.28276
 C1995 C 0.69534 0.53945 0.28362
 C1996 C 0.67884 0.53027 0.25789
 C1997 C 0.67910 0.54730 0.23102
 N1998 N 0.69335 0.57301 0.23102
 C1999 C 0.71957 0.61276 0.25534
 N2000 N 0.70595 0.63095 0.23667
 C2001 C 0.71372 0.65891 0.23453
 C2002 C 0.73695 0.67043 0.25158
 C2003 C 0.75141 0.65200 0.27114
 C2004 C 0.74273 0.62316 0.27319
 H2005 H 0.69574 0.52677 0.30477
 H2006 H 0.66647 0.54124 0.21079
 H2007 H 0.70176 0.67193 0.21908
 H2008 H 0.76955 0.65971 0.28462
 H2009 H 0.72180 0.57313 0.30338
 H2010 H 0.75432 0.60920 0.28803
 C2011 C 0.21264 0.08820 0.75259
 C2012 C 0.21196 0.07149 0.77980
 C2013 C 0.19551 0.04589 0.78015
 C2014 C 0.18007 0.03702 0.75343
 C2015 C 0.18299 0.05355 0.72629
 N2016 N 0.19847 0.07850 0.72676
 C2017 C 0.22421 0.11781 0.75185
 N2018 N 0.21127 0.13581 0.73241
 C2019 C 0.21953 0.16353 0.72958
 C2020 C 0.24276 0.17510 0.74658
 C2021 C 0.25655 0.15693 0.76709
 C2022 C 0.24721 0.12822 0.76997
 H2023 H 0.19410 0.03358 0.80157
 H2024 H 0.17143 0.04798 0.70532
 H2025 H 0.20774 0.17630 0.71372
 H2026 H 0.27453 0.16478 0.78075
 H2027 H 0.22249 0.07883 0.80100
 H2028 H 0.25811 0.11436 0.78559
 C2029 C 0.28883 0.10070 0.22653
 C2030 C 0.30594 0.08600 0.20527
 C2031 C 0.32417 0.06575 0.21663
 C2032 C 0.32551 0.06066 0.24895
 C2033 C 0.30718 0.07483 0.26913
 N2034 N 0.28964 0.09425 0.25759
 C2035 C 0.27170 0.12480 0.21732
 N2036 N 0.24962 0.13151 0.23630
 C2037 C 0.23654 0.15652 0.23403
 C2038 C 0.24690 0.17758 0.21295
 C2039 C 0.26776 0.16999 0.19107
 C2040 C 0.28037 0.14368 0.19327
 H2041 H 0.33803 0.05500 0.20045
 H2042 H 0.30733 0.07102 0.29417
 H2043 H 0.21983 0.16070 0.25077
 H2044 H 0.27554 0.18488 0.17346
 H2045 H 0.30561 0.09038 0.18036
 H2046 H 0.29806 0.13927 0.17789
 C2047 C 0.79074 0.60606 0.73324
 C2048 C 0.80692 0.59182 0.71063
 C2049 C 0.82499 0.57068 0.72025
 C2050 C 0.82698 0.56407 0.75216
 C2051 C 0.80923 0.57751 0.77362
 N2052 N 0.79199 0.59795 0.76380
 C2053 C 0.77427 0.63131 0.72614
 N2054 N 0.75437 0.63907 0.74746
 C2055 C 0.74191 0.66450 0.74638
 C2056 C 0.75047 0.68486 0.72367
 C2057 C 0.76919 0.67639 0.69989
 C2058 C 0.78131 0.64976 0.70112
 H2059 H 0.83841 0.56058 0.70309
 H2060 H 0.80989 0.57256 0.79839
 H2061 H 0.72692 0.66938 0.76480
 H2062 H 0.77548 0.69067 0.68108
 H2063 H 0.80619 0.59729 0.68603
 H2064 H 0.79724 0.64466 0.68380
 C2065 C 0.91196 0.74750 0.21440
 C2066 C 0.92475 0.72219 0.20553
 C2067 C 0.94945 0.72367 0.18682
 C2068 C 0.96122 0.75026 0.17729
 C2069 C 0.94908 0.77493 0.18922
 N2070 N 0.92474 0.77295 0.20638
 C2071 C 0.88246 0.74751 0.22607
 N2072 N 0.86472 0.76514 0.21165
 C2073 C 0.83660 0.76519 0.21832
 C2074 C 0.82443 0.74693 0.24134
 C2075 C 0.84266 0.72909 0.25737
 C2076 C 0.87167 0.72908 0.24953
 H2077 H 0.95820 0.70415 0.17832
 H2078 H 0.95811 0.79591 0.18364
 H2079 H 0.82369 0.77851 0.20422
 H2080 H 0.83435 0.71415 0.27479
 H2081 H 0.91464 0.70161 0.21095
 H2082 H 0.88535 0.71465 0.26123
 C2083 C 0.41534 0.25619 0.70223
 C2084 C 0.42874 0.23104 0.69419
 C2085 C 0.45332 0.23262 0.67534
 C2086 C 0.46454 0.25916 0.66485
 C2087 C 0.45142 0.28380 0.67543
 N2088 N 0.42721 0.28166 0.69286
 C2089 C 0.38631 0.25573 0.71538
 N2090 N 0.36768 0.27308 0.70197
 C2091 C 0.33981 0.27254 0.70996
 C2092 C 0.32884 0.25387 0.73331
 C2093 C 0.34805 0.23642 0.74838
 C2094 C 0.37676 0.23708 0.73924
 H2095 H 0.46264 0.21305 0.66791
 H2096 H 0.45986 0.30485 0.66931
 H2097 H 0.32612 0.28561 0.69654
 H2098 H 0.34066 0.22122 0.76599
 H2099 H 0.41937 0.21040 0.70065
 H2100 H 0.39117 0.22290 0.75022
 C2101 C 0.39326 0.74124 0.81290
 C2102 C 0.41405 0.76250 0.80510
 C2103 C 0.43889 0.76530 0.82279
 C2104 C 0.44337 0.74671 0.84774
 C2105 C 0.42297 0.72477 0.85366
 N2106 N 0.39854 0.72296 0.83675
 C2107 C 0.36437 0.74059 0.79902
 N2108 N 0.34214 0.73066 0.81702
 C2109 C 0.31474 0.73132 0.80757
 C2110 C 0.30800 0.74245 0.77802
 C2111 C 0.33067 0.75209 0.75857
 C2112 C 0.35882 0.75127 0.76897
 H2113 H 0.45399 0.78287 0.81805
 H2114 H 0.42554 0.71036 0.87307
 H2115 H 0.29826 0.72329 0.82346
 H2116 H 0.32668 0.76072 0.73560
 H2117 H 0.41044 0.77801 0.78704
 H2118 H 0.37592 0.75899 0.75369
 C2119 C 0.89578 0.24181 0.30489
 C2120 C 0.91156 0.21843 0.31324
 C2121 C 0.93639 0.22278 0.33077
 C2122 C 0.94496 0.25036 0.34110
 C2123 C 0.92890 0.27323 0.33095
 N2124 N 0.90515 0.26844 0.31350
 C2125 C 0.86725 0.23783 0.29111
 N2126 N 0.86030 0.25203 0.26463
 C2127 C 0.83328 0.25108 0.25320
 C2128 C 0.81116 0.23618 0.26946
 C2129 C 0.81820 0.22204 0.29725
 C2130 C 0.84612 0.22222 0.30758
 H2131 H 0.94745 0.20426 0.33805
 H2132 H 0.93512 0.29505 0.33672
 H2133 H 0.82897 0.26280 0.23210
 H2134 H 0.80207 0.21100 0.31143
 H2135 H 0.90424 0.19695 0.30706
 H2136 H 0.85092 0.21149 0.32923
 C2137 C 0.08382 0.25144 0.29026
 C2138 C 0.07373 0.27830 0.29790
 C2139 C 0.05197 0.28042 0.32020
 C2140 C 0.04002 0.25589 0.33488
 C2141 C 0.04981 0.22939 0.32550
 N2142 N 0.07134 0.22788 0.30412
 C2143 C 0.10932 0.24860 0.26978
 N2144 N 0.12218 0.27197 0.25595
 C2145 C 0.14764 0.27104 0.24062
 C2146 C 0.16262 0.24582 0.23998
 C2147 C 0.14834 0.22101 0.25172
 C2148 C 0.12194 0.22231 0.26654
 H2149 H 0.04466 0.30133 0.32610
 H2150 H 0.04132 0.20995 0.33606
 H2151 H 0.15654 0.29038 0.23044
 H2152 H 0.15801 0.20054 0.25088
 H2153 H 0.08308 0.29754 0.28749
 H2154 H 0.11226 0.20310 0.27669
 C2155 C 0.58569 0.75409 0.80227
 C2156 C 0.57256 0.78015 0.80585
 C2157 C 0.54966 0.78216 0.82676
 C2158 C 0.53957 0.75823 0.84396
 C2159 C 0.55238 0.73229 0.83854
 N2160 N 0.57497 0.73100 0.81852
 C2161 C 0.61230 0.75187 0.78344
 N2162 N 0.62231 0.77382 0.76496
 C2163 C 0.64805 0.77363 0.74997
 C2164 C 0.66620 0.75104 0.75440
 C2165 C 0.65515 0.72748 0.77181
 C2166 C 0.62853 0.72781 0.78615
 H2167 H 0.54006 0.80253 0.82974
 H2168 H 0.54540 0.71336 0.85127
 H2169 H 0.65464 0.79170 0.73583
 H2170 H 0.66721 0.70873 0.77535
 H2171 H 0.58046 0.79901 0.79347
 H2172 H 0.62130 0.70975 0.80027
 C2173 C 0.60606 0.24975 0.71428
 C2174 C 0.58994 0.27408 0.71666
 C2175 C 0.56672 0.27669 0.69696
 C2176 C 0.55928 0.25487 0.67558
 C2177 C 0.57427 0.22986 0.67595
 N2178 N 0.59754 0.22829 0.69437
 C2179 C 0.63489 0.24961 0.72732
 N2180 N 0.65551 0.23873 0.70900
 C2181 C 0.68327 0.24062 0.71686
 C2182 C 0.69198 0.25395 0.74506
 C2183 C 0.67093 0.26466 0.76488
 C2184 C 0.64234 0.26272 0.75598
 H2185 H 0.55555 0.29636 0.69711
 H2186 H 0.56907 0.21268 0.65967
 H2187 H 0.69847 0.23188 0.70070
 H2188 H 0.67656 0.27515 0.78678
 H2189 H 0.59658 0.29188 0.73150
 H2190 H 0.62636 0.27165 0.77106
 C2191 C 0.10405 0.74764 0.21905
 C2192 C 0.08954 0.77305 0.21811
 C2193 C 0.06634 0.77494 0.19818
 C2194 C 0.05724 0.75142 0.17984
 C2195 C 0.07102 0.72584 0.18312
 N2196 N 0.09426 0.72483 0.20172
 C2197 C 0.13246 0.74681 0.23326
 N2198 N 0.15271 0.73326 0.21694
 C2199 C 0.18026 0.73407 0.22573
 C2200 C 0.18919 0.74902 0.25294
 C2201 C 0.16840 0.76252 0.27080
 C2202 C 0.14002 0.76164 0.26091
 H2203 H 0.05607 0.79503 0.19627
 H2204 H 0.06456 0.70730 0.16931
 H2205 H 0.19523 0.72367 0.21066
 H2206 H 0.17419 0.77460 0.29165
 H2207 H 0.09722 0.79182 0.23083
 H2208 H 0.12433 0.77279 0.27436
   
