data_POSCAR
  _audit_creation_date              2014-09-24
  _audit_creation_method            'ToBaCCo'
  _symmetry_space_group_name_H-M    'P1'
  _symmetry_Int_Tables_number       1
  _symmetry_cell_setting            triclinic
  loop_
  _symmetry_equiv_pos_as_xyz
 x,y,z
_cell_length_a 55.8693
_cell_length_b 58.1551
_cell_length_c 59.9150
_cell_angle_alpha 89.720600
_cell_angle_beta 89.966000
_cell_angle_gamma 89.193000
loop_
  _atom_site_label
  _atom_site_type_symbol
  _atom_site_fract_x
  _atom_site_fract_y
  _atom_site_fract_z
N1 N 0.35746 0.29468 0.31911
 N2 N 0.35248 0.30352 0.29939
 C3 C 0.36972 0.29730 0.28485
 C4 C 0.38631 0.28362 0.29602
 C5 C 0.37809 0.28253 0.31780
 H6 H 0.37064 0.30299 0.26766
 H7 H 0.38696 0.27430 0.33183
 Cu8 Cu 0.32544 0.32433 0.29509
 Cu9 Cu 0.33782 0.30129 0.34528
 Cu10 Cu 0.28348 0.32860 0.33472
 N11 N 0.30353 0.35053 0.29631
 N12 N 0.28718 0.35244 0.31200
 C13 C 0.27609 0.37308 0.31006
 C14 C 0.28643 0.38485 0.29248
 C15 C 0.30336 0.36977 0.28379
 H16 H 0.26237 0.37947 0.32127
 H17 H 0.31531 0.37289 0.26992
 N18 N 0.29002 0.31155 0.36240
 N19 N 0.31119 0.30239 0.36701
 C20 C 0.31049 0.29309 0.38760
 C21 C 0.28784 0.29672 0.39645
 C22 C 0.27520 0.30811 0.37976
 H23 H 0.32525 0.28397 0.39548
 H24 H 0.25654 0.31331 0.38007
 H25 H 0.30819 0.30211 0.32574
 H26 H 0.31944 0.33060 0.33493
 N27 N 0.36211 0.80046 -0.17743
 N28 N 0.35909 0.81303 -0.19547
 C29 C 0.37609 0.80726 -0.21044
 C30 C 0.39064 0.78989 -0.20145
 C31 C 0.38139 0.78666 -0.18010
 H32 H 0.37743 0.81491 -0.22685
 H33 H 0.38855 0.77583 -0.16695
 Cu34 Cu 0.33389 0.83644 -0.19734
 Cu35 Cu 0.33946 0.80115 -0.15275
 Cu36 Cu 0.29414 0.84224 -0.15527
 N37 N 0.30994 0.86108 -0.19698
 N38 N 0.29389 0.86267 -0.18101
 C39 C 0.27932 0.88081 -0.18512
 C40 C 0.28659 0.89133 -0.20476
 C41 C 0.30644 0.87853 -0.21153
 H42 H 0.26546 0.88677 -0.17385
 H43 H 0.31732 0.88155 -0.22616
 N44 N 0.29740 0.82008 -0.13053
 N45 N 0.31463 0.80434 -0.12958
 C46 C 0.31131 0.79112 -0.11134
 C47 C 0.29095 0.79879 -0.10040
 C48 C 0.28288 0.81747 -0.11278
 H49 H 0.32252 0.77661 -0.10656
 H50 H 0.26746 0.82824 -0.10914
 H51 H 0.31065 0.81429 -0.17049
 H52 H 0.33060 0.83558 -0.15678
 N53 N 0.85065 0.29239 -0.18354
 N54 N 0.84900 0.30554 -0.20139
 C55 C 0.86825 0.30180 -0.21446
 C56 C 0.88259 0.28520 -0.20436
 C57 C 0.87100 0.27979 -0.18465
 H58 H 0.87186 0.31083 -0.22990
 H59 H 0.87733 0.26812 -0.17176
 Cu60 Cu 0.82276 0.32738 -0.20518
 Cu61 Cu 0.82679 0.29342 -0.15981
 Cu62 Cu 0.78429 0.33725 -0.16293
 N63 N 0.80291 0.35496 -0.20415
 N64 N 0.78768 0.35866 -0.18781
 C65 C 0.77742 0.37955 -0.19057
 C66 C 0.78729 0.38991 -0.20932
 C67 C 0.80297 0.37338 -0.21780
 H68 H 0.76484 0.38723 -0.17898
 H69 H 0.81348 0.37442 -0.23292
 N70 N 0.78455 0.31386 -0.13903
 N71 N 0.80102 0.29740 -0.13764
 C72 C 0.79745 0.28522 -0.11880
 C73 C 0.77768 0.29430 -0.10797
 C74 C 0.77003 0.31253 -0.12112
 H75 H 0.80867 0.27111 -0.11302
 H76 H 0.75559 0.32447 -0.11739
 H77 H 0.79836 0.30773 -0.17747
 H78 H 0.82006 0.32814 -0.16480
 N79 N 0.86355 0.80604 0.32625
 N80 N 0.86009 0.81801 0.30784
 C81 C 0.87707 0.81227 0.29286
 C82 C 0.89190 0.79569 0.30233
 C83 C 0.88301 0.79237 0.32368
 H84 H 0.87882 0.81984 0.27642
 H85 H 0.89040 0.78123 0.33652
 Cu86 Cu 0.83478 0.84113 0.30596
 Cu87 Cu 0.84277 0.80997 0.35226
 Cu88 Cu 0.78702 0.83332 0.33857
 N89 N 0.80738 0.86192 0.30459
 N90 N 0.78841 0.85867 0.31709
 C91 C 0.77234 0.87568 0.31313
 C92 C 0.78179 0.89056 0.29724
 C93 C 0.80425 0.88124 0.29250
 H94 H 0.75589 0.87791 0.32245
 H95 H 0.81736 0.88799 0.28102
 N96 N 0.79296 0.81494 0.36582
 N97 N 0.81445 0.80739 0.37170
 C98 C 0.81302 0.79722 0.39186
 C99 C 0.78953 0.79857 0.39918
 C100 C 0.77724 0.80952 0.38198
 H101 H 0.82797 0.78929 0.40057
 H102 H 0.75824 0.81329 0.38125
 H103 H 0.81624 0.81221 0.32969
 H104 H 0.82203 0.83949 0.34489
 N105 N 0.64066 0.70767 0.31256
 N106 N 0.64229 0.69363 0.29554
 C107 C 0.62461 0.69875 0.28096
 C108 C 0.61099 0.71695 0.28940
 C109 C 0.62153 0.72159 0.30984
 H110 H 0.62157 0.68960 0.26559
 H111 H 0.61543 0.73359 0.32239
 Cu112 Cu 0.66613 0.66889 0.29577
 Cu113 Cu 0.66445 0.70828 0.33621
 Cu114 Cu 0.69961 0.65900 0.34132
 N115 N 0.69094 0.64508 0.29610
 N116 N 0.70490 0.64216 0.31357
 C117 C 0.71975 0.62417 0.30990
 C118 C 0.71476 0.61504 0.28906
 C119 C 0.69603 0.62864 0.28103
 H120 H 0.73237 0.61748 0.32206
 H121 H 0.68574 0.62583 0.26605
 N122 N 0.69710 0.68251 0.36496
 N123 N 0.68446 0.70168 0.36245
 C124 C 0.68665 0.71456 0.38089
 C125 C 0.70077 0.70268 0.39614
 C126 C 0.70745 0.68259 0.38528
 H127 H 0.67857 0.73140 0.38304
 H128 H 0.71898 0.66904 0.39176
 H129 H 0.69184 0.68725 0.32306
 H130 H 0.66550 0.67328 0.33628
 N131 N 0.64091 0.19239 -0.17694
 N132 N 0.64507 0.18190 -0.19593
 C133 C 0.62651 0.18564 -0.20981
 C134 C 0.60913 0.19841 -0.19862
 C135 C 0.61919 0.20265 -0.17787
 H136 H 0.62595 0.17970 -0.22687
 H137 H 0.61144 0.21277 -0.16454
 Cu138 Cu 0.67323 0.16259 -0.19997
 Cu139 Cu 0.66519 0.19407 -0.15364
 Cu140 Cu 0.71694 0.16130 -0.16183
 N141 N 0.69520 0.13649 -0.19740
 N142 N 0.71277 0.13633 -0.18290
 C143 C 0.72549 0.11666 -0.18499
 C144 C 0.71474 0.10306 -0.20111
 C145 C 0.69577 0.11669 -0.20889
 H146 H 0.74184 0.11312 -0.17589
 H147 H 0.68282 0.11240 -0.22155
 N148 N 0.71208 0.18138 -0.13583
 N149 N 0.69237 0.19368 -0.13257
 C150 C 0.69459 0.20545 -0.11341
 C151 C 0.71674 0.20033 -0.10417
 C152 C 0.72715 0.18465 -0.11866
 H153 H 0.68116 0.21702 -0.10661
 H154 H 0.74421 0.17588 -0.11662
 H155 H 0.69414 0.18768 -0.17365
 H156 H 0.68048 0.16213 -0.16003
 N157 N 0.13779 0.69262 -0.17726
 N158 N 0.14014 0.67925 -0.19473
 C159 C 0.12130 0.68261 -0.20839
 C160 C 0.10575 0.69839 -0.19858
 C161 C 0.11705 0.70453 -0.17892
 H162 H 0.11939 0.67453 -0.22449
 H163 H 0.11089 0.71715 -0.16695
 Cu164 Cu 0.16695 0.65796 -0.19738
 Cu165 Cu 0.16310 0.69548 -0.15512
 Cu166 Cu 0.21346 0.66038 -0.16236
 N167 N 0.18898 0.63208 -0.19363
 N168 N 0.20814 0.63370 -0.18111
 C169 C 0.22161 0.61450 -0.18335
 C170 C 0.20971 0.59944 -0.19728
 C171 C 0.18916 0.61144 -0.20367
 H172 H 0.23901 0.61202 -0.17576
 H173 H 0.17552 0.60579 -0.21512
 N174 N 0.21013 0.68265 -0.13784
 N175 N 0.19102 0.69591 -0.13503
 C176 C 0.19401 0.70867 -0.11660
 C177 C 0.21599 0.70314 -0.10724
 C178 C 0.22553 0.68626 -0.12098
 H179 H 0.18100 0.72087 -0.11014
 H180 H 0.24199 0.67660 -0.11839
 H181 H 0.19041 0.68561 -0.17575
 H182 H 0.17717 0.66237 -0.15835
 N183 N 0.13732 0.20320 0.31416
 N184 N 0.14069 0.18925 0.29726
 C185 C 0.12211 0.19139 0.28310
 C186 C 0.10559 0.20684 0.29209
 C187 C 0.11620 0.21425 0.31167
 H188 H 0.12094 0.18249 0.26735
 H189 H 0.10910 0.22673 0.32334
 Cu190 Cu 0.16817 0.16834 0.29623
 Cu191 Cu 0.16134 0.20658 0.33735
 Cu192 Cu 0.19174 0.15544 0.34675
 N193 N 0.18955 0.14212 0.30070
 N194 N 0.19858 0.13708 0.32042
 C195 C 0.21140 0.11740 0.31902
 C196 C 0.21050 0.10981 0.29722
 C197 C 0.19626 0.12575 0.28608
 H198 H 0.22007 0.10883 0.33297
 H199 H 0.19065 0.12509 0.26882
 N200 N 0.18998 0.18045 0.36886
 N201 N 0.17945 0.20044 0.36471
 C202 C 0.18289 0.21457 0.38206
 C203 C 0.19572 0.20270 0.39829
 C204 C 0.20019 0.18122 0.38918
 H205 H 0.17684 0.23231 0.38263
 H206 H 0.21057 0.16735 0.39664
 H207 H 0.19000 0.18441 0.32772
 H208 H 0.16065 0.17197 0.33617
 N209 N 0.64173 0.30044 0.68506
 N210 N 0.63994 0.31828 0.69832
 C211 C 0.62244 0.31458 0.71327
 C212 C 0.61331 0.29280 0.70991
 C213 C 0.62586 0.28450 0.69156
 H214 H 0.61627 0.32717 0.72524
 H215 H 0.62330 0.26827 0.68324
 Cu216 Cu 0.66109 0.34441 0.69551
 Cu217 Cu 0.66295 0.30036 0.65928
 Cu218 Cu 0.70297 0.34523 0.65503
 N219 N 0.68409 0.36908 0.69313
 N220 N 0.70025 0.36954 0.67719
 C221 C 0.71295 0.38898 0.67898
 C222 C 0.70420 0.40145 0.69694
 C223 C 0.68630 0.38795 0.70583
 H224 H 0.72731 0.39387 0.66790
 H225 H 0.67578 0.39158 0.72058
 N226 N 0.70251 0.31923 0.63405
 N227 N 0.68590 0.30335 0.63449
 C228 C 0.68805 0.29027 0.61610
 C229 C 0.70708 0.29813 0.60343
 C230 C 0.71625 0.31606 0.61584
 H231 H 0.67642 0.27620 0.61204
 H232 H 0.73180 0.32616 0.61195
 H233 H 0.68877 0.31965 0.67497
 H234 H 0.66748 0.33558 0.65620
 N235 N 0.63100 0.80942 1.17969
 N236 N 0.62714 0.82927 1.18944
 C237 C 0.60810 0.82765 1.20299
 C238 C 0.60025 0.80508 1.20294
 C239 C 0.61512 0.79416 1.18749
 H240 H 0.60046 0.84216 1.21177
 H241 H 0.61430 0.77651 1.18200
 Cu242 Cu 0.64911 0.85452 1.18616
 Cu243 Cu 0.65414 0.80643 1.15550
 Cu244 Cu 0.69913 0.84636 1.15527
 N245 N 0.67754 0.87272 1.19049
 N246 N 0.69682 0.86993 1.17819
 C247 C 0.71308 0.88560 1.18418
 C248 C 0.70382 0.89839 1.20175
 C249 C 0.68108 0.88984 1.20507
 H250 H 0.73009 0.88793 1.17591
 H251 H 0.66796 0.89577 1.21709
 N252 N 0.69748 0.82119 1.13344
 N253 N 0.67942 0.80688 1.13264
 C254 C 0.68139 0.79409 1.11405
 C255 C 0.70180 0.80053 1.10256
 C256 C 0.71193 0.81727 1.11585
 H257 H 0.66857 0.78138 1.10899
 H258 H 0.72851 0.82614 1.11293
 H259 H 0.67767 0.82551 1.17447
 H260 H 0.66294 0.84088 1.15024
 N261 N 0.13424 0.30553 1.17713
 N262 N 0.13173 0.32448 1.18876
 C263 C 0.11331 0.32219 1.20298
 C264 C 0.10436 0.30012 1.20105
 C265 C 0.11800 0.29022 1.18414
 H266 H 0.10664 0.33591 1.21347
 H267 H 0.11597 0.27327 1.17711
 Cu268 Cu 0.15368 0.34985 1.18554
 Cu269 Cu 0.15627 0.30360 1.15200
 Cu270 Cu 0.20048 0.34442 1.15021
 N271 N 0.18189 0.36882 1.18810
 N272 N 0.19973 0.36721 1.17388
 C273 C 0.21604 0.38321 1.17880
 C274 C 0.20846 0.39502 1.19763
 C275 C 0.18651 0.38555 1.20286
 H276 H 0.23193 0.38638 1.16902
 H277 H 0.17465 0.39063 1.21629
 N278 N 0.19775 0.31991 1.12784
 N279 N 0.18020 0.30500 1.12792
 C280 C 0.18181 0.29201 1.10943
 C281 C 0.20139 0.29903 1.09708
 C282 C 0.21143 0.31634 1.10966
 H283 H 0.16946 0.27860 1.10510
 H284 H 0.22756 0.32565 1.10591
 H285 H 0.18131 0.32189 1.16987
 H286 H 0.16408 0.33822 1.14784
 N287 N 0.13735 0.80228 0.68284
 N288 N 0.13464 0.82129 0.69433
 C289 C 0.11684 0.81863 0.70916
 C290 C 0.10852 0.79631 0.70772
 C291 C 0.12181 0.78659 0.69048
 H292 H 0.11016 0.83224 0.71979
 H293 H 0.12004 0.76950 0.68372
 Cu294 Cu 0.15546 0.84737 0.69021
 Cu295 Cu 0.15908 0.80054 0.65742
 Cu296 Cu 0.20213 0.84252 0.65482
 N297 N 0.18281 0.86750 0.69204
 N298 N 0.20064 0.86602 0.67782
 C299 C 0.21625 0.88286 0.68206
 C300 C 0.20824 0.89510 0.70048
 C301 C 0.18675 0.88498 0.70616
 H302 H 0.23193 0.88631 0.67207
 H303 H 0.17472 0.89012 0.71944
 N304 N 0.20020 0.81733 0.63308
 N305 N 0.18287 0.80218 0.63319
 C306 C 0.18462 0.78925 0.61465
 C307 C 0.20404 0.79660 0.60223
 C308 C 0.21389 0.81395 0.61489
 H309 H 0.17239 0.77575 0.61027
 H310 H 0.22980 0.82357 0.61109
 H311 H 0.18363 0.81970 0.67485
 H312 H 0.16592 0.83523 0.65265
 N313 N 0.35231 0.70257 0.68818
 N314 N 0.35635 0.68398 0.70021
 C315 C 0.37755 0.68578 0.71059
 C316 C 0.38743 0.70673 0.70486
 C317 C 0.37046 0.71723 0.69113
 H318 H 0.38537 0.67263 0.72125
 H319 H 0.37133 0.73406 0.68344
 Cu320 Cu 0.33337 0.65933 0.70132
 Cu321 Cu 0.32562 0.70424 0.66713
 Cu322 Cu 0.30693 0.64955 0.65247
 N323 N 0.31071 0.63467 0.69805
 N324 N 0.30158 0.62978 0.67848
 C325 C 0.28880 0.61040 0.68032
 C326 C 0.28911 0.60328 0.70251
 C327 C 0.30348 0.61908 0.71315
 H328 H 0.28044 0.60191 0.66639
 H329 H 0.30880 0.61892 0.73050
 N330 N 0.30354 0.67670 0.63265
 N331 N 0.30892 0.69770 0.63901
 C332 C 0.30367 0.71256 0.62239
 C333 C 0.29521 0.70027 0.60437
 C334 C 0.29494 0.67762 0.61166
 H335 H 0.30625 0.73093 0.62324
 H336 H 0.28900 0.66289 0.60232
 H337 H 0.30448 0.67539 0.67463
 H338 H 0.33473 0.67085 0.66213
 N339 N 0.35588 0.20552 1.18630
 N340 N 0.35498 0.18965 1.20196
 C341 C 0.37495 0.19054 1.21444
 C342 C 0.38950 0.20747 1.20572
 C343 C 0.37656 0.21694 1.18816
 H344 H 0.37867 0.17953 1.22865
 H345 H 0.38204 0.23073 1.17719
 Cu346 Cu 0.32852 0.16838 1.20377
 Cu347 Cu 0.33044 0.20913 1.16425
 Cu348 Cu 0.30382 0.15688 1.15407
 N349 N 0.30671 0.14301 1.20005
 N350 N 0.29707 0.13854 1.18057
 C351 C 0.28403 0.11934 1.18230
 C352 C 0.28538 0.11153 1.20411
 C353 C 0.30017 0.12681 1.21486
 H354 H 0.27497 0.11119 1.16855
 H355 H 0.30626 0.12577 1.23198
 N356 N 0.30413 0.18239 1.13222
 N357 N 0.31266 0.20286 1.13681
 C358 C 0.30850 0.21709 1.11944
 C359 C 0.29745 0.20478 1.10269
 C360 C 0.29466 0.18293 1.11158
 H361 H 0.31305 0.23510 1.11915
 H362 H 0.28602 0.16856 1.10369
 H363 H 0.30407 0.18504 1.17375
 H364 H 0.33392 0.17463 1.16377
 N365 N 0.85460 0.70762 1.18845
 N366 N 0.85649 0.69141 1.20372
 C367 C 0.87552 0.69560 1.21674
 C368 C 0.88616 0.71561 1.20935
 C369 C 0.87254 0.72256 1.19109
 H370 H 0.88146 0.68465 1.23035
 H371 H 0.87582 0.73698 1.18010
 Cu372 Cu 0.83488 0.66560 1.20447
 Cu373 Cu 0.82863 0.70814 1.16669
 Cu374 Cu 0.80208 0.65535 1.15866
 N375 N 0.82003 0.63609 1.19973
 N376 N 0.80665 0.63250 1.18212
 C377 C 0.79709 0.61150 1.18369
 C378 C 0.80565 0.60083 1.20288
 C379 C 0.81995 0.61719 1.21282
 H380 H 0.78408 0.60487 1.17211
 H381 H 0.82925 0.61564 1.22859
 N382 N 0.79934 0.68091 1.13710
 N383 N 0.80796 0.70152 1.14089
 C384 C 0.80133 0.71569 1.12407
 C385 C 0.78776 0.70342 1.10895
 C386 C 0.78751 0.68128 1.11755
 H387 H 0.80616 0.73359 1.12282
 H388 H 0.77951 0.66640 1.11001
 H389 H 0.80539 0.68325 1.17886
 H390 H 0.83333 0.67334 1.16461
 N391 N 0.85319 0.20603 0.68885
 N392 N 0.85523 0.18963 0.70393
 C393 C 0.87442 0.19371 0.71681
 C394 C 0.88488 0.21386 0.70948
 C395 C 0.87104 0.22102 0.69151
 H396 H 0.88068 0.18255 0.73015
 H397 H 0.87427 0.23550 0.68057
 Cu398 Cu 0.83340 0.16386 0.70425
 Cu399 Cu 0.82813 0.20580 0.66625
 Cu400 Cu 0.81353 0.14988 0.65330
 N401 N 0.81531 0.13605 0.69940
 N402 N 0.80867 0.13005 0.67923
 C403 C 0.79765 0.10967 0.68034
 C404 C 0.79635 0.10296 0.70255
 C405 C 0.80820 0.11997 0.71411
 H406 H 0.79094 0.10054 0.66601
 H407 H 0.81129 0.12063 0.73192
 N408 N 0.80834 0.17612 0.63265
 N409 N 0.81220 0.19761 0.63840
 C410 C 0.80423 0.21175 0.62214
 C411 C 0.79467 0.19856 0.60527
 C412 C 0.79810 0.17598 0.61231
 H413 H 0.80520 0.23030 0.62261
 H414 H 0.79321 0.16058 0.60346
 H415 H 0.80720 0.17671 0.67406
 H416 H 0.83885 0.17277 0.66465
 N417 N 0.30039 0.36033 0.67861
 N418 N 0.31406 0.35666 0.69616
 C419 C 0.31246 0.37491 0.70981
 C420 C 0.29718 0.39098 0.70014
 C421 C 0.28955 0.38104 0.68053
 H422 H 0.32177 0.37645 0.72554
 H423 H 0.27726 0.38849 0.66848
 Cu424 Cu 0.33324 0.32880 0.69938
 Cu425 Cu 0.29788 0.33804 0.65465
 Cu426 Cu 0.33789 0.29218 0.65618
 N427 N 0.35894 0.30615 0.69758
 N428 N 0.36096 0.29210 0.68054
 C429 C 0.38088 0.27908 0.68308
 C430 C 0.39172 0.28506 0.70296
 C431 C 0.37744 0.30250 0.71158
 H432 H 0.38737 0.26662 0.67109
 H433 H 0.38055 0.31207 0.72672
 N434 N 0.31306 0.29565 0.63303
 N435 N 0.29821 0.31348 0.63217
 C436 C 0.28389 0.31137 0.61426
 C437 C 0.28960 0.29095 0.60364
 C438 C 0.30841 0.28160 0.61582
 H439 H 0.27047 0.32388 0.60913
 H440 H 0.31799 0.26575 0.61230
 H441 H 0.30941 0.30884 0.67173
 H442 H 0.33305 0.32734 0.65897
 N443 N 0.28870 0.86382 0.18024
 N444 N 0.30230 0.86121 0.19799
 C445 C 0.30139 0.88048 0.21023
 C446 C 0.28657 0.89615 0.19950
 C447 C 0.27847 0.88496 0.18068
 H448 H 0.31091 0.88301 0.22572
 H449 H 0.26643 0.89183 0.16811
 Cu450 Cu 0.32043 0.83327 0.20320
 Cu451 Cu 0.28616 0.83965 0.15785
 Cu452 Cu 0.32405 0.79201 0.16446
 N453 N 0.34518 0.80987 0.20436
 N454 N 0.34618 0.79311 0.18978
 C455 C 0.36538 0.77962 0.19442
 C456 C 0.37694 0.78846 0.21296
 C457 C 0.36379 0.80795 0.21845
 H458 H 0.37103 0.76497 0.18458
 H459 H 0.36801 0.82044 0.23111
 N460 N 0.30041 0.79494 0.13996
 N461 N 0.28640 0.81324 0.13723
 C462 C 0.27341 0.81067 0.11851
 C463 C 0.27915 0.78960 0.10917
 C464 C 0.29655 0.78024 0.12307
 H465 H 0.26119 0.82347 0.11172
 H466 H 0.30603 0.76410 0.12070
 H467 H 0.29604 0.81151 0.17725
 H468 H 0.32067 0.82736 0.16316
 N469 N 0.78843 0.36298 0.18580
 N470 N 0.79972 0.35573 0.20381
 C471 C 0.79765 0.37178 0.21981
 C472 C 0.78519 0.39047 0.21105
 C473 C 0.77921 0.38410 0.18957
 H474 H 0.80553 0.37033 0.23626
 H475 H 0.76961 0.39443 0.17736
 Cu476 Cu 0.81899 0.32751 0.20393
 Cu477 Cu 0.78787 0.34452 0.15886
 Cu478 Cu 0.83534 0.31008 0.15085
 N479 N 0.84707 0.30762 0.19795
 N480 N 0.85436 0.30271 0.17756
 C481 C 0.87579 0.29196 0.17866
 C482 C 0.88210 0.28940 0.20091
 C483 C 0.86351 0.29977 0.21263
 H484 H 0.88632 0.28704 0.16426
 H485 H 0.86252 0.30235 0.23048
 N486 N 0.80802 0.31006 0.13060
 N487 N 0.78922 0.32351 0.13373
 C488 C 0.77338 0.32017 0.11716
 C489 C 0.78267 0.30346 0.10307
 C490 C 0.80483 0.29770 0.11196
 H491 H 0.75664 0.32953 0.11522
 H492 H 0.81768 0.28543 0.10533
 H493 H 0.80959 0.31121 0.17412
 H494 H 0.82835 0.33748 0.17268
 N495 N 0.79993 0.86221 0.67688
 N496 N 0.80717 0.85496 0.69672
 C497 C 0.80230 0.87136 0.71188
 C498 C 0.79177 0.88991 0.70101
 C499 C 0.79015 0.88341 0.67891
 H500 H 0.80711 0.87034 0.72935
 H501 H 0.78316 0.89367 0.66522
 Cu502 Cu 0.82597 0.82641 0.70144
 Cu503 Cu 0.80424 0.84386 0.64955
 Cu504 Cu 0.83743 0.79607 0.65550
 N505 N 0.85340 0.80536 0.69964
 N506 N 0.85898 0.79501 0.68089
 C507 C 0.88007 0.78389 0.68336
 C508 C 0.88770 0.78644 0.70525
 C509 C 0.87030 0.80042 0.71500
 H510 H 0.88938 0.77512 0.66999
 H511 H 0.87024 0.80709 0.73182
 N512 N 0.81309 0.79852 0.63247
 N513 N 0.80115 0.81786 0.62921
 C514 C 0.78710 0.81566 0.61113
 C515 C 0.78955 0.79335 0.60316
 C516 C 0.80649 0.78311 0.61706
 H517 H 0.77623 0.82946 0.60419
 H518 H 0.81374 0.76582 0.61586
 H519 H 0.80571 0.81909 0.67297
 H520 H 0.83407 0.83527 0.66949
 N521 N 0.71735 0.64675 0.69152
 N522 N 0.70102 0.64692 0.70733
 C523 C 0.70475 0.62875 0.72094
 C524 C 0.72454 0.61644 0.71330
 C525 C 0.73189 0.62833 0.69443
 H526 H 0.69321 0.62421 0.73473
 H527 H 0.74579 0.62320 0.68283
 Cu528 Cu 0.67456 0.66911 0.70686
 Cu529 Cu 0.71648 0.66926 0.66712
 Cu530 Cu 0.65726 0.68095 0.65445
 N531 N 0.64470 0.68547 0.70075
 N532 N 0.63710 0.68832 0.68016
 C533 C 0.61521 0.69823 0.68054
 C534 C 0.60925 0.70313 0.70254
 C535 C 0.62831 0.69428 0.71491
 H536 H 0.60459 0.70165 0.66579
 H537 H 0.63015 0.69424 0.73288
 N538 N 0.68381 0.68486 0.63283
 N539 N 0.70655 0.68256 0.63843
 C540 C 0.72029 0.69076 0.62184
 C541 C 0.70548 0.69881 0.60487
 C542 C 0.68248 0.69405 0.61221
 H543 H 0.73962 0.69136 0.62237
 H544 H 0.66587 0.69764 0.60353
 H545 H 0.68559 0.69019 0.67346
 H546 H 0.68242 0.65883 0.66786
 N547 N 0.71288 0.14424 0.18874
 N548 N 0.69389 0.14359 0.20164
 C549 C 0.69359 0.12332 0.21252
 C550 C 0.71359 0.11048 0.20620
 C551 C 0.72579 0.12475 0.19157
 H552 H 0.67976 0.11829 0.22412
 H553 H 0.74277 0.12135 0.18348
 Cu554 Cu 0.67211 0.16986 0.20370
 Cu555 Cu 0.71761 0.16935 0.16754
 Cu556 Cu 0.66328 0.19620 0.15477
 N557 N 0.64668 0.19261 0.19992
 N558 N 0.64204 0.20135 0.18015
 C559 C 0.62162 0.21380 0.18118
 C560 C 0.61360 0.21407 0.20317
 C561 C 0.63000 0.20006 0.21447
 H562 H 0.61299 0.22131 0.16670
 H563 H 0.62951 0.19505 0.23186
 N564 N 0.69181 0.19771 0.13534
 N565 N 0.71251 0.18773 0.14030
 C566 C 0.72818 0.19175 0.12371
 C567 C 0.71704 0.20556 0.10781
 C568 C 0.69394 0.20879 0.11570
 H569 H 0.74610 0.18450 0.12297
 H570 H 0.67970 0.21851 0.10766
 H571 H 0.69150 0.19462 0.17630
 H572 H 0.68209 0.16669 0.16418
 N573 N 0.20418 0.63360 0.18216
 N574 N 0.19345 0.63865 0.20108
 C575 C 0.19997 0.62295 0.21662
 C576 C 0.21587 0.60744 0.20692
 C577 C 0.21784 0.61461 0.18498
 H578 H 0.19310 0.62237 0.23349
 H579 H 0.22775 0.60610 0.17181
 Cu580 Cu 0.17027 0.66393 0.20314
 Cu581 Cu 0.19863 0.65086 0.15481
 Cu582 Cu 0.16249 0.69912 0.15914
 N583 N 0.14181 0.68354 0.20009
 N584 N 0.13817 0.69605 0.18208
 C585 C 0.11695 0.70704 0.18373
 C586 C 0.10651 0.70124 0.20396
 C587 C 0.12320 0.68663 0.21411
 H588 H 0.10985 0.71872 0.17121
 H589 H 0.12229 0.67925 0.23068
 N590 N 0.18280 0.69313 0.13312
 N591 N 0.19634 0.67448 0.13122
 C592 C 0.20808 0.67530 0.11159
 C593 C 0.20121 0.69523 0.10054
 C594 C 0.18542 0.70628 0.11479
 H595 H 0.22079 0.66245 0.10580
 H596 H 0.17665 0.72275 0.11207
 H597 H 0.19235 0.68058 0.17186
 H598 H 0.16516 0.66470 0.16275
 N599 N 0.19882 0.13567 0.68151
 N600 N 0.18771 0.14036 0.70033
 C601 C 0.19367 0.12415 0.71559
 C602 C 0.20964 0.10880 0.70579
 C603 C 0.21217 0.11645 0.68408
 H604 H 0.18677 0.12338 0.73244
 H605 H 0.22258 0.10837 0.67098
 Cu606 Cu 0.16580 0.16667 0.70250
 Cu607 Cu 0.19440 0.15400 0.65466
 Cu608 Cu 0.16683 0.20700 0.66227
 N609 N 0.14162 0.19117 0.70099
 N610 N 0.14181 0.20652 0.68483
 C611 C 0.12313 0.22110 0.68735
 C612 C 0.11074 0.21494 0.70645
 C613 C 0.12285 0.19562 0.71449
 H614 H 0.11865 0.23486 0.67581
 H615 H 0.11821 0.18549 0.72901
 N616 N 0.18624 0.19961 0.63589
 N617 N 0.19624 0.17918 0.63277
 C618 C 0.20849 0.17940 0.61343
 C619 C 0.20620 0.20107 0.60407
 C620 C 0.19169 0.21336 0.61854
 H621 H 0.21856 0.16498 0.60676
 H622 H 0.18577 0.23105 0.61665
 H623 H 0.19217 0.18260 0.67399
 H624 H 0.16313 0.17270 0.66221
 N625 N 0.30085 0.63089 0.32238
 N626 N 0.31097 0.63540 0.30306
 C627 C 0.30717 0.61795 0.28897
 C628 C 0.29436 0.60136 0.30018
 C629 C 0.29031 0.61022 0.32127
 H630 H 0.31402 0.61695 0.27211
 H631 H 0.28125 0.60188 0.33499
 Cu632 Cu 0.33052 0.66218 0.29876
 Cu633 Cu 0.30428 0.65144 0.34783
 Cu634 Cu 0.32590 0.70558 0.33475
 N635 N 0.35479 0.68559 0.30021
 N636 N 0.35241 0.70330 0.31359
 C637 C 0.37159 0.71685 0.31129
 C638 C 0.38721 0.70658 0.29624
 C639 C 0.37571 0.68699 0.28921
 H640 H 0.37423 0.73266 0.32035
 H641 H 0.38231 0.67443 0.27737
 N642 N 0.30847 0.69893 0.36246
 N643 N 0.30170 0.67805 0.36816
 C644 C 0.29294 0.67864 0.38910
 C645 C 0.29458 0.70089 0.39703
 C646 C 0.30395 0.71339 0.37944
 H647 H 0.28611 0.66393 0.39805
 H648 H 0.30770 0.73158 0.37913
 H649 H 0.30273 0.67836 0.32637
 H650 H 0.33286 0.67159 0.33822
 N651 N 0.30483 0.13078 0.82234
 N652 N 0.31486 0.13517 0.80294
 C653 C 0.30812 0.11919 0.78812
 C654 C 0.29285 0.10417 0.79878
 C655 C 0.29143 0.11183 0.82056
 H656 H 0.31408 0.11831 0.77097
 H657 H 0.28175 0.10399 0.83419
 Cu658 Cu 0.33684 0.16058 0.79939
 Cu659 Cu 0.31072 0.14956 0.84858
 Cu660 Cu 0.33086 0.20397 0.83549
 N661 N 0.35809 0.18680 0.79840
 N662 N 0.35581 0.20365 0.81281
 C663 C 0.37342 0.21880 0.80951
 C664 C 0.38742 0.21126 0.79185
 C665 C 0.37725 0.19072 0.78536
 H666 H 0.37647 0.23360 0.81995
 H667 H 0.38379 0.17918 0.77256
 N668 N 0.31456 0.19675 0.86359
 N669 N 0.30850 0.17569 0.86932
 C670 C 0.29960 0.17602 0.89020
 C671 C 0.30032 0.19838 0.89805
 C672 C 0.30944 0.21110 0.88050
 H673 H 0.29283 0.16116 0.89895
 H674 H 0.31215 0.22947 0.88001
 H675 H 0.30897 0.17614 0.82706
 H676 H 0.33933 0.17022 0.83894
 N677 N 0.80756 0.62871 0.82811
 N678 N 0.82026 0.63233 0.80999
 C679 C 0.81737 0.61480 0.79580
 C680 C 0.80232 0.59911 0.80567
 C681 C 0.79614 0.60856 0.82609
 H682 H 0.82568 0.61343 0.77954
 H683 H 0.78456 0.60119 0.83862
 Cu684 Cu 0.84013 0.65907 0.80689
 Cu685 Cu 0.80836 0.65017 0.85314
 Cu686 Cu 0.82721 0.70491 0.83806
 N687 N 0.86143 0.68498 0.80811
 N688 N 0.85545 0.70384 0.81882
 C689 C 0.87245 0.71968 0.81542
 C690 C 0.89062 0.70975 0.80272
 C691 C 0.88272 0.68781 0.79816
 H692 H 0.87159 0.73703 0.82182
 H693 H 0.89181 0.67482 0.78832
 N694 N 0.80862 0.69854 0.86531
 N695 N 0.80311 0.67757 0.87191
 C696 C 0.79409 0.67860 0.89273
 C697 C 0.79423 0.70127 0.89970
 C698 C 0.80292 0.71348 0.88160
 H699 H 0.78842 0.66387 0.90236
 H700 H 0.80572 0.73182 0.88059
 H701 H 0.80779 0.67525 0.82987
 H702 H 0.83665 0.67187 0.84526
 N703 N 0.80607 0.13044 0.32722
 N704 N 0.81384 0.13515 0.30704
 C705 C 0.80568 0.11936 0.29274
 C706 C 0.79207 0.10372 0.30458
 C707 C 0.79328 0.11101 0.32658
 H708 H 0.80952 0.11915 0.27505
 H709 H 0.78558 0.10283 0.34110
 Cu710 Cu 0.83524 0.16052 0.30174
 Cu711 Cu 0.81218 0.15094 0.35225
 Cu712 Cu 0.82728 0.20593 0.33489
 N713 N 0.85712 0.18610 0.30098
 N714 N 0.85299 0.20472 0.31278
 C715 C 0.87054 0.21984 0.30891
 C716 C 0.88720 0.20968 0.29475
 C717 C 0.87777 0.18841 0.28972
 H718 H 0.87139 0.23669 0.31642
 H719 H 0.88565 0.17536 0.27909
 N720 N 0.81228 0.19947 0.36390
 N721 N 0.80841 0.17840 0.37123
 C722 C 0.80044 0.17950 0.39240
 C723 C 0.79949 0.20235 0.39879
 C724 C 0.80662 0.21454 0.38008
 H725 H 0.79556 0.16476 0.40241
 H726 H 0.80787 0.23301 0.37839
 H727 H 0.80723 0.17603 0.32934
 H728 H 0.83831 0.17315 0.34042
 N729 N 0.69369 0.37291 0.32904
 N730 N 0.67596 0.37318 0.31467
 C731 C 0.67787 0.39168 0.30129
 C732 C 0.69727 0.40440 0.30822
 C733 C 0.70711 0.39168 0.32570
 H734 H 0.66616 0.39534 0.28732
 H735 H 0.72287 0.39578 0.33526
 Cu736 Cu 0.65112 0.35028 0.31541
 Cu737 Cu 0.69796 0.34800 0.35062
 Cu738 Cu 0.65857 0.30264 0.34674
 N739 N 0.63231 0.32308 0.31054
 N740 N 0.63606 0.30396 0.32183
 C741 C 0.62113 0.28777 0.31420
 C742 C 0.60728 0.29729 0.29716
 C743 C 0.61458 0.31994 0.29581
 H744 H 0.62012 0.27049 0.32084
 H745 H 0.60713 0.33342 0.28534
 N746 N 0.68284 0.30483 0.37053
 N747 N 0.69890 0.32124 0.37095
 C748 C 0.71329 0.31789 0.38869
 C749 C 0.70515 0.29923 0.40084
 C750 C 0.68607 0.29111 0.38850
 H751 H 0.72843 0.32850 0.39260
 H752 H 0.67502 0.27658 0.39260
 H753 H 0.68163 0.32433 0.33011
 H754 H 0.66273 0.33748 0.35264
 N755 N 0.70070 0.86326 0.81997
 N756 N 0.68347 0.86302 0.80508
 C757 C 0.68599 0.88091 0.79104
 C758 C 0.70524 0.89375 0.79803
 C759 C 0.71448 0.88172 0.81619
 H760 H 0.67435 0.88459 0.77702
 H761 H 0.72962 0.88650 0.82631
 Cu762 Cu 0.65753 0.84129 0.80673
 Cu763 Cu 0.70283 0.84031 0.84378
 Cu764 Cu 0.66095 0.79686 0.84268
 N765 N 0.63713 0.81480 0.80394
 N766 N 0.63917 0.79689 0.81725
 C767 C 0.62305 0.78108 0.81117
 C768 C 0.61020 0.78955 0.79300
 C769 C 0.61938 0.81126 0.78930
 H770 H 0.62045 0.76486 0.81968
 H771 H 0.61308 0.82395 0.77737
 N772 N 0.68461 0.80001 0.86682
 N773 N 0.70157 0.81556 0.86640
 C774 C 0.71518 0.81304 0.88481
 C775 C 0.70564 0.79585 0.89809
 C776 C 0.68651 0.78773 0.88586
 H777 H 0.73080 0.82316 0.88834
 H778 H 0.67455 0.77414 0.89073
 H779 H 0.68601 0.81554 0.82497
 H780 H 0.66703 0.83188 0.84539
 N781 N 0.21368 0.35254 0.81274
 N782 N 0.19732 0.35346 0.79699
 C783 C 0.20091 0.37215 0.78418
 C784 C 0.22067 0.38363 0.79222
 C785 C 0.22811 0.37078 0.81060
 H786 H 0.18964 0.37731 0.77031
 H787 H 0.24240 0.37477 0.82206
 Cu788 Cu 0.17193 0.33097 0.79533
 Cu789 Cu 0.21449 0.32760 0.83473
 Cu790 Cu 0.15795 0.30612 0.84423
 N791 N 0.14308 0.31302 0.79887
 N792 N 0.13769 0.30341 0.81810
 C793 C 0.11634 0.29316 0.81642
 C794 C 0.10783 0.29674 0.79506
 C795 C 0.12530 0.30924 0.78425
 H796 H 0.10739 0.28429 0.82989
 H797 H 0.12478 0.31555 0.76724
 N798 N 0.18476 0.30179 0.86518
 N799 N 0.20669 0.30883 0.86110
 C800 C 0.22129 0.30114 0.87748
 C801 C 0.20790 0.28834 0.89240
 C802 C 0.18475 0.28961 0.88429
 H803 H 0.24029 0.30436 0.87835
 H804 H 0.16907 0.28189 0.89160
 H805 H 0.18750 0.30499 0.82416
 H806 H 0.17921 0.33394 0.83540
 N807 N 0.20560 0.86527 0.31965
 N808 N 0.18751 0.86679 0.30570
 C809 C 0.19121 0.88424 0.29135
 C810 C 0.21278 0.89440 0.29655
 C811 C 0.22119 0.88207 0.31491
 H812 H 0.17883 0.88953 0.27838
 H813 H 0.23697 0.88564 0.32467
 Cu814 Cu 0.15980 0.84717 0.30834
 Cu815 Cu 0.20683 0.84229 0.34351
 Cu816 Cu 0.16269 0.80130 0.34266
 N817 N 0.13838 0.82140 0.30524
 N818 N 0.14077 0.80271 0.31744
 C819 C 0.12465 0.78721 0.31072
 C820 C 0.11128 0.79671 0.29336
 C821 C 0.12022 0.81873 0.29084
 H822 H 0.12250 0.77043 0.31825
 H823 H 0.11366 0.83216 0.27982
 N824 N 0.18661 0.80300 0.36663
 N825 N 0.20441 0.81765 0.36619
 C826 C 0.21808 0.81422 0.38443
 C827 C 0.20772 0.79739 0.39765
 C828 C 0.18800 0.79045 0.38553
 H829 H 0.23434 0.82341 0.38783
 H830 H 0.17533 0.77745 0.39033
 H831 H 0.18778 0.81958 0.32437
 H832 H 0.17064 0.83607 0.34619
 C833 C 0.25498 1.02414 0.23974
 C834 C 0.24241 1.02327 0.26014
 C835 C 0.23691 1.00193 0.26966
 C836 C 0.24443 0.98135 0.25952
 C837 C 0.25728 0.98230 0.23911
 C838 C 0.26205 1.00371 0.22932
 H839 H 0.27170 1.00446 0.21363
 H840 H 0.22705 1.00136 0.28524
 C841 C 0.25842 0.51697 0.74111
 C842 C 0.24546 0.51557 0.76134
 C843 C 0.24031 0.49383 0.77034
 C844 C 0.24902 0.47364 0.76032
 C845 C 0.26256 0.47522 0.74039
 C846 C 0.26662 0.49683 0.73079
 H847 H 0.27674 0.49801 0.71538
 H848 H 0.22982 0.49266 0.78553
 C849 C 0.75061 -0.02086 0.26553
 C850 C 0.73903 -0.01945 0.24448
 C851 C 0.73382 0.00219 0.23517
 C852 C 0.74123 0.02245 0.24554
 C853 C 0.75331 0.02097 0.26623
 C854 C 0.75777 -0.00058 0.27603
 H855 H 0.76716 -0.00159 0.29185
 H856 H 0.72435 0.00327 0.21939
 C857 C 0.76029 0.47854 0.75625
 C858 C 0.74488 0.48213 0.73787
 C859 C 0.74047 0.50469 0.73023
 C860 C 0.75066 0.52363 0.74093
 C861 C 0.76528 0.51991 0.75995
 C862 C 0.76971 0.49742 0.76744
 H863 H 0.78107 0.49454 0.78189
 H864 H 0.72898 0.50751 0.71587
 C865 C 0.26095 0.47524 0.25797
 C866 C 0.24669 0.47701 0.23843
 C867 C 0.23971 0.49885 0.23048
 C868 C 0.24736 0.51888 0.24107
 C869 C 0.26189 0.51713 0.26027
 C870 C 0.26797 0.49538 0.26885
 H871 H 0.27879 0.49412 0.28383
 H872 H 0.22864 0.50029 0.21566
 C873 C 0.76154 1.01790 0.74036
 C874 C 0.74680 1.01823 0.75949
 C875 C 0.73828 0.99746 0.76811
 C876 C 0.74433 0.97634 0.75822
 C877 C 0.76032 0.97599 0.73995
 C878 C 0.76845 0.99681 0.73098
 H879 H 0.78028 0.99659 0.71662
 H880 H 0.72651 0.99776 0.78251
 C881 C 0.76372 0.52041 0.24379
 C882 C 0.74457 0.52416 0.25897
 C883 C 0.73383 0.50516 0.26925
 C884 C 0.74063 0.48253 0.26383
 C885 C 0.75974 0.47888 0.24877
 C886 C 0.77138 0.49781 0.23942
 H887 H 0.78616 0.49487 0.22800
 H888 H 0.71964 0.50802 0.28132
 C889 C 0.25695 -0.02162 0.75893
 C890 C 0.24346 -0.02048 0.73891
 C891 C 0.23661 0.00105 0.73022
 C892 C 0.24359 0.02139 0.74068
 C893 C 0.25755 0.02021 0.76034
 C894 C 0.26421 -0.00128 0.76917
 H895 H 0.27475 -0.00216 0.78435
 H896 H 0.22599 0.00200 0.71510
 C897 C 0.23808 0.25363 1.01784
 C898 C 0.25593 0.23624 1.01928
 C899 C 0.26485 0.22614 0.99975
 C900 C 0.25660 0.23334 0.97878
 C901 C 0.23839 0.25030 0.97729
 C902 C 0.22905 0.26005 0.99681
 H903 H 0.21532 0.27336 0.99560
 H904 H 0.27914 0.21336 1.00083
 C905 C 0.24026 0.75442 0.52097
 C906 C 0.25645 0.73555 0.52116
 C907 C 0.26429 0.72606 0.50093
 C908 C 0.25685 0.73548 0.48046
 C909 C 0.24079 0.75442 0.48012
 C910 C 0.23208 0.76318 0.50040
 H911 H 0.21961 0.77764 0.50018
 H912 H 0.27721 0.71196 0.50112
 C913 C 0.25695 0.75729 -0.01861
 C914 C 0.24586 0.73552 -0.02038
 C915 C 0.23807 0.72440 -0.00094
 C916 C 0.24101 0.73438 0.02008
 C917 C 0.25356 0.75520 0.02195
 C918 C 0.26152 0.76636 0.00260
 H919 H 0.27069 0.78260 0.00404
 H920 H 0.22882 0.70819 -0.00222
 C921 C 0.25381 0.25655 0.47898
 C922 C 0.23819 0.23771 0.47911
 C923 C 0.23189 0.22741 0.49940
 C924 C 0.24036 0.23597 0.51966
 C925 C 0.25507 0.25562 0.51962
 C926 C 0.26220 0.26526 0.49925
 H927 H 0.27382 0.28004 0.49918
 H928 H 0.21991 0.21290 0.49944
 C929 C 0.73835 0.75635 1.02242
 C930 C 0.75399 0.73706 1.02312
 C931 C 0.76248 0.72752 1.00313
 C932 C 0.75583 0.73704 0.98244
 C933 C 0.73991 0.75612 0.98164
 C934 C 0.73091 0.76517 1.00168
 H935 H 0.71861 0.77975 1.00116
 H936 H 0.77487 0.71301 1.00369
 C937 C 0.74307 0.25534 0.52220
 C938 C 0.75858 0.23596 0.52194
 C939 C 0.76669 0.22716 0.50151
 C940 C 0.75974 0.23743 0.48127
 C941 C 0.74368 0.25641 0.48133
 C942 C 0.73507 0.26471 0.50184
 H943 H 0.72262 0.27918 0.50199
 H944 H 0.77909 0.21265 0.50140
 C945 C 0.75142 0.26184 -0.02053
 C946 C 0.74522 0.23828 -0.01956
 C947 C 0.74219 0.22766 0.00127
 C948 C 0.74576 0.23975 0.02119
 C949 C 0.75194 0.26338 0.02016
 C950 C 0.75495 0.27395 -0.00070
 H951 H 0.76007 0.29186 -0.00152
 H952 H 0.73707 0.20975 0.00199
 C953 C 0.75433 0.75525 0.47985
 C954 C 0.73793 0.73701 0.47971
 C955 C 0.73019 0.72757 0.50003
 C956 C 0.73796 0.73649 0.52043
 C957 C 0.75432 0.75481 0.52052
 C958 C 0.76259 0.76377 0.50025
 H959 H 0.77491 0.77801 0.50035
 H960 H 0.71741 0.71370 0.49997
 C961 C 1.01779 0.24593 0.25543
 C962 C 1.01720 0.26294 0.23848
 C963 C 0.99513 0.27028 0.22967
 C964 C 0.97365 0.26158 0.23809
 C965 C 0.97417 0.24593 0.25616
 C966 C 0.99626 0.23794 0.26433
 H967 H 0.99669 0.22525 0.27766
 H968 H 0.99467 0.28272 0.21614
 C969 C 0.52365 0.24228 0.76508
 C970 C 0.52502 0.25755 0.74670
 C971 C 0.50395 0.26447 0.73573
 C972 C 0.48156 0.25706 0.74320
 C973 C 0.48008 0.24386 0.76313
 C974 C 0.50122 0.23616 0.77349
 H975 H 0.50024 0.22480 0.78786
 H976 H 0.50502 0.27538 0.72104
 C977 C -0.02432 0.25927 0.76124
 C978 C -0.02405 0.24710 0.74078
 C979 C -0.00207 0.24145 0.73075
 C980 C 0.01955 0.24900 0.73987
 C981 C 0.01907 0.26262 0.75940
 C982 C -0.00279 0.26715 0.77011
 H983 H -0.00304 0.27705 0.78540
 H984 H -0.00179 0.23137 0.71557
 C985 C 0.47816 0.25604 0.25962
 C986 C 0.47889 0.24142 0.24081
 C987 C 0.50092 0.23647 0.23054
 C988 C 0.52222 0.24543 0.23891
 C989 C 0.52147 0.26013 0.25766
 C990 C 0.49944 0.26533 0.26776
 H991 H 0.49886 0.27664 0.28209
 H992 H 0.50154 0.22528 0.21613
 C993 C 1.02146 0.74424 0.76480
 C994 C 1.02190 0.76052 0.74720
 C995 C 1.00029 0.76830 0.73772
 C996 C 0.97831 0.76067 0.74598
 C997 C 0.97787 0.74596 0.76478
 C998 C 0.99944 0.73772 0.77383
 H999 H 0.99907 0.72554 0.78759
 H1000 H 1.00059 0.78006 0.72363
 C1001 C 0.51771 0.74806 0.25805
 C1002 C 0.51491 0.76609 0.24231
 C1003 C 0.49190 0.77316 0.23573
 C1004 C 0.47156 0.76301 0.24504
 C1005 C 0.47439 0.74484 0.26074
 C1006 C 0.49748 0.73723 0.26661
 H1007 H 0.49969 0.72327 0.27853
 H1008 H 0.48982 0.78691 0.22357
 C1009 C -0.02099 0.76234 0.26041
 C1010 C -0.02234 0.74815 0.24128
 C1011 C -0.00112 0.73955 0.23173
 C1012 C 0.02129 0.74572 0.24011
 C1013 C 0.02256 0.76181 0.25764
 C1014 C 0.00143 0.76964 0.26786
 H1015 H 0.00248 0.78126 0.28192
 H1016 H -0.00202 0.72764 0.21790
 C1017 C 0.47757 0.75510 0.75952
 C1018 C 0.47676 0.74016 0.74102
 C1019 C 0.49821 0.73217 0.73145
 C1020 C 0.52038 0.73968 0.73925
 C1021 C 0.52114 0.75532 0.75729
 C1022 C 0.49972 0.76255 0.76746
 H1023 H 0.50027 0.77434 0.78140
 H1024 H 0.49762 0.72031 0.71756
 C1025 C 0.41825 0.25242 0.29062
 C1026 C 0.40966 0.27529 0.28734
 C1027 C 0.42389 0.29105 0.27580
 C1028 C 0.44631 0.28466 0.26765
 C1029 C 0.45521 0.26226 0.27067
 C1030 C 0.44144 0.24604 0.28262
 C1031 C 0.40412 0.23554 0.30106
 C1032 C 0.41302 0.21325 0.30437
 C1033 C 0.43606 0.20734 0.29741
 C1034 C 0.45023 0.22355 0.28670
 H1035 H 0.38602 0.23921 0.30646
 H1036 H 0.40199 0.20050 0.31243
 H1037 H 0.44293 0.19008 0.30021
 H1038 H 0.46807 0.21835 0.28165
 H1039 H 0.41765 0.30858 0.27318
 H1040 H 0.45665 0.29718 0.25847
 C1041 C 0.42153 0.75805 0.79612
 C1042 C 0.41106 0.77930 0.78853
 C1043 C 0.42239 0.79087 0.77075
 C1044 C 0.44387 0.78285 0.76174
 C1045 C 0.45538 0.76341 0.77053
 C1046 C 0.44467 0.75121 0.78829
 C1047 C 0.40908 0.74239 0.80987
 C1048 C 0.42039 0.72271 0.81841
 C1049 C 0.44406 0.71772 0.81286
 C1050 C 0.45607 0.73162 0.79768
 H1051 H 0.39020 0.74438 0.81323
 H1052 H 0.41064 0.71113 0.82917
 H1053 H 0.45280 0.70249 0.81961
 H1054 H 0.47403 0.72651 0.79282
 H1055 H 0.41521 0.80679 0.76399
 H1056 H 0.45183 0.79213 0.74794
 C1057 C -0.08645 0.25370 0.78762
 C1058 C -0.09343 0.27727 0.78820
 C1059 C -0.07699 0.29405 0.78180
 C1060 C -0.05417 0.28793 0.77448
 C1061 C -0.04709 0.26480 0.77307
 C1062 C -0.06280 0.24754 0.78075
 C1063 C -0.10259 0.23602 0.79297
 C1064 C -0.09517 0.21302 0.79284
 C1065 C -0.07165 0.20717 0.78744
 C1066 C -0.05553 0.22422 0.78151
 H1067 H -0.12110 0.23967 0.79698
 H1068 H -0.10773 0.19967 0.79704
 H1069 H -0.06593 0.18931 0.78762
 H1070 H -0.03741 0.21901 0.77733
 H1071 H -0.08194 0.31212 0.78230
 H1072 H -0.04228 0.30133 0.76883
 C1073 C -0.08034 0.76197 0.29274
 C1074 C -0.08594 0.78586 0.29245
 C1075 C -0.06984 0.80117 0.28264
 C1076 C -0.04855 0.79331 0.27315
 C1077 C -0.04276 0.76982 0.27287
 C1078 C -0.05823 0.75401 0.28346
 C1079 C -0.09641 0.74569 0.30146
 C1080 C -0.09029 0.72236 0.30216
 C1081 C -0.06814 0.71480 0.29426
 C1082 C -0.05217 0.73042 0.28507
 H1083 H -0.11393 0.75067 0.30753
 H1084 H -0.10277 0.71010 0.30896
 H1085 H -0.06337 0.69671 0.29510
 H1086 H -0.03509 0.72385 0.27919
 H1087 H -0.07376 0.81946 0.28234
 H1088 H -0.03678 0.80562 0.26533
 C1089 C 0.57872 0.74868 0.28681
 C1090 C 0.58834 0.72701 0.27999
 C1091 C 0.57475 0.71349 0.26542
 C1092 C 0.55208 0.72064 0.25830
 C1093 C 0.54164 0.74087 0.26649
 C1094 C 0.55444 0.75436 0.28185
 C1095 C 0.59254 0.76516 0.29802
 C1096 C 0.58178 0.78468 0.30732
 C1097 C 0.55722 0.78830 0.30529
 C1098 C 0.54362 0.77344 0.29244
 H1099 H 0.61177 0.76353 0.29918
 H1100 H 0.59253 0.79694 0.31624
 H1101 H 0.54882 0.80316 0.31298
 H1102 H 0.52468 0.77712 0.29061
 H1103 H 0.58142 0.69700 0.25969
 H1104 H 0.54237 0.71005 0.24667
 C1105 C 0.57231 0.19657 0.77579
 C1106 C 0.58595 0.20771 0.79255
 C1107 C 0.57760 0.22891 0.80084
 C1108 C 0.55712 0.23952 0.79224
 C1109 C 0.54516 0.23018 0.77402
 C1110 C 0.55251 0.20844 0.76574
 C1111 C 0.57703 0.17359 0.76939
 C1112 C 0.56419 0.16343 0.75219
 C1113 C 0.54604 0.17568 0.74134
 C1114 C 0.54002 0.19788 0.74814
 H1115 H 0.58994 0.16289 0.77808
 H1116 H 0.56819 0.14587 0.74741
 H1117 H 0.53616 0.16771 0.72798
 H1118 H 0.52529 0.20654 0.73971
 H1119 H 0.58710 0.23761 0.81400
 H1120 H 0.55075 0.25530 0.79979
 C1121 C 1.06720 0.69650 0.77820
 C1122 C 1.08335 0.70872 0.79200
 C1123 C 1.07836 0.73191 0.79675
 C1124 C 1.05837 0.74310 0.78787
 C1125 C 1.04335 0.73203 0.77285
 C1126 C 1.04776 0.70856 0.76775
 C1127 C 1.06912 0.67246 0.77522
 C1128 C 1.05377 0.66103 0.76082
 C1129 C 1.03595 0.67315 0.74939
 C1130 C 1.03278 0.69666 0.75289
 H1131 H 1.08184 0.66205 0.78447
 H1132 H 1.05562 0.64263 0.75861
 H1133 H 1.02418 0.66421 0.73812
 H1134 H 1.01840 0.70535 0.74399
 H1135 H 1.09002 0.74161 0.80749
 H1136 H 1.05449 0.76047 0.79313
 C1137 C 1.06739 0.20182 0.26868
 C1138 C 1.08243 0.21529 0.28251
 C1139 C 1.07529 0.23794 0.28744
 C1140 C 1.05432 0.24742 0.27876
 C1141 C 1.04049 0.23530 0.26354
 C1142 C 1.04701 0.21233 0.25824
 C1143 C 1.07126 0.17796 0.26572
 C1144 C 1.05705 0.16543 0.25117
 C1145 C 1.03841 0.17620 0.23963
 C1146 C 1.03322 0.19938 0.24323
 H1147 H 1.08454 0.16847 0.27516
 H1148 H 1.06042 0.14720 0.24896
 H1149 H 1.02754 0.16641 0.22824
 H1150 H 1.01820 0.20698 0.23432
 H1151 H 1.08594 0.24857 0.29827
 H1152 H 1.04876 0.26429 0.28428
 C1153 C 0.58541 0.28777 0.74348
 C1154 C 0.59244 0.28210 0.72132
 C1155 C 0.57783 0.26746 0.70885
 C1156 C 0.55637 0.25934 0.71748
 C1157 C 0.54826 0.26632 0.73849
 C1158 C 0.56232 0.28145 0.75127
 C1159 C 0.60076 0.29927 0.75831
 C1160 C 0.59244 0.30707 0.77892
 C1161 C 0.56883 0.30338 0.78523
 C1162 C 0.55385 0.29063 0.77160
 H1163 H 0.61941 0.30184 0.75444
 H1164 H 0.60432 0.31615 0.78997
 H1165 H 0.56229 0.30989 0.80103
 H1166 H 0.53576 0.28767 0.77728
 H1167 H 0.58263 0.26269 0.69198
 H1168 H 0.54568 0.24794 0.70744
 C1169 C 0.56819 0.80554 0.23387
 C1170 C 0.57922 0.79511 0.21489
 C1171 C 0.56880 0.77527 0.20597
 C1172 C 0.54801 0.76619 0.21503
 C1173 C 0.53594 0.77745 0.23230
 C1174 C 0.54524 0.79803 0.24098
 C1175 C 0.57955 0.82254 0.24666
 C1176 C 0.56712 0.83447 0.26326
 C1177 C 0.54340 0.82926 0.26788
 C1178 C 0.53259 0.81093 0.25713
 H1179 H 0.59833 0.82614 0.24472
 H1180 H 0.57597 0.84774 0.27265
 H1181 H 0.53372 0.83873 0.28060
 H1182 H 0.51456 0.80656 0.26198
 H1183 H 0.57659 0.76660 0.19174
 H1184 H 0.54103 0.75040 0.20825
 C1185 C 1.07455 0.29768 0.23364
 C1186 C 1.08311 0.29007 0.21247
 C1187 C 1.07003 0.27334 0.20101
 C1188 C 1.04888 0.26464 0.20973
 C1189 C 1.03942 0.27316 0.22965
 C1190 C 1.05162 0.29060 0.24122
 C1191 C 1.08833 0.31151 0.24790
 C1192 C 1.07852 0.32069 0.26739
 C1193 C 1.05501 0.31594 0.27330
 C1194 C 1.04164 0.30090 0.26044
 H1195 H 1.10698 0.31473 0.24468
 H1196 H 1.08923 0.33151 0.27799
 H1197 H 1.04737 0.32332 0.28829
 H1198 H 1.02374 0.29687 0.26602
 H1199 H 1.07593 0.26704 0.18493
 H1200 H 1.03957 0.25140 0.20066
 C1201 C 1.08023 0.79364 0.74135
 C1202 C 1.08796 0.78598 0.71994
 C1203 C 1.07447 0.76924 0.70895
 C1204 C 1.05345 0.76084 0.71823
 C1205 C 1.04464 0.76960 0.73833
 C1206 C 1.05750 0.78679 0.74962
 C1207 C 1.09460 0.80749 0.75508
 C1208 C 1.08557 0.81679 0.77483
 C1209 C 1.06226 0.81220 0.78148
 C1210 C 1.04831 0.79724 0.76910
 H1211 H 1.11312 0.81069 0.75115
 H1212 H 1.09671 0.82763 0.78500
 H1213 H 1.05521 0.81971 0.79666
 H1214 H 1.03055 0.79343 0.77522
 H1215 H 1.07982 0.76289 0.69272
 H1216 H 1.04360 0.74781 0.70937
 C1217 C 0.42580 0.73003 0.69949
 C1218 C 0.41082 0.71570 0.71265
 C1219 C 0.41825 0.70956 0.73427
 C1220 C 0.43960 0.71747 0.74303
 C1221 C 0.45374 0.73285 0.73107
 C1222 C 0.44671 0.73961 0.70926
 C1223 C 0.42126 0.73442 0.67665
 C1224 C 0.43541 0.74958 0.66449
 C1225 C 0.45455 0.76041 0.67465
 C1226 C 0.46029 0.75543 0.69679
 H1227 H 0.40739 0.72570 0.66767
 H1228 H 0.43153 0.75289 0.64706
 H1229 H 0.46529 0.77237 0.66521
 H1230 H 0.47544 0.76403 0.70402
 H1231 H 0.40747 0.69841 0.74459
 H1232 H 0.44518 0.71134 0.75928
 C1233 C 0.43137 0.19890 0.22118
 C1234 C 0.41337 0.21469 0.21373
 C1235 C 0.41791 0.23831 0.21432
 C1236 C 0.43931 0.24651 0.22276
 C1237 C 0.45672 0.23143 0.23144
 C1238 C 0.45284 0.20738 0.23081
 C1239 C 0.42894 0.17488 0.21876
 C1240 C 0.44621 0.15965 0.22720
 C1241 C 0.46635 0.16795 0.23794
 C1242 C 0.46978 0.19155 0.23967
 H1243 H 0.41409 0.16756 0.20990
 H1244 H 0.44395 0.14130 0.22538
 H1245 H 0.47957 0.15603 0.24468
 H1246 H 0.48579 0.19718 0.24802
 H1247 H 0.40458 0.25065 0.20851
 H1248 H 0.44219 0.26489 0.22279
 C1249 C -0.08650 0.74938 0.21820
 C1250 C -0.09106 0.72539 0.21761
 C1251 C -0.07296 0.70988 0.22434
 C1252 C -0.05080 0.71756 0.23145
 C1253 C -0.04568 0.74104 0.23170
 C1254 C -0.06321 0.75710 0.22406
 C1255 C -0.10458 0.76600 0.21378
 C1256 C -0.09932 0.78936 0.21309
 C1257 C -0.07605 0.79665 0.21676
 C1258 C -0.05809 0.78071 0.22212
 H1259 H -0.12300 0.76128 0.21134
 H1260 H -0.11335 0.80187 0.20956
 H1261 H -0.07197 0.81476 0.21582
 H1262 H -0.04024 0.78704 0.22497
 H1263 H -0.07589 0.69152 0.22401
 H1264 H -0.03759 0.70504 0.23713
 C1265 C -0.08813 0.24767 0.71838
 C1266 C -0.09215 0.22363 0.71709
 C1267 C -0.07332 0.20825 0.72211
 C1268 C -0.05100 0.21616 0.72857
 C1269 C -0.04664 0.23973 0.73000
 C1270 C -0.06483 0.25567 0.72362
 C1271 C -0.10680 0.26403 0.71536
 C1272 C -0.10216 0.28754 0.71554
 C1273 C -0.07895 0.29522 0.71872
 C1274 C -0.06039 0.27948 0.72270
 H1275 H -0.12519 0.25898 0.71335
 H1276 H -0.11665 0.29985 0.71311
 H1277 H -0.07539 0.31346 0.71852
 H1278 H -0.04261 0.28608 0.72539
 H1279 H -0.07589 0.18986 0.72110
 H1280 H -0.03723 0.20375 0.73326
 C1281 C 0.29947 0.42452 0.27955
 C1282 C 0.28118 0.40878 0.28517
 C1283 C 0.25716 0.41565 0.28298
 C1284 C 0.25101 0.43728 0.27452
 C1285 C 0.26866 0.45257 0.26745
 C1286 C 0.29318 0.44614 0.26977
 C1287 C 0.32389 0.41952 0.28380
 C1288 C 0.34170 0.43450 0.27686
 C1289 C 0.33561 0.45475 0.26571
 C1290 C 0.31164 0.46057 0.26220
 H1291 H 0.32953 0.40432 0.29290
 H1292 H 0.36033 0.43031 0.28006
 H1293 H 0.34950 0.46613 0.25995
 H1294 H 0.30777 0.47626 0.25323
 H1295 H 0.24298 0.40398 0.28747
 H1296 H 0.23225 0.44200 0.27312
 C1297 C 0.25312 -0.08109 0.78653
 C1298 C 0.27774 -0.08798 0.78574
 C1299 C 0.29433 -0.07295 0.77605
 C1300 C 0.28741 -0.05121 0.76856
 C1301 C 0.26350 -0.04396 0.76954
 C1302 C 0.24620 -0.05862 0.77904
 C1303 C 0.23488 -0.09640 0.79296
 C1304 C 0.21102 -0.08912 0.79407
 C1305 C 0.20469 -0.06662 0.78848
 C1306 C 0.22204 -0.05148 0.78094
 H1307 H 0.23857 -0.11433 0.79642
 H1308 H 0.19735 -0.10105 0.79918
 H1309 H 0.18617 -0.06101 0.78954
 H1310 H 0.21633 -0.03423 0.77638
 H1311 H 0.31317 -0.07752 0.77513
 H1312 H 0.30081 -0.04008 0.76138
 C1313 C 0.79903 0.42578 0.77033
 C1314 C 0.78212 0.41223 0.78234
 C1315 C 0.75890 0.42134 0.78571
 C1316 C 0.75190 0.44243 0.77660
 C1317 C 0.76780 0.45525 0.76379
 C1318 C 0.79137 0.44686 0.76018
 C1319 C 0.82375 0.42011 0.76961
 C1320 C 0.83967 0.43314 0.75703
 C1321 C 0.83156 0.45243 0.74539
 C1322 C 0.80771 0.45943 0.74707
 H1323 H 0.83142 0.40633 0.77949
 H1324 H 0.85845 0.42835 0.75651
 H1325 H 0.84393 0.46239 0.73550
 H1326 H 0.80221 0.47482 0.73813
 H1327 H 0.74559 0.41176 0.79486
 H1328 H 0.73391 0.44889 0.77963
 C1329 C 0.74747 -0.08290 0.28745
 C1330 C 0.77246 -0.08808 0.28956
 C1331 C 0.78891 -0.07069 0.28451
 C1332 C 0.78135 -0.04880 0.27814
 C1333 C 0.75704 -0.04333 0.27608
 C1334 C 0.73986 -0.06006 0.28175
 C1335 C 0.72982 -0.10004 0.28906
 C1336 C 0.70553 -0.09437 0.28771
 C1337 C 0.69823 -0.07165 0.28440
 C1338 C 0.71518 -0.05461 0.28136
 H1339 H 0.73443 -0.11805 0.29045
 H1340 H 0.69228 -0.10770 0.28915
 H1341 H 0.67934 -0.06732 0.28361
 H1342 H 0.70886 -0.03719 0.27834
 H1343 H 0.80801 -0.07366 0.28605
 H1344 H 0.79473 -0.03617 0.27393
 C1345 C 0.25757 0.57165 0.70508
 C1346 C 0.27911 0.58194 0.71251
 C1347 C 0.29228 0.57109 0.72965
 C1348 C 0.28503 0.55036 0.73891
 C1349 C 0.26477 0.53932 0.73091
 C1350 C 0.25111 0.54961 0.71354
 C1351 C 0.24179 0.58292 0.69007
 C1352 C 0.22147 0.57198 0.68211
 C1353 C 0.21621 0.54979 0.68917
 C1354 C 0.23076 0.53868 0.70485
 H1355 H 0.24443 0.60048 0.68485
 H1356 H 0.20966 0.58082 0.67049
 H1357 H 0.20046 0.54136 0.68287
 H1358 H 0.22565 0.52173 0.71047
 H1359 H 0.30871 0.57845 0.73575
 H1360 H 0.29564 0.54255 0.75213
 C1361 C 0.25200 1.08294 0.21064
 C1362 C 0.27619 1.08964 0.21310
 C1363 C 0.29250 1.07475 0.22378
 C1364 C 0.28540 1.05339 0.23167
 C1365 C 0.26169 1.04636 0.22943
 C1366 C 0.24482 1.06093 0.21855
 C1367 C 0.23461 1.09779 0.20103
 C1368 C 0.21100 1.09078 0.19850
 C1369 C 0.20424 1.06894 0.20546
 C1370 C 0.22095 1.05408 0.21536
 H1371 H 0.23894 1.11501 0.19566
 H1372 H 0.19787 1.10234 0.19108
 H1373 H 0.18593 1.06355 0.20332
 H1374 H 0.21502 1.03725 0.22056
 H1375 H 0.31104 1.07957 0.22574
 H1376 H 0.29845 1.04233 0.23992
 C1377 C 0.79062 0.55977 0.19878
 C1378 C 0.79822 0.57829 0.21233
 C1379 C 0.79662 0.57609 0.23561
 C1380 C 0.78640 0.55684 0.24541
 C1381 C 0.77618 0.53967 0.23232
 C1382 C 0.77811 0.54113 0.20868
 C1383 C 0.79535 0.55915 0.17562
 C1384 C 0.78564 0.54214 0.16221
 C1385 C 0.77123 0.52536 0.17157
 C1386 C 0.76748 0.52475 0.19455
 H1387 H 0.80701 0.57141 0.16772
 H1388 H 0.78917 0.54209 0.14444
 H1389 H 0.76323 0.51252 0.16101
 H1390 H 0.75606 0.51142 0.20098
 H1391 H 0.80260 0.58969 0.24644
 H1392 H 0.78561 0.55579 0.26345
 C1393 C 0.76446 1.07179 0.70365
 C1394 C 0.78582 1.08168 0.71198
 C1395 C 0.79802 1.07066 0.72960
 C1396 C 0.78994 1.05004 0.73854
 C1397 C 0.76974 1.03946 0.72980
 C1398 C 0.75705 1.05001 0.71196
 C1399 C 0.74968 1.08332 0.68793
 C1400 C 0.72938 1.07288 0.67931
 C1401 C 0.72311 1.05097 0.68640
 C1402 C 0.73666 1.03963 0.70268
 H1403 H 0.75309 1.10072 0.68260
 H1404 H 0.71836 1.08191 0.66717
 H1405 H 0.70736 1.04293 0.67961
 H1406 H 0.73076 1.02290 0.70824
 H1407 H 0.81421 1.07792 0.73637
 H1408 H 0.79965 1.04213 0.75229
 C1409 C 0.72381 0.58750 0.25665
 C1410 C 0.72383 0.59276 0.27984
 C1411 C 0.73090 0.57553 0.29506
 C1412 C 0.73737 0.55362 0.28791
 C1413 C 0.73608 0.54766 0.26536
 C1414 C 0.72815 0.56440 0.24963
 C1415 C 0.72023 0.60461 0.24014
 C1416 C 0.71826 0.59876 0.21767
 C1417 C 0.71979 0.57584 0.21121
 C1418 C 0.72458 0.55875 0.22702
 H1419 H 0.71960 0.62266 0.24427
 H1420 H 0.71536 0.61207 0.20523
 H1421 H 0.71774 0.57133 0.19381
 H1422 H 0.72581 0.54113 0.22138
 H1423 H 0.73115 0.57880 0.31282
 H1424 H 0.74339 0.54109 0.30021
 C1425 C 0.73652 1.06512 0.80342
 C1426 C 0.72193 1.08103 0.79097
 C1427 C 0.71497 1.07476 0.76926
 C1428 C 0.72321 1.05454 0.75948
 C1429 C 0.73944 1.04003 0.77054
 C1430 C 0.74644 1.04532 0.79260
 C1431 C 0.74010 1.06717 0.82670
 C1432 C 0.75561 1.05229 0.83814
 C1433 C 0.76734 1.03459 0.82688
 C1434 C 0.76263 1.03088 0.80438
 H1435 H 0.73011 1.07941 0.83661
 H1436 H 0.75834 1.05436 0.85590
 H1437 H 0.77953 1.02320 0.83580
 H1438 H 0.77152 1.01645 0.79640
 H1439 H 0.70356 1.08581 0.75918
 H1440 H 0.71682 1.05023 0.74302
 C1441 C 0.23350 0.56140 0.80620
 C1442 C 0.21821 0.57674 0.79404
 C1443 C 0.21142 0.57076 0.77231
 C1444 C 0.21998 0.55076 0.76237
 C1445 C 0.23675 0.53654 0.77316
 C1446 C 0.24385 0.54189 0.79524
 C1447 C 0.23821 0.56442 0.82915
 C1448 C 0.25455 0.55016 0.84034
 C1449 C 0.26625 0.53244 0.82906
 C1450 C 0.26092 0.52818 0.80676
 H1451 H 0.22884 0.57723 0.83890
 H1452 H 0.25812 0.55287 0.85788
 H1453 H 0.27917 0.52164 0.83776
 H1454 H 0.27022 0.51405 0.79872
 H1455 H 0.19953 0.58176 0.76264
 H1456 H 0.21348 0.54644 0.74596
 C1457 C 0.24407 1.08057 0.29108
 C1458 C 0.21985 1.08775 0.28846
 C1459 C 0.20373 1.07330 0.27768
 C1460 C 0.21113 1.05200 0.26955
 C1461 C 0.23496 1.04466 0.27167
 C1462 C 0.25156 1.05865 0.28293
 C1463 C 0.26124 1.09491 0.30098
 C1464 C 0.28492 1.08745 0.30355
 C1465 C 0.29198 1.06569 0.29630
 C1466 C 0.27551 1.05135 0.28610
 H1467 H 0.25668 1.11207 0.30655
 H1468 H 0.29786 1.09862 0.31121
 H1469 H 0.31035 1.05995 0.29846
 H1470 H 0.28170 1.03458 0.28063
 H1471 H 0.18515 1.07850 0.27565
 H1472 H 0.19830 1.04139 0.26099
 C1473 C 0.69790 0.44075 0.71513
 C1474 C 0.71319 0.42361 0.70568
 C1475 C 0.73798 0.42708 0.70558
 C1476 C 0.74780 0.44635 0.71555
 C1477 C 0.73325 0.46254 0.72651
 C1478 C 0.70806 0.45981 0.72643
 C1479 C 0.67273 0.43975 0.71319
 C1480 C 0.65798 0.45590 0.72371
 C1481 C 0.66792 0.47350 0.73612
 C1482 C 0.69269 0.47557 0.73746
 H1483 H 0.66415 0.42690 0.70314
 H1484 H 0.63873 0.45474 0.72223
 H1485 H 0.65637 0.48583 0.74448
 H1486 H 0.69958 0.48961 0.74719
 H1487 H 0.75000 0.41447 0.69821
 H1488 H 0.76703 0.44842 0.71511
 C1489 C 0.73925 -0.07890 0.21693
 C1490 C 0.71432 -0.08128 0.21286
 C1491 C 0.69867 -0.06318 0.21867
 C1492 C 0.70711 -0.04319 0.22832
 C1493 C 0.73158 -0.04025 0.23204
 C1494 C 0.74798 -0.05763 0.22514
 C1495 C 0.75573 -0.09722 0.21374
 C1496 C 0.78027 -0.09392 0.21624
 C1497 C 0.78885 -0.07240 0.22196
 C1498 C 0.77290 -0.05434 0.22633
 H1499 H 0.74995 -0.11437 0.20988
 H1500 H 0.79268 -0.10809 0.21358
 H1501 H 0.80793 -0.06980 0.22346
 H1502 H 0.78019 -0.03790 0.23097
 H1503 H 0.67963 -0.06440 0.21568
 H1504 H 0.69433 -0.02999 0.23330
 C1505 C 0.24489 0.41819 0.20978
 C1506 C 0.21969 0.41524 0.20834
 C1507 C 0.20444 0.43270 0.21641
 C1508 C 0.21352 0.45266 0.22561
 C1509 C 0.23819 0.45630 0.22645
 C1510 C 0.25405 0.43949 0.21749
 C1511 C 0.26133 0.40036 0.20447
 C1512 C 0.28592 0.40420 0.20452
 C1513 C 0.29463 0.42579 0.20983
 C1514 C 0.27887 0.44334 0.21619
 H1515 H 0.25552 0.38315 0.20085
 H1516 H 0.29827 0.39040 0.20027
 H1517 H 0.31369 0.42883 0.20943
 H1518 H 0.28625 0.45989 0.22029
 H1519 H 0.18519 0.43099 0.21553
 H1520 H 0.20115 0.46537 0.23233
 C1521 C 0.24373 -0.08003 0.71174
 C1522 C 0.21867 -0.08388 0.71043
 C1523 C 0.20278 -0.06664 0.71787
 C1524 C 0.21112 -0.04604 0.72638
 C1525 C 0.23564 -0.04165 0.72728
 C1526 C 0.25209 -0.05819 0.71882
 C1527 C 0.26081 -0.09745 0.70691
 C1528 C 0.28522 -0.09273 0.70670
 C1529 C 0.29311 -0.07070 0.71137
 C1530 C 0.27674 -0.05352 0.71738
 H1531 H 0.25567 -0.11497 0.70385
 H1532 H 0.29806 -0.10623 0.70278
 H1533 H 0.31204 -0.06703 0.71082
 H1534 H 0.28355 -0.03667 0.72122
 H1535 H 0.18361 -0.06903 0.71703
 H1536 H 0.19830 -0.03350 0.73268
 C1537 C 0.26248 0.30052 0.43192
 C1538 C 0.27874 0.28797 0.41814
 C1539 C 0.28648 0.26599 0.42497
 C1540 C 0.27816 0.25618 0.44463
 C1541 C 0.26132 0.26771 0.45789
 C1542 C 0.25317 0.28996 0.45158
 C1543 C 0.25583 0.32356 0.42718
 C1544 C 0.23922 0.33524 0.44048
 C1545 C 0.22916 0.32442 0.45892
 C1546 C 0.23612 0.30205 0.46457
 H1547 H 0.26375 0.33304 0.41359
 H1548 H 0.23421 0.35284 0.43652
 H1549 H 0.21618 0.33355 0.46911
 H1550 H 0.22812 0.29437 0.47922
 H1551 H 0.29899 0.25614 0.41489
 H1552 H 0.28500 0.23941 0.44959
 C1553 C 0.25580 0.78585 -0.07633
 C1554 C 0.28072 0.78931 -0.07951
 C1555 C 0.29662 0.78385 -0.06213
 C1556 C 0.28846 0.77471 -0.04207
 C1557 C 0.26407 0.77076 -0.03868
 C1558 C 0.24740 0.77767 -0.05532
 C1559 C 0.23902 0.78945 -0.09368
 C1560 C 0.21456 0.78695 -0.08984
 C1561 C 0.20632 0.78080 -0.06876
 C1562 C 0.22253 0.77623 -0.05160
 H1563 H 0.24449 0.79374 -0.11045
 H1564 H 0.20193 0.78989 -0.10329
 H1565 H 0.18730 0.77919 -0.06580
 H1566 H 0.21547 0.77128 -0.03547
 H1567 H 0.31566 0.78645 -0.06418
 H1568 H 0.30141 0.76972 -0.02943
 C1569 C 0.74479 0.28282 -0.08088
 C1570 C 0.76906 0.28791 -0.08551
 C1571 C 0.78594 0.28683 -0.06826
 C1572 C 0.77943 0.28000 -0.04688
 C1573 C 0.75587 0.27374 -0.04212
 C1574 C 0.73805 0.27638 -0.05880
 C1575 C 0.72719 0.28314 -0.09778
 C1576 C 0.70338 0.27832 -0.09279
 C1577 C 0.69664 0.27322 -0.07097
 C1578 C 0.71375 0.27234 -0.05406
 H1579 H 0.73160 0.28685 -0.11497
 H1580 H 0.69007 0.27864 -0.10592
 H1581 H 0.67810 0.26972 -0.06717
 H1582 H 0.70789 0.26826 -0.03729
 H1583 H 0.80450 0.29088 -0.07148
 H1584 H 0.79321 0.27826 -0.03424
 C1585 C 0.76169 0.79987 0.43322
 C1586 C 0.77977 0.78878 0.42022
 C1587 C 0.78898 0.76741 0.42736
 C1588 C 0.78047 0.75680 0.44659
 C1589 C 0.76195 0.76684 0.45900
 C1590 C 0.75225 0.78842 0.45236
 C1591 C 0.75339 0.82239 0.42833
 C1592 C 0.73515 0.83262 0.44090
 C1593 C 0.72508 0.82088 0.45879
 C1594 C 0.73362 0.79906 0.46464
 H1595 H 0.76121 0.83264 0.41525
 H1596 H 0.72889 0.84984 0.43681
 H1597 H 0.71088 0.82890 0.46843
 H1598 H 0.72560 0.79069 0.47893
 H1599 H 0.80290 0.75871 0.41791
 H1600 H 0.78847 0.74060 0.45186
 C1601 C 0.72870 0.30163 0.56569
 C1602 C 0.71603 0.28850 0.58185
 C1603 C 0.71250 0.26502 0.57776
 C1604 C 0.72132 0.25456 0.55852
 C1605 C 0.73544 0.26672 0.54336
 C1606 C 0.74012 0.29022 0.54749
 C1607 C 0.72975 0.32588 0.56653
 C1608 C 0.74432 0.33806 0.55187
 C1609 C 0.75789 0.32642 0.53595
 C1610 C 0.75578 0.30271 0.53369
 H1611 H 0.71877 0.33580 0.57786
 H1612 H 0.74518 0.35661 0.55294
 H1613 H 0.76969 0.33584 0.52499
 H1614 H 0.76663 0.29417 0.52123
 H1615 H 0.70273 0.25451 0.58949
 H1616 H 0.71694 0.23681 0.55544
 C1617 C 0.72525 0.80320 1.06570
 C1618 C 0.71091 0.79075 1.08114
 C1619 C 0.70552 0.76777 1.07638
 C1620 C 0.71432 0.75705 1.05732
 C1621 C 0.73018 0.76827 1.04305
 C1622 C 0.73632 0.79135 1.04755
 C1623 C 0.72824 0.82723 1.06715
 C1624 C 0.74401 0.83863 1.05298
 C1625 C 0.75685 0.82645 1.03693
 C1626 C 0.75302 0.80303 1.03413
 H1627 H 0.71786 0.83765 1.07854
 H1628 H 0.74629 0.85701 1.05450
 H1629 H 0.76944 0.83527 1.02627
 H1630 H 0.76328 0.79412 1.02148
 H1631 H 0.69434 0.75786 1.08749
 H1632 H 0.70856 0.73982 1.05369
 C1633 C 0.22234 0.30179 1.05902
 C1634 C 0.21026 0.28891 1.07577
 C1635 C 0.20703 0.26528 1.07251
 C1636 C 0.21591 0.25428 1.05364
 C1637 C 0.22943 0.26620 1.03786
 C1638 C 0.23310 0.29009 1.04061
 C1639 C 0.22332 0.32605 1.05954
 C1640 C 0.23660 0.33815 1.04379
 C1641 C 0.24884 0.32647 1.02701
 C1642 C 0.24704 0.30268 1.02527
 H1643 H 0.21329 0.33603 1.07155
 H1644 H 0.23735 0.35672 1.04459
 H1645 H 0.25936 0.33593 1.01499
 H1646 H 0.25658 0.29432 1.01177
 H1647 H 0.19762 0.25506 1.08476
 H1648 H 0.21217 0.23624 1.05137
 C1649 C 0.22503 0.80063 0.56436
 C1650 C 0.21276 0.78719 0.58054
 C1651 C 0.20955 0.76369 0.57642
 C1652 C 0.21854 0.75341 0.55716
 C1653 C 0.23226 0.76590 0.54192
 C1654 C 0.23633 0.78953 0.54592
 C1655 C 0.22578 0.82488 0.56548
 C1656 C 0.23976 0.83744 0.55062
 C1657 C 0.25303 0.82619 0.53424
 C1658 C 0.25131 0.80246 0.53183
 H1659 H 0.21506 0.83450 0.57726
 H1660 H 0.24038 0.85598 0.55190
 H1661 H 0.26432 0.83592 0.52307
 H1662 H 0.26192 0.79429 0.51902
 H1663 H 0.20003 0.75304 0.58824
 H1664 H 0.21469 0.73551 0.55413
 C1665 C 0.29912 0.72708 0.57058
 C1666 C 0.28709 0.70932 0.58235
 C1667 C 0.26629 0.70004 0.57313
 C1668 C 0.25680 0.70854 0.55321
 C1669 C 0.26743 0.72698 0.54215
 C1670 C 0.28880 0.73635 0.55065
 C1671 C 0.32158 0.73530 0.57755
 C1672 C 0.33273 0.75312 0.56608
 C1673 C 0.32206 0.76283 0.54723
 C1674 C 0.30041 0.75446 0.53941
 H1675 H 0.33114 0.72772 0.59145
 H1676 H 0.34987 0.75929 0.57173
 H1677 H 0.33082 0.77664 0.53839
 H1678 H 0.29302 0.76210 0.52437
 H1679 H 0.25701 0.68631 0.58162
 H1680 H 0.24074 0.70093 0.54655
 C1681 C 0.30045 0.22980 1.06745
 C1682 C 0.28834 0.21331 1.08081
 C1683 C 0.26646 0.20467 1.07329
 C1684 C 0.25629 0.21229 1.05339
 C1685 C 0.26709 0.22951 1.04076
 C1686 C 0.28926 0.23851 1.04769
 C1687 C 0.32379 0.23719 1.07258
 C1688 C 0.33495 0.25391 1.05963
 C1689 C 0.32337 0.26333 1.04111
 C1690 C 0.30081 0.25563 1.03502
 H1691 H 0.33402 0.22973 1.08613
 H1692 H 0.35277 0.25948 1.06390
 H1693 H 0.33210 0.27634 1.03116
 H1694 H 0.29260 0.26305 1.02025
 H1695 H 0.25698 0.19192 1.08296
 H1696 H 0.23974 0.20472 1.04782
 C1697 C 0.75616 0.70299 1.07786
 C1698 C 0.77747 0.71187 1.08740
 C1699 C 0.79008 0.72877 1.07560
 C1700 C 0.78232 0.73657 1.05478
 C1701 C 0.76223 0.72713 1.04464
 C1702 C 0.74943 0.70967 1.05578
 C1703 C 0.74073 0.68841 1.08990
 C1704 C 0.72080 0.67880 1.07972
 C1705 C 0.71551 0.68383 1.05754
 C1706 C 0.72953 0.69927 1.04565
 H1707 H 0.74328 0.68486 1.10744
 H1708 H 0.70931 0.66748 1.08916
 H1709 H 0.70009 0.67624 1.04970
 H1710 H 0.72435 0.70340 1.02868
 H1711 H 0.80628 0.73593 1.08241
 H1712 H 0.79215 0.75003 1.04641
 C1713 C 0.76385 0.19731 0.57363
 C1714 C 0.78415 0.20722 0.58401
 C1715 C 0.79505 0.22619 0.57383
 C1716 C 0.78659 0.23515 0.55373
 C1717 C 0.76730 0.22514 0.54285
 C1718 C 0.75605 0.20579 0.55243
 C1719 C 0.75041 0.17991 0.58410
 C1720 C 0.73107 0.16996 0.57327
 C1721 C 0.72441 0.17737 0.55203
 C1722 C 0.73661 0.19524 0.54171
 H1723 H 0.75408 0.17423 0.60093
 H1724 H 0.72106 0.15655 0.58149
 H1725 H 0.70939 0.16957 0.54371
 H1726 H 0.73043 0.20097 0.52546
 H1727 H 0.81043 0.23413 0.58144
 H1728 H 0.79523 0.25001 0.54652
 C1729 C 0.69345 0.72348 0.43311
 C1730 C 0.70856 0.71058 0.41854
 C1731 C 0.73228 0.70591 0.42497
 C1732 C 0.74139 0.71443 0.44486
 C1733 C 0.72737 0.72852 0.45864
 C1734 C 0.70325 0.73331 0.45280
 C1735 C 0.66866 0.72633 0.42906
 C1736 C 0.65443 0.74003 0.44292
 C1737 C 0.66444 0.75091 0.46123
 C1738 C 0.68858 0.74754 0.46625
 H1739 H 0.65983 0.71757 0.41559
 H1740 H 0.63551 0.74216 0.43946
 H1741 H 0.65336 0.76171 0.47181
 H1742 H 0.69559 0.75614 0.48076
 H1743 H 0.74408 0.69588 0.41433
 H1744 H 0.75965 0.71011 0.44946
 C1745 C 0.75018 0.21491 -0.07895
 C1746 C 0.72599 0.20853 -0.08244
 C1747 C 0.70980 0.20981 -0.06457
 C1748 C 0.71681 0.21798 -0.04384
 C1749 C 0.74034 0.22491 -0.04016
 C1750 C 0.75760 0.22187 -0.05727
 C1751 C 0.76702 0.21558 -0.09653
 C1752 C 0.79087 0.22092 -0.09244
 C1753 C 0.79844 0.22572 -0.07087
 C1754 C 0.78200 0.22620 -0.05338
 H1755 H 0.76198 0.21254 -0.11363
 H1756 H 0.80357 0.22126 -0.10609
 H1757 H 0.81703 0.22959 -0.06775
 H1758 H 0.78839 0.23040 -0.03685
 H1759 H 0.69133 0.20487 -0.06677
 H1760 H 0.70343 0.22001 -0.03088
 C1761 C 0.24990 0.71501 -0.08114
 C1762 C 0.22525 0.71119 -0.08544
 C1763 C 0.20864 0.71431 -0.06813
 C1764 C 0.21584 0.72128 -0.04707
 C1765 C 0.24001 0.72504 -0.04234
 C1766 C 0.25739 0.72064 -0.05910
 C1767 C 0.26728 0.71412 -0.09825
 C1768 C 0.29152 0.71661 -0.09339
 C1769 C 0.29892 0.71998 -0.07150
 C1770 C 0.28206 0.72190 -0.05444
 H1771 H 0.26241 0.71202 -0.11554
 H1772 H 0.30464 0.71576 -0.10668
 H1773 H 0.31778 0.72151 -0.06777
 H1774 H 0.28844 0.72468 -0.03763
 H1775 H 0.18977 0.71139 -0.07087
 H1776 H 0.20227 0.72443 -0.03448
 C1777 C 0.19169 0.22676 0.43375
 C1778 C 0.20505 0.21166 0.41970
 C1779 C 0.22843 0.20521 0.42588
 C1780 C 0.23887 0.21379 0.44512
 C1781 C 0.22656 0.22961 0.45849
 C1782 C 0.20285 0.23632 0.45291
 C1783 C 0.16727 0.23198 0.42980
 C1784 C 0.15476 0.24740 0.44339
 C1785 C 0.16609 0.25764 0.46137
 C1786 C 0.18985 0.25207 0.46627
 H1787 H 0.15736 0.22383 0.41664
 H1788 H 0.13611 0.25132 0.44002
 H1789 H 0.15630 0.26965 0.47182
 H1790 H 0.19785 0.26008 0.48067
 H1791 H 0.23890 0.19359 0.41557
 H1792 H 0.25678 0.20808 0.44959
 C1793 C 0.30627 0.42977 0.71727
 C1794 C 0.28967 0.41351 0.70926
 C1795 C 0.26510 0.41843 0.71051
 C1796 C 0.25672 0.43861 0.72032
 C1797 C 0.27263 0.45450 0.72923
 C1798 C 0.29767 0.45032 0.72758
 C1799 C 0.33123 0.42633 0.71492
 C1800 C 0.34729 0.44216 0.72345
 C1801 C 0.33891 0.46175 0.73430
 C1802 C 0.31439 0.46591 0.73634
 H1803 H 0.33862 0.41163 0.70623
 H1804 H 0.36636 0.43920 0.72161
 H1805 H 0.35147 0.47389 0.74105
 H1806 H 0.30876 0.48133 0.74500
 H1807 H 0.25224 0.40624 0.70432
 H1808 H 0.23758 0.44173 0.72127
 C1809 C 0.29785 0.93534 0.21411
 C1810 C 0.28024 0.91950 0.20729
 C1811 C 0.25596 0.92526 0.20960
 C1812 C 0.24890 0.94583 0.21957
 C1813 C 0.26590 0.96120 0.22760
 C1814 C 0.29065 0.95621 0.22464
 C1815 C 0.32249 0.93100 0.21048
 C1816 C 0.33965 0.94630 0.21799
 C1817 C 0.33267 0.96622 0.22913
 C1818 C 0.30847 0.97122 0.23243
 H1819 H 0.32876 0.91598 0.20155
 H1820 H 0.35847 0.94267 0.21519
 H1821 H 0.34609 0.97793 0.23514
 H1822 H 0.30399 0.98683 0.24132
 H1823 H 0.24234 0.91336 0.20436
 H1824 H 0.22996 0.94960 0.22146
 C1825 C 0.79729 0.42551 0.23375
 C1826 C 0.77991 0.41288 0.22176
 C1827 C 0.75664 0.42190 0.21958
 C1828 C 0.75031 0.44293 0.22897
 C1829 C 0.76695 0.45554 0.24112
 C1830 C 0.79047 0.44663 0.24411
 C1831 C 0.82150 0.41822 0.23506
 C1832 C 0.83801 0.43043 0.24761
 C1833 C 0.83091 0.45023 0.25887
 C1834 C 0.80741 0.45838 0.25711
 H1835 H 0.82816 0.40340 0.22612
 H1836 H 0.85643 0.42449 0.24859
 H1837 H 0.84375 0.45951 0.26877
 H1838 H 0.80266 0.47391 0.26605
 H1839 H 0.74320 0.41258 0.21041
 H1840 H 0.73231 0.44965 0.22643
 C1841 C 0.80135 0.92567 0.72331
 C1842 C 0.78506 0.91244 0.71070
 C1843 C 0.76155 0.92055 0.70762
 C1844 C 0.75378 0.94109 0.71727
 C1845 C 0.76932 0.95414 0.73023
 C1846 C 0.79327 0.94648 0.73346
 C1847 C 0.82566 0.91904 0.72566
 C1848 C 0.84123 0.93194 0.73857
 C1849 C 0.83305 0.95173 0.74924
 C1850 C 0.80934 0.95903 0.74673
 H1851 H 0.83302 0.90411 0.71733
 H1852 H 0.85977 0.92656 0.74029
 H1853 H 0.84519 0.96159 0.75937
 H1854 H 0.80377 0.97455 0.75529
 H1855 H 0.74898 0.91068 0.69794
 H1856 H 0.73546 0.94685 0.71468
 C1857 C 0.75711 0.58580 0.72012
 C1858 C 0.73277 0.59325 0.72093
 C1859 C 0.71531 0.57765 0.72795
 C1860 C 0.72142 0.55515 0.73386
 C1861 C 0.74512 0.54722 0.73249
 C1862 C 0.76305 0.56233 0.72475
 C1863 C 0.77583 0.60116 0.71540
 C1864 C 0.79942 0.59323 0.71345
 C1865 C 0.80482 0.56995 0.71607
 C1866 C 0.78683 0.55457 0.72155
 H1867 H 0.77262 0.61943 0.71368
 H1868 H 0.81356 0.60520 0.70973
 H1869 H 0.82309 0.56381 0.71413
 H1870 H 0.79166 0.53659 0.72339
 H1871 H 0.69663 0.58278 0.72866
 H1872 H 0.70750 0.54382 0.73973
 C1873 C 0.73432 0.07092 0.20206
 C1874 C 0.72073 0.08721 0.21467
 C1875 C 0.71397 0.08142 0.23652
 C1876 C 0.72062 0.06047 0.24602
 C1877 C 0.73553 0.04496 0.23466
 C1878 C 0.74298 0.05036 0.21262
 C1879 C 0.73884 0.07395 0.17904
 C1880 C 0.75367 0.05865 0.16745
 C1881 C 0.76399 0.03986 0.17840
 C1882 C 0.75864 0.03559 0.20073
 H1883 H 0.73039 0.08757 0.16950
 H1884 H 0.75715 0.06140 0.14987
 H1885 H 0.77578 0.02823 0.16940
 H1886 H 0.76682 0.02062 0.20853
 H1887 H 0.70336 0.09321 0.24651
 H1888 H 0.71390 0.05631 0.26244
 C1889 C 0.24940 0.57789 0.21255
 C1890 C 0.22560 0.58575 0.21660
 C1891 C 0.20999 0.57175 0.22874
 C1892 C 0.21725 0.55005 0.23621
 C1893 C 0.24029 0.54159 0.23165
 C1894 C 0.25648 0.55534 0.21946
 C1895 C 0.26653 0.59207 0.20221
 C1896 C 0.28955 0.58375 0.19767
 C1897 C 0.29596 0.56125 0.20327
 C1898 C 0.27960 0.54709 0.21399
 H1899 H 0.26252 0.60977 0.19792
 H1900 H 0.30246 0.59481 0.18969
 H1901 H 0.31375 0.55478 0.19944
 H1902 H 0.28515 0.52966 0.21792
 H1903 H 0.19178 0.57743 0.23203
 H1904 H 0.20480 0.53971 0.24566
 C1905 C 0.24428 0.08096 0.71311
 C1906 C 0.21976 0.08729 0.71541
 C1907 C 0.20400 0.07203 0.72573
 C1908 C 0.21195 0.05057 0.73325
 C1909 C 0.23595 0.04379 0.73090
 C1910 C 0.25227 0.05879 0.72039
 C1911 C 0.26121 0.09631 0.70419
 C1912 C 0.28508 0.08956 0.70148
 C1913 C 0.29257 0.06748 0.70755
 C1914 C 0.27636 0.05216 0.71686
 H1915 H 0.25632 0.11373 0.69956
 H1916 H 0.29783 0.10150 0.69458
 H1917 H 0.31106 0.06225 0.70520
 H1918 H 0.28287 0.03515 0.72136
 H1919 H 0.18523 0.07655 0.72754
 H1920 H 0.19931 0.03920 0.74123
 C1921 C 0.30429 0.56369 0.28095
 C1922 C 0.28756 0.57861 0.29157
 C1923 C 0.26347 0.57242 0.29281
 C1924 C 0.25555 0.55232 0.28285
 C1925 C 0.27148 0.53789 0.27127
 C1926 C 0.29609 0.54346 0.27027
 C1927 C 0.32909 0.56821 0.28097
 C1928 C 0.34518 0.55386 0.26971
 C1929 C 0.33698 0.53474 0.25833
 C1930 C 0.31272 0.52953 0.25861
 H1931 H 0.33639 0.58258 0.28994
 H1932 H 0.36410 0.55763 0.26977
 H1933 H 0.34949 0.52380 0.24937
 H1934 H 0.30712 0.51470 0.24937
 H1935 H 0.25054 0.58359 0.30099
 H1936 H 0.23675 0.54814 0.28386
 C1937 C 0.25796 0.07743 0.79179
 C1938 C 0.28250 0.08301 0.78945
 C1939 C 0.29800 0.06775 0.77836
 C1940 C 0.28972 0.04716 0.76979
 C1941 C 0.26562 0.04131 0.77174
 C1942 C 0.24961 0.05614 0.78329
 C1943 C 0.24135 0.09272 0.80181
 C1944 C 0.21741 0.08671 0.80433
 C1945 C 0.20955 0.06546 0.79694
 C1946 C 0.22544 0.05025 0.78654
 H1947 H 0.24652 0.10954 0.80749
 H1948 H 0.20491 0.09859 0.81210
 H1949 H 0.19100 0.06082 0.79913
 H1950 H 0.21864 0.03390 0.78101
 H1951 H 0.31678 0.07172 0.77648
 H1952 H 0.30215 0.03588 0.76109
 C1953 C 0.81025 0.56115 0.78615
 C1954 C 0.79412 0.57734 0.79582
 C1955 C 0.76947 0.57364 0.79462
 C1956 C 0.76053 0.55485 0.78316
 C1957 C 0.77597 0.53923 0.77248
 C1958 C 0.80111 0.54214 0.77409
 C1959 C 0.83530 0.56325 0.78845
 C1960 C 0.85094 0.54767 0.77822
 C1961 C 0.84203 0.52968 0.76565
 C1962 C 0.81742 0.52685 0.76359
 H1963 H 0.84306 0.57667 0.79840
 H1964 H 0.87008 0.54959 0.78005
 H1965 H 0.85425 0.51775 0.75756
 H1966 H 0.81139 0.51273 0.75351
 H1967 H 0.75696 0.58582 0.80201
 H1968 H 0.74133 0.55265 0.78232
 C1969 C 0.75863 0.07391 0.30357
 C1970 C 0.78066 0.08278 0.29550
 C1971 C 0.79263 0.07120 0.27817
 C1972 C 0.78352 0.05123 0.26905
 C1973 C 0.76251 0.04171 0.27735
 C1974 C 0.75015 0.05263 0.29510
 C1975 C 0.74422 0.08600 0.31908
 C1976 C 0.72318 0.07653 0.32735
 C1977 C 0.71579 0.05510 0.32009
 C1978 C 0.72898 0.04327 0.30398
 H1979 H 0.74846 0.10313 0.32447
 H1980 H 0.71244 0.08599 0.33934
 H1981 H 0.69945 0.04784 0.32659
 H1982 H 0.72221 0.02699 0.29821
 H1983 H 0.80937 0.07756 0.27164
 H1984 H 0.79305 0.04300 0.25543
 C1985 C 0.69219 0.44272 0.28725
 C1986 C 0.70688 0.42579 0.29798
 C1987 C 0.73177 0.42859 0.29793
 C1988 C 0.74220 0.44711 0.28708
 C1989 C 0.72828 0.46298 0.27491
 C1990 C 0.70304 0.46054 0.27448
 C1991 C 0.66699 0.44287 0.28933
 C1992 C 0.65285 0.45837 0.27716
 C1993 C 0.66344 0.47419 0.26291
 C1994 C 0.68829 0.47538 0.26157
 H1995 H 0.65795 0.43155 0.30079
 H1996 H 0.63355 0.45806 0.27875
 H1997 H 0.65237 0.48589 0.25316
 H1998 H 0.69574 0.48800 0.25033
 H1999 H 0.74344 0.41616 0.30612
 H2000 H 0.76145 0.44890 0.28796
 C2001 C 0.69847 0.93314 0.77975
 C2002 C 0.71405 0.91564 0.78830
 C2003 C 0.73887 0.91867 0.78692
 C2004 C 0.74839 0.93822 0.77697
 C2005 C 0.73344 0.95506 0.76734
 C2006 C 0.70827 0.95229 0.76814
 C2007 C 0.67342 0.93260 0.78304
 C2008 C 0.65836 0.94909 0.77325
 C2009 C 0.66786 0.96659 0.76026
 C2010 C 0.69256 0.96832 0.75776
 H2011 H 0.66517 0.91995 0.79367
 H2012 H 0.63920 0.94825 0.77576
 H2013 H 0.65607 0.97915 0.75241
 H2014 H 0.69917 0.98231 0.74764
 H2015 H 0.75109 0.90571 0.79352
 H2016 H 0.76763 0.94026 0.77684
 C2017 C 0.25408 0.41240 0.78430
 C2018 C 0.22949 0.40635 0.78442
 C2019 C 0.21235 0.42272 0.77739
 C2020 C 0.21900 0.44452 0.77030
 C2021 C 0.24299 0.45102 0.77045
 C2022 C 0.26063 0.43529 0.77845
 C2023 C 0.27246 0.39620 0.78909
 C2024 C 0.29634 0.40284 0.78999
 C2025 C 0.30239 0.42565 0.78620
 C2026 C 0.28473 0.44180 0.78057
 H2027 H 0.26878 0.37821 0.79163
 H2028 H 0.31021 0.39024 0.79377
 H2029 H 0.32090 0.43080 0.78728
 H2030 H 0.29006 0.45938 0.77772
 H2031 H 0.19349 0.41865 0.77737
 H2032 H 0.20529 0.45637 0.76429
 C2033 C 0.24733 0.92036 0.28458
 C2034 C 0.22244 0.91593 0.28666
 C2035 C 0.20591 0.93301 0.27998
 C2036 C 0.21344 0.95404 0.27159
 C2037 C 0.23778 0.95911 0.27012
 C2038 C 0.25493 0.94257 0.27751
 C2039 C 0.26493 0.90319 0.28869
 C2040 C 0.28923 0.90833 0.28786
 C2041 C 0.29648 0.93058 0.28300
 C2042 C 0.27953 0.94762 0.27797
 H2043 H 0.26023 0.88556 0.29202
 H2044 H 0.30249 0.89500 0.29115
 H2045 H 0.31535 0.93459 0.28279
 H2046 H 0.28580 0.96474 0.27432
 H2047 H 0.18685 0.93021 0.28140
 H2048 H 0.20008 0.96651 0.26609
 C2049 C 0.42141 0.25293 0.71304
 C2050 C 0.41492 0.27662 0.71201
 C2051 C 0.43115 0.29305 0.71949
 C2052 C 0.45325 0.28649 0.72831
 C2053 C 0.45982 0.26325 0.73003
 C2054 C 0.44447 0.24635 0.72121
 C2055 C 0.40533 0.23552 0.70694
 C2056 C 0.41242 0.21243 0.70732
 C2057 C 0.43554 0.20620 0.71376
 C2058 C 0.45149 0.22296 0.72061
 H2059 H 0.38707 0.23940 0.70221
 H2060 H 0.39992 0.19929 0.70250
 H2061 H 0.44104 0.18828 0.71376
 H2062 H 0.46928 0.21744 0.72564
 H2063 H 0.42660 0.31121 0.71870
 H2064 H 0.46489 0.29962 0.73479
 C2065 C 0.40622 0.78388 0.24549
 C2066 C 0.40039 0.78109 0.22255
 C2067 C 0.41805 0.77281 0.20788
 C2068 C 0.44108 0.76763 0.21537
 C2069 C 0.44749 0.77118 0.23765
 C2070 C 0.43030 0.78035 0.25268
 C2071 C 0.38869 0.78944 0.26166
 C2072 C 0.39510 0.79361 0.28376
 C2073 C 0.41901 0.79236 0.29019
 C2074 C 0.43652 0.78588 0.27480
 H2075 H 0.36985 0.79006 0.25761
 H2076 H 0.38146 0.79798 0.29592
 H2077 H 0.42396 0.79601 0.30725
 H2078 H 0.45491 0.78495 0.28040
 H2079 H 0.41413 0.77055 0.19033
 H2080 H 0.45403 0.76061 0.20368
 C2081 C 0.91822 0.26188 0.20076
 C2082 C 0.90524 0.28072 0.21012
 C2083 C 0.91502 0.29243 0.22834
 C2084 C 0.93729 0.28620 0.23701
 C2085 C 0.95079 0.26847 0.22739
 C2086 C 0.94161 0.25642 0.20886
 C2087 C 0.90829 0.24770 0.18417
 C2088 C 0.92168 0.22986 0.17466
 C2089 C 0.94503 0.22549 0.18168
 C2090 C 0.95493 0.23848 0.19873
 H2091 H 0.88993 0.24971 0.17881
 H2092 H 0.91383 0.21927 0.16187
 H2093 H 0.95535 0.21163 0.17421
 H2094 H 0.97290 0.23409 0.20415
 H2095 H 0.90551 0.30679 0.23583
 H2096 H 0.94413 0.29535 0.25132
 C2097 C 0.92287 0.75781 0.70895
 C2098 C 0.91068 0.77838 0.71548
 C2099 C 0.92120 0.79240 0.73171
 C2100 C 0.94324 0.78663 0.74120
 C2101 C 0.95598 0.76718 0.73412
 C2102 C 0.94633 0.75308 0.71727
 C2103 C 0.91211 0.74125 0.69515
 C2104 C 0.92501 0.72202 0.68779
 C2105 C 0.94866 0.71860 0.69436
 C2106 C 0.95925 0.73383 0.70912
 H2107 H 0.89348 0.74241 0.69051
 H2108 H 0.91654 0.70964 0.67705
 H2109 H 0.95863 0.70371 0.68851
 H2110 H 0.97739 0.73011 0.71450
 H2111 H 0.91242 0.80812 0.73710
 H2112 H 0.95047 0.79746 0.75414
 C2113 C 0.57913 0.29429 0.26368
 C2114 C 0.58690 0.28665 0.28512
 C2115 C 0.57344 0.26997 0.29636
 C2116 C 0.55240 0.26155 0.28720
 C2117 C 0.54355 0.27023 0.26698
 C2118 C 0.55637 0.28749 0.25557
 C2119 C 0.59345 0.30820 0.24981
 C2120 C 0.58432 0.31759 0.23006
 C2121 C 0.56088 0.31323 0.22371
 C2122 C 0.54698 0.29825 0.23630
 H2123 H 0.61194 0.31150 0.25374
 H2124 H 0.59540 0.32846 0.21975
 H2125 H 0.55364 0.32101 0.20867
 H2126 H 0.52892 0.29502 0.23077
 H2127 H 0.57890 0.26367 0.31264
 H2128 H 0.54271 0.24838 0.29614
 C2129 C 0.58195 0.78477 0.75985
 C2130 C 0.58889 0.77931 0.78211
 C2131 C 0.57380 0.76553 0.79514
 C2132 C 0.55202 0.75790 0.78684
 C2133 C 0.54412 0.76457 0.76560
 C2134 C 0.55864 0.77899 0.75234
 C2135 C 0.59762 0.79549 0.74463
 C2136 C 0.58953 0.80291 0.72374
 C2137 C 0.56579 0.79979 0.71764
 C2138 C 0.55041 0.78797 0.73180
 H2139 H 0.61633 0.79777 0.74845
 H2140 H 0.60168 0.81133 0.71236
 H2141 H 0.55940 0.80611 0.70167
 H2142 H 0.53208 0.78576 0.72654
 H2143 H 0.57857 0.76097 0.81212
 H2144 H 0.54105 0.74695 0.79721
 C2145 C 0.06734 0.30495 0.77734
 C2146 C 0.08460 0.28926 0.78612
 C2147 C 0.07964 0.26574 0.78674
 C2148 C 0.05829 0.25745 0.77821
 C2149 C 0.04117 0.27247 0.76894
 C2150 C 0.04546 0.29649 0.76863
 C2151 C 0.07110 0.32893 0.77740
 C2152 C 0.05411 0.34410 0.76840
 C2153 C 0.03304 0.33579 0.75933
 C2154 C 0.02864 0.31226 0.75946
 H2155 H 0.08699 0.33625 0.78456
 H2156 H 0.05730 0.36241 0.76847
 H2157 H 0.01997 0.34764 0.75225
 H2158 H 0.01206 0.30662 0.75212
 H2159 H 0.09261 0.25362 0.79361
 H2160 H 0.05513 0.23912 0.77870
 C2161 C 0.08195 0.79364 0.26062
 C2162 C 0.09004 0.78658 0.28216
 C2163 C 0.07633 0.77069 0.29426
 C2164 C 0.05482 0.76255 0.28589
 C2165 C 0.04573 0.77073 0.26560
 C2166 C 0.05880 0.78711 0.25322
 C2167 C 0.09633 0.80657 0.24594
 C2168 C 0.08703 0.81536 0.22601
 C2169 C 0.06341 0.81120 0.22015
 C2170 C 0.04936 0.79712 0.23355
 H2171 H 0.11503 0.80944 0.24930
 H2172 H 0.09821 0.82549 0.21508
 H2173 H 0.05614 0.81836 0.20484
 H2174 H 0.03129 0.79369 0.22811
 H2175 H 0.08193 0.76483 0.31063
 H2176 H 0.04486 0.75014 0.29558
 C2177 C 0.57323 0.73087 0.69912
 C2178 C 0.58688 0.71415 0.71128
 C2179 C 0.57849 0.70693 0.73224
 C2180 C 0.55704 0.71542 0.74094
 C2181 C 0.54262 0.73065 0.72862
 C2182 C 0.55021 0.73785 0.70714
 C2183 C 0.58218 0.74167 0.67971
 C2184 C 0.56787 0.75672 0.66719
 C2185 C 0.54458 0.76174 0.67393
 C2186 C 0.53585 0.75263 0.69382
 H2187 H 0.60050 0.73938 0.67440
 H2188 H 0.57495 0.76465 0.65225
 H2189 H 0.53349 0.77336 0.66410
 H2190 H 0.51805 0.75781 0.69892
 H2191 H 0.58847 0.69437 0.74201
 H2192 H 0.55141 0.70977 0.75736
 C2193 C 0.57813 0.24285 0.20191
 C2194 C 0.59089 0.22429 0.21230
 C2195 C 0.58087 0.21400 0.23137
 C2196 C 0.55882 0.22124 0.23975
 C2197 C 0.54525 0.23810 0.22868
 C2198 C 0.55434 0.24829 0.20899
 C2199 C 0.58849 0.25680 0.18525
 C2200 C 0.57482 0.27325 0.17377
 C2201 C 0.55073 0.27647 0.17893
 C2202 C 0.54055 0.26430 0.19654
 H2203 H 0.60736 0.25586 0.18149
 H2204 H 0.58298 0.28359 0.16085
 H2205 H 0.54012 0.28908 0.16981
 H2206 H 0.52204 0.26794 0.20066
 H2207 H 0.58992 0.19995 0.23990
 H2208 H 0.55198 0.21324 0.25478
 C2209 C 0.06879 0.69905 0.22858
 C2210 C 0.08373 0.71096 0.21323
 C2211 C 0.07692 0.73328 0.20647
 C2212 C 0.05649 0.74400 0.21492
 C2213 C 0.04290 0.73352 0.23155
 C2214 C 0.04892 0.71086 0.23853
 C2215 C 0.07231 0.67550 0.23362
 C2216 C 0.05815 0.66450 0.24948
 C2217 C 0.03989 0.67653 0.26031
 C2218 C 0.03510 0.69943 0.25481
 H2219 H 0.08531 0.66503 0.22488
 H2220 H 0.06123 0.64648 0.25325
 H2221 H 0.02903 0.66792 0.27267
 H2222 H 0.02035 0.70800 0.26322
 H2223 H 0.08750 0.74274 0.19451
 H2224 H 0.05130 0.76063 0.20831
 C2225 C 0.08248 0.24906 0.71424
 C2226 C 0.08798 0.22509 0.71509
 C2227 C 0.07077 0.20998 0.72347
 C2228 C 0.04857 0.21802 0.73078
 C2229 C 0.04248 0.24140 0.72946
 C2230 C 0.05907 0.25698 0.72021
 C2231 C 0.09976 0.26552 0.70834
 C2232 C 0.09354 0.28876 0.70635
 C2233 C 0.07008 0.29607 0.71017
 C2234 C 0.05293 0.28035 0.71696
 H2235 H 0.11831 0.26082 0.70578
 H2236 H 0.10697 0.30114 0.70170
 H2237 H 0.06524 0.31406 0.70823
 H2238 H 0.03488 0.28661 0.71985
 H2239 H 0.07445 0.19166 0.72430
 H2240 H 0.03605 0.20589 0.73781
 C2241 C 0.42792 0.72443 0.30347
 C2242 C 0.41090 0.71478 0.28874
 C2243 C 0.41617 0.71344 0.26592
 C2244 C 0.43719 0.72246 0.25737
 C2245 C 0.45341 0.73364 0.27125
 C2246 C 0.44898 0.73459 0.29458
 C2247 C 0.42480 0.72387 0.32687
 C2248 C 0.44097 0.73458 0.34100
 C2249 C 0.46064 0.74585 0.33220
 C2250 C 0.46472 0.74586 0.30926
 H2251 H 0.41022 0.71479 0.33459
 H2252 H 0.43820 0.73415 0.35888
 H2253 H 0.47296 0.75442 0.34322
 H2254 H 0.48022 0.75491 0.30326
 H2255 H 0.40358 0.70586 0.25444
 H2256 H 0.44050 0.72133 0.23959
 C2257 C 0.41479 0.24489 0.78285
 C2258 C 0.41051 0.22088 0.78418
 C2259 C 0.42929 0.20538 0.77951
 C2260 C 0.45187 0.21314 0.77363
 C2261 C 0.45663 0.23668 0.77251
 C2262 C 0.43835 0.25273 0.77829
 C2263 C 0.39616 0.26138 0.78528
 C2264 C 0.40103 0.28483 0.78530
 C2265 C 0.42443 0.29233 0.78291
 C2266 C 0.44298 0.27648 0.77950
 H2267 H 0.37767 0.25644 0.78670
 H2268 H 0.38658 0.29725 0.78730
 H2269 H 0.42816 0.31054 0.78332
 H2270 H 0.46093 0.28296 0.77750
 H2271 H 0.42655 0.18701 0.78052
 H2272 H 0.46565 0.20062 0.76934
 C2273 C 0.92713 0.73588 0.80662
 C2274 C 0.91312 0.72009 0.79430
 C2275 C 0.92095 0.71331 0.77304
 C2276 C 0.94187 0.72177 0.76388
 C2277 C 0.95515 0.73831 0.77502
 C2278 C 0.94775 0.74572 0.79646
 C2279 C 0.92196 0.74144 0.82905
 C2280 C 0.93539 0.75767 0.84044
 C2281 C 0.95449 0.76836 0.82995
 C2282 C 0.96081 0.76236 0.80823
 H2283 H 0.90812 0.73293 0.83835
 H2284 H 0.93104 0.76186 0.85757
 H2285 H 0.96476 0.78102 0.83884
 H2286 H 0.97606 0.77076 0.80081
 H2287 H 0.91088 0.70111 0.76334
 H2288 H 0.94787 0.71506 0.74804
 C2289 C 0.92552 0.23296 0.29939
 C2290 C 0.91009 0.21915 0.28632
 C2291 C 0.91653 0.21409 0.26424
 C2292 C 0.93733 0.22273 0.25486
 C2293 C 0.95192 0.23758 0.26686
 C2294 C 0.94597 0.24306 0.28922
 C2295 C 0.92181 0.23631 0.32249
 C2296 C 0.93644 0.25087 0.33468
 C2297 C 0.95526 0.26208 0.32429
 C2298 C 0.96015 0.25816 0.30182
 H2299 H 0.90817 0.22729 0.33160
 H2300 H 0.93320 0.25339 0.35232
 H2301 H 0.96641 0.27353 0.33379
 H2302 H 0.97517 0.26698 0.29447
 H2303 H 0.90534 0.20332 0.25402
 H2304 H 0.94207 0.21767 0.23808
 C2305 C 0.25453 0.28297 0.57764
 C2306 C 0.27941 0.28202 0.58260
 C2307 C 0.29539 0.27317 0.56665
 C2308 C 0.28728 0.26545 0.54610
 C2309 C 0.26294 0.26646 0.54073
 C2310 C 0.24647 0.27623 0.55612
 C2311 C 0.23732 0.28978 0.59367
 C2312 C 0.21316 0.29175 0.58805
 C2313 C 0.20564 0.28698 0.56646
 C2314 C 0.22209 0.27932 0.55057
 H2315 H 0.24216 0.29318 0.61077
 H2316 H 0.20021 0.29711 0.60050
 H2317 H 0.18691 0.28886 0.56210
 H2318 H 0.21553 0.27562 0.53400
 H2319 H 0.31443 0.27233 0.57005
 H2320 H 0.30008 0.25815 0.53442
 C2321 C 0.24686 0.78193 0.08006
 C2322 C 0.27105 0.78053 0.08736
 C2323 C 0.28846 0.77117 0.07306
 C2324 C 0.28247 0.76360 0.05182
 C2325 C 0.25893 0.76536 0.04404
 C2326 C 0.24098 0.77511 0.05792
 C2327 C 0.22819 0.78929 0.09437
 C2328 C 0.20471 0.79128 0.08662
 C2329 C 0.19934 0.78605 0.06457
 C2330 C 0.21728 0.77811 0.05027
 H2331 H 0.23137 0.79311 0.11173
 H2332 H 0.19061 0.79700 0.09778
 H2333 H 0.18114 0.78792 0.05856
 H2334 H 0.21246 0.77428 0.03322
 H2335 H 0.30701 0.76993 0.07825
 H2336 H 0.29633 0.75609 0.04137
 C2337 C 0.74849 0.28806 0.07930
 C2338 C 0.77264 0.29497 0.08181
 C2339 C 0.78816 0.29361 0.06347
 C2340 C 0.78059 0.28475 0.04323
 C2341 C 0.75717 0.27700 0.04054
 C2342 C 0.74049 0.28006 0.05814
 C2343 C 0.73230 0.28794 0.09740
 C2344 C 0.70850 0.28173 0.09434
 C2345 C 0.70034 0.27560 0.07328
 C2346 C 0.71613 0.27483 0.05528
 H2347 H 0.73782 0.29219 0.11412
 H2348 H 0.69629 0.28176 0.10838
 H2349 H 0.68179 0.27108 0.07096
 H2350 H 0.70925 0.26978 0.03917
 H2351 H 0.80658 0.29897 0.06497
 H2352 H 0.79354 0.28278 0.02987
 C2353 C 0.75556 0.78946 0.57469
 C2354 C 0.77868 0.78314 0.58282
 C2355 C 0.79261 0.76737 0.57052
 C2356 C 0.78441 0.75836 0.55049
 C2357 C 0.76238 0.76541 0.54163
 C2358 C 0.74816 0.78172 0.55327
 C2359 C 0.73924 0.80273 0.58745
 C2360 C 0.71747 0.81022 0.57839
 C2361 C 0.71147 0.80458 0.55658
 C2362 C 0.72664 0.79043 0.54408
 H2363 H 0.74270 0.80691 0.60466
 H2364 H 0.70525 0.82053 0.58832
 H2365 H 0.69477 0.81077 0.54948
 H2366 H 0.72132 0.78624 0.52725
 H2367 H 0.81025 0.76214 0.57623
 H2368 H 0.79549 0.74596 0.54166
 C2369 C 0.29982 0.72614 0.43150
 C2370 C 0.28692 0.70944 0.41927
 C2371 C 0.26563 0.70082 0.42823
 C2372 C 0.25646 0.70908 0.44827
 C2373 C 0.26791 0.72667 0.45971
 C2374 C 0.28983 0.73526 0.45155
 C2375 C 0.32277 0.73345 0.42484
 C2376 C 0.33472 0.75037 0.43671
 C2377 C 0.32436 0.76004 0.45565
 C2378 C 0.30222 0.75248 0.46318
 H2379 H 0.33207 0.72583 0.41086
 H2380 H 0.35223 0.75586 0.43129
 H2381 H 0.33374 0.77316 0.46479
 H2382 H 0.29506 0.76004 0.47828
 H2383 H 0.25567 0.68786 0.41939
 H2384 H 0.23995 0.70206 0.45468
 C2385 C 0.30222 0.22502 0.93181
 C2386 C 0.29116 0.20702 0.91976
 C2387 C 0.27010 0.19737 0.92820
 C2388 C 0.25944 0.20579 0.94753
 C2389 C 0.26900 0.22460 0.95865
 C2390 C 0.29058 0.23435 0.95097
 C2391 C 0.32493 0.23349 0.92583
 C2392 C 0.33503 0.25171 0.93740
 C2393 C 0.32298 0.26161 0.95534
 C2394 C 0.30103 0.25299 0.96222
 H2395 H 0.33547 0.22582 0.91265
 H2396 H 0.35238 0.25808 0.93250
 H2397 H 0.33088 0.27579 0.96422
 H2398 H 0.29245 0.26092 0.97650
 H2399 H 0.26151 0.18344 0.91952
 H2400 H 0.24339 0.19770 0.95370
 C2401 C 0.79839 0.72831 0.93305
 C2402 C 0.78649 0.71024 0.92178
 C2403 C 0.76619 0.70052 0.93163
 C2404 C 0.75692 0.70899 0.95157
 C2405 C 0.76719 0.72791 0.96194
 C2406 C 0.78815 0.73767 0.95290
 C2407 C 0.82063 0.73678 0.92568
 C2408 C 0.83150 0.75505 0.93653
 C2409 C 0.82078 0.76494 0.95519
 C2410 C 0.79943 0.75624 0.96350
 H2411 H 0.83030 0.72905 0.91198
 H2412 H 0.84846 0.76143 0.93056
 H2413 H 0.82930 0.77911 0.96354
 H2414 H 0.79205 0.76398 0.97842
 H2415 H 0.75704 0.68652 0.92358
 H2416 H 0.74112 0.70117 0.95863
 C2417 C 0.80198 0.23047 0.43138
 C2418 C 0.79109 0.21158 0.42053
 C2419 C 0.77120 0.20121 0.43047
 C2420 C 0.76150 0.20964 0.45024
 C2421 C 0.77097 0.22906 0.46041
 C2422 C 0.79142 0.23960 0.45118
 C2423 C 0.82361 0.23999 0.42364
 C2424 C 0.83365 0.25884 0.43425
 C2425 C 0.82273 0.26831 0.45301
 C2426 C 0.80194 0.25869 0.46159
 H2427 H 0.83341 0.23269 0.40980
 H2428 H 0.85016 0.26600 0.42801
 H2429 H 0.83065 0.28289 0.46121
 H2430 H 0.79441 0.26616 0.47658
 H2431 H 0.76278 0.18665 0.42267
 H2432 H 0.74611 0.20122 0.45745
 C2433 C 0.72620 0.30308 0.43868
 C2434 C 0.71484 0.28952 0.42214
 C2435 C 0.71336 0.26569 0.42560
 C2436 C 0.72293 0.25528 0.44464
 C2437 C 0.73564 0.26803 0.46032
 C2438 C 0.73822 0.29201 0.45684
 C2439 C 0.72527 0.32739 0.43825
 C2440 C 0.73844 0.34022 0.45339
 C2441 C 0.75252 0.32919 0.46941
 C2442 C 0.75237 0.30531 0.47122
 H2443 H 0.71382 0.33679 0.42683
 H2444 H 0.73779 0.35882 0.45263
 H2445 H 0.76318 0.33918 0.48079
 H2446 H 0.76351 0.29732 0.48381
 H2447 H 0.70459 0.25491 0.41350
 H2448 H 0.72019 0.23707 0.44722
 C2449 C 0.72574 0.80116 0.93626
 C2450 C 0.71423 0.78714 0.92018
 C2451 C 0.71126 0.76370 0.92499
 C2452 C 0.71963 0.75406 0.94484
 C2453 C 0.73254 0.76710 0.96012
 C2454 C 0.73636 0.79071 0.95552
 C2455 C 0.72629 0.82537 0.93427
 C2456 C 0.73935 0.83853 0.94924
 C2457 C 0.75187 0.82794 0.96660
 C2458 C 0.75036 0.80427 0.96980
 H2459 H 0.71606 0.83454 0.92174
 H2460 H 0.73980 0.85704 0.94732
 H2461 H 0.76238 0.83815 0.97792
 H2462 H 0.76029 0.79667 0.98345
 H2463 H 0.70233 0.75260 0.91328
 H2464 H 0.71586 0.73620 0.94833
 C2465 C 0.20746 0.25516 0.92047
 C2466 C 0.21625 0.27680 0.91320
 C2467 C 0.23246 0.28851 0.92674
 C2468 C 0.23933 0.27968 0.94743
 C2469 C 0.22992 0.25906 0.95540
 C2470 C 0.21357 0.24678 0.94214
 C2471 C 0.19331 0.24127 0.90656
 C2472 C 0.18390 0.22068 0.91445
 C2473 C 0.18854 0.21339 0.93619
 C2474 C 0.20327 0.22624 0.94996
 H2475 H 0.18983 0.24578 0.88936
 H2476 H 0.17297 0.21032 0.90362
 H2477 H 0.18101 0.19750 0.94229
 H2478 H 0.20678 0.21982 0.96665
 H2479 H 0.23950 0.30493 0.92148
 H2480 H 0.25198 0.28911 0.95745
 C2481 C 0.22896 0.80077 0.43553
 C2482 C 0.21608 0.78783 0.41951
 C2483 C 0.21147 0.76460 0.42414
 C2484 C 0.21948 0.75415 0.44375
 C2485 C 0.23366 0.76607 0.45890
 C2486 C 0.23922 0.78935 0.45442
 C2487 C 0.23131 0.82488 0.43383
 C2488 C 0.24578 0.83683 0.44864
 C2489 C 0.25797 0.82511 0.46553
 C2490 C 0.25469 0.80160 0.46848
 H2491 H 0.22144 0.83492 0.42168
 H2492 H 0.24761 0.85526 0.44693
 H2493 H 0.26962 0.83435 0.47667
 H2494 H 0.26448 0.79304 0.48169
 H2495 H 0.20151 0.75427 0.41248
 H2496 H 0.21455 0.73654 0.44712
 C2497 C 0.69910 0.72704 0.57222
 C2498 C 0.71303 0.70990 0.58354
 C2499 C 0.73472 0.70248 0.57392
 C2500 C 0.74244 0.71122 0.55352
 C2501 C 0.72827 0.72692 0.54152
 C2502 C 0.70600 0.73431 0.55041
 C2503 C 0.67907 0.73793 0.58225
 C2504 C 0.66472 0.75339 0.57023
 C2505 C 0.67019 0.75864 0.54816
 C2506 C 0.69072 0.74935 0.53833
 H2507 H 0.67470 0.73536 0.59961
 H2508 H 0.64931 0.76141 0.57811
 H2509 H 0.65887 0.77049 0.53883
 H2510 H 0.69477 0.75443 0.52139
 H2511 H 0.74583 0.68964 0.58219
 H2512 H 0.75954 0.70549 0.54687
 C2513 C 0.75031 0.22068 0.08235
 C2514 C 0.72643 0.21322 0.08582
 C2515 C 0.71072 0.21263 0.06759
 C2516 C 0.71780 0.21997 0.04654
 C2517 C 0.74104 0.22777 0.04277
 C2518 C 0.75797 0.22654 0.06036
 C2519 C 0.76654 0.22345 0.10018
 C2520 C 0.79020 0.22962 0.09616
 C2521 C 0.79817 0.23313 0.07443
 C2522 C 0.78225 0.23159 0.05662
 H2523 H 0.76112 0.22149 0.11736
 H2524 H 0.80244 0.23160 0.11000
 H2525 H 0.81664 0.23759 0.07139
 H2526 H 0.78892 0.23482 0.03994
 H2527 H 0.69252 0.20681 0.06969
 H2528 H 0.70465 0.22055 0.03325
 C2529 C 0.19464 0.71236 0.06191
 C2530 C 0.21016 0.70377 0.07884
 C2531 C 0.23497 0.70415 0.07551
 C2532 C 0.24463 0.71375 0.05625
 C2533 C 0.22977 0.72328 0.03974
 C2534 C 0.20453 0.72247 0.04233
 C2535 C 0.16950 0.71079 0.06378
 C2536 C 0.15449 0.71992 0.04731
 C2537 C 0.16414 0.73061 0.02861
 C2538 C 0.18887 0.73186 0.02604
 H2539 H 0.16115 0.70224 0.07774
 H2540 H 0.13527 0.71869 0.04905
 H2541 H 0.15239 0.73782 0.01595
 H2542 H 0.19547 0.74040 0.01125
 H2543 H 0.24703 0.69754 0.08824
 H2544 H 0.26390 0.71409 0.05435
 C2545 C 0.24086 0.20705 0.57725
 C2546 C 0.21618 0.20915 0.58266
 C2547 C 0.20026 0.21880 0.56709
 C2548 C 0.20830 0.22638 0.54641
 C2549 C 0.23259 0.22489 0.54077
 C2550 C 0.24898 0.21444 0.55588
 C2551 C 0.25781 0.19841 0.59275
 C2552 C 0.28188 0.19601 0.58692
 C2553 C 0.28954 0.20212 0.56563
 C2554 C 0.27330 0.21119 0.55017
 H2555 H 0.25278 0.19370 0.60956
 H2556 H 0.29465 0.18930 0.59896
 H2557 H 0.30820 0.20000 0.56112
 H2558 H 0.27994 0.21570 0.53378
 H2559 H 0.18137 0.22045 0.57098
 H2560 H 0.19556 0.23421 0.53494
   
