data_POSCAR
  _audit_creation_date              2014-09-24
  _audit_creation_method            'ToBaCCo'
  _symmetry_space_group_name_H-M    'P1'
  _symmetry_Int_Tables_number       1
  _symmetry_cell_setting            triclinic
  loop_
  _symmetry_equiv_pos_as_xyz
 x,y,z
_cell_length_a 67.7295
_cell_length_b 67.6437
_cell_length_c 67.6918
_cell_angle_alpha 90.053700
_cell_angle_beta 90.095800
_cell_angle_gamma 90.083200
loop_
  _atom_site_label
  _atom_site_type_symbol
  _atom_site_fract_x
  _atom_site_fract_y
  _atom_site_fract_z
C1 C 0.30455 0.44533 0.92161
 N2 N 0.29673 0.42870 0.92969
 C3 C 0.30504 0.42027 0.94590
 N4 N 0.32144 0.42863 0.95397
 C5 C 0.32953 0.44526 0.94609
 N6 N 0.32094 0.45347 0.92989
 C7 C 0.44353 0.83176 0.44341
 N8 N 0.45166 0.82343 0.42705
 C9 C 0.44361 0.80702 0.41869
 N10 N 0.42716 0.79892 0.42684
 C11 C 0.41883 0.80699 0.44321
 N12 N 0.42709 0.82340 0.45136
 C13 C 0.94297 0.91870 0.80757
 N14 N 0.92654 0.92697 0.79957
 C15 C 0.91827 0.94332 0.80775
 N16 N 0.92658 0.95135 0.82419
 C17 C 0.94302 0.94329 0.83246
 N18 N 0.95108 0.92693 0.82401
 C19 C 0.44404 -0.08129 0.30581
 N20 N 0.45198 -0.07315 0.32240
 C21 C 0.44410 -0.05661 0.33061
 N22 N 0.42802 -0.04820 0.32206
 C23 C 0.41988 -0.05606 0.30546
 N24 N 0.42796 -0.07261 0.29747
 C25 C 0.80558 0.30515 0.32958
 N26 N 0.82211 0.29716 0.32153
 C27 C 0.83075 0.30546 0.30544
 N28 N 0.82270 0.32202 0.29745
 C29 C 0.80616 0.33022 0.30530
 N30 N 0.79774 0.32171 0.32139
 C31 C -0.19354 0.83109 0.80581
 N32 N -0.17696 0.82294 0.79805
 C33 C -0.16886 0.80646 0.80613
 N34 N -0.17749 0.79819 0.82224
 C35 C -0.19408 0.80613 0.83027
 N36 N -0.20197 0.82262 0.82193
 C37 C 0.94495 0.32961 0.44455
 N38 N 0.92880 0.32094 0.45275
 C39 C 0.92054 0.30455 0.44454
 N40 N 0.92857 0.29684 0.42785
 C41 C 0.94472 0.30525 0.41944
 N42 N 0.95278 0.32163 0.42786
 C43 C 0.44589 0.44527 0.82945
 N44 N 0.42964 0.45354 0.82103
 C45 C 0.42118 0.44543 0.80471
 N46 N 0.42911 0.42878 0.79679
 C47 C 0.44537 0.42031 0.80494
 N48 N 0.45363 0.42863 0.82126
 C49 C 0.80669 0.91942 0.94391
 N50 N 0.79862 0.92772 0.92750
 C51 C 0.80693 0.94388 0.91896
 N52 N 0.82359 0.95173 0.92698
 C53 C 0.83194 0.94369 0.94340
 N54 N 0.82334 0.92754 0.95172
 C55 C 0.30622 0.83082 0.30578
 N56 N 0.32277 0.82262 0.29794
 C57 C 0.33135 0.80657 0.30640
 N58 N 0.32323 0.79871 0.32297
 C59 C 0.30667 0.80665 0.33103
 N60 N 0.29830 0.82270 0.32236
 C61 C 0.80401 0.42084 0.44536
 N62 N 0.82021 0.42938 0.45362
 C63 C 0.82858 0.44567 0.44540
 N64 N 0.82063 0.45335 0.42865
 C65 C 0.80443 0.44501 0.42018
 N66 N 0.79625 0.42872 0.42861
 C67 C 0.94438 0.83126 -0.05646
 N68 N 0.92832 0.82248 -0.04821
 C69 C 0.92033 0.80587 -0.05621
 N70 N 0.92855 0.79803 -0.07274
 C71 C 0.94462 0.80653 -0.08127
 N72 N 0.95240 0.82315 -0.07300
 C73 C 0.30579 0.32988 0.80613
 N74 N 0.29782 0.32187 0.82270
 C75 C 0.30606 0.30573 0.83133
 N76 N 0.32253 0.29765 0.82323
 C77 C 0.33071 0.30546 0.80666
 N78 N 0.32227 0.32161 0.79824
 C79 C 0.16920 0.55584 0.55632
 N80 N 0.17729 0.54793 0.57290
 C81 C 0.19381 0.55590 0.58110
 N82 N 0.20220 0.57202 0.57257
 C83 C 0.19432 0.58012 0.55599
 N84 N 0.17779 0.57197 0.54799
 C85 C 0.58086 0.69412 0.05519
 N86 N 0.57263 0.67753 0.04735
 C87 C 0.55613 0.66944 0.05541
 N88 N 0.54793 0.67808 0.07155
 C89 C 0.55595 0.69467 0.07958
 N90 N 0.57245 0.70256 0.07133
 C91 C 0.69489 0.19568 0.67013
 N92 N 0.67863 0.20380 0.67859
 C93 C 0.67075 0.19595 0.69529
 N94 N 0.67927 0.17972 0.70345
 C95 C 0.69553 0.17139 0.69520
 N96 N 0.70321 0.17944 0.67850
 C97 C 1.08086 0.05479 0.19456
 N98 N 1.07246 0.04646 0.17828
 C99 C 1.05574 0.05408 0.17016
 N100 N 1.04741 0.07029 0.17860
 C101 C 1.05553 0.07883 0.19487
 N102 N 1.07226 0.07100 0.20272
 C103 C 0.05386 0.17045 1.05464
 N104 N 0.07019 0.17880 1.04646
 C105 C 0.07843 0.19533 1.05438
 N106 N 0.07021 0.20351 1.07075
 C107 C 0.05388 0.19543 1.07920
 N108 N 0.04584 0.17890 1.07100
 C109 C 0.17125 0.69549 0.69591
 N110 N 0.17959 0.70375 0.67964
 C111 C 0.19582 0.69558 0.67116
 N112 N 0.20365 0.67888 0.67909
 C113 C 0.19550 0.67041 0.69535
 N114 N 0.17927 0.67879 0.70363
 C115 C 1.19506 0.16990 0.19462
 N116 N 1.20323 0.17841 0.17840
 C117 C 1.19546 0.19516 0.17047
 N118 N 1.17925 0.20333 0.17904
 C119 C 1.17089 0.19502 0.19528
 N120 N 1.17886 0.17828 0.20293
 C121 C 0.66976 1.05559 0.55478
 N122 N 0.67827 1.04729 0.57098
 C123 C 0.69463 1.05539 0.57936
 N124 N 0.70248 1.07207 0.57140
 C125 C 0.69425 1.08065 0.55521
 N126 N 0.67789 1.07227 0.54703
 C127 C 0.55520 0.55509 0.16996
 N128 N 0.54698 0.57137 0.17833
 C129 C 0.55473 0.57942 0.19503
 N130 N 0.57099 0.57105 0.20331
 C131 C 0.57940 0.55475 0.19514
 N132 N 0.57144 0.54691 0.17844
 C133 C 0.67085 0.69551 0.19451
 N134 N 0.67928 0.67922 0.20267
 C135 C 0.69544 0.67076 0.19434
 N136 N 0.70310 0.67872 0.17760
 C137 C 0.69487 0.69500 0.16923
 N138 N 0.67872 0.70327 0.17776
 C139 C 0.17016 0.05419 1.05530
 N140 N 0.17868 0.07050 1.04722
 C141 C 0.19496 0.07884 1.05551
 N142 N 0.20272 0.07074 1.07216
 C143 C 0.19446 0.05443 1.08051
 N144 N 0.17819 0.04630 1.07194
 C145 C 0.57948 0.19554 0.55463
 N146 N 0.57096 0.17928 0.54645
 C147 C 0.55424 0.17140 0.55423
 N148 N 0.54608 0.17993 0.57045
 C149 C 0.55439 0.19621 0.57882
 N150 N 0.57113 0.20388 0.57085
 C151 C 0.08062 0.55556 0.69436
 N152 N 0.07258 0.54758 0.67776
 C153 C 0.05611 0.55550 0.66947
 N154 N 0.04773 0.57166 0.67793
 C155 C 0.05556 0.57983 0.69454
 N156 N 0.07204 0.57172 0.70262
 C157 C 0.66963 0.55601 0.05503
 N158 N 0.67819 0.54760 0.07112
 C159 C 0.69475 0.55550 0.07929
 N160 N 0.70270 0.57208 0.07123
 C161 C 0.69435 0.58070 0.05514
 N162 N 0.67779 0.57259 0.04716
 C163 C 0.05489 0.69500 0.57949
 N164 N 0.04701 0.67833 0.57147
 C165 C 0.05510 0.66995 0.55513
 N166 N 0.07132 0.67837 0.54687
 C167 C 0.07941 0.69503 0.55469
 N168 N 0.07113 0.70322 0.57103
 C169 C 0.55364 1.05366 0.67098
 N170 N 0.57004 1.04567 0.67940
 C171 C 0.57819 1.05376 0.69590
 N172 N 0.56980 1.07011 0.70396
 C173 C 0.55340 1.07830 0.69581
 N174 N 0.54546 1.07000 0.67932
 C175 C 0.44380 0.33033 0.94446
 N176 N 0.45173 0.32215 0.92791
 C177 C 0.44343 0.30597 0.91934
 N178 N 0.42694 0.29796 0.92747
 C179 C 0.41880 0.30586 0.94401
 N180 N 0.42731 0.32205 0.95237
 C181 C 0.94441 0.44382 0.33052
 N182 N 0.92791 0.45186 0.32235
 C183 C 0.91936 0.44368 0.30611
 N184 N 0.92745 0.42720 0.29802
 C185 C 0.94395 0.41895 0.30591
 N186 N 0.95229 0.42733 0.32216
 C187 C 0.30608 0.94473 0.41983
 N188 N 0.29806 0.92832 0.42816
 C189 C 0.30647 0.91984 0.44428
 N190 N 0.32316 0.92791 0.45202
 C191 C 0.33146 0.94432 0.44389
 N192 N 0.32279 0.95260 0.42776
 O193 O 0.27580 0.44758 0.75166
 O194 O 0.27294 0.45396 0.71787
 O195 O 0.30277 0.49898 0.77590
 O196 O 0.29492 0.53422 0.77514
 O197 O 0.25125 0.47494 0.80328
 O198 O 0.21680 0.47623 0.79598
 O199 O 0.24895 0.55177 0.72468
 O200 O 0.28204 0.54694 0.72870
 O201 O 0.22457 0.50162 0.69896
 O202 O 0.22596 0.46599 0.70576
 O203 O 0.19844 0.52553 0.74913
 O204 O 0.20555 0.52422 0.78479
 O205 O 0.22528 0.55185 0.74860
 O206 O 0.22703 0.54483 0.78490
 O207 O 0.19826 0.50162 0.72546
 O208 O 0.20582 0.46527 0.72760
 O209 O 0.24810 0.52570 0.69903
 O210 O 0.28394 0.51939 0.70576
 O211 O 0.25168 0.44737 0.77518
 O212 O 0.21665 0.45467 0.77366
 O213 O 0.27500 0.49883 0.80344
 O214 O 0.27313 0.53368 0.79617
 O215 O 0.30282 0.47519 0.75205
 O216 O 0.29484 0.47965 0.71648
 Zr217 Zr 0.27421 0.47627 0.73982
 O218 O 0.25645 0.49347 0.72094
 Zr219 Zr 0.27407 0.51091 0.77478
 O220 O 0.25676 0.52968 0.75710
 Zr221 Zr 0.23943 0.47605 0.77452
 O222 O 0.22038 0.49357 0.75725
 Zr223 Zr 0.26136 0.52348 0.72708
 O224 O 0.28080 0.50638 0.74470
 Zr225 Zr 0.22648 0.48878 0.72720
 O226 O 0.24414 0.46968 0.74450
 Zr227 Zr 0.22674 0.52366 0.76184
 O228 O 0.24402 0.50615 0.78118
 O229 O 0.26926 0.48106 0.76974
 O230 O 0.23131 0.51881 0.73185
 C231 C 0.26564 0.43915 0.76529
 C232 C 0.31113 0.48524 0.76586
 C233 C 0.26497 0.48501 0.81170
 C234 C 0.23491 0.55997 0.73440
 C235 C 0.23404 0.51591 0.69087
 C236 C 0.19020 0.51581 0.73508
 H237 H 0.25969 0.49036 0.70704
 H238 H 0.20654 0.49035 0.76055
 H239 H 0.27768 0.47263 0.77821
 H240 H 0.26020 0.54358 0.76010
 H241 H 0.29483 0.54102 0.73254
 H242 H 0.30333 0.53258 0.76332
 H243 H 0.19673 0.46750 0.73880
 H244 H 0.21765 0.44798 0.76068
 H245 H 0.28336 0.53065 0.69641
 H246 H 0.30500 0.46915 0.71764
 H247 H 0.19743 0.51211 0.78363
 H248 H 0.21705 0.48952 0.80212
 H249 H 0.25947 0.44829 0.71832
 H250 H 0.23810 0.46716 0.69775
 H251 H 0.26007 0.53273 0.80266
 H252 H 0.23859 0.55354 0.78289
 O253 O 0.30249 -0.00153 0.27505
 O254 O 0.29614 0.03227 0.27222
 O255 O 0.25080 -0.02529 0.30235
 O256 O 0.21822 -0.02593 0.29655
 O257 O 0.27513 -0.05322 0.25065
 O258 O 0.27347 -0.04609 0.21616
 O259 O 0.19826 0.02551 0.24860
 O260 O 0.20389 0.02173 0.28219
 O261 O 0.24834 0.05110 0.22393
 O262 O 0.28387 0.04421 0.22512
 O263 O 0.22413 0.00072 0.19792
 O264 O 0.22507 -0.03458 0.20486
 O265 O 0.19805 0.00160 0.22484
 O266 O 0.20522 -0.03507 0.22697
 O267 O 0.24800 0.02443 0.19763
 O268 O 0.28437 0.02226 0.20501
 O269 O 0.22435 0.05113 0.24745
 O270 O 0.23098 0.04479 0.28318
 O271 O 0.30255 -0.02513 0.25092
 O272 O 0.29499 -0.02366 0.21584
 O273 O 0.25145 -0.05325 0.27450
 O274 O 0.21573 -0.04525 0.27132
 O275 O 0.27505 -0.00190 0.30213
 O276 O 0.27059 0.03368 0.29423
 Zr277 Zr 0.27384 0.01032 0.27353
 O278 O 0.25661 0.02919 0.25581
 Zr279 Zr 0.23919 -0.02464 0.27350
 O280 O 0.22026 -0.00688 0.25635
 Zr281 Zr 0.27384 -0.02451 0.23876
 O282 O 0.25618 -0.00729 0.21979
 Zr283 Zr 0.22665 0.02317 0.26083
 O284 O 0.24379 0.00549 0.28011
 Zr285 Zr 0.26106 0.02280 0.22580
 O286 O 0.28025 0.00556 0.24343
 Zr287 Zr 0.22615 -0.01180 0.22629
 O288 O 0.24382 -0.03116 0.24344
 O289 O 0.26900 -0.01964 0.26862
 O290 O 0.23109 0.01823 0.23077
 C291 C 0.31084 -0.01521 0.26488
 C292 C 0.26482 -0.01546 0.31058
 C293 C 0.26521 -0.06156 0.26448
 C294 C 0.19001 0.01582 0.23451
 C295 C 0.23412 0.05926 0.23341
 C296 C 0.23379 0.01475 0.18962
 H297 H 0.25979 0.04311 0.25900
 H298 H 0.25926 -0.01066 0.20592
 H299 H 0.27744 -0.02804 0.27709
 H300 H 0.20638 -0.00981 0.25975
 H301 H 0.21018 0.01751 0.29471
 H302 H 0.20799 -0.01597 0.29351
 H303 H 0.28204 0.01102 0.19594
 H304 H 0.30176 -0.01072 0.21690
 H305 H 0.21974 0.05415 0.28263
 H306 H 0.28114 0.03255 0.30434
 H307 H 0.23753 -0.03408 0.19729
 H308 H 0.26024 -0.05231 0.21656
 H309 H 0.30172 0.03178 0.25873
 H310 H 0.28287 0.05222 0.23731
 H311 H 0.21805 -0.05312 0.25922
 H312 H 0.19601 -0.03249 0.23800
 O313 O 0.50152 0.69787 0.22416
 O314 O 0.46777 0.70424 0.22677
 O315 O 0.52575 0.74929 0.19721
 O316 O 0.52480 0.78457 0.20507
 O317 O 0.55312 0.72538 0.24870
 O318 O 0.54591 0.72682 0.28321
 O319 O 0.47438 0.80203 0.25101
 O320 O 0.47843 0.79719 0.21787
 O321 O 0.44885 0.75190 0.27528
 O322 O 0.45572 0.71623 0.27379
 O323 O 0.49893 0.77595 0.30153
 O324 O 0.53458 0.77470 0.29451
 O325 O 0.49830 0.80220 0.27475
 O326 O 0.53462 0.79531 0.27304
 O327 O 0.47531 0.75200 0.30161
 O328 O 0.47754 0.71563 0.29405
 O329 O 0.44884 0.77593 0.25174
 O330 O 0.45554 0.76959 0.21588
 O331 O 0.52505 0.69777 0.24835
 O332 O 0.52367 0.70517 0.28334
 O333 O 0.55322 0.74928 0.22501
 O334 O 0.54588 0.78413 0.22695
 O335 O 0.50200 0.72540 0.19708
 O336 O 0.46640 0.72990 0.20489
 Zr337 Zr 0.48969 0.72656 0.22564
 O338 O 0.47079 0.74373 0.24338
 Zr339 Zr 0.52455 0.76130 0.22592
 O340 O 0.50686 0.78004 0.24321
 Zr341 Zr 0.52441 0.72649 0.26054
 O342 O 0.50711 0.74397 0.27958
 Zr343 Zr 0.47686 0.77375 0.23852
 O344 O 0.49450 0.75668 0.21909
 Zr345 Zr 0.47708 0.73910 0.27338
 O346 O 0.49441 0.72003 0.25574
 Zr347 Zr 0.51163 0.77407 0.27326
 O348 O 0.53099 0.75660 0.25600
 O349 O 0.51958 0.73143 0.23069
 O350 O 0.48167 0.76912 0.26858
 C351 C 0.51514 0.68948 0.23438
 C352 C 0.51579 0.73546 0.18882
 C353 C 0.56150 0.73545 0.23500
 C354 C 0.48406 0.81025 0.26513
 C355 C 0.44072 0.76617 0.26581
 C356 C 0.48489 0.76623 0.30971
 H357 H 0.45690 0.74058 0.24011
 H358 H 0.51042 0.74078 0.29344
 H359 H 0.52805 0.72299 0.22230
 H360 H 0.50981 0.79395 0.23980
 H361 H 0.48227 0.79127 0.20508
 H362 H 0.51303 0.78282 0.19658
 H363 H 0.48871 0.71793 0.30320
 H364 H 0.51068 0.69850 0.28239
 H365 H 0.44617 0.78083 0.21645
 H366 H 0.46759 0.71941 0.19471
 H367 H 0.53346 0.76259 0.30261
 H368 H 0.55205 0.74011 0.28291
 H369 H 0.46814 0.69865 0.24027
 H370 H 0.44759 0.71747 0.26170
 H371 H 0.55239 0.78320 0.24002
 H372 H 0.53255 0.80402 0.26149
 O373 O 0.00144 0.69758 0.72475
 O374 O -0.03232 0.70398 0.72752
 O375 O 0.02568 0.74888 0.69778
 O376 O 0.02480 0.78419 0.70560
 O377 O 0.05311 0.72504 0.74932
 O378 O 0.04591 0.72642 0.78380
 O379 O -0.02554 0.80177 0.75169
 O380 O -0.02149 0.79696 0.71854
 O381 O -0.05110 0.75172 0.77595
 O382 O -0.04429 0.71608 0.77458
 O383 O -0.00087 0.77574 0.80214
 O384 O 0.03478 0.77438 0.79502
 O385 O -0.00155 0.80193 0.77537
 O386 O 0.03477 0.79500 0.77354
 O387 O -0.02458 0.75187 0.80229
 O388 O -0.02239 0.71545 0.79477
 O389 O -0.05110 0.77570 0.75237
 O390 O -0.04440 0.76937 0.71651
 O391 O 0.02502 0.69745 0.74890
 O392 O 0.02360 0.70483 0.78393
 O393 O 0.05321 0.74890 0.72558
 O394 O 0.04593 0.78374 0.72743
 O395 O 0.00185 0.72508 0.69770
 O396 O -0.03372 0.72963 0.70562
 Zr397 Zr -0.01037 0.72628 0.72630
 O398 O -0.02920 0.74350 0.74407
 Zr399 Zr 0.02456 0.76094 0.72648
 O400 O 0.00694 0.77975 0.74380
 Zr401 Zr 0.02440 0.72616 0.76114
 O402 O 0.00718 0.74371 0.78020
 Zr403 Zr -0.02308 0.77350 0.73917
 O404 O -0.00551 0.75638 0.71971
 Zr405 Zr -0.02287 0.73889 0.77407
 O406 O -0.00563 0.71976 0.75640
 Zr407 Zr 0.01175 0.77379 0.77384
 O408 O 0.03103 0.75625 0.75655
 O409 O 0.01954 0.73110 0.73130
 O410 O -0.01823 0.76889 0.76922
 C411 C 0.01509 0.68918 0.73492
 C412 C 0.01565 0.73509 0.68941
 C413 C 0.06149 0.73510 0.73561
 C414 C -0.01584 0.80997 0.76580
 C415 C -0.05922 0.76596 0.76644
 C416 C -0.01494 0.76609 0.81036
 H417 H -0.04310 0.74037 0.74082
 H418 H 0.01051 0.74053 0.79406
 H419 H 0.02799 0.72265 0.72289
 H420 H 0.00991 0.79364 0.74037
 H421 H -0.01764 0.79106 0.70575
 H422 H 0.01303 0.78243 0.69711
 H423 H -0.01122 0.71777 0.80392
 H424 H 0.01061 0.69817 0.78296
 H425 H -0.05375 0.78062 0.71708
 H426 H -0.03258 0.71912 0.69545
 H427 H 0.03360 0.76233 0.80319
 H428 H 0.05204 0.73971 0.78354
 H429 H -0.03186 0.69836 0.74101
 H430 H -0.05233 0.71722 0.76243
 H431 H 0.05241 0.78287 0.74051
 H432 H 0.03265 0.80375 0.76203
 O433 O 0.00137 0.05221 0.02632
 O434 O -0.03235 0.04573 0.02372
 O435 O 0.02539 0.00021 0.05306
 O436 O 0.02585 -0.03236 0.04699
 O437 O 0.05290 0.02510 0.00147
 O438 O 0.04552 0.02385 -0.03297
 O439 O -0.02575 -0.05200 -0.00097
 O440 O -0.02184 -0.04664 0.03270
 O441 O -0.05146 -0.00170 -0.02515
 O442 O -0.04459 0.03394 -0.02351
 O443 O -0.00143 -0.02555 -0.05144
 O444 O 0.03398 -0.02445 -0.04467
 O445 O -0.00202 -0.05187 -0.02482
 O446 O 0.03457 -0.04464 -0.02282
 O447 O -0.02508 -0.00168 -0.05144
 O448 O -0.02277 0.03471 -0.04373
 O449 O -0.05134 -0.02602 -0.00192
 O450 O -0.04491 -0.01963 0.03390
 O451 O 0.02480 0.05256 0.00211
 O452 O 0.02317 0.04533 -0.03299
 O453 O 0.05307 0.00111 0.02507
 O454 O 0.04498 -0.03459 0.02167
 O455 O 0.00205 0.02444 0.05320
 O456 O -0.03359 0.01988 0.04542
 Zr457 Zr -0.01042 0.02346 0.02465
 O458 O -0.02940 0.00636 0.00682
 Zr459 Zr 0.02446 -0.01114 0.02412
 O460 O 0.00661 -0.02995 0.00686
 Zr461 Zr 0.02413 0.02391 -0.01027
 O462 O 0.00680 0.00640 -0.02936
 Zr463 Zr -0.02338 -0.02368 0.01151
 O464 O -0.00558 -0.00668 0.03090
 Zr465 Zr -0.02320 0.01114 -0.02317
 O466 O -0.00586 0.03020 -0.00542
 Zr467 Zr 0.01135 -0.02372 -0.02316
 O468 O 0.03079 -0.00617 -0.00591
 O469 O 0.01947 0.01875 0.01956
 O470 O -0.01860 -0.01889 -0.01851
 C471 C 0.01493 0.06072 0.01614
 C472 C 0.01566 0.01414 0.06148
 C473 C 0.06133 0.01499 0.01512
 C474 C -0.01616 -0.06007 -0.01519
 C475 C -0.05951 -0.01614 -0.01588
 C476 C -0.01552 -0.01587 -0.05959
 H477 H -0.04329 0.00946 0.01008
 H478 H 0.01006 0.00963 -0.04321
 H479 H 0.02794 0.02715 0.02805
 H480 H 0.00956 -0.04388 0.01011
 H481 H -0.01759 -0.04043 0.04526
 H482 H 0.01586 -0.04257 0.04390
 H483 H -0.01168 0.03242 -0.05294
 H484 H 0.01023 0.05201 -0.03188
 H485 H -0.05425 -0.03092 0.03325
 H486 H -0.03236 0.03031 0.05567
 H487 H 0.03325 -0.01201 -0.05229
 H488 H 0.05166 0.01057 -0.03280
 H489 H -0.03210 0.05136 0.01023
 H490 H -0.05262 0.03267 -0.01139
 H491 H 0.05275 -0.03217 0.00954
 H492 H 0.03210 -0.05394 -0.01183
 O493 O -0.00131 0.47376 0.44732
 O494 O 0.03248 0.47651 0.45376
 O495 O -0.02562 0.44692 0.49857
 O496 O -0.02456 0.45478 0.53386
 O497 O -0.05282 0.49853 0.47469
 O498 O -0.04543 0.53300 0.47592
 O499 O 0.02589 0.50083 0.55147
 O500 O 0.02176 0.46768 0.54666
 O501 O 0.05153 0.52505 0.50142
 O502 O 0.04472 0.52360 0.46582
 O503 O 0.00145 0.55137 0.52523
 O504 O -0.03423 0.54426 0.52387
 O505 O 0.00204 0.52459 0.55152
 O506 O -0.03426 0.52286 0.54453
 O507 O 0.02508 0.55146 0.50138
 O508 O 0.02288 0.54378 0.46503
 O509 O 0.05146 0.50151 0.52544
 O510 O 0.04463 0.46563 0.51916
 O511 O -0.02480 0.49793 0.44712
 O512 O -0.02316 0.53301 0.45439
 O513 O -0.05300 0.47483 0.49859
 O514 O -0.04562 0.47662 0.53337
 O515 O -0.00180 0.44676 0.47484
 O516 O 0.03381 0.45462 0.47944
 Zr517 Zr 0.01056 0.47535 0.47601
 O518 O 0.02949 0.49314 0.49322
 Zr519 Zr -0.02431 0.47564 0.51060
 O520 O -0.00659 0.49299 0.52938
 Zr521 Zr -0.02405 0.51027 0.47577
 O522 O -0.00672 0.52935 0.49329
 Zr523 Zr 0.02340 0.48831 0.52321
 O524 O 0.00572 0.46883 0.50610
 Zr525 Zr 0.02329 0.52316 0.48854
 O526 O 0.00594 0.50547 0.46943
 Zr527 Zr -0.01128 0.52305 0.52336
 O528 O -0.03065 0.50574 0.50585
 O529 O -0.01933 0.48040 0.48077
 O530 O 0.01868 0.51839 0.51854
 C531 C -0.01495 0.48392 0.43890
 C532 C -0.01565 0.43850 0.48482
 C533 C -0.06127 0.48487 0.48479
 C534 C 0.01624 0.51496 0.55963
 C535 C 0.05963 0.51556 0.51570
 C536 C 0.01548 0.55959 0.51553
 H537 H 0.04337 0.48986 0.49013
 H538 H -0.01000 0.54321 0.49008
 H539 H -0.02784 0.47200 0.47234
 H540 H -0.00956 0.48959 0.54327
 H541 H 0.01784 0.45488 0.54076
 H542 H -0.01286 0.44623 0.53208
 H543 H 0.01172 0.55292 0.46725
 H544 H -0.01021 0.53195 0.44772
 H545 H 0.05400 0.46621 0.53042
 H546 H 0.03261 0.44443 0.46895
 H547 H -0.03302 0.55242 0.51182
 H548 H -0.05153 0.53281 0.48919
 H549 H 0.03207 0.48999 0.44811
 H550 H 0.05268 0.51141 0.46698
 H551 H -0.05202 0.48974 0.53252
 H552 H -0.03222 0.51132 0.55326
 O553 O 0.55254 0.02577 0.50140
 O554 O 0.54621 0.02291 0.46761
 O555 O 0.50111 0.05256 0.52544
 O556 O 0.46598 0.04458 0.52464
 O557 O 0.52520 0.00107 0.55294
 O558 O 0.52395 -0.03343 0.54565
 O559 O 0.44854 -0.00150 0.47401
 O560 O 0.45333 0.03166 0.47808
 O561 O 0.49865 -0.02571 0.44852
 O562 O 0.53425 -0.02420 0.45547
 O563 O 0.47470 -0.05195 0.49860
 O564 O 0.47596 -0.04491 0.53423
 O565 O 0.44844 -0.02520 0.49794
 O566 O 0.45545 -0.02336 0.53435
 O567 O 0.49858 -0.05204 0.47500
 O568 O 0.53491 -0.04441 0.47732
 O569 O 0.47459 -0.00223 0.44850
 O570 O 0.48088 0.03367 0.45524
 O571 O 0.55276 0.00161 0.52492
 O572 O 0.54549 -0.03350 0.52337
 O573 O 0.50132 0.02475 0.55301
 O574 O 0.46649 0.02268 0.54560
 O575 O 0.52489 0.05272 0.50168
 O576 O 0.52053 0.04471 0.46610
 Zr577 Zr 0.52389 0.02407 0.48946
 O578 O 0.50676 0.00624 0.47052
 Zr579 Zr 0.48926 0.02377 0.52430
 O580 O 0.47054 0.00640 0.50655
 Zr581 Zr 0.52412 -0.01076 0.52418
 O582 O 0.50664 -0.02990 0.50685
 Zr583 Zr 0.47677 0.01104 0.47654
 O584 O 0.49381 0.03055 0.49424
 Zr585 Zr 0.51145 -0.02377 0.47682
 O586 O 0.53050 -0.00601 0.49417
 Zr587 Zr 0.47657 -0.02363 0.51132
 O588 O 0.49404 -0.00630 0.53072
 O589 O 0.51909 0.01909 0.51937
 O590 O 0.48146 -0.01902 0.48135
 C591 C 0.56097 0.01563 0.51505
 C592 C 0.51482 0.06100 0.51543
 C593 C 0.51512 0.01476 0.56133
 C594 C 0.44036 -0.01561 0.48368
 C595 C 0.48437 -0.01628 0.44038
 C596 C 0.48439 -0.06015 0.48456
 H597 H 0.50988 0.00948 0.45663
 H598 H 0.50985 -0.04375 0.51016
 H599 H 0.52749 0.02755 0.52786
 H600 H 0.45665 0.00980 0.50949
 H601 H 0.45923 0.04450 0.48190
 H602 H 0.46752 0.05292 0.51276
 H603 H 0.53264 -0.05354 0.48849
 H604 H 0.55216 -0.03247 0.51041
 H605 H 0.46964 0.03307 0.44585
 H606 H 0.53098 0.05494 0.46729
 H607 H 0.48811 -0.05292 0.53318
 H608 H 0.51066 -0.03325 0.55172
 H609 H 0.55185 0.00943 0.46805
 H610 H 0.53306 -0.01206 0.44743
 H611 H 0.46750 0.00964 0.55215
 H612 H 0.44664 -0.01191 0.53220
 O613 O 0.47416 0.44703 -0.00129
 O614 O 0.47703 0.45347 0.03248
 O615 O 0.44709 0.49880 -0.02516
 O616 O 0.45298 0.53138 -0.02582
 O617 O 0.49883 0.47427 -0.05291
 O618 O 0.53323 0.47564 -0.04557
 O619 O 0.50097 0.55139 0.02569
 O620 O 0.46737 0.54586 0.02184
 O621 O 0.52545 0.50126 0.05142
 O622 O 0.52417 0.46569 0.04460
 O623 O 0.55151 0.52524 0.00112
 O624 O 0.54455 0.52412 -0.03424
 O625 O 0.52472 0.55141 0.00185
 O626 O 0.52262 0.54415 -0.03474
 O627 O 0.55175 0.50143 0.02485
 O628 O 0.54425 0.46500 0.02269
 O629 O 0.50203 0.52537 0.05134
 O630 O 0.46630 0.51882 0.04492
 O631 O 0.49827 0.44681 -0.02482
 O632 O 0.53336 0.45419 -0.02315
 O633 O 0.47504 0.49804 -0.05303
 O634 O 0.47819 0.53377 -0.04499
 O635 O 0.44720 0.47463 -0.00172
 O636 O 0.45515 0.47915 0.03385
 Zr637 Zr 0.47580 0.47575 0.01054
 O638 O 0.49357 0.49301 0.02943
 Zr639 Zr 0.47597 0.51032 -0.02442
 O640 O 0.49316 0.52927 -0.00666
 Zr641 Zr 0.51057 0.47550 -0.02413
 O642 O 0.52959 0.49318 -0.00691
 Zr643 Zr 0.48865 0.52300 0.02337
 O644 O 0.46933 0.50584 0.00566
 Zr645 Zr 0.52355 0.48843 0.02315
 O646 O 0.50587 0.46921 0.00590
 Zr647 Zr 0.52318 0.52325 -0.01148
 O648 O 0.50599 0.50555 -0.03084
 O649 O 0.48074 0.48047 -0.01940
 O650 O 0.51868 0.51843 0.01852
 C651 C 0.48429 0.43859 -0.01493
 C652 C 0.43880 0.48487 -0.01530
 C653 C 0.48511 0.48428 -0.06132
 C654 C 0.51509 0.55955 0.01602
 C655 C 0.51602 0.51557 0.05952
 C656 C 0.55979 0.51561 0.01518
 H657 H 0.49036 0.48988 0.04334
 H658 H 0.54344 0.49003 -0.01023
 H659 H 0.47225 0.47205 -0.02784
 H660 H 0.48981 0.54318 -0.00961
 H661 H 0.45484 0.53958 0.01763
 H662 H 0.45600 0.54160 -0.01582
 H663 H 0.55334 0.46729 0.01150
 H664 H 0.53225 0.44747 -0.01022
 H665 H 0.46688 0.53012 0.05426
 H666 H 0.44499 0.46862 0.03270
 H667 H 0.55226 0.51173 -0.03353
 H668 H 0.53300 0.48890 -0.05173
 H669 H 0.49050 0.44784 0.03205
 H670 H 0.51195 0.46671 0.05252
 H671 H 0.49032 0.53144 -0.05279
 H672 H 0.51159 0.55339 -0.03223
 O673 O 0.75119 0.27505 0.44708
 O674 O 0.71744 0.27234 0.45338
 O675 O 0.77505 0.30228 0.49891
 O676 O 0.77584 0.29643 0.53145
 O677 O 0.80263 0.25030 0.47443
 O678 O 0.79519 0.21585 0.47596
 O679 O 0.72407 0.24890 0.55134
 O680 O 0.72804 0.28244 0.54570
 O681 O 0.69822 0.22422 0.50121
 O682 O 0.70511 0.22532 0.46563
 O683 O 0.74832 0.19794 0.52538
 O684 O 0.78361 0.20462 0.52443
 O685 O 0.74776 0.22498 0.55151
 O686 O 0.78439 0.22681 0.54425
 O687 O 0.72464 0.19773 0.50150
 O688 O 0.72684 0.20504 0.46513
 O689 O 0.69842 0.24777 0.52526
 O690 O 0.70500 0.28348 0.51862
 O691 O 0.77456 0.25077 0.44696
 O692 O 0.77279 0.21568 0.45444
 O693 O 0.80284 0.27423 0.49813
 O694 O 0.79484 0.27112 0.53386
 O695 O 0.75168 0.30217 0.47465
 O696 O 0.71611 0.29436 0.47898
 Zr697 Zr 0.73933 0.27358 0.47573
 O698 O 0.72035 0.25597 0.49295
 Zr699 Zr 0.77427 0.27339 0.51039
 O700 O 0.75642 0.25636 0.52930
 Zr701 Zr 0.77384 0.23861 0.47566
 O702 O 0.75651 0.21973 0.49331
 Zr703 Zr 0.72643 0.26101 0.52293
 O704 O 0.74423 0.28018 0.50580
 Zr705 Zr 0.72650 0.22590 0.48847
 O706 O 0.74385 0.24342 0.46928
 Zr707 Zr 0.76108 0.22624 0.52337
 O708 O 0.78054 0.24327 0.50571
 O709 O 0.76923 0.26853 0.48056
 O710 O 0.73112 0.23089 0.51846
 C711 C 0.76476 0.26479 0.43869
 C712 C 0.76523 0.31057 0.48495
 C713 C 0.81108 0.26410 0.48438
 C714 C 0.73367 0.23478 0.55959
 C715 C 0.69018 0.23377 0.51546
 C716 C 0.73424 0.18969 0.51572
 H717 H 0.70648 0.25924 0.48978
 H718 H 0.75976 0.20583 0.49021
 H719 H 0.77768 0.27696 0.47214
 H720 H 0.75939 0.25977 0.54320
 H721 H 0.73234 0.29494 0.53940
 H722 H 0.76576 0.29356 0.54158
 H723 H 0.73803 0.19594 0.46742
 H724 H 0.75986 0.21679 0.44769
 H725 H 0.69566 0.28300 0.52987
 H726 H 0.71731 0.30448 0.46845
 H727 H 0.78307 0.19706 0.51193
 H728 H 0.80139 0.21618 0.48921
 H729 H 0.71781 0.25882 0.44780
 H730 H 0.69720 0.23755 0.46666
 H731 H 0.80264 0.25898 0.53149
 H732 H 0.78192 0.23787 0.55348
 O733 O 0.77602 0.80293 -0.00184
 O734 O 0.77331 0.79655 0.03192
 O735 O 0.80286 0.75103 -0.02575
 O736 O 0.79686 0.71846 -0.02642
 O737 O 0.75120 0.77577 -0.05343
 O738 O 0.71676 0.77435 -0.04616
 O739 O 0.74910 0.69869 0.02513
 O740 O 0.78269 0.70417 0.02130
 O741 O 0.72476 0.74890 0.05087
 O742 O 0.72615 0.78450 0.04405
 O743 O 0.69850 0.72490 0.00061
 O744 O 0.70522 0.72589 -0.03468
 O745 O 0.72525 0.69867 0.00131
 O746 O 0.72726 0.70594 -0.03534
 O747 O 0.69841 0.74876 0.02433
 O748 O 0.70598 0.78518 0.02215
 O749 O 0.74811 0.72472 0.05078
 O750 O 0.78385 0.73123 0.04439
 O751 O 0.75181 0.80319 -0.02534
 O752 O 0.71670 0.79585 -0.02371
 O753 O 0.77490 0.75191 -0.05357
 O754 O 0.77155 0.71614 -0.04558
 O755 O 0.80291 0.77527 -0.00235
 O756 O 0.79511 0.77081 0.03326
 Zr757 Zr 0.77436 0.77424 0.00998
 O758 O 0.75662 0.75707 0.02889
 Zr759 Zr 0.77396 0.73961 -0.02499
 O760 O 0.75680 0.72073 -0.00721
 Zr761 Zr 0.73946 0.77452 -0.02469
 O762 O 0.72046 0.75691 -0.00745
 Zr763 Zr 0.76144 0.72705 0.02282
 O764 O 0.78074 0.74412 0.00509
 Zr765 Zr 0.72662 0.76171 0.02260
 O766 O 0.74429 0.78084 0.00534
 Zr767 Zr 0.72678 0.72682 -0.01202
 O768 O 0.74393 0.74444 -0.03140
 O769 O 0.76929 0.76947 -0.01995
 O770 O 0.73141 0.73168 0.01797
 C771 C 0.76586 0.81138 -0.01547
 C772 C 0.81122 0.76498 -0.01594
 C773 C 0.76492 0.76575 -0.06183
 C774 C 0.73493 0.69053 0.01547
 C775 C 0.73415 0.73456 0.05895
 C776 C 0.69030 0.73457 0.01468
 H777 H 0.75988 0.76021 0.04279
 H778 H 0.70661 0.76009 -0.01076
 H779 H 0.77777 0.77788 -0.02837
 H780 H 0.76011 0.70681 -0.01016
 H781 H 0.79521 0.71042 0.01707
 H782 H 0.79387 0.70828 -0.01640
 H783 H 0.69683 0.78288 0.01097
 H784 H 0.71786 0.80260 -0.01078
 H785 H 0.78326 0.71996 0.05373
 H786 H 0.80531 0.78129 0.03208
 H787 H 0.69774 0.73842 -0.03414
 H788 H 0.71703 0.76110 -0.05238
 H789 H 0.75983 0.80219 0.03154
 H790 H 0.73836 0.78341 0.05201
 H791 H 0.75946 0.71858 -0.05345
 H792 H 0.73820 0.69661 -0.03278
 O793 O 1.05264 0.22409 0.24849
 O794 O 1.04625 0.22675 0.28223
 O795 O 1.00088 0.19676 0.22453
 O796 O 0.96831 0.20253 0.22399
 O797 O 1.02528 0.24860 0.19683
 O798 O 1.02381 0.28306 0.20413
 O799 O 0.94847 0.25047 0.27548
 O800 O 0.95401 0.21685 0.27163
 O801 O 0.99860 0.27515 0.30118
 O802 O 1.03417 0.27389 0.29432
 O803 O 0.97450 0.30120 0.25097
 O804 O 0.97552 0.29429 0.21557
 O805 O 0.94836 0.27429 0.25167
 O806 O 0.95548 0.27228 0.21508
 O807 O 0.99837 0.30146 0.27466
 O808 O 1.03473 0.29408 0.27246
 O809 O 0.97451 0.25163 0.30111
 O810 O 0.98107 0.21586 0.29470
 O811 O 1.05277 0.24825 0.22497
 O812 O 1.04532 0.28331 0.22651
 O813 O 1.00151 0.22474 0.19671
 O814 O 0.96586 0.22779 0.20476
 O815 O 1.02512 0.19693 0.24792
 O816 O 1.02061 0.20477 0.28352
 Zr817 Zr 1.02397 0.22553 0.26027
 O818 O 1.00680 0.24324 0.27919
 Zr819 Zr 0.98934 0.22562 0.22533
 O820 O 0.97046 0.24276 0.24312
 Zr821 Zr 1.02409 0.26039 0.22559
 O822 O 1.00650 0.27936 0.24286
 Zr823 Zr 0.97682 0.23823 0.27314
 O824 O 0.99390 0.21895 0.25541
 Zr825 Zr 1.01135 0.27327 0.27291
 O826 O 1.03047 0.25566 0.25562
 Zr827 Zr 0.97645 0.27285 0.23831
 O828 O 0.99406 0.25571 0.21892
 O829 O 1.01916 0.23049 0.23034
 O830 O 0.98137 0.26832 0.26830
 C831 C 1.06104 0.23432 0.23489
 C832 C 1.01487 0.18850 0.23433
 C833 C 1.01526 0.23483 0.18842
 C834 C 0.94028 0.26460 0.26584
 C835 C 0.98431 0.26569 0.30928
 C836 C 0.98416 0.30948 0.26503
 H837 H 1.00996 0.24002 0.29309
 H838 H 1.00963 0.29323 0.23955
 H839 H 1.02758 0.22206 0.22189
 H840 H 0.95656 0.23937 0.24017
 H841 H 0.96027 0.20432 0.26740
 H842 H 0.95809 0.20556 0.23394
 H843 H 1.03240 0.30320 0.26128
 H844 H 1.05204 0.28229 0.23947
 H845 H 0.96982 0.21641 0.30405
 H846 H 1.03112 0.19462 0.28235
 H847 H 0.98789 0.30204 0.21629
 H848 H 1.01055 0.28275 0.19797
 H849 H 1.05181 0.24028 0.28189
 H850 H 1.03304 0.26174 0.30236
 H851 H 0.96815 0.23997 0.19698
 H852 H 0.94630 0.26117 0.21756
 O853 O 0.74869 1.05299 0.72442
 O854 O 0.78240 1.04665 0.72707
 O855 O 0.72478 1.00108 0.69725
 O856 O 0.72428 0.96847 0.70310
 O857 O 0.69710 1.02555 0.74900
 O858 O 0.70444 1.02419 0.78343
 O859 O 0.77581 0.94876 0.75094
 O860 O 0.77197 0.95432 0.71733
 O861 O 0.80143 0.99897 0.77562
 O862 O 0.79456 1.03463 0.77419
 O863 O 0.75141 0.97485 0.80164
 O864 O 0.71600 0.97583 0.79479
 O865 O 0.75207 0.94866 0.77479
 O866 O 0.71547 0.95576 0.77281
 O867 O 0.77500 0.99883 0.80186
 O868 O 0.77273 1.03522 0.79439
 O869 O 0.80136 0.97480 0.75219
 O870 O 0.79503 0.98141 0.71641
 O871 O 0.72520 1.05314 0.74856
 O872 O 0.72678 1.04574 0.78363
 O873 O 0.69700 1.00171 0.72521
 O874 O 0.70512 0.96604 0.72834
 O875 O 0.74812 1.02538 0.69735
 O876 O 0.78372 1.02093 0.70518
 Zr877 Zr 0.76049 1.02430 0.72592
 O878 O 0.77946 1.00717 0.74366
 Zr879 Zr 0.72563 0.98958 0.72611
 O880 O 0.74346 0.97074 0.74327
 Zr881 Zr 0.72587 1.02444 0.76077
 O882 O 0.74318 1.00687 0.77976
 Zr883 Zr 0.77345 0.97714 0.73871
 O884 O 0.75567 0.99418 0.71942
 Zr885 Zr 0.77319 1.01177 0.77366
 O886 O 0.75587 1.03086 0.75602
 Zr887 Zr 0.73867 0.97677 0.77333
 O888 O 0.71925 0.99434 0.75617
 O889 O 0.73059 1.01946 0.73091
 O890 O 0.76862 0.98174 0.76876
 C891 C 0.73510 1.06140 0.73462
 C892 C 0.73455 1.01507 0.68896
 C893 C 0.68870 1.01548 0.73527
 C894 C 0.76622 0.94057 0.76508
 C895 C 0.80950 0.98460 0.76626
 C896 C 0.76545 0.98457 0.80989
 H897 H 0.79335 1.01033 0.74044
 H898 H 0.73988 1.01003 0.79362
 H899 H 0.72212 1.02786 0.72246
 H900 H 0.74053 0.95681 0.73990
 H901 H 0.76775 0.96059 0.70481
 H902 H 0.73430 0.95830 0.70611
 H903 H 0.76157 1.03290 0.80351
 H904 H 0.73971 1.05249 0.78258
 H905 H 0.80438 0.97016 0.71699
 H906 H 0.78252 1.03141 0.69501
 H907 H 0.71671 0.98823 0.80251
 H908 H 0.69834 1.01088 0.78318
 H909 H 0.78212 1.05218 0.74061
 H910 H 0.80267 1.03341 0.76211
 H911 H 0.69735 0.96834 0.74050
 H912 H 0.71796 0.94654 0.76174
 O913 O 0.69772 0.52557 0.24853
 O914 O 0.70415 0.52287 0.28230
 O915 O 0.74905 0.55262 0.22438
 O916 O 0.78428 0.54480 0.22537
 O917 O 0.72505 0.50113 0.19689
 O918 O 0.72642 0.46660 0.20404
 O919 O 0.80174 0.49866 0.27578
 O920 O 0.79703 0.53179 0.27178
 O921 O 0.75160 0.47439 0.30123
 O922 O 0.71606 0.47569 0.29425
 O923 O 0.77561 0.44818 0.25103
 O924 O 0.77430 0.45531 0.21539
 O925 O 0.80185 0.47501 0.25175
 O926 O 0.79489 0.47683 0.21541
 O927 O 0.75177 0.44802 0.27468
 O928 O 0.71541 0.45553 0.27235
 O929 O 0.77562 0.49798 0.30133
 O930 O 0.76946 0.53386 0.29454
 O931 O 0.69752 0.50141 0.22496
 O932 O 0.70487 0.46638 0.22629
 O933 O 0.74897 0.52485 0.19685
 O934 O 0.78378 0.52295 0.20424
 O935 O 0.72525 0.55269 0.24812
 O936 O 0.72982 0.54477 0.28373
 Zr937 Zr 0.72640 0.52407 0.26038
 O938 O 0.74354 0.50627 0.27927
 Zr939 Zr 0.76101 0.52391 0.22555
 O940 O 0.77975 0.50657 0.24324
 Zr941 Zr 0.72620 0.48922 0.22559
 O942 O 0.74367 0.47014 0.24287
 Zr943 Zr 0.77353 0.51117 0.27326
 O944 O 0.75648 0.53066 0.25562
 Zr945 Zr 0.73887 0.47625 0.27292
 O946 O 0.71982 0.49395 0.25561
 Zr947 Zr 0.77373 0.47651 0.23840
 O948 O 0.75626 0.49382 0.21905
 O949 O 0.73119 0.51909 0.23047
 O950 O 0.76886 0.48109 0.26839
 C951 C 0.68930 0.51537 0.23489
 C952 C 0.73527 0.56099 0.23434
 C953 C 0.73513 0.51486 0.18853
 C954 C 0.80992 0.48459 0.26605
 C955 C 0.76581 0.48393 0.30943
 C956 C 0.76594 0.43994 0.26506
 H957 H 0.74041 0.50951 0.29316
 H958 H 0.74047 0.45628 0.23953
 H959 H 0.72275 0.52750 0.22201
 H960 H 0.79363 0.51001 0.24031
 H961 H 0.79119 0.54459 0.26783
 H962 H 0.78255 0.55328 0.23714
 H963 H 0.71774 0.44635 0.26121
 H964 H 0.69824 0.46730 0.23928
 H965 H 0.78067 0.53327 0.30396
 H966 H 0.71936 0.55496 0.28255
 H967 H 0.76219 0.44720 0.21647
 H968 H 0.73968 0.46689 0.19793
 H969 H 0.69850 0.50937 0.28185
 H970 H 0.71720 0.48786 0.30229
 H971 H 0.78283 0.50989 0.19770
 H972 H 0.80363 0.48837 0.21753
 O973 O 0.55239 0.22429 0.74886
 O974 O 0.54605 0.22684 0.78260
 O975 O 0.50050 0.19713 0.72489
 O976 O 0.46800 0.20300 0.72417
 O977 O 0.52505 0.24912 0.69737
 O978 O 0.52364 0.28353 0.70483
 O979 O 0.44823 0.25060 0.77600
 O980 O 0.45379 0.21700 0.77201
 O981 O 0.49829 0.27525 0.80178
 O982 O 0.53385 0.27397 0.79503
 O983 O 0.47436 0.30150 0.75161
 O984 O 0.47522 0.29471 0.71630
 O985 O 0.44815 0.27458 0.75235
 O986 O 0.45525 0.27265 0.71570
 O987 O 0.49825 0.30167 0.77529
 O988 O 0.53458 0.29415 0.77318
 O989 O 0.47424 0.25171 0.80162
 O990 O 0.48085 0.21596 0.79509
 O991 O 0.55253 0.24858 0.72547
 O992 O 0.54511 0.28365 0.72722
 O993 O 0.50128 0.22526 0.69712
 O994 O 0.46559 0.22834 0.70520
 O995 O 0.52476 0.19716 0.74826
 O996 O 0.52039 0.20491 0.78389
 Zr997 Zr 0.52372 0.22573 0.76068
 O998 O 0.50656 0.24337 0.77968
 Zr999 Zr 0.48908 0.22602 0.72574
 O1000 O 0.47022 0.24307 0.74361
 Zr1001 Zr 0.52386 0.26075 0.72618
 O1002 O 0.50627 0.27964 0.74351
 Zr1003 Zr 0.47659 0.23840 0.77361
 O1004 O 0.49365 0.21921 0.75578
 Zr1005 Zr 0.51112 0.27343 0.77353
 O1006 O 0.53024 0.25588 0.75618
 Zr1007 Zr 0.47622 0.27317 0.73893
 O1008 O 0.49383 0.25613 0.71947
 O1009 O 0.51891 0.23083 0.73077
 O1010 O 0.48114 0.26851 0.76890
 C1011 C 0.56079 0.23459 0.73531
 C1012 C 0.51444 0.18879 0.73468
 C1013 C 0.51503 0.23540 0.68889
 C1014 C 0.44006 0.26480 0.76646
 C1015 C 0.48400 0.26577 0.80982
 C1016 C 0.48409 0.30976 0.76564
 H1017 H 0.50971 0.24010 0.79357
 H1018 H 0.50942 0.29352 0.74024
 H1019 H 0.52731 0.22240 0.72229
 H1020 H 0.45632 0.23969 0.74066
 H1021 H 0.46007 0.20449 0.76775
 H1022 H 0.45791 0.20585 0.73430
 H1023 H 0.53232 0.30329 0.76201
 H1024 H 0.55190 0.28250 0.74013
 H1025 H 0.46960 0.21647 0.80444
 H1026 H 0.53086 0.19474 0.78266
 H1027 H 0.48769 0.30232 0.71689
 H1028 H 0.51040 0.28324 0.69862
 H1029 H 0.55155 0.24040 0.78237
 H1030 H 0.53276 0.26175 0.80296
 H1031 H 0.46793 0.24051 0.69743
 H1032 H 0.44599 0.26162 0.71822
 O1033 O 0.19749 0.72472 0.50119
 O1034 O 0.20389 0.72744 0.46741
 O1035 O 0.24876 0.69775 0.52548
 O1036 O 0.28401 0.70557 0.52458
 O1037 O 0.22495 0.74928 0.55287
 O1038 O 0.22635 0.78380 0.54563
 O1039 O 0.30157 0.75163 0.47419
 O1040 O 0.29672 0.71846 0.47825
 O1041 O 0.25161 0.77596 0.44858
 O1042 O 0.21598 0.77450 0.45537
 O1043 O 0.27553 0.80217 0.49881
 O1044 O 0.27426 0.79506 0.53445
 O1045 O 0.30173 0.77537 0.49813
 O1046 O 0.29481 0.77356 0.53448
 O1047 O 0.25166 0.80230 0.47512
 O1048 O 0.21533 0.79473 0.47723
 O1049 O 0.27556 0.75237 0.44861
 O1050 O 0.26918 0.71649 0.45530
 O1051 O 0.19738 0.74888 0.52476
 O1052 O 0.20477 0.78393 0.52334
 O1053 O 0.24880 0.72556 0.55299
 O1054 O 0.28359 0.72743 0.54568
 O1055 O 0.22497 0.69765 0.50165
 O1056 O 0.22949 0.70553 0.46605
 Zr1057 Zr 0.22616 0.72625 0.48938
 O1058 O 0.24336 0.74402 0.47051
 Zr1059 Zr 0.26080 0.72646 0.52432
 O1060 O 0.27958 0.74378 0.50666
 Zr1061 Zr 0.22606 0.76112 0.52413
 O1062 O 0.24358 0.78019 0.50687
 Zr1063 Zr 0.27332 0.73913 0.47663
 O1064 O 0.25622 0.71967 0.49424
 Zr1065 Zr 0.23876 0.77404 0.47681
 O1066 O 0.21966 0.75637 0.49410
 Zr1067 Zr 0.27363 0.77384 0.51145
 O1068 O 0.25612 0.75655 0.53077
 O1069 O 0.23099 0.73126 0.51930
 O1070 O 0.26873 0.76921 0.48146
 C1071 C 0.18911 0.73491 0.51483
 C1072 C 0.23497 0.68937 0.51548
 C1073 C 0.23500 0.73557 0.56127
 C1074 C 0.30977 0.76576 0.48388
 C1075 C 0.26585 0.76646 0.44048
 C1076 C 0.26584 0.81039 0.48476
 H1077 H 0.24023 0.74076 0.45661
 H1078 H 0.24040 0.79405 0.51020
 H1079 H 0.22255 0.72286 0.52776
 H1080 H 0.29345 0.74036 0.50964
 H1081 H 0.29079 0.70565 0.48207
 H1082 H 0.28226 0.69709 0.51280
 H1083 H 0.21758 0.80383 0.48845
 H1084 H 0.19811 0.78295 0.51034
 H1085 H 0.28043 0.71705 0.44595
 H1086 H 0.21900 0.69535 0.46721
 H1087 H 0.26216 0.80316 0.53333
 H1088 H 0.23961 0.78351 0.55181
 H1089 H 0.19831 0.74096 0.46781
 H1090 H 0.21719 0.76239 0.44727
 H1091 H 0.28271 0.74052 0.55217
 H1092 H 0.30356 0.76205 0.53236
 O1093 O 0.19711 0.22422 1.00163
 O1094 O 0.20353 0.22690 0.96789
 O1095 O 0.24842 0.19729 1.02599
 O1096 O 0.28364 0.20517 1.02515
 O1097 O 0.22450 0.24883 1.05333
 O1098 O 0.22587 0.28333 1.04610
 O1099 O 0.30120 0.25118 0.97473
 O1100 O 0.29636 0.21803 0.97879
 O1101 O 0.25121 0.27547 0.94906
 O1102 O 0.21561 0.27403 0.95581
 O1103 O 0.27508 0.30175 0.99932
 O1104 O 0.27382 0.29465 1.03493
 O1105 O 0.30132 0.27494 0.99865
 O1106 O 0.29436 0.27314 1.03501
 O1107 O 0.25123 0.30186 0.97561
 O1108 O 0.21490 0.29421 0.97770
 O1109 O 0.27517 0.25189 0.94911
 O1110 O 0.26883 0.21602 0.95583
 O1111 O 0.19695 0.24841 1.02517
 O1112 O 0.20433 0.28345 1.02377
 O1113 O 0.24837 0.22513 1.05349
 O1114 O 0.28317 0.22704 1.04622
 O1115 O 0.22463 0.19715 1.00215
 O1116 O 0.22917 0.20504 0.96655
 Zr1117 Zr 0.22579 0.22576 0.98987
 O1118 O 0.24298 0.24354 0.97101
 Zr1119 Zr 0.26040 0.22603 1.02483
 O1120 O 0.27917 0.24335 1.00718
 Zr1121 Zr 0.22563 0.26065 1.02460
 O1122 O 0.24315 0.27973 1.00735
 Zr1123 Zr 0.27295 0.23868 0.97715
 O1124 O 0.25586 0.21921 0.99476
 Zr1125 Zr 0.23836 0.27357 0.97729
 O1126 O 0.21927 0.25588 0.99456
 Zr1127 Zr 0.27320 0.27341 1.01195
 O1128 O 0.25569 0.25612 1.03126
 O1129 O 0.23058 0.23079 1.01979
 O1130 O 0.26833 0.26877 0.98195
 C1131 C 0.18869 0.23444 1.01523
 C1132 C 0.23465 0.18888 1.01597
 C1133 C 0.23456 0.23514 1.06175
 C1134 C 0.30939 0.26531 0.98443
 C1135 C 0.26545 0.26596 0.94096
 C1136 C 0.26539 0.30997 0.98528
 H1137 H 0.23987 0.24028 0.95710
 H1138 H 0.23996 0.29359 1.01067
 H1139 H 0.22214 0.22238 1.02824
 H1140 H 0.29305 0.23994 1.01017
 H1141 H 0.29045 0.20522 0.98261
 H1142 H 0.28194 0.19669 1.01335
 H1143 H 0.21716 0.30336 0.98889
 H1144 H 0.19768 0.28247 1.01078
 H1145 H 0.28008 0.21659 0.94649
 H1146 H 0.21871 0.19483 0.96771
 H1147 H 0.26169 0.30269 1.03384
 H1148 H 0.23913 0.28307 1.05227
 H1149 H 0.19797 0.24041 0.96824
 H1150 H 0.21679 0.26188 0.94777
 H1151 H 0.28226 0.24013 1.05271
 H1152 H 0.30312 0.26165 1.03289
 C1153 C 0.28248 0.38391 0.78231
 C1154 C 0.29871 0.37482 0.77335
 C1155 C 0.30603 0.35700 0.78080
 C1156 C 0.29724 0.34806 0.79739
 C1157 C 0.28064 0.35712 0.80600
 C1158 C 0.27335 0.37494 0.79851
 C1159 C 0.27598 0.40303 0.77567
 C1160 C 0.27099 0.41936 0.77063
 H1161 H 0.30595 0.38169 0.76086
 H1162 H 0.31880 0.35045 0.77378
 H1163 H 0.27348 0.35067 0.81875
 H1164 H 0.26083 0.38190 0.80562
 C1165 C 0.28255 -0.11653 0.28186
 C1166 C 0.29886 -0.12551 0.27297
 C1167 C 0.30645 -0.14315 0.28058
 C1168 C 0.29787 -0.15208 0.29735
 C1169 C 0.28111 -0.14309 0.30584
 C1170 C 0.27358 -0.12545 0.29817
 C1171 C 0.27582 -0.09754 0.27506
 C1172 C 0.27068 -0.08129 0.26990
 H1173 H 0.30597 -0.11868 0.26037
 H1174 H 0.31928 -0.14951 0.27349
 H1175 H 0.27395 -0.14940 0.31867
 H1176 H 0.26098 -0.11857 0.30522
 C1177 C 0.78383 0.88575 0.78274
 C1178 C 0.80024 0.87681 0.77395
 C1179 C 0.80738 0.85884 0.78120
 C1180 C 0.79822 0.84958 0.79740
 C1181 C 0.78150 0.85853 0.80590
 C1182 C 0.77440 0.87651 0.79861
 C1183 C 0.77724 0.90482 0.77605
 C1184 C 0.77203 0.92103 0.77082
 H1185 H 0.80769 0.88388 0.76169
 H1186 H 0.82026 0.85239 0.77428
 H1187 H 0.77407 0.85184 0.81836
 H1188 H 0.76172 0.88334 0.80557
 C1189 C 0.46638 0.86498 0.28301
 C1190 C 0.45048 0.87431 0.27372
 C1191 C 0.44329 0.89225 0.28101
 C1192 C 0.45188 0.90115 0.29784
 C1193 C 0.46817 0.89173 0.30680
 C1194 C 0.47530 0.87380 0.29945
 C1195 C 0.47299 0.84594 0.27624
 C1196 C 0.47822 0.82976 0.27094
 H1197 H 0.44344 0.86758 0.26100
 H1198 H 0.43080 0.89893 0.27357
 H1199 H 0.47531 0.89800 0.31970
 H1200 H 0.48761 0.86666 0.30679
 C1201 C -0.03381 0.86451 0.78396
 C1202 C -0.02471 0.87350 0.80024
 C1203 C -0.03202 0.89132 0.80770
 C1204 C -0.04859 0.90038 0.79900
 C1205 C -0.05741 0.89138 0.78241
 C1206 C -0.05006 0.87356 0.77498
 C1207 C -0.02705 0.84556 0.77708
 C1208 C -0.02173 0.82944 0.77170
 H1209 H -0.01216 0.86658 0.80734
 H1210 H -0.02485 0.89781 0.82047
 H1211 H -0.07016 0.89792 0.77533
 H1212 H -0.05726 0.86669 0.76242
 C1213 C -0.03360 -0.11485 -0.03343
 C1214 C -0.04948 -0.12434 -0.02426
 C1215 C -0.05656 -0.14232 -0.03163
 C1216 C -0.04789 -0.15111 -0.04844
 C1217 C -0.03163 -0.14154 -0.05729
 C1218 C -0.02461 -0.12355 -0.04985
 C1219 C -0.02710 -0.09579 -0.02653
 C1220 C -0.02195 -0.07960 -0.02111
 H1221 H -0.05658 -0.11771 -0.01155
 H1222 H -0.06902 -0.14912 -0.02427
 H1223 H -0.02444 -0.14771 -0.07017
 H1224 H -0.01233 -0.11630 -0.05710
 C1225 C -0.03248 0.38318 0.46775
 C1226 C -0.04836 0.37376 0.47699
 C1227 C -0.05558 0.35584 0.46961
 C1228 C -0.04706 0.34705 0.45272
 C1229 C -0.03074 0.35651 0.44386
 C1230 C -0.02357 0.37443 0.45130
 C1231 C -0.02605 0.40235 0.47440
 C1232 C -0.02107 0.41871 0.47947
 H1233 H -0.05540 0.38045 0.48970
 H1234 H -0.06808 0.34912 0.47698
 H1235 H -0.02364 0.35033 0.43093
 H1236 H -0.01130 0.38164 0.44400
 C1237 C 0.46649 -0.11485 0.46661
 C1238 C 0.45021 -0.12387 0.47554
 C1239 C 0.44281 -0.14171 0.46813
 C1240 C 0.45157 -0.15081 0.45154
 C1241 C 0.46825 -0.14172 0.44296
 C1242 C 0.47558 -0.12388 0.45043
 C1243 C 0.47325 -0.09585 0.47342
 C1244 C 0.47855 -0.07969 0.47874
 H1245 H 0.44302 -0.11696 0.48805
 H1246 H 0.43003 -0.14814 0.47527
 H1247 H 0.47553 -0.14815 0.43026
 H1248 H 0.48818 -0.11698 0.44337
 C1249 C 0.46717 0.38339 -0.03202
 C1250 C 0.45094 0.37433 -0.02303
 C1251 C 0.44346 0.35656 -0.03051
 C1252 C 0.45206 0.34757 -0.04724
 C1253 C 0.46875 0.35664 -0.05582
 C1254 C 0.47618 0.37441 -0.04829
 C1255 C 0.47380 0.40249 -0.02536
 C1256 C 0.47888 0.41881 -0.02029
 H1257 H 0.44382 0.38121 -0.01047
 H1258 H 0.43068 0.35014 -0.02335
 H1259 H 0.47592 0.35028 -0.06862
 H1260 H 0.48872 0.38135 -0.05540
 C1261 C 0.78140 0.36620 0.46850
 C1262 C 0.79717 0.37572 0.47792
 C1263 C 0.80423 0.39375 0.47070
 C1264 C 0.79563 0.40247 0.45388
 C1265 C 0.77946 0.39298 0.44481
 C1266 C 0.77244 0.37496 0.45207
 C1267 C 0.77521 0.34691 0.47494
 C1268 C 0.77043 0.33046 0.47983
 H1269 H 0.80427 0.36903 0.49061
 H1270 H 0.81667 0.40062 0.47807
 H1271 H 0.77247 0.39925 0.43186
 H1272 H 0.76027 0.36766 0.44461
 C1273 C 0.78317 0.86648 -0.03258
 C1274 C 0.79959 0.87538 -0.02371
 C1275 C 0.80713 0.89311 -0.03118
 C1276 C 0.79840 0.90221 -0.04779
 C1277 C 0.78153 0.89330 -0.05626
 C1278 C 0.77405 0.87557 -0.04873
 C1279 C 0.77646 0.84743 -0.02592
 C1280 C 0.77132 0.83114 -0.02084
 H1281 H 0.80681 0.86842 -0.01123
 H1282 H 0.82005 0.89941 -0.02411
 H1283 H 0.77425 0.89975 -0.06897
 H1284 H 0.76136 0.86876 -0.05576
 C1285 C 0.78178 0.28164 0.38350
 C1286 C 0.77284 0.29793 0.37446
 C1287 C 0.78028 0.30532 0.35667
 C1288 C 0.79684 0.29652 0.34771
 C1289 C 0.80543 0.27985 0.35672
 C1290 C 0.79796 0.27251 0.37450
 C1291 C 0.77517 0.27510 0.40260
 C1292 C 0.77012 0.27010 0.41892
 H1293 H 0.76037 0.30518 0.38136
 H1294 H 0.77328 0.31814 0.35017
 H1295 H 0.81816 0.27269 0.35025
 H1296 H 0.80505 0.25994 0.38143
 C1297 C 0.78212 0.78284 -0.11689
 C1298 C 0.79844 0.77382 -0.12573
 C1299 C 0.80607 0.78122 -0.14342
 C1300 C 0.79753 0.79791 -0.15256
 C1301 C 0.78075 0.80653 -0.14372
 C1302 C 0.77318 0.79907 -0.12602
 C1303 C 0.77537 0.77625 -0.09786
 C1304 C 0.77026 0.77118 -0.08158
 H1305 H 0.80552 0.76129 -0.11874
 H1306 H 0.81890 0.77403 -0.14967
 H1307 H 0.77361 0.81930 -0.15020
 H1308 H 0.76058 0.80621 -0.11925
 C1309 C 0.28139 0.46842 0.86720
 C1310 C 0.27242 0.45208 0.87613
 C1311 C 0.27963 0.44484 0.89409
 C1312 C 0.29599 0.45383 0.90332
 C1313 C 0.30459 0.47056 0.89442
 C1314 C 0.29735 0.47776 0.87647
 C1315 C 0.27501 0.47484 0.84796
 C1316 C 0.27015 0.47976 0.83155
 H1317 H 0.26011 0.44468 0.86903
 H1318 H 0.27263 0.43196 0.90050
 H1319 H 0.31718 0.47787 0.90110
 H1320 H 0.30446 0.49037 0.86963
 C1321 C 0.28204 -0.03202 0.36584
 C1322 C 0.29854 -0.02306 0.37456
 C1323 C 0.30610 -0.03031 0.39236
 C1324 C 0.29729 -0.04670 0.40167
 C1325 C 0.28042 -0.05530 0.39300
 C1326 C 0.27289 -0.04802 0.37520
 C1327 C 0.27530 -0.02561 0.34673
 C1328 C 0.27017 -0.02071 0.33039
 H1329 H 0.30579 -0.01073 0.36739
 H1330 H 0.31908 -0.02331 0.39860
 H1331 H 0.27323 -0.06790 0.39974
 H1332 H 0.26017 -0.05512 0.36853
 C1333 C -0.03370 -0.03377 -0.11419
 C1334 C -0.02471 -0.04997 -0.12331
 C1335 C -0.03216 -0.05736 -0.14112
 C1336 C -0.04885 -0.04869 -0.15011
 C1337 C -0.05751 -0.03209 -0.14092
 C1338 C -0.05000 -0.02476 -0.12311
 C1339 C -0.02681 -0.02700 -0.09523
 C1340 C -0.02142 -0.02170 -0.07910
 H1341 H -0.01210 -0.05709 -0.11649
 H1342 H -0.02495 -0.07008 -0.14762
 H1343 H -0.07030 -0.02488 -0.14726
 H1344 H -0.05711 -0.01223 -0.11613
 C1345 C -0.03210 0.46689 0.38370
 C1346 C -0.02316 0.45065 0.37461
 C1347 C -0.03062 0.44325 0.35681
 C1348 C -0.04730 0.45196 0.34782
 C1349 C -0.05585 0.46866 0.35694
 C1350 C -0.04832 0.47599 0.37473
 C1351 C -0.02542 0.47347 0.40281
 C1352 C -0.02033 0.47852 0.41912
 H1353 H -0.01062 0.44345 0.38148
 H1354 H -0.02350 0.43047 0.35035
 H1355 H -0.06861 0.47591 0.35058
 H1356 H -0.05540 0.48854 0.38169
 C1357 C 0.46679 -0.03406 0.38553
 C1358 C 0.45093 -0.02464 0.37622
 C1359 C 0.44377 -0.03173 0.35817
 C1360 C 0.45237 -0.04841 0.34920
 C1361 C 0.46854 -0.05757 0.35854
 C1362 C 0.47567 -0.05044 0.37659
 C1363 C 0.47341 -0.02743 0.40464
 C1364 C 0.47861 -0.02218 0.42085
 H1365 H 0.44392 -0.01198 0.38305
 H1366 H 0.43132 -0.02431 0.35142
 H1367 H 0.47553 -0.07042 0.35208
 H1368 H 0.48792 -0.05787 0.38370
 C1369 C 0.46872 0.46779 -0.11688
 C1370 C 0.47760 0.45146 -0.12587
 C1371 C 0.47038 0.44426 -0.14385
 C1372 C 0.45402 0.45326 -0.15312
 C1373 C 0.44556 0.47006 -0.14411
 C1374 C 0.45284 0.47720 -0.12613
 C1375 C 0.47510 0.47414 -0.09761
 C1376 C 0.47995 0.47902 -0.08118
 H1377 H 0.48988 0.44403 -0.11878
 H1378 H 0.47744 0.43139 -0.15021
 H1379 H 0.43304 0.47754 -0.15069
 H1380 H 0.44582 0.48983 -0.11925
 C1381 C 0.46702 0.78395 0.36439
 C1382 C 0.47607 0.80015 0.37356
 C1383 C 0.46871 0.80743 0.39142
 C1384 C 0.45212 0.79861 0.40034
 C1385 C 0.44336 0.78209 0.39116
 C1386 C 0.45075 0.77485 0.37330
 C1387 C 0.47381 0.77729 0.34539
 C1388 C 0.47910 0.77204 0.32923
 H1389 H 0.48863 0.80735 0.36675
 H1390 H 0.47584 0.82015 0.39806
 H1391 H 0.43059 0.77493 0.39759
 H1392 H 0.44359 0.76234 0.36628
 C1393 C -0.03261 0.78400 0.86508
 C1394 C -0.04847 0.77457 0.87432
 C1395 C -0.05580 0.78178 0.89222
 C1396 C -0.04740 0.79867 0.90119
 C1397 C -0.03113 0.80779 0.89186
 C1398 C -0.02386 0.80051 0.87396
 C1399 C -0.02590 0.77728 0.84605
 C1400 C -0.02067 0.77197 0.82988
 H1401 H -0.05539 0.76180 0.86754
 H1402 H -0.06826 0.77422 0.89882
 H1403 H -0.02413 0.82074 0.89818
 H1404 H -0.01159 0.80796 0.86689
 C1405 C 0.38606 0.78384 0.28371
 C1406 C 0.37723 0.77501 0.30016
 C1407 C 0.35926 0.78216 0.30735
 C1408 C 0.34988 0.79830 0.29818
 C1409 C 0.35875 0.80685 0.28143
 C1410 C 0.37672 0.79967 0.27428
 C1411 C 0.40510 0.77720 0.27702
 C1412 C 0.42125 0.77197 0.27172
 H1413 H 0.38437 0.76278 0.30761
 H1414 H 0.35288 0.77520 0.32025
 H1415 H 0.35197 0.81928 0.27399
 H1416 H 0.38346 0.80666 0.26156
 C1417 C -0.11398 0.78366 0.78394
 C1418 C -0.12289 0.79992 0.77482
 C1419 C -0.14092 0.80712 0.78179
 C1420 C -0.15028 0.79817 0.79805
 C1421 C -0.14134 0.78161 0.80691
 C1422 C -0.12331 0.77444 0.79990
 C1423 C -0.09490 0.77698 0.77745
 C1424 C -0.07871 0.77174 0.77228
 H1425 H -0.11577 0.80720 0.76248
 H1426 H -0.14736 0.81988 0.77460
 H1427 H -0.14811 0.77434 0.81944
 H1428 H -0.11650 0.76187 0.80711
 C1429 C 0.86640 0.28086 0.46767
 C1430 C 0.87536 0.27201 0.45130
 C1431 C 0.89322 0.27940 0.44404
 C1432 C 0.90233 0.29583 0.45305
 C1433 C 0.89341 0.30433 0.46980
 C1434 C 0.87555 0.29690 0.47701
 C1435 C 0.84724 0.27429 0.47410
 C1436 C 0.83088 0.26932 0.47905
 H1437 H 0.86835 0.25964 0.44389
 H1438 H 0.89966 0.27247 0.43115
 H1439 H 0.89999 0.31697 0.47712
 H1440 H 0.86868 0.30392 0.48964
 C1441 C 0.86646 0.78185 -0.03279
 C1442 C 0.87547 0.77295 -0.04912
 C1443 C 0.89325 0.78045 -0.05647
 C1444 C 0.90223 0.79703 -0.04761
 C1445 C 0.89326 0.80557 -0.03090
 C1446 C 0.87549 0.79804 -0.02359
 C1447 C 0.84735 0.77521 -0.02629
 C1448 C 0.83102 0.77021 -0.02129
 H1449 H 0.86855 0.76047 -0.05642
 H1450 H 0.89973 0.77349 -0.06932
 H1451 H 0.89974 0.81832 -0.02369
 H1452 H 0.86859 0.80509 -0.01100
 C1453 C -0.11416 -0.03393 -0.03407
 C1454 C -0.12341 -0.04993 -0.02484
 C1455 C -0.14139 -0.05714 -0.03206
 C1456 C -0.15042 -0.04848 -0.04875
 C1457 C -0.14106 -0.03211 -0.05768
 C1458 C -0.12308 -0.02496 -0.05040
 C1459 C -0.09513 -0.02726 -0.02729
 C1460 C -0.07898 -0.02200 -0.02189
 H1461 H -0.11660 -0.05701 -0.01221
 H1462 H -0.14801 -0.06969 -0.02465
 H1463 H -0.14742 -0.02493 -0.07048
 H1464 H -0.11601 -0.01258 -0.05769
 C1465 C -0.11690 0.46873 0.46841
 C1466 C -0.12624 0.45288 0.47783
 C1467 C -0.14423 0.44568 0.47067
 C1468 C -0.15311 0.45422 0.45390
 C1469 C -0.14381 0.47048 0.44484
 C1470 C -0.12582 0.47764 0.45204
 C1471 C -0.09761 0.47501 0.47475
 C1472 C -0.08116 0.47979 0.47960
 H1473 H -0.11941 0.44581 0.49047
 H1474 H -0.15096 0.43317 0.47803
 H1475 H -0.15021 0.47744 0.43193
 H1476 H -0.11866 0.48987 0.44458
 C1477 C 0.38554 -0.03332 0.46598
 C1478 C 0.37656 -0.04957 0.47504
 C1479 C 0.35853 -0.05677 0.46798
 C1480 C 0.34916 -0.04786 0.45161
 C1481 C 0.35824 -0.03124 0.44287
 C1482 C 0.37628 -0.02409 0.44999
 C1483 C 0.40464 -0.02666 0.47258
 C1484 C 0.42084 -0.02142 0.47783
 H1485 H 0.38363 -0.05685 0.48742
 H1486 H 0.35213 -0.06952 0.47524
 H1487 H 0.35162 -0.02385 0.43032
 H1488 H 0.38315 -0.01152 0.44284
 C1489 C 0.38326 0.46818 -0.03158
 C1490 C 0.37444 0.45181 -0.02258
 C1491 C 0.35645 0.44447 -0.02964
 C1492 C 0.34701 0.45336 -0.04597
 C1493 C 0.35586 0.47018 -0.05457
 C1494 C 0.37384 0.47746 -0.04745
 C1495 C 0.40251 0.47470 -0.02532
 C1496 C 0.41893 0.47966 -0.02051
 H1497 H 0.38165 0.44447 -0.01031
 H1498 H 0.35022 0.43158 -0.02249
 H1499 H 0.34915 0.47758 -0.06707
 H1500 H 0.38058 0.49012 -0.05457
 C1501 C 0.36663 0.46866 0.78212
 C1502 C 0.37604 0.47792 0.79805
 C1503 C 0.39403 0.47068 0.80511
 C1504 C 0.40284 0.45399 0.79634
 C1505 C 0.39346 0.44508 0.78002
 C1506 C 0.37547 0.45236 0.77300
 C1507 C 0.34738 0.47512 0.77590
 C1508 C 0.33096 0.48003 0.77109
 H1509 H 0.36927 0.49050 0.80527
 H1510 H 0.40082 0.47792 0.81767
 H1511 H 0.39981 0.43224 0.77289
 H1512 H 0.36826 0.44503 0.76070
 C1513 C 0.36601 -0.03223 0.28182
 C1514 C 0.37499 -0.04847 0.27272
 C1515 C 0.39276 -0.05595 0.28011
 C1516 C 0.40177 -0.04731 0.29678
 C1517 C 0.39283 -0.03069 0.30554
 C1518 C 0.37506 -0.02325 0.29811
 C1519 C 0.34693 -0.02560 0.27524
 C1520 C 0.33062 -0.02055 0.27022
 H1521 H 0.36806 -0.05560 0.26015
 H1522 H 0.39921 -0.06873 0.27297
 H1523 H 0.39934 -0.02365 0.31836
 H1524 H 0.36819 -0.01073 0.30533
 C1525 C 0.13532 0.53311 0.71745
 C1526 C 0.12598 0.54905 0.72670
 C1527 C 0.10798 0.55612 0.71945
 C1528 C 0.09911 0.54736 0.70277
 C1529 C 0.10847 0.53109 0.69380
 C1530 C 0.12646 0.52406 0.70109
 C1531 C 0.15441 0.52664 0.72414
 C1532 C 0.17064 0.52152 0.72936
 H1533 H 0.13275 0.55621 0.73934
 H1534 H 0.10121 0.56865 0.72674
 H1535 H 0.10208 0.52397 0.68096
 H1536 H 0.13360 0.51175 0.69377
 C1537 C 0.13507 0.03315 0.21691
 C1538 C 0.12603 0.02386 0.20080
 C1539 C 0.10795 0.03076 0.19359
 C1540 C 0.09860 0.04720 0.20238
 C1541 C 0.10774 0.05618 0.21887
 C1542 C 0.12582 0.04921 0.22602
 C1543 C 0.15421 0.02671 0.22357
 C1544 C 0.17045 0.02159 0.22879
 H1545 H 0.13309 0.01142 0.19361
 H1546 H 0.10151 0.02333 0.18095
 H1547 H 0.10113 0.06879 0.22617
 H1548 H 0.13272 0.05654 0.23849
 C1549 C 0.61676 0.71877 0.21811
 C1550 C 0.62606 0.70279 0.22734
 C1551 C 0.64390 0.69550 0.21996
 C1552 C 0.65265 0.70407 0.20317
 C1553 C 0.64339 0.72043 0.19427
 C1554 C 0.62556 0.72769 0.20169
 C1555 C 0.59763 0.72521 0.22471
 C1556 C 0.58130 0.73016 0.22972
 H1557 H 0.61933 0.69571 0.24001
 H1558 H 0.65060 0.68291 0.22720
 H1559 H 0.64969 0.72742 0.18135
 H1560 H 0.61843 0.74001 0.19437
 C1561 C 0.11689 0.71850 0.71910
 C1562 C 0.12582 0.70211 0.72798
 C1563 C 0.14374 0.69489 0.72075
 C1564 C 0.15296 0.70395 0.70446
 C1565 C 0.14406 0.72071 0.69593
 C1566 C 0.12614 0.72789 0.70320
 C1567 C 0.09769 0.72491 0.72552
 C1568 C 0.08132 0.72983 0.73041
 H1569 H 0.11874 0.69467 0.74024
 H1570 H 0.15015 0.68199 0.72769
 H1571 H 0.15073 0.72807 0.68341
 H1572 H 0.11931 0.74054 0.69616
 C1573 C 0.63501 0.21696 0.53263
 C1574 C 0.62561 0.20103 0.52335
 C1575 C 0.60736 0.19430 0.53025
 C1576 C 0.59827 0.20340 0.54659
 C1577 C 0.60771 0.21965 0.55559
 C1578 C 0.62596 0.22635 0.54866
 C1579 C 0.65427 0.22318 0.52621
 C1580 C 0.67058 0.22813 0.52113
 H1581 H 0.63251 0.19364 0.51096
 H1582 H 0.60054 0.18178 0.52295
 H1583 H 0.60116 0.22702 0.56818
 H1584 H 0.63314 0.23867 0.55597
 C1585 C 0.63551 0.71685 0.03222
 C1586 C 0.62659 0.70038 0.02342
 C1587 C 0.60863 0.69319 0.03063
 C1588 C 0.59935 0.70237 0.04681
 C1589 C 0.60829 0.71916 0.05533
 C1590 C 0.62625 0.72631 0.04809
 C1591 C 0.65457 0.72350 0.02558
 C1592 C 0.67076 0.72875 0.02039
 H1593 H 0.63366 0.69290 0.01117
 H1594 H 0.60218 0.68026 0.02370
 H1595 H 0.60159 0.72661 0.06778
 H1596 H 0.63306 0.73904 0.05505
 C1597 C 0.11672 0.03154 0.03202
 C1598 C 0.12606 0.04753 0.02285
 C1599 C 0.14396 0.05476 0.03025
 C1600 C 0.15279 0.04615 0.04707
 C1601 C 0.14343 0.02969 0.05583
 C1602 C 0.12554 0.02252 0.04837
 C1603 C 0.09754 0.02517 0.02541
 C1604 C 0.08116 0.02028 0.02039
 H1605 H 0.11932 0.05466 0.01021
 H1606 H 0.15060 0.06736 0.02295
 H1607 H 0.14966 0.02252 0.06871
 H1608 H 0.11839 0.01016 0.05562
 C1609 C 0.11442 0.53321 0.53344
 C1610 C 0.12375 0.54912 0.52412
 C1611 C 0.14177 0.55626 0.53131
 C1612 C 0.15067 0.54759 0.54800
 C1613 C 0.14131 0.53135 0.55704
 C1614 C 0.12330 0.52425 0.54981
 C1615 C 0.09534 0.52663 0.52676
 C1616 C 0.07914 0.52141 0.52151
 H1617 H 0.11697 0.55620 0.51147
 H1618 H 0.14854 0.56876 0.52397
 H1619 H 0.14772 0.52430 0.56988
 H1620 H 0.11617 0.51195 0.55717
 C1621 C 0.61625 0.03269 0.53188
 C1622 C 0.62510 0.04914 0.52306
 C1623 C 0.64300 0.05649 0.53032
 C1624 C 0.65234 0.04753 0.54668
 C1625 C 0.64345 0.03063 0.55510
 C1626 C 0.62555 0.02334 0.54777
 C1627 C 0.59709 0.02610 0.52537
 C1628 C 0.58075 0.02104 0.52039
 H1629 H 0.61798 0.05653 0.51077
 H1630 H 0.64927 0.06943 0.52330
 H1631 H 0.65007 0.02318 0.56762
 H1632 H 0.61879 0.01062 0.55476
 C1633 C 0.61474 0.53331 0.03244
 C1634 C 0.62358 0.54976 0.02358
 C1635 C 0.64163 0.55694 0.03066
 C1636 C 0.65106 0.54776 0.04678
 C1637 C 0.64219 0.53100 0.05534
 C1638 C 0.62414 0.52386 0.04823
 C1639 C 0.59561 0.52668 0.02593
 C1640 C 0.57936 0.52143 0.02082
 H1641 H 0.61639 0.55723 0.01139
 H1642 H 0.64801 0.56985 0.02370
 H1643 H 0.64901 0.52355 0.06774
 H1644 H 0.61739 0.51115 0.05523
 C1645 C 0.03276 0.03078 0.11683
 C1646 C 0.04927 0.02208 0.12566
 C1647 C 0.05664 0.02947 0.14352
 C1648 C 0.04764 0.04582 0.15282
 C1649 C 0.03068 0.05411 0.14395
 C1650 C 0.02338 0.04667 0.12610
 C1651 C 0.02618 0.02424 0.09767
 C1652 C 0.02111 0.01930 0.08131
 H1653 H 0.05670 0.00981 0.11856
 H1654 H 0.06963 0.02254 0.14977
 H1655 H 0.02320 0.06662 0.15054
 H1656 H 0.01062 0.05356 0.11934
 C1657 C 0.03375 0.53267 0.61452
 C1658 C 0.02438 0.54864 0.62370
 C1659 C 0.03140 0.55585 0.64175
 C1660 C 0.04797 0.54720 0.65087
 C1661 C 0.05707 0.53091 0.64167
 C1662 C 0.05001 0.52374 0.62361
 C1663 C 0.02722 0.52601 0.59540
 C1664 C 0.02204 0.52076 0.57917
 H1665 H 0.01181 0.55571 0.61675
 H1666 H 0.02402 0.56839 0.64840
 H1667 H 0.06983 0.52387 0.64824
 H1668 H 0.05741 0.51140 0.61660
 C1669 C 0.53148 0.03117 0.61697
 C1670 C 0.52220 0.04719 0.62612
 C1671 C 0.52923 0.05438 0.64418
 C1672 C 0.54579 0.04568 0.65339
 C1673 C 0.55468 0.02920 0.64420
 C1674 C 0.54759 0.02208 0.62614
 C1675 C 0.52518 0.02481 0.59766
 C1676 C 0.52033 0.01995 0.58121
 H1677 H 0.50974 0.05438 0.61911
 H1678 H 0.52184 0.06699 0.65068
 H1679 H 0.56737 0.02197 0.65072
 H1680 H 0.55492 0.00969 0.61914
 C1681 C 0.53332 0.53290 0.11458
 C1682 C 0.52403 0.54894 0.12372
 C1683 C 0.53089 0.55594 0.14192
 C1684 C 0.54720 0.54699 0.15122
 C1685 C 0.55621 0.53064 0.14204
 C1686 C 0.54931 0.52368 0.12384
 C1687 C 0.52692 0.52642 0.09536
 C1688 C 0.52182 0.52130 0.07908
 H1689 H 0.51166 0.55622 0.11665
 H1690 H 0.52359 0.56853 0.14854
 H1691 H 0.56878 0.52338 0.14876
 H1692 H 0.55664 0.51128 0.11686
 C1693 C 0.21635 0.53339 0.63603
 C1694 C 0.22573 0.54930 0.62675
 C1695 C 0.21865 0.55640 0.60869
 C1696 C 0.20201 0.54769 0.59969
 C1697 C 0.19289 0.53147 0.60901
 C1698 C 0.20001 0.52441 0.62706
 C1699 C 0.22295 0.52684 0.65514
 C1700 C 0.22819 0.52167 0.67135
 H1701 H 0.23836 0.55640 0.63360
 H1702 H 0.22604 0.56888 0.60196
 H1703 H 0.18007 0.52440 0.60253
 H1704 H 0.19260 0.51212 0.63416
 C1705 C 0.21637 0.03208 0.13462
 C1706 C 0.20028 0.02295 0.12538
 C1707 C 0.19323 0.03008 0.10732
 C1708 C 0.20216 0.04658 0.09819
 C1709 C 0.21865 0.05537 0.10751
 C1710 C 0.22562 0.04818 0.12557
 C1711 C 0.22284 0.02549 0.15377
 C1712 C 0.22799 0.02036 0.17003
 H1713 H 0.19297 0.01049 0.13228
 H1714 H 0.18059 0.02278 0.10072
 H1715 H 0.22604 0.06802 0.10108
 H1716 H 0.23808 0.05538 0.13263
 C1717 C 0.71663 0.21783 0.61477
 C1718 C 0.70055 0.22696 0.62395
 C1719 C 0.69370 0.22002 0.64215
 C1720 C 0.70283 0.20378 0.65139
 C1721 C 0.71922 0.19493 0.64218
 C1722 C 0.72604 0.20191 0.62399
 C1723 C 0.72295 0.22423 0.59553
 C1724 C 0.72799 0.22925 0.57921
 H1725 H 0.69313 0.23927 0.61691
 H1726 H 0.68107 0.22720 0.64879
 H1727 H 0.72663 0.18242 0.64885
 H1728 H 0.73847 0.19469 0.61698
 C1729 C 0.71674 0.71714 0.11390
 C1730 C 0.70075 0.72638 0.12313
 C1731 C 0.69384 0.71942 0.14130
 C1732 C 0.70282 0.70306 0.15047
 C1733 C 0.71911 0.69408 0.14119
 C1734 C 0.72598 0.70107 0.12303
 C1735 C 0.72318 0.72366 0.09473
 C1736 C 0.72833 0.72881 0.07848
 H1737 H 0.69345 0.73881 0.11617
 H1738 H 0.68129 0.72670 0.14800
 H1739 H 0.72639 0.68147 0.14780
 H1740 H 0.73834 0.69378 0.11598
 C1741 C 0.53271 0.71846 0.13363
 C1742 C 0.54900 0.72740 0.12460
 C1743 C 0.55630 0.71997 0.10677
 C1744 C 0.54742 0.70341 0.09776
 C1745 C 0.53076 0.69482 0.10676
 C1746 C 0.52350 0.70229 0.12458
 C1747 C 0.52621 0.72509 0.15274
 C1748 C 0.52119 0.73012 0.16906
 H1749 H 0.55630 0.73988 0.13153
 H1750 H 0.56912 0.72697 0.10028
 H1751 H 0.52354 0.68209 0.10026
 H1752 H 0.51093 0.69520 0.13149
 C1753 C 0.03218 0.71821 0.63404
 C1754 C 0.04809 0.72750 0.62470
 C1755 C 0.05522 0.72024 0.60674
 C1756 C 0.04654 0.70350 0.59787
 C1757 C 0.03025 0.69453 0.60719
 C1758 C 0.02317 0.70183 0.62515
 C1759 C 0.02584 0.72475 0.65324
 C1760 C 0.02095 0.72976 0.66961
 H1761 H 0.05524 0.74015 0.63150
 H1762 H 0.06775 0.72754 0.60000
 H1763 H 0.02319 0.68165 0.60080
 H1764 H 0.01089 0.69446 0.63230
 C1765 C 0.53167 0.63397 0.21792
 C1766 C 0.54762 0.62476 0.22729
 C1767 C 0.55485 0.60678 0.22015
 C1768 C 0.54624 0.59778 0.20346
 C1769 C 0.52990 0.60695 0.19443
 C1770 C 0.52271 0.62493 0.20160
 C1771 C 0.52527 0.65321 0.22429
 C1772 C 0.52037 0.66963 0.22916
 H1773 H 0.55472 0.63168 0.23988
 H1774 H 0.56742 0.60015 0.22749
 H1775 H 0.52289 0.60046 0.18158
 H1776 H 0.51040 0.63198 0.19418
 C1777 C 0.03194 0.63391 0.71799
 C1778 C 0.04802 0.62480 0.72722
 C1779 C 0.05544 0.60698 0.71988
 C1780 C 0.04688 0.59803 0.70314
 C1781 C 0.03041 0.60709 0.69424
 C1782 C 0.02303 0.62492 0.70161
 C1783 C 0.02538 0.65304 0.72454
 C1784 C 0.02039 0.66938 0.72957
 H1785 H 0.05509 0.63168 0.73985
 H1786 H 0.06810 0.60043 0.72713
 H1787 H 0.02343 0.60063 0.68135
 H1788 H 0.01063 0.63190 0.69429
 C1789 C 0.03141 0.11635 0.03258
 C1790 C 0.04744 0.12548 0.02331
 C1791 C 0.05462 0.14357 0.03030
 C1792 C 0.04591 0.15283 0.04682
 C1793 C 0.02943 0.14366 0.05571
 C1794 C 0.02230 0.12557 0.04866
 C1795 C 0.02502 0.09704 0.02630
 C1796 C 0.02014 0.08059 0.02143
 H1797 H 0.05463 0.11843 0.01087
 H1798 H 0.06724 0.15005 0.02292
 H1799 H 0.02218 0.15021 0.06837
 H1800 H 0.00991 0.11859 0.05599
 C1801 C 0.03274 0.61473 0.53285
 C1802 C 0.04870 0.62397 0.52354
 C1803 C 0.05575 0.64212 0.53054
 C1804 C 0.04693 0.65126 0.54701
 C1805 C 0.03066 0.64198 0.55604
 C1806 C 0.02365 0.62384 0.54901
 C1807 C 0.02626 0.59551 0.52636
 C1808 C 0.02115 0.57922 0.52123
 H1809 H 0.05589 0.61702 0.51106
 H1810 H 0.06828 0.64881 0.52321
 H1811 H 0.02350 0.64857 0.56872
 H1812 H 0.01131 0.61677 0.55636
 C1813 C 0.53113 0.11669 0.53163
 C1814 C 0.52185 0.12607 0.54752
 C1815 C 0.52904 0.14413 0.55458
 C1816 C 0.54569 0.15302 0.54585
 C1817 C 0.55461 0.14367 0.52956
 C1818 C 0.54738 0.12562 0.52254
 C1819 C 0.52476 0.09736 0.52544
 C1820 C 0.51993 0.08089 0.52064
 H1821 H 0.50930 0.11924 0.55472
 H1822 H 0.52179 0.15090 0.56712
 H1823 H 0.56742 0.15008 0.52246
 H1824 H 0.55472 0.11843 0.51028
 C1825 C 0.53298 0.61451 0.03325
 C1826 C 0.54935 0.62327 0.02419
 C1827 C 0.55668 0.64132 0.03114
 C1828 C 0.54773 0.65085 0.04731
 C1829 C 0.53106 0.64206 0.05609
 C1830 C 0.52377 0.62400 0.04911
 C1831 C 0.52620 0.59537 0.02684
 C1832 C 0.52089 0.57913 0.02176
 H1833 H 0.55664 0.61601 0.01194
 H1834 H 0.56952 0.64764 0.02402
 H1835 H 0.52378 0.64895 0.06855
 H1836 H 0.51112 0.61732 0.05627
 C1837 C 0.71660 0.13476 0.53323
 C1838 C 0.70040 0.12574 0.52408
 C1839 C 0.69320 0.10768 0.53109
 C1840 C 0.70207 0.09835 0.54750
 C1841 C 0.71866 0.10747 0.55632
 C1842 C 0.72580 0.12552 0.54925
 C1843 C 0.72326 0.15389 0.52670
 C1844 C 0.72848 0.17013 0.52152
 H1845 H 0.69315 0.13279 0.51168
 H1846 H 0.68049 0.10125 0.52378
 H1847 H 0.72602 0.10087 0.56890
 H1848 H 0.73834 0.13241 0.55647
 C1849 C 0.71721 0.63561 0.03281
 C1850 C 0.70081 0.62677 0.02381
 C1851 C 0.69358 0.60872 0.03082
 C1852 C 0.70265 0.59928 0.04699
 C1853 C 0.71936 0.60816 0.05570
 C1854 C 0.72655 0.62620 0.04866
 C1855 C 0.72390 0.65473 0.02634
 C1856 C 0.72915 0.67097 0.02121
 H1857 H 0.69343 0.63396 0.01157
 H1858 H 0.68072 0.60233 0.02374
 H1859 H 0.72672 0.60133 0.06815
 H1860 H 0.73922 0.63296 0.05577
 C1861 C 0.21768 0.61508 0.71725
 C1862 C 0.22684 0.62430 0.70119
 C1863 C 0.21988 0.64248 0.69428
 C1864 C 0.20360 0.65168 0.70334
 C1865 C 0.19472 0.64243 0.71971
 C1866 C 0.20171 0.62425 0.72658
 C1867 C 0.22415 0.59586 0.72364
 C1868 C 0.22924 0.57957 0.72871
 H1869 H 0.23919 0.61730 0.69383
 H1870 H 0.22709 0.64915 0.68167
 H1871 H 0.18218 0.64907 0.72705
 H1872 H 0.19448 0.61722 0.73900
 C1873 C 0.21701 0.11439 0.21623
 C1874 C 0.22620 0.12363 0.20021
 C1875 C 0.21932 0.14187 0.19340
 C1876 C 0.20309 0.15110 0.20252
 C1877 C 0.19418 0.14182 0.21885
 C1878 C 0.20109 0.12358 0.22562
 C1879 C 0.22342 0.09513 0.22256
 C1880 C 0.22847 0.07883 0.22764
 H1881 H 0.23851 0.11661 0.19281
 H1882 H 0.22655 0.14858 0.18081
 H1883 H 0.18167 0.14848 0.22624
 H1884 H 0.19385 0.11652 0.23802
 C1885 C 0.71865 1.11691 0.71812
 C1886 C 0.70282 1.12621 0.72756
 C1887 C 0.69559 1.14418 0.72041
 C1888 C 0.70408 1.15307 0.70364
 C1889 C 0.72030 1.14381 0.69454
 C1890 C 0.72750 1.12583 0.70173
 C1891 C 0.72502 1.09766 0.72450
 C1892 C 0.72988 1.08125 0.72939
 H1893 H 0.69581 1.11938 0.74021
 H1894 H 0.68312 1.15089 0.72780
 H1895 H 0.72721 1.15022 0.68163
 H1896 H 0.73971 1.11871 0.69426
 C1897 C 0.71859 0.61634 0.21747
 C1898 C 0.70276 0.62567 0.22687
 C1899 C 0.69549 0.64360 0.21964
 C1900 C 0.70395 0.65243 0.20282
 C1901 C 0.72016 0.64312 0.19373
 C1902 C 0.72739 0.62519 0.20100
 C1903 C 0.72504 0.59715 0.22398
 C1904 C 0.72999 0.58079 0.22898
 H1905 H 0.69578 0.61890 0.23958
 H1906 H 0.68303 0.65034 0.22702
 H1907 H 0.72705 0.64947 0.18079
 H1908 H 0.73960 0.61804 0.19356
 C1909 C 0.53059 0.13312 0.71833
 C1910 C 0.54656 0.12394 0.72770
 C1911 C 0.55369 0.10587 0.72068
 C1912 C 0.54497 0.09674 0.70412
 C1913 C 0.52862 0.10588 0.69509
 C1914 C 0.52152 0.12396 0.70214
 C1915 C 0.52429 0.15244 0.72459
 C1916 C 0.51950 0.16890 0.72943
 H1917 H 0.55374 0.13095 0.74019
 H1918 H 0.56628 0.09928 0.72802
 H1919 H 0.52152 0.09929 0.68234
 H1920 H 0.50919 0.13097 0.69473
 C1921 C 1.03182 0.13312 0.21779
 C1922 C 1.04825 0.12440 0.22679
 C1923 C 1.05570 0.10651 0.21965
 C1924 C 1.04684 0.09710 0.20332
 C1925 C 1.03004 0.10578 0.19466
 C1926 C 1.02262 0.12368 0.20183
 C1927 C 1.02517 0.15230 0.22413
 C1928 C 1.02014 0.16867 0.22903
 H1929 H 1.05554 0.13163 0.23910
 H1930 H 1.06863 0.10027 0.22670
 H1931 H 1.02282 0.09896 0.18209
 H1932 H 1.00995 0.13034 0.19469
 C1933 C 0.21800 0.63414 0.53245
 C1934 C 0.20180 0.62506 0.52332
 C1935 C 0.19437 0.60724 0.53067
 C1936 C 0.20302 0.59829 0.54734
 C1937 C 0.21959 0.60733 0.55613
 C1938 C 0.22699 0.62514 0.54874
 C1939 C 0.22459 0.65326 0.52589
 C1940 C 0.22962 0.66959 0.52086
 H1941 H 0.19467 0.63195 0.51075
 H1942 H 0.18162 0.60071 0.52352
 H1943 H 0.22664 0.60086 0.56895
 H1944 H 0.23948 0.63210 0.55597
 C1945 C 0.21808 0.13341 1.03266
 C1946 C 0.22694 0.12450 1.04907
 C1947 C 0.21974 0.10651 1.05624
 C1948 C 0.20349 0.09721 1.04712
 C1949 C 0.19497 0.10610 1.03035
 C1950 C 0.20221 0.12409 1.02321
 C1951 C 0.22449 0.15265 1.02624
 C1952 C 0.22940 0.16905 1.02130
 H1953 H 0.23918 0.13164 1.05655
 H1954 H 0.22667 0.10011 1.06916
 H1955 H 0.18248 0.09938 1.02293
 H1956 H 0.19519 0.13090 1.01054
 C1957 C 0.21861 0.71890 0.61672
 C1958 C 0.22762 0.70255 0.62558
 C1959 C 0.22052 0.69523 0.64352
 C1960 C 0.20422 0.70415 0.65284
 C1961 C 0.19556 0.72088 0.64401
 C1962 C 0.20269 0.72816 0.62606
 C1963 C 0.22491 0.72541 0.59750
 C1964 C 0.22977 0.73035 0.58111
 H1965 H 0.23989 0.69521 0.61842
 H1966 H 0.22757 0.68236 0.64988
 H1967 H 0.18302 0.72813 0.65075
 H1968 H 0.19555 0.74078 0.61928
 C1969 C 0.21811 0.21839 1.11713
 C1970 C 0.20224 0.22766 1.12651
 C1971 C 0.19501 0.22029 1.14438
 C1972 C 0.20351 0.20338 1.15315
 C1973 C 0.21986 0.19452 1.14376
 C1974 C 0.22702 0.20195 1.12589
 C1975 C 0.22444 0.22495 1.09795
 C1976 C 0.22932 0.22992 1.08157
 H1977 H 0.19519 0.24037 1.11980
 H1978 H 0.18250 0.22767 1.15106
 H1979 H 0.22694 0.18158 1.14994
 H1980 H 0.23929 0.19462 1.11871
 C1981 C 0.71829 0.53176 0.13326
 C1982 C 0.70206 0.52272 0.12417
 C1983 C 0.69467 0.53013 0.10636
 C1984 C 0.70341 0.54678 0.09743
 C1985 C 0.72003 0.55546 0.10648
 C1986 C 0.72738 0.54801 0.12429
 C1987 C 0.72482 0.52517 0.15239
 C1988 C 0.72981 0.52016 0.16873
 H1989 H 0.69485 0.51018 0.13104
 H1990 H 0.68189 0.52305 0.09982
 H1991 H 0.72715 0.56826 0.10004
 H1992 H 0.73990 0.55518 0.13126
 C1993 C 0.71782 1.03184 0.63359
 C1994 C 0.72683 1.04820 0.62472
 C1995 C 0.71960 1.05560 0.60684
 C1996 C 0.70317 1.04674 0.59760
 C1997 C 0.69451 1.03001 0.60643
 C1998 C 0.70178 1.02265 0.62431
 C1999 C 0.72426 1.02527 0.65276
 C2000 C 0.72921 1.02029 0.66913
 H2001 H 0.73921 1.05549 0.63183
 H2002 H 0.72666 1.06847 0.60049
 H2003 H 0.68187 1.02280 0.59974
 H2004 H 0.69463 1.01003 0.63109
 C2005 C 0.53151 0.21927 0.63332
 C2006 C 0.52197 0.20351 0.62389
 C2007 C 0.52911 0.19631 0.60591
 C2008 C 0.54596 0.20476 0.59714
 C2009 C 0.55515 0.22093 0.60652
 C2010 C 0.54798 0.22809 0.62451
 C2011 C 0.52515 0.22556 0.65259
 C2012 C 0.52026 0.23033 0.66902
 H2013 H 0.50926 0.19651 0.63063
 H2014 H 0.52164 0.18387 0.59911
 H2015 H 0.56813 0.22781 0.60021
 H2016 H 0.55552 0.24025 0.63174
 C2017 C 1.03161 0.21825 0.13291
 C2018 C 1.04762 0.22743 0.12366
 C2019 C 1.05473 0.22020 0.10568
 C2020 C 1.04597 0.20351 0.09666
 C2021 C 1.02949 0.19473 0.10594
 C2022 C 1.02244 0.20203 0.12392
 C2023 C 1.02533 0.22471 0.15216
 C2024 C 1.02049 0.22963 0.16857
 H2025 H 1.05486 0.23997 0.13054
 H2026 H 1.06735 0.22750 0.09911
 H2027 H 1.02221 0.18196 0.09957
 H2028 H 1.01006 0.19477 0.13099
 C2029 C 0.61625 0.21848 0.71858
 C2030 C 0.62573 0.20266 0.72789
 C2031 C 0.64370 0.19562 0.72062
 C2032 C 0.65241 0.20429 0.70385
 C2033 C 0.64296 0.22050 0.69488
 C2034 C 0.62499 0.22750 0.70219
 C2035 C 0.59701 0.22467 0.72509
 C2036 C 0.58061 0.22943 0.73005
 H2037 H 0.61904 0.19551 0.74055
 H2038 H 0.65055 0.18314 0.72792
 H2039 H 0.64923 0.22755 0.68197
 H2040 H 0.61773 0.23971 0.69481
 C2041 C 1.11649 0.21793 0.21844
 C2042 C 1.12544 0.20155 0.22731
 C2043 C 1.14338 0.19438 0.22010
 C2044 C 1.15260 0.20347 0.20384
 C2045 C 1.14370 0.22024 0.19533
 C2046 C 1.12575 0.22737 0.20257
 C2047 C 1.09727 0.22428 0.22482
 C2048 C 1.08087 0.22913 0.22969
 H2049 H 1.11835 0.19408 0.23955
 H2050 H 1.14980 0.18147 0.22703
 H2051 H 1.15037 0.22762 0.18282
 H2052 H 1.11891 0.24002 0.19554
 C2053 C 0.13375 0.71819 0.53147
 C2054 C 0.12474 0.70186 0.52250
 C2055 C 0.10683 0.69459 0.52975
 C2056 C 0.09770 0.70354 0.54614
 C2057 C 0.10667 0.72025 0.55476
 C2058 C 0.12459 0.72749 0.54748
 C2059 C 0.15293 0.72466 0.52502
 C2060 C 0.16930 0.72961 0.52008
 H2061 H 0.13176 0.69449 0.51015
 H2062 H 0.10036 0.68173 0.52273
 H2063 H 0.10008 0.72754 0.56738
 H2064 H 0.13148 0.74010 0.55459
 C2065 C 0.13314 0.21801 1.03155
 C2066 C 0.12404 0.20177 1.02250
 C2067 C 0.10600 0.19467 1.02961
 C2068 C 0.09685 0.20369 1.04595
 C2069 C 0.10592 0.22030 1.05466
 C2070 C 0.12396 0.22737 1.04752
 C2071 C 0.15242 0.22433 1.02523
 C2072 C 0.16884 0.22920 1.02040
 H2073 H 0.13106 0.19437 1.01018
 H2074 H 0.09945 0.18188 1.02252
 H2075 H 0.09931 0.22763 1.06724
 H2076 H 0.13092 0.23990 1.05469
 C2077 C 0.63385 0.53183 0.21832
 C2078 C 0.62464 0.54786 0.22756
 C2079 C 0.60668 0.55504 0.22033
 C2080 C 0.59772 0.54631 0.20369
 C2081 C 0.60689 0.52989 0.19480
 C2082 C 0.62485 0.52275 0.20206
 C2083 C 0.65307 0.52548 0.22475
 C2084 C 0.66947 0.52060 0.22966
 H2085 H 0.63154 0.55506 0.24011
 H2086 H 0.60005 0.56768 0.22756
 H2087 H 0.60043 0.52278 0.18199
 H2088 H 0.63189 0.51038 0.19474
 C2089 C 0.63306 1.03154 0.71881
 C2090 C 0.62373 1.04750 0.72803
 C2091 C 0.60565 1.05445 0.72088
 C2092 C 0.59667 1.04554 0.70433
 C2093 C 0.60598 1.02920 0.69544
 C2094 C 0.62406 1.02229 0.70263
 C2095 C 0.65238 1.02538 0.72521
 C2096 C 0.66882 1.02064 0.73009
 H2097 H 0.63061 1.05482 0.74052
 H2098 H 0.59892 1.06703 0.72811
 H2099 H 0.59951 1.02197 0.68270
 H2100 H 0.63120 1.00997 0.69533
 C2101 C 0.86467 0.46677 0.28362
 C2102 C 0.87354 0.45049 0.27449
 C2103 C 0.89152 0.44319 0.28155
 C2104 C 0.90086 0.45208 0.29791
 C2105 C 0.89197 0.46867 0.30676
 C2106 C 0.87399 0.47593 0.29966
 C2107 C 0.84561 0.47351 0.27708
 C2108 C 0.82943 0.47879 0.27188
 H2109 H 0.86642 0.44325 0.26210
 H2110 H 0.89792 0.43042 0.27437
 H2111 H 0.89872 0.47590 0.31935
 H2112 H 0.86722 0.48851 0.30687
 C2113 C 0.86394 0.96658 0.78456
 C2114 C 0.87292 0.97553 0.80092
 C2115 C 0.89077 0.96821 0.80827
 C2116 C 0.89988 0.95176 0.79936
 C2117 C 0.89087 0.94309 0.78270
 C2118 C 0.87302 0.95044 0.77539
 C2119 C 0.84501 0.97338 0.77773
 C2120 C 0.82891 0.97872 0.77231
 H2121 H 0.86598 0.98799 0.80817
 H2122 H 0.89727 0.97526 0.82109
 H2123 H 0.89744 0.93043 0.77546
 H2124 H 0.86616 0.94336 0.76276
 C2125 C 0.38531 0.28241 0.78408
 C2126 C 0.37609 0.29831 0.77464
 C2127 C 0.35814 0.30558 0.78173
 C2128 C 0.34917 0.29706 0.79844
 C2129 C 0.35841 0.28083 0.80761
 C2130 C 0.37637 0.27359 0.80048
 C2131 C 0.40436 0.27573 0.77750
 C2132 C 0.42055 0.27051 0.77228
 H2133 H 0.38293 0.30528 0.76197
 H2134 H 0.35146 0.31807 0.77430
 H2135 H 0.35195 0.27389 0.82048
 H2136 H 0.38341 0.26131 0.80794
 C2137 C 0.88549 0.28239 0.28318
 C2138 C 0.87603 0.27310 0.29902
 C2139 C 0.85804 0.28037 0.30604
 C2140 C 0.84927 0.29709 0.29731
 C2141 C 0.85875 0.30611 0.28116
 C2142 C 0.87674 0.29881 0.27418
 C2143 C 0.90456 0.27563 0.27673
 C2144 C 0.92075 0.27035 0.27161
 H2145 H 0.88271 0.26042 0.30614
 H2146 H 0.85118 0.27304 0.31848
 H2147 H 0.85245 0.31899 0.27408
 H2148 H 0.88397 0.30616 0.26194
 C2149 C 0.36439 0.78372 0.46608
 C2150 C 0.37343 0.79992 0.47525
 C2151 C 0.39133 0.80728 0.46805
 C2152 C 0.40041 0.79853 0.45152
 C2153 C 0.39135 0.78201 0.44264
 C2154 C 0.37346 0.77469 0.44987
 C2155 C 0.34540 0.77693 0.47276
 C2156 C 0.32925 0.77161 0.47802
 H2157 H 0.36650 0.80707 0.48777
 H2158 H 0.39786 0.82000 0.47527
 H2159 H 0.39791 0.77489 0.42991
 H2160 H 0.36654 0.76217 0.44262
 C2161 C 0.36414 0.28299 0.96675
 C2162 C 0.37342 0.29894 0.97611
 C2163 C 0.39139 0.30616 0.96897
 C2164 C 0.40031 0.29753 0.95228
 C2165 C 0.39101 0.28125 0.94320
 C2166 C 0.37304 0.27407 0.95038
 C2167 C 0.34508 0.27634 0.97339
 C2168 C 0.32890 0.27111 0.97862
 H2169 H 0.36663 0.30600 0.98876
 H2170 H 0.39812 0.31869 0.97634
 H2171 H 0.39743 0.27423 0.93035
 H2172 H 0.36594 0.26174 0.94299
 C2173 C 0.78268 0.46675 0.36463
 C2174 C 0.77349 0.45062 0.37373
 C2175 C 0.78029 0.44377 0.39198
 C2176 C 0.79646 0.45294 0.40138
 C2177 C 0.80537 0.46938 0.39224
 C2178 C 0.79853 0.47620 0.37399
 C2179 C 0.77637 0.47311 0.34536
 C2180 C 0.77139 0.47820 0.32904
 H2181 H 0.76123 0.44317 0.36658
 H2182 H 0.77307 0.43110 0.39857
 H2183 H 0.81782 0.47682 0.39902
 H2184 H 0.80578 0.48867 0.36704
 C2185 C 0.78350 0.96685 0.86457
 C2186 C 0.77420 0.95094 0.87394
 C2187 C 0.78158 0.94370 0.89182
 C2188 C 0.79844 0.95225 0.90056
 C2189 C 0.80746 0.96848 0.89118
 C2190 C 0.80005 0.97569 0.87329
 C2191 C 0.77664 0.97350 0.84556
 C2192 C 0.77129 0.97874 0.82940
 H2193 H 0.76142 0.94394 0.86727
 H2194 H 0.77425 0.93121 0.89861
 H2195 H 0.82044 0.97544 0.89746
 H2196 H 0.80740 0.98797 0.86613
 C2197 C 0.28375 0.78417 0.38579
 C2198 C 0.27444 0.80003 0.37638
 C2199 C 0.28166 0.80713 0.35839
 C2200 C 0.29837 0.79847 0.34958
 C2201 C 0.30742 0.78230 0.35902
 C2202 C 0.30017 0.77524 0.37701
 C2203 C 0.27700 0.77759 0.40483
 C2204 C 0.27170 0.77236 0.42100
 H2205 H 0.26175 0.80710 0.38308
 H2206 H 0.27431 0.81958 0.35156
 H2207 H 0.32029 0.77526 0.35268
 H2208 H 0.30753 0.76298 0.38420
 C2209 C 0.28320 0.28347 0.88619
 C2210 C 0.27399 0.29943 0.87683
 C2211 C 0.28118 0.30645 0.85880
 C2212 C 0.29775 0.29762 0.84990
 C2213 C 0.30669 0.28135 0.85929
 C2214 C 0.29946 0.27436 0.87731
 C2215 C 0.27650 0.27698 0.90527
 C2216 C 0.27125 0.27180 0.92146
 H2217 H 0.26142 0.30662 0.88360
 H2218 H 0.27392 0.31898 0.85201
 H2219 H 0.31945 0.27418 0.85288
 H2220 H 0.30674 0.26203 0.88447
 C2221 C 0.46622 0.28343 0.86456
 C2222 C 0.44990 0.27440 0.87344
 C2223 C 0.44270 0.28148 0.89144
 C2224 C 0.45171 0.29776 0.90080
 C2225 C 0.46834 0.30651 0.89190
 C2226 C 0.47551 0.29940 0.87389
 C2227 C 0.47291 0.27685 0.84549
 C2228 C 0.47817 0.27162 0.82931
 H2229 H 0.44256 0.26206 0.86630
 H2230 H 0.42989 0.27437 0.89785
 H2231 H 0.47566 0.31905 0.89867
 H2232 H 0.48813 0.30653 0.86711
 C2233 C 0.96696 0.28322 0.36421
 C2234 C 0.95109 0.27377 0.37345
 C2235 C 0.94407 0.28069 0.39159
 C2236 C 0.95283 0.29724 0.40073
 C2237 C 0.96902 0.30642 0.39146
 C2238 C 0.97600 0.29946 0.37331
 C2239 C 0.97346 0.27672 0.34505
 C2240 C 0.97859 0.27154 0.32881
 H2241 H 0.94395 0.26120 0.36650
 H2242 H 0.93161 0.27324 0.39828
 H2243 H 0.97613 0.31917 0.39805
 H2244 H 0.98827 0.30692 0.36626
 C2245 C 0.46717 0.36499 0.78269
 C2246 C 0.45113 0.37421 0.77349
 C2247 C 0.44427 0.39241 0.78045
 C2248 C 0.45336 0.40161 0.79678
 C2249 C 0.46972 0.39237 0.80568
 C2250 C 0.47655 0.37417 0.79868
 C2251 C 0.47348 0.34573 0.77627
 C2252 C 0.47848 0.32940 0.77123
 H2253 H 0.44374 0.36719 0.76112
 H2254 H 0.43166 0.39908 0.77323
 H2255 H 0.47709 0.39901 0.81826
 H2256 H 0.48895 0.36713 0.80594
 C2257 C 0.96656 0.36431 0.28274
 C2258 C 0.97591 0.37346 0.29877
 C2259 C 0.96881 0.39143 0.30608
 C2260 C 0.95218 0.40047 0.29748
 C2261 C 0.94310 0.39130 0.28112
 C2262 C 0.95024 0.37333 0.27384
 C2263 C 0.97314 0.34524 0.27602
 C2264 C 0.97835 0.32903 0.27077
 H2265 H 0.98852 0.36657 0.30581
 H2266 H 0.97618 0.39805 0.31867
 H2267 H 0.93029 0.39782 0.27412
 H2268 H 0.94285 0.36634 0.26146
 C2269 C 0.28353 0.86528 0.46732
 C2270 C 0.30005 0.87412 0.47609
 C2271 C 0.30729 0.89207 0.46888
 C2272 C 0.29812 0.90141 0.45271
 C2273 C 0.28128 0.89256 0.44424
 C2274 C 0.27407 0.87461 0.45149
 C2275 C 0.27687 0.84619 0.47392
 C2276 C 0.27163 0.82997 0.47909
 H2277 H 0.30752 0.86698 0.48832
 H2278 H 0.32026 0.89844 0.47577
 H2279 H 0.27383 0.89932 0.43180
 H2280 H 0.26131 0.86785 0.44455
 C2281 C 0.28274 0.36511 0.96819
 C2282 C 0.29897 0.37417 0.97726
 C2283 C 0.30601 0.39230 0.97028
 C2284 C 0.29691 0.40161 0.95406
 C2285 C 0.28036 0.39252 0.94527
 C2286 C 0.27336 0.37439 0.95228
 C2287 C 0.27624 0.34590 0.97462
 C2288 C 0.27110 0.32960 0.97967
 H2289 H 0.30638 0.36708 0.98955
 H2290 H 0.31876 0.39885 0.97742
 H2291 H 0.27297 0.39924 0.93277
 H2292 H 0.26081 0.36748 0.94511
 C2293 C 0.78356 0.38504 0.28252
 C2294 C 0.79998 0.37616 0.27371
 C2295 C 0.80713 0.35814 0.28085
 C2296 C 0.79796 0.34878 0.29699
 C2297 C 0.78124 0.35769 0.30553
 C2298 C 0.77412 0.37570 0.29834
 C2299 C 0.77694 0.40414 0.27593
 C2300 C 0.77172 0.42037 0.27077
 H2301 H 0.80744 0.38330 0.26149
 H2302 H 0.82002 0.35173 0.27391
 H2303 H 0.77379 0.35092 0.31795
 H2304 H 0.76144 0.38248 0.30532
   
