data_POSCAR
  _audit_creation_date              2014-09-24
  _audit_creation_method            'ToBaCCo'
  _symmetry_space_group_name_H-M    'P1'
  _symmetry_Int_Tables_number       1
  _symmetry_cell_setting            triclinic
  loop_
  _symmetry_equiv_pos_as_xyz
 x,y,z
_cell_length_a 52.5418
_cell_length_b 52.8047
_cell_length_c 52.6363
_cell_angle_alpha 89.943700
_cell_angle_beta 89.857700
_cell_angle_gamma 90.028800
loop_
  _atom_site_label
  _atom_site_type_symbol
  _atom_site_fract_x
  _atom_site_fract_y
  _atom_site_fract_z
N1 N 0.35378 1.35542 0.35062
 N2 N 0.34883 0.84927 0.84954
 N3 N 0.85265 1.35280 0.84839
 N4 N 0.84984 0.85235 0.35023
 N5 N 0.65758 0.66297 0.34021
 N6 N 0.64077 0.14138 0.85590
 N7 N 1.14986 0.64984 0.84890
 N8 N 1.14711 0.14714 0.34847
 N9 N 0.67488 1.32516 0.67093
 N10 N 0.65585 0.84363 1.15410
 N11 N 1.15590 1.34193 1.15726
 N12 N 1.14169 0.85476 0.64549
 N13 N 0.35427 0.64662 0.64638
 N14 N 0.33776 0.16460 1.16097
 N15 N 0.85142 0.64644 1.14705
 N16 N 0.83872 0.15980 0.65703
 N17 N 1.33603 0.33883 0.65846
 N18 N 1.33765 0.83989 1.15878
 N19 N 0.83826 0.33932 1.16171
 N20 N 0.83391 0.83517 0.66377
 N21 N 0.65783 0.65972 0.66020
 N22 N 0.64478 1.14835 1.14659
 N23 N 0.17992 0.68181 1.17776
 N24 N 0.16128 1.16182 0.66070
 N25 N 1.35317 0.64918 0.35090
 N26 N 1.35760 1.14134 0.85718
 N27 N 0.83920 0.65927 0.83551
 N28 N 0.83397 1.16705 0.33218
 N29 N 0.65052 0.35109 0.34891
 N30 N 0.66683 0.83103 0.83007
 N31 N 0.16304 0.33910 0.83660
 N32 N 0.14394 0.85570 0.35233
 O33 O 0.97344 0.90307 0.87607
 O34 O 0.97295 0.87278 0.84724
 C35 C 0.96421 0.89347 0.85598
 C36 C 0.94248 0.90612 0.84337
 C37 C 0.92890 0.89380 0.82390
 H38 H 0.93484 0.87527 0.81736
 O39 O 1.02451 1.08809 0.87120
 O40 O 1.02497 1.11658 0.84052
 C41 C 1.03357 1.09633 0.85041
 C42 C 1.05545 1.08329 0.83840
 C43 C 1.06851 1.09518 0.81843
 H44 H 1.06164 1.11300 0.81084
 O45 O 0.87416 0.97337 0.90886
 O46 O 0.84500 0.97276 0.87879
 C47 C 0.85392 0.96413 0.89944
 C48 C 0.84131 0.94212 0.91156
 C49 C 0.82207 0.92920 0.89842
 H50 H 0.81551 0.93622 0.88022
 O51 O 1.12590 1.01819 0.90712
 O52 O 1.15577 1.01633 0.87766
 C53 C 1.14715 1.02553 0.89823
 C54 C 1.16164 1.04539 0.91166
 C55 C 1.18674 1.05100 0.90461
 H56 H 1.19570 1.04031 0.88947
 O57 O 0.90610 0.87088 0.97782
 O58 O 0.87587 0.84190 0.97836
 C59 C 0.89667 0.85039 0.96937
 C60 C 0.90936 0.83725 0.94791
 C61 C 0.89692 0.81745 0.93494
 H62 H 0.87852 0.81076 0.94141
 O63 O 1.09372 1.12186 0.96909
 O64 O 1.12437 1.15039 0.96829
 C65 C 1.10355 1.14176 0.95969
 C66 C 1.09140 1.15455 0.93785
 C67 C 1.10394 1.17468 0.92583
 H68 H 1.12162 1.18178 0.93364
 O69 O 0.90935 1.02255 0.87317
 O70 O 0.87951 1.02188 0.84380
 C71 C 0.90005 1.03098 0.85257
 C72 C 0.91215 1.05260 0.83929
 C73 C 0.89977 1.06373 0.81856
 H74 H 0.88266 1.05507 0.81110
 O75 O 1.08868 0.97053 0.87275
 O76 O 1.11767 0.96984 0.84235
 C77 C 1.09681 0.96199 0.85171
 C78 C 1.08206 0.94237 0.83830
 C79 C 1.08677 0.93712 0.81266
 H80 H 1.10111 0.94788 0.80249
 O81 O 1.02361 0.86972 0.91108
 O82 O 1.02394 0.83953 0.88218
 C83 C 1.03238 0.84892 0.90274
 C84 C 1.05260 0.83574 0.91723
 C85 C 1.06040 0.81115 0.91060
 H86 H 1.05147 0.80147 0.89482
 O87 O 0.97635 1.12583 0.90491
 O88 O 0.97745 1.15485 0.87476
 C89 C 0.96861 1.14668 0.89571
 C90 C 0.94865 1.16116 0.90924
 C91 C 0.94307 1.18622 0.90241
 H92 H 0.95393 1.19538 0.88747
 O93 O 0.87251 1.09428 0.96964
 O94 O 0.84293 1.12385 0.96801
 C95 C 0.85190 1.10279 0.96044
 C96 C 0.83853 1.08769 0.94084
 C97 C 0.81324 1.09302 0.93374
 H98 H 0.80306 1.10845 0.94273
 O99 O 1.12400 0.90501 0.97700
 O100 O 1.15290 0.87476 0.97807
 C101 C 1.14412 0.89491 0.96818
 C102 C 1.15665 0.90619 0.94555
 C103 C 1.17780 0.89437 0.93413
 H104 H 1.18588 0.87743 0.94249
 O105 O 0.97481 1.09070 0.87056
 O106 O 0.97487 1.11951 0.84023
 C107 C 0.96574 1.09946 0.85000
 C108 C 0.94377 1.08654 0.83804
 C109 C 0.93070 1.09773 0.81753
 H110 H 0.93713 1.11565 0.80981
 O111 O 1.02284 0.90327 0.87479
 O112 O 1.02254 0.87345 0.84549
 C113 C 1.03086 0.89442 0.85381
 C114 C 1.05015 0.90883 0.83925
 C115 C 1.05521 0.90355 0.81351
 H116 H 1.04474 0.88876 0.80383
 O117 O 1.12360 0.96878 0.90733
 O118 O 1.15263 0.96701 0.87706
 C119 C 1.14354 0.95887 0.89792
 C120 C 1.15592 0.93725 0.91098
 C121 C 1.17677 0.92495 0.89974
 H122 H 1.18437 0.93179 0.88185
 O123 O 0.87392 1.02322 0.90768
 O124 O 0.84426 1.02199 0.87812
 C125 C 0.85311 1.03134 0.89846
 C126 C 0.83924 1.05220 0.91111
 C127 C 0.81410 1.05772 0.90428
 H128 H 0.80482 1.04635 0.88990
 O129 O 0.90771 1.12868 0.96975
 O130 O 0.87868 1.15881 0.96872
 C131 C 0.89950 1.14944 0.96077
 C132 C 0.91440 1.16243 0.94073
 C133 C 0.90879 1.18742 0.93340
 H134 H 0.89356 1.19766 0.94275
 O135 O 1.08865 0.87113 0.97966
 O136 O 1.11740 0.84080 0.98173
 C137 C 1.09707 0.84980 0.97231
 C138 C 1.08358 0.83588 0.95190
 C139 C 1.09078 0.81114 0.94527
 H140 H 1.10569 0.80167 0.95582
 O141 O 1.09078 1.01990 0.87269
 O142 O 1.12068 1.01907 0.84321
 C143 C 1.10034 1.02852 0.85223
 C144 C 1.08829 1.05042 0.83934
 C145 C 1.10091 1.06261 0.81912
 H146 H 1.11898 1.05547 0.81221
 O147 O 0.90929 0.97269 0.87449
 O148 O 0.87980 0.97250 0.84475
 C149 C 0.90003 0.96343 0.85424
 C150 C 0.91162 0.94076 0.84243
 C151 C 0.89859 0.92829 0.82292
 H152 H 0.88138 0.93654 0.81520
 O153 O 1.02605 1.12475 0.90328
 O154 O 1.02710 1.15321 0.87259
 C155 C 1.03586 1.14439 0.89325
 C156 C 1.05843 1.15616 0.90524
 C157 C 1.07150 1.17624 0.89326
 H158 H 1.06447 1.18402 0.87557
 O159 O 0.97393 0.86969 0.91178
 O160 O 0.97412 0.83944 0.88291
 C161 C 0.96513 0.84901 0.90319
 C162 C 0.94313 0.83673 0.91579
 C163 C 0.93059 0.81690 0.90343
 H164 H 0.93831 0.80936 0.88589
 O165 O 1.12844 1.08677 0.97120
 O166 O 1.15910 1.11530 0.97035
 C167 C 1.14967 1.09457 0.96259
 C168 C 1.16301 1.07945 0.94296
 C169 C 1.18821 1.08496 0.93560
 H170 H 1.19852 1.10011 0.94488
 O171 O 0.87235 0.90624 0.97588
 O172 O 0.84212 0.87723 0.97619
 C173 C 0.85188 0.89721 0.96684
 C174 C 0.84010 0.90937 0.94442
 C175 C 0.82063 0.89690 0.93104
 H176 H 0.81329 0.87893 0.93781
 Cu177 Cu 0.99868 0.88945 0.89632
 Cu178 Cu 0.99858 0.85317 0.86161
 Cu179 Cu 1.00022 1.10451 0.89054
 Cu180 Cu 1.00102 1.13882 0.85385
 Cu181 Cu 0.89468 0.99814 0.89407
 Cu182 Cu 0.85926 0.99732 0.85835
 Cu183 Cu 1.10428 0.99448 0.89298
 Cu184 Cu 1.13966 0.99291 0.85707
 C185 C 0.93369 0.92966 0.85244
 H186 H 0.94352 0.93894 0.86792
 C187 C 0.90662 0.90462 0.81403
 C188 C 1.06541 1.06079 0.84871
 H189 H 1.05589 1.05191 0.86467
 C190 C 1.09133 1.08521 0.80906
 C191 C 0.85016 0.93213 0.93464
 H192 H 0.86555 0.94156 0.94450
 C193 C 0.81200 0.90647 0.90779
 C194 C 1.15006 1.05949 0.93102
 H195 H 1.13056 1.05535 0.93632
 C196 C 1.20032 1.07051 0.91663
 C197 C 0.93257 0.84664 0.93821
 H198 H 0.94185 0.86244 0.94749
 C199 C 0.90723 0.80769 0.91236
 C200 C 1.06852 1.14557 0.92761
 H201 H 1.05900 1.12972 0.93662
 C202 C 1.09454 1.18526 0.90330
 C203 C 0.93431 1.06395 0.84874
 H204 H 0.94371 1.05562 0.86502
 C205 C 0.90834 1.08662 0.80805
 C206 C 1.06355 0.92838 0.85134
 H207 H 1.05999 0.93234 0.87123
 C208 C 1.07321 0.91802 0.79998
 C209 C 1.06425 0.84786 0.93796
 H210 H 1.05865 0.86697 0.94290
 C211 C 1.07925 0.79865 0.92473
 C212 C 0.93444 1.14957 0.92862
 H213 H 0.93860 1.13017 0.93388
 C214 C 0.92332 1.19953 0.91450
 C215 C 0.85122 1.06713 0.92951
 H216 H 0.87073 1.06297 0.93469
 C217 C 0.80074 1.07774 0.91573
 C218 C 1.14608 0.92779 0.93395
 H219 H 1.12964 0.93685 0.94243
 C220 C 1.18768 0.90348 0.91106
 O221 O 1.01939 0.91314 1.12959
 O222 O 1.01855 0.88545 1.16100
 C223 C 1.02765 0.90534 1.15092
 C224 C 1.04848 0.91927 1.16370
 C225 C 1.05516 0.91388 1.18904
 H226 H 1.04450 0.89990 1.19974
 O227 O 0.97363 1.09549 1.11959
 O228 O 0.97387 1.12586 1.14834
 C229 C 0.96445 1.10551 1.13956
 C230 C 0.94175 1.09416 1.15191
 C231 C 0.92954 1.10684 1.17203
 H232 H 0.93741 1.12428 1.17950
 O233 O 0.86833 1.02877 1.08591
 O234 O 0.83792 1.02991 1.11485
 C235 C 0.84728 1.03757 1.09396
 C236 C 0.83410 1.05741 1.07910
 C237 C 0.80886 1.06445 1.08467
 H238 H 0.79844 1.05456 1.09943
 O239 O 1.12510 0.97651 1.09181
 O240 O 1.15452 0.97711 1.12160
 C241 C 1.14575 0.96812 1.10099
 C242 C 1.15932 0.94751 1.08753
 C243 C 1.18403 0.94027 1.09466
 H244 H 1.19364 0.95007 1.10997
 O245 O 1.08890 0.87457 1.02938
 O246 O 1.11841 0.84499 1.03158
 C247 C 1.09794 0.85486 1.03986
 C248 C 1.08509 0.84400 1.06256
 C249 C 1.09719 0.82508 1.07701
 H250 H 1.11556 0.81784 1.07112
 O251 O 0.90652 1.12912 1.01919
 O252 O 0.87695 1.15874 1.01875
 C253 C 0.89736 1.14959 1.02791
 C254 C 0.91028 1.16214 1.04953
 C255 C 0.89832 1.18193 1.06295
 H256 H 0.87984 1.18878 1.05700
 O257 O 0.90336 0.98166 1.12351
 O258 O 0.87352 0.98338 1.15300
 C259 C 0.89434 0.97434 1.14469
 C260 C 0.90800 0.95480 1.15953
 C261 C 0.90050 0.94899 1.18446
 H262 H 0.88469 0.95910 1.19294
 O263 O 1.08986 1.02642 1.12495
 O264 O 1.11845 1.02684 1.15559
 C265 C 1.09798 1.03522 1.14586
 C266 C 1.08349 1.05564 1.15857
 C267 C 1.08875 1.06270 1.18378
 H268 H 1.10323 1.05268 1.19440
 O269 O 0.96974 0.87720 1.09591
 O270 O 0.96924 0.84928 1.12708
 C271 C 0.96076 0.85716 1.10592
 C272 C 0.93971 0.84338 1.09323
 C273 C 0.92884 0.82184 1.10456
 H274 H 0.93663 0.81454 1.12214
 O275 O 1.02537 1.12769 1.08492
 O276 O 1.02621 1.15755 1.11415
 C277 C 1.03494 1.14793 1.09381
 C278 C 1.05714 1.15972 1.08097
 C279 C 1.06959 1.18057 1.09199
 H280 H 1.06233 1.18883 1.10940
 O281 O 0.87112 0.90841 1.02521
 O282 O 0.84053 0.87980 1.02565
 C283 C 0.84979 0.90061 1.03351
 C284 C 0.83594 0.91571 1.05282
 C285 C 0.81086 0.90952 1.05973
 H286 H 0.80121 0.89392 1.05047
 O287 O 1.12701 1.08848 1.02079
 O288 O 1.15727 1.11744 1.01971
 C289 C 1.14754 1.09771 1.02952
 C290 C 1.15951 1.08657 1.05230
 C291 C 1.17940 1.09952 1.06425
 H292 H 1.18726 1.11639 1.05550
 O293 O 1.02337 1.09362 1.12069
 O294 O 1.02327 1.12352 1.14991
 C295 C 1.03143 1.10246 1.14164
 C296 C 1.05074 1.08835 1.15637
 C297 C 1.05619 1.09516 1.18153
 H298 H 1.04596 1.11072 1.19022
 O299 O 0.96973 0.91451 1.12809
 O300 O 0.96912 0.88677 1.15942
 C301 C 0.96086 0.90699 1.14925
 C302 C 0.94045 0.92176 1.16182
 C303 C 0.93277 0.91626 1.18683
 H304 H 0.94247 0.90156 1.19742
 O305 O 1.12557 1.02592 1.09122
 O306 O 1.15435 1.02693 1.12163
 C307 C 1.14576 1.03519 1.10067
 C308 C 1.15863 1.05643 1.08752
 C309 C 1.17842 1.06997 1.09942
 H310 H 1.18505 1.06431 1.11805
 O311 O 0.86956 0.97938 1.08787
 O312 O 0.83947 0.98063 1.11714
 C313 C 0.84880 0.97104 1.09703
 C314 C 0.83560 0.94985 1.08422
 C315 C 0.81073 0.94299 1.09128
 H316 H 0.80087 0.95339 1.10605
 O317 O 1.09320 1.12376 1.01876
 O318 O 1.12359 1.15259 1.01788
 C319 C 1.10276 1.14427 1.02698
 C320 C 1.09025 1.15786 1.04822
 C321 C 1.10244 1.17854 1.05966
 H322 H 1.12026 1.18551 1.05196
 O323 O 0.90511 0.87289 1.02757
 O324 O 0.87481 0.84402 1.02846
 C325 C 0.89544 0.85303 1.03720
 C326 C 0.90787 0.84109 1.05945
 C327 C 0.89741 0.81937 1.07097
 H328 H 0.88067 0.81050 1.06292
 O329 O 1.08938 0.97740 1.12589
 O330 O 1.11844 0.97776 1.15607
 C331 C 1.09763 0.96943 1.14709
 C332 C 1.08282 0.95040 1.16152
 C333 C 1.08912 0.94490 1.18677
 H334 H 1.10500 0.95456 1.19559
 O335 O 0.90389 1.03094 1.11980
 O336 O 0.87358 1.03278 1.14880
 C337 C 0.89442 1.04099 1.13956
 C338 C 0.90727 1.06295 1.15147
 C339 C 0.89522 1.07619 1.17121
 H340 H 0.87690 1.06989 1.17831
 O341 O 0.97535 1.12886 1.08386
 O342 O 0.97631 1.15905 1.11277
 C343 C 0.96700 1.14969 1.09260
 C344 C 0.94494 1.16231 1.08053
 C345 C 0.93293 1.18228 1.09326
 H346 H 0.94130 1.18984 1.11046
 O347 O 1.01961 0.87840 1.09507
 O348 O 1.01931 0.85071 1.12645
 C349 C 1.02855 0.85870 1.10554
 C350 C 1.05092 0.84576 1.09427
 C351 C 1.06318 0.82668 1.10809
 H352 H 1.05505 0.82019 1.12588
 O353 O 1.12461 0.90836 1.02653
 O354 O 1.15424 0.87881 1.02761
 C355 C 1.14552 0.89995 1.03520
 C356 C 1.15935 0.91456 1.05485
 C357 C 1.18421 0.90793 1.06190
 H358 H 1.19382 0.89250 1.05229
 O359 O 0.87144 1.09488 1.01873
 O360 O 0.84164 1.12427 1.01729
 C361 C 0.85029 1.10370 1.02637
 C362 C 0.83580 1.08992 1.04613
 C363 C 0.81069 1.09675 1.05191
 H364 H 0.80189 1.11229 1.04175
 Cu365 Cu 0.99457 0.89859 1.10906
 Cu366 Cu 0.99390 0.86511 1.14647
 Cu367 Cu 0.99956 1.10842 1.09932
 Cu368 Cu 1.00012 1.14460 1.13409
 Cu369 Cu 0.89177 0.89240 1.00166
 Cu370 Cu 0.85534 0.85775 1.00238
 Cu371 Cu 1.10362 0.89272 1.00301
 Cu372 Cu 1.13860 0.85679 1.00497
 Cu373 Cu 0.89253 1.10886 0.99434
 Cu374 Cu 0.85718 1.14455 0.99298
 Cu375 Cu 1.10754 1.10230 0.99488
 Cu376 Cu 1.14409 1.13688 0.99385
 Cu377 Cu 0.88926 1.00502 1.10133
 Cu378 Cu 0.85316 1.00677 1.13645
 Cu379 Cu 1.10468 1.00147 1.10536
 Cu380 Cu 1.13948 1.00206 1.14169
 C381 C 1.06231 0.93771 1.15021
 H382 H 1.05746 0.94181 1.13064
 C383 C 1.07526 0.92694 1.20080
 C384 C 0.93061 1.07204 1.14197
 H385 H 0.93968 1.06235 1.12624
 C386 C 0.90612 1.09816 1.18136
 C387 C 0.84724 1.07007 1.05962
 H388 H 0.86676 1.06493 1.05541
 C389 C 0.79690 1.08396 1.07091
 C390 C 1.14723 0.93462 1.06753
 H391 H 1.12800 0.93976 1.06226
 C392 C 1.19668 0.92074 1.08168
 C393 C 1.06190 0.85421 1.07136
 H394 H 1.05284 0.86935 1.06084
 C395 C 1.08658 0.81677 1.10006
 C396 C 0.93365 1.15251 1.05849
 H397 H 0.94257 1.13669 1.04889
 C398 C 0.90934 1.19161 1.08520
 C399 C 0.92813 0.94124 1.14847
 H400 H 0.93378 0.94544 1.12911
 C401 C 0.91291 0.92993 1.19840
 C402 C 1.06429 1.06842 1.14515
 H403 H 1.06029 1.06327 1.12565
 C404 C 1.07491 1.08228 1.19552
 C405 C 0.92921 0.85271 1.07058
 H406 H 0.93715 0.86964 1.06204
 C407 C 0.90765 0.80981 1.09366
 C408 C 1.06748 1.14869 1.05891
 H409 H 1.05831 1.13230 1.05059
 C410 C 1.09244 1.18976 1.08167
 C411 C 0.84801 0.93614 1.06494
 H412 H 0.86735 0.94105 1.05972
 C413 C 0.79819 0.92310 1.07887
 C414 C 1.14940 1.06487 1.06390
 H415 H 1.13368 1.05508 1.05494
 C416 C 1.18848 1.09187 1.08804
 O417 O 1.09551 0.52836 0.62188
 O418 O 1.12607 0.52822 0.65051
 C419 C 1.10547 0.53740 0.64188
 C420 C 1.09342 0.55941 0.65458
 C421 C 1.10476 0.57067 0.67591
 H422 H 1.12192 0.56258 0.68389
 O423 O 0.91060 0.48141 0.62395
 O424 O 0.88155 0.48256 0.65426
 C425 C 0.90204 0.47356 0.64515
 C426 C 0.91581 0.45360 0.65931
 C427 C 0.90866 0.44755 0.68426
 H428 H 0.89308 0.45769 0.69311
 O429 O 1.02897 0.62944 0.58545
 O430 O 1.02895 0.65994 0.61405
 C431 C 1.03733 0.65053 0.59344
 C432 C 1.05735 0.66389 0.57884
 C433 C 1.06320 0.68926 0.58397
 H434 H 1.05254 0.69945 0.59835
 O435 O 0.97538 0.37783 0.59237
 O436 O 0.97496 0.34957 0.62323
 C437 C 0.96619 0.35792 0.60235
 C438 C 0.94447 0.34485 0.59011
 C439 C 0.93269 0.32424 0.60220
 H440 H 0.94019 0.31714 0.62000
 O441 O 1.13005 0.59318 0.51925
 O442 O 1.16046 0.62197 0.51795
 C443 C 1.15115 0.60175 0.52723
 C444 C 1.16470 0.58791 0.54757
 C445 C 1.18987 0.59411 0.55413
 H446 H 1.19977 0.60919 0.54421
 O447 O 0.87431 0.41076 0.52554
 O448 O 0.84409 0.38178 0.52688
 C449 C 0.85380 0.40221 0.53513
 C450 C 0.84184 0.41557 0.55686
 C451 C 0.82214 0.40395 0.57087
 H452 H 0.81499 0.38556 0.56522
 O453 O 0.98072 0.59500 0.62229
 O454 O 0.98143 0.62465 0.65177
 C455 C 0.97260 0.60396 0.64317
 C456 C 0.95211 0.59052 0.65702
 C457 C 0.94511 0.59778 0.68172
 H458 H 0.95528 0.61297 0.69109
 O459 O 1.02647 0.41272 0.62497
 O460 O 1.02619 0.38419 0.65561
 C461 C 1.03547 0.40409 0.64561
 C462 C 1.05778 0.41642 0.65751
 C463 C 1.07035 0.40434 0.67762
 H464 H 1.06298 0.38671 0.68524
 O465 O 1.12773 0.47740 0.58671
 O466 O 1.15843 0.47726 0.61522
 C467 C 1.14860 0.46855 0.59497
 C468 C 1.16140 0.44765 0.58123
 C469 C 1.18620 0.44044 0.58786
 H470 H 1.19617 0.45056 0.60272
 O471 O 0.87532 0.53056 0.58898
 O472 O 0.84628 0.53148 0.61928
 C473 C 0.85498 0.53972 0.59833
 C474 C 0.84199 0.56092 0.58524
 C475 C 0.82103 0.57307 0.59660
 H476 H 0.81342 0.56618 0.61447
 O477 O 0.91084 0.62921 0.52060
 O478 O 0.88157 0.65914 0.52060
 C479 C 0.90194 0.64973 0.52954
 C480 C 0.91456 0.66197 0.55148
 C481 C 0.90229 0.68178 0.56450
 H482 H 0.88426 0.68906 0.55772
 O483 O 1.08990 0.37310 0.52347
 O484 O 1.11968 0.34370 0.52420
 C485 C 1.09919 0.35308 0.53300
 C486 C 1.08699 0.34137 0.55549
 C487 C 1.09935 0.32160 0.56814
 H488 H 1.11667 0.31369 0.56023
 O489 O 0.91144 0.53064 0.62270
 O490 O 0.88240 0.53146 0.65303
 C491 C 0.90319 0.53944 0.64362
 C492 C 0.91782 0.55928 0.65699
 C493 C 0.91097 0.56686 0.68164
 H494 H 0.89518 0.55771 0.69124
 O495 O 1.09447 0.47873 0.62309
 O496 O 1.12507 0.47839 0.65168
 C497 C 1.10404 0.46990 0.64340
 C498 C 1.09125 0.44866 0.65673
 C499 C 1.10336 0.43635 0.67712
 H500 H 1.12149 0.44319 0.68411
 O501 O 1.02515 0.37625 0.59235
 O502 O 1.02489 0.34778 0.62303
 C503 C 1.03378 0.35598 0.60210
 C504 C 1.05523 0.34267 0.58954
 C505 C 1.06811 0.32288 0.60205
 H506 H 1.06166 0.31638 0.62050
 O507 O 0.97916 0.62891 0.58696
 O508 O 0.97920 0.65861 0.61639
 C509 C 0.96997 0.64917 0.59621
 C510 C 0.94759 0.66133 0.58420
 C511 C 0.93479 0.68084 0.59701
 H512 H 0.94191 0.68770 0.61504
 O513 O 0.87533 0.59547 0.52091
 O514 O 0.84608 0.62541 0.52045
 C515 C 0.85491 0.60497 0.52964
 C516 C 0.84208 0.59287 0.55158
 C517 C 0.82138 0.60486 0.56336
 H518 H 0.81380 0.62226 0.55549
 O519 O 1.12529 0.40718 0.52193
 O520 O 1.15517 0.37785 0.52259
 C521 C 1.14624 0.39877 0.53052
 C522 C 1.16019 0.41334 0.55008
 C523 C 1.18495 0.40624 0.55723
 H524 H 1.19415 0.39031 0.54807
 O525 O 0.97676 0.41331 0.62645
 O526 O 0.97649 0.38518 0.65744
 C527 C 0.96823 0.40560 0.64771
 C528 C 0.94811 0.42035 0.66079
 C529 C 0.94067 0.41454 0.68585
 H530 H 0.95029 0.39959 0.69615
 O531 O 1.03031 0.59596 0.62154
 O532 O 1.03104 0.62630 0.65028
 C533 C 1.03959 0.60553 0.64166
 C534 C 1.06107 0.59273 0.65459
 C535 C 1.07246 0.60348 0.67622
 H536 H 1.06494 0.62083 0.68424
 O537 O 0.87589 0.48090 0.58914
 O538 O 0.84692 0.48181 0.61951
 C539 C 0.85559 0.47235 0.59905
 C540 C 0.84268 0.45016 0.58772
 C541 C 0.82284 0.43845 0.60110
 H542 H 0.81574 0.44693 0.61846
 O543 O 1.12958 0.52674 0.58631
 O544 O 1.16023 0.52636 0.61488
 C545 C 1.15088 0.53483 0.59434
 C546 C 1.16464 0.55467 0.57993
 C547 C 1.18993 0.56072 0.58584
 H548 H 1.19978 0.55035 0.60063
 O549 O 0.90859 0.37575 0.52565
 O550 O 0.87833 0.34681 0.52675
 C551 C 0.89916 0.35569 0.53513
 C552 C 0.91191 0.34338 0.55699
 C553 C 0.90060 0.32252 0.56925
 H554 H 0.88315 0.31442 0.56192
 O555 O 1.09574 0.62816 0.51877
 O556 O 1.12568 0.65744 0.51753
 C557 C 1.10489 0.64898 0.52663
 C558 C 1.09097 0.66314 0.54659
 C559 C 1.09695 0.68847 0.55235
 H560 H 1.11202 0.69813 0.54212
 Cu561 Cu 1.10869 0.50286 0.60172
 Cu562 Cu 1.14542 0.50251 0.63605
 Cu563 Cu 0.89616 0.50590 0.60307
 Cu564 Cu 0.86122 0.50695 0.63941
 Cu565 Cu 1.00485 0.60932 0.60115
 Cu566 Cu 1.00525 0.64545 0.63598
 Cu567 Cu 1.00088 0.39784 0.60594
 Cu568 Cu 1.00050 0.36381 0.64289
 C569 C 1.07149 0.57051 0.64419
 H570 H 1.06297 0.56229 0.62739
 C571 C 1.09445 0.59270 0.68677
 C572 C 0.93572 0.44009 0.64782
 H573 H 0.94113 0.44454 0.62845
 C574 C 0.92111 0.42830 0.69784
 C575 C 1.07112 0.65110 0.55993
 H576 H 1.06665 0.63148 0.55591
 C577 C 1.08277 0.70169 0.57072
 C578 C 0.93405 0.35416 0.56738
 H579 H 0.94264 0.37050 0.55831
 C580 C 0.91069 0.31316 0.59204
 C581 C 1.15230 0.56814 0.56056
 H582 H 1.13277 0.56352 0.55591
 C583 C 1.20265 0.58030 0.57298
 C584 C 0.85193 0.43875 0.56544
 H585 H 0.86766 0.44742 0.55532
 C586 C 0.81302 0.41506 0.59333
 C587 C 0.93854 0.57105 0.64495
 H588 H 0.94367 0.56553 0.62579
 C589 C 0.92461 0.58597 0.69420
 C590 C 1.06828 0.43870 0.64726
 H591 H 1.05910 0.44770 0.63121
 C592 C 1.09321 0.41396 0.68723
 C593 C 1.14863 0.43419 0.56208
 H594 H 1.12942 0.43956 0.55696
 C595 C 1.19814 0.41987 0.57591
 C596 C 0.85211 0.57077 0.56253
 H597 H 0.86855 0.56181 0.55392
 C598 C 0.81096 0.59525 0.58595
 C599 C 0.93738 0.65202 0.56136
 H600 H 0.94669 0.63642 0.55177
 C601 C 0.91204 0.69084 0.58750
 C602 C 1.06476 0.35165 0.56617
 H603 H 1.05545 0.36737 0.55677
 C604 C 1.09049 0.31270 0.59162
 O605 O 1.08989 0.47249 0.37125
 O606 O 1.11933 0.47158 0.34132
 C607 C 1.09840 0.46363 0.35047
 C608 C 1.08400 0.44354 0.33717
 C609 C 1.09013 0.43669 0.31212
 H610 H 1.10516 0.44660 0.30208
 O611 O 0.90872 0.52401 0.37136
 O612 O 0.87943 0.52364 0.34143
 C613 C 0.90032 0.53204 0.35022
 C614 C 0.91495 0.55166 0.33619
 C615 C 0.90904 0.55800 0.31088
 H616 H 0.89391 0.54808 0.30109
 O617 O 0.97712 0.62622 0.40370
 O618 O 0.97696 0.65497 0.37326
 C619 C 0.96861 0.64673 0.39437
 C620 C 0.94873 0.66103 0.40819
 C621 C 0.94268 0.68596 0.40121
 H622 H 0.95280 0.69498 0.38568
 O623 O 1.02358 0.37107 0.40797
 O624 O 1.02292 0.34166 0.37826
 C625 C 1.03217 0.35059 0.39866
 C626 C 1.05383 0.33763 0.41112
 C627 C 1.06542 0.31666 0.39956
 H628 H 1.05768 0.30907 0.38208
 O629 O 1.12504 0.40551 0.47263
 O630 O 1.15505 0.37631 0.47340
 C631 C 1.14594 0.39665 0.46432
 C632 C 1.15951 0.41023 0.44382
 C633 C 1.18483 0.40423 0.43749
 H634 H 1.19481 0.38948 0.44774
 O635 O 0.87532 0.59486 0.47130
 O636 O 0.84643 0.62512 0.47065
 C637 C 0.85503 0.60424 0.46224
 C638 C 0.84202 0.59130 0.44093
 C639 C 0.82114 0.60274 0.42879
 H640 H 0.81364 0.62056 0.43573
 O641 O 1.02700 0.59097 0.36977
 O642 O 1.02765 0.62021 0.33982
 C643 C 1.03641 0.59994 0.34938
 C644 C 1.05853 0.58724 0.33747
 C645 C 1.07310 0.59977 0.31877
 H646 H 1.06755 0.61843 0.31224
 O647 O 0.97378 0.40643 0.37411
 O648 O 0.97291 0.37695 0.34446
 C649 C 0.96484 0.39778 0.35347
 C650 C 0.94465 0.41191 0.33998
 C651 C 0.93760 0.40507 0.31522
 H652 H 0.94727 0.38960 0.30575
 O653 O 1.12594 0.52141 0.40558
 O654 O 1.15580 0.51999 0.37606
 C655 C 1.14698 0.52924 0.39657
 C656 C 1.16120 0.54953 0.40980
 C657 C 1.18627 0.55522 0.40263
 H658 H 1.19515 0.54455 0.38745
 O659 O 0.87270 0.47677 0.40800
 O660 O 0.84270 0.47645 0.37879
 C661 C 0.85170 0.46827 0.39966
 C662 C 0.83820 0.44827 0.41429
 C663 C 0.81308 0.44110 0.40832
 H664 H 0.80298 0.45075 0.39324
 O665 O 1.09511 0.62689 0.46950
 O666 O 1.12505 0.65616 0.46795
 C667 C 1.10396 0.64729 0.46022
 C668 C 1.08934 0.66060 0.44028
 C669 C 1.09464 0.68593 0.43391
 H670 H 1.10966 0.69606 0.44366
 O671 O 0.90765 0.37432 0.47606
 O672 O 0.87735 0.34544 0.47705
 C673 C 0.89819 0.35370 0.46799
 C674 C 0.91136 0.33959 0.44747
 C675 C 0.90290 0.31553 0.43989
 H676 H 0.88686 0.30684 0.44951
 O677 O 0.90758 0.47476 0.37322
 O678 O 0.87791 0.47435 0.34365
 C679 C 0.89850 0.46571 0.35280
 C680 C 0.91198 0.44485 0.33972
 C681 C 0.90491 0.43746 0.31508
 H682 H 0.88968 0.44727 0.30533
 O683 O 1.09121 0.52201 0.37099
 O684 O 1.12113 0.52095 0.34154
 C685 C 1.10089 0.53054 0.35057
 C686 C 1.08967 0.55291 0.33801
 C687 C 1.10361 0.56546 0.31912
 H688 H 1.12135 0.55742 0.31236
 O689 O 0.97383 0.37159 0.40876
 O690 O 0.97293 0.34186 0.37938
 C691 C 0.96468 0.35110 0.40011
 C692 C 0.94382 0.33836 0.41411
 C693 C 0.93492 0.31443 0.40660
 H694 H 0.94392 0.30469 0.39086
 O695 O 1.02654 0.62549 0.40441
 O696 O 1.02623 0.65485 0.37454
 C697 C 1.03487 0.64620 0.39535
 C698 C 1.05507 0.66012 0.40899
 C699 C 1.06032 0.68549 0.40314
 H700 H 1.04919 0.69516 0.38878
 O701 O 0.87418 0.41058 0.47587
 O702 O 0.84365 0.38194 0.47716
 C703 C 0.85297 0.40222 0.46797
 C704 C 0.83911 0.41605 0.44776
 C705 C 0.81412 0.40925 0.44158
 H706 H 0.80501 0.39388 0.45178
 O707 O 1.12885 0.59118 0.47000
 O708 O 1.15930 0.61990 0.46833
 C709 C 1.14972 0.59909 0.46077
 C710 C 1.16266 0.58386 0.44092
 C711 C 1.18785 0.58919 0.43356
 H712 H 1.19821 0.60425 0.44291
 O713 O 1.02321 0.40551 0.37302
 O714 O 1.02229 0.37620 0.34318
 C715 C 1.03127 0.39672 0.35203
 C716 C 1.05145 0.41046 0.33806
 C717 C 1.05815 0.40354 0.31317
 H718 H 1.04825 0.38817 0.30379
 O719 O 0.97716 0.58976 0.37053
 O720 O 0.97767 0.61826 0.33989
 C721 C 0.96888 0.59789 0.34943
 C722 C 0.94865 0.58370 0.33600
 C723 C 0.94257 0.58964 0.31080
 H724 H 0.95294 0.60456 0.30114
 O725 O 0.87423 0.52629 0.40643
 O726 O 0.84476 0.52619 0.37668
 C727 C 0.85405 0.53545 0.39692
 C728 C 0.84181 0.55775 0.40888
 C729 C 0.82122 0.56967 0.39690
 H730 H 0.81352 0.56190 0.37948
 O731 O 1.12519 0.47201 0.40585
 O732 O 1.15479 0.47093 0.37606
 C733 C 1.14583 0.46302 0.39702
 C734 C 1.15945 0.44306 0.41118
 C735 C 1.18485 0.43723 0.40540
 H736 H 1.19477 0.44770 0.39068
 O737 O 1.09042 0.37072 0.47376
 O738 O 1.12023 0.34135 0.47421
 C739 C 1.09960 0.35013 0.46528
 C740 C 1.08673 0.33709 0.44393
 C741 C 1.09790 0.31587 0.43221
 H742 H 1.11540 0.30797 0.43964
 O743 O 0.91055 0.62918 0.47093
 O744 O 0.88181 0.65961 0.47086
 C745 C 0.90221 0.65001 0.46219
 C746 C 0.91620 0.66274 0.44137
 C747 C 0.91009 0.68757 0.43390
 H748 H 0.89530 0.69792 0.44382
 Cu749 Cu 1.10502 0.49693 0.39138
 Cu750 Cu 1.14066 0.49565 0.35568
 Cu751 Cu 0.89371 0.50044 0.39273
 Cu752 Cu 0.85812 0.50008 0.35725
 Cu753 Cu 1.10944 0.60699 0.49452
 Cu754 Cu 1.14570 0.64178 0.49274
 Cu755 Cu 1.10461 0.39200 0.49782
 Cu756 Cu 1.14037 0.35667 0.49872
 Cu757 Cu 0.89593 0.60918 0.49587
 Cu758 Cu 0.86103 0.64533 0.49554
 Cu759 Cu 0.89422 0.39571 0.50058
 Cu760 Cu 0.85780 0.36110 0.50189
 Cu761 Cu 1.00185 0.60515 0.39005
 Cu762 Cu 1.00200 0.63988 0.35371
 Cu763 Cu 0.99867 0.39154 0.39399
 Cu764 Cu 0.99761 0.35610 0.35843
 C765 C 1.06441 0.43054 0.34983
 H766 H 1.05964 0.43569 0.36918
 C767 C 1.07722 0.41679 0.30001
 C768 C 0.93494 0.56450 0.34844
 H769 H 0.93947 0.55996 0.36800
 C770 C 0.92309 0.57673 0.29794
 C771 C 0.93561 0.64971 0.42846
 H772 H 0.94018 0.63045 0.43388
 C773 C 0.92352 0.69940 0.41406
 C774 C 1.06449 0.34756 0.43343
 H775 H 1.05602 0.36414 0.44209
 C776 C 1.08753 0.30584 0.40982
 C777 C 1.14705 0.42968 0.43058
 H778 H 1.12744 0.43419 0.43512
 C779 C 1.19768 0.41800 0.41859
 C780 C 0.85199 0.56862 0.43100
 H781 H 0.86833 0.55990 0.43997
 C782 C 0.81100 0.59220 0.40658
 C783 C 1.06697 0.56376 0.34691
 H784 H 1.05642 0.55440 0.36193
 C785 C 1.09601 0.58920 0.31004
 C786 C 0.93194 0.43204 0.35196
 H787 H 0.93726 0.43740 0.37109
 C788 C 0.91787 0.41782 0.30263
 C789 C 1.14962 0.56380 0.42910
 H790 H 1.13015 0.55965 0.43452
 C791 C 1.19991 0.57475 0.41457
 C792 C 0.85090 0.43575 0.43421
 H793 H 0.87031 0.44093 0.43879
 C794 C 0.80078 0.42181 0.42220
 C795 C 1.06946 0.64794 0.42778
 H796 H 1.06546 0.62832 0.43237
 C797 C 1.07987 0.69858 0.41567
 C798 C 0.93203 0.35067 0.43466
 H799 H 0.93852 0.36931 0.44027
 C800 C 0.91461 0.30280 0.41952
 O801 O 0.47236 0.90415 0.37822
 O802 O 0.47167 0.87307 0.35028
 C803 C 0.46336 0.89426 0.35817
 C804 C 0.44236 0.90697 0.34443
 C805 C 0.43068 0.89494 0.32376
 H806 H 0.43789 0.87691 0.31706
 O807 O 0.52422 1.08880 0.37018
 O808 O 0.52436 1.11645 0.33876
 C809 C 0.53260 1.09612 0.34875
 C810 C 0.55230 1.08096 0.33550
 C811 C 0.55965 1.08695 0.31051
 H812 H 0.55053 1.10246 0.30059
 O813 O 0.37238 0.97301 0.40902
 O814 O 0.34310 0.97246 0.37908
 C815 C 0.35184 0.96411 0.39993
 C816 C 0.33839 0.94318 0.41311
 C817 C 0.31719 0.93175 0.40172
 H818 H 0.30997 0.93905 0.38389
 O819 O 0.62529 1.02011 0.40412
 O820 O 0.65411 1.01899 0.37363
 C821 C 0.64551 1.02869 0.39396
 C822 C 0.65825 1.05098 0.40534
 C823 C 0.67747 1.06413 0.39199
 H824 H 0.68398 1.05736 0.37367
 O825 O 0.40350 0.87476 0.48099
 O826 O 0.37377 0.84527 0.48214
 C827 C 0.39473 0.85369 0.47341
 C828 C 0.40885 0.83917 0.45390
 C829 C 0.40180 0.81424 0.44788
 H830 H 0.38623 0.80525 0.45798
 O831 O 0.59308 1.12465 0.46798
 O832 O 0.62344 1.15350 0.46730
 C833 C 0.60268 1.14476 0.45868
 C834 C 0.59012 1.15756 0.43699
 C835 C 0.60158 1.17858 0.42527
 H836 H 0.61913 1.18623 0.43285
 O837 O 0.40779 1.02209 0.37352
 O838 O 0.37799 1.02166 0.34409
 C839 C 0.39851 1.03074 0.35300
 C840 C 0.41080 1.05243 0.33994
 C841 C 0.39825 1.06432 0.31968
 H842 H 0.38035 1.05682 0.31281
 O843 O 0.58926 0.96936 0.37274
 O844 O 0.61844 0.96761 0.34260
 C845 C 0.59794 0.95947 0.35248
 C846 C 0.58468 0.93754 0.34102
 C847 C 0.59495 0.92534 0.31959
 H848 H 0.61204 0.93265 0.31065
 O849 O 0.52128 0.86999 0.41464
 O850 O 0.52057 0.83892 0.38667
 C851 C 0.52942 0.84870 0.40685
 C852 C 0.54982 0.83550 0.42102
 C853 C 0.55714 0.81082 0.41434
 H854 H 0.54728 0.80103 0.39919
 O855 O 0.47565 1.12642 0.40355
 O856 O 0.47614 1.15453 0.37255
 C857 C 0.46712 1.14658 0.39353
 C858 C 0.44569 1.16020 0.40582
 C859 C 0.43510 1.18179 0.39441
 H860 H 0.44362 1.18947 0.37728
 O861 O 0.37325 1.09338 0.47009
 O862 O 0.34333 1.12265 0.46937
 C863 C 0.35231 1.10173 0.46148
 C864 C 0.33851 1.08681 0.44207
 C865 C 0.31338 1.09286 0.43517
 H866 H 0.30370 1.10858 0.44421
 O867 O 0.62454 0.90631 0.47729
 O868 O 0.65358 0.87619 0.47797
 C869 C 0.64472 0.89647 0.46837
 C870 C 0.65736 0.90827 0.44601
 C871 C 0.67870 0.89676 0.43464
 H872 H 0.68675 0.87971 0.44278
 O873 O 0.47466 1.09003 0.37084
 O874 O 0.47473 1.11813 0.33980
 C875 C 0.46564 1.09827 0.35004
 C876 C 0.44357 1.08535 0.33831
 C877 C 0.43077 1.09675 0.31785
 H878 H 0.43770 1.11440 0.30989
 O879 O 0.52207 0.90293 0.37802
 O880 O 0.52143 0.87190 0.35003
 C881 C 0.53061 0.89272 0.35790
 C882 C 0.55197 0.90471 0.34395
 C883 C 0.56268 0.89269 0.32270
 H884 H 0.55459 0.87511 0.31580
 O885 O 0.62383 0.97056 0.40761
 O886 O 0.65300 0.96917 0.37746
 C887 C 0.64412 0.96116 0.39851
 C888 C 0.65690 0.93991 0.41189
 C889 C 0.67795 0.92790 0.40075
 H890 H 0.68566 0.93494 0.38298
 O891 O 0.37240 1.02251 0.40783
 O892 O 0.34258 1.02169 0.37840
 C893 C 0.35159 1.03080 0.39882
 C894 C 0.33808 1.05164 0.41191
 C895 C 0.31292 1.05771 0.40550
 H896 H 0.30305 1.04663 0.39127
 O897 O 0.40779 1.12851 0.46886
 O898 O 0.37816 1.15804 0.46823
 C899 C 0.39881 1.14888 0.45965
 C900 C 0.41215 1.16139 0.43816
 C901 C 0.40196 1.18315 0.42656
 H902 H 0.38467 1.19158 0.43396
 O903 O 0.58963 0.87183 0.48005
 O904 O 0.61848 0.84154 0.48141
 C905 C 0.59790 0.85049 0.47254
 C906 C 0.58359 0.83639 0.45289
 C907 C 0.59095 0.81182 0.44562
 H908 H 0.60687 0.80266 0.45488
 O909 O 0.58875 1.01882 0.37128
 O910 O 0.61745 1.01697 0.34069
 C911 C 0.59711 1.02629 0.34989
 C912 C 0.58343 1.04650 0.33591
 C913 C 0.59022 1.05256 0.31082
 H914 H 0.60505 1.04189 0.30130
 O915 O 0.40721 0.97228 0.37409
 O916 O 0.37782 0.97189 0.34426
 C917 C 0.39818 0.96304 0.35373
 C918 C 0.41069 0.94084 0.34186
 C919 C 0.39943 0.92856 0.32099
 H920 H 0.38228 0.93616 0.31252
 O921 O 0.52551 1.12568 0.40268
 O922 O 0.52619 1.15351 0.37144
 C923 C 0.53488 1.14539 0.39242
 C924 C 0.55682 1.15818 0.40460
 C925 C 0.56842 1.17946 0.39330
 H926 H 0.56064 1.18751 0.37605
 O927 O 0.47158 0.87095 0.41452
 O928 O 0.47111 0.83983 0.38660
 C929 C 0.46260 0.84999 0.40676
 C930 C 0.44185 0.83750 0.42113
 C931 C 0.43430 0.81270 0.41512
 H932 H 0.44409 0.80235 0.40026
 O933 O 0.62585 1.08798 0.46910
 O934 O 0.65600 1.11705 0.46814
 C935 C 0.64644 1.09657 0.45984
 C936 C 0.65863 1.08381 0.43801
 C937 C 0.67793 1.09636 0.42466
 H938 H 0.68521 1.11423 0.43170
 O939 O 0.36861 0.90917 0.47874
 O940 O 0.33862 0.87995 0.47943
 C941 C 0.34818 0.89990 0.46983
 C942 C 0.33622 0.91189 0.44736
 C943 C 0.31484 0.90082 0.43569
 H944 H 0.30619 0.88401 0.44379
 Cu945 Cu 0.49689 0.89012 0.39916
 Cu946 Cu 0.49614 0.85288 0.36552
 Cu947 Cu 0.50007 1.10502 0.38999
 Cu948 Cu 0.50047 1.13850 0.35254
 Cu949 Cu 0.39297 0.99751 0.39404
 Cu950 Cu 0.35751 0.99692 0.35840
 Cu951 Cu 0.60394 0.99491 0.39200
 Cu952 Cu 0.63873 0.99306 0.35563
 C953 C 0.43237 0.93005 0.35320
 H954 H 0.44085 0.93909 0.36959
 C955 C 0.40910 0.90541 0.31217
 C956 C 0.56421 1.06061 0.34798
 H957 H 0.55897 1.05615 0.36739
 C958 C 0.57839 1.07268 0.29799
 C959 C 0.34767 0.93323 0.43602
 H960 H 0.36438 0.94162 0.44460
 C961 C 0.30552 0.91046 0.41266
 C962 C 0.64907 1.06096 0.42841
 H963 H 0.63373 1.05149 0.43840
 C964 C 0.68689 1.08718 0.40137
 C965 C 0.42911 0.85052 0.44063
 H966 H 0.43458 0.86979 0.44507
 C967 C 0.41449 0.80089 0.42858
 C968 C 0.56764 1.14766 0.42663
 H969 H 0.55905 1.13108 0.43525
 C970 C 0.59098 1.18954 0.40340
 C971 C 0.43356 1.06303 0.34911
 H972 H 0.44297 1.05442 0.36524
 C973 C 0.40787 1.08662 0.30887
 C974 C 0.56299 0.92725 0.35286
 H975 H 0.55521 0.93631 0.36962
 C976 C 0.58425 0.90274 0.31058
 C977 C 0.56292 0.84796 0.44057
 H978 H 0.55747 0.86707 0.44569
 C979 C 0.57761 0.79886 0.42655
 C980 C 0.43420 1.15031 0.42782
 H981 H 0.44192 1.13332 0.43639
 C982 C 0.41318 1.19327 0.40452
 C983 C 0.35060 1.06610 0.43040
 H984 H 0.37007 1.06153 0.43535
 C985 C 0.30037 1.07811 0.41717
 C986 C 0.64681 0.93003 0.43462
 H987 H 0.63015 0.93879 0.44299
 C988 C 0.68878 0.90629 0.41185
 O989 O 0.52161 0.91371 0.62750
 O990 O 0.52122 0.88522 0.65817
 C991 C 0.53077 0.90488 0.64800
 C992 C 0.55385 0.91625 0.65933
 C993 C 0.56693 0.90284 0.67819
 H994 H 0.55895 0.88543 0.68567
 O995 O 0.47563 1.09607 0.62125
 O996 O 0.47636 1.12639 0.65005
 C997 C 0.46733 1.10567 0.64179
 C998 C 0.44690 1.09273 0.65617
 C999 C 0.44152 1.09976 0.68127
 H1000 H 0.45246 1.11478 0.69005
 O1001 O 0.37240 1.03015 0.58948
 O1002 O 0.34272 1.03220 0.61911
 C1003 C 0.35181 1.03948 0.59791
 C1004 C 0.33854 1.05922 0.58303
 C1005 C 0.31387 1.06690 0.58978
 H1006 H 0.30421 1.05784 0.60557
 O1007 O 0.62674 0.97772 0.59082
 O1008 O 0.65683 0.97877 0.61996
 C1009 C 0.64772 0.96961 0.59959
 C1010 C 0.66118 0.94883 0.58625
 C1011 C 0.68566 0.94130 0.59374
 H1012 H 0.69518 0.95123 0.60901
 O1013 O 0.58998 0.87499 0.52948
 O1014 O 0.61931 0.84520 0.53109
 C1015 C 0.59881 0.85494 0.53947
 C1016 C 0.58537 0.84334 0.56147
 C1017 C 0.59607 0.82265 0.57456
 H1018 H 0.61404 0.81476 0.56830
 O1019 O 0.40853 1.12887 0.51845
 O1020 O 0.37874 1.15827 0.51826
 C1021 C 0.39941 1.14938 0.52710
 C1022 C 0.41232 1.16221 0.54853
 C1023 C 0.40037 1.18250 0.56107
 H1024 H 0.38232 1.18972 0.55429
 O1025 O 0.40629 0.98215 0.62669
 O1026 O 0.37699 0.98423 0.65670
 C1027 C 0.39748 0.97485 0.64795
 C1028 C 0.41105 0.95496 0.66235
 C1029 C 0.40357 0.94866 0.68714
 H1030 H 0.38781 0.95865 0.69584
 O1031 O 0.59169 1.02735 0.62488
 O1032 O 0.62088 1.02796 0.65489
 C1033 C 0.60021 1.03629 0.64558
 C1034 C 0.58594 1.05689 0.65840
 C1035 C 0.59116 1.06395 0.68368
 H1036 H 0.60557 1.05392 0.69439
 O1037 O 0.46999 0.87857 0.59569
 O1038 O 0.46974 0.85050 0.62672
 C1039 C 0.46085 0.85870 0.60588
 C1040 C 0.43913 0.84542 0.59388
 C1041 C 0.42871 0.82364 0.60517
 H1042 H 0.43731 0.81585 0.62216
 O1043 O 0.52622 1.12881 0.58566
 O1044 O 0.52704 1.15904 0.61452
 C1045 C 0.53575 1.14917 0.59431
 C1046 C 0.55794 1.16069 0.58132
 C1047 C 0.57205 1.18010 0.59310
 H1048 H 0.56610 1.18747 0.61137
 O1049 O 0.36843 0.91196 0.52841
 O1050 O 0.33827 0.88292 0.52949
 C1051 C 0.34767 0.90361 0.53755
 C1052 C 0.33512 0.91751 0.55859
 C1053 C 0.31320 0.90764 0.57035
 H1054 H 0.30464 0.89039 0.56323
 O1055 O 0.62706 1.09070 0.51890
 O1056 O 0.65763 1.11932 0.51763
 C1057 C 0.64805 1.09940 0.52720
 C1058 C 0.66110 1.08656 0.54855
 C1059 C 0.68568 1.09403 0.55603
 H1060 H 0.69556 1.10889 0.54577
 O1061 O 0.52519 1.09452 0.62095
 O1062 O 0.52548 1.12474 0.64986
 C1063 C 0.53362 1.10363 0.64162
 C1064 C 0.55319 1.08969 0.65618
 C1065 C 0.55849 1.09635 0.68138
 H1066 H 0.54803 1.11170 0.69019
 O1067 O 0.47179 0.91472 0.62927
 O1068 O 0.47166 0.88662 0.66029
 C1069 C 0.46341 0.90705 0.65062
 C1070 C 0.44337 0.92178 0.66382
 C1071 C 0.43568 0.91571 0.68873
 H1072 H 0.44523 0.90065 0.69893
 O1073 O 0.62592 1.02687 0.58925
 O1074 O 0.65559 1.02799 0.61880
 C1075 C 0.64667 1.03576 0.59774
 C1076 C 0.66039 1.05545 0.58302
 C1077 C 0.68512 1.06281 0.58985
 H1078 H 0.69447 1.05379 0.60581
 O1079 O 0.37081 0.98080 0.59276
 O1080 O 0.34137 0.98273 0.62262
 C1081 C 0.35012 0.97279 0.60243
 C1082 C 0.33660 0.95115 0.59055
 C1083 C 0.31480 0.94086 0.60209
 H1084 H 0.30709 0.94953 0.61910
 O1085 O 0.59173 1.12488 0.51767
 O1086 O 0.62238 1.15343 0.51677
 C1087 C 0.60153 1.14524 0.52589
 C1088 C 0.58970 1.15878 0.54741
 C1089 C 0.60309 1.17846 0.55911
 H1090 H 0.62080 1.18509 0.55085
 O1091 O 0.40208 0.87632 0.53028
 O1092 O 0.37202 0.84716 0.53152
 C1093 C 0.39275 0.85626 0.53990
 C1094 C 0.40584 0.84401 0.56156
 C1095 C 0.39581 0.82205 0.57300
 H1096 H 0.37875 0.81336 0.56545
 O1097 O 0.59166 0.97784 0.62522
 O1098 O 0.62165 0.97799 0.65446
 C1099 C 0.60108 0.96896 0.64555
 C1100 C 0.58854 0.94716 0.65817
 C1101 C 0.60147 0.93317 0.67696
 H1102 H 0.62029 0.93890 0.68303
 O1103 O 0.40647 1.03135 0.62509
 O1104 O 0.37711 1.03347 0.65503
 C1105 C 0.39804 1.04101 0.64557
 C1106 C 0.41283 1.06131 0.65821
 C1107 C 0.40764 1.06862 0.68346
 H1108 H 0.39281 1.05907 0.69412
 O1109 O 0.47622 1.12899 0.58477
 O1110 O 0.47684 1.15925 0.61360
 C1111 C 0.46762 1.14972 0.59344
 C1112 C 0.44569 1.16218 0.58094
 C1113 C 0.43326 1.18223 0.59323
 H1114 H 0.44058 1.18949 0.61103
 O1115 O 0.52003 0.87796 0.59433
 O1116 O 0.51955 0.84963 0.62515
 C1117 C 0.52865 0.85780 0.60428
 C1118 C 0.55057 0.84451 0.59250
 C1119 C 0.56136 0.82365 0.60493
 H1120 H 0.55221 0.81607 0.62176
 O1121 O 0.62583 0.90861 0.52680
 O1122 O 0.65536 0.87897 0.52766
 C1123 C 0.64670 0.90006 0.53539
 C1124 C 0.66060 0.91461 0.55499
 C1125 C 0.68498 0.90716 0.56292
 H1126 H 0.69420 0.89107 0.55406
 O1127 O 0.37320 1.09474 0.51947
 O1128 O 0.34326 1.12401 0.51870
 C1129 C 0.35232 1.10363 0.52782
 C1130 C 0.33868 1.09038 0.54863
 C1131 C 0.31391 1.09767 0.55557
 H1132 H 0.30450 1.11279 0.54532
 Cu1133 Cu 0.49564 0.89908 0.60858
 Cu1134 Cu 0.49542 0.86513 0.64563
 Cu1135 Cu 0.50081 1.10915 0.60017
 Cu1136 Cu 0.50151 1.14557 0.63472
 Cu1137 Cu 0.38857 0.89603 0.50450
 Cu1138 Cu 0.35253 0.86099 0.50568
 Cu1139 Cu 0.60461 0.89342 0.50331
 Cu1140 Cu 0.63962 0.85747 0.50466
 Cu1141 Cu 0.39370 1.10849 0.49419
 Cu1142 Cu 0.35800 1.14382 0.49354
 Cu1143 Cu 0.60639 1.10413 0.49351
 Cu1144 Cu 0.64290 1.13869 0.49240
 Cu1145 Cu 0.39191 1.00598 0.60552
 Cu1146 Cu 0.35650 1.00843 0.64129
 Cu1147 Cu 0.60597 1.00246 0.60469
 Cu1148 Cu 0.64164 1.00341 0.64009
 C1149 C 0.56470 0.93852 0.64950
 H1150 H 0.55497 0.94863 0.63447
 C1151 C 0.59097 0.91064 0.68652
 C1152 C 0.43263 1.07337 0.64487
 H1153 H 0.43668 1.06797 0.62542
 C1154 C 0.42228 1.08758 0.69528
 C1155 C 0.35072 1.07092 0.56230
 H1156 H 0.36991 1.06534 0.55721
 C1157 C 0.30138 1.08597 0.57606
 C1158 C 0.64898 0.93558 0.56663
 H1159 H 0.62998 0.94112 0.56092
 C1160 C 0.69771 0.92053 0.58214
 C1161 C 0.56256 0.85409 0.57061
 H1162 H 0.55456 0.87048 0.56116
 C1163 C 0.58435 0.81298 0.59657
 C1164 C 0.43517 1.15236 0.55846
 H1165 H 0.44420 1.13634 0.54930
 C1166 C 0.41051 1.19212 0.58366
 C1167 C 0.43111 0.94160 0.65096
 H1168 H 0.43672 0.94620 0.63168
 C1169 C 0.41590 0.92925 0.70064
 C1170 C 0.56679 1.06978 0.64496
 H1171 H 0.56279 1.06468 0.62544
 C1172 C 0.57710 1.08341 0.69544
 C1173 C 0.42767 0.85533 0.57199
 H1174 H 0.43533 0.87241 0.56349
 C1175 C 0.40702 0.81192 0.59497
 C1176 C 0.56693 1.15021 0.55841
 H1177 H 0.55677 1.13464 0.54968
 C1178 C 0.59499 1.18858 0.58231
 C1179 C 0.34649 0.93944 0.56868
 H1180 H 0.36364 0.94691 0.56001
 C1181 C 0.30313 0.91902 0.59227
 C1182 C 0.64867 1.06721 0.56213
 H1183 H 0.62958 1.06166 0.55675
 C1184 C 0.69787 1.08200 0.57642
 O1185 O 0.47152 0.39963 0.87661
 O1186 O 0.47047 0.36837 0.84889
 C1187 C 0.46223 0.38959 0.85676
 C1188 C 0.44101 0.40245 0.84346
 C1189 C 0.42799 0.39049 0.82337
 H1190 H 0.43398 0.37200 0.81677
 O1191 O 0.52597 0.58490 0.86807
 O1192 O 0.52652 0.61321 0.83722
 C1193 C 0.53451 0.59262 0.84683
 C1194 C 0.55410 0.57761 0.83331
 C1195 C 0.56143 0.58401 0.80849
 H1196 H 0.55235 0.59976 0.79888
 O1197 O 0.37356 0.47306 0.90744
 O1198 O 0.34359 0.47228 0.87818
 C1199 C 0.35245 0.46463 0.89929
 C1200 C 0.33836 0.44549 0.91443
 C1201 C 0.31384 0.43774 0.90723
 H1202 H 0.30480 0.44627 0.89084
 O1203 O 0.62523 0.51691 0.90281
 O1204 O 0.65415 0.51550 0.87240
 C1205 C 0.64558 0.52526 0.89277
 C1206 C 0.65864 0.54733 0.90426
 C1207 C 0.67888 0.55928 0.89140
 H1208 H 0.68589 0.55171 0.87358
 O1209 O 0.40430 0.37452 0.97999
 O1210 O 0.37369 0.34597 0.98186
 C1211 C 0.39465 0.35370 0.97264
 C1212 C 0.40792 0.33843 0.95312
 C1213 C 0.39996 0.31366 0.94762
 H1214 H 0.38395 0.30560 0.95783
 O1215 O 0.59429 0.62214 0.96758
 O1216 O 0.62437 0.65129 0.96627
 C1217 C 0.60340 0.64245 0.95826
 C1218 C 0.58960 0.65549 0.93759
 C1219 C 0.59703 0.67972 0.92935
 H1220 H 0.61267 0.68937 0.93860
 O1221 O 0.40925 0.51954 0.86955
 O1222 O 0.37972 0.51881 0.83987
 C1223 C 0.40060 0.52737 0.84843
 C1224 C 0.41494 0.54703 0.83424
 C1225 C 0.40904 0.55317 0.80886
 H1226 H 0.39406 0.54306 0.79905
 O1227 O 0.58933 0.46592 0.87158
 O1228 O 0.61858 0.46375 0.84154
 C1229 C 0.59810 0.45564 0.85158
 C1230 C 0.58498 0.43329 0.84065
 C1231 C 0.59632 0.41951 0.82074
 H1232 H 0.61425 0.42577 0.81269
 O1233 O 0.52097 0.36642 0.91282
 O1234 O 0.52039 0.33498 0.88529
 C1235 C 0.52944 0.34521 0.90515
 C1236 C 0.55045 0.33285 0.91929
 C1237 C 0.55820 0.30795 0.91360
 H1238 H 0.54830 0.29721 0.89916
 O1239 O 0.47718 0.62207 0.90146
 O1240 O 0.47775 0.65056 0.87079
 C1241 C 0.46895 0.64253 0.89180
 C1242 C 0.44865 0.65681 0.90502
 C1243 C 0.44252 0.68165 0.89775
 H1244 H 0.45307 0.69074 0.88255
 O1245 O 0.37391 0.59090 0.96943
 O1246 O 0.34425 0.62041 0.96791
 C1247 C 0.35311 0.59932 0.96049
 C1248 C 0.33959 0.58456 0.94085
 C1249 C 0.31439 0.59037 0.93391
 H1250 H 0.30430 0.60542 0.94361
 O1251 O 0.62605 0.40502 0.97576
 O1252 O 0.65532 0.37516 0.97705
 C1253 C 0.64648 0.39526 0.96722
 C1254 C 0.65932 0.40680 0.94490
 C1255 C 0.68080 0.39524 0.93376
 H1256 H 0.68897 0.37838 0.94218
 O1257 O 0.47659 0.58565 0.86861
 O1258 O 0.47717 0.61391 0.83770
 C1259 C 0.46831 0.59370 0.84745
 C1260 C 0.44816 0.57946 0.83409
 C1261 C 0.44221 0.58517 0.80883
 H1262 H 0.45252 0.60011 0.79912
 O1263 O 0.52109 0.40004 0.87713
 O1264 O 0.52045 0.36878 0.84939
 C1265 C 0.52964 0.38970 0.85712
 C1266 C 0.55135 0.40129 0.84340
 C1267 C 0.56280 0.38811 0.82334
 H1268 H 0.55452 0.37050 0.81680
 O1269 O 0.62497 0.46759 0.90534
 O1270 O 0.65423 0.46600 0.87527
 C1271 C 0.64543 0.45833 0.89643
 C1272 C 0.65852 0.43765 0.91021
 C1273 C 0.67974 0.42574 0.89932
 H1274 H 0.68736 0.43258 0.88144
 O1275 O 0.37492 0.52212 0.90498
 O1276 O 0.34510 0.52122 0.87556
 C1277 C 0.35416 0.53042 0.89590
 C1278 C 0.34039 0.55094 0.90912
 C1279 C 0.31532 0.55693 0.90239
 H1280 H 0.30614 0.54650 0.88725
 O1281 O 0.40939 0.62520 0.96730
 O1282 O 0.37997 0.65493 0.96577
 C1283 C 0.40072 0.64553 0.95774
 C1284 C 0.41493 0.65815 0.93700
 C1285 C 0.40877 0.68288 0.92927
 H1286 H 0.39361 0.69309 0.93876
 O1287 O 0.58960 0.37173 0.97790
 O1288 O 0.61880 0.34180 0.97957
 C1289 C 0.59808 0.35041 0.97063
 C1290 C 0.58392 0.33560 0.95139
 C1291 C 0.59122 0.31073 0.94562
 H1292 H 0.60714 0.30226 0.95554
 O1293 O 0.59027 0.51550 0.86838
 O1294 O 0.61906 0.51337 0.83790
 C1295 C 0.59887 0.52296 0.84705
 C1296 C 0.58562 0.54355 0.83328
 C1297 C 0.59311 0.55062 0.80859
 H1298 H 0.60828 0.54050 0.79900
 O1299 O 0.40870 0.47003 0.87312
 O1300 O 0.37876 0.46930 0.84384
 C1301 C 0.39906 0.46030 0.85331
 C1302 C 0.41055 0.43743 0.84184
 C1303 C 0.39812 0.42538 0.82174
 H1304 H 0.38135 0.43398 0.81346
 O1305 O 0.52681 0.62100 0.90159
 O1306 O 0.52733 0.64950 0.87093
 C1307 C 0.53574 0.64121 0.89196
 C1308 C 0.55634 0.65492 0.90525
 C1309 C 0.56377 0.67927 0.89747
 H1310 H 0.55402 0.68840 0.88183
 O1311 O 0.47123 0.36753 0.91371
 O1312 O 0.47057 0.33606 0.88620
 C1313 C 0.46212 0.34654 0.90623
 C1314 C 0.44105 0.33473 0.92071
 C1315 C 0.43277 0.30998 0.91533
 H1316 H 0.44246 0.29893 0.90092
 O1317 O 0.62707 0.58560 0.96791
 O1318 O 0.65708 0.61476 0.96599
 C1319 C 0.64739 0.59419 0.95803
 C1320 C 0.65928 0.58099 0.93620
 C1321 C 0.67925 0.59266 0.92293
 H1322 H 0.68678 0.61064 0.92940
 O1323 O 0.37129 0.41107 0.97907
 O1324 O 0.34054 0.38270 0.98109
 C1325 C 0.35014 0.40253 0.97120
 C1326 C 0.33707 0.41543 0.94985
 C1327 C 0.31248 0.40810 0.94246
 H1328 H 0.30266 0.39333 0.95290
 Cu1329 Cu 0.49621 0.38647 0.89788
 Cu1330 Cu 0.49544 0.34896 0.86458
 Cu1331 Cu 0.50163 0.60063 0.88808
 Cu1332 Cu 0.50227 0.63467 0.85108
 Cu1333 Cu 0.39469 0.49638 0.89163
 Cu1334 Cu 0.35891 0.49538 0.85628
 Cu1335 Cu 0.60449 0.49169 0.88999
 Cu1336 Cu 0.63941 0.48947 0.85374
 C1337 C 0.43216 0.42600 0.85244
 H1338 H 0.44155 0.43504 0.86833
 C1339 C 0.40622 0.40174 0.81282
 C1340 C 0.56603 0.55711 0.84540
 H1341 H 0.56050 0.55212 0.86461
 C1342 C 0.58084 0.57062 0.79602
 C1343 C 0.34971 0.43436 0.93587
 H1344 H 0.36878 0.43995 0.94129
 C1345 C 0.30071 0.41919 0.92123
 C1346 C 0.64916 0.55820 0.92683
 H1347 H 0.63324 0.54945 0.93657
 C1348 C 0.68884 0.58214 0.90047
 C1349 C 0.42860 0.34868 0.93974
 H1350 H 0.43470 0.36785 0.94381
 C1351 C 0.41239 0.29919 0.92893
 C1352 C 0.56916 0.64335 0.92552
 H1353 H 0.56361 0.62450 0.93153
 C1354 C 0.58400 0.69183 0.90951
 C1355 C 0.43465 0.56019 0.84655
 H1356 H 0.43915 0.55582 0.86614
 C1357 C 0.42299 0.57197 0.79592
 C1358 C 0.56241 0.42404 0.85180
 H1359 H 0.55395 0.43406 0.86766
 C1360 C 0.58556 0.39666 0.81237
 C1361 C 0.56335 0.34640 0.93832
 H1362 H 0.55774 0.36567 0.94261
 C1363 C 0.57838 0.29666 0.92699
 C1364 C 0.43493 0.64536 0.92483
 H1365 H 0.43954 0.62617 0.93049
 C1366 C 0.42274 0.69487 0.90990
 C1367 C 0.35227 0.56466 0.92850
 H1368 H 0.37173 0.56020 0.93360
 C1369 C 0.30198 0.57634 0.91489
 C1370 C 0.64858 0.42820 0.93312
 H1371 H 0.63181 0.43694 0.94129
 C1372 C 0.69080 0.40444 0.91077
 O1373 O 0.52459 0.41275 1.12831
 O1374 O 0.52391 0.38474 1.15943
 C1375 C 0.53284 0.40486 1.14957
 C1376 C 0.55313 0.41924 1.16270
 C1377 C 0.56074 0.41277 1.18746
 H1378 H 0.55148 0.39730 1.19738
 O1379 O 0.47635 0.59929 1.12163
 O1380 O 0.47716 0.63057 1.14935
 C1381 C 0.46812 0.60957 1.14187
 C1382 C 0.44708 0.59737 1.15609
 C1383 C 0.43622 0.60907 1.17756
 H1384 H 0.44400 0.62667 1.18473
 O1385 O 0.37544 0.53190 1.09130
 O1386 O 0.34614 0.53370 1.12132
 C1387 C 0.35522 0.54156 1.10032
 C1388 C 0.34299 0.56298 1.08679
 C1389 C 0.32426 0.57773 1.09896
 H1390 H 0.31788 0.57279 1.11792
 O1391 O 0.62485 0.47728 1.09172
 O1392 O 0.65433 0.47758 1.12147
 C1393 C 0.64505 0.46817 1.10129
 C1394 C 0.65731 0.44585 1.08935
 C1395 C 0.67760 0.43352 1.10161
 H1396 H 0.68498 0.44080 1.11936
 O1397 O 0.59075 0.37349 1.02750
 O1398 O 0.62026 0.34382 1.02887
 C1399 C 0.59978 0.35341 1.03735
 C1400 C 0.58696 0.34163 1.05952
 C1401 C 0.59781 0.32050 1.07152
 H1402 H 0.61502 0.31209 1.06391
 O1403 O 0.40966 0.62755 1.01680
 O1404 O 0.38007 0.65713 1.01517
 C1405 C 0.40052 0.64842 1.02459
 C1406 C 0.41274 0.66195 1.04595
 C1407 C 0.39993 0.68212 1.05757
 H1408 H 0.38235 0.68905 1.04940
 O1409 O 0.40987 0.48344 1.12774
 O1410 O 0.38077 0.48486 1.15796
 C1411 C 0.40123 0.47566 1.14892
 C1412 C 0.41501 0.45535 1.16270
 C1413 C 0.40912 0.44935 1.18814
 H1414 H 0.39462 0.45995 1.19821
 O1415 O 0.59232 0.53014 1.12370
 O1416 O 0.62235 0.53144 1.15285
 C1417 C 0.60193 0.54021 1.14340
 C1418 C 0.58958 0.56282 1.15477
 C1419 C 0.60075 0.57566 1.17542
 H1420 H 0.61828 0.56869 1.18365
 O1421 O 0.47451 0.37759 1.09495
 O1422 O 0.47393 0.34907 1.12559
 C1423 C 0.46547 0.35743 1.10459
 C1424 C 0.44472 0.34394 1.09128
 C1425 C 0.43759 0.31927 1.09842
 H1426 H 0.44758 0.30968 1.11363
 O1427 O 0.52601 0.63047 1.08360
 O1428 O 0.52694 0.66191 1.11112
 C1429 C 0.53562 0.65114 1.09134
 C1430 C 0.55802 0.66193 1.07797
 C1431 C 0.57092 0.68301 1.08807
 H1432 H 0.56385 0.69200 1.10517
 O1433 O 0.37176 0.41237 1.02894
 O1434 O 0.34140 0.38361 1.03110
 C1435 C 0.35129 0.40413 1.03887
 C1436 C 0.33943 0.41805 1.06029
 C1437 C 0.31826 0.40781 1.07316
 H1438 H 0.31014 0.39001 1.06693
 O1439 O 0.62916 0.58848 1.01764
 O1440 O 0.65991 0.61687 1.01570
 C1441 C 0.65038 0.59701 1.02546
 C1442 C 0.66362 0.58389 1.04649
 C1443 C 0.68872 0.59027 1.05322
 H1444 H 0.69897 0.60465 1.04263
 O1445 O 0.52573 0.59741 1.11960
 O1446 O 0.52662 0.62876 1.14724
 C1447 C 0.53497 0.60755 1.13938
 C1448 C 0.55647 0.59533 1.15278
 C1449 C 0.56763 0.60750 1.17356
 H1450 H 0.55918 0.62476 1.18083
 O1451 O 0.47518 0.41426 1.12761
 O1452 O 0.47452 0.38607 1.15856
 C1453 C 0.46652 0.40661 1.14880
 C1454 C 0.44699 0.42169 1.16232
 C1455 C 0.44105 0.41620 1.18767
 H1456 H 0.45090 0.40093 1.19729
 O1457 O 0.62669 0.52633 1.08852
 O1458 O 0.65690 0.52669 1.11755
 C1459 C 0.64806 0.53429 1.09641
 C1460 C 0.66246 0.55292 1.08104
 C1461 C 0.68768 0.55909 1.08712
 H1462 H 0.69705 0.54965 1.10281
 O1463 O 0.37496 0.48241 1.09306
 O1464 O 0.34569 0.48400 1.12310
 C1465 C 0.35436 0.47429 1.10277
 C1466 C 0.34092 0.45255 1.09118
 C1467 C 0.31954 0.44228 1.10339
 H1468 H 0.31187 0.45157 1.12007
 O1469 O 0.59379 0.62279 1.01703
 O1470 O 0.62446 0.65128 1.01560
 C1471 C 0.60353 0.64336 1.02483
 C1472 C 0.59111 0.65786 1.04549
 C1473 C 0.60328 0.67923 1.05549
 H1474 H 0.62071 0.68598 1.04679
 O1475 O 0.40626 0.37743 1.02914
 O1476 O 0.37605 0.34844 1.03093
 C1477 C 0.39727 0.35716 1.03855
 C1478 C 0.41155 0.34381 1.05875
 C1479 C 0.40501 0.31903 1.06582
 H1480 H 0.38962 0.30937 1.05616
 O1481 O 0.59025 0.48059 1.12661
 O1482 O 0.61962 0.48180 1.15644
 C1483 C 0.59883 0.47301 1.14783
 C1484 C 0.58491 0.45313 1.16209
 C1485 C 0.59194 0.44669 1.18698
 H1486 H 0.60708 0.45701 1.19632
 O1487 O 0.41025 0.53297 1.12586
 O1488 O 0.38087 0.53429 1.15583
 C1489 C 0.40137 0.54264 1.14615
 C1490 C 0.41433 0.56454 1.15795
 C1491 C 0.40354 0.57667 1.17909
 H1492 H 0.38631 0.56922 1.18766
 O1493 O 0.47588 0.63110 1.08408
 O1494 O 0.47657 0.66233 1.11185
 C1495 C 0.46716 0.65204 1.09218
 C1496 C 0.44501 0.66374 1.07931
 C1497 C 0.43156 0.68374 1.09090
 H1498 H 0.43804 0.69139 1.10885
 O1499 O 0.52427 0.37672 1.09492
 O1500 O 0.52385 0.34861 1.12592
 C1501 C 0.53281 0.35655 1.10493
 C1502 C 0.55408 0.34287 1.09249
 C1503 C 0.56503 0.32140 1.10400
 H1504 H 0.55720 0.31394 1.12154
 O1505 O 0.62465 0.40885 1.02558
 O1506 O 0.65400 0.37904 1.02694
 C1507 C 0.64491 0.39985 1.03507
 C1508 C 0.65727 0.41273 1.05679
 C1509 C 0.67731 0.40069 1.06952
 H1510 H 0.68468 0.38282 1.06254
 O1511 O 0.37512 0.59304 1.01911
 O1512 O 0.34568 0.62277 1.01753
 C1513 C 0.35488 0.60298 1.02777
 C1514 C 0.34282 0.59266 1.05103
 C1515 C 0.32403 0.60687 1.06341
 H1516 H 0.31703 0.62415 1.05478
 Cu1517 Cu 0.49971 0.39805 1.10828
 Cu1518 Cu 0.49889 0.36422 1.14542
 Cu1519 Cu 0.50077 0.61155 1.09934
 Cu1520 Cu 0.50195 0.64914 1.13255
 Cu1521 Cu 0.39135 0.39681 1.00403
 Cu1522 Cu 0.35473 0.36244 1.00643
 Cu1523 Cu 0.60489 0.39281 1.00141
 Cu1524 Cu 0.64014 0.35709 1.00312
 Cu1525 Cu 0.39496 0.60614 0.99307
 Cu1526 Cu 0.35948 0.64174 0.99129
 Cu1527 Cu 0.60810 0.60180 0.99274
 Cu1528 Cu 0.64457 0.63636 0.99080
 Cu1529 Cu 0.39558 0.50750 1.10652
 Cu1530 Cu 0.36035 0.50925 1.14250
 Cu1531 Cu 0.60547 0.50357 1.10479
 Cu1532 Cu 0.64123 0.50449 1.14009
 C1533 C 0.56526 0.43951 1.15026
 H1534 H 0.55983 0.44430 1.13101
 C1535 C 0.57990 0.42661 1.19979
 C1536 C 0.43623 0.57490 1.14675
 H1537 H 0.44426 0.56597 1.13004
 C1538 C 0.41427 0.59892 1.18888
 C1539 C 0.35208 0.57059 1.06274
 H1540 H 0.36708 0.55988 1.05356
 C1541 C 0.31519 0.60001 1.08757
 C1542 C 0.64742 0.43542 1.06678
 H1543 H 0.63145 0.44446 1.05749
 C1544 C 0.68725 0.41073 1.09201
 C1545 C 0.56500 0.35258 1.07006
 H1546 H 0.55691 0.36929 1.06127
 C1547 C 0.58707 0.31040 1.09375
 C1548 C 0.43543 0.65303 1.05678
 H1549 H 0.44512 0.63708 1.04819
 C1550 C 0.40868 0.69262 1.08039
 C1551 C 0.43411 0.44149 1.15006
 H1552 H 0.43860 0.44575 1.13042
 C1553 C 0.42246 0.43005 1.20085
 C1554 C 0.56739 0.57284 1.14366
 H1555 H 0.55902 0.56355 1.12735
 C1556 C 0.59004 0.59828 1.18462
 C1557 C 0.43166 0.35597 1.07135
 H1558 H 0.43678 0.37513 1.06600
 C1559 C 0.41803 0.30660 1.08548
 C1560 C 0.56829 0.64949 1.05663
 H1561 H 0.55900 0.63276 1.04920
 C1562 C 0.59381 0.69152 1.07715
 C1563 C 0.35060 0.44048 1.06944
 H1564 H 0.36736 0.44809 1.06016
 C1565 C 0.30847 0.41963 1.09498
 C1566 C 0.65074 0.56514 1.06047
 H1567 H 0.63124 0.56049 1.05573
 C1568 C 0.70092 0.57763 1.07326
 C1569 C 1.12457 1.11486 1.28956
 C1570 C 1.09865 1.11633 1.29303
 C1571 C 1.08761 1.12709 1.31451
 C1572 C 1.10398 1.13690 1.33309
 C1573 C 1.13073 1.13553 1.32997
 C1574 C 1.14118 1.12412 1.30802
 O1575 O 1.13110 1.10535 1.26712
 C1576 C 1.10882 1.10070 1.25620
 C1577 C 1.08839 1.10698 1.27133
 C1578 C 1.06333 1.10459 1.26332
 C1579 C 1.05913 1.09568 1.23860
 C1580 C 1.07985 1.08960 1.22230
 C1581 C 1.10508 1.09181 1.23150
 H1582 H 1.06716 1.12840 1.31663
 H1583 H 1.09598 1.14581 1.34981
 H1584 H 1.16157 1.12342 1.30508
 H1585 H 1.04757 1.10974 1.27555
 H1586 H 1.03970 1.09375 1.23205
 H1587 H 1.12131 1.08776 1.21947
 C1588 C 1.12050 0.63612 0.78581
 C1589 C 1.14189 0.63647 0.77067
 C1590 C 1.16582 0.64300 0.77976
 C1591 C 1.16793 0.64881 0.80564
 C1592 C 1.14634 0.64803 0.82184
 C1593 C 1.12215 0.64213 0.81165
 O1594 O 1.09996 0.62774 0.77374
 C1595 C 1.10863 0.62259 0.75055
 C1596 C 1.13419 0.62757 0.74776
 C1597 C 1.14763 0.62197 0.72568
 C1598 C 1.13421 0.61070 0.70566
 C1599 C 1.10784 0.60537 0.70797
 C1600 C 1.09480 0.61170 0.73068
 H1601 H 1.18243 0.64278 0.76755
 H1602 H 1.18652 0.65309 0.81337
 H1603 H 1.10557 0.64069 0.82381
 H1604 H 1.16783 0.62570 0.72411
 H1605 H 1.14434 0.60604 0.68834
 H1606 H 1.07478 0.60743 0.73308
 C1607 C 0.62187 1.11651 0.79193
 C1608 C 0.59583 1.11607 0.79457
 C1609 C 0.58345 1.12411 0.81650
 C1610 C 0.59853 1.13281 0.83665
 C1611 C 0.62548 1.13336 0.83457
 C1612 C 0.63725 1.12504 0.81179
 O1613 O 0.62974 1.10846 0.76930
 C1614 C 0.60817 1.10280 0.75742
 C1615 C 0.58692 1.10708 0.77213
 C1616 C 0.56235 1.10287 0.76343
 C1617 C 0.55950 1.09431 0.73839
 C1618 C 0.58103 1.09023 0.72252
 C1619 C 0.60579 1.09416 0.73240
 H1620 H 0.56292 1.12362 0.81808
 H1621 H 0.58928 1.13873 0.85405
 H1622 H 0.65775 1.12528 0.80968
 H1623 H 0.54593 1.10633 0.77538
 H1624 H 0.54046 1.09110 0.73125
 H1625 H 0.62255 1.09148 0.72071
 C1626 C 0.63485 0.63174 1.28080
 C1627 C 0.62951 0.65273 1.26627
 C1628 C 0.63228 0.67737 1.27517
 C1629 C 0.64114 0.68051 1.30007
 C1630 C 0.64727 0.65922 1.31523
 C1631 C 0.64412 0.63448 1.30549
 O1632 O 0.62988 0.61006 1.26900
 C1633 C 0.62129 0.61755 1.24649
 C1634 C 0.62092 0.64348 1.24386
 C1635 C 0.61245 0.65554 1.22205
 C1636 C 0.60340 0.64030 1.20229
 C1637 C 0.60253 0.61348 1.20477
 C1638 C 0.61219 0.60194 1.22706
 H1639 H 0.62767 0.69355 1.26343
 H1640 H 0.64369 0.69945 1.30751
 H1641 H 0.64861 0.61802 1.31690
 H1642 H 0.61253 0.67597 1.22039
 H1643 H 0.59668 0.64945 1.18516
 H1644 H 0.61165 0.58161 1.22961
 C1645 C 0.88013 0.87740 1.29105
 C1646 C 0.87756 0.90303 1.29497
 C1647 C 0.86648 0.91310 1.31677
 C1648 C 0.85760 0.89602 1.33522
 C1649 C 0.86019 0.86955 1.33166
 C1650 C 0.87177 0.86012 1.30933
 O1651 O 0.89002 0.87176 1.26852
 C1652 C 0.89382 0.89431 1.25801
 C1653 C 0.88662 0.91406 1.27344
 C1654 C 0.88833 0.93924 1.26594
 C1655 C 0.89762 0.94428 1.24144
 C1656 C 0.90472 0.92424 1.22485
 C1657 C 0.90301 0.89887 1.23352
 H1658 H 0.86436 0.93333 1.31928
 H1659 H 0.84856 0.90324 1.35224
 H1660 H 0.87345 0.83995 1.30608
 H1661 H 0.88253 0.95447 1.27843
 H1662 H 0.89918 0.96381 1.23536
 H1663 H 0.90784 0.88310 1.22130
 C1664 C 0.88499 0.37662 0.78974
 C1665 C 0.88357 0.40232 0.79375
 C1666 C 0.87233 0.41281 0.81528
 C1667 C 0.86215 0.39611 0.83340
 C1668 C 0.86365 0.36957 0.82982
 C1669 C 0.87535 0.35968 0.80773
 O1670 O 0.89521 0.37063 0.76743
 C1671 C 0.90040 0.39304 0.75716
 C1672 C 0.89377 0.41301 0.77257
 C1673 C 0.89687 0.43813 0.76534
 C1674 C 0.90680 0.44289 0.74105
 C1675 C 0.91314 0.42267 0.72437
 C1676 C 0.91026 0.39734 0.73284
 H1677 H 0.87111 0.43311 0.81783
 H1678 H 0.85308 0.40368 0.85025
 H1679 H 0.87628 0.33946 0.80449
 H1680 H 0.89152 0.45352 0.77781
 H1681 H 0.90926 0.46237 0.73511
 H1682 H 0.91451 0.38148 0.72052
 C1683 C 0.38032 0.87511 0.79130
 C1684 C 0.37816 0.90069 0.79578
 C1685 C 0.36671 0.91046 0.81753
 C1686 C 0.35709 0.89313 0.83538
 C1687 C 0.35934 0.86672 0.83130
 C1688 C 0.37122 0.85758 0.80899
 O1689 O 0.39072 0.86981 0.76891
 C1690 C 0.39528 0.89253 0.75906
 C1691 C 0.38806 0.91204 0.77480
 C1692 C 0.39053 0.93735 0.76801
 C1693 C 0.40051 0.94279 0.74387
 C1694 C 0.40752 0.92303 0.72691
 C1695 C 0.40517 0.89750 0.73491
 H1696 H 0.36493 0.93066 0.82048
 H1697 H 0.34788 0.90014 0.85240
 H1698 H 0.37272 0.83746 0.80535
 H1699 H 0.38474 0.95238 0.78073
 H1700 H 0.40256 0.96243 0.73831
 H1701 H 0.40992 0.88195 0.72237
 C1702 C 0.37398 0.39229 1.29344
 C1703 C 0.39982 0.39355 1.29748
 C1704 C 0.41152 0.38287 1.31862
 C1705 C 0.39594 0.37035 1.33631
 C1706 C 0.36929 0.36903 1.33267
 C1707 C 0.35811 0.38034 1.31106
 O1708 O 0.36697 0.40195 1.27121
 C1709 C 0.38885 0.40950 1.26100
 C1710 C 0.40947 0.40493 1.27642
 C1711 C 0.43434 0.41005 1.26903
 C1712 C 0.43820 0.41969 1.24451
 C1713 C 0.41738 0.42377 1.22783
 C1714 C 0.39226 0.41919 1.23649
 H1715 H 0.43194 0.38367 1.32112
 H1716 H 0.40448 0.36156 1.35281
 H1717 H 0.33782 0.37902 1.30776
 H1718 H 0.45026 0.40611 1.28143
 H1719 H 0.45750 0.42327 1.23818
 H1720 H 0.37607 0.42161 1.22403
 C1721 C 0.87187 1.13548 0.71486
 C1722 C 0.85120 1.12909 0.72963
 C1723 C 0.82620 1.13195 0.72152
 C1724 C 0.82231 1.14193 0.69716
 C1725 C 0.84324 1.14902 0.68171
 C1726 C 0.86839 1.14586 0.69070
 O1727 O 0.89400 1.13019 0.72584
 C1728 C 0.88712 1.12030 0.74806
 C1729 C 0.86114 1.11941 0.75129
 C1730 C 0.84964 1.10952 0.77288
 C1731 C 0.86553 1.09967 0.79176
 C1732 C 0.89243 1.09946 0.78865
 C1733 C 0.90338 1.11045 0.76662
 H1734 H 0.81029 1.12650 0.73342
 H1735 H 0.80306 1.14445 0.69030
 H1736 H 0.88458 1.15101 0.67904
 H1737 H 0.82915 1.10918 0.77502
 H1738 H 0.85682 1.09193 0.80874
 H1739 H 0.92377 1.11046 0.76361
 C1740 C 0.87306 0.61230 0.20529
 C1741 C 0.89889 0.61170 0.20099
 C1742 C 0.91013 0.62192 0.17932
 C1743 C 0.89407 0.63328 0.16136
 C1744 C 0.86742 0.63391 0.16527
 C1745 C 0.85671 0.62309 0.18743
 O1746 O 0.86647 0.60309 0.22787
 C1747 C 0.88862 0.59651 0.23804
 C1748 C 0.90901 0.60125 0.22227
 C1749 C 0.93404 0.59684 0.22943
 C1750 C 0.93831 0.58765 0.25404
 C1751 C 0.91771 0.58333 0.27106
 C1752 C 0.89244 0.58733 0.26266
 H1753 H 0.93055 0.62162 0.17658
 H1754 H 0.90223 0.64172 0.14445
 H1755 H 0.83641 0.62388 0.19090
 H1756 H 0.94976 0.60082 0.21671
 H1757 H 0.95773 0.58438 0.26004
 H1758 H 0.87637 0.58465 0.27530
 C1759 C 0.37216 1.13895 0.21761
 C1760 C 0.35249 1.13786 0.23486
 C1761 C 0.32807 1.14625 0.22943
 C1762 C 0.32360 1.15583 0.20504
 C1763 C 0.34338 1.15672 0.18659
 C1764 C 0.36815 1.14851 0.19320
 O1765 O 0.39366 1.12906 0.22641
 C1766 C 0.38733 1.12149 0.24966
 C1767 C 0.36232 1.12641 0.25568
 C1768 C 0.35125 1.11907 0.27852
 C1769 C 0.36656 1.10603 0.29589
 C1770 C 0.39242 1.10069 0.29020
 C1771 C 0.40304 1.10878 0.26683
 H1772 H 0.31290 1.14507 0.24332
 H1773 H 0.30462 1.16227 0.20039
 H1774 H 0.38350 1.14863 0.17944
 H1775 H 0.33145 1.12297 0.28268
 H1776 H 0.35834 1.10011 0.31383
 H1777 H 0.42265 1.10471 0.26197
 C1778 C 0.37448 0.61026 0.70375
 C1779 C 0.40029 0.60886 0.69951
 C1780 C 0.41199 0.61938 0.67822
 C1781 C 0.39643 0.63187 0.66058
 C1782 C 0.36979 0.63328 0.66441
 C1783 C 0.35861 0.62216 0.68617
 O1784 O 0.36747 0.60067 0.72605
 C1785 C 0.38933 0.59303 0.73609
 C1786 C 0.40993 0.59745 0.72050
 C1787 C 0.43477 0.59208 0.72765
 C1788 C 0.43864 0.58234 0.75211
 C1789 C 0.41785 0.57844 0.76899
 C1790 C 0.39275 0.58328 0.76057
 H1791 H 0.43240 0.61846 0.67556
 H1792 H 0.40494 0.64051 0.64395
 H1793 H 0.33833 0.62352 0.68958
 H1794 H 0.45067 0.59585 0.71510
 H1795 H 0.45793 0.57850 0.75821
 H1796 H 0.37658 0.58098 0.77315
 C1797 C 1.10620 0.87238 0.70433
 C1798 C 1.10361 0.89805 0.70062
 C1799 C 1.11241 0.91035 0.67891
 C1800 C 1.12456 0.89560 0.66036
 C1801 C 1.12739 0.86915 0.66375
 C1802 C 1.11778 0.85730 0.68585
 O1803 O 1.09849 0.86481 0.72716
 C1804 C 1.09089 0.88617 0.73812
 C1805 C 1.09351 0.90701 0.72260
 C1806 C 1.08822 0.93148 0.73069
 C1807 C 1.08039 0.93469 0.75595
 C1808 C 1.07820 0.91363 0.77262
 C1809 C 1.08298 0.88892 0.76334
 H1810 H 1.11065 0.93065 0.67669
 H1811 H 1.13218 0.90466 0.64352
 H1812 H 1.12042 0.83721 0.68899
 H1813 H 1.09069 0.94760 0.71821
 H1814 H 1.07662 0.95368 0.76275
 H1815 H 1.08201 0.87258 0.77574
 C1816 C 1.11439 0.36217 0.21091
 C1817 C 1.10952 0.38679 0.20380
 C1818 C 1.11725 0.39675 0.18057
 C1819 C 1.13122 0.38093 0.16434
 C1820 C 1.13712 0.35573 0.17152
 C1821 C 1.12796 0.34600 0.19485
 O1822 O 1.10746 0.35717 0.23467
 C1823 C 1.09818 0.37912 0.24277
 C1824 C 1.09905 0.39787 0.22461
 C1825 C 1.09251 0.42289 0.22972
 C1826 C 1.08488 0.42884 0.25457
 C1827 C 1.08383 0.40985 0.27361
 C1828 C 1.09025 0.38456 0.26750
 H1829 H 1.11368 0.41633 0.17562
 H1830 H 1.13856 0.38855 0.14667
 H1831 H 1.13311 0.32716 0.20112
 H1832 H 1.09390 0.43743 0.21527
 H1833 H 1.08003 0.44825 0.25910
 H1834 H 1.09024 0.36986 0.28186
 C1835 C 0.63152 0.87336 0.21407
 C1836 C 0.63050 0.85245 0.22965
 C1837 C 0.63836 0.82858 0.22195
 C1838 C 0.64736 0.82601 0.19703
 C1839 C 0.64821 0.84713 0.18024
 C1840 C 0.64046 0.87125 0.18913
 O1841 O 0.62244 0.89415 0.22504
 C1842 C 0.61550 0.88611 0.24797
 C1843 C 0.61999 0.86072 0.25167
 C1844 C 0.61340 0.84808 0.27390
 C1845 C 0.60163 0.86219 0.29315
 C1846 C 0.59678 0.88843 0.28990
 C1847 C 0.60403 0.90060 0.26701
 H1848 H 0.63733 0.81242 0.23458
 H1849 H 0.65346 0.80747 0.19076
 H1850 H 0.64062 0.88764 0.17676
 H1851 H 0.61702 0.82804 0.27626
 H1852 H 0.59645 0.85273 0.31068
 H1853 H 0.60034 0.92054 0.26396
 C1854 C 0.64088 0.35861 0.72354
 C1855 C 0.63509 0.33846 0.73909
 C1856 C 0.64145 0.31362 0.73319
 C1857 C 0.65444 0.30936 0.71032
 C1858 C 0.66076 0.32981 0.69396
 C1859 C 0.65384 0.35481 0.70072
 O1860 O 0.63296 0.38068 0.73270
 C1861 C 0.62196 0.37427 0.75452
 C1862 C 0.62283 0.34867 0.75928
 C1863 C 0.61252 0.33774 0.78097
 C1864 C 0.60059 0.35385 0.79842
 C1865 C 0.59901 0.38034 0.79385
 C1866 C 0.61014 0.39070 0.77164
 H1867 H 0.63669 0.29810 0.74578
 H1868 H 0.65995 0.29020 0.70548
 H1869 H 0.65847 0.37069 0.68854
 H1870 H 0.61362 0.31755 0.78434
 H1871 H 0.59268 0.34567 0.81558
 H1872 H 0.60920 0.41078 0.76760
 C1873 C 1.28011 1.13051 1.13769
 C1874 C 1.26504 1.15073 1.13101
 C1875 C 1.27290 1.17577 1.13337
 C1876 C 1.29730 1.18016 1.14314
 C1877 C 1.31303 1.15965 1.15048
 C1878 C 1.30430 1.13448 1.14781
 O1879 O 1.26947 1.10823 1.13272
 C1880 C 1.24717 1.11455 1.12273
 C1881 C 1.24352 1.14033 1.12146
 C1882 C 1.22185 1.15123 1.11114
 C1883 C 1.20341 1.13492 1.10118
 C1884 C 1.20703 1.10824 1.10137
 C1885 C 1.22902 1.09790 1.11287
 H1886 H 1.26079 1.19134 1.12768
 H1887 H 1.30398 1.19944 1.14525
 H1888 H 1.31619 1.11861 1.15311
 H1889 H 1.21941 1.17157 1.11042
 H1890 H 1.18645 1.14311 1.09288
 H1891 H 1.23240 1.07768 1.11308
 C1892 C 1.29493 0.62856 0.61145
 C1893 C 1.30067 0.60396 0.60503
 C1894 C 1.32392 0.59278 0.61061
 C1895 C 1.34190 0.60743 0.62363
 C1896 C 1.33638 0.63274 0.63096
 C1897 C 1.31260 0.64353 0.62435
 O1898 O 1.27123 0.63504 0.60559
 C1899 C 1.26181 0.61405 0.59536
 C1900 C 1.27908 0.59448 0.59463
 C1901 C 1.27281 0.57029 0.58628
 C1902 C 1.24764 0.56603 0.57860
 C1903 C 1.22945 0.58585 0.57925
 C1904 C 1.23674 0.61031 0.58740
 H1905 H 1.32789 0.57331 0.60556
 H1906 H 1.36001 0.59891 0.62838
 H1907 H 1.30762 0.66257 0.63009
 H1908 H 1.28664 0.55511 0.58627
 H1909 H 1.24216 0.54723 0.57246
 H1910 H 1.22304 0.62558 0.58859
 C1911 C 0.78553 1.13775 0.61568
 C1912 C 0.79272 1.11296 0.61194
 C1913 C 0.81566 1.10325 0.62070
 C1914 C 0.83158 1.11956 0.63442
 C1915 C 0.82438 1.14502 0.63909
 C1916 C 0.80127 1.15440 0.62904
 O1917 O 0.76208 1.14258 0.60763
 C1918 C 0.75427 1.12036 0.59875
 C1919 C 0.77230 1.10161 0.60099
 C1920 C 0.76745 1.07644 0.59489
 C1921 C 0.74297 1.07031 0.58627
 C1922 C 0.72401 1.08926 0.58382
 C1923 C 0.72989 1.11472 0.58981
 H1924 H 0.82068 1.08356 0.61794
 H1925 H 0.84909 1.11221 0.64233
 H1926 H 0.79498 1.17349 0.63312
 H1927 H 0.78179 1.06194 0.59731
 H1928 H 0.73861 1.05076 0.58180
 H1929 H 0.71556 1.12941 0.58870
 C1930 C 0.79258 0.62706 1.11185
 C1931 C 0.79827 0.60216 1.10672
 C1932 C 0.82130 0.59111 1.11334
 C1933 C 0.83911 0.60623 1.12606
 C1934 C 0.83365 0.63190 1.13207
 C1935 C 0.81009 0.64251 1.12444
 O1936 O 0.76908 0.63343 1.10509
 C1937 C 0.75975 0.61205 1.09558
 C1938 C 0.77688 0.59235 1.09619
 C1939 C 0.77065 0.56787 1.08875
 C1940 C 0.74566 0.56342 1.08060
 C1941 C 0.72761 0.58336 1.07986
 C1942 C 0.73487 0.60812 1.08711
 H1943 H 0.82524 0.57140 1.10928
 H1944 H 0.85705 0.59781 1.13155
 H1945 H 0.80513 0.66184 1.12912
 H1946 H 0.78436 0.55261 1.08979
 H1947 H 0.74019 0.54440 1.07519
 H1948 H 0.72125 0.62351 1.08725
 C1949 C 1.28672 0.86179 0.88180
 C1950 C 1.27047 0.85971 0.86144
 C1951 C 1.27864 0.85277 0.83728
 C1952 C 1.30471 0.84823 0.83385
 C1953 C 1.32192 0.85057 0.85440
 C1954 C 1.31274 0.85699 0.87884
 O1955 O 1.27534 0.87053 0.90261
 C1956 C 1.25144 0.87410 0.89518
 C1957 C 1.24752 0.86775 0.87015
 C1958 C 1.22447 0.87166 0.85785
 C1959 C 1.20471 0.88284 0.87182
 C1960 C 1.20826 0.88982 0.89760
 C1961 C 1.23187 0.88497 0.90958
 H1962 H 1.26556 0.85172 0.82147
 H1963 H 1.31175 0.84360 0.81507
 H1964 H 1.32571 0.85960 0.89457
 H1965 H 1.22199 0.86687 0.83802
 H1966 H 1.18672 0.88644 0.86250
 H1967 H 1.23521 0.89061 0.92906
 C1968 C 1.29267 0.37200 0.38347
 C1969 C 1.29744 0.39684 0.38973
 C1970 C 1.32055 0.40865 0.38479
 C1971 C 1.33944 0.39440 0.37256
 C1972 C 1.33495 0.36885 0.36538
 C1973 C 1.31128 0.35741 0.37137
 O1974 O 1.26895 0.36489 0.38863
 C1975 C 1.25853 0.38572 0.39824
 C1976 C 1.27519 0.40581 0.39926
 C1977 C 1.26794 0.42989 0.40708
 C1978 C 1.24239 0.43350 0.41392
 C1979 C 1.22480 0.41315 0.41299
 C1980 C 1.23308 0.38881 0.40537
 H1981 H 1.32376 0.42829 0.38969
 H1982 H 1.35746 0.40340 0.36828
 H1983 H 1.30709 0.33815 0.36572
 H1984 H 1.28132 0.44548 0.40734
 H1985 H 1.23617 0.45219 0.41968
 H1986 H 1.21987 0.37312 0.40401
 C1987 C 0.78775 0.86473 0.38249
 C1988 C 0.77149 0.86266 0.36213
 C1989 C 0.77966 0.85576 0.33797
 C1990 C 0.80572 0.85124 0.33453
 C1991 C 0.82293 0.85361 0.35507
 C1992 C 0.81376 0.85997 0.37953
 O1993 O 0.77638 0.87343 0.40332
 C1994 C 0.75249 0.87702 0.39589
 C1995 C 0.74856 0.87070 0.37084
 C1996 C 0.72553 0.87466 0.35854
 C1997 C 0.70579 0.88585 0.37253
 C1998 C 0.70936 0.89276 0.39831
 C1999 C 0.73294 0.88788 0.41030
 H2000 H 0.76657 0.85471 0.32216
 H2001 H 0.81275 0.84662 0.31574
 H2002 H 0.82673 0.86259 0.39526
 H2003 H 0.72304 0.86991 0.33870
 H2004 H 0.68779 0.88949 0.36322
 H2005 H 0.73628 0.89346 0.42980
 C2006 C 0.79044 0.36497 0.88072
 C2007 C 0.77418 0.36292 0.86037
 C2008 C 0.78242 0.35660 0.83606
 C2009 C 0.80855 0.35250 0.83250
 C2010 C 0.82573 0.35463 0.85309
 C2011 C 0.81651 0.36058 0.87764
 O2012 O 0.77896 0.37306 0.90173
 C2013 C 0.75496 0.37623 0.89446
 C2014 C 0.75109 0.37022 0.86932
 C2015 C 0.72789 0.37368 0.85720
 C2016 C 0.70793 0.38415 0.87143
 C2017 C 0.71146 0.39095 0.89727
 C2018 C 0.73521 0.38645 0.90910
 H2019 H 0.76931 0.35557 0.82027
 H2020 H 0.81559 0.34815 0.81366
 H2021 H 0.82945 0.36293 0.89344
 H2022 H 0.72542 0.36912 0.83732
 H2023 H 0.68982 0.38747 0.86222
 H2024 H 0.73853 0.39196 0.92862
 C2025 C 0.70916 0.88552 1.13379
 C2026 C 0.70207 0.89030 1.10908
 C2027 C 0.67892 0.88240 1.09910
 C2028 C 0.66276 0.86836 1.11500
 C2029 C 0.66995 0.86251 1.14028
 C2030 C 0.69319 0.87183 1.15002
 O2031 O 0.73287 0.89264 1.13879
 C2032 C 0.74095 0.90193 1.11674
 C2033 C 0.72285 0.90088 1.09793
 C2034 C 0.72799 0.90733 1.07280
 C2035 C 0.75284 0.91509 1.06680
 C2036 C 0.77181 0.91637 1.08586
 C2037 C 0.76566 0.91003 1.11126
 H2038 H 0.67398 0.88591 1.07946
 H2039 H 0.64517 0.86091 1.10736
 H2040 H 0.69949 0.86675 1.16892
 H2041 H 0.71360 0.90577 1.05822
 H2042 H 0.75744 0.91984 1.04730
 H2043 H 0.78001 0.91023 1.12600
 C2044 C 0.72607 0.35923 0.63514
 C2045 C 0.74197 0.36578 0.65477
 C2046 C 0.73668 0.36009 0.68002
 C2047 C 0.71411 0.34692 0.68526
 C2048 C 0.69740 0.33977 0.66536
 C2049 C 0.70352 0.34612 0.63992
 O2050 O 0.73466 0.36658 0.61254
 C2051 C 0.75648 0.37799 0.61807
 C2052 C 0.76179 0.37793 0.64366
 C2053 C 0.78355 0.38882 0.65377
 C2054 C 0.80043 0.40057 0.63686
 C2055 C 0.79526 0.40138 0.61037
 C2056 C 0.77307 0.38957 0.60082
 H2057 H 0.74955 0.36544 0.69512
 H2058 H 0.70985 0.34185 0.70474
 H2059 H 0.69110 0.34088 0.62441
 H2060 H 0.78736 0.38836 0.67397
 H2061 H 0.81758 0.40906 0.64441
 H2062 H 0.76861 0.38994 0.58075
 C2063 C 0.20480 0.87309 0.61815
 C2064 C 0.21878 0.87558 0.64009
 C2065 C 0.20897 0.87006 0.66400
 C2066 C 0.18356 0.86211 0.66543
 C2067 C 0.16854 0.85980 0.64318
 C2068 C 0.17950 0.86494 0.61913
 O2069 O 0.21737 0.88060 0.59754
 C2070 C 0.23970 0.88805 0.60670
 C2071 C 0.24148 0.88537 0.63263
 C2072 C 0.26267 0.89309 0.64635
 C2073 C 0.28288 0.90405 0.63281
 C2074 C 0.28158 0.90711 0.60604
 C2075 C 0.25969 0.89875 0.59280
 H2076 H 0.22027 0.87243 0.68100
 H2077 H 0.17529 0.85829 0.68390
 H2078 H 0.16827 0.86390 0.60196
 H2079 H 0.26351 0.89098 0.66679
 H2080 H 0.29962 0.91006 0.64315
 H2081 H 0.25802 0.90112 0.57244
 C2082 C 0.21444 0.36889 1.12724
 C2083 C 0.22762 0.37620 1.14856
 C2084 C 0.21828 0.37282 1.17307
 C2085 C 0.19433 0.36143 1.17571
 C2086 C 0.18047 0.35353 1.15405
 C2087 C 0.19070 0.35721 1.12947
 O2088 O 0.22644 0.37457 1.10573
 C2089 C 0.24767 0.38565 1.11369
 C2090 C 0.24931 0.38698 1.13973
 C2091 C 0.26978 0.39793 1.15220
 C2092 C 0.28930 0.40817 1.13722
 C2093 C 0.28793 0.40764 1.11024
 C2094 C 0.26684 0.39589 1.09836
 H2095 H 0.22896 0.37891 1.18953
 H2096 H 0.18652 0.35856 1.19455
 H2097 H 0.18027 0.35147 1.11273
 H2098 H 0.27069 0.39857 1.17273
 H2099 H 0.30556 0.41644 1.14671
 H2100 H 0.26510 0.39527 1.07788
 C2101 C 0.70488 1.12257 0.88051
 C2102 C 0.70186 1.09674 0.88198
 C2103 C 0.67974 1.08445 0.87439
 C2104 C 0.65975 1.09943 0.86514
 C2105 C 0.66217 1.12616 0.86376
 C2106 C 0.68515 1.13785 0.87152
 O2107 O 0.72764 1.13035 0.88828
 C2108 C 0.73920 1.10894 0.89486
 C2109 C 0.72415 1.08790 0.89147
 C2110 C 0.73237 1.06353 0.89697
 C2111 C 0.75732 1.06063 0.90584
 C2112 C 0.77365 1.08189 0.90883
 C2113 C 0.76420 1.10650 0.90367
 H2114 H 0.67788 1.06408 0.87566
 H2115 H 0.64216 1.09033 0.85958
 H2116 H 0.68742 1.15821 0.87067
 H2117 H 0.72010 1.04728 0.89429
 H2118 H 0.76404 1.04172 0.91012
 H2119 H 0.77619 1.12307 0.90554
 C2120 C 0.71634 0.64008 0.37328
 C2121 C 0.73328 0.64009 0.35332
 C2122 C 0.72688 0.64823 0.32909
 C2123 C 0.70187 0.65643 0.32513
 C2124 C 0.68372 0.65621 0.34522
 C2125 C 0.69129 0.64822 0.36977
 O2126 O 0.72615 0.63065 0.39453
 C2127 C 0.74974 0.62451 0.38774
 C2128 C 0.75497 0.62988 0.36268
 C2129 C 0.77799 0.62389 0.35113
 C2130 C 0.79637 0.61169 0.36597
 C2131 C 0.79150 0.60590 0.39185
 C2132 C 0.76795 0.61269 0.40300
 H2133 H 0.74055 0.64794 0.31368
 H2134 H 0.69658 0.66271 0.30629
 H2135 H 0.67784 0.64751 0.38537
 H2136 H 0.78151 0.62807 0.33130
 H2137 H 0.81441 0.60664 0.35734
 H2138 H 0.76370 0.60816 0.42263
 C2139 C 0.20748 1.12713 0.38055
 C2140 C 0.20217 1.10204 0.38520
 C2141 C 0.17902 1.09094 0.37901
 C2142 C 0.16065 1.10626 0.36733
 C2143 C 0.16567 1.13217 0.36198
 C2144 C 0.18942 1.14276 0.36905
 O2145 O 0.23107 1.13360 0.38687
 C2146 C 0.24085 1.11211 0.39564
 C2147 C 0.22391 1.09224 0.39500
 C2148 C 0.23047 1.06774 0.40209
 C2149 C 0.25560 1.06347 0.40991
 C2150 C 0.27355 1.08356 0.41056
 C2151 C 0.26591 1.10833 0.40364
 H2152 H 0.17536 1.07110 0.38268
 H2153 H 0.14257 1.09789 0.36223
 H2154 H 0.19401 1.16231 0.36487
 H2155 H 0.21687 1.05238 0.40119
 H2156 H 0.26120 1.04446 0.41527
 H2157 H 0.27932 1.12391 0.40352
 C2158 C 0.20880 0.62695 0.88105
 C2159 C 0.20481 0.60120 0.88025
 C2160 C 0.18310 0.59040 0.86973
 C2161 C 0.16479 0.60683 0.85953
 C2162 C 0.16839 0.63339 0.86033
 C2163 C 0.19060 0.64362 0.87143
 O2164 O 0.23138 0.63322 0.89045
 C2165 C 0.24185 0.61095 0.89574
 C2166 C 0.22631 0.59079 0.88999
 C2167 C 0.23376 0.56577 0.89319
 C2168 C 0.25840 0.56129 0.90231
 C2169 C 0.27518 0.58170 0.90772
 C2170 C 0.26651 0.60693 0.90478
 H2171 H 0.18059 0.57007 0.86895
 H2172 H 0.14784 0.59903 0.85088
 H2173 H 0.19384 0.66386 0.87174
 H2174 H 0.22119 0.55022 0.88850
 H2175 H 0.26452 0.54188 0.90485
 H2176 H 0.27891 0.62292 0.90834
 C2177 C 1.12445 1.28359 1.13163
 C2178 C 1.14501 1.26754 1.13027
 C2179 C 1.16921 1.27440 1.13824
 C2180 C 1.17247 1.29895 1.14774
 C2181 C 1.15172 1.31620 1.14898
 C2182 C 1.12725 1.30816 1.14108
 O2183 O 1.10327 1.27347 1.12232
 C2184 C 1.11070 1.25059 1.11489
 C2185 C 1.13609 1.24608 1.11931
 C2186 C 1.14817 1.22378 1.11221
 C2187 C 1.13349 1.20534 1.09992
 C2188 C 1.10725 1.20947 1.09506
 C2189 C 1.09564 1.23236 1.10291
 H2190 H 1.18509 1.26142 1.13693
 H2191 H 1.19125 1.30460 1.15396
 H2192 H 1.11113 1.32090 1.14152
 H2193 H 1.16822 1.22077 1.11577
 H2194 H 1.14252 1.18779 1.09426
 H2195 H 1.07572 1.23607 1.09922
 C2196 C 1.12708 0.79529 0.60965
 C2197 C 1.10251 0.80022 0.60217
 C2198 C 1.09018 0.82287 0.60754
 C2199 C 1.10363 0.84113 0.62139
 C2200 C 1.12893 0.83651 0.62963
 C2201 C 1.14090 0.81332 0.62330
 O2202 O 1.13463 0.77194 0.60405
 C2203 C 1.11435 0.76190 0.59288
 C2204 C 1.09421 0.77847 0.59126
 C2205 C 1.07051 0.77147 0.58190
 C2206 C 1.06731 0.74624 0.57428
 C2207 C 1.08766 0.72870 0.57602
 C2208 C 1.11168 0.73676 0.58501
 H2209 H 1.07071 0.82615 0.60173
 H2210 H 1.09425 0.85879 0.62600
 H2211 H 1.15996 0.80905 0.62978
 H2212 H 1.05484 0.78474 0.58121
 H2213 H 1.04883 0.74015 0.56754
 H2214 H 1.12729 0.72355 0.58712
 C2215 C 0.63827 1.27498 0.63692
 C2216 C 0.65766 1.25867 0.63060
 C2217 C 0.68305 1.26353 0.63611
 C2218 C 0.68869 1.28606 0.64896
 C2219 C 0.66902 1.30308 0.65601
 C2220 C 0.64345 1.29746 0.64975
 O2221 O 0.61548 1.26676 0.62980
 C2222 C 0.62062 1.24473 0.61879
 C2223 C 0.64615 1.23893 0.61891
 C2224 C 0.65588 1.21681 0.60856
 C2225 C 0.63865 1.20015 0.59718
 C2226 C 0.61223 1.20591 0.59612
 C2227 C 0.60305 1.22839 0.60751
 H2228 H 0.69795 1.25035 0.63092
 H2229 H 0.70825 1.29001 0.65401
 H2230 H 0.62814 1.31013 0.65502
 H2231 H 0.67603 1.21259 0.60911
 H2232 H 0.64591 1.18275 0.58906
 H2233 H 0.58305 1.23328 0.60698
 C2234 C 0.62582 0.78590 1.12638
 C2235 C 0.64721 0.77222 1.12013
 C2236 C 0.67178 0.78109 1.12422
 C2237 C 0.67440 0.80506 1.13530
 C2238 C 0.65266 0.81935 1.14223
 C2239 C 0.62801 0.80963 1.13778
 O2240 O 0.60430 0.77423 1.12023
 C2241 C 0.61231 0.75269 1.10996
 C2242 C 0.63839 0.75053 1.10961
 C2243 C 0.65093 0.72956 1.09985
 C2244 C 0.63599 0.71008 1.08973
 C2245 C 0.60899 0.71202 1.08912
 C2246 C 0.59702 0.73362 1.09972
 H2247 H 0.68830 0.77002 1.11897
 H2248 H 0.69328 0.81250 1.13881
 H2249 H 0.61123 0.82039 1.14286
 H2250 H 0.67148 0.72820 1.10006
 H2251 H 0.64554 0.69343 1.08246
 H2252 H 0.57654 0.73580 1.09951
 C2253 C 0.87381 1.29233 0.87917
 C2254 C 0.89930 1.29729 0.88236
 C2255 C 0.91035 1.32026 0.87566
 C2256 C 0.89454 1.33879 0.86497
 C2257 C 0.86820 1.33409 0.86102
 C2258 C 0.85771 1.31052 0.86860
 O2259 O 0.86733 1.26896 0.88594
 C2260 C 0.88923 1.25895 0.89351
 C2261 C 0.90937 1.27551 0.89165
 C2262 C 0.93423 1.26864 0.89744
 C2263 C 0.93854 1.24362 0.90532
 C2264 C 0.91811 1.22613 0.90733
 C2265 C 0.89304 1.23405 0.90159
 H2266 H 0.93049 1.32367 0.87825
 H2267 H 0.90287 1.35675 0.85952
 H2268 H 0.83783 1.30613 0.86555
 H2269 H 0.94980 1.28195 0.89560
 H2270 H 0.95778 1.23780 0.90978
 H2271 H 0.87717 1.22099 0.90254
 C2272 C 0.87234 0.79192 0.38023
 C2273 C 0.89791 0.79697 0.38247
 C2274 C 0.90861 0.82000 0.37543
 C2275 C 0.89234 0.83850 0.36537
 C2276 C 0.86589 0.83369 0.36233
 C2277 C 0.85579 0.81006 0.37027
 O2278 O 0.86621 0.76852 0.38725
 C2279 C 0.88842 0.75860 0.39400
 C2280 C 0.90842 0.77523 0.39136
 C2281 C 0.93351 0.76846 0.39623
 C2282 C 0.93821 0.74347 0.40399
 C2283 C 0.91794 0.72592 0.40685
 C2284 C 0.89263 0.73373 0.40201
 H2285 H 0.92881 0.82350 0.37730
 H2286 H 0.90041 0.85650 0.35968
 H2287 H 0.83582 0.80559 0.36795
 H2288 H 0.94896 0.78182 0.39377
 H2289 H 0.95763 0.73774 0.40774
 H2290 H 0.87686 0.72062 0.40365
 C2291 C 0.36955 1.29216 0.37848
 C2292 C 0.37134 1.27794 0.35666
 C2293 C 0.36620 1.28770 0.33268
 C2294 C 0.35937 1.31331 0.33106
 C2295 C 0.35773 1.32855 0.35318
 C2296 C 0.36246 1.31768 0.37730
 O2297 O 0.37671 1.27957 0.39914
 C2298 C 0.38322 1.25696 0.39013
 C2299 C 0.38027 1.25504 0.36424
 C2300 C 0.38717 1.23357 0.35061
 C2301 C 0.39768 1.21327 0.36418
 C2302 C 0.40113 1.21473 0.39089
 C2303 C 0.39346 1.23685 0.40407
 H2304 H 0.36806 1.27621 0.31577
 H2305 H 0.35589 1.32153 0.31254
 H2306 H 0.36194 1.32909 0.39437
 H2307 H 0.38489 1.23262 0.33021
 H2308 H 0.40320 1.19638 0.35389
 H2309 H 0.39618 1.23864 0.42437
 C2310 C 0.37137 0.78797 0.87772
 C2311 C 0.39692 0.79305 0.88022
 C2312 C 0.40753 0.81636 0.87408
 C2313 C 0.39123 0.83513 0.86464
 C2314 C 0.36481 0.83033 0.86128
 C2315 C 0.35476 0.80640 0.86835
 O2316 O 0.36532 0.76433 0.88394
 C2317 C 0.38756 0.75428 0.89042
 C2318 C 0.40750 0.77106 0.88839
 C2319 C 0.43259 0.76426 0.89321
 C2320 C 0.43736 0.73911 0.90037
 C2321 C 0.41714 0.72141 0.90270
 C2322 C 0.39184 0.72923 0.89781
 H2323 H 0.42771 0.81988 0.87617
 H2324 H 0.39924 0.85335 0.85962
 H2325 H 0.33483 0.80195 0.86578
 H2326 H 0.44798 0.77776 0.89126
 H2327 H 0.45677 0.73341 0.90422
 H2328 H 0.37610 0.71604 0.89909
 C2329 C 1.11685 0.70867 0.87147
 C2330 C 1.11255 0.70236 0.89647
 C2331 C 1.11889 0.67890 0.90655
 C2332 C 1.13049 0.66131 0.89032
 C2333 C 1.13570 0.66740 0.86450
 C2334 C 1.12832 0.69138 0.85490
 O2335 O 1.11031 0.73238 0.86605
 C2336 C 1.10182 0.74120 0.88814
 C2337 C 1.10286 0.72357 0.90736
 C2338 C 1.09616 0.72909 0.93233
 C2339 C 1.08815 0.75385 0.93775
 C2340 C 1.08686 0.77242 0.91830
 C2341 C 1.09357 0.76588 0.89306
 H2342 H 1.11544 0.67443 0.92634
 H2343 H 1.13578 0.64303 0.89797
 H2344 H 1.13237 0.69678 0.83547
 H2345 H 1.09743 0.71496 0.94717
 H2346 H 1.08298 0.75861 0.95709
 H2347 H 1.09318 0.77980 0.87794
 C2348 C 1.13236 0.20878 0.37995
 C2349 C 1.13229 0.22456 0.35913
 C2350 C 1.13850 0.21635 0.33481
 C2351 C 1.14456 0.19069 0.33173
 C2352 C 1.14437 0.17391 0.35277
 C2353 C 1.13867 0.18319 0.37733
 O2354 O 1.12412 0.22004 0.40100
 C2355 C 1.11865 0.24337 0.39325
 C2356 C 1.12332 0.24706 0.36778
 C2357 C 1.11741 0.26945 0.35523
 C2358 C 1.10603 0.28882 0.36947
 C2359 C 1.10082 0.28551 0.39574
 C2360 C 1.10760 0.26255 0.40788
 H2361 H 1.13791 0.22904 0.31867
 H2362 H 1.14871 0.18361 0.31287
 H2363 H 1.13772 0.17055 0.39350
 H2364 H 1.12094 0.27175 0.33510
 H2365 H 1.10106 0.30636 0.36002
 H2366 H 1.10343 0.25940 0.42779
 C2367 C 0.63463 0.71411 0.38346
 C2368 C 0.60992 0.70633 0.38731
 C2369 C 0.60043 0.68372 0.37765
 C2370 C 0.61694 0.66878 0.36302
 C2371 C 0.64237 0.67655 0.35842
 C2372 C 0.65148 0.69932 0.36924
 O2373 O 0.63919 0.73718 0.39241
 C2374 C 0.61687 0.74414 0.40202
 C2375 C 0.59833 0.72592 0.39939
 C2376 C 0.57308 0.72998 0.40627
 C2377 C 0.56662 0.75387 0.41598
 C2378 C 0.58532 0.77307 0.41865
 C2379 C 0.61091 0.76793 0.41195
 H2380 H 0.58077 0.67824 0.38049
 H2381 H 0.60980 0.65152 0.35451
 H2382 H 0.67054 0.70605 0.36525
 H2383 H 0.55874 0.71551 0.40359
 H2384 H 0.54698 0.75760 0.42102
 H2385 H 0.62542 0.78246 0.41315
 C2386 C 0.61389 0.20344 0.87783
 C2387 C 0.61417 0.19984 0.90370
 C2388 C 0.62321 0.17782 0.91499
 C2389 C 0.63222 0.15861 0.89894
 C2390 C 0.63210 0.16170 0.87213
 C2391 C 0.62274 0.18453 0.86148
 O2392 O 0.60491 0.22599 0.87108
 C2393 C 0.59940 0.23683 0.89320
 C2394 C 0.60469 0.22157 0.91371
 C2395 C 0.60084 0.22922 0.93867
 C2396 C 0.59151 0.25376 0.94271
 C2397 C 0.58628 0.27015 0.92195
 C2398 C 0.58996 0.26134 0.89678
 H2399 H 0.62327 0.17547 0.93541
 H2400 H 0.63899 0.14116 0.90735
 H2401 H 0.62249 0.18741 0.84112
 H2402 H 0.60514 0.21684 0.95449
 H2403 H 0.58853 0.26009 0.96205
 H2404 H 0.58644 0.27348 0.88058
 C2405 C 0.86583 0.70992 1.11896
 C2406 C 0.86582 0.72452 1.14060
 C2407 C 0.85975 0.71488 1.16444
 C2408 C 0.85390 0.68903 1.16614
 C2409 C 0.85415 0.67343 1.14423
 C2410 C 0.85976 0.68415 1.12020
 O2411 O 0.87371 0.72248 1.09850
 C2412 C 0.87884 0.74545 1.10746
 C2413 C 0.87433 0.74763 1.13312
 C2414 C 0.87975 0.76951 1.14674
 C2415 C 0.89039 0.78996 1.13342
 C2416 C 0.89540 0.78823 1.10696
 C2417 C 0.88921 0.76570 1.09375
 H2418 H 0.86022 0.72668 1.18124
 H2419 H 0.84979 0.68091 1.18459
 H2420 H 0.86071 0.67246 1.10334
 H2421 H 0.87630 0.77065 1.16699
 H2422 H 0.89482 0.80714 1.14372
 H2423 H 0.89319 0.76371 1.07366
 C2424 C 0.86207 0.21859 0.62450
 C2425 C 0.86215 0.23517 0.64463
 C2426 C 0.85384 0.22853 0.66878
 C2427 C 0.84541 0.20364 0.67249
 C2428 C 0.84554 0.18586 0.65222
 C2429 C 0.85365 0.19367 0.62774
 O2430 O 0.87171 0.22858 0.60336
 C2431 C 0.87807 0.25191 0.61040
 C2432 C 0.87263 0.25681 0.63550
 C2433 C 0.87876 0.27954 0.64727
 C2434 C 0.89113 0.29799 0.63262
 C2435 C 0.89702 0.29348 0.60669
 C2436 C 0.89011 0.27018 0.59534
 H2437 H 0.85421 0.24192 0.68434
 H2438 H 0.83904 0.19813 0.69127
 H2439 H 0.85429 0.18048 0.61202
 H2440 H 0.87448 0.28282 0.66713
 H2441 H 0.89616 0.31583 0.64142
 H2442 H 0.89466 0.26618 0.57567
 C2443 C 0.36751 0.71094 0.61952
 C2444 C 0.36856 0.72491 0.64155
 C2445 C 0.36388 0.71454 0.66539
 C2446 C 0.35824 0.68861 0.66663
 C2447 C 0.35733 0.67366 0.64428
 C2448 C 0.36164 0.68511 0.62032
 O2449 O 0.37409 0.72418 0.59903
 C2450 C 0.37947 0.74694 0.60837
 C2451 C 0.37637 0.74834 0.63429
 C2452 C 0.38222 0.76990 0.64822
 C2453 C 0.39186 0.79086 0.63494
 C2454 C 0.39548 0.78993 0.60822
 C2455 C 0.38883 0.76770 0.59471
 H2456 H 0.36515 0.72585 0.68247
 H2457 H 0.35506 0.67998 0.68503
 H2458 H 0.36164 0.67397 0.60307
 H2459 H 0.37986 0.77043 0.66865
 H2460 H 0.39665 0.80780 0.64548
 H2461 H 0.39177 0.76632 0.57439
 C2462 C 0.37901 0.21810 1.13967
 C2463 C 0.38280 0.21146 1.11466
 C2464 C 0.37387 0.18889 1.10442
 C2465 C 0.36001 0.17275 1.12047
 C2466 C 0.35541 0.17937 1.14618
 C2467 C 0.36555 0.20212 1.15605
 O2468 O 0.38712 0.24132 1.14500
 C2469 C 0.39610 0.24954 1.12287
 C2470 C 0.39390 0.23198 1.10370
 C2471 C 0.40013 0.23731 1.07857
 C2472 C 0.40875 0.26181 1.07291
 C2473 C 0.41101 0.28034 1.09228
 C2474 C 0.40498 0.27394 1.11770
 H2475 H 0.37665 0.18432 1.08457
 H2476 H 0.35204 0.15548 1.11278
 H2477 H 0.36153 0.20793 1.17537
 H2478 H 0.39777 0.22332 1.06374
 H2479 H 0.41331 0.26654 1.05339
 H2480 H 0.40593 0.28792 1.13272
 C2481 C 1.13985 1.12419 0.71707
 C2482 C 1.14148 1.14232 0.73575
 C2483 C 1.15020 1.16673 0.73120
 C2484 C 1.15730 1.17284 0.70628
 C2485 C 1.15552 1.15465 0.68650
 C2486 C 1.14700 1.12982 0.69213
 O2487 O 1.12967 1.10261 0.72522
 C2488 C 1.12471 1.10730 0.74953
 C2489 C 1.13161 1.13136 0.75685
 C2490 C 1.12677 1.14093 0.78096
 C2491 C 1.11400 1.12516 0.79817
 C2492 C 1.10648 1.10037 0.79105
 C2493 C 1.11227 1.09112 0.76652
 H2494 H 1.15104 1.18072 0.74619
 H2495 H 1.16396 1.19185 0.70235
 H2496 H 1.14507 1.11573 0.67735
 H2497 H 1.13207 1.16005 0.78612
 H2498 H 1.10957 1.13232 0.81695
 H2499 H 1.10628 1.07242 0.76059
 C2500 C 1.14166 0.64757 0.22693
 C2501 C 1.16057 0.64074 0.24358
 C2502 C 1.18611 0.64633 0.23947
 C2503 C 1.19242 0.65969 0.21732
 C2504 C 1.17326 0.66714 0.19989
 C2505 C 1.14751 0.66093 0.20482
 O2506 O 1.11865 0.64007 0.23429
 C2507 C 1.12317 0.62825 0.25610
 C2508 C 1.14853 0.62823 0.26260
 C2509 C 1.15766 0.61682 0.28450
 C2510 C 1.13998 0.60455 0.30019
 C2511 C 1.11374 0.60375 0.29371
 C2512 C 1.10517 0.61617 0.27150
 H2513 H 1.20064 0.64068 0.25287
 H2514 H 1.21213 0.66463 0.21386
 H2515 H 1.13258 0.66639 0.19178
 H2516 H 1.17768 0.61718 0.28926
 H2517 H 1.14676 0.59557 0.31740
 H2518 H 1.08532 0.61579 0.26605
 C2519 C 0.61372 1.12532 0.20651
 C2520 C 0.61028 1.10018 0.20062
 C2521 C 0.61668 1.09006 0.17712
 C2522 C 0.62741 1.10643 0.15904
 C2523 C 0.63170 1.13241 0.16472
 C2524 C 0.62432 1.14198 0.18878
 O2525 O 0.60721 1.13085 0.23027
 C2526 C 0.59959 1.10871 0.23956
 C2527 C 0.60115 1.08932 0.22219
 C2528 C 0.59528 1.06434 0.22823
 C2529 C 0.58756 1.05911 0.25323
 C2530 C 0.58575 1.07876 0.27152
 C2531 C 0.59167 1.10397 0.26445
 H2532 H 0.61390 1.07018 0.17297
 H2533 H 0.63271 1.09880 0.14070
 H2534 H 0.62765 1.16155 0.19389
 H2535 H 0.59692 1.04937 0.21429
 H2536 H 0.58298 1.03977 0.25839
 H2537 H 0.59087 1.11926 0.27812
 C2538 C 0.63655 0.61497 0.71091
 C2539 C 0.61195 0.61050 0.70319
 C2540 C 0.60204 0.62026 0.68075
 C2541 C 0.61798 0.63564 0.66591
 C2542 C 0.64327 0.64088 0.67363
 C2543 C 0.65285 0.62995 0.69621
 O2544 O 0.64147 0.60586 0.73391
 C2545 C 0.61947 0.59554 0.74091
 C2546 C 0.60080 0.59787 0.72276
 C2547 C 0.57574 0.59045 0.72695
 C2548 C 0.56958 0.58055 0.75094
 C2549 C 0.58841 0.57820 0.77005
 C2550 C 0.61383 0.58535 0.76477
 H2551 H 0.58246 0.61695 0.67535
 H2552 H 0.61050 0.64421 0.64879
 H2553 H 0.67179 0.63442 0.70290
 H2554 H 0.56126 0.59297 0.71258
 H2555 H 0.55004 0.57527 0.75489
 H2556 H 0.62836 0.58444 0.77930
 C2557 C 0.86813 0.85577 0.72224
 C2558 C 0.84780 0.86128 0.73781
 C2559 C 0.82262 0.85874 0.73011
 C2560 C 0.81822 0.85010 0.70533
 C2561 C 0.83884 0.84402 0.68908
 C2562 C 0.86414 0.84672 0.69768
 O2563 O 0.89048 0.86104 0.73272
 C2564 C 0.88413 0.87005 0.75540
 C2565 C 0.85824 0.87040 0.75948
 C2566 C 0.84727 0.87994 0.78150
 C2567 C 0.86360 0.89012 0.79982
 C2568 C 0.89034 0.89085 0.79575
 C2569 C 0.90078 0.88008 0.77345
 H2570 H 0.80696 0.86360 0.74259
 H2571 H 0.79884 0.84802 0.69869
 H2572 H 0.88009 0.84248 0.68535
 H2573 H 0.82684 0.88003 0.78425
 H2574 H 0.85538 0.89795 0.81699
 H2575 H 0.92105 0.88067 0.76971
 C2576 C 0.86183 0.37948 0.21498
 C2577 C 0.88699 0.38204 0.20808
 C2578 C 0.89670 0.37256 0.18542
 C2579 C 0.87992 0.35944 0.16947
 C2580 C 0.85402 0.35610 0.17636
 C2581 C 0.84475 0.36676 0.19922
 O2582 O 0.85694 0.38806 0.23818
 C2583 C 0.87950 0.39611 0.24613
 C2584 C 0.89852 0.39285 0.22842
 C2585 C 0.92394 0.39814 0.23347
 C2586 C 0.93003 0.40697 0.25784
 C2587 C 0.91080 0.41032 0.27651
 C2588 C 0.88511 0.40516 0.27039
 H2589 H 0.91666 0.37441 0.18061
 H2590 H 0.88717 0.35112 0.15211
 H2591 H 0.82528 0.36375 0.20527
 H2592 H 0.93862 0.39500 0.21937
 H2593 H 0.94975 0.41090 0.26232
 H2594 H 0.87015 0.40697 0.28446
 C2595 C 0.36091 0.87253 0.21750
 C2596 C 0.36100 0.85253 0.23426
 C2597 C 0.35287 0.82839 0.22773
 C2598 C 0.34456 0.82457 0.20276
 C2599 C 0.34459 0.84472 0.18484
 C2600 C 0.35258 0.86917 0.19252
 O2601 O 0.37041 0.89366 0.22739
 C2602 C 0.37668 0.88678 0.25085
 C2603 C 0.37130 0.86178 0.25594
 C2604 C 0.37727 0.85020 0.27887
 C2605 C 0.38947 0.86494 0.29730
 C2606 C 0.39540 0.89074 0.29257
 C2607 C 0.38859 0.90191 0.26908
 H2608 H 0.35327 0.81295 0.24125
 H2609 H 0.33832 0.80581 0.19732
 H2610 H 0.35315 0.88480 0.17921
 H2611 H 0.37301 0.83044 0.28231
 H2612 H 0.39436 0.85626 0.31529
 H2613 H 0.39315 0.92148 0.26490
 C2614 C 0.36937 0.35781 0.71798
 C2615 C 0.34879 0.36306 0.73330
 C2616 C 0.32376 0.36137 0.72495
 C2617 C 0.31975 0.35373 0.69978
 C2618 C 0.34062 0.34777 0.68380
 C2619 C 0.36578 0.34976 0.69301
 O2620 O 0.39158 0.36202 0.72925
 C2621 C 0.38484 0.37005 0.75221
 C2622 C 0.35887 0.37079 0.75565
 C2623 C 0.34751 0.37930 0.77787
 C2624 C 0.36354 0.38811 0.79712
 C2625 C 0.39038 0.38860 0.79374
 C2626 C 0.40122 0.37877 0.77119
 H2627 H 0.30791 0.36597 0.73728
 H2628 H 0.30049 0.35207 0.69272
 H2629 H 0.38191 0.34545 0.68094
 H2630 H 0.32703 0.37968 0.78009
 H2631 H 0.35502 0.39529 0.81443
 H2632 H 0.42158 0.37923 0.76798
 C2633 C 1.10975 0.87778 1.29425
 C2634 C 1.11089 0.90359 1.29770
 C2635 C 1.12225 0.91469 1.31880
 C2636 C 1.13294 0.89852 1.33704
 C2637 C 1.13185 0.87189 1.33398
 C2638 C 1.11990 0.86137 1.31239
 O2639 O 1.09966 0.87119 1.27211
 C2640 C 1.09429 0.89331 1.26135
 C2641 C 1.10068 0.91369 1.27631
 C2642 C 1.09778 0.93861 1.26836
 C2643 C 1.08835 0.94271 1.24380
 C2644 C 1.08227 0.92204 1.22765
 C2645 C 1.08482 0.89695 1.23683
 H2646 H 1.12330 0.93505 1.32086
 H2647 H 1.14223 0.90657 1.35349
 H2648 H 1.11939 0.84108 1.30949
 H2649 H 1.10306 0.95433 1.28042
 H2650 H 1.08623 0.96201 1.23718
 H2651 H 1.08080 0.88080 1.22484
 C2652 C 1.14128 0.37580 0.77973
 C2653 C 1.14219 0.35719 0.76150
 C2654 C 1.15052 0.33274 0.76647
 C2655 C 1.15799 0.32711 0.79135
 C2656 C 1.15694 0.34580 0.81075
 C2657 C 1.14878 0.37064 0.80466
 O2658 O 1.13153 0.39742 0.77121
 C2659 C 1.12610 0.39224 0.74712
 C2660 C 1.13227 0.36785 0.74030
 C2661 C 1.12695 0.35783 0.71650
 C2662 C 1.11450 0.37352 0.69905
 C2663 C 1.10778 0.39869 0.70560
 C2664 C 1.11400 0.40835 0.72986
 H2665 H 1.15085 0.31838 0.75181
 H2666 H 1.16438 0.30809 0.79556
 H2667 H 1.14741 0.38515 0.81911
 H2668 H 1.13171 0.33847 0.71174
 H2669 H 1.10980 0.36604 0.68048
 H2670 H 1.10867 0.42737 0.73538
 C2671 C 0.64432 0.86806 0.77406
 C2672 C 0.63833 0.84866 0.75770
 C2673 C 0.64143 0.82324 0.76395
 C2674 C 0.65107 0.81760 0.78811
 C2675 C 0.65756 0.83726 0.80519
 C2676 C 0.65437 0.86285 0.79801
 O2677 O 0.63833 0.89078 0.76502
 C2678 C 0.62835 0.88560 0.74245
 C2679 C 0.62809 0.86009 0.73706
 C2680 C 0.61757 0.85025 0.71502
 C2681 C 0.60636 0.86732 0.69805
 C2682 C 0.60559 0.89367 0.70348
 C2683 C 0.61730 0.90300 0.72576
 H2684 H 0.63617 0.80832 0.75090
 H2685 H 0.65347 0.79800 0.79369
 H2686 H 0.65885 0.87805 0.81104
 H2687 H 0.61753 0.83010 0.71125
 H2688 H 0.59780 0.85996 0.68087
 H2689 H 0.61670 0.92293 0.73052
 C2690 C 0.61740 0.37366 1.29004
 C2691 C 0.61335 0.39862 1.29629
 C2692 C 0.61993 0.40871 1.31972
 C2693 C 0.63151 0.39251 1.33735
 C2694 C 0.63647 0.36673 1.33131
 C2695 C 0.62886 0.35714 1.30735
 O2696 O 0.61066 0.36821 1.26636
 C2697 C 0.60228 0.39024 1.25747
 C2698 C 0.60359 0.40946 1.27504
 C2699 C 0.59709 0.43436 1.26941
 C2700 C 0.58901 0.43972 1.24460
 C2701 C 0.58745 0.42026 1.22610
 C2702 C 0.59394 0.39509 1.23276
 H2703 H 0.61667 0.42846 1.32413
 H2704 H 0.63697 0.40015 1.35561
 H2705 H 0.63271 0.33774 1.30199
 H2706 H 0.59859 0.44921 1.28349
 H2707 H 0.58404 0.45902 1.23972
 H2708 H 0.59335 0.37998 1.21888
 C2709 C 0.87049 1.14652 1.27472
 C2710 C 0.85212 1.14935 1.25636
 C2711 C 0.82809 1.15905 1.26145
 C2712 C 0.82258 1.16573 1.28659
 C2713 C 0.84096 1.16257 1.30609
 C2714 C 0.86547 1.15327 1.29990
 O2715 O 0.89151 1.13547 1.26607
 C2716 C 0.88619 1.13115 1.24178
 C2717 C 0.86229 1.13930 1.23495
 C2718 C 0.85204 1.13520 1.21099
 C2719 C 0.86696 1.12195 1.19337
 C2720 C 0.89161 1.11327 1.19993
 C2721 C 0.90155 1.11826 1.22437
 H2722 H 0.81388 1.16083 1.24670
 H2723 H 0.80381 1.17295 1.29100
 H2724 H 0.87963 1.15022 1.31448
 H2725 H 0.83303 1.14145 1.20623
 H2726 H 0.85927 1.11819 1.17467
 H2727 H 0.92015 1.11140 1.22990
 C2728 C 0.86592 0.62196 0.78155
 C2729 C 0.89112 0.62083 0.78857
 C2730 C 0.89995 0.63037 0.81152
 C2731 C 0.88217 0.64203 0.82764
 C2732 C 0.85618 0.64384 0.82064
 C2733 C 0.84789 0.63316 0.79746
 O2734 O 0.86179 0.61344 0.75821
 C2735 C 0.88486 0.60687 0.75030
 C2736 C 0.90348 0.61100 0.76814
 C2737 C 0.92918 0.60693 0.76322
 C2738 C 0.93596 0.59832 0.73891
 C2739 C 0.91711 0.59401 0.72012
 C2740 C 0.89115 0.59816 0.72609
 H2741 H 0.91992 0.62965 0.81646
 H2742 H 0.88868 0.65038 0.84524
 H2743 H 0.82833 0.63502 0.79132
 H2744 H 0.94354 0.61065 0.77746
 H2745 H 0.95587 0.59508 0.73466
 H2746 H 0.87638 0.59561 0.71200
 C2747 C 0.37705 1.11916 0.79235
 C2748 C 0.40309 1.11932 0.79482
 C2749 C 0.41530 1.12710 0.81690
 C2750 C 0.40002 1.13484 0.83738
 C2751 C 0.37308 1.13465 0.83547
 C2752 C 0.36149 1.12671 0.81253
 O2753 O 0.36932 1.11135 0.76963
 C2754 C 0.39099 1.10643 0.75752
 C2755 C 0.41216 1.11094 0.77216
 C2756 C 0.43679 1.10720 0.76330
 C2757 C 0.43977 1.09885 0.73819
 C2758 C 0.41830 1.09456 0.72236
 C2759 C 0.39350 1.09809 0.73241
 H2760 H 0.43584 1.12708 0.81835
 H2761 H 0.40911 1.14052 0.85490
 H2762 H 0.34099 1.12638 0.81057
 H2763 H 0.45315 1.11074 0.77523
 H2764 H 0.45886 1.09583 0.73103
 H2765 H 0.37675 1.09519 0.72082
 C2766 C 0.38538 0.63841 1.28854
 C2767 C 0.36498 0.64104 1.27239
 C2768 C 0.34079 0.64773 1.28077
 C2769 C 0.33736 0.65145 1.30691
 C2770 C 0.35795 0.64851 1.32400
 C2771 C 0.38243 0.64237 1.31465
 O2772 O 0.40621 0.62998 1.27693
 C2773 C 0.39875 0.62714 1.25298
 C2774 C 0.37367 0.63368 1.24926
 C2775 C 0.36129 0.63036 1.22619
 C2776 C 0.37522 0.61957 1.20621
 C2777 C 0.40101 0.61244 1.20958
 C2778 C 0.41309 0.61669 1.23318
 H2779 H 0.32495 0.64922 1.26775
 H2780 H 0.31856 0.65594 1.31406
 H2781 H 0.39820 0.63935 1.32749
 H2782 H 0.34143 0.63523 1.22388
 H2783 H 0.36583 0.61628 1.18820
 H2784 H 0.43258 0.61085 1.23635
 C2785 C 1.13009 1.27992 0.85737
 C2786 C 1.15076 1.26449 0.86149
 C2787 C 1.17575 1.27255 0.85814
 C2788 C 1.17959 1.29757 0.85008
 C2789 C 1.15861 1.31370 0.84534
 C2790 C 1.13350 1.30476 0.84890
 O2791 O 1.10805 1.26891 0.86308
 C2792 C 1.11499 1.24601 0.87093
 C2793 C 1.14091 1.24236 0.87011
 C2794 C 1.15248 1.22013 0.87807
 C2795 C 1.13677 1.20105 0.88787
 C2796 C 1.11003 1.20458 0.88989
 C2797 C 1.09893 1.22723 0.88069
 H2798 H 1.19169 1.26014 0.86187
 H2799 H 1.19881 1.30446 0.84729
 H2800 H 1.11730 1.31697 0.84558
 H2801 H 1.17292 1.21772 0.87719
 H2802 H 1.14552 1.18365 0.89439
 H2803 H 1.07865 1.23057 0.88223
 C2804 C 1.12580 0.79401 0.38259
 C2805 C 1.10035 0.79818 0.38712
 C2806 C 1.08841 0.82098 0.38154
 C2807 C 1.10324 0.84020 0.37059
 C2808 C 1.12949 0.83633 0.36529
 C2809 C 1.14093 0.81290 0.37177
 O2810 O 1.13313 0.77061 0.38824
 C2811 C 1.11183 0.75977 0.39643
 C2812 C 1.09122 0.77584 0.39609
 C2813 C 1.06677 0.76808 0.40258
 C2814 C 1.06337 0.74264 0.40949
 C2815 C 1.08428 0.72563 0.40987
 C2816 C 1.10893 0.73445 0.40357
 H2817 H 1.06831 0.82373 0.38511
 H2818 H 1.09423 0.85804 0.36594
 H2819 H 1.16076 0.80917 0.36762
 H2820 H 1.05082 0.78101 0.40188
 H2821 H 1.04444 0.73610 0.41437
 H2822 H 1.12511 0.72176 0.40326
 C2823 C 0.61962 1.28853 0.36177
 C2824 C 0.64061 1.27297 0.36107
 C2825 C 0.66485 1.28170 0.35503
 C2826 C 0.66768 1.30762 0.34994
 C2827 C 0.64647 1.32418 0.35086
 C2828 C 0.62198 1.31440 0.35642
 O2829 O 0.59869 1.27672 0.36970
 C2830 C 0.60669 1.25324 0.37416
 C2831 C 0.63220 1.25001 0.36916
 C2832 C 0.64498 1.22749 0.37406
 C2833 C 0.63098 1.20754 0.38478
 C2834 C 0.60469 1.21037 0.39036
 C2835 C 0.59228 1.23347 0.38457
 H2836 H 0.68114 1.26916 0.35501
 H2837 H 0.68648 1.31504 0.34590
 H2838 H 0.60567 1.32682 0.35793
 H2839 H 0.66514 1.22553 0.37029
 H2840 H 0.64065 1.18993 0.38904
 H2841 H 0.57236 1.23628 0.38908
 C2842 C 0.64182 0.77799 0.86987
 C2843 C 0.61672 0.78516 0.87209
 C2844 C 0.60751 0.80789 0.86250
 C2845 C 0.62473 0.82364 0.84962
 C2846 C 0.65058 0.81648 0.84661
 C2847 C 0.65935 0.79355 0.85737
 O2848 O 0.64623 0.75483 0.87868
 C2849 C 0.62343 0.74721 0.88653
 C2850 C 0.60473 0.76506 0.88290
 C2851 C 0.57919 0.76042 0.88811
 C2852 C 0.57262 0.73634 0.89731
 C2853 C 0.59152 0.71754 0.90113
 C2854 C 0.61735 0.72322 0.89594
 H2855 H 0.58761 0.81294 0.86412
 H2856 H 0.61788 0.84108 0.84125
 H2857 H 0.67880 0.78735 0.85466
 H2858 H 0.56477 0.77465 0.88472
 H2859 H 0.55281 0.73224 0.90130
 H2860 H 0.63209 0.70906 0.89814
 C2861 C 0.86025 1.28243 1.12583
 C2862 C 0.86588 1.26644 1.14569
 C2863 C 0.86313 1.27338 1.17104
 C2864 C 0.85411 1.29782 1.17613
 C2865 C 0.84786 1.31450 1.15601
 C2866 C 0.85081 1.30668 1.13051
 O2867 O 0.86563 1.27256 1.10323
 C2868 C 0.87482 1.24984 1.10898
 C2869 C 0.87516 1.24517 1.13471
 C2870 C 0.88465 1.22297 1.14512
 C2871 C 0.89481 1.20504 1.12838
 C2872 C 0.89563 1.20969 1.10178
 C2873 C 0.88489 1.23219 1.09189
 H2874 H 0.86805 1.26056 1.18631
 H2875 H 0.85178 1.30385 1.19565
 H2876 H 0.84635 1.31933 1.11495
 H2877 H 0.88468 1.21976 1.16543
 H2878 H 0.90255 1.18770 1.13618
 H2879 H 0.88548 1.23634 1.07175
 C2880 C 0.85888 0.78010 0.62654
 C2881 C 0.85898 0.76176 0.64512
 C2882 C 0.85004 0.76598 0.66959
 C2883 C 0.84097 0.79024 0.67532
 C2884 C 0.84110 0.80977 0.65672
 C2885 C 0.84981 0.80441 0.63181
 O2886 O 0.86936 0.77239 0.60488
 C2887 C 0.87631 0.74874 0.60999
 C2888 C 0.87040 0.74139 0.63439
 C2889 C 0.87715 0.71796 0.64433
 C2890 C 0.89070 0.70143 0.62851
 C2891 C 0.89707 0.70851 0.60328
 C2892 C 0.88948 0.73239 0.59376
 H2893 H 0.85049 0.75126 0.68391
 H2894 H 0.83419 0.79395 0.69439
 H2895 H 0.85052 0.81900 0.61738
 H2896 H 0.87254 0.71277 0.66370
 H2897 H 0.89633 0.68311 0.63587
 H2898 H 0.89442 0.73830 0.57467
 C2899 C 0.35980 1.28291 0.62189
 C2900 C 0.35941 1.26473 0.64061
 C2901 C 0.35066 1.26938 0.66507
 C2902 C 0.34226 1.29392 0.67059
 C2903 C 0.34288 1.31326 0.65181
 C2904 C 0.35144 1.30748 0.62695
 O2905 O 0.36999 1.27475 0.60027
 C2906 C 0.37623 1.25095 0.60556
 C2907 C 0.37017 1.24396 0.63003
 C2908 C 0.37625 1.22044 0.64016
 C2909 C 0.38931 1.20343 0.62446
 C2910 C 0.39585 1.21017 0.59918
 C2911 C 0.38892 1.23414 0.58945
 H2912 H 0.35071 1.25477 0.67950
 H2913 H 0.33554 1.29794 0.68962
 H2914 H 0.35248 1.32192 0.61238
 H2915 H 0.37154 1.21554 0.65958
 H2916 H 0.39449 1.18504 0.63197
 H2917 H 0.39404 1.23977 0.57032
 C2918 C 0.37125 0.78324 1.13275
 C2919 C 0.35075 0.76819 1.12674
 C2920 C 0.32566 0.77567 1.13067
 C2921 C 0.32155 0.79968 1.14126
 C2922 C 0.34235 0.81538 1.14788
 C2923 C 0.36756 0.80702 1.14372
 O2924 O 0.39344 0.77299 1.12635
 C2925 C 0.38679 0.75098 1.11612
 C2926 C 0.36089 0.74712 1.11608
 C2927 C 0.34965 0.72561 1.10594
 C2928 C 0.36572 0.70750 1.09495
 C2929 C 0.39251 0.71130 1.09395
 C2930 C 0.40319 0.73321 1.10517
 H2931 H 0.30986 0.76360 1.12549
 H2932 H 0.30225 0.80611 1.14448
 H2933 H 0.38364 0.81893 1.14845
 H2934 H 0.32922 0.72295 1.10626
 H2935 H 0.35723 0.69057 1.08705
 H2936 H 0.42349 0.73673 1.10459
 C2937 C 0.85897 0.71649 0.87203
 C2938 C 0.86272 0.73333 0.85241
 C2939 C 0.85914 0.72696 0.82704
 C2940 C 0.85134 0.70217 0.82165
 C2941 C 0.84708 0.68459 0.84153
 C2942 C 0.85073 0.69184 0.86709
 O2943 O 0.86516 0.72593 0.89459
 C2944 C 0.87295 0.74924 0.88906
 C2945 C 0.87162 0.75469 0.86352
 C2946 C 0.87979 0.77750 0.85325
 C2947 C 0.89036 0.79525 0.86988
 C2948 C 0.89284 0.78984 0.89621
 C2949 C 0.88340 0.76672 0.90605
 H2950 H 0.86265 0.74045 0.81193
 H2951 H 0.84854 0.69652 0.80209
 H2952 H 0.84790 0.67847 0.88243
 H2953 H 0.87862 0.78128 0.83307
 H2954 H 0.89726 0.81301 0.86218
 H2955 H 0.88538 0.76200 0.92597
 C2956 C 0.87387 0.21884 0.35950
 C2957 C 0.87476 0.21131 0.38452
 C2958 C 0.86416 0.18871 0.39303
 C2959 C 0.85168 0.17350 0.37511
 C2960 C 0.85005 0.18104 0.34928
 C2961 C 0.86180 0.20383 0.34130
 O2962 O 0.88361 0.24175 0.35571
 C2963 C 0.89070 0.24885 0.37884
 C2964 C 0.88569 0.23091 0.39714
 C2965 C 0.89009 0.23505 0.42285
 C2966 C 0.89999 0.25869 0.43000
 C2967 C 0.90526 0.27756 0.41151
 C2968 C 0.90076 0.27239 0.38551
 H2969 H 0.86477 0.18335 0.41287
 H2970 H 0.84261 0.15618 0.38141
 H2971 H 0.86019 0.21037 0.32187
 H2972 H 0.88566 0.22077 0.43695
 H2973 H 0.90345 0.26235 0.44994
 H2974 H 0.90407 0.28660 0.37103
 C2975 C 0.38236 0.70926 0.37506
 C2976 C 0.38435 0.70361 0.40050
 C2977 C 0.37770 0.68017 0.41049
 C2978 C 0.36821 0.66193 0.39366
 C2979 C 0.36530 0.66740 0.36736
 C2980 C 0.37296 0.69138 0.35795
 O2981 O 0.38893 0.73294 0.36964
 C2982 C 0.39511 0.74243 0.39215
 C2983 C 0.39254 0.72528 0.41167
 C2984 C 0.39687 0.73155 0.43695
 C2985 C 0.40414 0.75655 0.44233
 C2986 C 0.40707 0.77456 0.42252
 C2987 C 0.40261 0.76729 0.39704
 H2988 H 0.37938 0.67619 0.43059
 H2989 H 0.36271 0.64364 0.40118
 H2990 H 0.37070 0.69634 0.33813
 H2991 H 0.39446 0.71778 0.45201
 H2992 H 0.40762 0.76189 0.46188
 H2993 H 0.40432 0.78076 0.38160
 C2994 C 0.38082 0.20466 0.87962
 C2995 C 0.37952 0.20128 0.90550
 C2996 C 0.37125 0.17884 0.91662
 C2997 C 0.36401 0.15906 0.90040
 C2998 C 0.36504 0.16201 0.87358
 C2999 C 0.37367 0.18522 0.86312
 O3000 O 0.38906 0.22753 0.87301
 C3001 C 0.39304 0.23881 0.89520
 C3002 C 0.38748 0.22354 0.91566
 C3003 C 0.38998 0.23158 0.94066
 C3004 C 0.39842 0.25645 0.94477
 C3005 C 0.40417 0.27273 0.92403
 C3006 C 0.40158 0.26360 0.89885
 H3007 H 0.37044 0.17662 0.93705
 H3008 H 0.35781 0.14133 0.90870
 H3009 H 0.37459 0.18804 0.84276
 H3010 H 0.38551 0.21919 0.95645
 H3011 H 0.40061 0.26299 0.96414
 H3012 H 0.40556 0.27560 0.88263
 C3013 C 1.14557 0.73237 1.14181
 C3014 C 1.13900 0.74832 1.16139
 C3015 C 1.14515 0.74347 1.18659
 C3016 C 1.15870 0.72124 1.19185
 C3017 C 1.16577 0.70445 1.17201
 C3018 C 1.15914 0.71019 1.14661
 O3019 O 1.13751 0.74037 1.11930
 C3020 C 1.12559 0.76185 1.12482
 C3021 C 1.12603 0.76753 1.15032
 C3022 C 1.11459 0.78897 1.16041
 C3023 C 1.10195 0.80515 1.14356
 C3024 C 1.10081 0.79960 1.11716
 C3025 C 1.11311 0.77772 1.10765
 H3026 H 1.13971 0.75633 1.20166
 H3027 H 1.16392 0.71713 1.21130
 H3028 H 1.16424 0.69762 1.13118
 H3029 H 1.11531 0.79307 1.18054
 H3030 H 1.09312 0.82209 1.15107
 H3031 H 1.11250 0.77293 1.08767
 C3032 C 1.12737 0.22049 0.64058
 C3033 C 1.14779 0.23620 0.63606
 C3034 C 1.17291 0.22858 0.63925
 C3035 C 1.17717 0.20370 0.64745
 C3036 C 1.15644 0.18727 0.65246
 C3037 C 1.13119 0.19579 0.64920
 O3038 O 1.10517 0.23096 0.63471
 C3039 C 1.11173 0.25378 0.62632
 C3040 C 1.13759 0.25792 0.62696
 C3041 C 1.14885 0.28000 0.61807
 C3042 C 1.13287 0.29838 0.60753
 C3043 C 1.10620 0.29429 0.60579
 C3044 C 1.09541 0.27190 0.61592
 H3045 H 1.18865 0.24119 0.63515
 H3046 H 1.19650 0.19709 0.64998
 H3047 H 1.11520 0.18330 0.65262
 H3048 H 1.16925 0.28275 0.61870
 H3049 H 1.14131 0.31561 0.60014
 H3050 H 1.07519 0.26816 0.61452
 C3051 C 0.63280 0.71855 0.62970
 C3052 C 0.62582 0.73211 0.65090
 C3053 C 0.62850 0.72279 0.67548
 C3054 C 0.63892 0.69851 0.67832
 C3055 C 0.64661 0.68434 0.65679
 C3056 C 0.64356 0.69451 0.63213
 O3057 O 0.62776 0.73054 0.60808
 C3058 C 0.61744 0.75217 0.61583
 C3059 C 0.61599 0.75408 0.64187
 C3060 C 0.60570 0.77497 0.65413
 C3061 C 0.59607 0.79454 0.63896
 C3062 C 0.59652 0.79279 0.61199
 C3063 C 0.60782 0.77139 0.60032
 H3064 H 0.62264 0.73374 0.69185
 H3065 H 0.64132 0.69074 0.69720
 H3066 H 0.64917 0.68384 0.61548
 H3067 H 0.60497 0.77611 0.67465
 H3068 H 0.58813 0.81102 0.64827
 H3069 H 0.60835 0.76939 0.57985
 C3070 C 0.61418 0.21111 1.13496
 C3071 C 0.63513 0.22668 1.13653
 C3072 C 0.65921 0.21784 1.14290
 C3073 C 0.66191 0.19182 1.14738
 C3074 C 0.64075 0.17527 1.14548
 C3075 C 0.61642 0.18513 1.13968
 O3076 O 0.59351 0.22304 1.12671
 C3077 C 0.60164 0.24659 1.12290
 C3078 C 0.62698 0.24976 1.12864
 C3079 C 0.63996 0.27230 1.12430
 C3080 C 0.62635 0.29235 1.11336
 C3081 C 0.60026 0.28956 1.10709
 C3082 C 0.58760 0.26646 1.11233
 H3083 H 0.67548 0.23039 1.14357
 H3084 H 0.68060 0.18430 1.15159
 H3085 H 0.60019 0.17271 1.13742
 H3086 H 0.66002 0.27418 1.12856
 H3087 H 0.63617 0.30996 1.10941
 H3088 H 0.56785 0.26372 1.10721
 C3089 C 1.29432 1.11934 0.88151
 C3090 C 1.29805 1.09356 0.88159
 C3091 C 1.32048 1.08235 0.87320
 C3092 C 1.34000 1.09838 0.86462
 C3093 C 1.33678 1.12507 0.86461
 C3094 C 1.31350 1.13563 0.87310
 O3095 O 1.27147 1.12607 0.89001
 C3096 C 1.26057 1.10406 0.89562
 C3097 C 1.27609 1.08361 0.89088
 C3098 C 1.26851 1.05878 0.89521
 C3099 C 1.24377 1.05480 0.90441
 C3100 C 1.22708 1.07549 0.90897
 C3101 C 1.23584 1.10054 0.90482
 H3102 H 1.32294 1.06200 0.87341
 H3103 H 1.35782 1.09011 0.85846
 H3104 H 1.31058 1.15592 0.87327
 H3105 H 1.28111 1.04301 0.89144
 H3106 H 1.23752 1.03554 0.90783
 H3107 H 1.22353 1.11670 0.90784
 C3108 C 1.29317 0.62551 0.38067
 C3109 C 1.29695 0.59978 0.37900
 C3110 C 1.31876 0.58920 0.36835
 C3111 C 1.33742 0.60586 0.35905
 C3112 C 1.33404 0.63240 0.36088
 C3113 C 1.31166 0.64236 0.37193
 O3114 O 1.27064 0.63165 0.39030
 C3115 C 1.25997 0.60931 0.39489
 C3116 C 1.27534 0.58922 0.38845
 C3117 C 1.26775 0.56417 0.39120
 C3118 C 1.24317 0.55962 0.40061
 C3119 C 1.22659 0.58001 0.40675
 C3120 C 1.23539 0.60524 0.40414
 H3121 H 1.32115 0.56890 0.36693
 H3122 H 1.35453 0.59826 0.35045
 H3123 H 1.30861 0.66260 0.37308
 H3124 H 1.28021 0.54867 0.38606
 H3125 H 1.23702 0.54019 0.40293
 H3126 H 1.22319 0.62124 0.40825
 C3127 C 0.77744 1.12933 0.35258
 C3128 C 0.75999 1.14844 0.35602
 C3129 C 0.76581 1.17389 0.35231
 C3130 C 0.79064 1.17987 0.34459
 C3131 C 0.80878 1.16049 0.34049
 C3132 C 0.80212 1.13486 0.34439
 O3133 O 0.76849 1.10663 0.35891
 C3134 C 0.74486 1.11153 0.36646
 C3135 C 0.73873 1.13683 0.36482
 C3136 C 0.71544 1.14647 0.37266
 C3137 C 0.69799 1.12948 0.38333
 C3138 C 0.70416 1.10345 0.38628
 C3139 C 0.72769 1.09420 0.37706
 H3140 H 0.75186 1.18860 0.35561
 H3141 H 0.79585 1.19949 0.34159
 H3142 H 0.81593 1.11990 0.34166
 H3143 H 0.71112 1.16646 0.37124
 H3144 H 0.67992 1.13673 0.39010
 H3145 H 0.73301 1.07454 0.37943
 C3146 C 0.78232 0.62113 0.85475
 C3147 C 0.76344 0.63892 0.85184
 C3148 C 0.76807 0.66328 0.84299
 C3149 C 0.79327 0.66969 0.83711
 C3150 C 0.81323 0.65182 0.84016
 C3151 C 0.80755 0.62705 0.84876
 O3152 O 0.77401 0.59963 0.86498
 C3153 C 0.74937 0.60403 0.86864
 C3154 C 0.74200 0.62781 0.86085
 C3155 C 0.71752 0.63711 0.86436
 C3156 C 0.69996 0.62140 0.87675
 C3157 C 0.70711 0.59693 0.88524
 C3158 C 0.73204 0.58790 0.88074
 H3159 H 0.75291 0.67703 0.84117
 H3160 H 0.79728 0.68865 0.83039
 H3161 H 0.82249 0.61323 0.85165
 H3162 H 0.71232 0.65603 0.85840
 H3163 H 0.68090 0.62841 0.88026
 H3164 H 0.73802 0.56950 0.88756
 C3165 C 1.28444 0.88124 1.13700
 C3166 C 1.29163 0.88518 1.11213
 C3167 C 1.31456 0.87646 1.10225
 C3168 C 1.33047 0.86262 1.11848
 C3169 C 1.32327 0.85779 1.14402
 C3170 C 1.30017 0.86777 1.15356
 O3171 O 1.26099 0.88924 1.14197
 C3172 C 1.25318 0.89829 1.11976
 C3173 C 1.27121 0.89622 1.10088
 C3174 C 1.26635 0.90254 1.07570
 C3175 C 1.24184 0.91118 1.06969
 C3176 C 1.22287 0.91340 1.08878
 C3177 C 1.22878 0.90720 1.11426
 H3178 H 1.31958 0.87937 1.08251
 H3179 H 1.34799 0.85477 1.11102
 H3180 H 1.29389 0.86358 1.17271
 H3181 H 1.28070 0.90027 1.06109
 H3182 H 1.23749 0.91584 1.05014
 H3183 H 1.21446 0.90812 1.12906
 C3184 C 1.28401 0.36294 0.61690
 C3185 C 1.29147 0.38778 0.61409
 C3186 C 1.31404 0.39716 0.62414
 C3187 C 1.32931 0.38034 0.63801
 C3188 C 1.32189 0.35475 0.64141
 C3189 C 1.29914 0.34582 0.63028
 O3190 O 1.26093 0.35840 0.60778
 C3191 C 1.25362 0.38085 0.59910
 C3192 C 1.27164 0.39946 0.60246
 C3193 C 1.26725 0.42473 0.59647
 C3194 C 1.24320 0.43114 0.58691
 C3195 C 1.22414 0.41237 0.58363
 C3196 C 1.22965 0.38678 0.58942
 H3197 H 1.31925 0.41689 0.62214
 H3198 H 1.34659 0.38730 0.64673
 H3199 H 1.29271 0.32657 0.63335
 H3200 H 1.28159 0.43910 0.59965
 H3201 H 1.23924 0.45077 0.58247
 H3202 H 1.21529 0.37217 0.58772
 C3203 C 0.78225 0.86112 0.62285
 C3204 C 0.79016 0.88589 0.62064
 C3205 C 0.81303 0.89454 0.63062
 C3206 C 0.82811 0.87708 0.64388
 C3207 C 0.82018 0.85157 0.64682
 C3208 C 0.79716 0.84336 0.63568
 O3209 O 0.75902 0.85727 0.61374
 C3210 C 0.75211 0.88009 0.60569
 C3211 C 0.77048 0.89826 0.60947
 C3212 C 0.76656 0.92375 0.60408
 C3213 C 0.74267 0.93084 0.59456
 C3214 C 0.72332 0.91250 0.59065
 C3215 C 0.72830 0.88669 0.59603
 H3216 H 0.81864 0.91420 0.62904
 H3217 H 0.84559 0.88351 0.65262
 H3218 H 0.79037 0.82419 0.63838
 H3219 H 0.78118 0.93776 0.60758
 H3220 H 0.73914 0.95062 0.59043
 H3221 H 0.71372 0.87237 0.59382
 C3222 C 0.78045 0.37467 1.14033
 C3223 C 0.76264 0.35558 1.14114
 C3224 C 0.76821 0.33122 1.14933
 C3225 C 0.79327 0.32619 1.15675
 C3226 C 0.81221 0.34539 1.15577
 C3227 C 0.80552 0.37011 1.14778
 O3228 O 0.77144 0.39609 1.13064
 C3229 C 0.74746 0.39033 1.12514
 C3230 C 0.74118 0.36575 1.13121
 C3231 C 0.71762 0.35515 1.12575
 C3232 C 0.69983 0.37045 1.11327
 C3233 C 0.70586 0.39580 1.10662
 C3234 C 0.72988 0.40603 1.11300
 H3235 H 0.75388 0.31648 1.14957
 H3236 H 0.79801 0.30724 1.16301
 H3237 H 0.81966 0.38498 1.14646
 H3238 H 0.71328 0.33566 1.13044
 H3239 H 0.68144 0.36253 1.10848
 H3240 H 0.73501 0.42519 1.10773
 C3241 C 0.70377 1.11706 1.12248
 C3242 C 0.70001 1.11905 1.09669
 C3243 C 0.67844 1.13019 1.08623
 C3244 C 0.66004 1.13972 1.10306
 C3245 C 0.66342 1.13766 1.12966
 C3246 C 0.68551 1.12602 1.13952
 O3247 O 0.72619 1.10716 1.12848
 C3248 C 0.73680 1.10275 1.10599
 C3249 C 0.72150 1.10957 1.08595
 C3250 C 0.72913 1.10732 1.06077
 C3251 C 0.75368 1.09802 1.05604
 C3252 C 0.77020 1.09148 1.07637
 C3253 C 0.76135 1.09354 1.10173
 H3254 H 0.67609 1.13190 1.06588
 H3255 H 0.64318 1.14879 1.09553
 H3256 H 0.68860 1.12474 1.15981
 H3257 H 0.71675 1.11283 1.04532
 H3258 H 0.75992 1.09618 1.03651
 H3259 H 0.77354 1.08913 1.11769
 C3260 C 0.71654 0.62777 0.63538
 C3261 C 0.73300 0.64800 0.63448
 C3262 C 0.72628 0.67213 0.64250
 C3263 C 0.70146 0.67567 0.65158
 C3264 C 0.68379 0.65526 0.65233
 C3265 C 0.69169 0.63085 0.64437
 O3266 O 0.72658 0.60661 0.62607
 C3267 C 0.74983 0.61373 0.61908
 C3268 C 0.75463 0.63891 0.62378
 C3269 C 0.77729 0.65071 0.61700
 C3270 C 0.79576 0.63598 0.60471
 C3271 C 0.79132 0.60998 0.59958
 C3272 C 0.76811 0.59861 0.60715
 H3273 H 0.73958 0.68776 0.64152
 H3274 H 0.69594 0.69439 0.65784
 H3275 H 0.67864 0.61498 0.64441
 H3276 H 0.78051 0.67060 0.62072
 H3277 H 0.81354 0.64480 0.59914
 H3278 H 0.76419 0.57887 0.60320
 C3279 C 0.21432 1.12292 0.63454
 C3280 C 0.20714 1.12148 0.60945
 C3281 C 0.18423 1.13120 0.60059
 C3282 C 0.16838 1.14342 0.61820
 C3283 C 0.17562 1.14560 0.64406
 C3284 C 0.19867 1.13468 0.65242
 O3285 O 0.23766 1.11429 0.63866
 C3286 C 0.24541 1.10734 0.61569
 C3287 C 0.22746 1.11134 0.59714
 C3288 C 0.23226 1.10701 0.57150
 C3289 C 0.25658 1.09827 0.56473
 C3290 C 0.27545 1.09410 0.58352
 C3291 C 0.26960 1.09851 0.60941
 H3292 H 0.17918 1.13026 0.58069
 H3293 H 0.15088 1.15202 0.61167
 H3294 H 0.20498 1.13685 0.67186
 H3295 H 0.21797 1.11066 0.55720
 H3296 H 0.26076 1.09484 0.54487
 H3297 H 0.28378 1.09610 0.62411
 C3298 C 0.23050 0.64457 1.14449
 C3299 C 0.24677 0.66371 1.13735
 C3300 C 0.24196 0.68909 1.14245
 C3301 C 0.21950 0.69498 1.15562
 C3302 C 0.20244 0.67558 1.16336
 C3303 C 0.20809 0.65000 1.15762
 O3304 O 0.23849 0.62175 1.13751
 C3305 C 0.26031 0.62661 1.12570
 C3306 C 0.26623 0.65200 1.12515
 C3307 C 0.28804 0.66140 1.11355
 C3308 C 0.30423 0.64396 1.10169
 C3309 C 0.29837 0.61767 1.10154
 C3310 C 0.27624 0.60886 1.11409
 H3311 H 0.25507 0.70381 1.13659
 H3312 H 0.21555 0.71458 1.16017
 H3313 H 0.19536 0.63486 1.16323
 H3314 H 0.29234 0.68145 1.11346
 H3315 H 0.32135 0.65092 1.09254
 H3316 H 0.27124 0.58897 1.11418
 C3317 C 0.72245 0.85441 0.86767
 C3318 C 0.74081 0.85511 0.84901
 C3319 C 0.73639 0.84719 0.82426
 C3320 C 0.71192 0.83850 0.81838
 C3321 C 0.69240 0.83796 0.83711
 C3322 C 0.69796 0.84567 0.86225
 O3323 O 0.73029 0.86405 0.88960
 C3324 C 0.75407 0.87107 0.88461
 C3325 C 0.76138 0.86601 0.86001
 C3326 C 0.78492 0.87303 0.85019
 C3327 C 0.80157 0.88602 0.86635
 C3328 C 0.79447 0.89162 0.89176
 C3329 C 0.77051 0.88369 0.90114
 H3330 H 0.75111 0.84814 0.80987
 H3331 H 0.70803 0.83251 0.79911
 H3332 H 0.68336 0.84589 0.87680
 H3333 H 0.79010 0.86910 0.83067
 H3334 H 0.81995 0.89190 0.85906
 H3335 H 0.76455 0.88808 0.92035
 C3336 C 0.70901 0.38436 0.37154
 C3337 C 0.70493 0.38377 0.39737
 C3338 C 0.68354 0.37264 0.40833
 C3339 C 0.66557 0.36172 0.39197
 C3340 C 0.66917 0.36243 0.36532
 C3341 C 0.69113 0.37401 0.35493
 O3342 O 0.73125 0.39456 0.36516
 C3343 C 0.74142 0.40059 0.38744
 C3344 C 0.72597 0.39452 0.40770
 C3345 C 0.73309 0.39847 0.43277
 C3346 C 0.75735 0.40857 0.43720
 C3347 C 0.77412 0.41421 0.41672
 C3348 C 0.76572 0.41063 0.39141
 H3349 H 0.68096 0.37206 0.42872
 H3350 H 0.64878 0.35279 0.39990
 H3351 H 0.69433 0.37437 0.33461
 H3352 H 0.72060 0.39355 0.44839
 H3353 H 0.76327 0.41157 0.45666
 H3354 H 0.77814 0.41436 0.37539
 C3355 C 0.20636 0.86940 0.38327
 C3356 C 0.22214 0.86900 0.36237
 C3357 C 0.21357 0.86333 0.33806
 C3358 C 0.18758 0.85815 0.33511
 C3359 C 0.17086 0.85862 0.35628
 C3360 C 0.18046 0.86393 0.38078
 O3361 O 0.21805 0.87699 0.40430
 C3362 C 0.24169 0.88153 0.39647
 C3363 C 0.24514 0.87687 0.37097
 C3364 C 0.26790 0.88174 0.35839
 C3365 C 0.28786 0.89214 0.37258
 C3366 C 0.28475 0.89752 0.39883
 C3367 C 0.26143 0.89169 0.41104
 H3368 H 0.22629 0.86355 0.32186
 H3369 H 0.18025 0.85423 0.31631
 H3370 H 0.16787 0.86497 0.39706
 H3371 H 0.27004 0.87817 0.33825
 H3372 H 0.30567 0.89634 0.36307
 H3373 H 0.25841 0.89601 0.43092
 C3374 C 0.21543 0.37922 0.86228
 C3375 C 0.20759 0.38165 0.88713
 C3376 C 0.18453 0.37207 0.89592
 C3377 C 0.16920 0.35900 0.87852
 C3378 C 0.17705 0.35588 0.85292
 C3379 C 0.20028 0.36661 0.84458
 O3380 O 0.23881 0.38793 0.85828
 C3381 C 0.24589 0.39596 0.88109
 C3382 C 0.22748 0.39257 0.89941
 C3383 C 0.23152 0.39809 0.92491
 C3384 C 0.25556 0.40735 0.93185
 C3385 C 0.27497 0.41085 0.91336
 C3386 C 0.26986 0.40532 0.88755
 H3387 H 0.17897 0.37380 0.91566
 H3388 H 0.15158 0.35055 0.88506
 H3389 H 0.20703 0.36373 0.82535
 H3390 H 0.21685 0.39491 0.93904
 H3391 H 0.25914 0.41163 0.95164
 H3392 H 0.28445 0.40722 0.87310
   
