data_POSCAR
  _audit_creation_date              2014-09-24
  _audit_creation_method            'ToBaCCo'
  _symmetry_space_group_name_H-M    'P1'
  _symmetry_Int_Tables_number       1
  _symmetry_cell_setting            triclinic
  loop_
  _symmetry_equiv_pos_as_xyz
 x,y,z
_cell_length_a 74.6556
_cell_length_b 74.5539
_cell_length_c 77.6033
_cell_angle_alpha 90.008200
_cell_angle_beta 89.856300
_cell_angle_gamma 89.718100
loop_
  _atom_site_label
  _atom_site_type_symbol
  _atom_site_fract_x
  _atom_site_fract_y
  _atom_site_fract_z
C1 C 0.41298 0.01139 0.27286
 H2 H 0.41362 0.02241 0.26381
 C3 C 0.42402 0.01134 0.28744
 H4 H 0.43310 0.02241 0.28948
 C5 C 0.40027 -0.01631 0.28121
 H6 H 0.39088 -0.02700 0.27898
 C7 C 0.41105 -0.01693 0.29586
 H8 H 0.40977 -0.02820 0.30457
 N9 N 0.40161 -0.00247 0.26986
 C10 C 0.39377 -0.00685 0.21421
 H11 H 0.37940 -0.00865 0.21398
 C12 C 0.40341 -0.00641 0.19878
 H13 H 0.39627 -0.00802 0.18676
 C14 C 0.42028 -0.00216 0.23024
 H15 H 0.42683 -0.00047 0.24251
 C16 C 0.43046 -0.00159 0.21508
 H17 H 0.44476 0.00057 0.21593
 Zn18 Zn 0.38734 -0.00273 0.24947
 N19 N 0.40219 -0.00429 0.22952
 C20 C 0.37600 0.03006 0.23448
 N21 N 0.37360 0.01902 0.24827
 C22 C 0.36204 0.02359 0.26116
 C23 C 0.35201 0.03952 0.26020
 C24 C 0.36629 0.04603 0.23301
 C25 C 0.38064 -0.03962 0.24822
 C26 C 0.37095 -0.05554 0.24962
 C27 C 0.34400 -0.03795 0.25353
 C28 C 0.35428 -0.02235 0.25205
 N29 N 0.37233 -0.02344 0.24982
 H30 H 0.38556 0.02662 0.22456
 H31 H 0.36058 0.01484 0.27218
 H32 H 0.34281 0.04282 0.27055
 H33 H 0.36848 0.05445 0.22185
 H34 H 0.39500 -0.04015 0.24628
 H35 H 0.37819 -0.06812 0.24858
 H36 H 0.32971 -0.03653 0.25560
 H37 H 0.34781 -0.00940 0.25300
 C38 C 0.42198 -0.00340 0.19903
 C39 C 0.42326 -0.00308 0.29911
 C40 C 0.35228 -0.05501 0.25260
 C41 C 0.35401 0.05097 0.24591
 C42 C 0.08535 0.01091 0.72601
 H43 H 0.08453 0.02210 0.73486
 C44 C 0.07433 0.01051 0.71143
 H45 H 0.06511 0.02150 0.70916
 C46 C 0.09843 -0.01692 0.71823
 H47 H 0.10794 -0.02754 0.72069
 C48 C 0.08768 -0.01790 0.70358
 H49 H 0.08913 -0.02935 0.69510
 N50 N 0.09686 -0.00287 0.72933
 C51 C 0.10378 -0.00645 0.78513
 H52 H 0.11813 -0.00844 0.78563
 C53 C 0.09389 -0.00541 0.80039
 H54 H 0.10083 -0.00678 0.81256
 C55 C 0.07757 -0.00172 0.76858
 H56 H 0.07123 -0.00022 0.75619
 C57 C 0.06715 -0.00053 0.78356
 H58 H 0.05290 0.00189 0.78244
 Zn59 Zn 0.11080 -0.00285 0.74992
 N60 N 0.09563 -0.00410 0.76964
 C61 C 0.12172 0.03001 0.76481
 N62 N 0.12434 0.01887 0.75112
 C63 C 0.13620 0.02319 0.73844
 C64 C 0.14646 0.03885 0.73963
 C65 C 0.13162 0.04574 0.76650
 C66 C 0.11804 -0.03977 0.75150
 C67 C 0.12810 -0.05558 0.75024
 C68 C 0.15475 -0.03772 0.74689
 C69 C 0.14416 -0.02223 0.74821
 N70 N 0.12608 -0.02350 0.75006
 H71 H 0.11190 0.02680 0.77454
 H72 H 0.13784 0.01437 0.72748
 H73 H 0.15597 0.04190 0.72951
 H74 H 0.12932 0.05420 0.77763
 H75 H 0.10366 -0.04045 0.75313
 H76 H 0.12128 -0.06834 0.75104
 H77 H 0.16906 -0.03637 0.74508
 H78 H 0.15042 -0.00923 0.74743
 C79 C 0.07537 -0.00200 0.79977
 C80 C 0.07526 -0.00418 0.70008
 C81 C 0.14671 -0.05472 0.74762
 C82 C 0.14434 0.05031 0.75392
 C83 C 0.58559 0.51033 0.22634
 H84 H 0.58475 0.52149 0.23522
 C85 C 0.57458 0.50995 0.21175
 H86 H 0.56535 0.52094 0.20950
 C87 C 0.59869 0.48251 0.21851
 H88 H 0.60821 0.47190 0.22096
 C89 C 0.58796 0.48157 0.20385
 H90 H 0.58942 0.47014 0.19535
 N91 N 0.59710 0.49654 0.22964
 C92 C 0.60397 0.49277 0.28542
 H93 H 0.61832 0.49077 0.28593
 C94 C 0.59407 0.49375 0.30068
 H95 H 0.60099 0.49233 0.31285
 C96 C 0.57778 0.49759 0.26887
 H97 H 0.57144 0.49914 0.25648
 C98 C 0.56735 0.49871 0.28384
 H99 H 0.55309 0.50115 0.28272
 Zn100 Zn 0.61102 0.49652 0.25024
 N101 N 0.59583 0.49519 0.26994
 C102 C 0.62188 0.52934 0.26523
 N103 N 0.62453 0.51825 0.25150
 C104 C 0.63637 0.52264 0.23883
 C105 C 0.64657 0.53834 0.24005
 C106 C 0.63173 0.54510 0.26695
 C107 C 0.61830 0.45962 0.25176
 C108 C 0.62838 0.44382 0.25048
 C109 C 0.65502 0.46172 0.24716
 C110 C 0.64441 0.47720 0.24850
 N111 N 0.62632 0.47590 0.25034
 H112 H 0.61208 0.52607 0.27496
 H113 H 0.63802 0.51386 0.22784
 H114 H 0.65606 0.54144 0.22993
 H115 H 0.62941 0.55353 0.27810
 H116 H 0.60392 0.45892 0.25339
 H117 H 0.62158 0.43105 0.25126
 H118 H 0.66933 0.46309 0.24535
 H119 H 0.65065 0.49020 0.24773
 C120 C 0.57555 0.49717 0.30006
 C121 C 0.57554 0.49529 0.20037
 C122 C 0.64699 0.44471 0.24787
 C123 C 0.64442 0.54975 0.25436
 C124 C 0.91404 0.51156 0.77338
 H125 H 0.91474 0.52254 0.76429
 C126 C 0.92500 0.51156 0.78801
 H127 H 0.93404 0.52268 0.78998
 C128 C 0.90124 0.48393 0.78175
 H129 H 0.89184 0.47325 0.77950
 C130 C 0.91192 0.48334 0.79647
 H131 H 0.91048 0.47206 0.80514
 N132 N 0.90266 0.49771 0.77036
 C133 C 0.89482 0.49323 0.71470
 H134 H 0.88045 0.49136 0.71451
 C135 C 0.90441 0.49366 0.69925
 H136 H 0.89725 0.49197 0.68725
 C137 C 0.92134 0.49811 0.73066
 H138 H 0.92791 0.49988 0.74291
 C139 C 0.93148 0.49868 0.71547
 H140 H 0.94577 0.50092 0.71627
 Zn141 Zn 0.88842 0.49745 0.74995
 N142 N 0.90326 0.49588 0.72998
 C143 C 0.87703 0.53020 0.73491
 N144 N 0.87468 0.51920 0.74873
 C145 C 0.86315 0.52379 0.76163
 C146 C 0.85310 0.53971 0.76066
 C147 C 0.86731 0.54616 0.73343
 C148 C 0.88166 0.46054 0.74873
 C149 C 0.87188 0.44466 0.75006
 C150 C 0.84498 0.46233 0.75382
 C151 C 0.85530 0.47791 0.75242
 N152 N 0.87338 0.47676 0.75028
 H153 H 0.88656 0.52674 0.72497
 H154 H 0.86172 0.51506 0.77268
 H155 H 0.84393 0.54302 0.77103
 H156 H 0.86945 0.55456 0.72223
 H157 H 0.89602 0.45995 0.74689
 H158 H 0.87889 0.43195 0.74911
 H159 H 0.83067 0.46358 0.75582
 H160 H 0.84886 0.49087 0.75333
 C161 C 0.92297 0.49677 0.69945
 C162 C 0.92417 0.49721 0.79981
 C163 C 0.85328 0.44538 0.75288
 C164 C 0.85506 0.55113 0.74635
 C165 C 0.22597 0.38484 0.98457
 H166 H 0.23611 0.38466 0.97458
 C167 C 0.21043 0.39515 0.98241
 H168 H 0.20885 0.40296 0.97075
 C169 C 0.21566 0.37443 1.01163
 H170 H 0.21755 0.36606 1.02285
 C171 C 0.19990 0.38453 1.01000
 H172 H 0.18997 0.38393 1.02017
 N173 N 0.22834 0.37478 0.99902
 C174 C 0.28614 0.36476 1.00240
 H175 H 0.28612 0.35026 1.00286
 C176 C 0.30223 0.37406 1.00421
 H177 H 0.31454 0.36653 1.00587
 C178 C 0.26992 0.39204 1.00024
 H179 H 0.25726 0.39901 0.99908
 C180 C 0.28573 0.40190 1.00201
 H181 H 0.28501 0.41640 1.00194
 Zn182 Zn 0.24909 0.35986 1.00014
 N183 N 0.27040 0.37379 1.00044
 C184 C 0.26196 0.34429 0.96880
 N185 N 0.24844 0.34457 0.98058
 C186 C 0.23343 0.33459 0.97829
 C187 C 0.23156 0.32377 0.96370
 C188 C 0.26068 0.33361 0.95405
 C189 C 0.25092 0.35526 1.03577
 C190 C 0.25293 0.34609 1.05134
 C191 C 0.25160 0.31810 1.03573
 C192 C 0.24962 0.32784 1.02042
 N193 N 0.24934 0.34609 1.02072
 H194 H 0.27363 0.35257 0.97066
 H195 H 0.22277 0.33523 0.98774
 H196 H 0.21942 0.31607 0.96211
 H197 H 0.27154 0.33374 0.94477
 H198 H 0.25098 0.36977 1.03561
 H199 H 0.25433 0.35374 1.06311
 H200 H 0.25199 0.30359 1.03519
 H201 H 0.24877 0.32077 1.00830
 C202 C 0.30219 0.39292 1.00415
 C203 C 0.19706 0.39503 0.99519
 C204 C 0.25346 0.32723 1.05147
 C205 C 0.24526 0.32324 0.95126
 C206 C 0.77010 0.11468 0.98447
 H207 H 0.76012 0.11427 0.97438
 C208 C 0.78625 0.10528 0.98246
 H209 H 0.78835 0.09754 0.97082
 C210 C 0.77945 0.12585 1.01152
 H211 H 0.77698 0.13422 1.02264
 C212 C 0.79577 0.11668 1.01007
 H213 H 0.80544 0.11802 1.02036
 N214 N 0.76701 0.12474 0.99880
 C215 C 0.70893 0.13364 1.00179
 H216 H 0.70881 0.14814 1.00243
 C217 C 0.69290 0.12418 1.00329
 H218 H 0.68051 0.13159 1.00493
 C219 C 0.72543 0.10655 0.99933
 H220 H 0.73817 0.09972 0.99813
 C221 C 0.70967 0.09652 1.00079
 H222 H 0.71050 0.08203 1.00048
 Zn223 Zn 0.74584 0.13910 0.99968
 N224 N 0.72478 0.12479 0.99981
 C225 C 0.73305 0.15419 0.96821
 N226 N 0.74643 0.15434 0.98007
 C227 C 0.76131 0.16452 0.97770
 C228 C 0.76318 0.17508 0.96292
 C229 C 0.73434 0.16460 0.95328
 C230 C 0.74331 0.14350 1.03523
 C231 C 0.74167 0.15250 1.05093
 C232 C 0.74381 0.18065 1.03568
 C233 C 0.74537 0.17107 1.02021
 N234 N 0.74518 0.15282 1.02029
 H235 H 0.72151 0.14574 0.97011
 H236 H 0.77188 0.16420 0.98721
 H237 H 0.77523 0.18291 0.96125
 H238 H 0.72361 0.16408 0.94393
 H239 H 0.74292 0.12900 1.03490
 H240 H 0.74017 0.14473 1.06262
 H241 H 0.74395 0.19516 1.03534
 H242 H 0.74648 0.17826 1.00818
 C243 C 0.69309 0.10533 1.00290
 C244 C 0.79953 0.10631 0.99529
 C245 C 0.74186 0.17135 1.05132
 C246 C 0.74964 0.17512 0.95038
 C247 C 0.27000 0.61509 0.48432
 H248 H 0.26006 0.61473 0.47421
 C249 C 0.28611 0.60559 0.48239
 H250 H 0.28831 0.59781 0.47080
 C251 C 0.27934 0.62624 0.51141
 H252 H 0.27688 0.63464 0.52251
 C253 C 0.29560 0.61696 0.51001
 H254 H 0.30532 0.61819 0.52026
 N255 N 0.26692 0.62518 0.49865
 C256 C 0.20885 0.63419 0.50148
 H257 H 0.20873 0.64868 0.50211
 C258 C 0.19281 0.62473 0.50295
 H259 H 0.18042 0.63215 0.50456
 C260 C 0.22534 0.60708 0.49909
 H261 H 0.23808 0.60025 0.49794
 C262 C 0.20957 0.59707 0.50053
 H263 H 0.21041 0.58257 0.50024
 Zn264 Zn 0.24579 0.63960 0.49947
 N265 N 0.22470 0.62532 0.49955
 C266 C 0.23312 0.65470 0.46796
 N267 N 0.24647 0.65483 0.47986
 C268 C 0.26137 0.66499 0.47753
 C269 C 0.26331 0.67553 0.46275
 C270 C 0.23448 0.66510 0.45302
 C271 C 0.24318 0.64400 0.53502
 C272 C 0.24152 0.65301 0.55071
 C273 C 0.24374 0.68115 0.53547
 C274 C 0.24532 0.67157 0.52001
 N275 N 0.24510 0.65332 0.52008
 H276 H 0.22156 0.64627 0.46983
 H277 H 0.27191 0.66465 0.48707
 H278 H 0.27538 0.68335 0.46111
 H279 H 0.22378 0.66460 0.44365
 H280 H 0.24278 0.62950 0.53469
 H281 H 0.23998 0.64523 0.56240
 H282 H 0.24390 0.69566 0.53514
 H283 H 0.24647 0.67876 0.50798
 C284 C 0.19299 0.60588 0.50259
 C285 C 0.29927 0.60657 0.49528
 C286 C 0.24174 0.67185 0.55111
 C287 C 0.24981 0.67560 0.45017
 C288 C 0.72549 0.88461 0.48481
 H289 H 0.73561 0.88442 0.47481
 C290 C 0.70995 0.89493 0.48267
 H291 H 0.70835 0.90273 0.47100
 C292 C 0.71521 0.87424 0.51190
 H293 H 0.71712 0.86588 0.52313
 C294 C 0.69946 0.88435 0.51029
 H295 H 0.68955 0.88378 0.52047
 N296 N 0.72787 0.87457 0.49927
 C297 C 0.78568 0.86462 0.50267
 H298 H 0.78568 0.85012 0.50315
 C299 C 0.80177 0.87394 0.50446
 H300 H 0.81408 0.86642 0.50613
 C301 C 0.76945 0.89188 0.50045
 H302 H 0.75678 0.89884 0.49927
 C303 C 0.78525 0.90176 0.50219
 H304 H 0.78452 0.91626 0.50209
 Zn305 Zn 0.74865 0.85967 0.50039
 N306 N 0.76994 0.87364 0.50069
 C307 C 0.76156 0.84417 0.46904
 N308 N 0.74803 0.84438 0.48082
 C309 C 0.73306 0.83435 0.47851
 C310 C 0.73125 0.82352 0.46391
 C311 C 0.76033 0.83349 0.45428
 C312 C 0.75050 0.85507 0.53602
 C313 C 0.75257 0.84591 0.55158
 C314 C 0.75132 0.81791 0.53598
 C315 C 0.74928 0.82764 0.52067
 N316 N 0.74893 0.84590 0.52097
 H317 H 0.77319 0.85249 0.47090
 H318 H 0.72239 0.83494 0.48796
 H319 H 0.71914 0.81578 0.46231
 H320 H 0.77119 0.83368 0.44501
 H321 H 0.75051 0.86958 0.53586
 H322 H 0.75396 0.85357 0.56335
 H323 H 0.75177 0.80341 0.53543
 H324 H 0.74844 0.82058 0.50855
 C325 C 0.80172 0.89280 0.50434
 C326 C 0.69660 0.89484 0.49547
 C327 C 0.75318 0.82705 0.55171
 C328 C 0.74495 0.82306 0.45148
 C329 C 0.01017 0.27390 0.39752
 H330 H 0.02296 0.26706 0.39825
 C331 C 0.00669 0.28858 0.40807
 H332 H 0.01697 0.29298 0.41691
 C333 C -0.01848 0.27659 0.38459
 H334 H -0.02810 0.27200 0.37522
 C335 C -0.02249 0.29147 0.39483
 H336 H -0.03530 0.29815 0.39332
 N337 N -0.00238 0.26816 0.38619
 C338 C 0.01319 0.21323 0.37701
 H339 H 0.01449 0.21356 0.36313
 C340 C 0.01610 0.19730 0.38592
 H341 H 0.01967 0.18540 0.37866
 C342 C 0.00654 0.22855 0.40305
 H343 H 0.00244 0.24068 0.40959
 C344 C 0.00927 0.21290 0.41251
 H345 H 0.00738 0.21334 0.42635
 Zn346 Zn 0.00423 0.24880 0.37221
 N347 N 0.00862 0.22841 0.38566
 C348 C 0.04074 0.24701 0.36472
 N349 N 0.02518 0.25540 0.36050
 C350 C 0.02480 0.26924 0.34910
 C351 C 0.04051 0.27463 0.34082
 C352 C 0.05672 0.25209 0.35699
 C353 C -0.02932 0.23638 0.36489
 C354 C -0.04399 0.23133 0.35506
 C355 C -0.02736 0.23907 0.32934
 C356 C -0.01289 0.24382 0.33971
 N357 N -0.01432 0.24275 0.35714
 H358 H 0.04089 0.23655 0.37434
 H359 H 0.01230 0.27608 0.34645
 H360 H 0.04002 0.28552 0.33160
 H361 H 0.06893 0.24509 0.36048
 H362 H -0.02987 0.23537 0.37878
 H363 H -0.05593 0.22664 0.36156
 H364 H -0.02619 0.24033 0.31548
 H365 H -0.00062 0.24837 0.33381
 C366 C 0.01400 0.19691 0.40394
 C367 C -0.00976 0.29765 0.40670
 C368 C -0.04322 0.23290 0.33705
 C369 C 0.05671 0.26596 0.34478
 C370 C 0.00680 0.72942 0.10507
 H371 H 0.01905 0.73710 0.10462
 C372 C 0.00520 0.71390 0.09528
 H373 H 0.01637 0.70972 0.08727
 C374 C -0.02241 0.72549 0.11652
 H375 H -0.03300 0.72995 0.12504
 C376 C -0.02457 0.70981 0.10697
 H377 H -0.03694 0.70237 0.10816
 N378 N -0.00694 0.73494 0.11530
 C379 C 0.00235 0.79150 0.12215
 H380 H 0.00232 0.79212 0.13608
 C381 C 0.00485 0.80701 0.11252
 H382 H 0.00670 0.81962 0.11919
 C383 C -0.00026 0.77413 0.09667
 H384 H -0.00252 0.76132 0.09058
 C385 C 0.00213 0.78934 0.08651
 H386 H 0.00184 0.78804 0.07262
 Zn387 Zn -0.00289 0.75552 0.12844
 N388 N 0.00015 0.77547 0.11413
 C389 C 0.03263 0.76167 0.13814
 N390 N 0.01800 0.75139 0.14120
 C391 C 0.01862 0.73723 0.15224
 C392 C 0.03442 0.73318 0.16102
 C393 C 0.04865 0.75807 0.14655
 C394 C -0.03778 0.76543 0.13442
 C395 C -0.05321 0.76939 0.14375
 C396 C -0.03676 0.76369 0.17005
 C397 C -0.02159 0.75997 0.16012
 N398 N -0.02253 0.76052 0.14266
 H399 H 0.03209 0.77244 0.12887
 H400 H 0.00688 0.72899 0.15404
 H401 H 0.03471 0.72186 0.16975
 H402 H 0.06013 0.76645 0.14385
 H403 H -0.03795 0.76609 0.12049
 H404 H -0.06519 0.77299 0.13667
 H405 H -0.03568 0.76281 0.18394
 H406 H -0.00914 0.75656 0.16639
 C407 C 0.00482 0.80603 0.09446
 C408 C -0.01061 0.70383 0.09622
 C409 C -0.05304 0.76823 0.16189
 C410 C 0.04971 0.74366 0.15813
 C411 C 0.50656 0.22848 0.60383
 H412 H 0.51896 0.23589 0.60316
 C413 C 0.50429 0.21325 0.59376
 H414 H 0.51509 0.20902 0.58534
 C415 C 0.47765 0.22493 0.61610
 H416 H 0.46746 0.22943 0.62504
 C417 C 0.47483 0.20951 0.60631
 H418 H 0.46235 0.20231 0.60771
 N419 N 0.49330 0.23405 0.61460
 C420 C 0.50484 0.29011 0.62194
 H421 H 0.50549 0.29049 0.63587
 C422 C 0.50750 0.30567 0.61243
 H423 H 0.51014 0.31809 0.61918
 C424 C 0.50034 0.27330 0.59637
 H425 H 0.49727 0.26071 0.59022
 C426 C 0.50285 0.28858 0.58633
 H427 H 0.50182 0.28752 0.57245
 Zn428 Zn 0.49837 0.25426 0.62794
 N429 N 0.50161 0.27433 0.61381
 C430 C 0.53447 0.25884 0.63634
 N431 N 0.51952 0.24925 0.64001
 C432 C 0.51994 0.23520 0.65117
 C433 C 0.53583 0.23065 0.65958
 C434 C 0.55061 0.25470 0.64430
 C435 C 0.46393 0.26500 0.63498
 C436 C 0.44894 0.26941 0.64479
 C437 C 0.46606 0.26324 0.67057
 C438 C 0.48081 0.25908 0.66022
 N439 N 0.47932 0.25968 0.64277
 H440 H 0.53406 0.26949 0.62694
 H441 H 0.50793 0.22748 0.65344
 H442 H 0.53594 0.21949 0.66850
 H443 H 0.56232 0.26257 0.64117
 H444 H 0.46332 0.26564 0.62107
 H445 H 0.43671 0.27326 0.63827
 H446 H 0.46732 0.26236 0.68444
 H447 H 0.49335 0.25533 0.66613
 C448 C 0.50655 0.30501 0.59438
 C449 C 0.48830 0.20350 0.59500
 C450 C 0.44982 0.26831 0.66283
 C451 C 0.55142 0.24047 0.65611
 C452 C 0.51030 0.77446 0.89632
 H453 H 0.52311 0.76765 0.89702
 C454 C 0.50684 0.78916 0.90684
 H455 H 0.51715 0.79361 0.91564
 C456 C 0.48157 0.77704 0.88353
 H457 H 0.47190 0.77238 0.87423
 C458 C 0.47758 0.79193 0.89375
 H459 H 0.46473 0.79856 0.89230
 N460 N 0.49770 0.76865 0.88508
 C461 C 0.51321 0.71362 0.87641
 H462 H 0.51448 0.71376 0.86252
 C463 C 0.51621 0.69782 0.88551
 H464 H 0.51977 0.68577 0.87848
 C465 C 0.50658 0.72925 0.90229
 H466 H 0.50245 0.74144 0.90870
 C467 C 0.50940 0.71374 0.91192
 H468 H 0.50756 0.71422 0.92576
 Zn469 Zn 0.50427 0.74916 0.87125
 N470 N 0.50864 0.72890 0.88489
 C471 C 0.54078 0.74727 0.86384
 N472 N 0.52523 0.75563 0.85949
 C473 C 0.52491 0.76939 0.84799
 C474 C 0.54067 0.77474 0.83978
 C475 C 0.55680 0.75233 0.85618
 C476 C 0.47072 0.73668 0.86407
 C477 C 0.45601 0.73160 0.85431
 C478 C 0.47255 0.73922 0.82850
 C479 C 0.48706 0.74400 0.83881
 N480 N 0.48569 0.74301 0.85625
 H481 H 0.54089 0.73689 0.87352
 H482 H 0.51242 0.77621 0.84525
 H483 H 0.54022 0.78558 0.83050
 H484 H 0.56899 0.74537 0.85978
 H485 H 0.47021 0.73574 0.87797
 H486 H 0.44409 0.72695 0.86088
 H487 H 0.47367 0.74043 0.81464
 H488 H 0.49931 0.74853 0.83286
 C489 C 0.51421 0.69774 0.90350
 C490 C 0.49034 0.79817 0.90556
 C491 C 0.45671 0.73310 0.83630
 C492 C 0.55686 0.76613 0.84390
 C493 C -0.23834 0.66402 0.97771
 H494 H -0.22738 0.66473 0.98678
 C495 C -0.23842 0.67513 0.96314
 H496 H -0.22743 0.68431 0.96111
 C497 C -0.26588 0.65111 0.96931
 H498 H -0.27648 0.64161 0.97153
 C499 C -0.26652 0.66195 0.95467
 H500 H -0.27772 0.66060 0.94594
 N501 N -0.25211 0.65252 0.98069
 C502 C -0.25660 0.64461 1.03633
 H503 H -0.25829 0.63021 1.03659
 C504 C -0.25624 0.65426 1.05175
 H505 H -0.25783 0.64699 1.06373
 C506 C -0.25213 0.67119 1.02024
 H507 H -0.25051 0.67776 1.00795
 C508 C -0.25164 0.68140 1.03537
 H509 H -0.24962 0.69573 1.03437
 Zn510 Zn -0.25236 0.63821 1.00109
 N511 N -0.25409 0.65307 1.02101
 C512 C -0.21960 0.62706 1.01613
 N513 N -0.23055 0.62461 1.00234
 C514 C -0.22588 0.61307 0.98947
 C515 C -0.20994 0.60309 0.99048
 C516 C -0.20361 0.61741 1.01765
 C517 C -0.28917 0.63125 1.00226
 C518 C -0.30497 0.62139 1.00082
 C519 C -0.28718 0.59456 0.99701
 C520 C -0.27168 0.60496 0.99853
 N521 N -0.27292 0.62304 1.00073
 H522 H -0.22311 0.63662 1.02603
 H523 H -0.23457 0.61157 0.97844
 H524 H -0.20657 0.59390 0.98015
 H525 H -0.19525 0.61962 1.02882
 H526 H -0.28983 0.64561 1.00415
 H527 H -0.31770 0.62835 1.00174
 H528 H -0.28585 0.58025 0.99495
 H529 H -0.25870 0.59857 0.99763
 C530 C -0.25333 0.67292 1.05151
 C531 C -0.25277 0.67429 0.95145
 C532 C -0.30415 0.60280 0.99790
 C533 C -0.19858 0.60513 1.00478
 C534 C -0.23939 0.33512 0.52426
 H535 H -0.22815 0.33429 0.51546
 C536 C -0.23986 0.32463 0.53830
 H537 H -0.22889 0.31540 0.54065
 C538 C -0.26722 0.34909 0.53137
 H539 H -0.27781 0.35861 0.52886
 C540 C -0.26834 0.33784 0.54695
 H541 H -0.27989 0.33954 0.55527
 N542 N -0.25385 0.34740 0.52068
 C543 C -0.25733 0.35416 0.46482
 H544 H -0.25936 0.36852 0.46426
 C545 C -0.25629 0.34422 0.44960
 H546 H -0.25771 0.35112 0.43741
 C547 C -0.25248 0.32798 0.48148
 H548 H -0.25093 0.32168 0.49391
 C549 C -0.25130 0.31751 0.46655
 H550 H -0.24883 0.30324 0.46773
 Zn551 Zn -0.25370 0.36130 0.49999
 N552 N -0.25494 0.34605 0.48034
 C553 C -0.22082 0.37207 0.48503
 N554 N -0.23193 0.37476 0.49873
 C555 C -0.22754 0.38659 0.51139
 C556 C -0.21180 0.39671 0.51019
 C557 C -0.20501 0.38185 0.48333
 C558 C -0.29054 0.36871 0.49825
 C559 C -0.30631 0.37881 0.49946
 C560 C -0.28841 0.40545 0.50288
 C561 C -0.27296 0.39479 0.50161
 N562 N -0.27427 0.37670 0.49975
 H563 H -0.22409 0.36230 0.47530
 H564 H -0.23636 0.38828 0.52236
 H565 H -0.20869 0.40618 0.52031
 H566 H -0.19655 0.37948 0.47220
 H567 H -0.29125 0.35431 0.49661
 H568 H -0.31901 0.37192 0.49859
 H569 H -0.28691 0.41976 0.50470
 H570 H -0.25997 0.40101 0.50245
 C571 C -0.25283 0.32567 0.45030
 C572 C -0.25533 0.32578 0.55043
 C573 C -0.30548 0.39748 0.50212
 C574 C -0.20033 0.39450 0.49591
 C575 C 0.26008 -0.16425 0.02416
 H576 H 0.27134 -0.16518 0.01540
 C577 C 0.25952 -0.17465 0.03827
 H578 H 0.27044 -0.18392 0.04071
 C579 C 0.23230 -0.15010 0.03113
 H580 H 0.22177 -0.14054 0.02854
 C581 C 0.23108 -0.16125 0.04676
 H582 H 0.21951 -0.15943 0.05504
 N583 N 0.24570 -0.15192 0.02047
 C584 C 0.24233 -0.14535 -0.03541
 H585 H 0.24027 -0.13099 -0.03599
 C586 C 0.24337 -0.15531 -0.05061
 H587 H 0.24194 -0.14842 -0.06282
 C588 C 0.24722 -0.17149 -0.01871
 H589 H 0.24880 -0.17776 -0.00628
 C590 C 0.24842 -0.18198 -0.03363
 H591 H 0.25092 -0.19624 -0.03243
 Zn592 Zn 0.24594 -0.13811 -0.00027
 N593 N 0.24473 -0.15343 -0.01988
 C594 C 0.27886 -0.12745 -0.01522
 N595 N 0.26773 -0.12469 -0.00154
 C596 C 0.27212 -0.11282 0.01108
 C597 C 0.28788 -0.10272 0.00986
 C598 C 0.29467 -0.11770 -0.01694
 C599 C 0.20913 -0.13066 -0.00216
 C600 C 0.19336 -0.12055 -0.00099
 C601 C 0.21126 -0.09392 0.00248
 C602 C 0.22671 -0.10459 0.00125
 N603 N 0.22539 -0.12268 -0.00062
 H604 H 0.27558 -0.13726 -0.02491
 H605 H 0.26330 -0.11107 0.02204
 H606 H 0.29099 -0.09321 0.01994
 H607 H 0.30313 -0.12011 -0.02806
 H608 H 0.20842 -0.14505 -0.00380
 H609 H 0.18066 -0.12743 -0.00189
 H610 H 0.21276 -0.07961 0.00431
 H611 H 0.23970 -0.09838 0.00213
 C612 C 0.24687 -0.17384 -0.04989
 C613 C 0.24403 -0.17335 0.05035
 C614 C 0.19419 -0.10188 0.00168
 C615 C 0.29935 -0.10499 -0.00441
 C616 C 0.26133 1.16363 0.47718
 H617 H 0.27233 1.16427 0.48620
 C618 C 0.26123 1.17476 0.46263
 H619 H 0.27226 1.18389 0.46057
 C620 C 0.23368 1.15089 0.46890
 H621 H 0.22303 1.14145 0.47116
 C622 C 0.23302 1.16175 0.45428
 H623 H 0.22176 1.16048 0.44560
 N624 N 0.24750 1.15221 0.48022
 C625 C 0.24305 1.14442 0.53588
 H626 H 0.24125 1.13003 0.53618
 C627 C 0.24353 1.15410 0.55127
 H628 H 0.24194 1.14698 0.56332
 C629 C 0.24774 1.17093 0.51972
 H630 H 0.24942 1.17746 0.50742
 C631 C 0.24836 1.18115 0.53483
 H632 H 0.25054 1.19547 0.53391
 Zn633 Zn 0.24726 1.13793 0.50063
 N634 N 0.24561 1.15282 0.52053
 C635 C 0.27998 1.12667 0.51567
 N636 N 0.26902 1.12426 0.50187
 C637 C 0.27365 1.11271 0.48900
 C638 C 0.28955 1.10266 0.49002
 C639 C 0.29593 1.11695 0.51719
 C640 C 0.21042 1.13101 0.50187
 C641 C 0.19461 1.12116 0.50045
 C642 C 0.21239 1.09432 0.49665
 C643 C 0.22790 1.10471 0.49814
 N644 N 0.22666 1.12279 0.50033
 H645 H 0.27650 1.13624 0.52557
 H646 H 0.26496 1.11124 0.47796
 H647 H 0.29289 1.09345 0.47969
 H648 H 0.30428 1.11913 0.52837
 H649 H 0.20977 1.14538 0.50376
 H650 H 0.18189 1.12813 0.50138
 H651 H 0.21371 1.08001 0.49459
 H652 H 0.24087 1.09832 0.49723
 C653 C 0.24658 1.17269 0.55092
 C654 C 0.24682 1.17403 0.45102
 C655 C 0.19542 1.10256 0.49755
 C656 C 0.30091 1.10465 0.50433
 C657 C 0.13397 0.47627 0.26450
 H658 H 0.13372 0.48639 0.27450
 C659 C 0.14432 0.46074 0.26665
 H660 H 0.15209 0.45914 0.27831
 C661 C 0.12370 0.46600 0.23742
 H662 H 0.11538 0.46791 0.22620
 C663 C 0.13385 0.45026 0.23904
 H664 H 0.13333 0.44035 0.22886
 N665 N 0.12397 0.47866 0.25005
 C666 C 0.11392 0.53657 0.24666
 H667 H 0.09944 0.53656 0.24617
 C668 C 0.12322 0.55270 0.24494
 H669 H 0.11570 0.56503 0.24331
 C670 C 0.14115 0.52033 0.24886
 H671 H 0.14811 0.50765 0.25001
 C672 C 0.15100 0.53618 0.24718
 H673 H 0.16549 0.53546 0.24730
 Zn674 Zn 0.10902 0.49944 0.24890
 N675 N 0.12293 0.52080 0.24861
 C676 C 0.09347 0.51224 0.28028
 N677 N 0.09371 0.49874 0.26849
 C678 C 0.08374 0.48371 0.27085
 C679 C 0.07300 0.48180 0.28551
 C680 C 0.08288 0.51092 0.29511
 C681 C 0.10456 0.50129 0.21326
 C682 C 0.09551 0.50324 0.19765
 C683 C 0.06746 0.50184 0.21318
 C684 C 0.07712 0.49992 0.22852
 N685 N 0.09534 0.49970 0.22829
 H686 H 0.10174 0.52393 0.27839
 H687 H 0.08435 0.47305 0.26139
 H688 H 0.06533 0.46963 0.28716
 H689 H 0.08306 0.52176 0.30438
 H690 H 0.11905 0.50137 0.21347
 H691 H 0.10342 0.50460 0.18601
 H692 H 0.05297 0.50213 0.21388
 H693 H 0.07001 0.49904 0.24063
 C694 C 0.14205 0.55268 0.24508
 C695 C 0.14430 0.44739 0.25386
 C696 C 0.07660 0.50375 0.19733
 C697 C 0.07254 0.49547 0.29797
 C698 C -0.13386 1.01959 0.26548
 H699 H -0.13422 1.00953 0.27552
 C700 C -0.14324 1.03574 0.26761
 H701 H -0.15093 1.03787 0.27928
 C702 C -0.12286 1.02916 0.23837
 H703 H -0.11456 1.02677 0.22718
 C704 C -0.13202 1.04548 0.23997
 H705 H -0.13081 1.05532 0.22978
 N706 N -0.12391 1.01660 0.25104
 C707 C -0.11543 0.95843 0.24779
 H708 H -0.10096 0.95817 0.24708
 C709 C -0.12504 0.94247 0.24627
 H710 H -0.11777 0.93000 0.24456
 C711 C -0.14233 0.97518 0.25040
 H712 H -0.14902 0.98800 0.25166
 C713 C -0.15249 0.95951 0.24893
 H714 H -0.16696 0.96049 0.24930
 Zn715 Zn -0.10968 0.99535 0.24996
 N716 N -0.12412 0.97436 0.24985
 C717 C -0.09452 0.98226 0.28128
 N718 N -0.09437 0.99572 0.26946
 C719 C -0.08412 1.01056 0.27179
 C720 C -0.07351 1.01232 0.28651
 C721 C -0.08406 0.98344 0.29615
 C722 C -0.10546 0.99310 0.21437
 C723 C -0.09656 0.99148 0.19861
 C724 C -0.06837 0.99316 0.21372
 C725 C -0.07786 0.99471 0.22923
 N726 N -0.09609 0.99474 0.22926
 H727 H -0.10302 0.97074 0.27940
 H728 H -0.08445 1.02119 0.26231
 H729 H -0.06564 1.02436 0.28816
 H730 H -0.08458 0.97266 0.30548
 H731 H -0.11995 0.99287 0.21479
 H732 H -0.10450 0.99016 0.18702
 H733 H -0.05387 0.99314 0.21409
 H734 H -0.07063 0.99564 0.24124
 C735 C -0.14386 0.94285 0.24673
 C736 C -0.14228 1.04905 0.25481
 C737 C -0.07769 0.99143 0.19804
 C738 C -0.07348 0.99871 0.29902
 C739 C 0.36557 0.52001 -0.23393
 H740 H 0.36522 0.51003 -0.22381
 C741 C 0.35620 0.53618 -0.23192
 H742 H 0.34853 0.53841 -0.22025
 C743 C 0.37656 0.52935 -0.26111
 H744 H 0.38484 0.52685 -0.27230
 C745 C 0.36741 0.54569 -0.25963
 H746 H 0.36862 0.55544 -0.26990
 N747 N 0.37552 0.51689 -0.24835
 C748 C 0.38456 0.45779 -0.25134
 H749 H 0.39905 0.45758 -0.25181
 C750 C 0.37540 0.44249 -0.25292
 H751 H 0.38273 0.43004 -0.25455
 C752 C 0.35790 0.47535 -0.24884
 H753 H 0.35114 0.48815 -0.24781
 C754 C 0.34719 0.45876 -0.25040
 H755 H 0.33273 0.45992 -0.25004
 Zn756 Zn 0.38974 0.49562 -0.24926
 N757 N 0.37533 0.47462 -0.24926
 C758 C 0.40496 0.48268 -0.21793
 N759 N 0.40502 0.49613 -0.22976
 C760 C 0.41521 0.51101 -0.22747
 C761 C 0.42588 0.51282 -0.21280
 C762 C 0.41548 0.48390 -0.20309
 C763 C 0.39411 0.49306 -0.28484
 C764 C 0.40311 0.49130 -0.30053
 C765 C 0.43121 0.49317 -0.28529
 C766 C 0.42163 0.49485 -0.26984
 N767 N 0.40340 0.49485 -0.26991
 H768 H 0.39651 0.47112 -0.21978
 H769 H 0.41482 0.52163 -0.23696
 H770 H 0.43372 0.52488 -0.21119
 H771 H 0.41505 0.47312 -0.19376
 H772 H 0.37962 0.49282 -0.28450
 H773 H 0.39536 0.48986 -0.31221
 H774 H 0.44571 0.49314 -0.28495
 H775 H 0.42880 0.49589 -0.25781
 C776 C 0.35547 0.44276 -0.25254
 C777 C 0.35716 0.54938 -0.24481
 C778 C 0.42194 0.49128 -0.30093
 C779 C 0.42602 0.49921 -0.20028
 C780 C 0.63589 -0.02442 -0.23456
 H781 H 0.63587 -0.01424 -0.22462
 C782 C 0.64568 -0.03939 -0.23257
 H783 H 0.65355 -0.04104 -0.22098
 C784 C 0.62480 -0.03388 -0.26186
 H785 H 0.61630 -0.03199 -0.27296
 C786 C 0.63546 -0.05057 -0.26028
 H787 H 0.63471 -0.06030 -0.27062
 N788 N 0.62520 -0.02180 -0.24975
 C789 C 0.61524 0.03612 -0.25282
 H790 H 0.60076 0.03615 -0.25320
 C791 C 0.62456 0.05223 -0.25460
 H792 H 0.61696 0.06453 -0.25615
 C793 C 0.64243 0.01981 -0.25085
 H794 H 0.64935 0.00710 -0.24977
 C795 C 0.65233 0.03562 -0.25259
 H796 H 0.66681 0.03473 -0.25257
 Zn797 Zn 0.61027 -0.00100 -0.25067
 N798 N 0.62422 0.02033 -0.25097
 C799 C 0.59484 0.01174 -0.21920
 N800 N 0.59509 -0.00177 -0.23099
 C801 C 0.58515 -0.01682 -0.22863
 C802 C 0.57437 -0.01872 -0.21399
 C803 C 0.58421 0.01042 -0.20440
 C804 C 0.60549 0.00118 -0.28627
 C805 C 0.59625 0.00325 -0.30177
 C806 C 0.56837 0.00161 -0.28601
 C807 C 0.57817 -0.00042 -0.27077
 N808 N 0.59640 -0.00059 -0.27117
 H809 H 0.60308 0.02344 -0.22111
 H810 H 0.58577 -0.02747 -0.23809
 H811 H 0.56670 -0.03089 -0.21236
 H812 H 0.58435 0.02128 -0.19514
 H813 H 0.61998 0.00133 -0.28620
 H814 H 0.60384 0.00478 -0.31358
 H815 H 0.55389 0.00189 -0.28538
 H816 H 0.57118 -0.00142 -0.25861
 C817 C 0.64344 0.05221 -0.25464
 C818 C 0.64553 -0.05353 -0.24612
 C819 C 0.57742 0.00364 -0.30180
 C820 C 0.57386 -0.00502 -0.20156
 C821 C 0.02501 0.26019 0.85249
 H822 H 0.01816 0.27298 0.85163
 C823 C 0.03970 0.25665 0.84198
 H824 H 0.04411 0.26688 0.83305
 C825 C 0.02767 0.23159 0.86566
 H826 H 0.02304 0.22201 0.87509
 C827 C 0.04257 0.22752 0.85547
 H828 H 0.04924 0.21470 0.85708
 N829 N 0.01923 0.24768 0.86391
 C830 C -0.03576 0.26317 0.87243
 H831 H -0.03563 0.26459 0.88631
 C832 C -0.05155 0.26598 0.86333
 H833 H -0.06360 0.26956 0.87034
 C834 C -0.02011 0.25630 0.84660
 H835 H -0.00792 0.25214 0.84022
 C836 C -0.03562 0.25893 0.83697
 H837 H -0.03513 0.25692 0.82316
 Zn838 Zn -0.00028 0.25436 0.87766
 N839 N -0.02048 0.25855 0.86398
 C840 C -0.00230 0.29098 0.88474
 N841 N 0.00609 0.27546 0.88920
 C842 C 0.01976 0.27525 0.90075
 C843 C 0.02493 0.29107 0.90894
 C844 C 0.00257 0.30706 0.89238
 C845 C -0.01268 0.22080 0.88523
 C846 C -0.01789 0.20622 0.89517
 C847 C -0.01056 0.22313 0.92079
 C848 C -0.00564 0.23751 0.91030
 N849 N -0.00644 0.23590 0.89287
 H850 H -0.01260 0.29100 0.87501
 H851 H 0.02661 0.26278 0.90359
 H852 H 0.03567 0.29070 0.91829
 H853 H -0.00443 0.31922 0.88871
 H854 H -0.01347 0.22010 0.87133
 H855 H -0.02248 0.19420 0.88875
 H856 H -0.00953 0.22445 0.93464
 H857 H -0.00119 0.24986 0.91611
 C858 C -0.05162 0.26375 0.84537
 C859 C 0.04875 0.24018 0.84348
 C860 C -0.01663 0.20718 0.91318
 C861 C 0.01623 0.30722 0.90475
 C862 C 0.47905 0.25580 0.14723
 H863 H 0.48662 0.26812 0.14793
 C864 C 0.46380 0.25366 0.15731
 H865 H 0.45971 0.26448 0.16578
 C866 C 0.47511 0.22700 0.13484
 H867 H 0.47945 0.21681 0.12584
 C868 C 0.45967 0.22432 0.14464
 H869 H 0.45229 0.21195 0.14317
 N870 N 0.48443 0.24253 0.13638
 C871 C 0.54052 0.25339 0.12854
 H872 H 0.54080 0.25405 0.11461
 C873 C 0.55619 0.25577 0.13788
 H874 H 0.56857 0.25824 0.13101
 C875 C 0.52389 0.24911 0.15428
 H876 H 0.51132 0.24622 0.16057
 C877 C 0.53927 0.25135 0.16416
 H878 H 0.53832 0.25032 0.17805
 Zn879 Zn 0.50460 0.24744 0.12289
 N880 N 0.52479 0.25040 0.13683
 C881 C 0.50960 0.28354 0.11430
 N882 N 0.49975 0.26870 0.11085
 C883 C 0.48557 0.26929 0.09991
 C884 C 0.48114 0.28523 0.09148
 C885 C 0.50559 0.29972 0.10629
 C886 C 0.51489 0.21286 0.11570
 C887 C 0.51907 0.19785 0.10583
 C888 C 0.51291 0.21517 0.08013
 C889 C 0.50897 0.22993 0.09055
 N890 N 0.50968 0.22836 0.10798
 H891 H 0.52037 0.28299 0.12353
 H892 H 0.47766 0.25737 0.09782
 H893 H 0.46987 0.28548 0.08274
 H894 H 0.51368 0.31134 0.10923
 H895 H 0.51562 0.21218 0.12961
 H896 H 0.52285 0.18554 0.11229
 H897 H 0.51197 0.21651 0.06627
 H898 H 0.50531 0.24255 0.08469
 C899 C 0.55567 0.25480 0.15594
 C900 C 0.45382 0.23781 0.15600
 C901 C 0.51787 0.19883 0.08780
 C902 C 0.49124 0.30071 0.09469
 C903 C -0.02137 0.75649 0.64759
 H904 H -0.01370 0.76875 0.64833
 C905 C -0.03604 0.75449 0.65719
 H906 H -0.04009 0.76530 0.66570
 C907 C -0.02455 0.72755 0.63475
 H908 H -0.02025 0.71735 0.62574
 C909 C -0.04090 0.72474 0.64506
 H910 H -0.04813 0.71229 0.64344
 N911 N -0.01566 0.74244 0.63618
 C912 C 0.04033 0.75371 0.62832
 H913 H 0.04062 0.75440 0.61440
 C914 C 0.05597 0.75619 0.63770
 H915 H 0.06834 0.75877 0.63085
 C916 C 0.02369 0.74923 0.65404
 H917 H 0.01113 0.74624 0.66029
 C918 C 0.03904 0.75157 0.66394
 H919 H 0.03808 0.75050 0.67783
 Zn920 Zn 0.00445 0.74748 0.62266
 N921 N 0.02461 0.75057 0.63659
 C922 C 0.00913 0.78365 0.61422
 N923 N -0.00058 0.76875 0.61070
 C924 C -0.01476 0.76927 0.59975
 C925 C -0.01934 0.78522 0.59141
 C926 C 0.00497 0.79985 0.60631
 C927 C 0.01502 0.71301 0.61539
 C928 C 0.01928 0.69804 0.60548
 C929 C 0.01289 0.71535 0.57983
 C930 C 0.00888 0.73007 0.59027
 N931 N 0.00966 0.72848 0.60770
 H932 H 0.01991 0.78315 0.62345
 H933 H -0.02257 0.75729 0.59761
 H934 H -0.03061 0.78542 0.58267
 H935 H 0.01295 0.81153 0.60931
 H936 H 0.01580 0.71231 0.62929
 H937 H 0.02316 0.68575 0.61192
 H938 H 0.01187 0.71670 0.56597
 H939 H 0.00510 0.74267 0.58445
 C940 C 0.05543 0.75517 0.65576
 C941 C -0.04668 0.73774 0.65583
 C942 C 0.01799 0.69903 0.58746
 C943 C -0.00940 0.80077 0.59472
 C944 C 0.52439 0.75959 0.35358
 H945 H 0.51753 0.77238 0.35269
 C946 C 0.53921 0.75611 0.34322
 H947 H 0.54371 0.76639 0.33437
 C948 C 0.52692 0.73093 0.36665
 H949 H 0.52218 0.72129 0.37599
 C950 C 0.54194 0.72692 0.35661
 H951 H 0.54860 0.71410 0.35823
 N952 N 0.51849 0.74702 0.36487
 C953 C 0.46339 0.76250 0.37271
 H954 H 0.46331 0.76392 0.38658
 C955 C 0.44775 0.76534 0.36338
 H956 H 0.43560 0.76894 0.37022
 C957 C 0.47942 0.75559 0.34710
 H958 H 0.49169 0.75141 0.34088
 C959 C 0.46406 0.75824 0.33725
 H960 H 0.46476 0.75624 0.32344
 Zn961 Zn 0.49881 0.75366 0.37840
 N962 N 0.47880 0.75786 0.36447
 C963 C 0.49669 0.79027 0.38560
 N964 N 0.50505 0.77474 0.39004
 C965 C 0.51869 0.77448 0.40163
 C966 C 0.52389 0.79028 0.40983
 C967 C 0.50159 0.80633 0.39326
 C968 C 0.48631 0.72009 0.38580
 C969 C 0.48105 0.70549 0.39568
 C970 C 0.48816 0.72237 0.42138
 C971 C 0.49313 0.73677 0.41095
 N972 N 0.49247 0.73518 0.39351
 H973 H 0.48641 0.79033 0.37585
 H974 H 0.52552 0.76199 0.40446
 H975 H 0.53463 0.78987 0.41918
 H976 H 0.49463 0.81851 0.38958
 H977 H 0.48563 0.71941 0.37189
 H978 H 0.47653 0.69347 0.38921
 H979 H 0.48909 0.72367 0.43524
 H980 H 0.49753 0.74912 0.41680
 C981 C 0.44796 0.76311 0.34542
 C982 C 0.54825 0.73964 0.34474
 C983 C 0.48219 0.70642 0.41371
 C984 C 0.51526 0.80645 0.40563
 Zr985 Zr 0.01377 -0.00820 1.02215
 O986 O 0.02999 0.00133 1.04250
 O987 O 0.01279 -0.03573 1.02729
 O988 O 0.00105 -0.01126 1.04644
 O989 O 0.04827 -0.00956 0.99227
 O990 O -0.02699 0.00013 1.04194
 O991 O 0.04059 -0.01741 1.01974
 O992 O -0.00533 -0.04678 1.00618
 O993 O -0.01271 -0.01477 1.01590
 O994 O 0.01435 -0.01892 0.99725
 O995 O -0.00081 0.01596 1.02400
 O996 O 0.02556 0.01174 1.00652
 Zr997 Zr -0.01606 0.01877 0.97572
 Zr998 Zr -0.02690 0.00949 1.01645
 Zr999 Zr 0.02469 0.00115 0.98152
 Zr1000 Zr -0.01200 -0.02451 0.99071
 O1001 O 0.04627 0.01870 0.97652
 O1002 O -0.03637 -0.03628 0.99891
 O1003 O -0.00137 -0.00542 0.97366
 O1004 O -0.02753 -0.00109 0.99148
 O1005 O -0.01678 0.02969 1.00058
 O1006 O 0.01037 0.02522 0.98210
 C1007 C 0.00451 -0.04853 1.01966
 C1008 C 0.05177 -0.01655 1.00705
 C1009 C -0.01495 -0.00717 1.05149
 O1010 O -0.04968 -0.00691 1.01987
 O1011 O -0.04949 0.02285 1.00657
 O1012 O -0.04238 0.02922 0.97861
 C1013 C -0.05308 0.02958 0.99170
 O1014 O 0.02798 0.03895 1.02776
 Zr1015 Zr 0.00970 0.03513 1.00715
 O1016 O -0.01560 0.04640 0.97086
 O1017 O -0.03386 0.03078 1.03326
 O1018 O -0.00251 0.05293 1.02503
 O1019 O 0.03263 0.04878 0.99785
 O1020 O 0.00022 0.05768 0.99352
 C1021 C -0.00924 0.05942 0.97979
 O1022 O -0.03332 0.00962 0.95600
 O1023 O 0.03307 -0.02095 0.96632
 O1024 O -0.00407 0.01970 0.95089
 O1025 O 0.02369 0.00756 0.95527
 O1026 O 0.00065 -0.04378 0.97459
 O1027 O -0.02746 -0.02879 0.96813
 C1028 C 0.01149 0.01437 0.94559
 H1029 H 0.02175 -0.02992 0.99628
 H1030 H -0.03993 -0.00380 0.98782
 H1031 H 0.01567 0.03407 0.97408
 H1032 H -0.00051 0.02074 1.03590
 H1033 H -0.03580 -0.04920 0.99596
 H1034 H -0.05751 -0.00078 1.02839
 H1035 H -0.04572 0.02785 1.03826
 H1036 H 0.00331 0.06477 1.02372
 H1037 H -0.00576 -0.05529 0.97613
 H1038 H 0.04488 -0.01782 0.96132
 H1039 H 0.05421 0.01255 0.96812
 H1040 H 0.03140 0.06153 1.00127
 H1041 H -0.03186 -0.04129 0.96801
 H1042 H -0.03666 0.02020 0.94893
 H1043 H 0.03355 -0.00923 1.04951
 H1044 H 0.03020 0.05193 1.02933
 Zr1045 Zr 0.51415 0.49123 0.52256
 O1046 O 0.53036 0.50090 0.54286
 O1047 O 0.51324 0.46373 0.52782
 O1048 O 0.50143 0.48823 0.54686
 O1049 O 0.54864 0.48981 0.49267
 O1050 O 0.47337 0.49955 0.54232
 O1051 O 0.54098 0.48206 0.52018
 O1052 O 0.49513 0.45254 0.50676
 O1053 O 0.48768 0.48459 0.51635
 O1054 O 0.51474 0.48041 0.49770
 O1055 O 0.49952 0.51537 0.52433
 O1056 O 0.52591 0.51113 0.50685
 Zr1057 Zr 0.48425 0.51794 0.47604
 Zr1058 Zr 0.47344 0.50882 0.51681
 Zr1059 Zr 0.52504 0.50042 0.48189
 Zr1060 Zr 0.48840 0.47473 0.49120
 O1061 O 0.54658 0.51801 0.47683
 O1062 O 0.46406 0.46295 0.49948
 O1063 O 0.49898 0.49377 0.47408
 O1064 O 0.47282 0.49812 0.49188
 O1065 O 0.48353 0.52896 0.50085
 O1066 O 0.51067 0.52447 0.48238
 C1067 C 0.50499 0.45087 0.52025
 C1068 C 0.55216 0.48288 0.50748
 C1069 C 0.48543 0.49229 0.55189
 O1070 O 0.45068 0.49240 0.52028
 O1071 O 0.45083 0.52212 0.50688
 O1072 O 0.45793 0.52837 0.47890
 C1073 C 0.44724 0.52879 0.49200
 O1074 O 0.52828 0.53843 0.52798
 Zr1075 Zr 0.51000 0.53449 0.50739
 O1076 O 0.48463 0.54555 0.47108
 O1077 O 0.46647 0.53016 0.53355
 O1078 O 0.49779 0.55234 0.52522
 O1079 O 0.53289 0.54814 0.49800
 O1080 O 0.50042 0.55695 0.49370
 C1081 C 0.49094 0.55861 0.47997
 O1082 O 0.46701 0.50865 0.45637
 O1083 O 0.53347 0.47829 0.46677
 O1084 O 0.49623 0.51881 0.45121
 O1085 O 0.52401 0.50672 0.45561
 O1086 O 0.50108 0.45542 0.47515
 O1087 O 0.47292 0.47031 0.46866
 C1088 C 0.51179 0.51349 0.44592
 H1089 H 0.52216 0.46941 0.49677
 H1090 H 0.46043 0.49538 0.48824
 H1091 H 0.51594 0.53331 0.47433
 H1092 H 0.49981 0.52020 0.53620
 H1093 H 0.46467 0.45001 0.49660
 H1094 H 0.44285 0.49855 0.52878
 H1095 H 0.45461 0.52723 0.53857
 H1096 H 0.50359 0.56419 0.52386
 H1097 H 0.49470 0.44391 0.47674
 H1098 H 0.54527 0.48143 0.46176
 H1099 H 0.55452 0.51184 0.46844
 H1100 H 0.53162 0.56091 0.50136
 H1101 H 0.46855 0.45779 0.46860
 H1102 H 0.46363 0.51919 0.44925
 H1103 H 0.53394 0.49038 0.54992
 H1104 H 0.53052 0.55142 0.52946
 Zr1105 Zr 0.48547 1.01610 0.52213
 O1106 O 0.46893 1.00484 0.54146
 O1107 O 0.48566 1.04322 0.52912
 O1108 O 0.49756 1.01759 0.54683
 O1109 O 0.45177 1.01884 0.49163
 O1110 O 0.52597 1.00726 0.54201
 O1111 O 0.45848 1.02485 0.51973
 O1112 O 0.50408 1.05604 0.50911
 O1113 O 0.51198 1.02356 0.51686
 O1114 O 0.48535 1.02857 0.49797
 O1115 O 0.50045 0.99211 0.52264
 O1116 O 0.47450 0.99714 0.50491
 Zr1117 Zr 0.51699 0.99304 0.47461
 Zr1118 Zr 0.52660 0.99956 0.51605
 Zr1119 Zr 0.47585 1.00954 0.48068
 Zr1120 Zr 0.51175 1.03508 0.49237
 O1121 O 0.45480 0.99203 0.47389
 O1122 O 0.53562 1.04664 0.50199
 O1123 O 0.50197 1.01709 0.47382
 O1124 O 0.52771 1.01191 0.49187
 O1125 O 0.51725 0.98040 0.49869
 O1126 O 0.49054 0.98570 0.48001
 C1127 C 0.49381 1.05669 0.52245
 C1128 C 0.44767 1.02463 0.50676
 C1129 C 0.51357 1.01356 0.55184
 O1130 O 0.54911 1.01596 0.52083
 O1131 O 0.54955 0.98702 0.50583
 O1132 O 0.54325 0.98248 0.47739
 C1133 C 0.55354 0.98119 0.49069
 O1134 O 0.47194 0.96841 0.52419
 Zr1135 Zr 0.49075 0.97401 0.50433
 O1136 O 0.51734 0.96586 0.46795
 O1137 O 0.53343 0.97734 0.53173
 O1138 O 0.50276 0.95521 0.52131
 O1139 O 0.46840 0.96060 0.49361
 O1140 O 0.50121 0.95267 0.48949
 C1141 C 0.51111 0.95212 0.47589
 O1142 O 0.53448 1.00415 0.45598
 O1143 O 0.46738 1.03262 0.46698
 O1144 O 0.50549 0.99302 0.44960
 O1145 O 0.47778 1.00530 0.45405
 O1146 O 0.49919 1.05517 0.47722
 O1147 O 0.52786 1.04139 0.47060
 C1148 C 0.49011 0.99877 0.44428
 H1149 H 0.47774 1.03946 0.49758
 H1150 H 0.54015 1.01503 0.48865
 H1151 H 0.48562 0.97732 0.47134
 H1152 H 0.49995 0.98648 0.53418
 H1153 H 0.53484 1.05975 0.49999
 H1154 H 0.55681 1.00937 0.52910
 H1155 H 0.54514 0.98008 0.53710
 H1156 H 0.49725 0.94338 0.51906
 H1157 H 0.50522 1.06669 0.47973
 H1158 H 0.45580 1.02963 0.46147
 H1159 H 0.44701 0.99866 0.46573
 H1160 H 0.46986 0.94765 0.49616
 H1161 H 0.53193 1.05398 0.47146
 H1162 H 0.53831 0.99420 0.44829
 H1163 H 0.46500 1.01482 0.54907
 H1164 H 0.46993 0.95531 0.52485
 Zr1165 Zr -0.01384 0.51656 1.02216
 O1166 O -0.03053 0.50532 1.04139
 O1167 O -0.01333 0.54361 1.02940
 O1168 O -0.00179 0.51770 1.04691
 O1169 O -0.04745 0.51988 0.99162
 O1170 O 0.02651 0.50708 1.04207
 O1171 O -0.04075 0.52558 1.01978
 O1172 O 0.00530 0.55639 1.00956
 O1173 O 0.01276 0.52378 1.01700
 O1174 O -0.01378 0.52924 0.99811
 O1175 O 0.00089 0.49241 1.02251
 O1176 O -0.02495 0.49787 1.00476
 Zr1177 Zr 0.01755 0.49359 0.97452
 Zr1178 Zr 0.02713 0.49965 1.01604
 Zr1179 Zr -0.02342 0.51047 0.98064
 Zr1180 Zr 0.01270 0.53552 0.99261
 O1181 O -0.04464 0.49324 0.97363
 O1182 O 0.03670 0.54674 1.00231
 O1183 O 0.00278 0.51781 0.97389
 O1184 O 0.02842 0.51220 0.99195
 O1185 O 0.01763 0.48074 0.99850
 O1186 O -0.00898 0.48648 0.97981
 C1187 C -0.00496 0.55703 1.02289
 C1188 C -0.05154 0.52555 1.00679
 C1189 C 0.01416 0.51344 1.05192
 O1190 O 0.04977 0.51578 1.02104
 O1191 O 0.04999 0.48702 1.00574
 O1192 O 0.04373 0.48281 0.97725
 C1193 C 0.05398 0.48132 0.99056
 O1194 O -0.02788 0.46900 1.02379
 Zr1195 Zr -0.00895 0.47458 1.00403
 O1196 O 0.01768 0.46647 0.96768
 O1197 O 0.03369 0.47718 1.03150
 O1198 O 0.00280 0.45550 1.02090
 O1199 O -0.03140 0.46150 0.99313
 O1200 O 0.00135 0.45325 0.98906
 C1201 C 0.01130 0.45272 0.97550
 O1202 O 0.03514 0.50470 0.95598
 O1203 O -0.03162 0.53376 0.96712
 O1204 O 0.00606 0.49382 0.94950
 O1205 O -0.02149 0.50645 0.95397
 O1206 O 0.00035 0.55590 0.97765
 O1207 O 0.02889 0.54186 0.97090
 C1208 C -0.00923 0.49979 0.94418
 H1209 H -0.02127 0.54023 0.99781
 H1210 H 0.04090 0.51522 0.98879
 H1211 H -0.01397 0.47823 0.97106
 H1212 H 0.00030 0.48669 1.03400
 H1213 H 0.03607 0.55987 1.00042
 H1214 H 0.05739 0.50902 1.02925
 H1215 H 0.04541 0.47974 1.03693
 H1216 H -0.00284 0.44375 1.01853
 H1217 H 0.00650 0.56733 0.98027
 H1218 H -0.04322 0.53094 0.96156
 H1219 H -0.05234 0.50004 0.96553
 H1220 H -0.03009 0.44851 0.99558
 H1221 H 0.03306 0.55441 0.97184
 H1222 H 0.03890 0.49479 0.94823
 H1223 H -0.03437 0.51528 1.04907
 H1224 H -0.03005 0.45592 1.02432
 Zr1225 Zr -0.01850 0.48606 0.47484
 O1226 O -0.03512 0.49632 0.45506
 O1227 O -0.01770 0.45866 0.46890
 O1228 O -0.00618 0.48379 0.45023
 O1229 O -0.05242 0.48415 0.50530
 O1230 O 0.02199 0.49463 0.45471
 O1231 O -0.04530 0.47705 0.47748
 O1232 O 0.00071 0.44685 0.48949
 O1233 O 0.00812 0.47912 0.48044
 O1234 O -0.01858 0.47460 0.49944
 O1235 O -0.00401 0.51017 0.47348
 O1236 O -0.03003 0.50558 0.49128
 Zr1237 Zr 0.01210 0.51137 0.52156
 Zr1238 Zr 0.02224 0.50330 0.48041
 Zr1239 Zr -0.02866 0.49421 0.51595
 Zr1240 Zr 0.00790 0.46860 0.50534
 O1241 O -0.05015 0.51175 0.52195
 O1242 O 0.03205 0.45693 0.49614
 O1243 O -0.00245 0.48721 0.52315
 O1244 O 0.02336 0.49194 0.50504
 O1245 O 0.01233 0.52305 0.49702
 O1246 O -0.01445 0.51820 0.51581
 C1247 C -0.00943 0.44554 0.47616
 C1248 C -0.05624 0.47767 0.49040
 C1249 C 0.00977 0.48785 0.44509
 O1250 O 0.04510 0.48695 0.47627
 O1251 O 0.04490 0.51639 0.49027
 O1252 O 0.03824 0.52190 0.51851
 C1253 C 0.04867 0.52272 0.50524
 O1254 O -0.03290 0.53353 0.47086
 Zr1255 Zr -0.01427 0.52888 0.49106
 O1256 O 0.01169 0.53882 0.52724
 O1257 O 0.02879 0.52500 0.46402
 O1258 O -0.00236 0.54714 0.47353
 O1259 O -0.03709 0.54237 0.50110
 O1260 O -0.00461 0.55092 0.50522
 C1261 C 0.00513 0.55215 0.51882
 O1262 O 0.02970 0.50136 0.54067
 O1263 O -0.03673 0.47165 0.53055
 O1264 O 0.00049 0.51188 0.54658
 O1265 O -0.02713 0.49966 0.54239
 O1266 O -0.00430 0.44900 0.52126
 O1267 O 0.02397 0.46340 0.52737
 C1268 C -0.01489 0.50635 0.55202
 H1269 H -0.02597 0.46364 0.50026
 H1270 H 0.03583 0.48907 0.50841
 H1271 H -0.01963 0.52684 0.52417
 H1272 H -0.00452 0.51534 0.46174
 H1273 H 0.03152 0.44391 0.49863
 H1274 H 0.05274 0.49329 0.46778
 H1275 H 0.04058 0.52218 0.45877
 H1276 H -0.00814 0.55899 0.47530
 H1277 H 0.00205 0.43748 0.51925
 H1278 H -0.04845 0.47471 0.53586
 H1279 H -0.05790 0.50537 0.53030
 H1280 H -0.03593 0.55523 0.49806
 H1281 H 0.02845 0.45089 0.52694
 H1282 H 0.03320 0.51167 0.54800
 H1283 H -0.03876 0.48601 0.44781
 H1284 H -0.03510 0.54658 0.46969
 Zr1285 Zr 0.48142 -0.01390 -0.02532
 O1286 O 0.46494 -0.00353 -0.04516
 O1287 O 0.48212 -0.04128 -0.03128
 O1288 O 0.49385 -0.01622 -0.04987
 O1289 O 0.44735 -0.01564 0.00500
 O1290 O 0.52205 -0.00556 -0.04525
 O1291 O 0.45457 -0.02279 -0.02279
 O1292 O 0.50036 -0.05322 -0.01062
 O1293 O 0.50798 -0.02098 -0.01960
 O1294 O 0.48116 -0.02537 -0.00072
 O1295 O 0.49605 0.01014 -0.02660
 O1296 O 0.46991 0.00568 -0.00892
 Zr1297 Zr 0.51194 0.01123 0.02155
 Zr1298 Zr 0.52223 0.00312 -0.01956
 Zr1299 Zr 0.47112 -0.00571 0.01576
 Zr1300 Zr 0.50758 -0.03151 0.00529
 O1301 O 0.44969 0.01194 0.02167
 O1302 O 0.53171 -0.04332 -0.00380
 O1303 O 0.49726 -0.01285 0.02307
 O1304 O 0.52317 -0.00825 0.00507
 O1305 O 0.51234 0.02292 -0.00298
 O1306 O 0.48545 0.01820 0.01569
 C1307 C 0.49030 -0.05445 -0.02400
 C1308 C 0.44358 -0.02211 -0.00992
 C1309 C 0.50985 -0.01227 -0.05493
 O1310 O 0.54502 -0.01333 -0.02361
 O1311 O 0.54490 0.01609 -0.00961
 O1312 O 0.53815 0.02165 0.01860
 C1313 C 0.54864 0.02241 0.00537
 O1314 O 0.46729 0.03364 -0.02933
 Zr1315 Zr 0.48580 0.02890 -0.00905
 O1316 O 0.51163 0.03867 0.02725
 O1317 O 0.52894 0.02479 -0.03593
 O1318 O 0.49788 0.04710 -0.02652
 O1319 O 0.46300 0.04249 0.00090
 O1320 O 0.49549 0.05088 0.00517
 C1321 C 0.50516 0.05205 0.01882
 O1322 O 0.52942 0.00113 0.04072
 O1323 O 0.46286 -0.02823 0.03031
 O1324 O 0.50023 0.01177 0.04652
 O1325 O 0.47255 -0.00029 0.04220
 O1326 O 0.49520 -0.05105 0.02115
 O1327 O 0.52353 -0.03681 0.02739
 C1328 C 0.48479 0.00632 0.05189
 H1329 H 0.47372 -0.03629 0.00005
 H1330 H 0.53561 -0.01119 0.00849
 H1331 H 0.48027 0.02686 0.02403
 H1332 H 0.49562 0.01532 -0.03834
 H1333 H 0.53111 -0.05634 -0.00130
 H1334 H 0.55273 -0.00704 -0.03205
 H1335 H 0.54075 0.02191 -0.04112
 H1336 H 0.49215 0.05899 -0.02477
 H1337 H 0.50148 -0.06261 0.01915
 H1338 H 0.45113 -0.02512 0.03557
 H1339 H 0.44187 0.00560 0.02999
 H1340 H 0.46423 0.05534 -0.00213
 H1341 H 0.52792 -0.04936 0.02698
 H1342 H 0.53293 0.01142 0.04807
 H1343 H 0.46128 -0.01383 -0.05243
 H1344 H 0.46515 0.04670 -0.03050
 Zr1345 Zr 0.51413 0.51110 -0.02264
 O1346 O 0.53108 0.49999 -0.04183
 O1347 O 0.51336 0.53819 -0.02967
 O1348 O 0.50225 0.51241 -0.04742
 O1349 O 0.54754 0.51445 0.00806
 O1350 O 0.47406 0.50161 -0.04290
 O1351 O 0.54088 0.52024 -0.02011
 O1352 O 0.49449 0.55088 -0.00987
 O1353 O 0.48742 0.51823 -0.01763
 O1354 O 0.51376 0.52368 0.00146
 O1355 O 0.49972 0.48693 -0.02322
 O1356 O 0.52541 0.49237 -0.00530
 Zr1357 Zr 0.48275 0.48780 0.02467
 Zr1358 Zr 0.47335 0.49404 -0.01688
 Zr1359 Zr 0.52357 0.50485 0.01886
 Zr1360 Zr 0.48716 0.52984 0.00682
 O1361 O 0.54497 0.48766 0.02589
 O1362 O 0.46313 0.54106 -0.00304
 O1363 O 0.49721 0.51206 0.02549
 O1364 O 0.47176 0.50646 0.00726
 O1365 O 0.48298 0.47505 0.00063
 O1366 O 0.50943 0.48083 0.01950
 C1367 C 0.50487 0.55159 -0.02311
 C1368 C 0.55160 0.52023 -0.00708
 C1369 C 0.48642 0.50810 -0.05259
 O1370 O 0.45054 0.51014 -0.02195
 O1371 O 0.45055 0.48136 -0.00678
 O1372 O 0.45669 0.47705 0.02173
 C1373 C 0.44651 0.47565 0.00837
 O1374 O 0.52867 0.46353 -0.02457
 Zr1375 Zr 0.50969 0.46904 -0.00478
 O1376 O 0.48307 0.46065 0.03149
 O1377 O 0.46714 0.47164 -0.03248
 O1378 O 0.49808 0.44999 -0.02165
 O1379 O 0.53238 0.45605 0.00602
 O1380 O 0.49986 0.44764 0.01022
 C1381 C 0.48991 0.44699 0.02376
 O1382 O 0.46487 0.49870 0.04317
 O1383 O 0.53138 0.52809 0.03256
 O1384 O 0.49403 0.48809 0.04977
 O1385 O 0.52150 0.50070 0.04549
 O1386 O 0.49909 0.55015 0.02204
 O1387 O 0.47070 0.53596 0.02845
 C1388 C 0.50922 0.49407 0.05519
 H1389 H 0.52111 0.53468 0.00188
 H1390 H 0.45923 0.50944 0.01037
 H1391 H 0.51449 0.47258 0.02823
 H1392 H 0.50046 0.48127 -0.03474
 H1393 H 0.46357 0.55417 -0.00104
 H1394 H 0.44307 0.50343 -0.03026
 H1395 H 0.45543 0.47422 -0.03798
 H1396 H 0.50384 0.43823 -0.01932
 H1397 H 0.49279 0.56157 0.01948
 H1398 H 0.54298 0.52529 0.03817
 H1399 H 0.55253 0.49444 0.03407
 H1400 H 0.53127 0.44307 0.00352
 H1401 H 0.46631 0.54848 0.02753
 H1402 H 0.46123 0.48873 0.05087
 H1403 H 0.53484 0.50999 -0.04944
 H1404 H 0.53090 0.45045 -0.02519
 Zr1405 Zr 0.01374 1.01080 0.47709
 O1406 O 0.03070 0.99958 0.45797
 O1407 O 0.01300 1.03785 0.46993
 O1408 O 0.00190 1.01200 0.45229
 O1409 O 0.04711 1.01428 0.50780
 O1410 O -0.02628 1.00119 0.45680
 O1411 O 0.04049 1.01994 0.47960
 O1412 O -0.00590 1.05065 0.48964
 O1413 O -0.01298 1.01796 0.48203
 O1414 O 0.01334 1.02350 0.50112
 O1415 O -0.00067 0.98663 0.47660
 O1416 O 0.02499 0.99215 0.49453
 Zr1417 Zr -0.01770 0.98776 0.52447
 Zr1418 Zr -0.02705 0.99378 0.48287
 Zr1419 Zr 0.02313 1.00476 0.51863
 Zr1420 Zr -0.01326 1.02970 0.50643
 O1421 O 0.04451 0.98760 0.52577
 O1422 O -0.03727 1.04089 0.49649
 O1423 O -0.00324 1.01201 0.52519
 O1424 O -0.02866 1.00633 0.50695
 O1425 O -0.01745 0.97488 0.50048
 O1426 O 0.00897 0.98074 0.51936
 C1427 C 0.00451 1.05129 0.47641
 C1428 C 0.05120 1.01998 0.49265
 C1429 C -0.01392 1.00765 0.44710
 O1430 O -0.04983 1.00988 0.47769
 O1431 O -0.04987 0.98117 0.49300
 O1432 O -0.04378 0.97701 0.52154
 C1433 C -0.05393 0.97554 0.50818
 O1434 O 0.02829 0.96324 0.47541
 Zr1435 Zr 0.00926 0.96883 0.49514
 O1436 O -0.01742 0.96064 0.53140
 O1437 O -0.03326 0.97130 0.46738
 O1438 O -0.00230 0.94970 0.47833
 O1439 O 0.03191 0.95588 0.50604
 O1440 O -0.00062 0.94751 0.51021
 C1441 C -0.01060 0.94693 0.52374
 O1442 O -0.03560 0.99876 0.54289
 O1443 O 0.03093 1.02807 0.53221
 O1444 O -0.00645 0.98816 0.54958
 O1445 O 0.02102 1.00075 0.54527
 O1446 O -0.00132 1.05008 0.52156
 O1447 O -0.02974 1.03594 0.52800
 C1448 C 0.00873 0.99417 0.55498
 H1449 H 0.02070 1.03450 0.50150
 H1450 H -0.04120 1.00933 0.51002
 H1451 H 0.01402 0.97253 0.52814
 H1452 H 0.00008 0.98091 0.46510
 H1453 H -0.03682 1.05402 0.49844
 H1454 H -0.05730 1.00313 0.46941
 H1455 H -0.04495 0.97386 0.46185
 H1456 H 0.00346 0.93796 0.48072
 H1457 H -0.00760 1.06149 0.51893
 H1458 H 0.04252 1.02530 0.53784
 H1459 H 0.05206 0.99442 0.53393
 H1460 H 0.03081 0.94289 0.50359
 H1461 H -0.03408 1.04847 0.52704
 H1462 H -0.03926 0.98883 0.55063
 H1463 H 0.03449 1.00953 0.45031
 H1464 H 0.03052 0.95015 0.47485
 Zr1465 Zr 0.74172 0.26352 0.22782
 O1466 O 0.75134 0.27986 0.20753
 O1467 O 0.71431 0.26227 0.22240
 O1468 O 0.73905 0.25076 0.20354
 O1469 O 0.73967 0.29801 0.25764
 O1470 O 0.75074 0.22282 0.20814
 O1471 O 0.73227 0.29029 0.23010
 O1472 O 0.70320 0.24394 0.24340
 O1473 O 0.73537 0.23693 0.23403
 O1474 O 0.73069 0.26396 0.25261
 O1475 O 0.76602 0.24919 0.22621
 O1476 O 0.76130 0.27552 0.24364
 Zr1477 Zr 0.76837 0.23387 0.27455
 Zr1478 Zr 0.75974 0.22299 0.23373
 Zr1479 Zr 0.75041 0.27449 0.26854
 Zr1480 Zr 0.72530 0.23750 0.25913
 O1481 O 0.76765 0.29627 0.27372
 O1482 O 0.71391 0.21298 0.25086
 O1483 O 0.74403 0.24831 0.27635
 O1484 O 0.74886 0.22220 0.25860
 O1485 O 0.77959 0.23332 0.24979
 O1486 O 0.77461 0.26042 0.26820
 C1487 C 0.70152 0.25380 0.22989
 C1488 C 0.73288 0.30148 0.24278
 C1489 C 0.74338 0.23480 0.19853
 O1490 O 0.74365 0.20001 0.23017
 O1491 O 0.77318 0.20050 0.24377
 O1492 O 0.77911 0.20764 0.27178
 C1493 C 0.77975 0.19695 0.25869
 O1494 O 0.78872 0.27827 0.22265
 Zr1495 Zr 0.78483 0.25989 0.24325
 O1496 O 0.79589 0.23460 0.27966
 O1497 O 0.78130 0.21628 0.21714
 O1498 O 0.80297 0.24790 0.22554
 O1499 O 0.79808 0.28299 0.25267
 O1500 O 0.80727 0.25060 0.25709
 C1501 C 0.80893 0.24111 0.27084
 O1502 O 0.75914 0.21648 0.29419
 O1503 O 0.72804 0.28264 0.28348
 O1504 O 0.76892 0.24588 0.29937
 O1505 O 0.75644 0.27350 0.29485
 O1506 O 0.70574 0.24999 0.27503
 O1507 O 0.72087 0.22193 0.28166
 C1508 C 0.76333 0.26138 0.30460
 H1509 H 0.71961 0.27126 0.25346
 H1510 H 0.74624 0.20976 0.26224
 H1511 H 0.78329 0.26580 0.27629
 H1512 H 0.77094 0.24955 0.21436
 H1513 H 0.70096 0.21342 0.25367
 H1514 H 0.74996 0.19225 0.22172
 H1515 H 0.77857 0.20438 0.21212
 H1516 H 0.81471 0.25386 0.22697
 H1517 H 0.69432 0.24349 0.27336
 H1518 H 0.73098 0.29449 0.28849
 H1519 H 0.76130 0.30413 0.28205
 H1520 H 0.81087 0.28189 0.24939
 H1521 H 0.70839 0.21749 0.28170
 H1522 H 0.76964 0.21323 0.30138
 H1523 H 0.74085 0.28333 0.20042
 H1524 H 0.80167 0.28066 0.22123
 Zr1525 Zr 0.76671 0.73602 0.72831
 O1526 O 0.75557 0.71934 0.70908
 O1527 O 0.79381 0.73626 0.72132
 O1528 O 0.76821 0.74800 0.70353
 O1529 O 0.76945 0.70241 0.75902
 O1530 O 0.75787 0.77647 0.70817
 O1531 O 0.77551 0.70903 0.73088
 O1532 O 0.80652 0.75482 0.74121
 O1533 O 0.77409 0.76261 0.73341
 O1534 O 0.77910 0.73604 0.75247
 O1535 O 0.74273 0.75097 0.72770
 O1536 O 0.74776 0.72507 0.74559
 Zr1537 Zr 0.74348 0.76774 0.77562
 Zr1538 Zr 0.75009 0.77721 0.73412
 Zr1539 Zr 0.76007 0.72656 0.76981
 Zr1540 Zr 0.78552 0.76252 0.75790
 O1541 O 0.74260 0.70548 0.77674
 O1542 O 0.79703 0.78641 0.74814
 O1543 O 0.76753 0.75276 0.77650
 O1544 O 0.76235 0.77845 0.75830
 O1545 O 0.73093 0.76787 0.75153
 O1546 O 0.73622 0.74122 0.77039
 C1547 C 0.80723 0.74449 0.72794
 C1548 C 0.77528 0.69825 0.74392
 C1549 C 0.76417 0.76401 0.69842
 O1550 O 0.76642 0.79977 0.72921
 O1551 O 0.73747 0.80020 0.74419
 O1552 O 0.73290 0.79402 0.77267
 C1553 C 0.73161 0.80426 0.75931
 O1554 O 0.71916 0.72232 0.72633
 Zr1555 Zr 0.72462 0.74129 0.74606
 O1556 O 0.71631 0.76810 0.78223
 O1557 O 0.72793 0.78392 0.71839
 O1558 O 0.70587 0.75316 0.72896
 O1559 O 0.71122 0.71897 0.75695
 O1560 O 0.70324 0.75184 0.76077
 C1561 C 0.70262 0.76182 0.77430
 O1562 O 0.75448 0.78536 0.79415
 O1563 O 0.78309 0.71818 0.78358
 O1564 O 0.74341 0.75633 0.80069
 O1565 O 0.75577 0.72860 0.79643
 O1566 O 0.80561 0.75007 0.77312
 O1567 O 0.79170 0.77873 0.77960
 C1568 C 0.74918 0.74098 0.80612
 H1569 H 0.79000 0.72845 0.75291
 H1570 H 0.76542 0.79093 0.76144
 H1571 H 0.72784 0.73632 0.77908
 H1572 H 0.73714 0.75040 0.71616
 H1573 H 0.81012 0.78567 0.75015
 H1574 H 0.75985 0.80742 0.72089
 H1575 H 0.73065 0.79562 0.71294
 H1576 H 0.69407 0.74760 0.73124
 H1577 H 0.81709 0.75617 0.77059
 H1578 H 0.78011 0.70661 0.78916
 H1579 H 0.74921 0.69773 0.78494
 H1580 H 0.69830 0.72038 0.75436
 H1581 H 0.80424 0.78290 0.77870
 H1582 H 0.74452 0.78920 0.80181
 H1583 H 0.76557 0.71540 0.70150
 H1584 H 0.70609 0.72025 0.72569
 Zr1585 Zr 0.23676 0.23161 0.77494
 O1586 O 0.24703 0.21503 0.79478
 O1587 O 0.20938 0.23227 0.78083
 O1588 O 0.23429 0.24395 0.79949
 O1589 O 0.23517 0.19760 0.74460
 O1590 O 0.24492 0.27223 0.79495
 O1591 O 0.22787 0.20475 0.77237
 O1592 O 0.19756 0.25059 0.76014
 O1593 O 0.22969 0.25821 0.76923
 O1594 O 0.22544 0.23143 0.75031
 O1595 O 0.26074 0.24627 0.77632
 O1596 O 0.25641 0.22015 0.75860
 Zr1597 Zr 0.26209 0.26234 0.72819
 Zr1598 Zr 0.25375 0.27250 0.76928
 Zr1599 Zr 0.24518 0.22143 0.73390
 Zr1600 Zr 0.21932 0.25790 0.74430
 O1601 O 0.26285 0.19998 0.72806
 O1602 O 0.20747 0.28202 0.75338
 O1603 O 0.23807 0.24762 0.72659
 O1604 O 0.24254 0.27352 0.74462
 O1605 O 0.27362 0.26267 0.75275
 O1606 O 0.26905 0.23580 0.73405
 C1607 C 0.19626 0.24046 0.77351
 C1608 C 0.22860 0.19379 0.75949
 C1609 C 0.23819 0.25995 0.80458
 O1610 O 0.23728 0.29531 0.77329
 O1611 O 0.26676 0.29524 0.75939
 O1612 O 0.27248 0.28856 0.73120
 C1613 C 0.27317 0.29903 0.74444
 O1614 O 0.28421 0.21747 0.77909
 Zr1615 Zr 0.27958 0.23608 0.75883
 O1616 O 0.28953 0.26207 0.72257
 O1617 O 0.27528 0.27920 0.78573
 O1618 O 0.29764 0.24813 0.77637
 O1619 O 0.29326 0.21331 0.74890
 O1620 O 0.30160 0.24588 0.74469
 C1621 C 0.30284 0.25561 0.73105
 O1622 O 0.25212 0.27992 0.70902
 O1623 O 0.22280 0.21319 0.71923
 O1624 O 0.26274 0.25072 0.70320
 O1625 O 0.25079 0.22294 0.70748
 O1626 O 0.19989 0.24555 0.72839
 O1627 O 0.21417 0.27391 0.72219
 C1628 C 0.25738 0.23525 0.69782
 H1629 H 0.21455 0.22397 0.74949
 H1630 H 0.23962 0.28599 0.74120
 H1631 H 0.27775 0.23065 0.72573
 H1632 H 0.26584 0.24580 0.78808
 H1633 H 0.19448 0.28142 0.75085
 H1634 H 0.24350 0.30300 0.78177
 H1635 H 0.27235 0.29100 0.79093
 H1636 H 0.30952 0.24241 0.77465
 H1637 H 0.18835 0.25186 0.73034
 H1638 H 0.22595 0.20147 0.71398
 H1639 H 0.25658 0.19218 0.71971
 H1640 H 0.30607 0.21455 0.75198
 H1641 H 0.20165 0.27835 0.72258
 H1642 H 0.26243 0.28347 0.70170
 H1643 H 0.23671 0.21133 0.80202
 H1644 H 0.29725 0.21535 0.78032
 Zr1645 Zr 0.26175 0.76409 0.27238
 O1646 O 0.25117 0.78097 0.29188
 O1647 O 0.28889 0.76296 0.27894
 O1648 O 0.26327 0.75193 0.29707
 O1649 O 0.26497 0.79780 0.24185
 O1650 O 0.25212 0.72387 0.29254
 O1651 O 0.27107 0.79081 0.26989
 O1652 O 0.30109 0.74412 0.25883
 O1653 O 0.26851 0.73731 0.26708
 O1654 O 0.27395 0.76382 0.24809
 O1655 O 0.23747 0.74990 0.27326
 O1656 O 0.24291 0.77575 0.25542
 Zr1657 Zr 0.23743 0.73338 0.22525
 Zr1658 Zr 0.24420 0.72348 0.26663
 Zr1659 Zr 0.25499 0.77401 0.23104
 Zr1660 Zr 0.27974 0.73717 0.24244
 O1661 O 0.23795 0.79568 0.22441
 O1662 O 0.29083 0.71290 0.25197
 O1663 O 0.26180 0.74760 0.22414
 O1664 O 0.25622 0.72201 0.24228
 O1665 O 0.22508 0.73351 0.24950
 O1666 O 0.23084 0.76011 0.23071
 C1667 C 0.30210 0.75439 0.27212
 C1668 C 0.27096 0.80168 0.25692
 C1669 C 0.25885 0.73609 0.30222
 O1670 O 0.26012 0.70044 0.27129
 O1671 O 0.23115 0.70088 0.25658
 O1672 O 0.22650 0.70735 0.22819
 C1673 C 0.22519 0.69704 0.24150
 O1674 O 0.21451 0.77917 0.27516
 Zr1675 Zr 0.21945 0.76027 0.25519
 O1676 O 0.21020 0.73404 0.21891
 O1677 O 0.22198 0.71734 0.28253
 O1678 O 0.20056 0.74876 0.27233
 O1679 O 0.20654 0.78319 0.24471
 O1680 O 0.19775 0.75074 0.24054
 C1681 C 0.19676 0.74092 0.22695
 O1682 O 0.24782 0.71555 0.20644
 O1683 O 0.27809 0.78171 0.21705
 O1684 O 0.23749 0.74492 0.20021
 O1685 O 0.25045 0.77224 0.20447
 O1686 O 0.29990 0.74907 0.22697
 O1687 O 0.28535 0.72083 0.22062
 C1688 C 0.24357 0.76011 0.19480
 H1689 H 0.28500 0.77107 0.24754
 H1690 H 0.25902 0.70946 0.23904
 H1691 H 0.22252 0.76535 0.22214
 H1692 H 0.23199 0.75059 0.28488
 H1693 H 0.30391 0.71322 0.24975
 H1694 H 0.25347 0.69294 0.27966
 H1695 H 0.22452 0.70555 0.28792
 H1696 H 0.18886 0.75470 0.27024
 H1697 H 0.31128 0.74263 0.22930
 H1698 H 0.27534 0.79341 0.21157
 H1699 H 0.24469 0.80326 0.21618
 H1700 H 0.19361 0.78221 0.24744
 H1701 H 0.29783 0.71632 0.22130
 H1702 H 0.23770 0.71209 0.19889
 H1703 H 0.26131 0.78456 0.29935
 H1704 H 0.20148 0.78158 0.27601
 Zr1705 Zr 0.24139 0.76403 0.72763
 O1706 O 0.25101 0.78038 0.70733
 O1707 O 0.21398 0.76280 0.72223
 O1708 O 0.23872 0.75127 0.70334
 O1709 O 0.23935 0.79852 0.75745
 O1710 O 0.25042 0.72333 0.70795
 O1711 O 0.23194 0.79080 0.72991
 O1712 O 0.20288 0.74448 0.74324
 O1713 O 0.23504 0.73744 0.73384
 O1714 O 0.23037 0.76447 0.75242
 O1715 O 0.26569 0.74970 0.72601
 O1716 O 0.26098 0.77603 0.74344
 Zr1717 Zr 0.26806 0.73439 0.77434
 Zr1718 Zr 0.25942 0.72349 0.73353
 Zr1719 Zr 0.25010 0.77500 0.76834
 Zr1720 Zr 0.22498 0.73802 0.75894
 O1721 O 0.26735 0.79678 0.77351
 O1722 O 0.21360 0.71350 0.75064
 O1723 O 0.24372 0.74882 0.77616
 O1724 O 0.24855 0.72271 0.75840
 O1725 O 0.27928 0.73383 0.74958
 O1726 O 0.27430 0.76093 0.76799
 C1727 C 0.20119 0.75435 0.72973
 C1728 C 0.23255 0.80199 0.74259
 C1729 C 0.24306 0.73531 0.69834
 O1730 O 0.24333 0.70051 0.72997
 O1731 O 0.27287 0.70100 0.74356
 O1732 O 0.27879 0.70814 0.77158
 C1733 C 0.27943 0.69745 0.75850
 O1734 O 0.28838 0.77879 0.72245
 Zr1735 Zr 0.28451 0.76041 0.74304
 O1736 O 0.29559 0.73510 0.77944
 O1737 O 0.28098 0.71679 0.71694
 O1738 O 0.30264 0.74842 0.72532
 O1739 O 0.29777 0.78350 0.75246
 O1740 O 0.30695 0.75111 0.75687
 C1741 C 0.30862 0.74161 0.77061
 O1742 O 0.25884 0.71700 0.79400
 O1743 O 0.22774 0.78316 0.78329
 O1744 O 0.26862 0.74639 0.79917
 O1745 O 0.25615 0.77402 0.79466
 O1746 O 0.20543 0.75047 0.77487
 O1747 O 0.22056 0.72242 0.78146
 C1748 C 0.26303 0.76189 0.80440
 H1749 H 0.21930 0.77177 0.75328
 H1750 H 0.24593 0.71027 0.76205
 H1751 H 0.28299 0.76631 0.77609
 H1752 H 0.27062 0.75007 0.71416
 H1753 H 0.20065 0.71394 0.75344
 H1754 H 0.24965 0.69275 0.72152
 H1755 H 0.27825 0.70489 0.71192
 H1756 H 0.31438 0.75438 0.72674
 H1757 H 0.19401 0.74397 0.77321
 H1758 H 0.23069 0.79501 0.78831
 H1759 H 0.26100 0.80465 0.78184
 H1760 H 0.31056 0.78241 0.74916
 H1761 H 0.20810 0.71794 0.78148
 H1762 H 0.26935 0.71374 0.80118
 H1763 H 0.24052 0.78384 0.70022
 H1764 H 0.30134 0.78118 0.72102
 Zr1765 Zr 0.26603 0.23607 0.22807
 O1766 O 0.25488 0.21941 0.20882
 O1767 O 0.29314 0.23629 0.22109
 O1768 O 0.26756 0.24806 0.20329
 O1769 O 0.26875 0.20245 0.25877
 O1770 O 0.25720 0.27652 0.20793
 O1771 O 0.27480 0.20907 0.23063
 O1772 O 0.30583 0.25485 0.24098
 O1773 O 0.27341 0.26265 0.23317
 O1774 O 0.27841 0.23608 0.25222
 O1775 O 0.24205 0.25103 0.22745
 O1776 O 0.24706 0.22513 0.24534
 Zr1777 Zr 0.24280 0.26779 0.27537
 Zr1778 Zr 0.24942 0.27726 0.23387
 Zr1779 Zr 0.25937 0.22660 0.26956
 Zr1780 Zr 0.28484 0.26256 0.25766
 O1781 O 0.24190 0.20552 0.27648
 O1782 O 0.29638 0.28644 0.24792
 O1783 O 0.26684 0.25280 0.27626
 O1784 O 0.26167 0.27849 0.25806
 O1785 O 0.23025 0.26792 0.25128
 O1786 O 0.23553 0.24127 0.27013
 C1787 C 0.30655 0.24451 0.22771
 C1788 C 0.27457 0.19829 0.24366
 C1789 C 0.26354 0.26406 0.19818
 O1790 O 0.26575 0.29981 0.22897
 O1791 O 0.23679 0.30026 0.24394
 O1792 O 0.23220 0.29406 0.27241
 C1793 C 0.23092 0.30430 0.25905
 O1794 O 0.21842 0.22242 0.22606
 Zr1795 Zr 0.22393 0.24135 0.24580
 O1796 O 0.21564 0.26813 0.28200
 O1797 O 0.22727 0.28397 0.21813
 O1798 O 0.20519 0.25327 0.22873
 O1799 O 0.21055 0.21900 0.25667
 O1800 O 0.20255 0.25188 0.26055
 C1801 C 0.20194 0.26185 0.27409
 O1802 O 0.25380 0.28541 0.29389
 O1803 O 0.28239 0.21822 0.28332
 O1804 O 0.24273 0.25638 0.30044
 O1805 O 0.25507 0.22865 0.29617
 O1806 O 0.30489 0.25008 0.27289
 O1807 O 0.29102 0.27878 0.27935
 C1808 C 0.24850 0.24103 0.30586
 H1809 H 0.28930 0.22848 0.25267
 H1810 H 0.26475 0.29098 0.26119
 H1811 H 0.22715 0.23637 0.27883
 H1812 H 0.23646 0.25046 0.21590
 H1813 H 0.30946 0.28569 0.24995
 H1814 H 0.25919 0.30747 0.22065
 H1815 H 0.23000 0.29568 0.21268
 H1816 H 0.19337 0.24775 0.23102
 H1817 H 0.31639 0.25614 0.27036
 H1818 H 0.27941 0.20665 0.28891
 H1819 H 0.24852 0.19777 0.28468
 H1820 H 0.19762 0.22043 0.25411
 H1821 H 0.30359 0.28288 0.27849
 H1822 H 0.24383 0.28926 0.30155
 H1823 H 0.26487 0.21545 0.20124
 H1824 H 0.20534 0.22038 0.22543
 Zr1825 Zr 0.73603 0.73156 0.27503
 O1826 O 0.74661 0.71498 0.29471
 O1827 O 0.70874 0.73215 0.28128
 O1828 O 0.73386 0.74386 0.29963
 O1829 O 0.73406 0.69763 0.24464
 O1830 O 0.74445 0.77214 0.29501
 O1831 O 0.72717 0.70468 0.27252
 O1832 O 0.69660 0.75052 0.26080
 O1833 O 0.72886 0.75818 0.26948
 O1834 O 0.72435 0.73143 0.25056
 O1835 O 0.76002 0.74624 0.27612
 O1836 O 0.75544 0.72016 0.25839
 Zr1837 Zr 0.76064 0.76243 0.22801
 Zr1838 Zr 0.75291 0.77248 0.26923
 Zr1839 Zr 0.74384 0.72150 0.23384
 Zr1840 Zr 0.71812 0.75792 0.24470
 O1841 O 0.76145 0.70011 0.22768
 O1842 O 0.70638 0.78199 0.25403
 O1843 O 0.73660 0.74771 0.22669
 O1844 O 0.74132 0.77356 0.24473
 O1845 O 0.77253 0.76270 0.25241
 O1846 O 0.76770 0.73588 0.23371
 C1847 C 0.69550 0.74034 0.27415
 C1848 C 0.72774 0.69375 0.25961
 C1849 C 0.73782 0.75985 0.30470
 O1850 O 0.73648 0.79527 0.27351
 O1851 O 0.76577 0.79525 0.25922
 O1852 O 0.77109 0.78864 0.23094
 C1853 C 0.77198 0.79907 0.24419
 O1854 O 0.78357 0.71749 0.27853
 Zr1855 Zr 0.77860 0.73611 0.25834
 O1856 O 0.78799 0.76220 0.22201
 O1857 O 0.77466 0.77915 0.28542
 O1858 O 0.79692 0.74817 0.27563
 O1859 O 0.79212 0.71334 0.24820
 O1860 O 0.80040 0.74592 0.24390
 C1861 C 0.80143 0.75568 0.23026
 O1862 O 0.75033 0.78004 0.20902
 O1863 O 0.72124 0.71326 0.21950
 O1864 O 0.76103 0.75085 0.20300
 O1865 O 0.74901 0.72311 0.20735
 O1866 O 0.69849 0.74560 0.22899
 O1867 O 0.71259 0.77403 0.22273
 C1868 C 0.75555 0.73542 0.19764
 H1869 H 0.71345 0.72396 0.24987
 H1870 H 0.73835 0.78604 0.24138
 H1871 H 0.77628 0.73076 0.22527
 H1872 H 0.76528 0.74575 0.28781
 H1873 H 0.69335 0.78138 0.25170
 H1874 H 0.74283 0.80295 0.28192
 H1875 H 0.77180 0.79094 0.29067
 H1876 H 0.80878 0.74246 0.27374
 H1877 H 0.68695 0.75185 0.23114
 H1878 H 0.72433 0.70157 0.21416
 H1879 H 0.75505 0.69232 0.21940
 H1880 H 0.80498 0.71459 0.25108
 H1881 H 0.70006 0.77842 0.22331
 H1882 H 0.76053 0.78362 0.20157
 H1883 H 0.73641 0.71124 0.30207
 H1884 H 0.79663 0.71537 0.27955
 Zr1885 Zr 0.76183 0.26309 0.77235
 O1886 O 0.75084 0.28001 0.79163
 O1887 O 0.78889 0.26218 0.77928
 O1888 O 0.76311 0.25107 0.79711
 O1889 O 0.76528 0.29667 0.74172
 O1890 O 0.75217 0.22293 0.79259
 O1891 O 0.77104 0.28985 0.76986
 O1892 O 0.80147 0.24332 0.75940
 O1893 O 0.76883 0.23633 0.76727
 O1894 O 0.77436 0.26278 0.74822
 O1895 O 0.73763 0.24876 0.77299
 O1896 O 0.74315 0.27455 0.75510
 Zr1897 Zr 0.73838 0.23199 0.72505
 Zr1898 Zr 0.74462 0.22235 0.76658
 Zr1899 Zr 0.75558 0.27276 0.73089
 Zr1900 Zr 0.78040 0.23614 0.74278
 O1901 O 0.73847 0.29429 0.72396
 O1902 O 0.79150 0.21199 0.75257
 O1903 O 0.76266 0.24637 0.72419
 O1904 O 0.75698 0.22083 0.74239
 O1905 O 0.72568 0.23216 0.74915
 O1906 O 0.73153 0.25870 0.73031
 C1907 C 0.80223 0.25366 0.77265
 C1908 C 0.77106 0.30066 0.75684
 C1909 C 0.75873 0.23523 0.80228
 O1910 O 0.76062 0.19944 0.77156
 O1911 O 0.73185 0.19963 0.75647
 O1912 O 0.72755 0.20591 0.72798
 C1913 C 0.72612 0.19566 0.74133
 O1914 O 0.71442 0.27788 0.77444
 Zr1915 Zr 0.71978 0.25890 0.75463
 O1916 O 0.71125 0.23241 0.71836
 O1917 O 0.72222 0.21615 0.78222
 O1918 O 0.70074 0.24734 0.77158
 O1919 O 0.70687 0.28168 0.74387
 O1920 O 0.69835 0.24914 0.73973
 C1921 C 0.69764 0.23922 0.72618
 O1922 O 0.74917 0.21415 0.70647
 O1923 O 0.77880 0.28056 0.71713
 O1924 O 0.73864 0.24343 0.69998
 O1925 O 0.75141 0.27083 0.70428
 O1926 O 0.80070 0.24808 0.72750
 O1927 O 0.78642 0.21972 0.72111
 C1928 C 0.74469 0.25864 0.69457
 H1929 H 0.78537 0.27010 0.74777
 H1930 H 0.75991 0.20827 0.73925
 H1931 H 0.72329 0.26384 0.72161
 H1932 H 0.73199 0.24947 0.78453
 H1933 H 0.80461 0.21239 0.75053
 H1934 H 0.75389 0.19194 0.77987
 H1935 H 0.72475 0.20440 0.78770
 H1936 H 0.68902 0.25317 0.76930
 H1937 H 0.81209 0.24170 0.73001
 H1938 H 0.77604 0.29221 0.71156
 H1939 H 0.74527 0.30187 0.71578
 H1940 H 0.69391 0.28062 0.74643
 H1941 H 0.79890 0.21527 0.72198
 H1942 H 0.73919 0.21057 0.69881
 H1943 H 0.76085 0.28370 0.79921
 H1944 H 0.70136 0.28019 0.77511
 N1945 N 0.44416 0.98150 0.33972
 C1946 C 0.45494 0.99542 0.34381
 N1947 N 0.45555 1.00982 0.33313
 N1948 N 0.44572 1.01023 0.31879
 C1949 C 0.43480 0.99632 0.31469
 N1950 N 0.43434 0.98192 0.32542
 C1951 C 0.46399 0.99565 0.36016
 C1952 C 0.47036 0.99600 0.37445
 C1953 C 0.47615 0.99686 0.39210
 N1954 N 0.49226 0.99020 0.39726
 N1955 N 0.49697 0.99078 0.41386
 C1956 C 0.48567 0.99798 0.42580
 N1957 N 0.46963 1.00461 0.42050
 N1958 N 0.46496 1.00405 0.40399
 N1959 N -0.04362 0.50997 0.83271
 C1960 C -0.04484 0.49601 0.84386
 N1961 N -0.05620 0.48242 0.84022
 N1962 N -0.06601 0.48275 0.82591
 C1963 C -0.06498 0.49673 0.81468
 N1964 N -0.05344 0.51028 0.81836
 C1965 C -0.03572 0.49639 0.86017
 C1966 C -0.02926 0.49685 0.87443
 C1967 C -0.02335 0.49785 0.89203
 N1968 N -0.03429 0.50549 0.90389
 N1969 N -0.02955 0.50610 0.92037
 C1970 C -0.01369 0.49908 0.92571
 N1971 N -0.00263 0.49144 0.91380
 N1972 N -0.00741 0.49081 0.89722
 N1973 N 0.03825 0.00824 0.83018
 C1974 C 0.04663 0.00693 0.84562
 N1975 N 0.06421 0.00238 0.84601
 N1976 N 0.07321 -0.00065 0.83146
 C1977 C 0.06498 0.00069 0.81593
 N1978 N 0.04728 0.00520 0.81559
 C1979 C 0.03732 0.01025 0.86156
 C1980 C 0.03101 0.01256 0.87573
 C1981 C 0.02562 0.01444 0.89344
 N1982 N 0.03799 0.01161 0.90586
 N1983 N 0.03337 0.01216 0.92239
 C1984 C 0.01622 0.01564 0.92721
 N1985 N 0.00377 0.01869 0.91475
 N1986 N 0.00842 0.01809 0.89810
 N1987 N 0.53844 0.50740 0.33048
 C1988 C 0.54680 0.50599 0.34592
 N1989 N 0.56437 0.50136 0.34630
 N1990 N 0.57336 0.49836 0.33175
 C1991 C 0.56515 0.49981 0.31621
 N1992 N 0.54747 0.50439 0.31588
 C1993 C 0.53750 0.50930 0.36186
 C1994 C 0.53121 0.51160 0.37604
 C1995 C 0.52585 0.51348 0.39375
 N1996 N 0.53823 0.51061 0.40615
 N1997 N 0.53363 0.51118 0.42269
 C1998 C 0.51649 0.51471 0.42753
 N1999 N 0.50404 0.51780 0.41509
 N2000 N 0.50866 0.51718 0.39844
 N2001 N 0.54292 0.50720 0.16621
 C2002 C 0.54370 0.49255 0.15586
 N2003 N 0.55470 0.47878 0.16020
 N2004 N 0.56457 0.47960 0.17445
 C2005 C 0.56395 0.49426 0.18486
 N2006 N 0.55280 0.50800 0.18050
 C2007 C 0.53467 0.49238 0.13951
 C2008 C 0.52835 0.49242 0.12519
 C2009 C 0.52271 0.49296 0.10750
 N2010 N 0.53384 0.50015 0.09562
 N2011 N 0.52933 0.50043 0.07907
 C2012 C 0.51351 0.49352 0.07370
 N2013 N 0.50226 0.48630 0.08562
 N2014 N 0.50682 0.48600 0.10227
 N2015 N 0.04255 1.00762 0.66596
 C2016 C 0.04335 0.99297 0.65562
 N2017 N 0.05439 0.97923 0.65996
 N2018 N 0.06429 0.98009 0.67419
 C2019 C 0.06365 0.99476 0.68458
 N2020 N 0.05246 1.00847 0.68023
 C2021 C 0.03428 0.99276 0.63928
 C2022 C 0.02793 0.99276 0.62498
 C2023 C 0.02225 0.99326 0.60729
 N2024 N 0.00637 0.98623 0.60210
 N2025 N 0.00180 0.98648 0.58545
 C2026 C 0.01301 0.99370 0.57350
 N2027 N 0.02881 1.00068 0.57885
 N2028 N 0.03335 1.00045 0.59539
 N2029 N -0.04027 0.50447 0.66802
 C2030 C -0.04897 0.50280 0.65278
 N2031 N -0.06668 0.49891 0.65288
 N2032 N -0.07547 0.49685 0.66768
 C2033 C -0.06690 0.49854 0.68302
 N2034 N -0.04909 0.50240 0.68287
 C2035 C -0.03986 0.50498 0.63656
 C2036 C -0.03369 0.50632 0.62222
 C2037 C -0.02842 0.50710 0.60439
 N2038 N -0.04046 0.50232 0.59226
 N2039 N -0.03602 0.50243 0.57567
 C2040 C -0.01937 0.50736 0.57050
 N2041 N -0.00725 0.51228 0.58267
 N2042 N -0.01172 0.51215 0.59937
 N2043 N 0.43250 -0.00115 0.15251
 C2044 C 0.45023 0.00266 0.15248
 N2045 N 0.45888 0.00424 0.16776
 N2046 N 0.45000 0.00216 0.18257
 C2047 C 0.43217 -0.00162 0.18264
 N2048 N 0.42365 -0.00323 0.16728
 C2049 C 0.45941 0.00485 0.13631
 C2050 C 0.46566 0.00622 0.12200
 C2051 C 0.47100 0.00704 0.10419
 N2052 N 0.48778 0.01194 0.09927
 N2053 N 0.49233 0.01208 0.08258
 C2054 C 0.48022 0.00733 0.07035
 N2055 N 0.46349 0.00256 0.07542
 N2056 N 0.45897 0.00244 0.09199
 N2057 N 0.33441 0.43035 0.00853
 C2058 C 0.35015 0.42150 0.01075
 N2059 N 0.35019 0.40332 0.01080
 N2060 N 0.33498 0.39428 0.00876
 C2061 C 0.31914 0.40305 0.00652
 N2062 N 0.31919 0.42130 0.00650
 C2063 C 0.36672 0.43125 0.01208
 C2064 C 0.38067 0.43941 0.01253
 C2065 C 0.39729 0.44915 0.01199
 N2066 N 0.40251 0.45702 -0.00291
 N2067 N 0.41807 0.46561 -0.00385
 C2068 C 0.42902 0.46669 0.01007
 N2069 N 0.42374 0.45885 0.02505
 N2070 N 0.40813 0.45021 0.02599
 N2071 N -0.16608 0.93026 0.50857
 C2072 C -0.15032 0.92143 0.51077
 N2073 N -0.15027 0.90324 0.51087
 N2074 N -0.16549 0.89419 0.50889
 C2075 C -0.18134 0.90295 0.50666
 N2076 N -0.18130 0.92120 0.50659
 C2077 C -0.13375 0.93118 0.51205
 C2078 C -0.11980 0.93934 0.51246
 C2079 C -0.10318 0.94907 0.51188
 N2080 N -0.09236 0.95024 0.52589
 N2081 N -0.07674 0.95886 0.52492
 C2082 C -0.07143 0.96660 0.50990
 N2083 N -0.08235 0.96542 0.49597
 N2084 N -0.09792 0.95684 0.49694
 N2085 N -0.16414 0.07948 0.97714
 C2086 C -0.15145 0.08091 0.98953
 N2087 N -0.15514 0.09068 1.00384
 N2088 N -0.17096 0.09883 1.00569
 C2089 C -0.18378 0.09751 0.99333
 N2090 N -0.17997 0.08764 0.97899
 C2091 C -0.13444 0.07183 0.98789
 C2092 C -0.12012 0.06420 0.98736
 C2093 C -0.10310 0.05501 0.98794
 N2094 N -0.09171 0.05502 0.97424
 N2095 N -0.07579 0.04681 0.97524
 C2096 C -0.07075 0.03834 0.98999
 N2097 N -0.08222 0.03837 1.00360
 N2098 N -0.09808 0.04654 1.00259
 N2099 N 0.33638 0.57906 0.47720
 C2100 C 0.34904 0.58046 0.48963
 N2101 N 0.34535 0.59031 0.50390
 N2102 N 0.32957 0.59853 0.50568
 C2103 C 0.31681 0.59721 0.49328
 N2104 N 0.32058 0.58730 0.47898
 C2105 C 0.36602 0.57130 0.48806
 C2106 C 0.38031 0.56360 0.48756
 C2107 C 0.39729 0.55435 0.48817
 N2108 N 0.40866 0.55426 0.47447
 N2109 N 0.42455 0.54600 0.47548
 C2110 C 0.42958 0.53757 0.49025
 N2111 N 0.41812 0.53770 0.50387
 N2112 N 0.40229 0.54592 0.50285
 N2113 N 0.16086 0.56821 0.50577
 C2114 C 0.14504 0.57695 0.50797
 N2115 N 0.14493 0.59512 0.50840
 N2116 N 0.16014 0.60426 0.50675
 C2117 C 0.17606 0.59560 0.50453
 N2118 N 0.17608 0.57736 0.50412
 C2119 C 0.12849 0.56712 0.50902
 C2120 C 0.11454 0.55894 0.50933
 C2121 C 0.09791 0.54921 0.50877
 N2122 N 0.08675 0.54862 0.52262
 N2123 N 0.07113 0.54001 0.52170
 C2124 C 0.06615 0.53171 0.50688
 N2125 N 0.07740 0.53231 0.49310
 N2126 N 0.09297 0.54089 0.49403
 N2127 N 0.66094 0.06766 0.00602
 C2128 C 0.64513 0.07640 0.00829
 N2129 N 0.64503 0.09457 0.00880
 N2130 N 0.66025 0.10371 0.00715
 C2131 C 0.67616 0.09505 0.00485
 N2132 N 0.67617 0.07681 0.00437
 C2133 C 0.62857 0.06658 0.00933
 C2134 C 0.61461 0.05842 0.00962
 C2135 C 0.59796 0.04873 0.00904
 N2136 N 0.58675 0.04822 0.02285
 N2137 N 0.57110 0.03965 0.02189
 C2138 C 0.56615 0.03133 0.00707
 N2139 N 0.57746 0.03185 -0.00666
 N2140 N 0.59306 0.04038 -0.00570
 N2141 N 0.66176 0.92483 0.47704
 C2142 C 0.64886 0.92440 0.48937
 N2143 N 0.65162 0.91434 0.50368
 N2144 N 0.66675 0.90498 0.50560
 C2145 C 0.67975 0.90535 0.49330
 N2146 N 0.67690 0.91547 0.47896
 C2147 C 0.63261 0.93475 0.48761
 C2148 C 0.61890 0.94343 0.48691
 C2149 C 0.60253 0.95376 0.48724
 N2150 N 0.59763 0.96233 0.50191
 N2151 N 0.58219 0.97130 0.50275
 C2152 C 0.57105 0.97209 0.48896
 N2153 N 0.57601 0.96358 0.47419
 N2154 N 0.59150 0.95455 0.47335
 N2155 N 0.16220 0.42498 0.97672
 C2156 C 0.14929 0.42451 0.98904
 N2157 N 0.15204 0.41445 1.00335
 N2158 N 0.16718 0.40512 1.00528
 C2159 C 0.18019 0.40551 0.99300
 N2160 N 0.17735 0.41563 0.97866
 C2161 C 0.13302 0.43485 0.98727
 C2162 C 0.11930 0.44351 0.98658
 C2163 C 0.10293 0.45383 0.98697
 N2164 N 0.09194 0.45478 0.97306
 N2165 N 0.07645 0.46381 0.97395
 C2166 C 0.07146 0.47217 0.98879
 N2167 N 0.08256 0.47121 1.00261
 N2168 N 0.09799 0.46224 1.00171
 N2169 N -0.00348 0.33437 0.43777
 C2170 C -0.01761 0.34518 0.43426
 N2171 N -0.02960 0.34015 0.42212
 N2172 N -0.02741 0.32475 0.41366
 C2173 C -0.01311 0.31395 0.41699
 N2174 N -0.00128 0.31902 0.42930
 C2175 C -0.01872 0.36241 0.44213
 C2176 C -0.01849 0.37704 0.44856
 C2177 C -0.01700 0.39442 0.45604
 N2178 N -0.02500 0.40879 0.44858
 N2179 N -0.02261 0.42516 0.45500
 C2180 C -0.01201 0.42765 0.46898
 N2181 N -0.00403 0.41322 0.47641
 N2182 N -0.00644 0.39686 0.47000
 N2183 N 0.49657 -0.16523 -0.06324
 C2184 C 0.48234 -0.15450 -0.06661
 N2185 N 0.47032 -0.15953 -0.07871
 N2186 N 0.47257 -0.17486 -0.08728
 C2187 C 0.48697 -0.18558 -0.08409
 N2188 N 0.49883 -0.18051 -0.07181
 C2189 C 0.48114 -0.13734 -0.05859
 C2190 C 0.48130 -0.12278 -0.05203
 C2191 C 0.48273 -0.10545 -0.04441
 N2192 N 0.47484 -0.09102 -0.05187
 N2193 N 0.47722 -0.07469 -0.04534
 C2194 C 0.48769 -0.07231 -0.03125
 N2195 N 0.49555 -0.08681 -0.02382
 N2196 N 0.49316 -0.10312 -0.03034
 N2197 N 0.01210 -0.14674 1.08265
 C2198 C 0.01048 -0.14726 1.06529
 N2199 N 0.00728 -0.16311 1.05738
 N2200 N 0.00571 -0.17806 1.06663
 C2201 C 0.00721 -0.17761 1.08408
 N2202 N 0.01052 -0.16167 1.09188
 C2203 C 0.01094 -0.13100 1.05570
 C2204 C 0.01081 -0.11689 1.04830
 C2205 C 0.01008 -0.09972 1.04031
 N2206 N -0.00023 -0.09702 1.02620
 N2207 N -0.00190 -0.08067 1.01950
 C2208 C 0.00658 -0.06652 1.02679
 N2209 N 0.01692 -0.06929 1.04090
 N2210 N 0.01860 -0.08564 1.04759
 N2211 N 0.50794 0.33639 0.55767
 C2212 C 0.51193 0.35202 0.56563
 N2213 N 0.51448 0.35222 0.58288
 N2214 N 0.51303 0.33718 0.59197
 C2215 C 0.50892 0.32146 0.58413
 N2216 N 0.50650 0.32133 0.56678
 C2217 C 0.51217 0.36842 0.55623
 C2218 C 0.51184 0.38259 0.54894
 C2219 C 0.51089 0.39977 0.54100
 N2220 N 0.51934 0.41392 0.54824
 N2221 N 0.51753 0.43024 0.54153
 C2222 C 0.50714 0.43292 0.52744
 N2223 N 0.49872 0.41871 0.52019
 N2224 N 0.50053 0.40238 0.52691
 N2225 N 0.49748 1.16627 0.56504
 C2226 C 0.48338 1.15534 0.56793
 N2227 N 0.47057 1.16033 0.57938
 N2228 N 0.47190 1.17586 0.58776
 C2229 C 0.48612 1.18682 0.58503
 N2230 N 0.49882 1.18175 0.57343
 C2231 C 0.48288 1.13821 0.55981
 C2232 C 0.48354 1.12379 0.55298
 C2233 C 0.48547 1.10675 0.54485
 N2234 N 0.47758 1.09201 0.55163
 N2235 N 0.48024 1.07598 0.54448
 C2236 C 0.49095 1.07421 0.53041
 N2237 N 0.49882 1.08901 0.52367
 N2238 N 0.49615 1.10502 0.53082
 N2239 N 0.00025 0.66603 1.06742
 C2240 C -0.01414 0.65528 1.06955
 N2241 N -0.02761 0.66054 1.08016
 N2242 N -0.02665 0.67614 1.08847
 C2243 C -0.01218 0.68693 1.08647
 N2244 N 0.00120 0.68159 1.07573
 C2245 C -0.01451 0.63822 1.06130
 C2246 C -0.01392 0.62385 1.05435
 C2247 C -0.01223 0.60688 1.04604
 N2248 N -0.02042 0.59221 1.05262
 N2249 N -0.01812 0.57625 1.04522
 C2250 C -0.00748 0.57449 1.03109
 N2251 N 0.00068 0.58922 1.02456
 N2252 N -0.00163 0.60517 1.03195
 N2253 N 0.51358 0.66498 -0.06095
 C2254 C 0.51775 0.64956 -0.06928
 N2255 N 0.52129 0.64997 -0.08638
 N2256 N 0.52058 0.66540 -0.09496
 C2257 C 0.51623 0.68091 -0.08674
 N2258 N 0.51287 0.68041 -0.06954
 C2259 C 0.51687 0.63282 -0.06049
 C2260 C 0.51546 0.61859 -0.05344
 C2261 C 0.51316 0.60158 -0.04541
 N2262 N 0.52138 0.58684 -0.05195
 N2263 N 0.51867 0.57083 -0.04486
 C2264 C 0.50757 0.56909 -0.03108
 N2265 N 0.49935 0.58390 -0.02459
 N2266 N 0.50207 0.59990 -0.03168
 N2267 N 0.01380 1.16466 0.43880
 C2268 C 0.01752 1.14925 0.43026
 N2269 N 0.02060 1.14976 0.41307
 N2270 N 0.01984 1.16526 0.40463
 C2271 C 0.01588 1.18079 0.41303
 N2272 N 0.01305 1.18016 0.43034
 C2273 C 0.01666 1.13246 0.43894
 C2274 C 0.01524 1.11821 0.44596
 C2275 C 0.01289 1.10121 0.45398
 N2276 N 0.02107 1.08643 0.44747
 N2277 N 0.01833 1.07044 0.45459
 C2278 C 0.00723 1.06875 0.46837
 N2279 N -0.00096 1.08359 0.47484
 N2280 N 0.00179 1.09957 0.46772
 N2281 N 0.73180 0.69525 0.91086
 C2282 C 0.74568 0.70610 0.90675
 N2283 N 0.76004 0.70674 0.91741
 N2284 N 0.76046 0.69688 0.93176
 C2285 C 0.74661 0.68588 0.93588
 N2286 N 0.73223 0.68540 0.92517
 C2287 C 0.74593 0.71514 0.89037
 C2288 C 0.74629 0.72149 0.87606
 C2289 C 0.74719 0.72723 0.85838
 N2290 N 0.75447 0.71602 0.84656
 N2291 N 0.75505 0.72062 0.83003
 C2292 C 0.74836 0.73662 0.82462
 N2293 N 0.74107 0.74795 0.83648
 N2294 N 0.74047 0.74330 0.85312
 N2295 N 0.25956 0.20657 0.41704
 C2296 C 0.24515 0.20601 0.40643
 N2297 N 0.23127 0.19518 0.41056
 N2298 N 0.23174 0.18526 0.42483
 C2299 C 0.24616 0.18567 0.43549
 N2300 N 0.26002 0.19665 0.43135
 C2301 C 0.24536 0.21510 0.39009
 C2302 C 0.24569 0.22149 0.37579
 C2303 C 0.24657 0.22724 0.35812
 N2304 N 0.23983 0.24332 0.35287
 N2305 N 0.24042 0.24798 0.33624
 C2306 C 0.24770 0.23665 0.32436
 N2307 N 0.25439 0.22065 0.32975
 N2308 N 0.25383 0.21603 0.34628
 N2309 N 0.75136 0.31438 0.40408
 C2310 C 0.75593 0.29678 0.40452
 N2311 N 0.75733 0.28844 0.41999
 N2312 N 0.75435 0.29752 0.43456
 C2313 C 0.74982 0.31523 0.43417
 N2314 N 0.74839 0.32343 0.41860
 C2315 C 0.75916 0.28742 0.38860
 C2316 C 0.76138 0.28106 0.37443
 C2317 C 0.76314 0.27563 0.35673
 N2318 N 0.76734 0.25852 0.35211
 N2319 N 0.76797 0.25384 0.33547
 C2320 C 0.76439 0.26615 0.32299
 N2321 N 0.76034 0.28321 0.32776
 N2322 N 0.75976 0.28786 0.34428
 N2323 N 0.25101 0.81483 0.90389
 C2324 C 0.25562 0.79724 0.90434
 N2325 N 0.25707 0.78891 0.91982
 N2326 N 0.25409 0.79800 0.93439
 C2327 C 0.24952 0.81570 0.93399
 N2328 N 0.24804 0.82388 0.91842
 C2329 C 0.25885 0.78787 0.88842
 C2330 C 0.26107 0.78152 0.87425
 C2331 C 0.26283 0.77610 0.85654
 N2332 N 0.26700 0.75899 0.85191
 N2333 N 0.26763 0.75432 0.83527
 C2334 C 0.26409 0.76665 0.82279
 N2335 N 0.26008 0.78372 0.82758
 N2336 N 0.25950 0.78835 0.84410
 N2337 N 0.22803 0.80713 0.09042
 C2338 C 0.24139 0.79546 0.09428
 N2339 N 0.25558 0.79402 0.08340
 N2340 N 0.25633 0.80391 0.06908
 C2341 C 0.24302 0.81575 0.06518
 N2342 N 0.22880 0.81701 0.07614
 C2343 C 0.24131 0.78631 0.11060
 C2344 C 0.24142 0.77989 0.12489
 C2345 C 0.24206 0.77409 0.14257
 N2346 N 0.24944 0.78508 0.15443
 N2347 N 0.24983 0.78041 0.17095
 C2348 C 0.24284 0.76458 0.17631
 N2349 N 0.23542 0.75349 0.16441
 N2350 N 0.23501 0.75820 0.14778
 N2351 N 0.72891 0.30590 0.59042
 C2352 C 0.74233 0.29427 0.59417
 N2353 N 0.75649 0.29298 0.58324
 N2354 N 0.75715 0.30297 0.56898
 C2355 C 0.74376 0.31478 0.56520
 N2356 N 0.72958 0.31589 0.57621
 C2357 C 0.74237 0.28502 0.61044
 C2358 C 0.74257 0.27852 0.62470
 C2359 C 0.74330 0.27264 0.64234
 N2360 N 0.75083 0.28352 0.65420
 N2361 N 0.75123 0.27883 0.67071
 C2362 C 0.74409 0.26307 0.67607
 N2363 N 0.73653 0.25206 0.66418
 N2364 N 0.73612 0.25680 0.64756
 N2365 N 0.25460 0.20965 0.58198
 C2366 C 0.25308 0.20101 0.59730
 N2367 N 0.24915 0.18329 0.59738
 N2368 N 0.24692 0.17442 0.58266
 C2369 C 0.24848 0.18292 0.56725
 N2370 N 0.25236 0.20074 0.56722
 C2371 C 0.25546 0.21021 0.61342
 C2372 C 0.25700 0.21642 0.62771
 C2373 C 0.25801 0.22168 0.64550
 N2374 N 0.25382 0.20947 0.65773
 N2375 N 0.25401 0.21392 0.67430
 C2376 C 0.25845 0.23075 0.67936
 N2377 N 0.26280 0.24304 0.66710
 N2378 N 0.26259 0.23856 0.65041
 N2379 N 0.74889 0.68307 0.09719
 C2380 C 0.75226 0.70090 0.09711
 N2381 N 0.75352 0.70958 0.08180
 N2382 N 0.75157 0.70060 0.06704
 C2383 C 0.74826 0.68264 0.06703
 N2384 N 0.74695 0.67413 0.08247
 C2385 C 0.75429 0.71018 0.11324
 C2386 C 0.75553 0.71646 0.12753
 C2387 C 0.75621 0.72180 0.14532
 N2388 N 0.76134 0.73851 0.15027
 N2389 N 0.76146 0.74302 0.16695
 C2390 C 0.75646 0.73093 0.17917
 N2391 N 0.75144 0.71428 0.17408
 N2392 N 0.75134 0.70981 0.15751
 N2393 N 0.17946 0.58499 0.24106
 C2394 C 0.17064 0.60078 0.23890
 N2395 N 0.15248 0.60081 0.23877
 N2396 N 0.14344 0.58556 0.24067
 C2397 C 0.15219 0.56967 0.24285
 N2398 N 0.17041 0.56973 0.24295
 C2399 C 0.18039 0.61737 0.23768
 C2400 C 0.18857 0.63133 0.23729
 C2401 C 0.19835 0.64795 0.23787
 N2402 N 0.20634 0.65302 0.25273
 N2403 N 0.21502 0.66854 0.25368
 C2404 C 0.21608 0.67961 0.23981
 N2405 N 0.20811 0.67449 0.22486
 N2406 N 0.19939 0.65891 0.22392
 N2407 N 0.68042 0.08355 0.74106
 C2408 C 0.67165 0.09937 0.73902
 N2409 N 0.65349 0.09948 0.73911
 N2410 N 0.64441 0.08426 0.74111
 C2411 C 0.65310 0.06831 0.74317
 N2412 N 0.67134 0.06832 0.74305
 C2413 C 0.68145 0.11593 0.73769
 C2414 C 0.68965 0.12988 0.73724
 C2415 C 0.69943 0.14649 0.73776
 N2416 N 0.70732 0.15165 0.75264
 N2417 N 0.71597 0.16719 0.75356
 C2418 C 0.71710 0.17819 0.73964
 N2419 N 0.70924 0.17298 0.72468
 N2420 N 0.70054 0.15738 0.72376
 N2421 N 0.84167 0.09537 0.24668
 C2422 C 0.83181 0.09890 0.26098
 N2423 N 0.83034 0.08607 0.27328
 N2424 N 0.83853 0.07024 0.27134
 C2425 C 0.84845 0.06663 0.25701
 N2426 N 0.84985 0.07957 0.24474
 C2427 C 0.82264 0.11587 0.26268
 C2428 C 0.81491 0.13015 0.26323
 C2429 C 0.80559 0.14711 0.26262
 N2430 N 0.79723 0.15210 0.24791
 N2431 N 0.78893 0.16790 0.24686
 C2432 C 0.78865 0.17934 0.26048
 N2433 N 0.79701 0.17432 0.27528
 N2434 N 0.80535 0.15846 0.27632
 N2435 N 0.34116 0.59566 0.74675
 C2436 C 0.33131 0.59930 0.76104
 N2437 N 0.32982 0.58655 0.77343
 N2438 N 0.33800 0.57071 0.77158
 C2439 C 0.34791 0.56698 0.75727
 N2440 N 0.34932 0.57983 0.74491
 C2441 C 0.32217 0.61630 0.76265
 C2442 C 0.31448 0.63060 0.76314
 C2443 C 0.30520 0.64758 0.76248
 N2444 N 0.29691 0.65259 0.74774
 N2445 N 0.28864 0.66841 0.74667
 C2446 C 0.28831 0.67984 0.76030
 N2447 N 0.29659 0.67480 0.77513
 N2448 N 0.30491 0.65892 0.77620
 N2449 N 0.31842 0.41137 0.74405
 C2450 C 0.32721 0.39557 0.74188
 N2451 N 0.34536 0.39552 0.74156
 N2452 N 0.35443 0.41077 0.74332
 C2453 C 0.34574 0.42670 0.74552
 N2454 N 0.32749 0.42663 0.74580
 C2455 C 0.31745 0.37898 0.74075
 C2456 C 0.30930 0.36501 0.74039
 C2457 C 0.29959 0.34835 0.74092
 N2458 N 0.29108 0.34345 0.75560
 N2459 N 0.28251 0.32785 0.75651
 C2460 C 0.28210 0.31655 0.74278
 N2461 N 0.29059 0.32151 0.72802
 N2462 N 0.29919 0.33715 0.72711
 N2463 N 0.81818 0.91110 0.24358
 C2464 C 0.82673 0.89518 0.24126
 N2465 N 0.84488 0.89488 0.24073
 N2466 N 0.85417 0.91000 0.24241
 C2467 C 0.84569 0.92602 0.24476
 N2468 N 0.82748 0.92623 0.24526
 C2469 C 0.81674 0.87872 0.24020
 C2470 C 0.80844 0.86484 0.23990
 C2471 C 0.79858 0.84827 0.24048
 N2472 N 0.79794 0.83712 0.22665
 N2473 N 0.78926 0.82152 0.22762
 C2474 C 0.78094 0.81657 0.24247
 N2475 N 0.78159 0.82782 0.25622
 N2476 N 0.79023 0.84337 0.25525
 N2477 N 0.67494 0.91254 0.77238
 C2478 C 0.67467 0.89961 0.76009
 N2479 N 0.66474 0.90231 0.74572
 N2480 N 0.65534 0.91741 0.74370
 C2481 C 0.65551 0.93047 0.75596
 N2482 N 0.66553 0.92765 0.77036
 C2483 C 0.68507 0.88337 0.76195
 C2484 C 0.69376 0.86966 0.76273
 C2485 C 0.70410 0.85328 0.76248
 N2486 N 0.70496 0.84232 0.77645
 N2487 N 0.71400 0.82682 0.77570
 C2488 C 0.72247 0.82178 0.76093
 N2489 N 0.72162 0.83285 0.74705
 N2490 N 0.71263 0.84829 0.74781
 N2491 N 0.16395 0.40243 0.24565
 C2492 C 0.17397 0.39967 0.25996
 N2493 N 0.17433 0.41256 0.27229
 N2494 N 0.16494 0.42769 0.27036
 C2495 C 0.15485 0.43055 0.25602
 N2496 N 0.15456 0.41756 0.24373
 C2497 C 0.18434 0.38341 0.26174
 C2498 C 0.19303 0.36969 0.26248
 C2499 C 0.20338 0.35331 0.26222
 N2500 N 0.21199 0.34837 0.24758
 N2501 N 0.22099 0.33293 0.24682
 C2502 C 0.22177 0.32182 0.26067
 N2503 N 0.21321 0.32681 0.27541
 N2504 N 0.20416 0.34231 0.27617
 N2505 N 0.09115 0.22018 0.82803
 C2506 C 0.09612 0.23208 0.81574
 N2507 N 0.08532 0.24620 0.81215
 N2508 N 0.07002 0.24848 0.82069
 C2509 C 0.06501 0.23674 0.83316
 N2510 N 0.07580 0.22245 0.83656
 C2511 C 0.11330 0.23091 0.80779
 C2512 C 0.12789 0.23113 0.80128
 C2513 C 0.14523 0.23265 0.79372
 N2514 N 0.14762 0.24316 0.77969
 N2515 N 0.16394 0.24564 0.77323
 C2516 C 0.17839 0.23778 0.78070
 N2517 N 0.17596 0.22723 0.79476
 N2518 N 0.15962 0.22476 0.80122
 N2519 N 0.59080 0.71976 0.32953
 C2520 C 0.59579 0.73165 0.31725
 N2521 N 0.58496 0.74574 0.31360
 N2522 N 0.56963 0.74799 0.32207
 C2523 C 0.56460 0.73626 0.33453
 N2524 N 0.57542 0.72200 0.33801
 C2525 C 0.61297 0.73049 0.30928
 C2526 C 0.62751 0.73075 0.30269
 C2527 C 0.64476 0.73234 0.29496
 N2528 N 0.64694 0.74289 0.28092
 N2529 N 0.66317 0.74543 0.27428
 C2530 C 0.67774 0.73760 0.28156
 N2531 N 0.67551 0.72701 0.29563
 N2532 N 0.65926 0.72448 0.30228
 N2533 N 0.58727 0.25604 0.19238
 C2534 C 0.60291 0.25969 0.18425
 N2535 N 0.60304 0.26202 0.16696
 N2536 N 0.58795 0.26069 0.15801
 C2537 C 0.57222 0.25694 0.16603
 N2538 N 0.57216 0.25472 0.18341
 C2539 C 0.61932 0.25996 0.19355
 C2540 C 0.63347 0.25971 0.20082
 C2541 C 0.65061 0.25892 0.20879
 N2542 N 0.66466 0.26761 0.20163
 N2543 N 0.68093 0.26605 0.20844
 C2544 C 0.68364 0.25567 0.22257
 N2545 N 0.66951 0.24702 0.22974
 N2546 N 0.65324 0.24858 0.22292
 N2547 N 0.10272 0.76268 0.66686
 C2548 C 0.10258 0.76030 0.68414
 N2549 N 0.08696 0.75652 0.69224
 N2550 N 0.07187 0.75514 0.68324
 C2551 C 0.07194 0.75740 0.66587
 N2552 N 0.08765 0.76128 0.65788
 C2553 C 0.11898 0.76061 0.69346
 C2554 C 0.13312 0.76037 0.70074
 C2555 C 0.15026 0.75958 0.70871
 N2556 N 0.15289 0.74921 0.72281
 N2557 N 0.16917 0.74761 0.72961
 C2558 C 0.18330 0.75626 0.72244
 N2559 N 0.18059 0.76666 0.70833
 N2560 N 0.16432 0.76826 0.70154
 N2561 N 0.91628 0.74853 0.68408
 C2562 C 0.90580 0.73390 0.68233
 N2563 N 0.91127 0.72026 0.67203
 N2564 N 0.92681 0.72130 0.66364
 C2565 C 0.93735 0.73606 0.66519
 N2566 N 0.93177 0.74957 0.67568
 C2567 C 0.88871 0.73353 0.69053
 C2568 C 0.87430 0.73425 0.69739
 C2569 C 0.85727 0.73619 0.70553
 N2570 N 0.84259 0.72820 0.69883
 N2571 N 0.82657 0.73084 0.70599
 C2572 C 0.82475 0.74164 0.71998
 N2573 N 0.83950 0.74961 0.72663
 N2574 N 0.85550 0.74697 0.71948
 N2575 N 0.41652 0.24744 0.18575
 C2576 C 0.40542 0.23350 0.18278
 N2577 N 0.41033 0.22062 0.17136
 N2578 N 0.42593 0.22176 0.16307
 C2579 C 0.43706 0.23583 0.16589
 N2580 N 0.43207 0.24857 0.17747
 C2581 C 0.38822 0.23320 0.19078
 C2582 C 0.37375 0.23400 0.19750
 C2583 C 0.35667 0.23605 0.20551
 N2584 N 0.34199 0.22812 0.19874
 N2585 N 0.32594 0.23083 0.20582
 C2586 C 0.32409 0.24164 0.21980
 N2587 N 0.33883 0.24956 0.22652
 N2588 N 0.35486 0.24684 0.21945
 N2589 N 0.40045 0.77028 0.33464
 C2590 C 0.40024 0.76632 0.31762
 N2591 N 0.41572 0.76183 0.30955
 N2592 N 0.43100 0.76121 0.31831
 C2593 C 0.43129 0.76499 0.33544
 N2594 N 0.41573 0.76965 0.34339
 C2595 C 0.38363 0.76544 0.30870
 C2596 C 0.36943 0.76413 0.30164
 C2597 C 0.35237 0.76205 0.29377
 N2598 N 0.35042 0.75102 0.28004
 N2599 N 0.33433 0.74851 0.27314
 C2600 C 0.31970 0.75686 0.27985
 N2601 N 0.32171 0.76788 0.29362
 N2602 N 0.33780 0.77039 0.30051
 N2603 N 0.90064 0.27050 0.83530
 C2604 C 0.90021 0.26665 0.81827
 N2605 N 0.91562 0.26239 0.80995
 N2606 N 0.93105 0.26189 0.81849
 C2607 C 0.93155 0.26555 0.83564
 N2608 N 0.91606 0.26998 0.84384
 C2609 C 0.88349 0.26562 0.80955
 C2610 C 0.86927 0.26414 0.80258
 C2611 C 0.85224 0.26182 0.79469
 N2612 N 0.85050 0.25073 0.78097
 N2613 N 0.83448 0.24805 0.77397
 C2614 C 0.81973 0.25629 0.78055
 N2615 N 0.82154 0.26737 0.79431
 N2616 N 0.83755 0.27006 0.80130
 N2617 N 0.54041 1.00932 0.66677
 C2618 C 0.54954 1.01188 0.65184
 N2619 N 0.56769 1.01168 0.65213
 N2620 N 0.57646 1.00907 0.66684
 C2621 C 0.56745 1.00649 0.68186
 N2622 N 0.54922 1.00671 0.68152
 C2623 C 0.54040 1.01403 0.63566
 C2624 C 0.53406 1.01538 0.62141
 C2625 C 0.52842 1.01621 0.60371
 N2626 N 0.54070 1.01319 0.59119
 N2627 N 0.53585 1.01286 0.57472
 C2628 C 0.51852 1.01561 0.57009
 N2629 N 0.50617 1.01883 0.58265
 N2630 N 0.51106 1.01912 0.59922
 N2631 N 0.04065 0.50932 1.16703
 C2632 C 0.04987 0.51137 1.15208
 N2633 N 0.06799 0.51076 1.15242
 N2634 N 0.07667 0.50826 1.16720
 C2635 C 0.06762 0.50621 1.18231
 N2636 N 0.04936 0.50683 1.18185
 C2637 C 0.04081 0.51350 1.13585
 C2638 C 0.03453 0.51485 1.12157
 C2639 C 0.02894 0.51569 1.10385
 N2640 N 0.04117 0.51238 1.09135
 N2641 N 0.03635 0.51216 1.07488
 C2642 C 0.01910 0.51529 1.07021
 N2643 N 0.00679 0.51879 1.08274
 N2644 N 0.01165 0.51898 1.09932
 N2645 N -0.06927 -0.01372 1.15221
 C2646 C -0.05114 -0.01354 1.15151
 N2647 N -0.04176 -0.01175 1.16634
 N2648 N -0.05030 -0.01023 1.18141
 C2649 C -0.06853 -0.01036 1.18221
 N2650 N -0.07778 -0.01219 1.16724
 C2651 C -0.04229 -0.01431 1.13504
 C2652 C -0.03608 -0.01441 1.12066
 C2653 C -0.03039 -0.01368 1.10295
 N2654 N -0.01320 -0.01721 1.09817
 N2655 N -0.00818 -0.01561 1.08170
 C2656 C -0.02021 -0.01043 1.06952
 N2657 N -0.03737 -0.00704 1.07441
 N2658 N -0.04236 -0.00866 1.09079
 N2659 N 0.43105 0.48494 0.65260
 C2660 C 0.44915 0.48591 0.65187
 N2661 N 0.45845 0.48856 0.66663
 N2662 N 0.44986 0.49014 0.68167
 C2663 C 0.43168 0.48923 0.68246
 N2664 N 0.42249 0.48654 0.66760
 C2665 C 0.45802 0.48515 0.63541
 C2666 C 0.46424 0.48506 0.62103
 C2667 C 0.46995 0.48581 0.60334
 N2668 N 0.48714 0.48227 0.59858
 N2669 N 0.49218 0.48388 0.58211
 C2670 C 0.48016 0.48907 0.56992
 N2671 N 0.46300 0.49246 0.57480
 N2672 N 0.45799 0.49084 0.59117
 N2673 N 0.45378 0.51888 -0.16560
 C2674 C 0.45408 0.50547 -0.15380
 N2675 N 0.44553 0.48992 -0.15739
 N2676 N 0.43692 0.48783 -0.17227
 C2677 C 0.43647 0.50124 -0.18412
 N2678 N 0.44518 0.51678 -0.18051
 C2679 C 0.46198 0.50806 -0.13710
 C2680 C 0.46754 0.50964 -0.12259
 C2681 C 0.47261 0.51062 -0.10474
 N2682 N 0.46017 0.50714 -0.09251
 N2683 N 0.46465 0.50685 -0.07594
 C2684 C 0.48174 0.51007 -0.07092
 N2685 N 0.49424 0.51373 -0.08319
 N2686 N 0.48974 0.51399 -0.09985
 N2687 N -0.05429 0.98935 0.34203
 C2688 C -0.04580 1.00491 0.34572
 N2689 N -0.04601 1.01834 0.33394
 N2690 N -0.05449 1.01626 0.31897
 C2691 C -0.06315 1.00071 0.31525
 N2692 N -0.06278 0.98728 0.32709
 C2693 C -0.03802 1.00748 0.36248
 C2694 C -0.03254 1.00905 0.37703
 C2695 C -0.02755 1.01001 0.39489
 N2696 N -0.01048 1.01357 0.39985
 N2697 N -0.00604 1.01334 0.41653
 C2698 C -0.01855 1.00953 0.42875
 N2699 N -0.03558 1.00612 0.42367
 N2700 N -0.04000 1.00638 0.40708
 N2701 N 0.04452 0.47568 0.33254
 C2702 C 0.04393 0.48914 0.34428
 N2703 N 0.05240 0.50475 0.34070
 N2704 N 0.06120 0.50685 0.32589
 C2705 C 0.06194 0.49340 0.31408
 N2706 N 0.05332 0.47779 0.31770
 C2707 C 0.03575 0.48658 0.36091
 C2708 C 0.02992 0.48506 0.37538
 C2709 C 0.02452 0.48419 0.39317
 N2710 N 0.03684 0.48733 0.40555
 N2711 N 0.03206 0.48790 0.42206
 C2712 C 0.01477 0.48530 0.42687
 N2713 N 0.00239 0.48194 0.41447
 N2714 N 0.00720 0.48141 0.39787
 N2715 N 0.55356 0.00429 -0.15890
 C2716 C 0.54484 -0.01121 -0.15546
 N2717 N 0.54534 -0.02462 -0.16726
 N2718 N 0.55428 -0.02256 -0.18203
 C2719 C 0.56314 -0.00706 -0.18551
 N2720 N 0.56250 0.00635 -0.17365
 C2721 C 0.53648 -0.01374 -0.13891
 C2722 C 0.53051 -0.01523 -0.12450
 C2723 C 0.52496 -0.01606 -0.10674
 N2724 N 0.50758 -0.01868 -0.10217
 N2725 N 0.50264 -0.01811 -0.08561
 C2726 C 0.51496 -0.01487 -0.07311
 N2727 N 0.53231 -0.01243 -0.07781
 N2728 N 0.53722 -0.01304 -0.09428
 N2729 N 0.64784 0.59102 -0.00593
 C2730 C 0.64856 0.57309 -0.00876
 N2731 N 0.66479 0.56483 -0.00934
 N2732 N 0.67979 0.57422 -0.00724
 C2733 C 0.67915 0.59223 -0.00439
 N2734 N 0.66283 0.60040 -0.00383
 C2735 C 0.63227 0.56290 -0.01031
 C2736 C 0.61844 0.55454 -0.01098
 C2737 C 0.60183 0.54475 -0.01075
 N2738 N 0.59695 0.53574 0.00365
 N2739 N 0.58116 0.52757 0.00451
 C2740 C 0.56963 0.52803 -0.00900
 N2741 N 0.57459 0.53695 -0.02352
 N2742 N 0.59043 0.54517 -0.02437
 N2743 N 0.16437 1.06459 0.49034
 C2744 C 0.14814 1.07285 0.49092
 N2745 N 0.14741 1.09078 0.49374
 N2746 N 0.16240 1.10017 0.49583
 C2747 C 0.17872 1.09199 0.49527
 N2748 N 0.17937 1.07399 0.49243
 C2749 C 0.13185 1.06266 0.48937
 C2750 C 0.11803 1.05428 0.48870
 C2751 C 0.10143 1.04449 0.48894
 N2752 N 0.09003 1.04488 0.47531
 N2753 N 0.07420 1.03665 0.47618
 C2754 C 0.06923 1.02776 0.49071
 N2755 N 0.08076 1.02732 0.50423
 N2756 N 0.09655 1.03550 0.50336
 N2757 N 0.16421 -0.06385 1.00854
 C2758 C 0.14792 -0.07181 1.00798
 N2759 N 0.14706 -0.08973 1.00520
 N2760 N 0.16198 -0.09940 1.00314
 C2761 C 0.17840 -0.09155 1.00371
 N2762 N 0.17914 -0.07354 1.00649
 C2763 C 0.13173 -0.06131 1.00959
 C2764 C 0.11802 -0.05263 1.01038
 C2765 C 0.10157 -0.04242 1.01037
 N2766 N 0.09730 -0.03228 0.99648
 N2767 N 0.08165 -0.02367 0.99576
 C2768 C 0.06966 -0.02482 1.00892
 N2769 N 0.07402 -0.03487 1.02293
 N2770 N 0.08971 -0.04353 1.02363
 N2771 N 0.66455 0.43552 0.50899
 C2772 C 0.64827 0.42756 0.50845
 N2773 N 0.64739 0.40964 0.50570
 N2774 N 0.66231 0.39996 0.50364
 C2775 C 0.67873 0.40781 0.50417
 N2776 N 0.67948 0.42583 0.50692
 C2777 C 0.63208 0.43807 0.51007
 C2778 C 0.61838 0.44676 0.51086
 C2779 C 0.60194 0.45699 0.51083
 N2780 N 0.59008 0.45591 0.52410
 N2781 N 0.57440 0.46458 0.52338
 C2782 C 0.57005 0.47462 0.50936
 N2783 N 0.58204 0.47574 0.49621
 N2784 N 0.59768 0.46712 0.49693
 N2785 N -0.16395 0.42706 0.50431
 C2786 C -0.15313 0.42462 0.49042
 N2787 N -0.15775 0.41234 0.47837
 N2788 N -0.17272 0.40283 0.48014
 C2789 C -0.18365 0.40519 0.49403
 N2790 N -0.17893 0.41754 0.50607
 C2791 C -0.13673 0.43461 0.48874
 C2792 C -0.12288 0.44291 0.48781
 C2793 C -0.10630 0.45275 0.48764
 N2794 N -0.09471 0.45158 0.47415
 N2795 N -0.07892 0.45993 0.47466
 C2796 C -0.07422 0.46974 0.48870
 N2797 N -0.08594 0.47095 0.50208
 N2798 N -0.10167 0.46265 0.50155
 N2799 N 0.33574 -0.07241 0.00387
 C2800 C 0.34657 -0.07491 -0.01000
 N2801 N 0.34195 -0.08725 -0.02200
 N2802 N 0.32697 -0.09674 -0.02020
 C2803 C 0.31604 -0.09432 -0.00632
 N2804 N 0.32075 -0.08192 0.00567
 C2805 C 0.36299 -0.06495 -0.01169
 C2806 C 0.37685 -0.05667 -0.01263
 C2807 C 0.39345 -0.04687 -0.01279
 N2808 N 0.40510 -0.04815 -0.02623
 N2809 N 0.42091 -0.03984 -0.02569
 C2810 C 0.42557 -0.02997 -0.01168
 N2811 N 0.41378 -0.02864 0.00164
 N2812 N 0.39803 -0.03690 0.00109
 N2813 N 0.33825 1.07307 0.49493
 C2814 C 0.34899 1.07531 0.50884
 N2815 N 0.34398 1.08711 0.52125
 N2816 N 0.32871 1.09634 0.51981
 C2817 C 0.31787 1.09418 0.50590
 N2818 N 0.32297 1.08231 0.49350
 C2819 C 0.36574 1.06569 0.51012
 C2820 C 0.37988 1.05773 0.51071
 C2821 C 0.39681 1.04834 0.51045
 N2822 N 0.40824 1.04903 0.52405
 N2823 N 0.42430 1.04108 0.52320
 C2824 C 0.42946 1.03216 0.50871
 N2825 N 0.41791 1.03143 0.49523
 N2826 N 0.40190 1.03933 0.49608
 N2827 N -0.16108 0.57377 0.99530
 C2828 C -0.15033 0.57604 1.00921
 N2829 N -0.15540 0.58778 1.02165
 N2830 N -0.17072 0.59693 1.02024
 C2831 C -0.18156 0.59474 1.00633
 N2832 N -0.17640 0.58293 0.99390
 C2833 C -0.13353 0.56650 1.01045
 C2834 C -0.11935 0.55860 1.01099
 C2835 C -0.10239 0.54927 1.01065
 N2836 N -0.09099 0.54981 1.02427
 N2837 N -0.07492 0.54187 1.02336
 C2838 C -0.06973 0.53313 1.00878
 N2839 N -0.08126 0.53255 0.99527
 N2840 N -0.09727 0.54044 0.99619
 N2841 N 0.02827 0.65240 0.57526
 C2842 C 0.02325 0.65208 0.55853
 N2843 N 0.01726 0.66735 0.55099
 N2844 N 0.01619 0.68251 0.56002
 C2845 C 0.02095 0.68284 0.57691
 N2846 N 0.02717 0.66752 0.58429
 C2847 C 0.02208 0.63533 0.54975
 C2848 C 0.02025 0.62087 0.54322
 C2849 C 0.01724 0.60341 0.53637
 N2850 N 0.00668 0.60122 0.52237
 N2851 N 0.00279 0.58483 0.51676
 C2852 C 0.00920 0.57014 0.52509
 N2853 N 0.01979 0.57240 0.53911
 N2854 N 0.02368 0.58879 0.54470
 N2855 N 0.52797 0.15212 0.07569
 C2856 C 0.52314 0.15185 0.05890
 N2857 N 0.51733 0.16716 0.05131
 N2858 N 0.51625 0.18232 0.06034
 C2859 C 0.52081 0.18261 0.07728
 N2860 N 0.52686 0.16725 0.08471
 C2861 C 0.52202 0.13512 0.05009
 C2862 C 0.52022 0.12068 0.04351
 C2863 C 0.51725 0.10324 0.03658
 N2864 N 0.50679 0.10110 0.02250
 N2865 N 0.50291 0.08473 0.01682
 C2866 C 0.50925 0.07001 0.02515
 N2867 N 0.51975 0.07221 0.03923
 N2868 N 0.52362 0.08858 0.04490
 N2869 N -0.01765 0.17537 0.94954
 C2870 C -0.02477 0.16065 0.94202
 N2871 N -0.03000 0.16146 0.92536
 N2872 N -0.02801 0.17651 0.91639
 C2873 C -0.02064 0.19126 0.92374
 N2874 N -0.01568 0.19046 0.94056
 C2875 C -0.02437 0.14375 0.95060
 C2876 C -0.02310 0.12911 0.95691
 C2877 C -0.02062 0.11140 0.96345
 N2878 N -0.01052 0.10859 0.97767
 N2879 N -0.00691 0.09197 0.98291
 C2880 C -0.01315 0.07765 0.97398
 N2881 N -0.02330 0.08052 0.95976
 N2882 N -0.02691 0.09714 0.95453
 N2883 N 0.46911 0.66057 0.42571
 C2884 C 0.47431 0.65975 0.44239
 N2885 N 0.48127 0.67451 0.44997
 N2886 N 0.48313 0.68965 0.44105
 C2887 C 0.47822 0.69045 0.42421
 N2888 N 0.47100 0.67567 0.41680
 C2889 C 0.47489 0.64282 0.45090
 C2890 C 0.47634 0.62817 0.45716
 C2891 C 0.47906 0.61049 0.46366
 N2892 N 0.47287 0.59618 0.45475
 N2893 N 0.47666 0.57958 0.45996
 C2894 C 0.48689 0.57681 0.47415
 N2895 N 0.49303 0.59118 0.48306
 N2896 N 0.48925 0.60777 0.47784
 N2897 N 0.53240 0.83883 0.43748
 C2898 C 0.52623 0.85454 0.43094
 N2899 N 0.51711 0.85451 0.41591
 N2900 N 0.51408 0.83922 0.40767
 C2901 C 0.52001 0.82339 0.41420
 N2902 N 0.52941 0.82349 0.42918
 C2903 C 0.52732 0.87080 0.44052
 C2904 C 0.52666 0.88488 0.44797
 C2905 C 0.52424 0.90187 0.45607
 N2906 N 0.53029 0.91694 0.44829
 N2907 N 0.52619 0.93300 0.45471
 C2908 C 0.51573 0.93448 0.46897
 N2909 N 0.50976 0.91935 0.47678
 N2910 N 0.51387 0.90330 0.47035
 N2911 N 0.03298 0.33959 0.93680
 C2912 C 0.02677 0.35528 0.93026
 N2913 N 0.01779 0.35526 0.91516
 N2914 N 0.01492 0.33997 0.90685
 C2915 C 0.02088 0.32415 0.91337
 N2916 N 0.03014 0.32425 0.92843
 C2917 C 0.02769 0.37151 0.93990
 C2918 C 0.02691 0.38557 0.94739
 C2919 C 0.02439 0.40254 0.95550
 N2920 N 0.03054 0.41763 0.94784
 N2921 N 0.02643 0.43367 0.95430
 C2922 C 0.01585 0.43511 0.96849
 N2923 N 0.00977 0.41995 0.97617
 N2924 N 0.01389 0.40392 0.96971
 N2925 N 0.47197 0.33412 0.06479
 C2926 C 0.48066 0.34921 0.06966
 N2927 N 0.49246 0.34845 0.08283
 N2928 N 0.49557 0.33305 0.09091
 C2929 C 0.48704 0.31783 0.08608
 N2930 N 0.47507 0.31868 0.07293
 C2931 C 0.47866 0.36555 0.06034
 C2932 C 0.47843 0.37964 0.05289
 C2933 C 0.47975 0.39660 0.04455
 N2934 N 0.48971 0.39823 0.03002
 N2935 N 0.49278 0.41432 0.02327
 C2936 C 0.48613 0.42931 0.03094
 N2937 N 0.47606 0.42763 0.04543
 N2938 N 0.47300 0.41152 0.05219
 N2939 N -0.02869 0.83414 0.56479
 C2940 C -0.02026 0.84930 0.56986
 N2941 N -0.00865 0.84861 0.58320
 N2942 N -0.00548 0.83320 0.59123
 C2943 C -0.01374 0.81791 0.58619
 N2944 N -0.02553 0.81868 0.57288
 C2945 C -0.02222 0.86564 0.56052
 C2946 C -0.02240 0.87971 0.55304
 C2947 C -0.02098 0.89665 0.54466
 N2948 N -0.01093 0.89820 0.53019
 N2949 N -0.00778 0.91426 0.52340
 C2950 C -0.01444 0.92929 0.53098
 N2951 N -0.02459 0.92769 0.54543
 N2952 N -0.02773 0.91161 0.55222
 N2953 N 0.26146 0.31772 0.09759
 C2954 C 0.26179 0.29956 0.09798
 N2955 N 0.25931 0.29034 0.08310
 N2956 N 0.25667 0.29908 0.06831
 C2957 C 0.25632 0.31734 0.06786
 N2958 N 0.25881 0.32644 0.08283
 C2959 C 0.26399 0.29048 0.11420
 C2960 C 0.26538 0.28421 0.12849
 C2961 C 0.26624 0.27867 0.14622
 N2962 N 0.26909 0.26129 0.15082
 N2963 N 0.26880 0.25649 0.16742
 C2964 C 0.26563 0.26893 0.17990
 N2965 N 0.26294 0.28626 0.17516
 N2966 N 0.26327 0.29104 0.15866
 N2967 N 0.76135 0.81759 0.59781
 C2968 C 0.76180 0.79943 0.59820
 N2969 N 0.75935 0.79019 0.58333
 N2970 N 0.75661 0.79892 0.56854
 C2971 C 0.75614 0.81717 0.56810
 N2972 N 0.75860 0.82629 0.58307
 C2973 C 0.76414 0.79037 0.61442
 C2974 C 0.76563 0.78411 0.62870
 C2975 C 0.76663 0.77858 0.64643
 N2976 N 0.76945 0.76119 0.65103
 N2977 N 0.76925 0.75640 0.66764
 C2978 C 0.76621 0.76887 0.68013
 N2979 N 0.76357 0.78620 0.67539
 N2980 N 0.76380 0.79097 0.65889
 N2981 N 0.23955 0.70833 0.58361
 C2982 C 0.23672 0.69900 0.59837
 N2983 N 0.23547 0.68090 0.59760
 N2984 N 0.23695 0.67236 0.58260
 C2985 C 0.23981 0.68157 0.56774
 N2986 N 0.24101 0.69977 0.56856
 C2987 C 0.23608 0.70784 0.61484
 C2988 C 0.23606 0.71404 0.62922
 C2989 C 0.23686 0.71977 0.64690
 N2990 N 0.24228 0.70791 0.65903
 N2991 N 0.24384 0.71294 0.67539
 C2992 C 0.24001 0.73002 0.68030
 N2993 N 0.23444 0.74193 0.66814
 N2994 N 0.23289 0.73687 0.65168
 N2995 N 0.73575 0.18039 0.09783
 C2996 C 0.73691 0.19850 0.09858
 N2997 N 0.73961 0.20784 0.08380
 N2998 N 0.74106 0.19927 0.06875
 C2999 C 0.73996 0.18107 0.06795
 N3000 N 0.73722 0.17185 0.08282
 C3001 C 0.73629 0.20734 0.11505
 C3002 C 0.73629 0.21355 0.12942
 C3003 C 0.73713 0.21927 0.14710
 N3004 N 0.73314 0.23637 0.15190
 N3005 N 0.73471 0.24142 0.16835
 C3006 C 0.74032 0.22951 0.18050
 N3007 N 0.74418 0.21244 0.17558
 N3008 N 0.74259 0.20742 0.15922
 N3009 N 0.74047 0.19437 0.90732
 C3010 C 0.75605 0.20282 0.90361
 N3011 N 0.76945 0.20253 0.91538
 N3012 N 0.76730 0.19404 0.93037
 C3013 C 0.75174 0.18544 0.93411
 N3014 N 0.73835 0.18587 0.92229
 C3015 C 0.75866 0.21065 0.88685
 C3016 C 0.76023 0.21618 0.87230
 C3017 C 0.76120 0.22127 0.85444
 N3018 N 0.75752 0.20888 0.84223
 N3019 N 0.75724 0.21339 0.82566
 C3020 C 0.76066 0.23047 0.82061
 N3021 N 0.76453 0.24292 0.83285
 N3022 N 0.76478 0.23838 0.84951
 N3023 N 0.24080 0.69487 0.40708
 C3024 C 0.25640 0.70330 0.40342
 N3025 N 0.26975 0.70300 0.41523
 N3026 N 0.26756 0.69449 0.43021
 C3027 C 0.25197 0.68591 0.43390
 N3028 N 0.23862 0.68636 0.42203
 C3029 C 0.25905 0.71116 0.38668
 C3030 C 0.26065 0.71674 0.37215
 C3031 C 0.26161 0.72189 0.35430
 N3032 N 0.25793 0.70954 0.34205
 N3033 N 0.25758 0.71413 0.32550
 C3034 C 0.26095 0.73124 0.32051
 N3035 N 0.26483 0.74364 0.33279
 N3036 N 0.26514 0.73903 0.34944
 N3037 N 0.75448 0.80267 0.40893
 C3038 C 0.73893 0.79411 0.40539
 N3039 N 0.72544 0.79471 0.41711
 N3040 N 0.72746 0.80362 0.43188
 C3041 C 0.74299 0.81234 0.43545
 N3042 N 0.75648 0.81158 0.42368
 C3043 C 0.73646 0.78585 0.38881
 C3044 C 0.73499 0.77999 0.37437
 C3045 C 0.73418 0.77458 0.35660
 N3046 N 0.73143 0.75723 0.35194
 N3047 N 0.73198 0.75243 0.33535
 C3048 C 0.73532 0.76483 0.32292
 N3049 N 0.73789 0.78215 0.32770
 N3050 N 0.73731 0.78693 0.34420
 N3051 N 0.22559 0.29497 0.91692
 C3052 C 0.23907 0.29430 0.90519
 N3053 N 0.25465 0.30279 0.90871
 N3054 N 0.25671 0.31170 0.92345
 C3055 C 0.24324 0.31252 0.93524
 N3056 N 0.22766 0.30387 0.93169
 C3057 C 0.23654 0.28604 0.88863
 C3058 C 0.23505 0.28017 0.87420
 C3059 C 0.23422 0.27474 0.85643
 N3060 N 0.23723 0.28711 0.84401
 N3061 N 0.23788 0.28231 0.82752
 C3062 C 0.23551 0.26496 0.82277
 N3063 N 0.23228 0.25253 0.83521
 N3064 N 0.23166 0.25736 0.85180
 N3065 N 0.81544 0.41404 0.75973
 C3066 C 0.82375 0.39783 0.75904
 N3067 N 0.84168 0.39721 0.75627
 N3068 N 0.85101 0.41228 0.75433
 C3069 C 0.84278 0.42858 0.75501
 N3070 N 0.82478 0.42913 0.75779
 C3071 C 0.81363 0.38146 0.76044
 C3072 C 0.80531 0.36758 0.76101
 C3073 C 0.79558 0.35093 0.76069
 N3074 N 0.79592 0.33944 0.77428
 N3075 N 0.78771 0.32358 0.77337
 C3076 C 0.77889 0.31868 0.75881
 N3077 N 0.77851 0.33029 0.74531
 N3078 N 0.78667 0.34610 0.74624
 N3079 N 0.31543 0.91502 0.25962
 C3080 C 0.32374 0.89882 0.25882
 N3081 N 0.34162 0.89821 0.25585
 N3082 N 0.35092 0.91329 0.25383
 C3083 C 0.34274 0.92965 0.25462
 N3084 N 0.32474 0.93011 0.25760
 C3085 C 0.31364 0.88244 0.26032
 C3086 C 0.30534 0.86856 0.26095
 C3087 C 0.29560 0.85190 0.26067
 N3088 N 0.29610 0.84036 0.27422
 N3089 N 0.28786 0.82451 0.27334
 C3090 C 0.27887 0.81968 0.25886
 N3091 N 0.27834 0.83134 0.24542
 N3092 N 0.28653 0.84714 0.24631
 N3093 N 0.18515 0.91439 0.74061
 C3094 C 0.17715 0.89810 0.74108
 N3095 N 0.15923 0.89727 0.74379
 N3096 N 0.14960 0.91222 0.74587
 C3097 C 0.15752 0.92861 0.74541
 N3098 N 0.17552 0.92936 0.74270
 C3099 C 0.18761 0.88188 0.73950
 C3100 C 0.19629 0.86816 0.73879
 C3101 C 0.20653 0.85173 0.73893
 N3102 N 0.20563 0.83984 0.72569
 N3103 N 0.21432 0.82416 0.72651
 C3104 C 0.22422 0.81985 0.74062
 N3105 N 0.22516 0.83186 0.75375
 N3106 N 0.21651 0.84750 0.75292
 N3107 N 0.65956 0.39672 0.24398
 C3108 C 0.67748 0.39758 0.24127
 N3109 N 0.68547 0.41387 0.24082
 N3110 N 0.67581 0.42882 0.24292
 C3111 C 0.65782 0.42805 0.24564
 N3112 N 0.64992 0.41166 0.24608
 C3113 C 0.68796 0.38137 0.23968
 C3114 C 0.69664 0.36765 0.23896
 C3115 C 0.70689 0.35122 0.23910
 N3116 N 0.71684 0.34699 0.25310
 N3117 N 0.72549 0.33135 0.25393
 C3118 C 0.72455 0.31934 0.24080
 N3119 N 0.71468 0.32366 0.22668
 N3120 N 0.70599 0.33935 0.22585
 N3121 N 0.67708 0.58606 0.24594
 C3122 C 0.67479 0.59680 0.25990
 N3123 N 0.66256 0.59213 0.27202
 N3124 N 0.65298 0.57720 0.27024
 C3125 C 0.65520 0.56638 0.25627
 N3126 N 0.66749 0.57113 0.24416
 C3127 C 0.68482 0.61317 0.26157
 C3128 C 0.69315 0.62700 0.26248
 C3129 C 0.70299 0.64358 0.26259
 N3130 N 0.70188 0.65516 0.27609
 N3131 N 0.71019 0.67098 0.27551
 C3132 C 0.71991 0.67572 0.26140
 N3133 N 0.72108 0.66401 0.24802
 N3134 N 0.71281 0.64824 0.24861
 N3135 N 0.17721 0.08644 0.74549
 C3136 C 0.17496 0.09719 0.75944
 N3137 N 0.16269 0.09261 0.77154
 N3138 N 0.15302 0.07774 0.76976
 C3139 C 0.15519 0.06689 0.75581
 N3140 N 0.16754 0.07156 0.74372
 C3141 C 0.18511 0.11349 0.76113
 C3142 C 0.19353 0.12727 0.76207
 C3143 C 0.20349 0.14378 0.76227
 N3144 N 0.20226 0.15541 0.77571
 N3145 N 0.21069 0.17116 0.77520
 C3146 C 0.22065 0.17580 0.76121
 N3147 N 0.22193 0.16404 0.74789
 N3148 N 0.21354 0.14833 0.74841
 N3149 N 0.33661 0.09425 0.22917
 C3150 C 0.32489 0.09927 0.24165
 N3151 N 0.32263 0.08844 0.25553
 N3152 N 0.33179 0.07310 0.25689
 C3153 C 0.34360 0.06800 0.24442
 N3154 N 0.34577 0.07892 0.23053
 C3155 C 0.31535 0.11610 0.24044
 C3156 C 0.30747 0.13030 0.23989
 C3157 C 0.29817 0.14730 0.24014
 N3158 N 0.28924 0.15247 0.25453
 N3159 N 0.28139 0.16852 0.25534
 C3160 C 0.28210 0.18004 0.24179
 N3161 N 0.29095 0.17481 0.22729
 N3162 N 0.29885 0.15870 0.22648
 N3163 N 0.82357 0.58852 0.75590
 C3164 C 0.82583 0.59936 0.74202
 N3165 N 0.83761 0.59438 0.72957
 N3166 N 0.84680 0.57906 0.73095
 C3167 C 0.84462 0.56814 0.74484
 N3168 N 0.83277 0.57320 0.75728
 C3169 C 0.81625 0.61615 0.74079
 C3170 C 0.80832 0.63034 0.74021
 C3171 C 0.79898 0.64731 0.74043
 N3172 N 0.79970 0.65873 0.72680
 N3173 N 0.79176 0.67482 0.72759
 C3174 C 0.78283 0.68001 0.74206
 N3175 N 0.78207 0.66847 0.75559
 N3176 N 0.78996 0.65244 0.75479
 N3177 N 0.90084 0.77591 0.17181
 C3178 C 0.90071 0.77343 0.18907
 N3179 N 0.91628 0.76985 0.19733
 N3180 N 0.93155 0.76863 0.18850
 C3181 C 0.93178 0.77077 0.17107
 N3182 N 0.91609 0.77467 0.16300
 C3183 C 0.88404 0.77248 0.19798
 C3184 C 0.86967 0.77078 0.20471
 C3185 C 0.85234 0.76784 0.21188
 N3186 N 0.85036 0.75731 0.22597
 N3187 N 0.83408 0.75342 0.23186
 C3188 C 0.81929 0.75982 0.22374
 N3189 N 0.82133 0.77039 0.20964
 N3190 N 0.83762 0.77428 0.20376
 N3191 N 0.41797 0.26804 0.69921
 C3192 C 0.40277 0.27396 0.69155
 N3193 N 0.40319 0.27880 0.67475
 N3194 N 0.41835 0.27759 0.66579
 C3195 C 0.43360 0.27143 0.67329
 N3196 N 0.43316 0.26686 0.69024
 C3197 C 0.38599 0.27286 0.70027
 C3198 C 0.37152 0.27104 0.70677
 C3199 C 0.35406 0.26799 0.71361
 N3200 N 0.35185 0.25746 0.72766
 N3201 N 0.33547 0.25348 0.73324
 C3202 C 0.32081 0.25979 0.72482
 N3203 N 0.32309 0.27036 0.71076
 N3204 N 0.33947 0.27433 0.70519
 N3205 N 0.41074 0.72034 0.82473
 C3206 C 0.40977 0.72571 0.80810
 N3207 N 0.42447 0.73271 0.80040
 N3208 N 0.43968 0.73443 0.80916
 C3209 C 0.44063 0.72934 0.82595
 N3210 N 0.42591 0.72209 0.83349
 C3211 C 0.39281 0.72631 0.79973
 C3212 C 0.37816 0.72773 0.79355
 C3213 C 0.36048 0.73035 0.78709
 N3214 N 0.35771 0.74054 0.77289
 N3215 N 0.34113 0.74415 0.76764
 C3216 C 0.32680 0.73781 0.77652
 N3217 N 0.32963 0.72757 0.79072
 N3218 N 0.34622 0.72397 0.79597
 N3219 N 0.91091 0.21999 0.32525
 C3220 C 0.90999 0.22544 0.30864
 N3221 N 0.92468 0.23255 0.30103
 N3222 N 0.93984 0.23430 0.30987
 C3223 C 0.94075 0.22913 0.32663
 N3224 N 0.92604 0.22177 0.33407
 C3225 C 0.89306 0.22600 0.30020
 C3226 C 0.87843 0.22737 0.29397
 C3227 C 0.86077 0.22993 0.28745
 N3228 N 0.85802 0.24009 0.27322
 N3229 N 0.84144 0.24366 0.26792
 C3230 C 0.82711 0.23732 0.27678
 N3231 N 0.82991 0.22712 0.29101
 N3232 N 0.84649 0.22356 0.29630
 N3233 N 0.10463 0.26809 0.33415
 C3234 C 0.10453 0.27722 0.31910
 N3235 N 0.08878 0.28334 0.31268
 N3236 N 0.07352 0.28028 0.32110
 C3237 C 0.07355 0.27086 0.33611
 N3238 N 0.08942 0.26499 0.34252
 C3239 C 0.12070 0.27834 0.30939
 C3240 C 0.13474 0.27767 0.30187
 C3241 C 0.15172 0.27521 0.29376
 N3242 N 0.15317 0.26469 0.27959
 N3243 N 0.16922 0.26050 0.27321
 C3244 C 0.18431 0.26654 0.28095
 N3245 N 0.18281 0.27715 0.29510
 N3246 N 0.16676 0.28133 0.30147
 N3247 N 0.60489 0.76849 0.83382
 C3248 C 0.60492 0.77746 0.81868
 N3249 N 0.58921 0.78341 0.81202
 N3250 N 0.57386 0.78033 0.82029
 C3251 C 0.57377 0.77106 0.83537
 N3252 N 0.58959 0.76536 0.84203
 C3253 C 0.62119 0.77855 0.80913
 C3254 C 0.63530 0.77784 0.80173
 C3255 C 0.65233 0.77532 0.79374
 N3256 N 0.65383 0.76479 0.77957
 N3257 N 0.66990 0.76056 0.77328
 C3258 C 0.68497 0.76654 0.78111
 N3259 N 0.68342 0.77715 0.79525
 N3260 N 0.66734 0.78138 0.80154
 N3261 N 0.58462 0.22137 0.68626
 C3262 C 0.59982 0.22960 0.68099
 N3263 N 0.59921 0.24101 0.66746
 N3264 N 0.58383 0.24419 0.65942
 C3265 C 0.56850 0.23613 0.66466
 N3266 N 0.56920 0.22454 0.67817
 C3267 C 0.61615 0.22764 0.69027
 C3268 C 0.63024 0.22746 0.69764
 C3269 C 0.64723 0.22886 0.70584
 N3270 N 0.66210 0.22214 0.69810
 N3271 N 0.67822 0.22529 0.70471
 C3272 C 0.67995 0.23543 0.71913
 N3273 N 0.66502 0.24205 0.72689
 N3274 N 0.64891 0.23889 0.72029
 N3275 N 0.09715 0.74573 0.17059
 C3276 C 0.09815 0.73316 0.18311
 N3277 N 0.08329 0.72380 0.18745
 N3278 N 0.06784 0.72696 0.17942
 C3279 C 0.06677 0.73966 0.16687
 N3280 N 0.08175 0.74890 0.16260
 C3281 C 0.11457 0.73082 0.19215
 C3282 C 0.12878 0.73032 0.19932
 C3283 C 0.14591 0.73135 0.20728
 N3284 N 0.14794 0.74115 0.22183
 N3285 N 0.16420 0.74403 0.22822
 C3286 C 0.17893 0.73735 0.22014
 N3287 N 0.17684 0.72745 0.20561
 N3288 N 0.16057 0.72459 0.19922
   
